# Generated by pormake.
# Topology wjd, (6)-cn, num edge types: 1
# Building blocks:
#     Node 0, Type 0, BuildingBlock: KUMBOL_clean_sbu_1, # of connection points: 6
#     Node 1, Type 0, BuildingBlock: KUMBOL_clean_sbu_1, # of connection points: 6
#     Node 2, Type 0, BuildingBlock: KUMBOL_clean_sbu_1, # of connection points: 6
#     Node 3, Type 0, BuildingBlock: KUMBOL_clean_sbu_1, # of connection points: 6
#     Node 4, Type 0, BuildingBlock: KUMBOL_clean_sbu_1, # of connection points: 6
#     Node 5, Type 0, BuildingBlock: KUMBOL_clean_sbu_1, # of connection points: 6
#     Node 6, Type 0, BuildingBlock: KUMBOL_clean_sbu_1, # of connection points: 6
#     Node 7, Type 0, BuildingBlock: KUMBOL_clean_sbu_1, # of connection points: 6
#     Node 8, Type 0, BuildingBlock: KUMBOL_clean_sbu_1, # of connection points: 6
#     Node 9, Type 0, BuildingBlock: KUMBOL_clean_sbu_1, # of connection points: 6
#     Node 10, Type 0, BuildingBlock: KUMBOL_clean_sbu_1, # of connection points: 6
#     Node 11, Type 0, BuildingBlock: KUMBOL_clean_sbu_1, # of connection points: 6
#     Edge 12, Type (0, 0), BuildingBlock: ZUJKAS_clean_linker_0, # of connection points: 2
#     Edge 13, Type (0, 0), BuildingBlock: ZUJKAS_clean_linker_0, # of connection points: 2
#     Edge 14, Type (0, 0), BuildingBlock: ZUJKAS_clean_linker_0, # of connection points: 2
#     Edge 15, Type (0, 0), BuildingBlock: ZUJKAS_clean_linker_0, # of connection points: 2
#     Edge 16, Type (0, 0), BuildingBlock: ZUJKAS_clean_linker_0, # of connection points: 2
#     Edge 17, Type (0, 0), BuildingBlock: ZUJKAS_clean_linker_0, # of connection points: 2
#     Edge 18, Type (0, 0), BuildingBlock: ZUJKAS_clean_linker_0, # of connection points: 2
#     Edge 19, Type (0, 0), BuildingBlock: ZUJKAS_clean_linker_0, # of connection points: 2
#     Edge 20, Type (0, 0), BuildingBlock: ZUJKAS_clean_linker_0, # of connection points: 2
#     Edge 21, Type (0, 0), BuildingBlock: ZUJKAS_clean_linker_0, # of connection points: 2
#     Edge 22, Type (0, 0), BuildingBlock: ZUJKAS_clean_linker_0, # of connection points: 2
#     Edge 23, Type (0, 0), BuildingBlock: ZUJKAS_clean_linker_0, # of connection points: 2
#     Edge 24, Type (0, 0), BuildingBlock: ZUJKAS_clean_linker_0, # of connection points: 2
#     Edge 25, Type (0, 0), BuildingBlock: ZUJKAS_clean_linker_0, # of connection points: 2
#     Edge 26, Type (0, 0), BuildingBlock: ZUJKAS_clean_linker_0, # of connection points: 2
#     Edge 27, Type (0, 0), BuildingBlock: ZUJKAS_clean_linker_0, # of connection points: 2
#     Edge 28, Type (0, 0), BuildingBlock: ZUJKAS_clean_linker_0, # of connection points: 2
#     Edge 29, Type (0, 0), BuildingBlock: ZUJKAS_clean_linker_0, # of connection points: 2
#     Edge 30, Type (0, 0), BuildingBlock: ZUJKAS_clean_linker_0, # of connection points: 2
#     Edge 31, Type (0, 0), BuildingBlock: ZUJKAS_clean_linker_0, # of connection points: 2
#     Edge 32, Type (0, 0), BuildingBlock: ZUJKAS_clean_linker_0, # of connection points: 2
#     Edge 33, Type (0, 0), BuildingBlock: ZUJKAS_clean_linker_0, # of connection points: 2
#     Edge 34, Type (0, 0), BuildingBlock: ZUJKAS_clean_linker_0, # of connection points: 2
#     Edge 35, Type (0, 0), BuildingBlock: ZUJKAS_clean_linker_0, # of connection points: 2
#     Edge 36, Type (0, 0), BuildingBlock: ZUJKAS_clean_linker_0, # of connection points: 2
#     Edge 37, Type (0, 0), BuildingBlock: ZUJKAS_clean_linker_0, # of connection points: 2
#     Edge 38, Type (0, 0), BuildingBlock: ZUJKAS_clean_linker_0, # of connection points: 2
#     Edge 39, Type (0, 0), BuildingBlock: ZUJKAS_clean_linker_0, # of connection points: 2
#     Edge 40, Type (0, 0), BuildingBlock: ZUJKAS_clean_linker_0, # of connection points: 2
#     Edge 41, Type (0, 0), BuildingBlock: ZUJKAS_clean_linker_0, # of connection points: 2
#     Edge 42, Type (0, 0), BuildingBlock: ZUJKAS_clean_linker_0, # of connection points: 2
#     Edge 43, Type (0, 0), BuildingBlock: ZUJKAS_clean_linker_0, # of connection points: 2
#     Edge 44, Type (0, 0), BuildingBlock: ZUJKAS_clean_linker_0, # of connection points: 2
#     Edge 45, Type (0, 0), BuildingBlock: ZUJKAS_clean_linker_0, # of connection points: 2
#     Edge 46, Type (0, 0), BuildingBlock: ZUJKAS_clean_linker_0, # of connection points: 2
#     Edge 47, Type (0, 0), BuildingBlock: ZUJKAS_clean_linker_0, # of connection points: 2
# Relax obj value: 0.072
# Max RMSD: 0.178
# Mean RMSD: 0.178
data_MOF--net-wjd--node1-KUMBOL_clean_sbu_1--edge1-ZUJKAS_clean_linker_0
_symmetry_space_group_name_H-M    P1
_symmetry_Int_Tables_number       1
_symmetry_cell_setting            triclinic
loop_
_symmetry_equiv_pos_as_xyz
'x, y, z'
_cell_length_a     48.104035
_cell_length_b     48.132645
_cell_length_c     71.116208
_cell_angle_alpha  90.014111
_cell_angle_beta   90.044188
_cell_angle_gamma 119.95362
loop_
_atom_site_label
_atom_site_type_symbol
_atom_site_fract_x
_atom_site_fract_y
_atom_site_fract_z
_atom_type_partial_charge
C0 C 0.32038 0.20235 0.09945 0.0
C1 C 0.31331 0.23084 0.12546 0.0
C2 C 0.32618 0.21242 0.11809 0.0
C3 C 0.29419 0.23839 0.11402 0.0
C4 C 0.30172 0.21041 0.08781 0.0
C5 C 0.28851 0.22832 0.09523 0.0
N6 N 0.33235 0.18395 0.09282 0.0
C7 C 0.32844 0.17458 0.07445 0.0
C8 C 0.29662 0.19994 0.0691 0.0
C9 C 0.31026 0.18216 0.06236 0.0
Gd10 Gd 0.31265 0.08254 0.13475 0.0
Gd11 Gd 0.36304 0.17302 0.11383 0.0
N12 N 0.34472 0.20464 0.12889 0.0
C13 C 0.32044 0.24159 0.14405 0.0
C14 C 0.35368 0.21723 0.14655 0.0
C15 C 0.34112 0.23517 0.15453 0.0
H16 H 0.3712 0.21445 0.15449 0.0
H17 H 0.34785 0.24453 0.16866 0.0
H18 H 0.32093 0.0399 0.10056 0.0
H19 H 0.3393 0.16122 0.06913 0.0
H20 H 0.34927 0.00948 0.09512 0.0
H21 H 0.31091 0.25568 0.15025 0.0
H22 H 0.28396 0.25233 0.1195 0.0
H23 H 0.30947 0.08861 0.18182 0.0
H24 H 0.2824 0.20562 0.05972 0.0
H25 H 0.30681 0.17435 0.04785 0.0
H26 H 0.39918 0.01449 0.15461 0.0
H27 H 0.27385 0.23448 0.08656 0.0
H28 H 0.37258 0.06033 0.20661 0.0
H29 H 0.33594 0.08223 0.20987 0.0
N30 N 0.33365 0.07406 0.16266 0.0
C31 C 0.35165 0.05969 0.16073 0.0
C32 C 0.32664 0.0806 0.18013 0.0
C33 C 0.36167 0.0639 0.19419 0.0
C34 C 0.3411 0.07637 0.19609 0.0
C35 C 0.36643 0.0545 0.17641 0.0
H36 H 0.39618 0.03508 0.18579 0.0
N37 N 0.33768 0.05234 0.12862 0.0
C38 C 0.35331 0.048 0.14322 0.0
C39 C 0.36881 0.01751 0.12319 0.0
C40 C 0.36982 0.03096 0.14083 0.0
C41 C 0.33496 0.03772 0.11171 0.0
C42 C 0.35085 0.02046 0.10866 0.0
O43 O 0.30904 0.14248 0.11059 0.0
O44 O 0.29335 0.11646 0.13865 0.0
O45 O 0.26756 0.04836 0.12136 0.0
O46 O 0.27543 0.04268 0.15056 0.0
O47 O 0.37022 0.16678 0.1451 0.0
O48 O 0.32175 0.1235 0.15436 0.0
O49 O 0.36281 0.1006 0.12233 0.0
O50 O 0.38884 0.1534 0.13077 0.0
O51 O 0.39795 0.22403 0.11287 0.0
O52 O 0.40202 0.19183 0.09348 0.0
O53 O 0.30769 0.08986 0.10392 0.0
O54 O 0.3553 0.13288 0.09319 0.0
C55 C 0.28922 0.13219 0.12488 0.0
C56 C 0.34909 0.14964 0.15826 0.0
C57 C 0.23998 0.99571 0.13375 0.0
C58 C 0.19038 0.94412 0.12973 0.0
C59 C 0.24222 0.94662 0.13149 0.0
C60 C 0.25773 0.97985 0.13363 0.0
C61 C 0.20888 0.92886 0.12959 0.0
C62 C 0.20634 0.97781 0.13179 0.0
C63 C 0.25603 0.03076 0.13632 0.0
C64 C 0.38602 0.02719 0.15619 0.0
C65 C 0.38436 0.03898 0.17395 0.0
H66 H 0.38114 1.00416 0.12079 0.0
C67 C 0.38941 0.1272 0.12661 0.0
C68 C 0.32971 0.10398 0.09082 0.0
C69 C 0.45047 0.23766 0.10398 0.0
C70 C 0.50099 0.28728 0.11085 0.0
C71 C 0.49919 0.23581 0.11004 0.0
C72 C 0.46656 0.2202 0.10573 0.0
C73 C 0.51627 0.26896 0.11258 0.0
C74 C 0.46791 0.27134 0.1064 0.0
C75 C 0.41552 0.22101 0.10009 0.0
H76 H 0.25607 0.93451 0.1315 0.0
H77 H 0.2835 0.99305 0.13541 0.0
H78 H 0.19756 0.90304 0.12839 0.0
H79 H 0.1927 0.99017 0.13182 0.0
H80 H 0.51136 0.22218 0.11142 0.0
H81 H 0.45394 0.19445 0.10382 0.0
H82 H 0.54168 0.28033 0.11566 0.0
H83 H 0.45562 0.28496 0.10516 0.0
C84 C 0.73602 0.67571 0.3392 0.0
C85 C 0.68302 0.6501 0.35327 0.0
C86 C 0.71669 0.6666 0.35505 0.0
C87 C 0.66909 0.64236 0.33528 0.0
C88 C 0.72219 0.6687 0.32111 0.0
C89 C 0.68862 0.65164 0.31924 0.0
N90 N 0.76836 0.6923 0.34147 0.0
C91 C 0.78831 0.70387 0.32634 0.0
C92 C 0.74255 0.67962 0.30546 0.0
C93 C 0.77573 0.69765 0.30812 0.0
Gd94 Gd 0.82721 0.65387 0.39802 0.0
Gd95 Gd 0.78724 0.70097 0.37244 0.0
N96 N 0.73091 0.67411 0.37225 0.0
C97 C 0.66439 0.64216 0.36962 0.0
C98 C 0.71295 0.66766 0.38822 0.0
C99 C 0.67944 0.65124 0.38716 0.0
H100 H 0.72439 0.6746 0.40179 0.0
H101 H 0.66525 0.6456 0.39986 0.0
H102 H 0.86543 0.65899 0.35655 0.0
H103 H 0.81394 0.71825 0.3284 0.0
H104 H 0.91974 0.68929 0.34369 0.0
H105 H 0.63843 0.62943 0.36886 0.0
H106 H 0.64324 0.62953 0.33362 0.0
H107 H 0.83439 0.66868 0.44417 0.0
H108 H 0.73289 0.67486 0.29131 0.0
H109 H 0.79162 0.7071 0.29617 0.0
H110 H 0.98511 0.74468 0.39688 0.0
H111 H 0.67754 0.64588 0.30545 0.0
H112 H 0.93395 0.72994 0.4567 0.0
H113 H 0.87743 0.69957 0.46718 0.0
N114 N 0.86616 0.68225 0.42087 0.0
C115 C 0.8971 0.69805 0.41483 0.0
C116 C 0.85891 0.68223 0.43941 0.0
C117 C 0.91515 0.7165 0.44652 0.0
C118 C 0.88326 0.69948 0.45249 0.0
C119 C 0.92244 0.71587 0.42752 0.0
H120 H 0.97387 0.74668 0.4304 0.0
N121 N 0.87836 0.68007 0.38377 0.0
C122 C 0.90335 0.69712 0.39578 0.0
C123 C 0.94099 0.71172 0.37009 0.0
C124 C 0.93528 0.71378 0.38917 0.0
C125 C 0.88424 0.67589 0.36551 0.0
C126 C 0.9154 0.69227 0.35828 0.0
O127 O 0.75392 0.64679 0.37498 0.0
O128 O 0.77327 0.62581 0.3978 0.0
O129 O 0.84129 0.61855 0.39148 0.0
O130 O 0.82175 0.6181 0.41876 0.0
O131 O 0.78397 0.69809 0.404 0.0
O132 O 0.7957 0.66173 0.41884 0.0
O133 O 0.84815 0.70789 0.40136 0.0
O134 O 0.84063 0.72048 0.37184 0.0
O135 O 0.7953 0.7429 0.38845 0.0
O136 O 0.79062 0.74238 0.35818 0.0
O137 O 0.80991 0.64104 0.36751 0.0
O138 O 0.82212 0.69073 0.35777 0.0
C139 C 0.75049 0.62394 0.38668 0.0
C140 C 0.78493 0.68232 0.41893 0.0
C141 C 0.81153 0.56826 0.40582 0.0
C142 C 0.8074 0.51618 0.39977 0.0
C143 C 0.75923 0.52036 0.40316 0.0
C144 C 0.77796 0.55337 0.40596 0.0
C145 C 0.77376 0.50188 0.40003 0.0
C146 C 0.8262 0.54953 0.40285 0.0
C147 C 0.83142 0.60347 0.40736 0.0
C148 C 0.96051 0.73167 0.40177 0.0
C149 C 0.95412 0.73272 0.42088 0.0
H150 H 0.96513 0.72424 0.36446 0.0
C151 C 0.85776 0.72821 0.38728 0.0
C152 C 0.81381 0.6611 0.35384 0.0
C153 C 0.77411 0.77353 0.37523 0.0
C154 C 0.77076 0.82246 0.37822 0.0
C155 C 0.72225 0.7704 0.37475 0.0
C156 C 0.74061 0.75536 0.37391 0.0
C157 C 0.73712 0.80365 0.37682 0.0
C158 C 0.78909 0.80698 0.37745 0.0
C159 C 0.79381 0.75812 0.37366 0.0
H160 H 0.73332 0.50908 0.40329 0.0
H161 H 0.76625 0.56733 0.40803 0.0
H162 H 0.75863 0.47629 0.39794 0.0
H163 H 0.85214 0.56104 0.40241 0.0
H164 H 0.69639 0.75626 0.37359 0.0
H165 H 0.72867 0.72967 0.37202 0.0
H166 H 0.72221 0.81463 0.37695 0.0
H167 H 0.815 0.82084 0.37862 0.0
C168 C 0.81104 0.12192 0.09466 0.0
C169 C 0.79238 0.08386 0.12048 0.0
C170 C 0.80658 0.1157 0.11387 0.0
C171 C 0.78308 0.05858 0.10762 0.0
C172 C 0.80178 0.09658 0.08172 0.0
C173 C 0.78774 0.06491 0.08831 0.0
N174 N 0.8258 0.1529 0.08869 0.0
C175 C 0.83118 0.1602 0.07004 0.0
C176 C 0.80743 0.10389 0.06256 0.0
C177 C 0.82211 0.13582 0.0567 0.0
Gd178 Gd 0.9321 0.23574 0.13008 0.0
Gd179 Gd 0.84021 0.19197 0.11208 0.0
N180 N 0.81693 0.1408 0.12609 0.0
C181 C 0.78802 0.07835 0.13985 0.0
C182 C 0.81076 0.13527 0.14486 0.0
C183 C 0.79685 0.10414 0.15205 0.0
H184 H 0.81555 0.15446 0.15437 0.0
H185 H 0.79253 0.10001 0.16699 0.0
H186 H 0.96753 0.27249 0.08936 0.0
H187 H 0.84216 0.1848 0.06539 0.0
H188 H 0.99448 0.32703 0.07622 0.0
H189 H 0.77729 0.05426 0.14548 0.0
H190 H 0.77232 0.03401 0.11248 0.0
H191 H 0.93084 0.24362 0.17674 0.0
H192 H 0.80065 0.08508 0.05219 0.0
H193 H 0.82645 0.14167 0.04191 0.0
H194 H 1.00775 0.3941 0.12929 0.0
H195 H 0.7806 0.04515 0.07859 0.0
H196 H 0.97299 0.34362 0.18948 0.0
H197 H 0.94627 0.28719 0.19999 0.0
N198 N 0.9479 0.27521 0.15338 0.0
C199 C 0.96348 0.30615 0.14734 0.0
C200 C 0.94204 0.26818 0.17202 0.0
C201 C 0.96618 0.32465 0.17922 0.0
C202 C 0.95097 0.29277 0.18521 0.0
C203 C 0.97279 0.33171 0.1601 0.0
H204 H 0.99557 0.38333 0.16298 0.0
N205 N 0.96056 0.28691 0.11631 0.0
C206 C 0.96985 0.31217 0.12825 0.0
C207 C 0.99437 0.34922 0.10248 0.0
C208 C 0.98644 0.34399 0.12158 0.0
C209 C 0.97078 0.29206 0.09812 0.0
C210 C 0.98706 0.32315 0.09079 0.0
O211 O 0.8697 0.16734 0.10872 0.0
O212 O 0.90065 0.18255 0.13519 0.0
O213 O 0.96983 0.22855 0.11846 0.0
O214 O 0.96909 0.23699 0.14825 0.0
O215 O 0.8506 0.20983 0.14266 0.0
O216 O 0.8941 0.20448 0.1508 0.0
O217 O 0.90525 0.26378 0.1317 0.0
O218 O 0.86902 0.24513 0.10719 0.0
O219 O 0.79684 0.18806 0.12414 0.0
O220 O 0.80226 0.18915 0.09405 0.0
O221 O 0.92144 0.22054 0.09949 0.0
O222 O 0.87693 0.22381 0.0901 0.0
C223 C 0.88491 0.1614 0.122 0.0
C224 C 0.86945 0.20772 0.15545 0.0
C225 C 0.0196 0.253 0.13434 0.0
C226 C 0.07265 0.25756 0.13299 0.0
C227 C 0.06753 0.30541 0.13478 0.0
C228 C 0.03415 0.28648 0.13506 0.0
C229 C 0.08667 0.29116 0.13377 0.0
C230 C 0.03886 0.23863 0.1333 0.0
C231 C 0.98442 0.23266 0.13452 0.0
C232 C 0.99523 0.36951 0.1342 0.0
C233 C 0.98839 0.36338 0.1534 0.0
H234 H 1.00716 0.3733 0.0968 0.0
C235 C 0.88733 0.26768 0.11915 0.0
C236 C 0.90484 0.22565 0.08656 0.0
C237 C 0.76882 0.20782 0.10649 0.0
C238 C 0.72047 0.21278 0.10804 0.0
C239 C 0.77277 0.25944 0.10138 0.0
C240 C 0.78731 0.24065 0.10264 0.0
C241 C 0.73971 0.24572 0.10404 0.0
C242 C 0.73541 0.19391 0.10915 0.0
C243 C 0.78412 0.1879 0.10796 0.0
H244 H 0.07864 0.33126 0.13542 0.0
H245 H 0.01976 0.29795 0.13589 0.0
H246 H 0.11249 0.3065 0.13388 0.0
H247 H 0.02747 0.21274 0.1325 0.0
H248 H 0.78718 0.28474 0.09825 0.0
H249 H 0.81294 0.25167 0.10057 0.0
H250 H 0.72916 0.26092 0.10269 0.0
H251 H 0.72123 0.16857 0.11236 0.0
C252 C 0.36679 0.05793 0.36615 0.0
C253 C 0.37317 0.02959 0.3925 0.0
C254 C 0.3599 0.04733 0.38467 0.0
C255 C 0.39462 0.02419 0.38185 0.0
C256 C 0.38786 0.0521 0.35531 0.0
C257 C 0.40198 0.03545 0.36333 0.0
N258 N 0.35353 0.07486 0.35892 0.0
C259 C 0.35891 0.08511 0.34071 0.0
C260 C 0.39421 0.06332 0.33676 0.0
C261 C 0.37949 0.07969 0.32939 0.0
Gd262 Gd 0.36562 0.17257 0.40213 0.0
Gd263 Gd 0.32014 0.08353 0.37914 0.0
N264 N 0.33932 0.05326 0.39475 0.0
C265 C 0.36375 0.01698 0.4106 0.0
C266 C 0.3276 0.03812 0.41151 0.0
C267 C 0.3403 0.02066 0.41997 0.0
H268 H 0.30764 0.03838 0.41811 0.0
H269 H 0.33145 0.00944 0.43351 0.0
H270 H 0.35811 0.20702 0.3621 0.0
H271 H 0.34725 0.0974 0.33494 0.0
H272 H 0.32876 0.2335 0.35131 0.0
H273 H 0.37334 1.00318 0.41711 0.0
H274 H 0.40525 0.01086 0.38772 0.0
H275 H 0.35366 0.16308 0.44847 0.0
H276 H 0.41028 0.05931 0.32798 0.0
H277 H 0.38399 0.08814 0.315 0.0
H278 H 0.27804 0.24322 0.40693 0.0
H279 H 0.41838 0.03088 0.35526 0.0
H280 H 0.29507 0.20282 0.46479 0.0
H281 H 0.32486 0.17493 0.47309 0.0
N282 N 0.33966 0.1834 0.42647 0.0
C283 C 0.32395 0.19928 0.42163 0.0
C284 C 0.34039 0.1749 0.44467 0.0
C285 C 0.30759 0.1976 0.45392 0.0
C286 C 0.32431 0.18178 0.45866 0.0
C287 C 0.30729 0.20662 0.43524 0.0
H288 H 0.27766 0.22815 0.44001 0.0
N289 N 0.33998 0.1997 0.39006 0.0
C290 C 0.32414 0.20769 0.40291 0.0
C291 C 0.30883 0.23247 0.37856 0.0
C292 C 0.30776 0.22387 0.39744 0.0
C293 C 0.34285 0.21001 0.37191 0.0
C294 C 0.32682 0.2259 0.36581 0.0
O295 O 0.375 0.11423 0.37766 0.0
O296 O 0.38788 0.14151 0.40548 0.0
O297 O 0.40819 0.21609 0.39238 0.0
O298 O 0.40076 0.20609 0.42201 0.0
O299 O 0.31064 0.08897 0.40983 0.0
O300 O 0.35774 0.1315 0.4216 0.0
O301 O 0.31136 0.14326 0.40384 0.0
O302 O 0.29498 0.1127 0.37694 0.0
O303 O 0.27436 0.03859 0.38426 0.0
O304 O 0.29295 0.05363 0.35583 0.0
O305 O 0.37315 0.16735 0.37069 0.0
O306 O 0.32558 0.12372 0.36076 0.0
C307 C 0.39524 0.12867 0.39155 0.0
C308 C 0.33077 0.10383 0.42382 0.0
C309 C 0.42585 0.26087 0.41282 0.0
C310 C 0.46119 0.31906 0.40879 0.0
C311 C 0.41172 0.29826 0.42678 0.0
C312 C 0.40501 0.26699 0.42358 0.0
C313 C 0.43945 0.32404 0.41947 0.0
C314 C 0.45425 0.28714 0.40555 0.0
C315 C 0.41782 0.2272 0.40927 0.0
C316 C 0.29094 0.23103 0.41093 0.0
C317 C 0.29073 0.22245 0.42977 0.0
H318 H 0.29648 0.24482 0.37378 0.0
C319 C 0.29089 0.12967 0.39002 0.0
C320 C 0.35245 0.15037 0.35728 0.0
C321 C 0.24331 1.00301 0.35785 0.0
C322 C 0.18881 0.95635 0.35866 0.0
C323 C 0.22277 0.9666 0.33119 0.0
C324 C 0.24734 0.99381 0.33976 0.0
C325 C 0.1938 0.94805 0.3405 0.0
C326 C 0.2138 0.98418 0.36731 0.0
C327 C 0.27038 0.03218 0.36634 0.0
H328 H 0.39541 0.30255 0.43512 0.0
H329 H 0.38358 0.24764 0.42972 0.0
H330 H 0.4442 0.34808 0.42252 0.0
H331 H 0.47062 0.28277 0.39731 0.0
H332 H 0.22619 0.95988 0.31722 0.0
H333 H 0.26967 0.00762 0.33218 0.0
H334 H 0.17501 0.9273 0.3333 0.0
H335 H 0.21038 0.99098 0.38128 0.0
C336 C 0.88772 0.69134 0.09042 0.0
C337 C 0.92763 0.70929 0.1153 0.0
C338 C 0.89531 0.69214 0.10939 0.0
C339 C 0.95201 0.72585 0.10201 0.0
C340 C 0.91215 0.70796 0.07706 0.0
C341 C 0.94429 0.72519 0.08296 0.0
N342 N 0.85633 0.67535 0.08516 0.0
C343 C 0.84772 0.67418 0.06678 0.0
C344 C 0.90349 0.70715 0.05818 0.0
C345 C 0.87115 0.69011 0.05302 0.0
Gd346 Gd 0.777 0.69625 0.1317 0.0
Gd347 Gd 0.81896 0.64961 0.1092 0.0
N348 N 0.87109 0.67683 0.12208 0.0
C349 C 0.93451 0.70936 0.13442 0.0
C350 C 0.87793 0.67514 0.14052 0.0
C351 C 0.90957 0.69185 0.14703 0.0
H352 H 0.85938 0.66018 0.15022 0.0
H353 H 0.91474 0.69082 0.16175 0.0
H354 H 0.73103 0.68694 0.09364 0.0
H355 H 0.8228 0.66072 0.06267 0.0
H356 H 0.67385 0.65867 0.08522 0.0
H357 H 0.959 0.72228 0.13952 0.0
H358 H 0.97691 0.73934 0.10634 0.0
H359 H 0.78025 0.69142 0.17862 0.0
H360 H 0.92157 0.71962 0.04749 0.0
H361 H 0.86427 0.68922 0.03844 0.0
H362 H 0.61991 0.61443 0.14363 0.0
H363 H 0.96337 0.73822 0.07289 0.0
H364 H 0.68409 0.63564 0.19909 0.0
H365 H 0.74244 0.6655 0.20501 0.0
N366 N 0.74348 0.675 0.15796 0.0
C367 C 0.71138 0.65945 0.15446 0.0
C368 C 0.7548 0.67782 0.17586 0.0
C369 C 0.70049 0.64671 0.18745 0.0
C370 C 0.73349 0.66352 0.19084 0.0
C371 C 0.68903 0.64467 0.16911 0.0
H372 H 0.63853 0.61669 0.17611 0.0
N373 N 0.72305 0.67193 0.12215 0.0
C374 C 0.70086 0.65802 0.13606 0.0
C375 C 0.65804 0.64171 0.11339 0.0
C376 C 0.66775 0.642 0.13198 0.0
C377 C 0.71368 0.67332 0.10425 0.0
C378 C 0.68112 0.65784 0.09952 0.0
O379 O 0.843 0.70389 0.10671 0.0
O380 O 0.83049 0.7168 0.13494 0.0
O381 O 0.78281 0.74085 0.12031 0.0
O382 O 0.77608 0.73176 0.15014 0.0
O383 O 0.80225 0.63926 0.13994 0.0
O384 O 0.81034 0.68814 0.14985 0.0
O385 O 0.74724 0.64139 0.13103 0.0
O386 O 0.76533 0.62439 0.10585 0.0
O387 O 0.82701 0.61167 0.11932 0.0
O388 O 0.8182 0.61414 0.08982 0.0
O389 O 0.78773 0.70191 0.10043 0.0
O390 O 0.78585 0.65582 0.08882 0.0
C391 C 0.85018 0.72406 0.1207 0.0
C392 C 0.80578 0.65948 0.15352 0.0
C393 C 0.81171 0.78484 0.14061 0.0
C394 C 0.83901 0.84333 0.13842 0.0
C395 C 0.86679 0.81707 0.15137 0.0
C396 C 0.83945 0.78722 0.14873 0.0
C397 C 0.86668 0.84494 0.14618 0.0
C398 C 0.81143 0.81303 0.13565 0.0
C399 C 0.78366 0.75293 0.13686 0.0
C400 C 0.64544 0.62699 0.14653 0.0
C401 C 0.65604 0.62831 0.16504 0.0
H402 H 0.63283 0.62971 0.10967 0.0
C403 C 0.74313 0.61994 0.11816 0.0
C404 C 0.78283 0.68153 0.08667 0.0
C405 C 0.80251 0.56292 0.10281 0.0
C406 C 0.79685 0.50983 0.10711 0.0
C407 C 0.74988 0.51532 0.10133 0.0
C408 C 0.76925 0.54859 0.10045 0.0
C409 C 0.76348 0.49605 0.1047 0.0
C410 C 0.81629 0.54348 0.10602 0.0
C411 C 0.82291 0.59811 0.10296 0.0
H412 H 0.8881 0.81861 0.15753 0.0
H413 H 0.84001 0.766 0.15309 0.0
H414 H 0.88811 0.86787 0.1486 0.0
H415 H 0.79008 0.8114 0.12944 0.0
H416 H 0.72422 0.50443 0.09943 0.0
H417 H 0.75833 0.56319 0.09804 0.0
H418 H 0.7479 0.47028 0.1052 0.0
H419 H 0.84198 0.55459 0.1081 0.0
C420 C 0.96583 0.29521 0.35162 0.0
C421 C 0.99069 0.34279 0.37131 0.0
C422 C 0.97325 0.30918 0.36936 0.0
C423 C 1.00014 0.36217 0.35517 0.0
C424 C 0.97549 0.31456 0.33538 0.0
C425 C 0.99252 0.3481 0.33726 0.0
N426 N 0.94935 0.26271 0.35026 0.0
C427 C 0.94267 0.24796 0.33314 0.0
C428 C 0.96787 0.29959 0.31774 0.0
C429 C 0.95152 0.26614 0.31663 0.0
Gd430 Gd 0.84504 0.19539 0.40005 0.0
Gd431 Gd 0.93419 0.23449 0.3787 0.0
N432 N 0.96304 0.28976 0.38474 0.0
C433 C 0.99821 0.35586 0.38944 0.0
C434 C 0.97143 0.30228 0.40239 0.0
C435 C 0.9888 0.3355 0.40503 0.0
H436 H 0.96487 0.28675 0.41442 0.0
H437 H 0.99506 0.34537 0.41908 0.0
H438 H 0.8118 0.16037 0.35816 0.0
H439 H 0.93091 0.22215 0.33226 0.0
H440 H 0.78149 0.10627 0.34503 0.0
H441 H 0.01162 0.38159 0.39154 0.0
H442 H 0.01346 0.38807 0.35638 0.0
H443 H 0.85444 0.18609 0.44579 0.0
H444 H 0.9748 0.31362 0.30492 0.0
H445 H 0.94594 0.25435 0.30307 0.0
H446 H 0.76415 0.03722 0.39758 0.0
H447 H 1.00009 0.36338 0.32494 0.0
H448 H 0.80669 0.08542 0.45744 0.0
H449 H 0.8387 0.14161 0.4683 0.0
N450 N 0.83241 0.15526 0.4224 0.0
C451 C 0.81442 0.12458 0.41613 0.0
C452 C 0.84094 0.16164 0.44086 0.0
C453 C 0.81367 0.10482 0.44748 0.0
C454 C 0.83184 0.13652 0.45366 0.0
C455 C 0.80468 0.0985 0.42854 0.0
H456 H 0.77899 0.04672 0.431 0.0
N457 N 0.81725 0.14493 0.38527 0.0
C458 C 0.80676 0.11928 0.39707 0.0
C459 C 0.77967 0.08306 0.37122 0.0
C460 C 0.7882 0.08765 0.39024 0.0
C461 C 0.80728 0.14046 0.36698 0.0
C462 C 0.78904 0.10958 0.35959 0.0
O463 O 0.91178 0.26683 0.37949 0.0
O464 O 0.8742 0.24879 0.40347 0.0
O465 O 0.80034 0.19194 0.39068 0.0
O466 O 0.8106 0.19419 0.42034 0.0
O467 O 0.92713 0.22368 0.40988 0.0
O468 O 0.88394 0.22768 0.42097 0.0
O469 O 0.87367 0.16953 0.40257 0.0
O470 O 0.90072 0.18134 0.37476 0.0
O471 O 0.97071 0.22939 0.39379 0.0
O472 O 0.97123 0.23066 0.3634 0.0
O473 O 0.8533 0.21303 0.36945 0.0
O474 O 0.89261 0.20224 0.36034 0.0
C475 C 0.89301 0.27082 0.39139 0.0
C476 C 0.91264 0.23063 0.42323 0.0
C477 C 0.77557 0.21279 0.41032 0.0
C478 C 0.72838 0.21944 0.40769 0.0
C479 C 0.77863 0.26234 0.42043 0.0
C480 C 0.79312 0.24372 0.41791 0.0
C481 C 0.74662 0.2505 0.41523 0.0
C482 C 0.74313 0.20064 0.40535 0.0
C483 C 0.7905 0.19276 0.40759 0.0
C484 C 0.77832 0.06165 0.40261 0.0
C485 C 0.78665 0.06705 0.42167 0.0
H486 H 0.76509 0.05919 0.36547 0.0
C487 C 0.8859 0.16132 0.38861 0.0
C488 C 0.86976 0.20847 0.35615 0.0
C489 C 0.02097 0.24931 0.37878 0.0
C490 C 0.07366 0.2531 0.38002 0.0
C491 C 0.06933 0.30135 0.37785 0.0
C492 C 0.03593 0.28279 0.37778 0.0
C493 C 0.0881 0.28671 0.37892 0.0
C494 C 0.03985 0.23455 0.37992 0.0
C495 C 0.98576 0.22939 0.37854 0.0
H496 H 0.7922 0.28598 0.42659 0.0
H497 H 0.81791 0.25331 0.42201 0.0
H498 H 0.73594 0.2654 0.41748 0.0
H499 H 0.7295 0.1767 0.3995 0.0
H500 H 0.08075 0.32721 0.37697 0.0
H501 H 0.02187 0.29458 0.37687 0.0
H502 H 0.11396 0.30176 0.37861 0.0
H503 H 0.02814 0.20865 0.38093 0.0
C504 C 0.06157 0.33877 0.66183 0.0
C505 C 0.03606 0.36179 0.64294 0.0
C506 C 0.0536 0.34561 0.64433 0.0
C507 C 0.02712 0.3715 0.65939 0.0
C508 C 0.05233 0.34813 0.67838 0.0
C509 C 0.03529 0.36473 0.67706 0.0
N510 N 0.07801 0.32262 0.66265 0.0
C511 C 0.08485 0.31392 0.67951 0.0
C512 C 0.06033 0.34031 0.69577 0.0
C513 C 0.07645 0.32292 0.69632 0.0
Gd514 Gd 0.18046 0.3607 0.61143 0.0
Gd515 Gd 0.09267 0.31037 0.63374 0.0
N516 N 0.06334 0.33665 0.62864 0.0
C517 C 0.0279 0.36757 0.62503 0.0
C518 C 0.05423 0.34088 0.61122 0.0
C519 C 0.03673 0.35675 0.60912 0.0
H520 H 0.06039 0.33204 0.59896 0.0
H521 H 0.02997 0.36052 0.59524 0.0
H522 H 0.20645 0.34086 0.65051 0.0
H523 H 0.0964 0.29962 0.67998 0.0
H524 H 0.23756 0.31459 0.6585 0.0
H525 H 0.0144 0.37991 0.62335 0.0
H526 H 0.01375 0.3841 0.65861 0.0
H527 H 0.1741 0.35831 0.56432 0.0
H528 H 0.05377 0.34718 0.70881 0.0
H529 H 0.08224 0.31627 0.70968 0.0
H530 H 0.264 0.2878 0.59866 0.0
H531 H 0.02807 0.37222 0.68963 0.0
H532 H 0.22365 0.31177 0.54312 0.0
H533 H 0.19163 0.33827 0.53753 0.0
N534 N 0.1945 0.34173 0.58493 0.0
C535 C 0.2123 0.32747 0.58835 0.0
C536 C 0.18723 0.34593 0.56699 0.0
C537 C 0.2156 0.32007 0.55497 0.0
C538 C 0.19745 0.33495 0.55176 0.0
C539 C 0.22339 0.31631 0.57342 0.0
H540 H 0.25088 0.29341 0.56601 0.0
N541 N 0.20726 0.3337 0.62109 0.0
C542 C 0.21916 0.32365 0.60691 0.0
C543 C 0.24411 0.30564 0.62962 0.0
C544 C 0.2377 0.3091 0.61083 0.0
C545 C 0.21421 0.33122 0.63939 0.0
C546 C 0.23231 0.31674 0.64395 0.0
O547 O 0.11433 0.36516 0.63273 0.0
O548 O 0.15091 0.38457 0.60829 0.0
O549 O 0.22475 0.39751 0.62391 0.0
O550 O 0.21608 0.39992 0.59432 0.0
O551 O 0.09977 0.30601 0.60261 0.0
O552 O 0.14058 0.354 0.59133 0.0
O553 O 0.15413 0.30607 0.60955 0.0
O554 O 0.12623 0.29052 0.63718 0.0
O555 O 0.05561 0.26954 0.61843 0.0
O556 O 0.05612 0.26901 0.64884 0.0
O557 O 0.1732 0.36945 0.64229 0.0
O558 O 0.13443 0.31965 0.652 0.0
C559 C 0.13233 0.38779 0.62055 0.0
C560 C 0.11226 0.32783 0.58934 0.0
C561 C 0.24946 0.44874 0.61042 0.0
C562 C 0.29658 0.50147 0.61597 0.0
C563 C 0.24313 0.49524 0.6147 0.0
C564 C 0.22974 0.46239 0.61157 0.0
C565 C 0.27629 0.51468 0.61695 0.0
C566 C 0.28287 0.46834 0.61253 0.0
C567 C 0.23543 0.41385 0.60843 0.0
C568 C 0.24932 0.29859 0.59594 0.0
C569 C 0.24196 0.30192 0.57731 0.0
H570 H 0.25838 0.29471 0.63323 0.0
C571 C 0.14077 0.28512 0.62321 0.0
C572 C 0.15762 0.34871 0.65581 0.0
C573 C 1.00594 0.23864 0.63388 0.0
C574 C 0.95342 0.18974 0.63254 0.0
C575 C 0.95747 0.24194 0.63657 0.0
C576 C 0.99087 0.25693 0.6361 0.0
C577 C 0.93883 0.20864 0.63486 0.0
C578 C 0.98721 0.20515 0.63205 0.0
C579 C 0.04111 0.25391 0.63364 0.0
H580 H 0.22773 0.50563 0.61556 0.0
H581 H 0.20404 0.44752 0.6103 0.0
H582 H 0.28607 0.54011 0.61935 0.0
H583 H 0.29803 0.45761 0.61205 0.0
H584 H 0.94596 0.25618 0.63839 0.0
H585 H 1.00486 0.28267 0.63755 0.0
H586 H 0.91299 0.1977 0.63567 0.0
H587 H 0.99904 0.19121 0.63008 0.0
C588 C 0.1259 0.81609 0.91441 0.0
C589 C 0.08938 0.79264 0.88801 0.0
C590 C 0.12092 0.80867 0.8953 0.0
C591 C 0.06326 0.78465 0.9 0.0
C592 C 0.09966 0.80801 0.92646 0.0
C593 C 0.06838 0.79231 0.91914 0.0
N594 N 0.15644 0.83195 0.92114 0.0
C595 C 0.16248 0.83945 0.93973 0.0
C596 C 0.10568 0.81623 0.94551 0.0
C597 C 0.13722 0.83192 0.95218 0.0
Gd598 Gd 0.23618 0.93098 0.87362 0.0
Gd599 Gd 0.19676 0.84227 0.89945 0.0
N600 N 0.14672 0.81692 0.8839 0.0
C601 C 0.08493 0.78469 0.86892 0.0
C602 C 0.1421 0.80667 0.86567 0.0
C603 C 0.11137 0.79131 0.85777 0.0
H604 H 0.16158 0.80883 0.85726 0.0
H605 H 0.10803 0.78385 0.8432 0.0
H606 H 0.30043 0.97575 0.90053 0.0
H607 H 0.18676 0.85104 0.94502 0.0
H608 H 0.35937 0.00843 0.89695 0.0
H609 H 0.06112 0.77253 0.86279 0.0
H610 H 0.03893 0.77232 0.89462 0.0
H611 H 0.20582 0.91735 0.83024 0.0
H612 H 0.08616 0.81048 0.9552 0.0
H613 H 0.14206 0.83808 0.96692 0.0
H614 H 0.37663 1.00433 0.83067 0.0
H615 H 0.04795 0.78602 0.92818 0.0
H616 H 0.28366 0.9506 0.79104 0.0
H617 H 0.22532 0.92351 0.79741 0.0
N618 N 0.2525 0.93886 0.8421 0.0
C619 C 0.28456 0.95502 0.8389 0.0
C620 C 0.23127 0.92862 0.82751 0.0
C621 C 0.2752 0.94761 0.80542 0.0
C622 C 0.24225 0.93233 0.80896 0.0
C623 C 0.29686 0.95978 0.82047 0.0
H624 H 0.34018 0.98085 0.80362 0.0
N625 N 0.29216 0.96358 0.87154 0.0
C626 C 0.30506 0.96812 0.85408 0.0
C627 C 0.35819 1.00074 0.86702 0.0
C628 C 0.33847 0.98651 0.85134 0.0
C629 C 0.31107 0.97863 0.88679 0.0
C630 C 0.34438 0.99707 0.88479 0.0
O631 O 0.17672 0.87606 0.90282 0.0
O632 O 0.18364 0.89476 0.87308 0.0
O633 O 0.22471 0.9622 0.89005 0.0
O634 O 0.23044 0.96802 0.85992 0.0
O635 O 0.21527 0.84674 0.86939 0.0
O636 O 0.2033 0.88427 0.85953 0.0
O637 O 0.27265 0.91503 0.87939 0.0
O638 O 0.25016 0.86633 0.89589 0.0
O639 O 0.18045 0.79168 0.8952 0.0
O640 O 0.2048 0.81462 0.92088 0.0
O641 O 0.24153 0.93081 0.90512 0.0
O642 O 0.22753 0.8821 0.92021 0.0
C643 C 0.16687 0.88629 0.88861 0.0
C644 C 0.21303 0.86395 0.85574 0.0
C645 C 0.24305 0.01422 0.87759 0.0
C646 C 0.24228 0.06449 0.88144 0.0
C647 C 0.29273 0.06507 0.87635 0.0
C648 C 0.27645 0.03169 0.87546 0.0
C649 C 0.27589 0.08139 0.87917 0.0
C650 C 0.22606 0.03062 0.88071 0.0
C651 C 0.2255 0.97907 0.8755 0.0
C652 C 0.35099 0.9905 0.83307 0.0
C653 C 0.33023 0.97711 0.81766 0.0
H654 H 0.384 0.01505 0.86552 0.0
C655 C 0.27445 0.89179 0.88819 0.0
C656 C 0.23972 0.91372 0.9201 0.0
C657 C 0.21217 0.77253 0.90877 0.0
C658 C 0.21527 0.72397 0.90248 0.0
C659 C 0.26401 0.77575 0.9061 0.0
C660 C 0.24577 0.79055 0.90895 0.0
C661 C 0.24897 0.74279 0.90287 0.0
C662 C 0.19695 0.73911 0.90562 0.0
C663 C 0.19296 0.78865 0.91069 0.0
H664 H 0.31851 0.07842 0.8745 0.0
H665 H 0.28987 0.01961 0.87276 0.0
H666 H 0.28927 0.10733 0.87912 0.0
H667 H 0.20026 0.01691 0.88246 0.0
H668 H 0.28994 0.78993 0.90631 0.0
H669 H 0.2579 0.81614 0.91115 0.0
H670 H 0.2638 0.73195 0.90084 0.0
H671 H 0.17098 0.72512 0.90516 0.0
C672 C 0.67406 0.71307 0.65724 0.0
C673 C 0.65447 0.66804 0.63566 0.0
C674 C 0.6701 0.70135 0.63898 0.0
C675 C 0.64245 0.64669 0.65089 0.0
C676 C 0.66225 0.69169 0.67257 0.0
C677 C 0.6463 0.65848 0.66929 0.0
N678 N 0.6894 0.74534 0.65999 0.0
C679 C 0.69447 0.75784 0.6777 0.0
C680 C 0.66688 0.70433 0.69076 0.0
C681 C 0.68321 0.73752 0.69333 0.0
Gd682 Gd 0.65666 0.81617 0.6109 0.0
Gd683 Gd 0.70654 0.77709 0.63283 0.0
N684 N 0.68139 0.72262 0.62447 0.0
C685 C 0.65161 0.65718 0.61712 0.0
C686 C 0.68005 0.71219 0.6065 0.0
C687 C 0.66479 0.67938 0.6025 0.0
H688 H 0.69118 0.72896 0.59525 0.0
H689 H 0.66347 0.67126 0.58817 0.0
H690 H 0.65775 0.85182 0.65235 0.0
H691 H 0.70761 0.78349 0.6798 0.0
H692 H 0.68129 0.90608 0.66522 0.0
H693 H 0.63982 0.63178 0.61398 0.0
H694 H 0.63027 0.62101 0.6486 0.0
H695 H 0.67459 0.8249 0.56505 0.0
H696 H 0.65821 0.68871 0.70291 0.0
H697 H 0.68725 0.74732 0.70737 0.0
H698 H 0.7334 0.97444 0.61249 0.0
H699 H 0.63701 0.64171 0.6809 0.0
H700 H 0.72756 0.92537 0.55292 0.0
H701 H 0.7032 0.86901 0.54234 0.0
N702 N 0.68366 0.85605 0.58831 0.0
C703 C 0.6964 0.88682 0.59441 0.0
C704 C 0.68562 0.8494 0.56987 0.0
C705 C 0.7152 0.90612 0.56297 0.0
C706 C 0.70157 0.87433 0.55695 0.0
C707 C 0.71266 0.91272 0.58187 0.0
H708 H 0.73875 0.96447 0.57916 0.0
N709 N 0.67896 0.86692 0.62531 0.0
C710 C 0.69408 0.89241 0.61341 0.0
C711 C 0.70291 0.92896 0.63901 0.0
C712 C 0.70704 0.92412 0.62006 0.0
C713 C 0.67322 0.87162 0.6435 0.0
C714 C 0.68571 0.90259 0.65073 0.0
O715 O 0.65179 0.746 0.63267 0.0
O716 O 0.63404 0.76289 0.60734 0.0
O717 O 0.61475 0.8184 0.62027 0.0
O718 O 0.6231 0.81685 0.59061 0.0
O719 O 0.71156 0.78874 0.60173 0.0
O720 O 0.66454 0.78457 0.59011 0.0
O721 O 0.71109 0.84256 0.60875 0.0
O722 O 0.72637 0.8304 0.63651 0.0
O723 O 0.74972 0.78267 0.61958 0.0
O724 O 0.74556 0.78032 0.64989 0.0
O725 O 0.64764 0.79936 0.64169 0.0
O726 O 0.6975 0.8095 0.65122 0.0
C727 C 0.62964 0.74154 0.6202 0.0
C728 C 0.69087 0.78259 0.58799 0.0
C729 C 0.56927 0.79787 0.60044 0.0
C730 C 0.51538 0.79104 0.60319 0.0
C731 C 0.52294 0.74876 0.58969 0.0
C732 C 0.55603 0.76732 0.59235 0.0
C733 C 0.50269 0.76032 0.59521 0.0
C734 C 0.54889 0.80978 0.6057 0.0
C735 C 0.60421 0.81785 0.60335 0.0
C736 C 0.72318 0.94995 0.60759 0.0
C737 C 0.72611 0.94427 0.58858 0.0
H738 H 0.71207 0.9529 0.64462 0.0
C739 C 0.73148 0.85053 0.62272 0.0
C740 C 0.6686 0.80412 0.65509 0.0
C741 C 0.77861 0.76255 0.63605 0.0
C742 C 0.82785 0.75936 0.63556 0.0
C743 C 0.7756 0.71088 0.63822 0.0
C744 C 0.76041 0.72912 0.63764 0.0
C745 C 0.80902 0.7258 0.63721 0.0
C746 C 0.81225 0.77758 0.63499 0.0
C747 C 0.76304 0.7822 0.63546 0.0
H748 H 0.51296 0.72536 0.58321 0.0
H749 H 0.57131 0.75799 0.58795 0.0
H750 H 0.47712 0.74546 0.59287 0.0
H751 H 0.55909 0.83348 0.61189 0.0
H752 H 0.76142 0.68506 0.63954 0.0
H753 H 0.73455 0.71715 0.63849 0.0
H754 H 0.82012 0.71103 0.63801 0.0
H755 H 0.82617 0.80342 0.63351 0.0
C756 C 0.19436 0.31958 0.92007 0.0
C757 C 0.22672 0.30901 0.89819 0.0
C758 C 0.20847 0.32369 0.90256 0.0
C759 C 0.22922 0.28873 0.91141 0.0
C760 C 0.19802 0.30033 0.93369 0.0
C761 C 0.21486 0.28436 0.92912 0.0
N762 N 0.17898 0.33611 0.92417 0.0
C763 C 0.1697 0.33685 0.94225 0.0
C764 C 0.18576 0.29872 0.95173 0.0
C765 C 0.17208 0.31752 0.95611 0.0
Gd766 Gd 0.08337 0.31554 0.87921 0.0
Gd767 Gd 0.17478 0.36646 0.89926 0.0
N768 N 0.20517 0.34302 0.88996 0.0
C769 C 0.24232 0.31564 0.88077 0.0
C770 C 0.22142 0.35075 0.8733 0.0
C771 C 0.23998 0.33692 0.86837 0.0
H772 H 0.21961 0.36728 0.86377 0.0
H773 H 0.2524 0.34262 0.85502 0.0
H774 H 0.0362 0.28613 0.91751 0.0
H775 H 0.16099 0.35273 0.9463 0.0
H776 H 0.99972 0.29771 0.93606 0.0
H777 H 0.25661 0.30487 0.87689 0.0
H778 H 0.24273 0.27682 0.90823 0.0
H779 H 0.08998 0.34856 0.8372 0.0
H780 H 0.18802 0.28415 0.96258 0.0
H781 H 0.16393 0.31767 0.97028 0.0
H782 H 0.98946 0.37546 0.89913 0.0
H783 H 0.21767 0.26928 0.93936 0.0
H784 H 0.03928 0.40078 0.83831 0.0
H785 H 0.07283 0.38334 0.82126 0.0
N786 N 0.06686 0.34715 0.8629 0.0
C787 C 0.04707 0.35498 0.87214 0.0
C788 C 0.07524 0.35606 0.84462 0.0
C789 C 0.04666 0.38551 0.84529 0.0
C790 C 0.06559 0.3757 0.83561 0.0
C791 C 0.03681 0.37482 0.86371 0.0
H792 H 1.00872 0.39825 0.86764 0.0
N793 N 0.04563 0.3219 0.897 0.0
C794 C 0.03649 0.34231 0.88987 0.0
C795 C 1.00249 0.3334 0.91679 0.0
C796 C 0.01496 0.34891 0.89965 0.0
C797 C 0.03143 0.3047 0.91286 0.0
C798 C 1.01027 0.31072 0.92322 0.0
O799 O 0.15727 0.31993 0.88325 0.0
O800 O 0.10602 0.28983 0.89371 0.0
O801 O 0.03669 0.27179 0.87709 0.0
O802 O 0.07034 0.28599 0.85418 0.0
O803 O 0.16768 0.37611 0.86854 0.0
O804 O 0.12345 0.32841 0.85848 0.0
O805 O 0.11024 0.37048 0.87748 0.0
O806 O 0.14106 0.38534 0.90409 0.0
O807 O 0.21431 0.41203 0.88903 0.0
O808 O 0.21188 0.39975 0.91824 0.0
O809 O 0.09339 0.30724 0.9092 0.0
O810 O 0.13362 0.35632 0.91961 0.0
C811 C 0.13297 0.29208 0.88804 0.0
C812 C 0.14994 0.35577 0.85512 0.0
C813 C 0.04123 0.2307 0.86152 0.0
C814 C 1.00953 0.17269 0.86668 0.0
C815 C 0.06632 0.19771 0.85913 0.0
C816 C 0.0684 0.22759 0.85818 0.0
C817 C 0.0372 0.17048 0.86339 0.0
C818 C 0.01169 0.20301 0.8656 0.0
C819 C 0.04422 0.2629 0.86153 0.0
C820 C 1.00572 0.36983 0.89172 0.0
C821 C 0.01662 0.38276 0.87378 0.0
H822 H 0.9859 0.33781 0.92477 0.0
C823 C 0.12596 0.39147 0.89086 0.0
C824 C 0.10664 0.32899 0.92246 0.0
C825 C 0.2635 0.42697 0.9046 0.0
C826 C 0.3204 0.46367 0.89792 0.0
C827 C 0.3027 0.40963 0.90897 0.0
C828 C 0.2713 0.40363 0.91009 0.0
C829 C 0.32707 0.43932 0.90282 0.0
C830 C 0.28839 0.45738 0.89878 0.0
C831 C 0.22951 0.41922 0.90502 0.0
H832 H 0.08742 0.19568 0.8566 0.0
H833 H 0.09146 0.24831 0.85498 0.0
H834 H 0.03624 0.14752 0.86387 0.0
H835 H 0.99067 0.20516 0.86831 0.0
H836 H 0.30823 0.39127 0.9131 0.0
H837 H 0.25316 0.38073 0.91545 0.0
H838 H 0.35142 0.44361 0.90239 0.0
H839 H 0.28291 0.4759 0.89489 0.0
C840 C 0.31682 0.95199 0.6451 0.0
C841 C 0.34923 0.98017 0.61797 0.0
C842 C 0.31895 0.96266 0.62668 0.0
C843 C 0.37688 0.98517 0.62759 0.0
C844 C 0.34458 0.95762 0.65496 0.0
C845 C 0.37456 0.97389 0.64601 0.0
N846 N 0.28735 0.9355 0.65324 0.0
C847 C 0.28413 0.9257 0.67152 0.0
C848 C 0.34135 0.9467 0.67352 0.0
C849 C 0.31102 0.93092 0.68188 0.0
Gd850 Gd 0.19679 0.83784 0.61239 0.0
Gd851 Gd 0.24368 0.92709 0.63452 0.0
N852 N 0.29171 0.95727 0.61764 0.0
C853 C 0.35093 0.99306 0.60009 0.0
C854 C 0.29381 0.97277 0.60118 0.0
C855 C 0.32317 0.98996 0.59186 0.0
H856 H 0.27314 0.97283 0.59545 0.0
H857 H 0.32447 1.0014 0.57852 0.0
H858 H 0.15617 0.80812 0.65348 0.0
H859 H 0.26079 0.91395 0.67806 0.0
H860 H 0.10088 0.78372 0.66485 0.0
H861 H 0.37372 1.00668 0.59293 0.0
H862 H 0.40028 0.99829 0.62103 0.0
H863 H 0.19299 0.84642 0.56597 0.0
H864 H 0.36213 0.95057 0.68157 0.0
H865 H 0.30836 0.9228 0.69631 0.0
H866 H 0.03897 0.77176 0.60953 0.0
H867 H 0.39616 0.97825 0.65331 0.0
H868 H 0.09435 0.80818 0.55083 0.0
H869 H 0.15162 0.8347 0.54182 0.0
N870 N 0.15946 0.82726 0.58841 0.0
C871 C 0.1281 0.81222 0.59367 0.0
C872 C 0.16809 0.83519 0.57008 0.0
C873 C 0.11239 0.81329 0.5615 0.0
C874 C 0.14471 0.82837 0.55635 0.0
C875 C 0.10371 0.80504 0.58033 0.0
H876 H 0.05255 0.78478 0.57616 0.0
N877 N 0.1447 0.81352 0.62529 0.0
C878 C 0.1205 0.80515 0.61261 0.0
C879 C 0.08126 0.78314 0.63756 0.0
C880 C 0.08819 0.79025 0.61849 0.0
C881 C 0.13776 0.80481 0.64371 0.0
C882 C 0.10612 0.7901 0.65017 0.0
O883 O 0.26687 0.89535 0.63525 0.0
O884 O 0.25009 0.8663 0.60795 0.0
O885 O 0.19456 0.79411 0.62274 0.0
O886 O 0.19162 0.80073 0.59295 0.0
O887 O 0.22747 0.92122 0.60405 0.0
O888 O 0.23023 0.87764 0.59233 0.0
O889 O 0.17339 0.8686 0.61091 0.0
O890 O 0.18949 0.8992 0.63771 0.0
O891 O 0.24262 0.97214 0.63031 0.0
O892 O 0.24852 0.95699 0.65827 0.0
O893 O 0.21158 0.84315 0.64348 0.0
O894 O 0.20938 0.88759 0.65338 0.0
C895 C 0.2714 0.87996 0.62134 0.0
C896 C 0.23202 0.90583 0.59008 0.0
C897 C 0.21057 0.76573 0.60222 0.0
C898 C 0.21424 0.71657 0.60307 0.0
C899 C 0.25584 0.76504 0.58784 0.0
C900 C 0.23973 0.78145 0.59248 0.0
C901 C 0.24332 0.73298 0.59304 0.0
C902 C 0.19801 0.73341 0.6076 0.0
C903 C 0.19208 0.78206 0.60602 0.0
C904 C 0.06386 0.78297 0.60521 0.0
C905 C 0.07159 0.79036 0.5862 0.0
H906 H 0.05677 0.77169 0.64262 0.0
C907 C 0.16785 0.88317 0.62473 0.0
C908 C 0.21004 0.86123 0.65698 0.0
C909 C 0.2489 0.0074 0.65726 0.0
C910 C 0.24049 0.05375 0.65772 0.0
C911 C 0.26404 0.04198 0.68474 0.0
C912 C 0.2619 0.01554 0.67547 0.0
C913 C 0.25335 0.06083 0.67604 0.0
C914 C 0.23816 0.02665 0.64835 0.0
C915 C 0.24635 0.97838 0.64827 0.0
H916 H 0.27791 0.77711 0.57989 0.0
H917 H 0.24971 0.80619 0.58814 0.0
H918 H 0.25618 0.72091 0.58876 0.0
H919 H 0.17559 0.72149 0.61528 0.0
H920 H 0.27388 0.04781 0.69882 0.0
H921 H 0.27043 1.00137 0.68265 0.0
H922 H 0.25481 0.08084 0.68384 0.0
H923 H 0.22817 0.02067 0.6343 0.0
C924 C 0.69651 0.89297 0.91952 0.0
C925 C 0.71246 0.93379 0.89532 0.0
C926 C 0.69718 0.90123 0.90064 0.0
C927 C 0.72676 0.95777 0.90911 0.0
C928 C 0.71144 0.91706 0.93331 0.0
C929 C 0.72639 0.94945 0.92801 0.0
N930 N 0.68234 0.86141 0.92428 0.0
C931 C 0.68168 0.85226 0.9425 0.0
C932 C 0.71113 0.90786 0.95202 0.0
C933 C 0.69618 0.87534 0.95662 0.0
Gd934 Gd 0.70652 0.7855 0.87744 0.0
Gd935 Gd 0.65733 0.82516 0.89967 0.0
N936 N 0.68365 0.87749 0.88748 0.0
C937 C 0.71298 0.94132 0.87628 0.0
C938 C 0.68279 0.88476 0.86904 0.0
C939 C 0.69791 0.9167 0.86311 0.0
H940 H 0.66979 0.86623 0.85886 0.0
H941 H 0.69748 0.92231 0.84841 0.0
H942 H 0.68359 0.73077 0.91173 0.0
H943 H 0.66951 0.82719 0.94625 0.0
H944 H 0.65475 0.67178 0.91487 0.0
H945 H 0.72454 0.96604 0.87163 0.0
H946 H 0.73826 0.98288 0.90529 0.0
H947 H 0.71724 0.80138 0.83132 0.0
H948 H 0.72234 0.92567 0.96301 0.0
H949 H 0.69565 0.86803 0.97107 0.0
H950 H 0.63251 0.63379 0.85109 0.0
H951 H 0.73786 0.96828 0.93842 0.0
H952 H 0.67041 0.712 0.80165 0.0
H953 H 0.70103 0.77134 0.80134 0.0
N954 N 0.6946 0.7595 0.84827 0.0
C955 C 0.67837 0.72693 0.84878 0.0
C956 C 0.70328 0.77551 0.83156 0.0
C957 C 0.67715 0.72506 0.81482 0.0
C958 C 0.69442 0.75856 0.81458 0.0
C959 C 0.66916 0.7088 0.83205 0.0
H960 H 0.64505 0.6608 0.82033 0.0
N961 N 0.67977 0.72988 0.88201 0.0
C962 C 0.67112 0.71165 0.86614 0.0
C963 C 0.64844 0.66351 0.88497 0.0
C964 C 0.65473 0.67792 0.8672 0.0
C965 C 0.67502 0.71608 0.89932 0.0
C966 C 0.65894 0.68269 0.90109 0.0
O967 O 0.71209 0.85127 0.90127 0.0
O968 O 0.72625 0.83848 0.87334 0.0
O969 O 0.74742 0.79038 0.89321 0.0
O970 O 0.7478 0.78899 0.86281 0.0
O971 O 0.64733 0.80847 0.86895 0.0
O972 O 0.69684 0.81796 0.85953 0.0
O973 O 0.65201 0.75297 0.87879 0.0
O974 O 0.63107 0.77145 0.90189 0.0
O975 O 0.61837 0.83157 0.8892 0.0
O976 O 0.62289 0.82621 0.919 0.0
O977 O 0.70995 0.79684 0.90851 0.0
O978 O 0.66236 0.79092 0.91974 0.0
C979 C 0.73229 0.85871 0.88721 0.0
C980 C 0.66768 0.81167 0.85557 0.0
C981 C 0.778 0.77007 0.87899 0.0
C982 C 0.82656 0.76593 0.88168 0.0
C983 C 0.77407 0.71788 0.87854 0.0
C984 C 0.75941 0.7366 0.87781 0.0
C985 C 0.80735 0.73234 0.88043 0.0
C986 C 0.81149 0.78464 0.88094 0.0
C987 C 0.76295 0.79019 0.87823 0.0
C988 C 0.64526 0.65975 0.85056 0.0
C989 C 0.65241 0.67515 0.83304 0.0
H990 H 0.6359 0.63765 0.8864 0.0
C991 C 0.62861 0.74935 0.89004 0.0
C992 C 0.68769 0.78719 0.92154 0.0
C993 C 0.57086 0.81048 0.90725 0.0
C994 C 0.51836 0.80713 0.90457 0.0
C995 C 0.52249 0.76111 0.91528 0.0
C996 C 0.55578 0.77864 0.91346 0.0
C997 C 0.50392 0.7752 0.91103 0.0
C998 C 0.55212 0.82454 0.90268 0.0
C999 C 0.60611 0.82964 0.90578 0.0
H1000 H 0.7596 0.69204 0.87754 0.0
H1001 H 0.73366 0.72496 0.87627 0.0
H1002 H 0.81806 0.71719 0.88061 0.0
H1003 H 0.82571 0.81052 0.88208 0.0
H1004 H 0.51102 0.73658 0.92022 0.0
H1005 H 0.56981 0.76751 0.91708 0.0
H1006 H 0.47826 0.76111 0.91316 0.0
H1007 H 0.56396 0.84901 0.89758 0.0
H1008 H 0.06428 0.20324 0.15091 0.0
H1009 H 0.09943 0.18001 0.15 0.0
H1010 H 0.16303 0.25454 0.11203 0.0
H1011 H 0.12795 0.2777 0.11267 0.0
H1012 H 0.11966 0.15721 0.1196 0.0
H1013 H 0.22326 0.25984 0.1545 0.0
H1014 H 0.18347 0.25483 0.1546 0.0
H1015 H 0.20859 0.2707 0.13419 0.0
C1016 C 0.08557 0.21455 0.14222 0.0
C1017 C 0.09334 0.24256 0.13199 0.0
C1018 C 0.10575 0.20132 0.14179 0.0
C1019 C 0.1342 0.21586 0.13122 0.0
C1020 C 0.14163 0.24333 0.12066 0.0
H1021 H 0.25467 0.13786 0.09628 0.0
H1022 H 0.21601 0.15683 0.09818 0.0
C1023 C 0.12151 0.25656 0.12106 0.0
C1024 C 0.15599 0.2022 0.13112 0.0
H1025 H 0.23259 0.21988 0.14132 0.0
C1026 C 0.14432 0.17086 0.12441 0.0
C1027 C 0.18807 0.21987 0.13761 0.0
C1028 C 0.20159 0.25307 0.1458 0.0
C1029 C 0.16404 0.15699 0.12363 0.0
C1030 C 0.1964 0.17506 0.12955 0.0
C1031 C 0.20787 0.20614 0.13663 0.0
C1032 C 0.21884 0.16226 0.12846 0.0
C1033 C 0.14994 0.12297 0.11668 0.0
C1034 C 0.23362 0.15931 0.1448 0.0
C1035 C 0.25572 0.14849 0.14372 0.0
C1036 C 0.26386 0.14095 0.12624 0.0
C1037 C 0.24881 0.14354 0.10993 0.0
C1038 C 0.22657 0.15417 0.11102 0.0
H1039 H 0.12331 0.10978 0.1174 0.0
H1040 H 0.15694 0.12329 0.10179 0.0
H1041 H 0.15909 0.10968 0.12499 0.0
H1042 H 0.22818 0.1656 0.15839 0.0
H1043 H 0.26722 0.147 0.15649 0.0
H1044 H 0.15018 0.97478 0.37702 0.0
H1045 H 0.09451 0.94001 0.38743 0.0
H1046 H 0.09963 0.85673 0.37028 0.0
H1047 H 0.1551 0.89104 0.36052 0.0
H1048 H 0.04445 0.90151 0.36554 0.0
H1049 H 0.05609 0.82646 0.42009 0.0
H1050 H 0.09019 0.86282 0.41152 0.0
H1051 H 0.07561 0.8257 0.39881 0.0
C1052 C 0.13969 0.94902 0.37601 0.0
C1053 C 0.15709 0.93572 0.36788 0.0
C1054 C 0.10778 0.92914 0.38183 0.0
C1055 C 0.09278 0.8956 0.37984 0.0
C1056 C 0.11063 0.88237 0.37238 0.0
H1057 H 0.89614 0.75668 0.35686 0.0
H1058 H 0.9523 0.79915 0.35662 0.0
C1059 C 0.14237 0.90211 0.36661 0.0
C1060 C 0.05783 0.87446 0.38384 0.0
H1061 H 1.00409 0.80434 0.40531 0.0
C1062 C 0.03567 0.88052 0.37446 0.0
C1063 C 0.04609 0.84722 0.39569 0.0
C1064 C 0.06829 0.84037 0.40725 0.0
C1065 C 1.00239 0.85938 0.37585 0.0
C1066 C 0.99078 0.83091 0.38657 0.0
C1067 C 0.01283 0.82573 0.39676 0.0
C1068 C 0.95611 0.80569 0.38683 0.0
C1069 C 0.98002 0.86786 0.36576 0.0
C1070 C 0.93947 0.79445 0.40391 0.0
C1071 C 0.90728 0.76984 0.40408 0.0
C1072 C 0.89111 0.75581 0.38718 0.0
C1073 C 0.9077 0.76729 0.37011 0.0
C1074 C 0.93987 0.79169 0.36996 0.0
H1075 H 0.99123 0.89419 0.36378 0.0
H1076 H 0.97445 0.85659 0.35162 0.0
H1077 H 0.95717 0.85915 0.37356 0.0
H1078 H 0.95144 0.80459 0.41713 0.0
H1079 H 0.89514 0.76149 0.41745 0.0
H1080 H 0.88595 0.12941 0.1535 0.0
H1081 H 0.87531 0.07411 0.15553 0.0
H1082 H 0.86276 0.06436 0.09536 0.0
H1083 H 0.87295 0.11941 0.09331 0.0
H1084 H 0.81633 0.01208 0.11362 0.0
H1085 H 0.93616 0.04261 0.14118 0.0
H1086 H 0.91592 0.05782 0.15539 0.0
H1087 H 0.92776 0.07245 0.1318 0.0
C1088 C 0.88136 0.11558 0.1407 0.0
C1089 C 0.88052 0.12877 0.12323 0.0
C1090 C 0.87524 0.08398 0.14187 0.0
C1091 C 0.86873 0.06519 0.12556 0.0
C1092 C 0.86783 0.07838 0.10812 0.0
H1093 H 0.88399 0.89379 0.11814 0.0
H1094 H 0.88865 0.94633 0.11374 0.0
C1095 C 0.87374 0.10986 0.10696 0.0
C1096 C 0.86285 0.03182 0.12662 0.0
H1097 H 0.89662 0.98751 0.14075 0.0
C1098 C 0.8339 1.00667 0.11951 0.0
C1099 C 0.88596 0.02482 0.13405 0.0
C1100 C 0.91832 0.05085 0.14087 0.0
C1101 C 0.82734 0.97471 0.11977 0.0
C1102 C 0.85008 0.96762 0.12773 0.0
C1103 C 0.87907 0.99284 0.13474 0.0
C1104 C 0.8449 0.93443 0.12868 0.0
C1105 C 0.79649 0.94905 0.11111 0.0
C1106 C 0.81841 0.9099 0.13823 0.0
C1107 C 0.81552 0.87963 0.14056 0.0
C1108 C 0.83937 0.87357 0.13368 0.0
C1109 C 0.86535 0.89785 0.12369 0.0
C1110 C 0.86804 0.92789 0.12119 0.0
H1111 H 0.78649 0.95932 0.10095 0.0
H1112 H 0.80012 0.93077 0.10373 0.0
H1113 H 0.77845 0.93689 0.12237 0.0
H1114 H 0.8006 0.91448 0.14452 0.0
H1115 H 0.79547 0.86149 0.14853 0.0
H1116 H 0.25846 0.13881 0.41848 0.0
H1117 H 0.21879 0.15634 0.41592 0.0
H1118 H 0.22386 0.15409 0.35545 0.0
H1119 H 0.26384 0.13675 0.35794 0.0
H1120 H 0.23119 0.21234 0.37066 0.0
H1121 H 0.12358 0.10549 0.3993 0.0
H1122 H 0.15896 0.12048 0.41366 0.0
H1123 H 0.15828 0.10408 0.39086 0.0
C1124 C 0.25074 0.1416 0.40464 0.0
C1125 C 0.26411 0.13632 0.3884 0.0
C1126 C 0.22797 0.15146 0.4032 0.0
C1127 C 0.21809 0.15619 0.3855 0.0
C1128 C 0.23099 0.15038 0.36925 0.0
H1129 H 0.06385 0.19772 0.36275 0.0
H1130 H 0.09838 0.17379 0.36376 0.0
C1131 C 0.25362 0.14024 0.37068 0.0
C1132 C 0.19566 0.16888 0.384 0.0
H1133 H 0.11989 0.1526 0.39521 0.0
C1134 C 0.20678 0.19921 0.37591 0.0
C1135 C 0.16378 0.15163 0.39077 0.0
C1136 C 0.15024 0.11848 0.399 0.0
C1137 C 0.18709 0.21303 0.37473 0.0
C1138 C 0.15553 0.19622 0.38203 0.0
C1139 C 0.14416 0.16556 0.38975 0.0
C1140 C 0.13409 0.21022 0.3819 0.0
C1141 C 0.20017 0.24544 0.36556 0.0
C1142 C 0.14232 0.23825 0.3921 0.0
C1143 C 0.12253 0.25184 0.39169 0.0
C1144 C 0.09397 0.23769 0.38108 0.0
C1145 C 0.08545 0.20916 0.3712 0.0
C1146 C 0.10526 0.19552 0.37167 0.0
H1147 H 0.22137 0.25141 0.35662 0.0
H1148 H 0.18157 0.24639 0.35678 0.0
H1149 H 0.20774 0.26409 0.37663 0.0
H1150 H 0.16408 0.24962 0.40043 0.0
H1151 H 0.12955 0.27339 0.3998 0.0
H1152 H 0.14481 0.95221 0.14852 0.0
H1153 H 0.08633 0.91786 0.14727 0.0
H1154 H 0.0963 0.85729 0.10642 0.0
H1155 H 0.15458 0.89167 0.10727 0.0
H1156 H 0.04199 0.8987 0.11601 0.0
H1157 H 0.04343 0.79519 0.14948 0.0
H1158 H 0.07748 0.83536 0.1502 0.0
H1159 H 0.0691 0.81141 0.12933 0.0
C1160 C 0.1346 0.93186 0.13905 0.0
C1161 C 0.1546 0.92462 0.12814 0.0
C1162 C 0.10113 0.91213 0.13844 0.0
C1163 C 0.08694 0.88466 0.12701 0.0
C1164 C 0.10672 0.87795 0.11565 0.0
H1165 H 0.89048 0.75778 0.09199 0.0
H1166 H 0.9474 0.79866 0.09408 0.0
C1167 C 0.14011 0.89766 0.1162 0.0
C1168 C 0.05155 0.86269 0.1271 0.0
H1169 H 0.99365 0.78563 0.13699 0.0
C1170 C 0.0314 0.87403 0.12067 0.0
C1171 C 0.03769 0.83056 0.13337 0.0
C1172 C 0.05795 0.81737 0.14115 0.0
C1173 C 0.99786 0.85385 0.11991 0.0
C1174 C 0.98415 0.8215 0.12567 0.0
C1175 C 1.00422 0.81039 0.1325 0.0
C1176 C 0.94908 0.7986 0.12448 0.0
C1177 C 0.97724 0.86724 0.11306 0.0
C1178 C 0.93108 0.78496 0.14086 0.0
C1179 C 0.89852 0.76171 0.1397 0.0
C1180 C 0.88349 0.7513 0.1221 0.0
C1181 C 0.90141 0.76542 0.10574 0.0
C1182 C 0.93388 0.78886 0.10691 0.0
H1183 H 0.99056 0.89388 0.11292 0.0
H1184 H 0.96908 0.85869 0.09851 0.0
H1185 H 0.95561 0.85877 0.12203 0.0
H1186 H 0.94239 0.79197 0.15455 0.0
H1187 H 0.88546 0.75098 0.15255 0.0
H1188 H 0.82709 0.86873 0.36215 0.0
H1189 H 0.85111 0.92707 0.36419 0.0
H1190 H 0.77366 0.91538 0.39987 0.0
H1191 H 0.74998 0.85718 0.3985 0.0
H1192 H 0.78904 0.95702 0.36514 0.0
H1193 H 0.89282 0.98776 0.41243 0.0
H1194 H 0.88534 0.96019 0.39337 0.0
H1195 H 0.85728 0.94851 0.41238 0.0
C1196 C 0.81544 0.87849 0.37075 0.0
C1197 C 0.78645 0.85807 0.38011 0.0
C1198 C 0.82918 0.91187 0.37182 0.0
C1199 C 0.81419 0.92548 0.38222 0.0
C1200 C 0.78556 0.90531 0.39175 0.0
H1201 H 0.87298 0.11892 0.41732 0.0
H1202 H 0.85667 0.06203 0.41494 0.0
C1203 C 0.77195 0.872 0.39082 0.0
C1204 C 0.82737 0.96067 0.38248 0.0
H1205 H 0.8875 0.03073 0.40072 0.0
C1206 C 0.81064 0.97321 0.37284 0.0
C1207 C 0.85544 0.98158 0.3926 0.0
C1208 C 0.87385 0.96903 0.40341 0.0
C1209 C 0.82114 1.00617 0.37313 0.0
C1210 C 0.84927 0.02725 0.38327 0.0
C1211 C 0.86604 0.01463 0.39289 0.0
C1212 C 0.86086 0.06221 0.38464 0.0
C1213 C 0.80148 0.01793 0.36295 0.0
C1214 C 0.86927 0.08146 0.36845 0.0
C1215 C 0.87825 0.11391 0.36977 0.0
C1216 C 0.8791 0.12775 0.38732 0.0
C1217 C 0.87197 0.10878 0.40357 0.0
C1218 C 0.86288 0.07632 0.40224 0.0
H1219 H 0.77646 0.99833 0.3605 0.0
H1220 H 0.8008 0.03724 0.37102 0.0
H1221 H 0.81257 0.02777 0.34908 0.0
H1222 H 0.86849 0.07128 0.35475 0.0
H1223 H 0.8837 0.12792 0.35699 0.0
H1224 H 0.2705 0.11908 0.65877 0.0
H1225 H 0.2493 0.15351 0.64946 0.0
H1226 H 0.16496 0.0717 0.62676 0.0
H1227 H 0.18547 0.03655 0.63709 0.0
H1228 H 0.23409 0.16916 0.61763 0.0
H1229 H 0.12368 0.10684 0.66099 0.0
H1230 H 0.15574 0.09783 0.66274 0.0
H1231 H 0.12763 0.08206 0.64356 0.0
C1232 C 0.24733 0.10826 0.65188 0.0
C1233 C 0.22941 0.07486 0.64906 0.0
C1234 C 0.23529 0.12809 0.64643 0.0
C1235 C 0.20508 0.11526 0.63782 0.0
C1236 C 0.18789 0.08216 0.63389 0.0
H1237 H 0.1544 0.25638 0.59428 0.0
H1238 H 0.16715 0.2132 0.59611 0.0
C1239 C 0.19987 0.06211 0.63953 0.0
C1240 C 0.19202 0.13696 0.6334 0.0
H1241 H 0.13072 0.15134 0.64339 0.0
C1242 C 0.21136 0.16511 0.62317 0.0
C1243 C 0.16254 0.13203 0.64082 0.0
C1244 C 0.14128 0.10323 0.65279 0.0
C1245 C 0.20268 0.18876 0.62063 0.0
C1246 C 0.1731 0.1838 0.6279 0.0
C1247 C 0.15331 0.15523 0.63772 0.0
C1248 C 0.16315 0.20867 0.62643 0.0
C1249 C 0.22633 0.21966 0.61117 0.0
C1250 C 0.15503 0.2197 0.64271 0.0
C1251 C 0.1469 0.24386 0.64162 0.0
C1252 C 0.14698 0.25782 0.62424 0.0
C1253 C 0.15441 0.24634 0.60792 0.0
C1254 C 0.16202 0.2218 0.60897 0.0
H1255 H 0.25101 0.22326 0.61122 0.0
H1256 H 0.21913 0.21927 0.5963 0.0
H1257 H 0.22686 0.24035 0.61833 0.0
H1258 H 0.15563 0.21005 0.65637 0.0
H1259 H 0.14148 0.25226 0.65448 0.0
H1260 H 0.12863 0.87482 0.85792 0.0
H1261 H 0.0717 0.85851 0.85738 0.0
H1262 H 0.07182 0.86516 0.91787 0.0
H1263 H 0.12911 0.88214 0.91846 0.0
H1264 H 0.02339 0.80447 0.87359 0.0
H1265 H 0.02481 0.91241 0.9022 0.0
H1266 H 0.06053 0.91311 0.89373 0.0
H1267 H 0.04506 0.89749 0.9167 0.0
C1268 C 0.11674 0.87352 0.87109 0.0
C1269 C 0.13331 0.87968 0.88826 0.0
C1270 C 0.08413 0.86399 0.87076 0.0
C1271 C 0.06749 0.86087 0.88756 0.0
C1272 C 0.08424 0.86799 0.9047 0.0
H1273 H 0.86085 0.74555 0.90272 0.0
H1274 H 0.91907 0.7689 0.90431 0.0
C1275 C 0.11691 0.87747 0.90503 0.0
C1276 C 0.03227 0.84819 0.88711 0.0
H1277 H 0.97365 0.86544 0.89895 0.0
C1278 C 0.01253 0.81779 0.87918 0.0
C1279 C 0.01814 0.86578 0.89413 0.0
C1280 C 0.0382 0.89914 0.90202 0.0
C1281 C 0.97907 0.80427 0.87836 0.0
C1282 C 0.96485 0.82151 0.88579 0.0
C1283 C 0.98458 0.85214 0.89344 0.0
C1284 C 0.92955 0.80819 0.88546 0.0
C1285 C 0.95921 0.77182 0.86929 0.0
C1286 C 0.91609 0.82298 0.87472 0.0
C1287 C 0.88273 0.80959 0.87368 0.0
C1288 C 0.86215 0.7812 0.88348 0.0
C1289 C 0.87586 0.76701 0.89466 0.0
C1290 C 0.90918 0.78037 0.89564 0.0
H1291 H 0.97409 0.76512 0.86054 0.0
H1292 H 0.94755 0.75339 0.88041 0.0
H1293 H 0.94005 0.77134 0.86033 0.0
H1294 H 0.93139 0.8445 0.86677 0.0
H1295 H 0.87309 0.82103 0.8648 0.0
H1296 H 0.76272 0.88395 0.65437 0.0
H1297 H 0.8039 0.94071 0.65659 0.0
H1298 H 0.80107 0.94983 0.59639 0.0
H1299 H 0.76078 0.89289 0.59403 0.0
H1300 H 0.86321 0.98156 0.61063 0.0
H1301 H 0.78375 0.01307 0.65063 0.0
H1302 H 0.79064 0.9837 0.66201 0.0
H1303 H 0.76954 0.97429 0.64001 0.0
C1304 C 0.7712 0.89796 0.64158 0.0
C1305 C 0.75821 0.88408 0.62403 0.0
C1306 C 0.79451 0.93047 0.64289 0.0
C1307 C 0.80518 0.9497 0.62669 0.0
C1308 C 0.79312 0.93554 0.60909 0.0
H1309 H 0.89624 0.15486 0.61385 0.0
H1310 H 0.86199 0.0966 0.61255 0.0
C1311 C 0.76993 0.90305 0.60778 0.0
C1312 C 0.82826 0.98472 0.62802 0.0
H1313 H 0.83734 0.05473 0.64589 0.0
C1314 C 0.85762 0.99755 0.6184 0.0
C1315 C 0.82087 1.00564 0.63804 0.0
C1316 C 0.78938 0.99361 0.64815 0.0
C1317 C 0.87972 0.03068 0.61856 0.0
C1318 C 0.87227 0.05145 0.62862 0.0
C1319 C 0.84301 0.03868 0.63825 0.0
C1320 C 0.89399 0.0867 0.62887 0.0
C1321 C 0.91059 0.04341 0.60767 0.0
C1322 C 0.92333 0.10045 0.63853 0.0
C1323 C 0.94285 0.13384 0.63953 0.0
C1324 C 0.93338 0.15414 0.63087 0.0
C1325 C 0.9041 0.1401 0.62097 0.0
C1326 C 0.88456 0.10677 0.62008 0.0
H1327 H 0.91052 0.02496 0.59824 0.0
H1328 H 0.91483 0.06446 0.5991 0.0
H1329 H 0.93092 0.05145 0.61766 0.0
H1330 H 0.93081 0.08536 0.64563 0.0
H1331 H 0.96494 0.14371 0.64752 0.0
H1332 H 0.10005 0.23544 0.90758 0.0
H1333 H 0.10952 0.18979 0.90687 0.0
H1334 H 0.18393 0.23884 0.8655 0.0
H1335 H 0.17289 0.28299 0.8652 0.0
H1336 H 0.15177 0.1788 0.85703 0.0
H1337 H 0.18178 0.1879 0.93293 0.0
H1338 H 0.14128 0.17852 0.92849 0.0
H1339 H 0.17415 0.21659 0.92123 0.0
C1340 C 0.11817 0.23622 0.89822 0.0
C1341 C 0.13643 0.26321 0.88685 0.0
C1342 C 0.12385 0.2103 0.89798 0.0
C1343 C 0.14819 0.21118 0.88657 0.0
C1344 C 0.16527 0.23755 0.87459 0.0
H1345 H 0.26179 0.12111 0.9004 0.0
H1346 H 0.23577 0.15334 0.90147 0.0
C1347 C 0.15921 0.26304 0.87459 0.0
C1348 C 0.15659 0.18521 0.88705 0.0
H1349 H 0.18306 0.14641 0.91592 0.0
C1350 C 0.15849 0.17164 0.86994 0.0
C1351 C 0.16567 0.17597 0.90385 0.0
C1352 C 0.16594 0.19069 0.92264 0.0
C1353 C 0.17015 0.15007 0.86903 0.0
C1354 C 0.179 0.14063 0.88584 0.0
C1355 C 0.17615 0.15343 0.90303 0.0
C1356 C 0.19369 0.11964 0.8858 0.0
C1357 C 0.17442 0.13904 0.84992 0.0
C1358 C 0.17854 0.08943 0.87702 0.0
C1359 C 0.19389 0.07121 0.87589 0.0
C1360 C 0.22451 0.08246 0.88388 0.0
C1361 C 0.23873 0.11194 0.89357 0.0
C1362 C 0.22364 0.13033 0.89441 0.0
H1363 H 0.17496 0.15512 0.83853 0.0
H1364 H 0.19695 0.13802 0.84925 0.0
H1365 H 0.15395 0.1147 0.84708 0.0
H1366 H 0.15502 0.08008 0.87077 0.0
H1367 H 0.18208 0.04875 0.86826 0.0
H1368 H 0.12599 0.87492 0.59665 0.0
H1369 H 0.06912 0.8583 0.59964 0.0
H1370 H 0.07799 0.86153 0.66005 0.0
H1371 H 0.13504 0.87796 0.65712 0.0
H1372 H 0.02705 0.80348 0.6458 0.0
H1373 H 0.0245 0.9086 0.61584 0.0
H1374 H 0.04443 0.89332 0.60135 0.0
H1375 H 0.06105 0.91051 0.62389 0.0
C1376 C 0.11594 0.87267 0.61057 0.0
C1377 C 0.13492 0.87783 0.62666 0.0
C1378 C 0.08348 0.86332 0.61226 0.0
C1379 C 0.06937 0.85902 0.63007 0.0
C1380 C 0.08847 0.86494 0.64618 0.0
H1381 H 0.87281 0.81572 0.65218 0.0
H1382 H 0.93133 0.84044 0.65124 0.0
C1383 C 0.12107 0.87456 0.64449 0.0
C1384 C 0.03426 0.84621 0.63179 0.0
H1385 H 0.97395 0.86099 0.61997 0.0
C1386 C 0.01546 0.81615 0.64027 0.0
C1387 C 0.01919 0.86285 0.62469 0.0
C1388 C 0.03831 0.89575 0.61607 0.0
C1389 C 0.98193 0.80193 0.64144 0.0
C1390 C 0.96673 0.81807 0.63376 0.0
C1391 C 0.9856 0.84852 0.62571 0.0
C1392 C 0.93124 0.80356 0.63383 0.0
C1393 C 0.96307 0.76981 0.651 0.0
C1394 C 0.91176 0.77497 0.62401 0.0
C1395 C 0.87833 0.7609 0.6244 0.0
C1396 C 0.86358 0.77514 0.63458 0.0
C1397 C 0.88326 0.8042 0.64406 0.0
C1398 C 0.91674 0.8183 0.64363 0.0
H1399 H 0.97854 0.76455 0.66021 0.0
H1400 H 0.94329 0.76877 0.65958 0.0
H1401 H 0.95233 0.75072 0.64015 0.0
H1402 H 0.92243 0.76354 0.616 0.0
H1403 H 0.86404 0.73892 0.61659 0.0
H1404 H 0.99964 0.1251 0.89127 0.0
H1405 H 0.95085 0.07331 0.89556 0.0
H1406 H 0.90098 0.10093 0.85606 0.0
H1407 H 0.94989 0.15311 0.85177 0.0
H1408 H 0.86356 0.06768 0.8875 0.0
H1409 H 0.92033 1.0032 0.8554 0.0
H1410 H 0.94233 0.02806 0.87498 0.0
H1411 H 0.93786 0.04616 0.85391 0.0
C1412 C 0.97825 0.12022 0.88355 0.0
C1413 C 0.97873 0.14303 0.87097 0.0
C1414 C 0.9504 0.09058 0.88599 0.0
C1415 C 0.9225 0.08293 0.87579 0.0
C1416 C 0.92234 0.10624 0.86396 0.0
H1417 H 0.76544 0.88948 0.85556 0.0
H1418 H 0.81022 0.94439 0.85282 0.0
C1419 C 0.95024 0.13607 0.86158 0.0
C1420 C 0.89398 0.05022 0.87701 0.0
H1421 H 0.86962 0.97109 0.86984 0.0
C1422 C 0.86483 0.04655 0.8836 0.0
C1423 C 0.89551 0.02268 0.87162 0.0
C1424 C 0.92558 0.02512 0.86341 0.0
C1425 C 0.83738 0.01602 0.88534 0.0
C1426 C 0.83928 0.98844 0.88061 0.0
C1427 C 0.86826 0.9922 0.87367 0.0
C1428 C 0.8114 0.95542 0.88241 0.0
C1429 C 0.80639 0.01353 0.89182 0.0
C1430 C 0.79736 0.94316 0.9 0.0
C1431 C 0.77185 0.91165 0.90163 0.0
C1432 C 0.75987 0.89181 0.88569 0.0
C1433 C 0.77417 0.90407 0.86813 0.0
C1434 C 0.79968 0.93552 0.86652 0.0
H1435 H 0.80693 0.03681 0.89065 0.0
H1436 H 0.7859 0.9953 0.88343 0.0
H1437 H 0.80223 1.00602 0.90678 0.0
H1438 H 0.80644 0.95779 0.91253 0.0
H1439 H 0.76168 0.90274 0.91539 0.0
H1440 H 0.41061 0.18586 0.33939 0.0
H1441 H 0.4195 0.19748 0.30546 0.0
H1442 H 0.31722 0.14963 0.29657 0.0
H1443 H 0.30828 0.13813 0.33008 0.0
H1444 H 0.39592 0.1501 0.27608 0.0
H1445 H 0.34993 0.2342 0.26761 0.0
H1446 H 0.36178 0.22612 0.29015 0.0
H1447 H 0.32293 0.1988 0.28048 0.0
C1448 C 0.39013 0.17846 0.3302 0.0
C1449 C 0.35877 0.16114 0.3374 0.0
C1450 C 0.3952 0.18493 0.31083 0.0
C1451 C 0.36902 0.17476 0.29848 0.0
C1452 C 0.33781 0.15823 0.30581 0.0
H1453 H 0.30594 0.1402 0.18576 0.0
H1454 H 0.31608 0.151 0.21937 0.0
C1455 C 0.33275 0.1515 0.325 0.0
C1456 C 0.37356 0.17914 0.27776 0.0
H1457 H 0.35097 0.2065 0.23968 0.0
C1458 C 0.38676 0.163 0.26808 0.0
C1459 C 0.36158 0.19596 0.26735 0.0
C1460 C 0.34854 0.21502 0.27693 0.0
C1461 C 0.38634 0.16146 0.24829 0.0
C1462 C 0.37283 0.17696 0.23788 0.0
C1463 C 0.36117 0.19447 0.2476 0.0
C1464 C 0.36766 0.17272 0.21715 0.0
C1465 C 0.39866 0.1417 0.23877 0.0
C1466 C 0.39333 0.18214 0.20453 0.0
C1467 C 0.38752 0.17581 0.18521 0.0
C1468 C 0.35595 0.15993 0.17822 0.0
C1469 C 0.3305 0.15201 0.19076 0.0
C1470 C 0.33628 0.15828 0.20998 0.0
H1471 H 0.40191 0.1259 0.24885 0.0
H1472 H 0.38204 0.12659 0.22749 0.0
H1473 H 0.42227 0.15797 0.23225 0.0
H1474 H 0.4178 0.19396 0.20963 0.0
H1475 H 0.40762 0.18234 0.17585 0.0
H1476 H 0.77035 0.60699 0.33479 0.0
H1477 H 0.76751 0.59861 0.30048 0.0
H1478 H 0.85581 0.68837 0.29389 0.0
H1479 H 0.85826 0.69696 0.32783 0.0
H1480 H 0.80737 0.6848 0.27231 0.0
H1481 H 0.81621 0.57505 0.26209 0.0
H1482 H 0.78621 0.57161 0.27849 0.0
H1483 H 0.8279 0.59769 0.28376 0.0
C1484 C 0.78953 0.62438 0.32599 0.0
C1485 C 0.81452 0.65258 0.3339 0.0
C1486 C 0.78794 0.61961 0.3064 0.0
C1487 C 0.81159 0.64276 0.29454 0.0
C1488 C 0.8373 0.67013 0.30267 0.0
H1489 H 0.85134 0.69788 0.17836 0.0
H1490 H 0.85213 0.69048 0.2123 0.0
C1491 C 0.83872 0.675 0.32208 0.0
C1492 C 0.80835 0.64068 0.27363 0.0
H1493 H 0.8074 0.59798 0.23488 0.0
C1494 C 0.80714 0.66565 0.2642 0.0
C1495 C 0.80796 0.61567 0.26294 0.0
C1496 C 0.80987 0.58854 0.27225 0.0
C1497 C 0.80591 0.66667 0.24453 0.0
C1498 C 0.80675 0.64235 0.23372 0.0
C1499 C 0.80697 0.61672 0.24311 0.0
C1500 C 0.80868 0.64416 0.21276 0.0
C1501 C 0.80378 0.69405 0.23566 0.0
C1502 C 0.78529 0.61958 0.20143 0.0
C1503 C 0.78538 0.62342 0.18182 0.0
C1504 C 0.80868 0.65201 0.17335 0.0
C1505 C 0.83298 0.6757 0.18458 0.0
C1506 C 0.83328 0.67159 0.204 0.0
H1507 H 0.79133 0.70277 0.24508 0.0
H1508 H 0.82839 0.71436 0.23323 0.0
H1509 H 0.79095 0.68713 0.22202 0.0
H1510 H 0.76617 0.59809 0.20783 0.0
H1511 H 0.76623 0.60496 0.17345 0.0
H1512 H 0.84153 0.23764 0.17428 0.0
H1513 H 0.836 0.24023 0.20862 0.0
H1514 H 0.87432 0.17697 0.21653 0.0
H1515 H 0.88039 0.17482 0.18262 0.0
H1516 H 0.80424 0.19401 0.23732 0.0
H1517 H 0.93579 0.25547 0.247 0.0
H1518 H 0.91741 0.25009 0.22417 0.0
H1519 H 0.92101 0.21809 0.23478 0.0
C1520 C 0.84835 0.224 0.18339 0.0
C1521 C 0.8618 0.20639 0.17578 0.0
C1522 C 0.84528 0.22556 0.20299 0.0
C1523 C 0.85549 0.20942 0.21522 0.0
C1524 C 0.86709 0.19034 0.20748 0.0
H1525 H 0.87275 0.17026 0.32925 0.0
H1526 H 0.86611 0.17245 0.29537 0.0
C1527 C 0.87043 0.18903 0.18805 0.0
C1528 C 0.85531 0.21306 0.23607 0.0
H1529 H 0.90398 0.23214 0.27464 0.0
C1530 C 0.82609 0.20282 0.24549 0.0
C1531 C 0.88386 0.22483 0.24679 0.0
C1532 C 0.91634 0.23806 0.23766 0.0
C1533 C 0.82451 0.20234 0.26533 0.0
C1534 C 0.85287 0.21255 0.27594 0.0
C1535 C 0.88219 0.22408 0.2665 0.0
C1536 C 0.85276 0.20914 0.29676 0.0
C1537 C 0.79245 0.18956 0.27486 0.0
C1538 C 0.84683 0.22865 0.30894 0.0
C1539 C 0.85069 0.22746 0.32849 0.0
C1540 C 0.86084 0.207 0.33604 0.0
C1541 C 0.86528 0.18656 0.32384 0.0
C1542 C 0.86145 0.18773 0.30445 0.0
H1543 H 0.77224 0.17942 0.26465 0.0
H1544 H 0.78876 0.17069 0.28516 0.0
H1545 H 0.79198 0.20924 0.28273 0.0
H1546 H 0.84045 0.24561 0.30329 0.0
H1547 H 0.84726 0.24358 0.33757 0.0
H1548 H 0.15345 0.30875 0.68399 0.0
H1549 H 0.16147 0.32019 0.71761 0.0
H1550 H 0.19138 0.41938 0.70678 0.0
H1551 H 0.18244 0.40771 0.67289 0.0
H1552 H 0.21367 0.36054 0.73871 0.0
H1553 H 0.11913 0.39451 0.74459 0.0
H1554 H 0.12389 0.37583 0.72381 0.0
H1555 H 0.15086 0.41764 0.72824 0.0
C1556 C 0.16183 0.33306 0.68874 0.0
C1557 C 0.16685 0.35724 0.67582 0.0
C1558 C 0.16652 0.3396 0.70799 0.0
C1559 C 0.17645 0.37052 0.71486 0.0
C1560 C 0.18302 0.39517 0.7019 0.0
H1561 H 0.18484 0.4142 0.83725 0.0
H1562 H 0.19645 0.42336 0.80328 0.0
C1563 C 0.17828 0.38858 0.68253 0.0
C1564 C 0.17901 0.37613 0.73561 0.0
H1565 H 0.14465 0.39346 0.7726 0.0
C1566 C 0.19888 0.36818 0.74607 0.0
C1567 C 0.1597 0.38606 0.74532 0.0
C1568 C 0.13697 0.39378 0.735 0.0
C1569 C 0.19917 0.36886 0.76585 0.0
C1570 C 0.17901 0.37758 0.77553 0.0
C1571 C 0.16026 0.38699 0.76514 0.0
C1572 C 0.17398 0.37298 0.79621 0.0
C1573 C 0.22038 0.3593 0.77632 0.0
C1574 C 0.15763 0.34176 0.80347 0.0
C1575 C 0.1508 0.33652 0.82265 0.0
C1576 C 0.16033 0.3624 0.83515 0.0
C1577 C 0.17747 0.39381 0.828 0.0
C1578 C 0.18394 0.39905 0.80861 0.0
H1579 H 0.23997 0.36098 0.76727 0.0
H1580 H 0.23108 0.37463 0.78894 0.0
H1581 H 0.20571 0.33409 0.78111 0.0
H1582 H 0.14948 0.32129 0.79418 0.0
H1583 H 0.13765 0.31201 0.82765 0.0
H1584 H 0.16855 0.85494 0.82944 0.0
H1585 H 0.16958 0.84508 0.79588 0.0
H1586 H 0.25645 0.84098 0.80342 0.0
H1587 H 0.2557 0.85148 0.83732 0.0
H1588 H 0.26071 0.88056 0.77412 0.0
H1589 H 0.14821 0.7646 0.76699 0.0
H1590 H 0.14166 0.79372 0.77883 0.0
H1591 H 0.16685 0.78029 0.78952 0.0
C1592 C 0.18765 0.85149 0.82399 0.0
C1593 C 0.2121 0.85402 0.83593 0.0
C1594 C 0.18808 0.84559 0.80481 0.0
C1595 C 0.21279 0.84173 0.79708 0.0
C1596 C 0.23698 0.84359 0.80907 0.0
H1597 H 0.2338 0.82568 0.67366 0.0
H1598 H 0.23629 0.81681 0.70765 0.0
C1599 C 0.23646 0.84939 0.82841 0.0
C1600 C 0.21419 0.83813 0.77634 0.0
H1601 H 0.16793 0.7964 0.7386 0.0
C1602 C 0.24079 0.86167 0.76638 0.0
C1603 C 0.18821 0.81349 0.76616 0.0
C1604 C 0.15978 0.78642 0.77596 0.0
C1605 C 0.24117 0.86228 0.74659 0.0
C1606 C 0.21435 0.83882 0.73651 0.0
C1607 C 0.18847 0.81439 0.74638 0.0
C1608 C 0.21125 0.84172 0.71594 0.0
C1609 C 0.26948 0.8889 0.73646 0.0
C1610 C 0.19588 0.85807 0.70943 0.0
C1611 C 0.1945 0.86319 0.69022 0.0
C1612 C 0.20832 0.85188 0.67702 0.0
C1613 C 0.2227 0.8344 0.68348 0.0
C1614 C 0.2243 0.82949 0.70285 0.0
H1615 H 0.28915 0.90455 0.74625 0.0
H1616 H 0.2789 0.87859 0.72597 0.0
H1617 H 0.26168 0.90384 0.72868 0.0
H1618 H 0.1856 0.8676 0.7193 0.0
H1619 H 0.18311 0.87661 0.68571 0.0
H1620 H 0.70668 0.85028 0.67972 0.0
H1621 H 0.69959 0.85134 0.71368 0.0
H1622 H 0.6083 0.76394 0.70975 0.0
H1623 H 0.61488 0.76362 0.67537 0.0
H1624 H 0.60716 0.80541 0.73617 0.0
H1625 H 0.71354 0.79222 0.74711 0.0
H1626 H 0.72484 0.82972 0.73589 0.0
H1627 H 0.69885 0.79277 0.7239 0.0
C1628 C 0.68484 0.83159 0.68607 0.0
C1629 C 0.66136 0.80679 0.675 0.0
C1630 C 0.68089 0.83209 0.7055 0.0
C1631 C 0.65385 0.80723 0.71441 0.0
C1632 C 0.6295 0.78325 0.70324 0.0
H1633 H 0.61347 0.76977 0.83614 0.0
H1634 H 0.60618 0.76721 0.80177 0.0
C1635 C 0.63317 0.78312 0.68362 0.0
C1636 C 0.65207 0.80575 0.73538 0.0
H1637 H 0.6942 0.80691 0.77436 0.0
C1638 C 0.62603 0.80547 0.74455 0.0
C1639 C 0.67661 0.80567 0.74639 0.0
C1640 C 0.70482 0.80478 0.73777 0.0
C1641 C 0.62468 0.80662 0.76435 0.0
C1642 C 0.6497 0.80738 0.77526 0.0
C1643 C 0.6751 0.80659 0.76606 0.0
C1644 C 0.65132 0.81048 0.79617 0.0
C1645 C 0.59717 0.80825 0.77336 0.0
C1646 C 0.67892 0.83558 0.80452 0.0
C1647 C 0.68324 0.83673 0.82397 0.0
C1648 C 0.65991 0.81299 0.83559 0.0
C1649 C 0.63151 0.78866 0.82746 0.0
C1650 C 0.62736 0.78724 0.80784 0.0
H1651 H 0.58444 0.81541 0.76312 0.0
H1652 H 0.57967 0.78425 0.77895 0.0
H1653 H 0.60569 0.82552 0.78525 0.0
H1654 H 0.69776 0.8538 0.79589 0.0
H1655 H 0.70539 0.8557 0.8299 0.0
H1656 H 0.24408 0.89267 0.9559 0.0
H1657 H 0.26205 0.9247 0.98501 0.0
H1658 H 0.2817 0.00927 0.95381 0.0
H1659 H 0.2637 0.97811 0.92513 0.0
H1660 H 0.32297 0.98366 0.9946 0.0
H1661 H 0.21826 1.00249 0.99523 0.0
H1662 H 0.21923 0.97167 0.98126 0.0
H1663 H 0.23964 0.01259 0.97332 0.0
C1664 C 0.25228 0.91808 0.95522 0.0
C1665 C 0.25207 0.93247 0.938 0.0
C1666 C 0.26268 0.93641 0.97188 0.0
C1667 C 0.27288 0.9694 0.97166 0.0
C1668 C 0.27355 0.98385 0.95445 0.0
H1669 H 0.36969 0.11761 0.05977 0.0
H1670 H 0.35804 0.08592 0.03062 0.0
C1671 C 0.26326 0.96576 0.93794 0.0
C1672 C 0.28182 0.98895 0.98929 0.0
H1673 H 0.26075 0.03446 0.01617 0.0
C1674 C 0.3093 0.99464 0.9994 0.0
C1675 C 0.26397 1.00325 0.99563 0.0
C1676 C 0.23346 0.99703 0.98593 0.0
C1677 C 0.31955 0.01453 0.01551 0.0
C1678 C 0.30212 0.02951 0.02154 0.0
C1679 C 0.27447 0.02344 0.01148 0.0
C1680 C 0.3103 0.0494 0.03905 0.0
C1681 C 0.34852 0.01876 0.02617 0.0
C1682 C 0.28725 0.04013 0.05331 0.0
C1683 C 0.29365 0.05827 0.06971 0.0
C1684 C 0.32344 0.08643 0.07252 0.0
C1685 C 0.34655 0.09612 0.05814 0.0
C1686 C 0.34001 0.07779 0.04155 0.0
H1687 H 0.35488 1.00026 0.02227 0.0
H1688 H 0.36935 0.04265 0.02287 0.0
H1689 H 0.34431 0.01759 0.04157 0.0
H1690 H 0.26414 0.01852 0.05181 0.0
H1691 H 0.27502 0.04982 0.08029 0.0
H1692 H 0.78049 0.65756 0.45498 0.0
H1693 H 0.76234 0.67214 0.48378 0.0
H1694 H 0.74286 0.73655 0.45176 0.0
H1695 H 0.76128 0.72305 0.42347 0.0
H1696 H 0.77709 0.76538 0.48273 0.0
H1697 H 0.67214 0.64783 0.50179 0.0
H1698 H 0.7092 0.64769 0.499 0.0
H1699 H 0.69119 0.65543 0.47903 0.0
C1700 C 0.77228 0.67475 0.45407 0.0
C1701 C 0.77268 0.68911 0.43673 0.0
C1702 C 0.76161 0.68289 0.47055 0.0
C1703 C 0.75091 0.70533 0.46999 0.0
C1704 C 0.75094 0.71922 0.45268 0.0
H1705 H 0.65158 0.7545 0.55698 0.0
H1706 H 0.665 0.73572 0.52794 0.0
C1707 C 0.76158 0.71129 0.43638 0.0
C1708 C 0.74113 0.71604 0.48729 0.0
H1709 H 0.68658 0.69069 0.52329 0.0
C1710 C 0.75728 0.74896 0.49157 0.0
C1711 C 0.71492 0.69484 0.49872 0.0
C1712 C 0.69559 0.65951 0.49438 0.0
C1713 C 0.74827 0.76119 0.5069 0.0
C1714 C 0.72269 0.73994 0.51868 0.0
C1715 C 0.70621 0.70703 0.51432 0.0
C1716 C 0.71404 0.75144 0.53606 0.0
C1717 C 0.766 0.79697 0.51015 0.0
C1718 C 0.73698 0.76648 0.55029 0.0
C1719 C 0.72951 0.7774 0.56666 0.0
C1720 C 0.69868 0.77333 0.5695 0.0
C1721 C 0.67561 0.75836 0.55522 0.0
C1722 C 0.68319 0.74737 0.53869 0.0
H1723 H 0.77765 0.81034 0.49706 0.0
H1724 H 0.74965 0.80524 0.51544 0.0
H1725 H 0.78511 0.80311 0.52078 0.0
H1726 H 0.76073 0.76945 0.54884 0.0
H1727 H 0.74801 0.78865 0.57728 0.0
H1728 H 0.08373 0.27412 0.94265 0.0
H1729 H 0.04856 0.25814 0.97015 0.0
H1730 H 0.05444 0.35058 0.97037 0.0
H1731 H 0.09138 0.36722 0.94345 0.0
H1732 H 0.0522 0.33244 1.00482 0.0
H1733 H 0.95631 0.228 0.96738 0.0
H1734 H 0.99086 0.22349 0.96998 0.0
H1735 H 0.99319 0.25564 0.95585 0.0
C1736 C 0.07799 0.29122 0.94884 0.0
C1737 C 0.09021 0.32187 0.94094 0.0
C1738 C 0.05743 0.2819 0.96439 0.0
C1739 C 0.04755 0.30256 0.972 0.0
C1740 C 0.06122 0.33392 0.96471 0.0
H1741 H 0.90518 0.26925 0.06139 0.0
H1742 H 0.93801 0.28931 0.03264 0.0
C1743 C 0.08255 0.34356 0.94941 0.0
C1744 C 0.02294 0.29136 0.9874 0.0
H1745 H 0.9497 0.22922 1.00089 0.0
C1746 C 0.02961 0.3101 1.00377 0.0
C1747 C 0.99315 0.26217 0.98621 0.0
C1748 C 0.98286 0.24142 0.96881 0.0
C1749 C 1.00812 0.29997 0.01908 0.0
C1750 C 0.97905 0.27037 0.01807 0.0
C1751 C 0.97198 0.25194 1.00165 0.0
C1752 C 0.95696 0.25699 0.03449 0.0
C1753 C 0.01709 0.32032 0.03659 0.0
C1754 C 0.95591 0.23156 0.04469 0.0
C1755 C 0.93736 0.22023 0.06101 0.0
C1756 C 0.91899 0.2337 0.06739 0.0
C1757 C 0.91867 0.25807 0.05665 0.0
C1758 C 0.93771 0.26978 0.04038 0.0
H1759 H 0.0417 0.34139 0.03581 0.0
H1760 H 0.99987 0.32904 0.03871 0.0
H1761 H 0.01554 0.30574 0.04907 0.0
H1762 H 0.9704 0.22122 0.0404 0.0
H1763 H 0.93819 0.20151 0.06902 0.0
H1764 H 0.27139 0.06231 0.43746 0.0
H1765 H 0.25763 0.02912 0.46566 0.0
H1766 H 0.35783 0.07368 0.48031 0.0
H1767 H 0.37181 0.10729 0.45195 0.0
H1768 H 0.27693 0.98469 0.47399 0.0
H1769 H 0.31587 0.07769 0.52978 0.0
H1770 H 0.31041 0.08554 0.50563 0.0
H1771 H 0.34564 0.08411 0.51242 0.0
C1772 C 0.29053 0.06545 0.44681 0.0
C1773 C 0.32273 0.08747 0.44243 0.0
C1774 C 0.28261 0.04629 0.46291 0.0
C1775 C 0.30661 0.04878 0.47518 0.0
C1776 C 0.3388 0.07153 0.47121 0.0
H1777 H 0.26978 0.90236 0.56213 0.0
H1778 H 0.28924 0.93575 0.53367 0.0
C1779 C 0.34678 0.09083 0.45503 0.0
C1780 C 0.2976 0.02665 0.49165 0.0
H1781 H 0.29627 0.02434 0.53972 0.0
C1782 C 0.28133 0.99337 0.48837 0.0
C1783 C 0.30313 0.03789 0.51043 0.0
C1784 C 0.31948 0.07323 0.51489 0.0
C1785 C 0.2701 0.97113 0.50329 0.0
C1786 C 0.27554 0.98238 0.52207 0.0
C1787 C 0.2922 0.01566 0.52534 0.0
C1788 C 0.26243 0.96024 0.53853 0.0
C1789 C 0.25149 0.93578 0.49882 0.0
C1790 C 0.24067 0.96254 0.55066 0.0
C1791 C 0.22954 0.94351 0.56681 0.0
C1792 C 0.24008 0.92182 0.57137 0.0
C1793 C 0.26096 0.91857 0.55889 0.0
C1794 C 0.27217 0.93775 0.54266 0.0
H1795 H 0.24361 0.93125 0.4839 0.0
H1796 H 0.26695 0.92513 0.50144 0.0
H1797 H 0.23003 0.92331 0.50798 0.0
H1798 H 0.23263 0.9795 0.54779 0.0
H1799 H 0.21338 0.94652 0.57608 0.0
H1800 H 0.79656 0.73987 0.07326 0.0
H1801 H 0.77541 0.752 0.04527 0.0
H1802 H 0.72504 0.65185 0.03021 0.0
H1803 H 0.74683 0.6395 0.05834 0.0
H1804 H 0.75143 0.69013 0.99941 0.0
H1805 H 0.68492 0.73569 0.04019 0.0
H1806 H 0.72662 0.75625 0.04638 0.0
H1807 H 0.7023 0.71394 0.05098 0.0
C1808 C 0.78116 0.72034 0.06396 0.0
C1809 C 0.77321 0.68863 0.06816 0.0
C1810 C 0.76879 0.72732 0.048 0.0
C1811 C 0.74772 0.70278 0.03587 0.0
C1812 C 0.7409 0.6712 0.03947 0.0
H1813 H 0.64473 0.75063 0.94939 0.0
H1814 H 0.65553 0.72645 0.97698 0.0
C1815 C 0.75354 0.66417 0.05548 0.0
C1816 C 0.73328 0.71059 0.01948 0.0
H1817 H 0.69412 0.7511 0.00756 0.0
C1818 C 0.73856 0.70309 1.00123 0.0
C1819 C 0.71569 0.72684 0.02172 0.0
C1820 C 0.70672 0.73332 0.04089 0.0
C1821 C 0.72841 0.71296 0.98524 0.0
C1822 C 0.71319 0.73155 0.98747 0.0
C1823 C 0.70626 0.73741 0.00574 0.0
C1824 C 0.70617 0.74666 0.97111 0.0
C1825 C 0.73422 0.70337 0.96608 0.0
C1826 C 0.73108 0.76697 0.95897 0.0
C1827 C 0.72498 0.78066 0.94332 0.0
C1828 C 0.69381 0.77489 0.93942 0.0
C1829 C 0.66899 0.75565 0.95199 0.0
C1830 C 0.67514 0.74169 0.96771 0.0
H1831 H 0.73531 0.68087 0.9668 0.0
H1832 H 0.71515 0.69987 0.95595 0.0
H1833 H 0.75762 0.72249 0.96062 0.0
H1834 H 0.75541 0.77221 0.96156 0.0
H1835 H 0.74487 0.79567 0.93417 0.0
H1836 H 0.1187 0.37009 0.56103 0.0
H1837 H 0.084 0.35878 0.53327 0.0
H1838 H 0.02973 0.2593 0.54941 0.0
H1839 H 0.06349 0.27039 0.57703 0.0
H1840 H 0.07057 0.32022 0.50308 0.0
H1841 H 0.95838 0.27885 0.54299 0.0
H1842 H 0.9973 0.29901 0.55412 0.0
H1843 H 0.97765 0.25657 0.54944 0.0
C1844 C 0.09948 0.34579 0.55856 0.0
C1845 C 0.09383 0.32126 0.5714 0.0
C1846 C 0.07952 0.33936 0.54274 0.0
C1847 C 0.0535 0.3083 0.53945 0.0
C1848 C 0.04879 0.28366 0.55187 0.0
H1849 H 0.95837 0.21835 0.43667 0.0
H1850 H 0.99137 0.23973 0.46468 0.0
C1851 C 0.06845 0.29006 0.56765 0.0
C1852 C 0.03159 0.30105 0.52291 0.0
H1853 H 0.95219 0.26294 0.51039 0.0
C1854 C 0.04472 0.30807 0.50473 0.0
C1855 C 0.99775 0.28583 0.52489 0.0
C1856 C 0.98197 0.27997 0.54393 0.0
C1857 C 0.02504 0.29879 0.48859 0.0
C1858 C 0.99116 0.28123 0.49058 0.0
C1859 C 0.97806 0.27581 0.50875 0.0
C1860 C 0.96922 0.2669 0.47403 0.0
C1861 C 0.04089 0.30793 0.46954 0.0
C1862 C 0.94421 0.27337 0.47032 0.0
C1863 C 0.92465 0.26058 0.45427 0.0
C1864 C 0.92978 0.24108 0.44163 0.0
C1865 C 0.95393 0.23363 0.44588 0.0
C1866 C 0.97313 0.24612 0.46189 0.0
H1867 H 0.06494 0.32983 0.47041 0.0
H1868 H 0.04429 0.28819 0.46416 0.0
H1869 H 0.02606 0.31228 0.45929 0.0
H1870 H 0.94035 0.289 0.47958 0.0
H1871 H 0.90638 0.2669 0.45139 0.0
H1872 H 0.67107 0.15438 0.09579 0.0
H1873 H 0.6131 0.13361 0.09868 0.0
H1874 H 0.6317 0.21824 0.12955 0.0
H1875 H 0.68934 0.23892 0.12697 0.0
H1876 H 0.57167 0.12152 0.13097 0.0
H1877 H 0.57629 0.21635 0.0846 0.0
H1878 H 0.60862 0.20757 0.08589 0.0
H1879 H 0.60431 0.23157 0.10378 0.0
C1880 C 0.66284 0.16839 0.10342 0.0
C1881 C 0.68506 0.1986 0.11091 0.0
C1882 C 0.62965 0.15651 0.10499 0.0
C1883 C 0.61799 0.17462 0.11402 0.0
C1884 C 0.64006 0.20412 0.12215 0.0
H1885 H 0.4448 0.1715 0.14345 0.0
H1886 H 0.49846 0.17872 0.13992 0.0
C1887 C 0.67311 0.21597 0.1206 0.0
C1888 C 0.58292 0.16345 0.11458 0.0
H1889 H 0.52812 0.1855 0.10187 0.0
C1890 C 0.56206 0.13534 0.12448 0.0
C1891 C 0.57025 0.18127 0.10595 0.0
C1892 C 0.59093 0.2107 0.0943 0.0
C1893 C 0.52927 0.12557 0.12673 0.0
C1894 C 0.51702 0.1442 0.11875 0.0
C1895 C 0.53762 0.17153 0.10825 0.0
C1896 C 0.48356 0.13725 0.1221 0.0
C1897 C 0.5081 0.0961 0.13818 0.0
C1898 C 0.45706 0.11117 0.11347 0.0
C1899 C 0.4261 0.10702 0.11539 0.0
C1900 C 0.42117 0.12893 0.12594 0.0
C1901 C 0.44766 0.15426 0.1351 0.0
C1902 C 0.47843 0.15844 0.13312 0.0
H1903 H 0.52187 0.08595 0.14498 0.0
H1904 H 0.49547 0.10191 0.14923 0.0
H1905 H 0.48955 0.0775 0.12893 0.0
H1906 H 0.46047 0.09465 0.10475 0.0
H1907 H 0.40633 0.08746 0.10802 0.0
H1908 H 0.70464 0.5965 0.35888 0.0
H1909 H 0.65477 0.54426 0.35982 0.0
H1910 H 0.67594 0.5302 0.41676 0.0
H1911 H 0.72527 0.58218 0.41603 0.0
H1912 H 0.64918 0.48038 0.36892 0.0
H1913 H 0.58221 0.5157 0.41785 0.0
H1914 H 0.61624 0.54462 0.40436 0.0
H1915 H 0.62233 0.52688 0.42502 0.0
C1916 C 0.69848 0.58241 0.37165 0.0
C1917 C 0.71912 0.59347 0.38733 0.0
C1918 C 0.6701 0.55246 0.37213 0.0
C1919 C 0.66159 0.53326 0.38837 0.0
C1920 C 0.68189 0.54457 0.4041 0.0
H1921 H 0.52364 0.33139 0.41037 0.0
H1922 H 0.57262 0.38242 0.40352 0.0
C1923 C 0.71022 0.57428 0.40361 0.0
C1924 C 0.63166 0.50134 0.38906 0.0
H1925 H 0.55949 0.4602 0.41158 0.0
C1926 C 0.62945 0.47597 0.37814 0.0
C1927 C 0.60587 0.49559 0.40104 0.0
C1928 C 0.60648 0.52213 0.41266 0.0
C1929 C 0.60239 0.44489 0.37918 0.0
C1930 C 0.57695 0.43894 0.39156 0.0
C1931 C 0.57899 0.46456 0.40218 0.0
C1932 C 0.54765 0.40661 0.39363 0.0
C1933 C 0.60111 0.41877 0.36687 0.0
C1934 C 0.51725 0.4029 0.39017 0.0
C1935 C 0.48935 0.37386 0.39405 0.0
C1936 C 0.49101 0.3477 0.40167 0.0
C1937 C 0.52147 0.35089 0.40434 0.0
C1938 C 0.54952 0.38011 0.40044 0.0
H1939 H 0.6183 0.42874 0.35497 0.0
H1940 H 0.6075 0.40344 0.37538 0.0
H1941 H 0.57659 0.40336 0.36113 0.0
H1942 H 0.51506 0.42282 0.38486 0.0
H1943 H 0.46633 0.37217 0.39161 0.0
H1944 H 0.87185 0.29261 0.08938 0.0
H1945 H 0.86244 0.33787 0.08913 0.0
H1946 H 0.88972 0.3562 0.14757 0.0
H1947 H 0.89961 0.3108 0.14783 0.0
H1948 H 0.81752 0.34128 0.1097 0.0
H1949 H 0.93679 0.44629 0.12571 0.0
H1950 H 0.93174 0.40797 0.11871 0.0
H1951 H 0.92319 0.41415 0.14244 0.0
C1952 C 0.87627 0.30649 0.10215 0.0
C1953 C 0.8861 0.29786 0.1187 0.0
C1954 C 0.8709 0.33244 0.10197 0.0
C1955 C 0.87536 0.35059 0.1183 0.0
C1956 C 0.88655 0.34293 0.1347 0.0
H1957 H 0.7755 0.45927 0.13144 0.0
H1958 H 0.79591 0.4222 0.13557 0.0
C1959 C 0.89211 0.3169 0.13486 0.0
C1960 C 0.8656 0.37554 0.11829 0.0
H1961 H 0.89256 0.45542 0.12495 0.0
C1962 C 0.83399 0.36623 0.11302 0.0
C1963 C 0.8871 0.40818 0.1225 0.0
C1964 C 0.92169 0.41992 0.1275 0.0
C1965 C 0.82328 0.38848 0.11171 0.0
C1966 C 0.8445 0.42103 0.11631 0.0
C1967 C 0.87619 0.43045 0.12159 0.0
C1968 C 0.83422 0.44555 0.11525 0.0
C1969 C 0.78953 0.37692 0.10485 0.0
C1970 C 0.84986 0.47203 0.10313 0.0
C1971 C 0.8384 0.49352 0.10089 0.0
C1972 C 0.81099 0.48889 0.11068 0.0
C1973 C 0.79624 0.46313 0.12339 0.0
C1974 C 0.80787 0.44188 0.12575 0.0
H1975 H 0.77973 0.35389 0.09706 0.0
H1976 H 0.77369 0.37289 0.1171 0.0
H1977 H 0.78857 0.3949 0.0955 0.0
H1978 H 0.87032 0.47549 0.09494 0.0
H1979 H 0.85027 0.51307 0.09098 0.0
H1980 H 0.43458 0.13966 0.42147 0.0
H1981 H 0.49013 0.1515 0.42138 0.0
H1982 H 0.48619 0.13924 0.36119 0.0
H1983 H 0.42996 0.12673 0.36123 0.0
H1984 H 0.52048 0.1141 0.37854 0.0
H1985 H 0.56282 0.23733 0.40426 0.0
H1986 H 0.53346 0.2076 0.41959 0.0
H1987 H 0.5224 0.21168 0.39598 0.0
C1988 C 0.44541 0.13932 0.40818 0.0
C1989 C 0.42793 0.13264 0.39131 0.0
C1990 C 0.47729 0.14624 0.40815 0.0
C1991 C 0.49275 0.1472 0.39124 0.0
C1992 C 0.47492 0.13898 0.37442 0.0
H1993 H 0.70232 0.24973 0.38799 0.0
H1994 H 0.64562 0.23088 0.38182 0.0
C1995 C 0.44276 0.13176 0.37445 0.0
C1996 C 0.5277 0.15782 0.39125 0.0
H1997 H 0.60047 0.21891 0.40576 0.0
C1998 C 0.53804 0.13712 0.38435 0.0
C1999 C 0.55083 0.18814 0.39847 0.0
C2000 C 0.5419 0.21261 0.40481 0.0
C2001 C 0.57062 0.14549 0.38506 0.0
C2002 C 0.59345 0.17507 0.39329 0.0
C2003 C 0.58313 0.19608 0.39964 0.0
C2004 C 0.62813 0.18498 0.39556 0.0
C2005 C 0.58022 0.1227 0.37671 0.0
C2006 C 0.63755 0.1655 0.40522 0.0
C2007 C 0.67011 0.17616 0.40858 0.0
C2008 C 0.69397 0.20682 0.4027 0.0
C2009 C 0.68454 0.22611 0.39285 0.0
C2010 C 0.65208 0.2153 0.38928 0.0
H2011 H 0.56283 0.10712 0.36581 0.0
H2012 H 0.60446 0.13582 0.37028 0.0
H2013 H 0.58054 0.1069 0.38796 0.0
H2014 H 0.6197 0.14244 0.41072 0.0
H2015 H 0.67654 0.1609 0.41644 0.0
H2016 H 0.49982 0.33476 0.08976 0.0
H2017 H 0.53637 0.39294 0.09212 0.0
H2018 H 0.58208 0.37835 0.14024 0.0
H2019 H 0.54574 0.32051 0.13806 0.0
H2020 H 0.55283 0.43984 0.12242 0.0
H2021 H 0.65522 0.42401 0.10133 0.0
H2022 H 0.61398 0.39284 0.09836 0.0
H2023 H 0.63272 0.40017 0.12109 0.0
C2024 C 0.51727 0.34399 0.10104 0.0
C2025 C 0.52013 0.32284 0.11353 0.0
C2026 C 0.53822 0.37726 0.10235 0.0
C2027 C 0.56239 0.39 0.11615 0.0
C2028 C 0.56408 0.36908 0.12924 0.0
H2029 H 0.6992 0.58977 0.14658 0.0
H2030 H 0.65296 0.53502 0.14625 0.0
C2031 C 0.54328 0.33596 0.12794 0.0
C2032 C 0.58711 0.42476 0.11626 0.0
H2033 H 0.66761 0.47588 0.11101 0.0
C2034 C 0.57793 0.44778 0.11989 0.0
C2035 C 0.61985 0.43518 0.11279 0.0
C2036 C 0.63113 0.41185 0.10801 0.0
C2037 C 0.60071 0.48084 0.12039 0.0
C2038 C 0.63352 0.49112 0.11729 0.0
C2039 C 0.64253 0.46807 0.11349 0.0
C2040 C 0.65903 0.52563 0.1172 0.0
C2041 C 0.58948 0.50456 0.12389 0.0
C2042 C 0.67764 0.53881 0.10098 0.0
C2043 C 0.70393 0.56996 0.10114 0.0
C2044 C 0.71264 0.58865 0.11762 0.0
C2045 C 0.69317 0.57604 0.13366 0.0
C2046 C 0.66667 0.54473 0.13347 0.0
H2047 H 0.56316 0.49357 0.12186 0.0
H2048 H 0.59524 0.51336 0.13859 0.0
H2049 H 0.60193 0.52557 0.11439 0.0
H2050 H 0.67223 0.52468 0.08824 0.0
H2051 H 0.71799 0.5791 0.08842 0.0
H2052 H 0.85675 0.51571 0.41895 0.0
H2053 H 0.8773 0.47862 0.41477 0.0
H2054 H 0.81259 0.43423 0.36811 0.0
H2055 H 0.79156 0.47069 0.37251 0.0
H2056 H 0.80791 0.39037 0.39163 0.0
H2057 H 0.93701 0.47211 0.37796 0.0
H2058 H 0.92404 0.48172 0.3994 0.0
H2059 H 0.90798 0.48544 0.37727 0.0
C2060 C 0.84735 0.49841 0.40759 0.0
C2061 C 0.8224 0.49603 0.39613 0.0
C2062 C 0.85924 0.47729 0.40514 0.0
C2063 C 0.84684 0.45375 0.39095 0.0
C2064 C 0.82262 0.45211 0.37915 0.0
H2065 H 0.9113 0.31586 0.36313 0.0
H2066 H 0.90239 0.36194 0.36198 0.0
C2067 C 0.81053 0.47292 0.38172 0.0
C2068 C 0.85679 0.42896 0.38944 0.0
H2069 H 0.92163 0.41784 0.38617 0.0
C2070 C 0.83279 0.39652 0.39022 0.0
C2071 C 0.88921 0.4367 0.3874 0.0
C2072 C 0.916 0.47088 0.38526 0.0
C2073 C 0.84025 0.37182 0.38958 0.0
C2074 C 0.87273 0.37957 0.3886 0.0
C2075 C 0.89677 0.4119 0.38717 0.0
C2076 C 0.88183 0.35424 0.38986 0.0
C2077 C 0.81312 0.33755 0.39016 0.0
C2078 C 0.87448 0.33546 0.40615 0.0
C2079 C 0.87967 0.3094 0.40687 0.0
C2080 C 0.89221 0.30132 0.39128 0.0
C2081 C 0.90142 0.3213 0.37534 0.0
C2082 C 0.89628 0.34759 0.37465 0.0
H2083 H 0.7904 0.33537 0.38481 0.0
H2084 H 0.8187 0.32146 0.38181 0.0
H2085 H 0.80913 0.3293 0.40496 0.0
H2086 H 0.86393 0.3405 0.4182 0.0
H2087 H 0.87319 0.29516 0.41959 0.0
H2088 H 0.1508 0.66816 0.60411 0.0
H2089 H 0.12958 0.61129 0.61088 0.0
H2090 H 0.22584 0.62871 0.61889 0.0
H2091 H 0.24705 0.68568 0.61346 0.0
H2092 H 0.13574 0.56822 0.59264 0.0
H2093 H 0.18513 0.57393 0.66339 0.0
H2094 H 0.18624 0.60836 0.65256 0.0
H2095 H 0.21682 0.59821 0.6474 0.0
C2096 C 0.16749 0.66014 0.60781 0.0
C2097 C 0.20078 0.68189 0.6082 0.0
C2098 C 0.15527 0.6274 0.61152 0.0
C2099 C 0.17595 0.61546 0.61573 0.0
C2100 C 0.20914 0.63714 0.61622 0.0
H2101 H 0.15131 0.43087 0.59184 0.0
H2102 H 0.15745 0.48408 0.59193 0.0
C2103 C 0.22134 0.66986 0.61273 0.0
C2104 C 0.16319 0.58022 0.61831 0.0
H2105 H 0.17009 0.52548 0.6457 0.0
C2106 C 0.14292 0.55892 0.60442 0.0
C2107 C 0.17173 0.56754 0.63386 0.0
C2108 C 0.19086 0.58821 0.65023 0.0
C2109 C 0.13246 0.5259 0.60513 0.0
C2110 C 0.14329 0.51373 0.61982 0.0
C2111 C 0.16211 0.53467 0.63424 0.0
C2112 C 0.13743 0.48012 0.6197 0.0
C2113 C 0.10986 0.50445 0.59003 0.0
C2114 C 0.12462 0.45988 0.63546 0.0
C2115 C 0.12164 0.42926 0.63561 0.0
C2116 C 0.13167 0.41842 0.62005 0.0
C2117 C 0.1435 0.43838 0.60415 0.0
C2118 C 0.14673 0.46888 0.60407 0.0
H2119 H 0.09476 0.51415 0.58456 0.0
H2120 H 0.12403 0.50326 0.57807 0.0
H2121 H 0.09386 0.47976 0.59531 0.0
H2122 H 0.11738 0.46796 0.64775 0.0
H2123 H 0.1125 0.41459 0.64811 0.0
H2124 H 0.29575 0.8693 0.91639 0.0
H2125 H 0.34317 0.86358 0.91676 0.0
H2126 H 0.37393 0.91452 0.86408 0.0
H2127 H 0.3247 0.9181 0.863 0.0
H2128 H 0.38022 0.86366 0.8626 0.0
H2129 H 0.43369 0.92344 0.92968 0.0
H2130 H 0.39311 0.89259 0.93369 0.0
H2131 H 0.40127 0.92622 0.91883 0.0
C2132 C 0.31246 0.87908 0.90479 0.0
C2133 C 0.30606 0.89346 0.88946 0.0
C2134 C 0.34003 0.87641 0.90521 0.0
C2135 C 0.36264 0.88904 0.89061 0.0
C2136 C 0.35699 0.90466 0.87558 0.0
H2137 H 0.53321 0.87 0.90966 0.0
H2138 H 0.49936 0.89351 0.9036 0.0
C2139 C 0.32898 0.90695 0.87503 0.0
C2140 C 0.39059 0.88354 0.89057 0.0
H2141 H 0.44767 0.88382 0.91933 0.0
C2142 C 0.39535 0.86862 0.87489 0.0
C2143 C 0.41104 0.8906 0.90637 0.0
C2144 C 0.40972 0.90944 0.92297 0.0
C2145 C 0.41856 0.85895 0.87501 0.0
C2146 C 0.43683 0.8632 0.89153 0.0
C2147 C 0.43336 0.87982 0.90677 0.0
C2148 C 0.45855 0.84948 0.89366 0.0
C2149 C 0.4232 0.8444 0.85734 0.0
C2150 C 0.44721 0.81684 0.89008 0.0
C2151 C 0.46685 0.80347 0.89305 0.0
C2152 C 0.4982 0.82211 0.90023 0.0
C2153 C 0.50952 0.85485 0.90382 0.0
C2154 C 0.48999 0.86834 0.90054 0.0
H2155 H 0.41741 0.85398 0.84463 0.0
H2156 H 0.4482 0.84914 0.85606 0.0
H2157 H 0.40663 0.81809 0.85755 0.0
H2158 H 0.42283 0.80138 0.88532 0.0
H2159 H 0.45723 0.77834 0.88979 0.0
H2160 H 0.58477 0.71699 0.59237 0.0
H2161 H 0.52951 0.67309 0.59458 0.0
H2162 H 0.54686 0.65375 0.65125 0.0
H2163 H 0.6024 0.69849 0.64933 0.0
H2164 H 0.50867 0.59685 0.62702 0.0
H2165 H 0.46347 0.6824 0.62887 0.0
H2166 H 0.48798 0.68756 0.60873 0.0
H2167 H 0.50541 0.69498 0.63186 0.0
C2168 C 0.5769 0.70354 0.60536 0.0
C2169 C 0.59779 0.71184 0.62084 0.0
C2170 C 0.54531 0.67831 0.60655 0.0
C2171 C 0.53389 0.66054 0.62318 0.0
C2172 C 0.55515 0.66735 0.63832 0.0
H2173 H 0.32749 0.54758 0.64283 0.0
H2174 H 0.38519 0.58373 0.64653 0.0
C2175 C 0.58688 0.69286 0.63718 0.0
C2176 C 0.49934 0.63604 0.62484 0.0
H2177 H 0.4246 0.6276 0.62268 0.0
C2178 C 0.49022 0.6035 0.62627 0.0
C2179 C 0.4753 0.64478 0.62418 0.0
C2180 C 0.48351 0.67938 0.62354 0.0
C2181 C 0.45764 0.57939 0.62633 0.0
C2182 C 0.43361 0.5881 0.62458 0.0
C2183 C 0.44288 0.62076 0.62385 0.0
C2184 C 0.39873 0.56404 0.62323 0.0
C2185 C 0.44933 0.54491 0.6284 0.0
C2186 C 0.38692 0.54075 0.60893 0.0
C2187 C 0.35384 0.51991 0.60683 0.0
C2188 C 0.33184 0.52228 0.61879 0.0
C2189 C 0.34375 0.54537 0.63322 0.0
C2190 C 0.37677 0.56597 0.63541 0.0
H2191 H 0.46894 0.54302 0.63545 0.0
H2192 H 0.42689 0.53089 0.63658 0.0
H2193 H 0.4458 0.53394 0.61424 0.0
H2194 H 0.40319 0.53928 0.599 0.0
H2195 H 0.34543 0.50265 0.59544 0.0
H2196 H 0.16391 0.67434 0.92063 0.0
H2197 H 0.14346 0.61656 0.91679 0.0
H2198 H 0.21142 0.63633 0.87216 0.0
H2199 H 0.23192 0.69381 0.87592 0.0
H2200 H 0.11803 0.57254 0.88567 0.0
H2201 H 0.23388 0.58756 0.91113 0.0
H2202 H 0.22342 0.61852 0.91362 0.0
H2203 H 0.23751 0.61249 0.89143 0.0
C2204 C 0.17413 0.66633 0.9098 0.0
C2205 C 0.19992 0.68877 0.8988 0.0
C2206 C 0.16247 0.6333 0.90764 0.0
C2207 C 0.17633 0.6221 0.89443 0.0
C2208 C 0.20081 0.64437 0.88273 0.0
H2209 H 0.11539 0.42312 0.86181 0.0
H2210 H 0.12458 0.47812 0.86209 0.0
C2211 C 0.21253 0.67727 0.88492 0.0
C2212 C 0.1667 0.58746 0.89358 0.0
H2213 H 0.19603 0.53638 0.89956 0.0
C2214 C 0.13503 0.56458 0.88871 0.0
C2215 C 0.1888 0.577 0.89774 0.0
C2216 C 0.22272 0.60008 0.90394 0.0
C2217 C 0.12504 0.53161 0.88772 0.0
C2218 C 0.14737 0.5213 0.89153 0.0
C2219 C 0.17893 0.54422 0.89649 0.0
C2220 C 0.13852 0.48682 0.89142 0.0
C2221 C 0.09052 0.50802 0.88303 0.0
C2222 C 0.14318 0.47326 0.90773 0.0
C2223 C 0.13807 0.44202 0.90756 0.0
C2224 C 0.12818 0.42342 0.89105 0.0
C2225 C 0.12257 0.4366 0.87481 0.0
C2226 C 0.1278 0.46807 0.87497 0.0
H2227 H 0.07489 0.51874 0.88476 0.0
H2228 H 0.08889 0.50032 0.86817 0.0
H2229 H 0.0812 0.48636 0.89204 0.0
H2230 H 0.15139 0.48712 0.92059 0.0
H2231 H 0.14242 0.43265 0.92039 0.0
H2232 H 0.29732 0.8663 0.59119 0.0
H2233 H 0.34082 0.85412 0.59082 0.0
H2234 H 0.35323 0.87033 0.65064 0.0
H2235 H 0.30961 0.88292 0.65106 0.0
H2236 H 0.41104 0.8946 0.6328 0.0
H2237 H 0.33086 0.77038 0.60879 0.0
H2238 H 0.33139 0.79891 0.59243 0.0
H2239 H 0.31573 0.79634 0.6158 0.0
C2240 C 0.30931 0.86736 0.6043 0.0
C2241 C 0.29975 0.87533 0.6212 0.0
C2242 C 0.33416 0.86025 0.60407 0.0
C2243 C 0.34989 0.86046 0.62076 0.0
C2244 C 0.34134 0.86973 0.63758 0.0
H2245 H 0.45946 0.76029 0.62317 0.0
H2246 H 0.42126 0.77859 0.62968 0.0
C2247 C 0.31647 0.87705 0.6378 0.0
C2248 C 0.37466 0.85034 0.62056 0.0
H2249 H 0.38723 0.78969 0.60626 0.0
C2250 C 0.40579 0.87155 0.62715 0.0
C2251 C 0.36781 0.81999 0.61356 0.0
C2252 C 0.33451 0.79498 0.60746 0.0
C2253 C 0.43036 0.86367 0.62635 0.0
C2254 C 0.42391 0.83405 0.61831 0.0
C2255 C 0.39252 0.81255 0.61225 0.0
C2256 C 0.449 0.82457 0.61592 0.0
C2257 C 0.4628 0.88702 0.63442 0.0
C2258 C 0.47771 0.84429 0.60616 0.0
C2259 C 0.49985 0.83398 0.60265 0.0
C2260 C 0.49348 0.80341 0.60846 0.0
C2261 C 0.46498 0.78388 0.6184 0.0
C2262 C 0.44312 0.79436 0.62214 0.0
H2263 H 0.4609 0.90253 0.64533 0.0
H2264 H 0.47452 0.87439 0.64076 0.0
H2265 H 0.47842 0.90286 0.62303 0.0
H2266 H 0.48257 0.86726 0.60068 0.0
H2267 H 0.52136 0.8494 0.59473 0.0
H2268 H 0.58188 0.72558 0.91692 0.0
H2269 H 0.52862 0.67805 0.91511 0.0
H2270 H 0.55176 0.65496 0.8609 0.0
H2271 H 0.60495 0.70333 0.86228 0.0
H2272 H 0.48124 0.66376 0.88426 0.0
H2273 H 0.51712 0.57116 0.89396 0.0
H2274 H 0.54245 0.61231 0.90125 0.0
H2275 H 0.53879 0.60203 0.87678 0.0
C2276 C 0.57564 0.71062 0.90451 0.0
C2277 C 0.5976 0.71861 0.88962 0.0
C2278 C 0.5452 0.68332 0.90356 0.0
C2279 C 0.53618 0.663 0.88788 0.0
C2280 C 0.5583 0.67026 0.87319 0.0
H2281 H 0.3641 0.47752 0.87005 0.0
H2282 H 0.41493 0.52749 0.86555 0.0
C2283 C 0.58875 0.69784 0.87404 0.0
C2284 C 0.50337 0.63459 0.8869 0.0
H2285 H 0.46221 0.55289 0.8896 0.0
C2286 C 0.477 0.63946 0.88534 0.0
C2287 C 0.49795 0.603 0.88822 0.0
C2288 C 0.52545 0.59655 0.89026 0.0
C2289 C 0.44531 0.61353 0.88499 0.0
C2290 C 0.43975 0.58183 0.88684 0.0
C2291 C 0.46629 0.57707 0.88817 0.0
C2292 C 0.40682 0.55321 0.88787 0.0
C2293 C 0.41823 0.62044 0.88231 0.0
C2294 C 0.3847 0.55108 0.90157 0.0
C2295 C 0.35527 0.52265 0.90388 0.0
C2296 C 0.3477 0.49562 0.89279 0.0
C2297 C 0.36928 0.4981 0.87869 0.0
C2298 C 0.39842 0.52659 0.8762 0.0
H2299 H 0.42651 0.64357 0.87489 0.0
H2300 H 0.39817 0.60111 0.87419 0.0
H2301 H 0.40903 0.6223 0.89628 0.0
H2302 H 0.39079 0.57083 0.91111 0.0
H2303 H 0.33937 0.52115 0.9151 0.0
loop_
_geom_bond_atom_site_label_1
_geom_bond_atom_site_label_2
_geom_bond_distance
_geom_bond_site_symmetry_2
_ccdc_geom_bond_type
C0 C2 1.422 . S
C0 C4 1.415 . S
C0 N6 1.369 . S
C1 C2 1.421 . S
C1 C3 1.417 . S
C1 C13 1.422 . S
C2 C0 1.422 . S
C2 C1 1.421 . S
C2 N12 1.359 . S
C3 C1 1.417 . S
C3 C5 1.329 . S
C3 H22 0.930 . S
C4 C0 1.415 . S
C4 C5 1.437 . S
C4 C8 1.413 . S
C5 C3 1.329 . S
C5 C4 1.437 . S
C5 H27 0.929 . S
N6 C0 1.369 . S
N6 C7 1.338 . S
N6 Gd11 2.622 . S
C7 N6 1.338 . S
C7 C9 1.378 . S
C7 H19 0.929 . S
C8 C4 1.413 . S
C8 C9 1.348 . S
C8 H24 0.931 . S
C9 C7 1.378 . S
C9 C8 1.348 . S
C9 H25 0.930 . S
Gd10 N30 2.622 . S
Gd10 N37 2.570 . S
Gd10 O44 2.353 . S
Gd10 O45 2.468 . S
Gd10 O46 2.427 . S
Gd10 O48 2.388 . S
Gd10 O49 2.386 . S
Gd10 O53 2.307 . S
Gd10 C63 2.805 . S
Gd11 N6 2.622 . S
Gd11 N12 2.570 . S
Gd11 O43 2.386 . S
Gd11 O47 2.307 . S
Gd11 O50 2.353 . S
Gd11 O51 2.468 . S
Gd11 O52 2.427 . S
Gd11 O54 2.388 . S
Gd11 C75 2.805 . S
N12 C2 1.359 . S
N12 Gd11 2.570 . S
N12 C14 1.343 . S
C13 C1 1.422 . S
C13 C15 1.321 . S
C13 H21 0.931 . S
C14 N12 1.343 . S
C14 C15 1.390 . S
C14 H16 0.931 . S
C15 C13 1.321 . S
C15 C14 1.390 . S
C15 H17 0.930 . S
H16 C14 0.931 . S
H17 C15 0.930 . S
H18 C41 0.931 . S
H19 C7 0.929 . S
H20 C42 0.930 . S
H21 C13 0.931 . S
H22 C3 0.930 . S
H23 C32 0.929 . S
H24 C8 0.931 . S
H25 C9 0.930 . S
H26 C64 0.930 . S
H27 C5 0.929 . S
H28 C33 0.931 . S
H29 C34 0.930 . S
N30 Gd10 2.622 . S
N30 C31 1.369 . S
N30 C32 1.338 . S
C31 N30 1.369 . S
C31 C35 1.415 . S
C31 C38 1.422 . S
C32 H23 0.929 . S
C32 N30 1.338 . S
C32 C34 1.378 . S
C33 H28 0.931 . S
C33 C34 1.348 . S
C33 C35 1.413 . S
C34 H29 0.930 . S
C34 C32 1.378 . S
C34 C33 1.348 . S
C35 C31 1.415 . S
C35 C33 1.413 . S
C35 C65 1.437 . S
H36 C65 0.929 . S
N37 Gd10 2.570 . S
N37 C38 1.359 . S
N37 C41 1.343 . S
C38 C31 1.422 . S
C38 N37 1.359 . S
C38 C40 1.421 . S
C39 C40 1.422 . S
C39 C42 1.321 . S
C39 H66 0.931 . S
C40 C38 1.421 . S
C40 C39 1.422 . S
C40 C64 1.417 . S
C41 H18 0.931 . S
C41 N37 1.343 . S
C41 C42 1.390 . S
C42 H20 0.930 . S
C42 C39 1.321 . S
C42 C41 1.390 . S
O43 Gd11 2.386 . S
O43 C55 1.265 . S
O44 Gd10 2.353 . S
O44 C55 1.242 . S
O45 Gd10 2.468 . S
O45 C63 1.263 . S
O46 Gd10 2.427 . S
O46 C63 1.252 . S
O47 Gd11 2.307 . S
O47 C56 1.261 . S
O48 Gd10 2.388 . S
O48 C56 1.252 . S
O49 Gd10 2.386 . S
O49 C67 1.265 . S
O50 Gd11 2.353 . S
O50 C67 1.242 . S
O51 Gd11 2.468 . S
O51 C75 1.263 . S
O52 Gd11 2.427 . S
O52 C75 1.252 . S
O53 Gd10 2.307 . S
O53 C68 1.261 . S
O54 Gd11 2.388 . S
O54 C68 1.252 . S
C55 O43 1.265 . S
C55 O44 1.242 . S
C56 O47 1.261 . S
C56 O48 1.252 . S
C57 C60 1.394 . S
C57 C62 1.370 . S
C57 C63 1.500 . S
C58 C61 1.383 . S
C58 C62 1.395 1_565 S
C59 C60 1.396 1_565 S
C59 C61 1.365 . S
C59 H76 0.929 . S
C60 C57 1.394 . S
C60 C59 1.396 1_545 S
C60 H77 0.930 . S
C61 C58 1.383 . S
C61 C59 1.365 . S
C61 H78 0.931 . S
C62 C57 1.370 . S
C62 C58 1.395 1_545 S
C62 H79 0.930 . S
C63 Gd10 2.805 . S
C63 O45 1.263 . S
C63 O46 1.252 . S
C63 C57 1.500 . S
C64 H26 0.930 . S
C64 C40 1.417 . S
C64 C65 1.329 . S
C65 C35 1.437 . S
C65 H36 0.929 . S
C65 C64 1.329 . S
H66 C39 0.931 . S
C67 O49 1.265 . S
C67 O50 1.242 . S
C68 O53 1.261 . S
C68 O54 1.252 . S
C69 C72 1.394 . S
C69 C74 1.370 . S
C69 C75 1.500 . S
C70 C73 1.383 . S
C70 C74 1.395 . S
C71 C72 1.396 . S
C71 C73 1.365 . S
C71 H80 0.929 . S
C72 C69 1.394 . S
C72 C71 1.396 . S
C72 H81 0.930 . S
C73 C70 1.383 . S
C73 C71 1.365 . S
C73 H82 0.931 . S
C74 C69 1.370 . S
C74 C70 1.395 . S
C74 H83 0.930 . S
C75 Gd11 2.805 . S
C75 O51 1.263 . S
C75 O52 1.252 . S
C75 C69 1.500 . S
H76 C59 0.929 . S
H77 C60 0.930 . S
H78 C61 0.931 . S
H79 C62 0.930 . S
H80 C71 0.929 . S
H81 C72 0.930 . S
H82 C73 0.931 . S
H83 C74 0.930 . S
C84 C86 1.422 . S
C84 C88 1.415 . S
C84 N90 1.369 . S
C85 C86 1.421 . S
C85 C87 1.417 . S
C85 C97 1.422 . S
C86 C84 1.422 . S
C86 C85 1.421 . S
C86 N96 1.359 . S
C87 C85 1.417 . S
C87 C89 1.329 . S
C87 H106 0.930 . S
C88 C84 1.415 . S
C88 C89 1.437 . S
C88 C92 1.413 . S
C89 C87 1.329 . S
C89 C88 1.437 . S
C89 H111 0.929 . S
N90 C84 1.369 . S
N90 C91 1.338 . S
N90 Gd95 2.622 . S
C91 N90 1.338 . S
C91 C93 1.378 . S
C91 H103 0.929 . S
C92 C88 1.413 . S
C92 C93 1.348 . S
C92 H108 0.931 . S
C93 C91 1.378 . S
C93 C92 1.348 . S
C93 H109 0.930 . S
Gd94 N114 2.622 . S
Gd94 N121 2.570 . S
Gd94 O128 2.353 . S
Gd94 O129 2.468 . S
Gd94 O130 2.427 . S
Gd94 O132 2.388 . S
Gd94 O133 2.386 . S
Gd94 O137 2.307 . S
Gd94 C147 2.805 . S
Gd95 N90 2.622 . S
Gd95 N96 2.570 . S
Gd95 O127 2.386 . S
Gd95 O131 2.307 . S
Gd95 O134 2.353 . S
Gd95 O135 2.468 . S
Gd95 O136 2.427 . S
Gd95 O138 2.388 . S
Gd95 C159 2.805 . S
N96 C86 1.359 . S
N96 Gd95 2.570 . S
N96 C98 1.343 . S
C97 C85 1.422 . S
C97 C99 1.321 . S
C97 H105 0.931 . S
C98 N96 1.343 . S
C98 C99 1.390 . S
C98 H100 0.931 . S
C99 C97 1.321 . S
C99 C98 1.390 . S
C99 H101 0.930 . S
H100 C98 0.931 . S
H101 C99 0.930 . S
H102 C125 0.931 . S
H103 C91 0.929 . S
H104 C126 0.930 . S
H105 C97 0.931 . S
H106 C87 0.930 . S
H107 C116 0.929 . S
H108 C92 0.931 . S
H109 C93 0.930 . S
H110 C148 0.934 1_455 S
H111 C89 0.929 . S
H112 C117 0.931 . S
H113 C118 0.930 . S
N114 Gd94 2.622 . S
N114 C115 1.369 . S
N114 C116 1.338 . S
C115 N114 1.369 . S
C115 C119 1.415 . S
C115 C122 1.422 . S
C116 H107 0.929 . S
C116 N114 1.338 . S
C116 C118 1.378 . S
C117 H112 0.931 . S
C117 C118 1.348 . S
C117 C119 1.413 . S
C118 H113 0.930 . S
C118 C116 1.378 . S
C118 C117 1.348 . S
C119 C115 1.415 . S
C119 C117 1.413 . S
C119 C149 1.437 . S
H120 C149 0.929 . S
N121 Gd94 2.570 . S
N121 C122 1.359 . S
N121 C125 1.343 . S
C122 C115 1.422 . S
C122 N121 1.359 . S
C122 C124 1.421 . S
C123 C124 1.422 . S
C123 C126 1.321 . S
C123 H150 0.931 . S
C124 C122 1.421 . S
C124 C123 1.422 . S
C124 C148 1.417 . S
C125 H102 0.931 . S
C125 N121 1.343 . S
C125 C126 1.390 . S
C126 H104 0.930 . S
C126 C123 1.321 . S
C126 C125 1.390 . S
O127 Gd95 2.386 . S
O127 C139 1.265 . S
O128 Gd94 2.353 . S
O128 C139 1.242 . S
O129 Gd94 2.468 . S
O129 C147 1.263 . S
O130 Gd94 2.427 . S
O130 C147 1.252 . S
O131 Gd95 2.307 . S
O131 C140 1.261 . S
O132 Gd94 2.388 . S
O132 C140 1.252 . S
O133 Gd94 2.386 . S
O133 C151 1.265 . S
O134 Gd95 2.353 . S
O134 C151 1.242 . S
O135 Gd95 2.468 . S
O135 C159 1.263 . S
O136 Gd95 2.427 . S
O136 C159 1.252 . S
O137 Gd94 2.307 . S
O137 C152 1.261 . S
O138 Gd95 2.388 . S
O138 C152 1.252 . S
C139 O127 1.265 . S
C139 O128 1.242 . S
C140 O131 1.261 . S
C140 O132 1.252 . S
C141 C144 1.394 . S
C141 C146 1.370 . S
C141 C147 1.500 . S
C142 C145 1.383 . S
C142 C146 1.395 . S
C143 C144 1.396 . S
C143 C145 1.365 . S
C143 H160 0.929 . S
C144 C141 1.394 . S
C144 C143 1.396 . S
C144 H161 0.930 . S
C145 C142 1.383 . S
C145 C143 1.365 . S
C145 H162 0.931 . S
C146 C141 1.370 . S
C146 C142 1.395 . S
C146 H163 0.930 . S
C147 Gd94 2.805 . S
C147 O129 1.263 . S
C147 O130 1.252 . S
C147 C141 1.500 . S
C148 H110 0.934 1_655 S
C148 C124 1.417 . S
C148 C149 1.329 . S
C149 C119 1.437 . S
C149 H120 0.929 . S
C149 C148 1.329 . S
H150 C123 0.931 . S
C151 O133 1.265 . S
C151 O134 1.242 . S
C152 O137 1.261 . S
C152 O138 1.252 . S
C153 C156 1.394 . S
C153 C158 1.370 . S
C153 C159 1.500 . S
C154 C157 1.383 . S
C154 C158 1.395 . S
C155 C156 1.396 . S
C155 C157 1.365 . S
C155 H164 0.929 . S
C156 C153 1.394 . S
C156 C155 1.396 . S
C156 H165 0.930 . S
C157 C154 1.383 . S
C157 C155 1.365 . S
C157 H166 0.931 . S
C158 C153 1.370 . S
C158 C154 1.395 . S
C158 H167 0.930 . S
C159 Gd95 2.805 . S
C159 O135 1.263 . S
C159 O136 1.252 . S
C159 C153 1.500 . S
H160 C143 0.929 . S
H161 C144 0.930 . S
H162 C145 0.931 . S
H163 C146 0.930 . S
H164 C155 0.929 . S
H165 C156 0.930 . S
H166 C157 0.931 . S
H167 C158 0.930 . S
C168 C170 1.422 . S
C168 C172 1.415 . S
C168 N174 1.369 . S
C169 C170 1.421 . S
C169 C171 1.417 . S
C169 C181 1.422 . S
C170 C168 1.422 . S
C170 C169 1.421 . S
C170 N180 1.359 . S
C171 C169 1.417 . S
C171 C173 1.329 . S
C171 H190 0.933 1_545 S
C172 C168 1.415 . S
C172 C173 1.437 . S
C172 C176 1.413 . S
C173 C171 1.329 . S
C173 C172 1.437 . S
C173 H195 0.929 . S
N174 C168 1.369 . S
N174 C175 1.338 . S
N174 Gd179 2.622 . S
C175 N174 1.338 . S
C175 C177 1.378 . S
C175 H187 0.929 . S
C176 C172 1.413 . S
C176 C177 1.348 . S
C176 H192 0.931 . S
C177 C175 1.378 . S
C177 C176 1.348 . S
C177 H193 0.930 . S
Gd178 N198 2.622 . S
Gd178 N205 2.570 . S
Gd178 O212 2.353 . S
Gd178 O213 2.468 . S
Gd178 O214 2.427 . S
Gd178 O216 2.388 . S
Gd178 O217 2.386 . S
Gd178 O221 2.307 . S
Gd178 C231 2.805 . S
Gd179 N174 2.622 . S
Gd179 N180 2.570 . S
Gd179 O211 2.386 . S
Gd179 O215 2.307 . S
Gd179 O218 2.353 . S
Gd179 O219 2.468 . S
Gd179 O220 2.427 . S
Gd179 O222 2.388 . S
Gd179 C243 2.805 . S
N180 C170 1.359 . S
N180 Gd179 2.570 . S
N180 C182 1.343 . S
C181 C169 1.422 . S
C181 C183 1.321 . S
C181 H189 0.931 . S
C182 N180 1.343 . S
C182 C183 1.390 . S
C182 H184 0.931 . S
C183 C181 1.321 . S
C183 C182 1.390 . S
C183 H185 0.930 . S
H184 C182 0.931 . S
H185 C183 0.930 . S
H186 C209 0.931 . S
H187 C175 0.929 . S
H188 C210 0.930 . S
H189 C181 0.931 . S
H190 C171 0.933 1_565 S
H191 C200 0.929 . S
H192 C176 0.931 . S
H193 C177 0.930 . S
H194 C232 0.930 . S
H195 C173 0.929 . S
H196 C201 0.931 . S
H197 C202 0.930 . S
N198 Gd178 2.622 . S
N198 C199 1.369 . S
N198 C200 1.338 . S
C199 N198 1.369 . S
C199 C203 1.415 . S
C199 C206 1.422 . S
C200 H191 0.929 . S
C200 N198 1.338 . S
C200 C202 1.378 . S
C201 H196 0.931 . S
C201 C202 1.348 . S
C201 C203 1.413 . S
C202 H197 0.930 . S
C202 C200 1.378 . S
C202 C201 1.348 . S
C203 C199 1.415 . S
C203 C201 1.413 . S
C203 C233 1.437 . S
H204 C233 0.929 . S
N205 Gd178 2.570 . S
N205 C206 1.359 . S
N205 C209 1.343 . S
C206 C199 1.422 . S
C206 N205 1.359 . S
C206 C208 1.421 . S
C207 C208 1.422 . S
C207 C210 1.321 . S
C207 H234 0.931 . S
C208 C206 1.421 . S
C208 C207 1.422 . S
C208 C232 1.417 . S
C209 H186 0.931 . S
C209 N205 1.343 . S
C209 C210 1.390 . S
C210 H188 0.930 . S
C210 C207 1.321 . S
C210 C209 1.390 . S
O211 Gd179 2.386 . S
O211 C223 1.265 . S
O212 Gd178 2.353 . S
O212 C223 1.242 . S
O213 Gd178 2.468 . S
O213 C231 1.263 . S
O214 Gd178 2.427 . S
O214 C231 1.252 . S
O215 Gd179 2.307 . S
O215 C224 1.261 . S
O216 Gd178 2.388 . S
O216 C224 1.252 . S
O217 Gd178 2.386 . S
O217 C235 1.265 . S
O218 Gd179 2.353 . S
O218 C235 1.242 . S
O219 Gd179 2.468 . S
O219 C243 1.263 . S
O220 Gd179 2.427 . S
O220 C243 1.252 . S
O221 Gd178 2.307 . S
O221 C236 1.261 . S
O222 Gd179 2.388 . S
O222 C236 1.252 . S
C223 O211 1.265 . S
C223 O212 1.242 . S
C224 O215 1.261 . S
C224 O216 1.252 . S
C225 C228 1.394 . S
C225 C230 1.370 . S
C225 C231 1.500 . S
C226 C229 1.383 . S
C226 C230 1.395 1_455 S
C227 C228 1.396 1_455 S
C227 C229 1.365 . S
C227 H244 0.929 . S
C228 C225 1.394 . S
C228 C227 1.396 1_655 S
C228 H245 0.930 . S
C229 C226 1.383 . S
C229 C227 1.365 . S
C229 H246 0.931 . S
C230 C225 1.370 . S
C230 C226 1.395 1_655 S
C230 H247 0.930 . S
C231 Gd178 2.805 . S
C231 O213 1.263 . S
C231 O214 1.252 . S
C231 C225 1.500 . S
C232 H194 0.930 . S
C232 C208 1.417 . S
C232 C233 1.329 . S
C233 C203 1.437 . S
C233 H204 0.929 . S
C233 C232 1.329 . S
H234 C207 0.931 . S
C235 O217 1.265 . S
C235 O218 1.242 . S
C236 O221 1.261 . S
C236 O222 1.252 . S
C237 C240 1.394 . S
C237 C242 1.370 . S
C237 C243 1.500 . S
C238 C241 1.383 . S
C238 C242 1.395 . S
C239 C240 1.396 . S
C239 C241 1.365 . S
C239 H248 0.929 . S
C240 C237 1.394 . S
C240 C239 1.396 . S
C240 H249 0.930 . S
C241 C238 1.383 . S
C241 C239 1.365 . S
C241 H250 0.931 . S
C242 C237 1.370 . S
C242 C238 1.395 . S
C242 H251 0.930 . S
C243 Gd179 2.805 . S
C243 O219 1.263 . S
C243 O220 1.252 . S
C243 C237 1.500 . S
H244 C227 0.929 . S
H245 C228 0.930 . S
H246 C229 0.931 . S
H247 C230 0.930 . S
H248 C239 0.929 . S
H249 C240 0.930 . S
H250 C241 0.931 . S
H251 C242 0.930 . S
C252 C254 1.422 . S
C252 C256 1.415 . S
C252 N258 1.369 . S
C253 C254 1.421 . S
C253 C255 1.417 . S
C253 C265 1.422 . S
C254 C252 1.422 . S
C254 C253 1.421 . S
C254 N264 1.359 . S
C255 C253 1.417 . S
C255 C257 1.329 . S
C255 H274 0.930 . S
C256 C252 1.415 . S
C256 C257 1.437 . S
C256 C260 1.413 . S
C257 C255 1.329 . S
C257 C256 1.437 . S
C257 H279 0.929 . S
N258 C252 1.369 . S
N258 C259 1.338 . S
N258 Gd263 2.622 . S
C259 N258 1.338 . S
C259 C261 1.378 . S
C259 H271 0.929 . S
C260 C256 1.413 . S
C260 C261 1.348 . S
C260 H276 0.931 . S
C261 C259 1.378 . S
C261 C260 1.348 . S
C261 H277 0.930 . S
Gd262 N282 2.622 . S
Gd262 N289 2.570 . S
Gd262 O296 2.353 . S
Gd262 O297 2.468 . S
Gd262 O298 2.427 . S
Gd262 O300 2.388 . S
Gd262 O301 2.386 . S
Gd262 O305 2.307 . S
Gd262 C315 2.805 . S
Gd263 N258 2.622 . S
Gd263 N264 2.570 . S
Gd263 O295 2.386 . S
Gd263 O299 2.307 . S
Gd263 O302 2.353 . S
Gd263 O303 2.468 . S
Gd263 O304 2.427 . S
Gd263 O306 2.388 . S
Gd263 C327 2.805 . S
N264 C254 1.359 . S
N264 Gd263 2.570 . S
N264 C266 1.343 . S
C265 C253 1.422 . S
C265 C267 1.321 . S
C265 H273 0.931 . S
C266 N264 1.343 . S
C266 C267 1.390 . S
C266 H268 0.931 . S
C267 C265 1.321 . S
C267 C266 1.390 . S
C267 H269 0.930 . S
H268 C266 0.931 . S
H269 C267 0.930 . S
H270 C293 0.931 . S
H271 C259 0.929 . S
H272 C294 0.930 . S
H273 C265 0.931 . S
H274 C255 0.930 . S
H275 C284 0.929 . S
H276 C260 0.931 . S
H277 C261 0.930 . S
H278 C316 0.930 . S
H279 C257 0.929 . S
H280 C285 0.931 . S
H281 C286 0.930 . S
N282 Gd262 2.622 . S
N282 C283 1.369 . S
N282 C284 1.338 . S
C283 N282 1.369 . S
C283 C287 1.415 . S
C283 C290 1.422 . S
C284 H275 0.929 . S
C284 N282 1.338 . S
C284 C286 1.378 . S
C285 H280 0.931 . S
C285 C286 1.348 . S
C285 C287 1.413 . S
C286 H281 0.930 . S
C286 C284 1.378 . S
C286 C285 1.348 . S
C287 C283 1.415 . S
C287 C285 1.413 . S
C287 C317 1.437 . S
H288 C317 0.929 . S
N289 Gd262 2.570 . S
N289 C290 1.359 . S
N289 C293 1.343 . S
C290 C283 1.422 . S
C290 N289 1.359 . S
C290 C292 1.421 . S
C291 C292 1.422 . S
C291 C294 1.321 . S
C291 H318 0.931 . S
C292 C290 1.421 . S
C292 C291 1.422 . S
C292 C316 1.417 . S
C293 H270 0.931 . S
C293 N289 1.343 . S
C293 C294 1.390 . S
C294 H272 0.930 . S
C294 C291 1.321 . S
C294 C293 1.390 . S
O295 Gd263 2.386 . S
O295 C307 1.265 . S
O296 Gd262 2.353 . S
O296 C307 1.242 . S
O297 Gd262 2.468 . S
O297 C315 1.263 . S
O298 Gd262 2.427 . S
O298 C315 1.252 . S
O299 Gd263 2.307 . S
O299 C308 1.261 . S
O300 Gd262 2.388 . S
O300 C308 1.252 . S
O301 Gd262 2.386 . S
O301 C319 1.265 . S
O302 Gd263 2.353 . S
O302 C319 1.242 . S
O303 Gd263 2.468 . S
O303 C327 1.263 . S
O304 Gd263 2.427 . S
O304 C327 1.252 . S
O305 Gd262 2.307 . S
O305 C320 1.261 . S
O306 Gd263 2.388 . S
O306 C320 1.252 . S
C307 O295 1.265 . S
C307 O296 1.242 . S
C308 O299 1.261 . S
C308 O300 1.252 . S
C309 C312 1.394 . S
C309 C314 1.370 . S
C309 C315 1.500 . S
C310 C313 1.383 . S
C310 C314 1.395 . S
C311 C312 1.396 . S
C311 C313 1.365 . S
C311 H328 0.929 . S
C312 C309 1.394 . S
C312 C311 1.396 . S
C312 H329 0.930 . S
C313 C310 1.383 . S
C313 C311 1.365 . S
C313 H330 0.931 . S
C314 C309 1.370 . S
C314 C310 1.395 . S
C314 H331 0.930 . S
C315 Gd262 2.805 . S
C315 O297 1.263 . S
C315 O298 1.252 . S
C315 C309 1.500 . S
C316 H278 0.930 . S
C316 C292 1.417 . S
C316 C317 1.329 . S
C317 C287 1.437 . S
C317 H288 0.929 . S
C317 C316 1.329 . S
H318 C291 0.931 . S
C319 O301 1.265 . S
C319 O302 1.242 . S
C320 O305 1.261 . S
C320 O306 1.252 . S
C321 C324 1.394 . S
C321 C326 1.370 . S
C321 C327 1.500 . S
C322 C325 1.383 . S
C322 C326 1.395 1_565 S
C323 C324 1.396 1_565 S
C323 C325 1.365 . S
C323 H332 0.929 . S
C324 C321 1.394 . S
C324 C323 1.396 1_545 S
C324 H333 0.930 . S
C325 C322 1.383 . S
C325 C323 1.365 . S
C325 H334 0.931 . S
C326 C321 1.370 . S
C326 C322 1.395 1_545 S
C326 H335 0.930 . S
C327 Gd263 2.805 . S
C327 O303 1.263 . S
C327 O304 1.252 . S
C327 C321 1.500 . S
H328 C311 0.929 . S
H329 C312 0.930 . S
H330 C313 0.931 . S
H331 C314 0.930 . S
H332 C323 0.929 . S
H333 C324 0.930 . S
H334 C325 0.931 . S
H335 C326 0.930 . S
C336 C338 1.422 . S
C336 C340 1.415 . S
C336 N342 1.369 . S
C337 C338 1.421 . S
C337 C339 1.417 . S
C337 C349 1.422 . S
C338 C336 1.422 . S
C338 C337 1.421 . S
C338 N348 1.359 . S
C339 C337 1.417 . S
C339 C341 1.329 . S
C339 H358 0.934 1_655 S
C340 C336 1.415 . S
C340 C341 1.437 . S
C340 C344 1.413 . S
C341 C339 1.329 . S
C341 C340 1.437 . S
C341 H363 0.929 . S
N342 C336 1.369 . S
N342 C343 1.338 . S
N342 Gd347 2.622 . S
C343 N342 1.338 . S
C343 C345 1.378 . S
C343 H355 0.929 . S
C344 C340 1.413 . S
C344 C345 1.348 . S
C344 H360 0.931 . S
C345 C343 1.378 . S
C345 C344 1.348 . S
C345 H361 0.930 . S
Gd346 N366 2.622 . S
Gd346 N373 2.570 . S
Gd346 O380 2.353 . S
Gd346 O381 2.468 . S
Gd346 O382 2.427 . S
Gd346 O384 2.388 . S
Gd346 O385 2.386 . S
Gd346 O389 2.307 . S
Gd346 C399 2.805 . S
Gd347 N342 2.622 . S
Gd347 N348 2.570 . S
Gd347 O379 2.386 . S
Gd347 O383 2.307 . S
Gd347 O386 2.353 . S
Gd347 O387 2.468 . S
Gd347 O388 2.427 . S
Gd347 O390 2.388 . S
Gd347 C411 2.805 . S
N348 C338 1.359 . S
N348 Gd347 2.570 . S
N348 C350 1.343 . S
C349 C337 1.422 . S
C349 C351 1.321 . S
C349 H357 0.931 . S
C350 N348 1.343 . S
C350 C351 1.390 . S
C350 H352 0.931 . S
C351 C349 1.321 . S
C351 C350 1.390 . S
C351 H353 0.930 . S
H352 C350 0.931 . S
H353 C351 0.930 . S
H354 C377 0.931 . S
H355 C343 0.929 . S
H356 C378 0.930 . S
H357 C349 0.931 . S
H358 C339 0.934 1_455 S
H359 C368 0.929 . S
H360 C344 0.931 . S
H361 C345 0.930 . S
H362 C400 0.930 . S
H363 C341 0.929 . S
H364 C369 0.931 . S
H365 C370 0.930 . S
N366 Gd346 2.622 . S
N366 C367 1.369 . S
N366 C368 1.338 . S
C367 N366 1.369 . S
C367 C371 1.415 . S
C367 C374 1.422 . S
C368 H359 0.929 . S
C368 N366 1.338 . S
C368 C370 1.378 . S
C369 H364 0.931 . S
C369 C370 1.348 . S
C369 C371 1.413 . S
C370 H365 0.930 . S
C370 C368 1.378 . S
C370 C369 1.348 . S
C371 C367 1.415 . S
C371 C369 1.413 . S
C371 C401 1.437 . S
H372 C401 0.929 . S
N373 Gd346 2.570 . S
N373 C374 1.359 . S
N373 C377 1.343 . S
C374 C367 1.422 . S
C374 N373 1.359 . S
C374 C376 1.421 . S
C375 C376 1.422 . S
C375 C378 1.321 . S
C375 H402 0.931 . S
C376 C374 1.421 . S
C376 C375 1.422 . S
C376 C400 1.417 . S
C377 H354 0.931 . S
C377 N373 1.343 . S
C377 C378 1.390 . S
C378 H356 0.930 . S
C378 C375 1.321 . S
C378 C377 1.390 . S
O379 Gd347 2.386 . S
O379 C391 1.265 . S
O380 Gd346 2.353 . S
O380 C391 1.242 . S
O381 Gd346 2.468 . S
O381 C399 1.263 . S
O382 Gd346 2.427 . S
O382 C399 1.252 . S
O383 Gd347 2.307 . S
O383 C392 1.261 . S
O384 Gd346 2.388 . S
O384 C392 1.252 . S
O385 Gd346 2.386 . S
O385 C403 1.265 . S
O386 Gd347 2.353 . S
O386 C403 1.242 . S
O387 Gd347 2.468 . S
O387 C411 1.263 . S
O388 Gd347 2.427 . S
O388 C411 1.252 . S
O389 Gd346 2.307 . S
O389 C404 1.261 . S
O390 Gd347 2.388 . S
O390 C404 1.252 . S
C391 O379 1.265 . S
C391 O380 1.242 . S
C392 O383 1.261 . S
C392 O384 1.252 . S
C393 C396 1.394 . S
C393 C398 1.370 . S
C393 C399 1.500 . S
C394 C397 1.383 . S
C394 C398 1.395 . S
C395 C396 1.396 . S
C395 C397 1.365 . S
C395 H412 0.929 . S
C396 C393 1.394 . S
C396 C395 1.396 . S
C396 H413 0.930 . S
C397 C394 1.383 . S
C397 C395 1.365 . S
C397 H414 0.931 . S
C398 C393 1.370 . S
C398 C394 1.395 . S
C398 H415 0.930 . S
C399 Gd346 2.805 . S
C399 O381 1.263 . S
C399 O382 1.252 . S
C399 C393 1.500 . S
C400 H362 0.930 . S
C400 C376 1.417 . S
C400 C401 1.329 . S
C401 C371 1.437 . S
C401 H372 0.929 . S
C401 C400 1.329 . S
H402 C375 0.931 . S
C403 O385 1.265 . S
C403 O386 1.242 . S
C404 O389 1.261 . S
C404 O390 1.252 . S
C405 C408 1.394 . S
C405 C410 1.370 . S
C405 C411 1.500 . S
C406 C409 1.383 . S
C406 C410 1.395 . S
C407 C408 1.396 . S
C407 C409 1.365 . S
C407 H416 0.929 . S
C408 C405 1.394 . S
C408 C407 1.396 . S
C408 H417 0.930 . S
C409 C406 1.383 . S
C409 C407 1.365 . S
C409 H418 0.931 . S
C410 C405 1.370 . S
C410 C406 1.395 . S
C410 H419 0.930 . S
C411 Gd347 2.805 . S
C411 O387 1.263 . S
C411 O388 1.252 . S
C411 C405 1.500 . S
H412 C395 0.929 . S
H413 C396 0.930 . S
H414 C397 0.931 . S
H415 C398 0.930 . S
H416 C407 0.929 . S
H417 C408 0.930 . S
H418 C409 0.931 . S
H419 C410 0.930 . S
C420 C422 1.422 . S
C420 C424 1.415 . S
C420 N426 1.369 . S
C421 C422 1.421 . S
C421 C423 1.417 . S
C421 C433 1.422 . S
C422 C420 1.422 . S
C422 C421 1.421 . S
C422 N432 1.359 . S
C423 C421 1.417 . S
C423 C425 1.329 . S
C423 H442 0.930 . S
C424 C420 1.415 . S
C424 C425 1.437 . S
C424 C428 1.413 . S
C425 C423 1.329 . S
C425 C424 1.437 . S
C425 H447 0.929 . S
N426 C420 1.369 . S
N426 C427 1.338 . S
N426 Gd431 2.622 . S
C427 N426 1.338 . S
C427 C429 1.378 . S
C427 H439 0.929 . S
C428 C424 1.413 . S
C428 C429 1.348 . S
C428 H444 0.931 . S
C429 C427 1.378 . S
C429 C428 1.348 . S
C429 H445 0.930 . S
Gd430 N450 2.622 . S
Gd430 N457 2.570 . S
Gd430 O464 2.353 . S
Gd430 O465 2.468 . S
Gd430 O466 2.427 . S
Gd430 O468 2.388 . S
Gd430 O469 2.386 . S
Gd430 O473 2.307 . S
Gd430 C483 2.805 . S
Gd431 N426 2.622 . S
Gd431 N432 2.570 . S
Gd431 O463 2.386 . S
Gd431 O467 2.307 . S
Gd431 O470 2.353 . S
Gd431 O471 2.468 . S
Gd431 O472 2.427 . S
Gd431 O474 2.388 . S
Gd431 C495 2.805 . S
N432 C422 1.359 . S
N432 Gd431 2.570 . S
N432 C434 1.343 . S
C433 C421 1.422 . S
C433 C435 1.321 . S
C433 H441 0.931 . S
C434 N432 1.343 . S
C434 C435 1.390 . S
C434 H436 0.931 . S
C435 C433 1.321 . S
C435 C434 1.390 . S
C435 H437 0.930 . S
H436 C434 0.931 . S
H437 C435 0.930 . S
H438 C461 0.931 . S
H439 C427 0.929 . S
H440 C462 0.930 . S
H441 C433 0.931 . S
H442 C423 0.930 . S
H443 C452 0.929 . S
H444 C428 0.931 . S
H445 C429 0.930 . S
H446 C484 0.933 1_565 S
H447 C425 0.929 . S
H448 C453 0.931 . S
H449 C454 0.930 . S
N450 Gd430 2.622 . S
N450 C451 1.369 . S
N450 C452 1.338 . S
C451 N450 1.369 . S
C451 C455 1.415 . S
C451 C458 1.422 . S
C452 H443 0.929 . S
C452 N450 1.338 . S
C452 C454 1.378 . S
C453 H448 0.931 . S
C453 C454 1.348 . S
C453 C455 1.413 . S
C454 H449 0.930 . S
C454 C452 1.378 . S
C454 C453 1.348 . S
C455 C451 1.415 . S
C455 C453 1.413 . S
C455 C485 1.437 . S
H456 C485 0.929 . S
N457 Gd430 2.570 . S
N457 C458 1.359 . S
N457 C461 1.343 . S
C458 C451 1.422 . S
C458 N457 1.359 . S
C458 C460 1.421 . S
C459 C460 1.422 . S
C459 C462 1.321 . S
C459 H486 0.931 . S
C460 C458 1.421 . S
C460 C459 1.422 . S
C460 C484 1.417 . S
C461 H438 0.931 . S
C461 N457 1.343 . S
C461 C462 1.390 . S
C462 H440 0.930 . S
C462 C459 1.321 . S
C462 C461 1.390 . S
O463 Gd431 2.386 . S
O463 C475 1.265 . S
O464 Gd430 2.353 . S
O464 C475 1.242 . S
O465 Gd430 2.468 . S
O465 C483 1.263 . S
O466 Gd430 2.427 . S
O466 C483 1.252 . S
O467 Gd431 2.307 . S
O467 C476 1.261 . S
O468 Gd430 2.388 . S
O468 C476 1.252 . S
O469 Gd430 2.386 . S
O469 C487 1.265 . S
O470 Gd431 2.353 . S
O470 C487 1.242 . S
O471 Gd431 2.468 . S
O471 C495 1.263 . S
O472 Gd431 2.427 . S
O472 C495 1.252 . S
O473 Gd430 2.307 . S
O473 C488 1.261 . S
O474 Gd431 2.388 . S
O474 C488 1.252 . S
C475 O463 1.265 . S
C475 O464 1.242 . S
C476 O467 1.261 . S
C476 O468 1.252 . S
C477 C480 1.394 . S
C477 C482 1.370 . S
C477 C483 1.500 . S
C478 C481 1.383 . S
C478 C482 1.395 . S
C479 C480 1.396 . S
C479 C481 1.365 . S
C479 H496 0.929 . S
C480 C477 1.394 . S
C480 C479 1.396 . S
C480 H497 0.930 . S
C481 C478 1.383 . S
C481 C479 1.365 . S
C481 H498 0.931 . S
C482 C477 1.370 . S
C482 C478 1.395 . S
C482 H499 0.930 . S
C483 Gd430 2.805 . S
C483 O465 1.263 . S
C483 O466 1.252 . S
C483 C477 1.500 . S
C484 H446 0.933 1_545 S
C484 C460 1.417 . S
C484 C485 1.329 . S
C485 C455 1.437 . S
C485 H456 0.929 . S
C485 C484 1.329 . S
H486 C459 0.931 . S
C487 O469 1.265 . S
C487 O470 1.242 . S
C488 O473 1.261 . S
C488 O474 1.252 . S
C489 C492 1.394 . S
C489 C494 1.370 . S
C489 C495 1.500 . S
C490 C493 1.383 . S
C490 C494 1.395 1_455 S
C491 C492 1.396 1_455 S
C491 C493 1.365 . S
C491 H500 0.929 . S
C492 C489 1.394 . S
C492 C491 1.396 1_655 S
C492 H501 0.930 . S
C493 C490 1.383 . S
C493 C491 1.365 . S
C493 H502 0.931 . S
C494 C489 1.370 . S
C494 C490 1.395 1_655 S
C494 H503 0.930 . S
C495 Gd431 2.805 . S
C495 O471 1.263 . S
C495 O472 1.252 . S
C495 C489 1.500 . S
H496 C479 0.929 . S
H497 C480 0.930 . S
H498 C481 0.931 . S
H499 C482 0.930 . S
H500 C491 0.929 . S
H501 C492 0.930 . S
H502 C493 0.931 . S
H503 C494 0.930 . S
C504 C506 1.422 . S
C504 C508 1.415 . S
C504 N510 1.369 . S
C505 C506 1.421 . S
C505 C507 1.417 . S
C505 C517 1.422 . S
C506 C504 1.422 . S
C506 C505 1.421 . S
C506 N516 1.359 . S
C507 C505 1.417 . S
C507 C509 1.329 . S
C507 H526 0.930 . S
C508 C504 1.415 . S
C508 C509 1.437 . S
C508 C512 1.413 . S
C509 C507 1.329 . S
C509 C508 1.437 . S
C509 H531 0.929 . S
N510 C504 1.369 . S
N510 C511 1.338 . S
N510 Gd515 2.622 . S
C511 N510 1.338 . S
C511 C513 1.378 . S
C511 H523 0.929 . S
C512 C508 1.413 . S
C512 C513 1.348 . S
C512 H528 0.931 . S
C513 C511 1.378 . S
C513 C512 1.348 . S
C513 H529 0.930 . S
Gd514 N534 2.622 . S
Gd514 N541 2.570 . S
Gd514 O548 2.353 . S
Gd514 O549 2.468 . S
Gd514 O550 2.427 . S
Gd514 O552 2.388 . S
Gd514 O553 2.386 . S
Gd514 O557 2.307 . S
Gd514 C567 2.805 . S
Gd515 N510 2.622 . S
Gd515 N516 2.570 . S
Gd515 O547 2.386 . S
Gd515 O551 2.307 . S
Gd515 O554 2.353 . S
Gd515 O555 2.468 . S
Gd515 O556 2.427 . S
Gd515 O558 2.388 . S
Gd515 C579 2.805 . S
N516 C506 1.359 . S
N516 Gd515 2.570 . S
N516 C518 1.343 . S
C517 C505 1.422 . S
C517 C519 1.321 . S
C517 H525 0.931 . S
C518 N516 1.343 . S
C518 C519 1.390 . S
C518 H520 0.931 . S
C519 C517 1.321 . S
C519 C518 1.390 . S
C519 H521 0.930 . S
H520 C518 0.931 . S
H521 C519 0.930 . S
H522 C545 0.931 . S
H523 C511 0.929 . S
H524 C546 0.930 . S
H525 C517 0.931 . S
H526 C507 0.930 . S
H527 C536 0.929 . S
H528 C512 0.931 . S
H529 C513 0.930 . S
H530 C568 0.930 . S
H531 C509 0.929 . S
H532 C537 0.931 . S
H533 C538 0.930 . S
N534 Gd514 2.622 . S
N534 C535 1.369 . S
N534 C536 1.338 . S
C535 N534 1.369 . S
C535 C539 1.415 . S
C535 C542 1.422 . S
C536 H527 0.929 . S
C536 N534 1.338 . S
C536 C538 1.378 . S
C537 H532 0.931 . S
C537 C538 1.348 . S
C537 C539 1.413 . S
C538 H533 0.930 . S
C538 C536 1.378 . S
C538 C537 1.348 . S
C539 C535 1.415 . S
C539 C537 1.413 . S
C539 C569 1.437 . S
H540 C569 0.929 . S
N541 Gd514 2.570 . S
N541 C542 1.359 . S
N541 C545 1.343 . S
C542 C535 1.422 . S
C542 N541 1.359 . S
C542 C544 1.421 . S
C543 C544 1.422 . S
C543 C546 1.321 . S
C543 H570 0.931 . S
C544 C542 1.421 . S
C544 C543 1.422 . S
C544 C568 1.417 . S
C545 H522 0.931 . S
C545 N541 1.343 . S
C545 C546 1.390 . S
C546 H524 0.930 . S
C546 C543 1.321 . S
C546 C545 1.390 . S
O547 Gd515 2.386 . S
O547 C559 1.265 . S
O548 Gd514 2.353 . S
O548 C559 1.242 . S
O549 Gd514 2.468 . S
O549 C567 1.263 . S
O550 Gd514 2.427 . S
O550 C567 1.252 . S
O551 Gd515 2.307 . S
O551 C560 1.261 . S
O552 Gd514 2.388 . S
O552 C560 1.252 . S
O553 Gd514 2.386 . S
O553 C571 1.265 . S
O554 Gd515 2.353 . S
O554 C571 1.242 . S
O555 Gd515 2.468 . S
O555 C579 1.263 . S
O556 Gd515 2.427 . S
O556 C579 1.252 . S
O557 Gd514 2.307 . S
O557 C572 1.261 . S
O558 Gd515 2.388 . S
O558 C572 1.252 . S
C559 O547 1.265 . S
C559 O548 1.242 . S
C560 O551 1.261 . S
C560 O552 1.252 . S
C561 C564 1.394 . S
C561 C566 1.370 . S
C561 C567 1.500 . S
C562 C565 1.383 . S
C562 C566 1.395 . S
C563 C564 1.396 . S
C563 C565 1.365 . S
C563 H580 0.929 . S
C564 C561 1.394 . S
C564 C563 1.396 . S
C564 H581 0.930 . S
C565 C562 1.383 . S
C565 C563 1.365 . S
C565 H582 0.931 . S
C566 C561 1.370 . S
C566 C562 1.395 . S
C566 H583 0.930 . S
C567 Gd514 2.805 . S
C567 O549 1.263 . S
C567 O550 1.252 . S
C567 C561 1.500 . S
C568 H530 0.930 . S
C568 C544 1.417 . S
C568 C569 1.329 . S
C569 C539 1.437 . S
C569 H540 0.929 . S
C569 C568 1.329 . S
H570 C543 0.931 . S
C571 O553 1.265 . S
C571 O554 1.242 . S
C572 O557 1.261 . S
C572 O558 1.252 . S
C573 C576 1.394 . S
C573 C578 1.370 . S
C573 C579 1.500 . S
C574 C577 1.383 . S
C574 C578 1.395 1_655 S
C575 C576 1.396 1_655 S
C575 C577 1.365 . S
C575 H584 0.929 . S
C576 C573 1.394 . S
C576 C575 1.396 1_455 S
C576 H585 0.930 . S
C577 C574 1.383 . S
C577 C575 1.365 . S
C577 H586 0.931 . S
C578 C573 1.370 . S
C578 C574 1.395 1_455 S
C578 H587 0.930 . S
C579 Gd515 2.805 . S
C579 O555 1.263 . S
C579 O556 1.252 . S
C579 C573 1.500 . S
H580 C563 0.929 . S
H581 C564 0.930 . S
H582 C565 0.931 . S
H583 C566 0.930 . S
H584 C575 0.929 . S
H585 C576 0.930 . S
H586 C577 0.931 . S
H587 C578 0.930 . S
C588 C590 1.422 . S
C588 C592 1.415 . S
C588 N594 1.369 . S
C589 C590 1.421 . S
C589 C591 1.417 . S
C589 C601 1.422 . S
C590 C588 1.422 . S
C590 C589 1.421 . S
C590 N600 1.359 . S
C591 C589 1.417 . S
C591 C593 1.329 . S
C591 H610 0.933 1_455 S
C592 C588 1.415 . S
C592 C593 1.437 . S
C592 C596 1.413 . S
C593 C591 1.329 . S
C593 C592 1.437 . S
C593 H615 0.929 . S
N594 C588 1.369 . S
N594 C595 1.338 . S
N594 Gd599 2.622 . S
C595 N594 1.338 . S
C595 C597 1.378 . S
C595 H607 0.929 . S
C596 C592 1.413 . S
C596 C597 1.348 . S
C596 H612 0.931 . S
C597 C595 1.378 . S
C597 C596 1.348 . S
C597 H613 0.930 . S
Gd598 N618 2.622 . S
Gd598 N625 2.570 . S
Gd598 O632 2.353 . S
Gd598 O633 2.468 . S
Gd598 O634 2.427 . S
Gd598 O636 2.388 . S
Gd598 O637 2.386 . S
Gd598 O641 2.307 . S
Gd598 C651 2.805 . S
Gd599 N594 2.622 . S
Gd599 N600 2.570 . S
Gd599 O631 2.386 . S
Gd599 O635 2.307 . S
Gd599 O638 2.353 . S
Gd599 O639 2.468 . S
Gd599 O640 2.427 . S
Gd599 O642 2.388 . S
Gd599 C663 2.805 . S
N600 C590 1.359 . S
N600 Gd599 2.570 . S
N600 C602 1.343 . S
C601 C589 1.422 . S
C601 C603 1.321 . S
C601 H609 0.931 . S
C602 N600 1.343 . S
C602 C603 1.390 . S
C602 H604 0.931 . S
C603 C601 1.321 . S
C603 C602 1.390 . S
C603 H605 0.930 . S
H604 C602 0.931 . S
H605 C603 0.930 . S
H606 C629 0.931 . S
H607 C595 0.929 . S
H608 C630 0.930 . S
H609 C601 0.931 . S
H610 C591 0.933 1_655 S
H611 C620 0.929 . S
H612 C596 0.931 . S
H613 C597 0.930 . S
H614 C652 0.930 . S
H615 C593 0.929 . S
H616 C621 0.931 . S
H617 C622 0.930 . S
N618 Gd598 2.622 . S
N618 C619 1.369 . S
N618 C620 1.338 . S
C619 N618 1.369 . S
C619 C623 1.415 . S
C619 C626 1.422 . S
C620 H611 0.929 . S
C620 N618 1.338 . S
C620 C622 1.378 . S
C621 H616 0.931 . S
C621 C622 1.348 . S
C621 C623 1.413 . S
C622 H617 0.930 . S
C622 C620 1.378 . S
C622 C621 1.348 . S
C623 C619 1.415 . S
C623 C621 1.413 . S
C623 C653 1.437 . S
H624 C653 0.929 . S
N625 Gd598 2.570 . S
N625 C626 1.359 . S
N625 C629 1.343 . S
C626 C619 1.422 . S
C626 N625 1.359 . S
C626 C628 1.421 . S
C627 C628 1.422 . S
C627 C630 1.321 . S
C627 H654 0.931 . S
C628 C626 1.421 . S
C628 C627 1.422 . S
C628 C652 1.417 . S
C629 H606 0.931 . S
C629 N625 1.343 . S
C629 C630 1.390 . S
C630 H608 0.930 . S
C630 C627 1.321 . S
C630 C629 1.390 . S
O631 Gd599 2.386 . S
O631 C643 1.265 . S
O632 Gd598 2.353 . S
O632 C643 1.242 . S
O633 Gd598 2.468 . S
O633 C651 1.263 . S
O634 Gd598 2.427 . S
O634 C651 1.252 . S
O635 Gd599 2.307 . S
O635 C644 1.261 . S
O636 Gd598 2.388 . S
O636 C644 1.252 . S
O637 Gd598 2.386 . S
O637 C655 1.265 . S
O638 Gd599 2.353 . S
O638 C655 1.242 . S
O639 Gd599 2.468 . S
O639 C663 1.263 . S
O640 Gd599 2.427 . S
O640 C663 1.252 . S
O641 Gd598 2.307 . S
O641 C656 1.261 . S
O642 Gd599 2.388 . S
O642 C656 1.252 . S
C643 O631 1.265 . S
C643 O632 1.242 . S
C644 O635 1.261 . S
C644 O636 1.252 . S
C645 C648 1.394 . S
C645 C650 1.370 . S
C645 C651 1.500 . S
C646 C649 1.383 . S
C646 C650 1.395 1_545 S
C647 C648 1.396 1_545 S
C647 C649 1.365 . S
C647 H664 0.929 . S
C648 C645 1.394 . S
C648 C647 1.396 1_565 S
C648 H665 0.930 . S
C649 C646 1.383 . S
C649 C647 1.365 . S
C649 H666 0.931 . S
C650 C645 1.370 . S
C650 C646 1.395 1_565 S
C650 H667 0.930 . S
C651 Gd598 2.805 . S
C651 O633 1.263 . S
C651 O634 1.252 . S
C651 C645 1.500 . S
C652 H614 0.930 . S
C652 C628 1.417 . S
C652 C653 1.329 . S
C653 C623 1.437 . S
C653 H624 0.929 . S
C653 C652 1.329 . S
H654 C627 0.931 . S
C655 O637 1.265 . S
C655 O638 1.242 . S
C656 O641 1.261 . S
C656 O642 1.252 . S
C657 C660 1.394 . S
C657 C662 1.370 . S
C657 C663 1.500 . S
C658 C661 1.383 . S
C658 C662 1.395 . S
C659 C660 1.396 . S
C659 C661 1.365 . S
C659 H668 0.929 . S
C660 C657 1.394 . S
C660 C659 1.396 . S
C660 H669 0.930 . S
C661 C658 1.383 . S
C661 C659 1.365 . S
C661 H670 0.931 . S
C662 C657 1.370 . S
C662 C658 1.395 . S
C662 H671 0.930 . S
C663 Gd599 2.805 . S
C663 O639 1.263 . S
C663 O640 1.252 . S
C663 C657 1.500 . S
H664 C647 0.929 . S
H665 C648 0.930 . S
H666 C649 0.931 . S
H667 C650 0.930 . S
H668 C659 0.929 . S
H669 C660 0.930 . S
H670 C661 0.931 . S
H671 C662 0.930 . S
C672 C674 1.422 . S
C672 C676 1.415 . S
C672 N678 1.369 . S
C673 C674 1.421 . S
C673 C675 1.417 . S
C673 C685 1.422 . S
C674 C672 1.422 . S
C674 C673 1.421 . S
C674 N684 1.359 . S
C675 C673 1.417 . S
C675 C677 1.329 . S
C675 H694 0.930 . S
C676 C672 1.415 . S
C676 C677 1.437 . S
C676 C680 1.413 . S
C677 C675 1.329 . S
C677 C676 1.437 . S
C677 H699 0.929 . S
N678 C672 1.369 . S
N678 C679 1.338 . S
N678 Gd683 2.622 . S
C679 N678 1.338 . S
C679 C681 1.378 . S
C679 H691 0.929 . S
C680 C676 1.413 . S
C680 C681 1.348 . S
C680 H696 0.931 . S
C681 C679 1.378 . S
C681 C680 1.348 . S
C681 H697 0.930 . S
Gd682 N702 2.622 . S
Gd682 N709 2.570 . S
Gd682 O716 2.353 . S
Gd682 O717 2.468 . S
Gd682 O718 2.427 . S
Gd682 O720 2.388 . S
Gd682 O721 2.386 . S
Gd682 O725 2.307 . S
Gd682 C735 2.805 . S
Gd683 N678 2.622 . S
Gd683 N684 2.570 . S
Gd683 O715 2.386 . S
Gd683 O719 2.307 . S
Gd683 O722 2.353 . S
Gd683 O723 2.468 . S
Gd683 O724 2.427 . S
Gd683 O726 2.388 . S
Gd683 C747 2.805 . S
N684 C674 1.359 . S
N684 Gd683 2.570 . S
N684 C686 1.343 . S
C685 C673 1.422 . S
C685 C687 1.321 . S
C685 H693 0.931 . S
C686 N684 1.343 . S
C686 C687 1.390 . S
C686 H688 0.931 . S
C687 C685 1.321 . S
C687 C686 1.390 . S
C687 H689 0.930 . S
H688 C686 0.931 . S
H689 C687 0.930 . S
H690 C713 0.931 . S
H691 C679 0.929 . S
H692 C714 0.930 . S
H693 C685 0.931 . S
H694 C675 0.930 . S
H695 C704 0.929 . S
H696 C680 0.931 . S
H697 C681 0.930 . S
H698 C736 0.934 1_545 S
H699 C677 0.929 . S
H700 C705 0.931 . S
H701 C706 0.930 . S
N702 Gd682 2.622 . S
N702 C703 1.369 . S
N702 C704 1.338 . S
C703 N702 1.369 . S
C703 C707 1.415 . S
C703 C710 1.422 . S
C704 H695 0.929 . S
C704 N702 1.338 . S
C704 C706 1.378 . S
C705 H700 0.931 . S
C705 C706 1.348 . S
C705 C707 1.413 . S
C706 H701 0.930 . S
C706 C704 1.378 . S
C706 C705 1.348 . S
C707 C703 1.415 . S
C707 C705 1.413 . S
C707 C737 1.437 . S
H708 C737 0.929 . S
N709 Gd682 2.570 . S
N709 C710 1.359 . S
N709 C713 1.343 . S
C710 C703 1.422 . S
C710 N709 1.359 . S
C710 C712 1.421 . S
C711 C712 1.422 . S
C711 C714 1.321 . S
C711 H738 0.931 . S
C712 C710 1.421 . S
C712 C711 1.422 . S
C712 C736 1.417 . S
C713 H690 0.931 . S
C713 N709 1.343 . S
C713 C714 1.390 . S
C714 H692 0.930 . S
C714 C711 1.321 . S
C714 C713 1.390 . S
O715 Gd683 2.386 . S
O715 C727 1.265 . S
O716 Gd682 2.353 . S
O716 C727 1.242 . S
O717 Gd682 2.468 . S
O717 C735 1.263 . S
O718 Gd682 2.427 . S
O718 C735 1.252 . S
O719 Gd683 2.307 . S
O719 C728 1.261 . S
O720 Gd682 2.388 . S
O720 C728 1.252 . S
O721 Gd682 2.386 . S
O721 C739 1.265 . S
O722 Gd683 2.353 . S
O722 C739 1.242 . S
O723 Gd683 2.468 . S
O723 C747 1.263 . S
O724 Gd683 2.427 . S
O724 C747 1.252 . S
O725 Gd682 2.307 . S
O725 C740 1.261 . S
O726 Gd683 2.388 . S
O726 C740 1.252 . S
C727 O715 1.265 . S
C727 O716 1.242 . S
C728 O719 1.261 . S
C728 O720 1.252 . S
C729 C732 1.394 . S
C729 C734 1.370 . S
C729 C735 1.500 . S
C730 C733 1.383 . S
C730 C734 1.395 . S
C731 C732 1.396 . S
C731 C733 1.365 . S
C731 H748 0.929 . S
C732 C729 1.394 . S
C732 C731 1.396 . S
C732 H749 0.930 . S
C733 C730 1.383 . S
C733 C731 1.365 . S
C733 H750 0.931 . S
C734 C729 1.370 . S
C734 C730 1.395 . S
C734 H751 0.930 . S
C735 Gd682 2.805 . S
C735 O717 1.263 . S
C735 O718 1.252 . S
C735 C729 1.500 . S
C736 H698 0.934 1_565 S
C736 C712 1.417 . S
C736 C737 1.329 . S
C737 C707 1.437 . S
C737 H708 0.929 . S
C737 C736 1.329 . S
H738 C711 0.931 . S
C739 O721 1.265 . S
C739 O722 1.242 . S
C740 O725 1.261 . S
C740 O726 1.252 . S
C741 C744 1.394 . S
C741 C746 1.370 . S
C741 C747 1.500 . S
C742 C745 1.383 . S
C742 C746 1.395 . S
C743 C744 1.396 . S
C743 C745 1.365 . S
C743 H752 0.929 . S
C744 C741 1.394 . S
C744 C743 1.396 . S
C744 H753 0.930 . S
C745 C742 1.383 . S
C745 C743 1.365 . S
C745 H754 0.931 . S
C746 C741 1.370 . S
C746 C742 1.395 . S
C746 H755 0.930 . S
C747 Gd683 2.805 . S
C747 O723 1.263 . S
C747 O724 1.252 . S
C747 C741 1.500 . S
H748 C731 0.929 . S
H749 C732 0.930 . S
H750 C733 0.931 . S
H751 C734 0.930 . S
H752 C743 0.929 . S
H753 C744 0.930 . S
H754 C745 0.931 . S
H755 C746 0.930 . S
C756 C758 1.422 . S
C756 C760 1.415 . S
C756 N762 1.369 . S
C757 C758 1.421 . S
C757 C759 1.417 . S
C757 C769 1.422 . S
C758 C756 1.422 . S
C758 C757 1.421 . S
C758 N768 1.359 . S
C759 C757 1.417 . S
C759 C761 1.329 . S
C759 H778 0.930 . S
C760 C756 1.415 . S
C760 C761 1.437 . S
C760 C764 1.413 . S
C761 C759 1.329 . S
C761 C760 1.437 . S
C761 H783 0.929 . S
N762 C756 1.369 . S
N762 C763 1.338 . S
N762 Gd767 2.622 . S
C763 N762 1.338 . S
C763 C765 1.378 . S
C763 H775 0.929 . S
C764 C760 1.413 . S
C764 C765 1.348 . S
C764 H780 0.931 . S
C765 C763 1.378 . S
C765 C764 1.348 . S
C765 H781 0.930 . S
Gd766 N786 2.622 . S
Gd766 N793 2.570 . S
Gd766 O800 2.353 . S
Gd766 O801 2.468 . S
Gd766 O802 2.427 . S
Gd766 O804 2.388 . S
Gd766 O805 2.386 . S
Gd766 O809 2.307 . S
Gd766 C819 2.805 . S
Gd767 N762 2.622 . S
Gd767 N768 2.570 . S
Gd767 O799 2.386 . S
Gd767 O803 2.307 . S
Gd767 O806 2.353 . S
Gd767 O807 2.468 . S
Gd767 O808 2.427 . S
Gd767 O810 2.388 . S
Gd767 C831 2.805 . S
N768 C758 1.359 . S
N768 Gd767 2.570 . S
N768 C770 1.343 . S
C769 C757 1.422 . S
C769 C771 1.321 . S
C769 H777 0.931 . S
C770 N768 1.343 . S
C770 C771 1.390 . S
C770 H772 0.931 . S
C771 C769 1.321 . S
C771 C770 1.390 . S
C771 H773 0.930 . S
H772 C770 0.931 . S
H773 C771 0.930 . S
H774 C797 0.931 . S
H775 C763 0.929 . S
H776 C798 0.930 . S
H777 C769 0.931 . S
H778 C759 0.930 . S
H779 C788 0.929 . S
H780 C764 0.931 . S
H781 C765 0.930 . S
H782 C820 0.930 . S
H783 C761 0.929 . S
H784 C789 0.931 . S
H785 C790 0.930 . S
N786 Gd766 2.622 . S
N786 C787 1.369 . S
N786 C788 1.338 . S
C787 N786 1.369 . S
C787 C791 1.415 . S
C787 C794 1.422 . S
C788 H779 0.929 . S
C788 N786 1.338 . S
C788 C790 1.378 . S
C789 H784 0.931 . S
C789 C790 1.348 . S
C789 C791 1.413 . S
C790 H785 0.930 . S
C790 C788 1.378 . S
C790 C789 1.348 . S
C791 C787 1.415 . S
C791 C789 1.413 . S
C791 C821 1.437 . S
H792 C821 0.929 . S
N793 Gd766 2.570 . S
N793 C794 1.359 . S
N793 C797 1.343 . S
C794 C787 1.422 . S
C794 N793 1.359 . S
C794 C796 1.421 . S
C795 C796 1.422 . S
C795 C798 1.321 . S
C795 H822 0.931 . S
C796 C794 1.421 . S
C796 C795 1.422 . S
C796 C820 1.417 . S
C797 H774 0.931 . S
C797 N793 1.343 . S
C797 C798 1.390 . S
C798 H776 0.930 . S
C798 C795 1.321 . S
C798 C797 1.390 . S
O799 Gd767 2.386 . S
O799 C811 1.265 . S
O800 Gd766 2.353 . S
O800 C811 1.242 . S
O801 Gd766 2.468 . S
O801 C819 1.263 . S
O802 Gd766 2.427 . S
O802 C819 1.252 . S
O803 Gd767 2.307 . S
O803 C812 1.261 . S
O804 Gd766 2.388 . S
O804 C812 1.252 . S
O805 Gd766 2.386 . S
O805 C823 1.265 . S
O806 Gd767 2.353 . S
O806 C823 1.242 . S
O807 Gd767 2.468 . S
O807 C831 1.263 . S
O808 Gd767 2.427 . S
O808 C831 1.252 . S
O809 Gd766 2.307 . S
O809 C824 1.261 . S
O810 Gd767 2.388 . S
O810 C824 1.252 . S
C811 O799 1.265 . S
C811 O800 1.242 . S
C812 O803 1.261 . S
C812 O804 1.252 . S
C813 C816 1.394 . S
C813 C818 1.370 . S
C813 C819 1.500 . S
C814 C817 1.383 . S
C814 C818 1.395 1_655 S
C815 C816 1.396 1_655 S
C815 C817 1.365 . S
C815 H832 0.929 . S
C816 C813 1.394 . S
C816 C815 1.396 1_455 S
C816 H833 0.930 . S
C817 C814 1.383 . S
C817 C815 1.365 . S
C817 H834 0.931 . S
C818 C813 1.370 . S
C818 C814 1.395 1_455 S
C818 H835 0.930 . S
C819 Gd766 2.805 . S
C819 O801 1.263 . S
C819 O802 1.252 . S
C819 C813 1.500 . S
C820 H782 0.930 . S
C820 C796 1.417 . S
C820 C821 1.329 . S
C821 C791 1.437 . S
C821 H792 0.929 . S
C821 C820 1.329 . S
H822 C795 0.931 . S
C823 O805 1.265 . S
C823 O806 1.242 . S
C824 O809 1.261 . S
C824 O810 1.252 . S
C825 C828 1.394 . S
C825 C830 1.370 . S
C825 C831 1.500 . S
C826 C829 1.383 . S
C826 C830 1.395 . S
C827 C828 1.396 . S
C827 C829 1.365 . S
C827 H836 0.929 . S
C828 C825 1.394 . S
C828 C827 1.396 . S
C828 H837 0.930 . S
C829 C826 1.383 . S
C829 C827 1.365 . S
C829 H838 0.931 . S
C830 C825 1.370 . S
C830 C826 1.395 . S
C830 H839 0.930 . S
C831 Gd767 2.805 . S
C831 O807 1.263 . S
C831 O808 1.252 . S
C831 C825 1.500 . S
H832 C815 0.929 . S
H833 C816 0.930 . S
H834 C817 0.931 . S
H835 C818 0.930 . S
H836 C827 0.929 . S
H837 C828 0.930 . S
H838 C829 0.931 . S
H839 C830 0.930 . S
C840 C842 1.422 . S
C840 C844 1.415 . S
C840 N846 1.369 . S
C841 C842 1.421 . S
C841 C843 1.417 . S
C841 C853 1.422 . S
C842 C840 1.422 . S
C842 C841 1.421 . S
C842 N852 1.359 . S
C843 C841 1.417 . S
C843 C845 1.329 . S
C843 H862 0.930 . S
C844 C840 1.415 . S
C844 C845 1.437 . S
C844 C848 1.413 . S
C845 C843 1.329 . S
C845 C844 1.437 . S
C845 H867 0.929 . S
N846 C840 1.369 . S
N846 C847 1.338 . S
N846 Gd851 2.622 . S
C847 N846 1.338 . S
C847 C849 1.378 . S
C847 H859 0.929 . S
C848 C844 1.413 . S
C848 C849 1.348 . S
C848 H864 0.931 . S
C849 C847 1.378 . S
C849 C848 1.348 . S
C849 H865 0.930 . S
Gd850 N870 2.622 . S
Gd850 N877 2.570 . S
Gd850 O884 2.353 . S
Gd850 O885 2.468 . S
Gd850 O886 2.427 . S
Gd850 O888 2.388 . S
Gd850 O889 2.386 . S
Gd850 O893 2.307 . S
Gd850 C903 2.805 . S
Gd851 N846 2.622 . S
Gd851 N852 2.570 . S
Gd851 O883 2.386 . S
Gd851 O887 2.307 . S
Gd851 O890 2.353 . S
Gd851 O891 2.468 . S
Gd851 O892 2.427 . S
Gd851 O894 2.388 . S
Gd851 C915 2.805 . S
N852 C842 1.359 . S
N852 Gd851 2.570 . S
N852 C854 1.343 . S
C853 C841 1.422 . S
C853 C855 1.321 . S
C853 H861 0.931 . S
C854 N852 1.343 . S
C854 C855 1.390 . S
C854 H856 0.931 . S
C855 C853 1.321 . S
C855 C854 1.390 . S
C855 H857 0.930 . S
H856 C854 0.931 . S
H857 C855 0.930 . S
H858 C881 0.931 . S
H859 C847 0.929 . S
H860 C882 0.930 . S
H861 C853 0.931 . S
H862 C843 0.930 . S
H863 C872 0.929 . S
H864 C848 0.931 . S
H865 C849 0.930 . S
H866 C904 0.933 1_655 S
H867 C845 0.929 . S
H868 C873 0.931 . S
H869 C874 0.930 . S
N870 Gd850 2.622 . S
N870 C871 1.369 . S
N870 C872 1.338 . S
C871 N870 1.369 . S
C871 C875 1.415 . S
C871 C878 1.422 . S
C872 H863 0.929 . S
C872 N870 1.338 . S
C872 C874 1.378 . S
C873 H868 0.931 . S
C873 C874 1.348 . S
C873 C875 1.413 . S
C874 H869 0.930 . S
C874 C872 1.378 . S
C874 C873 1.348 . S
C875 C871 1.415 . S
C875 C873 1.413 . S
C875 C905 1.437 . S
H876 C905 0.929 . S
N877 Gd850 2.570 . S
N877 C878 1.359 . S
N877 C881 1.343 . S
C878 C871 1.422 . S
C878 N877 1.359 . S
C878 C880 1.421 . S
C879 C880 1.422 . S
C879 C882 1.321 . S
C879 H906 0.931 . S
C880 C878 1.421 . S
C880 C879 1.422 . S
C880 C904 1.417 . S
C881 H858 0.931 . S
C881 N877 1.343 . S
C881 C882 1.390 . S
C882 H860 0.930 . S
C882 C879 1.321 . S
C882 C881 1.390 . S
O883 Gd851 2.386 . S
O883 C895 1.265 . S
O884 Gd850 2.353 . S
O884 C895 1.242 . S
O885 Gd850 2.468 . S
O885 C903 1.263 . S
O886 Gd850 2.427 . S
O886 C903 1.252 . S
O887 Gd851 2.307 . S
O887 C896 1.261 . S
O888 Gd850 2.388 . S
O888 C896 1.252 . S
O889 Gd850 2.386 . S
O889 C907 1.265 . S
O890 Gd851 2.353 . S
O890 C907 1.242 . S
O891 Gd851 2.468 . S
O891 C915 1.263 . S
O892 Gd851 2.427 . S
O892 C915 1.252 . S
O893 Gd850 2.307 . S
O893 C908 1.261 . S
O894 Gd851 2.388 . S
O894 C908 1.252 . S
C895 O883 1.265 . S
C895 O884 1.242 . S
C896 O887 1.261 . S
C896 O888 1.252 . S
C897 C900 1.394 . S
C897 C902 1.370 . S
C897 C903 1.500 . S
C898 C901 1.383 . S
C898 C902 1.395 . S
C899 C900 1.396 . S
C899 C901 1.365 . S
C899 H916 0.929 . S
C900 C897 1.394 . S
C900 C899 1.396 . S
C900 H917 0.930 . S
C901 C898 1.383 . S
C901 C899 1.365 . S
C901 H918 0.931 . S
C902 C897 1.370 . S
C902 C898 1.395 . S
C902 H919 0.930 . S
C903 Gd850 2.805 . S
C903 O885 1.263 . S
C903 O886 1.252 . S
C903 C897 1.500 . S
C904 H866 0.933 1_455 S
C904 C880 1.417 . S
C904 C905 1.329 . S
C905 C875 1.437 . S
C905 H876 0.929 . S
C905 C904 1.329 . S
H906 C879 0.931 . S
C907 O889 1.265 . S
C907 O890 1.242 . S
C908 O893 1.261 . S
C908 O894 1.252 . S
C909 C912 1.394 . S
C909 C914 1.370 . S
C909 C915 1.500 . S
C910 C913 1.383 . S
C910 C914 1.395 1_545 S
C911 C912 1.396 1_545 S
C911 C913 1.365 . S
C911 H920 0.929 . S
C912 C909 1.394 . S
C912 C911 1.396 1_565 S
C912 H921 0.930 . S
C913 C910 1.383 . S
C913 C911 1.365 . S
C913 H922 0.931 . S
C914 C909 1.370 . S
C914 C910 1.395 1_565 S
C914 H923 0.930 . S
C915 Gd851 2.805 . S
C915 O891 1.263 . S
C915 O892 1.252 . S
C915 C909 1.500 . S
H916 C899 0.929 . S
H917 C900 0.930 . S
H918 C901 0.931 . S
H919 C902 0.930 . S
H920 C911 0.929 . S
H921 C912 0.930 . S
H922 C913 0.931 . S
H923 C914 0.930 . S
C924 C926 1.422 . S
C924 C928 1.415 . S
C924 N930 1.369 . S
C925 C926 1.421 . S
C925 C927 1.417 . S
C925 C937 1.422 . S
C926 C924 1.422 . S
C926 C925 1.421 . S
C926 N936 1.359 . S
C927 C925 1.417 . S
C927 C929 1.329 . S
C927 H946 0.934 1_565 S
C928 C924 1.415 . S
C928 C929 1.437 . S
C928 C932 1.413 . S
C929 C927 1.329 . S
C929 C928 1.437 . S
C929 H951 0.929 . S
N930 C924 1.369 . S
N930 C931 1.338 . S
N930 Gd935 2.622 . S
C931 N930 1.338 . S
C931 C933 1.378 . S
C931 H943 0.929 . S
C932 C928 1.413 . S
C932 C933 1.348 . S
C932 H948 0.931 . S
C933 C931 1.378 . S
C933 C932 1.348 . S
C933 H949 0.930 . S
Gd934 N954 2.622 . S
Gd934 N961 2.570 . S
Gd934 O968 2.353 . S
Gd934 O969 2.468 . S
Gd934 O970 2.427 . S
Gd934 O972 2.388 . S
Gd934 O973 2.386 . S
Gd934 O977 2.307 . S
Gd934 C987 2.805 . S
Gd935 N930 2.622 . S
Gd935 N936 2.570 . S
Gd935 O967 2.386 . S
Gd935 O971 2.307 . S
Gd935 O974 2.353 . S
Gd935 O975 2.468 . S
Gd935 O976 2.427 . S
Gd935 O978 2.388 . S
Gd935 C999 2.805 . S
N936 C926 1.359 . S
N936 Gd935 2.570 . S
N936 C938 1.343 . S
C937 C925 1.422 . S
C937 C939 1.321 . S
C937 H945 0.931 . S
C938 N936 1.343 . S
C938 C939 1.390 . S
C938 H940 0.931 . S
C939 C937 1.321 . S
C939 C938 1.390 . S
C939 H941 0.930 . S
H940 C938 0.931 . S
H941 C939 0.930 . S
H942 C965 0.931 . S
H943 C931 0.929 . S
H944 C966 0.930 . S
H945 C937 0.931 . S
H946 C927 0.934 1_545 S
H947 C956 0.929 . S
H948 C932 0.931 . S
H949 C933 0.930 . S
H950 C988 0.930 . S
H951 C929 0.929 . S
H952 C957 0.931 . S
H953 C958 0.930 . S
N954 Gd934 2.622 . S
N954 C955 1.369 . S
N954 C956 1.338 . S
C955 N954 1.369 . S
C955 C959 1.415 . S
C955 C962 1.422 . S
C956 H947 0.929 . S
C956 N954 1.338 . S
C956 C958 1.378 . S
C957 H952 0.931 . S
C957 C958 1.348 . S
C957 C959 1.413 . S
C958 H953 0.930 . S
C958 C956 1.378 . S
C958 C957 1.348 . S
C959 C955 1.415 . S
C959 C957 1.413 . S
C959 C989 1.437 . S
H960 C989 0.929 . S
N961 Gd934 2.570 . S
N961 C962 1.359 . S
N961 C965 1.343 . S
C962 C955 1.422 . S
C962 N961 1.359 . S
C962 C964 1.421 . S
C963 C964 1.422 . S
C963 C966 1.321 . S
C963 H990 0.931 . S
C964 C962 1.421 . S
C964 C963 1.422 . S
C964 C988 1.417 . S
C965 H942 0.931 . S
C965 N961 1.343 . S
C965 C966 1.390 . S
C966 H944 0.930 . S
C966 C963 1.321 . S
C966 C965 1.390 . S
O967 Gd935 2.386 . S
O967 C979 1.265 . S
O968 Gd934 2.353 . S
O968 C979 1.242 . S
O969 Gd934 2.468 . S
O969 C987 1.263 . S
O970 Gd934 2.427 . S
O970 C987 1.252 . S
O971 Gd935 2.307 . S
O971 C980 1.261 . S
O972 Gd934 2.388 . S
O972 C980 1.252 . S
O973 Gd934 2.386 . S
O973 C991 1.265 . S
O974 Gd935 2.353 . S
O974 C991 1.242 . S
O975 Gd935 2.468 . S
O975 C999 1.263 . S
O976 Gd935 2.427 . S
O976 C999 1.252 . S
O977 Gd934 2.307 . S
O977 C992 1.261 . S
O978 Gd935 2.388 . S
O978 C992 1.252 . S
C979 O967 1.265 . S
C979 O968 1.242 . S
C980 O971 1.261 . S
C980 O972 1.252 . S
C981 C984 1.394 . S
C981 C986 1.370 . S
C981 C987 1.500 . S
C982 C985 1.383 . S
C982 C986 1.395 . S
C983 C984 1.396 . S
C983 C985 1.365 . S
C983 H1000 0.929 . S
C984 C981 1.394 . S
C984 C983 1.396 . S
C984 H1001 0.930 . S
C985 C982 1.383 . S
C985 C983 1.365 . S
C985 H1002 0.931 . S
C986 C981 1.370 . S
C986 C982 1.395 . S
C986 H1003 0.930 . S
C987 Gd934 2.805 . S
C987 O969 1.263 . S
C987 O970 1.252 . S
C987 C981 1.500 . S
C988 H950 0.930 . S
C988 C964 1.417 . S
C988 C989 1.329 . S
C989 C959 1.437 . S
C989 H960 0.929 . S
C989 C988 1.329 . S
H990 C963 0.931 . S
C991 O973 1.265 . S
C991 O974 1.242 . S
C992 O977 1.261 . S
C992 O978 1.252 . S
C993 C996 1.394 . S
C993 C998 1.370 . S
C993 C999 1.500 . S
C994 C997 1.383 . S
C994 C998 1.395 . S
C995 C996 1.396 . S
C995 C997 1.365 . S
C995 H1004 0.929 . S
C996 C993 1.394 . S
C996 C995 1.396 . S
C996 H1005 0.930 . S
C997 C994 1.383 . S
C997 C995 1.365 . S
C997 H1006 0.931 . S
C998 C993 1.370 . S
C998 C994 1.395 . S
C998 H1007 0.930 . S
C999 Gd935 2.805 . S
C999 O975 1.263 . S
C999 O976 1.252 . S
C999 C993 1.500 . S
H1000 C983 0.929 . S
H1001 C984 0.930 . S
H1002 C985 0.931 . S
H1003 C986 0.930 . S
H1004 C995 0.929 . S
H1005 C996 0.930 . S
H1006 C997 0.931 . S
H1007 C998 0.930 . S
H1008 C1016 0.929 . S
H1009 C1018 0.930 . S
H1010 C1020 0.930 . S
H1011 C1023 0.929 . S
H1012 C1026 0.930 . S
H1013 C1028 0.960 . S
H1014 C1028 0.960 . S
H1015 C1028 0.960 . S
C1016 H1008 0.929 . S
C1016 C1017 1.377 . S
C1016 C1018 1.384 . S
C1017 C1016 1.377 . S
C1017 C1023 1.390 . S
C1018 H1009 0.930 . S
C1018 C1016 1.384 . S
C1018 C1019 1.372 . S
C1019 C1018 1.372 . S
C1019 C1020 1.400 . S
C1019 C1024 1.490 . S
C1020 H1010 0.930 . S
C1020 C1019 1.400 . S
C1020 C1023 1.386 . S
H1021 C1037 0.930 . S
H1022 C1038 0.931 . S
C1023 H1011 0.929 . S
C1023 C1017 1.390 . S
C1023 C1020 1.386 . S
C1024 C1019 1.490 . S
C1024 C1026 1.395 . S
C1024 C1027 1.403 . S
H1025 C1031 0.930 . S
C1026 H1012 0.930 . S
C1026 C1024 1.395 . S
C1026 C1029 1.403 . S
C1027 C1024 1.403 . S
C1027 C1028 1.524 . S
C1027 C1031 1.400 . S
C1028 H1013 0.960 . S
C1028 H1014 0.960 . S
C1028 H1015 0.960 . S
C1028 C1027 1.524 . S
C1029 C1026 1.403 . S
C1029 C1030 1.392 . S
C1029 C1033 1.495 . S
C1030 C1029 1.392 . S
C1030 C1031 1.385 . S
C1030 C1032 1.478 . S
C1031 H1025 0.930 . S
C1031 C1027 1.400 . S
C1031 C1030 1.385 . S
C1032 C1030 1.478 . S
C1032 C1034 1.381 . S
C1032 C1038 1.383 . S
C1033 C1029 1.495 . S
C1033 H1039 0.959 . S
C1033 H1040 0.961 . S
C1033 H1041 0.960 . S
C1034 C1032 1.381 . S
C1034 C1035 1.394 . S
C1034 H1042 0.930 . S
C1035 C1034 1.394 . S
C1035 C1036 1.383 . S
C1035 H1043 0.929 . S
C1036 C1035 1.383 . S
C1036 C1037 1.377 . S
C1037 H1021 0.930 . S
C1037 C1036 1.377 . S
C1037 C1038 1.379 . S
C1038 H1022 0.931 . S
C1038 C1032 1.383 . S
C1038 C1037 1.379 . S
H1039 C1033 0.959 . S
H1040 C1033 0.961 . S
H1041 C1033 0.960 . S
H1042 C1034 0.930 . S
H1043 C1035 0.929 . S
H1044 C1052 0.929 . S
H1045 C1054 0.930 . S
H1046 C1056 0.930 . S
H1047 C1059 0.929 . S
H1048 C1062 0.930 . S
H1049 C1064 0.960 . S
H1050 C1064 0.960 . S
H1051 C1064 0.960 . S
C1052 H1044 0.929 . S
C1052 C1053 1.377 . S
C1052 C1054 1.384 . S
C1053 C1052 1.377 . S
C1053 C1059 1.390 . S
C1054 H1045 0.930 . S
C1054 C1052 1.384 . S
C1054 C1055 1.372 . S
C1055 C1054 1.372 . S
C1055 C1056 1.400 . S
C1055 C1060 1.490 . S
C1056 H1046 0.930 . S
C1056 C1055 1.400 . S
C1056 C1059 1.386 . S
H1057 C1073 0.930 . S
H1058 C1074 0.931 . S
C1059 H1047 0.929 . S
C1059 C1053 1.390 . S
C1059 C1056 1.386 . S
C1060 C1055 1.490 . S
C1060 C1062 1.395 . S
C1060 C1063 1.403 . S
H1061 C1067 0.930 . S
C1062 H1048 0.930 . S
C1062 C1060 1.395 . S
C1062 C1065 1.410 . S
C1063 C1060 1.403 . S
C1063 C1064 1.524 . S
C1063 C1067 1.400 . S
C1064 H1049 0.960 . S
C1064 H1050 0.960 . S
C1064 H1051 0.960 . S
C1064 C1063 1.524 . S
C1065 C1062 1.410 . S
C1065 C1066 1.395 1_455 S
C1065 C1069 1.487 1_455 S
C1066 C1065 1.395 1_655 S
C1066 C1067 1.385 1_655 S
C1066 C1068 1.478 . S
C1067 H1061 0.930 . S
C1067 C1063 1.400 . S
C1067 C1066 1.385 1_455 S
C1068 C1066 1.478 . S
C1068 C1070 1.381 . S
C1068 C1074 1.383 . S
C1069 C1065 1.487 1_655 S
C1069 H1075 0.959 . S
C1069 H1076 0.961 . S
C1069 H1077 0.960 . S
C1070 C1068 1.381 . S
C1070 C1071 1.394 . S
C1070 H1078 0.930 . S
C1071 C1070 1.394 . S
C1071 C1072 1.383 . S
C1071 H1079 0.929 . S
C1072 C1071 1.383 . S
C1072 C1073 1.377 . S
C1073 H1057 0.930 . S
C1073 C1072 1.377 . S
C1073 C1074 1.379 . S
C1074 H1058 0.931 . S
C1074 C1068 1.383 . S
C1074 C1073 1.379 . S
H1075 C1069 0.959 . S
H1076 C1069 0.961 . S
H1077 C1069 0.960 . S
H1078 C1070 0.930 . S
H1079 C1071 0.929 . S
H1080 C1088 0.929 . S
H1081 C1090 0.930 . S
H1082 C1092 0.930 . S
H1083 C1095 0.929 . S
H1084 C1098 0.930 . S
H1085 C1100 0.960 . S
H1086 C1100 0.960 . S
H1087 C1100 0.960 . S
C1088 H1080 0.929 . S
C1088 C1089 1.377 . S
C1088 C1090 1.384 . S
C1089 C1088 1.377 . S
C1089 C1095 1.390 . S
C1090 H1081 0.930 . S
C1090 C1088 1.384 . S
C1090 C1091 1.372 . S
C1091 C1090 1.372 . S
C1091 C1092 1.400 . S
C1091 C1096 1.490 . S
C1092 H1082 0.930 . S
C1092 C1091 1.400 . S
C1092 C1095 1.386 . S
H1093 C1109 0.930 . S
H1094 C1110 0.931 . S
C1095 H1083 0.929 . S
C1095 C1089 1.390 . S
C1095 C1092 1.386 . S
C1096 C1091 1.490 . S
C1096 C1098 1.395 1_545 S
C1096 C1099 1.403 1_545 S
H1097 C1103 0.930 . S
C1098 H1084 0.930 . S
C1098 C1096 1.395 1_565 S
C1098 C1101 1.403 . S
C1099 C1096 1.403 1_565 S
C1099 C1100 1.524 1_565 S
C1099 C1103 1.400 . S
C1100 H1085 0.960 . S
C1100 H1086 0.960 . S
C1100 H1087 0.960 . S
C1100 C1099 1.524 1_545 S
C1101 C1098 1.403 . S
C1101 C1102 1.392 . S
C1101 C1105 1.495 . S
C1102 C1101 1.392 . S
C1102 C1103 1.385 . S
C1102 C1104 1.478 . S
C1103 H1097 0.930 . S
C1103 C1099 1.400 . S
C1103 C1102 1.385 . S
C1104 C1102 1.478 . S
C1104 C1106 1.381 . S
C1104 C1110 1.383 . S
C1105 C1101 1.495 . S
C1105 H1111 0.959 . S
C1105 H1112 0.961 . S
C1105 H1113 0.960 . S
C1106 C1104 1.381 . S
C1106 C1107 1.394 . S
C1106 H1114 0.930 . S
C1107 C1106 1.394 . S
C1107 C1108 1.383 . S
C1107 H1115 0.929 . S
C1108 C1107 1.383 . S
C1108 C1109 1.377 . S
C1109 H1093 0.930 . S
C1109 C1108 1.377 . S
C1109 C1110 1.379 . S
C1110 H1094 0.931 . S
C1110 C1104 1.383 . S
C1110 C1109 1.379 . S
H1111 C1105 0.959 . S
H1112 C1105 0.961 . S
H1113 C1105 0.960 . S
H1114 C1106 0.930 . S
H1115 C1107 0.929 . S
H1116 C1124 0.929 . S
H1117 C1126 0.930 . S
H1118 C1128 0.930 . S
H1119 C1131 0.929 . S
H1120 C1134 0.930 . S
H1121 C1136 0.960 . S
H1122 C1136 0.960 . S
H1123 C1136 0.960 . S
C1124 H1116 0.929 . S
C1124 C1125 1.377 . S
C1124 C1126 1.384 . S
C1125 C1124 1.377 . S
C1125 C1131 1.390 . S
C1126 H1117 0.930 . S
C1126 C1124 1.384 . S
C1126 C1127 1.372 . S
C1127 C1126 1.372 . S
C1127 C1128 1.400 . S
C1127 C1132 1.490 . S
C1128 H1118 0.930 . S
C1128 C1127 1.400 . S
C1128 C1131 1.386 . S
H1129 C1145 0.930 . S
H1130 C1146 0.931 . S
C1131 H1119 0.929 . S
C1131 C1125 1.390 . S
C1131 C1128 1.386 . S
C1132 C1127 1.490 . S
C1132 C1134 1.395 . S
C1132 C1135 1.403 . S
H1133 C1139 0.930 . S
C1134 H1120 0.930 . S
C1134 C1132 1.395 . S
C1134 C1137 1.403 . S
C1135 C1132 1.403 . S
C1135 C1136 1.524 . S
C1135 C1139 1.400 . S
C1136 H1121 0.960 . S
C1136 H1122 0.960 . S
C1136 H1123 0.960 . S
C1136 C1135 1.524 . S
C1137 C1134 1.403 . S
C1137 C1138 1.392 . S
C1137 C1141 1.495 . S
C1138 C1137 1.392 . S
C1138 C1139 1.385 . S
C1138 C1140 1.478 . S
C1139 H1133 0.930 . S
C1139 C1135 1.400 . S
C1139 C1138 1.385 . S
C1140 C1138 1.478 . S
C1140 C1142 1.381 . S
C1140 C1146 1.383 . S
C1141 C1137 1.495 . S
C1141 H1147 0.959 . S
C1141 H1148 0.961 . S
C1141 H1149 0.960 . S
C1142 C1140 1.381 . S
C1142 C1143 1.394 . S
C1142 H1150 0.930 . S
C1143 C1142 1.394 . S
C1143 C1144 1.383 . S
C1143 H1151 0.929 . S
C1144 C1143 1.383 . S
C1144 C1145 1.377 . S
C1145 H1129 0.930 . S
C1145 C1144 1.377 . S
C1145 C1146 1.379 . S
C1146 H1130 0.931 . S
C1146 C1140 1.383 . S
C1146 C1145 1.379 . S
H1147 C1141 0.959 . S
H1148 C1141 0.961 . S
H1149 C1141 0.960 . S
H1150 C1142 0.930 . S
H1151 C1143 0.929 . S
H1152 C1160 0.929 . S
H1153 C1162 0.930 . S
H1154 C1164 0.930 . S
H1155 C1167 0.929 . S
H1156 C1170 0.930 . S
H1157 C1172 0.960 . S
H1158 C1172 0.960 . S
H1159 C1172 0.960 . S
C1160 H1152 0.929 . S
C1160 C1161 1.377 . S
C1160 C1162 1.384 . S
C1161 C1160 1.377 . S
C1161 C1167 1.390 . S
C1162 H1153 0.930 . S
C1162 C1160 1.384 . S
C1162 C1163 1.372 . S
C1163 C1162 1.372 . S
C1163 C1164 1.400 . S
C1163 C1168 1.490 . S
C1164 H1154 0.930 . S
C1164 C1163 1.400 . S
C1164 C1167 1.386 . S
H1165 C1181 0.930 . S
H1166 C1182 0.931 . S
C1167 H1155 0.929 . S
C1167 C1161 1.390 . S
C1167 C1164 1.386 . S
C1168 C1163 1.490 . S
C1168 C1170 1.395 . S
C1168 C1171 1.403 . S
H1169 C1175 0.930 . S
C1170 H1156 0.930 . S
C1170 C1168 1.395 . S
C1170 C1173 1.403 1_455 S
C1171 C1168 1.403 . S
C1171 C1172 1.524 . S
C1171 C1175 1.400 . S
C1172 H1157 0.960 . S
C1172 H1158 0.960 . S
C1172 H1159 0.960 . S
C1172 C1171 1.524 . S
C1173 C1170 1.403 1_655 S
C1173 C1174 1.392 . S
C1173 C1177 1.495 . S
C1174 C1173 1.392 . S
C1174 C1175 1.385 1_655 S
C1174 C1176 1.478 . S
C1175 H1169 0.930 . S
C1175 C1171 1.400 . S
C1175 C1174 1.385 1_455 S
C1176 C1174 1.478 . S
C1176 C1178 1.381 . S
C1176 C1182 1.383 . S
C1177 C1173 1.495 . S
C1177 H1183 0.959 . S
C1177 H1184 0.961 . S
C1177 H1185 0.960 . S
C1178 C1176 1.381 . S
C1178 C1179 1.394 . S
C1178 H1186 0.930 . S
C1179 C1178 1.394 . S
C1179 C1180 1.383 . S
C1179 H1187 0.929 . S
C1180 C1179 1.383 . S
C1180 C1181 1.377 . S
C1181 H1165 0.930 . S
C1181 C1180 1.377 . S
C1181 C1182 1.379 . S
C1182 H1166 0.931 . S
C1182 C1176 1.383 . S
C1182 C1181 1.379 . S
H1183 C1177 0.959 . S
H1184 C1177 0.961 . S
H1185 C1177 0.960 . S
H1186 C1178 0.930 . S
H1187 C1179 0.929 . S
H1188 C1196 0.929 . S
H1189 C1198 0.930 . S
H1190 C1200 0.930 . S
H1191 C1203 0.929 . S
H1192 C1206 0.930 . S
H1193 C1208 0.960 . S
H1194 C1208 0.960 . S
H1195 C1208 0.960 . S
C1196 H1188 0.929 . S
C1196 C1197 1.377 . S
C1196 C1198 1.384 . S
C1197 C1196 1.377 . S
C1197 C1203 1.390 . S
C1198 H1189 0.930 . S
C1198 C1196 1.384 . S
C1198 C1199 1.372 . S
C1199 C1198 1.372 . S
C1199 C1200 1.400 . S
C1199 C1204 1.490 . S
C1200 H1190 0.930 . S
C1200 C1199 1.400 . S
C1200 C1203 1.386 . S
H1201 C1217 0.930 . S
H1202 C1218 0.931 . S
C1203 H1191 0.929 . S
C1203 C1197 1.390 . S
C1203 C1200 1.386 . S
C1204 C1199 1.490 . S
C1204 C1206 1.395 . S
C1204 C1207 1.403 . S
H1205 C1211 0.930 1_545 S
C1206 H1192 0.930 . S
C1206 C1204 1.395 . S
C1206 C1209 1.403 . S
C1207 C1204 1.403 . S
C1207 C1208 1.524 . S
C1207 C1211 1.400 . S
C1208 H1193 0.960 . S
C1208 H1194 0.960 . S
C1208 H1195 0.960 . S
C1208 C1207 1.524 . S
C1209 C1206 1.403 . S
C1209 C1210 1.392 1_565 S
C1209 C1213 1.495 . S
C1210 C1209 1.392 1_545 S
C1210 C1211 1.385 1_545 S
C1210 C1212 1.478 . S
C1211 H1205 0.930 1_565 S
C1211 C1207 1.400 . S
C1211 C1210 1.385 1_565 S
C1212 C1210 1.478 . S
C1212 C1214 1.381 . S
C1212 C1218 1.383 . S
C1213 C1209 1.495 . S
C1213 H1219 0.959 . S
C1213 H1220 0.961 . S
C1213 H1221 0.960 . S
C1214 C1212 1.381 . S
C1214 C1215 1.394 . S
C1214 H1222 0.930 . S
C1215 C1214 1.394 . S
C1215 C1216 1.383 . S
C1215 H1223 0.929 . S
C1216 C1215 1.383 . S
C1216 C1217 1.377 . S
C1217 H1201 0.930 . S
C1217 C1216 1.377 . S
C1217 C1218 1.379 . S
C1218 H1202 0.931 . S
C1218 C1212 1.383 . S
C1218 C1217 1.379 . S
H1219 C1213 0.959 . S
H1220 C1213 0.961 . S
H1221 C1213 0.960 . S
H1222 C1214 0.930 . S
H1223 C1215 0.929 . S
H1224 C1232 0.929 . S
H1225 C1234 0.930 . S
H1226 C1236 0.930 . S
H1227 C1239 0.929 . S
H1228 C1242 0.930 . S
H1229 C1244 0.960 . S
H1230 C1244 0.960 . S
H1231 C1244 0.960 . S
C1232 H1224 0.929 . S
C1232 C1233 1.377 . S
C1232 C1234 1.384 . S
C1233 C1232 1.377 . S
C1233 C1239 1.390 . S
C1234 H1225 0.930 . S
C1234 C1232 1.384 . S
C1234 C1235 1.372 . S
C1235 C1234 1.372 . S
C1235 C1236 1.400 . S
C1235 C1240 1.490 . S
C1236 H1226 0.930 . S
C1236 C1235 1.400 . S
C1236 C1239 1.386 . S
H1237 C1253 0.930 . S
H1238 C1254 0.931 . S
C1239 H1227 0.929 . S
C1239 C1233 1.390 . S
C1239 C1236 1.386 . S
C1240 C1235 1.490 . S
C1240 C1242 1.395 . S
C1240 C1243 1.403 . S
H1241 C1247 0.930 . S
C1242 H1228 0.930 . S
C1242 C1240 1.395 . S
C1242 C1245 1.403 . S
C1243 C1240 1.403 . S
C1243 C1244 1.524 . S
C1243 C1247 1.400 . S
C1244 H1229 0.960 . S
C1244 H1230 0.960 . S
C1244 H1231 0.960 . S
C1244 C1243 1.524 . S
C1245 C1242 1.403 . S
C1245 C1246 1.392 . S
C1245 C1249 1.495 . S
C1246 C1245 1.392 . S
C1246 C1247 1.385 . S
C1246 C1248 1.478 . S
C1247 H1241 0.930 . S
C1247 C1243 1.400 . S
C1247 C1246 1.385 . S
C1248 C1246 1.478 . S
C1248 C1250 1.381 . S
C1248 C1254 1.383 . S
C1249 C1245 1.495 . S
C1249 H1255 0.959 . S
C1249 H1256 0.961 . S
C1249 H1257 0.960 . S
C1250 C1248 1.381 . S
C1250 C1251 1.394 . S
C1250 H1258 0.930 . S
C1251 C1250 1.394 . S
C1251 C1252 1.383 . S
C1251 H1259 0.929 . S
C1252 C1251 1.383 . S
C1252 C1253 1.377 . S
C1253 H1237 0.930 . S
C1253 C1252 1.377 . S
C1253 C1254 1.379 . S
C1254 H1238 0.931 . S
C1254 C1248 1.383 . S
C1254 C1253 1.379 . S
H1255 C1249 0.959 . S
H1256 C1249 0.961 . S
H1257 C1249 0.960 . S
H1258 C1250 0.930 . S
H1259 C1251 0.929 . S
H1260 C1268 0.929 . S
H1261 C1270 0.930 . S
H1262 C1272 0.930 . S
H1263 C1275 0.929 . S
H1264 C1278 0.930 . S
H1265 C1280 0.960 . S
H1266 C1280 0.960 . S
H1267 C1280 0.960 . S
C1268 H1260 0.929 . S
C1268 C1269 1.377 . S
C1268 C1270 1.384 . S
C1269 C1268 1.377 . S
C1269 C1275 1.390 . S
C1270 H1261 0.930 . S
C1270 C1268 1.384 . S
C1270 C1271 1.372 . S
C1271 C1270 1.372 . S
C1271 C1272 1.400 . S
C1271 C1276 1.490 . S
C1272 H1262 0.930 . S
C1272 C1271 1.400 . S
C1272 C1275 1.386 . S
H1273 C1289 0.930 . S
H1274 C1290 0.931 . S
C1275 H1263 0.929 . S
C1275 C1269 1.390 . S
C1275 C1272 1.386 . S
C1276 C1271 1.490 . S
C1276 C1278 1.395 1_455 S
C1276 C1279 1.403 1_455 S
H1277 C1283 0.930 . S
C1278 H1264 0.930 . S
C1278 C1276 1.395 1_655 S
C1278 C1281 1.403 . S
C1279 C1276 1.403 1_655 S
C1279 C1280 1.524 1_655 S
C1279 C1283 1.400 . S
C1280 H1265 0.960 . S
C1280 H1266 0.960 . S
C1280 H1267 0.960 . S
C1280 C1279 1.524 1_455 S
C1281 C1278 1.403 . S
C1281 C1282 1.392 . S
C1281 C1285 1.495 . S
C1282 C1281 1.392 . S
C1282 C1283 1.385 . S
C1282 C1284 1.478 . S
C1283 H1277 0.930 . S
C1283 C1279 1.400 . S
C1283 C1282 1.385 . S
C1284 C1282 1.478 . S
C1284 C1286 1.381 . S
C1284 C1290 1.383 . S
C1285 C1281 1.495 . S
C1285 H1291 0.959 . S
C1285 H1292 0.961 . S
C1285 H1293 0.960 . S
C1286 C1284 1.381 . S
C1286 C1287 1.394 . S
C1286 H1294 0.930 . S
C1287 C1286 1.394 . S
C1287 C1288 1.383 . S
C1287 H1295 0.929 . S
C1288 C1287 1.383 . S
C1288 C1289 1.377 . S
C1289 H1273 0.930 . S
C1289 C1288 1.377 . S
C1289 C1290 1.379 . S
C1290 H1274 0.931 . S
C1290 C1284 1.383 . S
C1290 C1289 1.379 . S
H1291 C1285 0.959 . S
H1292 C1285 0.961 . S
H1293 C1285 0.960 . S
H1294 C1286 0.930 . S
H1295 C1287 0.929 . S
H1296 C1304 0.929 . S
H1297 C1306 0.930 . S
H1298 C1308 0.930 . S
H1299 C1311 0.929 . S
H1300 C1314 0.930 . S
H1301 C1316 0.960 . S
H1302 C1316 0.960 . S
H1303 C1316 0.960 . S
C1304 H1296 0.929 . S
C1304 C1305 1.377 . S
C1304 C1306 1.384 . S
C1305 C1304 1.377 . S
C1305 C1311 1.390 . S
C1306 H1297 0.930 . S
C1306 C1304 1.384 . S
C1306 C1307 1.372 . S
C1307 C1306 1.372 . S
C1307 C1308 1.400 . S
C1307 C1312 1.490 . S
C1308 H1298 0.930 . S
C1308 C1307 1.400 . S
C1308 C1311 1.386 . S
H1309 C1325 0.930 . S
H1310 C1326 0.931 . S
C1311 H1299 0.929 . S
C1311 C1305 1.390 . S
C1311 C1308 1.386 . S
C1312 C1307 1.490 . S
C1312 C1314 1.395 . S
C1312 C1315 1.403 1_565 S
H1313 C1319 0.930 . S
C1314 H1300 0.930 . S
C1314 C1312 1.395 . S
C1314 C1317 1.403 1_565 S
C1315 C1312 1.403 1_545 S
C1315 C1316 1.524 . S
C1315 C1319 1.400 . S
C1316 H1301 0.960 . S
C1316 H1302 0.960 . S
C1316 H1303 0.960 . S
C1316 C1315 1.524 . S
C1317 C1314 1.403 1_545 S
C1317 C1318 1.392 . S
C1317 C1321 1.495 . S
C1318 C1317 1.392 . S
C1318 C1319 1.385 . S
C1318 C1320 1.478 . S
C1319 H1313 0.930 . S
C1319 C1315 1.400 . S
C1319 C1318 1.385 . S
C1320 C1318 1.478 . S
C1320 C1322 1.381 . S
C1320 C1326 1.383 . S
C1321 C1317 1.495 . S
C1321 H1327 0.959 . S
C1321 H1328 0.961 . S
C1321 H1329 0.960 . S
C1322 C1320 1.381 . S
C1322 C1323 1.394 . S
C1322 H1330 0.930 . S
C1323 C1322 1.394 . S
C1323 C1324 1.383 . S
C1323 H1331 0.929 . S
C1324 C1323 1.383 . S
C1324 C1325 1.377 . S
C1325 H1309 0.930 . S
C1325 C1324 1.377 . S
C1325 C1326 1.379 . S
C1326 H1310 0.931 . S
C1326 C1320 1.383 . S
C1326 C1325 1.379 . S
H1327 C1321 0.959 . S
H1328 C1321 0.961 . S
H1329 C1321 0.960 . S
H1330 C1322 0.930 . S
H1331 C1323 0.929 . S
H1332 C1340 0.929 . S
H1333 C1342 0.930 . S
H1334 C1344 0.930 . S
H1335 C1347 0.929 . S
H1336 C1350 0.930 . S
H1337 C1352 0.960 . S
H1338 C1352 0.960 . S
H1339 C1352 0.960 . S
C1340 H1332 0.929 . S
C1340 C1341 1.377 . S
C1340 C1342 1.384 . S
C1341 C1340 1.377 . S
C1341 C1347 1.390 . S
C1342 H1333 0.930 . S
C1342 C1340 1.384 . S
C1342 C1343 1.372 . S
C1343 C1342 1.372 . S
C1343 C1344 1.400 . S
C1343 C1348 1.490 . S
C1344 H1334 0.930 . S
C1344 C1343 1.400 . S
C1344 C1347 1.386 . S
H1345 C1361 0.930 . S
H1346 C1362 0.931 . S
C1347 H1335 0.929 . S
C1347 C1341 1.390 . S
C1347 C1344 1.386 . S
C1348 C1343 1.490 . S
C1348 C1350 1.395 . S
C1348 C1351 1.403 . S
H1349 C1355 0.930 . S
C1350 H1336 0.930 . S
C1350 C1348 1.395 . S
C1350 C1353 1.403 . S
C1351 C1348 1.403 . S
C1351 C1352 1.524 . S
C1351 C1355 1.400 . S
C1352 H1337 0.960 . S
C1352 H1338 0.960 . S
C1352 H1339 0.960 . S
C1352 C1351 1.524 . S
C1353 C1350 1.403 . S
C1353 C1354 1.392 . S
C1353 C1357 1.495 . S
C1354 C1353 1.392 . S
C1354 C1355 1.385 . S
C1354 C1356 1.478 . S
C1355 H1349 0.930 . S
C1355 C1351 1.400 . S
C1355 C1354 1.385 . S
C1356 C1354 1.478 . S
C1356 C1358 1.381 . S
C1356 C1362 1.383 . S
C1357 C1353 1.495 . S
C1357 H1363 0.959 . S
C1357 H1364 0.961 . S
C1357 H1365 0.960 . S
C1358 C1356 1.381 . S
C1358 C1359 1.394 . S
C1358 H1366 0.930 . S
C1359 C1358 1.394 . S
C1359 C1360 1.383 . S
C1359 H1367 0.929 . S
C1360 C1359 1.383 . S
C1360 C1361 1.377 . S
C1361 H1345 0.930 . S
C1361 C1360 1.377 . S
C1361 C1362 1.379 . S
C1362 H1346 0.931 . S
C1362 C1356 1.383 . S
C1362 C1361 1.379 . S
H1363 C1357 0.959 . S
H1364 C1357 0.961 . S
H1365 C1357 0.960 . S
H1366 C1358 0.930 . S
H1367 C1359 0.929 . S
H1368 C1376 0.929 . S
H1369 C1378 0.930 . S
H1370 C1380 0.930 . S
H1371 C1383 0.929 . S
H1372 C1386 0.930 . S
H1373 C1388 0.960 . S
H1374 C1388 0.960 . S
H1375 C1388 0.960 . S
C1376 H1368 0.929 . S
C1376 C1377 1.377 . S
C1376 C1378 1.384 . S
C1377 C1376 1.377 . S
C1377 C1383 1.390 . S
C1378 H1369 0.930 . S
C1378 C1376 1.384 . S
C1378 C1379 1.372 . S
C1379 C1378 1.372 . S
C1379 C1380 1.400 . S
C1379 C1384 1.490 . S
C1380 H1370 0.930 . S
C1380 C1379 1.400 . S
C1380 C1383 1.386 . S
H1381 C1397 0.930 . S
H1382 C1398 0.931 . S
C1383 H1371 0.929 . S
C1383 C1377 1.390 . S
C1383 C1380 1.386 . S
C1384 C1379 1.490 . S
C1384 C1386 1.395 1_455 S
C1384 C1387 1.403 1_455 S
H1385 C1391 0.930 . S
C1386 H1372 0.930 . S
C1386 C1384 1.395 1_655 S
C1386 C1389 1.403 . S
C1387 C1384 1.403 1_655 S
C1387 C1388 1.524 1_655 S
C1387 C1391 1.400 . S
C1388 H1373 0.960 . S
C1388 H1374 0.960 . S
C1388 H1375 0.960 . S
C1388 C1387 1.524 1_455 S
C1389 C1386 1.403 . S
C1389 C1390 1.392 . S
C1389 C1393 1.495 . S
C1390 C1389 1.392 . S
C1390 C1391 1.385 . S
C1390 C1392 1.478 . S
C1391 H1385 0.930 . S
C1391 C1387 1.400 . S
C1391 C1390 1.385 . S
C1392 C1390 1.478 . S
C1392 C1394 1.381 . S
C1392 C1398 1.383 . S
C1393 C1389 1.495 . S
C1393 H1399 0.959 . S
C1393 H1400 0.961 . S
C1393 H1401 0.960 . S
C1394 C1392 1.381 . S
C1394 C1395 1.394 . S
C1394 H1402 0.930 . S
C1395 C1394 1.394 . S
C1395 C1396 1.383 . S
C1395 H1403 0.929 . S
C1396 C1395 1.383 . S
C1396 C1397 1.377 . S
C1397 H1381 0.930 . S
C1397 C1396 1.377 . S
C1397 C1398 1.379 . S
C1398 H1382 0.931 . S
C1398 C1392 1.383 . S
C1398 C1397 1.379 . S
H1399 C1393 0.959 . S
H1400 C1393 0.961 . S
H1401 C1393 0.960 . S
H1402 C1394 0.930 . S
H1403 C1395 0.929 . S
H1404 C1412 0.929 . S
H1405 C1414 0.930 . S
H1406 C1416 0.930 . S
H1407 C1419 0.929 . S
H1408 C1422 0.930 . S
H1409 C1424 0.960 . S
H1410 C1424 0.960 . S
H1411 C1424 0.960 . S
C1412 H1404 0.929 . S
C1412 C1413 1.377 . S
C1412 C1414 1.384 . S
C1413 C1412 1.377 . S
C1413 C1419 1.390 . S
C1414 H1405 0.930 . S
C1414 C1412 1.384 . S
C1414 C1415 1.372 . S
C1415 C1414 1.372 . S
C1415 C1416 1.400 . S
C1415 C1420 1.490 . S
C1416 H1406 0.930 . S
C1416 C1415 1.400 . S
C1416 C1419 1.386 . S
H1417 C1433 0.930 . S
H1418 C1434 0.931 . S
C1419 H1407 0.929 . S
C1419 C1413 1.390 . S
C1419 C1416 1.386 . S
C1420 C1415 1.490 . S
C1420 C1422 1.395 . S
C1420 C1423 1.403 . S
H1421 C1427 0.930 1_565 S
C1422 H1408 0.930 . S
C1422 C1420 1.395 . S
C1422 C1425 1.403 . S
C1423 C1420 1.403 . S
C1423 C1424 1.524 . S
C1423 C1427 1.400 . S
C1424 H1409 0.960 . S
C1424 H1410 0.960 . S
C1424 H1411 0.960 . S
C1424 C1423 1.524 . S
C1425 C1422 1.403 . S
C1425 C1426 1.392 1_545 S
C1425 C1429 1.495 . S
C1426 C1425 1.392 1_565 S
C1426 C1427 1.385 1_565 S
C1426 C1428 1.478 . S
C1427 H1421 0.930 1_545 S
C1427 C1423 1.400 . S
C1427 C1426 1.385 1_545 S
C1428 C1426 1.478 . S
C1428 C1430 1.381 . S
C1428 C1434 1.383 . S
C1429 C1425 1.495 . S
C1429 H1435 0.959 . S
C1429 H1436 0.961 . S
C1429 H1437 0.960 . S
C1430 C1428 1.381 . S
C1430 C1431 1.394 . S
C1430 H1438 0.930 . S
C1431 C1430 1.394 . S
C1431 C1432 1.383 . S
C1431 H1439 0.929 . S
C1432 C1431 1.383 . S
C1432 C1433 1.377 . S
C1433 H1417 0.930 . S
C1433 C1432 1.377 . S
C1433 C1434 1.379 . S
C1434 H1418 0.931 . S
C1434 C1428 1.383 . S
C1434 C1433 1.379 . S
H1435 C1429 0.959 . S
H1436 C1429 0.961 . S
H1437 C1429 0.960 . S
H1438 C1430 0.930 . S
H1439 C1431 0.929 . S
H1440 C1448 0.929 . S
H1441 C1450 0.930 . S
H1442 C1452 0.930 . S
H1443 C1455 0.929 . S
H1444 C1458 0.930 . S
H1445 C1460 0.960 . S
H1446 C1460 0.960 . S
H1447 C1460 0.960 . S
C1448 H1440 0.929 . S
C1448 C1449 1.377 . S
C1448 C1450 1.384 . S
C1449 C1448 1.377 . S
C1449 C1455 1.390 . S
C1450 H1441 0.930 . S
C1450 C1448 1.384 . S
C1450 C1451 1.372 . S
C1451 C1450 1.372 . S
C1451 C1452 1.400 . S
C1451 C1456 1.490 . S
C1452 H1442 0.930 . S
C1452 C1451 1.400 . S
C1452 C1455 1.386 . S
H1453 C1469 0.930 . S
H1454 C1470 0.931 . S
C1455 H1443 0.929 . S
C1455 C1449 1.390 . S
C1455 C1452 1.386 . S
C1456 C1451 1.490 . S
C1456 C1458 1.395 . S
C1456 C1459 1.403 . S
H1457 C1463 0.930 . S
C1458 H1444 0.930 . S
C1458 C1456 1.395 . S
C1458 C1461 1.403 . S
C1459 C1456 1.403 . S
C1459 C1460 1.524 . S
C1459 C1463 1.400 . S
C1460 H1445 0.960 . S
C1460 H1446 0.960 . S
C1460 H1447 0.960 . S
C1460 C1459 1.524 . S
C1461 C1458 1.403 . S
C1461 C1462 1.392 . S
C1461 C1465 1.495 . S
C1462 C1461 1.392 . S
C1462 C1463 1.385 . S
C1462 C1464 1.478 . S
C1463 H1457 0.930 . S
C1463 C1459 1.400 . S
C1463 C1462 1.385 . S
C1464 C1462 1.478 . S
C1464 C1466 1.381 . S
C1464 C1470 1.383 . S
C1465 C1461 1.495 . S
C1465 H1471 0.959 . S
C1465 H1472 0.961 . S
C1465 H1473 0.960 . S
C1466 C1464 1.381 . S
C1466 C1467 1.394 . S
C1466 H1474 0.930 . S
C1467 C1466 1.394 . S
C1467 C1468 1.383 . S
C1467 H1475 0.929 . S
C1468 C1467 1.383 . S
C1468 C1469 1.377 . S
C1469 H1453 0.930 . S
C1469 C1468 1.377 . S
C1469 C1470 1.379 . S
C1470 H1454 0.931 . S
C1470 C1464 1.383 . S
C1470 C1469 1.379 . S
H1471 C1465 0.959 . S
H1472 C1465 0.961 . S
H1473 C1465 0.960 . S
H1474 C1466 0.930 . S
H1475 C1467 0.929 . S
H1476 C1484 0.929 . S
H1477 C1486 0.930 . S
H1478 C1488 0.930 . S
H1479 C1491 0.929 . S
H1480 C1494 0.930 . S
H1481 C1496 0.960 . S
H1482 C1496 0.960 . S
H1483 C1496 0.960 . S
C1484 H1476 0.929 . S
C1484 C1485 1.377 . S
C1484 C1486 1.384 . S
C1485 C1484 1.377 . S
C1485 C1491 1.390 . S
C1486 H1477 0.930 . S
C1486 C1484 1.384 . S
C1486 C1487 1.372 . S
C1487 C1486 1.372 . S
C1487 C1488 1.400 . S
C1487 C1492 1.490 . S
C1488 H1478 0.930 . S
C1488 C1487 1.400 . S
C1488 C1491 1.386 . S
H1489 C1505 0.930 . S
H1490 C1506 0.931 . S
C1491 H1479 0.929 . S
C1491 C1485 1.390 . S
C1491 C1488 1.386 . S
C1492 C1487 1.490 . S
C1492 C1494 1.395 . S
C1492 C1495 1.403 . S
H1493 C1499 0.930 . S
C1494 H1480 0.930 . S
C1494 C1492 1.395 . S
C1494 C1497 1.403 . S
C1495 C1492 1.403 . S
C1495 C1496 1.524 . S
C1495 C1499 1.400 . S
C1496 H1481 0.960 . S
C1496 H1482 0.960 . S
C1496 H1483 0.960 . S
C1496 C1495 1.524 . S
C1497 C1494 1.403 . S
C1497 C1498 1.392 . S
C1497 C1501 1.495 . S
C1498 C1497 1.392 . S
C1498 C1499 1.385 . S
C1498 C1500 1.478 . S
C1499 H1493 0.930 . S
C1499 C1495 1.400 . S
C1499 C1498 1.385 . S
C1500 C1498 1.478 . S
C1500 C1502 1.381 . S
C1500 C1506 1.383 . S
C1501 C1497 1.495 . S
C1501 H1507 0.959 . S
C1501 H1508 0.961 . S
C1501 H1509 0.960 . S
C1502 C1500 1.381 . S
C1502 C1503 1.394 . S
C1502 H1510 0.930 . S
C1503 C1502 1.394 . S
C1503 C1504 1.383 . S
C1503 H1511 0.929 . S
C1504 C1503 1.383 . S
C1504 C1505 1.377 . S
C1505 H1489 0.930 . S
C1505 C1504 1.377 . S
C1505 C1506 1.379 . S
C1506 H1490 0.931 . S
C1506 C1500 1.383 . S
C1506 C1505 1.379 . S
H1507 C1501 0.959 . S
H1508 C1501 0.961 . S
H1509 C1501 0.960 . S
H1510 C1502 0.930 . S
H1511 C1503 0.929 . S
H1512 C1520 0.929 . S
H1513 C1522 0.930 . S
H1514 C1524 0.930 . S
H1515 C1527 0.929 . S
H1516 C1530 0.930 . S
H1517 C1532 0.960 . S
H1518 C1532 0.960 . S
H1519 C1532 0.960 . S
C1520 H1512 0.929 . S
C1520 C1521 1.377 . S
C1520 C1522 1.384 . S
C1521 C1520 1.377 . S
C1521 C1527 1.390 . S
C1522 H1513 0.930 . S
C1522 C1520 1.384 . S
C1522 C1523 1.372 . S
C1523 C1522 1.372 . S
C1523 C1524 1.400 . S
C1523 C1528 1.490 . S
C1524 H1514 0.930 . S
C1524 C1523 1.400 . S
C1524 C1527 1.386 . S
H1525 C1541 0.930 . S
H1526 C1542 0.931 . S
C1527 H1515 0.929 . S
C1527 C1521 1.390 . S
C1527 C1524 1.386 . S
C1528 C1523 1.490 . S
C1528 C1530 1.395 . S
C1528 C1531 1.403 . S
H1529 C1535 0.930 . S
C1530 H1516 0.930 . S
C1530 C1528 1.395 . S
C1530 C1533 1.403 . S
C1531 C1528 1.403 . S
C1531 C1532 1.524 . S
C1531 C1535 1.400 . S
C1532 H1517 0.960 . S
C1532 H1518 0.960 . S
C1532 H1519 0.960 . S
C1532 C1531 1.524 . S
C1533 C1530 1.403 . S
C1533 C1534 1.392 . S
C1533 C1537 1.495 . S
C1534 C1533 1.392 . S
C1534 C1535 1.385 . S
C1534 C1536 1.478 . S
C1535 H1529 0.930 . S
C1535 C1531 1.400 . S
C1535 C1534 1.385 . S
C1536 C1534 1.478 . S
C1536 C1538 1.381 . S
C1536 C1542 1.383 . S
C1537 C1533 1.495 . S
C1537 H1543 0.959 . S
C1537 H1544 0.961 . S
C1537 H1545 0.960 . S
C1538 C1536 1.381 . S
C1538 C1539 1.394 . S
C1538 H1546 0.930 . S
C1539 C1538 1.394 . S
C1539 C1540 1.383 . S
C1539 H1547 0.929 . S
C1540 C1539 1.383 . S
C1540 C1541 1.377 . S
C1541 H1525 0.930 . S
C1541 C1540 1.377 . S
C1541 C1542 1.379 . S
C1542 H1526 0.931 . S
C1542 C1536 1.383 . S
C1542 C1541 1.379 . S
H1543 C1537 0.959 . S
H1544 C1537 0.961 . S
H1545 C1537 0.960 . S
H1546 C1538 0.930 . S
H1547 C1539 0.929 . S
H1548 C1556 0.929 . S
H1549 C1558 0.930 . S
H1550 C1560 0.930 . S
H1551 C1563 0.929 . S
H1552 C1566 0.930 . S
H1553 C1568 0.960 . S
H1554 C1568 0.960 . S
H1555 C1568 0.960 . S
C1556 H1548 0.929 . S
C1556 C1557 1.377 . S
C1556 C1558 1.384 . S
C1557 C1556 1.377 . S
C1557 C1563 1.390 . S
C1558 H1549 0.930 . S
C1558 C1556 1.384 . S
C1558 C1559 1.372 . S
C1559 C1558 1.372 . S
C1559 C1560 1.400 . S
C1559 C1564 1.490 . S
C1560 H1550 0.930 . S
C1560 C1559 1.400 . S
C1560 C1563 1.386 . S
H1561 C1577 0.930 . S
H1562 C1578 0.931 . S
C1563 H1551 0.929 . S
C1563 C1557 1.390 . S
C1563 C1560 1.386 . S
C1564 C1559 1.490 . S
C1564 C1566 1.395 . S
C1564 C1567 1.403 . S
H1565 C1571 0.930 . S
C1566 H1552 0.930 . S
C1566 C1564 1.395 . S
C1566 C1569 1.403 . S
C1567 C1564 1.403 . S
C1567 C1568 1.524 . S
C1567 C1571 1.400 . S
C1568 H1553 0.960 . S
C1568 H1554 0.960 . S
C1568 H1555 0.960 . S
C1568 C1567 1.524 . S
C1569 C1566 1.403 . S
C1569 C1570 1.392 . S
C1569 C1573 1.495 . S
C1570 C1569 1.392 . S
C1570 C1571 1.385 . S
C1570 C1572 1.478 . S
C1571 H1565 0.930 . S
C1571 C1567 1.400 . S
C1571 C1570 1.385 . S
C1572 C1570 1.478 . S
C1572 C1574 1.381 . S
C1572 C1578 1.383 . S
C1573 C1569 1.495 . S
C1573 H1579 0.959 . S
C1573 H1580 0.961 . S
C1573 H1581 0.960 . S
C1574 C1572 1.381 . S
C1574 C1575 1.394 . S
C1574 H1582 0.930 . S
C1575 C1574 1.394 . S
C1575 C1576 1.383 . S
C1575 H1583 0.929 . S
C1576 C1575 1.383 . S
C1576 C1577 1.377 . S
C1577 H1561 0.930 . S
C1577 C1576 1.377 . S
C1577 C1578 1.379 . S
C1578 H1562 0.931 . S
C1578 C1572 1.383 . S
C1578 C1577 1.379 . S
H1579 C1573 0.959 . S
H1580 C1573 0.961 . S
H1581 C1573 0.960 . S
H1582 C1574 0.930 . S
H1583 C1575 0.929 . S
H1584 C1592 0.929 . S
H1585 C1594 0.930 . S
H1586 C1596 0.930 . S
H1587 C1599 0.929 . S
H1588 C1602 0.930 . S
H1589 C1604 0.960 . S
H1590 C1604 0.960 . S
H1591 C1604 0.960 . S
C1592 H1584 0.929 . S
C1592 C1593 1.377 . S
C1592 C1594 1.384 . S
C1593 C1592 1.377 . S
C1593 C1599 1.390 . S
C1594 H1585 0.930 . S
C1594 C1592 1.384 . S
C1594 C1595 1.372 . S
C1595 C1594 1.372 . S
C1595 C1596 1.400 . S
C1595 C1600 1.490 . S
C1596 H1586 0.930 . S
C1596 C1595 1.400 . S
C1596 C1599 1.386 . S
H1597 C1613 0.930 . S
H1598 C1614 0.931 . S
C1599 H1587 0.929 . S
C1599 C1593 1.390 . S
C1599 C1596 1.386 . S
C1600 C1595 1.490 . S
C1600 C1602 1.395 . S
C1600 C1603 1.403 . S
H1601 C1607 0.930 . S
C1602 H1588 0.930 . S
C1602 C1600 1.395 . S
C1602 C1605 1.403 . S
C1603 C1600 1.403 . S
C1603 C1604 1.524 . S
C1603 C1607 1.400 . S
C1604 H1589 0.960 . S
C1604 H1590 0.960 . S
C1604 H1591 0.960 . S
C1604 C1603 1.524 . S
C1605 C1602 1.403 . S
C1605 C1606 1.392 . S
C1605 C1609 1.495 . S
C1606 C1605 1.392 . S
C1606 C1607 1.385 . S
C1606 C1608 1.478 . S
C1607 H1601 0.930 . S
C1607 C1603 1.400 . S
C1607 C1606 1.385 . S
C1608 C1606 1.478 . S
C1608 C1610 1.381 . S
C1608 C1614 1.383 . S
C1609 C1605 1.495 . S
C1609 H1615 0.959 . S
C1609 H1616 0.961 . S
C1609 H1617 0.960 . S
C1610 C1608 1.381 . S
C1610 C1611 1.394 . S
C1610 H1618 0.930 . S
C1611 C1610 1.394 . S
C1611 C1612 1.383 . S
C1611 H1619 0.929 . S
C1612 C1611 1.383 . S
C1612 C1613 1.377 . S
C1613 H1597 0.930 . S
C1613 C1612 1.377 . S
C1613 C1614 1.379 . S
C1614 H1598 0.931 . S
C1614 C1608 1.383 . S
C1614 C1613 1.379 . S
H1615 C1609 0.959 . S
H1616 C1609 0.961 . S
H1617 C1609 0.960 . S
H1618 C1610 0.930 . S
H1619 C1611 0.929 . S
H1620 C1628 0.929 . S
H1621 C1630 0.930 . S
H1622 C1632 0.930 . S
H1623 C1635 0.929 . S
H1624 C1638 0.930 . S
H1625 C1640 0.960 . S
H1626 C1640 0.960 . S
H1627 C1640 0.960 . S
C1628 H1620 0.929 . S
C1628 C1629 1.377 . S
C1628 C1630 1.384 . S
C1629 C1628 1.377 . S
C1629 C1635 1.390 . S
C1630 H1621 0.930 . S
C1630 C1628 1.384 . S
C1630 C1631 1.372 . S
C1631 C1630 1.372 . S
C1631 C1632 1.400 . S
C1631 C1636 1.490 . S
C1632 H1622 0.930 . S
C1632 C1631 1.400 . S
C1632 C1635 1.386 . S
H1633 C1649 0.930 . S
H1634 C1650 0.931 . S
C1635 H1623 0.929 . S
C1635 C1629 1.390 . S
C1635 C1632 1.386 . S
C1636 C1631 1.490 . S
C1636 C1638 1.395 . S
C1636 C1639 1.403 . S
H1637 C1643 0.930 . S
C1638 H1624 0.930 . S
C1638 C1636 1.395 . S
C1638 C1641 1.403 . S
C1639 C1636 1.403 . S
C1639 C1640 1.524 . S
C1639 C1643 1.400 . S
C1640 H1625 0.960 . S
C1640 H1626 0.960 . S
C1640 H1627 0.960 . S
C1640 C1639 1.524 . S
C1641 C1638 1.403 . S
C1641 C1642 1.392 . S
C1641 C1645 1.495 . S
C1642 C1641 1.392 . S
C1642 C1643 1.385 . S
C1642 C1644 1.478 . S
C1643 H1637 0.930 . S
C1643 C1639 1.400 . S
C1643 C1642 1.385 . S
C1644 C1642 1.478 . S
C1644 C1646 1.381 . S
C1644 C1650 1.383 . S
C1645 C1641 1.495 . S
C1645 H1651 0.959 . S
C1645 H1652 0.961 . S
C1645 H1653 0.960 . S
C1646 C1644 1.381 . S
C1646 C1647 1.394 . S
C1646 H1654 0.930 . S
C1647 C1646 1.394 . S
C1647 C1648 1.383 . S
C1647 H1655 0.929 . S
C1648 C1647 1.383 . S
C1648 C1649 1.377 . S
C1649 H1633 0.930 . S
C1649 C1648 1.377 . S
C1649 C1650 1.379 . S
C1650 H1634 0.931 . S
C1650 C1644 1.383 . S
C1650 C1649 1.379 . S
H1651 C1645 0.959 . S
H1652 C1645 0.961 . S
H1653 C1645 0.960 . S
H1654 C1646 0.930 . S
H1655 C1647 0.929 . S
H1656 C1664 0.929 . S
H1657 C1666 0.930 . S
H1658 C1668 0.930 . S
H1659 C1671 0.929 . S
H1660 C1674 0.930 . S
H1661 C1676 0.986 . S
H1662 C1676 0.960 . S
H1663 C1676 0.960 . S
C1664 H1656 0.929 . S
C1664 C1665 1.377 . S
C1664 C1666 1.384 . S
C1665 C1664 1.377 . S
C1665 C1671 1.390 . S
C1666 H1657 0.930 . S
C1666 C1664 1.384 . S
C1666 C1667 1.372 . S
C1667 C1666 1.372 . S
C1667 C1668 1.400 . S
C1667 C1672 1.490 . S
C1668 H1658 0.930 . S
C1668 C1667 1.400 . S
C1668 C1671 1.386 . S
H1669 C1685 0.930 . S
H1670 C1686 0.931 . S
C1671 H1659 0.929 . S
C1671 C1665 1.390 . S
C1671 C1668 1.386 . S
C1672 C1667 1.490 . S
C1672 C1674 1.395 . S
C1672 C1675 1.403 . S
H1673 C1679 0.930 . S
C1674 H1660 0.930 . S
C1674 C1672 1.395 . S
C1674 C1677 1.403 1_566 S
C1675 C1672 1.403 . S
C1675 C1676 1.524 . S
C1675 C1679 1.400 1_566 S
C1676 H1661 0.986 . S
C1676 H1662 0.960 . S
C1676 H1663 0.960 . S
C1676 C1675 1.524 . S
C1677 C1674 1.403 1_544 S
C1677 C1678 1.392 . S
C1677 C1681 1.495 . S
C1678 C1677 1.392 . S
C1678 C1679 1.385 . S
C1678 C1680 1.478 . S
C1679 H1673 0.930 . S
C1679 C1675 1.400 1_544 S
C1679 C1678 1.385 . S
C1680 C1678 1.478 . S
C1680 C1682 1.381 . S
C1680 C1686 1.383 . S
C1681 C1677 1.495 . S
C1681 H1687 0.959 1_545 S
C1681 H1688 0.961 . S
C1681 H1689 0.960 . S
C1682 C1680 1.381 . S
C1682 C1683 1.394 . S
C1682 H1690 0.930 . S
C1683 C1682 1.394 . S
C1683 C1684 1.383 . S
C1683 H1691 0.929 . S
C1684 C1683 1.383 . S
C1684 C1685 1.377 . S
C1685 H1669 0.930 . S
C1685 C1684 1.377 . S
C1685 C1686 1.379 . S
C1686 H1670 0.931 . S
C1686 C1680 1.383 . S
C1686 C1685 1.379 . S
H1687 C1681 0.959 1_565 S
H1688 C1681 0.961 . S
H1689 C1681 0.960 . S
H1690 C1682 0.930 . S
H1691 C1683 0.929 . S
H1692 C1700 0.929 . S
H1693 C1702 0.930 . S
H1694 C1704 0.930 . S
H1695 C1707 0.929 . S
H1696 C1710 0.930 . S
H1697 C1712 0.960 . S
H1698 C1712 0.960 . S
H1699 C1712 0.960 . S
C1700 H1692 0.929 . S
C1700 C1701 1.377 . S
C1700 C1702 1.384 . S
C1701 C1700 1.377 . S
C1701 C1707 1.390 . S
C1702 H1693 0.930 . S
C1702 C1700 1.384 . S
C1702 C1703 1.372 . S
C1703 C1702 1.372 . S
C1703 C1704 1.400 . S
C1703 C1708 1.490 . S
C1704 H1694 0.930 . S
C1704 C1703 1.400 . S
C1704 C1707 1.386 . S
H1705 C1721 0.930 . S
H1706 C1722 0.931 . S
C1707 H1695 0.929 . S
C1707 C1701 1.390 . S
C1707 C1704 1.386 . S
C1708 C1703 1.490 . S
C1708 C1710 1.395 . S
C1708 C1711 1.403 . S
H1709 C1715 0.930 . S
C1710 H1696 0.930 . S
C1710 C1708 1.395 . S
C1710 C1713 1.403 . S
C1711 C1708 1.403 . S
C1711 C1712 1.524 . S
C1711 C1715 1.400 . S
C1712 H1697 0.960 . S
C1712 H1698 0.960 . S
C1712 H1699 0.960 . S
C1712 C1711 1.524 . S
C1713 C1710 1.403 . S
C1713 C1714 1.392 . S
C1713 C1717 1.495 . S
C1714 C1713 1.392 . S
C1714 C1715 1.385 . S
C1714 C1716 1.478 . S
C1715 H1709 0.930 . S
C1715 C1711 1.400 . S
C1715 C1714 1.385 . S
C1716 C1714 1.478 . S
C1716 C1718 1.381 . S
C1716 C1722 1.383 . S
C1717 C1713 1.495 . S
C1717 H1723 0.959 . S
C1717 H1724 0.961 . S
C1717 H1725 0.960 . S
C1718 C1716 1.381 . S
C1718 C1719 1.394 . S
C1718 H1726 0.930 . S
C1719 C1718 1.394 . S
C1719 C1720 1.383 . S
C1719 H1727 0.929 . S
C1720 C1719 1.383 . S
C1720 C1721 1.377 . S
C1721 H1705 0.930 . S
C1721 C1720 1.377 . S
C1721 C1722 1.379 . S
C1722 H1706 0.931 . S
C1722 C1716 1.383 . S
C1722 C1721 1.379 . S
H1723 C1717 0.959 . S
H1724 C1717 0.961 . S
H1725 C1717 0.960 . S
H1726 C1718 0.930 . S
H1727 C1719 0.929 . S
H1728 C1736 0.929 . S
H1729 C1738 0.930 . S
H1730 C1740 0.930 . S
H1731 C1743 0.929 . S
H1732 C1746 0.930 . S
H1733 C1748 0.960 . S
H1734 C1748 0.960 . S
H1735 C1748 0.960 . S
C1736 H1728 0.929 . S
C1736 C1737 1.377 . S
C1736 C1738 1.384 . S
C1737 C1736 1.377 . S
C1737 C1743 1.390 . S
C1738 H1729 0.930 . S
C1738 C1736 1.384 . S
C1738 C1739 1.372 . S
C1739 C1738 1.372 . S
C1739 C1740 1.400 . S
C1739 C1744 1.490 . S
C1740 H1730 0.930 . S
C1740 C1739 1.400 . S
C1740 C1743 1.386 . S
H1741 C1757 0.930 . S
H1742 C1758 0.931 . S
C1743 H1731 0.929 . S
C1743 C1737 1.390 . S
C1743 C1740 1.386 . S
C1744 C1739 1.490 . S
C1744 C1746 1.395 1_556 S
C1744 C1747 1.403 1_455 S
H1745 C1751 0.930 . S
C1746 H1732 0.930 . S
C1746 C1744 1.395 1_554 S
C1746 C1749 1.403 . S
C1747 C1744 1.403 1_655 S
C1747 C1748 1.524 . S
C1747 C1751 1.400 . S
C1748 H1733 0.960 . S
C1748 H1734 0.960 . S
C1748 H1735 0.960 . S
C1748 C1747 1.524 . S
C1749 C1746 1.403 . S
C1749 C1750 1.392 1_455 S
C1749 C1753 1.495 . S
C1750 C1749 1.392 1_655 S
C1750 C1751 1.385 1_554 S
C1750 C1752 1.478 . S
C1751 H1745 0.930 . S
C1751 C1747 1.400 . S
C1751 C1750 1.385 1_556 S
C1752 C1750 1.478 . S
C1752 C1754 1.381 . S
C1752 C1758 1.383 . S
C1753 C1749 1.495 . S
C1753 H1759 0.959 . S
C1753 H1760 0.961 . S
C1753 H1761 0.960 . S
C1754 C1752 1.381 . S
C1754 C1755 1.394 . S
C1754 H1762 0.930 . S
C1755 C1754 1.394 . S
C1755 C1756 1.383 . S
C1755 H1763 0.929 . S
C1756 C1755 1.383 . S
C1756 C1757 1.377 . S
C1757 H1741 0.930 . S
C1757 C1756 1.377 . S
C1757 C1758 1.379 . S
C1758 H1742 0.931 . S
C1758 C1752 1.383 . S
C1758 C1757 1.379 . S
H1759 C1753 0.959 . S
H1760 C1753 0.961 . S
H1761 C1753 0.960 . S
H1762 C1754 0.930 . S
H1763 C1755 0.929 . S
H1764 C1772 0.929 . S
H1765 C1774 0.930 . S
H1766 C1776 0.930 . S
H1767 C1779 0.929 . S
H1768 C1782 0.930 . S
H1769 C1784 0.960 . S
H1770 C1784 0.960 . S
H1771 C1784 0.960 . S
C1772 H1764 0.929 . S
C1772 C1773 1.377 . S
C1772 C1774 1.384 . S
C1773 C1772 1.377 . S
C1773 C1779 1.390 . S
C1774 H1765 0.930 . S
C1774 C1772 1.384 . S
C1774 C1775 1.372 . S
C1775 C1774 1.372 . S
C1775 C1776 1.400 . S
C1775 C1780 1.490 . S
C1776 H1766 0.930 . S
C1776 C1775 1.400 . S
C1776 C1779 1.386 . S
H1777 C1793 0.930 . S
H1778 C1794 0.931 . S
C1779 H1767 0.929 . S
C1779 C1773 1.390 . S
C1779 C1776 1.386 . S
C1780 C1775 1.490 . S
C1780 C1782 1.395 1_545 S
C1780 C1783 1.403 . S
H1781 C1787 0.930 . S
C1782 H1768 0.930 . S
C1782 C1780 1.395 1_565 S
C1782 C1785 1.403 . S
C1783 C1780 1.403 . S
C1783 C1784 1.524 . S
C1783 C1787 1.400 . S
C1784 H1769 0.960 . S
C1784 H1770 0.960 . S
C1784 H1771 0.960 . S
C1784 C1783 1.524 . S
C1785 C1782 1.403 . S
C1785 C1786 1.392 . S
C1785 C1789 1.495 . S
C1786 C1785 1.392 . S
C1786 C1787 1.385 1_565 S
C1786 C1788 1.478 . S
C1787 H1781 0.930 . S
C1787 C1783 1.400 . S
C1787 C1786 1.385 1_545 S
C1788 C1786 1.478 . S
C1788 C1790 1.381 . S
C1788 C1794 1.383 . S
C1789 C1785 1.495 . S
C1789 H1795 0.959 . S
C1789 H1796 0.961 . S
C1789 H1797 0.960 . S
C1790 C1788 1.381 . S
C1790 C1791 1.394 . S
C1790 H1798 0.930 . S
C1791 C1790 1.394 . S
C1791 C1792 1.383 . S
C1791 H1799 0.929 . S
C1792 C1791 1.383 . S
C1792 C1793 1.377 . S
C1793 H1777 0.930 . S
C1793 C1792 1.377 . S
C1793 C1794 1.379 . S
C1794 H1778 0.931 . S
C1794 C1788 1.383 . S
C1794 C1793 1.379 . S
H1795 C1789 0.959 . S
H1796 C1789 0.961 . S
H1797 C1789 0.960 . S
H1798 C1790 0.930 . S
H1799 C1791 0.929 . S
H1800 C1808 0.929 . S
H1801 C1810 0.930 . S
H1802 C1812 0.930 . S
H1803 C1815 0.929 . S
H1804 C1818 0.930 . S
H1805 C1820 0.960 . S
H1806 C1820 0.960 . S
H1807 C1820 0.960 . S
C1808 H1800 0.929 . S
C1808 C1809 1.377 . S
C1808 C1810 1.384 . S
C1809 C1808 1.377 . S
C1809 C1815 1.390 . S
C1810 H1801 0.930 . S
C1810 C1808 1.384 . S
C1810 C1811 1.372 . S
C1811 C1810 1.372 . S
C1811 C1812 1.400 . S
C1811 C1816 1.490 . S
C1812 H1802 0.930 . S
C1812 C1811 1.400 . S
C1812 C1815 1.386 . S
H1813 C1829 0.930 . S
H1814 C1830 0.931 . S
C1815 H1803 0.929 . S
C1815 C1809 1.390 . S
C1815 C1812 1.386 . S
C1816 C1811 1.490 . S
C1816 C1818 1.395 1_554 S
C1816 C1819 1.403 . S
H1817 C1823 0.930 . S
C1818 H1804 0.930 . S
C1818 C1816 1.395 1_556 S
C1818 C1821 1.403 . S
C1819 C1816 1.403 . S
C1819 C1820 1.524 . S
C1819 C1823 1.400 . S
C1820 H1805 0.960 . S
C1820 H1806 0.960 . S
C1820 H1807 0.960 . S
C1820 C1819 1.524 . S
C1821 C1818 1.403 . S
C1821 C1822 1.392 . S
C1821 C1825 1.495 . S
C1822 C1821 1.392 . S
C1822 C1823 1.385 1_556 S
C1822 C1824 1.478 . S
C1823 H1817 0.930 . S
C1823 C1819 1.400 . S
C1823 C1822 1.385 1_554 S
C1824 C1822 1.478 . S
C1824 C1826 1.381 . S
C1824 C1830 1.383 . S
C1825 C1821 1.495 . S
C1825 H1831 0.959 . S
C1825 H1832 0.961 . S
C1825 H1833 0.960 . S
C1826 C1824 1.381 . S
C1826 C1827 1.394 . S
C1826 H1834 0.930 . S
C1827 C1826 1.394 . S
C1827 C1828 1.383 . S
C1827 H1835 0.929 . S
C1828 C1827 1.383 . S
C1828 C1829 1.377 . S
C1829 H1813 0.930 . S
C1829 C1828 1.377 . S
C1829 C1830 1.379 . S
C1830 H1814 0.931 . S
C1830 C1824 1.383 . S
C1830 C1829 1.379 . S
H1831 C1825 0.959 . S
H1832 C1825 0.961 . S
H1833 C1825 0.960 . S
H1834 C1826 0.930 . S
H1835 C1827 0.929 . S
H1836 C1844 0.929 . S
H1837 C1846 0.930 . S
H1838 C1848 0.930 . S
H1839 C1851 0.929 . S
H1840 C1854 0.930 . S
H1841 C1856 0.960 . S
H1842 C1856 0.960 1_455 S
H1843 C1856 0.960 . S
C1844 H1836 0.929 . S
C1844 C1845 1.377 . S
C1844 C1846 1.384 . S
C1845 C1844 1.377 . S
C1845 C1851 1.390 . S
C1846 H1837 0.930 . S
C1846 C1844 1.384 . S
C1846 C1847 1.372 . S
C1847 C1846 1.372 . S
C1847 C1848 1.400 . S
C1847 C1852 1.490 . S
C1848 H1838 0.930 . S
C1848 C1847 1.400 . S
C1848 C1851 1.386 . S
H1849 C1865 0.930 . S
H1850 C1866 0.931 . S
C1851 H1839 0.929 . S
C1851 C1845 1.390 . S
C1851 C1848 1.386 . S
C1852 C1847 1.490 . S
C1852 C1854 1.395 . S
C1852 C1855 1.403 1_455 S
H1853 C1859 0.930 . S
C1854 H1840 0.930 . S
C1854 C1852 1.395 . S
C1854 C1857 1.403 . S
C1855 C1852 1.403 1_655 S
C1855 C1856 1.524 . S
C1855 C1859 1.400 . S
C1856 H1841 0.960 . S
C1856 H1842 0.960 1_655 S
C1856 H1843 0.960 . S
C1856 C1855 1.524 . S
C1857 C1854 1.403 . S
C1857 C1858 1.392 1_455 S
C1857 C1861 1.495 . S
C1858 C1857 1.392 1_655 S
C1858 C1859 1.385 . S
C1858 C1860 1.478 . S
C1859 H1853 0.930 . S
C1859 C1855 1.400 . S
C1859 C1858 1.385 . S
C1860 C1858 1.478 . S
C1860 C1862 1.381 . S
C1860 C1866 1.383 . S
C1861 C1857 1.495 . S
C1861 H1867 0.959 . S
C1861 H1868 0.961 . S
C1861 H1869 0.960 . S
C1862 C1860 1.381 . S
C1862 C1863 1.394 . S
C1862 H1870 0.930 . S
C1863 C1862 1.394 . S
C1863 C1864 1.383 . S
C1863 H1871 0.929 . S
C1864 C1863 1.383 . S
C1864 C1865 1.377 . S
C1865 H1849 0.930 . S
C1865 C1864 1.377 . S
C1865 C1866 1.379 . S
C1866 H1850 0.931 . S
C1866 C1860 1.383 . S
C1866 C1865 1.379 . S
H1867 C1861 0.959 . S
H1868 C1861 0.961 . S
H1869 C1861 0.960 . S
H1870 C1862 0.930 . S
H1871 C1863 0.929 . S
H1872 C1880 0.929 . S
H1873 C1882 0.930 . S
H1874 C1884 0.930 . S
H1875 C1887 0.929 . S
H1876 C1890 0.930 . S
H1877 C1892 0.960 . S
H1878 C1892 0.960 . S
H1879 C1892 0.960 . S
C1880 H1872 0.929 . S
C1880 C1881 1.377 . S
C1880 C1882 1.384 . S
C1881 C1880 1.377 . S
C1881 C1887 1.390 . S
C1882 H1873 0.930 . S
C1882 C1880 1.384 . S
C1882 C1883 1.372 . S
C1883 C1882 1.372 . S
C1883 C1884 1.400 . S
C1883 C1888 1.490 . S
C1884 H1874 0.930 . S
C1884 C1883 1.400 . S
C1884 C1887 1.386 . S
H1885 C1901 0.930 . S
H1886 C1902 0.931 . S
C1887 H1875 0.929 . S
C1887 C1881 1.390 . S
C1887 C1884 1.386 . S
C1888 C1883 1.490 . S
C1888 C1890 1.395 . S
C1888 C1891 1.403 . S
H1889 C1895 0.930 . S
C1890 H1876 0.930 . S
C1890 C1888 1.395 . S
C1890 C1893 1.403 . S
C1891 C1888 1.403 . S
C1891 C1892 1.524 . S
C1891 C1895 1.400 . S
C1892 H1877 0.960 . S
C1892 H1878 0.960 . S
C1892 H1879 0.960 . S
C1892 C1891 1.524 . S
C1893 C1890 1.403 . S
C1893 C1894 1.392 . S
C1893 C1897 1.495 . S
C1894 C1893 1.392 . S
C1894 C1895 1.385 . S
C1894 C1896 1.478 . S
C1895 H1889 0.930 . S
C1895 C1891 1.400 . S
C1895 C1894 1.385 . S
C1896 C1894 1.478 . S
C1896 C1898 1.381 . S
C1896 C1902 1.383 . S
C1897 C1893 1.495 . S
C1897 H1903 0.959 . S
C1897 H1904 0.961 . S
C1897 H1905 0.960 . S
C1898 C1896 1.381 . S
C1898 C1899 1.394 . S
C1898 H1906 0.930 . S
C1899 C1898 1.394 . S
C1899 C1900 1.383 . S
C1899 H1907 0.929 . S
C1900 C1899 1.383 . S
C1900 C1901 1.377 . S
C1901 H1885 0.930 . S
C1901 C1900 1.377 . S
C1901 C1902 1.379 . S
C1902 H1886 0.931 . S
C1902 C1896 1.383 . S
C1902 C1901 1.379 . S
H1903 C1897 0.959 . S
H1904 C1897 0.961 . S
H1905 C1897 0.960 . S
H1906 C1898 0.930 . S
H1907 C1899 0.929 . S
H1908 C1916 0.929 . S
H1909 C1918 0.930 . S
H1910 C1920 0.930 . S
H1911 C1923 0.929 . S
H1912 C1926 0.930 . S
H1913 C1928 0.960 . S
H1914 C1928 0.960 . S
H1915 C1928 0.960 . S
C1916 H1908 0.929 . S
C1916 C1917 1.377 . S
C1916 C1918 1.384 . S
C1917 C1916 1.377 . S
C1917 C1923 1.390 . S
C1918 H1909 0.930 . S
C1918 C1916 1.384 . S
C1918 C1919 1.372 . S
C1919 C1918 1.372 . S
C1919 C1920 1.400 . S
C1919 C1924 1.490 . S
C1920 H1910 0.930 . S
C1920 C1919 1.400 . S
C1920 C1923 1.386 . S
H1921 C1937 0.930 . S
H1922 C1938 0.931 . S
C1923 H1911 0.929 . S
C1923 C1917 1.390 . S
C1923 C1920 1.386 . S
C1924 C1919 1.490 . S
C1924 C1926 1.395 . S
C1924 C1927 1.403 . S
H1925 C1931 0.930 . S
C1926 H1912 0.930 . S
C1926 C1924 1.395 . S
C1926 C1929 1.403 . S
C1927 C1924 1.403 . S
C1927 C1928 1.524 . S
C1927 C1931 1.400 . S
C1928 H1913 0.960 . S
C1928 H1914 0.960 . S
C1928 H1915 0.960 . S
C1928 C1927 1.524 . S
C1929 C1926 1.403 . S
C1929 C1930 1.392 . S
C1929 C1933 1.495 . S
C1930 C1929 1.392 . S
C1930 C1931 1.385 . S
C1930 C1932 1.478 . S
C1931 H1925 0.930 . S
C1931 C1927 1.400 . S
C1931 C1930 1.385 . S
C1932 C1930 1.478 . S
C1932 C1934 1.381 . S
C1932 C1938 1.383 . S
C1933 C1929 1.495 . S
C1933 H1939 0.959 . S
C1933 H1940 0.961 . S
C1933 H1941 0.960 . S
C1934 C1932 1.381 . S
C1934 C1935 1.394 . S
C1934 H1942 0.930 . S
C1935 C1934 1.394 . S
C1935 C1936 1.383 . S
C1935 H1943 0.929 . S
C1936 C1935 1.383 . S
C1936 C1937 1.377 . S
C1937 H1921 0.930 . S
C1937 C1936 1.377 . S
C1937 C1938 1.379 . S
C1938 H1922 0.931 . S
C1938 C1932 1.383 . S
C1938 C1937 1.379 . S
H1939 C1933 0.959 . S
H1940 C1933 0.961 . S
H1941 C1933 0.960 . S
H1942 C1934 0.930 . S
H1943 C1935 0.929 . S
H1944 C1952 0.929 . S
H1945 C1954 0.930 . S
H1946 C1956 0.930 . S
H1947 C1959 0.929 . S
H1948 C1962 0.930 . S
H1949 C1964 0.960 . S
H1950 C1964 0.960 . S
H1951 C1964 0.960 . S
C1952 H1944 0.929 . S
C1952 C1953 1.377 . S
C1952 C1954 1.384 . S
C1953 C1952 1.377 . S
C1953 C1959 1.390 . S
C1954 H1945 0.930 . S
C1954 C1952 1.384 . S
C1954 C1955 1.372 . S
C1955 C1954 1.372 . S
C1955 C1956 1.400 . S
C1955 C1960 1.490 . S
C1956 H1946 0.930 . S
C1956 C1955 1.400 . S
C1956 C1959 1.386 . S
H1957 C1973 0.930 . S
H1958 C1974 0.931 . S
C1959 H1947 0.929 . S
C1959 C1953 1.390 . S
C1959 C1956 1.386 . S
C1960 C1955 1.490 . S
C1960 C1962 1.395 . S
C1960 C1963 1.403 . S
H1961 C1967 0.930 . S
C1962 H1948 0.930 . S
C1962 C1960 1.395 . S
C1962 C1965 1.403 . S
C1963 C1960 1.403 . S
C1963 C1964 1.524 . S
C1963 C1967 1.400 . S
C1964 H1949 0.960 . S
C1964 H1950 0.960 . S
C1964 H1951 0.960 . S
C1964 C1963 1.524 . S
C1965 C1962 1.403 . S
C1965 C1966 1.392 . S
C1965 C1969 1.495 . S
C1966 C1965 1.392 . S
C1966 C1967 1.385 . S
C1966 C1968 1.478 . S
C1967 H1961 0.930 . S
C1967 C1963 1.400 . S
C1967 C1966 1.385 . S
C1968 C1966 1.478 . S
C1968 C1970 1.381 . S
C1968 C1974 1.383 . S
C1969 C1965 1.495 . S
C1969 H1975 0.959 . S
C1969 H1976 0.961 . S
C1969 H1977 0.960 . S
C1970 C1968 1.381 . S
C1970 C1971 1.394 . S
C1970 H1978 0.930 . S
C1971 C1970 1.394 . S
C1971 C1972 1.383 . S
C1971 H1979 0.929 . S
C1972 C1971 1.383 . S
C1972 C1973 1.377 . S
C1973 H1957 0.930 . S
C1973 C1972 1.377 . S
C1973 C1974 1.379 . S
C1974 H1958 0.931 . S
C1974 C1968 1.383 . S
C1974 C1973 1.379 . S
H1975 C1969 0.959 . S
H1976 C1969 0.961 . S
H1977 C1969 0.960 . S
H1978 C1970 0.930 . S
H1979 C1971 0.929 . S
H1980 C1988 0.929 . S
H1981 C1990 0.930 . S
H1982 C1992 0.930 . S
H1983 C1995 0.929 . S
H1984 C1998 0.930 . S
H1985 C2000 0.960 . S
H1986 C2000 0.960 . S
H1987 C2000 0.960 . S
C1988 H1980 0.929 . S
C1988 C1989 1.377 . S
C1988 C1990 1.384 . S
C1989 C1988 1.377 . S
C1989 C1995 1.390 . S
C1990 H1981 0.930 . S
C1990 C1988 1.384 . S
C1990 C1991 1.372 . S
C1991 C1990 1.372 . S
C1991 C1992 1.400 . S
C1991 C1996 1.490 . S
C1992 H1982 0.930 . S
C1992 C1991 1.400 . S
C1992 C1995 1.386 . S
H1993 C2009 0.930 . S
H1994 C2010 0.931 . S
C1995 H1983 0.929 . S
C1995 C1989 1.390 . S
C1995 C1992 1.386 . S
C1996 C1991 1.490 . S
C1996 C1998 1.395 . S
C1996 C1999 1.403 . S
H1997 C2003 0.930 . S
C1998 H1984 0.930 . S
C1998 C1996 1.395 . S
C1998 C2001 1.403 . S
C1999 C1996 1.403 . S
C1999 C2000 1.524 . S
C1999 C2003 1.400 . S
C2000 H1985 0.960 . S
C2000 H1986 0.960 . S
C2000 H1987 0.960 . S
C2000 C1999 1.524 . S
C2001 C1998 1.403 . S
C2001 C2002 1.392 . S
C2001 C2005 1.495 . S
C2002 C2001 1.392 . S
C2002 C2003 1.385 . S
C2002 C2004 1.478 . S
C2003 H1997 0.930 . S
C2003 C1999 1.400 . S
C2003 C2002 1.385 . S
C2004 C2002 1.478 . S
C2004 C2006 1.381 . S
C2004 C2010 1.383 . S
C2005 C2001 1.495 . S
C2005 H2011 0.959 . S
C2005 H2012 0.961 . S
C2005 H2013 0.960 . S
C2006 C2004 1.381 . S
C2006 C2007 1.394 . S
C2006 H2014 0.930 . S
C2007 C2006 1.394 . S
C2007 C2008 1.383 . S
C2007 H2015 0.929 . S
C2008 C2007 1.383 . S
C2008 C2009 1.377 . S
C2009 H1993 0.930 . S
C2009 C2008 1.377 . S
C2009 C2010 1.379 . S
C2010 H1994 0.931 . S
C2010 C2004 1.383 . S
C2010 C2009 1.379 . S
H2011 C2005 0.959 . S
H2012 C2005 0.961 . S
H2013 C2005 0.960 . S
H2014 C2006 0.930 . S
H2015 C2007 0.929 . S
H2016 C2024 0.929 . S
H2017 C2026 0.930 . S
H2018 C2028 0.930 . S
H2019 C2031 0.929 . S
H2020 C2034 0.930 . S
H2021 C2036 0.960 . S
H2022 C2036 0.960 . S
H2023 C2036 0.960 . S
C2024 H2016 0.929 . S
C2024 C2025 1.377 . S
C2024 C2026 1.384 . S
C2025 C2024 1.377 . S
C2025 C2031 1.390 . S
C2026 H2017 0.930 . S
C2026 C2024 1.384 . S
C2026 C2027 1.372 . S
C2027 C2026 1.372 . S
C2027 C2028 1.400 . S
C2027 C2032 1.490 . S
C2028 H2018 0.930 . S
C2028 C2027 1.400 . S
C2028 C2031 1.386 . S
H2029 C2045 0.930 . S
H2030 C2046 0.931 . S
C2031 H2019 0.929 . S
C2031 C2025 1.390 . S
C2031 C2028 1.386 . S
C2032 C2027 1.490 . S
C2032 C2034 1.395 . S
C2032 C2035 1.403 . S
H2033 C2039 0.930 . S
C2034 H2020 0.930 . S
C2034 C2032 1.395 . S
C2034 C2037 1.403 . S
C2035 C2032 1.403 . S
C2035 C2036 1.524 . S
C2035 C2039 1.400 . S
C2036 H2021 0.960 . S
C2036 H2022 0.960 . S
C2036 H2023 0.960 . S
C2036 C2035 1.524 . S
C2037 C2034 1.403 . S
C2037 C2038 1.392 . S
C2037 C2041 1.495 . S
C2038 C2037 1.392 . S
C2038 C2039 1.385 . S
C2038 C2040 1.478 . S
C2039 H2033 0.930 . S
C2039 C2035 1.400 . S
C2039 C2038 1.385 . S
C2040 C2038 1.478 . S
C2040 C2042 1.381 . S
C2040 C2046 1.383 . S
C2041 C2037 1.495 . S
C2041 H2047 0.959 . S
C2041 H2048 0.961 . S
C2041 H2049 0.960 . S
C2042 C2040 1.381 . S
C2042 C2043 1.394 . S
C2042 H2050 0.930 . S
C2043 C2042 1.394 . S
C2043 C2044 1.383 . S
C2043 H2051 0.929 . S
C2044 C2043 1.383 . S
C2044 C2045 1.377 . S
C2045 H2029 0.930 . S
C2045 C2044 1.377 . S
C2045 C2046 1.379 . S
C2046 H2030 0.931 . S
C2046 C2040 1.383 . S
C2046 C2045 1.379 . S
H2047 C2041 0.959 . S
H2048 C2041 0.961 . S
H2049 C2041 0.960 . S
H2050 C2042 0.930 . S
H2051 C2043 0.929 . S
H2052 C2060 0.929 . S
H2053 C2062 0.930 . S
H2054 C2064 0.930 . S
H2055 C2067 0.929 . S
H2056 C2070 0.930 . S
H2057 C2072 0.960 . S
H2058 C2072 0.960 . S
H2059 C2072 0.960 . S
C2060 H2052 0.929 . S
C2060 C2061 1.377 . S
C2060 C2062 1.384 . S
C2061 C2060 1.377 . S
C2061 C2067 1.390 . S
C2062 H2053 0.930 . S
C2062 C2060 1.384 . S
C2062 C2063 1.372 . S
C2063 C2062 1.372 . S
C2063 C2064 1.400 . S
C2063 C2068 1.490 . S
C2064 H2054 0.930 . S
C2064 C2063 1.400 . S
C2064 C2067 1.386 . S
H2065 C2081 0.930 . S
H2066 C2082 0.931 . S
C2067 H2055 0.929 . S
C2067 C2061 1.390 . S
C2067 C2064 1.386 . S
C2068 C2063 1.490 . S
C2068 C2070 1.395 . S
C2068 C2071 1.403 . S
H2069 C2075 0.930 . S
C2070 H2056 0.930 . S
C2070 C2068 1.395 . S
C2070 C2073 1.403 . S
C2071 C2068 1.403 . S
C2071 C2072 1.524 . S
C2071 C2075 1.400 . S
C2072 H2057 0.960 . S
C2072 H2058 0.960 . S
C2072 H2059 0.960 . S
C2072 C2071 1.524 . S
C2073 C2070 1.403 . S
C2073 C2074 1.392 . S
C2073 C2077 1.495 . S
C2074 C2073 1.392 . S
C2074 C2075 1.385 . S
C2074 C2076 1.478 . S
C2075 H2069 0.930 . S
C2075 C2071 1.400 . S
C2075 C2074 1.385 . S
C2076 C2074 1.478 . S
C2076 C2078 1.381 . S
C2076 C2082 1.383 . S
C2077 C2073 1.495 . S
C2077 H2083 0.959 . S
C2077 H2084 0.961 . S
C2077 H2085 0.960 . S
C2078 C2076 1.381 . S
C2078 C2079 1.394 . S
C2078 H2086 0.930 . S
C2079 C2078 1.394 . S
C2079 C2080 1.383 . S
C2079 H2087 0.929 . S
C2080 C2079 1.383 . S
C2080 C2081 1.377 . S
C2081 H2065 0.930 . S
C2081 C2080 1.377 . S
C2081 C2082 1.379 . S
C2082 H2066 0.931 . S
C2082 C2076 1.383 . S
C2082 C2081 1.379 . S
H2083 C2077 0.959 . S
H2084 C2077 0.961 . S
H2085 C2077 0.960 . S
H2086 C2078 0.930 . S
H2087 C2079 0.929 . S
H2088 C2096 0.929 . S
H2089 C2098 0.930 . S
H2090 C2100 0.930 . S
H2091 C2103 0.929 . S
H2092 C2106 0.930 . S
H2093 C2108 0.960 . S
H2094 C2108 0.960 . S
H2095 C2108 0.960 . S
C2096 H2088 0.929 . S
C2096 C2097 1.377 . S
C2096 C2098 1.384 . S
C2097 C2096 1.377 . S
C2097 C2103 1.390 . S
C2098 H2089 0.930 . S
C2098 C2096 1.384 . S
C2098 C2099 1.372 . S
C2099 C2098 1.372 . S
C2099 C2100 1.400 . S
C2099 C2104 1.490 . S
C2100 H2090 0.930 . S
C2100 C2099 1.400 . S
C2100 C2103 1.386 . S
H2101 C2117 0.930 . S
H2102 C2118 0.931 . S
C2103 H2091 0.929 . S
C2103 C2097 1.390 . S
C2103 C2100 1.386 . S
C2104 C2099 1.490 . S
C2104 C2106 1.395 . S
C2104 C2107 1.403 . S
H2105 C2111 0.930 . S
C2106 H2092 0.930 . S
C2106 C2104 1.395 . S
C2106 C2109 1.403 . S
C2107 C2104 1.403 . S
C2107 C2108 1.524 . S
C2107 C2111 1.400 . S
C2108 H2093 0.960 . S
C2108 H2094 0.960 . S
C2108 H2095 0.960 . S
C2108 C2107 1.524 . S
C2109 C2106 1.403 . S
C2109 C2110 1.392 . S
C2109 C2113 1.495 . S
C2110 C2109 1.392 . S
C2110 C2111 1.385 . S
C2110 C2112 1.478 . S
C2111 H2105 0.930 . S
C2111 C2107 1.400 . S
C2111 C2110 1.385 . S
C2112 C2110 1.478 . S
C2112 C2114 1.381 . S
C2112 C2118 1.383 . S
C2113 C2109 1.495 . S
C2113 H2119 0.959 . S
C2113 H2120 0.961 . S
C2113 H2121 0.960 . S
C2114 C2112 1.381 . S
C2114 C2115 1.394 . S
C2114 H2122 0.930 . S
C2115 C2114 1.394 . S
C2115 C2116 1.383 . S
C2115 H2123 0.929 . S
C2116 C2115 1.383 . S
C2116 C2117 1.377 . S
C2117 H2101 0.930 . S
C2117 C2116 1.377 . S
C2117 C2118 1.379 . S
C2118 H2102 0.931 . S
C2118 C2112 1.383 . S
C2118 C2117 1.379 . S
H2119 C2113 0.959 . S
H2120 C2113 0.961 . S
H2121 C2113 0.960 . S
H2122 C2114 0.930 . S
H2123 C2115 0.929 . S
H2124 C2132 0.929 . S
H2125 C2134 0.930 . S
H2126 C2136 0.930 . S
H2127 C2139 0.929 . S
H2128 C2142 0.930 . S
H2129 C2144 0.960 . S
H2130 C2144 0.960 . S
H2131 C2144 0.960 . S
C2132 H2124 0.929 . S
C2132 C2133 1.377 . S
C2132 C2134 1.384 . S
C2133 C2132 1.377 . S
C2133 C2139 1.390 . S
C2134 H2125 0.930 . S
C2134 C2132 1.384 . S
C2134 C2135 1.372 . S
C2135 C2134 1.372 . S
C2135 C2136 1.400 . S
C2135 C2140 1.490 . S
C2136 H2126 0.930 . S
C2136 C2135 1.400 . S
C2136 C2139 1.386 . S
H2137 C2153 0.930 . S
H2138 C2154 0.931 . S
C2139 H2127 0.929 . S
C2139 C2133 1.390 . S
C2139 C2136 1.386 . S
C2140 C2135 1.490 . S
C2140 C2142 1.395 . S
C2140 C2143 1.403 . S
H2141 C2147 0.930 . S
C2142 H2128 0.930 . S
C2142 C2140 1.395 . S
C2142 C2145 1.403 . S
C2143 C2140 1.403 . S
C2143 C2144 1.524 . S
C2143 C2147 1.400 . S
C2144 H2129 0.960 . S
C2144 H2130 0.960 . S
C2144 H2131 0.960 . S
C2144 C2143 1.524 . S
C2145 C2142 1.403 . S
C2145 C2146 1.392 . S
C2145 C2149 1.495 . S
C2146 C2145 1.392 . S
C2146 C2147 1.385 . S
C2146 C2148 1.478 . S
C2147 H2141 0.930 . S
C2147 C2143 1.400 . S
C2147 C2146 1.385 . S
C2148 C2146 1.478 . S
C2148 C2150 1.381 . S
C2148 C2154 1.383 . S
C2149 C2145 1.495 . S
C2149 H2155 0.959 . S
C2149 H2156 0.961 . S
C2149 H2157 0.960 . S
C2150 C2148 1.381 . S
C2150 C2151 1.394 . S
C2150 H2158 0.930 . S
C2151 C2150 1.394 . S
C2151 C2152 1.383 . S
C2151 H2159 0.929 . S
C2152 C2151 1.383 . S
C2152 C2153 1.377 . S
C2153 H2137 0.930 . S
C2153 C2152 1.377 . S
C2153 C2154 1.379 . S
C2154 H2138 0.931 . S
C2154 C2148 1.383 . S
C2154 C2153 1.379 . S
H2155 C2149 0.959 . S
H2156 C2149 0.961 . S
H2157 C2149 0.960 . S
H2158 C2150 0.930 . S
H2159 C2151 0.929 . S
H2160 C2168 0.929 . S
H2161 C2170 0.930 . S
H2162 C2172 0.930 . S
H2163 C2175 0.929 . S
H2164 C2178 0.930 . S
H2165 C2180 0.960 . S
H2166 C2180 0.960 . S
H2167 C2180 0.960 . S
C2168 H2160 0.929 . S
C2168 C2169 1.377 . S
C2168 C2170 1.384 . S
C2169 C2168 1.377 . S
C2169 C2175 1.390 . S
C2170 H2161 0.930 . S
C2170 C2168 1.384 . S
C2170 C2171 1.372 . S
C2171 C2170 1.372 . S
C2171 C2172 1.400 . S
C2171 C2176 1.490 . S
C2172 H2162 0.930 . S
C2172 C2171 1.400 . S
C2172 C2175 1.386 . S
H2173 C2189 0.930 . S
H2174 C2190 0.931 . S
C2175 H2163 0.929 . S
C2175 C2169 1.390 . S
C2175 C2172 1.386 . S
C2176 C2171 1.490 . S
C2176 C2178 1.395 . S
C2176 C2179 1.403 . S
H2177 C2183 0.930 . S
C2178 H2164 0.930 . S
C2178 C2176 1.395 . S
C2178 C2181 1.403 . S
C2179 C2176 1.403 . S
C2179 C2180 1.524 . S
C2179 C2183 1.400 . S
C2180 H2165 0.960 . S
C2180 H2166 0.960 . S
C2180 H2167 0.960 . S
C2180 C2179 1.524 . S
C2181 C2178 1.403 . S
C2181 C2182 1.392 . S
C2181 C2185 1.495 . S
C2182 C2181 1.392 . S
C2182 C2183 1.385 . S
C2182 C2184 1.478 . S
C2183 H2177 0.930 . S
C2183 C2179 1.400 . S
C2183 C2182 1.385 . S
C2184 C2182 1.478 . S
C2184 C2186 1.381 . S
C2184 C2190 1.383 . S
C2185 C2181 1.495 . S
C2185 H2191 0.959 . S
C2185 H2192 0.961 . S
C2185 H2193 0.960 . S
C2186 C2184 1.381 . S
C2186 C2187 1.394 . S
C2186 H2194 0.930 . S
C2187 C2186 1.394 . S
C2187 C2188 1.383 . S
C2187 H2195 0.929 . S
C2188 C2187 1.383 . S
C2188 C2189 1.377 . S
C2189 H2173 0.930 . S
C2189 C2188 1.377 . S
C2189 C2190 1.379 . S
C2190 H2174 0.931 . S
C2190 C2184 1.383 . S
C2190 C2189 1.379 . S
H2191 C2185 0.959 . S
H2192 C2185 0.961 . S
H2193 C2185 0.960 . S
H2194 C2186 0.930 . S
H2195 C2187 0.929 . S
H2196 C2204 0.929 . S
H2197 C2206 0.930 . S
H2198 C2208 0.930 . S
H2199 C2211 0.929 . S
H2200 C2214 0.930 . S
H2201 C2216 0.960 . S
H2202 C2216 0.960 . S
H2203 C2216 0.960 . S
C2204 H2196 0.929 . S
C2204 C2205 1.377 . S
C2204 C2206 1.384 . S
C2205 C2204 1.377 . S
C2205 C2211 1.390 . S
C2206 H2197 0.930 . S
C2206 C2204 1.384 . S
C2206 C2207 1.372 . S
C2207 C2206 1.372 . S
C2207 C2208 1.400 . S
C2207 C2212 1.490 . S
C2208 H2198 0.930 . S
C2208 C2207 1.400 . S
C2208 C2211 1.386 . S
H2209 C2225 0.930 . S
H2210 C2226 0.931 . S
C2211 H2199 0.929 . S
C2211 C2205 1.390 . S
C2211 C2208 1.386 . S
C2212 C2207 1.490 . S
C2212 C2214 1.395 . S
C2212 C2215 1.403 . S
H2213 C2219 0.930 . S
C2214 H2200 0.930 . S
C2214 C2212 1.395 . S
C2214 C2217 1.403 . S
C2215 C2212 1.403 . S
C2215 C2216 1.524 . S
C2215 C2219 1.400 . S
C2216 H2201 0.960 . S
C2216 H2202 0.960 . S
C2216 H2203 0.960 . S
C2216 C2215 1.524 . S
C2217 C2214 1.403 . S
C2217 C2218 1.392 . S
C2217 C2221 1.495 . S
C2218 C2217 1.392 . S
C2218 C2219 1.385 . S
C2218 C2220 1.478 . S
C2219 H2213 0.930 . S
C2219 C2215 1.400 . S
C2219 C2218 1.385 . S
C2220 C2218 1.478 . S
C2220 C2222 1.381 . S
C2220 C2226 1.383 . S
C2221 C2217 1.495 . S
C2221 H2227 0.959 . S
C2221 H2228 0.961 . S
C2221 H2229 0.960 . S
C2222 C2220 1.381 . S
C2222 C2223 1.394 . S
C2222 H2230 0.930 . S
C2223 C2222 1.394 . S
C2223 C2224 1.383 . S
C2223 H2231 0.929 . S
C2224 C2223 1.383 . S
C2224 C2225 1.377 . S
C2225 H2209 0.930 . S
C2225 C2224 1.377 . S
C2225 C2226 1.379 . S
C2226 H2210 0.931 . S
C2226 C2220 1.383 . S
C2226 C2225 1.379 . S
H2227 C2221 0.959 . S
H2228 C2221 0.961 . S
H2229 C2221 0.960 . S
H2230 C2222 0.930 . S
H2231 C2223 0.929 . S
H2232 C2240 0.929 . S
H2233 C2242 0.930 . S
H2234 C2244 0.930 . S
H2235 C2247 0.929 . S
H2236 C2250 0.930 . S
H2237 C2252 0.960 . S
H2238 C2252 0.960 . S
H2239 C2252 0.960 . S
C2240 H2232 0.929 . S
C2240 C2241 1.377 . S
C2240 C2242 1.384 . S
C2241 C2240 1.377 . S
C2241 C2247 1.390 . S
C2242 H2233 0.930 . S
C2242 C2240 1.384 . S
C2242 C2243 1.372 . S
C2243 C2242 1.372 . S
C2243 C2244 1.400 . S
C2243 C2248 1.490 . S
C2244 H2234 0.930 . S
C2244 C2243 1.400 . S
C2244 C2247 1.386 . S
H2245 C2261 0.930 . S
H2246 C2262 0.931 . S
C2247 H2235 0.929 . S
C2247 C2241 1.390 . S
C2247 C2244 1.386 . S
C2248 C2243 1.490 . S
C2248 C2250 1.395 . S
C2248 C2251 1.403 . S
H2249 C2255 0.930 . S
C2250 H2236 0.930 . S
C2250 C2248 1.395 . S
C2250 C2253 1.403 . S
C2251 C2248 1.403 . S
C2251 C2252 1.524 . S
C2251 C2255 1.400 . S
C2252 H2237 0.960 . S
C2252 H2238 0.960 . S
C2252 H2239 0.960 . S
C2252 C2251 1.524 . S
C2253 C2250 1.403 . S
C2253 C2254 1.392 . S
C2253 C2257 1.495 . S
C2254 C2253 1.392 . S
C2254 C2255 1.385 . S
C2254 C2256 1.478 . S
C2255 H2249 0.930 . S
C2255 C2251 1.400 . S
C2255 C2254 1.385 . S
C2256 C2254 1.478 . S
C2256 C2258 1.381 . S
C2256 C2262 1.383 . S
C2257 C2253 1.495 . S
C2257 H2263 0.959 . S
C2257 H2264 0.961 . S
C2257 H2265 0.960 . S
C2258 C2256 1.381 . S
C2258 C2259 1.394 . S
C2258 H2266 0.930 . S
C2259 C2258 1.394 . S
C2259 C2260 1.383 . S
C2259 H2267 0.929 . S
C2260 C2259 1.383 . S
C2260 C2261 1.377 . S
C2261 H2245 0.930 . S
C2261 C2260 1.377 . S
C2261 C2262 1.379 . S
C2262 H2246 0.931 . S
C2262 C2256 1.383 . S
C2262 C2261 1.379 . S
H2263 C2257 0.959 . S
H2264 C2257 0.961 . S
H2265 C2257 0.960 . S
H2266 C2258 0.930 . S
H2267 C2259 0.929 . S
H2268 C2276 0.929 . S
H2269 C2278 0.930 . S
H2270 C2280 0.930 . S
H2271 C2283 0.929 . S
H2272 C2286 0.930 . S
H2273 C2288 0.960 . S
H2274 C2288 0.960 . S
H2275 C2288 0.960 . S
C2276 H2268 0.929 . S
C2276 C2277 1.377 . S
C2276 C2278 1.384 . S
C2277 C2276 1.377 . S
C2277 C2283 1.390 . S
C2278 H2269 0.930 . S
C2278 C2276 1.384 . S
C2278 C2279 1.372 . S
C2279 C2278 1.372 . S
C2279 C2280 1.400 . S
C2279 C2284 1.490 . S
C2280 H2270 0.930 . S
C2280 C2279 1.400 . S
C2280 C2283 1.386 . S
H2281 C2297 0.930 . S
H2282 C2298 0.931 . S
C2283 H2271 0.929 . S
C2283 C2277 1.390 . S
C2283 C2280 1.386 . S
C2284 C2279 1.490 . S
C2284 C2286 1.395 . S
C2284 C2287 1.403 . S
H2285 C2291 0.930 . S
C2286 H2272 0.930 . S
C2286 C2284 1.395 . S
C2286 C2289 1.403 . S
C2287 C2284 1.403 . S
C2287 C2288 1.524 . S
C2287 C2291 1.400 . S
C2288 H2273 0.960 . S
C2288 H2274 0.960 . S
C2288 H2275 0.960 . S
C2288 C2287 1.524 . S
C2289 C2286 1.403 . S
C2289 C2290 1.392 . S
C2289 C2293 1.495 . S
C2290 C2289 1.392 . S
C2290 C2291 1.385 . S
C2290 C2292 1.478 . S
C2291 H2285 0.930 . S
C2291 C2287 1.400 . S
C2291 C2290 1.385 . S
C2292 C2290 1.478 . S
C2292 C2294 1.381 . S
C2292 C2298 1.383 . S
C2293 C2289 1.495 . S
C2293 H2299 0.959 . S
C2293 H2300 0.961 . S
C2293 H2301 0.960 . S
C2294 C2292 1.381 . S
C2294 C2295 1.394 . S
C2294 H2302 0.930 . S
C2295 C2294 1.394 . S
C2295 C2296 1.383 . S
C2295 H2303 0.929 . S
C2296 C2295 1.383 . S
C2296 C2297 1.377 . S
C2297 H2281 0.930 . S
C2297 C2296 1.377 . S
C2297 C2298 1.379 . S
C2298 H2282 0.931 . S
C2298 C2292 1.383 . S
C2298 C2297 1.379 . S
H2299 C2293 0.959 . S
H2300 C2293 0.961 . S
H2301 C2293 0.960 . S
H2302 C2294 0.930 . S
H2303 C2295 0.929 . S
C1017 C226 1.074 . S
C1036 C55 1.211 . S
C1053 C322 1.097 . S
C1072 C151 1.227 . S
C1089 C223 1.225 . S
C1108 C394 1.097 . S
C1125 C319 1.221 . S
C1144 C490 1.054 . S
C1161 C58 1.073 . S
C1180 C391 1.217 . S
C1197 C154 1.080 . S
C1216 C487 1.228 . S
C1233 C910 1.073 . S
C1252 C571 1.212 . S
C1269 C643 1.224 . S
C1288 C982 1.060 . S
C1305 C739 1.225 . S
C1324 C574 1.087 . S
C1341 C811 1.221 . S
C1360 C646 1.040 . S
C1377 C907 1.220 . S
C1396 C742 1.072 . S
C1413 C814 1.090 . S
C1432 C979 1.214 . S
C1449 C320 1.965 . S
C1468 C56 1.960 . S
C1485 C152 1.964 . S
C1504 C392 1.933 . S
C1521 C224 1.960 . S
C1540 C488 1.980 . S
C1557 C572 1.958 . S
C1576 C812 1.949 . S
C1593 C644 1.958 . S
C1612 C908 1.949 . S
C1629 C740 1.960 . S
C1648 C980 1.980 . S
C1665 C656 2.163 . S
C1684 C68 2.146 . S
C1701 C140 2.159 . S
C1720 C728 2.160 . S
C1737 C824 2.162 . S
C1756 C236 2.146 . S
C1773 C308 2.163 . S
C1792 C896 2.162 . S
C1809 C404 2.161 . S
C1828 C992 2.151 . S
C1845 C560 2.159 . S
C1864 C476 2.157 . S
C1881 C238 1.233 . S
C1900 C67 1.400 . S
C1917 C139 1.404 . S
C1936 C310 1.279 . S
C1953 C235 1.406 . S
C1972 C406 1.215 . S
C1989 C307 1.404 . S
C2008 C478 1.245 . S
C2025 C70 1.235 . S
C2044 C403 1.410 . S
C2061 C142 1.240 . S
C2080 C475 1.401 . S
C2097 C898 1.254 . S
C2116 C559 1.413 . S
C2133 C655 1.405 . S
C2152 C994 1.279 . S
C2169 C727 1.404 . S
C2188 C562 1.235 . S
C2205 C658 1.234 . S
C2224 C823 1.408 . S
C2241 C895 1.404 . S
C2260 C730 1.230 . S
C2277 C991 1.406 . S
C2296 C826 1.261 . S
