# Generated by pormake.
# Topology sxb, (6)-cn, num edge types: 1
# Building blocks:
#     Node 0, Type 0, BuildingBlock: PAMTUU_clean_sbu_0, # of connection points: 6
#     Node 1, Type 0, BuildingBlock: PAMTUU_clean_sbu_0, # of connection points: 6
#     Node 2, Type 0, BuildingBlock: PAMTUU_clean_sbu_0, # of connection points: 6
#     Node 3, Type 0, BuildingBlock: PAMTUU_clean_sbu_0, # of connection points: 6
#     Edge 4, Type (0, 0), BuildingBlock: MIFKUJ_clean_linker_0, # of connection points: 2
#     Edge 5, Type (0, 0), BuildingBlock: MIFKUJ_clean_linker_0, # of connection points: 2
#     Edge 6, Type (0, 0), BuildingBlock: MIFKUJ_clean_linker_0, # of connection points: 2
#     Edge 7, Type (0, 0), BuildingBlock: MIFKUJ_clean_linker_0, # of connection points: 2
#     Edge 8, Type (0, 0), BuildingBlock: MIFKUJ_clean_linker_0, # of connection points: 2
#     Edge 9, Type (0, 0), BuildingBlock: MIFKUJ_clean_linker_0, # of connection points: 2
#     Edge 10, Type (0, 0), BuildingBlock: MIFKUJ_clean_linker_0, # of connection points: 2
#     Edge 11, Type (0, 0), BuildingBlock: MIFKUJ_clean_linker_0, # of connection points: 2
#     Edge 12, Type (0, 0), BuildingBlock: MIFKUJ_clean_linker_0, # of connection points: 2
#     Edge 13, Type (0, 0), BuildingBlock: MIFKUJ_clean_linker_0, # of connection points: 2
#     Edge 14, Type (0, 0), BuildingBlock: MIFKUJ_clean_linker_0, # of connection points: 2
#     Edge 15, Type (0, 0), BuildingBlock: MIFKUJ_clean_linker_0, # of connection points: 2
# Relax obj value: 0.072
# Max RMSD: 0.146
# Mean RMSD: 0.146
data_MOF--net-sxb--node1-PAMTUU_clean_sbu_0--edge1-MIFKUJ_clean_linker_0
_symmetry_space_group_name_H-M    P1
_symmetry_Int_Tables_number       1
_symmetry_cell_setting            triclinic
loop_
_symmetry_equiv_pos_as_xyz
'x, y, z'
_cell_length_a     29.1533
_cell_length_b     25.464461
_cell_length_c     39.208406
_cell_angle_alpha  90.225687
_cell_angle_beta   99.505438
_cell_angle_gamma 90.220387
loop_
_atom_site_label
_atom_site_type_symbol
_atom_site_fract_x
_atom_site_fract_y
_atom_site_fract_z
_atom_type_partial_charge
Tb0 Tb 0.06714 0.04464 -0.00017 0.0
Tb1 Tb 0.9777 0.96175 0.98829 0.0
C2 C 0.02189 0.0017 0.06041 0.0
C3 C 0.19003 0.08473 0.00717 0.0
C4 C 0.28321 0.05498 0.00511 0.0
C5 C 0.27171 0.08332 0.03346 0.0
C6 C 0.22574 0.09816 0.03437 0.0
C7 C 0.20114 0.05592 0.97898 0.0
C8 C 0.24719 0.04148 0.97788 0.0
C9 C 0.14131 0.09831 0.00958 0.0
O10 O 0.09261 0.97121 0.98404 0.0
O11 O 0.04018 0.91373 0.00153 0.0
O12 O 1.00627 0.96175 0.94072 0.0
O13 O 0.03606 0.0455 0.94522 0.0
O14 O 0.93836 0.90311 0.00798 0.0
O15 O 0.91822 0.93241 0.95611 0.0
O16 O 0.95174 0.04019 0.97471 0.0
O17 O 1.00811 0.09211 0.00698 0.0
O18 O 0.06108 0.00602 0.04836 0.0
O19 O 0.98241 0.99673 0.03923 0.0
C20 C 0.08097 0.92405 0.99269 0.0
O21 O 0.11152 0.09865 0.98089 0.0
O22 O 0.12414 0.07528 0.03425 0.0
C23 C 0.02076 0.00401 0.92658 0.0
C24 C 0.8572 0.90885 0.98582 0.0
C25 C 0.76286 0.924 0.99248 0.0
C26 C 0.77475 0.90243 0.96204 0.0
C27 C 0.82135 0.89495 0.9588 0.0
C28 C 0.84554 0.92922 0.01666 0.0
C29 C 0.79883 0.9365 0.01999 0.0
C30 C 0.90612 0.90358 0.98056 0.0
C31 C 0.96617 0.08521 0.98932 0.0
H32 H 0.29811 0.09344 0.05531 0.0
H33 H 0.21795 0.1196 0.05663 0.0
H34 H 0.17424 0.04429 0.9578 0.0
H35 H 0.25451 0.0202 0.95545 0.0
H36 H 0.7481 0.893 0.94019 0.0
H37 H 0.82947 0.87929 0.93476 0.0
H38 H 0.87244 0.94043 0.03794 0.0
H39 H 0.7909 0.95271 0.04391 0.0
Tb40 Tb 0.96044 0.06442 0.48604 0.0
Tb41 Tb 0.04931 0.98075 0.49792 0.0
C42 C 1.01083 0.02736 0.42599 0.0
C43 C 0.83964 0.11186 0.48055 0.0
C44 C 0.74491 0.09072 0.48316 0.0
C45 C 0.75946 0.14137 0.47515 0.0
C46 C 0.8064 0.15175 0.47373 0.0
C47 C 0.82537 0.06155 0.48902 0.0
C48 C 0.77854 0.051 0.49017 0.0
C49 C 0.88892 0.12247 0.47846 0.0
O50 O 0.93081 0.98796 0.492 0.0
O51 O 0.98835 0.93195 0.47979 0.0
O52 O 1.01472 0.97344 0.54252 0.0
O53 O 0.9866 0.05741 0.54117 0.0
O54 O 0.09222 0.92639 0.47778 0.0
O55 O 0.1068 0.95043 0.53124 0.0
O56 O 0.07366 0.05773 0.517 0.0
O57 O 0.02193 0.11165 0.48326 0.0
O58 O 0.9704 0.03399 0.4359 0.0
O59 O 0.04854 0.01938 0.44859 0.0
C60 C 0.94495 0.9417 0.48324 0.0
O61 O 0.91807 0.11816 0.50724 0.0
O62 O 0.9048 0.09962 0.45309 0.0
C63 C 0.99917 0.01385 0.55796 0.0
C64 C 0.17107 0.9369 0.50318 0.0
C65 C 0.26545 0.95964 0.50015 0.0
C66 C 0.25126 0.90818 0.50656 0.0
C67 C 0.20451 0.89699 0.50816 0.0
C68 C 0.18487 0.98808 0.49622 0.0
C69 C 0.23154 -0.00073 0.49478 0.0
C70 C 0.12229 0.92554 0.50638 0.0
C71 C 0.06262 0.10337 0.50251 0.0
H72 H 0.73444 0.17274 0.46937 0.0
H73 H 0.8167 0.19086 0.46715 0.0
H74 H 0.85047 0.03035 0.49477 0.0
H75 H 0.76874 0.0118 0.49694 0.0
H76 H 0.27644 0.87677 0.51112 0.0
H77 H 0.19455 0.85728 0.51368 0.0
H78 H 0.15959 0.01949 0.4922 0.0
H79 H 0.24119 0.03896 0.48932 0.0
Tb80 Tb 0.55823 0.5263 0.00046 0.0
Tb81 Tb 0.46918 0.44245 0.99202 0.0
C82 C 0.5217 0.47937 0.06384 0.0
C83 C 0.6784 0.58145 0.00085 0.0
C84 C 0.77304 0.56996 0.9931 0.0
C85 C 0.76095 0.58461 0.02512 0.0
C86 C 0.71431 0.59027 0.02889 0.0
C87 C 0.69022 0.56858 0.96848 0.0
C88 C 0.73698 0.56309 0.96464 0.0
C89 C 0.62933 0.58535 0.00637 0.0
O90 O 0.58637 0.448 0.01105 0.0
O91 O 0.52743 0.39535 0.98225 0.0
O92 O 0.46978 0.48376 0.94347 0.0
O93 O 0.54833 0.49281 0.94878 0.0
O94 O 0.42225 0.39676 0.01478 0.0
O95 O 0.41537 0.40238 0.95956 0.0
O96 O 0.4448 0.51601 0.00891 0.0
O97 O 0.49549 0.57448 0.99021 0.0
O98 O 0.53332 0.52296 0.04957 0.0
O99 O 0.50668 0.43806 0.04492 0.0
C100 C 0.5708 0.40297 -0.00297 0.0
O101 O 0.59661 0.58444 0.97925 0.0
O102 O 0.61813 0.55707 0.03141 0.0
C103 C 0.50737 0.48846 0.92934 0.0
C104 C 0.34629 0.40171 0.98368 0.0
C105 C 0.25247 0.42968 0.9842 0.0
C106 C 0.26546 0.37656 0.98272 0.0
C107 C 0.31199 0.36274 0.98267 0.0
C108 C 0.33338 0.45468 0.98447 0.0
C109 C 0.28713 0.46855 0.98509 0.0
C110 C 0.39563 0.38727 0.98536 0.0
C111 C 0.45565 0.56352 0.00037 0.0
H112 H 0.78737 0.58964 0.04778 0.0
H113 H 0.70623 0.6005 0.05408 0.0
H114 H 0.66341 0.56191 0.94624 0.0
H115 H 0.7448 0.55277 0.93941 0.0
H116 H 0.23983 0.3456 0.98239 0.0
H117 H 0.32124 0.32161 0.98219 0.0
H118 H 0.35917 0.48537 0.98482 0.0
H119 H 0.27856 0.50978 0.98604 0.0
Tb120 Tb 0.4846 0.52091 0.48963 0.0
Tb121 Tb 0.57393 0.43899 0.50778 0.0
C122 C 0.53888 0.48256 0.43262 0.0
C123 C 0.36198 0.56389 0.48105 0.0
C124 C 0.26809 0.5412 0.48645 0.0
C125 C 0.27914 0.5735 0.45981 0.0
C126 C 0.32552 0.58474 0.45721 0.0
C127 C 0.35131 0.53154 0.50765 0.0
C128 C 0.30492 0.5206 0.51044 0.0
C129 C 0.41072 0.57406 0.4768 0.0
O130 O 0.46314 0.44216 0.47274 0.0
O131 O 0.51235 0.39215 0.51103 0.0
O132 O 0.5589 0.47087 0.55633 0.0
O133 O 0.48144 0.48754 0.54007 0.0
O134 O 0.61446 0.37646 0.494 0.0
O135 O 0.63317 0.41665 0.54269 0.0
O136 O 0.60292 0.514 0.49739 0.0
O137 O 0.54492 0.57132 0.50661 0.0
O138 O 0.52061 0.52369 0.44553 0.0
O139 O 0.55305 0.44144 0.45169 0.0
C140 C 0.47272 0.39852 0.49005 0.0
O141 O 0.4412 0.57915 0.50503 0.0
O142 O 0.42639 0.54467 0.45405 0.0
C143 C 0.51746 0.47918 0.56416 0.0
C144 C 0.69471 0.39157 0.51465 0.0
C145 C 0.78787 0.4139 0.50708 0.0
C146 C 0.77789 0.38077 0.53366 0.0
C147 C 0.73185 0.36973 0.53734 0.0
C148 C 0.70427 0.42433 0.48793 0.0
C149 C 0.7503 0.43513 0.48406 0.0
C150 C 0.6466 0.38366 0.52098 0.0
C151 C 0.58847 0.56115 0.50383 0.0
H152 H 0.252 0.58936 0.44045 0.0
H153 H 0.33295 0.60923 0.43624 0.0
H154 H 0.37885 0.51452 0.5262 0.0
H155 H 0.29794 0.49629 0.53158 0.0
H156 H 0.80561 0.36441 0.55232 0.0
H157 H 0.72526 0.34504 0.55846 0.0
H158 H 0.67613 0.4422 0.47033 0.0
H159 H 0.75636 0.46017 0.46298 0.0
H160 H 0.37842 0.55454 0.03015 0.0
H161 H 0.31458 0.61568 0.0275 0.0
H162 H 0.38848 0.72749 0.97424 0.0
H163 H 0.45301 0.66498 0.97559 0.0
H164 H 0.34361 0.76743 0.0316 0.0
H165 H 0.31322 0.66209 0.92934 0.0
H166 H 0.30145 0.58212 0.89349 0.0
H167 H 0.18261 0.54094 0.93951 0.0
H168 H 0.19537 0.61882 0.9774 0.0
H169 H 0.16218 0.93325 0.96817 0.0
H170 H 0.22402 0.86979 0.97095 0.0
H171 H 0.14261 0.75714 0.01748 0.0
H172 H 0.0793 0.8215 0.01505 0.0
H173 H 0.19026 0.71658 0.96428 0.0
H174 H 0.222 0.81487 0.06871 0.0
H175 H 0.22966 0.89516 0.1045 0.0
H176 H 0.34158 0.94849 0.05477 0.0
H177 H 0.33361 0.86933 0.01758 0.0
C178 C 0.38143 0.59196 0.01767 0.0
C179 C 0.42048 0.60445 0.00231 0.0
C180 C 0.3448 0.62687 0.01634 0.0
C181 C 0.34665 0.67536 0.00014 0.0
C182 C 0.38656 0.68971 0.98655 0.0
C183 C 0.4233 0.65419 0.98741 0.0
C184 C 0.30607 0.71015 -0.00285 0.0
C185 C 0.31028 0.75683 0.01645 0.0
C186 C 0.26225 0.69468 0.97843 0.0
C187 C 0.25584 0.64617 0.95677 0.0
C188 C 0.28532 0.63536 0.93259 0.0
C189 C 0.27844 0.5903 0.91186 0.0
C190 C 0.24153 0.55623 0.91444 0.0
C191 C 0.21148 0.56708 0.93782 0.0
C192 C 0.21875 0.61151 0.95912 0.0
C193 C 0.15691 0.89504 0.97898 0.0
C194 C 0.11592 0.88264 0.99192 0.0
C195 C 0.19249 0.85883 0.98049 0.0
C196 C 0.18805 0.80944 -0.00503 0.0
C197 C 0.14651 0.79553 0.00647 0.0
C198 C 0.11054 0.83215 0.00508 0.0
C199 C 0.22796 0.77359 -0.00134 0.0
C200 C 0.22364 0.72686 0.97952 0.0
C201 C 0.27153 0.78855 0.01781 0.0
C202 C 0.2769 0.83625 0.04013 0.0
C203 C 0.24791 0.84398 0.06505 0.0
C204 C 0.25226 0.88935 0.08553 0.0
C205 C 0.28586 0.92709 0.08164 0.0
C206 C 0.31525 0.91944 0.05735 0.0
C207 C 0.31084 0.87431 0.03657 0.0
H208 H 0.28929 0.96216 0.09757 0.0
H209 H 0.23608 0.52154 0.89822 0.0
H210 H 0.63254 0.36893 0.05136 0.0
H211 H 0.69876 0.31098 0.0492 0.0
H212 H 0.65347 0.28837 0.93956 0.0
H213 H 0.58549 0.3437 0.94228 0.0
H214 H 0.69342 0.20321 0.96641 0.0
H215 H 0.72899 0.38767 0.97621 0.0
H216 H 0.7286 0.47311 0.00531 0.0
H217 H 0.82049 0.41399 0.09351 0.0
H218 H 0.8186 0.3266 0.06601 0.0
H219 H 0.90815 0.11694 0.93216 0.0
H220 H 0.84246 0.17708 0.93014 0.0
H221 H 0.88092 0.20571 0.03984 0.0
H222 H 0.94844 0.14841 0.04127 0.0
H223 H 0.84456 0.28994 0.01002 0.0
H224 H 0.80502 0.10511 0.00245 0.0
H225 H 0.80487 0.01854 0.9746 0.0
H226 H 0.72073 0.07815 0.88294 0.0
H227 H 0.72349 0.16652 0.90924 0.0
C228 C 0.63622 0.35028 0.02707 0.0
C229 C 0.60461 0.36077 -0.0031 0.0
C230 C 0.67407 0.31755 0.02578 0.0
C231 C 0.68194 0.29705 -0.00603 0.0
C232 C 0.64834 0.30436 0.96429 0.0
C233 C 0.6096 0.33582 0.96582 0.0
C234 C 0.7269 0.27209 0.99103 0.0
C235 C 0.72641 0.22238 0.97558 0.0
C236 C 0.77009 0.29705 0.00339 0.0
C237 C 0.77322 0.35034 0.01914 0.0
C238 C 0.74894 0.39271 0.00188 0.0
C239 C 0.74907 0.44156 0.01816 0.0
C240 C 0.77492 0.44931 0.05111 0.0
C241 C 0.8005 0.40798 0.06797 0.0
C242 C 0.79957 0.3586 0.05217 0.0
C243 C 0.90309 0.13735 0.95556 0.0
C244 C 0.93259 0.12801 0.98695 0.0
C245 C 0.86556 0.17135 0.95445 0.0
C246 C 0.8559 0.19434 0.98507 0.0
C247 C 0.88749 0.18798 0.01596 0.0
C248 C 0.92595 0.1553 0.01681 0.0
C249 C 0.81097 0.22075 0.98581 0.0
C250 C 0.81148 0.27085 0.00073 0.0
C251 C 0.7678 0.19609 0.97306 0.0
C252 C 0.76463 0.14252 0.95778 0.0
C253 C 0.78661 0.09988 0.97631 0.0
C254 C 0.78614 0.05043 0.96076 0.0
C255 C 0.76216 0.04243 0.92725 0.0
C256 C 0.73916 0.08426 0.90897 0.0
C257 C 0.74053 0.1342 0.92406 0.0
H258 H 0.76166 0.00394 0.91539 0.0
H259 H 0.77496 0.48719 0.06369 0.0
H260 H 0.0683 0.18907 0.46143 0.0
H261 H 0.13661 0.2454 0.46131 0.0
H262 H 0.20833 0.16408 0.55071 0.0
H263 H 0.14021 0.10874 0.55147 0.0
H264 H 0.23222 0.26901 0.55149 0.0
H265 H 0.2146 0.12175 0.4735 0.0
H266 H 0.17383 0.06686 0.42588 0.0
H267 H 0.17588 0.19515 0.35537 0.0
H268 H 0.21618 0.25084 0.40281 0.0
H269 H 0.46485 0.31662 0.53408 0.0
H270 H 0.39469 0.26406 0.53609 0.0
H271 H 0.32562 0.3406 0.44383 0.0
H272 H 0.39542 0.39177 0.44106 0.0
H273 H 0.29974 0.23965 0.44473 0.0
H274 H 0.31488 0.38858 0.52291 0.0
H275 H 0.35821 0.44214 0.57026 0.0
H276 H 0.36143 0.31166 0.63955 0.0
H277 H 0.31881 0.25696 0.59248 0.0
C278 C 0.09802 0.18448 0.48173 0.0
C279 C 0.09915 0.14415 0.50617 0.0
C280 C 0.13707 0.21646 0.48154 0.0
C281 C 0.17769 0.20818 0.50567 0.0
C282 C 0.17737 0.17099 0.53184 0.0
C283 C 0.13849 0.13912 0.53204 0.0
C284 C 0.22232 0.23261 0.50108 0.0
C285 C 0.24708 0.26249 0.52823 0.0
C286 C 0.24151 0.22414 0.4706 0.0
C287 C 0.21811 0.19047 0.44179 0.0
C288 C 0.20628 0.13815 0.44785 0.0
C289 C 0.1832 0.10696 0.42091 0.0
C290 C 0.17217 0.12754 0.38761 0.0
C291 C 0.18439 0.17928 0.38119 0.0
C292 C 0.20737 0.21066 0.40812 0.0
C293 C 0.43513 0.32112 0.51374 0.0
C294 C 0.43531 0.35894 0.48779 0.0
C295 C 0.39502 0.29139 0.51503 0.0
C296 C 0.35468 0.29952 0.49057 0.0
C297 C 0.35624 0.33404 0.46309 0.0
C298 C 0.39617 0.36346 0.46169 0.0
C299 C 0.30956 0.2762 0.49506 0.0
C300 C 0.28473 0.24647 0.4679 0.0
C301 C 0.29024 0.28502 0.52542 0.0
C302 C 0.31393 0.31857 0.55413 0.0
C303 C 0.32487 0.37129 0.54824 0.0
C304 C 0.34933 0.40183 0.575 0.0
C305 C 0.36252 0.38032 0.60786 0.0
C306 C 0.35114 0.32826 0.61408 0.0
C307 C 0.32681 0.29747 0.58738 0.0
H308 H 0.38152 0.40401 0.62849 0.0
H309 H 0.15421 0.1034 0.36677 0.0
H310 H 0.95757 0.83829 0.50134 0.0
H311 H 0.89621 0.77265 0.50339 0.0
H312 H 0.79285 0.88437 0.45826 0.0
H313 H 0.85365 0.94999 0.45714 0.0
H314 H 0.7672 0.84332 0.51235 0.0
H315 H 0.82446 0.77404 0.41308 0.0
H316 H 0.88413 0.74095 0.38069 0.0
H317 H 0.91597 0.61572 0.45366 0.0
H318 H 0.85666 0.64825 0.48666 0.0
H319 H 0.57433 0.66379 0.48381 0.0
H320 H 0.63469 0.72951 0.4789 0.0
H321 H 0.74046 0.61978 0.52301 0.0
H322 H 0.68075 0.55389 0.52666 0.0
H323 H 0.76413 0.66036 0.46837 0.0
H324 H 0.7064 0.73033 0.56774 0.0
H325 H 0.64613 0.76364 0.59951 0.0
H326 H 0.61529 0.8883 0.52603 0.0
H327 H 0.67479 0.85533 0.4935 0.0
C328 C 0.92183 0.84824 0.49124 0.0
C329 C 0.91017 0.89913 0.47932 0.0
C330 C 0.88678 0.81084 0.49241 0.0
C331 C 0.83983 0.8236 0.48097 0.0
C332 C 0.82868 0.87374 0.46752 0.0
C333 C 0.86346 0.91115 0.46682 0.0
C334 C 0.80187 0.78623 0.48488 0.0
C335 C 0.7662 0.80349 0.5023 0.0
C336 C 0.8011 0.73394 0.47252 0.0
C337 C 0.83642 0.71392 0.45252 0.0
C338 C 0.84436 0.73962 0.42233 0.0
C339 C 0.87805 0.72089 0.40383 0.0
C340 C 0.90385 0.6763 0.41515 0.0
C341 C 0.89591 0.65021 0.44493 0.0
C342 C 0.86221 0.66874 0.46351 0.0
C343 C 0.61042 0.65425 0.49299 0.0
C344 C 0.62296 0.60389 0.50553 0.0
C345 C 0.6449 0.69171 0.49017 0.0
C346 C 0.6922 0.67961 0.50066 0.0
C347 C 0.70433 0.62993 0.51449 0.0
C348 C 0.67014 0.59241 0.51673 0.0
C349 C 0.72952 0.71739 0.49594 0.0
C350 C 0.76509 0.7002 0.47838 0.0
C351 C 0.73019 0.76977 0.50816 0.0
C352 C 0.69474 0.79 0.52798 0.0
C353 C 0.68652 0.76464 0.55822 0.0
C354 C 0.65249 0.78349 0.57637 0.0
C355 C 0.62673 0.82797 0.56472 0.0
C356 C 0.63512 0.85381 0.53497 0.0
C357 C 0.66901 0.83507 0.51668 0.0
H358 H 0.60036 0.84249 0.57877 0.0
H359 H 0.92996 0.6619 0.40081 0.0
H360 H 0.31587 0.96455 0.97861 0.0
H361 H 0.39649 0.94049 0.97699 0.0
H362 H 0.44326 0.08596 0.02809 0.0
H363 H 0.36285 0.11123 0.02874 0.0
H364 H 0.48742 0.06905 0.97569 0.0
H365 H 0.45651 0.96575 0.07226 0.0
H366 H 0.41596 0.901 0.10341 0.0
H367 H 0.43632 0.78201 0.02955 0.0
H368 H 0.47713 0.84605 -0.002 0.0
H369 H 0.72783 0.01176 0.01958 0.0
H370 H 0.64649 0.03232 0.02162 0.0
H371 H 0.60417 0.8851 0.97103 0.0
H372 H 0.68561 0.86353 0.96993 0.0
H373 H 0.55708 0.9013 0.02207 0.0
H374 H 0.5921 0.00361 0.92745 0.0
H375 H 0.63225 0.06839 0.89614 0.0
H376 H 0.60285 0.19005 0.96543 0.0
H377 H 0.56302 0.12585 -0.00253 0.0
C378 C 0.34318 0.99181 0.98918 0.0
C379 C 0.3325 0.03986 0.00398 0.0
C380 C 0.38944 0.97756 0.98869 0.0
C381 C 0.42616 0.01105 0.00286 0.0
C382 C 0.41563 0.05923 0.01722 0.0
C383 C 0.36948 0.07344 0.01782 0.0
C384 C 0.47546 0.99709 0.00155 0.0
C385 C 0.50285 0.0327 0.98632 0.0
C386 C 0.49531 0.94894 0.01439 0.0
C387 C 0.4695 0.91079 0.03263 0.0
C388 C 0.45203 0.92587 0.06252 0.0
C389 C 0.42928 0.88921 0.08037 0.0
C390 C 0.42357 0.83743 0.06846 0.0
C391 C 0.44074 0.82214 0.03873 0.0
C392 C 0.46383 0.85854 0.02093 0.0
C393 C 0.70129 0.98341 0.00929 0.0
C394 C 0.71335 0.93589 -0.00534 0.0
C395 C 0.65467 0.99554 0.01007 0.0
C396 C 0.61898 0.96061 -0.00395 0.0
C397 C 0.63097 0.91282 0.98189 0.0
C398 C 0.67758 0.90067 0.98109 0.0
C399 C 0.56923 0.97355 -0.00349 0.0
C400 C 0.54171 0.93769 0.01147 0.0
C401 C 0.54922 0.02152 0.98339 0.0
C402 C 0.57491 0.05977 0.96506 0.0
C403 C 0.59471 0.04402 0.9363 0.0
C404 C 0.61731 0.08069 0.91836 0.0
C405 C 0.6201 0.13329 0.92879 0.0
C406 C 0.60064 0.14929 0.95737 0.0
C407 C 0.57805 0.11278 0.97543 0.0
H408 H 0.63715 0.16172 0.91464 0.0
H409 H 0.40573 0.8092 0.08224 0.0
H410 H 0.32908 0.90229 0.47122 0.0
H411 H 0.41026 0.92464 0.46907 0.0
H412 H 0.39605 0.06811 0.52518 0.0
H413 H 0.31497 0.04613 0.52729 0.0
H414 H 0.43973 0.08815 0.47381 0.0
H415 H 0.45533 0.95775 0.5627 0.0
H416 H 0.44619 0.87195 0.58978 0.0
H417 H 0.51571 0.79625 0.51474 0.0
H418 H 0.52445 0.88143 0.48677 0.0
H419 H 0.68235 0.15034 0.51148 0.0
H420 H 0.60106 0.12955 0.5144 0.0
H421 H 0.61307 0.98418 0.45969 0.0
H422 H 0.69442 0.00441 0.45722 0.0
H423 H 0.5704 0.96645 0.51121 0.0
H424 H 0.55398 0.09767 0.42192 0.0
H425 H 0.56531 0.18431 0.39661 0.0
H426 H 0.49894 0.25892 0.47381 0.0
H427 H 0.48775 0.17279 0.4999 0.0
C428 C 0.34337 0.93833 0.48344 0.0
C429 C 0.31535 0.97238 0.49941 0.0
C430 C 0.38988 0.95109 0.48221 0.0
C431 C 0.40965 -0.0021 0.49727 0.0
C432 C 0.38174 0.03186 0.51327 0.0
C433 C 0.33524 0.01927 0.51437 0.0
C434 C 0.45895 0.01228 0.49564 0.0
C435 C 0.46836 0.0617 0.4824 0.0
C436 C 0.49642 0.97749 0.50613 0.0
C437 C 0.48998 0.92597 0.52235 0.0
C438 C 0.46811 0.92274 0.55168 0.0
C439 C 0.4631 0.8742 0.56724 0.0
C440 C 0.48017 0.82865 0.5539 0.0
C441 C 0.50228 0.83152 0.52495 0.0
C442 C 0.50724 0.87992 0.50922 0.0
C443 C 0.6675 0.11421 0.49975 0.0
C444 C 0.69494 0.07906 0.48411 0.0
C445 C 0.62092 0.10238 0.50137 0.0
C446 C 0.60047 0.05556 0.48685 0.0
C447 C 0.62785 0.02055 0.47112 0.0
C448 C 0.67447 0.03211 0.46978 0.0
C449 C 0.55116 0.0419 0.489 0.0
C450 C 0.54175 0.99271 0.50246 0.0
C451 C 0.51376 0.07689 0.47876 0.0
C452 C 0.52052 0.12876 0.4631 0.0
C453 C 0.54215 0.13257 0.43369 0.0
C454 C 0.54848 0.1816 0.41917 0.0
C455 C 0.53297 0.2271 0.43366 0.0
C456 C 0.51099 0.22366 0.46265 0.0
C457 C 0.50463 0.17473 0.47731 0.0
H458 H 0.53789 0.26502 0.42237 0.0
H459 H 0.47642 0.79115 0.56607 0.0
H460 H 0.85233 0.62057 0.02546 0.0
H461 H 0.93313 0.59792 0.02375 0.0
H462 H 0.88769 0.47303 0.95121 0.0
H463 H 0.80687 0.49311 0.95462 0.0
H464 H 0.95368 0.43825 -0.00369 0.0
H465 H 0.93553 0.59701 0.92946 0.0
H466 H 0.91736 0.69031 0.9175 0.0
H467 H 0.02337 0.73619 0.00193 0.0
H468 H 0.04165 0.64314 0.01479 0.0
H469 H 0.17326 0.38767 0.94617 0.0
H470 H 0.09253 0.41242 0.94721 0.0
H471 H 0.139 0.53033 0.02464 0.0
H472 H 0.21981 0.50579 0.02368 0.0
H473 H 0.07313 0.56913 0.97724 0.0
H474 H 0.09115 0.41094 0.04402 0.0
H475 H 0.10942 0.31778 0.05637 0.0
H476 H 1.00352 0.27107 0.97209 0.0
H477 H 0.98521 0.36401 0.95879 0.0
C478 C 0.85938 0.58805 0.00926 0.0
C479 C 0.82266 0.5589 0.99008 0.0
C480 C 0.90583 0.57557 0.00793 0.0
C481 C 0.91691 0.53423 0.98688 0.0
C482 C 0.88034 0.50531 0.96753 0.0
C483 C 0.83391 0.51734 0.96917 0.0
C484 C 0.9664 0.5196 0.98601 0.0
C485 C 0.97955 0.46685 0.99155 0.0
C486 C 1.00084 0.55698 0.98091 0.0
C487 C 0.98958 0.613 0.97333 0.0
C488 C 0.95466 0.62696 0.94569 0.0
C489 C 0.94439 0.67983 0.93872 0.0
C490 C 0.96908 0.71915 0.95901 0.0
C491 C 1.00418 0.7057 0.98628 0.0
C492 C 1.0145 0.65289 0.99342 0.0
C493 C 0.16631 0.41848 0.96371 0.0
C494 C 0.20313 0.44449 0.98498 0.0
C495 C 0.12005 0.43266 0.96426 0.0
C496 C 0.10941 0.47283 0.98636 0.0
C497 C 0.14614 0.49918 0.00739 0.0
C498 C 0.19241 0.48512 0.00679 0.0
C499 C 0.06013 0.48783 0.98726 0.0
C500 C 0.04711 0.54061 0.98185 0.0
C501 C 0.02578 0.4505 0.99245 0.0
C502 C 0.03719 0.39454 0.00015 0.0
C503 C 0.07211 0.38085 0.02787 0.0
C504 C 0.08242 0.32806 0.03508 0.0
C505 C 0.05777 0.28853 0.01495 0.0
C506 C 0.0227 0.30172 0.98759 0.0
C507 C 1.01235 0.35446 0.98021 0.0
H508 H 0.06574 0.24769 0.02062 0.0
H509 H 0.9611 0.76005 0.95356 0.0
H510 H 0.19158 0.60545 0.47226 0.0
H511 H 0.11059 0.58412 0.47474 0.0
H512 H 0.15073 0.42831 0.51038 0.0
H513 H 0.23153 0.44828 0.50605 0.0
H514 H 0.07557 0.42208 0.4643 0.0
H515 H 0.1217 0.53023 0.56522 0.0
H516 H 0.15314 0.60929 0.59755 0.0
H517 H 0.04618 0.70305 0.53892 0.0
H518 H 1.01445 0.62465 0.50591 0.0
H519 H 0.86489 0.35016 0.51955 0.0
H520 H 0.94541 0.37261 0.51649 0.0
H521 H 0.90352 0.52874 0.48263 0.0
H522 H 0.82324 0.50771 0.48779 0.0
H523 H 0.97921 0.53553 0.52713 0.0
H524 H 0.93325 0.42902 0.42596 0.0
H525 H 0.90051 0.35055 0.39356 0.0
H526 H 1.00584 0.25471 0.45208 0.0
H527 H 0.03914 0.33255 0.48499 0.0
C528 C 0.18329 0.5664 0.48029 0.0
C529 C 0.2185 0.5287 0.48897 0.0
C530 C 0.13683 0.55446 0.48216 0.0
C531 C 0.12434 0.50481 0.49331 0.0
C532 C 0.15932 0.46701 0.50187 0.0
C533 C 0.20575 0.47874 0.49973 0.0
C534 C 0.07481 0.49188 0.49543 0.0
C535 C 0.05476 0.44656 0.47847 0.0
C536 C 0.04692 0.52445 0.51304 0.0
C537 C 0.06601 0.57164 0.53285 0.0
C538 C 0.10511 0.56777 0.55903 0.0
C539 C 0.12294 0.61246 0.57751 0.0
C540 C 0.10176 0.66118 0.57023 0.0
C541 C 0.06261 0.6653 0.5445 0.0
C542 C 0.04467 0.62075 0.52591 0.0
C543 C 0.87268 0.38951 0.51178 0.0
C544 C 0.83712 0.42698 0.50386 0.0
C545 C 0.91888 0.4021 0.50956 0.0
C546 C 0.93076 0.45216 0.49867 0.0
C547 C 0.89543 0.48972 0.49086 0.0
C548 C 0.84926 0.47737 0.49345 0.0
C549 C 0.98004 0.46566 0.49611 0.0
C550 C 1.00002 0.51108 0.51294 0.0
C551 C 1.00782 0.43332 0.47828 0.0
C552 C 0.98842 0.38656 0.45814 0.0
C553 C 0.94933 0.39117 0.43202 0.0
C554 C 0.93072 0.34681 0.41353 0.0
C555 C 0.95108 0.29766 0.42079 0.0
C556 C 0.99021 0.29281 0.44646 0.0
C557 C 1.009 0.33705 0.465 0.0
H558 H 0.93657 0.26334 0.4065 0.0
H559 H 0.11561 0.69573 0.58457 0.0
H560 H 0.93946 0.03582 0.3715 0.0
H561 H 0.94389 0.03175 0.30992 0.0
H562 H 0.09285 0.01447 0.33402 0.0
H563 H 0.08888 0.01919 0.39578 0.0
H564 H 0.06828 0.08161 0.2808 0.0
H565 H 0.02411 0.90852 0.31087 0.0
H566 H 0.97691 0.84292 0.33583 0.0
H567 H 0.85563 0.88997 0.26516 0.0
H568 H 0.90198 0.95641 0.2401 0.0
H569 H 0.09724 -0.00104 0.11231 0.0
H570 H 0.0974 0.00262 0.17463 0.0
H571 H 0.94762 0.01249 0.15637 0.0
H572 H 0.94709 0.00742 0.09409 0.0
H573 H 0.97536 0.94711 0.20741 0.0
H574 H 0.01913 0.12174 0.17825 0.0
H575 H 0.06626 0.18774 0.15357 0.0
H576 H 0.18817 0.13812 0.22261 0.0
H577 H 0.14187 0.0713 0.24738 0.0
C578 C 0.97323 0.03137 0.36377 0.0
C579 C 1.01376 0.02735 0.38862 0.0
C580 C 0.97566 0.02882 0.32853 0.0
C581 C 0.01861 0.02189 0.31738 0.0
C582 C 0.05931 0.0195 0.34205 0.0
C583 C 0.05693 0.02203 0.37736 0.0
C584 C 0.02082 0.01645 0.27997 0.0
C585 C 0.04848 0.05176 0.26481 0.0
C586 C 0.99433 0.97806 0.25902 0.0
C587 C 0.96645 0.93777 0.27382 0.0
C588 C 0.98731 0.90513 0.30081 0.0
C589 C 0.96072 0.86776 0.31496 0.0
C590 C 0.91328 0.86236 0.30215 0.0
C591 C 0.89237 0.89423 0.27508 0.0
C592 C 0.91879 0.93172 0.26088 0.0
C593 C 0.06432 0.00185 0.12154 0.0
C594 C 0.02216 0.00309 0.09821 0.0
C595 C 0.06448 0.00418 0.1572 0.0
C596 C 0.02256 0.00864 0.17023 0.0
C597 C 0.98041 0.00914 0.14697 0.0
C598 C 0.98018 0.00635 0.11133 0.0
C599 C 0.02244 0.01267 0.20806 0.0
C600 C 0.99523 0.97696 0.22335 0.0
C601 C 0.04932 0.05072 0.2291 0.0
C602 C 0.07712 0.09117 0.21442 0.0
C603 C 0.05605 0.12466 0.188 0.0
C604 C 0.08261 0.16225 0.17402 0.0
C605 C 0.1302 0.16702 0.18645 0.0
C606 C 0.15132 0.13432 0.21297 0.0
C607 C 0.12493 0.09662 0.227 0.0
H608 H 0.1507 0.19614 0.17558 0.0
H609 H 0.89275 0.83342 0.31314 0.0
H610 H 0.02505 0.08935 0.88506 0.0
H611 H 0.02052 0.0898 0.8221 0.0
H612 H 1.00976 0.92083 0.81995 0.0
H613 H 1.01382 0.91995 0.88273 0.0
H614 H 0.07413 0.96281 0.77973 0.0
H615 H 0.91562 0.98494 0.79714 0.0
H616 H 0.85272 0.02714 0.82214 0.0
H617 H 0.87962 0.17317 0.77457 0.0
H618 H 0.94323 0.13202 0.74971 0.0
H619 H 1.00715 0.92714 0.59944 0.0
H620 H 1.00937 0.92442 0.66199 0.0
H621 H 0.99393 0.09285 0.6641 0.0
H622 H 0.99012 0.09566 0.6015 0.0
H623 H 0.94269 0.05024 0.70503 0.0
H624 H 0.10114 0.03113 0.68828 0.0
H625 H 0.16621 0.99182 0.6643 0.0
H626 H 0.14259 0.84429 0.71131 0.0
H627 H 0.07692 0.88255 0.73518 0.0
C628 C 0.02191 0.0523 0.87119 0.0
C629 C 0.01957 0.00464 0.88879 0.0
C630 C 0.01919 0.05265 0.83528 0.0
C631 C 1.01455 0.00535 0.8165 0.0
C632 C 1.01329 0.95769 0.83406 0.0
C633 C 1.01539 0.95733 0.86988 0.0
C634 C 1.01035 0.00558 0.77842 0.0
C635 C 0.04516 0.98134 0.76328 0.0
C636 C 0.97305 0.03085 0.75724 0.0
C637 C 0.93451 0.05553 0.77186 0.0
C638 C 0.90839 0.02617 0.79225 0.0
C639 C 0.87256 0.04988 0.80635 0.0
C640 C 0.86226 0.10285 0.80003 0.0
C641 C 0.88768 0.13217 0.77949 0.0
C642 C 0.92361 0.10866 0.76537 0.0
C643 C 1.00407 0.96357 0.61322 0.0
C644 C 0.99873 0.01165 0.59555 0.0
C645 C 1.00556 0.962 0.649 0.0
C646 C 1.00267 0.00856 0.66785 0.0
C647 C 0.99632 0.05644 0.65013 0.0
C648 C 0.99423 0.05797 0.61432 0.0
C649 C 1.00666 0.00759 0.70607 0.0
C650 C 0.97176 0.03168 0.72133 0.0
C651 C 0.04419 0.98261 0.7274 0.0
C652 C 0.08382 0.95958 0.71323 0.0
C653 C 0.10961 0.99021 0.6933 0.0
C654 C 0.14663 0.96813 0.67975 0.0
C655 C 0.15845 0.91555 0.6862 0.0
C656 C 0.13335 0.88499 0.7063 0.0
C657 C 0.09625 0.90686 0.71986 0.0
H658 H 0.18712 0.89853 0.6757 0.0
H659 H 0.83452 0.12113 0.81098 0.0
H660 H 0.52993 0.56489 0.38754 0.0
H661 H 0.52888 0.56188 0.32518 0.0
H662 H 0.54977 0.39422 0.3303 0.0
H663 H 0.5524 0.39721 0.39291 0.0
H664 H 0.59932 0.43421 0.28709 0.0
H665 H 0.44089 0.44924 0.30256 0.0
H666 H 0.37396 0.48687 0.32506 0.0
H667 H 0.39209 0.63253 0.274 0.0
H668 H 0.4596 0.59601 0.2516 0.0
H669 H 0.5212 0.39269 0.10501 0.0
H670 H 0.52569 0.3909 0.16804 0.0
H671 H 0.53204 0.56009 0.17125 0.0
H672 H 0.52807 0.5623 0.10855 0.0
H673 H 0.467 0.51531 0.20954 0.0
H674 H 0.62761 0.49699 0.19504 0.0
H675 H 0.69225 0.45543 0.17176 0.0
H676 H 0.66593 0.30992 0.22019 0.0
H677 H 0.60063 0.35043 0.24334 0.0
C678 C 0.53452 0.5274 0.37544 0.0
C679 C 0.54091 0.48124 0.39516 0.0
C680 C 0.53368 0.52568 0.33972 0.0
C681 C 0.53824 0.47764 0.32287 0.0
C682 C 0.54598 0.43172 0.34266 0.0
C683 C 0.54743 0.4335 0.37847 0.0
C684 C 0.53433 0.4753 0.2846 0.0
C685 C 0.57003 0.4513 0.27017 0.0
C686 C 0.49633 0.49799 0.2624 0.0
C687 C 0.45559 0.52003 0.27567 0.0
C688 C 0.43082 0.48942 0.29634 0.0
C689 C 0.39274 0.51054 0.30904 0.0
C690 C 0.37885 0.5621 0.30103 0.0
C691 C 0.40293 0.59261 0.28022 0.0
C692 C 0.44108 0.57171 0.26749 0.0
C693 C 0.52357 0.42948 0.11916 0.0
C694 C 0.52442 0.47762 0.10182 0.0
C695 C 0.52626 0.42837 0.15512 0.0
C696 C 0.52935 0.47538 0.17422 0.0
C697 C 0.52967 0.52342 0.15694 0.0
C698 C 0.52762 0.52455 0.12113 0.0
C699 C 0.53212 0.47476 0.21227 0.0
C700 C 0.49613 0.4981 0.22659 0.0
C701 C 0.56945 0.45085 0.23428 0.0
C702 C 0.60891 0.42658 0.2206 0.0
C703 C 0.63534 0.456 0.20047 0.0
C704 C 0.67215 0.43266 0.18735 0.0
C705 C 0.6831 0.38002 0.1944 0.0
C706 C 0.65735 0.35066 0.21469 0.0
C707 C 0.62046 0.3738 0.22784 0.0
H708 H 0.71161 0.36202 0.18422 0.0
H709 H 0.34936 0.57837 0.31089 0.0
H710 H 0.58248 0.45646 0.62073 0.0
H711 H 0.5727 0.45627 0.68132 0.0
H712 H 0.42902 0.50063 0.65211 0.0
H713 H 0.43843 0.50102 0.59115 0.0
H714 H 0.47357 0.55845 0.70786 0.0
H715 H 0.45077 0.37944 0.67676 0.0
H716 H 0.46715 0.29483 0.65063 0.0
H717 H 0.59664 0.28421 0.72062 0.0
H718 H 0.58134 0.36928 0.74682 0.0
H719 H 0.42971 0.50225 0.88024 0.0
H720 H 0.42476 0.49974 0.81715 0.0
H721 H 0.57182 0.46871 0.82926 0.0
H722 H 0.57725 0.47183 0.89212 0.0
H723 H 0.51551 0.4014 0.78078 0.0
H724 H 0.53703 0.58655 0.80859 0.0
H725 H 0.51666 0.67046 0.83379 0.0
H726 H 0.38268 0.66685 0.76898 0.0
H727 H 0.40204 0.58246 0.74374 0.0
C728 C 0.54872 0.46615 0.62706 0.0
C729 C 0.51126 0.47875 0.60099 0.0
C730 C 0.54316 0.46585 0.66177 0.0
C731 C 0.50004 0.47808 0.67125 0.0
C732 C 0.4626 0.49111 0.64538 0.0
C733 C 0.46805 0.49113 0.61054 0.0
C734 C 0.49466 0.47744 0.70829 0.0
C735 C 0.4819 0.52384 0.72369 0.0
C736 C 0.50575 0.43238 0.72899 0.0
C737 C 0.51509 0.38099 0.71355 0.0
C738 C 0.48292 0.35929 0.6864 0.0
C739 C 0.49198 0.3112 0.6716 0.0
C740 C 0.53297 0.2842 0.68391 0.0
C741 C 0.56492 0.3052 0.7111 0.0
C742 C 0.55605 0.35333 0.72596 0.0
C743 C 0.46099 0.49495 0.86945 0.0
C744 C 0.5039 0.48741 0.89119 0.0
C745 C 0.4581 0.49361 0.83343 0.0
C746 C 0.49795 0.4841 0.81856 0.0
C747 C 0.54066 0.47602 0.84021 0.0
C748 C 0.54371 0.4781 0.87614 0.0
C749 C 0.49548 0.48271 0.78045 0.0
C750 C 0.50672 0.43582 0.76486 0.0
C751 C 0.48231 0.52709 0.75954 0.0
C752 C 0.47076 0.5779 0.77459 0.0
C753 C 0.50306 0.6034 0.79995 0.0
C754 C 0.49174 0.6511 0.81419 0.0
C755 C 0.44834 0.67389 0.80308 0.0
C756 C 0.41624 0.6491 0.77761 0.0
C757 C 0.42738 0.60135 0.76332 0.0
H758 H 0.43964 0.71082 0.81413 0.0
H759 H 0.53994 0.24697 0.67242 0.0
loop_
_geom_bond_atom_site_label_1
_geom_bond_atom_site_label_2
_geom_bond_distance
_geom_bond_site_symmetry_2
_ccdc_geom_bond_type
Tb0 C9 2.764 . S
Tb0 O10 2.325 1_545 S
Tb0 O13 2.303 1_554 S
Tb0 O17 2.322 1_455 S
Tb0 O18 2.349 . S
Tb0 O21 2.415 1_554 S
Tb0 O22 2.399 . S
Tb1 O11 2.322 1_655 S
Tb1 O12 2.349 . S
Tb1 O14 2.415 1_556 S
Tb1 O15 2.399 . S
Tb1 O16 2.325 1_565 S
Tb1 O19 2.303 1_556 S
Tb1 C30 2.764 . S
C2 O18 1.261 . S
C2 O19 1.257 1_445 S
C3 C6 1.358 . S
C3 C7 1.332 1_554 S
C3 C9 1.504 . S
C4 C5 1.373 . S
C4 C8 1.308 1_554 S
C5 C4 1.373 . S
C5 C6 1.429 . S
C5 H32 0.932 . S
C6 C3 1.358 . S
C6 C5 1.429 . S
C6 H33 0.930 . S
C7 C3 1.332 1_556 S
C7 C8 1.394 . S
C7 H34 0.932 . S
C8 C4 1.308 1_556 S
C8 C7 1.394 . S
C8 H35 0.929 . S
C9 Tb0 2.764 . S
C9 C3 1.504 . S
C9 O21 1.239 1_554 S
C9 O22 1.263 . S
O10 Tb0 2.325 1_565 S
O10 C20 1.236 . S
O11 Tb1 2.322 1_455 S
O11 C20 1.257 1_556 S
O12 Tb1 2.349 . S
O12 C23 1.261 . S
O13 Tb0 2.303 1_556 S
O13 C23 1.257 1_445 S
O14 Tb1 2.415 1_554 S
O14 C30 1.239 1_554 S
O15 Tb1 2.399 . S
O15 C30 1.263 . S
O16 Tb1 2.325 1_545 S
O16 C31 1.247 . S
O17 Tb0 2.322 1_655 S
O17 C31 1.253 1_554 S
O18 Tb0 2.349 . S
O18 C2 1.261 . S
O19 Tb1 2.303 1_554 S
O19 C2 1.257 1_665 S
C20 O10 1.236 . S
C20 O11 1.257 1_554 S
O21 Tb0 2.415 1_556 S
O21 C9 1.239 1_556 S
O22 Tb0 2.399 . S
O22 C9 1.263 . S
C23 O12 1.261 . S
C23 O13 1.257 1_665 S
C24 C27 1.358 . S
C24 C28 1.332 1_556 S
C24 C30 1.504 . S
C25 C26 1.388 . S
C25 C29 1.298 1_556 S
C26 C25 1.388 . S
C26 C27 1.429 . S
C26 H36 0.932 . S
C27 C24 1.358 . S
C27 C26 1.429 . S
C27 H37 0.930 . S
C28 C24 1.332 1_554 S
C28 C29 1.394 . S
C28 H38 0.932 . S
C29 C25 1.298 1_554 S
C29 C28 1.394 . S
C29 H39 0.929 . S
C30 Tb1 2.764 . S
C30 O14 1.239 1_556 S
C30 O15 1.263 . S
C30 C24 1.504 . S
C31 O16 1.247 . S
C31 O17 1.253 1_556 S
H32 C5 0.932 . S
H33 C6 0.930 . S
H34 C7 0.932 . S
H35 C8 0.929 . S
H36 C26 0.932 . S
H37 C27 0.930 . S
H38 C28 0.932 . S
H39 C29 0.929 . S
Tb40 C49 2.764 . S
Tb40 O50 2.325 1_545 S
Tb40 O53 2.303 . S
Tb40 O57 2.322 1_655 S
Tb40 O58 2.349 . S
Tb40 O61 2.415 . S
Tb40 O62 2.399 . S
Tb41 O51 2.322 1_455 S
Tb41 O52 2.349 . S
Tb41 O54 2.415 . S
Tb41 O55 2.399 . S
Tb41 O56 2.325 1_565 S
Tb41 O59 2.303 . S
Tb41 C70 2.764 . S
C42 O58 1.261 . S
C42 O59 1.257 1_645 S
C43 C46 1.358 . S
C43 C47 1.332 . S
C43 C49 1.504 . S
C44 C45 1.373 . S
C44 C48 1.308 . S
C45 C44 1.373 . S
C45 C46 1.429 . S
C45 H72 0.932 . S
C46 C43 1.358 . S
C46 C45 1.429 . S
C46 H73 0.930 . S
C47 C43 1.332 . S
C47 C48 1.394 . S
C47 H74 0.932 . S
C48 C44 1.308 . S
C48 C47 1.394 . S
C48 H75 0.929 . S
C49 Tb40 2.764 . S
C49 C43 1.504 . S
C49 O61 1.239 . S
C49 O62 1.263 . S
O50 Tb40 2.325 1_565 S
O50 C60 1.236 . S
O51 Tb41 2.322 1_655 S
O51 C60 1.257 . S
O52 Tb41 2.349 . S
O52 C63 1.261 . S
O53 Tb40 2.303 . S
O53 C63 1.257 1_645 S
O54 Tb41 2.415 . S
O54 C70 1.239 . S
O55 Tb41 2.399 . S
O55 C70 1.263 . S
O56 Tb41 2.325 1_545 S
O56 C71 1.236 . S
O57 Tb40 2.322 1_455 S
O57 C71 1.257 . S
O58 Tb40 2.349 . S
O58 C42 1.261 . S
O59 Tb41 2.303 . S
O59 C42 1.257 1_465 S
C60 O50 1.236 . S
C60 O51 1.257 . S
O61 Tb40 2.415 . S
O61 C49 1.239 . S
O62 Tb40 2.399 . S
O62 C49 1.263 . S
C63 O52 1.261 . S
C63 O53 1.257 1_465 S
C64 C67 1.358 . S
C64 C68 1.332 . S
C64 C70 1.504 . S
C65 C66 1.373 . S
C65 C69 1.308 . S
C66 C65 1.373 . S
C66 C67 1.429 . S
C66 H76 0.932 . S
C67 C64 1.358 . S
C67 C66 1.429 . S
C67 H77 0.930 . S
C68 C64 1.332 . S
C68 C69 1.394 . S
C68 H78 0.932 . S
C69 C65 1.308 . S
C69 C68 1.394 . S
C69 H79 0.929 . S
C70 Tb41 2.764 . S
C70 O54 1.239 . S
C70 O55 1.263 . S
C70 C64 1.504 . S
C71 O56 1.236 . S
C71 O57 1.257 . S
H72 C45 0.932 . S
H73 C46 0.930 . S
H74 C47 0.932 . S
H75 C48 0.929 . S
H76 C66 0.932 . S
H77 C67 0.930 . S
H78 C68 0.932 . S
H79 C69 0.929 . S
Tb80 C89 2.764 . S
Tb80 O90 2.325 . S
Tb80 O93 2.303 1_554 S
Tb80 O97 2.322 . S
Tb80 O98 2.349 . S
Tb80 O101 2.415 1_554 S
Tb80 O102 2.399 . S
Tb81 O91 2.322 . S
Tb81 O92 2.349 . S
Tb81 O94 2.415 1_556 S
Tb81 O95 2.399 . S
Tb81 O96 2.325 . S
Tb81 O99 2.303 1_556 S
Tb81 C110 2.764 . S
C82 O98 1.261 . S
C82 O99 1.257 . S
C83 C86 1.358 . S
C83 C87 1.332 1_554 S
C83 C89 1.504 . S
C84 C85 1.373 . S
C84 C88 1.308 1_554 S
C85 C84 1.373 . S
C85 C86 1.429 . S
C85 H112 0.932 . S
C86 C83 1.358 . S
C86 C85 1.429 . S
C86 H113 0.930 . S
C87 C83 1.332 1_556 S
C87 C88 1.394 . S
C87 H114 0.932 . S
C88 C84 1.308 1_556 S
C88 C87 1.394 . S
C88 H115 0.929 . S
C89 Tb80 2.764 . S
C89 C83 1.504 . S
C89 O101 1.239 1_554 S
C89 O102 1.263 . S
O90 Tb80 2.325 . S
O90 C100 1.236 . S
O91 Tb81 2.322 . S
O91 C100 1.257 1_556 S
O92 Tb81 2.349 . S
O92 C103 1.261 . S
O93 Tb80 2.303 1_556 S
O93 C103 1.257 . S
O94 Tb81 2.415 1_554 S
O94 C110 1.239 1_554 S
O95 Tb81 2.399 . S
O95 C110 1.263 . S
O96 Tb81 2.325 . S
O96 C111 1.247 . S
O97 Tb80 2.322 . S
O97 C111 1.253 1_554 S
O98 Tb80 2.349 . S
O98 C82 1.261 . S
O99 Tb81 2.303 1_554 S
O99 C82 1.257 . S
C100 O90 1.236 . S
C100 O91 1.257 1_554 S
O101 Tb80 2.415 1_556 S
O101 C89 1.239 1_556 S
O102 Tb80 2.399 . S
O102 C89 1.263 . S
C103 O92 1.261 . S
C103 O93 1.257 . S
C104 C107 1.358 . S
C104 C108 1.332 1_556 S
C104 C110 1.504 . S
C105 C106 1.388 . S
C105 C109 1.297 1_556 S
C106 C105 1.388 . S
C106 C107 1.429 . S
C106 H116 0.932 . S
C107 C104 1.358 . S
C107 C106 1.429 . S
C107 H117 0.930 . S
C108 C104 1.332 1_554 S
C108 C109 1.394 . S
C108 H118 0.932 . S
C109 C105 1.297 1_554 S
C109 C108 1.394 . S
C109 H119 0.929 . S
C110 Tb81 2.764 . S
C110 O94 1.239 1_556 S
C110 O95 1.263 . S
C110 C104 1.504 . S
C111 O96 1.247 . S
C111 O97 1.253 1_556 S
H112 C85 0.932 . S
H113 C86 0.930 . S
H114 C87 0.932 . S
H115 C88 0.929 . S
H116 C106 0.932 . S
H117 C107 0.930 . S
H118 C108 0.932 . S
H119 C109 0.929 . S
Tb120 C129 2.764 . S
Tb120 O130 2.325 . S
Tb120 O133 2.303 . S
Tb120 O137 2.322 . S
Tb120 O138 2.349 . S
Tb120 O141 2.415 . S
Tb120 O142 2.399 . S
Tb121 O131 2.322 . S
Tb121 O132 2.349 . S
Tb121 O134 2.415 . S
Tb121 O135 2.399 . S
Tb121 O136 2.325 . S
Tb121 O139 2.303 . S
Tb121 C150 2.764 . S
C122 O138 1.261 . S
C122 O139 1.257 . S
C123 C126 1.358 . S
C123 C127 1.332 . S
C123 C129 1.504 . S
C124 C125 1.373 . S
C124 C128 1.308 . S
C125 C124 1.373 . S
C125 C126 1.429 . S
C125 H152 0.932 . S
C126 C123 1.358 . S
C126 C125 1.429 . S
C126 H153 0.930 . S
C127 C123 1.332 . S
C127 C128 1.394 . S
C127 H154 0.932 . S
C128 C124 1.308 . S
C128 C127 1.394 . S
C128 H155 0.929 . S
C129 Tb120 2.764 . S
C129 C123 1.504 . S
C129 O141 1.239 . S
C129 O142 1.263 . S
O130 Tb120 2.325 . S
O130 C140 1.236 . S
O131 Tb121 2.322 . S
O131 C140 1.257 . S
O132 Tb121 2.349 . S
O132 C143 1.261 . S
O133 Tb120 2.303 . S
O133 C143 1.257 . S
O134 Tb121 2.415 . S
O134 C150 1.239 . S
O135 Tb121 2.399 . S
O135 C150 1.263 . S
O136 Tb121 2.325 . S
O136 C151 1.236 . S
O137 Tb120 2.322 . S
O137 C151 1.257 . S
O138 Tb120 2.349 . S
O138 C122 1.261 . S
O139 Tb121 2.303 . S
O139 C122 1.257 . S
C140 O130 1.236 . S
C140 O131 1.257 . S
O141 Tb120 2.415 . S
O141 C129 1.239 . S
O142 Tb120 2.399 . S
O142 C129 1.263 . S
C143 O132 1.261 . S
C143 O133 1.257 . S
C144 C147 1.358 . S
C144 C148 1.332 . S
C144 C150 1.504 . S
C145 C146 1.373 . S
C145 C149 1.308 . S
C146 C145 1.373 . S
C146 C147 1.429 . S
C146 H156 0.932 . S
C147 C144 1.358 . S
C147 C146 1.429 . S
C147 H157 0.930 . S
C148 C144 1.332 . S
C148 C149 1.394 . S
C148 H158 0.932 . S
C149 C145 1.308 . S
C149 C148 1.394 . S
C149 H159 0.929 . S
C150 Tb121 2.764 . S
C150 O134 1.239 . S
C150 O135 1.263 . S
C150 C144 1.504 . S
C151 O136 1.236 . S
C151 O137 1.257 . S
H152 C125 0.932 . S
H153 C126 0.930 . S
H154 C127 0.932 . S
H155 C128 0.929 . S
H156 C146 0.932 . S
H157 C147 0.930 . S
H158 C148 0.932 . S
H159 C149 0.929 . S
H160 C178 0.951 . S
H161 C180 0.951 . S
H162 C182 0.950 . S
H163 C183 0.950 . S
H164 C185 0.950 . S
H165 C188 0.950 . S
H166 C189 0.950 . S
H167 C191 0.950 . S
H168 C192 0.950 . S
H169 C193 0.951 . S
H170 C195 0.951 . S
H171 C197 0.950 . S
H172 C198 0.950 . S
H173 C200 0.950 . S
H174 C203 0.950 . S
H175 C204 0.950 . S
H176 C206 0.950 . S
H177 C207 0.950 . S
C178 H160 0.951 . S
C178 C179 1.366 . S
C178 C180 1.388 . S
C179 C178 1.366 . S
C179 C183 1.385 1_554 S
C180 H161 0.951 . S
C180 C178 1.388 . S
C180 C181 1.361 1_554 S
C181 C180 1.361 1_556 S
C181 C182 1.422 . S
C181 C184 1.495 . S
C182 H162 0.950 . S
C182 C181 1.422 . S
C182 C183 1.374 . S
C183 H163 0.950 . S
C183 C179 1.385 1_556 S
C183 C182 1.374 . S
C184 C181 1.495 . S
C184 C185 1.373 1_556 S
C184 C186 1.389 . S
C185 H164 0.950 . S
C185 C184 1.373 1_554 S
C185 C201 1.377 . S
C186 C184 1.389 . S
C186 C187 1.524 . S
C186 C200 1.377 . S
C187 C186 1.524 . S
C187 C188 1.397 . S
C187 C192 1.363 . S
C188 H165 0.950 . S
C188 C187 1.397 . S
C188 C189 1.334 . S
C189 H166 0.950 . S
C189 C188 1.334 . S
C189 C190 1.287 . S
C190 C189 1.287 . S
C190 C191 1.524 . S
C190 H209 0.913 . S
C191 H167 0.950 . S
C191 C190 1.524 . S
C191 C192 1.415 . S
C192 H168 0.950 . S
C192 C187 1.363 . S
C192 C191 1.415 . S
C193 H169 0.951 . S
C193 C194 1.371 . S
C193 C195 1.388 . S
C194 C193 1.371 . S
C194 C198 1.381 1_556 S
C195 H170 0.951 . S
C195 C193 1.388 . S
C195 C196 1.366 1_556 S
C196 C195 1.366 1_554 S
C196 C197 1.414 . S
C196 C199 1.499 . S
C197 H171 0.950 . S
C197 C196 1.414 . S
C197 C198 1.374 . S
C198 H172 0.950 . S
C198 C194 1.381 1_554 S
C198 C197 1.374 . S
C199 C196 1.499 . S
C199 C200 1.373 1_554 S
C199 C201 1.389 . S
C200 H173 0.950 . S
C200 C186 1.377 . S
C200 C199 1.373 1_556 S
C201 C185 1.377 . S
C201 C199 1.389 . S
C201 C202 1.524 . S
C202 C201 1.524 . S
C202 C203 1.397 . S
C202 C207 1.363 . S
C203 H174 0.950 . S
C203 C202 1.397 . S
C203 C204 1.334 . S
C204 H175 0.950 . S
C204 C203 1.334 . S
C204 C205 1.287 . S
C205 C204 1.287 . S
C205 C206 1.524 . S
C205 H208 0.999 . S
C206 H176 0.950 . S
C206 C205 1.524 . S
C206 C207 1.415 . S
C207 H177 0.950 . S
C207 C202 1.363 . S
C207 C206 1.415 . S
H208 C205 0.999 . S
H209 C190 0.913 . S
H210 C228 0.951 . S
H211 C230 0.951 . S
H212 C232 0.950 . S
H213 C233 0.950 . S
H214 C235 0.950 . S
H215 C238 0.950 . S
H216 C239 0.950 . S
H217 C241 0.950 . S
H218 C242 0.950 . S
H219 C243 0.951 . S
H220 C245 0.951 . S
H221 C247 0.950 . S
H222 C248 0.950 . S
H223 C250 0.950 . S
H224 C253 0.950 . S
H225 C254 0.950 . S
H226 C256 0.950 . S
H227 C257 0.950 . S
C228 H210 0.951 . S
C228 C229 1.355 1_554 S
C228 C230 1.388 . S
C229 C228 1.355 1_556 S
C229 C233 1.399 . S
C230 H211 0.951 . S
C230 C228 1.388 . S
C230 C231 1.366 1_554 S
C231 C230 1.366 1_556 S
C231 C232 1.414 . S
C231 C234 1.499 . S
C232 H212 0.950 . S
C232 C231 1.414 . S
C232 C233 1.374 . S
C233 H213 0.950 . S
C233 C229 1.399 . S
C233 C232 1.374 . S
C234 C231 1.499 . S
C234 C235 1.373 . S
C234 C236 1.389 1_556 S
C235 H214 0.950 . S
C235 C234 1.373 . S
C235 C251 1.377 . S
C236 C234 1.389 1_554 S
C236 C237 1.524 . S
C236 C250 1.377 . S
C237 C236 1.524 . S
C237 C238 1.397 1_554 S
C237 C242 1.363 . S
C238 H215 0.950 . S
C238 C237 1.397 1_556 S
C238 C239 1.334 . S
C239 H216 0.950 . S
C239 C238 1.334 . S
C239 C240 1.287 . S
C240 C239 1.287 . S
C240 C241 1.524 1_556 S
C240 H259 0.913 . S
C241 H217 0.950 . S
C241 C240 1.524 1_554 S
C241 C242 1.415 . S
C242 H218 0.950 . S
C242 C237 1.363 . S
C242 C241 1.415 . S
C243 H219 0.951 . S
C243 C244 1.366 1_556 S
C243 C245 1.388 . S
C244 C243 1.366 1_554 S
C244 C248 1.385 . S
C245 H220 0.951 . S
C245 C243 1.388 . S
C245 C246 1.366 1_556 S
C246 C245 1.366 1_554 S
C246 C247 1.414 . S
C246 C249 1.499 . S
C247 H221 0.950 . S
C247 C246 1.414 . S
C247 C248 1.374 . S
C248 H222 0.950 . S
C248 C244 1.385 . S
C248 C247 1.374 . S
C249 C246 1.499 . S
C249 C250 1.373 . S
C249 C251 1.389 1_554 S
C250 H223 0.950 . S
C250 C236 1.377 . S
C250 C249 1.373 . S
C251 C235 1.377 . S
C251 C249 1.389 1_556 S
C251 C252 1.524 . S
C252 C251 1.524 . S
C252 C253 1.397 1_556 S
C252 C257 1.363 . S
C253 H224 0.950 . S
C253 C252 1.397 1_554 S
C253 C254 1.334 . S
C254 H225 0.950 . S
C254 C253 1.334 . S
C254 C255 1.287 . S
C255 C254 1.287 . S
C255 C256 1.524 1_554 S
C255 H258 0.999 1_545 S
C256 H226 0.950 . S
C256 C255 1.524 1_556 S
C256 C257 1.415 . S
C257 H227 0.950 . S
C257 C252 1.363 . S
C257 C256 1.415 . S
H258 C255 0.999 1_565 S
H259 C240 0.913 . S
H260 C278 0.951 . S
H261 C280 0.951 . S
H262 C282 0.950 . S
H263 C283 0.950 . S
H264 C285 0.950 . S
H265 C288 0.950 . S
H266 C289 0.950 . S
H267 C291 0.950 . S
H268 C292 0.950 . S
H269 C293 0.951 . S
H270 C295 0.951 . S
H271 C297 0.950 . S
H272 C298 0.950 . S
H273 C300 0.950 . S
H274 C303 0.950 . S
H275 C304 0.950 . S
H276 C306 0.950 . S
H277 C307 0.950 . S
C278 H260 0.951 . S
C278 C279 1.366 . S
C278 C280 1.388 . S
C279 C278 1.366 . S
C279 C283 1.385 . S
C280 H261 0.951 . S
C280 C278 1.388 . S
C280 C281 1.366 . S
C281 C280 1.366 . S
C281 C282 1.414 . S
C281 C284 1.499 . S
C282 H262 0.950 . S
C282 C281 1.414 . S
C282 C283 1.374 . S
C283 H263 0.950 . S
C283 C279 1.385 . S
C283 C282 1.374 . S
C284 C281 1.499 . S
C284 C285 1.373 . S
C284 C286 1.389 . S
C285 H264 0.950 . S
C285 C284 1.373 . S
C285 C301 1.377 . S
C286 C284 1.389 . S
C286 C287 1.524 . S
C286 C300 1.377 . S
C287 C286 1.524 . S
C287 C288 1.397 . S
C287 C292 1.363 . S
C288 H265 0.950 . S
C288 C287 1.397 . S
C288 C289 1.334 . S
C289 H266 0.950 . S
C289 C288 1.334 . S
C289 C290 1.287 . S
C290 C289 1.287 . S
C290 C291 1.524 . S
C290 H309 0.913 . S
C291 H267 0.950 . S
C291 C290 1.524 . S
C291 C292 1.415 . S
C292 H268 0.950 . S
C292 C287 1.363 . S
C292 C291 1.415 . S
C293 H269 0.951 . S
C293 C294 1.366 . S
C293 C295 1.388 . S
C294 C293 1.366 . S
C294 C298 1.385 . S
C295 H270 0.951 . S
C295 C293 1.388 . S
C295 C296 1.366 . S
C296 C295 1.366 . S
C296 C297 1.414 . S
C296 C299 1.499 . S
C297 H271 0.950 . S
C297 C296 1.414 . S
C297 C298 1.374 . S
C298 H272 0.950 . S
C298 C294 1.385 . S
C298 C297 1.374 . S
C299 C296 1.499 . S
C299 C300 1.373 . S
C299 C301 1.389 . S
C300 H273 0.950 . S
C300 C286 1.377 . S
C300 C299 1.373 . S
C301 C285 1.377 . S
C301 C299 1.389 . S
C301 C302 1.524 . S
C302 C301 1.524 . S
C302 C303 1.397 . S
C302 C307 1.363 . S
C303 H274 0.950 . S
C303 C302 1.397 . S
C303 C304 1.334 . S
C304 H275 0.950 . S
C304 C303 1.334 . S
C304 C305 1.287 . S
C305 C304 1.287 . S
C305 C306 1.524 . S
C305 H308 0.999 . S
C306 H276 0.950 . S
C306 C305 1.524 . S
C306 C307 1.415 . S
C307 H277 0.950 . S
C307 C302 1.363 . S
C307 C306 1.415 . S
H308 C305 0.999 . S
H309 C290 0.913 . S
H310 C328 0.951 . S
H311 C330 0.951 . S
H312 C332 0.950 . S
H313 C333 0.950 . S
H314 C335 0.950 . S
H315 C338 0.950 . S
H316 C339 0.950 . S
H317 C341 0.950 . S
H318 C342 0.950 . S
H319 C343 0.951 . S
H320 C345 0.951 . S
H321 C347 0.950 . S
H322 C348 0.950 . S
H323 C350 0.950 . S
H324 C353 0.950 . S
H325 C354 0.950 . S
H326 C356 0.950 . S
H327 C357 0.950 . S
C328 H310 0.951 . S
C328 C329 1.366 . S
C328 C330 1.388 . S
C329 C328 1.366 . S
C329 C333 1.385 . S
C330 H311 0.951 . S
C330 C328 1.388 . S
C330 C331 1.366 . S
C331 C330 1.366 . S
C331 C332 1.414 . S
C331 C334 1.499 . S
C332 H312 0.950 . S
C332 C331 1.414 . S
C332 C333 1.374 . S
C333 H313 0.950 . S
C333 C329 1.385 . S
C333 C332 1.374 . S
C334 C331 1.499 . S
C334 C335 1.373 . S
C334 C336 1.389 . S
C335 H314 0.950 . S
C335 C334 1.373 . S
C335 C351 1.377 . S
C336 C334 1.389 . S
C336 C337 1.524 . S
C336 C350 1.377 . S
C337 C336 1.524 . S
C337 C338 1.397 . S
C337 C342 1.363 . S
C338 H315 0.950 . S
C338 C337 1.397 . S
C338 C339 1.334 . S
C339 H316 0.950 . S
C339 C338 1.334 . S
C339 C340 1.287 . S
C340 C339 1.287 . S
C340 C341 1.524 . S
C340 H359 0.913 . S
C341 H317 0.950 . S
C341 C340 1.524 . S
C341 C342 1.415 . S
C342 H318 0.950 . S
C342 C337 1.363 . S
C342 C341 1.415 . S
C343 H319 0.951 . S
C343 C344 1.366 . S
C343 C345 1.388 . S
C344 C343 1.366 . S
C344 C348 1.385 . S
C345 H320 0.951 . S
C345 C343 1.388 . S
C345 C346 1.366 . S
C346 C345 1.366 . S
C346 C347 1.414 . S
C346 C349 1.499 . S
C347 H321 0.950 . S
C347 C346 1.414 . S
C347 C348 1.374 . S
C348 H322 0.950 . S
C348 C344 1.385 . S
C348 C347 1.374 . S
C349 C346 1.499 . S
C349 C350 1.373 . S
C349 C351 1.389 . S
C350 H323 0.950 . S
C350 C336 1.377 . S
C350 C349 1.373 . S
C351 C335 1.377 . S
C351 C349 1.389 . S
C351 C352 1.524 . S
C352 C351 1.524 . S
C352 C353 1.397 . S
C352 C357 1.363 . S
C353 H324 0.950 . S
C353 C352 1.397 . S
C353 C354 1.334 . S
C354 H325 0.950 . S
C354 C353 1.334 . S
C354 C355 1.287 . S
C355 C354 1.287 . S
C355 C356 1.524 . S
C355 H358 0.999 . S
C356 H326 0.950 . S
C356 C355 1.524 . S
C356 C357 1.415 . S
C357 H327 0.950 . S
C357 C352 1.363 . S
C357 C356 1.415 . S
H358 C355 0.999 . S
H359 C340 0.913 . S
H360 C378 0.951 1_565 S
H361 C380 0.951 . S
H362 C382 0.950 . S
H363 C383 0.950 . S
H364 C385 0.950 . S
H365 C388 0.950 1_545 S
H366 C389 0.950 . S
H367 C391 0.950 . S
H368 C392 0.950 . S
H369 C393 0.951 1_545 S
H370 C395 0.951 . S
H371 C397 0.950 . S
H372 C398 0.950 . S
H373 C400 0.950 . S
H374 C403 0.950 1_565 S
H375 C404 0.950 . S
H376 C406 0.950 . S
H377 C407 0.950 . S
C378 H360 0.951 1_545 S
C378 C379 1.366 1_556 S
C378 C380 1.388 1_545 S
C379 C378 1.366 1_554 S
C379 C383 1.385 . S
C380 H361 0.951 . S
C380 C378 1.388 1_565 S
C380 C381 1.366 1_566 S
C381 C380 1.366 1_544 S
C381 C382 1.414 . S
C381 C384 1.499 . S
C382 H362 0.950 . S
C382 C381 1.414 . S
C382 C383 1.374 . S
C383 H363 0.950 . S
C383 C379 1.385 . S
C383 C382 1.374 . S
C384 C381 1.499 . S
C384 C385 1.373 1_554 S
C384 C386 1.389 1_545 S
C385 H364 0.950 . S
C385 C384 1.373 1_556 S
C385 C401 1.377 . S
C386 C384 1.389 1_565 S
C386 C387 1.524 . S
C386 C400 1.377 . S
C387 C386 1.524 . S
C387 C388 1.397 . S
C387 C392 1.363 . S
C388 H365 0.950 1_565 S
C388 C387 1.397 . S
C388 C389 1.334 . S
C389 H366 0.950 . S
C389 C388 1.334 . S
C389 C390 1.287 . S
C390 C389 1.287 . S
C390 C391 1.524 . S
C390 H409 0.913 . S
C391 H367 0.950 . S
C391 C390 1.524 . S
C391 C392 1.415 . S
C392 H368 0.950 . S
C392 C387 1.363 . S
C392 C391 1.415 . S
C393 H369 0.951 1_565 S
C393 C394 1.366 1_554 S
C393 C395 1.388 1_565 S
C394 C393 1.366 1_556 S
C394 C398 1.385 . S
C395 H370 0.951 . S
C395 C393 1.388 1_545 S
C395 C396 1.366 1_544 S
C396 C395 1.366 1_566 S
C396 C397 1.414 . S
C396 C399 1.499 . S
C397 H371 0.950 . S
C397 C396 1.414 . S
C397 C398 1.374 . S
C398 H372 0.950 . S
C398 C394 1.385 . S
C398 C397 1.374 . S
C399 C396 1.499 . S
C399 C400 1.373 1_556 S
C399 C401 1.389 1_565 S
C400 H373 0.950 . S
C400 C386 1.377 . S
C400 C399 1.373 1_554 S
C401 C385 1.377 . S
C401 C399 1.389 1_545 S
C401 C402 1.524 . S
C402 C401 1.524 . S
C402 C403 1.397 . S
C402 C407 1.363 . S
C403 H374 0.950 1_545 S
C403 C402 1.397 . S
C403 C404 1.334 . S
C404 H375 0.950 . S
C404 C403 1.334 . S
C404 C405 1.287 . S
C405 C404 1.287 . S
C405 C406 1.524 . S
C405 H408 0.999 . S
C406 H376 0.950 . S
C406 C405 1.524 . S
C406 C407 1.415 . S
C407 H377 0.950 . S
C407 C402 1.363 . S
C407 C406 1.415 . S
H408 C405 0.999 . S
H409 C390 0.913 . S
H410 C428 0.951 . S
H411 C430 0.951 . S
H412 C432 0.950 . S
H413 C433 0.950 1_545 S
H414 C435 0.950 . S
H415 C438 0.950 . S
H416 C439 0.950 . S
H417 C441 0.950 . S
H418 C442 0.950 . S
H419 C443 0.951 . S
H420 C445 0.951 . S
H421 C447 0.950 . S
H422 C448 0.950 1_565 S
H423 C450 0.950 . S
H424 C453 0.950 . S
H425 C454 0.950 . S
H426 C456 0.950 . S
H427 C457 0.950 . S
C428 H410 0.951 . S
C428 C429 1.366 . S
C428 C430 1.388 . S
C429 C428 1.366 . S
C429 C433 1.385 . S
C430 H411 0.951 . S
C430 C428 1.388 . S
C430 C431 1.366 . S
C431 C430 1.366 . S
C431 C432 1.414 1_565 S
C431 C434 1.499 . S
C432 H412 0.950 . S
C432 C431 1.414 1_545 S
C432 C433 1.374 1_545 S
C433 H413 0.950 1_565 S
C433 C429 1.385 . S
C433 C432 1.374 1_565 S
C434 C431 1.499 . S
C434 C435 1.373 1_565 S
C434 C436 1.389 . S
C435 H414 0.950 . S
C435 C434 1.373 1_545 S
C435 C451 1.377 . S
C436 C434 1.389 . S
C436 C437 1.524 . S
C436 C450 1.377 . S
C437 C436 1.524 . S
C437 C438 1.397 . S
C437 C442 1.363 . S
C438 H415 0.950 . S
C438 C437 1.397 . S
C438 C439 1.334 . S
C439 H416 0.950 . S
C439 C438 1.334 . S
C439 C440 1.287 . S
C440 C439 1.287 . S
C440 C441 1.524 . S
C440 H459 0.913 . S
C441 H417 0.950 . S
C441 C440 1.524 . S
C441 C442 1.415 . S
C442 H418 0.950 . S
C442 C437 1.363 . S
C442 C441 1.415 . S
C443 H419 0.951 . S
C443 C444 1.366 . S
C443 C445 1.388 . S
C444 C443 1.366 . S
C444 C448 1.385 . S
C445 H420 0.951 . S
C445 C443 1.388 . S
C445 C446 1.366 . S
C446 C445 1.366 . S
C446 C447 1.414 1_545 S
C446 C449 1.499 . S
C447 H421 0.950 . S
C447 C446 1.414 1_565 S
C447 C448 1.374 1_565 S
C448 H422 0.950 1_545 S
C448 C444 1.385 . S
C448 C447 1.374 1_545 S
C449 C446 1.499 . S
C449 C450 1.373 1_545 S
C449 C451 1.389 . S
C450 H423 0.950 . S
C450 C436 1.377 . S
C450 C449 1.373 1_565 S
C451 C435 1.377 . S
C451 C449 1.389 . S
C451 C452 1.524 . S
C452 C451 1.524 . S
C452 C453 1.397 . S
C452 C457 1.363 . S
C453 H424 0.950 . S
C453 C452 1.397 . S
C453 C454 1.334 . S
C454 H425 0.950 . S
C454 C453 1.334 . S
C454 C455 1.287 . S
C455 C454 1.287 . S
C455 C456 1.524 . S
C455 H458 0.999 . S
C456 H426 0.950 . S
C456 C455 1.524 . S
C456 C457 1.415 . S
C457 H427 0.950 . S
C457 C452 1.363 . S
C457 C456 1.415 . S
H458 C455 0.999 . S
H459 C440 0.913 . S
H460 C478 0.951 . S
H461 C480 0.951 . S
H462 C482 0.950 . S
H463 C483 0.950 . S
H464 C485 0.950 . S
H465 C488 0.950 . S
H466 C489 0.950 . S
H467 C491 0.950 . S
H468 C492 0.950 . S
H469 C493 0.951 . S
H470 C495 0.951 . S
H471 C497 0.950 . S
H472 C498 0.950 . S
H473 C500 0.950 . S
H474 C503 0.950 . S
H475 C504 0.950 . S
H476 C506 0.950 . S
H477 C507 0.950 . S
C478 H460 0.951 . S
C478 C479 1.366 . S
C478 C480 1.388 . S
C479 C478 1.366 . S
C479 C483 1.385 1_554 S
C480 H461 0.951 . S
C480 C478 1.388 . S
C480 C481 1.377 . S
C481 C480 1.377 . S
C481 C482 1.405 1_554 S
C481 C484 1.496 1_554 S
C482 H462 0.950 . S
C482 C481 1.405 1_556 S
C482 C483 1.374 . S
C483 H463 0.950 . S
C483 C479 1.385 1_556 S
C483 C482 1.374 . S
C484 C481 1.496 1_556 S
C484 C485 1.373 . S
C484 C486 1.389 1_556 S
C485 H464 0.950 . S
C485 C484 1.373 . S
C485 C501 1.377 1_655 S
C486 C484 1.389 1_554 S
C486 C487 1.524 . S
C486 C500 1.377 1_655 S
C487 C486 1.524 . S
C487 C488 1.397 1_554 S
C487 C492 1.363 1_655 S
C488 H465 0.950 . S
C488 C487 1.397 1_556 S
C488 C489 1.334 . S
C489 H466 0.950 . S
C489 C488 1.334 . S
C489 C490 1.287 1_556 S
C490 C489 1.287 1_554 S
C490 C491 1.524 1_655 S
C490 H509 0.913 . S
C491 H467 0.950 . S
C491 C490 1.524 1_455 S
C491 C492 1.415 . S
C492 H468 0.950 . S
C492 C487 1.363 1_455 S
C492 C491 1.415 . S
C493 H469 0.951 . S
C493 C494 1.366 . S
C493 C495 1.388 . S
C494 C493 1.366 . S
C494 C498 1.385 1_556 S
C495 H470 0.951 . S
C495 C493 1.388 . S
C495 C496 1.356 1_556 S
C496 C495 1.356 1_554 S
C496 C497 1.421 . S
C496 C499 1.501 . S
C497 H471 0.950 . S
C497 C496 1.421 . S
C497 C498 1.374 . S
C498 H472 0.950 . S
C498 C494 1.385 1_554 S
C498 C497 1.374 . S
C499 C496 1.501 . S
C499 C500 1.373 . S
C499 C501 1.389 1_554 S
C500 H473 0.950 . S
C500 C486 1.377 1_455 S
C500 C499 1.373 . S
C501 C485 1.377 1_455 S
C501 C499 1.389 1_556 S
C501 C502 1.524 . S
C502 C501 1.524 . S
C502 C503 1.397 1_556 S
C502 C507 1.363 1_455 S
C503 H474 0.950 . S
C503 C502 1.397 1_554 S
C503 C504 1.334 . S
C504 H475 0.950 . S
C504 C503 1.334 . S
C504 C505 1.287 1_554 S
C505 C504 1.287 1_556 S
C505 C506 1.524 1_455 S
C505 H508 0.999 . S
C506 H476 0.950 . S
C506 C505 1.524 1_655 S
C506 C507 1.415 . S
C507 H477 0.950 . S
C507 C502 1.363 1_655 S
C507 C506 1.415 . S
H508 C505 0.999 . S
H509 C490 0.913 . S
H510 C528 0.951 . S
H511 C530 0.951 . S
H512 C532 0.950 . S
H513 C533 0.950 . S
H514 C535 0.950 . S
H515 C538 0.950 . S
H516 C539 0.950 . S
H517 C541 0.950 . S
H518 C542 0.950 1_655 S
H519 C543 0.951 . S
H520 C545 0.951 . S
H521 C547 0.950 . S
H522 C548 0.950 . S
H523 C550 0.950 . S
H524 C553 0.950 . S
H525 C554 0.950 . S
H526 C556 0.951 . S
H527 C557 0.950 1_455 S
C528 H510 0.951 . S
C528 C529 1.366 . S
C528 C530 1.388 . S
C529 C528 1.366 . S
C529 C533 1.385 . S
C530 H511 0.951 . S
C530 C528 1.388 . S
C530 C531 1.366 . S
C531 C530 1.366 . S
C531 C532 1.414 . S
C531 C534 1.499 . S
C532 H512 0.950 . S
C532 C531 1.414 . S
C532 C533 1.374 . S
C533 H513 0.950 . S
C533 C529 1.385 . S
C533 C532 1.374 . S
C534 C531 1.499 . S
C534 C535 1.373 . S
C534 C536 1.389 . S
C535 H514 0.950 . S
C535 C534 1.373 . S
C535 C551 1.377 1_455 S
C536 C534 1.389 . S
C536 C537 1.524 . S
C536 C550 1.377 1_455 S
C537 C536 1.524 . S
C537 C538 1.397 . S
C537 C542 1.363 . S
C538 H515 0.950 . S
C538 C537 1.397 . S
C538 C539 1.334 . S
C539 H516 0.950 . S
C539 C538 1.334 . S
C539 C540 1.287 . S
C540 C539 1.287 . S
C540 C541 1.524 . S
C540 H559 0.913 . S
C541 H517 0.950 . S
C541 C540 1.524 . S
C541 C542 1.415 . S
C542 H518 0.950 1_455 S
C542 C537 1.363 . S
C542 C541 1.415 . S
C543 H519 0.951 . S
C543 C544 1.366 . S
C543 C545 1.388 . S
C544 C543 1.366 . S
C544 C548 1.385 . S
C545 H520 0.951 . S
C545 C543 1.388 . S
C545 C546 1.366 . S
C546 C545 1.366 . S
C546 C547 1.414 . S
C546 C549 1.499 . S
C547 H521 0.950 . S
C547 C546 1.414 . S
C547 C548 1.374 . S
C548 H522 0.950 . S
C548 C544 1.385 . S
C548 C547 1.374 . S
C549 C546 1.499 . S
C549 C550 1.373 . S
C549 C551 1.389 . S
C550 H523 0.950 . S
C550 C536 1.377 1_655 S
C550 C549 1.373 . S
C551 C535 1.377 1_655 S
C551 C549 1.389 . S
C551 C552 1.524 . S
C552 C551 1.524 . S
C552 C553 1.397 . S
C552 C557 1.363 . S
C553 H524 0.950 . S
C553 C552 1.397 . S
C553 C554 1.334 . S
C554 H525 0.950 . S
C554 C553 1.334 . S
C554 C555 1.287 . S
C555 C554 1.287 . S
C555 C556 1.524 . S
C555 H558 0.999 . S
C556 H526 0.951 . S
C556 C555 1.524 . S
C556 C557 1.415 . S
C557 H527 0.950 1_655 S
C557 C552 1.363 . S
C557 C556 1.415 . S
H558 C555 0.999 . S
H559 C540 0.913 . S
H560 C578 0.951 . S
H561 C580 0.951 . S
H562 C582 0.950 . S
H563 C583 0.950 . S
H564 C585 0.950 . S
H565 C588 0.950 . S
H566 C589 0.950 . S
H567 C591 0.957 . S
H568 C592 0.950 . S
H569 C593 0.951 . S
H570 C595 0.951 . S
H571 C597 0.950 . S
H572 C598 0.950 . S
H573 C600 0.950 . S
H574 C603 0.950 . S
H575 C604 0.950 . S
H576 C606 0.950 1_565 S
H577 C607 0.950 . S
C578 H560 0.951 . S
C578 C579 1.355 1_655 S
C578 C580 1.388 . S
C579 C578 1.355 1_455 S
C579 C583 1.399 1_545 S
C580 H561 0.951 . S
C580 C578 1.388 . S
C580 C581 1.371 1_545 S
C581 C580 1.371 1_565 S
C581 C582 1.412 1_655 S
C581 C584 1.495 . S
C582 H562 0.950 . S
C582 C581 1.412 1_455 S
C582 C583 1.374 . S
C583 H563 0.950 . S
C583 C579 1.399 1_565 S
C583 C582 1.374 . S
C584 C581 1.495 . S
C584 C585 1.370 1_665 S
C584 C586 1.392 . S
C585 H564 0.950 . S
C585 C584 1.370 1_445 S
C585 C601 1.377 . S
C586 C584 1.392 . S
C586 C587 1.524 . S
C586 C600 1.377 . S
C587 C586 1.524 . S
C587 C588 1.397 . S
C587 C592 1.363 1_565 S
C588 H565 0.950 . S
C588 C587 1.397 . S
C588 C589 1.334 . S
C589 H566 0.950 . S
C589 C588 1.334 . S
C589 C590 1.287 . S
C590 C589 1.287 . S
C590 C591 1.513 1_565 S
C590 H609 0.913 . S
C591 H567 0.957 . S
C591 C590 1.513 1_545 S
C591 C592 1.418 . S
C592 H568 0.950 . S
C592 C587 1.363 1_545 S
C592 C591 1.418 . S
C593 H569 0.951 . S
C593 C594 1.365 1_565 S
C593 C595 1.388 . S
C594 C593 1.365 1_545 S
C594 C598 1.385 1_455 S
C595 H570 0.951 . S
C595 C593 1.388 . S
C595 C596 1.366 1_565 S
C596 C595 1.366 1_545 S
C596 C597 1.414 1_455 S
C596 C599 1.499 . S
C597 H571 0.950 . S
C597 C596 1.414 1_655 S
C597 C598 1.374 . S
C598 H572 0.950 . S
C598 C594 1.385 1_655 S
C598 C597 1.374 . S
C599 C596 1.499 . S
C599 C600 1.373 1_445 S
C599 C601 1.389 . S
C600 H573 0.950 . S
C600 C586 1.377 . S
C600 C599 1.373 1_665 S
C601 C585 1.377 . S
C601 C599 1.389 . S
C601 C602 1.524 . S
C602 C601 1.524 . S
C602 C603 1.397 . S
C602 C607 1.363 1_545 S
C603 H574 0.950 . S
C603 C602 1.397 . S
C603 C604 1.334 . S
C604 H575 0.950 . S
C604 C603 1.334 . S
C604 C605 1.287 . S
C605 C604 1.287 . S
C605 C606 1.524 . S
C605 H608 0.999 . S
C606 H576 0.950 1_545 S
C606 C605 1.524 . S
C606 C607 1.415 1_545 S
C607 H577 0.950 . S
C607 C602 1.363 1_565 S
C607 C606 1.415 1_565 S
H608 C605 0.999 . S
H609 C590 0.913 . S
H610 C628 0.951 . S
H611 C630 0.951 . S
H612 C632 0.950 . S
H613 C633 0.950 . S
H614 C635 0.950 . S
H615 C638 0.950 1_565 S
H616 C639 0.950 1_565 S
H617 C641 0.950 . S
H618 C642 0.950 . S
H619 C643 0.951 . S
H620 C645 0.951 . S
H621 C647 0.950 . S
H622 C648 0.950 . S
H623 C650 0.950 . S
H624 C653 0.950 1_545 S
H625 C654 0.951 1_545 S
H626 C656 0.950 . S
H627 C657 0.950 . S
C628 H610 0.951 . S
C628 C629 1.345 1_645 S
C628 C630 1.388 . S
C629 C628 1.345 1_465 S
C629 C633 1.409 . S
C630 H611 0.951 . S
C630 C628 1.388 . S
C630 C631 1.366 1_545 S
C631 C630 1.366 1_565 S
C631 C632 1.414 1_655 S
C631 C634 1.499 . S
C632 H612 0.950 . S
C632 C631 1.414 1_455 S
C632 C633 1.374 . S
C633 H613 0.950 . S
C633 C629 1.409 . S
C633 C632 1.374 . S
C634 C631 1.499 . S
C634 C635 1.373 1_655 S
C634 C636 1.389 1_565 S
C635 H614 0.950 . S
C635 C634 1.373 1_455 S
C635 C651 1.377 . S
C636 C634 1.389 1_545 S
C636 C637 1.524 . S
C636 C650 1.377 . S
C637 C636 1.524 . S
C637 C638 1.397 . S
C637 C642 1.363 . S
C638 H615 0.950 1_545 S
C638 C637 1.397 . S
C638 C639 1.334 . S
C639 H616 0.950 1_545 S
C639 C638 1.334 . S
C639 C640 1.287 . S
C640 C639 1.287 . S
C640 C641 1.524 . S
C640 H659 0.913 . S
C641 H617 0.950 . S
C641 C640 1.524 . S
C641 C642 1.415 . S
C642 H618 0.950 . S
C642 C637 1.363 . S
C642 C641 1.415 . S
C643 H619 0.951 . S
C643 C644 1.384 . S
C643 C645 1.388 . S
C644 C643 1.384 . S
C644 C648 1.366 1_465 S
C645 H620 0.951 . S
C645 C643 1.388 . S
C645 C646 1.369 . S
C646 C645 1.369 . S
C646 C647 1.411 1_465 S
C646 C649 1.499 1_565 S
C647 H621 0.950 . S
C647 C646 1.411 1_645 S
C647 C648 1.374 . S
C648 H622 0.950 . S
C648 C644 1.366 1_645 S
C648 C647 1.374 . S
C649 C646 1.499 1_545 S
C649 C650 1.373 1_455 S
C649 C651 1.389 1_545 S
C650 H623 0.950 . S
C650 C636 1.377 . S
C650 C649 1.373 1_655 S
C651 C635 1.377 . S
C651 C649 1.389 1_565 S
C651 C652 1.524 . S
C652 C651 1.524 . S
C652 C653 1.397 . S
C652 C657 1.363 . S
C653 H624 0.950 1_565 S
C653 C652 1.397 . S
C653 C654 1.334 . S
C654 H625 0.951 1_565 S
C654 C653 1.334 . S
C654 C655 1.287 . S
C655 C654 1.287 . S
C655 C656 1.524 . S
C655 H658 0.999 . S
C656 H626 0.950 . S
C656 C655 1.524 . S
C656 C657 1.415 . S
C657 H627 0.950 . S
C657 C652 1.363 . S
C657 C656 1.415 . S
H658 C655 0.999 . S
H659 C640 0.913 . S
H660 C678 0.951 . S
H661 C680 0.951 . S
H662 C682 0.950 . S
H663 C683 0.950 . S
H664 C685 0.950 . S
H665 C688 0.950 . S
H666 C689 0.950 . S
H667 C691 0.950 . S
H668 C692 0.950 . S
H669 C693 0.951 . S
H670 C695 0.951 . S
H671 C697 0.950 . S
H672 C698 0.950 . S
H673 C700 0.950 . S
H674 C703 0.950 . S
H675 C704 0.950 . S
H676 C706 0.950 . S
H677 C707 0.950 . S
C678 H660 0.951 . S
C678 C679 1.366 . S
C678 C680 1.388 . S
C679 C678 1.366 . S
C679 C683 1.385 . S
C680 H661 0.951 . S
C680 C678 1.388 . S
C680 C681 1.366 . S
C681 C680 1.366 . S
C681 C682 1.414 . S
C681 C684 1.499 . S
C682 H662 0.950 . S
C682 C681 1.414 . S
C682 C683 1.374 . S
C683 H663 0.950 . S
C683 C679 1.385 . S
C683 C682 1.374 . S
C684 C681 1.499 . S
C684 C685 1.373 . S
C684 C686 1.389 . S
C685 H664 0.950 . S
C685 C684 1.373 . S
C685 C701 1.377 . S
C686 C684 1.389 . S
C686 C687 1.524 . S
C686 C700 1.377 . S
C687 C686 1.524 . S
C687 C688 1.397 . S
C687 C692 1.363 . S
C688 H665 0.950 . S
C688 C687 1.397 . S
C688 C689 1.334 . S
C689 H666 0.950 . S
C689 C688 1.334 . S
C689 C690 1.287 . S
C690 C689 1.287 . S
C690 C691 1.524 . S
C690 H709 0.913 . S
C691 H667 0.950 . S
C691 C690 1.524 . S
C691 C692 1.415 . S
C692 H668 0.950 . S
C692 C687 1.363 . S
C692 C691 1.415 . S
C693 H669 0.951 . S
C693 C694 1.366 . S
C693 C695 1.388 . S
C694 C693 1.366 . S
C694 C698 1.385 . S
C695 H670 0.951 . S
C695 C693 1.388 . S
C695 C696 1.366 . S
C696 C695 1.366 . S
C696 C697 1.414 . S
C696 C699 1.499 . S
C697 H671 0.950 . S
C697 C696 1.414 . S
C697 C698 1.374 . S
C698 H672 0.950 . S
C698 C694 1.385 . S
C698 C697 1.374 . S
C699 C696 1.499 . S
C699 C700 1.373 . S
C699 C701 1.389 . S
C700 H673 0.950 . S
C700 C686 1.377 . S
C700 C699 1.373 . S
C701 C685 1.377 . S
C701 C699 1.389 . S
C701 C702 1.524 . S
C702 C701 1.524 . S
C702 C703 1.397 . S
C702 C707 1.363 . S
C703 H674 0.950 . S
C703 C702 1.397 . S
C703 C704 1.334 . S
C704 H675 0.950 . S
C704 C703 1.334 . S
C704 C705 1.287 . S
C705 C704 1.287 . S
C705 C706 1.524 . S
C705 H708 0.999 . S
C706 H676 0.950 . S
C706 C705 1.524 . S
C706 C707 1.415 . S
C707 H677 0.950 . S
C707 C702 1.363 . S
C707 C706 1.415 . S
H708 C705 0.999 . S
H709 C690 0.913 . S
H710 C728 0.951 . S
H711 C730 0.951 . S
H712 C732 0.950 . S
H713 C733 0.950 . S
H714 C735 0.950 . S
H715 C738 0.950 . S
H716 C739 0.950 . S
H717 C741 0.950 . S
H718 C742 0.950 . S
H719 C743 0.951 . S
H720 C745 0.951 . S
H721 C747 0.950 . S
H722 C748 0.950 . S
H723 C750 0.950 . S
H724 C753 0.950 . S
H725 C754 0.950 . S
H726 C756 0.950 . S
H727 C757 0.950 . S
C728 H710 0.951 . S
C728 C729 1.366 . S
C728 C730 1.388 . S
C729 C728 1.366 . S
C729 C733 1.385 . S
C730 H711 0.951 . S
C730 C728 1.388 . S
C730 C731 1.366 . S
C731 C730 1.366 . S
C731 C732 1.414 . S
C731 C734 1.499 . S
C732 H712 0.950 . S
C732 C731 1.414 . S
C732 C733 1.374 . S
C733 H713 0.950 . S
C733 C729 1.385 . S
C733 C732 1.374 . S
C734 C731 1.499 . S
C734 C735 1.373 . S
C734 C736 1.389 . S
C735 H714 0.950 . S
C735 C734 1.373 . S
C735 C751 1.377 . S
C736 C734 1.389 . S
C736 C737 1.524 . S
C736 C750 1.377 . S
C737 C736 1.524 . S
C737 C738 1.397 . S
C737 C742 1.363 . S
C738 H715 0.950 . S
C738 C737 1.397 . S
C738 C739 1.334 . S
C739 H716 0.950 . S
C739 C738 1.334 . S
C739 C740 1.287 . S
C740 C739 1.287 . S
C740 C741 1.524 . S
C740 H759 0.913 . S
C741 H717 0.950 . S
C741 C740 1.524 . S
C741 C742 1.415 . S
C742 H718 0.950 . S
C742 C737 1.363 . S
C742 C741 1.415 . S
C743 H719 0.951 . S
C743 C744 1.366 . S
C743 C745 1.388 . S
C744 C743 1.366 . S
C744 C748 1.385 . S
C745 H720 0.951 . S
C745 C743 1.388 . S
C745 C746 1.366 . S
C746 C745 1.366 . S
C746 C747 1.414 . S
C746 C749 1.499 . S
C747 H721 0.950 . S
C747 C746 1.414 . S
C747 C748 1.374 . S
C748 H722 0.950 . S
C748 C744 1.385 . S
C748 C747 1.374 . S
C749 C746 1.499 . S
C749 C750 1.373 . S
C749 C751 1.389 . S
C750 H723 0.950 . S
C750 C736 1.377 . S
C750 C749 1.373 . S
C751 C735 1.377 . S
C751 C749 1.389 . S
C751 C752 1.524 . S
C752 C751 1.524 . S
C752 C753 1.397 . S
C752 C757 1.363 . S
C753 H724 0.950 . S
C753 C752 1.397 . S
C753 C754 1.334 . S
C754 H725 0.950 . S
C754 C753 1.334 . S
C754 C755 1.287 . S
C755 C754 1.287 . S
C755 C756 1.524 . S
C755 H758 0.999 . S
C756 H726 0.950 . S
C756 C755 1.524 . S
C756 C757 1.415 . S
C757 H727 0.950 . S
C757 C752 1.363 . S
C757 C756 1.415 . S
H758 C755 0.999 . S
H759 C740 0.913 . S
C179 C111 1.563 1_554 S
C194 C20 1.566 1_556 S
C229 C100 1.565 1_556 S
C244 C31 1.562 1_554 S
C279 C71 1.568 . S
C294 C140 1.567 . S
C329 C60 1.568 . S
C344 C151 1.569 . S
C379 C4 1.071 . S
C394 C25 1.068 . S
C429 C65 1.070 . S
C444 C44 1.070 . S
C479 C84 1.070 . S
C494 C105 1.067 . S
C529 C124 1.070 . S
C544 C145 1.070 . S
C579 C42 1.459 1_455 S
C594 C2 1.466 . S
C629 C23 1.461 1_455 S
C644 C63 1.468 . S
C679 C122 1.466 . S
C694 C82 1.466 . S
C729 C143 1.466 . S
C744 C103 1.466 . S
