# Generated by pormake.
# Topology yfs, (5)-cn, num edge types: 1
# Building blocks:
#     Node 0, Type 0, BuildingBlock: XOMCOT_clean_sbu_1, # of connection points: 5
#     Node 1, Type 0, BuildingBlock: XOMCOT_clean_sbu_1, # of connection points: 5
#     Node 2, Type 0, BuildingBlock: XOMCOT_clean_sbu_1, # of connection points: 5
#     Node 3, Type 0, BuildingBlock: XOMCOT_clean_sbu_1, # of connection points: 5
#     Node 4, Type 0, BuildingBlock: XOMCOT_clean_sbu_1, # of connection points: 5
#     Node 5, Type 0, BuildingBlock: XOMCOT_clean_sbu_1, # of connection points: 5
#     Node 6, Type 0, BuildingBlock: XOMCOT_clean_sbu_1, # of connection points: 5
#     Node 7, Type 0, BuildingBlock: XOMCOT_clean_sbu_1, # of connection points: 5
#     Node 8, Type 0, BuildingBlock: XOMCOT_clean_sbu_1, # of connection points: 5
#     Node 9, Type 0, BuildingBlock: XOMCOT_clean_sbu_1, # of connection points: 5
#     Node 10, Type 0, BuildingBlock: XOMCOT_clean_sbu_1, # of connection points: 5
#     Node 11, Type 0, BuildingBlock: XOMCOT_clean_sbu_1, # of connection points: 5
#     Node 12, Type 0, BuildingBlock: XOMCOT_clean_sbu_1, # of connection points: 5
#     Node 13, Type 0, BuildingBlock: XOMCOT_clean_sbu_1, # of connection points: 5
#     Node 14, Type 0, BuildingBlock: XOMCOT_clean_sbu_1, # of connection points: 5
#     Node 15, Type 0, BuildingBlock: XOMCOT_clean_sbu_1, # of connection points: 5
#     Node 16, Type 0, BuildingBlock: XOMCOT_clean_sbu_1, # of connection points: 5
#     Node 17, Type 0, BuildingBlock: XOMCOT_clean_sbu_1, # of connection points: 5
#     Node 18, Type 0, BuildingBlock: XOMCOT_clean_sbu_1, # of connection points: 5
#     Node 19, Type 0, BuildingBlock: XOMCOT_clean_sbu_1, # of connection points: 5
#     Node 20, Type 0, BuildingBlock: XOMCOT_clean_sbu_1, # of connection points: 5
#     Node 21, Type 0, BuildingBlock: XOMCOT_clean_sbu_1, # of connection points: 5
#     Node 22, Type 0, BuildingBlock: XOMCOT_clean_sbu_1, # of connection points: 5
#     Node 23, Type 0, BuildingBlock: XOMCOT_clean_sbu_1, # of connection points: 5
#     Node 24, Type 0, BuildingBlock: XOMCOT_clean_sbu_1, # of connection points: 5
#     Node 25, Type 0, BuildingBlock: XOMCOT_clean_sbu_1, # of connection points: 5
#     Node 26, Type 0, BuildingBlock: XOMCOT_clean_sbu_1, # of connection points: 5
#     Node 27, Type 0, BuildingBlock: XOMCOT_clean_sbu_1, # of connection points: 5
#     Node 28, Type 0, BuildingBlock: XOMCOT_clean_sbu_1, # of connection points: 5
#     Node 29, Type 0, BuildingBlock: XOMCOT_clean_sbu_1, # of connection points: 5
#     Node 30, Type 0, BuildingBlock: XOMCOT_clean_sbu_1, # of connection points: 5
#     Node 31, Type 0, BuildingBlock: XOMCOT_clean_sbu_1, # of connection points: 5
#     Edge 32, Type (0, 0), BuildingBlock: XIVTED_clean_linker_0, # of connection points: 2
#     Edge 33, Type (0, 0), BuildingBlock: XIVTED_clean_linker_0, # of connection points: 2
#     Edge 34, Type (0, 0), BuildingBlock: XIVTED_clean_linker_0, # of connection points: 2
#     Edge 35, Type (0, 0), BuildingBlock: XIVTED_clean_linker_0, # of connection points: 2
#     Edge 36, Type (0, 0), BuildingBlock: XIVTED_clean_linker_0, # of connection points: 2
#     Edge 37, Type (0, 0), BuildingBlock: XIVTED_clean_linker_0, # of connection points: 2
#     Edge 38, Type (0, 0), BuildingBlock: XIVTED_clean_linker_0, # of connection points: 2
#     Edge 39, Type (0, 0), BuildingBlock: XIVTED_clean_linker_0, # of connection points: 2
#     Edge 40, Type (0, 0), BuildingBlock: XIVTED_clean_linker_0, # of connection points: 2
#     Edge 41, Type (0, 0), BuildingBlock: XIVTED_clean_linker_0, # of connection points: 2
#     Edge 42, Type (0, 0), BuildingBlock: XIVTED_clean_linker_0, # of connection points: 2
#     Edge 43, Type (0, 0), BuildingBlock: XIVTED_clean_linker_0, # of connection points: 2
#     Edge 44, Type (0, 0), BuildingBlock: XIVTED_clean_linker_0, # of connection points: 2
#     Edge 45, Type (0, 0), BuildingBlock: XIVTED_clean_linker_0, # of connection points: 2
#     Edge 46, Type (0, 0), BuildingBlock: XIVTED_clean_linker_0, # of connection points: 2
#     Edge 47, Type (0, 0), BuildingBlock: XIVTED_clean_linker_0, # of connection points: 2
#     Edge 48, Type (0, 0), BuildingBlock: XIVTED_clean_linker_0, # of connection points: 2
#     Edge 49, Type (0, 0), BuildingBlock: XIVTED_clean_linker_0, # of connection points: 2
#     Edge 50, Type (0, 0), BuildingBlock: XIVTED_clean_linker_0, # of connection points: 2
#     Edge 51, Type (0, 0), BuildingBlock: XIVTED_clean_linker_0, # of connection points: 2
#     Edge 52, Type (0, 0), BuildingBlock: XIVTED_clean_linker_0, # of connection points: 2
#     Edge 53, Type (0, 0), BuildingBlock: XIVTED_clean_linker_0, # of connection points: 2
#     Edge 54, Type (0, 0), BuildingBlock: XIVTED_clean_linker_0, # of connection points: 2
#     Edge 55, Type (0, 0), BuildingBlock: XIVTED_clean_linker_0, # of connection points: 2
#     Edge 56, Type (0, 0), BuildingBlock: XIVTED_clean_linker_0, # of connection points: 2
#     Edge 57, Type (0, 0), BuildingBlock: XIVTED_clean_linker_0, # of connection points: 2
#     Edge 58, Type (0, 0), BuildingBlock: XIVTED_clean_linker_0, # of connection points: 2
#     Edge 59, Type (0, 0), BuildingBlock: XIVTED_clean_linker_0, # of connection points: 2
#     Edge 60, Type (0, 0), BuildingBlock: XIVTED_clean_linker_0, # of connection points: 2
#     Edge 61, Type (0, 0), BuildingBlock: XIVTED_clean_linker_0, # of connection points: 2
#     Edge 62, Type (0, 0), BuildingBlock: XIVTED_clean_linker_0, # of connection points: 2
#     Edge 63, Type (0, 0), BuildingBlock: XIVTED_clean_linker_0, # of connection points: 2
#     Edge 64, Type (0, 0), BuildingBlock: XIVTED_clean_linker_0, # of connection points: 2
#     Edge 65, Type (0, 0), BuildingBlock: XIVTED_clean_linker_0, # of connection points: 2
#     Edge 66, Type (0, 0), BuildingBlock: XIVTED_clean_linker_0, # of connection points: 2
#     Edge 67, Type (0, 0), BuildingBlock: XIVTED_clean_linker_0, # of connection points: 2
#     Edge 68, Type (0, 0), BuildingBlock: XIVTED_clean_linker_0, # of connection points: 2
#     Edge 69, Type (0, 0), BuildingBlock: XIVTED_clean_linker_0, # of connection points: 2
#     Edge 70, Type (0, 0), BuildingBlock: XIVTED_clean_linker_0, # of connection points: 2
#     Edge 71, Type (0, 0), BuildingBlock: XIVTED_clean_linker_0, # of connection points: 2
#     Edge 72, Type (0, 0), BuildingBlock: XIVTED_clean_linker_0, # of connection points: 2
#     Edge 73, Type (0, 0), BuildingBlock: XIVTED_clean_linker_0, # of connection points: 2
#     Edge 74, Type (0, 0), BuildingBlock: XIVTED_clean_linker_0, # of connection points: 2
#     Edge 75, Type (0, 0), BuildingBlock: XIVTED_clean_linker_0, # of connection points: 2
#     Edge 76, Type (0, 0), BuildingBlock: XIVTED_clean_linker_0, # of connection points: 2
#     Edge 77, Type (0, 0), BuildingBlock: XIVTED_clean_linker_0, # of connection points: 2
#     Edge 78, Type (0, 0), BuildingBlock: XIVTED_clean_linker_0, # of connection points: 2
#     Edge 79, Type (0, 0), BuildingBlock: XIVTED_clean_linker_0, # of connection points: 2
#     Edge 80, Type (0, 0), BuildingBlock: XIVTED_clean_linker_0, # of connection points: 2
#     Edge 81, Type (0, 0), BuildingBlock: XIVTED_clean_linker_0, # of connection points: 2
#     Edge 82, Type (0, 0), BuildingBlock: XIVTED_clean_linker_0, # of connection points: 2
#     Edge 83, Type (0, 0), BuildingBlock: XIVTED_clean_linker_0, # of connection points: 2
#     Edge 84, Type (0, 0), BuildingBlock: XIVTED_clean_linker_0, # of connection points: 2
#     Edge 85, Type (0, 0), BuildingBlock: XIVTED_clean_linker_0, # of connection points: 2
#     Edge 86, Type (0, 0), BuildingBlock: XIVTED_clean_linker_0, # of connection points: 2
#     Edge 87, Type (0, 0), BuildingBlock: XIVTED_clean_linker_0, # of connection points: 2
#     Edge 88, Type (0, 0), BuildingBlock: XIVTED_clean_linker_0, # of connection points: 2
#     Edge 89, Type (0, 0), BuildingBlock: XIVTED_clean_linker_0, # of connection points: 2
#     Edge 90, Type (0, 0), BuildingBlock: XIVTED_clean_linker_0, # of connection points: 2
#     Edge 91, Type (0, 0), BuildingBlock: XIVTED_clean_linker_0, # of connection points: 2
#     Edge 92, Type (0, 0), BuildingBlock: XIVTED_clean_linker_0, # of connection points: 2
#     Edge 93, Type (0, 0), BuildingBlock: XIVTED_clean_linker_0, # of connection points: 2
#     Edge 94, Type (0, 0), BuildingBlock: XIVTED_clean_linker_0, # of connection points: 2
#     Edge 95, Type (0, 0), BuildingBlock: XIVTED_clean_linker_0, # of connection points: 2
#     Edge 96, Type (0, 0), BuildingBlock: XIVTED_clean_linker_0, # of connection points: 2
#     Edge 97, Type (0, 0), BuildingBlock: XIVTED_clean_linker_0, # of connection points: 2
#     Edge 98, Type (0, 0), BuildingBlock: XIVTED_clean_linker_0, # of connection points: 2
#     Edge 99, Type (0, 0), BuildingBlock: XIVTED_clean_linker_0, # of connection points: 2
#     Edge 100, Type (0, 0), BuildingBlock: XIVTED_clean_linker_0, # of connection points: 2
#     Edge 101, Type (0, 0), BuildingBlock: XIVTED_clean_linker_0, # of connection points: 2
#     Edge 102, Type (0, 0), BuildingBlock: XIVTED_clean_linker_0, # of connection points: 2
#     Edge 103, Type (0, 0), BuildingBlock: XIVTED_clean_linker_0, # of connection points: 2
#     Edge 104, Type (0, 0), BuildingBlock: XIVTED_clean_linker_0, # of connection points: 2
#     Edge 105, Type (0, 0), BuildingBlock: XIVTED_clean_linker_0, # of connection points: 2
#     Edge 106, Type (0, 0), BuildingBlock: XIVTED_clean_linker_0, # of connection points: 2
#     Edge 107, Type (0, 0), BuildingBlock: XIVTED_clean_linker_0, # of connection points: 2
#     Edge 108, Type (0, 0), BuildingBlock: XIVTED_clean_linker_0, # of connection points: 2
#     Edge 109, Type (0, 0), BuildingBlock: XIVTED_clean_linker_0, # of connection points: 2
#     Edge 110, Type (0, 0), BuildingBlock: XIVTED_clean_linker_0, # of connection points: 2
#     Edge 111, Type (0, 0), BuildingBlock: XIVTED_clean_linker_0, # of connection points: 2
# Relax obj value: 0.538
# Max RMSD: 0.265
# Mean RMSD: 0.265
data_MOF--net-yfs--node1-XOMCOT_clean_sbu_1--edge1-XIVTED_clean_linker_0
_symmetry_space_group_name_H-M    P1
_symmetry_Int_Tables_number       1
_symmetry_cell_setting            triclinic
loop_
_symmetry_equiv_pos_as_xyz
'x, y, z'
_cell_length_a     42.575453
_cell_length_b     42.464444
_cell_length_c     86.126383
_cell_angle_alpha  90.005931
_cell_angle_beta   90.165716
_cell_angle_gamma 90.133322
loop_
_atom_site_label
_atom_site_type_symbol
_atom_site_fract_x
_atom_site_fract_y
_atom_site_fract_z
_atom_type_partial_charge
C0 C 0.41651 0.0989 0.21434 0.0
C1 C 0.44235 0.09031 0.20567 0.0
N2 N 0.43568 0.09501 0.19054 0.0
N3 N 0.39356 0.10908 0.20477 0.0
C4 C 0.40592 0.106 0.19037 0.0
H5 H 0.41527 0.09956 0.22687 0.0
Co6 Co 0.35678 0.13076 0.21085 0.0
C7 C 0.33579 0.13257 0.17565 0.0
O8 O 0.3273 0.10371 0.17206 0.0
N9 N 0.31979 0.15263 0.21661 0.0
C10 C 0.27481 0.17917 0.21518 0.0
C11 C 0.2951 0.15989 0.20737 0.0
C12 C 0.31285 0.16667 0.23026 0.0
N13 N 0.28615 0.18377 0.2296 0.0
O14 O 0.33516 0.09094 0.21301 0.0
H15 H 0.29188 0.15248 0.19551 0.0
H16 H 0.32704 0.16447 0.24056 0.0
O17 O 0.3456 0.13869 0.18932 0.0
C18 C 0.33864 0.08587 0.22764 0.0
O19 O 0.35231 0.10767 0.23609 0.0
N20 N 0.38003 0.1678 0.21124 0.0
C21 C 0.44152 0.18395 0.21722 0.0
C22 C 0.42996 0.18496 0.20194 0.0
C23 C 0.39859 0.17714 0.19916 0.0
C24 C 0.38948 0.17275 0.22615 0.0
C25 C 0.42021 0.181 0.22943 0.0
H26 H 0.39156 0.17301 0.1873 0.0
H27 H 0.37596 0.16381 0.23566 0.0
H28 H 0.39453 0.11429 0.17998 0.0
H29 H 0.46469 0.08246 0.21025 0.0
H30 H 0.25401 0.18987 0.21027 0.0
H31 H 0.44565 0.18817 0.19219 0.0
H32 H 0.42795 0.18 0.24141 0.0
C33 C 0.17699 0.1692 0.46364 0.0
C34 C 0.18441 0.19583 0.45541 0.0
N35 N 0.17225 0.19309 0.44105 0.0
N36 N 0.16014 0.14935 0.45459 0.0
C37 C 0.15791 0.16458 0.44076 0.0
H38 H 0.18144 0.16601 0.47588 0.0
Co39 Co 0.13761 0.11417 0.46248 0.0
C40 C 0.08522 0.10396 0.4406 0.0
O41 O 0.06819 0.10275 0.45328 0.0
N42 N 0.11521 0.07825 0.47015 0.0
C43 C 0.09905 0.02823 0.4705 0.0
C44 C 0.11778 0.04986 0.46316 0.0
C45 C 0.09424 0.07302 0.48173 0.0
N46 N 0.08413 0.04278 0.48221 0.0
O47 O 0.17296 0.08646 0.45844 0.0
H48 H 0.132 0.04518 0.45305 0.0
H49 H 0.08524 0.09108 0.48927 0.0
O50 O 0.11515 0.10826 0.44188 0.0
C51 C 0.18594 0.08925 0.47191 0.0
O52 O 0.17466 0.11013 0.48156 0.0
N53 N 0.10795 0.14217 0.46981 0.0
C54 C 0.08768 0.19507 0.48568 0.0
C55 C 0.08305 0.19258 0.46954 0.0
C56 C 0.09376 0.16586 0.46172 0.0
C57 C 0.11214 0.14452 0.48547 0.0
C58 C 0.10191 0.17046 0.49364 0.0
H59 H 0.0927 0.16533 0.44919 0.0
H60 H 0.12521 0.1269 0.49172 0.0
H61 H 0.14365 0.15642 0.43114 0.0
H62 H 0.19625 0.21649 0.45992 0.0
H63 H 0.09668 0.00369 0.46734 0.0
H64 H 0.07185 0.21129 0.46303 0.0
H65 H 0.1062 0.17171 0.50603 0.0
C66 C 0.0632 0.88929 0.70776 0.0
C67 C 0.03828 0.90058 0.69932 0.0
N68 N 0.04928 0.91363 0.68616 0.0
N69 N 0.09019 0.89445 0.69999 0.0
C70 C 0.08102 0.91091 0.68726 0.0
H71 H 0.0614 0.87674 0.71862 0.0
Co72 Co 0.12959 0.87811 0.70666 0.0
C73 C 0.13304 0.86009 0.67122 0.0
O74 O 0.10423 0.86731 0.66727 0.0
N75 N 0.16887 0.86201 0.71349 0.0
C76 C 0.21702 0.84193 0.71227 0.0
C77 C 0.19508 0.8601 0.70477 0.0
C78 C 0.17645 0.84638 0.72668 0.0
N79 N 0.20507 0.83263 0.72601 0.0
O80 O 0.14843 0.91941 0.70599 0.0
H81 H 0.1978 0.87008 0.69331 0.0
H82 H 0.16103 0.84457 0.73651 0.0
O83 O 0.14253 0.86503 0.68518 0.0
C84 C 0.14234 0.92911 0.71977 0.0
O85 O 0.12298 0.91234 0.72828 0.0
N86 N 0.11137 0.83865 0.70998 0.0
C87 C 0.11088 0.77759 0.72094 0.0
C88 C 0.10871 0.78362 0.70494 0.0
C89 C 0.1086 0.81451 0.69967 0.0
C90 C 0.10673 0.83334 0.72539 0.0
C91 C 0.10755 0.80285 0.73126 0.0
H92 H 0.10754 0.81845 0.68742 0.0
H93 H 0.10686 0.85293 0.73341 0.0
H94 H 0.09723 0.91953 0.67859 0.0
H95 H 0.01377 0.89719 0.70217 0.0
H96 H 0.23946 0.83517 0.70751 0.0
H97 H 0.10792 0.76472 0.6965 0.0
H98 H 0.10769 0.79949 0.74371 0.0
C99 C 0.32732 0.86279 0.94261 0.0
C100 C 0.31645 0.84316 0.93096 0.0
N101 N 0.33922 0.82239 0.9276 0.0
N102 N 0.35614 0.85322 0.9473 0.0
C103 C 0.36321 0.82989 0.93715 0.0
H104 H 0.31493 0.88301 0.94707 0.0
Co105 Co 0.38609 0.86777 0.96225 0.0
C106 C 0.42189 0.88476 0.93955 0.0
O107 O 0.4307 0.85668 0.9442 0.0
N108 N 0.41781 0.88093 0.97589 0.0
C109 C 0.46213 0.87475 0.98911 0.0
C110 C 0.44199 0.86129 0.97864 0.0
C111 C 0.42398 0.90672 0.98472 0.0
N112 N 0.45085 0.90323 0.99303 0.0
O113 O 0.35511 0.89686 0.97262 0.0
H114 H 0.44445 0.8382 0.9735 0.0
H115 H 0.40876 0.92706 0.98539 0.0
O116 O 0.39998 0.89855 0.94708 0.0
C117 C 0.32754 0.88924 0.97754 0.0
O118 O 0.31615 0.86117 0.97441 0.0
N119 N 0.37509 0.83554 0.97669 0.0
C120 C 0.36986 0.78636 0.99818 0.0
C121 C 0.37195 0.78034 0.9822 0.0
C122 C 0.37548 0.80504 0.97182 0.0
C123 C 0.37191 0.84194 0.9922 0.0
C124 C 0.36867 0.81779 1.00309 0.0
H125 H 0.38143 0.79903 0.96015 0.0
H126 H 0.37394 0.86574 0.9964 0.0
H127 H 0.3857 0.81814 0.93685 0.0
H128 H 0.29388 0.84449 0.92518 0.0
H129 H 0.48349 0.86431 0.99359 0.0
H130 H 0.37465 0.75665 0.97775 0.0
H131 H 0.368 0.82363 1.01532 0.0
C132 C 0.43585 0.88514 0.32135 0.0
C133 C 0.46198 0.89126 0.33022 0.0
N134 N 0.45324 0.89307 0.34516 0.0
N135 N 0.41031 0.88165 0.33049 0.0
C136 C 0.42167 0.88849 0.34497 0.0
H137 H 0.43571 0.88422 0.30883 0.0
Co138 Co 0.36853 0.87298 0.32242 0.0
C139 C 0.36494 0.84373 0.35359 0.0
O140 O 0.39195 0.83072 0.35006 0.0
N141 N 0.32822 0.86611 0.31416 0.0
C142 C 0.27721 0.85612 0.31197 0.0
C143 C 0.30001 0.87077 0.32083 0.0
C144 C 0.3219 0.85003 0.30099 0.0
N145 N 0.2912 0.8425 0.29966 0.0
O146 O 0.35967 0.91764 0.32223 0.0
H147 H 0.29653 0.88188 0.33199 0.0
H148 H 0.34003 0.84153 0.29329 0.0
O149 O 0.35236 0.86379 0.34415 0.0
C150 C 0.36762 0.92383 0.30815 0.0
O151 O 0.38033 0.90123 0.29987 0.0
N152 N 0.37664 0.82951 0.31963 0.0
C153 C 0.37648 0.76907 0.30701 0.0
C154 C 0.35391 0.77761 0.31788 0.0
C155 C 0.3541 0.80804 0.32381 0.0
C156 C 0.39906 0.82118 0.30917 0.0
C157 C 0.39969 0.79101 0.3029 0.0
H158 H 0.33391 0.81545 0.3303 0.0
H159 H 0.415 0.8383 0.30454 0.0
H160 H 0.40728 0.88989 0.35526 0.0
H161 H 0.48562 0.89477 0.32595 0.0
H162 H 0.25274 0.85341 0.31509 0.0
H163 H 0.33531 0.76149 0.32115 0.0
H164 H 0.41793 0.78515 0.29465 0.0
C165 C 0.32868 0.16678 0.57432 0.0
C166 C 0.32067 0.19137 0.58389 0.0
N167 N 0.32933 0.18427 0.59855 0.0
N168 N 0.34241 0.14384 0.58273 0.0
C169 C 0.34182 0.15493 0.59753 0.0
H170 H 0.32715 0.16709 0.5618 0.0
Co171 Co 0.36618 0.11078 0.57363 0.0
C172 C 0.40572 0.08395 0.59838 0.0
O173 O 0.42742 0.08209 0.58764 0.0
N174 N 0.38908 0.07724 0.56436 0.0
C175 C 0.40191 0.02735 0.55953 0.0
C176 C 0.38201 0.04682 0.56746 0.0
C177 C 0.41359 0.07545 0.55439 0.0
N178 N 0.4219 0.04535 0.55134 0.0
O179 O 0.32832 0.08553 0.57079 0.0
H180 H 0.36375 0.03912 0.5753 0.0
H181 H 0.42609 0.09557 0.54988 0.0
O182 O 0.37813 0.09425 0.59479 0.0
C183 C 0.32235 0.09236 0.55653 0.0
O184 O 0.33937 0.11434 0.54988 0.0
N185 N 0.4007 0.13786 0.5736 0.0
C186 C 0.41154 0.20193 0.57071 0.0
C187 C 0.41401 0.18718 0.58526 0.0
C188 C 0.40956 0.15477 0.58637 0.0
C189 C 0.40291 0.15093 0.55921 0.0
C190 C 0.40918 0.18279 0.55749 0.0
H191 H 0.40754 0.14513 0.59784 0.0
H192 H 0.39488 0.13812 0.54913 0.0
H193 H 0.35268 0.14281 0.60717 0.0
H194 H 0.31166 0.21382 0.58 0.0
H195 H 0.40155 0.00188 0.55979 0.0
H196 H 0.41622 0.20044 0.59592 0.0
H197 H 0.40923 0.19251 0.54588 0.0
C198 C 0.11612 0.04858 0.83879 0.0
C199 C 0.09708 0.0384 0.85067 0.0
N200 N 0.09123 0.06294 0.8601 0.0
N201 N 0.1222 0.07963 0.84052 0.0
C202 C 0.10748 0.0873 0.85397 0.0
H203 H 0.1223 0.03465 0.82879 0.0
Co204 Co 0.13412 0.10707 0.82416 0.0
C205 C 0.16594 0.16254 0.83935 0.0
O206 O 0.15533 0.18027 0.82801 0.0
N207 N 0.14535 0.13374 0.80699 0.0
C208 C 0.14166 0.15877 0.78434 0.0
C209 C 0.12663 0.13949 0.79462 0.0
C210 C 0.1729 0.14812 0.80314 0.0
N211 N 0.17077 0.16463 0.78971 0.0
O212 O 0.16815 0.07985 0.8179 0.0
H213 H 0.10371 0.12954 0.79264 0.0
H214 H 0.19389 0.14709 0.81024 0.0
O215 O 0.1603 0.13267 0.83914 0.0
C216 C 0.15563 0.06487 0.8065 0.0
O217 O 0.1254 0.06838 0.80397 0.0
N218 N 0.09846 0.1313 0.82832 0.0
C219 C 0.05883 0.17789 0.81953 0.0
C220 C 0.07547 0.18096 0.8335 0.0
C221 C 0.0953 0.15669 0.83788 0.0
C222 C 0.07491 0.12405 0.81825 0.0
C223 C 0.05506 0.1478 0.81312 0.0
H224 H 0.10991 0.16 0.84795 0.0
H225 H 0.07546 0.10197 0.81201 0.0
H226 H 0.10571 0.11099 0.85836 0.0
H227 H 0.08634 0.01535 0.85159 0.0
H228 H 0.13155 0.16809 0.77376 0.0
H229 H 0.07634 0.20308 0.83977 0.0
H230 H 0.04096 0.14369 0.80284 0.0
C231 C 0.1745 0.83561 0.08159 0.0
C232 C 0.18124 0.81 0.09067 0.0
N233 N 0.15973 0.80797 0.10206 0.0
N234 N 0.14886 0.85045 0.08709 0.0
C235 C 0.13994 0.83254 0.09946 0.0
H236 H 0.18766 0.84263 0.07148 0.0
Co237 Co 0.13218 0.8876 0.07775 0.0
C238 C 0.13004 0.90501 0.1125 0.0
O239 O 0.15633 0.89119 0.11665 0.0
N240 N 0.1159 0.92404 0.06837 0.0
C241 C 0.10289 0.97378 0.0639 0.0
C242 C 0.11971 0.95386 0.07336 0.0
C243 C 0.09707 0.92641 0.05573 0.0
N244 N 0.08847 0.95648 0.05283 0.0
O245 O 0.1741 0.90579 0.07601 0.0
H246 H 0.13333 0.96061 0.08345 0.0
H247 H 0.08945 0.90633 0.04896 0.0
O248 O 0.12215 0.90548 0.0982 0.0
C249 C 0.1807 0.90155 0.06161 0.0
O250 O 0.16058 0.8858 0.05297 0.0
N251 N 0.09245 0.87002 0.07717 0.0
C252 C 0.03388 0.85792 0.06442 0.0
C253 C 0.03722 0.88012 0.07628 0.0
C254 C 0.06674 0.88575 0.08256 0.0
C255 C 0.08936 0.84668 0.06647 0.0
C256 C 0.06012 0.84006 0.05998 0.0
H257 H 0.06913 0.9055 0.09021 0.0
H258 H 0.11004 0.83514 0.06196 0.0
H259 H 0.11967 0.83774 0.10655 0.0
H260 H 0.20041 0.79377 0.08879 0.0
H261 H 0.10064 0.99896 0.06542 0.0
H262 H 0.01764 0.89445 0.08001 0.0
H263 H 0.05833 0.82182 0.05123 0.0
C264 C 0.5792 0.92634 0.8245 0.0
C265 C 0.55681 0.93586 0.83509 0.0
N266 N 0.55762 0.91602 0.84725 0.0
N267 N 0.59446 0.90074 0.82997 0.0
C268 C 0.58055 0.89519 0.84388 0.0
H269 H 0.58357 0.93733 0.81344 0.0
Co270 Co 0.62851 0.87785 0.82101 0.0
C271 C 0.6545 0.87369 0.85501 0.0
O272 O 0.66346 0.90275 0.85783 0.0
N273 N 0.66299 0.85388 0.81268 0.0
C274 C 0.6994 0.81619 0.81203 0.0
C275 C 0.67862 0.83197 0.8211 0.0
C276 C 0.67507 0.85039 0.79811 0.0
N277 N 0.69738 0.82761 0.79759 0.0
O278 O 0.65308 0.91604 0.81949 0.0
H279 H 0.67507 0.82657 0.83311 0.0
H280 H 0.66747 0.86381 0.78812 0.0
O281 O 0.6424 0.86672 0.8419 0.0
C282 C 0.64615 0.92418 0.80554 0.0
O283 O 0.62617 0.90669 0.7977 0.0
N284 N 0.60419 0.84194 0.8199 0.0
C285 C 0.59577 0.77939 0.81237 0.0
C286 C 0.59362 0.78935 0.82791 0.0
C287 C 0.59786 0.82107 0.83146 0.0
C288 C 0.60045 0.83366 0.80476 0.0
C289 C 0.5972 0.80226 0.80067 0.0
H290 H 0.59843 0.82812 0.84345 0.0
H291 H 0.60454 0.85081 0.79573 0.0
H292 H 0.58718 0.87641 0.85164 0.0
H293 H 0.54052 0.9552 0.83372 0.0
H294 H 0.71472 0.79725 0.81571 0.0
H295 H 0.59022 0.77274 0.8373 0.0
H296 H 0.59826 0.79607 0.7885 0.0
C297 C 0.81796 0.83894 0.5781 0.0
C298 C 0.81361 0.81546 0.58886 0.0
N299 N 0.82811 0.82375 0.60216 0.0
N300 N 0.8348 0.86274 0.58443 0.0
C301 C 0.84035 0.85274 0.59924 0.0
H302 H 0.81169 0.83696 0.56599 0.0
Co303 Co 0.85606 0.89502 0.57272 0.0
C304 C 0.9111 0.91007 0.59196 0.0
O305 O 0.92681 0.90629 0.57901 0.0
N306 N 0.87791 0.92767 0.56171 0.0
C307 C 0.8963 0.97644 0.55845 0.0
C308 C 0.87529 0.95804 0.56628 0.0
C309 C 0.90127 0.92853 0.55096 0.0
N310 N 0.9131 0.95789 0.54896 0.0
O311 O 0.82161 0.92446 0.57525 0.0
H312 H 0.8602 0.96637 0.57547 0.0
H313 H 0.9115 0.90787 0.54572 0.0
O314 O 0.88096 0.90731 0.59172 0.0
C315 C 0.80467 0.91716 0.56333 0.0
O316 O 0.81018 0.89024 0.55649 0.0
N317 N 0.88423 0.86488 0.56674 0.0
C318 C 0.89563 0.806 0.5544 0.0
C319 C 0.90475 0.81305 0.56974 0.0
C320 C 0.89851 0.84282 0.57583 0.0
C321 C 0.87659 0.85858 0.55169 0.0
C322 C 0.88226 0.82941 0.54524 0.0
H323 H 0.9025 0.84704 0.58804 0.0
H324 H 0.86339 0.8755 0.54498 0.0
H325 H 0.8556 0.86502 0.60728 0.0
H326 H 0.802 0.79321 0.58668 0.0
H327 H 0.89955 0.0015 0.56006 0.0
H328 H 0.91574 0.79549 0.57708 0.0
H329 H 0.87482 0.82479 0.53342 0.0
C330 C 0.93787 0.11103 0.31859 0.0
C331 C 0.96312 0.1048 0.32809 0.0
N332 N 0.95318 0.10378 0.34291 0.0
N333 N 0.91168 0.11523 0.32716 0.0
C334 C 0.92165 0.10828 0.34185 0.0
H335 H 0.93885 0.11162 0.30607 0.0
Co336 Co 0.86996 0.12545 0.31921 0.0
C337 C 0.87031 0.15799 0.34939 0.0
O338 O 0.89871 0.16667 0.34522 0.0
N339 N 0.82954 0.13373 0.31138 0.0
C340 C 0.7791 0.14654 0.31043 0.0
C341 C 0.80187 0.13092 0.3188 0.0
C342 C 0.82277 0.14966 0.29821 0.0
N343 N 0.79247 0.15897 0.29763 0.0
O344 O 0.85927 0.08096 0.31952 0.0
H345 H 0.79895 0.12052 0.33017 0.0
H346 H 0.84054 0.15682 0.28998 0.0
O347 O 0.85537 0.13759 0.34095 0.0
C348 C 0.86732 0.07507 0.30539 0.0
O349 O 0.88025 0.0979 0.2973 0.0
N350 N 0.87997 0.16827 0.31543 0.0
C351 C 0.88148 0.22629 0.30026 0.0
C352 C 0.90309 0.20257 0.29658 0.0
C353 C 0.90155 0.17365 0.30411 0.0
C354 C 0.85917 0.19161 0.31935 0.0
C355 C 0.85975 0.22078 0.31203 0.0
H356 H 0.9158 0.15491 0.29973 0.0
H357 H 0.83968 0.18689 0.32699 0.0
H358 H 0.90613 0.10745 0.35173 0.0
H359 H 0.98697 0.1011 0.32424 0.0
H360 H 0.75527 0.15076 0.31424 0.0
H361 H 0.92078 0.20597 0.28772 0.0
H362 H 0.8424 0.23831 0.3151 0.0
C363 C 0.69076 0.14349 0.09098 0.0
C364 C 0.69644 0.17006 0.0997 0.0
N365 N 0.66984 0.17789 0.10706 0.0
N366 N 0.66009 0.13521 0.09193 0.0
C367 C 0.64857 0.15583 0.10266 0.0
H368 H 0.70847 0.13073 0.08464 0.0
Co369 Co 0.6408 0.09884 0.0821 0.0
C370 C 0.57748 0.09995 0.09761 0.0
O371 O 0.56321 0.10196 0.08414 0.0
N372 N 0.62313 0.06151 0.07362 0.0
C373 C 0.62067 0.01035 0.06801 0.0
C374 C 0.63811 0.03374 0.07503 0.0
C375 C 0.59636 0.05419 0.06574 0.0
N376 N 0.59441 0.02333 0.06209 0.0
O377 O 0.67475 0.09681 0.06593 0.0
H378 H 0.66058 0.03078 0.08073 0.0
H379 H 0.57871 0.07103 0.06237 0.0
O380 O 0.60756 0.09921 0.09821 0.0
C381 C 0.68486 0.11856 0.05682 0.0
O382 O 0.6753 0.14769 0.05887 0.0
N383 N 0.61685 0.12437 0.06803 0.0
C384 C 0.58778 0.1636 0.0466 0.0
C385 C 0.58797 0.17123 0.06237 0.0
C386 C 0.60241 0.15124 0.07289 0.0
C387 C 0.61599 0.1165 0.05253 0.0
C388 C 0.60134 0.13571 0.04162 0.0
H389 H 0.60084 0.15713 0.08494 0.0
H390 H 0.62733 0.09543 0.04834 0.0
H391 H 0.62505 0.15479 0.10735 0.0
H392 H 0.71871 0.1822 0.10091 0.0
H393 H 0.62724 0.98582 0.06704 0.0
H394 H 0.57638 0.19227 0.06658 0.0
H395 H 0.60085 0.12899 0.02949 0.0
C396 C 0.58232 0.08651 0.7077 0.0
C397 C 0.55677 0.07765 0.69898 0.0
N398 N 0.55411 0.09754 0.6869 0.0
N399 N 0.59648 0.1116 0.7011 0.0
C400 C 0.5782 0.11826 0.68854 0.0
H401 H 0.59014 0.07502 0.71818 0.0
Co402 Co 0.63448 0.12913 0.70878 0.0
C403 C 0.64915 0.12921 0.6736 0.0
O404 O 0.63717 0.10174 0.66978 0.0
N405 N 0.67207 0.14637 0.71649 0.0
C406 C 0.7217 0.16176 0.71891 0.0
C407 C 0.70104 0.14371 0.71037 0.0
C408 C 0.67576 0.16559 0.72887 0.0
N409 N 0.70566 0.17575 0.73049 0.0
O410 O 0.6529 0.08753 0.71021 0.0
H411 H 0.70661 0.13019 0.7001 0.0
H412 H 0.65668 0.17247 0.73639 0.0
O413 O 0.64881 0.138 0.68774 0.0
C414 C 0.65224 0.08177 0.72483 0.0
O415 O 0.63938 0.10264 0.7341 0.0
N416 N 0.61666 0.16882 0.70958 0.0
C417 C 0.61158 0.2274 0.72359 0.0
C418 C 0.62913 0.22373 0.71 0.0
C419 C 0.63093 0.19436 0.70302 0.0
C420 C 0.59686 0.17236 0.7218 0.0
C421 C 0.59374 0.20162 0.72894 0.0
H422 H 0.64739 0.19178 0.69377 0.0
H423 H 0.58623 0.15184 0.72707 0.0
H424 H 0.58302 0.1372 0.68048 0.0
H425 H 0.54128 0.05796 0.70131 0.0
H426 H 0.74634 0.1653 0.71639 0.0
H427 H 0.64324 0.24267 0.70531 0.0
H428 H 0.57855 0.20352 0.73895 0.0
C429 C 0.6922 0.85468 0.44956 0.0
C430 C 0.69697 0.82954 0.43989 0.0
N431 N 0.67025 0.82368 0.43202 0.0
N432 N 0.66238 0.86512 0.44807 0.0
C433 C 0.64959 0.84556 0.4372 0.0
H434 H 0.70997 0.86441 0.45708 0.0
Co435 Co 0.64338 0.89928 0.45902 0.0
C436 C 0.59686 0.92752 0.43653 0.0
O437 O 0.58092 0.93798 0.44847 0.0
N438 N 0.62483 0.93368 0.46976 0.0
C439 C 0.61352 0.98357 0.47545 0.0
C440 C 0.632 0.96412 0.46671 0.0
C441 C 0.60176 0.93551 0.48056 0.0
N442 N 0.59425 0.9656 0.48408 0.0
O443 O 0.68162 0.92479 0.45762 0.0
H444 H 0.64875 0.97197 0.45813 0.0
H445 H 0.58922 0.91546 0.48511 0.0
O446 O 0.6232 0.91326 0.43885 0.0
C447 C 0.69522 0.91809 0.47061 0.0
O448 O 0.6853 0.8934 0.47827 0.0
N449 N 0.60969 0.87363 0.46375 0.0
C450 C 0.56624 0.83734 0.47949 0.0
C451 C 0.56008 0.84722 0.46419 0.0
C452 C 0.58245 0.86543 0.45638 0.0
C453 C 0.6163 0.8626 0.4782 0.0
C454 C 0.59471 0.84531 0.48642 0.0
H455 H 0.57783 0.87236 0.44457 0.0
H456 H 0.63778 0.86895 0.48393 0.0
H457 H 0.62576 0.84761 0.43298 0.0
H458 H 0.71861 0.81638 0.43891 0.0
H459 H 0.61393 0.00904 0.47521 0.0
H460 H 0.53861 0.84049 0.45827 0.0
H461 H 0.60032 0.83856 0.49824 0.0
C462 C 0.92986 0.91643 0.21249 0.0
C463 C 0.9549 0.9283 0.20429 0.0
N464 N 0.953 0.91813 0.1895 0.0
N465 N 0.91186 0.89861 0.20303 0.0
C466 C 0.92596 0.90117 0.18889 0.0
H467 H 0.9268 0.91827 0.2249 0.0
Co468 Co 0.88171 0.86896 0.2107 0.0
C469 C 0.87945 0.83184 0.18045 0.0
O470 O 0.90067 0.81221 0.18562 0.0
N471 N 0.8509 0.83896 0.21795 0.0
C472 C 0.82474 0.7935 0.22004 0.0
C473 C 0.84865 0.80896 0.21274 0.0
C474 C 0.82817 0.84055 0.22902 0.0
N475 N 0.81191 0.81328 0.2303 0.0
O476 O 0.85095 0.90257 0.21163 0.0
H477 H 0.86449 0.79773 0.20488 0.0
H478 H 0.82383 0.86079 0.23628 0.0
O479 O 0.8704 0.85527 0.18883 0.0
C480 C 0.8552 0.91102 0.22586 0.0
O481 O 0.8746 0.89451 0.23449 0.0
N482 N 0.91436 0.83961 0.21387 0.0
C483 C 0.97141 0.83584 0.22952 0.0
C484 C 0.9706 0.83762 0.21329 0.0
C485 C 0.94186 0.83943 0.20566 0.0
C486 C 0.91505 0.8331 0.22943 0.0
C487 C 0.9433 0.83143 0.23751 0.0
H488 H 0.94248 0.8446 0.19344 0.0
H489 H 0.894 0.8341 0.23633 0.0
H490 H 0.919 0.88744 0.17887 0.0
H491 H 0.97437 0.94142 0.20919 0.0
H492 H 0.81852 0.76892 0.21864 0.0
H493 H 0.99198 0.83949 0.20656 0.0
H494 H 0.94288 0.82943 0.25004 0.0
C495 C 0.86297 0.18641 0.95936 0.0
C496 C 0.85466 0.21076 0.94971 0.0
N497 N 0.8491 0.19902 0.93551 0.0
N498 N 0.86414 0.15911 0.95129 0.0
C499 C 0.85379 0.16751 0.93688 0.0
H500 H 0.86914 0.18885 0.97146 0.0
Co501 Co 0.87973 0.12066 0.96069 0.0
C502 C 0.91183 0.11544 0.92835 0.0
O503 O 0.90638 0.14413 0.92349 0.0
N504 N 0.89494 0.08236 0.97003 0.0
C505 C 0.89744 0.03345 0.97949 0.0
C506 C 0.8789 0.05512 0.972 0.0
C507 C 0.92387 0.07572 0.97589 0.0
N508 N 0.9258 0.04648 0.98208 0.0
O509 O 0.83979 0.10059 0.95663 0.0
H510 H 0.85512 0.05072 0.96824 0.0
H511 H 0.94339 0.09199 0.9756 0.0
O512 O 0.90185 0.10617 0.94163 0.0
C513 C 0.82582 0.10978 0.96909 0.0
O514 O 0.84061 0.12929 0.97842 0.0
N515 N 0.91503 0.14224 0.96768 0.0
C516 C 0.93661 0.1962 0.98177 0.0
C517 C 0.94364 0.19035 0.96611 0.0
C518 C 0.93282 0.16265 0.95922 0.0
C519 C 0.91251 0.14555 0.98341 0.0
C520 C 0.92361 0.17237 0.99079 0.0
H521 H 0.93478 0.16033 0.94686 0.0
H522 H 0.89783 0.12961 0.98997 0.0
H523 H 0.85088 0.15113 0.92736 0.0
H524 H 0.85415 0.23552 0.95271 0.0
H525 H 0.89016 0.01012 0.98305 0.0
H526 H 0.95408 0.20848 0.95892 0.0
H527 H 0.91793 0.17626 1.00289 0.0
C528 C 0.88616 0.56187 0.69461 0.0
C529 C 0.90501 0.5508 0.6828 0.0
N530 N 0.91789 0.57553 0.67532 0.0
N531 N 0.88683 0.59364 0.69473 0.0
C532 C 0.90571 0.6011 0.68252 0.0
H533 H 0.87486 0.54733 0.70323 0.0
Co534 Co 0.87616 0.62171 0.71131 0.0
C535 C 0.86215 0.68341 0.69539 0.0
O536 O 0.87389 0.69808 0.70752 0.0
N537 N 0.86597 0.64973 0.72768 0.0
C538 C 0.86875 0.67962 0.7488 0.0
C539 C 0.88459 0.65864 0.73959 0.0
C540 C 0.8385 0.6652 0.7302 0.0
N541 N 0.83966 0.68394 0.74293 0.0
O542 O 0.835 0.60178 0.71473 0.0
H543 H 0.90841 0.65085 0.74147 0.0
H544 H 0.81825 0.6631 0.72264 0.0
O545 O 0.861 0.6531 0.69537 0.0
C546 C 0.84093 0.58138 0.72545 0.0
O547 O 0.87032 0.57592 0.72894 0.0
N548 N 0.91771 0.63603 0.71084 0.0
C549 C 0.98262 0.63812 0.71394 0.0
C550 C 0.96692 0.66047 0.7047 0.0
C551 C 0.93412 0.65893 0.70319 0.0
C552 C 0.93317 0.61407 0.71948 0.0
C553 C 0.96534 0.61458 0.72116 0.0
H554 H 0.92263 0.67524 0.69549 0.0
H555 H 0.9205 0.59557 0.72514 0.0
H556 H 0.91198 0.62498 0.67952 0.0
H557 H 0.91064 0.52632 0.68072 0.0
H558 H 0.87847 0.69142 0.75886 0.0
H559 H 0.97975 0.67907 0.69888 0.0
H560 H 0.97658 0.59666 0.72819 0.0
C561 C 0.66315 0.67712 0.95742 0.0
C562 C 0.6703 0.70309 0.94867 0.0
N563 N 0.65026 0.70436 0.93657 0.0
N564 N 0.63882 0.6615 0.95094 0.0
C565 C 0.63143 0.67873 0.93817 0.0
H566 H 0.67471 0.67067 0.96809 0.0
Co567 Co 0.61991 0.6253 0.9597 0.0
C568 C 0.60653 0.58951 0.92905 0.0
O569 O 0.62503 0.56528 0.93139 0.0
N570 N 0.60139 0.58883 0.96845 0.0
C571 C 0.59391 0.53873 0.97506 0.0
C572 C 0.61132 0.55899 0.96617 0.0
C573 C 0.57824 0.58601 0.9791 0.0
N574 N 0.57301 0.55573 0.98316 0.0
O575 O 0.6605 0.60433 0.96021 0.0
H576 H 0.63089 0.55223 0.959 0.0
H577 H 0.56607 0.60577 0.9842 0.0
O578 O 0.60577 0.61186 0.93896 0.0
C579 C 0.6671 0.60897 0.97465 0.0
O580 O 0.6469 0.62461 0.98318 0.0
N581 N 0.58276 0.64702 0.96204 0.0
C582 C 0.53006 0.67137 0.97653 0.0
C583 C 0.52683 0.65111 0.96369 0.0
C584 C 0.55371 0.63894 0.95657 0.0
C585 C 0.58622 0.66844 0.97363 0.0
C586 C 0.56028 0.68076 0.98109 0.0
H587 H 0.55105 0.621 0.94777 0.0
H588 H 0.60935 0.67385 0.97809 0.0
H589 H 0.61205 0.67314 0.93049 0.0
H590 H 0.68891 0.71978 0.95109 0.0
H591 H 0.59653 0.5134 0.9755 0.0
H592 H 0.5039 0.64358 0.95966 0.0
H593 H 0.56421 0.69578 0.99106 0.0
C594 C 0.55824 0.3757 0.21408 0.0
C595 C 0.53183 0.38135 0.20532 0.0
N596 N 0.54078 0.38787 0.19069 0.0
N597 N 0.58402 0.37844 0.20512 0.0
C598 C 0.5726 0.38623 0.19088 0.0
H599 H 0.55852 0.36889 0.22618 0.0
Co600 Co 0.62458 0.36787 0.21237 0.0
C601 C 0.64902 0.36642 0.17714 0.0
O602 O 0.65155 0.39544 0.17202 0.0
N603 N 0.66505 0.35701 0.21963 0.0
C604 C 0.7154 0.34299 0.21997 0.0
C605 C 0.69239 0.35849 0.21174 0.0
C606 C 0.67262 0.34205 0.23297 0.0
N607 N 0.7027 0.33213 0.23323 0.0
O608 O 0.63616 0.41196 0.21408 0.0
H609 H 0.6953 0.36873 0.20036 0.0
H610 H 0.65623 0.33753 0.24223 0.0
O611 O 0.63943 0.36159 0.19099 0.0
C612 C 0.62735 0.41735 0.22809 0.0
O613 O 0.61285 0.3947 0.23559 0.0
N614 N 0.61261 0.32588 0.21326 0.0
C615 C 0.61162 0.2617 0.22005 0.0
C616 C 0.61235 0.2726 0.20454 0.0
C617 C 0.61191 0.30481 0.20141 0.0
C618 C 0.60669 0.31624 0.22798 0.0
C619 C 0.60699 0.28448 0.23173 0.0
H620 H 0.61131 0.31265 0.18954 0.0
H621 H 0.60397 0.33346 0.23711 0.0
H622 H 0.58704 0.38931 0.18069 0.0
H623 H 0.5078 0.38029 0.20935 0.0
H624 H 0.73899 0.33824 0.21597 0.0
H625 H 0.6129 0.25698 0.19467 0.0
H626 H 0.60348 0.27863 0.24378 0.0
C627 C 0.8062 0.35405 0.44614 0.0
C628 C 0.79725 0.33324 0.43467 0.0
N629 N 0.82241 0.3271 0.42577 0.0
N630 N 0.83702 0.361 0.44461 0.0
C631 C 0.84592 0.34481 0.43178 0.0
H632 H 0.79165 0.36109 0.45577 0.0
Co633 Co 0.86384 0.37528 0.46064 0.0
C634 C 0.91683 0.41077 0.44427 0.0
O635 O 0.93595 0.40477 0.45586 0.0
N636 N 0.89002 0.38834 0.47761 0.0
C637 C 0.91415 0.38535 0.50057 0.0
C638 C 0.89566 0.36983 0.49007 0.0
C639 C 0.90358 0.41624 0.4816 0.0
N640 N 0.91954 0.41456 0.49522 0.0
O641 O 0.83569 0.40917 0.4661 0.0
H642 H 0.88586 0.3468 0.49197 0.0
H643 H 0.90205 0.43731 0.47456 0.0
O644 O 0.88811 0.4011 0.44491 0.0
C645 C 0.82104 0.39739 0.47775 0.0
O646 O 0.82525 0.36744 0.48093 0.0
N647 N 0.88889 0.33997 0.45737 0.0
C648 C 0.93246 0.30308 0.47131 0.0
C649 C 0.94087 0.32048 0.45812 0.0
C650 C 0.918 0.33859 0.45092 0.0
C651 C 0.8787 0.31607 0.46659 0.0
C652 C 0.90061 0.29721 0.47411 0.0
H653 H 0.92456 0.35314 0.44126 0.0
H654 H 0.85468 0.31593 0.47064 0.0
H655 H 0.87004 0.34319 0.42796 0.0
H656 H 0.7745 0.32201 0.43357 0.0
H657 H 0.92313 0.3756 0.5113 0.0
H658 H 0.96515 0.32289 0.45457 0.0
H659 H 0.89295 0.28261 0.48369 0.0
C660 C 0.91237 0.44076 0.82541 0.0
C661 C 0.93784 0.448 0.83461 0.0
N662 N 0.93755 0.42922 0.84722 0.0
N663 N 0.89545 0.41753 0.83206 0.0
C664 C 0.91146 0.41109 0.84542 0.0
H665 H 0.90749 0.45104 0.8142 0.0
Co666 Co 0.86093 0.39627 0.82234 0.0
C667 C 0.84103 0.34669 0.8448 0.0
O668 O 0.8372 0.32837 0.83267 0.0
N669 N 0.82593 0.37515 0.81287 0.0
C670 C 0.7759 0.36061 0.80984 0.0
C671 C 0.79621 0.37986 0.81782 0.0
C672 C 0.8228 0.35262 0.80175 0.0
N673 N 0.79262 0.34332 0.79974 0.0
O674 O 0.83442 0.43392 0.8243 0.0
H675 H 0.78969 0.3955 0.82717 0.0
H676 H 0.84214 0.34235 0.7955 0.0
O677 O 0.84987 0.37555 0.84285 0.0
C678 C 0.83832 0.44597 0.81066 0.0
O679 O 0.85832 0.4324 0.80129 0.0
N680 N 0.88817 0.36436 0.8171 0.0
C681 C 0.94305 0.34 0.80506 0.0
C682 C 0.93518 0.33468 0.82069 0.0
C683 C 0.90739 0.34727 0.82657 0.0
C684 C 0.8953 0.3685 0.80182 0.0
C685 C 0.92236 0.35623 0.79551 0.0
H686 H 0.90283 0.3453 0.83884 0.0
H687 H 0.88066 0.38287 0.79451 0.0
H688 H 0.90466 0.39287 0.85351 0.0
H689 H 0.95604 0.46487 0.8318 0.0
H690 H 0.75089 0.35864 0.81183 0.0
H691 H 0.95071 0.32169 0.82833 0.0
H692 H 0.92771 0.36068 0.78341 0.0
C693 C 0.84077 0.67027 0.06807 0.0
C694 C 0.83472 0.69692 0.07667 0.0
N695 N 0.84248 0.69121 0.09158 0.0
N696 N 0.85251 0.64773 0.07743 0.0
C697 C 0.85282 0.66107 0.09176 0.0
H698 H 0.83847 0.66808 0.05561 0.0
Co699 Co 0.87105 0.61023 0.07005 0.0
C700 C 0.91136 0.58702 0.09538 0.0
O701 O 0.93178 0.58016 0.08453 0.0
N702 N 0.8892 0.57203 0.06261 0.0
C703 C 0.89772 0.52054 0.05964 0.0
C704 C 0.87924 0.5429 0.06666 0.0
C705 C 0.91393 0.56652 0.05314 0.0
N706 N 0.91965 0.53557 0.05123 0.0
O707 O 0.8304 0.58969 0.07075 0.0
H708 H 0.86011 0.5381 0.07455 0.0
H709 H 0.92829 0.58457 0.04797 0.0
O710 O 0.88458 0.59888 0.09164 0.0
C711 C 0.8227 0.59185 0.05634 0.0
O712 O 0.84264 0.60485 0.04668 0.0
N713 N 0.90759 0.63298 0.06653 0.0
C714 C 0.92735 0.69186 0.05724 0.0
C715 C 0.93073 0.68267 0.07279 0.0
C716 C 0.92094 0.65266 0.07724 0.0
C717 C 0.90795 0.64054 0.05114 0.0
C718 C 0.91825 0.66974 0.04619 0.0
H719 H 0.91942 0.64774 0.08948 0.0
H720 H 0.89594 0.62588 0.04279 0.0
H721 H 0.86262 0.64983 0.10194 0.0
H722 H 0.82619 0.71912 0.07217 0.0
H723 H 0.89572 0.49527 0.06098 0.0
H724 H 0.93803 0.69941 0.08159 0.0
H725 H 0.91526 0.67617 0.0341 0.0
C726 C 0.5687 0.58772 0.32174 0.0
C727 C 0.54318 0.57964 0.33074 0.0
N728 N 0.54754 0.59108 0.34521 0.0
N729 N 0.58934 0.6043 0.33036 0.0
C730 C 0.576 0.60552 0.34469 0.0
H731 H 0.57137 0.58305 0.30947 0.0
Co732 Co 0.62495 0.6257 0.32219 0.0
C733 C 0.64462 0.6695 0.34648 0.0
O734 O 0.6463 0.69038 0.33529 0.0
N735 N 0.66157 0.64688 0.31439 0.0
C736 C 0.7123 0.66 0.313 0.0
C737 C 0.69073 0.64013 0.31969 0.0
C738 C 0.66632 0.67112 0.30436 0.0
N739 N 0.69687 0.67952 0.30337 0.0
O740 O 0.64843 0.58646 0.32284 0.0
H741 H 0.69598 0.62231 0.32827 0.0
H742 H 0.64788 0.68373 0.29845 0.0
O743 O 0.63648 0.64094 0.34343 0.0
C744 C 0.64757 0.57874 0.30838 0.0
O745 O 0.6342 0.59811 0.29854 0.0
N746 N 0.59935 0.66023 0.31842 0.0
C747 C 0.53907 0.67269 0.3083 0.0
C748 C 0.54721 0.67758 0.32393 0.0
C749 C 0.57794 0.6716 0.32879 0.0
C750 C 0.5925 0.65946 0.30296 0.0
C751 C 0.56258 0.66594 0.29761 0.0
H752 H 0.58272 0.67131 0.34109 0.0
H753 H 0.60858 0.64893 0.29486 0.0
H754 H 0.58592 0.61862 0.3543 0.0
H755 H 0.52264 0.56692 0.32675 0.0
H756 H 0.73739 0.66003 0.31506 0.0
H757 H 0.5295 0.68337 0.33247 0.0
H758 H 0.55721 0.66182 0.28547 0.0
C759 C 0.66496 0.33679 0.57738 0.0
C760 C 0.67107 0.30975 0.58553 0.0
N761 N 0.65303 0.30942 0.59831 0.0
N762 N 0.6431 0.35399 0.58488 0.0
C763 C 0.63631 0.33661 0.59774 0.0
H764 H 0.67522 0.34274 0.56633 0.0
Co765 Co 0.62528 0.39104 0.57625 0.0
C766 C 0.59954 0.43052 0.60287 0.0
O767 O 0.59588 0.45521 0.59394 0.0
N768 N 0.60737 0.42843 0.56682 0.0
C769 C 0.60319 0.47597 0.55576 0.0
C770 C 0.62229 0.45616 0.56413 0.0
C771 C 0.57877 0.43278 0.56009 0.0
N772 N 0.57583 0.46108 0.5531 0.0
O773 O 0.66683 0.41029 0.57514 0.0
H774 H 0.64573 0.46207 0.56798 0.0
H775 H 0.55994 0.41593 0.56037 0.0
O776 O 0.61456 0.40636 0.59776 0.0
C777 C 0.67376 0.40588 0.56077 0.0
O778 O 0.65361 0.39041 0.55204 0.0
N779 N 0.58699 0.37067 0.5748 0.0
C780 C 0.5267 0.35675 0.56483 0.0
C781 C 0.53282 0.36331 0.58058 0.0
C782 C 0.56327 0.37023 0.58537 0.0
C783 C 0.58248 0.35931 0.56018 0.0
C784 C 0.55232 0.35298 0.55478 0.0
H785 H 0.56715 0.37631 0.59734 0.0
H786 H 0.60188 0.35875 0.55213 0.0
H787 H 0.6184 0.34292 0.60606 0.0
H788 H 0.68712 0.29127 0.58212 0.0
H789 H 0.60941 0.49921 0.55161 0.0
H790 H 0.51427 0.36381 0.58914 0.0
H791 H 0.54926 0.34723 0.54264 0.0
C792 C 0.06825 0.41536 0.32562 0.0
C793 C 0.04449 0.42684 0.33484 0.0
N794 N 0.05238 0.42228 0.34983 0.0
N795 N 0.09113 0.40324 0.33468 0.0
C796 C 0.08124 0.40894 0.34941 0.0
H797 H 0.06731 0.41317 0.31312 0.0
Co798 Co 0.12287 0.37506 0.32764 0.0
C799 C 0.12766 0.34439 0.35928 0.0
O800 O 0.10512 0.32479 0.35564 0.0
N801 N 0.15538 0.34695 0.32138 0.0
C802 C 0.18479 0.30365 0.32071 0.0
C803 C 0.16099 0.3188 0.32817 0.0
C804 C 0.17585 0.34774 0.30935 0.0
N805 N 0.19399 0.32173 0.30881 0.0
O806 O 0.15111 0.41051 0.32483 0.0
H807 H 0.14695 0.30824 0.33711 0.0
H808 H 0.17643 0.36594 0.30061 0.0
O809 O 0.13659 0.36564 0.34959 0.0
C810 C 0.14401 0.416 0.31051 0.0
O811 O 0.123 0.39776 0.30378 0.0
N812 N 0.09233 0.34234 0.32595 0.0
C813 C 0.0374 0.32763 0.30993 0.0
C814 C 0.03629 0.33551 0.3257 0.0
C815 C 0.06404 0.34276 0.33353 0.0
C816 C 0.09361 0.32992 0.31128 0.0
C817 C 0.06654 0.32256 0.30308 0.0
H818 H 0.06177 0.35253 0.34501 0.0
H819 H 0.11478 0.33036 0.30452 0.0
H820 H 0.09303 0.40004 0.35962 0.0
H821 H 0.02222 0.43589 0.33075 0.0
H822 H 0.19261 0.27981 0.32292 0.0
H823 H 0.01409 0.33844 0.33163 0.0
H824 H 0.06859 0.31633 0.29094 0.0
C825 C 0.32305 0.33305 0.07506 0.0
C826 C 0.3162 0.30701 0.08385 0.0
N827 N 0.33475 0.30713 0.09654 0.0
N828 N 0.34581 0.3501 0.08205 0.0
C829 C 0.35228 0.33373 0.09525 0.0
H830 H 0.31229 0.33862 0.06404 0.0
Co831 Co 0.36442 0.38657 0.07322 0.0
C832 C 0.40259 0.41664 0.098 0.0
O833 O 0.42177 0.42524 0.08688 0.0
N834 N 0.3821 0.42366 0.06419 0.0
C835 C 0.38926 0.47498 0.05985 0.0
C836 C 0.37231 0.45298 0.06797 0.0
C837 C 0.40495 0.42872 0.05355 0.0
N838 N 0.40991 0.45965 0.05084 0.0
O839 O 0.32364 0.40738 0.07231 0.0
H840 H 0.35447 0.45815 0.07651 0.0
H841 H 0.41813 0.41042 0.04789 0.0
O842 O 0.37701 0.40183 0.09452 0.0
C843 C 0.31736 0.40253 0.05787 0.0
O844 O 0.33622 0.38432 0.04992 0.0
N845 N 0.40186 0.36445 0.07117 0.0
C846 C 0.45059 0.32586 0.06208 0.0
C847 C 0.44726 0.3339 0.07775 0.0
C848 C 0.4224 0.35341 0.08213 0.0
C849 C 0.40429 0.35504 0.05612 0.0
C850 C 0.42897 0.33664 0.05123 0.0
H851 H 0.41915 0.35825 0.09429 0.0
H852 H 0.38714 0.36222 0.04766 0.0
H853 H 0.37019 0.34053 0.1035 0.0
H854 H 0.29888 0.28923 0.08099 0.0
H855 H 0.38724 0.50028 0.06092 0.0
H856 H 0.46307 0.32451 0.08647 0.0
H857 H 0.43031 0.32967 0.03914 0.0
C858 C 0.42171 0.58348 0.82158 0.0
C859 C 0.44553 0.57307 0.83116 0.0
N860 N 0.43927 0.58215 0.84581 0.0
N861 N 0.40016 0.59909 0.83006 0.0
C862 C 0.41112 0.59688 0.84489 0.0
H863 H 0.42202 0.58268 0.80905 0.0
Co864 Co 0.37088 0.62858 0.82154 0.0
C865 C 0.33942 0.63782 0.85446 0.0
O866 O 0.31922 0.61458 0.85581 0.0
N867 N 0.34189 0.65879 0.81366 0.0
C868 C 0.31363 0.70292 0.81348 0.0
C869 C 0.33524 0.68561 0.82147 0.0
C870 C 0.32439 0.66109 0.80049 0.0
N871 N 0.30678 0.68761 0.80029 0.0
O872 O 0.34109 0.59441 0.81752 0.0
H873 H 0.34619 0.693 0.83214 0.0
H874 H 0.32468 0.64407 0.79116 0.0
O875 O 0.35614 0.64005 0.84224 0.0
C876 C 0.34863 0.58775 0.8034 0.0
O877 O 0.37078 0.60469 0.79684 0.0
N878 N 0.40164 0.65938 0.8225 0.0
C879 C 0.46535 0.65722 0.81665 0.0
C880 C 0.45414 0.6608 0.83196 0.0
C881 C 0.42194 0.66252 0.83463 0.0
C882 C 0.41186 0.66367 0.80774 0.0
C883 C 0.44373 0.66243 0.8045 0.0
H884 H 0.41392 0.66014 0.8464 0.0
H885 H 0.39544 0.66251 0.79816 0.0
H886 H 0.40054 0.60887 0.85462 0.0
H887 H 0.46733 0.56255 0.82736 0.0
H888 H 0.30477 0.72587 0.81674 0.0
H889 H 0.46921 0.65995 0.84202 0.0
H890 H 0.45042 0.6635 0.79245 0.0
C891 C 0.18218 0.64411 0.58365 0.0
C892 C 0.19347 0.66716 0.59345 0.0
N893 N 0.17149 0.67329 0.60423 0.0
N894 N 0.15297 0.63565 0.58807 0.0
C895 C 0.14748 0.65342 0.60092 0.0
H896 H 0.19338 0.63671 0.57302 0.0
Co897 Co 0.1225 0.6175 0.57469 0.0
C898 C 0.09473 0.56685 0.5973 0.0
O899 O 0.09866 0.54127 0.58899 0.0
N900 N 0.09171 0.60083 0.56067 0.0
C901 C 0.0579 0.60133 0.54084 0.0
C902 C 0.07618 0.61928 0.55042 0.0
C903 C 0.08295 0.57114 0.55655 0.0
N904 N 0.06223 0.57099 0.54456 0.0
O905 O 0.15196 0.58543 0.56746 0.0
H906 H 0.07895 0.6443 0.54921 0.0
H907 H 0.09301 0.55003 0.5614 0.0
O908 O 0.10501 0.59323 0.59224 0.0
C909 C 0.16068 0.59603 0.55416 0.0
O910 O 0.15069 0.62401 0.54992 0.0
N911 N 0.09534 0.65 0.57967 0.0
C912 C 0.04677 0.68834 0.5715 0.0
C913 C 0.04243 0.66601 0.58323 0.0
C914 C 0.06697 0.64599 0.58674 0.0
C915 C 0.10194 0.67697 0.57178 0.0
C916 C 0.07749 0.69663 0.56723 0.0
H917 H 0.06133 0.62526 0.59329 0.0
H918 H 0.12483 0.68003 0.56656 0.0
H919 H 0.12482 0.65475 0.60654 0.0
H920 H 0.21513 0.68023 0.59198 0.0
H921 H 0.0429 0.60996 0.53161 0.0
H922 H 0.01926 0.6606 0.58769 0.0
H923 H 0.08215 0.71451 0.55859 0.0
C924 C 0.07778 0.58426 0.20898 0.0
C925 C 0.0528 0.57675 0.19955 0.0
N926 N 0.05314 0.59613 0.18721 0.0
N927 N 0.09438 0.60811 0.20263 0.0
C928 C 0.07846 0.61502 0.18938 0.0
H929 H 0.08337 0.57271 0.2198 0.0
Co930 Co 0.13184 0.62512 0.21128 0.0
C931 C 0.16349 0.62609 0.17723 0.0
O932 O 0.18042 0.60173 0.17303 0.0
N933 N 0.16906 0.6413 0.2199 0.0
C934 C 0.2193 0.65203 0.22436 0.0
C935 C 0.19867 0.63437 0.21563 0.0
C936 C 0.17223 0.6626 0.23146 0.0
N937 N 0.20259 0.67 0.23424 0.0
O938 O 0.14649 0.58305 0.21671 0.0
H939 H 0.20486 0.61793 0.20656 0.0
H940 H 0.15252 0.6729 0.2375 0.0
O941 O 0.15093 0.62579 0.1907 0.0
C942 C 0.14139 0.58221 0.2314 0.0
O943 O 0.12605 0.60588 0.23762 0.0
N944 N 0.11755 0.66583 0.20844 0.0
C945 C 0.11263 0.72556 0.22089 0.0
C946 C 0.13474 0.71954 0.2093 0.0
C947 C 0.13691 0.68924 0.20318 0.0
C948 C 0.09338 0.67238 0.21818 0.0
C949 C 0.09045 0.70226 0.22457 0.0
H950 H 0.15734 0.68368 0.19635 0.0
H951 H 0.07892 0.65349 0.22265 0.0
H952 H 0.0855 0.63299 0.1813 0.0
H953 H 0.03551 0.55853 0.20168 0.0
H954 H 0.24458 0.65238 0.22311 0.0
H955 H 0.15209 0.73707 0.20612 0.0
H956 H 0.07228 0.70645 0.2331 0.0
C957 C 0.16248 0.32697 0.95367 0.0
C958 C 0.16988 0.30194 0.94433 0.0
N959 N 0.15564 0.30593 0.93053 0.0
N960 N 0.14348 0.34701 0.94593 0.0
C961 C 0.13987 0.33357 0.93173 0.0
H962 H 0.1702 0.3298 0.96553 0.0
Co963 Co 0.12591 0.38334 0.95518 0.0
C964 C 0.11933 0.41921 0.92279 0.0
O965 O 0.14117 0.44105 0.92207 0.0
N966 N 0.10917 0.41927 0.96456 0.0
C967 C 0.09906 0.46879 0.97103 0.0
C968 C 0.11538 0.44959 0.96105 0.0
C969 C 0.08969 0.42054 0.97687 0.0
N970 N 0.08272 0.45037 0.98086 0.0
O971 O 0.1674 0.40121 0.95858 0.0
H972 H 0.13096 0.45726 0.95192 0.0
H973 H 0.08084 0.39994 0.98281 0.0
O974 O 0.1176 0.40185 0.93484 0.0
C975 C 0.17026 0.39459 0.9731 0.0
O976 O 0.14891 0.37626 0.97945 0.0
N977 N 0.08614 0.36569 0.95449 0.0
C978 C 0.02955 0.35667 0.9695 0.0
C979 C 0.03174 0.3785 0.95738 0.0
C980 C 0.06041 0.38254 0.94985 0.0
C981 C 0.08328 0.34161 0.96478 0.0
C982 C 0.05503 0.33653 0.97237 0.0
H983 H 0.0628 0.40255 0.94223 0.0
H984 H 0.10384 0.32895 0.96864 0.0
H985 H 0.12539 0.34335 0.9226 0.0
H986 H 0.18481 0.28233 0.94746 0.0
H987 H 0.0987 0.49427 0.97084 0.0
H988 H 0.01248 0.39417 0.95465 0.0
H989 H 0.05385 0.31824 0.98112 0.0
C990 C 0.43302 0.39722 0.71628 0.0
C991 C 0.45854 0.40787 0.70807 0.0
N992 N 0.44969 0.41307 0.69328 0.0
N993 N 0.40789 0.39468 0.70677 0.0
C994 C 0.41836 0.40691 0.69311 0.0
H995 H 0.43363 0.38887 0.72813 0.0
Co996 Co 0.37256 0.36879 0.71261 0.0
C997 C 0.37012 0.35322 0.67626 0.0
O998 O 0.39797 0.36201 0.6715 0.0
N999 N 0.3379 0.34253 0.71856 0.0
C1000 C 0.30481 0.30179 0.71753 0.0
C1001 C 0.32781 0.31786 0.70989 0.0
C1002 C 0.32076 0.34011 0.73184 0.0
N1003 N 0.30039 0.31556 0.73135 0.0
O1004 O 0.34621 0.40629 0.7142 0.0
H1005 H 0.33761 0.31037 0.69902 0.0
H1006 H 0.32382 0.35523 0.74185 0.0
O1007 O 0.362 0.35708 0.69052 0.0
C1008 C 0.35157 0.41307 0.72858 0.0
O1009 O 0.37115 0.39502 0.73631 0.0
N1010 N 0.39913 0.33434 0.71445 0.0
C1011 C 0.45713 0.32018 0.72674 0.0
C1012 C 0.45277 0.32071 0.71055 0.0
C1013 C 0.42314 0.3277 0.70455 0.0
C1014 C 0.40173 0.32747 0.72986 0.0
C1015 C 0.43074 0.3206 0.73632 0.0
H1016 H 0.42121 0.33262 0.69238 0.0
H1017 H 0.3829 0.333 0.73774 0.0
H1018 H 0.40367 0.41033 0.68305 0.0
H1019 H 0.48233 0.40969 0.71245 0.0
H1020 H 0.2933 0.28045 0.71359 0.0
H1021 H 0.47253 0.31902 0.7027 0.0
H1022 H 0.43282 0.31988 0.74885 0.0
C1023 C 0.32585 0.67188 0.46224 0.0
C1024 C 0.31904 0.69764 0.45336 0.0
N1025 N 0.32622 0.69123 0.43853 0.0
N1026 N 0.33766 0.64845 0.45334 0.0
C1027 C 0.3361 0.66079 0.43872 0.0
H1028 H 0.32301 0.67131 0.47465 0.0
Co1029 Co 0.35612 0.61014 0.46192 0.0
C1030 C 0.39578 0.61702 0.43272 0.0
O1031 O 0.40043 0.64687 0.43602 0.0
N1032 N 0.37406 0.57328 0.4702 0.0
C1033 C 0.39293 0.52453 0.47157 0.0
C1034 C 0.37427 0.54487 0.4632 0.0
C1035 C 0.39233 0.5694 0.48295 0.0
N1036 N 0.4046 0.54014 0.48393 0.0
O1037 O 0.31778 0.5861 0.45771 0.0
H1038 H 0.36272 0.53966 0.45229 0.0
H1039 H 0.39743 0.58794 0.49117 0.0
O1040 O 0.37798 0.6001 0.44152 0.0
C1041 C 0.30094 0.59257 0.4697 0.0
O1042 O 0.3102 0.61542 0.47877 0.0
N1043 N 0.38993 0.63297 0.4696 0.0
C1044 C 0.42953 0.66942 0.4876 0.0
C1045 C 0.44151 0.65262 0.47487 0.0
C1046 C 0.42127 0.63329 0.4663 0.0
C1047 C 0.37951 0.64599 0.48308 0.0
C1048 C 0.3987 0.66442 0.49218 0.0
H1049 H 0.43085 0.61857 0.45733 0.0
H1050 H 0.35628 0.64121 0.4872 0.0
H1051 H 0.34323 0.64827 0.42841 0.0
H1052 H 0.3102 0.71978 0.45773 0.0
H1053 H 0.39875 0.50063 0.46831 0.0
H1054 H 0.46583 0.65495 0.47138 0.0
H1055 H 0.3892 0.67535 0.50252 0.0
H1056 H 0.31619 0.2047 0.25579 0.0
H1057 H 0.17939 0.32413 0.27832 0.0
H1058 H 0.22939 0.2136 0.2299 0.0
H1059 H 0.24927 0.29174 0.31081 0.0
H1060 H 0.20419 0.29248 0.25794 0.0
H1061 H 0.29709 0.24343 0.27413 0.0
C1062 C 0.29308 0.21444 0.25389 0.0
C1063 C 0.27449 0.20552 0.24109 0.0
C1064 C 0.21443 0.29278 0.26947 0.0
C1065 C 0.25295 0.25088 0.26202 0.0
C1066 C 0.2006 0.31116 0.28098 0.0
C1067 C 0.21248 0.31039 0.29615 0.0
C1068 C 0.24037 0.27383 0.27323 0.0
C1069 C 0.23958 0.29277 0.29919 0.0
C1070 C 0.28234 0.2369 0.26438 0.0
C1071 C 0.24489 0.21977 0.23937 0.0
N1072 N 0.25253 0.27493 0.28785 0.0
N1073 N 0.2351 0.24179 0.24968 0.0
H1074 H 0.93793 0.92887 0.52357 0.0
H1075 H 0.06489 0.06569 0.5102 0.0
H1076 H 0.95106 0.00845 0.55413 0.0
H1077 H 0.0509 0.98822 0.47836 0.0
H1078 H 0.02528 0.04305 0.52719 0.0
H1079 H 0.98222 0.94755 0.50792 0.0
C1080 C 0.9501 0.95015 0.52704 0.0
C1081 C 0.94017 0.96741 0.54003 0.0
C1082 C 0.03099 0.03092 0.51651 0.0
C1083 C 0.9907 0.98907 0.52212 0.0
C1084 C 0.05353 0.04401 0.50669 0.0
C1085 C 0.0613 0.02913 0.49266 0.0
C1086 C 0.01599 0.00264 0.51233 0.0
C1087 C 0.04603 1.00059 0.48904 0.0
C1088 C 0.97531 0.96088 0.51807 0.0
C1089 C 0.95704 0.9948 0.54398 0.0
N1090 N 0.02408 0.98838 0.49878 0.0
N1091 N 0.98125 0.00482 0.53503 0.0
H1092 H 0.32028 0.69007 0.76961 0.0
H1093 H 0.17822 0.80827 0.75243 0.0
H1094 H 0.25067 0.71572 0.80346 0.0
H1095 H 0.26153 0.80201 0.7239 0.0
H1096 H 0.1996 0.76772 0.76918 0.0
H1097 H 0.29305 0.72298 0.75032 0.0
C1098 C 0.29876 0.70193 0.7728 0.0
C1099 C 0.28765 0.7004 0.78807 0.0
C1100 C 0.21311 0.77528 0.75921 0.0
C1101 C 0.25683 0.7383 0.76636 0.0
C1102 C 0.20098 0.79875 0.74958 0.0
C1103 C 0.21798 0.8093 0.73656 0.0
C1104 C 0.2424 0.76189 0.75585 0.0
C1105 C 0.2473 0.79514 0.73368 0.0
C1106 C 0.28347 0.72098 0.76191 0.0
C1107 C 0.25996 0.71654 0.79178 0.0
N1108 N 0.2585 0.77226 0.74323 0.0
N1109 N 0.24561 0.73501 0.78105 0.0
H1110 H 0.45787 0.96718 0.99192 0.0
H1111 H 0.57655 0.96229 0.06434 0.0
H1112 H 0.47648 0.88558 0.02015 0.0
H1113 H 0.55618 0.04836 0.03974 0.0
H1114 H 0.53727 0.93516 0.04871 0.0
H1115 H 0.49007 0.99916 1.00995 0.0
C1116 C 0.46824 0.9562 1.00205 0.0
C1117 C 0.46489 0.92367 1.00449 0.0
C1118 C 0.54116 0.96004 0.04673 0.0
C1119 C 0.50181 0.95964 0.02493 0.0
C1120 C 0.56383 0.97551 0.05562 0.0
C1121 C 0.56996 0.00761 0.05332 0.0
C1122 C 0.52441 0.97658 0.03524 0.0
C1123 C 0.55216 0.02363 0.042 0.0
C1124 C 0.48676 0.97431 1.01226 0.0
C1125 C 0.47892 0.91046 0.01771 0.0
N1126 N 0.53038 0.0079 0.03329 0.0
N1127 N 0.49686 0.92835 0.0273 0.0
H1128 H 0.26042 0.67254 0.24744 0.0
H1129 H 0.23063 0.83758 0.28994 0.0
H1130 H 0.17258 0.72267 0.24441 0.0
H1131 H 0.32098 0.7922 0.2869 0.0
H1132 H 0.20781 0.79479 0.27439 0.0
H1133 H 0.28187 0.71507 0.26328 0.0
C1134 C 0.24563 0.69251 0.25008 0.0
C1135 C 0.21469 0.69403 0.24449 0.0
C1136 C 0.23267 0.79435 0.27708 0.0
C1137 C 0.23909 0.74295 0.26275 0.0
C1138 C 0.24567 0.81874 0.28595 0.0
C1139 C 0.2778 0.8187 0.28965 0.0
C1140 C 0.2519 0.76958 0.272 0.0
C1141 C 0.29625 0.79367 0.28415 0.0
C1142 C 0.25787 0.7168 0.25917 0.0
C1143 C 0.19643 0.7203 0.24857 0.0
N1144 N 0.28302 0.77014 0.27568 0.0
N1145 N 0.20894 0.74377 0.25741 0.0
H1146 H 0.56678 0.93434 0.50809 0.0
H1147 H 0.44904 0.076 0.52711 0.0
H1148 H 0.56372 0.02164 0.48242 0.0
H1149 H 0.45278 0.98955 0.55342 0.0
H1150 H 0.49126 0.05641 0.51063 0.0
H1151 H 0.52432 0.95362 0.52456 0.0
C1152 C 0.5572 0.9575 0.50587 0.0
C1153 C 0.56914 0.97646 0.4939 0.0
C1154 C 0.4828 0.04172 0.52001 0.0
C1155 C 0.5207 0.99881 0.51281 0.0
C1156 C 0.45881 0.053 0.52949 0.0
C1157 C 0.44719 0.03441 0.54166 0.0
C1158 C 0.49532 0.01161 0.5227 0.0
C1159 C 0.46056 0.00454 0.54404 0.0
C1160 C 0.53305 0.96857 0.51534 0.0
C1161 C 0.55585 0.00639 0.49168 0.0
N1162 N 0.48387 0.99409 0.53465 0.0
N1163 N 0.53242 0.01662 0.50104 0.0
H1164 H 0.21674 0.19942 0.80416 0.0
H1165 H 0.23927 0.3037 0.72802 0.0
H1166 H 0.17532 0.18006 0.75937 0.0
H1167 H 0.31576 0.29615 0.76053 0.0
H1168 H 0.20821 0.26792 0.74402 0.0
H1169 H 0.24869 0.24143 0.79205 0.0
C1170 C 0.21459 0.20367 0.79181 0.0
C1171 C 0.1929 0.18638 0.78281 0.0
C1172 C 0.23157 0.27446 0.74787 0.0
C1173 C 0.22838 0.2348 0.76915 0.0
C1174 C 0.24905 0.29521 0.73886 0.0
C1175 C 0.2799 0.30291 0.74303 0.0
C1176 C 0.24503 0.26099 0.76119 0.0
C1177 C 0.29184 0.29097 0.75708 0.0
C1178 C 0.23259 0.22778 0.78497 0.0
C1179 C 0.19097 0.19316 0.76689 0.0
N1180 N 0.27448 0.27017 0.76563 0.0
N1181 N 0.2081 0.2169 0.76067 0.0
H1182 H 0.04146 0.92378 0.03835 0.0
H1183 H 0.9748 0.07741 0.99582 0.0
H1184 H 0.08549 0.01533 0.04063 0.0
H1185 H 0.93609 0.98439 0.98868 0.0
H1186 H 0.01602 0.05453 1.01182 0.0
H1187 H 0.00323 0.94483 0.01979 0.0
C1188 C 0.04336 0.94818 0.03485 0.0
C1189 C 0.06676 0.96783 0.04118 0.0
C1190 C 0.9986 0.03908 1.00669 0.0
C1191 C 0.0227 0.9922 0.02006 0.0
C1192 C 0.97503 0.05215 0.99741 0.0
C1193 C 0.95161 0.03295 0.99081 0.0
C1194 C 0.99885 0.0065 1.00954 0.0
C1195 C 0.9532 1.00033 0.99364 0.0
C1196 C 0.02137 0.96025 0.0243 0.0
C1197 C 0.06765 0.9994 0.03632 0.0
N1198 N 0.97626 0.9882 1.00284 0.0
N1199 N 0.04593 0.01057 0.02614 0.0
H1200 H 0.75974 0.82996 0.79687 0.0
H1201 H 0.78939 0.71037 0.72756 0.0
H1202 H 0.67941 0.79706 0.77116 0.0
H1203 H 0.83536 0.70671 0.77227 0.0
H1204 H 0.75276 0.75 0.7381 0.0
H1205 H 0.79349 0.79566 0.78148 0.0
C1206 C 0.74948 0.81643 0.78747 0.0
C1207 C 0.71692 0.81658 0.78514 0.0
C1208 C 0.77095 0.74032 0.7455 0.0
C1209 C 0.75522 0.77641 0.76773 0.0
C1210 C 0.79178 0.71761 0.73955 0.0
C1211 C 0.81608 0.70536 0.74893 0.0
C1212 C 0.77488 0.75116 0.76079 0.0
C1213 C 0.81789 0.71591 0.76437 0.0
C1214 C 0.7686 0.79649 0.77887 0.0
C1215 C 0.70452 0.79794 0.77309 0.0
N1216 N 0.79793 0.73827 0.7697 0.0
N1217 N 0.72369 0.77821 0.76487 0.0
H1218 H 0.73082 0.16912 0.29117 0.0
H1219 H 0.76452 0.32268 0.23964 0.0
H1220 H 0.82383 0.20495 0.28177 0.0
H1221 H 0.67165 0.28796 0.25021 0.0
H1222 H 0.78685 0.2801 0.25528 0.0
H1223 H 0.70874 0.2127 0.27622 0.0
C1224 C 0.74663 0.18603 0.28595 0.0
C1225 C 0.77927 0.18311 0.28776 0.0
C1226 C 0.76156 0.28196 0.25425 0.0
C1227 C 0.75413 0.23324 0.27058 0.0
C1228 C 0.74882 0.30627 0.24531 0.0
C1229 C 0.71615 0.30908 0.2436 0.0
C1230 C 0.7415 0.26014 0.26149 0.0
C1231 C 0.69692 0.28719 0.25134 0.0
C1232 C 0.73401 0.21094 0.27739 0.0
C1233 C 0.79858 0.20573 0.28057 0.0
N1234 N 0.70989 0.26362 0.25986 0.0
N1235 N 0.78572 0.22981 0.27235 0.0
H1236 H 0.82442 0.29301 0.78792 0.0
H1237 H 0.67286 0.22264 0.74461 0.0
H1238 H 0.7331 0.33698 0.78862 0.0
H1239 H 0.76549 0.1823 0.741 0.0
H1240 H 0.69394 0.26313 0.76187 0.0
H1241 H 0.803 0.25133 0.77143 0.0
C1242 C 0.79996 0.29412 0.78454 0.0
C1243 C 0.78062 0.31874 0.7897 0.0
C1244 C 0.70967 0.24538 0.75734 0.0
C1245 C 0.75577 0.27064 0.77096 0.0
C1246 C 0.69757 0.22205 0.74755 0.0
C1247 C 0.71744 0.19895 0.74129 0.0
C1248 C 0.74189 0.24566 0.76095 0.0
C1249 C 0.74939 0.19982 0.74538 0.0
C1250 C 0.78766 0.27013 0.7752 0.0
C1251 C 0.74888 0.31839 0.78512 0.0
N1252 N 0.7606 0.22276 0.75492 0.0
N1253 N 0.7375 0.29479 0.77604 0.0
H1254 H 0.75625 0.78591 0.22478 0.0
H1255 H 0.74901 0.71432 0.30966 0.0
H1256 H 0.81748 0.81713 0.26152 0.0
H1257 H 0.67538 0.70142 0.27574 0.0
H1258 H 0.7732 0.75386 0.29281 0.0
H1259 H 0.72411 0.75783 0.2438 0.0
C1260 C 0.76227 0.78751 0.23698 0.0
C1261 C 0.78922 0.80394 0.24169 0.0
C1262 C 0.75156 0.74265 0.28913 0.0
C1263 C 0.75347 0.77099 0.26348 0.0
C1264 C 0.73789 0.71986 0.29868 0.0
C1265 C 0.71027 0.70431 0.29403 0.0
C1266 C 0.73771 0.74971 0.27473 0.0
C1267 C 0.69656 0.71288 0.27982 0.0
C1268 C 0.74413 0.77135 0.24783 0.0
C1269 C 0.79655 0.80503 0.25755 0.0
N1270 N 0.71061 0.73472 0.27061 0.0
N1271 N 0.77907 0.78826 0.26789 0.0
H1272 H 0.51659 0.58164 0.99041 0.0
H1273 H 0.46623 0.43452 0.0429 0.0
H1274 H 0.57654 0.50221 1.00018 0.0
H1275 H 0.40807 0.51668 0.03662 0.0
H1276 H 0.50643 0.45882 0.02676 0.0
H1277 H 0.47643 0.55874 1.00731 0.0
C1278 C 0.52143 0.55956 0.99622 0.0
C1279 C 0.54988 0.54369 0.99378 0.0
C1280 C 0.48488 0.47158 0.02891 0.0
C1281 C 0.50399 0.51719 1.01295 0.0
C1282 C 0.46177 0.45757 0.03803 0.0
C1283 C 0.43364 0.47353 0.04109 0.0
C1284 C 0.47988 0.50179 0.02275 0.0
C1285 C 0.42951 0.50366 0.03469 0.0
C1286 C 0.49844 0.54639 1.00578 0.0
C1287 C 0.55475 0.51496 1.00147 0.0
N1288 N 0.45236 0.5168 0.0258 0.0
N1289 N 0.53202 0.50262 1.01065 0.0
H1290 H 0.05005 0.56583 0.5139 0.0
H1291 H 0.93408 0.42005 0.5258 0.0
H1292 H 0.04004 0.51688 0.55741 0.0
H1293 H 0.95299 0.46112 0.48096 0.0
H1294 H 0.97305 0.45492 0.5374 0.0
H1295 H 0.01632 0.52669 0.50142 0.0
C1296 C 0.04094 0.54656 0.52079 0.0
C1297 C 0.04743 0.54482 0.53677 0.0
C1298 C 0.96877 0.45634 0.52503 0.0
C1299 C 0.00847 0.49996 0.52257 0.0
C1300 C 0.94644 0.4364 0.51835 0.0
C1301 C 0.94023 0.43747 0.50232 0.0
C1302 C 0.98506 0.47786 0.51568 0.0
C1303 C 0.95668 0.45966 0.49337 0.0
C1304 C 0.02167 0.52422 0.51365 0.0
C1305 C 0.03556 0.51907 0.54509 0.0
N1306 N 0.97834 0.47896 0.50017 0.0
N1307 N 0.01628 0.49786 0.53793 0.0
H1308 H 0.03003 0.41977 0.99008 0.0
H1309 H 0.9769 0.56101 0.0454 0.0
H1310 H 0.08468 0.50402 0.99775 0.0
H1311 H 0.91982 0.47869 0.03684 0.0
H1312 H 0.01796 0.5388 0.02917 0.0
H1313 H 0.99094 0.43895 1.00852 0.0
C1314 C 0.03398 0.44212 0.99581 0.0
C1315 C 0.06057 0.46043 0.99238 0.0
C1316 C 0.9965 0.52551 0.03085 0.0
C1317 C 0.01589 0.48264 1.01334 0.0
C1318 C 0.97292 0.53829 0.04005 0.0
C1319 C 0.94469 0.52184 0.04233 0.0
C1320 C 0.9919 0.49601 0.02384 0.0
C1321 C 0.94125 0.49209 0.03543 0.0
C1322 C 0.01158 0.45316 1.00625 0.0
C1323 C 0.06431 0.48943 0.99993 0.0
N1324 N 0.96452 0.48019 0.02641 0.0
N1325 N 0.04218 0.49967 1.01003 0.0
H1326 H 0.53209 0.42561 0.53784 0.0
H1327 H 0.44703 0.57538 0.50015 0.0
H1328 H 0.55992 0.52176 0.54678 0.0
H1329 H 0.4169 0.47957 0.49225 0.0
H1330 H 0.48788 0.55611 0.51758 0.0
H1331 H 0.48931 0.44479 0.52151 0.0
C1332 C 0.52909 0.45077 0.53653 0.0
C1333 C 0.54976 0.47209 0.54379 0.0
C1334 C 0.47225 0.53927 0.51209 0.0
C1335 C 0.50084 0.49423 0.52483 0.0
C1336 C 0.44867 0.5503 0.5022 0.0
C1337 C 0.42821 0.52911 0.49473 0.0
C1338 C 0.47556 0.50676 0.5146 0.0
C1339 C 0.4322 0.49678 0.49763 0.0
C1340 C 0.50471 0.4617 0.52708 0.0
C1341 C 0.54489 0.50442 0.54133 0.0
N1342 N 0.45537 0.48662 0.50731 0.0
N1343 N 0.521 0.51446 0.53207 0.0
H1344 H 0.32625 0.12804 0.14412 0.0
H1345 H 0.35387 0.31218 0.12683 0.0
H1346 H 0.3424 0.19636 0.18037 0.0
H1347 H 0.31956 0.24538 0.09301 0.0
H1348 H 0.35421 0.2699 0.14638 0.0
H1349 H 0.32686 0.17073 0.12503 0.0
C1350 C 0.33 0.15196 0.14809 0.0
C1351 C 0.33485 0.15837 0.16389 0.0
C1352 C 0.34653 0.26462 0.13467 0.0
C1353 C 0.33583 0.20761 0.142 0.0
C1354 C 0.34651 0.28872 0.12348 0.0
C1355 C 0.33631 0.28257 0.10823 0.0
C1356 C 0.3366 0.23406 0.13055 0.0
C1357 C 0.32698 0.2516 0.10463 0.0
C1358 C 0.33042 0.17639 0.13716 0.0
C1359 C 0.33939 0.19004 0.16829 0.0
N1360 N 0.32737 0.22868 0.11564 0.0
N1361 N 0.33996 0.21338 0.15743 0.0
H1362 H 0.93453 0.09248 0.37288 0.0
H1363 H 0.10724 0.11318 0.41033 0.0
H1364 H 0.01706 0.11113 0.34528 0.0
H1365 H 0.02327 0.09108 0.43614 0.0
H1366 H 0.07566 0.11219 0.38621 0.0
H1367 H 0.96748 0.09196 0.39606 0.0
C1368 C 0.95948 0.09638 0.37157 0.0
C1369 C 0.97266 0.1017 0.35684 0.0
C1370 C 0.0643 0.10747 0.3972 0.0
C1371 C 0.01106 0.10105 0.38371 0.0
C1372 C 0.08237 0.10794 0.41096 0.0
C1373 C 0.06811 0.1022 0.42539 0.0
C1374 C 0.03173 0.10125 0.39787 0.0
C1375 C 0.03559 0.09574 0.42541 0.0
C1376 C 0.97844 0.09601 0.38491 0.0
C1377 C 0.00551 0.10645 0.35619 0.0
N1378 N 0.01872 0.09553 0.41199 0.0
N1379 N 0.02343 0.10607 0.36935 0.0
H1380 H 0.16427 0.80667 0.68086 0.0
H1381 H 0.18928 0.73281 0.59701 0.0
H1382 H 0.13554 0.85657 0.63961 0.0
H1383 H 0.15047 0.67668 0.63397 0.0
H1384 H 0.18536 0.7797 0.61359 0.0
H1385 H 0.17564 0.76018 0.66482 0.0
C1386 C 0.16123 0.80825 0.6684 0.0
C1387 C 0.14871 0.83563 0.66157 0.0
C1388 C 0.178 0.75706 0.6181 0.0
C1389 C 0.16228 0.78266 0.6432 0.0
C1390 C 0.18037 0.73029 0.60871 0.0
C1391 C 0.17036 0.70074 0.61418 0.0
C1392 C 0.16629 0.75427 0.63325 0.0
C1393 C 0.15845 0.69899 0.62935 0.0
C1394 C 0.16742 0.78156 0.6593 0.0
C1395 C 0.14515 0.83604 0.64535 0.0
N1396 N 0.15698 0.72534 0.63842 0.0
N1397 N 0.15195 0.81004 0.63672 0.0
H1398 H 0.53188 0.96554 0.86294 0.0
H1399 H 0.42384 0.85106 0.9134 0.0
H1400 H 0.53494 0.86415 0.8615 0.0
H1401 H 0.44976 0.94199 0.93164 0.0
H1402 H 0.45535 0.86129 0.89043 0.0
H1403 H 0.4949 0.9623 0.88498 0.0
C1404 C 0.52473 0.94267 0.86723 0.0
C1405 C 0.53654 0.91503 0.86038 0.0
C1406 C 0.45392 0.87929 0.89931 0.0
C1407 C 0.49403 0.91123 0.88524 0.0
C1408 C 0.43566 0.8736 0.91237 0.0
C1409 C 0.43416 0.89571 0.92442 0.0
C1410 C 0.47115 0.90736 0.89817 0.0
C1411 C 0.45006 0.92449 0.92251 0.0
C1412 C 0.50378 0.94087 0.8798 0.0
C1413 C 0.52673 0.88602 0.86647 0.0
N1414 N 0.46825 0.92944 0.90964 0.0
N1415 N 0.50596 0.88492 0.87839 0.0
H1416 H 0.36717 0.85762 0.38449 0.0
H1417 H 0.32715 0.6804 0.40712 0.0
H1418 H 0.32722 0.79145 0.35201 0.0
H1419 H 0.32959 0.7552 0.4411 0.0
H1420 H 0.33075 0.7203 0.38652 0.0
H1421 H 0.35485 0.82068 0.40563 0.0
C1422 C 0.35461 0.83605 0.38184 0.0
C1423 C 0.34744 0.82835 0.3664 0.0
C1424 C 0.33007 0.72785 0.39853 0.0
C1425 C 0.3352 0.78495 0.39034 0.0
C1426 C 0.32821 0.70503 0.41031 0.0
C1427 C 0.32757 0.71414 0.42599 0.0
C1428 C 0.33178 0.76004 0.40244 0.0
C1429 C 0.32922 0.74668 0.42929 0.0
C1430 C 0.34807 0.8147 0.39386 0.0
C1431 C 0.33259 0.7992 0.3636 0.0
N1432 N 0.33141 0.76826 0.41768 0.0
N1433 N 0.32741 0.77849 0.37536 0.0
H1434 H 0.39882 0.12591 0.6227 0.0
H1435 H 0.53481 0.04419 0.67283 0.0
H1436 H 0.44186 0.03773 0.61027 0.0
H1437 H 0.52082 0.14459 0.67299 0.0
H1438 H 0.49353 0.03879 0.65319 0.0
H1439 H 0.43483 0.12988 0.645 0.0
C1440 C 0.415 0.10684 0.62494 0.0
C1441 C 0.4173 0.08139 0.61458 0.0
C1442 C 0.49938 0.06204 0.65751 0.0
C1443 C 0.45866 0.08593 0.63997 0.0
C1444 C 0.52295 0.06512 0.66871 0.0
C1445 C 0.53125 0.09489 0.67453 0.0
C1446 C 0.48339 0.08885 0.6522 0.0
C1447 C 0.51527 0.12128 0.6687 0.0
C1448 C 0.43589 0.10938 0.63755 0.0
C1449 C 0.43908 0.0576 0.61803 0.0
N1450 N 0.49191 0.11765 0.65792 0.0
N1451 N 0.45894 0.0605 0.63034 0.0
H1452 H 0.15495 0.32055 0.89981 0.0
H1453 H 0.15877 0.14283 0.86981 0.0
H1454 H 0.16072 0.24231 0.93156 0.0
H1455 H 0.18842 0.22204 0.84207 0.0
H1456 H 0.1571 0.1776 0.89265 0.0
H1457 H 0.16211 0.28383 0.87809 0.0
C1458 C 0.15747 0.29565 0.90219 0.0
C1459 C 0.15745 0.28454 0.91751 0.0
C1460 C 0.16451 0.18715 0.88159 0.0
C1461 C 0.16584 0.24234 0.89278 0.0
C1462 C 0.1659 0.1672 0.8686 0.0
C1463 C 0.17369 0.17951 0.85397 0.0
C1464 C 0.17059 0.21958 0.87984 0.0
C1465 C 0.1821 0.21152 0.85308 0.0
C1466 C 0.16189 0.27472 0.88983 0.0
C1467 C 0.16104 0.25195 0.91994 0.0
N1468 N 0.17982 0.23047 0.86572 0.0
N1469 N 0.16496 0.23201 0.90773 0.0
H1470 H 0.01536 0.91464 0.1958 0.0
H1471 H 0.0757 0.94022 0.10929 0.0
H1472 H 0.94962 0.9205 0.15775 0.0
H1473 H 0.12787 0.88662 0.14312 0.0
H1474 H 0.03134 0.9427 0.1274 0.0
H1475 H 0.05865 0.91417 0.17729 0.0
C1476 C 0.00997 0.91623 0.18354 0.0
C1477 C 0.97863 0.91805 0.17839 0.0
C1478 C 0.05252 0.93042 0.13082 0.0
C1479 C 0.02862 0.91736 0.15697 0.0
C1480 C 0.07786 0.92875 0.12045 0.0
C1481 C 0.10541 0.91221 0.12439 0.0
C1482 C 0.05506 0.91648 0.14555 0.0
C1483 C 0.10724 0.89948 0.13944 0.0
C1484 C 0.03479 0.91567 0.17296 0.0
C1485 C 0.97334 0.9192 0.16226 0.0
N1486 N 0.08253 0.90191 0.14941 0.0
N1487 N 0.99806 0.91911 0.15212 0.0
H1488 H 0.62882 0.6999 0.90676 0.0
H1489 H 0.66784 0.88047 0.88625 0.0
H1490 H 0.66962 0.76508 0.93958 0.0
H1491 H 0.64495 0.80958 0.85212 0.0
H1492 H 0.66625 0.83949 0.90635 0.0
H1493 H 0.63041 0.74134 0.88692 0.0
C1494 C 0.63793 0.7229 0.90984 0.0
C1495 C 0.64937 0.7288 0.92486 0.0
C1496 C 0.66145 0.83307 0.89441 0.0
C1497 C 0.65148 0.77637 0.90219 0.0
C1498 C 0.66245 0.85647 0.88291 0.0
C1499 C 0.65587 0.84894 0.86735 0.0
C1500 C 0.65364 0.80189 0.89036 0.0
C1501 C 0.64931 0.81718 0.86383 0.0
C1502 C 0.63907 0.74651 0.89848 0.0
C1503 C 0.66109 0.75914 0.92812 0.0
N1504 N 0.64814 0.79504 0.87519 0.0
N1505 N 0.66184 0.78169 0.91692 0.0
H1506 H 0.06735 0.91167 0.65578 0.0
H1507 H 0.89181 0.9272 0.62179 0.0
H1508 H 0.98761 0.93105 0.68505 0.0
H1509 H 0.97379 0.90149 0.59529 0.0
H1510 H 0.92579 0.93301 0.64495 0.0
H1511 H 0.03308 0.91363 0.63318 0.0
C1512 C 0.04276 0.91679 0.65752 0.0
C1513 C 0.03046 0.92059 0.67251 0.0
C1514 C 0.93617 0.92618 0.634 0.0
C1515 C 0.99054 0.92258 0.64641 0.0
C1516 C 0.91677 0.9228 0.62081 0.0
C1517 C 0.92983 0.914 0.60649 0.0
C1518 C 0.96872 0.92056 0.63282 0.0
C1519 C 0.96243 0.90863 0.60595 0.0
C1520 C 0.023 0.91768 0.64454 0.0
C1521 C 0.99813 0.92725 0.6738 0.0
N1522 N 0.98053 0.91192 0.61882 0.0
N1523 N 0.97927 0.92776 0.66097 0.0
H1524 H 0.83297 0.14804 0.3758 0.0
H1525 H 0.86023 0.32735 0.40071 0.0
H1526 H 0.87275 0.22072 0.34685 0.0
H1527 H 0.7922 0.27029 0.42483 0.0
H1528 H 0.86699 0.28516 0.38183 0.0
H1529 H 0.8177 0.18942 0.39471 0.0
C1530 C 0.83763 0.17255 0.37319 0.0
C1531 C 0.854 0.18086 0.35965 0.0
C1532 C 0.85033 0.2818 0.39117 0.0
C1533 C 0.83748 0.22779 0.38115 0.0
C1534 C 0.84662 0.30593 0.40198 0.0
C1535 C 0.82543 0.30254 0.41425 0.0
C1536 C 0.83305 0.25364 0.39266 0.0
C1537 C 0.80839 0.27411 0.41536 0.0
C1538 C 0.82918 0.19609 0.384 0.0
C1539 C 0.85999 0.21299 0.357 0.0
N1540 N 0.81269 0.25061 0.40475 0.0
N1541 N 0.85202 0.23497 0.36761 0.0
H1542 H 0.59662 0.0986 0.12836 0.0
H1543 H 0.41969 0.0898 0.16004 0.0
H1544 H 0.51362 0.09832 0.09945 0.0
H1545 H 0.50007 0.09577 0.1906 0.0
H1546 H 0.45474 0.09092 0.13786 0.0
H1547 H 0.56272 0.09599 0.15143 0.0
C1548 C 0.57137 0.09797 0.12684 0.0
C1549 C 0.55803 0.09866 0.1119 0.0
C1550 C 0.46482 0.09199 0.14941 0.0
C1551 C 0.51918 0.09558 0.13819 0.0
C1552 C 0.44469 0.09148 0.16216 0.0
C1553 C 0.45669 0.09314 0.17735 0.0
C1554 C 0.49743 0.09407 0.15171 0.0
C1555 C 0.48957 0.09444 0.17918 0.0
C1556 C 0.55203 0.09648 0.14001 0.0
C1557 C 0.52511 0.09786 0.11067 0.0
N1558 N 0.50875 0.09503 0.16653 0.0
N1559 N 0.50696 0.09635 0.12358 0.0
H1560 H 0.65113 0.24767 0.59111 0.0
H1561 H 0.6841 0.18382 0.67586 0.0
H1562 H 0.65074 0.31144 0.62999 0.0
H1563 H 0.62708 0.13111 0.64353 0.0
H1564 H 0.68248 0.22914 0.65818 0.0
H1565 H 0.65223 0.20304 0.60912 0.0
C1566 C 0.65111 0.25224 0.60347 0.0
C1567 C 0.65072 0.28333 0.60906 0.0
C1568 C 0.67036 0.20762 0.65499 0.0
C1569 C 0.65268 0.2322 0.62977 0.0
C1570 C 0.67109 0.18176 0.6651 0.0
C1571 C 0.6546 0.15389 0.66152 0.0
C1572 C 0.65425 0.2052 0.64082 0.0
C1573 C 0.63988 0.15207 0.64692 0.0
C1574 C 0.6517 0.22676 0.61372 0.0
C1575 C 0.65073 0.28786 0.62522 0.0
N1576 N 0.64009 0.17732 0.63712 0.0
N1577 N 0.65209 0.26257 0.63503 0.0
H1578 H 0.51214 0.87007 0.34841 0.0
H1579 H 0.5464 0.96246 0.42769 0.0
H1580 H 0.44265 0.92601 0.37191 0.0
H1581 H 0.60618 0.88772 0.41127 0.0
H1582 H 0.51137 0.95375 0.40568 0.0
H1583 H 0.5489 0.87954 0.36983 0.0
C1584 C 0.50464 0.88447 0.35808 0.0
C1585 C 0.47426 0.89745 0.35828 0.0
C1586 C 0.53223 0.93936 0.40678 0.0
C1587 C 0.51657 0.90863 0.38292 0.0
C1588 C 0.55252 0.94447 0.41932 0.0
C1589 C 0.57953 0.92585 0.42142 0.0
C1590 C 0.53879 0.91549 0.39603 0.0
C1591 C 0.58594 0.90291 0.4101 0.0
C1592 C 0.52565 0.88976 0.37034 0.0
C1593 C 0.46572 0.91546 0.37126 0.0
N1594 N 0.56568 0.89832 0.39794 0.0
N1595 N 0.48683 0.92074 0.38297 0.0
H1596 H 0.88741 0.84972 0.15024 0.0
H1597 H 0.83457 0.6796 0.12236 0.0
H1598 H 0.83588 0.78578 0.17945 0.0
H1599 H 0.85223 0.75448 0.08971 0.0
H1600 H 0.83663 0.71815 0.14356 0.0
H1601 H 0.87443 0.81657 0.12767 0.0
C1602 C 0.8721 0.82954 0.15176 0.0
C1603 C 0.86199 0.82093 0.16664 0.0
C1604 C 0.83977 0.72619 0.13173 0.0
C1605 C 0.84878 0.7818 0.14116 0.0
C1606 C 0.83884 0.70413 0.11965 0.0
C1607 C 0.8431 0.71375 0.1042 0.0
C1608 C 0.84558 0.75814 0.12843 0.0
C1609 C 0.84843 0.74598 0.10139 0.0
C1610 C 0.86515 0.81029 0.13895 0.0
C1611 C 0.84349 0.79366 0.16811 0.0
N1612 N 0.84981 0.76692 0.11336 0.0
N1613 N 0.83796 0.77481 0.15562 0.0
H1614 H 0.97175 0.10777 0.93847 0.0
H1615 H 0.03418 0.03444 0.85881 0.0
H1616 H 0.91049 0.0874 0.89987 0.0
H1617 H 0.09036 0.09751 0.88664 0.0
H1618 H 0.99028 0.04181 0.87676 0.0
H1619 H 0.01703 0.09163 0.92266 0.0
C1620 C 0.96778 0.09883 0.92684 0.0
C1621 C 0.93738 0.09831 0.9205 0.0
C1622 C 0.01233 0.05375 0.87903 0.0
C1623 C 0.98887 0.08031 0.90237 0.0
C1624 C 0.03749 0.04937 0.86888 0.0
C1625 C 0.06613 0.06519 0.87132 0.0
C1626 C 0.01585 0.07369 0.89192 0.0
C1627 C 0.06874 0.08486 0.88437 0.0
C1628 C 0.9936 0.09007 0.91778 0.0
C1629 C 0.93353 0.08759 0.90523 0.0
N1630 N 0.04398 0.08847 0.89422 0.0
N1631 N 0.95897 0.07893 0.89667 0.0
H1632 H 0.84199 0.84161 0.6319 0.0
H1633 H 0.8489 0.6641 0.66516 0.0
H1634 H 0.82612 0.75939 0.60347 0.0
H1635 H 0.85829 0.74744 0.69347 0.0
H1636 H 0.8406 0.69808 0.64233 0.0
H1637 H 0.84929 0.80711 0.65443 0.0
C1638 C 0.84005 0.81639 0.63034 0.0
C1639 C 0.83299 0.80369 0.61567 0.0
C1640 C 0.84435 0.70887 0.65357 0.0
C1641 C 0.84126 0.7637 0.6416 0.0
C1642 C 0.84893 0.68943 0.66664 0.0
C1643 C 0.85433 0.70275 0.68135 0.0
C1644 C 0.84522 0.74193 0.65519 0.0
C1645 C 0.85435 0.73588 0.68243 0.0
C1646 C 0.84408 0.79661 0.64326 0.0
C1647 C 0.83077 0.77059 0.61451 0.0
N1648 N 0.85001 0.75415 0.66962 0.0
N1649 N 0.83486 0.75189 0.62722 0.0
H1650 H 0.44691 0.62787 0.86786 0.0
H1651 H 0.59203 0.54052 0.90933 0.0
H1652 H 0.48387 0.5387 0.85264 0.0
H1653 H 0.56576 0.63632 0.91964 0.0
H1654 H 0.55069 0.53845 0.88957 0.0
H1655 H 0.48777 0.6302 0.88798 0.0
C1656 C 0.46327 0.60851 0.86889 0.0
C1657 C 0.46167 0.58284 0.85857 0.0
C1658 C 0.55407 0.56002 0.89608 0.0
C1659 C 0.50895 0.58555 0.88159 0.0
C1660 C 0.57785 0.56128 0.90736 0.0
C1661 C 0.58275 0.58872 0.91619 0.0
C1662 C 0.53472 0.58633 0.89351 0.0
C1663 C 0.56305 0.61464 0.91316 0.0
C1664 C 0.48685 0.61001 0.88031 0.0
C1665 C 0.48415 0.5589 0.86029 0.0
N1666 N 0.53998 0.61279 0.90215 0.0
N1667 N 0.50668 0.56078 0.87155 0.0
H1668 H 0.64172 0.1796 0.13542 0.0
H1669 H 0.64617 0.36519 0.14524 0.0
H1670 H 0.68846 0.23767 0.10161 0.0
H1671 H 0.66627 0.30544 0.18446 0.0
H1672 H 0.65091 0.31918 0.12808 0.0
H1673 H 0.63799 0.22578 0.15283 0.0
C1674 C 0.65089 0.20212 0.13163 0.0
C1675 C 0.66554 0.20486 0.1171 0.0
C1676 C 0.65394 0.31617 0.14048 0.0
C1677 C 0.6609 0.25766 0.13672 0.0
C1678 C 0.6514 0.34244 0.15029 0.0
C1679 C 0.6546 0.33913 0.16646 0.0
C1680 C 0.65918 0.28616 0.14685 0.0
C1681 C 0.66193 0.30895 0.17221 0.0
C1682 C 0.64897 0.22833 0.14157 0.0
C1683 C 0.67721 0.23457 0.11276 0.0
N1684 N 0.66334 0.28358 0.16249 0.0
N1685 N 0.67437 0.25982 0.12242 0.0
H1686 H 0.89702 0.39937 0.41403 0.0
H1687 H 0.06873 0.43259 0.37994 0.0
H1688 H 0.97245 0.4412 0.44053 0.0
H1689 H 0.98865 0.4157 0.35031 0.0
H1690 H 0.03358 0.43376 0.40242 0.0
H1691 H 0.92922 0.40463 0.39044 0.0
C1692 C 0.91993 0.4104 0.41484 0.0
C1693 C 0.93196 0.41987 0.42933 0.0
C1694 C 0.02363 0.43009 0.39097 0.0
C1695 C 0.9693 0.42507 0.40249 0.0
C1696 C 0.04376 0.4293 0.37814 0.0
C1697 C 0.03172 0.42441 0.36315 0.0
C1698 C 0.99111 0.42551 0.38891 0.0
C1699 C 0.99902 0.42019 0.36157 0.0
C1700 C 0.93846 0.41309 0.40141 0.0
C1701 C 0.96216 0.43342 0.42967 0.0
N1702 N 0.97994 0.42063 0.37426 0.0
N1703 N 0.9798 0.43526 0.41657 0.0
H1704 H 0.79746 0.21158 0.91803 0.0
H1705 H 0.88569 0.34567 0.86805 0.0
H1706 H 0.89618 0.23144 0.92215 0.0
H1707 H 0.79452 0.30906 0.85584 0.0
H1708 H 0.88769 0.30867 0.89002 0.0
H1709 H 0.79386 0.25052 0.89681 0.0
C1710 C 0.81846 0.22368 0.91419 0.0
C1711 C 0.84725 0.21794 0.92158 0.0
C1712 C 0.86697 0.30913 0.88271 0.0
C1713 C 0.84335 0.26322 0.89771 0.0
C1714 C 0.86562 0.33069 0.87031 0.0
C1715 C 0.83959 0.33101 0.86027 0.0
C1716 C 0.84199 0.28787 0.8852 0.0
C1717 C 0.81481 0.31 0.86344 0.0
C1718 C 0.81643 0.24611 0.90221 0.0
C1719 C 0.87367 0.23497 0.91655 0.0
N1720 N 0.81658 0.28942 0.87557 0.0
N1721 N 0.8711 0.25681 0.905 0.0
H1722 H 0.93943 0.53822 0.10976 0.0
H1723 H 0.02986 0.646 0.17091 0.0
H1724 H 0.91359 0.63517 0.1168 0.0
H1725 H 0.02608 0.54483 0.17426 0.0
H1726 H 0.99025 0.64378 0.14996 0.0
H1727 H 0.97281 0.54073 0.13284 0.0
C1728 C 0.94003 0.55977 0.11649 0.0
C1729 C 0.92323 0.58629 0.11153 0.0
C1730 C 0.99804 0.62212 0.15536 0.0
C1731 C 0.96281 0.58995 0.13759 0.0
C1732 C 0.02083 0.62337 0.16718 0.0
C1733 C 0.03116 0.59556 0.17438 0.0
C1734 C 0.98601 0.5928 0.15053 0.0
C1735 C 0.01853 0.56685 0.16918 0.0
C1736 C 0.95939 0.56133 0.12957 0.0
C1737 C 0.92564 0.61397 0.12041 0.0
N1738 N 0.99686 0.56621 0.15756 0.0
N1739 N 0.9455 0.61527 0.13288 0.0
H1740 H 0.7152 0.79751 0.41398 0.0
H1741 H 0.60021 0.67869 0.36895 0.0
H1742 H 0.61573 0.79385 0.42326 0.0
H1743 H 0.69837 0.6916 0.35891 0.0
H1744 H 0.60545 0.71539 0.39099 0.0
H1745 H 0.70928 0.75475 0.3956 0.0
C1746 C 0.69203 0.78759 0.41226 0.0
C1747 C 0.666 0.79929 0.42041 0.0
C1748 C 0.626 0.70956 0.3842 0.0
C1749 C 0.6589 0.74985 0.3989 0.0
C1750 C 0.62314 0.68819 0.37181 0.0
C1751 C 0.64914 0.68153 0.36238 0.0
C1752 C 0.65506 0.72434 0.38708 0.0
C1753 C 0.67798 0.69551 0.36614 0.0
C1754 C 0.68863 0.76308 0.40164 0.0
C1755 C 0.63645 0.78574 0.41724 0.0
N1756 N 0.68011 0.71628 0.3781 0.0
N1757 N 0.6337 0.7617 0.40675 0.0
H1758 H 0.60168 0.38703 0.62699 0.0
H1759 H 0.43965 0.44383 0.66578 0.0
H1760 H 0.54997 0.46803 0.6109 0.0
H1761 H 0.50794 0.38775 0.69029 0.0
H1762 H 0.47653 0.44796 0.64383 0.0
H1763 H 0.56476 0.38232 0.64885 0.0
C1764 C 0.58287 0.40399 0.6281 0.0
C1765 C 0.57943 0.42823 0.61712 0.0
C1766 C 0.48344 0.43488 0.65407 0.0
C1767 C 0.5364 0.42244 0.64192 0.0
C1768 C 0.46234 0.43248 0.66658 0.0
C1769 C 0.47082 0.41601 0.6801 0.0
C1770 C 0.51305 0.42013 0.6549 0.0
C1771 C 0.50057 0.40144 0.68035 0.0
C1772 C 0.56168 0.40123 0.64056 0.0
C1773 C 0.55409 0.44921 0.61912 0.0
N1774 N 0.52042 0.40374 0.668 0.0
N1775 N 0.53359 0.4457 0.63113 0.0
H1776 H 0.15983 0.25429 0.44684 0.0
H1777 H 0.18147 0.30998 0.35911 0.0
H1778 H 0.17919 0.18917 0.40974 0.0
H1779 H 0.11424 0.35305 0.38969 0.0
H1780 H 0.19578 0.27309 0.3798 0.0
H1781 H 0.15645 0.29716 0.42786 0.0
C1782 C 0.16366 0.24911 0.43469 0.0
C1783 C 0.16987 0.21818 0.42982 0.0
C1784 C 0.1786 0.29127 0.38211 0.0
C1785 C 0.16655 0.26721 0.40812 0.0
C1786 C 0.1708 0.31274 0.3704 0.0
C1787 C 0.14678 0.33485 0.37273 0.0
C1788 C 0.16272 0.29243 0.39634 0.0
C1789 C 0.1333 0.33679 0.38753 0.0
C1790 C 0.16167 0.27354 0.42389 0.0
C1791 C 0.17422 0.21267 0.41391 0.0
N1792 N 0.14127 0.31569 0.39876 0.0
N1793 N 0.17266 0.23701 0.4036 0.0
H1794 H 0.54942 0.42789 0.16641 0.0
H1795 H 0.39013 0.37703 0.12287 0.0
H1796 H 0.48459 0.35988 0.18519 0.0
H1797 H 0.44739 0.45614 0.10917 0.0
H1798 H 0.42325 0.3707 0.14608 0.0
H1799 H 0.51239 0.43789 0.14504 0.0
C1800 C 0.52749 0.41494 0.16597 0.0
C1801 C 0.52003 0.39315 0.17763 0.0
C1802 C 0.42824 0.38974 0.13809 0.0
C1803 C 0.47742 0.40438 0.15324 0.0
C1804 C 0.40907 0.39356 0.12492 0.0
C1805 C 0.41601 0.41704 0.11398 0.0
C1806 C 0.45453 0.4095 0.1403 0.0
C1807 C 0.44122 0.43755 0.11722 0.0
C1808 C 0.50622 0.42079 0.15385 0.0
C1809 C 0.4911 0.37719 0.17656 0.0
N1810 N 0.45969 0.43309 0.12992 0.0
N1811 N 0.47098 0.38299 0.16458 0.0
H1812 H 0.28965 0.78399 0.92145 0.0
H1813 H 0.37669 0.69094 0.85443 0.0
H1814 H 0.38648 0.80071 0.90955 0.0
H1815 H 0.30206 0.64698 0.8804 0.0
H1816 H 0.37656 0.73473 0.87231 0.0
H1817 H 0.28938 0.73767 0.90422 0.0
C1818 C 0.31071 0.77809 0.91508 0.0
C1819 C 0.33809 0.79629 0.91686 0.0
C1820 C 0.36042 0.71537 0.87423 0.0
C1821 C 0.33796 0.7435 0.89721 0.0
C1822 C 0.36064 0.68991 0.86403 0.0
C1823 C 0.33992 0.66436 0.86594 0.0
C1824 C 0.3388 0.71605 0.88644 0.0
C1825 C 0.31876 0.66581 0.87846 0.0
C1826 C 0.31064 0.75153 0.9054 0.0
C1827 C 0.36493 0.7873 0.90855 0.0
N1828 N 0.31859 0.69128 0.88817 0.0
N1829 N 0.36412 0.76176 0.89901 0.0
H1830 H 0.08534 0.61211 0.61989 0.0
H1831 H 0.93182 0.52785 0.65534 0.0
H1832 H 0.04988 0.52225 0.60434 0.0
H1833 H 0.9628 0.6204 0.66935 0.0
H1834 H 0.97605 0.5249 0.63738 0.0
H1835 H 0.04251 0.61477 0.63887 0.0
C1836 C 0.06882 0.59273 0.62056 0.0
C1837 C 0.07148 0.56688 0.6104 0.0
C1838 C 0.97318 0.54593 0.64433 0.0
C1839 C 0.02189 0.56991 0.63219 0.0
C1840 C 0.94783 0.54762 0.65466 0.0
C1841 C 0.94317 0.57445 0.66395 0.0
C1842 C 0.99447 0.5712 0.64317 0.0
C1843 C 0.96489 0.59938 0.66234 0.0
C1844 C 0.0442 0.59436 0.63138 0.0
C1845 C 0.04916 0.54256 0.61192 0.0
N1846 N 0.98949 0.5971 0.65223 0.0
N1847 N 0.0254 0.54476 0.62248 0.0
H1848 H 0.20905 0.64666 0.15748 0.0
H1849 H 0.10946 0.78679 0.11905 0.0
H1850 H 0.1164 0.67094 0.17341 0.0
H1851 H 0.20936 0.77482 0.11331 0.0
H1852 H 0.10984 0.74375 0.13825 0.0
H1853 H 0.20805 0.69228 0.14021 0.0
C1854 C 0.18837 0.66146 0.15734 0.0
C1855 C 0.1627 0.65459 0.16698 0.0
C1856 C 0.13165 0.7507 0.13278 0.0
C1857 C 0.16122 0.70718 0.14695 0.0
C1858 C 0.13146 0.77538 0.12185 0.0
C1859 C 0.15931 0.78431 0.11426 0.0
C1860 C 0.15986 0.73476 0.13612 0.0
C1861 C 0.18709 0.76841 0.11843 0.0
C1862 C 0.18786 0.68767 0.14748 0.0
C1863 C 0.13667 0.67496 0.16625 0.0
N1864 N 0.18658 0.74448 0.12891 0.0
N1865 N 0.13651 0.70015 0.15639 0.0
H1866 H 0.97559 0.47676 0.85686 0.0
H1867 H 0.07697 0.37157 0.91619 0.0
H1868 H 0.95568 0.37852 0.86488 0.0
H1869 H 0.09988 0.46714 0.90361 0.0
H1870 H 0.03161 0.37347 0.89854 0.0
H1871 H 0.01933 0.47369 0.8751 0.0
C1872 C 0.98039 0.45445 0.86244 0.0
C1873 C 0.96185 0.42782 0.85912 0.0
C1874 C 0.0466 0.39399 0.8996 0.0
C1875 C 0.01252 0.42411 0.88034 0.0
C1876 C 0.07264 0.39292 0.90967 0.0
C1877 C 0.09267 0.41915 0.91136 0.0
C1878 C 0.04017 0.42163 0.89119 0.0
C1879 C 0.08554 0.44616 0.9026 0.0
C1880 C 0.00548 0.45273 0.87293 0.0
C1881 C 0.96908 0.39974 0.86708 0.0
N1882 N 0.05998 0.4467 0.89301 0.0
N1883 N 0.99388 0.39859 0.87723 0.0
H1884 H 0.3654 0.18064 0.62496 0.0
H1885 H 0.33155 0.35771 0.65074 0.0
H1886 H 0.29621 0.23882 0.60211 0.0
H1887 H 0.37838 0.29064 0.68021 0.0
H1888 H 0.31765 0.31466 0.63281 0.0
H1889 H 0.37017 0.22036 0.64532 0.0
C1890 C 0.35087 0.20143 0.62423 0.0
C1891 C 0.33047 0.20614 0.61155 0.0
C1892 C 0.33039 0.30923 0.64337 0.0
C1893 C 0.33641 0.25239 0.63491 0.0
C1894 C 0.33807 0.33378 0.65364 0.0
C1895 C 0.35536 0.32755 0.66715 0.0
C1896 C 0.3409 0.2784 0.64643 0.0
C1897 C 0.36428 0.29627 0.67011 0.0
C1898 C 0.35375 0.22429 0.6359 0.0
C1899 C 0.3127 0.23412 0.61138 0.0
N1900 N 0.35722 0.27297 0.6598 0.0
N1901 N 0.31631 0.25619 0.62273 0.0
H1902 H 0.4575 0.60148 0.43529 0.0
H1903 H 0.48376 0.58436 0.34341 0.0
H1904 H 0.3817 0.60453 0.40215 0.0
H1905 H 0.55924 0.59751 0.37632 0.0
H1906 H 0.44622 0.58479 0.3648 0.0
H1907 H 0.49452 0.59219 0.41415 0.0
C1908 C 0.44846 0.59923 0.42359 0.0
C1909 C 0.41625 0.6031 0.42056 0.0
C1910 C 0.471 0.58745 0.36736 0.0
C1911 C 0.45897 0.59352 0.39603 0.0
C1912 C 0.49263 0.58702 0.35511 0.0
C1913 C 0.52504 0.59079 0.35792 0.0
C1914 C 0.48158 0.59156 0.3827 0.0
C1915 C 0.53464 0.59475 0.37346 0.0
C1916 C 0.46976 0.5943 0.41146 0.0
C1917 C 0.40618 0.60091 0.40506 0.0
N1918 N 0.5131 0.595 0.38519 0.0
N1919 N 0.42742 0.59641 0.39339 0.0
H1920 H 0.60928 0.2304 0.24914 0.0
H1921 H 0.48354 0.14925 0.20055 0.0
H1922 H 0.61584 0.20832 0.20039 0.0
H1923 H 0.47579 0.2061 0.24192 0.0
H1924 H 0.53924 0.14127 0.20625 0.0
H1925 H 0.575 0.1856 0.25252 0.0
C1926 C 0.6034 0.21671 0.23897 0.0
C1927 C 0.6099 0.2272 0.22377 0.0
C1928 C 0.52503 0.15473 0.21427 0.0
C1929 C 0.57241 0.17514 0.22791 0.0
C1930 C 0.49353 0.16008 0.21081 0.0
C1931 C 0.4753 0.17947 0.22043 0.0
C1932 C 0.53843 0.16913 0.22736 0.0
C1933 C 0.48903 0.19153 0.23399 0.0
C1934 C 0.58453 0.19027 0.24109 0.0
C1935 C 0.60663 0.20464 0.2119 0.0
N1936 N 0.51986 0.18655 0.23692 0.0
N1937 N 0.58669 0.18012 0.21403 0.0
H1938 H 0.93704 0.25171 0.49049 0.0
H1939 H 0.09394 0.25753 0.47855 0.0
H1940 H 0.97936 0.34214 0.48104 0.0
H1941 H 0.05647 0.19478 0.51328 0.0
H1942 H 0.06035 0.29917 0.48838 0.0
H1943 H 0.98019 0.23972 0.50788 0.0
C1944 C 0.95531 0.26917 0.49218 0.0
C1945 C 0.95604 0.29681 0.4834 0.0
C1946 C 0.06022 0.27667 0.4943 0.0
C1947 C 0.00586 0.28311 0.50297 0.0
C1948 C 0.07908 0.2528 0.48847 0.0
C1949 C 0.07607 0.22232 0.49441 0.0
C1950 C 0.03699 0.26899 0.50528 0.0
C1951 C 0.05813 0.21771 0.50785 0.0
C1952 C 0.97985 0.2626 0.50232 0.0
C1953 C 0.97944 0.3193 0.48663 0.0
N1954 N 0.03834 0.24063 0.51258 0.0
N1955 N 0.0041 0.31156 0.49579 0.0
H1956 H 0.03077 0.64805 0.69352 0.0
H1957 H 0.08675 0.75079 0.74753 0.0
H1958 H 0.01139 0.63218 0.74203 0.0
H1959 H 0.14466 0.7293 0.70787 0.0
H1960 H 0.07635 0.69547 0.7508 0.0
H1961 H 0.08443 0.66268 0.70034 0.0
C1962 C 0.03806 0.64716 0.70557 0.0
C1963 C 0.01644 0.6405 0.71729 0.0
C1964 C 0.09218 0.70253 0.7416 0.0
C1965 C 0.0773 0.65754 0.72528 0.0
C1966 C 0.09809 0.73447 0.73971 0.0
C1967 C 0.11432 0.74489 0.72654 0.0
C1968 C 0.1006 0.68168 0.72963 0.0
C1969 C 0.12954 0.7223 0.71735 0.0
C1970 C 0.06885 0.65492 0.7095 0.0
C1971 C 0.02722 0.6382 0.73267 0.0
N1972 N 0.12119 0.69161 0.71861 0.0
N1973 N 0.05673 0.64761 0.7363 0.0
H1974 H 0.47643 0.63767 0.98363 0.0
H1975 H 0.41101 0.79003 0.02259 0.0
H1976 H 0.52144 0.72776 0.99121 0.0
H1977 H 0.35159 0.72366 0.99853 0.0
H1978 H 0.45066 0.74974 0.02526 0.0
H1979 H 0.43197 0.65553 0.99946 0.0
C1980 C 0.47711 0.66106 0.98862 0.0
C1981 C 0.50268 0.68136 0.98591 0.0
C1982 C 0.4284 0.74352 0.01993 0.0
C1983 C 0.45303 0.70085 1.00473 0.0
C1984 C 0.40534 0.76651 0.01858 0.0
C1985 C 0.37914 0.76088 1.00904 0.0
C1986 C 0.42491 0.71533 1.01157 0.0
C1987 C 0.37271 0.72945 1.00497 0.0
C1988 C 0.45208 0.67086 0.99791 0.0
C1989 C 0.50262 0.71102 0.99307 0.0
N1990 N 0.39636 0.70807 1.00537 0.0
N1991 N 0.47821 0.71982 1.00207 0.0
H1992 H 0.38639 0.75029 0.27696 0.0
H1993 H 0.49124 0.64151 0.32268 0.0
H1994 H 0.3689 0.71377 0.32281 0.0
H1995 H 0.51264 0.69648 0.28191 0.0
H1996 H 0.43574 0.64177 0.31525 0.0
H1997 H 0.41488 0.70229 0.27066 0.0
C1998 C 0.38753 0.73159 0.28551 0.0
C1999 C 0.37781 0.7368 0.30082 0.0
C2000 C 0.45271 0.6531 0.30773 0.0
C2001 C 0.411 0.68309 0.29396 0.0
C2002 C 0.48417 0.65364 0.31217 0.0
C2003 C 0.50605 0.67061 0.30334 0.0
C2004 C 0.44313 0.67034 0.29464 0.0
C2005 C 0.49623 0.68415 0.28934 0.0
C2006 C 0.40363 0.7041 0.28189 0.0
C2007 C 0.37795 0.71135 0.31114 0.0
N2008 N 0.46534 0.68433 0.28559 0.0
N2009 N 0.39556 0.68577 0.30773 0.0
H2010 H 0.50507 0.31978 0.54055 0.0
H2011 H 0.43499 0.24742 0.59064 0.0
H2012 H 0.4724 0.38454 0.57569 0.0
H2013 H 0.38204 0.23716 0.54792 0.0
H2014 H 0.43927 0.30296 0.58566 0.0
H2015 H 0.45259 0.29929 0.53815 0.0
C2016 C 0.48691 0.33055 0.5475 0.0
C2017 C 0.49393 0.35213 0.55936 0.0
C2018 C 0.4258 0.28868 0.5776 0.0
C2019 C 0.43414 0.32715 0.55715 0.0
C2020 C 0.42362 0.25658 0.58036 0.0
C2021 C 0.4098 0.23675 0.56923 0.0
C2022 C 0.4159 0.30077 0.56324 0.0
C2023 C 0.39525 0.2509 0.55626 0.0
C2024 C 0.45655 0.31893 0.54597 0.0
C2025 C 0.46867 0.36566 0.56745 0.0
N2026 N 0.40001 0.28187 0.5532 0.0
N2027 N 0.43998 0.35181 0.56681 0.0
H2028 H 0.09454 0.23104 0.81699 0.0
H2029 H 0.9503 0.30804 0.77796 0.0
H2030 H 0.00952 0.1877 0.79952 0.0
H2031 H 0.00232 0.34551 0.81689 0.0
H2032 H 0.99521 0.27526 0.77134 0.0
H2033 H 0.0811 0.27924 0.80313 0.0
C2034 C 0.07304 0.2316 0.81024 0.0
C2035 C 0.05196 0.20603 0.81019 0.0
C2036 C 0.99729 0.29176 0.78089 0.0
C2037 C 0.03795 0.26012 0.79359 0.0
C2038 C 0.97161 0.31016 0.78479 0.0
C2039 C 0.97227 0.32778 0.79854 0.0
C2040 C 0.02285 0.29047 0.79114 0.0
C2041 C 0.00052 0.33057 0.80673 0.0
C2042 C 0.06606 0.25874 0.80197 0.0
C2043 C 0.02584 0.2072 0.80034 0.0
N2044 N 0.02468 0.3113 0.80313 0.0
N2045 N 0.01925 0.23414 0.79264 0.0
H2046 H 0.8971 0.74032 0.07115 0.0
H2047 H 0.02045 0.84555 0.03382 0.0
H2048 H 0.95734 0.71832 0.03251 0.0
H2049 H 0.97608 0.85849 0.07836 0.0
H2050 H 0.97413 0.81683 0.02491 0.0
H2051 H 0.9029 0.79633 0.0653 0.0
C2052 C 0.91155 0.74744 0.06142 0.0
C2053 C 0.92843 0.72517 0.05286 0.0
C2054 C 0.97406 0.82703 0.03644 0.0
C2055 C 0.93492 0.78863 0.04604 0.0
C2056 C 0.00066 0.84301 0.0416 0.0
C2057 C 0.00297 0.85206 0.05723 0.0
C2058 C 0.95051 0.81946 0.0472 0.0
C2059 C 0.97598 0.85036 0.06646 0.0
C2060 C 0.91428 0.77923 0.05787 0.0
C2061 C 0.94515 0.73508 0.03979 0.0
N2062 N 0.95107 0.83332 0.06144 0.0
N2063 N 0.94869 0.76626 0.03701 0.0
H2064 H 0.49433 0.64228 0.78819 0.0
H2065 H 0.6223 0.73095 0.82902 0.0
H2066 H 0.5155 0.64532 0.83731 0.0
H2067 H 0.57284 0.75001 0.78616 0.0
H2068 H 0.61087 0.67503 0.82567 0.0
H2069 H 0.54931 0.6494 0.78279 0.0
C2070 C 0.50992 0.64511 0.79799 0.0
C2071 C 0.49895 0.6491 0.81331 0.0
C2072 C 0.60377 0.69142 0.81668 0.0
C2073 C 0.56235 0.65557 0.80693 0.0
C2074 C 0.60948 0.72343 0.81878 0.0
C2075 C 0.59643 0.74547 0.80846 0.0
C2076 C 0.58442 0.68171 0.80437 0.0
C2077 C 0.58225 0.73421 0.79483 0.0
C2078 C 0.54181 0.64784 0.79479 0.0
C2079 C 0.52164 0.64712 0.82521 0.0
N2080 N 0.57602 0.70312 0.79336 0.0
N2081 N 0.55234 0.6516 0.82178 0.0
H2082 H 0.88597 0.74803 0.56745 0.0
H2083 H 0.03635 0.74307 0.55536 0.0
H2084 H 0.9184 0.79296 0.52551 0.0
H2085 H 0.99762 0.65018 0.5632 0.0
H2086 H 0.99097 0.75547 0.53951 0.0
H2087 H 0.91595 0.70139 0.56061 0.0
C2088 C 0.89863 0.74765 0.55656 0.0
C2089 C 0.90198 0.77497 0.54764 0.0
C2090 C 0.99276 0.73201 0.54438 0.0
C2091 C 0.93661 0.72278 0.54009 0.0
C2092 C 0.0185 0.72518 0.55367 0.0
C2093 C 0.02003 0.69626 0.56134 0.0
C2094 C 0.96787 0.71028 0.54328 0.0
C2095 C 0.99638 0.67369 0.55839 0.0
C2096 C 0.91527 0.72084 0.55246 0.0
C2097 C 0.91685 0.77284 0.53318 0.0
N2098 N 0.97063 0.68156 0.55003 0.0
N2099 N 0.93474 0.74737 0.53003 0.0
H2100 H 0.8931 0.24002 0.26954 0.0
H2101 H 0.02298 0.2881 0.28581 0.0
H2102 H 0.87458 0.28448 0.31358 0.0
H2103 H 0.98709 0.36752 0.31149 0.0
H2104 H 0.97335 0.28354 0.27253 0.0
H2105 H 0.92328 0.28629 0.26172 0.0
C2106 C 0.89454 0.25994 0.27738 0.0
C2107 C 0.88401 0.25743 0.29276 0.0
C2108 C 0.97633 0.30282 0.28062 0.0
C2109 C 0.91899 0.30909 0.28418 0.0
C2110 C 0.00481 0.30508 0.28843 0.0
C2111 C 0.00862 0.32717 0.30036 0.0
C2112 C 0.95102 0.32194 0.28524 0.0
C2113 C 0.98439 0.34885 0.30303 0.0
C2114 C 0.91165 0.28636 0.27288 0.0
C2115 C 0.88426 0.28459 0.30197 0.0
N2116 N 0.95623 0.34507 0.29588 0.0
N2117 N 0.90268 0.30912 0.29774 0.0
H2118 H 0.60624 0.22018 0.03547 0.0
H2119 H 0.44876 0.26386 0.0679 0.0
H2120 H 0.5293 0.15427 0.03554 0.0
H2121 H 0.50073 0.33516 0.04325 0.0
H2122 H 0.47939 0.22329 0.05478 0.0
H2123 H 0.56888 0.26349 0.03375 0.0
C2124 C 0.58149 0.21485 0.03408 0.0
C2125 C 0.57045 0.18406 0.03608 0.0
C2126 C 0.48404 0.2478 0.05216 0.0
C2127 C 0.52807 0.2328 0.03495 0.0
C2128 C 0.46723 0.27079 0.05996 0.0
C2129 C 0.47317 0.3025 0.05689 0.0
C2130 C 0.50719 0.25677 0.04143 0.0
C2131 C 0.49635 0.31071 0.04611 0.0
C2132 C 0.56014 0.23953 0.03333 0.0
C2133 C 0.53839 0.17799 0.0343 0.0
N2134 N 0.51299 0.28786 0.03886 0.0
N2135 N 0.51799 0.20237 0.0345 0.0
H2136 H 0.47988 0.29443 0.75383 0.0
H2137 H 0.61915 0.2874 0.7114 0.0
H2138 H 0.50569 0.35645 0.71626 0.0
H2139 H 0.60464 0.2393 0.75498 0.0
H2140 H 0.59748 0.33443 0.72254 0.0
H2141 H 0.53359 0.29617 0.76319 0.0
C2142 C 0.49676 0.30869 0.7476 0.0
C2143 C 0.48877 0.32355 0.73361 0.0
C2144 C 0.59951 0.31379 0.72987 0.0
C2145 C 0.55069 0.32478 0.74398 0.0
C2146 C 0.61199 0.28657 0.72343 0.0
C2147 C 0.61044 0.25814 0.73173 0.0
C2148 C 0.58269 0.31126 0.74384 0.0
C2149 C 0.6028 0.25977 0.74755 0.0
C2150 C 0.52752 0.31 0.75305 0.0
C2151 C 0.51136 0.34272 0.72645 0.0
N2152 N 0.58794 0.28566 0.75301 0.0
N2153 N 0.5415 0.34216 0.73148 0.0
H2154 H 0.58125 0.78755 0.49793 0.0
H2155 H 0.40812 0.7274 0.4952 0.0
H2156 H 0.502 0.84079 0.48077 0.0
H2157 H 0.49107 0.6691 0.49688 0.0
H2158 H 0.43971 0.77278 0.50247 0.0
H2159 H 0.54548 0.75053 0.50992 0.0
C2160 C 0.55628 0.7919 0.49696 0.0
C2161 C 0.54448 0.8169 0.48803 0.0
C2162 C 0.45079 0.74988 0.50172 0.0
C2163 C 0.50367 0.77395 0.50134 0.0
C2164 C 0.43287 0.72396 0.49758 0.0
C2165 C 0.44738 0.69473 0.49506 0.0
C2166 C 0.48332 0.74648 0.50308 0.0
C2167 C 0.47935 0.69152 0.49825 0.0
C2168 C 0.53593 0.77071 0.50384 0.0
C2169 C 0.51196 0.82118 0.48711 0.0
N2170 N 0.4965 0.71739 0.50184 0.0
N2171 N 0.49254 0.7994 0.49344 0.0
H2172 H 0.02046 0.8758 0.22342 0.0
H2173 H 0.10761 0.73388 0.25224 0.0
H2174 H 0.99083 0.80342 0.25537 0.0
H2175 H 0.11989 0.78546 0.20958 0.0
H2176 H 0.08909 0.78189 0.26475 0.0
H2177 H 0.07482 0.86687 0.23128 0.0
C2178 C 0.02534 0.85852 0.23235 0.0
C2179 C 0.0016 0.83847 0.23787 0.0
C2180 C 0.09714 0.78306 0.25284 0.0
C2181 C 0.06321 0.82848 0.24687 0.0
C2182 C 0.10715 0.75557 0.24562 0.0
C2183 C 0.11281 0.75545 0.22958 0.0
C2184 C 0.09159 0.80984 0.2437 0.0
C2185 C 0.11397 0.7843 0.22178 0.0
C2186 C 0.05628 0.85391 0.23706 0.0
C2187 C 0.00869 0.8182 0.25019 0.0
N2188 N 0.10241 0.81035 0.22881 0.0
N2189 N 0.03913 0.81304 0.254 0.0
H2190 H 0.96397 0.22082 1.00795 0.0
H2191 H 0.96771 0.36298 0.96059 0.0
H2192 H 0.90361 0.24412 0.96946 0.0
H2193 H 0.02565 0.34699 1.00096 0.0
H2194 H 0.92402 0.33826 0.97389 0.0
H2195 H 0.96666 0.27679 1.01482 0.0
C2196 C 0.95109 0.23783 1.00107 0.0
C2197 C 0.93549 0.22864 0.98751 0.0
C2198 C 0.94608 0.34076 0.98007 0.0
C2199 C 0.93803 0.29202 0.9952 0.0
C2200 C 0.97113 0.35497 0.97241 0.0
C2201 C 0.00106 0.35415 0.97916 0.0
C2202 C 0.95215 0.3237 0.99377 0.0
C2203 C 0.00351 0.3452 0.9948 0.0
C2204 C 0.95212 0.26964 1.00509 0.0
C2205 C 0.91761 0.25087 0.97943 0.0
N2206 N 0.97965 0.32899 1.00144 0.0
N2207 N 0.91986 0.28168 0.9832 0.0
H2208 H 0.31074 0.95394 0.3038 0.0
H2209 H 0.37882 0.03683 0.22738 0.0
H2210 H 0.40867 0.95797 0.29161 0.0
H2211 H 0.29208 0.06849 0.2475 0.0
H2212 H 0.38467 0.99899 0.24863 0.0
H2213 H 0.29909 0.9907 0.28227 0.0
C2214 C 0.32991 0.96362 0.29706 0.0
C2215 C 0.36086 0.95353 0.29975 0.0
C2216 C 0.36383 0.01355 0.2482 0.0
C2217 C 0.34752 0.99369 0.27457 0.0
C2218 C 0.36009 0.03457 0.23581 0.0
C2219 C 0.33436 0.0551 0.23535 0.0
C2220 C 0.34169 0.01293 0.2603 0.0
C2221 C 0.31171 0.05235 0.24714 0.0
C2222 C 0.32319 0.98403 0.28457 0.0
C2223 C 0.38458 0.96561 0.29013 0.0
N2224 N 0.31593 0.03182 0.25918 0.0
N2225 N 0.37742 0.98461 0.27794 0.0
H2226 H 0.34246 0.06279 0.531 0.0
H2227 H 0.17255 0.04466 0.49288 0.0
H2228 H 0.25798 0.08191 0.55667 0.0
H2229 H 0.24996 0.08906 0.46943 0.0
H2230 H 0.20644 0.03533 0.51545 0.0
H2231 H 0.31072 0.04975 0.50816 0.0
C2232 C 0.31708 0.0628 0.53204 0.0
C2233 C 0.30284 0.07307 0.54586 0.0
C2234 C 0.21635 0.04584 0.5051 0.0
C2235 C 0.26636 0.05837 0.51959 0.0
C2236 C 0.19731 0.05043 0.49201 0.0
C2237 C 0.2085 0.06725 0.47905 0.0
C2238 C 0.24729 0.05706 0.50505 0.0
C2239 C 0.24046 0.07538 0.47894 0.0
C2240 C 0.29907 0.05572 0.51893 0.0
C2241 C 0.2699 0.07345 0.5464 0.0
N2242 N 0.25864 0.07058 0.49181 0.0
N2243 N 0.25272 0.06649 0.53338 0.0
H2244 H 0.18598 0.91734 0.74155 0.0
H2245 H 0.16865 0.08911 0.77841 0.0
H2246 H 0.13816 0.99371 0.71877 0.0
H2247 H 0.17782 0.00445 0.80548 0.0
H2248 H 0.17565 0.05824 0.75464 0.0
H2249 H 0.20105 0.95301 0.76265 0.0
C2250 C 0.18 0.94207 0.74062 0.0
C2251 C 0.16137 0.95276 0.7282 0.0
C2252 C 0.17729 0.04655 0.76579 0.0
C2253 C 0.17777 0.99357 0.75261 0.0
C2254 C 0.17386 0.06422 0.77939 0.0
C2255 C 0.17349 0.04943 0.79398 0.0
C2256 C 0.18049 0.01374 0.76675 0.0
C2257 C 0.17892 0.0169 0.79452 0.0
C2258 C 0.1882 0.96228 0.7528 0.0
C2259 C 0.15321 0.98472 0.72789 0.0
N2260 N 0.18191 1.00009 0.7811 0.0
N2261 N 0.1612 0.00396 0.73999 0.0
H2262 H 0.18005 0.94796 0.04043 0.0
H2263 H 0.26687 0.90773 0.9766 0.0
H2264 H 0.2424 0.88239 0.0628 0.0
H2265 H 0.34826 0.90861 1.0064 0.0
H2266 H 0.23399 0.92058 0.99893 0.0
H2267 H 0.21882 0.95565 0.01983 0.0
C2268 C 0.20259 0.93628 0.04137 0.0
C2269 C 0.20828 0.91505 0.05354 0.0
C2270 C 0.25917 0.919 1.00055 0.0
C2271 C 0.25228 0.92254 0.02952 0.0
C2272 C 0.278 0.91188 0.98775 0.0
C2273 C 0.31046 0.90756 0.98953 0.0
C2274 C 0.27266 0.9209 1.01545 0.0
C2275 C 0.32342 0.91203 1.00442 0.0
C2276 C 0.22446 0.94023 0.02945 0.0
C2277 C 0.23743 0.89961 0.05386 0.0
N2278 N 0.3044 0.91761 1.01689 0.0
N2279 N 0.25825 0.9034 0.04193 0.0
H2280 H 0.70397 0.93671 0.79292 0.0
H2281 H 0.61827 0.02798 0.72675 0.0
H2282 H 0.61083 0.97437 0.7983 0.0
H2283 H 0.70551 0.0703 0.74128 0.0
H2284 H 0.62243 0.99053 0.74832 0.0
H2285 H 0.71219 0.97268 0.77068 0.0
C2286 C 0.6859 0.9536 0.78995 0.0
C2287 C 0.65694 0.95314 0.79774 0.0
C2288 C 0.64124 0.00732 0.74641 0.0
C2289 C 0.66523 0.99207 0.77178 0.0
C2290 C 0.63918 0.02828 0.73394 0.0
C2291 C 0.66191 0.05185 0.73203 0.0
C2292 C 0.66637 0.00971 0.75695 0.0
C2293 C 0.68793 0.05192 0.74215 0.0
C2294 C 0.69035 0.97354 0.77708 0.0
C2295 C 0.63369 0.97435 0.79286 0.0
N2296 N 0.68939 0.03135 0.75431 0.0
N2297 N 0.63805 0.99237 0.78003 0.0
H2298 H 0.75919 0.92315 0.47191 0.0
H2299 H 0.83162 0.95556 0.54206 0.0
H2300 H 0.67417 0.95703 0.49286 0.0
H2301 H 0.74168 0.92541 0.55925 0.0
H2302 H 0.80743 0.96807 0.51707 0.0
H2303 H 0.78774 0.93599 0.49588 0.0
C2304 C 0.74692 0.93525 0.48115 0.0
C2305 C 0.71439 0.94014 0.48003 0.0
C2306 C 0.79274 0.95976 0.52647 0.0
C2307 C 0.7465 0.95303 0.50806 0.0
C2308 C 0.80639 0.95349 0.54099 0.0
C2309 C 0.78861 0.94021 0.55311 0.0
C2310 C 0.76084 0.95299 0.52397 0.0
C2311 C 0.7562 0.93646 0.55049 0.0
C2312 C 0.76313 0.9421 0.495 0.0
C2313 C 0.69941 0.95402 0.4929 0.0
N2314 N 0.74346 0.94247 0.53622 0.0
N2315 N 0.71526 0.95901 0.50646 0.0
H2316 H 0.81308 0.03837 0.30268 0.0
H2317 H 0.87835 0.96993 0.2226 0.0
H2318 H 0.90875 0.04625 0.28697 0.0
H2319 H 0.80935 0.91626 0.24771 0.0
H2320 H 0.87866 0.00895 0.24354 0.0
H2321 H 0.8027 1.00047 0.28132 0.0
C2322 C 0.83214 0.03128 0.29516 0.0
C2323 C 0.86203 0.04509 0.29681 0.0
C2324 C 0.86263 0.98916 0.24425 0.0
C2325 C 0.84978 0.00382 0.27184 0.0
C2326 C 0.86183 0.9673 0.23207 0.0
C2327 C 0.84318 0.94015 0.23315 0.0
C2328 C 0.84455 0.98403 0.25768 0.0
C2329 C 0.82345 0.93728 0.2462 0.0
C2330 C 0.82605 0.0102 0.28279 0.0
C2331 C 0.88548 0.03596 0.28628 0.0
N2332 N 0.82484 0.9587 0.25804 0.0
N2333 N 0.87877 0.01648 0.27421 0.0
H2334 H 0.76807 0.1355 0.96637 0.0
H2335 H 0.71966 0.06531 0.04952 0.0
H2336 H 0.81805 0.05932 0.98811 0.0
H2337 H 0.68895 0.15429 0.03074 0.0
H2338 H 0.748 0.05509 0.02506 0.0
H2339 H 0.72897 0.1331 0.98708 0.0
C2340 C 0.7698 0.11695 0.97497 0.0
C2341 C 0.79602 0.09705 0.97518 0.0
C2342 C 0.73484 0.07673 0.02633 0.0
C2343 C 0.75237 0.09541 0.99963 0.0
C2344 C 0.7188 0.08261 0.04029 0.0
C2345 C 0.70232 0.11094 0.04233 0.0
C2346 C 0.73382 0.09906 1.01423 0.0
C2347 C 0.70177 0.13238 0.02989 0.0
C2348 C 0.7479 0.11611 0.98706 0.0
C2349 C 0.79778 0.07449 0.98714 0.0
N2350 N 0.7172 0.12601 1.01647 0.0
N2351 N 0.77668 0.07465 0.99902 0.0
H2352 H 0.82455 0.60817 0.75266 0.0
H2353 H 0.79195 0.43803 0.78972 0.0
H2354 H 0.81179 0.52394 0.72563 0.0
H2355 H 0.84595 0.51008 0.81266 0.0
H2356 H 0.78079 0.47474 0.76846 0.0
H2357 H 0.81378 0.57798 0.77635 0.0
C2358 C 0.81742 0.58375 0.75157 0.0
C2359 C 0.81814 0.56892 0.73695 0.0
C2360 C 0.79401 0.48299 0.77843 0.0
C2361 C 0.80687 0.5337 0.76429 0.0
C2362 C 0.79982 0.46224 0.79079 0.0
C2363 C 0.81909 0.47116 0.80337 0.0
C2364 C 0.80729 0.51329 0.77858 0.0
C2365 C 0.83007 0.50242 0.80357 0.0
C2366 C 0.81205 0.56633 0.76519 0.0
C2367 C 0.81046 0.53669 0.7365 0.0
N2368 N 0.82429 0.5222 0.79134 0.0
N2369 N 0.80548 0.52016 0.74991 0.0
H2370 H 0.77227 0.62978 0.05529 0.0
H2371 H 0.68771 0.54997 0.9831 0.0
H2372 H 0.80615 0.53967 0.03994 0.0
H2373 H 0.71005 0.64869 0.98638 0.0
H2374 H 0.72247 0.54002 1.00565 0.0
H2375 H 0.73578 0.63071 0.03329 0.0
C2376 C 0.77064 0.60926 0.04785 0.0
C2377 C 0.7917 0.58424 0.04971 0.0
C2378 C 0.72026 0.5637 1.00112 0.0
C2379 C 0.7511 0.5858 0.02399 0.0
C2380 C 0.70108 0.56927 0.98804 0.0
C2381 C 0.69665 0.60011 0.98254 0.0
C2382 C 0.73399 0.58934 1.00897 0.0
C2383 C 0.7133 0.62448 0.98994 0.0
C2384 C 0.75046 0.6102 0.03502 0.0
C2385 C 0.78964 0.55897 0.03917 0.0
N2386 N 0.73062 0.61869 1.00289 0.0
N2387 N 0.76997 0.56048 0.02663 0.0
H2388 H 0.61369 0.52506 0.3103 0.0
H2389 H 0.68376 0.44903 0.2327 0.0
H2390 H 0.6965 0.56473 0.28945 0.0
H2391 H 0.58601 0.4491 0.24544 0.0
H2392 H 0.69476 0.48511 0.25468 0.0
H2393 H 0.61084 0.4865 0.28923 0.0
C2394 C 0.63241 0.52443 0.30181 0.0
C2395 C 0.65582 0.54767 0.3019 0.0
C2396 C 0.67086 0.47759 0.25243 0.0
C2397 C 0.65177 0.50466 0.27712 0.0
C2398 C 0.6645 0.45757 0.23972 0.0
C2399 C 0.63381 0.44648 0.23708 0.0
C2400 C 0.64645 0.48578 0.26269 0.0
C2401 C 0.60993 0.45732 0.24694 0.0
C2402 C 0.63027 0.50301 0.28949 0.0
C2403 C 0.67855 0.54667 0.29005 0.0
N2404 N 0.61678 0.47588 0.25934 0.0
N2405 N 0.6758 0.52584 0.27803 0.0
H2406 H 0.84181 0.40731 0.50679 0.0
H2407 H 0.66952 0.44733 0.53733 0.0
H2408 H 0.76306 0.42575 0.47672 0.0
H2409 H 0.73726 0.39499 0.56401 0.0
H2410 H 0.7089 0.45593 0.51717 0.0
H2411 H 0.80906 0.41916 0.52937 0.0
C2412 C 0.81794 0.41532 0.50492 0.0
C2413 C 0.80528 0.41621 0.48984 0.0
C2414 C 0.71553 0.44342 0.52763 0.0
C2415 C 0.76734 0.4289 0.5157 0.0
C2416 C 0.69321 0.4389 0.53928 0.0
C2417 C 0.70029 0.42093 0.55254 0.0
C2418 C 0.74534 0.42985 0.52917 0.0
C2419 C 0.73105 0.40964 0.5542 0.0
C2420 C 0.79916 0.4216 0.51783 0.0
C2421 C 0.77395 0.42561 0.4881 0.0
N2422 N 0.75237 0.41398 0.54255 0.0
N2423 N 0.75594 0.43131 0.50089 0.0
H2424 H 0.16034 0.59042 0.26095 0.0
H2425 H 0.16474 0.40715 0.28137 0.0
H2426 H 0.14783 0.51749 0.22666 0.0
H2427 H 0.15305 0.47987 0.31574 0.0
H2428 H 0.17128 0.44724 0.26139 0.0
H2429 H 0.16991 0.55048 0.28068 0.0
C2430 C 0.16 0.56588 0.25751 0.0
C2431 C 0.15294 0.55731 0.24211 0.0
C2432 C 0.16808 0.45455 0.27332 0.0
C2433 C 0.16381 0.51115 0.26489 0.0
C2434 C 0.16477 0.43167 0.28484 0.0
C2435 C 0.15871 0.4401 0.30036 0.0
C2436 C 0.16533 0.48641 0.27724 0.0
C2437 C 0.1583 0.47225 0.30404 0.0
C2438 C 0.16543 0.54308 0.26885 0.0
C2439 C 0.15326 0.52518 0.23834 0.0
N2440 N 0.16118 0.49424 0.29252 0.0
N2441 N 0.15824 0.50321 0.24971 0.0
H2442 H 0.32798 0.43932 0.03323 0.0
H2443 H 0.15425 0.42134 1.00007 0.0
H2444 H 0.25285 0.39868 0.05999 0.0
H2445 H 0.2353 0.40193 0.9718 0.0
H2446 H 0.18869 0.43277 0.02207 0.0
H2447 H 0.2921 0.44544 1.01117 0.0
C2448 C 0.30343 0.43323 0.03474 0.0
C2449 C 0.29324 0.41897 0.0486 0.0
C2450 C 0.19899 0.42673 1.01098 0.0
C2451 C 0.25224 0.42549 0.02325 0.0
C2452 C 0.17945 0.42043 0.99836 0.0
C2453 C 0.19194 0.41061 0.98405 0.0
C2454 C 0.23148 0.42375 1.00934 0.0
C2455 C 0.22471 0.40977 0.98253 0.0
C2456 C 0.28321 0.4362 0.02202 0.0
C2457 C 0.26149 0.41055 0.04972 0.0
N2458 N 0.24345 0.416 0.99511 0.0
N2459 N 0.24212 0.41374 0.03715 0.0
H2460 H 0.33646 0.52505 0.8106 0.0
H2461 H 0.34402 0.47636 0.72079 0.0
H2462 H 0.33212 0.59239 0.77327 0.0
H2463 H 0.32921 0.40964 0.75774 0.0
H2464 H 0.33479 0.51946 0.73945 0.0
H2465 H 0.32886 0.48242 0.79149 0.0
C2466 C 0.33269 0.53096 0.7985 0.0
C2467 C 0.33454 0.56241 0.79359 0.0
C2468 C 0.33285 0.49533 0.74339 0.0
C2469 C 0.32713 0.51373 0.77149 0.0
C2470 C 0.33769 0.47073 0.73264 0.0
C2471 C 0.33708 0.43927 0.73762 0.0
C2472 C 0.32772 0.48843 0.75925 0.0
C2473 C 0.32977 0.43352 0.75333 0.0
C2474 C 0.32881 0.50661 0.78751 0.0
C2475 C 0.33063 0.5685 0.77761 0.0
N2476 N 0.32584 0.45765 0.76354 0.0
N2477 N 0.32756 0.54456 0.76719 0.0
H2478 H 0.13965 0.57964 0.52583 0.0
H2479 H 0.31193 0.54963 0.49195 0.0
H2480 H 0.22215 0.57475 0.55472 0.0
H2481 H 0.23707 0.59308 0.46613 0.0
H2482 H 0.27579 0.54076 0.51363 0.0
H2483 H 0.17165 0.56677 0.50315 0.0
C2484 C 0.16437 0.57457 0.52749 0.0
C2485 C 0.1781 0.57769 0.54227 0.0
C2486 C 0.26689 0.55103 0.50298 0.0
C2487 C 0.21525 0.56376 0.51612 0.0
C2488 C 0.28731 0.55535 0.49039 0.0
C2489 C 0.27745 0.57146 0.47693 0.0
C2490 C 0.23597 0.56224 0.50206 0.0
C2491 C 0.2456 0.57979 0.476 0.0
C2492 C 0.18269 0.56761 0.51448 0.0
C2493 C 0.21044 0.57178 0.54364 0.0
N2494 N 0.22616 0.57544 0.48842 0.0
N2495 N 0.22798 0.56541 0.53071 0.0
loop_
_geom_bond_atom_site_label_1
_geom_bond_atom_site_label_2
_geom_bond_distance
_geom_bond_site_symmetry_2
_ccdc_geom_bond_type
C0 C1 1.351 . S
C0 N3 1.368 . S
C0 H5 0.931 . S
C1 C0 1.351 . S
C1 N2 1.373 . S
C1 H29 0.930 . S
N2 C1 1.373 . S
N2 C4 1.340 . S
N3 C0 1.368 . S
N3 C4 1.321 . S
N3 Co6 2.135 . S
C4 N2 1.340 . S
C4 N3 1.321 . S
C4 H28 0.930 . S
H5 C0 0.931 . S
Co6 N3 2.135 . S
Co6 N9 2.121 . S
Co6 O14 2.055 . S
Co6 O17 2.039 . S
Co6 N20 2.140 . S
C7 O8 1.227 . S
C7 O17 1.265 . S
O8 C7 1.227 . S
N9 Co6 2.121 . S
N9 C11 1.375 . S
N9 C12 1.313 . S
C10 C11 1.338 . S
C10 N13 1.377 . S
C10 H30 0.930 . S
C11 N9 1.375 . S
C11 C10 1.338 . S
C11 H15 0.931 . S
C12 N9 1.313 . S
C12 N13 1.344 . S
C12 H16 0.930 . S
N13 C10 1.377 . S
N13 C12 1.344 . S
O14 Co6 2.055 . S
O14 C18 1.253 . S
H15 C11 0.931 . S
H16 C12 0.930 . S
O17 Co6 2.039 . S
O17 C7 1.265 . S
C18 O14 1.253 . S
C18 O19 1.227 . S
O19 C18 1.227 . S
N20 Co6 2.140 . S
N20 C23 1.346 . S
N20 C24 1.345 . S
C21 C22 1.387 . S
C21 C25 1.391 . S
C22 C21 1.387 . S
C22 C23 1.369 . S
C22 H31 0.929 . S
C23 N20 1.346 . S
C23 C22 1.369 . S
C23 H26 0.928 . S
C24 N20 1.345 . S
C24 C25 1.371 . S
C24 H27 0.931 . S
C25 C21 1.391 . S
C25 C24 1.371 . S
C25 H32 0.930 . S
H26 C23 0.928 . S
H27 C24 0.931 . S
H28 C4 0.930 . S
H29 C1 0.930 . S
H30 C10 0.930 . S
H31 C22 0.929 . S
H32 C25 0.930 . S
C33 C34 1.351 . S
C33 N36 1.368 . S
C33 H38 0.931 . S
C34 C33 1.351 . S
C34 N35 1.373 . S
C34 H62 0.930 . S
N35 C34 1.373 . S
N35 C37 1.340 . S
N36 C33 1.368 . S
N36 C37 1.321 . S
N36 Co39 2.135 . S
C37 N35 1.340 . S
C37 N36 1.321 . S
C37 H61 0.930 . S
H38 C33 0.931 . S
Co39 N36 2.135 . S
Co39 N42 2.121 . S
Co39 O47 2.055 . S
Co39 O50 2.039 . S
Co39 N53 2.140 . S
C40 O41 1.227 . S
C40 O50 1.265 . S
O41 C40 1.227 . S
N42 Co39 2.121 . S
N42 C44 1.375 . S
N42 C45 1.313 . S
C43 C44 1.338 . S
C43 N46 1.377 . S
C43 H63 0.930 . S
C44 N42 1.375 . S
C44 C43 1.338 . S
C44 H48 0.931 . S
C45 N42 1.313 . S
C45 N46 1.344 . S
C45 H49 0.930 . S
N46 C43 1.377 . S
N46 C45 1.344 . S
O47 Co39 2.055 . S
O47 C51 1.253 . S
H48 C44 0.931 . S
H49 C45 0.930 . S
O50 Co39 2.039 . S
O50 C40 1.265 . S
C51 O47 1.253 . S
C51 O52 1.227 . S
O52 C51 1.227 . S
N53 Co39 2.140 . S
N53 C56 1.346 . S
N53 C57 1.345 . S
C54 C55 1.387 . S
C54 C58 1.391 . S
C55 C54 1.387 . S
C55 C56 1.369 . S
C55 H64 0.929 . S
C56 N53 1.346 . S
C56 C55 1.369 . S
C56 H59 0.928 . S
C57 N53 1.345 . S
C57 C58 1.371 . S
C57 H60 0.931 . S
C58 C54 1.391 . S
C58 C57 1.371 . S
C58 H65 0.930 . S
H59 C56 0.928 . S
H60 C57 0.931 . S
H61 C37 0.930 . S
H62 C34 0.930 . S
H63 C43 0.930 . S
H64 C55 0.929 . S
H65 C58 0.930 . S
C66 C67 1.351 . S
C66 N69 1.368 . S
C66 H71 0.931 . S
C67 C66 1.351 . S
C67 N68 1.373 . S
C67 H95 0.930 . S
N68 C67 1.373 . S
N68 C70 1.340 . S
N69 C66 1.368 . S
N69 C70 1.321 . S
N69 Co72 2.135 . S
C70 N68 1.340 . S
C70 N69 1.321 . S
C70 H94 0.930 . S
H71 C66 0.931 . S
Co72 N69 2.135 . S
Co72 N75 2.121 . S
Co72 O80 2.055 . S
Co72 O83 2.039 . S
Co72 N86 2.140 . S
C73 O74 1.227 . S
C73 O83 1.265 . S
O74 C73 1.227 . S
N75 Co72 2.121 . S
N75 C77 1.375 . S
N75 C78 1.313 . S
C76 C77 1.338 . S
C76 N79 1.377 . S
C76 H96 0.930 . S
C77 N75 1.375 . S
C77 C76 1.338 . S
C77 H81 0.931 . S
C78 N75 1.313 . S
C78 N79 1.344 . S
C78 H82 0.930 . S
N79 C76 1.377 . S
N79 C78 1.344 . S
O80 Co72 2.055 . S
O80 C84 1.253 . S
H81 C77 0.931 . S
H82 C78 0.930 . S
O83 Co72 2.039 . S
O83 C73 1.265 . S
C84 O80 1.253 . S
C84 O85 1.227 . S
O85 C84 1.227 . S
N86 Co72 2.140 . S
N86 C89 1.346 . S
N86 C90 1.345 . S
C87 C88 1.387 . S
C87 C91 1.391 . S
C88 C87 1.387 . S
C88 C89 1.369 . S
C88 H97 0.929 . S
C89 N86 1.346 . S
C89 C88 1.369 . S
C89 H92 0.928 . S
C90 N86 1.345 . S
C90 C91 1.371 . S
C90 H93 0.931 . S
C91 C87 1.391 . S
C91 C90 1.371 . S
C91 H98 0.930 . S
H92 C89 0.928 . S
H93 C90 0.931 . S
H94 C70 0.930 . S
H95 C67 0.930 . S
H96 C76 0.930 . S
H97 C88 0.929 . S
H98 C91 0.930 . S
C99 C100 1.351 . S
C99 N102 1.368 . S
C99 H104 0.931 . S
C100 C99 1.351 . S
C100 N101 1.373 . S
C100 H128 0.930 . S
N101 C100 1.373 . S
N101 C103 1.340 . S
N102 C99 1.368 . S
N102 C103 1.321 . S
N102 Co105 2.135 . S
C103 N101 1.340 . S
C103 N102 1.321 . S
C103 H127 0.930 . S
H104 C99 0.931 . S
Co105 N102 2.135 . S
Co105 N108 2.121 . S
Co105 O113 2.055 . S
Co105 O116 2.039 . S
Co105 N119 2.140 . S
C106 O107 1.227 . S
C106 O116 1.265 . S
O107 C106 1.227 . S
N108 Co105 2.121 . S
N108 C110 1.375 . S
N108 C111 1.313 . S
C109 C110 1.338 . S
C109 N112 1.377 . S
C109 H129 0.930 . S
C110 N108 1.375 . S
C110 C109 1.338 . S
C110 H114 0.931 . S
C111 N108 1.313 . S
C111 N112 1.344 . S
C111 H115 0.930 . S
N112 C109 1.377 . S
N112 C111 1.344 . S
O113 Co105 2.055 . S
O113 C117 1.253 . S
H114 C110 0.931 . S
H115 C111 0.930 . S
O116 Co105 2.039 . S
O116 C106 1.265 . S
C117 O113 1.253 . S
C117 O118 1.227 . S
O118 C117 1.227 . S
N119 Co105 2.140 . S
N119 C122 1.346 . S
N119 C123 1.345 . S
C120 C121 1.387 . S
C120 C124 1.391 . S
C121 C120 1.387 . S
C121 C122 1.369 . S
C121 H130 0.929 . S
C122 N119 1.346 . S
C122 C121 1.369 . S
C122 H125 0.928 . S
C123 N119 1.345 . S
C123 C124 1.371 . S
C123 H126 0.931 . S
C124 C120 1.391 . S
C124 C123 1.371 . S
C124 H131 0.930 . S
H125 C122 0.928 . S
H126 C123 0.931 . S
H127 C103 0.930 . S
H128 C100 0.930 . S
H129 C109 0.930 . S
H130 C121 0.929 . S
H131 C124 0.930 . S
C132 C133 1.351 . S
C132 N135 1.368 . S
C132 H137 0.931 . S
C133 C132 1.351 . S
C133 N134 1.373 . S
C133 H161 0.930 . S
N134 C133 1.373 . S
N134 C136 1.340 . S
N135 C132 1.368 . S
N135 C136 1.321 . S
N135 Co138 2.135 . S
C136 N134 1.340 . S
C136 N135 1.321 . S
C136 H160 0.930 . S
H137 C132 0.931 . S
Co138 N135 2.135 . S
Co138 N141 2.121 . S
Co138 O146 2.055 . S
Co138 O149 2.039 . S
Co138 N152 2.140 . S
C139 O140 1.227 . S
C139 O149 1.265 . S
O140 C139 1.227 . S
N141 Co138 2.121 . S
N141 C143 1.375 . S
N141 C144 1.313 . S
C142 C143 1.338 . S
C142 N145 1.377 . S
C142 H162 0.930 . S
C143 N141 1.375 . S
C143 C142 1.338 . S
C143 H147 0.931 . S
C144 N141 1.313 . S
C144 N145 1.344 . S
C144 H148 0.930 . S
N145 C142 1.377 . S
N145 C144 1.344 . S
O146 Co138 2.055 . S
O146 C150 1.253 . S
H147 C143 0.931 . S
H148 C144 0.930 . S
O149 Co138 2.039 . S
O149 C139 1.265 . S
C150 O146 1.253 . S
C150 O151 1.227 . S
O151 C150 1.227 . S
N152 Co138 2.140 . S
N152 C155 1.346 . S
N152 C156 1.345 . S
C153 C154 1.387 . S
C153 C157 1.391 . S
C154 C153 1.387 . S
C154 C155 1.369 . S
C154 H163 0.929 . S
C155 N152 1.346 . S
C155 C154 1.369 . S
C155 H158 0.928 . S
C156 N152 1.345 . S
C156 C157 1.371 . S
C156 H159 0.931 . S
C157 C153 1.391 . S
C157 C156 1.371 . S
C157 H164 0.930 . S
H158 C155 0.928 . S
H159 C156 0.931 . S
H160 C136 0.930 . S
H161 C133 0.930 . S
H162 C142 0.930 . S
H163 C154 0.929 . S
H164 C157 0.930 . S
C165 C166 1.351 . S
C165 N168 1.368 . S
C165 H170 0.931 . S
C166 C165 1.351 . S
C166 N167 1.373 . S
C166 H194 0.930 . S
N167 C166 1.373 . S
N167 C169 1.340 . S
N168 C165 1.368 . S
N168 C169 1.321 . S
N168 Co171 2.135 . S
C169 N167 1.340 . S
C169 N168 1.321 . S
C169 H193 0.930 . S
H170 C165 0.931 . S
Co171 N168 2.135 . S
Co171 N174 2.121 . S
Co171 O179 2.055 . S
Co171 O182 2.039 . S
Co171 N185 2.140 . S
C172 O173 1.227 . S
C172 O182 1.265 . S
O173 C172 1.227 . S
N174 Co171 2.121 . S
N174 C176 1.375 . S
N174 C177 1.313 . S
C175 C176 1.338 . S
C175 N178 1.377 . S
C175 H195 0.930 . S
C176 N174 1.375 . S
C176 C175 1.338 . S
C176 H180 0.931 . S
C177 N174 1.313 . S
C177 N178 1.344 . S
C177 H181 0.930 . S
N178 C175 1.377 . S
N178 C177 1.344 . S
O179 Co171 2.055 . S
O179 C183 1.253 . S
H180 C176 0.931 . S
H181 C177 0.930 . S
O182 Co171 2.039 . S
O182 C172 1.265 . S
C183 O179 1.253 . S
C183 O184 1.227 . S
O184 C183 1.227 . S
N185 Co171 2.140 . S
N185 C188 1.346 . S
N185 C189 1.345 . S
C186 C187 1.387 . S
C186 C190 1.391 . S
C187 C186 1.387 . S
C187 C188 1.369 . S
C187 H196 0.929 . S
C188 N185 1.346 . S
C188 C187 1.369 . S
C188 H191 0.928 . S
C189 N185 1.345 . S
C189 C190 1.371 . S
C189 H192 0.931 . S
C190 C186 1.391 . S
C190 C189 1.371 . S
C190 H197 0.930 . S
H191 C188 0.928 . S
H192 C189 0.931 . S
H193 C169 0.930 . S
H194 C166 0.930 . S
H195 C175 0.930 . S
H196 C187 0.929 . S
H197 C190 0.930 . S
C198 C199 1.351 . S
C198 N201 1.368 . S
C198 H203 0.931 . S
C199 C198 1.351 . S
C199 N200 1.373 . S
C199 H227 0.930 . S
N200 C199 1.373 . S
N200 C202 1.340 . S
N201 C198 1.368 . S
N201 C202 1.321 . S
N201 Co204 2.135 . S
C202 N200 1.340 . S
C202 N201 1.321 . S
C202 H226 0.930 . S
H203 C198 0.931 . S
Co204 N201 2.135 . S
Co204 N207 2.121 . S
Co204 O212 2.055 . S
Co204 O215 2.039 . S
Co204 N218 2.140 . S
C205 O206 1.227 . S
C205 O215 1.265 . S
O206 C205 1.227 . S
N207 Co204 2.121 . S
N207 C209 1.375 . S
N207 C210 1.313 . S
C208 C209 1.338 . S
C208 N211 1.377 . S
C208 H228 0.930 . S
C209 N207 1.375 . S
C209 C208 1.338 . S
C209 H213 0.931 . S
C210 N207 1.313 . S
C210 N211 1.344 . S
C210 H214 0.930 . S
N211 C208 1.377 . S
N211 C210 1.344 . S
O212 Co204 2.055 . S
O212 C216 1.253 . S
H213 C209 0.931 . S
H214 C210 0.930 . S
O215 Co204 2.039 . S
O215 C205 1.265 . S
C216 O212 1.253 . S
C216 O217 1.227 . S
O217 C216 1.227 . S
N218 Co204 2.140 . S
N218 C221 1.346 . S
N218 C222 1.345 . S
C219 C220 1.387 . S
C219 C223 1.391 . S
C220 C219 1.387 . S
C220 C221 1.369 . S
C220 H229 0.929 . S
C221 N218 1.346 . S
C221 C220 1.369 . S
C221 H224 0.928 . S
C222 N218 1.345 . S
C222 C223 1.371 . S
C222 H225 0.931 . S
C223 C219 1.391 . S
C223 C222 1.371 . S
C223 H230 0.930 . S
H224 C221 0.928 . S
H225 C222 0.931 . S
H226 C202 0.930 . S
H227 C199 0.930 . S
H228 C208 0.930 . S
H229 C220 0.929 . S
H230 C223 0.930 . S
C231 C232 1.351 . S
C231 N234 1.368 . S
C231 H236 0.931 . S
C232 C231 1.351 . S
C232 N233 1.373 . S
C232 H260 0.930 . S
N233 C232 1.373 . S
N233 C235 1.340 . S
N234 C231 1.368 . S
N234 C235 1.321 . S
N234 Co237 2.135 . S
C235 N233 1.340 . S
C235 N234 1.321 . S
C235 H259 0.930 . S
H236 C231 0.931 . S
Co237 N234 2.135 . S
Co237 N240 2.121 . S
Co237 O245 2.055 . S
Co237 O248 2.039 . S
Co237 N251 2.140 . S
C238 O239 1.227 . S
C238 O248 1.265 . S
O239 C238 1.227 . S
N240 Co237 2.121 . S
N240 C242 1.375 . S
N240 C243 1.313 . S
C241 C242 1.338 . S
C241 N244 1.377 . S
C241 H261 0.930 . S
C242 N240 1.375 . S
C242 C241 1.338 . S
C242 H246 0.931 . S
C243 N240 1.313 . S
C243 N244 1.344 . S
C243 H247 0.930 . S
N244 C241 1.377 . S
N244 C243 1.344 . S
O245 Co237 2.055 . S
O245 C249 1.253 . S
H246 C242 0.931 . S
H247 C243 0.930 . S
O248 Co237 2.039 . S
O248 C238 1.265 . S
C249 O245 1.253 . S
C249 O250 1.227 . S
O250 C249 1.227 . S
N251 Co237 2.140 . S
N251 C254 1.346 . S
N251 C255 1.345 . S
C252 C253 1.387 . S
C252 C256 1.391 . S
C253 C252 1.387 . S
C253 C254 1.369 . S
C253 H262 0.929 . S
C254 N251 1.346 . S
C254 C253 1.369 . S
C254 H257 0.928 . S
C255 N251 1.345 . S
C255 C256 1.371 . S
C255 H258 0.931 . S
C256 C252 1.391 . S
C256 C255 1.371 . S
C256 H263 0.930 . S
H257 C254 0.928 . S
H258 C255 0.931 . S
H259 C235 0.930 . S
H260 C232 0.930 . S
H261 C241 0.930 . S
H262 C253 0.929 . S
H263 C256 0.930 . S
C264 C265 1.351 . S
C264 N267 1.368 . S
C264 H269 0.931 . S
C265 C264 1.351 . S
C265 N266 1.373 . S
C265 H293 0.930 . S
N266 C265 1.373 . S
N266 C268 1.340 . S
N267 C264 1.368 . S
N267 C268 1.321 . S
N267 Co270 2.135 . S
C268 N266 1.340 . S
C268 N267 1.321 . S
C268 H292 0.930 . S
H269 C264 0.931 . S
Co270 N267 2.135 . S
Co270 N273 2.121 . S
Co270 O278 2.055 . S
Co270 O281 2.039 . S
Co270 N284 2.140 . S
C271 O272 1.227 . S
C271 O281 1.265 . S
O272 C271 1.227 . S
N273 Co270 2.121 . S
N273 C275 1.375 . S
N273 C276 1.313 . S
C274 C275 1.338 . S
C274 N277 1.377 . S
C274 H294 0.930 . S
C275 N273 1.375 . S
C275 C274 1.338 . S
C275 H279 0.931 . S
C276 N273 1.313 . S
C276 N277 1.344 . S
C276 H280 0.930 . S
N277 C274 1.377 . S
N277 C276 1.344 . S
O278 Co270 2.055 . S
O278 C282 1.253 . S
H279 C275 0.931 . S
H280 C276 0.930 . S
O281 Co270 2.039 . S
O281 C271 1.265 . S
C282 O278 1.253 . S
C282 O283 1.227 . S
O283 C282 1.227 . S
N284 Co270 2.140 . S
N284 C287 1.346 . S
N284 C288 1.345 . S
C285 C286 1.387 . S
C285 C289 1.391 . S
C286 C285 1.387 . S
C286 C287 1.369 . S
C286 H295 0.929 . S
C287 N284 1.346 . S
C287 C286 1.369 . S
C287 H290 0.928 . S
C288 N284 1.345 . S
C288 C289 1.371 . S
C288 H291 0.931 . S
C289 C285 1.391 . S
C289 C288 1.371 . S
C289 H296 0.930 . S
H290 C287 0.928 . S
H291 C288 0.931 . S
H292 C268 0.930 . S
H293 C265 0.930 . S
H294 C274 0.930 . S
H295 C286 0.929 . S
H296 C289 0.930 . S
C297 C298 1.351 . S
C297 N300 1.368 . S
C297 H302 0.931 . S
C298 C297 1.351 . S
C298 N299 1.373 . S
C298 H326 0.930 . S
N299 C298 1.373 . S
N299 C301 1.340 . S
N300 C297 1.368 . S
N300 C301 1.321 . S
N300 Co303 2.135 . S
C301 N299 1.340 . S
C301 N300 1.321 . S
C301 H325 0.930 . S
H302 C297 0.931 . S
Co303 N300 2.135 . S
Co303 N306 2.121 . S
Co303 O311 2.055 . S
Co303 O314 2.039 . S
Co303 N317 2.140 . S
C304 O305 1.227 . S
C304 O314 1.265 . S
O305 C304 1.227 . S
N306 Co303 2.121 . S
N306 C308 1.375 . S
N306 C309 1.313 . S
C307 C308 1.338 . S
C307 N310 1.377 . S
C307 H327 0.930 . S
C308 N306 1.375 . S
C308 C307 1.338 . S
C308 H312 0.931 . S
C309 N306 1.313 . S
C309 N310 1.344 . S
C309 H313 0.930 . S
N310 C307 1.377 . S
N310 C309 1.344 . S
O311 Co303 2.055 . S
O311 C315 1.253 . S
H312 C308 0.931 . S
H313 C309 0.930 . S
O314 Co303 2.039 . S
O314 C304 1.265 . S
C315 O311 1.253 . S
C315 O316 1.227 . S
O316 C315 1.227 . S
N317 Co303 2.140 . S
N317 C320 1.346 . S
N317 C321 1.345 . S
C318 C319 1.387 . S
C318 C322 1.391 . S
C319 C318 1.387 . S
C319 C320 1.369 . S
C319 H328 0.929 . S
C320 N317 1.346 . S
C320 C319 1.369 . S
C320 H323 0.928 . S
C321 N317 1.345 . S
C321 C322 1.371 . S
C321 H324 0.931 . S
C322 C318 1.391 . S
C322 C321 1.371 . S
C322 H329 0.930 . S
H323 C320 0.928 . S
H324 C321 0.931 . S
H325 C301 0.930 . S
H326 C298 0.930 . S
H327 C307 0.930 . S
H328 C319 0.929 . S
H329 C322 0.930 . S
C330 C331 1.351 . S
C330 N333 1.368 . S
C330 H335 0.931 . S
C331 C330 1.351 . S
C331 N332 1.373 . S
C331 H359 0.930 . S
N332 C331 1.373 . S
N332 C334 1.340 . S
N333 C330 1.368 . S
N333 C334 1.321 . S
N333 Co336 2.135 . S
C334 N332 1.340 . S
C334 N333 1.321 . S
C334 H358 0.930 . S
H335 C330 0.931 . S
Co336 N333 2.135 . S
Co336 N339 2.121 . S
Co336 O344 2.055 . S
Co336 O347 2.039 . S
Co336 N350 2.140 . S
C337 O338 1.227 . S
C337 O347 1.265 . S
O338 C337 1.227 . S
N339 Co336 2.121 . S
N339 C341 1.375 . S
N339 C342 1.313 . S
C340 C341 1.338 . S
C340 N343 1.377 . S
C340 H360 0.930 . S
C341 N339 1.375 . S
C341 C340 1.338 . S
C341 H345 0.931 . S
C342 N339 1.313 . S
C342 N343 1.344 . S
C342 H346 0.930 . S
N343 C340 1.377 . S
N343 C342 1.344 . S
O344 Co336 2.055 . S
O344 C348 1.253 . S
H345 C341 0.931 . S
H346 C342 0.930 . S
O347 Co336 2.039 . S
O347 C337 1.265 . S
C348 O344 1.253 . S
C348 O349 1.227 . S
O349 C348 1.227 . S
N350 Co336 2.140 . S
N350 C353 1.346 . S
N350 C354 1.345 . S
C351 C352 1.387 . S
C351 C355 1.391 . S
C352 C351 1.387 . S
C352 C353 1.369 . S
C352 H361 0.929 . S
C353 N350 1.346 . S
C353 C352 1.369 . S
C353 H356 0.928 . S
C354 N350 1.345 . S
C354 C355 1.371 . S
C354 H357 0.931 . S
C355 C351 1.391 . S
C355 C354 1.371 . S
C355 H362 0.930 . S
H356 C353 0.928 . S
H357 C354 0.931 . S
H358 C334 0.930 . S
H359 C331 0.930 . S
H360 C340 0.930 . S
H361 C352 0.929 . S
H362 C355 0.930 . S
C363 C364 1.351 . S
C363 N366 1.368 . S
C363 H368 0.931 . S
C364 C363 1.351 . S
C364 N365 1.373 . S
C364 H392 0.930 . S
N365 C364 1.373 . S
N365 C367 1.340 . S
N366 C363 1.368 . S
N366 C367 1.321 . S
N366 Co369 2.135 . S
C367 N365 1.340 . S
C367 N366 1.321 . S
C367 H391 0.930 . S
H368 C363 0.931 . S
Co369 N366 2.135 . S
Co369 N372 2.121 . S
Co369 O377 2.055 . S
Co369 O380 2.039 . S
Co369 N383 2.140 . S
C370 O371 1.227 . S
C370 O380 1.265 . S
O371 C370 1.227 . S
N372 Co369 2.121 . S
N372 C374 1.375 . S
N372 C375 1.313 . S
C373 C374 1.338 . S
C373 N376 1.377 . S
C373 H393 0.930 . S
C374 N372 1.375 . S
C374 C373 1.338 . S
C374 H378 0.931 . S
C375 N372 1.313 . S
C375 N376 1.344 . S
C375 H379 0.930 . S
N376 C373 1.377 . S
N376 C375 1.344 . S
O377 Co369 2.055 . S
O377 C381 1.253 . S
H378 C374 0.931 . S
H379 C375 0.930 . S
O380 Co369 2.039 . S
O380 C370 1.265 . S
C381 O377 1.253 . S
C381 O382 1.227 . S
O382 C381 1.227 . S
N383 Co369 2.140 . S
N383 C386 1.346 . S
N383 C387 1.345 . S
C384 C385 1.387 . S
C384 C388 1.391 . S
C385 C384 1.387 . S
C385 C386 1.369 . S
C385 H394 0.929 . S
C386 N383 1.346 . S
C386 C385 1.369 . S
C386 H389 0.928 . S
C387 N383 1.345 . S
C387 C388 1.371 . S
C387 H390 0.931 . S
C388 C384 1.391 . S
C388 C387 1.371 . S
C388 H395 0.930 . S
H389 C386 0.928 . S
H390 C387 0.931 . S
H391 C367 0.930 . S
H392 C364 0.930 . S
H393 C373 0.930 . S
H394 C385 0.929 . S
H395 C388 0.930 . S
C396 C397 1.351 . S
C396 N399 1.368 . S
C396 H401 0.931 . S
C397 C396 1.351 . S
C397 N398 1.373 . S
C397 H425 0.930 . S
N398 C397 1.373 . S
N398 C400 1.340 . S
N399 C396 1.368 . S
N399 C400 1.321 . S
N399 Co402 2.135 . S
C400 N398 1.340 . S
C400 N399 1.321 . S
C400 H424 0.930 . S
H401 C396 0.931 . S
Co402 N399 2.135 . S
Co402 N405 2.121 . S
Co402 O410 2.055 . S
Co402 O413 2.039 . S
Co402 N416 2.140 . S
C403 O404 1.227 . S
C403 O413 1.265 . S
O404 C403 1.227 . S
N405 Co402 2.121 . S
N405 C407 1.375 . S
N405 C408 1.313 . S
C406 C407 1.338 . S
C406 N409 1.377 . S
C406 H426 0.930 . S
C407 N405 1.375 . S
C407 C406 1.338 . S
C407 H411 0.931 . S
C408 N405 1.313 . S
C408 N409 1.344 . S
C408 H412 0.930 . S
N409 C406 1.377 . S
N409 C408 1.344 . S
O410 Co402 2.055 . S
O410 C414 1.253 . S
H411 C407 0.931 . S
H412 C408 0.930 . S
O413 Co402 2.039 . S
O413 C403 1.265 . S
C414 O410 1.253 . S
C414 O415 1.227 . S
O415 C414 1.227 . S
N416 Co402 2.140 . S
N416 C419 1.346 . S
N416 C420 1.345 . S
C417 C418 1.387 . S
C417 C421 1.391 . S
C418 C417 1.387 . S
C418 C419 1.369 . S
C418 H427 0.929 . S
C419 N416 1.346 . S
C419 C418 1.369 . S
C419 H422 0.928 . S
C420 N416 1.345 . S
C420 C421 1.371 . S
C420 H423 0.931 . S
C421 C417 1.391 . S
C421 C420 1.371 . S
C421 H428 0.930 . S
H422 C419 0.928 . S
H423 C420 0.931 . S
H424 C400 0.930 . S
H425 C397 0.930 . S
H426 C406 0.930 . S
H427 C418 0.929 . S
H428 C421 0.930 . S
C429 C430 1.351 . S
C429 N432 1.368 . S
C429 H434 0.931 . S
C430 C429 1.351 . S
C430 N431 1.373 . S
C430 H458 0.930 . S
N431 C430 1.373 . S
N431 C433 1.340 . S
N432 C429 1.368 . S
N432 C433 1.321 . S
N432 Co435 2.135 . S
C433 N431 1.340 . S
C433 N432 1.321 . S
C433 H457 0.930 . S
H434 C429 0.931 . S
Co435 N432 2.135 . S
Co435 N438 2.121 . S
Co435 O443 2.055 . S
Co435 O446 2.039 . S
Co435 N449 2.140 . S
C436 O437 1.227 . S
C436 O446 1.265 . S
O437 C436 1.227 . S
N438 Co435 2.121 . S
N438 C440 1.375 . S
N438 C441 1.313 . S
C439 C440 1.338 . S
C439 N442 1.377 . S
C439 H459 0.930 . S
C440 N438 1.375 . S
C440 C439 1.338 . S
C440 H444 0.931 . S
C441 N438 1.313 . S
C441 N442 1.344 . S
C441 H445 0.930 . S
N442 C439 1.377 . S
N442 C441 1.344 . S
O443 Co435 2.055 . S
O443 C447 1.253 . S
H444 C440 0.931 . S
H445 C441 0.930 . S
O446 Co435 2.039 . S
O446 C436 1.265 . S
C447 O443 1.253 . S
C447 O448 1.227 . S
O448 C447 1.227 . S
N449 Co435 2.140 . S
N449 C452 1.346 . S
N449 C453 1.345 . S
C450 C451 1.387 . S
C450 C454 1.391 . S
C451 C450 1.387 . S
C451 C452 1.369 . S
C451 H460 0.929 . S
C452 N449 1.346 . S
C452 C451 1.369 . S
C452 H455 0.928 . S
C453 N449 1.345 . S
C453 C454 1.371 . S
C453 H456 0.931 . S
C454 C450 1.391 . S
C454 C453 1.371 . S
C454 H461 0.930 . S
H455 C452 0.928 . S
H456 C453 0.931 . S
H457 C433 0.930 . S
H458 C430 0.930 . S
H459 C439 0.930 . S
H460 C451 0.929 . S
H461 C454 0.930 . S
C462 C463 1.351 . S
C462 N465 1.368 . S
C462 H467 0.931 . S
C463 C462 1.351 . S
C463 N464 1.373 . S
C463 H491 0.930 . S
N464 C463 1.373 . S
N464 C466 1.340 . S
N465 C462 1.368 . S
N465 C466 1.321 . S
N465 Co468 2.135 . S
C466 N464 1.340 . S
C466 N465 1.321 . S
C466 H490 0.930 . S
H467 C462 0.931 . S
Co468 N465 2.135 . S
Co468 N471 2.121 . S
Co468 O476 2.055 . S
Co468 O479 2.039 . S
Co468 N482 2.140 . S
C469 O470 1.227 . S
C469 O479 1.265 . S
O470 C469 1.227 . S
N471 Co468 2.121 . S
N471 C473 1.375 . S
N471 C474 1.313 . S
C472 C473 1.338 . S
C472 N475 1.377 . S
C472 H492 0.930 . S
C473 N471 1.375 . S
C473 C472 1.338 . S
C473 H477 0.931 . S
C474 N471 1.313 . S
C474 N475 1.344 . S
C474 H478 0.930 . S
N475 C472 1.377 . S
N475 C474 1.344 . S
O476 Co468 2.055 . S
O476 C480 1.253 . S
H477 C473 0.931 . S
H478 C474 0.930 . S
O479 Co468 2.039 . S
O479 C469 1.265 . S
C480 O476 1.253 . S
C480 O481 1.227 . S
O481 C480 1.227 . S
N482 Co468 2.140 . S
N482 C485 1.346 . S
N482 C486 1.345 . S
C483 C484 1.387 . S
C483 C487 1.391 . S
C484 C483 1.387 . S
C484 C485 1.369 . S
C484 H493 0.929 . S
C485 N482 1.346 . S
C485 C484 1.369 . S
C485 H488 0.928 . S
C486 N482 1.345 . S
C486 C487 1.371 . S
C486 H489 0.931 . S
C487 C483 1.391 . S
C487 C486 1.371 . S
C487 H494 0.930 . S
H488 C485 0.928 . S
H489 C486 0.931 . S
H490 C466 0.930 . S
H491 C463 0.930 . S
H492 C472 0.930 . S
H493 C484 0.929 . S
H494 C487 0.930 . S
C495 C496 1.351 . S
C495 N498 1.368 . S
C495 H500 0.931 . S
C496 C495 1.351 . S
C496 N497 1.373 . S
C496 H524 0.930 . S
N497 C496 1.373 . S
N497 C499 1.340 . S
N498 C495 1.368 . S
N498 C499 1.321 . S
N498 Co501 2.135 . S
C499 N497 1.340 . S
C499 N498 1.321 . S
C499 H523 0.930 . S
H500 C495 0.931 . S
Co501 N498 2.135 . S
Co501 N504 2.121 . S
Co501 O509 2.055 . S
Co501 O512 2.039 . S
Co501 N515 2.140 . S
C502 O503 1.227 . S
C502 O512 1.265 . S
O503 C502 1.227 . S
N504 Co501 2.121 . S
N504 C506 1.375 . S
N504 C507 1.313 . S
C505 C506 1.338 . S
C505 N508 1.377 . S
C505 H525 0.930 . S
C506 N504 1.375 . S
C506 C505 1.338 . S
C506 H510 0.931 . S
C507 N504 1.313 . S
C507 N508 1.344 . S
C507 H511 0.930 . S
N508 C505 1.377 . S
N508 C507 1.344 . S
O509 Co501 2.055 . S
O509 C513 1.253 . S
H510 C506 0.931 . S
H511 C507 0.930 . S
O512 Co501 2.039 . S
O512 C502 1.265 . S
C513 O509 1.253 . S
C513 O514 1.227 . S
O514 C513 1.227 . S
N515 Co501 2.140 . S
N515 C518 1.346 . S
N515 C519 1.345 . S
C516 C517 1.387 . S
C516 C520 1.391 . S
C517 C516 1.387 . S
C517 C518 1.369 . S
C517 H526 0.929 . S
C518 N515 1.346 . S
C518 C517 1.369 . S
C518 H521 0.928 . S
C519 N515 1.345 . S
C519 C520 1.371 . S
C519 H522 0.931 . S
C520 C516 1.391 . S
C520 C519 1.371 . S
C520 H527 0.930 . S
H521 C518 0.928 . S
H522 C519 0.931 . S
H523 C499 0.930 . S
H524 C496 0.930 . S
H525 C505 0.930 . S
H526 C517 0.929 . S
H527 C520 0.930 . S
C528 C529 1.351 . S
C528 N531 1.368 . S
C528 H533 0.931 . S
C529 C528 1.351 . S
C529 N530 1.373 . S
C529 H557 0.930 . S
N530 C529 1.373 . S
N530 C532 1.340 . S
N531 C528 1.368 . S
N531 C532 1.321 . S
N531 Co534 2.135 . S
C532 N530 1.340 . S
C532 N531 1.321 . S
C532 H556 0.930 . S
H533 C528 0.931 . S
Co534 N531 2.135 . S
Co534 N537 2.121 . S
Co534 O542 2.055 . S
Co534 O545 2.039 . S
Co534 N548 2.140 . S
C535 O536 1.227 . S
C535 O545 1.265 . S
O536 C535 1.227 . S
N537 Co534 2.121 . S
N537 C539 1.375 . S
N537 C540 1.313 . S
C538 C539 1.338 . S
C538 N541 1.377 . S
C538 H558 0.930 . S
C539 N537 1.375 . S
C539 C538 1.338 . S
C539 H543 0.931 . S
C540 N537 1.313 . S
C540 N541 1.344 . S
C540 H544 0.930 . S
N541 C538 1.377 . S
N541 C540 1.344 . S
O542 Co534 2.055 . S
O542 C546 1.253 . S
H543 C539 0.931 . S
H544 C540 0.930 . S
O545 Co534 2.039 . S
O545 C535 1.265 . S
C546 O542 1.253 . S
C546 O547 1.227 . S
O547 C546 1.227 . S
N548 Co534 2.140 . S
N548 C551 1.346 . S
N548 C552 1.345 . S
C549 C550 1.387 . S
C549 C553 1.391 . S
C550 C549 1.387 . S
C550 C551 1.369 . S
C550 H559 0.929 . S
C551 N548 1.346 . S
C551 C550 1.369 . S
C551 H554 0.928 . S
C552 N548 1.345 . S
C552 C553 1.371 . S
C552 H555 0.931 . S
C553 C549 1.391 . S
C553 C552 1.371 . S
C553 H560 0.930 . S
H554 C551 0.928 . S
H555 C552 0.931 . S
H556 C532 0.930 . S
H557 C529 0.930 . S
H558 C538 0.930 . S
H559 C550 0.929 . S
H560 C553 0.930 . S
C561 C562 1.351 . S
C561 N564 1.368 . S
C561 H566 0.931 . S
C562 C561 1.351 . S
C562 N563 1.373 . S
C562 H590 0.930 . S
N563 C562 1.373 . S
N563 C565 1.340 . S
N564 C561 1.368 . S
N564 C565 1.321 . S
N564 Co567 2.135 . S
C565 N563 1.340 . S
C565 N564 1.321 . S
C565 H589 0.930 . S
H566 C561 0.931 . S
Co567 N564 2.135 . S
Co567 N570 2.121 . S
Co567 O575 2.055 . S
Co567 O578 2.039 . S
Co567 N581 2.140 . S
C568 O569 1.227 . S
C568 O578 1.265 . S
O569 C568 1.227 . S
N570 Co567 2.121 . S
N570 C572 1.375 . S
N570 C573 1.313 . S
C571 C572 1.338 . S
C571 N574 1.377 . S
C571 H591 0.930 . S
C572 N570 1.375 . S
C572 C571 1.338 . S
C572 H576 0.931 . S
C573 N570 1.313 . S
C573 N574 1.344 . S
C573 H577 0.930 . S
N574 C571 1.377 . S
N574 C573 1.344 . S
O575 Co567 2.055 . S
O575 C579 1.253 . S
H576 C572 0.931 . S
H577 C573 0.930 . S
O578 Co567 2.039 . S
O578 C568 1.265 . S
C579 O575 1.253 . S
C579 O580 1.227 . S
O580 C579 1.227 . S
N581 Co567 2.140 . S
N581 C584 1.346 . S
N581 C585 1.345 . S
C582 C583 1.387 . S
C582 C586 1.391 . S
C583 C582 1.387 . S
C583 C584 1.369 . S
C583 H592 0.929 . S
C584 N581 1.346 . S
C584 C583 1.369 . S
C584 H587 0.928 . S
C585 N581 1.345 . S
C585 C586 1.371 . S
C585 H588 0.931 . S
C586 C582 1.391 . S
C586 C585 1.371 . S
C586 H593 0.930 . S
H587 C584 0.928 . S
H588 C585 0.931 . S
H589 C565 0.930 . S
H590 C562 0.930 . S
H591 C571 0.930 . S
H592 C583 0.929 . S
H593 C586 0.930 . S
C594 C595 1.351 . S
C594 N597 1.368 . S
C594 H599 0.931 . S
C595 C594 1.351 . S
C595 N596 1.373 . S
C595 H623 0.930 . S
N596 C595 1.373 . S
N596 C598 1.340 . S
N597 C594 1.368 . S
N597 C598 1.321 . S
N597 Co600 2.135 . S
C598 N596 1.340 . S
C598 N597 1.321 . S
C598 H622 0.930 . S
H599 C594 0.931 . S
Co600 N597 2.135 . S
Co600 N603 2.121 . S
Co600 O608 2.055 . S
Co600 O611 2.039 . S
Co600 N614 2.140 . S
C601 O602 1.227 . S
C601 O611 1.265 . S
O602 C601 1.227 . S
N603 Co600 2.121 . S
N603 C605 1.375 . S
N603 C606 1.313 . S
C604 C605 1.338 . S
C604 N607 1.377 . S
C604 H624 0.930 . S
C605 N603 1.375 . S
C605 C604 1.338 . S
C605 H609 0.931 . S
C606 N603 1.313 . S
C606 N607 1.344 . S
C606 H610 0.930 . S
N607 C604 1.377 . S
N607 C606 1.344 . S
O608 Co600 2.055 . S
O608 C612 1.253 . S
H609 C605 0.931 . S
H610 C606 0.930 . S
O611 Co600 2.039 . S
O611 C601 1.265 . S
C612 O608 1.253 . S
C612 O613 1.227 . S
O613 C612 1.227 . S
N614 Co600 2.140 . S
N614 C617 1.346 . S
N614 C618 1.345 . S
C615 C616 1.387 . S
C615 C619 1.391 . S
C616 C615 1.387 . S
C616 C617 1.369 . S
C616 H625 0.929 . S
C617 N614 1.346 . S
C617 C616 1.369 . S
C617 H620 0.928 . S
C618 N614 1.345 . S
C618 C619 1.371 . S
C618 H621 0.931 . S
C619 C615 1.391 . S
C619 C618 1.371 . S
C619 H626 0.930 . S
H620 C617 0.928 . S
H621 C618 0.931 . S
H622 C598 0.930 . S
H623 C595 0.930 . S
H624 C604 0.930 . S
H625 C616 0.929 . S
H626 C619 0.930 . S
C627 C628 1.351 . S
C627 N630 1.368 . S
C627 H632 0.931 . S
C628 C627 1.351 . S
C628 N629 1.373 . S
C628 H656 0.930 . S
N629 C628 1.373 . S
N629 C631 1.340 . S
N630 C627 1.368 . S
N630 C631 1.321 . S
N630 Co633 2.135 . S
C631 N629 1.340 . S
C631 N630 1.321 . S
C631 H655 0.930 . S
H632 C627 0.931 . S
Co633 N630 2.135 . S
Co633 N636 2.121 . S
Co633 O641 2.055 . S
Co633 O644 2.039 . S
Co633 N647 2.140 . S
C634 O635 1.227 . S
C634 O644 1.265 . S
O635 C634 1.227 . S
N636 Co633 2.121 . S
N636 C638 1.375 . S
N636 C639 1.313 . S
C637 C638 1.338 . S
C637 N640 1.377 . S
C637 H657 0.930 . S
C638 N636 1.375 . S
C638 C637 1.338 . S
C638 H642 0.931 . S
C639 N636 1.313 . S
C639 N640 1.344 . S
C639 H643 0.930 . S
N640 C637 1.377 . S
N640 C639 1.344 . S
O641 Co633 2.055 . S
O641 C645 1.253 . S
H642 C638 0.931 . S
H643 C639 0.930 . S
O644 Co633 2.039 . S
O644 C634 1.265 . S
C645 O641 1.253 . S
C645 O646 1.227 . S
O646 C645 1.227 . S
N647 Co633 2.140 . S
N647 C650 1.346 . S
N647 C651 1.345 . S
C648 C649 1.387 . S
C648 C652 1.391 . S
C649 C648 1.387 . S
C649 C650 1.369 . S
C649 H658 0.929 . S
C650 N647 1.346 . S
C650 C649 1.369 . S
C650 H653 0.928 . S
C651 N647 1.345 . S
C651 C652 1.371 . S
C651 H654 0.931 . S
C652 C648 1.391 . S
C652 C651 1.371 . S
C652 H659 0.930 . S
H653 C650 0.928 . S
H654 C651 0.931 . S
H655 C631 0.930 . S
H656 C628 0.930 . S
H657 C637 0.930 . S
H658 C649 0.929 . S
H659 C652 0.930 . S
C660 C661 1.351 . S
C660 N663 1.368 . S
C660 H665 0.931 . S
C661 C660 1.351 . S
C661 N662 1.373 . S
C661 H689 0.930 . S
N662 C661 1.373 . S
N662 C664 1.340 . S
N663 C660 1.368 . S
N663 C664 1.321 . S
N663 Co666 2.135 . S
C664 N662 1.340 . S
C664 N663 1.321 . S
C664 H688 0.930 . S
H665 C660 0.931 . S
Co666 N663 2.135 . S
Co666 N669 2.121 . S
Co666 O674 2.055 . S
Co666 O677 2.039 . S
Co666 N680 2.140 . S
C667 O668 1.227 . S
C667 O677 1.265 . S
O668 C667 1.227 . S
N669 Co666 2.121 . S
N669 C671 1.375 . S
N669 C672 1.313 . S
C670 C671 1.338 . S
C670 N673 1.377 . S
C670 H690 0.930 . S
C671 N669 1.375 . S
C671 C670 1.338 . S
C671 H675 0.931 . S
C672 N669 1.313 . S
C672 N673 1.344 . S
C672 H676 0.930 . S
N673 C670 1.377 . S
N673 C672 1.344 . S
O674 Co666 2.055 . S
O674 C678 1.253 . S
H675 C671 0.931 . S
H676 C672 0.930 . S
O677 Co666 2.039 . S
O677 C667 1.265 . S
C678 O674 1.253 . S
C678 O679 1.227 . S
O679 C678 1.227 . S
N680 Co666 2.140 . S
N680 C683 1.346 . S
N680 C684 1.345 . S
C681 C682 1.387 . S
C681 C685 1.391 . S
C682 C681 1.387 . S
C682 C683 1.369 . S
C682 H691 0.929 . S
C683 N680 1.346 . S
C683 C682 1.369 . S
C683 H686 0.928 . S
C684 N680 1.345 . S
C684 C685 1.371 . S
C684 H687 0.931 . S
C685 C681 1.391 . S
C685 C684 1.371 . S
C685 H692 0.930 . S
H686 C683 0.928 . S
H687 C684 0.931 . S
H688 C664 0.930 . S
H689 C661 0.930 . S
H690 C670 0.930 . S
H691 C682 0.929 . S
H692 C685 0.930 . S
C693 C694 1.351 . S
C693 N696 1.368 . S
C693 H698 0.931 . S
C694 C693 1.351 . S
C694 N695 1.373 . S
C694 H722 0.930 . S
N695 C694 1.373 . S
N695 C697 1.340 . S
N696 C693 1.368 . S
N696 C697 1.321 . S
N696 Co699 2.135 . S
C697 N695 1.340 . S
C697 N696 1.321 . S
C697 H721 0.930 . S
H698 C693 0.931 . S
Co699 N696 2.135 . S
Co699 N702 2.121 . S
Co699 O707 2.055 . S
Co699 O710 2.039 . S
Co699 N713 2.140 . S
C700 O701 1.227 . S
C700 O710 1.265 . S
O701 C700 1.227 . S
N702 Co699 2.121 . S
N702 C704 1.375 . S
N702 C705 1.313 . S
C703 C704 1.338 . S
C703 N706 1.377 . S
C703 H723 0.930 . S
C704 N702 1.375 . S
C704 C703 1.338 . S
C704 H708 0.931 . S
C705 N702 1.313 . S
C705 N706 1.344 . S
C705 H709 0.930 . S
N706 C703 1.377 . S
N706 C705 1.344 . S
O707 Co699 2.055 . S
O707 C711 1.253 . S
H708 C704 0.931 . S
H709 C705 0.930 . S
O710 Co699 2.039 . S
O710 C700 1.265 . S
C711 O707 1.253 . S
C711 O712 1.227 . S
O712 C711 1.227 . S
N713 Co699 2.140 . S
N713 C716 1.346 . S
N713 C717 1.345 . S
C714 C715 1.387 . S
C714 C718 1.391 . S
C715 C714 1.387 . S
C715 C716 1.369 . S
C715 H724 0.929 . S
C716 N713 1.346 . S
C716 C715 1.369 . S
C716 H719 0.928 . S
C717 N713 1.345 . S
C717 C718 1.371 . S
C717 H720 0.931 . S
C718 C714 1.391 . S
C718 C717 1.371 . S
C718 H725 0.930 . S
H719 C716 0.928 . S
H720 C717 0.931 . S
H721 C697 0.930 . S
H722 C694 0.930 . S
H723 C703 0.930 . S
H724 C715 0.929 . S
H725 C718 0.930 . S
C726 C727 1.351 . S
C726 N729 1.368 . S
C726 H731 0.931 . S
C727 C726 1.351 . S
C727 N728 1.373 . S
C727 H755 0.930 . S
N728 C727 1.373 . S
N728 C730 1.340 . S
N729 C726 1.368 . S
N729 C730 1.321 . S
N729 Co732 2.135 . S
C730 N728 1.340 . S
C730 N729 1.321 . S
C730 H754 0.930 . S
H731 C726 0.931 . S
Co732 N729 2.135 . S
Co732 N735 2.121 . S
Co732 O740 2.055 . S
Co732 O743 2.039 . S
Co732 N746 2.140 . S
C733 O734 1.227 . S
C733 O743 1.265 . S
O734 C733 1.227 . S
N735 Co732 2.121 . S
N735 C737 1.375 . S
N735 C738 1.313 . S
C736 C737 1.338 . S
C736 N739 1.377 . S
C736 H756 0.930 . S
C737 N735 1.375 . S
C737 C736 1.338 . S
C737 H741 0.931 . S
C738 N735 1.313 . S
C738 N739 1.344 . S
C738 H742 0.930 . S
N739 C736 1.377 . S
N739 C738 1.344 . S
O740 Co732 2.055 . S
O740 C744 1.253 . S
H741 C737 0.931 . S
H742 C738 0.930 . S
O743 Co732 2.039 . S
O743 C733 1.265 . S
C744 O740 1.253 . S
C744 O745 1.227 . S
O745 C744 1.227 . S
N746 Co732 2.140 . S
N746 C749 1.346 . S
N746 C750 1.345 . S
C747 C748 1.387 . S
C747 C751 1.391 . S
C748 C747 1.387 . S
C748 C749 1.369 . S
C748 H757 0.929 . S
C749 N746 1.346 . S
C749 C748 1.369 . S
C749 H752 0.928 . S
C750 N746 1.345 . S
C750 C751 1.371 . S
C750 H753 0.931 . S
C751 C747 1.391 . S
C751 C750 1.371 . S
C751 H758 0.930 . S
H752 C749 0.928 . S
H753 C750 0.931 . S
H754 C730 0.930 . S
H755 C727 0.930 . S
H756 C736 0.930 . S
H757 C748 0.929 . S
H758 C751 0.930 . S
C759 C760 1.351 . S
C759 N762 1.368 . S
C759 H764 0.931 . S
C760 C759 1.351 . S
C760 N761 1.373 . S
C760 H788 0.930 . S
N761 C760 1.373 . S
N761 C763 1.340 . S
N762 C759 1.368 . S
N762 C763 1.321 . S
N762 Co765 2.135 . S
C763 N761 1.340 . S
C763 N762 1.321 . S
C763 H787 0.930 . S
H764 C759 0.931 . S
Co765 N762 2.135 . S
Co765 N768 2.121 . S
Co765 O773 2.055 . S
Co765 O776 2.039 . S
Co765 N779 2.140 . S
C766 O767 1.227 . S
C766 O776 1.265 . S
O767 C766 1.227 . S
N768 Co765 2.121 . S
N768 C770 1.375 . S
N768 C771 1.313 . S
C769 C770 1.338 . S
C769 N772 1.377 . S
C769 H789 0.930 . S
C770 N768 1.375 . S
C770 C769 1.338 . S
C770 H774 0.931 . S
C771 N768 1.313 . S
C771 N772 1.344 . S
C771 H775 0.930 . S
N772 C769 1.377 . S
N772 C771 1.344 . S
O773 Co765 2.055 . S
O773 C777 1.253 . S
H774 C770 0.931 . S
H775 C771 0.930 . S
O776 Co765 2.039 . S
O776 C766 1.265 . S
C777 O773 1.253 . S
C777 O778 1.227 . S
O778 C777 1.227 . S
N779 Co765 2.140 . S
N779 C782 1.346 . S
N779 C783 1.345 . S
C780 C781 1.387 . S
C780 C784 1.391 . S
C781 C780 1.387 . S
C781 C782 1.369 . S
C781 H790 0.929 . S
C782 N779 1.346 . S
C782 C781 1.369 . S
C782 H785 0.928 . S
C783 N779 1.345 . S
C783 C784 1.371 . S
C783 H786 0.931 . S
C784 C780 1.391 . S
C784 C783 1.371 . S
C784 H791 0.930 . S
H785 C782 0.928 . S
H786 C783 0.931 . S
H787 C763 0.930 . S
H788 C760 0.930 . S
H789 C769 0.930 . S
H790 C781 0.929 . S
H791 C784 0.930 . S
C792 C793 1.351 . S
C792 N795 1.368 . S
C792 H797 0.931 . S
C793 C792 1.351 . S
C793 N794 1.373 . S
C793 H821 0.930 . S
N794 C793 1.373 . S
N794 C796 1.340 . S
N795 C792 1.368 . S
N795 C796 1.321 . S
N795 Co798 2.135 . S
C796 N794 1.340 . S
C796 N795 1.321 . S
C796 H820 0.930 . S
H797 C792 0.931 . S
Co798 N795 2.135 . S
Co798 N801 2.121 . S
Co798 O806 2.055 . S
Co798 O809 2.039 . S
Co798 N812 2.140 . S
C799 O800 1.227 . S
C799 O809 1.265 . S
O800 C799 1.227 . S
N801 Co798 2.121 . S
N801 C803 1.375 . S
N801 C804 1.313 . S
C802 C803 1.338 . S
C802 N805 1.377 . S
C802 H822 0.930 . S
C803 N801 1.375 . S
C803 C802 1.338 . S
C803 H807 0.931 . S
C804 N801 1.313 . S
C804 N805 1.344 . S
C804 H808 0.930 . S
N805 C802 1.377 . S
N805 C804 1.344 . S
O806 Co798 2.055 . S
O806 C810 1.253 . S
H807 C803 0.931 . S
H808 C804 0.930 . S
O809 Co798 2.039 . S
O809 C799 1.265 . S
C810 O806 1.253 . S
C810 O811 1.227 . S
O811 C810 1.227 . S
N812 Co798 2.140 . S
N812 C815 1.346 . S
N812 C816 1.345 . S
C813 C814 1.387 . S
C813 C817 1.391 . S
C814 C813 1.387 . S
C814 C815 1.369 . S
C814 H823 0.929 . S
C815 N812 1.346 . S
C815 C814 1.369 . S
C815 H818 0.928 . S
C816 N812 1.345 . S
C816 C817 1.371 . S
C816 H819 0.931 . S
C817 C813 1.391 . S
C817 C816 1.371 . S
C817 H824 0.930 . S
H818 C815 0.928 . S
H819 C816 0.931 . S
H820 C796 0.930 . S
H821 C793 0.930 . S
H822 C802 0.930 . S
H823 C814 0.929 . S
H824 C817 0.930 . S
C825 C826 1.351 . S
C825 N828 1.368 . S
C825 H830 0.931 . S
C826 C825 1.351 . S
C826 N827 1.373 . S
C826 H854 0.930 . S
N827 C826 1.373 . S
N827 C829 1.340 . S
N828 C825 1.368 . S
N828 C829 1.321 . S
N828 Co831 2.135 . S
C829 N827 1.340 . S
C829 N828 1.321 . S
C829 H853 0.930 . S
H830 C825 0.931 . S
Co831 N828 2.135 . S
Co831 N834 2.121 . S
Co831 O839 2.055 . S
Co831 O842 2.039 . S
Co831 N845 2.140 . S
C832 O833 1.227 . S
C832 O842 1.265 . S
O833 C832 1.227 . S
N834 Co831 2.121 . S
N834 C836 1.375 . S
N834 C837 1.313 . S
C835 C836 1.338 . S
C835 N838 1.377 . S
C835 H855 0.930 . S
C836 N834 1.375 . S
C836 C835 1.338 . S
C836 H840 0.931 . S
C837 N834 1.313 . S
C837 N838 1.344 . S
C837 H841 0.930 . S
N838 C835 1.377 . S
N838 C837 1.344 . S
O839 Co831 2.055 . S
O839 C843 1.253 . S
H840 C836 0.931 . S
H841 C837 0.930 . S
O842 Co831 2.039 . S
O842 C832 1.265 . S
C843 O839 1.253 . S
C843 O844 1.227 . S
O844 C843 1.227 . S
N845 Co831 2.140 . S
N845 C848 1.346 . S
N845 C849 1.345 . S
C846 C847 1.387 . S
C846 C850 1.391 . S
C847 C846 1.387 . S
C847 C848 1.369 . S
C847 H856 0.929 . S
C848 N845 1.346 . S
C848 C847 1.369 . S
C848 H851 0.928 . S
C849 N845 1.345 . S
C849 C850 1.371 . S
C849 H852 0.931 . S
C850 C846 1.391 . S
C850 C849 1.371 . S
C850 H857 0.930 . S
H851 C848 0.928 . S
H852 C849 0.931 . S
H853 C829 0.930 . S
H854 C826 0.930 . S
H855 C835 0.930 . S
H856 C847 0.929 . S
H857 C850 0.930 . S
C858 C859 1.351 . S
C858 N861 1.368 . S
C858 H863 0.931 . S
C859 C858 1.351 . S
C859 N860 1.373 . S
C859 H887 0.930 . S
N860 C859 1.373 . S
N860 C862 1.340 . S
N861 C858 1.368 . S
N861 C862 1.321 . S
N861 Co864 2.135 . S
C862 N860 1.340 . S
C862 N861 1.321 . S
C862 H886 0.930 . S
H863 C858 0.931 . S
Co864 N861 2.135 . S
Co864 N867 2.121 . S
Co864 O872 2.055 . S
Co864 O875 2.039 . S
Co864 N878 2.140 . S
C865 O866 1.227 . S
C865 O875 1.265 . S
O866 C865 1.227 . S
N867 Co864 2.121 . S
N867 C869 1.375 . S
N867 C870 1.313 . S
C868 C869 1.338 . S
C868 N871 1.377 . S
C868 H888 0.930 . S
C869 N867 1.375 . S
C869 C868 1.338 . S
C869 H873 0.931 . S
C870 N867 1.313 . S
C870 N871 1.344 . S
C870 H874 0.930 . S
N871 C868 1.377 . S
N871 C870 1.344 . S
O872 Co864 2.055 . S
O872 C876 1.253 . S
H873 C869 0.931 . S
H874 C870 0.930 . S
O875 Co864 2.039 . S
O875 C865 1.265 . S
C876 O872 1.253 . S
C876 O877 1.227 . S
O877 C876 1.227 . S
N878 Co864 2.140 . S
N878 C881 1.346 . S
N878 C882 1.345 . S
C879 C880 1.387 . S
C879 C883 1.391 . S
C880 C879 1.387 . S
C880 C881 1.369 . S
C880 H889 0.929 . S
C881 N878 1.346 . S
C881 C880 1.369 . S
C881 H884 0.928 . S
C882 N878 1.345 . S
C882 C883 1.371 . S
C882 H885 0.931 . S
C883 C879 1.391 . S
C883 C882 1.371 . S
C883 H890 0.930 . S
H884 C881 0.928 . S
H885 C882 0.931 . S
H886 C862 0.930 . S
H887 C859 0.930 . S
H888 C868 0.930 . S
H889 C880 0.929 . S
H890 C883 0.930 . S
C891 C892 1.351 . S
C891 N894 1.368 . S
C891 H896 0.931 . S
C892 C891 1.351 . S
C892 N893 1.373 . S
C892 H920 0.930 . S
N893 C892 1.373 . S
N893 C895 1.340 . S
N894 C891 1.368 . S
N894 C895 1.321 . S
N894 Co897 2.135 . S
C895 N893 1.340 . S
C895 N894 1.321 . S
C895 H919 0.930 . S
H896 C891 0.931 . S
Co897 N894 2.135 . S
Co897 N900 2.121 . S
Co897 O905 2.055 . S
Co897 O908 2.039 . S
Co897 N911 2.140 . S
C898 O899 1.227 . S
C898 O908 1.265 . S
O899 C898 1.227 . S
N900 Co897 2.121 . S
N900 C902 1.375 . S
N900 C903 1.313 . S
C901 C902 1.338 . S
C901 N904 1.377 . S
C901 H921 0.930 . S
C902 N900 1.375 . S
C902 C901 1.338 . S
C902 H906 0.931 . S
C903 N900 1.313 . S
C903 N904 1.344 . S
C903 H907 0.930 . S
N904 C901 1.377 . S
N904 C903 1.344 . S
O905 Co897 2.055 . S
O905 C909 1.253 . S
H906 C902 0.931 . S
H907 C903 0.930 . S
O908 Co897 2.039 . S
O908 C898 1.265 . S
C909 O905 1.253 . S
C909 O910 1.227 . S
O910 C909 1.227 . S
N911 Co897 2.140 . S
N911 C914 1.346 . S
N911 C915 1.345 . S
C912 C913 1.387 . S
C912 C916 1.391 . S
C913 C912 1.387 . S
C913 C914 1.369 . S
C913 H922 0.929 . S
C914 N911 1.346 . S
C914 C913 1.369 . S
C914 H917 0.928 . S
C915 N911 1.345 . S
C915 C916 1.371 . S
C915 H918 0.931 . S
C916 C912 1.391 . S
C916 C915 1.371 . S
C916 H923 0.930 . S
H917 C914 0.928 . S
H918 C915 0.931 . S
H919 C895 0.930 . S
H920 C892 0.930 . S
H921 C901 0.930 . S
H922 C913 0.929 . S
H923 C916 0.930 . S
C924 C925 1.351 . S
C924 N927 1.368 . S
C924 H929 0.931 . S
C925 C924 1.351 . S
C925 N926 1.373 . S
C925 H953 0.930 . S
N926 C925 1.373 . S
N926 C928 1.340 . S
N927 C924 1.368 . S
N927 C928 1.321 . S
N927 Co930 2.135 . S
C928 N926 1.340 . S
C928 N927 1.321 . S
C928 H952 0.930 . S
H929 C924 0.931 . S
Co930 N927 2.135 . S
Co930 N933 2.121 . S
Co930 O938 2.055 . S
Co930 O941 2.039 . S
Co930 N944 2.140 . S
C931 O932 1.227 . S
C931 O941 1.265 . S
O932 C931 1.227 . S
N933 Co930 2.121 . S
N933 C935 1.375 . S
N933 C936 1.313 . S
C934 C935 1.338 . S
C934 N937 1.377 . S
C934 H954 0.930 . S
C935 N933 1.375 . S
C935 C934 1.338 . S
C935 H939 0.931 . S
C936 N933 1.313 . S
C936 N937 1.344 . S
C936 H940 0.930 . S
N937 C934 1.377 . S
N937 C936 1.344 . S
O938 Co930 2.055 . S
O938 C942 1.253 . S
H939 C935 0.931 . S
H940 C936 0.930 . S
O941 Co930 2.039 . S
O941 C931 1.265 . S
C942 O938 1.253 . S
C942 O943 1.227 . S
O943 C942 1.227 . S
N944 Co930 2.140 . S
N944 C947 1.346 . S
N944 C948 1.345 . S
C945 C946 1.387 . S
C945 C949 1.391 . S
C946 C945 1.387 . S
C946 C947 1.369 . S
C946 H955 0.929 . S
C947 N944 1.346 . S
C947 C946 1.369 . S
C947 H950 0.928 . S
C948 N944 1.345 . S
C948 C949 1.371 . S
C948 H951 0.931 . S
C949 C945 1.391 . S
C949 C948 1.371 . S
C949 H956 0.930 . S
H950 C947 0.928 . S
H951 C948 0.931 . S
H952 C928 0.930 . S
H953 C925 0.930 . S
H954 C934 0.930 . S
H955 C946 0.929 . S
H956 C949 0.930 . S
C957 C958 1.351 . S
C957 N960 1.368 . S
C957 H962 0.931 . S
C958 C957 1.351 . S
C958 N959 1.373 . S
C958 H986 0.930 . S
N959 C958 1.373 . S
N959 C961 1.340 . S
N960 C957 1.368 . S
N960 C961 1.321 . S
N960 Co963 2.135 . S
C961 N959 1.340 . S
C961 N960 1.321 . S
C961 H985 0.930 . S
H962 C957 0.931 . S
Co963 N960 2.135 . S
Co963 N966 2.121 . S
Co963 O971 2.055 . S
Co963 O974 2.039 . S
Co963 N977 2.140 . S
C964 O965 1.227 . S
C964 O974 1.265 . S
O965 C964 1.227 . S
N966 Co963 2.121 . S
N966 C968 1.375 . S
N966 C969 1.313 . S
C967 C968 1.338 . S
C967 N970 1.377 . S
C967 H987 0.930 . S
C968 N966 1.375 . S
C968 C967 1.338 . S
C968 H972 0.931 . S
C969 N966 1.313 . S
C969 N970 1.344 . S
C969 H973 0.930 . S
N970 C967 1.377 . S
N970 C969 1.344 . S
O971 Co963 2.055 . S
O971 C975 1.253 . S
H972 C968 0.931 . S
H973 C969 0.930 . S
O974 Co963 2.039 . S
O974 C964 1.265 . S
C975 O971 1.253 . S
C975 O976 1.227 . S
O976 C975 1.227 . S
N977 Co963 2.140 . S
N977 C980 1.346 . S
N977 C981 1.345 . S
C978 C979 1.387 . S
C978 C982 1.391 . S
C979 C978 1.387 . S
C979 C980 1.369 . S
C979 H988 0.929 . S
C980 N977 1.346 . S
C980 C979 1.369 . S
C980 H983 0.928 . S
C981 N977 1.345 . S
C981 C982 1.371 . S
C981 H984 0.931 . S
C982 C978 1.391 . S
C982 C981 1.371 . S
C982 H989 0.930 . S
H983 C980 0.928 . S
H984 C981 0.931 . S
H985 C961 0.930 . S
H986 C958 0.930 . S
H987 C967 0.930 . S
H988 C979 0.929 . S
H989 C982 0.930 . S
C990 C991 1.351 . S
C990 N993 1.368 . S
C990 H995 0.931 . S
C991 C990 1.351 . S
C991 N992 1.373 . S
C991 H1019 0.930 . S
N992 C991 1.373 . S
N992 C994 1.340 . S
N993 C990 1.368 . S
N993 C994 1.321 . S
N993 Co996 2.135 . S
C994 N992 1.340 . S
C994 N993 1.321 . S
C994 H1018 0.930 . S
H995 C990 0.931 . S
Co996 N993 2.135 . S
Co996 N999 2.121 . S
Co996 O1004 2.055 . S
Co996 O1007 2.039 . S
Co996 N1010 2.140 . S
C997 O998 1.227 . S
C997 O1007 1.265 . S
O998 C997 1.227 . S
N999 Co996 2.121 . S
N999 C1001 1.375 . S
N999 C1002 1.313 . S
C1000 C1001 1.338 . S
C1000 N1003 1.377 . S
C1000 H1020 0.930 . S
C1001 N999 1.375 . S
C1001 C1000 1.338 . S
C1001 H1005 0.931 . S
C1002 N999 1.313 . S
C1002 N1003 1.344 . S
C1002 H1006 0.930 . S
N1003 C1000 1.377 . S
N1003 C1002 1.344 . S
O1004 Co996 2.055 . S
O1004 C1008 1.253 . S
H1005 C1001 0.931 . S
H1006 C1002 0.930 . S
O1007 Co996 2.039 . S
O1007 C997 1.265 . S
C1008 O1004 1.253 . S
C1008 O1009 1.227 . S
O1009 C1008 1.227 . S
N1010 Co996 2.140 . S
N1010 C1013 1.346 . S
N1010 C1014 1.345 . S
C1011 C1012 1.387 . S
C1011 C1015 1.391 . S
C1012 C1011 1.387 . S
C1012 C1013 1.369 . S
C1012 H1021 0.929 . S
C1013 N1010 1.346 . S
C1013 C1012 1.369 . S
C1013 H1016 0.928 . S
C1014 N1010 1.345 . S
C1014 C1015 1.371 . S
C1014 H1017 0.931 . S
C1015 C1011 1.391 . S
C1015 C1014 1.371 . S
C1015 H1022 0.930 . S
H1016 C1013 0.928 . S
H1017 C1014 0.931 . S
H1018 C994 0.930 . S
H1019 C991 0.930 . S
H1020 C1000 0.930 . S
H1021 C1012 0.929 . S
H1022 C1015 0.930 . S
C1023 C1024 1.351 . S
C1023 N1026 1.368 . S
C1023 H1028 0.931 . S
C1024 C1023 1.351 . S
C1024 N1025 1.373 . S
C1024 H1052 0.930 . S
N1025 C1024 1.373 . S
N1025 C1027 1.340 . S
N1026 C1023 1.368 . S
N1026 C1027 1.321 . S
N1026 Co1029 2.135 . S
C1027 N1025 1.340 . S
C1027 N1026 1.321 . S
C1027 H1051 0.930 . S
H1028 C1023 0.931 . S
Co1029 N1026 2.135 . S
Co1029 N1032 2.121 . S
Co1029 O1037 2.055 . S
Co1029 O1040 2.039 . S
Co1029 N1043 2.140 . S
C1030 O1031 1.227 . S
C1030 O1040 1.265 . S
O1031 C1030 1.227 . S
N1032 Co1029 2.121 . S
N1032 C1034 1.375 . S
N1032 C1035 1.313 . S
C1033 C1034 1.338 . S
C1033 N1036 1.377 . S
C1033 H1053 0.930 . S
C1034 N1032 1.375 . S
C1034 C1033 1.338 . S
C1034 H1038 0.931 . S
C1035 N1032 1.313 . S
C1035 N1036 1.344 . S
C1035 H1039 0.930 . S
N1036 C1033 1.377 . S
N1036 C1035 1.344 . S
O1037 Co1029 2.055 . S
O1037 C1041 1.253 . S
H1038 C1034 0.931 . S
H1039 C1035 0.930 . S
O1040 Co1029 2.039 . S
O1040 C1030 1.265 . S
C1041 O1037 1.253 . S
C1041 O1042 1.227 . S
O1042 C1041 1.227 . S
N1043 Co1029 2.140 . S
N1043 C1046 1.346 . S
N1043 C1047 1.345 . S
C1044 C1045 1.387 . S
C1044 C1048 1.391 . S
C1045 C1044 1.387 . S
C1045 C1046 1.369 . S
C1045 H1054 0.929 . S
C1046 N1043 1.346 . S
C1046 C1045 1.369 . S
C1046 H1049 0.928 . S
C1047 N1043 1.345 . S
C1047 C1048 1.371 . S
C1047 H1050 0.931 . S
C1048 C1044 1.391 . S
C1048 C1047 1.371 . S
C1048 H1055 0.930 . S
H1049 C1046 0.928 . S
H1050 C1047 0.931 . S
H1051 C1027 0.930 . S
H1052 C1024 0.930 . S
H1053 C1033 0.930 . S
H1054 C1045 0.929 . S
H1055 C1048 0.930 . S
H1056 C1062 0.930 . S
H1057 C1066 0.930 . S
H1058 C1071 0.929 . S
H1059 C1069 0.929 . S
H1060 C1064 0.929 . S
H1061 C1070 0.929 . S
C1062 H1056 0.930 . S
C1062 C1063 1.367 . S
C1062 C1070 1.378 . S
C1063 C1062 1.367 . S
C1063 C1071 1.433 . S
C1064 H1060 0.929 . S
C1064 C1066 1.378 . S
C1064 C1068 1.350 . S
C1065 C1068 1.463 . S
C1065 C1070 1.350 . S
C1065 N1073 1.427 . S
C1066 H1057 0.930 . S
C1066 C1064 1.378 . S
C1066 C1067 1.367 . S
C1067 C1066 1.367 . S
C1067 C1069 1.433 . S
C1068 C1064 1.350 . S
C1068 C1065 1.463 . S
C1068 N1072 1.427 . S
C1069 H1059 0.929 . S
C1069 C1067 1.433 . S
C1069 N1072 1.384 . S
C1070 H1061 0.929 . S
C1070 C1062 1.378 . S
C1070 C1065 1.350 . S
C1071 H1058 0.929 . S
C1071 C1063 1.433 . S
C1071 N1073 1.384 . S
N1072 C1068 1.427 . S
N1072 C1069 1.384 . S
N1073 C1065 1.427 . S
N1073 C1071 1.384 . S
H1074 C1080 0.930 . S
H1075 C1084 0.930 . S
H1076 C1089 0.929 1_545 S
H1077 C1087 0.929 1_565 S
H1078 C1082 0.929 . S
H1079 C1088 0.929 . S
C1080 H1074 0.930 . S
C1080 C1081 1.367 . S
C1080 C1088 1.378 . S
C1081 C1080 1.367 . S
C1081 C1089 1.433 . S
C1082 H1078 0.929 . S
C1082 C1084 1.378 . S
C1082 C1086 1.350 . S
C1083 C1086 1.463 1_665 S
C1083 C1088 1.350 . S
C1083 N1091 1.427 1_565 S
C1084 H1075 0.930 . S
C1084 C1082 1.378 . S
C1084 C1085 1.367 . S
C1085 C1084 1.367 . S
C1085 C1087 1.433 . S
C1086 C1082 1.350 . S
C1086 C1083 1.463 1_445 S
C1086 N1090 1.427 1_545 S
C1087 H1077 0.929 1_545 S
C1087 C1085 1.433 . S
C1087 N1090 1.384 1_545 S
C1088 H1079 0.929 . S
C1088 C1080 1.378 . S
C1088 C1083 1.350 . S
C1089 H1076 0.929 1_565 S
C1089 C1081 1.433 . S
C1089 N1091 1.384 1_565 S
N1090 C1086 1.427 1_565 S
N1090 C1087 1.384 1_565 S
N1091 C1083 1.427 1_545 S
N1091 C1089 1.384 1_545 S
H1092 C1098 0.930 . S
H1093 C1102 0.930 . S
H1094 C1107 0.929 . S
H1095 C1105 0.929 . S
H1096 C1100 0.929 . S
H1097 C1106 0.929 . S
C1098 H1092 0.930 . S
C1098 C1099 1.367 . S
C1098 C1106 1.378 . S
C1099 C1098 1.367 . S
C1099 C1107 1.433 . S
C1100 H1096 0.929 . S
C1100 C1102 1.378 . S
C1100 C1104 1.350 . S
C1101 C1104 1.463 . S
C1101 C1106 1.350 . S
C1101 N1109 1.427 . S
C1102 H1093 0.930 . S
C1102 C1100 1.378 . S
C1102 C1103 1.367 . S
C1103 C1102 1.367 . S
C1103 C1105 1.433 . S
C1104 C1100 1.350 . S
C1104 C1101 1.463 . S
C1104 N1108 1.427 . S
C1105 H1095 0.929 . S
C1105 C1103 1.433 . S
C1105 N1108 1.384 . S
C1106 H1097 0.929 . S
C1106 C1098 1.378 . S
C1106 C1101 1.350 . S
C1107 H1094 0.929 . S
C1107 C1099 1.433 . S
C1107 N1109 1.384 . S
N1108 C1104 1.427 . S
N1108 C1105 1.384 . S
N1109 C1101 1.427 . S
N1109 C1107 1.384 . S
H1110 C1116 0.930 1_545 S
H1111 C1120 0.930 1_565 S
H1112 C1125 0.929 . S
H1113 C1123 0.929 . S
H1114 C1118 0.929 . S
H1115 C1124 0.929 . S
C1116 H1110 0.930 1_565 S
C1116 C1117 1.367 . S
C1116 C1124 1.378 1_565 S
C1117 C1116 1.367 . S
C1117 C1125 1.433 . S
C1118 H1114 0.929 . S
C1118 C1120 1.378 1_565 S
C1118 C1122 1.350 1_565 S
C1119 C1122 1.463 1_566 S
C1119 C1124 1.350 1_565 S
C1119 N1127 1.427 . S
C1120 H1111 0.930 1_545 S
C1120 C1118 1.378 1_545 S
C1120 C1121 1.367 . S
C1121 C1120 1.367 . S
C1121 C1123 1.433 . S
C1122 C1118 1.350 1_545 S
C1122 C1119 1.463 1_544 S
C1122 N1126 1.427 . S
C1123 H1113 0.929 . S
C1123 C1121 1.433 . S
C1123 N1126 1.384 . S
C1124 H1115 0.929 . S
C1124 C1116 1.378 1_545 S
C1124 C1119 1.350 1_545 S
C1125 H1112 0.929 . S
C1125 C1117 1.433 . S
C1125 N1127 1.384 . S
N1126 C1122 1.427 . S
N1126 C1123 1.384 . S
N1127 C1119 1.427 . S
N1127 C1125 1.384 . S
H1128 C1134 0.930 . S
H1129 C1138 0.930 . S
H1130 C1143 0.929 . S
H1131 C1141 0.929 . S
H1132 C1136 0.929 . S
H1133 C1142 0.929 . S
C1134 H1128 0.930 . S
C1134 C1135 1.367 . S
C1134 C1142 1.378 . S
C1135 C1134 1.367 . S
C1135 C1143 1.433 . S
C1136 H1132 0.929 . S
C1136 C1138 1.378 . S
C1136 C1140 1.350 . S
C1137 C1140 1.463 . S
C1137 C1142 1.350 . S
C1137 N1145 1.427 . S
C1138 H1129 0.930 . S
C1138 C1136 1.378 . S
C1138 C1139 1.367 . S
C1139 C1138 1.367 . S
C1139 C1141 1.433 . S
C1140 C1136 1.350 . S
C1140 C1137 1.463 . S
C1140 N1144 1.427 . S
C1141 H1131 0.929 . S
C1141 C1139 1.433 . S
C1141 N1144 1.384 . S
C1142 H1133 0.929 . S
C1142 C1134 1.378 . S
C1142 C1137 1.350 . S
C1143 H1130 0.929 . S
C1143 C1135 1.433 . S
C1143 N1145 1.384 . S
N1144 C1140 1.427 . S
N1144 C1141 1.384 . S
N1145 C1137 1.427 . S
N1145 C1143 1.384 . S
H1146 C1152 0.930 . S
H1147 C1156 0.930 . S
H1148 C1161 0.929 . S
H1149 C1159 0.929 . S
H1150 C1154 0.929 . S
H1151 C1160 0.929 . S
C1152 H1146 0.930 . S
C1152 C1153 1.367 . S
C1152 C1160 1.378 . S
C1153 C1152 1.367 . S
C1153 C1161 1.433 . S
C1154 H1150 0.929 . S
C1154 C1156 1.378 . S
C1154 C1158 1.350 . S
C1155 C1158 1.463 1_565 S
C1155 C1160 1.350 . S
C1155 N1163 1.427 1_565 S
C1156 H1147 0.930 . S
C1156 C1154 1.378 . S
C1156 C1157 1.367 . S
C1157 C1156 1.367 . S
C1157 C1159 1.433 . S
C1158 C1154 1.350 . S
C1158 C1155 1.463 1_545 S
C1158 N1162 1.427 1_545 S
C1159 H1149 0.929 . S
C1159 C1157 1.433 . S
C1159 N1162 1.384 1_545 S
C1160 H1151 0.929 . S
C1160 C1152 1.378 . S
C1160 C1155 1.350 . S
C1161 H1148 0.929 . S
C1161 C1153 1.433 . S
C1161 N1163 1.384 1_565 S
N1162 C1158 1.427 1_565 S
N1162 C1159 1.384 1_565 S
N1163 C1155 1.427 1_545 S
N1163 C1161 1.384 1_545 S
H1164 C1170 0.930 . S
H1165 C1174 0.930 . S
H1166 C1179 0.929 . S
H1167 C1177 0.929 . S
H1168 C1172 0.929 . S
H1169 C1178 0.929 . S
C1170 H1164 0.930 . S
C1170 C1171 1.367 . S
C1170 C1178 1.378 . S
C1171 C1170 1.367 . S
C1171 C1179 1.433 . S
C1172 H1168 0.929 . S
C1172 C1174 1.378 . S
C1172 C1176 1.350 . S
C1173 C1176 1.463 . S
C1173 C1178 1.350 . S
C1173 N1181 1.427 . S
C1174 H1165 0.930 . S
C1174 C1172 1.378 . S
C1174 C1175 1.367 . S
C1175 C1174 1.367 . S
C1175 C1177 1.433 . S
C1176 C1172 1.350 . S
C1176 C1173 1.463 . S
C1176 N1180 1.427 . S
C1177 H1167 0.929 . S
C1177 C1175 1.433 . S
C1177 N1180 1.384 . S
C1178 H1169 0.929 . S
C1178 C1170 1.378 . S
C1178 C1173 1.350 . S
C1179 H1166 0.929 . S
C1179 C1171 1.433 . S
C1179 N1181 1.384 . S
N1180 C1176 1.427 . S
N1180 C1177 1.384 . S
N1181 C1173 1.427 . S
N1181 C1179 1.384 . S
H1182 C1188 0.930 . S
H1183 C1192 0.930 . S
H1184 C1197 0.929 . S
H1185 C1195 0.929 . S
H1186 C1190 0.929 1_455 S
H1187 C1196 0.929 1_655 S
C1188 H1182 0.930 . S
C1188 C1189 1.367 . S
C1188 C1196 1.378 . S
C1189 C1188 1.367 . S
C1189 C1197 1.433 . S
C1190 H1186 0.929 1_655 S
C1190 C1192 1.378 . S
C1190 C1194 1.350 . S
C1191 C1194 1.463 1_464 S
C1191 C1196 1.350 . S
C1191 N1199 1.426 1_554 S
C1192 H1183 0.930 . S
C1192 C1190 1.378 . S
C1192 C1193 1.367 . S
C1193 C1192 1.367 . S
C1193 C1195 1.433 . S
C1194 C1190 1.350 . S
C1194 C1191 1.463 1_646 S
C1194 N1198 1.426 1_556 S
C1195 H1185 0.929 . S
C1195 C1193 1.433 . S
C1195 N1198 1.381 1_556 S
C1196 H1187 0.929 1_455 S
C1196 C1188 1.378 . S
C1196 C1191 1.350 . S
C1197 H1184 0.929 . S
C1197 C1189 1.433 . S
C1197 N1199 1.381 1_554 S
N1198 C1194 1.426 1_554 S
N1198 C1195 1.381 1_554 S
N1199 C1191 1.426 1_556 S
N1199 C1197 1.381 1_556 S
H1200 C1206 0.930 . S
H1201 C1210 0.930 . S
H1202 C1215 0.929 . S
H1203 C1213 0.929 . S
H1204 C1208 0.929 . S
H1205 C1214 0.929 . S
C1206 H1200 0.930 . S
C1206 C1207 1.367 . S
C1206 C1214 1.378 . S
C1207 C1206 1.367 . S
C1207 C1215 1.433 . S
C1208 H1204 0.929 . S
C1208 C1210 1.378 . S
C1208 C1212 1.350 . S
C1209 C1212 1.463 . S
C1209 C1214 1.350 . S
C1209 N1217 1.427 . S
C1210 H1201 0.930 . S
C1210 C1208 1.378 . S
C1210 C1211 1.367 . S
C1211 C1210 1.367 . S
C1211 C1213 1.433 . S
C1212 C1208 1.350 . S
C1212 C1209 1.463 . S
C1212 N1216 1.427 . S
C1213 H1203 0.929 . S
C1213 C1211 1.433 . S
C1213 N1216 1.384 . S
C1214 H1205 0.929 . S
C1214 C1206 1.378 . S
C1214 C1209 1.350 . S
C1215 H1202 0.929 . S
C1215 C1207 1.433 . S
C1215 N1217 1.384 . S
N1216 C1212 1.427 . S
N1216 C1213 1.384 . S
N1217 C1209 1.427 . S
N1217 C1215 1.384 . S
H1218 C1224 0.930 . S
H1219 C1228 0.930 . S
H1220 C1233 0.929 . S
H1221 C1231 0.929 . S
H1222 C1226 0.929 . S
H1223 C1232 0.929 . S
C1224 H1218 0.930 . S
C1224 C1225 1.367 . S
C1224 C1232 1.378 . S
C1225 C1224 1.367 . S
C1225 C1233 1.433 . S
C1226 H1222 0.929 . S
C1226 C1228 1.378 . S
C1226 C1230 1.350 . S
C1227 C1230 1.463 . S
C1227 C1232 1.350 . S
C1227 N1235 1.427 . S
C1228 H1219 0.930 . S
C1228 C1226 1.378 . S
C1228 C1229 1.367 . S
C1229 C1228 1.367 . S
C1229 C1231 1.433 . S
C1230 C1226 1.350 . S
C1230 C1227 1.463 . S
C1230 N1234 1.427 . S
C1231 H1221 0.929 . S
C1231 C1229 1.433 . S
C1231 N1234 1.384 . S
C1232 H1223 0.929 . S
C1232 C1224 1.378 . S
C1232 C1227 1.350 . S
C1233 H1220 0.929 . S
C1233 C1225 1.433 . S
C1233 N1235 1.384 . S
N1234 C1230 1.427 . S
N1234 C1231 1.384 . S
N1235 C1227 1.427 . S
N1235 C1233 1.384 . S
H1236 C1242 0.930 . S
H1237 C1246 0.930 . S
H1238 C1251 0.929 . S
H1239 C1249 0.929 . S
H1240 C1244 0.929 . S
H1241 C1250 0.929 . S
C1242 H1236 0.930 . S
C1242 C1243 1.367 . S
C1242 C1250 1.378 . S
C1243 C1242 1.367 . S
C1243 C1251 1.433 . S
C1244 H1240 0.929 . S
C1244 C1246 1.378 . S
C1244 C1248 1.350 . S
C1245 C1248 1.463 . S
C1245 C1250 1.350 . S
C1245 N1253 1.427 . S
C1246 H1237 0.930 . S
C1246 C1244 1.378 . S
C1246 C1247 1.367 . S
C1247 C1246 1.367 . S
C1247 C1249 1.433 . S
C1248 C1244 1.350 . S
C1248 C1245 1.463 . S
C1248 N1252 1.427 . S
C1249 H1239 0.929 . S
C1249 C1247 1.433 . S
C1249 N1252 1.384 . S
C1250 H1241 0.929 . S
C1250 C1242 1.378 . S
C1250 C1245 1.350 . S
C1251 H1238 0.929 . S
C1251 C1243 1.433 . S
C1251 N1253 1.384 . S
N1252 C1248 1.427 . S
N1252 C1249 1.384 . S
N1253 C1245 1.427 . S
N1253 C1251 1.384 . S
H1254 C1260 0.930 . S
H1255 C1264 0.930 . S
H1256 C1269 0.929 . S
H1257 C1267 0.929 . S
H1258 C1262 0.929 . S
H1259 C1268 0.929 . S
C1260 H1254 0.930 . S
C1260 C1261 1.367 . S
C1260 C1268 1.378 . S
C1261 C1260 1.367 . S
C1261 C1269 1.433 . S
C1262 H1258 0.929 . S
C1262 C1264 1.378 . S
C1262 C1266 1.350 . S
C1263 C1266 1.463 . S
C1263 C1268 1.350 . S
C1263 N1271 1.427 . S
C1264 H1255 0.930 . S
C1264 C1262 1.378 . S
C1264 C1265 1.367 . S
C1265 C1264 1.367 . S
C1265 C1267 1.433 . S
C1266 C1262 1.350 . S
C1266 C1263 1.463 . S
C1266 N1270 1.427 . S
C1267 H1257 0.929 . S
C1267 C1265 1.433 . S
C1267 N1270 1.384 . S
C1268 H1259 0.929 . S
C1268 C1260 1.378 . S
C1268 C1263 1.350 . S
C1269 H1256 0.929 . S
C1269 C1261 1.433 . S
C1269 N1271 1.384 . S
N1270 C1266 1.427 . S
N1270 C1267 1.384 . S
N1271 C1263 1.427 . S
N1271 C1269 1.384 . S
H1272 C1278 0.930 . S
H1273 C1282 0.930 . S
H1274 C1287 0.929 . S
H1275 C1285 0.929 . S
H1276 C1280 0.929 . S
H1277 C1286 0.929 . S
C1278 H1272 0.930 . S
C1278 C1279 1.367 . S
C1278 C1286 1.378 . S
C1279 C1278 1.367 . S
C1279 C1287 1.433 . S
C1280 H1276 0.929 . S
C1280 C1282 1.378 . S
C1280 C1284 1.350 . S
C1281 C1284 1.463 1_556 S
C1281 C1286 1.350 . S
C1281 N1289 1.427 . S
C1282 H1273 0.930 . S
C1282 C1280 1.378 . S
C1282 C1283 1.367 . S
C1283 C1282 1.367 . S
C1283 C1285 1.433 . S
C1284 C1280 1.350 . S
C1284 C1281 1.463 1_554 S
C1284 N1288 1.427 . S
C1285 H1275 0.929 . S
C1285 C1283 1.433 . S
C1285 N1288 1.384 . S
C1286 H1277 0.929 . S
C1286 C1278 1.378 . S
C1286 C1281 1.350 . S
C1287 H1274 0.929 . S
C1287 C1279 1.433 . S
C1287 N1289 1.384 . S
N1288 C1284 1.427 . S
N1288 C1285 1.384 . S
N1289 C1281 1.427 . S
N1289 C1287 1.384 . S
H1290 C1296 0.930 . S
H1291 C1300 0.930 . S
H1292 C1305 0.929 . S
H1293 C1303 0.929 . S
H1294 C1298 0.929 . S
H1295 C1304 0.929 . S
C1296 H1290 0.930 . S
C1296 C1297 1.367 . S
C1296 C1304 1.378 . S
C1297 C1296 1.367 . S
C1297 C1305 1.433 . S
C1298 H1294 0.929 . S
C1298 C1300 1.378 . S
C1298 C1302 1.350 . S
C1299 C1302 1.463 1_455 S
C1299 C1304 1.350 . S
C1299 N1307 1.427 . S
C1300 H1291 0.930 . S
C1300 C1298 1.378 . S
C1300 C1301 1.367 . S
C1301 C1300 1.367 . S
C1301 C1303 1.433 . S
C1302 C1298 1.350 . S
C1302 C1299 1.463 1_655 S
C1302 N1306 1.427 . S
C1303 H1293 0.929 . S
C1303 C1301 1.433 . S
C1303 N1306 1.384 . S
C1304 H1295 0.929 . S
C1304 C1296 1.378 . S
C1304 C1299 1.350 . S
C1305 H1292 0.929 . S
C1305 C1297 1.433 . S
C1305 N1307 1.384 . S
N1306 C1302 1.427 . S
N1306 C1303 1.384 . S
N1307 C1299 1.427 . S
N1307 C1305 1.384 . S
H1308 C1314 0.930 . S
H1309 C1318 0.930 . S
H1310 C1323 0.929 . S
H1311 C1321 0.929 . S
H1312 C1316 0.929 1_556 S
H1313 C1322 0.929 1_554 S
C1314 H1308 0.930 . S
C1314 C1315 1.367 . S
C1314 C1322 1.378 . S
C1315 C1314 1.367 . S
C1315 C1323 1.433 . S
C1316 H1312 0.929 1_554 S
C1316 C1318 1.378 . S
C1316 C1320 1.350 . S
C1317 C1320 1.463 1_456 S
C1317 C1322 1.350 . S
C1317 N1325 1.427 . S
C1318 H1309 0.930 . S
C1318 C1316 1.378 . S
C1318 C1319 1.367 . S
C1319 C1318 1.367 . S
C1319 C1321 1.433 . S
C1320 C1316 1.350 . S
C1320 C1317 1.463 1_654 S
C1320 N1324 1.427 . S
C1321 H1311 0.929 . S
C1321 C1319 1.433 . S
C1321 N1324 1.384 . S
C1322 H1313 0.929 1_556 S
C1322 C1314 1.378 . S
C1322 C1317 1.350 . S
C1323 H1310 0.929 . S
C1323 C1315 1.433 . S
C1323 N1325 1.384 . S
N1324 C1320 1.427 . S
N1324 C1321 1.384 . S
N1325 C1317 1.427 . S
N1325 C1323 1.384 . S
H1326 C1332 0.930 . S
H1327 C1336 0.930 . S
H1328 C1341 0.929 . S
H1329 C1339 0.929 . S
H1330 C1334 0.929 . S
H1331 C1340 0.929 . S
C1332 H1326 0.930 . S
C1332 C1333 1.367 . S
C1332 C1340 1.378 . S
C1333 C1332 1.367 . S
C1333 C1341 1.433 . S
C1334 H1330 0.929 . S
C1334 C1336 1.378 . S
C1334 C1338 1.350 . S
C1335 C1338 1.463 . S
C1335 C1340 1.350 . S
C1335 N1343 1.427 . S
C1336 H1327 0.930 . S
C1336 C1334 1.378 . S
C1336 C1337 1.367 . S
C1337 C1336 1.367 . S
C1337 C1339 1.433 . S
C1338 C1334 1.350 . S
C1338 C1335 1.463 . S
C1338 N1342 1.427 . S
C1339 H1329 0.929 . S
C1339 C1337 1.433 . S
C1339 N1342 1.384 . S
C1340 H1331 0.929 . S
C1340 C1332 1.378 . S
C1340 C1335 1.350 . S
C1341 H1328 0.929 . S
C1341 C1333 1.433 . S
C1341 N1343 1.384 . S
N1342 C1338 1.427 . S
N1342 C1339 1.384 . S
N1343 C1335 1.427 . S
N1343 C1341 1.384 . S
H1344 C1350 0.930 . S
H1345 C1354 0.930 . S
H1346 C1359 0.929 . S
H1347 C1357 0.929 . S
H1348 C1352 0.929 . S
H1349 C1358 0.929 . S
C1350 H1344 0.930 . S
C1350 C1351 1.367 . S
C1350 C1358 1.378 . S
C1351 C1350 1.367 . S
C1351 C1359 1.433 . S
C1352 H1348 0.929 . S
C1352 C1354 1.378 . S
C1352 C1356 1.350 . S
C1353 C1356 1.463 . S
C1353 C1358 1.350 . S
C1353 N1361 1.427 . S
C1354 H1345 0.930 . S
C1354 C1352 1.378 . S
C1354 C1355 1.367 . S
C1355 C1354 1.367 . S
C1355 C1357 1.433 . S
C1356 C1352 1.350 . S
C1356 C1353 1.463 . S
C1356 N1360 1.427 . S
C1357 H1347 0.929 . S
C1357 C1355 1.433 . S
C1357 N1360 1.384 . S
C1358 H1349 0.929 . S
C1358 C1350 1.378 . S
C1358 C1353 1.350 . S
C1359 H1346 0.929 . S
C1359 C1351 1.433 . S
C1359 N1361 1.384 . S
N1360 C1356 1.427 . S
N1360 C1357 1.384 . S
N1361 C1353 1.427 . S
N1361 C1359 1.384 . S
H1362 C1368 0.930 . S
H1363 C1372 0.930 . S
H1364 C1377 0.929 . S
H1365 C1375 0.929 . S
H1366 C1370 0.929 . S
H1367 C1376 0.929 . S
C1368 H1362 0.930 . S
C1368 C1369 1.367 . S
C1368 C1376 1.378 . S
C1369 C1368 1.367 . S
C1369 C1377 1.433 . S
C1370 H1366 0.929 . S
C1370 C1372 1.378 . S
C1370 C1374 1.350 . S
C1371 C1374 1.463 1_655 S
C1371 C1376 1.350 . S
C1371 N1379 1.427 . S
C1372 H1363 0.930 . S
C1372 C1370 1.378 . S
C1372 C1373 1.367 . S
C1373 C1372 1.367 . S
C1373 C1375 1.433 . S
C1374 C1370 1.350 . S
C1374 C1371 1.463 1_455 S
C1374 N1378 1.427 . S
C1375 H1365 0.929 . S
C1375 C1373 1.433 . S
C1375 N1378 1.384 . S
C1376 H1367 0.929 . S
C1376 C1368 1.378 . S
C1376 C1371 1.350 . S
C1377 H1364 0.929 . S
C1377 C1369 1.433 . S
C1377 N1379 1.384 . S
N1378 C1374 1.427 . S
N1378 C1375 1.384 . S
N1379 C1371 1.427 . S
N1379 C1377 1.384 . S
H1380 C1386 0.930 . S
H1381 C1390 0.930 . S
H1382 C1395 0.929 . S
H1383 C1393 0.929 . S
H1384 C1388 0.929 . S
H1385 C1394 0.929 . S
C1386 H1380 0.930 . S
C1386 C1387 1.367 . S
C1386 C1394 1.378 . S
C1387 C1386 1.367 . S
C1387 C1395 1.433 . S
C1388 H1384 0.929 . S
C1388 C1390 1.378 . S
C1388 C1392 1.350 . S
C1389 C1392 1.463 . S
C1389 C1394 1.350 . S
C1389 N1397 1.427 . S
C1390 H1381 0.930 . S
C1390 C1388 1.378 . S
C1390 C1391 1.367 . S
C1391 C1390 1.367 . S
C1391 C1393 1.433 . S
C1392 C1388 1.350 . S
C1392 C1389 1.463 . S
C1392 N1396 1.427 . S
C1393 H1383 0.929 . S
C1393 C1391 1.433 . S
C1393 N1396 1.384 . S
C1394 H1385 0.929 . S
C1394 C1386 1.378 . S
C1394 C1389 1.350 . S
C1395 H1382 0.929 . S
C1395 C1387 1.433 . S
C1395 N1397 1.384 . S
N1396 C1392 1.427 . S
N1396 C1393 1.384 . S
N1397 C1389 1.427 . S
N1397 C1395 1.384 . S
H1398 C1404 0.930 . S
H1399 C1408 0.930 . S
H1400 C1413 0.929 . S
H1401 C1411 0.929 . S
H1402 C1406 0.929 . S
H1403 C1412 0.929 . S
C1404 H1398 0.930 . S
C1404 C1405 1.367 . S
C1404 C1412 1.378 . S
C1405 C1404 1.367 . S
C1405 C1413 1.433 . S
C1406 H1402 0.929 . S
C1406 C1408 1.378 . S
C1406 C1410 1.350 . S
C1407 C1410 1.463 . S
C1407 C1412 1.350 . S
C1407 N1415 1.427 . S
C1408 H1399 0.930 . S
C1408 C1406 1.378 . S
C1408 C1409 1.367 . S
C1409 C1408 1.367 . S
C1409 C1411 1.433 . S
C1410 C1406 1.350 . S
C1410 C1407 1.463 . S
C1410 N1414 1.427 . S
C1411 H1401 0.929 . S
C1411 C1409 1.433 . S
C1411 N1414 1.384 . S
C1412 H1403 0.929 . S
C1412 C1404 1.378 . S
C1412 C1407 1.350 . S
C1413 H1400 0.929 . S
C1413 C1405 1.433 . S
C1413 N1415 1.384 . S
N1414 C1410 1.427 . S
N1414 C1411 1.384 . S
N1415 C1407 1.427 . S
N1415 C1413 1.384 . S
H1416 C1422 0.930 . S
H1417 C1426 0.930 . S
H1418 C1431 0.929 . S
H1419 C1429 0.929 . S
H1420 C1424 0.929 . S
H1421 C1430 0.929 . S
C1422 H1416 0.930 . S
C1422 C1423 1.367 . S
C1422 C1430 1.378 . S
C1423 C1422 1.367 . S
C1423 C1431 1.433 . S
C1424 H1420 0.929 . S
C1424 C1426 1.378 . S
C1424 C1428 1.350 . S
C1425 C1428 1.463 . S
C1425 C1430 1.350 . S
C1425 N1433 1.427 . S
C1426 H1417 0.930 . S
C1426 C1424 1.378 . S
C1426 C1427 1.367 . S
C1427 C1426 1.367 . S
C1427 C1429 1.433 . S
C1428 C1424 1.350 . S
C1428 C1425 1.463 . S
C1428 N1432 1.427 . S
C1429 H1419 0.929 . S
C1429 C1427 1.433 . S
C1429 N1432 1.384 . S
C1430 H1421 0.929 . S
C1430 C1422 1.378 . S
C1430 C1425 1.350 . S
C1431 H1418 0.929 . S
C1431 C1423 1.433 . S
C1431 N1433 1.384 . S
N1432 C1428 1.427 . S
N1432 C1429 1.384 . S
N1433 C1425 1.427 . S
N1433 C1431 1.384 . S
H1434 C1440 0.930 . S
H1435 C1444 0.930 . S
H1436 C1449 0.929 . S
H1437 C1447 0.929 . S
H1438 C1442 0.929 . S
H1439 C1448 0.929 . S
C1440 H1434 0.930 . S
C1440 C1441 1.367 . S
C1440 C1448 1.378 . S
C1441 C1440 1.367 . S
C1441 C1449 1.433 . S
C1442 H1438 0.929 . S
C1442 C1444 1.378 . S
C1442 C1446 1.350 . S
C1443 C1446 1.463 . S
C1443 C1448 1.350 . S
C1443 N1451 1.427 . S
C1444 H1435 0.930 . S
C1444 C1442 1.378 . S
C1444 C1445 1.367 . S
C1445 C1444 1.367 . S
C1445 C1447 1.433 . S
C1446 C1442 1.350 . S
C1446 C1443 1.463 . S
C1446 N1450 1.427 . S
C1447 H1437 0.929 . S
C1447 C1445 1.433 . S
C1447 N1450 1.384 . S
C1448 H1439 0.929 . S
C1448 C1440 1.378 . S
C1448 C1443 1.350 . S
C1449 H1436 0.929 . S
C1449 C1441 1.433 . S
C1449 N1451 1.384 . S
N1450 C1446 1.427 . S
N1450 C1447 1.384 . S
N1451 C1443 1.427 . S
N1451 C1449 1.384 . S
H1452 C1458 0.930 . S
H1453 C1462 0.930 . S
H1454 C1467 0.929 . S
H1455 C1465 0.929 . S
H1456 C1460 0.929 . S
H1457 C1466 0.929 . S
C1458 H1452 0.930 . S
C1458 C1459 1.367 . S
C1458 C1466 1.378 . S
C1459 C1458 1.367 . S
C1459 C1467 1.433 . S
C1460 H1456 0.929 . S
C1460 C1462 1.378 . S
C1460 C1464 1.350 . S
C1461 C1464 1.463 . S
C1461 C1466 1.350 . S
C1461 N1469 1.427 . S
C1462 H1453 0.930 . S
C1462 C1460 1.378 . S
C1462 C1463 1.367 . S
C1463 C1462 1.367 . S
C1463 C1465 1.433 . S
C1464 C1460 1.350 . S
C1464 C1461 1.463 . S
C1464 N1468 1.427 . S
C1465 H1455 0.929 . S
C1465 C1463 1.433 . S
C1465 N1468 1.384 . S
C1466 H1457 0.929 . S
C1466 C1458 1.378 . S
C1466 C1461 1.350 . S
C1467 H1454 0.929 . S
C1467 C1459 1.433 . S
C1467 N1469 1.384 . S
N1468 C1464 1.427 . S
N1468 C1465 1.384 . S
N1469 C1461 1.427 . S
N1469 C1467 1.384 . S
H1470 C1476 0.930 . S
H1471 C1480 0.930 . S
H1472 C1485 0.929 . S
H1473 C1483 0.929 . S
H1474 C1478 0.929 . S
H1475 C1484 0.929 1_455 S
C1476 H1470 0.930 . S
C1476 C1477 1.367 . S
C1476 C1484 1.378 . S
C1477 C1476 1.367 . S
C1477 C1485 1.433 . S
C1478 H1474 0.929 . S
C1478 C1480 1.378 . S
C1478 C1482 1.350 . S
C1479 C1482 1.463 1_655 S
C1479 C1484 1.350 . S
C1479 N1487 1.427 . S
C1480 H1471 0.930 . S
C1480 C1478 1.378 . S
C1480 C1481 1.367 . S
C1481 C1480 1.367 . S
C1481 C1483 1.433 . S
C1482 C1478 1.350 . S
C1482 C1479 1.463 1_455 S
C1482 N1486 1.427 . S
C1483 H1473 0.929 . S
C1483 C1481 1.433 . S
C1483 N1486 1.384 . S
C1484 H1475 0.929 1_655 S
C1484 C1476 1.378 . S
C1484 C1479 1.350 . S
C1485 H1472 0.929 . S
C1485 C1477 1.433 . S
C1485 N1487 1.384 . S
N1486 C1482 1.427 . S
N1486 C1483 1.384 . S
N1487 C1479 1.427 . S
N1487 C1485 1.384 . S
H1488 C1494 0.930 . S
H1489 C1498 0.930 . S
H1490 C1503 0.929 . S
H1491 C1501 0.929 . S
H1492 C1496 0.929 . S
H1493 C1502 0.929 . S
C1494 H1488 0.930 . S
C1494 C1495 1.367 . S
C1494 C1502 1.378 . S
C1495 C1494 1.367 . S
C1495 C1503 1.433 . S
C1496 H1492 0.929 . S
C1496 C1498 1.378 . S
C1496 C1500 1.350 . S
C1497 C1500 1.463 . S
C1497 C1502 1.350 . S
C1497 N1505 1.427 . S
C1498 H1489 0.930 . S
C1498 C1496 1.378 . S
C1498 C1499 1.367 . S
C1499 C1498 1.367 . S
C1499 C1501 1.433 . S
C1500 C1496 1.350 . S
C1500 C1497 1.463 . S
C1500 N1504 1.427 . S
C1501 H1491 0.929 . S
C1501 C1499 1.433 . S
C1501 N1504 1.384 . S
C1502 H1493 0.929 . S
C1502 C1494 1.378 . S
C1502 C1497 1.350 . S
C1503 H1490 0.929 . S
C1503 C1495 1.433 . S
C1503 N1505 1.384 . S
N1504 C1500 1.427 . S
N1504 C1501 1.384 . S
N1505 C1497 1.427 . S
N1505 C1503 1.384 . S
H1506 C1512 0.930 . S
H1507 C1516 0.930 . S
H1508 C1521 0.929 . S
H1509 C1519 0.929 . S
H1510 C1514 0.929 . S
H1511 C1520 0.929 . S
C1512 H1506 0.930 . S
C1512 C1513 1.367 . S
C1512 C1520 1.378 . S
C1513 C1512 1.367 . S
C1513 C1521 1.433 . S
C1514 H1510 0.929 . S
C1514 C1516 1.378 . S
C1514 C1518 1.350 . S
C1515 C1518 1.463 1_455 S
C1515 C1520 1.350 . S
C1515 N1523 1.427 . S
C1516 H1507 0.930 . S
C1516 C1514 1.378 . S
C1516 C1517 1.367 . S
C1517 C1516 1.367 . S
C1517 C1519 1.433 . S
C1518 C1514 1.350 . S
C1518 C1515 1.463 1_655 S
C1518 N1522 1.427 . S
C1519 H1509 0.929 . S
C1519 C1517 1.433 . S
C1519 N1522 1.384 . S
C1520 H1511 0.929 . S
C1520 C1512 1.378 . S
C1520 C1515 1.350 . S
C1521 H1508 0.929 . S
C1521 C1513 1.433 . S
C1521 N1523 1.384 . S
N1522 C1518 1.427 . S
N1522 C1519 1.384 . S
N1523 C1515 1.427 . S
N1523 C1521 1.384 . S
H1524 C1530 0.930 . S
H1525 C1534 0.930 . S
H1526 C1539 0.929 . S
H1527 C1537 0.929 . S
H1528 C1532 0.929 . S
H1529 C1538 0.929 . S
C1530 H1524 0.930 . S
C1530 C1531 1.367 . S
C1530 C1538 1.378 . S
C1531 C1530 1.367 . S
C1531 C1539 1.433 . S
C1532 H1528 0.929 . S
C1532 C1534 1.378 . S
C1532 C1536 1.350 . S
C1533 C1536 1.463 . S
C1533 C1538 1.350 . S
C1533 N1541 1.427 . S
C1534 H1525 0.930 . S
C1534 C1532 1.378 . S
C1534 C1535 1.367 . S
C1535 C1534 1.367 . S
C1535 C1537 1.433 . S
C1536 C1532 1.350 . S
C1536 C1533 1.463 . S
C1536 N1540 1.427 . S
C1537 H1527 0.929 . S
C1537 C1535 1.433 . S
C1537 N1540 1.384 . S
C1538 H1529 0.929 . S
C1538 C1530 1.378 . S
C1538 C1533 1.350 . S
C1539 H1526 0.929 . S
C1539 C1531 1.433 . S
C1539 N1541 1.384 . S
N1540 C1536 1.427 . S
N1540 C1537 1.384 . S
N1541 C1533 1.427 . S
N1541 C1539 1.384 . S
H1542 C1548 0.930 . S
H1543 C1552 0.930 . S
H1544 C1557 0.929 . S
H1545 C1555 0.929 . S
H1546 C1550 0.929 . S
H1547 C1556 0.929 . S
C1548 H1542 0.930 . S
C1548 C1549 1.367 . S
C1548 C1556 1.378 . S
C1549 C1548 1.367 . S
C1549 C1557 1.433 . S
C1550 H1546 0.929 . S
C1550 C1552 1.378 . S
C1550 C1554 1.350 . S
C1551 C1554 1.463 . S
C1551 C1556 1.350 . S
C1551 N1559 1.427 . S
C1552 H1543 0.930 . S
C1552 C1550 1.378 . S
C1552 C1553 1.367 . S
C1553 C1552 1.367 . S
C1553 C1555 1.433 . S
C1554 C1550 1.350 . S
C1554 C1551 1.463 . S
C1554 N1558 1.427 . S
C1555 H1545 0.929 . S
C1555 C1553 1.433 . S
C1555 N1558 1.384 . S
C1556 H1547 0.929 . S
C1556 C1548 1.378 . S
C1556 C1551 1.350 . S
C1557 H1544 0.929 . S
C1557 C1549 1.433 . S
C1557 N1559 1.384 . S
N1558 C1554 1.427 . S
N1558 C1555 1.384 . S
N1559 C1551 1.427 . S
N1559 C1557 1.384 . S
H1560 C1566 0.930 . S
H1561 C1570 0.930 . S
H1562 C1575 0.929 . S
H1563 C1573 0.929 . S
H1564 C1568 0.929 . S
H1565 C1574 0.929 . S
C1566 H1560 0.930 . S
C1566 C1567 1.367 . S
C1566 C1574 1.378 . S
C1567 C1566 1.367 . S
C1567 C1575 1.433 . S
C1568 H1564 0.929 . S
C1568 C1570 1.378 . S
C1568 C1572 1.350 . S
C1569 C1572 1.463 . S
C1569 C1574 1.350 . S
C1569 N1577 1.427 . S
C1570 H1561 0.930 . S
C1570 C1568 1.378 . S
C1570 C1571 1.367 . S
C1571 C1570 1.367 . S
C1571 C1573 1.433 . S
C1572 C1568 1.350 . S
C1572 C1569 1.463 . S
C1572 N1576 1.427 . S
C1573 H1563 0.929 . S
C1573 C1571 1.433 . S
C1573 N1576 1.384 . S
C1574 H1565 0.929 . S
C1574 C1566 1.378 . S
C1574 C1569 1.350 . S
C1575 H1562 0.929 . S
C1575 C1567 1.433 . S
C1575 N1577 1.384 . S
N1576 C1572 1.427 . S
N1576 C1573 1.384 . S
N1577 C1569 1.427 . S
N1577 C1575 1.384 . S
H1578 C1584 0.930 . S
H1579 C1588 0.930 . S
H1580 C1593 0.929 . S
H1581 C1591 0.929 . S
H1582 C1586 0.929 . S
H1583 C1592 0.929 . S
C1584 H1578 0.930 . S
C1584 C1585 1.367 . S
C1584 C1592 1.378 . S
C1585 C1584 1.367 . S
C1585 C1593 1.433 . S
C1586 H1582 0.929 . S
C1586 C1588 1.378 . S
C1586 C1590 1.350 . S
C1587 C1590 1.463 . S
C1587 C1592 1.350 . S
C1587 N1595 1.427 . S
C1588 H1579 0.930 . S
C1588 C1586 1.378 . S
C1588 C1589 1.367 . S
C1589 C1588 1.367 . S
C1589 C1591 1.433 . S
C1590 C1586 1.350 . S
C1590 C1587 1.463 . S
C1590 N1594 1.427 . S
C1591 H1581 0.929 . S
C1591 C1589 1.433 . S
C1591 N1594 1.384 . S
C1592 H1583 0.929 . S
C1592 C1584 1.378 . S
C1592 C1587 1.350 . S
C1593 H1580 0.929 . S
C1593 C1585 1.433 . S
C1593 N1595 1.384 . S
N1594 C1590 1.427 . S
N1594 C1591 1.384 . S
N1595 C1587 1.427 . S
N1595 C1593 1.384 . S
H1596 C1602 0.930 . S
H1597 C1606 0.930 . S
H1598 C1611 0.929 . S
H1599 C1609 0.929 . S
H1600 C1604 0.929 . S
H1601 C1610 0.929 . S
C1602 H1596 0.930 . S
C1602 C1603 1.367 . S
C1602 C1610 1.378 . S
C1603 C1602 1.367 . S
C1603 C1611 1.433 . S
C1604 H1600 0.929 . S
C1604 C1606 1.378 . S
C1604 C1608 1.350 . S
C1605 C1608 1.463 . S
C1605 C1610 1.350 . S
C1605 N1613 1.427 . S
C1606 H1597 0.930 . S
C1606 C1604 1.378 . S
C1606 C1607 1.367 . S
C1607 C1606 1.367 . S
C1607 C1609 1.433 . S
C1608 C1604 1.350 . S
C1608 C1605 1.463 . S
C1608 N1612 1.427 . S
C1609 H1599 0.929 . S
C1609 C1607 1.433 . S
C1609 N1612 1.384 . S
C1610 H1601 0.929 . S
C1610 C1602 1.378 . S
C1610 C1605 1.350 . S
C1611 H1598 0.929 . S
C1611 C1603 1.433 . S
C1611 N1613 1.384 . S
N1612 C1608 1.427 . S
N1612 C1609 1.384 . S
N1613 C1605 1.427 . S
N1613 C1611 1.384 . S
H1614 C1620 0.930 . S
H1615 C1624 0.930 . S
H1616 C1629 0.929 . S
H1617 C1627 0.929 . S
H1618 C1622 0.929 1_655 S
H1619 C1628 0.929 . S
C1620 H1614 0.930 . S
C1620 C1621 1.367 . S
C1620 C1628 1.378 . S
C1621 C1620 1.367 . S
C1621 C1629 1.433 . S
C1622 H1618 0.929 1_455 S
C1622 C1624 1.378 . S
C1622 C1626 1.350 . S
C1623 C1626 1.463 1_655 S
C1623 C1628 1.350 . S
C1623 N1631 1.427 . S
C1624 H1615 0.930 . S
C1624 C1622 1.378 . S
C1624 C1625 1.367 . S
C1625 C1624 1.367 . S
C1625 C1627 1.433 . S
C1626 C1622 1.350 . S
C1626 C1623 1.463 1_455 S
C1626 N1630 1.427 . S
C1627 H1617 0.929 . S
C1627 C1625 1.433 . S
C1627 N1630 1.384 . S
C1628 H1619 0.929 . S
C1628 C1620 1.378 . S
C1628 C1623 1.350 . S
C1629 H1616 0.929 . S
C1629 C1621 1.433 . S
C1629 N1631 1.384 . S
N1630 C1626 1.427 . S
N1630 C1627 1.384 . S
N1631 C1623 1.427 . S
N1631 C1629 1.384 . S
H1632 C1638 0.930 . S
H1633 C1642 0.930 . S
H1634 C1647 0.929 . S
H1635 C1645 0.929 . S
H1636 C1640 0.929 . S
H1637 C1646 0.929 . S
C1638 H1632 0.930 . S
C1638 C1639 1.367 . S
C1638 C1646 1.378 . S
C1639 C1638 1.367 . S
C1639 C1647 1.433 . S
C1640 H1636 0.929 . S
C1640 C1642 1.378 . S
C1640 C1644 1.350 . S
C1641 C1644 1.463 . S
C1641 C1646 1.350 . S
C1641 N1649 1.427 . S
C1642 H1633 0.930 . S
C1642 C1640 1.378 . S
C1642 C1643 1.367 . S
C1643 C1642 1.367 . S
C1643 C1645 1.433 . S
C1644 C1640 1.350 . S
C1644 C1641 1.463 . S
C1644 N1648 1.427 . S
C1645 H1635 0.929 . S
C1645 C1643 1.433 . S
C1645 N1648 1.384 . S
C1646 H1637 0.929 . S
C1646 C1638 1.378 . S
C1646 C1641 1.350 . S
C1647 H1634 0.929 . S
C1647 C1639 1.433 . S
C1647 N1649 1.384 . S
N1648 C1644 1.427 . S
N1648 C1645 1.384 . S
N1649 C1641 1.427 . S
N1649 C1647 1.384 . S
H1650 C1656 0.930 . S
H1651 C1660 0.930 . S
H1652 C1665 0.929 . S
H1653 C1663 0.929 . S
H1654 C1658 0.929 . S
H1655 C1664 0.929 . S
C1656 H1650 0.930 . S
C1656 C1657 1.367 . S
C1656 C1664 1.378 . S
C1657 C1656 1.367 . S
C1657 C1665 1.433 . S
C1658 H1654 0.929 . S
C1658 C1660 1.378 . S
C1658 C1662 1.350 . S
C1659 C1662 1.463 . S
C1659 C1664 1.350 . S
C1659 N1667 1.427 . S
C1660 H1651 0.930 . S
C1660 C1658 1.378 . S
C1660 C1661 1.367 . S
C1661 C1660 1.367 . S
C1661 C1663 1.433 . S
C1662 C1658 1.350 . S
C1662 C1659 1.463 . S
C1662 N1666 1.427 . S
C1663 H1653 0.929 . S
C1663 C1661 1.433 . S
C1663 N1666 1.384 . S
C1664 H1655 0.929 . S
C1664 C1656 1.378 . S
C1664 C1659 1.350 . S
C1665 H1652 0.929 . S
C1665 C1657 1.433 . S
C1665 N1667 1.384 . S
N1666 C1662 1.427 . S
N1666 C1663 1.384 . S
N1667 C1659 1.427 . S
N1667 C1665 1.384 . S
H1668 C1674 0.930 . S
H1669 C1678 0.930 . S
H1670 C1683 0.929 . S
H1671 C1681 0.929 . S
H1672 C1676 0.929 . S
H1673 C1682 0.929 . S
C1674 H1668 0.930 . S
C1674 C1675 1.367 . S
C1674 C1682 1.378 . S
C1675 C1674 1.367 . S
C1675 C1683 1.433 . S
C1676 H1672 0.929 . S
C1676 C1678 1.378 . S
C1676 C1680 1.350 . S
C1677 C1680 1.463 . S
C1677 C1682 1.350 . S
C1677 N1685 1.427 . S
C1678 H1669 0.930 . S
C1678 C1676 1.378 . S
C1678 C1679 1.367 . S
C1679 C1678 1.367 . S
C1679 C1681 1.433 . S
C1680 C1676 1.350 . S
C1680 C1677 1.463 . S
C1680 N1684 1.427 . S
C1681 H1671 0.929 . S
C1681 C1679 1.433 . S
C1681 N1684 1.384 . S
C1682 H1673 0.929 . S
C1682 C1674 1.378 . S
C1682 C1677 1.350 . S
C1683 H1670 0.929 . S
C1683 C1675 1.433 . S
C1683 N1685 1.384 . S
N1684 C1680 1.427 . S
N1684 C1681 1.384 . S
N1685 C1677 1.427 . S
N1685 C1683 1.384 . S
H1686 C1692 0.930 . S
H1687 C1696 0.930 . S
H1688 C1701 0.929 . S
H1689 C1699 0.929 . S
H1690 C1694 0.929 . S
H1691 C1700 0.929 . S
C1692 H1686 0.930 . S
C1692 C1693 1.367 . S
C1692 C1700 1.378 . S
C1693 C1692 1.367 . S
C1693 C1701 1.433 . S
C1694 H1690 0.929 . S
C1694 C1696 1.378 . S
C1694 C1698 1.350 . S
C1695 C1698 1.463 1_655 S
C1695 C1700 1.350 . S
C1695 N1703 1.427 . S
C1696 H1687 0.930 . S
C1696 C1694 1.378 . S
C1696 C1697 1.367 . S
C1697 C1696 1.367 . S
C1697 C1699 1.433 . S
C1698 C1694 1.350 . S
C1698 C1695 1.463 1_455 S
C1698 N1702 1.427 . S
C1699 H1689 0.929 . S
C1699 C1697 1.433 . S
C1699 N1702 1.384 . S
C1700 H1691 0.929 . S
C1700 C1692 1.378 . S
C1700 C1695 1.350 . S
C1701 H1688 0.929 . S
C1701 C1693 1.433 . S
C1701 N1703 1.384 . S
N1702 C1698 1.427 . S
N1702 C1699 1.384 . S
N1703 C1695 1.427 . S
N1703 C1701 1.384 . S
H1704 C1710 0.930 . S
H1705 C1714 0.930 . S
H1706 C1719 0.929 . S
H1707 C1717 0.929 . S
H1708 C1712 0.929 . S
H1709 C1718 0.929 . S
C1710 H1704 0.930 . S
C1710 C1711 1.367 . S
C1710 C1718 1.378 . S
C1711 C1710 1.367 . S
C1711 C1719 1.433 . S
C1712 H1708 0.929 . S
C1712 C1714 1.378 . S
C1712 C1716 1.350 . S
C1713 C1716 1.463 . S
C1713 C1718 1.350 . S
C1713 N1721 1.427 . S
C1714 H1705 0.930 . S
C1714 C1712 1.378 . S
C1714 C1715 1.367 . S
C1715 C1714 1.367 . S
C1715 C1717 1.433 . S
C1716 C1712 1.350 . S
C1716 C1713 1.463 . S
C1716 N1720 1.427 . S
C1717 H1707 0.929 . S
C1717 C1715 1.433 . S
C1717 N1720 1.384 . S
C1718 H1709 0.929 . S
C1718 C1710 1.378 . S
C1718 C1713 1.350 . S
C1719 H1706 0.929 . S
C1719 C1711 1.433 . S
C1719 N1721 1.384 . S
N1720 C1716 1.427 . S
N1720 C1717 1.384 . S
N1721 C1713 1.427 . S
N1721 C1719 1.384 . S
H1722 C1728 0.930 . S
H1723 C1732 0.930 . S
H1724 C1737 0.929 . S
H1725 C1735 0.929 . S
H1726 C1730 0.921 1_655 S
H1727 C1736 0.929 . S
C1728 H1722 0.930 . S
C1728 C1729 1.367 . S
C1728 C1736 1.378 . S
C1729 C1728 1.367 . S
C1729 C1737 1.433 . S
C1730 H1726 0.921 1_455 S
C1730 C1732 1.378 . S
C1730 C1734 1.350 . S
C1731 C1734 1.463 1_655 S
C1731 C1736 1.350 . S
C1731 N1739 1.427 . S
C1732 H1723 0.930 . S
C1732 C1730 1.378 . S
C1732 C1733 1.367 . S
C1733 C1732 1.367 . S
C1733 C1735 1.433 . S
C1734 C1730 1.350 . S
C1734 C1731 1.463 1_455 S
C1734 N1738 1.427 . S
C1735 H1725 0.929 . S
C1735 C1733 1.433 . S
C1735 N1738 1.384 . S
C1736 H1727 0.929 . S
C1736 C1728 1.378 . S
C1736 C1731 1.350 . S
C1737 H1724 0.929 . S
C1737 C1729 1.433 . S
C1737 N1739 1.384 . S
N1738 C1734 1.427 . S
N1738 C1735 1.384 . S
N1739 C1731 1.427 . S
N1739 C1737 1.384 . S
H1740 C1746 0.930 . S
H1741 C1750 0.930 . S
H1742 C1755 0.929 . S
H1743 C1753 0.929 . S
H1744 C1748 0.929 . S
H1745 C1754 0.929 . S
C1746 H1740 0.930 . S
C1746 C1747 1.367 . S
C1746 C1754 1.378 . S
C1747 C1746 1.367 . S
C1747 C1755 1.433 . S
C1748 H1744 0.929 . S
C1748 C1750 1.378 . S
C1748 C1752 1.350 . S
C1749 C1752 1.463 . S
C1749 C1754 1.350 . S
C1749 N1757 1.427 . S
C1750 H1741 0.930 . S
C1750 C1748 1.378 . S
C1750 C1751 1.367 . S
C1751 C1750 1.367 . S
C1751 C1753 1.433 . S
C1752 C1748 1.350 . S
C1752 C1749 1.463 . S
C1752 N1756 1.427 . S
C1753 H1743 0.929 . S
C1753 C1751 1.433 . S
C1753 N1756 1.384 . S
C1754 H1745 0.929 . S
C1754 C1746 1.378 . S
C1754 C1749 1.350 . S
C1755 H1742 0.929 . S
C1755 C1747 1.433 . S
C1755 N1757 1.384 . S
N1756 C1752 1.427 . S
N1756 C1753 1.384 . S
N1757 C1749 1.427 . S
N1757 C1755 1.384 . S
H1758 C1764 0.930 . S
H1759 C1768 0.930 . S
H1760 C1773 0.929 . S
H1761 C1771 0.929 . S
H1762 C1766 0.929 . S
H1763 C1772 0.929 . S
C1764 H1758 0.930 . S
C1764 C1765 1.367 . S
C1764 C1772 1.378 . S
C1765 C1764 1.367 . S
C1765 C1773 1.433 . S
C1766 H1762 0.929 . S
C1766 C1768 1.378 . S
C1766 C1770 1.350 . S
C1767 C1770 1.463 . S
C1767 C1772 1.350 . S
C1767 N1775 1.427 . S
C1768 H1759 0.930 . S
C1768 C1766 1.378 . S
C1768 C1769 1.367 . S
C1769 C1768 1.367 . S
C1769 C1771 1.433 . S
C1770 C1766 1.350 . S
C1770 C1767 1.463 . S
C1770 N1774 1.427 . S
C1771 H1761 0.929 . S
C1771 C1769 1.433 . S
C1771 N1774 1.384 . S
C1772 H1763 0.929 . S
C1772 C1764 1.378 . S
C1772 C1767 1.350 . S
C1773 H1760 0.929 . S
C1773 C1765 1.433 . S
C1773 N1775 1.384 . S
N1774 C1770 1.427 . S
N1774 C1771 1.384 . S
N1775 C1767 1.427 . S
N1775 C1773 1.384 . S
H1776 C1782 0.930 . S
H1777 C1786 0.930 . S
H1778 C1791 0.929 . S
H1779 C1789 0.929 . S
H1780 C1784 0.929 . S
H1781 C1790 0.929 . S
C1782 H1776 0.930 . S
C1782 C1783 1.367 . S
C1782 C1790 1.378 . S
C1783 C1782 1.367 . S
C1783 C1791 1.433 . S
C1784 H1780 0.929 . S
C1784 C1786 1.378 . S
C1784 C1788 1.350 . S
C1785 C1788 1.463 . S
C1785 C1790 1.350 . S
C1785 N1793 1.427 . S
C1786 H1777 0.930 . S
C1786 C1784 1.378 . S
C1786 C1787 1.367 . S
C1787 C1786 1.367 . S
C1787 C1789 1.433 . S
C1788 C1784 1.350 . S
C1788 C1785 1.463 . S
C1788 N1792 1.427 . S
C1789 H1779 0.929 . S
C1789 C1787 1.433 . S
C1789 N1792 1.384 . S
C1790 H1781 0.929 . S
C1790 C1782 1.378 . S
C1790 C1785 1.350 . S
C1791 H1778 0.929 . S
C1791 C1783 1.433 . S
C1791 N1793 1.384 . S
N1792 C1788 1.427 . S
N1792 C1789 1.384 . S
N1793 C1785 1.427 . S
N1793 C1791 1.384 . S
H1794 C1800 0.930 . S
H1795 C1804 0.930 . S
H1796 C1809 0.929 . S
H1797 C1807 0.929 . S
H1798 C1802 0.929 . S
H1799 C1808 0.929 . S
C1800 H1794 0.930 . S
C1800 C1801 1.367 . S
C1800 C1808 1.378 . S
C1801 C1800 1.367 . S
C1801 C1809 1.433 . S
C1802 H1798 0.929 . S
C1802 C1804 1.378 . S
C1802 C1806 1.350 . S
C1803 C1806 1.463 . S
C1803 C1808 1.350 . S
C1803 N1811 1.427 . S
C1804 H1795 0.930 . S
C1804 C1802 1.378 . S
C1804 C1805 1.367 . S
C1805 C1804 1.367 . S
C1805 C1807 1.433 . S
C1806 C1802 1.350 . S
C1806 C1803 1.463 . S
C1806 N1810 1.427 . S
C1807 H1797 0.929 . S
C1807 C1805 1.433 . S
C1807 N1810 1.384 . S
C1808 H1799 0.929 . S
C1808 C1800 1.378 . S
C1808 C1803 1.350 . S
C1809 H1796 0.929 . S
C1809 C1801 1.433 . S
C1809 N1811 1.384 . S
N1810 C1806 1.427 . S
N1810 C1807 1.384 . S
N1811 C1803 1.427 . S
N1811 C1809 1.384 . S
H1812 C1818 0.930 . S
H1813 C1822 0.930 . S
H1814 C1827 0.929 . S
H1815 C1825 0.929 . S
H1816 C1820 0.929 . S
H1817 C1826 0.929 . S
C1818 H1812 0.930 . S
C1818 C1819 1.367 . S
C1818 C1826 1.378 . S
C1819 C1818 1.367 . S
C1819 C1827 1.433 . S
C1820 H1816 0.929 . S
C1820 C1822 1.378 . S
C1820 C1824 1.350 . S
C1821 C1824 1.463 . S
C1821 C1826 1.350 . S
C1821 N1829 1.427 . S
C1822 H1813 0.930 . S
C1822 C1820 1.378 . S
C1822 C1823 1.367 . S
C1823 C1822 1.367 . S
C1823 C1825 1.433 . S
C1824 C1820 1.350 . S
C1824 C1821 1.463 . S
C1824 N1828 1.427 . S
C1825 H1815 0.929 . S
C1825 C1823 1.433 . S
C1825 N1828 1.384 . S
C1826 H1817 0.929 . S
C1826 C1818 1.378 . S
C1826 C1821 1.350 . S
C1827 H1814 0.929 . S
C1827 C1819 1.433 . S
C1827 N1829 1.384 . S
N1828 C1824 1.427 . S
N1828 C1825 1.384 . S
N1829 C1821 1.427 . S
N1829 C1827 1.384 . S
H1830 C1836 0.930 . S
H1831 C1840 0.930 . S
H1832 C1845 0.929 . S
H1833 C1843 0.929 . S
H1834 C1838 0.929 . S
H1835 C1844 0.929 . S
C1836 H1830 0.930 . S
C1836 C1837 1.367 . S
C1836 C1844 1.378 . S
C1837 C1836 1.367 . S
C1837 C1845 1.433 . S
C1838 H1834 0.929 . S
C1838 C1840 1.378 . S
C1838 C1842 1.350 . S
C1839 C1842 1.463 1_455 S
C1839 C1844 1.350 . S
C1839 N1847 1.427 . S
C1840 H1831 0.930 . S
C1840 C1838 1.378 . S
C1840 C1841 1.367 . S
C1841 C1840 1.367 . S
C1841 C1843 1.433 . S
C1842 C1838 1.350 . S
C1842 C1839 1.463 1_655 S
C1842 N1846 1.427 . S
C1843 H1833 0.929 . S
C1843 C1841 1.433 . S
C1843 N1846 1.384 . S
C1844 H1835 0.929 . S
C1844 C1836 1.378 . S
C1844 C1839 1.350 . S
C1845 H1832 0.929 . S
C1845 C1837 1.433 . S
C1845 N1847 1.384 . S
N1846 C1842 1.427 . S
N1846 C1843 1.384 . S
N1847 C1839 1.427 . S
N1847 C1845 1.384 . S
H1848 C1854 0.930 . S
H1849 C1858 0.930 . S
H1850 C1863 0.929 . S
H1851 C1861 0.929 . S
H1852 C1856 0.929 . S
H1853 C1862 0.929 . S
C1854 H1848 0.930 . S
C1854 C1855 1.367 . S
C1854 C1862 1.378 . S
C1855 C1854 1.367 . S
C1855 C1863 1.433 . S
C1856 H1852 0.929 . S
C1856 C1858 1.378 . S
C1856 C1860 1.350 . S
C1857 C1860 1.463 . S
C1857 C1862 1.350 . S
C1857 N1865 1.427 . S
C1858 H1849 0.930 . S
C1858 C1856 1.378 . S
C1858 C1859 1.367 . S
C1859 C1858 1.367 . S
C1859 C1861 1.433 . S
C1860 C1856 1.350 . S
C1860 C1857 1.463 . S
C1860 N1864 1.427 . S
C1861 H1851 0.929 . S
C1861 C1859 1.433 . S
C1861 N1864 1.384 . S
C1862 H1853 0.929 . S
C1862 C1854 1.378 . S
C1862 C1857 1.350 . S
C1863 H1850 0.929 . S
C1863 C1855 1.433 . S
C1863 N1865 1.384 . S
N1864 C1860 1.427 . S
N1864 C1861 1.384 . S
N1865 C1857 1.427 . S
N1865 C1863 1.384 . S
H1866 C1872 0.930 . S
H1867 C1876 0.930 . S
H1868 C1881 0.929 . S
H1869 C1879 0.929 . S
H1870 C1874 0.929 . S
H1871 C1880 0.929 . S
C1872 H1866 0.930 . S
C1872 C1873 1.367 . S
C1872 C1880 1.378 . S
C1873 C1872 1.367 . S
C1873 C1881 1.433 . S
C1874 H1870 0.929 . S
C1874 C1876 1.378 . S
C1874 C1878 1.350 . S
C1875 C1878 1.463 1_655 S
C1875 C1880 1.350 . S
C1875 N1883 1.427 . S
C1876 H1867 0.930 . S
C1876 C1874 1.378 . S
C1876 C1877 1.367 . S
C1877 C1876 1.367 . S
C1877 C1879 1.433 . S
C1878 C1874 1.350 . S
C1878 C1875 1.463 1_455 S
C1878 N1882 1.427 . S
C1879 H1869 0.929 . S
C1879 C1877 1.433 . S
C1879 N1882 1.384 . S
C1880 H1871 0.929 . S
C1880 C1872 1.378 . S
C1880 C1875 1.350 . S
C1881 H1868 0.929 . S
C1881 C1873 1.433 . S
C1881 N1883 1.384 . S
N1882 C1878 1.427 . S
N1882 C1879 1.384 . S
N1883 C1875 1.427 . S
N1883 C1881 1.384 . S
H1884 C1890 0.930 . S
H1885 C1894 0.930 . S
H1886 C1899 0.929 . S
H1887 C1897 0.929 . S
H1888 C1892 0.929 . S
H1889 C1898 0.929 . S
C1890 H1884 0.930 . S
C1890 C1891 1.367 . S
C1890 C1898 1.378 . S
C1891 C1890 1.367 . S
C1891 C1899 1.433 . S
C1892 H1888 0.929 . S
C1892 C1894 1.378 . S
C1892 C1896 1.350 . S
C1893 C1896 1.463 . S
C1893 C1898 1.350 . S
C1893 N1901 1.427 . S
C1894 H1885 0.930 . S
C1894 C1892 1.378 . S
C1894 C1895 1.367 . S
C1895 C1894 1.367 . S
C1895 C1897 1.433 . S
C1896 C1892 1.350 . S
C1896 C1893 1.463 . S
C1896 N1900 1.427 . S
C1897 H1887 0.929 . S
C1897 C1895 1.433 . S
C1897 N1900 1.384 . S
C1898 H1889 0.929 . S
C1898 C1890 1.378 . S
C1898 C1893 1.350 . S
C1899 H1886 0.929 . S
C1899 C1891 1.433 . S
C1899 N1901 1.384 . S
N1900 C1896 1.427 . S
N1900 C1897 1.384 . S
N1901 C1893 1.427 . S
N1901 C1899 1.384 . S
H1902 C1908 0.930 . S
H1903 C1912 0.930 . S
H1904 C1917 0.929 . S
H1905 C1915 0.929 . S
H1906 C1910 0.929 . S
H1907 C1916 0.929 . S
C1908 H1902 0.930 . S
C1908 C1909 1.367 . S
C1908 C1916 1.378 . S
C1909 C1908 1.367 . S
C1909 C1917 1.433 . S
C1910 H1906 0.929 . S
C1910 C1912 1.378 . S
C1910 C1914 1.350 . S
C1911 C1914 1.463 . S
C1911 C1916 1.350 . S
C1911 N1919 1.427 . S
C1912 H1903 0.930 . S
C1912 C1910 1.378 . S
C1912 C1913 1.367 . S
C1913 C1912 1.367 . S
C1913 C1915 1.433 . S
C1914 C1910 1.350 . S
C1914 C1911 1.463 . S
C1914 N1918 1.427 . S
C1915 H1905 0.929 . S
C1915 C1913 1.433 . S
C1915 N1918 1.384 . S
C1916 H1907 0.929 . S
C1916 C1908 1.378 . S
C1916 C1911 1.350 . S
C1917 H1904 0.929 . S
C1917 C1909 1.433 . S
C1917 N1919 1.384 . S
N1918 C1914 1.427 . S
N1918 C1915 1.384 . S
N1919 C1911 1.427 . S
N1919 C1917 1.384 . S
H1920 C1926 0.930 . S
H1921 C1930 0.930 . S
H1922 C1935 0.929 . S
H1923 C1933 0.929 . S
H1924 C1928 0.929 . S
H1925 C1934 0.929 . S
C1926 H1920 0.930 . S
C1926 C1927 1.367 . S
C1926 C1934 1.378 . S
C1927 C1926 1.367 . S
C1927 C1935 1.433 . S
C1928 H1924 0.929 . S
C1928 C1930 1.378 . S
C1928 C1932 1.350 . S
C1929 C1932 1.463 . S
C1929 C1934 1.350 . S
C1929 N1937 1.427 . S
C1930 H1921 0.930 . S
C1930 C1928 1.378 . S
C1930 C1931 1.367 . S
C1931 C1930 1.367 . S
C1931 C1933 1.433 . S
C1932 C1928 1.350 . S
C1932 C1929 1.463 . S
C1932 N1936 1.427 . S
C1933 H1923 0.929 . S
C1933 C1931 1.433 . S
C1933 N1936 1.384 . S
C1934 H1925 0.929 . S
C1934 C1926 1.378 . S
C1934 C1929 1.350 . S
C1935 H1922 0.929 . S
C1935 C1927 1.433 . S
C1935 N1937 1.384 . S
N1936 C1932 1.427 . S
N1936 C1933 1.384 . S
N1937 C1929 1.427 . S
N1937 C1935 1.384 . S
H1938 C1944 0.930 . S
H1939 C1948 0.930 . S
H1940 C1953 0.929 . S
H1941 C1951 0.929 . S
H1942 C1946 0.929 . S
H1943 C1952 0.929 . S
C1944 H1938 0.930 . S
C1944 C1945 1.367 . S
C1944 C1952 1.378 . S
C1945 C1944 1.367 . S
C1945 C1953 1.433 . S
C1946 H1942 0.929 . S
C1946 C1948 1.378 . S
C1946 C1950 1.350 . S
C1947 C1950 1.463 1_655 S
C1947 C1952 1.350 . S
C1947 N1955 1.427 . S
C1948 H1939 0.930 . S
C1948 C1946 1.378 . S
C1948 C1949 1.367 . S
C1949 C1948 1.367 . S
C1949 C1951 1.433 . S
C1950 C1946 1.350 . S
C1950 C1947 1.463 1_455 S
C1950 N1954 1.427 . S
C1951 H1941 0.929 . S
C1951 C1949 1.433 . S
C1951 N1954 1.384 . S
C1952 H1943 0.929 . S
C1952 C1944 1.378 . S
C1952 C1947 1.350 . S
C1953 H1940 0.929 . S
C1953 C1945 1.433 . S
C1953 N1955 1.384 . S
N1954 C1950 1.427 . S
N1954 C1951 1.384 . S
N1955 C1947 1.427 . S
N1955 C1953 1.384 . S
H1956 C1962 0.930 . S
H1957 C1966 0.930 . S
H1958 C1971 0.929 . S
H1959 C1969 0.929 . S
H1960 C1964 0.929 . S
H1961 C1970 0.929 . S
C1962 H1956 0.930 . S
C1962 C1963 1.367 . S
C1962 C1970 1.378 . S
C1963 C1962 1.367 . S
C1963 C1971 1.433 . S
C1964 H1960 0.929 . S
C1964 C1966 1.378 . S
C1964 C1968 1.350 . S
C1965 C1968 1.463 1_655 S
C1965 C1970 1.350 . S
C1965 N1973 1.427 . S
C1966 H1957 0.930 . S
C1966 C1964 1.378 . S
C1966 C1967 1.367 . S
C1967 C1966 1.367 . S
C1967 C1969 1.433 . S
C1968 C1964 1.350 . S
C1968 C1965 1.463 1_455 S
C1968 N1972 1.427 . S
C1969 H1959 0.929 . S
C1969 C1967 1.433 . S
C1969 N1972 1.384 . S
C1970 H1961 0.929 . S
C1970 C1962 1.378 . S
C1970 C1965 1.350 . S
C1971 H1958 0.929 . S
C1971 C1963 1.433 . S
C1971 N1973 1.384 . S
N1972 C1968 1.427 . S
N1972 C1969 1.384 . S
N1973 C1965 1.427 . S
N1973 C1971 1.384 . S
H1974 C1980 0.930 . S
H1975 C1984 0.930 . S
H1976 C1989 0.929 . S
H1977 C1987 0.929 . S
H1978 C1982 0.929 . S
H1979 C1988 0.929 . S
C1980 H1974 0.930 . S
C1980 C1981 1.367 . S
C1980 C1988 1.378 . S
C1981 C1980 1.367 . S
C1981 C1989 1.433 . S
C1982 H1978 0.929 . S
C1982 C1984 1.378 . S
C1982 C1986 1.350 . S
C1983 C1986 1.463 . S
C1983 C1988 1.350 . S
C1983 N1991 1.427 . S
C1984 H1975 0.930 . S
C1984 C1982 1.378 . S
C1984 C1985 1.367 . S
C1985 C1984 1.367 . S
C1985 C1987 1.433 . S
C1986 C1982 1.350 . S
C1986 C1983 1.463 . S
C1986 N1990 1.427 . S
C1987 H1977 0.929 . S
C1987 C1985 1.433 . S
C1987 N1990 1.384 . S
C1988 H1979 0.929 . S
C1988 C1980 1.378 . S
C1988 C1983 1.350 . S
C1989 H1976 0.929 . S
C1989 C1981 1.433 . S
C1989 N1991 1.384 . S
N1990 C1986 1.427 . S
N1990 C1987 1.384 . S
N1991 C1983 1.427 . S
N1991 C1989 1.384 . S
H1992 C1998 0.930 . S
H1993 C2002 0.930 . S
H1994 C2007 0.929 . S
H1995 C2005 0.929 . S
H1996 C2000 0.929 . S
H1997 C2006 0.929 . S
C1998 H1992 0.930 . S
C1998 C1999 1.367 . S
C1998 C2006 1.378 . S
C1999 C1998 1.367 . S
C1999 C2007 1.433 . S
C2000 H1996 0.929 . S
C2000 C2002 1.378 . S
C2000 C2004 1.350 . S
C2001 C2004 1.463 . S
C2001 C2006 1.350 . S
C2001 N2009 1.427 . S
C2002 H1993 0.930 . S
C2002 C2000 1.378 . S
C2002 C2003 1.367 . S
C2003 C2002 1.367 . S
C2003 C2005 1.433 . S
C2004 C2000 1.350 . S
C2004 C2001 1.463 . S
C2004 N2008 1.427 . S
C2005 H1995 0.929 . S
C2005 C2003 1.433 . S
C2005 N2008 1.384 . S
C2006 H1997 0.929 . S
C2006 C1998 1.378 . S
C2006 C2001 1.350 . S
C2007 H1994 0.929 . S
C2007 C1999 1.433 . S
C2007 N2009 1.384 . S
N2008 C2004 1.427 . S
N2008 C2005 1.384 . S
N2009 C2001 1.427 . S
N2009 C2007 1.384 . S
H2010 C2016 0.930 . S
H2011 C2020 0.930 . S
H2012 C2025 0.929 . S
H2013 C2023 0.929 . S
H2014 C2018 0.929 . S
H2015 C2024 0.929 . S
C2016 H2010 0.930 . S
C2016 C2017 1.367 . S
C2016 C2024 1.378 . S
C2017 C2016 1.367 . S
C2017 C2025 1.433 . S
C2018 H2014 0.929 . S
C2018 C2020 1.378 . S
C2018 C2022 1.350 . S
C2019 C2022 1.463 . S
C2019 C2024 1.350 . S
C2019 N2027 1.427 . S
C2020 H2011 0.930 . S
C2020 C2018 1.378 . S
C2020 C2021 1.367 . S
C2021 C2020 1.367 . S
C2021 C2023 1.433 . S
C2022 C2018 1.350 . S
C2022 C2019 1.463 . S
C2022 N2026 1.427 . S
C2023 H2013 0.929 . S
C2023 C2021 1.433 . S
C2023 N2026 1.384 . S
C2024 H2015 0.929 . S
C2024 C2016 1.378 . S
C2024 C2019 1.350 . S
C2025 H2012 0.929 . S
C2025 C2017 1.433 . S
C2025 N2027 1.384 . S
N2026 C2022 1.427 . S
N2026 C2023 1.384 . S
N2027 C2019 1.427 . S
N2027 C2025 1.384 . S
H2028 C2034 0.930 . S
H2029 C2038 0.930 . S
H2030 C2043 0.929 . S
H2031 C2041 0.929 . S
H2032 C2036 0.929 . S
H2033 C2042 0.929 . S
C2034 H2028 0.930 . S
C2034 C2035 1.367 . S
C2034 C2042 1.378 . S
C2035 C2034 1.367 . S
C2035 C2043 1.433 . S
C2036 H2032 0.929 . S
C2036 C2038 1.378 . S
C2036 C2040 1.350 . S
C2037 C2040 1.463 1_455 S
C2037 C2042 1.350 . S
C2037 N2045 1.427 . S
C2038 H2029 0.930 . S
C2038 C2036 1.378 . S
C2038 C2039 1.367 . S
C2039 C2038 1.367 . S
C2039 C2041 1.433 . S
C2040 C2036 1.350 . S
C2040 C2037 1.463 1_655 S
C2040 N2044 1.427 . S
C2041 H2031 0.929 . S
C2041 C2039 1.433 . S
C2041 N2044 1.384 . S
C2042 H2033 0.929 . S
C2042 C2034 1.378 . S
C2042 C2037 1.350 . S
C2043 H2030 0.929 . S
C2043 C2035 1.433 . S
C2043 N2045 1.384 . S
N2044 C2040 1.427 . S
N2044 C2041 1.384 . S
N2045 C2037 1.427 . S
N2045 C2043 1.384 . S
H2046 C2052 0.930 . S
H2047 C2056 0.930 . S
H2048 C2061 0.929 . S
H2049 C2059 0.929 . S
H2050 C2054 0.929 . S
H2051 C2060 0.929 . S
C2052 H2046 0.930 . S
C2052 C2053 1.367 . S
C2052 C2060 1.378 . S
C2053 C2052 1.367 . S
C2053 C2061 1.433 . S
C2054 H2050 0.929 . S
C2054 C2056 1.378 . S
C2054 C2058 1.350 . S
C2055 C2058 1.463 1_655 S
C2055 C2060 1.350 . S
C2055 N2063 1.427 . S
C2056 H2047 0.930 . S
C2056 C2054 1.378 . S
C2056 C2057 1.367 . S
C2057 C2056 1.367 . S
C2057 C2059 1.433 . S
C2058 C2054 1.350 . S
C2058 C2055 1.463 1_455 S
C2058 N2062 1.427 . S
C2059 H2049 0.929 . S
C2059 C2057 1.433 . S
C2059 N2062 1.384 . S
C2060 H2051 0.929 . S
C2060 C2052 1.378 . S
C2060 C2055 1.350 . S
C2061 H2048 0.929 . S
C2061 C2053 1.433 . S
C2061 N2063 1.384 . S
N2062 C2058 1.427 . S
N2062 C2059 1.384 . S
N2063 C2055 1.427 . S
N2063 C2061 1.384 . S
H2064 C2070 0.930 . S
H2065 C2074 0.930 . S
H2066 C2079 0.929 . S
H2067 C2077 0.929 . S
H2068 C2072 0.929 . S
H2069 C2078 0.929 . S
C2070 H2064 0.930 . S
C2070 C2071 1.367 . S
C2070 C2078 1.378 . S
C2071 C2070 1.367 . S
C2071 C2079 1.433 . S
C2072 H2068 0.929 . S
C2072 C2074 1.378 . S
C2072 C2076 1.350 . S
C2073 C2076 1.463 . S
C2073 C2078 1.350 . S
C2073 N2081 1.427 . S
C2074 H2065 0.930 . S
C2074 C2072 1.378 . S
C2074 C2075 1.367 . S
C2075 C2074 1.367 . S
C2075 C2077 1.433 . S
C2076 C2072 1.350 . S
C2076 C2073 1.463 . S
C2076 N2080 1.427 . S
C2077 H2067 0.929 . S
C2077 C2075 1.433 . S
C2077 N2080 1.384 . S
C2078 H2069 0.929 . S
C2078 C2070 1.378 . S
C2078 C2073 1.350 . S
C2079 H2066 0.929 . S
C2079 C2071 1.433 . S
C2079 N2081 1.384 . S
N2080 C2076 1.427 . S
N2080 C2077 1.384 . S
N2081 C2073 1.427 . S
N2081 C2079 1.384 . S
H2082 C2088 0.930 . S
H2083 C2092 0.930 . S
H2084 C2097 0.929 . S
H2085 C2095 0.929 . S
H2086 C2090 0.929 . S
H2087 C2096 0.929 . S
C2088 H2082 0.930 . S
C2088 C2089 1.367 . S
C2088 C2096 1.378 . S
C2089 C2088 1.367 . S
C2089 C2097 1.433 . S
C2090 H2086 0.929 . S
C2090 C2092 1.378 . S
C2090 C2094 1.350 . S
C2091 C2094 1.463 1_655 S
C2091 C2096 1.350 . S
C2091 N2099 1.427 . S
C2092 H2083 0.930 . S
C2092 C2090 1.378 . S
C2092 C2093 1.367 . S
C2093 C2092 1.367 . S
C2093 C2095 1.433 . S
C2094 C2090 1.350 . S
C2094 C2091 1.463 1_455 S
C2094 N2098 1.427 . S
C2095 H2085 0.929 . S
C2095 C2093 1.433 . S
C2095 N2098 1.384 . S
C2096 H2087 0.929 . S
C2096 C2088 1.378 . S
C2096 C2091 1.350 . S
C2097 H2084 0.929 . S
C2097 C2089 1.433 . S
C2097 N2099 1.384 . S
N2098 C2094 1.427 . S
N2098 C2095 1.384 . S
N2099 C2091 1.427 . S
N2099 C2097 1.384 . S
H2100 C2106 0.930 . S
H2101 C2110 0.930 . S
H2102 C2115 0.929 . S
H2103 C2113 0.929 . S
H2104 C2108 0.929 . S
H2105 C2114 0.929 . S
C2106 H2100 0.930 . S
C2106 C2107 1.367 . S
C2106 C2114 1.378 . S
C2107 C2106 1.367 . S
C2107 C2115 1.433 . S
C2108 H2104 0.929 . S
C2108 C2110 1.378 . S
C2108 C2112 1.350 . S
C2109 C2112 1.463 1_655 S
C2109 C2114 1.350 . S
C2109 N2117 1.427 . S
C2110 H2101 0.930 . S
C2110 C2108 1.378 . S
C2110 C2111 1.367 . S
C2111 C2110 1.367 . S
C2111 C2113 1.433 . S
C2112 C2108 1.350 . S
C2112 C2109 1.463 1_455 S
C2112 N2116 1.427 . S
C2113 H2103 0.929 . S
C2113 C2111 1.433 . S
C2113 N2116 1.384 . S
C2114 H2105 0.929 . S
C2114 C2106 1.378 . S
C2114 C2109 1.350 . S
C2115 H2102 0.929 . S
C2115 C2107 1.433 . S
C2115 N2117 1.384 . S
N2116 C2112 1.427 . S
N2116 C2113 1.384 . S
N2117 C2109 1.427 . S
N2117 C2115 1.384 . S
H2118 C2124 0.930 . S
H2119 C2128 0.930 . S
H2120 C2133 0.929 . S
H2121 C2131 0.929 . S
H2122 C2126 0.929 . S
H2123 C2132 0.929 . S
C2124 H2118 0.930 . S
C2124 C2125 1.367 . S
C2124 C2132 1.378 . S
C2125 C2124 1.367 . S
C2125 C2133 1.433 . S
C2126 H2122 0.929 . S
C2126 C2128 1.378 . S
C2126 C2130 1.350 . S
C2127 C2130 1.463 . S
C2127 C2132 1.350 . S
C2127 N2135 1.427 . S
C2128 H2119 0.930 . S
C2128 C2126 1.378 . S
C2128 C2129 1.367 . S
C2129 C2128 1.367 . S
C2129 C2131 1.433 . S
C2130 C2126 1.350 . S
C2130 C2127 1.463 . S
C2130 N2134 1.427 . S
C2131 H2121 0.929 . S
C2131 C2129 1.433 . S
C2131 N2134 1.384 . S
C2132 H2123 0.929 . S
C2132 C2124 1.378 . S
C2132 C2127 1.350 . S
C2133 H2120 0.929 . S
C2133 C2125 1.433 . S
C2133 N2135 1.384 . S
N2134 C2130 1.427 . S
N2134 C2131 1.384 . S
N2135 C2127 1.427 . S
N2135 C2133 1.384 . S
H2136 C2142 0.930 . S
H2137 C2146 0.930 . S
H2138 C2151 0.929 . S
H2139 C2149 0.929 . S
H2140 C2144 0.929 . S
H2141 C2150 0.929 . S
C2142 H2136 0.930 . S
C2142 C2143 1.367 . S
C2142 C2150 1.378 . S
C2143 C2142 1.367 . S
C2143 C2151 1.433 . S
C2144 H2140 0.929 . S
C2144 C2146 1.378 . S
C2144 C2148 1.350 . S
C2145 C2148 1.463 . S
C2145 C2150 1.350 . S
C2145 N2153 1.427 . S
C2146 H2137 0.930 . S
C2146 C2144 1.378 . S
C2146 C2147 1.367 . S
C2147 C2146 1.367 . S
C2147 C2149 1.433 . S
C2148 C2144 1.350 . S
C2148 C2145 1.463 . S
C2148 N2152 1.427 . S
C2149 H2139 0.929 . S
C2149 C2147 1.433 . S
C2149 N2152 1.384 . S
C2150 H2141 0.929 . S
C2150 C2142 1.378 . S
C2150 C2145 1.350 . S
C2151 H2138 0.929 . S
C2151 C2143 1.433 . S
C2151 N2153 1.384 . S
N2152 C2148 1.427 . S
N2152 C2149 1.384 . S
N2153 C2145 1.427 . S
N2153 C2151 1.384 . S
H2154 C2160 0.930 . S
H2155 C2164 0.930 . S
H2156 C2169 0.929 . S
H2157 C2167 0.929 . S
H2158 C2162 0.929 . S
H2159 C2168 0.929 . S
C2160 H2154 0.930 . S
C2160 C2161 1.367 . S
C2160 C2168 1.378 . S
C2161 C2160 1.367 . S
C2161 C2169 1.433 . S
C2162 H2158 0.929 . S
C2162 C2164 1.378 . S
C2162 C2166 1.350 . S
C2163 C2166 1.463 . S
C2163 C2168 1.350 . S
C2163 N2171 1.427 . S
C2164 H2155 0.930 . S
C2164 C2162 1.378 . S
C2164 C2165 1.367 . S
C2165 C2164 1.367 . S
C2165 C2167 1.433 . S
C2166 C2162 1.350 . S
C2166 C2163 1.463 . S
C2166 N2170 1.427 . S
C2167 H2157 0.929 . S
C2167 C2165 1.433 . S
C2167 N2170 1.384 . S
C2168 H2159 0.929 . S
C2168 C2160 1.378 . S
C2168 C2163 1.350 . S
C2169 H2156 0.929 . S
C2169 C2161 1.433 . S
C2169 N2171 1.384 . S
N2170 C2166 1.427 . S
N2170 C2167 1.384 . S
N2171 C2163 1.427 . S
N2171 C2169 1.384 . S
H2172 C2178 0.930 . S
H2173 C2182 0.930 . S
H2174 C2187 0.929 . S
H2175 C2185 0.929 . S
H2176 C2180 0.929 1_655 S
H2177 C2186 0.929 1_455 S
C2178 H2172 0.930 . S
C2178 C2179 1.367 . S
C2178 C2186 1.378 . S
C2179 C2178 1.367 . S
C2179 C2187 1.433 . S
C2180 H2176 0.929 1_455 S
C2180 C2182 1.378 . S
C2180 C2184 1.350 . S
C2181 C2184 1.463 1_655 S
C2181 C2186 1.350 . S
C2181 N2189 1.427 . S
C2182 H2173 0.930 . S
C2182 C2180 1.378 . S
C2182 C2183 1.367 . S
C2183 C2182 1.367 . S
C2183 C2185 1.433 . S
C2184 C2180 1.350 . S
C2184 C2181 1.463 1_455 S
C2184 N2188 1.427 . S
C2185 H2175 0.929 . S
C2185 C2183 1.433 . S
C2185 N2188 1.384 . S
C2186 H2177 0.929 1_655 S
C2186 C2178 1.378 . S
C2186 C2181 1.350 . S
C2187 H2174 0.929 . S
C2187 C2179 1.433 . S
C2187 N2189 1.384 . S
N2188 C2184 1.427 . S
N2188 C2185 1.384 . S
N2189 C2181 1.427 . S
N2189 C2187 1.384 . S
H2190 C2196 0.930 . S
H2191 C2200 0.930 . S
H2192 C2205 0.929 . S
H2193 C2203 0.929 . S
H2194 C2198 0.929 1_655 S
H2195 C2204 0.929 1_455 S
C2196 H2190 0.930 . S
C2196 C2197 1.367 . S
C2196 C2204 1.378 . S
C2197 C2196 1.367 . S
C2197 C2205 1.433 . S
C2198 H2194 0.929 1_455 S
C2198 C2200 1.378 . S
C2198 C2202 1.350 . S
C2199 C2202 1.463 1_655 S
C2199 C2204 1.350 . S
C2199 N2207 1.427 . S
C2200 H2191 0.930 . S
C2200 C2198 1.378 . S
C2200 C2201 1.367 . S
C2201 C2200 1.367 . S
C2201 C2203 1.433 . S
C2202 C2198 1.350 . S
C2202 C2199 1.463 1_455 S
C2202 N2206 1.427 . S
C2203 H2193 0.929 . S
C2203 C2201 1.433 . S
C2203 N2206 1.384 . S
C2204 H2195 0.929 1_655 S
C2204 C2196 1.378 . S
C2204 C2199 1.350 . S
C2205 H2192 0.929 . S
C2205 C2197 1.433 . S
C2205 N2207 1.384 . S
N2206 C2202 1.427 . S
N2206 C2203 1.384 . S
N2207 C2199 1.427 . S
N2207 C2205 1.384 . S
H2208 C2214 0.930 . S
H2209 C2218 0.930 . S
H2210 C2223 0.929 . S
H2211 C2221 0.929 . S
H2212 C2216 0.929 . S
H2213 C2222 0.929 . S
C2214 H2208 0.930 . S
C2214 C2215 1.367 . S
C2214 C2222 1.378 . S
C2215 C2214 1.367 . S
C2215 C2223 1.433 . S
C2216 H2212 0.929 . S
C2216 C2218 1.378 . S
C2216 C2220 1.350 . S
C2217 C2220 1.463 1_565 S
C2217 C2222 1.350 . S
C2217 N2225 1.427 . S
C2218 H2209 0.930 . S
C2218 C2216 1.378 . S
C2218 C2219 1.367 . S
C2219 C2218 1.367 . S
C2219 C2221 1.433 . S
C2220 C2216 1.350 . S
C2220 C2217 1.463 1_545 S
C2220 N2224 1.427 . S
C2221 H2211 0.929 . S
C2221 C2219 1.433 . S
C2221 N2224 1.384 . S
C2222 H2213 0.929 . S
C2222 C2214 1.378 . S
C2222 C2217 1.350 . S
C2223 H2210 0.929 . S
C2223 C2215 1.433 . S
C2223 N2225 1.384 . S
N2224 C2220 1.427 . S
N2224 C2221 1.384 . S
N2225 C2217 1.427 . S
N2225 C2223 1.384 . S
H2226 C2232 0.930 . S
H2227 C2236 0.930 . S
H2228 C2241 0.929 . S
H2229 C2239 0.929 . S
H2230 C2234 0.929 . S
H2231 C2240 0.929 . S
C2232 H2226 0.930 . S
C2232 C2233 1.367 . S
C2232 C2240 1.378 . S
C2233 C2232 1.367 . S
C2233 C2241 1.433 . S
C2234 H2230 0.929 . S
C2234 C2236 1.378 . S
C2234 C2238 1.350 . S
C2235 C2238 1.463 . S
C2235 C2240 1.350 . S
C2235 N2243 1.427 . S
C2236 H2227 0.930 . S
C2236 C2234 1.378 . S
C2236 C2237 1.367 . S
C2237 C2236 1.367 . S
C2237 C2239 1.433 . S
C2238 C2234 1.350 . S
C2238 C2235 1.463 . S
C2238 N2242 1.427 . S
C2239 H2229 0.929 . S
C2239 C2237 1.433 . S
C2239 N2242 1.384 . S
C2240 H2231 0.929 . S
C2240 C2232 1.378 . S
C2240 C2235 1.350 . S
C2241 H2228 0.929 . S
C2241 C2233 1.433 . S
C2241 N2243 1.384 . S
N2242 C2238 1.427 . S
N2242 C2239 1.384 . S
N2243 C2235 1.427 . S
N2243 C2241 1.384 . S
H2244 C2250 0.930 . S
H2245 C2254 0.930 . S
H2246 C2259 0.929 . S
H2247 C2257 0.929 . S
H2248 C2252 0.929 . S
H2249 C2258 0.929 . S
C2250 H2244 0.930 . S
C2250 C2251 1.367 . S
C2250 C2258 1.378 . S
C2251 C2250 1.367 . S
C2251 C2259 1.433 . S
C2252 H2248 0.929 . S
C2252 C2254 1.378 . S
C2252 C2256 1.350 . S
C2253 C2256 1.463 1_565 S
C2253 C2258 1.350 . S
C2253 N2261 1.427 1_565 S
C2254 H2245 0.930 . S
C2254 C2252 1.378 . S
C2254 C2255 1.367 . S
C2255 C2254 1.367 . S
C2255 C2257 1.433 . S
C2256 C2252 1.350 . S
C2256 C2253 1.463 1_545 S
C2256 N2260 1.427 1_545 S
C2257 H2247 0.929 . S
C2257 C2255 1.433 . S
C2257 N2260 1.384 1_545 S
C2258 H2249 0.929 . S
C2258 C2250 1.378 . S
C2258 C2253 1.350 . S
C2259 H2246 0.929 . S
C2259 C2251 1.433 . S
C2259 N2261 1.384 1_565 S
N2260 C2256 1.427 1_565 S
N2260 C2257 1.384 1_565 S
N2261 C2253 1.427 1_545 S
N2261 C2259 1.384 1_545 S
H2262 C2268 0.930 . S
H2263 C2272 0.930 . S
H2264 C2277 0.929 . S
H2265 C2275 0.929 . S
H2266 C2270 0.929 . S
H2267 C2276 0.929 . S
C2268 H2262 0.930 . S
C2268 C2269 1.367 . S
C2268 C2276 1.378 . S
C2269 C2268 1.367 . S
C2269 C2277 1.433 . S
C2270 H2266 0.929 . S
C2270 C2272 1.378 . S
C2270 C2274 1.350 . S
C2271 C2274 1.463 1_554 S
C2271 C2276 1.350 . S
C2271 N2279 1.427 . S
C2272 H2263 0.930 . S
C2272 C2270 1.378 . S
C2272 C2273 1.367 . S
C2273 C2272 1.367 . S
C2273 C2275 1.433 . S
C2274 C2270 1.350 . S
C2274 C2271 1.463 1_556 S
C2274 N2278 1.427 . S
C2275 H2265 0.929 . S
C2275 C2273 1.433 . S
C2275 N2278 1.384 . S
C2276 H2267 0.929 . S
C2276 C2268 1.378 . S
C2276 C2271 1.350 . S
C2277 H2264 0.929 . S
C2277 C2269 1.433 . S
C2277 N2279 1.384 . S
N2278 C2274 1.427 . S
N2278 C2275 1.384 . S
N2279 C2271 1.427 . S
N2279 C2277 1.384 . S
H2280 C2286 0.930 . S
H2281 C2290 0.930 . S
H2282 C2295 0.929 . S
H2283 C2293 0.929 . S
H2284 C2288 0.929 1_565 S
H2285 C2294 0.929 1_545 S
C2286 H2280 0.930 . S
C2286 C2287 1.367 . S
C2286 C2294 1.378 . S
C2287 C2286 1.367 . S
C2287 C2295 1.433 . S
C2288 H2284 0.929 1_545 S
C2288 C2290 1.378 . S
C2288 C2292 1.350 . S
C2289 C2292 1.463 1_565 S
C2289 C2294 1.350 . S
C2289 N2297 1.427 . S
C2290 H2281 0.930 . S
C2290 C2288 1.378 . S
C2290 C2291 1.367 . S
C2291 C2290 1.367 . S
C2291 C2293 1.433 . S
C2292 C2288 1.350 . S
C2292 C2289 1.463 1_545 S
C2292 N2296 1.427 . S
C2293 H2283 0.929 . S
C2293 C2291 1.433 . S
C2293 N2296 1.384 . S
C2294 H2285 0.929 1_565 S
C2294 C2286 1.378 . S
C2294 C2289 1.350 . S
C2295 H2282 0.929 . S
C2295 C2287 1.433 . S
C2295 N2297 1.384 . S
N2296 C2292 1.427 . S
N2296 C2293 1.384 . S
N2297 C2289 1.427 . S
N2297 C2295 1.384 . S
H2298 C2304 0.930 . S
H2299 C2308 0.930 . S
H2300 C2313 0.929 . S
H2301 C2311 0.929 . S
H2302 C2306 0.929 . S
H2303 C2312 0.929 . S
C2304 H2298 0.930 . S
C2304 C2305 1.367 . S
C2304 C2312 1.378 . S
C2305 C2304 1.367 . S
C2305 C2313 1.433 . S
C2306 H2302 0.929 . S
C2306 C2308 1.378 . S
C2306 C2310 1.350 . S
C2307 C2310 1.463 . S
C2307 C2312 1.350 . S
C2307 N2315 1.427 . S
C2308 H2299 0.930 . S
C2308 C2306 1.378 . S
C2308 C2309 1.367 . S
C2309 C2308 1.367 . S
C2309 C2311 1.433 . S
C2310 C2306 1.350 . S
C2310 C2307 1.463 . S
C2310 N2314 1.427 . S
C2311 H2301 0.929 . S
C2311 C2309 1.433 . S
C2311 N2314 1.384 . S
C2312 H2303 0.929 . S
C2312 C2304 1.378 . S
C2312 C2307 1.350 . S
C2313 H2300 0.929 . S
C2313 C2305 1.433 . S
C2313 N2315 1.384 . S
N2314 C2310 1.427 . S
N2314 C2311 1.384 . S
N2315 C2307 1.427 . S
N2315 C2313 1.384 . S
H2316 C2322 0.930 . S
H2317 C2326 0.930 . S
H2318 C2331 0.929 . S
H2319 C2329 0.929 . S
H2320 C2324 0.929 1_545 S
H2321 C2330 0.929 1_565 S
C2322 H2316 0.930 . S
C2322 C2323 1.367 . S
C2322 C2330 1.378 . S
C2323 C2322 1.367 . S
C2323 C2331 1.433 . S
C2324 H2320 0.929 1_565 S
C2324 C2326 1.378 . S
C2324 C2328 1.350 . S
C2325 C2328 1.463 1_545 S
C2325 C2330 1.350 . S
C2325 N2333 1.427 . S
C2326 H2317 0.930 . S
C2326 C2324 1.378 . S
C2326 C2327 1.367 . S
C2327 C2326 1.367 . S
C2327 C2329 1.433 . S
C2328 C2324 1.350 . S
C2328 C2325 1.463 1_565 S
C2328 N2332 1.427 . S
C2329 H2319 0.929 . S
C2329 C2327 1.433 . S
C2329 N2332 1.384 . S
C2330 H2321 0.929 1_545 S
C2330 C2322 1.378 . S
C2330 C2325 1.350 . S
C2331 H2318 0.929 . S
C2331 C2323 1.433 . S
C2331 N2333 1.384 . S
N2332 C2328 1.427 . S
N2332 C2329 1.384 . S
N2333 C2325 1.427 . S
N2333 C2331 1.384 . S
H2334 C2340 0.930 . S
H2335 C2344 0.930 . S
H2336 C2349 0.929 . S
H2337 C2347 0.929 . S
H2338 C2342 0.929 . S
H2339 C2348 0.929 . S
C2340 H2334 0.930 . S
C2340 C2341 1.367 . S
C2340 C2348 1.378 . S
C2341 C2340 1.367 . S
C2341 C2349 1.433 . S
C2342 H2338 0.929 . S
C2342 C2344 1.378 . S
C2342 C2346 1.350 . S
C2343 C2346 1.463 1_556 S
C2343 C2348 1.350 . S
C2343 N2351 1.427 . S
C2344 H2335 0.930 . S
C2344 C2342 1.378 . S
C2344 C2345 1.367 . S
C2345 C2344 1.367 . S
C2345 C2347 1.433 . S
C2346 C2342 1.350 . S
C2346 C2343 1.463 1_554 S
C2346 N2350 1.427 . S
C2347 H2337 0.929 . S
C2347 C2345 1.433 . S
C2347 N2350 1.384 . S
C2348 H2339 0.929 . S
C2348 C2340 1.378 . S
C2348 C2343 1.350 . S
C2349 H2336 0.929 . S
C2349 C2341 1.433 . S
C2349 N2351 1.384 . S
N2350 C2346 1.427 . S
N2350 C2347 1.384 . S
N2351 C2343 1.427 . S
N2351 C2349 1.384 . S
H2352 C2358 0.930 . S
H2353 C2362 0.930 . S
H2354 C2367 0.929 . S
H2355 C2365 0.929 . S
H2356 C2360 0.929 . S
H2357 C2366 0.929 . S
C2358 H2352 0.930 . S
C2358 C2359 1.367 . S
C2358 C2366 1.378 . S
C2359 C2358 1.367 . S
C2359 C2367 1.433 . S
C2360 H2356 0.929 . S
C2360 C2362 1.378 . S
C2360 C2364 1.350 . S
C2361 C2364 1.463 . S
C2361 C2366 1.350 . S
C2361 N2369 1.427 . S
C2362 H2353 0.930 . S
C2362 C2360 1.378 . S
C2362 C2363 1.367 . S
C2363 C2362 1.367 . S
C2363 C2365 1.433 . S
C2364 C2360 1.350 . S
C2364 C2361 1.463 . S
C2364 N2368 1.427 . S
C2365 H2355 0.929 . S
C2365 C2363 1.433 . S
C2365 N2368 1.384 . S
C2366 H2357 0.929 . S
C2366 C2358 1.378 . S
C2366 C2361 1.350 . S
C2367 H2354 0.929 . S
C2367 C2359 1.433 . S
C2367 N2369 1.384 . S
N2368 C2364 1.427 . S
N2368 C2365 1.384 . S
N2369 C2361 1.427 . S
N2369 C2367 1.384 . S
H2370 C2376 0.930 . S
H2371 C2380 0.930 . S
H2372 C2385 0.929 . S
H2373 C2383 0.929 . S
H2374 C2378 0.929 . S
H2375 C2384 0.929 . S
C2376 H2370 0.930 . S
C2376 C2377 1.367 . S
C2376 C2384 1.378 . S
C2377 C2376 1.367 . S
C2377 C2385 1.433 . S
C2378 H2374 0.929 . S
C2378 C2380 1.378 . S
C2378 C2382 1.350 . S
C2379 C2382 1.463 1_554 S
C2379 C2384 1.350 . S
C2379 N2387 1.427 . S
C2380 H2371 0.930 . S
C2380 C2378 1.378 . S
C2380 C2381 1.367 . S
C2381 C2380 1.367 . S
C2381 C2383 1.433 . S
C2382 C2378 1.350 . S
C2382 C2379 1.463 1_556 S
C2382 N2386 1.427 . S
C2383 H2373 0.929 . S
C2383 C2381 1.433 . S
C2383 N2386 1.384 . S
C2384 H2375 0.929 . S
C2384 C2376 1.378 . S
C2384 C2379 1.350 . S
C2385 H2372 0.929 . S
C2385 C2377 1.433 . S
C2385 N2387 1.384 . S
N2386 C2382 1.427 . S
N2386 C2383 1.384 . S
N2387 C2379 1.427 . S
N2387 C2385 1.384 . S
H2388 C2394 0.930 . S
H2389 C2398 0.930 . S
H2390 C2403 0.929 . S
H2391 C2401 0.929 . S
H2392 C2396 0.929 . S
H2393 C2402 0.929 . S
C2394 H2388 0.930 . S
C2394 C2395 1.367 . S
C2394 C2402 1.378 . S
C2395 C2394 1.367 . S
C2395 C2403 1.433 . S
C2396 H2392 0.929 . S
C2396 C2398 1.378 . S
C2396 C2400 1.350 . S
C2397 C2400 1.463 . S
C2397 C2402 1.350 . S
C2397 N2405 1.427 . S
C2398 H2389 0.930 . S
C2398 C2396 1.378 . S
C2398 C2399 1.367 . S
C2399 C2398 1.367 . S
C2399 C2401 1.433 . S
C2400 C2396 1.350 . S
C2400 C2397 1.463 . S
C2400 N2404 1.427 . S
C2401 H2391 0.929 . S
C2401 C2399 1.433 . S
C2401 N2404 1.384 . S
C2402 H2393 0.929 . S
C2402 C2394 1.378 . S
C2402 C2397 1.350 . S
C2403 H2390 0.929 . S
C2403 C2395 1.433 . S
C2403 N2405 1.384 . S
N2404 C2400 1.427 . S
N2404 C2401 1.384 . S
N2405 C2397 1.427 . S
N2405 C2403 1.384 . S
H2406 C2412 0.930 . S
H2407 C2416 0.930 . S
H2408 C2421 0.929 . S
H2409 C2419 0.929 . S
H2410 C2414 0.929 . S
H2411 C2420 0.929 . S
C2412 H2406 0.930 . S
C2412 C2413 1.367 . S
C2412 C2420 1.378 . S
C2413 C2412 1.367 . S
C2413 C2421 1.433 . S
C2414 H2410 0.929 . S
C2414 C2416 1.378 . S
C2414 C2418 1.350 . S
C2415 C2418 1.463 . S
C2415 C2420 1.350 . S
C2415 N2423 1.427 . S
C2416 H2407 0.930 . S
C2416 C2414 1.378 . S
C2416 C2417 1.367 . S
C2417 C2416 1.367 . S
C2417 C2419 1.433 . S
C2418 C2414 1.350 . S
C2418 C2415 1.463 . S
C2418 N2422 1.427 . S
C2419 H2409 0.929 . S
C2419 C2417 1.433 . S
C2419 N2422 1.384 . S
C2420 H2411 0.929 . S
C2420 C2412 1.378 . S
C2420 C2415 1.350 . S
C2421 H2408 0.929 . S
C2421 C2413 1.433 . S
C2421 N2423 1.384 . S
N2422 C2418 1.427 . S
N2422 C2419 1.384 . S
N2423 C2415 1.427 . S
N2423 C2421 1.384 . S
H2424 C2430 0.930 . S
H2425 C2434 0.930 . S
H2426 C2439 0.929 . S
H2427 C2437 0.929 . S
H2428 C2432 0.929 . S
H2429 C2438 0.929 . S
C2430 H2424 0.930 . S
C2430 C2431 1.367 . S
C2430 C2438 1.378 . S
C2431 C2430 1.367 . S
C2431 C2439 1.433 . S
C2432 H2428 0.929 . S
C2432 C2434 1.378 . S
C2432 C2436 1.350 . S
C2433 C2436 1.463 . S
C2433 C2438 1.350 . S
C2433 N2441 1.427 . S
C2434 H2425 0.930 . S
C2434 C2432 1.378 . S
C2434 C2435 1.367 . S
C2435 C2434 1.367 . S
C2435 C2437 1.433 . S
C2436 C2432 1.350 . S
C2436 C2433 1.463 . S
C2436 N2440 1.427 . S
C2437 H2427 0.929 . S
C2437 C2435 1.433 . S
C2437 N2440 1.384 . S
C2438 H2429 0.929 . S
C2438 C2430 1.378 . S
C2438 C2433 1.350 . S
C2439 H2426 0.929 . S
C2439 C2431 1.433 . S
C2439 N2441 1.384 . S
N2440 C2436 1.427 . S
N2440 C2437 1.384 . S
N2441 C2433 1.427 . S
N2441 C2439 1.384 . S
H2442 C2448 0.930 . S
H2443 C2452 0.930 . S
H2444 C2457 0.929 . S
H2445 C2455 0.929 . S
H2446 C2450 0.929 1_554 S
H2447 C2456 0.929 1_556 S
C2448 H2442 0.930 . S
C2448 C2449 1.367 . S
C2448 C2456 1.378 . S
C2449 C2448 1.367 . S
C2449 C2457 1.433 . S
C2450 H2446 0.929 1_556 S
C2450 C2452 1.378 . S
C2450 C2454 1.350 . S
C2451 C2454 1.463 1_554 S
C2451 C2456 1.350 . S
C2451 N2459 1.427 . S
C2452 H2443 0.930 . S
C2452 C2450 1.378 . S
C2452 C2453 1.367 . S
C2453 C2452 1.367 . S
C2453 C2455 1.433 . S
C2454 C2450 1.350 . S
C2454 C2451 1.463 1_556 S
C2454 N2458 1.427 . S
C2455 H2445 0.929 . S
C2455 C2453 1.433 . S
C2455 N2458 1.384 . S
C2456 H2447 0.929 1_554 S
C2456 C2448 1.378 . S
C2456 C2451 1.350 . S
C2457 H2444 0.929 . S
C2457 C2449 1.433 . S
C2457 N2459 1.384 . S
N2458 C2454 1.427 . S
N2458 C2455 1.384 . S
N2459 C2451 1.427 . S
N2459 C2457 1.384 . S
H2460 C2466 0.930 . S
H2461 C2470 0.930 . S
H2462 C2475 0.929 . S
H2463 C2473 0.929 . S
H2464 C2468 0.929 . S
H2465 C2474 0.929 . S
C2466 H2460 0.930 . S
C2466 C2467 1.367 . S
C2466 C2474 1.378 . S
C2467 C2466 1.367 . S
C2467 C2475 1.433 . S
C2468 H2464 0.929 . S
C2468 C2470 1.378 . S
C2468 C2472 1.350 . S
C2469 C2472 1.463 . S
C2469 C2474 1.350 . S
C2469 N2477 1.427 . S
C2470 H2461 0.930 . S
C2470 C2468 1.378 . S
C2470 C2471 1.367 . S
C2471 C2470 1.367 . S
C2471 C2473 1.433 . S
C2472 C2468 1.350 . S
C2472 C2469 1.463 . S
C2472 N2476 1.427 . S
C2473 H2463 0.929 . S
C2473 C2471 1.433 . S
C2473 N2476 1.384 . S
C2474 H2465 0.929 . S
C2474 C2466 1.378 . S
C2474 C2469 1.350 . S
C2475 H2462 0.929 . S
C2475 C2467 1.433 . S
C2475 N2477 1.384 . S
N2476 C2472 1.427 . S
N2476 C2473 1.384 . S
N2477 C2469 1.427 . S
N2477 C2475 1.384 . S
H2478 C2484 0.930 . S
H2479 C2488 0.930 . S
H2480 C2493 0.929 . S
H2481 C2491 0.929 . S
H2482 C2486 0.929 . S
H2483 C2492 0.929 . S
C2484 H2478 0.930 . S
C2484 C2485 1.367 . S
C2484 C2492 1.378 . S
C2485 C2484 1.367 . S
C2485 C2493 1.433 . S
C2486 H2482 0.929 . S
C2486 C2488 1.378 . S
C2486 C2490 1.350 . S
C2487 C2490 1.463 . S
C2487 C2492 1.350 . S
C2487 N2495 1.427 . S
C2488 H2479 0.930 . S
C2488 C2486 1.378 . S
C2488 C2489 1.367 . S
C2489 C2488 1.367 . S
C2489 C2491 1.433 . S
C2490 C2486 1.350 . S
C2490 C2487 1.463 . S
C2490 N2494 1.427 . S
C2491 H2481 0.929 . S
C2491 C2489 1.433 . S
C2491 N2494 1.384 . S
C2492 H2483 0.929 . S
C2492 C2484 1.378 . S
C2492 C2487 1.350 . S
C2493 H2480 0.929 . S
C2493 C2485 1.433 . S
C2493 N2495 1.384 . S
N2494 C2490 1.427 . S
N2494 C2491 1.384 . S
N2495 C2487 1.427 . S
N2495 C2493 1.384 . S
C1063 N13 1.553 . S
C1067 N805 1.553 . S
C1081 N310 1.548 . S
C1085 N46 1.548 . S
C1099 N871 1.553 . S
C1103 N79 1.553 . S
C1117 N112 1.550 . S
C1121 N376 1.550 . S
C1135 N937 1.553 . S
C1139 N145 1.553 . S
C1153 N442 1.548 . S
C1157 N178 1.548 . S
C1171 N211 1.538 . S
C1175 N1003 1.538 . S
C1189 N244 1.534 . S
C1193 N508 1.534 . S
C1207 N277 1.541 . S
C1211 N541 1.541 . S
C1225 N343 1.553 . S
C1229 N607 1.553 . S
C1243 N673 1.534 . S
C1247 N409 1.534 . S
C1261 N475 1.534 . S
C1265 N739 1.534 . S
C1279 N574 1.540 . S
C1283 N838 1.540 . S
C1297 N904 1.550 . S
C1301 N640 1.550 . S
C1315 N970 1.541 . S
C1319 N706 1.541 . S
C1333 N772 1.539 . S
C1337 N1036 1.539 . S
C1351 C7 1.109 . S
C1355 N827 1.167 . S
C1369 N332 1.170 . S
C1373 C40 1.104 . S
C1387 C73 1.082 . S
C1391 N893 1.157 . S
C1405 N266 1.159 . S
C1409 C106 1.081 . S
C1423 C139 1.109 . S
C1427 N1025 1.167 . S
C1441 C172 1.085 . S
C1445 N398 1.164 . S
C1459 N959 1.170 . S
C1463 C205 1.104 . S
C1477 N464 1.159 . S
C1481 C238 1.081 . S
C1495 N563 1.167 . S
C1499 C271 1.110 . S
C1513 N68 1.162 . S
C1517 C304 1.108 . S
C1531 C337 1.105 . S
C1535 N629 1.169 . S
C1549 C370 1.109 . S
C1553 N2 1.164 . S
C1567 N761 1.158 . S
C1571 C403 1.081 . S
C1585 N134 1.159 . S
C1589 C436 1.104 . S
C1603 C469 1.099 . S
C1607 N695 1.170 . S
C1621 C502 1.082 . S
C1625 N200 1.156 . S
C1639 N299 1.170 . S
C1643 C535 1.101 . S
C1657 N860 1.161 . S
C1661 C568 1.107 . S
C1675 N365 1.170 . S
C1679 C601 1.103 . S
C1693 C634 1.098 . S
C1697 N794 1.169 . S
C1711 N497 1.160 . S
C1715 C667 1.082 . S
C1729 C700 1.104 . S
C1733 N926 1.159 . S
C1747 N431 1.166 . S
C1751 C733 1.088 . S
C1765 C766 1.088 . S
C1769 N992 1.166 . S
C1783 N35 1.155 . S
C1787 C799 1.092 . S
C1801 N596 1.162 . S
C1805 C832 1.083 . S
C1819 N101 1.157 . S
C1823 C865 1.082 . S
C1837 C898 1.083 . S
C1841 N530 1.162 . S
C1855 C931 1.107 . S
C1859 N233 1.161 . S
C1873 N662 1.162 . S
C1877 C964 1.083 . S
C1891 N167 1.167 . S
C1895 C997 1.110 . S
C1909 C1030 1.082 . S
C1913 N728 1.157 . S
C1927 C615 0.423 . S
C1931 C21 0.395 . S
C1945 C648 0.418 . S
C1949 C54 0.414 . S
C1963 C549 0.390 . S
C1967 C87 0.421 . S
C1981 C582 0.383 . S
C1985 C120 0.400 . S
C1999 C153 0.421 . S
C2003 C747 0.390 . S
C2017 C780 0.420 . S
C2021 C186 0.387 . S
C2035 C219 0.383 . S
C2039 C681 0.412 . S
C2053 C714 0.409 . S
C2057 C252 0.421 . S
C2071 C879 0.413 . S
C2075 C285 0.383 . S
C2089 C318 0.394 . S
C2093 C912 0.423 . S
C2107 C351 0.418 . S
C2111 C813 0.386 . S
C2125 C384 0.423 . S
C2129 C846 0.404 . S
C2143 C1011 0.414 . S
C2147 C417 0.383 . S
C2161 C450 0.420 . S
C2165 C1044 0.411 . S
C2179 C483 0.395 . S
C2183 C945 0.423 . S
C2197 C516 0.404 . S
C2201 C978 0.382 . S
C2215 C150 1.872 . S
C2219 C18 1.868 . S
C2233 C183 1.867 . S
C2237 C51 1.870 . S
C2251 C84 1.870 . S
C2255 C216 1.867 . S
C2269 C249 1.877 . S
C2273 C117 1.872 . S
C2287 C282 1.877 . S
C2291 C414 1.873 . S
C2305 C447 1.873 . S
C2309 C315 1.878 . S
C2323 C348 1.878 . S
C2327 C480 1.873 . S
C2341 C513 1.876 . S
C2345 C381 1.878 . S
C2359 C546 1.869 . S
C2363 C678 1.868 . S
C2377 C711 1.874 . S
C2381 C579 1.878 . S
C2395 C744 1.872 . S
C2399 C612 1.877 . S
C2413 C645 1.868 . S
C2417 C777 1.870 . S
C2431 C942 1.871 . S
C2435 C810 1.868 . S
C2449 C843 1.869 . S
C2453 C975 1.868 . S
C2467 C876 1.878 . S
C2471 C1008 1.877 . S
C2485 C909 1.868 . S
C2489 C1041 1.869 . S
