# Generated by pormake.
# Topology mon, (4)-cn, num edge types: 1
# Building blocks:
#     Node 0, Type 0, BuildingBlock: NAHDIM_clean_sbu_0, # of connection points: 4
#     Node 1, Type 0, BuildingBlock: NAHDIM_clean_sbu_0, # of connection points: 4
#     Node 2, Type 0, BuildingBlock: NAHDIM_clean_sbu_0, # of connection points: 4
#     Node 3, Type 0, BuildingBlock: NAHDIM_clean_sbu_0, # of connection points: 4
#     Node 4, Type 0, BuildingBlock: NAHDIM_clean_sbu_0, # of connection points: 4
#     Node 5, Type 0, BuildingBlock: NAHDIM_clean_sbu_0, # of connection points: 4
#     Node 6, Type 0, BuildingBlock: NAHDIM_clean_sbu_0, # of connection points: 4
#     Node 7, Type 0, BuildingBlock: NAHDIM_clean_sbu_0, # of connection points: 4
#     Node 8, Type 0, BuildingBlock: NAHDIM_clean_sbu_0, # of connection points: 4
#     Node 9, Type 0, BuildingBlock: NAHDIM_clean_sbu_0, # of connection points: 4
#     Node 10, Type 0, BuildingBlock: NAHDIM_clean_sbu_0, # of connection points: 4
#     Node 11, Type 0, BuildingBlock: NAHDIM_clean_sbu_0, # of connection points: 4
#     Node 12, Type 0, BuildingBlock: NAHDIM_clean_sbu_0, # of connection points: 4
#     Node 13, Type 0, BuildingBlock: NAHDIM_clean_sbu_0, # of connection points: 4
#     Node 14, Type 0, BuildingBlock: NAHDIM_clean_sbu_0, # of connection points: 4
#     Node 15, Type 0, BuildingBlock: NAHDIM_clean_sbu_0, # of connection points: 4
#     Edge 16, Type (0, 0), BuildingBlock: TEMPAE_clean_linker_10, # of connection points: 2
#     Edge 17, Type (0, 0), BuildingBlock: TEMPAE_clean_linker_10, # of connection points: 2
#     Edge 18, Type (0, 0), BuildingBlock: TEMPAE_clean_linker_10, # of connection points: 2
#     Edge 19, Type (0, 0), BuildingBlock: TEMPAE_clean_linker_10, # of connection points: 2
#     Edge 20, Type (0, 0), BuildingBlock: TEMPAE_clean_linker_10, # of connection points: 2
#     Edge 21, Type (0, 0), BuildingBlock: TEMPAE_clean_linker_10, # of connection points: 2
#     Edge 22, Type (0, 0), BuildingBlock: TEMPAE_clean_linker_10, # of connection points: 2
#     Edge 23, Type (0, 0), BuildingBlock: TEMPAE_clean_linker_10, # of connection points: 2
#     Edge 24, Type (0, 0), BuildingBlock: TEMPAE_clean_linker_10, # of connection points: 2
#     Edge 25, Type (0, 0), BuildingBlock: TEMPAE_clean_linker_10, # of connection points: 2
#     Edge 26, Type (0, 0), BuildingBlock: TEMPAE_clean_linker_10, # of connection points: 2
#     Edge 27, Type (0, 0), BuildingBlock: TEMPAE_clean_linker_10, # of connection points: 2
#     Edge 28, Type (0, 0), BuildingBlock: TEMPAE_clean_linker_10, # of connection points: 2
#     Edge 29, Type (0, 0), BuildingBlock: TEMPAE_clean_linker_10, # of connection points: 2
#     Edge 30, Type (0, 0), BuildingBlock: TEMPAE_clean_linker_10, # of connection points: 2
#     Edge 31, Type (0, 0), BuildingBlock: TEMPAE_clean_linker_10, # of connection points: 2
#     Edge 32, Type (0, 0), BuildingBlock: TEMPAE_clean_linker_10, # of connection points: 2
#     Edge 33, Type (0, 0), BuildingBlock: TEMPAE_clean_linker_10, # of connection points: 2
#     Edge 34, Type (0, 0), BuildingBlock: TEMPAE_clean_linker_10, # of connection points: 2
#     Edge 35, Type (0, 0), BuildingBlock: TEMPAE_clean_linker_10, # of connection points: 2
#     Edge 36, Type (0, 0), BuildingBlock: TEMPAE_clean_linker_10, # of connection points: 2
#     Edge 37, Type (0, 0), BuildingBlock: TEMPAE_clean_linker_10, # of connection points: 2
#     Edge 38, Type (0, 0), BuildingBlock: TEMPAE_clean_linker_10, # of connection points: 2
#     Edge 39, Type (0, 0), BuildingBlock: TEMPAE_clean_linker_10, # of connection points: 2
#     Edge 40, Type (0, 0), BuildingBlock: TEMPAE_clean_linker_10, # of connection points: 2
#     Edge 41, Type (0, 0), BuildingBlock: TEMPAE_clean_linker_10, # of connection points: 2
#     Edge 42, Type (0, 0), BuildingBlock: TEMPAE_clean_linker_10, # of connection points: 2
#     Edge 43, Type (0, 0), BuildingBlock: TEMPAE_clean_linker_10, # of connection points: 2
#     Edge 44, Type (0, 0), BuildingBlock: TEMPAE_clean_linker_10, # of connection points: 2
#     Edge 45, Type (0, 0), BuildingBlock: TEMPAE_clean_linker_10, # of connection points: 2
#     Edge 46, Type (0, 0), BuildingBlock: TEMPAE_clean_linker_10, # of connection points: 2
#     Edge 47, Type (0, 0), BuildingBlock: TEMPAE_clean_linker_10, # of connection points: 2
# Relax obj value: 0.123
# Max RMSD: 0.120
# Mean RMSD: 0.120
data_MOF--net-mon--node1-NAHDIM_clean_sbu_0--edge1-TEMPAE_clean_linker_10
_symmetry_space_group_name_H-M    P1
_symmetry_Int_Tables_number       1
_symmetry_cell_setting            triclinic
loop_
_symmetry_equiv_pos_as_xyz
'x, y, z'
_cell_length_a     35.006387
_cell_length_b     35.019524
_cell_length_c     82.056846
_cell_angle_alpha  89.935508
_cell_angle_beta   90.065497
_cell_angle_gamma 89.93863
loop_
_atom_site_label
_atom_site_type_symbol
_atom_site_fract_x
_atom_site_fract_y
_atom_site_fract_z
_atom_type_partial_charge
C0 C 0.01018 0.0995 0.57293 0.0
O1 O 0.98347 0.0865 0.56313 0.0
O2 O 0.98208 -0.0006 0.58559 0.0
Zn3 Zn 0.02842 0.02052 0.57424 0.0
O4 O 0.02579 0.0134 0.54995 0.0
C5 C 0.08035 0.9932 0.59824 0.0
O6 O 0.05857 0.0145 0.60759 0.0
O7 O 0.03345 0.07607 0.57936 0.0
C8 C 0.03419 0.98148 0.54352 0.0
O9 O 0.044 0.95278 0.55297 0.0
C10 C 0.95811 0.97705 0.57897 0.0
O11 O 0.96179 0.96848 0.56348 0.0
O12 O 0.07366 0.99214 0.58303 0.0
C13 C 0.1479 0.71383 0.8444 0.0
O14 O 0.1575 0.68895 0.83314 0.0
O15 O 0.24814 0.67387 0.85546 0.0
Zn16 Zn 0.22811 0.72201 0.84532 0.0
O17 O 0.23027 0.72002 0.82091 0.0
C18 C 0.25819 0.7793 0.86686 0.0
O19 O 0.23265 0.7653 0.87694 0.0
O20 O 0.17405 0.73159 0.85196 0.0
C21 C 0.2578 0.70542 0.813 0.0
O22 O 0.28653 0.69003 0.82096 0.0
C23 C 0.24459 0.6406 0.84949 0.0
O24 O 0.22565 0.636 0.8358 0.0
O25 O 0.26102 0.76531 0.85264 0.0
C26 C 0.51879 0.89214 0.07922 0.0
O27 O 0.53567 0.9069 0.06639 0.0
O28 O 0.55104 -0.00567 0.09442 0.0
Zn29 Zn 0.50328 0.97066 0.0855 0.0
O30 O 0.49941 0.98118 0.06156 0.0
C31 C 0.46233 0.00973 0.11065 0.0
O32 O 0.49525 0.00632 0.11821 0.0
O33 O 0.50284 0.91424 0.08943 0.0
C34 C 0.49356 0.01492 0.05643 0.0
O35 O 0.49069 0.04288 0.06703 0.0
C36 C 0.58521 0.98661 0.09041 0.0
O37 O 0.5918 0.96052 0.07928 0.0
O38 O 0.45842 -0.00469 0.09655 0.0
C39 C 0.36631 0.23474 0.35793 0.0
O40 O 0.34677 0.2092 0.34969 0.0
O41 O 0.27449 0.32037 0.3653 0.0
Zn42 Zn 0.29811 0.27714 0.35305 0.0
O43 O 0.30052 0.28873 0.32915 0.0
C44 C 0.26186 0.2141 0.36941 0.0
O45 O 0.28228 0.22593 0.38187 0.0
O46 O 0.35078 0.26657 0.36123 0.0
C47 C 0.2715 0.30188 0.32171 0.0
O48 O 0.24032 0.30931 0.33003 0.0
C49 C 0.28084 0.35539 0.36233 0.0
O50 O 0.30512 0.36469 0.3508 0.0
O51 O 0.26463 0.23141 0.35587 0.0
C52 C 0.00191 0.88132 0.37091 0.0
O53 O 0.97688 0.90062 0.36225 0.0
O54 O 0.96478 0.97378 0.37809 0.0
Zn55 Zn 0.01203 0.95258 0.38845 0.0
O56 O 0.00714 0.95502 0.41281 0.0
C57 C 0.05311 0.0205 0.38553 0.0
O58 O 0.0214 0.03246 0.39242 0.0
O59 O 0.02043 0.89814 0.38211 0.0
C60 C 0.03753 0.95354 0.42127 0.0
O61 O 0.07053 0.94999 0.4138 0.0
C62 C 0.93132 0.96556 0.38293 0.0
O63 O 0.92699 0.94141 0.39505 0.0
O64 O 0.05637 0.98533 0.38203 0.0
C65 C 0.37953 0.73178 0.64502 0.0
O66 O 0.35996 0.71429 0.63358 0.0
O67 O 0.28423 0.69748 0.64888 0.0
Zn68 Zn 0.30542 0.7439 0.66005 0.0
O69 O 0.29553 0.7413 0.68417 0.0
C70 C 0.24379 0.78795 0.64809 0.0
O71 O 0.22611 0.7559 0.65157 0.0
O72 O 0.36195 0.74679 0.65693 0.0
C73 C 0.2665 0.72554 0.69058 0.0
O74 O 0.24021 0.71036 0.68119 0.0
C75 C 0.28466 0.66408 0.65493 0.0
O76 O 0.30139 0.65814 0.66905 0.0
O77 O 0.27948 0.79032 0.65074 0.0
C78 C 0.49911 0.11094 0.8796 0.0
O79 O 0.5211 0.08661 0.87183 0.0
O80 O 0.53714 0.0244 0.89383 0.0
Zn81 Zn 0.48888 0.04842 0.90213 0.0
O82 O 0.49162 0.05238 0.9265 0.0
C83 C 0.44875 0.9794 0.90062 0.0
O84 O 0.47938 0.96897 0.90878 0.0
O85 O 0.48207 0.10036 0.8925 0.0
C86 C 0.46201 0.05125 0.93541 0.0
O87 O 0.42824 0.04863 0.9285 0.0
C88 C 0.56627 0.01859 0.90274 0.0
O89 O 0.56589 0.02993 0.91799 0.0
O90 O 0.44553 0.01397 0.89613 0.0
C91 C 0.15555 0.26984 0.17234 0.0
O92 O 0.16665 0.29133 0.18457 0.0
O93 O 0.25785 0.3036 0.15612 0.0
Zn94 Zn 0.23617 0.25938 0.16861 0.0
O95 O 0.24342 0.26629 0.19278 0.0
C96 C 0.27627 0.21006 0.14699 0.0
O97 O 0.26968 0.23857 0.13695 0.0
O98 O 0.18055 0.25342 0.1636 0.0
C99 C 0.26003 0.29485 0.19918 0.0
O100 O 0.27409 0.32167 0.18975 0.0
C101 C 0.2431 0.33652 0.15444 0.0
O102 O 0.2106 0.34447 0.16168 0.0
O103 O 0.26389 0.21199 0.16151 0.0
C104 C 0.8747 0.21931 0.15791 0.0
O105 O 0.85898 0.19187 0.16652 0.0
O106 O 0.77899 0.19009 0.13874 0.0
Zn107 Zn 0.79677 0.2351 0.15178 0.0
O108 O 0.78391 0.22761 0.17538 0.0
C109 C 0.73385 0.27882 0.1411 0.0
O110 O 0.71687 0.24624 0.14433 0.0
O111 O 0.85332 0.2418 0.14987 0.0
C112 C 0.79452 0.25286 0.18551 0.0
O113 O 0.81248 0.28328 0.18011 0.0
C114 C 0.77555 0.15682 0.14474 0.0
O115 O 0.78577 0.15079 0.15994 0.0
O116 O 0.76959 0.28167 0.14351 0.0
C117 C 0.66528 0.72619 0.65552 0.0
O118 O 0.68168 0.6974 0.66306 0.0
O119 O 0.76495 0.80316 0.64903 0.0
Zn120 Zn 0.73921 0.75866 0.65979 0.0
O121 O 0.74108 0.76523 0.68414 0.0
C122 C 0.78322 0.7066 0.63992 0.0
O123 O 0.78122 0.73448 0.62922 0.0
O124 O 0.68471 0.75598 0.65256 0.0
C125 C 0.74622 0.73655 0.69339 0.0
O126 O 0.75022 0.70255 0.68687 0.0
C127 C 0.80084 0.80669 0.65067 0.0
O128 O 0.81942 0.782 0.65979 0.0
O129 O 0.76674 0.71032 0.6536 0.0
C130 C 0.65097 0.22083 0.35592 0.0
O131 O 0.67368 0.20495 0.36674 0.0
O132 O 0.74272 0.1832 0.34711 0.0
Zn133 Zn 0.72046 0.23086 0.33753 0.0
O134 O 0.72653 0.23088 0.31324 0.0
C135 C 0.7826 0.27267 0.35125 0.0
O136 O 0.79887 0.23891 0.35046 0.0
O137 O 0.665 0.23404 0.34281 0.0
C138 C 0.75736 0.22002 0.30654 0.0
O139 O 0.78557 0.20769 0.31573 0.0
C140 C 0.73652 0.14974 0.3418 0.0
O141 O 0.71342 0.14495 0.32933 0.0
O142 O 0.74823 0.27641 0.3465 0.0
C143 C 0.8707 0.78368 0.84779 0.0
O144 O 0.85835 0.8109 0.83809 0.0
O145 O 0.76748 0.81055 0.85697 0.0
Zn146 Zn 0.79207 0.76389 0.84727 0.0
O147 O 0.78871 0.76625 0.82288 0.0
C148 C 0.7652 0.70658 0.86969 0.0
O149 O 0.78571 0.72604 0.88021 0.0
O150 O 0.84686 0.76023 0.85373 0.0
C151 C 0.75719 0.75966 0.81574 0.0
O152 O 0.72685 0.75197 0.82456 0.0
C153 C 0.7325 0.80878 0.86103 0.0
O154 O 0.71375 0.77676 0.85876 0.0
O155 O 0.76467 0.71702 0.85487 0.0
C156 C 0.48696 0.60708 0.08485 0.0
O157 O 0.46089 0.59178 0.07538 0.0
O158 O 0.45262 0.51266 0.10177 0.0
Zn159 Zn 0.50068 0.52904 0.09041 0.0
O160 O 0.49751 0.51804 0.06644 0.0
C161 C 0.57121 0.48582 0.0918 0.0
O162 O 0.57188 0.49237 0.07604 0.0
O163 O 0.50847 0.58527 0.09318 0.0
C164 C 0.48516 0.48705 0.06038 0.0
O165 O 0.47322 0.45977 0.07013 0.0
C166 C 0.41958 0.51189 0.09534 0.0
O167 O 0.41512 0.5233 0.0802 0.0
O168 O 0.54423 0.49962 0.10031 0.0
C169 C 0.0394 0.38333 0.58772 0.0
O170 O 0.06415 0.40165 0.57857 0.0
O171 O 0.067 0.47969 0.60497 0.0
Zn172 Zn 0.01935 0.45936 0.59446 0.0
O173 O 0.02123 0.47224 0.57069 0.0
C174 C 0.97112 0.49638 0.61854 0.0
O175 O 0.00015 0.49025 0.62837 0.0
O176 O 0.01655 0.40249 0.59652 0.0
C177 C 0.99194 0.46632 0.56191 0.0
O178 O 0.96097 0.45243 0.56873 0.0
C179 C 0.06975 0.51567 0.6065 0.0
O180 O 0.04168 0.53747 0.6013 0.0
O181 O 0.97273 0.48448 0.60394 0.0
C182 C 0.5176 0.39179 0.88307 0.0
O183 O 0.5038 0.41776 0.87311 0.0
O184 O 0.47295 0.47733 0.8952 0.0
Zn185 Zn 0.51833 0.45369 0.90623 0.0
O186 O 0.51061 0.451 0.9305 0.0
C187 C 0.56148 0.52155 0.90395 0.0
O188 O 0.5289 0.53562 0.90915 0.0
O189 O 0.52624 0.40107 0.89758 0.0
C190 C 0.48593 0.47107 0.93795 0.0
O191 O 0.46403 0.49448 0.92961 0.0
C192 C 0.43968 0.46292 0.89566 0.0
O193 O 0.43405 0.43107 0.90379 0.0
O194 O 0.56431 0.4858 0.90167 0.0
C195 C 0.00144 0.59926 0.38731 0.0
O196 O 0.02026 0.57413 0.37856 0.0
O197 O 0.04222 0.51383 0.40062 0.0
Zn198 Zn 0.9931 0.5355 0.40895 0.0
O199 O 0.99352 0.53416 0.43336 0.0
C200 C 0.94985 0.49089 0.38639 0.0
O201 O 0.97668 0.50248 0.37636 0.0
O202 O 0.98689 0.58904 0.40081 0.0
C203 C 0.00081 0.50229 0.44009 0.0
O204 O 0.00793 0.47254 0.43082 0.0
C205 C 0.07475 0.52274 0.40632 0.0
O206 O 0.07696 0.54728 0.41838 0.0
O207 O 0.95038 0.50232 0.40107 0.0
C208 C 0.0405 0.15437 0.58748 0.0
C209 C 0.01376 0.14089 0.57612 0.0
C210 C 0.04492 0.19361 0.5903 0.0
C211 C 0.0222 0.21993 0.58148 0.0
C212 C -0.00516 0.20651 0.57015 0.0
C213 C 0.99087 0.16711 0.56763 0.0
C214 C 0.07423 0.20692 0.60256 0.0
C215 C 0.97021 0.23379 0.56047 0.0
C216 C 0.01052 0.3215 0.59677 0.0
C217 C 0.03643 0.34128 0.58684 0.0
C218 C 0.00603 0.28183 0.59536 0.0
C219 C 0.02786 0.26159 0.58371 0.0
C220 C 0.05451 0.28128 0.57385 0.0
C221 C 0.05855 0.32088 0.57557 0.0
C222 C 0.97753 0.26167 0.60616 0.0
C223 C 0.07821 0.26063 0.56125 0.0
H224 H 0.05818 0.13427 0.59414 0.0
H225 H 0.97015 0.15691 0.55884 0.0
H226 H 0.0963 0.22438 0.59636 0.0
H227 H 0.06049 0.22536 0.61185 0.0
H228 H 0.08858 0.18273 0.60885 0.0
H229 H 0.94965 0.2187 0.55242 0.0
H230 H 0.95397 0.25264 0.56883 0.0
H231 H 0.98853 0.25242 0.55283 0.0
H232 H 0.99339 0.33706 0.60553 0.0
H233 H 0.07863 0.33594 0.56784 0.0
H234 H 0.99177 0.23823 0.61295 0.0
H235 H 0.95483 0.24856 0.59857 0.0
H236 H 0.96392 0.28132 0.61505 0.0
H237 H 0.09489 0.23741 0.56711 0.0
H238 H 0.09831 0.28001 0.55483 0.0
H239 H 0.0592 0.24718 0.55208 0.0
C240 C 0.93868 0.79834 0.8411 0.0
C241 C 0.91206 0.7774 0.85019 0.0
C242 C 0.97768 0.78935 0.8417 0.0
C243 C 0.99028 0.7589 0.85172 0.0
C244 C 0.96385 0.73907 0.86162 0.0
C245 C 0.92498 0.74851 0.86071 0.0
C246 C 0.00512 0.81116 0.83098 0.0
C247 C 0.97633 0.7067 0.87258 0.0
C248 C 0.07893 0.70693 0.83742 0.0
C249 C 0.10733 0.72341 0.84718 0.0
C250 C 0.04061 0.71781 0.839 0.0
C251 C 0.03045 0.74568 0.8507 0.0
C252 C 0.05876 0.76161 0.86095 0.0
C253 C 0.09696 0.75034 0.85904 0.0
C254 C 0.01114 0.70017 0.82785 0.0
C255 C 0.04882 0.79115 0.87365 0.0
H256 H 0.92893 0.82081 0.833 0.0
H257 H 0.9046 0.73243 0.8679 0.0
H258 H 0.02975 0.82155 0.83823 0.0
H259 H 0.01657 0.7919 0.82143 0.0
H260 H 0.9913 0.83599 0.82493 0.0
H261 H 0.95302 0.69698 0.88076 0.0
H262 H 0.98567 0.68214 0.86503 0.0
H263 H 0.00109 0.71549 0.88014 0.0
H264 H 0.08669 0.68607 0.82825 0.0
H265 H 0.11876 0.76309 0.86668 0.0
H266 H -0.00218 0.72269 0.82019 0.0
H267 H 0.98804 0.68685 0.83514 0.0
H268 H 0.02361 0.67812 0.81971 0.0
H269 H 0.03785 0.81732 0.86761 0.0
H270 H 0.07381 0.79902 0.8813 0.0
H271 H 0.02579 0.78035 0.8817 0.0
C272 C 0.52203 0.66538 0.09416 0.0
C273 C 0.49204 0.64894 0.08525 0.0
C274 C 0.52785 0.70501 0.09406 0.0
C275 C 0.50301 0.72862 0.08489 0.0
C276 C 0.47237 0.71226 0.07608 0.0
C277 C 0.46729 0.6726 0.07636 0.0
C278 C 0.56086 0.72156 0.10357 0.0
C279 C 0.44521 0.73661 0.06621 0.0
C280 C 0.49511 0.8344 0.09402 0.0
C281 C 0.51672 0.85028 0.08132 0.0
C282 C 0.49112 0.79473 0.09557 0.0
C283 C 0.50932 0.77046 0.08419 0.0
C284 C 0.53205 0.78625 0.07163 0.0
C285 C 0.53542 0.82602 0.07033 0.0
C286 C 0.46659 0.77883 0.10909 0.0
C287 C 0.55204 0.76118 0.05933 0.0
H288 H 0.54128 0.64725 0.10105 0.0
H289 H 0.44398 0.66014 0.06948 0.0
H290 H 0.58077 0.73631 0.09516 0.0
H291 H 0.55029 0.7432 0.11235 0.0
H292 H 0.57701 0.69937 0.11039 0.0
H293 H 0.42229 0.71949 0.06036 0.0
H294 H 0.43175 0.75848 0.07412 0.0
H295 H 0.46116 0.75199 0.05655 0.0
H296 H 0.48063 0.85297 0.10258 0.0
H297 H 0.55235 0.83807 0.06055 0.0
H298 H 0.48297 0.75762 0.11633 0.0
H299 H 0.44163 0.76376 0.10381 0.0
H300 H 0.45602 0.80147 0.11743 0.0
H301 H 0.5701 0.73972 0.06565 0.0
H302 H 0.5703 0.77786 0.05086 0.0
H303 H 0.53056 0.74531 0.05206 0.0
C304 C 0.59267 0.20554 0.37238 0.0
C305 C 0.60923 0.22217 0.35853 0.0
C306 C 0.55287 0.20561 0.37453 0.0
C307 C 0.52932 0.22267 0.36254 0.0
C308 C 0.54594 0.23994 0.34866 0.0
C309 C 0.58565 0.23949 0.34683 0.0
C310 C 0.536 0.18707 0.3895 0.0
C311 C 0.52174 0.25853 0.3356 0.0
C312 C 0.42603 0.19613 0.35553 0.0
C313 C 0.40723 0.22857 0.36151 0.0
C314 C 0.46582 0.19262 0.35673 0.0
C315 C 0.48715 0.22221 0.36414 0.0
C316 C 0.46808 0.25371 0.37121 0.0
C317 C 0.42829 0.25655 0.36979 0.0
C318 C 0.48519 0.15851 0.34909 0.0
C319 C 0.48987 0.28567 0.37933 0.0
H320 H 0.61073 0.19212 0.38147 0.0
H321 H 0.59819 0.25251 0.33611 0.0
H322 H 0.51771 0.20777 0.39611 0.0
H323 H 0.5175 0.16283 0.38585 0.0
H324 H 0.55832 0.17627 0.39797 0.0
H325 H 0.53922 0.27113 0.32567 0.0
H326 H 0.50208 0.23716 0.3302 0.0
H327 H 0.50388 0.28143 0.341 0.0
H328 H 0.40991 0.17421 0.34924 0.0
H329 H 0.41389 0.2815 0.37462 0.0
H330 H 0.50656 0.14609 0.35757 0.0
H331 H 0.50069 0.1677 0.33797 0.0
H332 H 0.46447 0.13591 0.34563 0.0
H333 H 0.51156 0.27405 0.38787 0.0
H334 H 0.47072 0.3053 0.38613 0.0
H335 H 0.50528 0.30246 0.36994 0.0
C336 C 0.03339 0.81963 0.3779 0.0
C337 C 0.0049 0.83942 0.36933 0.0
C338 C 0.03342 0.7797 0.37862 0.0
C339 C 0.00419 0.75911 0.3706 0.0
C340 C 0.97675 0.77875 0.36108 0.0
C341 C 0.97746 0.8188 0.36053 0.0
C342 C 0.06342 0.75972 0.38878 0.0
C343 C 0.9453 0.75766 0.35229 0.0
C344 C 0.01896 0.652 0.36814 0.0
C345 C -0.00065 0.63959 0.38207 0.0
C346 C 0.01962 0.69078 0.36382 0.0
C347 C 0.00022 0.71759 0.37369 0.0
C348 C 0.97915 0.70502 0.38739 0.0
C349 C 0.97899 0.66617 0.39142 0.0
C350 C 0.04225 0.70321 0.34909 0.0
C351 C 0.95795 0.7328 0.39819 0.0
H352 H 0.05497 0.83538 0.38457 0.0
H353 H 0.95545 0.83393 0.35382 0.0
H354 H 0.04983 0.74683 0.39969 0.0
H355 H 0.07679 0.73621 0.38176 0.0
H356 H 0.08622 0.77952 0.39292 0.0
H357 H 0.92943 0.77648 0.34372 0.0
H358 H 0.9571 0.73311 0.3454 0.0
H359 H 0.9248 0.74605 0.36132 0.0
H360 H 0.03462 0.63158 0.3608 0.0
H361 H 0.96353 0.65677 0.40214 0.0
H362 H 0.06742 0.72002 0.35308 0.0
H363 H 0.0247 0.722 0.34117 0.0
H364 H 0.05245 0.67854 0.34178 0.0
H365 H 0.97862 0.75221 0.40422 0.0
H366 H 0.94098 0.71814 0.40776 0.0
H367 H 0.93842 0.75077 0.39077 0.0
C368 C 0.44212 0.749 0.65756 0.0
C369 C 0.42178 0.73201 0.64474 0.0
C370 C 0.48207 0.74771 0.65809 0.0
C371 C 0.50225 0.72911 0.64545 0.0
C372 C 0.48204 0.71263 0.63227 0.0
C373 C 0.44195 0.71422 0.63208 0.0
C374 C 0.50264 0.76562 0.67236 0.0
C375 C 0.50273 0.69279 0.61854 0.0
C376 C 0.60709 0.75506 0.64279 0.0
C377 C 0.62408 0.72511 0.65157 0.0
C378 C 0.56754 0.7559 0.64007 0.0
C379 C 0.54449 0.72622 0.64638 0.0
C380 C 0.56161 0.69523 0.65474 0.0
C381 C 0.60125 0.69498 0.65719 0.0
C382 C 0.55029 0.78927 0.63099 0.0
C383 C 0.53788 0.66313 0.66169 0.0
H384 H 0.4268 0.76288 0.66738 0.0
H385 H 0.42644 0.70109 0.62212 0.0
H386 H 0.51904 0.74346 0.67905 0.0
H387 H 0.52341 0.78718 0.66796 0.0
H388 H 0.48272 0.77968 0.68101 0.0
H389 H 0.48293 0.68293 0.60883 0.0
H390 H 0.52409 0.71231 0.61304 0.0
H391 H 0.51855 0.66772 0.62335 0.0
H392 H 0.62459 0.7783 0.63829 0.0
H393 H 0.61417 0.67169 0.66394 0.0
H394 H 0.53252 0.80646 0.63944 0.0
H395 H 0.53128 0.77898 0.62111 0.0
H396 H 0.57241 0.80817 0.6256 0.0
H397 H 0.51915 0.67436 0.67149 0.0
H398 H 0.55578 0.63984 0.66685 0.0
H399 H 0.51905 0.65094 0.65215 0.0
C400 C 0.49886 0.33816 0.86459 0.0
C401 C 0.51915 0.35125 0.87824 0.0
C402 C 0.49577 0.29892 0.86136 0.0
C403 C 0.51349 0.27247 0.87201 0.0
C404 C 0.53615 0.28574 0.88513 0.0
C405 C 0.53862 0.32497 0.8881 0.0
C406 C 0.47163 0.28578 0.84719 0.0
C407 C 0.55591 0.25843 0.89667 0.0
C408 C 0.47188 0.17629 0.88221 0.0
C409 C 0.49838 0.15164 0.87493 0.0
C410 C 0.47477 0.21586 0.88026 0.0
C411 C 0.50501 0.23111 0.87086 0.0
C412 C 0.53 0.20631 0.8624 0.0
C413 C 0.52634 0.1667 0.86451 0.0
C414 C 0.4472 0.24138 0.88931 0.0
C415 C 0.56232 0.22156 0.85213 0.0
H416 H 0.48389 0.35839 0.85688 0.0
H417 H 0.55482 0.33497 0.89852 0.0
H418 H 0.48599 0.26233 0.84048 0.0
H419 H 0.4441 0.27448 0.85182 0.0
H420 H 0.46541 0.30943 0.83854 0.0
H421 H 0.5752 0.27339 0.90532 0.0
H422 H 0.53421 0.24254 0.90381 0.0
H423 H 0.57287 0.23716 0.88975 0.0
H424 H 0.44981 0.16475 0.89005 0.0
H425 H 0.54674 0.14776 0.85874 0.0
H426 H 0.43586 0.26393 0.88112 0.0
H427 H 0.46238 0.25581 0.89945 0.0
H428 H 0.42278 0.22517 0.89447 0.0
H429 H 0.55259 0.24589 0.84451 0.0
H430 H 0.57455 0.19921 0.84408 0.0
H431 H 0.58536 0.23223 0.86023 0.0
C432 C 0.08686 0.28028 0.17926 0.0
C433 C 0.11447 0.26361 0.16915 0.0
C434 C 0.04786 0.27338 0.17677 0.0
C435 C 0.03625 0.24929 0.16385 0.0
C436 C 0.0639 0.23289 0.15342 0.0
C437 C 0.10272 0.24024 0.1562 0.0
C438 C 0.01909 0.29138 0.18813 0.0
C439 C 0.0525 0.20711 0.1395 0.0
C440 C 0.93957 0.20188 0.16817 0.0
C441 C 0.91639 0.22565 0.15858 0.0
C442 C 0.97879 0.2089 0.16977 0.0
C443 C -0.00482 0.24043 0.16156 0.0
C444 C 0.97215 0.26405 0.15157 0.0
C445 C 0.93298 0.25637 0.1502 0.0
C446 C 0.00255 0.18305 0.1805 0.0
C447 C 0.98875 0.29786 0.14261 0.0
H448 H 0.09571 0.29842 0.18927 0.0
H449 H 0.12389 0.22732 0.1483 0.0
H450 H -0.00193 0.3084 0.18106 0.0
H451 H 0.00298 0.26876 0.19464 0.0
H452 H 0.03276 0.31027 0.19731 0.0
H453 H 0.07745 0.19766 0.13218 0.0
H454 H 0.03772 0.18146 0.14432 0.0
H455 H 0.03209 0.22208 0.13135 0.0
H456 H 0.92699 0.17805 0.17467 0.0
H457 H 0.91525 0.27484 0.14274 0.0
H458 H 0.01476 0.19971 0.19075 0.0
H459 H 0.02684 0.17113 0.17348 0.0
H460 H 0.98566 0.15901 0.18561 0.0
H461 H 0.00025 0.31877 0.1515 0.0
H462 H 0.96725 0.3125 0.13483 0.0
H463 H 0.0129 0.28855 0.13482 0.0
C464 C 0.06976 0.96126 0.44822 0.0
C465 C 0.036 0.95662 0.43923 0.0
C466 C 0.06887 0.96497 0.46523 0.0
C467 C 0.03338 0.96366 0.47345 0.0
C468 C -0.00079 0.9586 0.46448 0.0
C469 C 0.0009 0.95533 0.44745 0.0
C470 C 0.10589 0.97066 0.47438 0.0
C471 C 0.96088 0.95673 0.47286 0.0
C472 C 0.0364 0.94041 0.51863 0.0
C473 C 0.03288 0.97676 0.52562 0.0
C474 C 0.03586 0.93563 0.50165 0.0
C475 C 0.03212 0.96803 0.49145 0.0
C476 C 0.02827 0.00477 0.49843 0.0
C477 C 0.0285 0.00868 0.51543 0.0
C478 C 0.03965 0.89596 0.49463 0.0
C479 C 0.02454 0.04003 0.48792 0.0
H480 H 0.09698 0.96243 0.44196 0.0
H481 H 0.9747 0.95162 0.44058 0.0
H482 H 0.10497 -0.00199 0.48118 0.0
H483 H 0.10981 0.94749 0.48346 0.0
H484 H 0.13108 0.97103 0.46616 0.0
H485 H 0.93706 0.95187 0.46415 0.0
H486 H 0.96087 0.93336 0.48201 0.0
H487 H 0.95542 0.98375 0.47951 0.0
H488 H 0.03956 0.91559 0.52642 0.0
H489 H 0.02582 0.03688 0.52075 0.0
H490 H 0.066 0.89403 0.48718 0.0
H491 H 0.01517 0.88981 0.48645 0.0
H492 H 0.04083 0.87361 0.50424 0.0
H493 H 0.05026 0.04311 0.48014 0.0
H494 H 0.02112 0.06644 0.49526 0.0
H495 H -0.00042 0.03726 0.47967 0.0
C496 C 0.28372 0.68492 0.78599 0.0
C497 C 0.25774 0.70685 0.79499 0.0
C498 C 0.28429 0.68672 0.7689 0.0
C499 C 0.25864 0.71144 0.76069 0.0
C500 C 0.2322 0.73345 0.76972 0.0
C501 C 0.23189 0.73069 0.78676 0.0
C502 C 0.31254 0.66243 0.75964 0.0
C503 C 0.20474 0.76049 0.7614 0.0
C504 C 0.28664 0.74547 0.71849 0.0
C505 C 0.26361 0.72258 0.7085 0.0
C506 C 0.28506 0.74231 0.7355 0.0
C507 C 0.26025 0.71523 0.74268 0.0
C508 C 0.23692 0.69201 0.73267 0.0
C509 C 0.23867 0.69617 0.71568 0.0
C510 C 0.30993 0.76799 0.7458 0.0
C511 C 0.21045 0.66252 0.73991 0.0
H512 H 0.30358 0.66626 0.79228 0.0
H513 H 0.21179 0.74782 0.79365 0.0
H514 H 0.29735 0.64459 0.75054 0.0
H515 H 0.33264 0.68101 0.75284 0.0
H516 H 0.32933 0.64342 0.7678 0.0
H517 H 0.18555 0.77513 0.77018 0.0
H518 H 0.22093 0.78247 0.75453 0.0
H519 H 0.18694 0.74476 0.75246 0.0
H520 H 0.30585 0.76605 0.713 0.0
H521 H 0.221 0.67822 0.708 0.0
H522 H 0.32966 0.7505 0.75333 0.0
H523 H 0.29194 0.78483 0.75429 0.0
H524 H 0.32714 0.78805 0.73832 0.0
H525 H 0.22708 0.64189 0.74736 0.0
H526 H 0.19446 0.64649 0.73043 0.0
H527 H 0.18961 0.6765 0.74815 0.0
C528 C 0.49179 0.99216 0.02759 0.0
C529 C 0.48911 0.02231 0.03877 0.0
C530 C 0.48705 -0.00151 0.01084 0.0
C531 C 0.47947 0.03589 0.00513 0.0
C532 C 0.47686 0.0665 0.01632 0.0
C533 C 0.48171 0.05934 0.03303 0.0
C534 C 0.49006 0.96512 -0.00074 0.0
C535 C 0.46891 0.10676 0.01063 0.0
C536 C 0.502 0.05421 0.96063 0.0
C537 C 0.46593 0.05015 0.95336 0.0
C538 C 0.50664 0.05071 0.97753 0.0
C539 C 0.47448 0.04279 0.98739 0.0
C540 C 0.43785 0.03963 0.9802 0.0
C541 C 0.43399 0.04344 0.96325 0.0
C542 C 0.54613 0.05446 0.98479 0.0
C543 C 0.4029 0.03112 0.99034 0.0
H544 H 0.49751 0.96346 0.03192 0.0
H545 H 0.47958 0.08279 0.04159 0.0
H546 H 0.46308 0.96205 0.99228 0.0
H547 H 0.51323 0.97031 0.99032 0.0
H548 H 0.496 0.9378 0.00569 0.0
H549 H 0.46784 0.1274 0.02089 0.0
H550 H 0.49136 0.11603 0.00196 0.0
H551 H 0.44125 0.1078 0.00403 0.0
H552 H 0.52682 0.05958 0.95308 0.0
H553 H 0.40603 0.04028 0.95773 0.0
H554 H 0.55491 0.02689 0.99032 0.0
H555 H 0.54605 0.0761 0.99466 0.0
H556 H 0.5678 0.06278 0.97557 0.0
H557 H 0.40588 0.00258 0.99609 0.0
H558 H 0.37623 0.03149 0.98299 0.0
H559 H 0.40017 0.0523 0.00032 0.0
C560 C 0.2786 0.3307 0.22436 0.0
C561 C 0.26288 0.298 0.21713 0.0
C562 C 0.28101 0.33409 0.24138 0.0
C563 C 0.26752 0.304 0.25135 0.0
C564 C 0.25174 0.2709 0.24412 0.0
C565 C 0.24954 0.26834 0.2271 0.0
C566 C 0.29789 0.36985 0.24869 0.0
C567 C 0.23722 0.23812 0.25436 0.0
C568 C 0.30317 0.29233 0.29472 0.0
C569 C 0.27184 0.30562 0.30375 0.0
C570 C 0.30259 0.29264 0.27763 0.0
C571 C 0.27 0.3068 0.26938 0.0
C572 C 0.23888 0.32157 0.2784 0.0
C573 C 0.24013 0.32071 0.29549 0.0
C574 C 0.33629 0.27657 0.26842 0.0
C575 C 0.20377 0.33719 0.27 0.0
H576 H 0.28889 0.35379 0.21674 0.0
H577 H 0.23738 0.24296 0.22162 0.0
H578 H 0.27669 0.38375 0.2568 0.0
H579 H 0.32305 0.36245 0.2563 0.0
H580 H 0.30688 0.39073 0.23925 0.0
H581 H 0.22589 0.21434 0.24683 0.0
H582 H 0.26058 0.2269 0.26217 0.0
H583 H 0.2142 0.24823 0.26258 0.0
H584 H 0.32784 0.28068 0.301 0.0
H585 H 0.21591 0.33124 0.30238 0.0
H586 H 0.34669 0.29759 0.25934 0.0
H587 H 0.32735 0.2507 0.26162 0.0
H588 H 0.36034 0.26876 0.27663 0.0
H589 H 0.21197 0.35916 0.26091 0.0
H590 H 0.18322 0.35005 0.27873 0.0
H591 H 0.1891 0.31391 0.26331 0.0
C592 C 0.79896 0.27583 0.21428 0.0
C593 C 0.78802 0.24745 0.20317 0.0
C594 C 0.79369 0.27081 0.23108 0.0
C595 C 0.77718 0.23656 0.23692 0.0
C596 C 0.76597 0.20784 0.22579 0.0
C597 C 0.77147 0.21365 0.20903 0.0
C598 C 0.80587 0.30215 0.2426 0.0
C599 C 0.74832 0.17091 0.23158 0.0
C600 C 0.79572 0.21052 0.28115 0.0
C601 C 0.7619 0.22281 0.28865 0.0
C602 C 0.80087 0.21433 0.26427 0.0
C603 C 0.77155 0.23092 0.2547 0.0
C604 C 0.73716 0.24291 0.26216 0.0
C605 C 0.73272 0.23865 0.27904 0.0
C606 C 0.83788 0.20107 0.2567 0.0
C607 C 0.70528 0.26078 0.25234 0.0
H608 H 0.81175 0.30203 0.20985 0.0
H609 H 0.76301 0.19153 0.20053 0.0
H610 H 0.78104 0.31193 0.24989 0.0
H611 H 0.82754 0.29107 0.25129 0.0
H612 H 0.81811 0.32713 0.2361 0.0
H613 H 0.74118 0.15144 0.22135 0.0
H614 H 0.76826 0.15596 0.23996 0.0
H615 H 0.72185 0.17696 0.23855 0.0
H616 H 0.81836 0.19816 0.28847 0.0
H617 H 0.70648 0.24822 0.28473 0.0
H618 H 0.85277 0.22563 0.251 0.0
H619 H 0.83199 0.18005 0.24691 0.0
H620 H 0.85738 0.18774 0.26577 0.0
H621 H 0.71556 0.28739 0.24645 0.0
H622 H 0.67998 0.26777 0.25994 0.0
H623 H 0.69623 0.24114 0.24247 0.0
C624 C 0.75556 0.70987 0.72137 0.0
C625 C 0.74769 0.74131 0.7113 0.0
C626 C 0.75708 0.7138 0.73836 0.0
C627 C 0.75043 0.75001 0.74545 0.0
C628 C 0.74246 0.78188 0.73538 0.0
C629 C 0.74125 0.77716 0.71841 0.0
C630 C 0.76579 0.67918 0.74872 0.0
C631 C 0.73514 0.8209 0.74255 0.0
C632 C 0.72044 0.75095 0.78987 0.0
C633 C 0.7551 0.75897 0.79773 0.0
C634 C 0.71837 0.74861 0.77282 0.0
C635 C 0.75177 0.75439 0.76345 0.0
C636 C 0.7867 0.76316 0.77128 0.0
C637 C 0.78794 0.76537 0.78834 0.0
C638 C 0.68058 0.7393 0.76487 0.0
C639 C 0.82291 0.7695 0.76167 0.0
H640 H 0.76065 0.68208 0.71598 0.0
H641 H 0.73511 0.80159 0.71071 0.0
H642 H 0.79172 0.68442 0.75617 0.0
H643 H 0.74188 0.67378 0.75728 0.0
H644 H 0.77047 0.65309 0.74129 0.0
H645 H 0.72935 0.84276 0.73303 0.0
H646 H 0.71032 0.81971 0.75093 0.0
H647 H 0.76018 0.83017 0.74983 0.0
H648 H 0.6949 0.74606 0.79703 0.0
H649 H 0.81484 0.77166 0.79432 0.0
H650 H 0.68285 0.71185 0.7582 0.0
H651 H 0.67307 0.76163 0.75581 0.0
H652 H 0.65699 0.73701 0.77386 0.0
H653 H 0.83036 0.74316 0.75486 0.0
H654 H 0.84745 0.77733 0.76958 0.0
H655 H 0.81853 0.79252 0.75255 0.0
C656 C 0.45417 0.48924 0.9641 0.0
C657 C 0.48326 0.46948 0.95594 0.0
C658 C 0.4526 0.4898 0.98118 0.0
C659 C 0.48098 0.47038 0.99029 0.0
C660 C 0.50981 0.44951 0.98212 0.0
C661 C 0.51052 0.44919 0.96503 0.0
C662 C 0.42123 0.51209 0.98949 0.0
C663 C 0.54069 0.42864 0.99143 0.0
C664 C 0.50298 0.50859 0.03243 0.0
C665 C 0.48423 0.48219 0.04249 0.0
C666 C 0.50231 0.50484 0.01544 0.0
C667 C 0.48209 0.47414 0.00831 0.0
C668 C 0.46306 0.44736 0.01836 0.0
C669 C 0.46452 0.4516 0.03537 0.0
C670 C 0.52327 0.53379 0.00513 0.0
C671 C 0.44097 0.41446 0.01114 0.0
H672 H 0.43283 0.50475 0.95716 0.0
H673 H 0.53307 0.43379 0.95882 0.0
H674 H 0.40646 0.49388 -0.00142 0.0
H675 H 0.43373 0.53662 0.99616 0.0
H676 H 0.39974 0.52317 0.98069 0.0
H677 H 0.55967 0.41185 0.98329 0.0
H678 H 0.5584 0.44949 -0.00176 0.0
H679 H 0.5278 0.40902 0.0005 0.0
H680 H 0.51844 0.5322 0.03784 0.0
H681 H 0.44986 0.43119 0.04308 0.0
H682 H 0.50292 0.54848 0.99686 0.0
H683 H 0.54473 0.51918 0.99738 0.0
H684 H 0.53811 0.55567 0.01261 0.0
H685 H 0.41811 0.42549 0.00302 0.0
H686 H 0.42772 0.39614 0.02064 0.0
H687 H 0.46014 0.39656 0.00357 0.0
C688 C 0.02709 0.48608 0.53676 0.0
C689 C 0.99316 0.47377 0.54417 0.0
C690 C 0.02901 0.49203 0.51988 0.0
C691 C -0.00383 0.4856 0.51019 0.0
C692 C 0.96168 0.47374 0.51761 0.0
C693 C 0.9606 0.46792 0.53452 0.0
C694 C 0.0663 0.50464 0.51237 0.0
C695 C 0.92606 0.46672 0.50766 0.0
C696 C 0.99093 0.52962 0.46795 0.0
C697 C 0.00046 0.49841 0.45804 0.0
C698 C 0.98964 0.52594 0.48497 0.0
C699 C -0.00185 0.49025 0.49222 0.0
C700 C 0.00816 0.45876 0.48231 0.0
C701 C 0.00917 0.46322 0.46533 0.0
C702 C 0.97885 0.56014 0.49518 0.0
C703 C 0.01755 0.42028 0.48963 0.0
H704 H 0.05239 0.49069 0.54413 0.0
H705 H 0.93424 0.45852 0.54016 0.0
H706 H 0.07648 0.48269 0.50365 0.0
H707 H 0.06207 0.53146 0.50539 0.0
H708 H 0.08891 0.50941 0.52166 0.0
H709 H 0.90124 0.45868 0.51536 0.0
H710 H 0.91855 0.4927 0.5006 0.0
H711 H 0.93132 0.44348 0.49876 0.0
H712 H 0.98419 0.55692 0.46241 0.0
H713 H 0.01664 0.43898 0.45777 0.0
H714 H 0.0019 0.56649 0.50406 0.0
H715 H 0.95267 0.55378 0.50229 0.0
H716 H 0.97358 0.58603 0.48766 0.0
H717 H 0.04164 0.42305 0.49835 0.0
H718 H 0.0254 0.39885 0.48024 0.0
H719 H 0.99265 0.40939 0.49657 0.0
C720 C 0.18313 0.81673 0.63783 0.0
C721 C 0.22233 0.82039 0.641 0.0
C722 C 0.16222 0.84683 0.63095 0.0
C723 C 0.18092 0.88152 0.62716 0.0
C724 C 0.22043 0.88558 0.6304 0.0
C725 C 0.24071 0.85491 0.63729 0.0
C726 C 0.12009 0.8414 0.62765 0.0
C727 C 0.24124 0.92221 0.62653 0.0
C728 C 0.13013 0.94232 0.59563 0.0
C729 C 0.10946 0.96765 0.6055 0.0
C730 C 0.15478 0.91511 0.6025 0.0
C731 C 0.15889 0.91325 0.61964 0.0
C732 C 0.13946 0.93984 0.62963 0.0
C733 C 0.11495 0.96674 0.62243 0.0
C734 C 0.17509 0.88725 0.59145 0.0
C735 C 0.14327 0.93881 0.64795 0.0
H736 H 0.16868 0.79018 0.64066 0.0
H737 H 0.27099 0.85797 0.63972 0.0
H738 H 0.10331 0.86335 0.63426 0.0
H739 H 0.11419 0.84517 0.61446 0.0
H740 H 0.10982 0.81272 0.63142 0.0
H741 H 0.2719 0.92096 0.63 0.0
H742 H 0.2392 0.92838 0.61329 0.0
H743 H 0.22766 0.94643 0.63303 0.0
H744 H 0.1262 0.94293 0.58253 0.0
H745 H 0.09924 0.98634 0.63015 0.0
H746 H 0.1638 0.85806 0.59353 0.0
H747 H 0.20607 0.88657 0.59428 0.0
H748 H 0.17137 0.89451 0.57836 0.0
H749 H 0.1303 0.91216 0.65273 0.0
H750 H 0.12902 0.96353 0.65387 0.0
H751 H 0.17383 0.93863 0.65154 0.0
C752 C 0.31291 0.82321 0.86148 0.0
C753 C 0.28426 0.81019 0.87205 0.0
C754 C 0.33868 0.8516 0.86634 0.0
C755 C 0.33564 0.86745 0.88213 0.0
C756 C 0.30648 0.85489 0.8928 0.0
C757 C 0.28114 0.82632 0.88763 0.0
C758 C 0.36951 0.86421 0.85465 0.0
C759 C 0.30236 0.87132 0.90971 0.0
C760 C 0.42525 0.91219 0.89963 0.0
C761 C 0.41908 0.95106 0.89644 0.0
C762 C 0.39803 0.88472 0.89525 0.0
C763 C 0.36373 0.89647 0.88759 0.0
C764 C 0.35697 0.93571 0.88462 0.0
C765 C 0.38482 0.96257 0.88904 0.0
C766 C 0.40633 0.84307 0.89852 0.0
C767 C 0.32059 0.94925 0.87656 0.0
H768 H 0.31554 0.81093 0.84941 0.0
H769 H 0.25903 0.81647 0.89586 0.0
H770 H 0.36765 0.89547 0.85259 0.0
H771 H 0.39805 0.85825 0.85997 0.0
H772 H 0.36747 0.84955 0.84268 0.0
H773 H 0.27739 0.85935 0.91631 0.0
H774 H 0.32852 0.86533 0.91692 0.0
H775 H 0.29918 0.9028 0.90903 0.0
H776 H 0.45167 0.90306 0.90534 0.0
H777 H 0.37979 0.99259 0.88661 0.0
H778 H 0.40732 0.82716 0.88684 0.0
H779 H 0.38312 0.83038 0.90595 0.0
H780 H 0.43389 0.83879 0.905 0.0
H781 H 0.31861 0.93731 0.86407 0.0
H782 H 0.319 0.98088 0.87575 0.0
H783 H 0.29542 0.93878 0.88344 0.0
C784 C 0.39487 0.03327 0.11098 0.0
C785 C 0.43187 0.03404 0.11754 0.0
C786 C 0.3668 0.05896 0.11634 0.0
C787 C 0.37626 0.08643 0.12832 0.0
C788 C 0.41317 0.08647 0.13538 0.0
C789 C 0.44044 0.06002 0.13 0.0
C790 C 0.32749 0.05759 0.10878 0.0
C791 C 0.42447 0.11566 0.14803 0.0
C792 C 0.32359 0.18097 0.12804 0.0
C793 C 0.30002 0.17745 0.14175 0.0
C794 C 0.34818 0.15131 0.12344 0.0
C795 C 0.34866 0.11703 0.13259 0.0
C796 C 0.32403 0.11279 0.14614 0.0
C797 C 0.30023 0.14326 0.15067 0.0
C798 C 0.37446 0.15711 0.10905 0.0
C799 C 0.32326 0.07634 0.15597 0.0
H800 H 0.38802 0.01302 0.10143 0.0
H801 H 0.46901 0.06082 0.1351 0.0
H802 H 0.30525 0.05749 0.11841 0.0
H803 H 0.32283 0.08347 0.10123 0.0
H804 H 0.32353 0.03204 0.10095 0.0
H805 H 0.45362 0.11051 0.15294 0.0
H806 H 0.42363 0.14465 0.14257 0.0
H807 H 0.40393 0.1154 0.15831 0.0
H808 H 0.32366 0.20739 0.12114 0.0
H809 H 0.28182 0.14033 0.16121 0.0
H810 H 0.36975 0.13437 0.09987 0.0
H811 H 0.40465 0.15502 0.1131 0.0
H812 H 0.37014 0.18528 0.10308 0.0
H813 H 0.31844 0.05152 0.14783 0.0
H814 H 0.30063 0.07666 0.16545 0.0
H815 H 0.35126 0.07196 0.16203 0.0
C816 C 0.07986 0.08648 0.38552 0.0
C817 C 0.08489 0.04737 0.38258 0.0
C818 C 0.10985 0.11236 0.38318 0.0
C819 C 0.14579 0.09876 0.37783 0.0
C820 C 0.15109 0.05934 0.37479 0.0
C821 C 0.12049 0.03407 0.37717 0.0
C822 C 0.10307 0.15427 0.38644 0.0
C823 C 0.18908 0.04387 0.36912 0.0
C824 C 0.21052 0.17216 0.3582 0.0
C825 C 0.23413 0.18258 0.37129 0.0
C826 C 0.18229 0.14415 0.36005 0.0
C827 C 0.17765 0.12605 0.37533 0.0
C828 C 0.20213 0.13555 0.38846 0.0
C829 C 0.23009 0.16378 0.38629 0.0
C830 C 0.15666 0.13479 0.34578 0.0
C831 C 0.1981 0.11663 0.40491 0.0
H832 H 0.05241 0.09698 0.38967 0.0
H833 H 0.12461 0.00385 0.37492 0.0
H834 H 0.12305 0.16449 0.39598 0.0
H835 H 0.10881 0.17113 0.37525 0.0
H836 H 0.07337 0.16019 0.39048 0.0
H837 H 0.18852 0.01244 0.36733 0.0
H838 H 0.19733 0.0576 0.35745 0.0
H839 H 0.21161 0.05084 0.37816 0.0
H840 H 0.21352 0.18645 0.34655 0.0
H841 H 0.24833 0.17155 0.39643 0.0
H842 H 0.12678 0.14286 0.34869 0.0
H843 H 0.15696 0.10362 0.3434 0.0
H844 H 0.16535 0.14995 0.33448 0.0
H845 H 0.16998 0.12404 0.41028 0.0
H846 H 0.22089 0.1255 0.41355 0.0
H847 H 0.19903 0.08512 0.40359 0.0
C848 C 0.9034 0.01081 0.36268 0.0
C849 C 0.89808 0.98559 0.37577 0.0
C850 C 0.87329 0.03331 0.35683 0.0
C851 C 0.83691 0.0305 0.36423 0.0
C852 C 0.83074 0.0036 0.37684 0.0
C853 C 0.86149 0.98142 0.38249 0.0
C854 C 0.881 0.06158 0.3433 0.0
C855 C 0.79223 -0.00035 0.38492 0.0
C856 C 0.78175 0.12312 0.36233 0.0
C857 C 0.75826 0.11731 0.3487 0.0
C858 C 0.80606 0.09428 0.36801 0.0
C859 C 0.80689 0.05868 0.35987 0.0
C860 C 0.78176 0.05185 0.34667 0.0
C861 C 0.75768 0.08133 0.34121 0.0
C862 C 0.83233 0.10267 0.38218 0.0
C863 C 0.78169 0.01411 0.3378 0.0
H864 H 0.93149 0.01392 0.35729 0.0
H865 H 0.85709 0.96179 0.39253 0.0
H866 H 0.85949 0.0585 0.33346 0.0
H867 H 0.87857 0.09109 0.34812 0.0
H868 H 0.90992 0.05797 0.33796 0.0
H869 H 0.79077 0.97409 0.39292 0.0
H870 H 0.78643 0.02533 0.39242 0.0
H871 H 0.76926 -0.00226 0.37563 0.0
H872 H 0.78207 0.1507 0.36831 0.0
H873 H 0.73944 0.07657 0.33073 0.0
H874 H 0.86239 0.103 0.3779 0.0
H875 H 0.82997 0.07997 0.39156 0.0
H876 H 0.82597 0.13062 0.38797 0.0
H877 H 0.80846 0.01121 0.33068 0.0
H878 H 0.7571 0.01155 0.3293 0.0
H879 H 0.78077 0.99005 0.3466 0.0
C880 C 0.65513 -2e-05 0.09404 0.0
C881 C 0.617 0.00776 0.09812 0.0
C882 C 0.68517 0.02085 0.10109 0.0
C883 C 0.67672 0.05016 0.11239 0.0
C884 C 0.63834 0.05773 0.11671 0.0
C885 C 0.609 0.03643 0.10955 0.0
C886 C 0.72582 0.01195 0.09629 0.0
C887 C 0.62813 0.08883 0.1287 0.0
C888 C 0.74753 0.09131 0.14253 0.0
C889 C 0.75541 0.12685 0.1354 0.0
C890 C 0.72378 0.0648 0.13467 0.0
C891 C 0.70755 0.0742 0.11937 0.0
C892 C 0.71735 0.109 0.11167 0.0
C893 C 0.74123 0.13488 0.11976 0.0
C894 C 0.71422 0.02781 0.14319 0.0
C895 C 0.70065 0.12004 0.09535 0.0
H896 H 0.66154 0.97779 0.08526 0.0
H897 H 0.57965 0.04261 0.11282 0.0
H898 H 0.73866 0.03708 0.09014 0.0
H899 H 0.74326 0.00598 0.1073 0.0
H900 H 0.72771 0.98704 0.08795 0.0
H901 H 0.5969 0.09047 0.13102 0.0
H902 H 0.64293 0.08383 0.14047 0.0
H903 H 0.63786 0.1169 0.12399 0.0
H904 H 0.75864 0.08473 0.15454 0.0
H905 H 0.74744 0.16214 0.11409 0.0
H906 H 0.71672 0.00339 0.13466 0.0
H907 H 0.68419 0.02877 0.14749 0.0
H908 H 0.73305 0.02249 0.15387 0.0
H909 H 0.70376 0.09632 0.08651 0.0
H910 H 0.7144 0.14596 0.0902 0.0
H911 H 0.66964 0.12578 0.09673 0.0
C912 C 0.67551 0.83843 0.874 0.0
C913 C 0.71266 0.84235 0.86788 0.0
C914 C 0.65546 0.86998 0.88003 0.0
C915 C 0.6729 0.90642 0.87985 0.0
C916 C 0.71064 0.91056 0.87395 0.0
C917 C 0.73018 0.87837 0.86807 0.0
C918 C 0.6153 0.86437 0.88633 0.0
C919 C 0.72999 0.94905 0.87354 0.0
C920 C 0.6 0.98598 0.87991 0.0
C921 C 0.59786 -0.00529 0.89655 0.0
C922 C 0.62623 0.959 0.87412 0.0
C923 C 0.65065 0.94013 0.88529 0.0
C924 C 0.65029 0.95054 0.90194 0.0
C925 C 0.62395 0.9779 0.90738 0.0
C926 C 0.62613 0.94901 0.85622 0.0
C927 C 0.67589 0.93098 0.9142 0.0
H928 H 0.66188 0.81065 0.87401 0.0
H929 H 0.75891 0.88156 0.86335 0.0
H930 H 0.613 0.87526 0.89898 0.0
H931 H 0.59489 0.88091 0.87874 0.0
H932 H 0.60648 0.8339 0.88622 0.0
H933 H 0.76011 0.9471 0.86937 0.0
H934 H 0.71423 0.96843 0.8652 0.0
H935 H 0.72946 0.96228 0.88581 0.0
H936 H 0.58023 -0.00073 0.87144 0.0
H937 H 0.62254 0.98464 0.92026 0.0
H938 H 0.61403 0.92 0.85456 0.0
H939 H 0.65569 0.94856 0.85137 0.0
H940 H 0.6089 0.96945 0.8489 0.0
H941 H 0.6661 0.90115 0.91601 0.0
H942 H 0.6757 0.94566 0.9262 0.0
H943 H 0.7057 0.9297 0.90967 0.0
C944 C 0.8616 0.83312 0.63952 0.0
C945 C 0.82183 0.83571 0.64114 0.0
C946 C 0.8817 0.85858 0.62952 0.0
C947 C 0.86157 0.88764 0.62111 0.0
C948 C 0.82158 0.89118 0.62308 0.0
C949 C 0.80212 0.86498 0.63301 0.0
C950 C 0.92435 0.8537 0.62761 0.0
C951 C 0.7993 0.92219 0.61449 0.0
C952 C 0.92359 0.96827 0.60537 0.0
C953 C 0.92961 0.95706 0.58916 0.0
C954 C 0.90002 0.94689 0.61574 0.0
C955 C 0.88246 0.9133 0.6098 0.0
C956 C 0.88715 0.90271 0.59327 0.0
C957 C 0.9105 0.92488 0.58312 0.0
C958 C 0.89517 0.9594 0.63322 0.0
C959 C 0.86902 0.86694 0.58652 0.0
H960 H 0.87701 0.81049 0.64572 0.0
H961 H 0.77138 0.86725 0.63428 0.0
H962 H 0.93127 0.84761 0.61468 0.0
H963 H 0.93925 0.8805 0.63097 0.0
H964 H 0.9358 0.83013 0.63527 0.0
H965 H 0.76874 0.92252 0.61811 0.0
H966 H 0.81192 0.95054 0.61718 0.0
H967 H 0.80098 0.91796 0.60111 0.0
H968 H 0.93803 0.99331 0.61008 0.0
H969 H 0.91499 0.91603 0.57061 0.0
H970 H 0.90951 0.93865 0.64143 0.0
H971 H 0.86447 0.95988 0.63655 0.0
H972 H 0.90748 0.98814 0.63547 0.0
H973 H 0.88141 0.84152 0.59266 0.0
H974 H 0.87347 0.86402 0.57318 0.0
H975 H 0.83789 0.86686 0.58901 0.0
C976 C 0.72872 0.34725 0.13242 0.0
C977 C 0.71178 0.31122 0.13434 0.0
C978 C 0.70806 0.37795 0.12579 0.0
C979 C 0.66973 0.37234 0.12086 0.0
C980 C 0.65248 0.33608 0.12281 0.0
C981 C 0.67367 0.30602 0.12958 0.0
C982 C 0.72723 0.41633 0.12403 0.0
C983 C 0.61169 0.32894 0.11761 0.0
C984 C 0.60041 0.45492 0.11632 0.0
C985 C 0.59927 0.45956 0.09934 0.0
C986 C 0.62438 0.42761 0.12355 0.0
C987 C 0.64747 0.40418 0.11355 0.0
C988 C 0.64742 0.40958 0.09645 0.0
C989 C 0.62342 0.43736 0.08955 0.0
C990 C 0.624 0.42294 0.14185 0.0
C991 C 0.67154 0.38498 0.08539 0.0
H992 H 0.75814 0.35151 0.13613 0.0
H993 H 0.6604 0.27826 0.13098 0.0
H994 H 0.72774 0.42492 0.11102 0.0
H995 H 0.71073 0.4384 0.1307 0.0
H996 H 0.757 0.41616 0.12873 0.0
H997 H 0.60256 0.29905 0.11992 0.0
H998 H 0.59216 0.34844 0.12424 0.0
H999 H 0.60842 0.33507 0.10441 0.0
H1000 H 0.58202 0.47217 0.12398 0.0
H1001 H 0.6227 0.44076 0.07642 0.0
H1002 H 0.65355 0.42381 0.14673 0.0
H1003 H 0.61185 0.39468 0.14507 0.0
H1004 H 0.60683 0.44543 0.14797 0.0
H1005 H 0.70182 0.38553 0.08937 0.0
H1006 H 0.67002 0.39436 0.07247 0.0
H1007 H 0.66173 0.3549 0.08613 0.0
C1008 C 0.78925 0.34301 0.3559 0.0
C1009 C 0.80461 0.30607 0.35699 0.0
C1010 C 0.81061 0.37496 0.36072 0.0
C1011 C 0.84805 0.36974 0.36685 0.0
C1012 C 0.86344 0.33249 0.36825 0.0
C1013 C 0.84156 0.30111 0.36326 0.0
C1014 C 0.79336 0.41431 0.35903 0.0
C1015 C 0.90321 0.3258 0.37483 0.0
C1016 C 0.92097 0.44951 0.36488 0.0
C1017 C 0.92144 0.46227 0.38107 0.0
C1018 C 0.8963 0.42018 0.35996 0.0
C1019 C 0.87163 0.40317 0.37153 0.0
C1020 C 0.8711 0.41671 0.38776 0.0
C1021 C 0.89597 0.44619 0.39234 0.0
C1022 C 0.89748 0.40658 0.34251 0.0
C1023 C 0.84521 0.3992 0.40044 0.0
H1024 H 0.76072 0.34706 0.35105 0.0
H1025 H 0.85357 0.27266 0.36422 0.0
H1026 H 0.79359 0.42911 0.37098 0.0
H1027 H 0.81078 0.43171 0.35053 0.0
H1028 H 0.76353 0.41342 0.35443 0.0
H1029 H 0.91054 0.29496 0.37553 0.0
H1030 H 0.92447 0.34024 0.36694 0.0
H1031 H 0.90588 0.33833 0.38719 0.0
H1032 H 0.94042 0.46192 0.35608 0.0
H1033 H 0.89611 0.45593 0.40487 0.0
H1034 H 0.86835 0.40694 0.33716 0.0
H1035 H 0.90783 0.37664 0.3421 0.0
H1036 H 0.9165 0.42441 0.33479 0.0
H1037 H 0.8152 0.39925 0.39608 0.0
H1038 H 0.84654 0.41457 0.41226 0.0
H1039 H 0.85348 0.36899 0.40252 0.0
C1040 C 0.90531 0.52234 0.61462 0.0
C1041 C 0.93963 0.52196 0.62345 0.0
C1042 C 0.87699 0.54966 0.61783 0.0
C1043 C 0.88355 0.5777 0.62992 0.0
C1044 C 0.91755 0.57658 0.63928 0.0
C1045 C 0.94505 0.54845 0.63603 0.0
C1046 C 0.84072 0.54944 0.60785 0.0
C1047 C 0.92579 0.6063 0.65213 0.0
C1048 C 0.83564 0.67411 0.62474 0.0
C1049 C 0.80716 0.67269 0.6367 0.0
C1050 C 0.86052 0.64323 0.62235 0.0
C1051 C 0.85629 0.60987 0.63195 0.0
C1052 C 0.82682 0.6078 0.6437 0.0
C1053 C 0.80281 0.63944 0.64606 0.0
C1054 C 0.89197 0.64671 0.60985 0.0
C1055 C 0.82098 0.5724 0.65392 0.0
H1056 H 0.90091 0.50171 0.60495 0.0
H1057 H 0.97163 0.54841 0.64282 0.0
H1058 H 0.81538 0.5512 0.61593 0.0
H1059 H 0.84007 0.57481 0.59975 0.0
H1060 H 0.83824 0.52342 0.60019 0.0
H1061 H 0.9525 0.60012 0.65897 0.0
H1062 H 0.92857 0.63476 0.64628 0.0
H1063 H 0.9018 0.60808 0.66091 0.0
H1064 H 0.83928 0.69985 0.61755 0.0
H1065 H 0.78065 0.63816 0.65527 0.0
H1066 H 0.88954 0.62348 0.60073 0.0
H1067 H 0.9202 0.64361 0.61588 0.0
H1068 H 0.89124 0.67455 0.60334 0.0
H1069 H 0.81785 0.54704 0.64594 0.0
H1070 H 0.79538 0.57457 0.66185 0.0
H1071 H 0.84638 0.56746 0.66174 0.0
C1072 C 0.73771 0.66546 0.89172 0.0
C1073 C 0.73953 0.67568 0.87521 0.0
C1074 C 0.71094 0.63858 0.89723 0.0
C1075 C 0.6854 0.62175 0.88596 0.0
C1076 C 0.68794 0.63103 0.86921 0.0
C1077 C 0.71503 0.6578 0.86404 0.0
C1078 C 0.70919 0.6291 0.91517 0.0
C1079 C 0.66113 0.6137 0.85682 0.0
C1080 C 0.62981 0.53202 0.89626 0.0
C1081 C 0.59387 0.54713 0.90022 0.0
C1082 C 0.66031 0.55604 0.89206 0.0
C1083 C 0.65455 0.59603 0.8917 0.0
C1084 C 0.61857 0.61147 0.89599 0.0
C1085 C 0.5887 0.58683 0.90027 0.0
C1086 C 0.69842 0.53863 0.8877 0.0
C1087 C 0.6113 0.654 0.89562 0.0
H1088 H 0.75663 0.67906 0.90042 0.0
H1089 H 0.71629 0.66544 0.85124 0.0
H1090 H 0.68168 0.63922 0.9203 0.0
H1091 H 0.71035 0.59772 0.91699 0.0
H1092 H 0.73288 0.64244 0.92214 0.0
H1093 H 0.66807 0.62257 0.84417 0.0
H1094 H 0.66224 0.58208 0.85753 0.0
H1095 H 0.63134 0.62245 0.85954 0.0
H1096 H 0.63408 0.50136 0.89631 0.0
H1097 H 0.56102 0.59871 0.90332 0.0
H1098 H 0.72146 0.55168 0.89512 0.0
H1099 H 0.70504 0.54462 0.87472 0.0
H1100 H 0.69891 0.50722 0.8896 0.0
H1101 H 0.63244 0.669 0.90339 0.0
H1102 H 0.58214 0.66148 0.8999 0.0
H1103 H 0.61485 0.6649 0.88301 0.0
C1104 C 0.36956 0.47333 0.89136 0.0
C1105 C 0.40748 0.48333 0.88789 0.0
C1106 C 0.33899 0.49471 0.885 0.0
C1107 C 0.34669 0.52655 0.87489 0.0
C1108 C 0.38488 0.53575 0.87083 0.0
C1109 C 0.41478 0.51412 0.87742 0.0
C1110 C 0.29862 0.48416 0.8896 0.0
C1111 C 0.39427 0.56932 0.85996 0.0
C1112 C 0.27288 0.57501 0.84806 0.0
C1113 C 0.26582 0.6085 0.85692 0.0
C1114 C 0.29764 0.54682 0.85415 0.0
C1115 C 0.31541 0.55227 0.86947 0.0
C1116 C 0.30639 0.58484 0.87891 0.0
C1117 C 0.2818 0.61262 0.87249 0.0
C1118 C 0.30657 0.51242 0.84375 0.0
C1119 C 0.32445 0.5915 0.89539 0.0
H1120 H 0.36374 0.44953 0.89943 0.0
H1121 H 0.44401 0.52177 0.87455 0.0
H1122 H 0.28636 0.50675 0.89749 0.0
H1123 H 0.28038 0.4823 0.87857 0.0
H1124 H 0.29724 0.45653 0.89623 0.0
H1125 H 0.42524 0.57104 0.85711 0.0
H1126 H 0.37812 0.56736 0.84836 0.0
H1127 H 0.38556 0.59626 0.86603 0.0
H1128 H 0.26053 0.57161 0.83603 0.0
H1129 H 0.27607 0.63822 0.8795 0.0
H1130 H 0.30508 0.48585 0.8511 0.0
H1131 H 0.33615 0.51479 0.83901 0.0
H1132 H 0.28674 0.50983 0.83323 0.0
H1133 H 0.32171 0.56567 0.90314 0.0
H1134 H 0.31138 0.61607 0.90189 0.0
H1135 H 0.3554 0.59727 0.89385 0.0
C1136 C 0.10135 0.56958 0.62089 0.0
C1137 C 0.10374 0.53294 0.61415 0.0
C1138 C 0.13341 0.58697 0.62789 0.0
C1139 C 0.16891 0.56755 0.62783 0.0
C1140 C 0.17147 0.53039 0.62114 0.0
C1141 C 0.13867 0.51332 0.61452 0.0
C1142 C 0.12935 0.62637 0.63518 0.0
C1143 C 0.20901 0.50917 0.62061 0.0
C1144 C 0.25194 0.63608 0.63084 0.0
C1145 C 0.26036 0.63447 0.64751 0.0
C1146 C 0.22398 0.61234 0.62402 0.0
C1147 C 0.2034 0.5871 0.63424 0.0
C1148 C 0.21322 0.58392 0.65093 0.0
C1149 C 0.24197 0.60745 0.65735 0.0
C1150 C 0.21495 0.61592 0.60609 0.0
C1151 C 0.19154 0.55777 0.66225 0.0
H1152 H 0.07428 0.58465 0.62077 0.0
H1153 H 0.1406 0.48501 0.60924 0.0
H1154 H 0.13993 0.62638 0.64794 0.0
H1155 H 0.14698 0.64702 0.62823 0.0
H1156 H 0.09928 0.63656 0.63512 0.0
H1157 H 0.20589 0.47992 0.61555 0.0
H1158 H 0.22967 0.52519 0.61297 0.0
H1159 H 0.22145 0.50706 0.63301 0.0
H1160 H 0.26639 0.6568 0.6232 0.0
H1161 H 0.24826 0.60636 0.67028 0.0
H1162 H 0.18682 0.6301 0.60452 0.0
H1163 H 0.21296 0.58728 0.60038 0.0
H1164 H 0.23679 0.63292 0.59948 0.0
H1165 H 0.16219 0.56903 0.66401 0.0
H1166 H 0.20549 0.55532 0.67438 0.0
H1167 H 0.18888 0.52883 0.65691 0.0
C1168 C 0.10678 0.48129 0.38581 0.0
C1169 C 0.10939 0.50409 0.3998 0.0
C1170 C 0.13843 0.46097 0.38005 0.0
C1171 C 0.17359 0.46339 0.38851 0.0
C1172 C 0.17691 0.48751 0.40227 0.0
C1173 C 0.14469 0.50767 0.40776 0.0
C1174 C 0.13379 0.4357 0.36526 0.0
C1175 C 0.214 0.49081 0.41156 0.0
C1176 C 0.23324 0.37435 0.38339 0.0
C1177 C 0.25762 0.38485 0.3706 0.0
C1178 C 0.20724 0.40046 0.38999 0.0
C1179 C 0.20556 0.438 0.38365 0.0
C1180 C 0.23166 0.44952 0.37144 0.0
C1181 C 0.25747 0.42273 0.36504 0.0
C1182 C 0.18002 0.38712 0.40309 0.0
C1183 C 0.23084 0.48941 0.36447 0.0
H1184 H 0.07971 0.4787 0.37948 0.0
H1185 H 0.14693 0.52536 0.41855 0.0
H1186 H 0.15608 0.44234 0.35609 0.0
H1187 H 0.13746 0.40535 0.36885 0.0
H1188 H 0.1053 0.43902 0.35945 0.0
H1189 H 0.21305 0.51381 0.42086 0.0
H1190 H 0.22024 0.46337 0.4178 0.0
H1191 H 0.238 0.49654 0.40309 0.0
H1192 H 0.2335 0.34524 0.3879 0.0
H1193 H 0.27639 0.43111 0.35522 0.0
H1194 H 0.15057 0.38607 0.39809 0.0
H1195 H 0.17985 0.40748 0.41343 0.0
H1196 H 0.18751 0.3583 0.40779 0.0
H1197 H 0.20479 0.49306 0.3569 0.0
H1198 H 0.2562 0.49539 0.35675 0.0
H1199 H 0.22954 0.51091 0.37437 0.0
C1200 C 0.3542 0.48309 0.0961 0.0
C1201 C 0.38764 0.49397 0.10429 0.0
C1202 C 0.32613 0.46125 0.10399 0.0
C1203 C 0.33169 0.45033 0.12044 0.0
C1204 C 0.36415 0.46345 0.12905 0.0
C1205 C 0.39178 0.48503 0.12086 0.0
C1206 C 0.29183 0.44784 0.09442 0.0
C1207 C 0.37094 0.45268 0.14665 0.0
C1208 C 0.25311 0.4044 0.14565 0.0
C1209 C 0.26362 0.36578 0.14487 0.0
C1210 C 0.27431 0.43239 0.13736 0.0
C1211 C 0.30649 0.42131 0.12805 0.0
C1212 C 0.31633 0.38223 0.12678 0.0
C1213 C 0.29486 0.355 0.13523 0.0
C1214 C 0.26308 0.47383 0.13898 0.0
C1215 C 0.35029 0.3692 0.11687 0.0
H1216 H 0.35071 0.49005 0.08331 0.0
H1217 H 0.41733 0.49379 0.12733 0.0
H1218 H 0.29462 0.41682 0.09193 0.0
H1219 H 0.26524 0.45197 0.10155 0.0
H1220 H 0.28896 0.46307 0.0826 0.0
H1221 H 0.39515 0.46873 0.15209 0.0
H1222 H 0.34494 0.45808 0.15401 0.0
H1223 H 0.37739 0.4217 0.14748 0.0
H1224 H 0.22895 0.41289 0.15306 0.0
H1225 H 0.30292 0.32516 0.13442 0.0
H1226 H 0.26077 0.48734 0.12679 0.0
H1227 H 0.28553 0.48944 0.14581 0.0
H1228 H 0.23547 0.47743 0.14547 0.0
H1229 H 0.34811 0.38022 0.10422 0.0
H1230 H 0.35276 0.33758 0.1164 0.0
H1231 H 0.37695 0.38086 0.12222 0.0
loop_
_geom_bond_atom_site_label_1
_geom_bond_atom_site_label_2
_geom_bond_distance
_geom_bond_site_symmetry_2
_ccdc_geom_bond_type
C0 O1 1.160 1_455 S
C0 O7 1.185 . S
O1 C0 1.160 1_655 S
O2 Zn3 1.899 1_655 S
O2 C10 1.284 1_545 S
Zn3 O2 1.899 1_455 S
Zn3 O4 2.032 . S
Zn3 O7 2.086 . S
Zn3 O12 1.977 . S
O4 Zn3 2.032 . S
O4 C8 1.278 . S
C5 O6 1.203 . S
C5 O12 1.267 1_565 S
O6 C5 1.203 . S
O7 C0 1.185 . S
O7 Zn3 2.086 . S
C8 O4 1.278 . S
C8 O9 1.211 1_545 S
O9 C8 1.211 1_565 S
C10 O2 1.284 1_565 S
C10 O11 1.273 . S
O11 C10 1.273 . S
O12 Zn3 1.977 . S
O12 C5 1.267 1_545 S
C13 O14 1.160 . S
C13 O20 1.185 . S
O14 C13 1.160 . S
O15 Zn16 1.899 . S
O15 C23 1.284 . S
Zn16 O15 1.899 . S
Zn16 O17 2.032 . S
Zn16 O20 2.086 . S
Zn16 O25 1.977 . S
O17 Zn16 2.032 . S
O17 C21 1.278 . S
C18 O19 1.203 . S
C18 O25 1.267 . S
O19 C18 1.203 . S
O20 C13 1.185 . S
O20 Zn16 2.086 . S
C21 O17 1.278 . S
C21 O22 1.211 . S
O22 C21 1.211 . S
C23 O15 1.284 . S
C23 O24 1.273 . S
O24 C23 1.273 . S
O25 Zn16 1.977 . S
O25 C18 1.267 . S
C26 O27 1.160 . S
C26 O33 1.185 . S
O27 C26 1.160 . S
O28 Zn29 1.899 . S
O28 C36 1.284 1_565 S
Zn29 O28 1.899 . S
Zn29 O30 2.032 . S
Zn29 O33 2.086 . S
Zn29 O38 1.977 . S
O30 Zn29 2.032 . S
O30 C34 1.278 . S
C31 O32 1.203 . S
C31 O38 1.267 1_545 S
O32 C31 1.203 . S
O33 C26 1.185 . S
O33 Zn29 2.086 . S
C34 O30 1.278 . S
C34 O35 1.211 1_565 S
O35 C34 1.211 1_545 S
C36 O28 1.284 1_545 S
C36 O37 1.273 . S
O37 C36 1.273 . S
O38 Zn29 1.977 . S
O38 C31 1.267 1_565 S
C39 O40 1.160 . S
C39 O46 1.185 . S
O40 C39 1.160 . S
O41 Zn42 1.899 . S
O41 C49 1.284 . S
Zn42 O41 1.899 . S
Zn42 O43 2.032 . S
Zn42 O46 2.086 . S
Zn42 O51 1.977 . S
O43 Zn42 2.032 . S
O43 C47 1.278 . S
C44 O45 1.203 . S
C44 O51 1.267 . S
O45 C44 1.203 . S
O46 C39 1.185 . S
O46 Zn42 2.086 . S
C47 O43 1.278 . S
C47 O48 1.211 . S
O48 C47 1.211 . S
C49 O41 1.284 . S
C49 O50 1.273 . S
O50 C49 1.273 . S
O51 Zn42 1.977 . S
O51 C44 1.267 . S
C52 O53 1.160 1_455 S
C52 O59 1.185 . S
O53 C52 1.160 1_655 S
O54 Zn55 1.899 1_655 S
O54 C62 1.284 1_565 S
Zn55 O54 1.899 1_455 S
Zn55 O56 2.032 . S
Zn55 O59 2.086 . S
Zn55 O64 1.977 . S
O56 Zn55 2.032 . S
O56 C60 1.278 . S
C57 O58 1.203 . S
C57 O64 1.267 1_545 S
O58 C57 1.203 . S
O59 C52 1.185 . S
O59 Zn55 2.086 . S
C60 O56 1.278 . S
C60 O61 1.211 1_565 S
O61 C60 1.211 1_545 S
C62 O54 1.284 1_545 S
C62 O63 1.273 . S
O63 C62 1.273 . S
O64 Zn55 1.977 . S
O64 C57 1.267 1_565 S
C65 O66 1.160 . S
C65 O72 1.185 . S
O66 C65 1.160 . S
O67 Zn68 1.899 . S
O67 C75 1.284 . S
Zn68 O67 1.899 . S
Zn68 O69 2.032 . S
Zn68 O72 2.086 . S
Zn68 O77 1.977 . S
O69 Zn68 2.032 . S
O69 C73 1.278 . S
C70 O71 1.203 . S
C70 O77 1.267 . S
O71 C70 1.203 . S
O72 C65 1.185 . S
O72 Zn68 2.086 . S
C73 O69 1.278 . S
C73 O74 1.211 . S
O74 C73 1.211 . S
C75 O67 1.284 . S
C75 O76 1.273 . S
O76 C75 1.273 . S
O77 Zn68 1.977 . S
O77 C70 1.267 . S
C78 O79 1.160 . S
C78 O85 1.185 . S
O79 C78 1.160 . S
O80 Zn81 1.899 . S
O80 C88 1.284 1_545 S
Zn81 O80 1.899 . S
Zn81 O82 2.032 . S
Zn81 O85 2.086 . S
Zn81 O90 1.977 . S
O82 Zn81 2.032 . S
O82 C86 1.278 . S
C83 O84 1.203 . S
C83 O90 1.267 1_565 S
O84 C83 1.203 . S
O85 C78 1.185 . S
O85 Zn81 2.086 . S
C86 O82 1.278 . S
C86 O87 1.211 1_545 S
O87 C86 1.211 1_565 S
C88 O80 1.284 1_565 S
C88 O89 1.273 . S
O89 C88 1.273 . S
O90 Zn81 1.977 . S
O90 C83 1.267 1_545 S
C91 O92 1.160 . S
C91 O98 1.185 . S
O92 C91 1.160 . S
O93 Zn94 1.899 . S
O93 C101 1.284 . S
Zn94 O93 1.899 . S
Zn94 O95 2.032 . S
Zn94 O98 2.086 . S
Zn94 O103 1.977 . S
O95 Zn94 2.032 . S
O95 C99 1.278 . S
C96 O97 1.203 . S
C96 O103 1.267 . S
O97 C96 1.203 . S
O98 C91 1.185 . S
O98 Zn94 2.086 . S
C99 O95 1.278 . S
C99 O100 1.211 . S
O100 C99 1.211 . S
C101 O93 1.284 . S
C101 O102 1.273 . S
O102 C101 1.273 . S
O103 Zn94 1.977 . S
O103 C96 1.267 . S
C104 O105 1.160 . S
C104 O111 1.185 . S
O105 C104 1.160 . S
O106 Zn107 1.899 . S
O106 C114 1.284 . S
Zn107 O106 1.899 . S
Zn107 O108 2.032 . S
Zn107 O111 2.086 . S
Zn107 O116 1.977 . S
O108 Zn107 2.032 . S
O108 C112 1.278 . S
C109 O110 1.203 . S
C109 O116 1.267 . S
O110 C109 1.203 . S
O111 C104 1.185 . S
O111 Zn107 2.086 . S
C112 O108 1.278 . S
C112 O113 1.211 . S
O113 C112 1.211 . S
C114 O106 1.284 . S
C114 O115 1.273 . S
O115 C114 1.273 . S
O116 Zn107 1.977 . S
O116 C109 1.267 . S
C117 O118 1.160 . S
C117 O124 1.185 . S
O118 C117 1.160 . S
O119 Zn120 1.899 . S
O119 C127 1.284 . S
Zn120 O119 1.899 . S
Zn120 O121 2.032 . S
Zn120 O124 2.086 . S
Zn120 O129 1.977 . S
O121 Zn120 2.032 . S
O121 C125 1.278 . S
C122 O123 1.203 . S
C122 O129 1.267 . S
O123 C122 1.203 . S
O124 C117 1.185 . S
O124 Zn120 2.086 . S
C125 O121 1.278 . S
C125 O126 1.211 . S
O126 C125 1.211 . S
C127 O119 1.284 . S
C127 O128 1.273 . S
O128 C127 1.273 . S
O129 Zn120 1.977 . S
O129 C122 1.267 . S
C130 O131 1.160 . S
C130 O137 1.185 . S
O131 C130 1.160 . S
O132 Zn133 1.899 . S
O132 C140 1.284 . S
Zn133 O132 1.899 . S
Zn133 O134 2.032 . S
Zn133 O137 2.086 . S
Zn133 O142 1.977 . S
O134 Zn133 2.032 . S
O134 C138 1.278 . S
C135 O136 1.203 . S
C135 O142 1.267 . S
O136 C135 1.203 . S
O137 C130 1.185 . S
O137 Zn133 2.086 . S
C138 O134 1.278 . S
C138 O139 1.211 . S
O139 C138 1.211 . S
C140 O132 1.284 . S
C140 O141 1.273 . S
O141 C140 1.273 . S
O142 Zn133 1.977 . S
O142 C135 1.267 . S
C143 O144 1.160 . S
C143 O150 1.185 . S
O144 C143 1.160 . S
O145 Zn146 1.899 . S
O145 C153 1.284 . S
Zn146 O145 1.899 . S
Zn146 O147 2.032 . S
Zn146 O150 2.086 . S
Zn146 O155 1.977 . S
O147 Zn146 2.032 . S
O147 C151 1.278 . S
C148 O149 1.203 . S
C148 O155 1.267 . S
O149 C148 1.203 . S
O150 C143 1.185 . S
O150 Zn146 2.086 . S
C151 O147 1.278 . S
C151 O152 1.211 . S
O152 C151 1.211 . S
C153 O145 1.284 . S
C153 O154 1.273 . S
O154 C153 1.273 . S
O155 Zn146 1.977 . S
O155 C148 1.267 . S
C156 O157 1.160 . S
C156 O163 1.185 . S
O157 C156 1.160 . S
O158 Zn159 1.899 . S
O158 C166 1.284 . S
Zn159 O158 1.899 . S
Zn159 O160 2.032 . S
Zn159 O163 2.086 . S
Zn159 O168 1.977 . S
O160 Zn159 2.032 . S
O160 C164 1.278 . S
C161 O162 1.203 . S
C161 O168 1.267 . S
O162 C161 1.203 . S
O163 C156 1.185 . S
O163 Zn159 2.086 . S
C164 O160 1.278 . S
C164 O165 1.211 . S
O165 C164 1.211 . S
C166 O158 1.284 . S
C166 O167 1.273 . S
O167 C166 1.273 . S
O168 Zn159 1.977 . S
O168 C161 1.267 . S
C169 O170 1.160 . S
C169 O176 1.185 . S
O170 C169 1.160 . S
O171 Zn172 1.899 . S
O171 C179 1.284 . S
Zn172 O171 1.899 . S
Zn172 O173 2.032 . S
Zn172 O176 2.086 . S
Zn172 O181 1.977 1_455 S
O173 Zn172 2.032 . S
O173 C177 1.278 . S
C174 O175 1.203 . S
C174 O181 1.267 . S
O175 C174 1.203 . S
O176 C169 1.185 . S
O176 Zn172 2.086 . S
C177 O173 1.278 . S
C177 O178 1.211 . S
O178 C177 1.211 . S
C179 O171 1.284 . S
C179 O180 1.273 . S
O180 C179 1.273 . S
O181 Zn172 1.977 1_655 S
O181 C174 1.267 . S
C182 O183 1.160 . S
C182 O189 1.185 . S
O183 C182 1.160 . S
O184 Zn185 1.899 . S
O184 C192 1.284 . S
Zn185 O184 1.899 . S
Zn185 O186 2.032 . S
Zn185 O189 2.086 . S
Zn185 O194 1.977 . S
O186 Zn185 2.032 . S
O186 C190 1.278 . S
C187 O188 1.203 . S
C187 O194 1.267 . S
O188 C187 1.203 . S
O189 C182 1.185 . S
O189 Zn185 2.086 . S
C190 O186 1.278 . S
C190 O191 1.211 . S
O191 C190 1.211 . S
C192 O184 1.284 . S
C192 O193 1.273 . S
O193 C192 1.273 . S
O194 Zn185 1.977 . S
O194 C187 1.267 . S
C195 O196 1.160 . S
C195 O202 1.185 . S
O196 C195 1.160 . S
O197 Zn198 1.899 . S
O197 C205 1.284 . S
Zn198 O197 1.899 . S
Zn198 O199 2.032 . S
Zn198 O202 2.086 . S
Zn198 O207 1.977 1_455 S
O199 Zn198 2.032 . S
O199 C203 1.278 . S
C200 O201 1.203 . S
C200 O207 1.267 . S
O201 C200 1.203 . S
O202 C195 1.185 . S
O202 Zn198 2.086 . S
C203 O199 1.278 . S
C203 O204 1.211 . S
O204 C203 1.211 . S
C205 O197 1.284 . S
C205 O206 1.273 . S
O206 C205 1.273 . S
O207 Zn198 1.977 1_655 S
O207 C200 1.267 . S
C208 C209 1.391 . S
C208 C210 1.394 . S
C208 H224 0.931 . S
C209 C208 1.391 . S
C209 C213 1.376 1_455 S
C210 C208 1.394 . S
C210 C211 1.369 . S
C210 C214 1.531 . S
C211 C210 1.369 . S
C211 C212 1.410 1_455 S
C211 C219 1.503 . S
C212 C211 1.410 1_655 S
C212 C213 1.392 . S
C212 C215 1.511 . S
C213 C209 1.376 1_655 S
C213 C212 1.392 . S
C213 H225 0.929 . S
C214 C210 1.531 . S
C214 H226 0.960 . S
C214 H227 0.962 . S
C214 H228 0.960 . S
C215 C212 1.511 . S
C215 H229 0.961 . S
C215 H230 0.961 . S
C215 H231 0.961 . S
C216 C217 1.370 . S
C216 C218 1.363 . S
C216 H232 0.931 . S
C217 C216 1.370 . S
C217 C221 1.408 . S
C218 C216 1.363 . S
C218 C219 1.370 . S
C218 C222 1.524 . S
C219 C211 1.503 . S
C219 C218 1.370 . S
C219 C220 1.403 . S
C220 C219 1.403 . S
C220 C221 1.404 . S
C220 C223 1.539 . S
C221 C217 1.408 . S
C221 C220 1.404 . S
C221 H233 0.930 . S
C222 C218 1.524 . S
C222 H234 0.956 . S
C222 H235 0.961 . S
C222 H236 0.961 . S
C223 C220 1.539 . S
C223 H237 0.958 . S
C223 H238 0.961 1_455 S
C223 H239 0.960 1_455 S
H224 C208 0.931 . S
H225 C213 0.929 . S
H226 C214 0.960 . S
H227 C214 0.962 . S
H228 C214 0.960 . S
H229 C215 0.961 . S
H230 C215 0.961 . S
H231 C215 0.961 . S
H232 C216 0.931 . S
H233 C221 0.930 . S
H234 C222 0.956 . S
H235 C222 0.961 . S
H236 C222 0.961 . S
H237 C223 0.958 . S
H238 C223 0.961 1_655 S
H239 C223 0.960 1_655 S
C240 C241 1.391 . S
C240 C242 1.394 . S
C240 H256 0.931 . S
C241 C240 1.391 . S
C241 C245 1.376 . S
C242 C240 1.394 . S
C242 C243 1.369 . S
C242 C246 1.531 1_655 S
C243 C242 1.369 . S
C243 C244 1.410 . S
C243 C251 1.503 1_655 S
C244 C243 1.410 . S
C244 C245 1.392 . S
C244 C247 1.511 . S
C245 C241 1.376 . S
C245 C244 1.392 . S
C245 H257 0.929 . S
C246 C242 1.531 1_455 S
C246 H258 0.960 . S
C246 H259 0.962 . S
C246 H260 0.960 1_455 S
C247 C244 1.511 . S
C247 H261 0.961 . S
C247 H262 0.961 1_655 S
C247 H263 0.961 . S
C248 C249 1.370 . S
C248 C250 1.363 . S
C248 H264 0.931 . S
C249 C248 1.370 . S
C249 C253 1.408 . S
C250 C248 1.363 . S
C250 C251 1.370 . S
C250 C254 1.524 . S
C251 C243 1.503 1_455 S
C251 C250 1.370 . S
C251 C252 1.403 . S
C252 C251 1.403 . S
C252 C253 1.404 . S
C252 C255 1.539 . S
C253 C249 1.408 . S
C253 C252 1.404 . S
C253 H265 0.930 . S
C254 C250 1.524 . S
C254 H266 0.956 . S
C254 H267 0.961 . S
C254 H268 0.961 . S
C255 C252 1.539 . S
C255 H269 0.958 . S
C255 H270 0.961 . S
C255 H271 0.960 . S
H256 C240 0.931 . S
H257 C245 0.929 . S
H258 C246 0.960 . S
H259 C246 0.962 . S
H260 C246 0.960 1_655 S
H261 C247 0.961 . S
H262 C247 0.961 1_455 S
H263 C247 0.961 . S
H264 C248 0.931 . S
H265 C253 0.930 . S
H266 C254 0.956 . S
H267 C254 0.961 . S
H268 C254 0.961 . S
H269 C255 0.958 . S
H270 C255 0.961 . S
H271 C255 0.960 . S
C272 C273 1.391 . S
C272 C274 1.394 . S
C272 H288 0.931 . S
C273 C272 1.391 . S
C273 C277 1.376 . S
C274 C272 1.394 . S
C274 C275 1.369 . S
C274 C278 1.531 . S
C275 C274 1.369 . S
C275 C276 1.410 . S
C275 C283 1.503 . S
C276 C275 1.410 . S
C276 C277 1.392 . S
C276 C279 1.511 . S
C277 C273 1.376 . S
C277 C276 1.392 . S
C277 H289 0.929 . S
C278 C274 1.531 . S
C278 H290 0.960 . S
C278 H291 0.962 . S
C278 H292 0.960 . S
C279 C276 1.511 . S
C279 H293 0.961 . S
C279 H294 0.961 . S
C279 H295 0.961 . S
C280 C281 1.370 . S
C280 C282 1.363 . S
C280 H296 0.931 . S
C281 C280 1.370 . S
C281 C285 1.408 . S
C282 C280 1.363 . S
C282 C283 1.370 . S
C282 C286 1.524 . S
C283 C275 1.503 . S
C283 C282 1.370 . S
C283 C284 1.403 . S
C284 C283 1.403 . S
C284 C285 1.404 . S
C284 C287 1.539 . S
C285 C281 1.408 . S
C285 C284 1.404 . S
C285 H297 0.930 . S
C286 C282 1.524 . S
C286 H298 0.956 . S
C286 H299 0.961 . S
C286 H300 0.961 . S
C287 C284 1.539 . S
C287 H301 0.958 . S
C287 H302 0.961 . S
C287 H303 0.960 . S
H288 C272 0.931 . S
H289 C277 0.929 . S
H290 C278 0.960 . S
H291 C278 0.962 . S
H292 C278 0.960 . S
H293 C279 0.961 . S
H294 C279 0.961 . S
H295 C279 0.961 . S
H296 C280 0.931 . S
H297 C285 0.930 . S
H298 C286 0.956 . S
H299 C286 0.961 . S
H300 C286 0.961 . S
H301 C287 0.958 . S
H302 C287 0.961 . S
H303 C287 0.960 . S
C304 C305 1.391 . S
C304 C306 1.394 . S
C304 H320 0.931 . S
C305 C304 1.391 . S
C305 C309 1.376 . S
C306 C304 1.394 . S
C306 C307 1.369 . S
C306 C310 1.531 . S
C307 C306 1.369 . S
C307 C308 1.410 . S
C307 C315 1.503 . S
C308 C307 1.410 . S
C308 C309 1.392 . S
C308 C311 1.511 . S
C309 C305 1.376 . S
C309 C308 1.392 . S
C309 H321 0.929 . S
C310 C306 1.531 . S
C310 H322 0.960 . S
C310 H323 0.962 . S
C310 H324 0.960 . S
C311 C308 1.511 . S
C311 H325 0.961 . S
C311 H326 0.961 . S
C311 H327 0.961 . S
C312 C313 1.370 . S
C312 C314 1.363 . S
C312 H328 0.931 . S
C313 C312 1.370 . S
C313 C317 1.408 . S
C314 C312 1.363 . S
C314 C315 1.370 . S
C314 C318 1.524 . S
C315 C307 1.503 . S
C315 C314 1.370 . S
C315 C316 1.403 . S
C316 C315 1.403 . S
C316 C317 1.404 . S
C316 C319 1.539 . S
C317 C313 1.408 . S
C317 C316 1.404 . S
C317 H329 0.930 . S
C318 C314 1.524 . S
C318 H330 0.956 . S
C318 H331 0.961 . S
C318 H332 0.961 . S
C319 C316 1.539 . S
C319 H333 0.958 . S
C319 H334 0.961 . S
C319 H335 0.960 . S
H320 C304 0.931 . S
H321 C309 0.929 . S
H322 C310 0.960 . S
H323 C310 0.962 . S
H324 C310 0.960 . S
H325 C311 0.961 . S
H326 C311 0.961 . S
H327 C311 0.961 . S
H328 C312 0.931 . S
H329 C317 0.930 . S
H330 C318 0.956 . S
H331 C318 0.961 . S
H332 C318 0.961 . S
H333 C319 0.958 . S
H334 C319 0.961 . S
H335 C319 0.960 . S
C336 C337 1.391 . S
C336 C338 1.394 . S
C336 H352 0.931 . S
C337 C336 1.391 . S
C337 C341 1.376 1_455 S
C338 C336 1.394 . S
C338 C339 1.369 . S
C338 C342 1.531 . S
C339 C338 1.369 . S
C339 C340 1.410 1_455 S
C339 C347 1.503 . S
C340 C339 1.410 1_655 S
C340 C341 1.392 . S
C340 C343 1.511 . S
C341 C337 1.376 1_655 S
C341 C340 1.392 . S
C341 H353 0.929 . S
C342 C338 1.531 . S
C342 H354 0.960 . S
C342 H355 0.962 . S
C342 H356 0.960 . S
C343 C340 1.511 . S
C343 H357 0.961 . S
C343 H358 0.961 . S
C343 H359 0.961 . S
C344 C345 1.370 . S
C344 C346 1.363 . S
C344 H360 0.931 . S
C345 C344 1.370 . S
C345 C349 1.408 . S
C346 C344 1.363 . S
C346 C347 1.370 . S
C346 C350 1.524 . S
C347 C339 1.503 . S
C347 C346 1.370 . S
C347 C348 1.403 . S
C348 C347 1.403 . S
C348 C349 1.404 . S
C348 C351 1.539 1_455 S
C349 C345 1.408 . S
C349 C348 1.404 . S
C349 H361 0.930 . S
C350 C346 1.524 . S
C350 H362 0.956 . S
C350 H363 0.961 . S
C350 H364 0.961 . S
C351 C348 1.539 1_655 S
C351 H365 0.958 1_655 S
C351 H366 0.961 . S
C351 H367 0.960 . S
H352 C336 0.931 . S
H353 C341 0.929 . S
H354 C342 0.960 . S
H355 C342 0.962 . S
H356 C342 0.960 . S
H357 C343 0.961 . S
H358 C343 0.961 . S
H359 C343 0.961 . S
H360 C344 0.931 . S
H361 C349 0.930 . S
H362 C350 0.956 . S
H363 C350 0.961 . S
H364 C350 0.961 . S
H365 C351 0.958 1_455 S
H366 C351 0.961 . S
H367 C351 0.960 . S
C368 C369 1.391 . S
C368 C370 1.394 . S
C368 H384 0.931 . S
C369 C368 1.391 . S
C369 C373 1.376 . S
C370 C368 1.394 . S
C370 C371 1.369 . S
C370 C374 1.531 . S
C371 C370 1.369 . S
C371 C372 1.410 . S
C371 C379 1.503 . S
C372 C371 1.410 . S
C372 C373 1.392 . S
C372 C375 1.511 . S
C373 C369 1.376 . S
C373 C372 1.392 . S
C373 H385 0.929 . S
C374 C370 1.531 . S
C374 H386 0.960 . S
C374 H387 0.962 . S
C374 H388 0.960 . S
C375 C372 1.511 . S
C375 H389 0.961 . S
C375 H390 0.961 . S
C375 H391 0.961 . S
C376 C377 1.370 . S
C376 C378 1.363 . S
C376 H392 0.931 . S
C377 C376 1.370 . S
C377 C381 1.408 . S
C378 C376 1.363 . S
C378 C379 1.370 . S
C378 C382 1.524 . S
C379 C371 1.503 . S
C379 C378 1.370 . S
C379 C380 1.403 . S
C380 C379 1.403 . S
C380 C381 1.404 . S
C380 C383 1.539 . S
C381 C377 1.408 . S
C381 C380 1.404 . S
C381 H393 0.930 . S
C382 C378 1.524 . S
C382 H394 0.956 . S
C382 H395 0.961 . S
C382 H396 0.961 . S
C383 C380 1.539 . S
C383 H397 0.958 . S
C383 H398 0.961 . S
C383 H399 0.960 . S
H384 C368 0.931 . S
H385 C373 0.929 . S
H386 C374 0.960 . S
H387 C374 0.962 . S
H388 C374 0.960 . S
H389 C375 0.961 . S
H390 C375 0.961 . S
H391 C375 0.961 . S
H392 C376 0.931 . S
H393 C381 0.930 . S
H394 C382 0.956 . S
H395 C382 0.961 . S
H396 C382 0.961 . S
H397 C383 0.958 . S
H398 C383 0.961 . S
H399 C383 0.960 . S
C400 C401 1.391 . S
C400 C402 1.394 . S
C400 H416 0.931 . S
C401 C400 1.391 . S
C401 C405 1.376 . S
C402 C400 1.394 . S
C402 C403 1.369 . S
C402 C406 1.531 . S
C403 C402 1.369 . S
C403 C404 1.410 . S
C403 C411 1.503 . S
C404 C403 1.410 . S
C404 C405 1.392 . S
C404 C407 1.511 . S
C405 C401 1.376 . S
C405 C404 1.392 . S
C405 H417 0.929 . S
C406 C402 1.531 . S
C406 H418 0.960 . S
C406 H419 0.962 . S
C406 H420 0.960 . S
C407 C404 1.511 . S
C407 H421 0.961 . S
C407 H422 0.961 . S
C407 H423 0.961 . S
C408 C409 1.370 . S
C408 C410 1.363 . S
C408 H424 0.931 . S
C409 C408 1.370 . S
C409 C413 1.408 . S
C410 C408 1.363 . S
C410 C411 1.370 . S
C410 C414 1.524 . S
C411 C403 1.503 . S
C411 C410 1.370 . S
C411 C412 1.403 . S
C412 C411 1.403 . S
C412 C413 1.404 . S
C412 C415 1.539 . S
C413 C409 1.408 . S
C413 C412 1.404 . S
C413 H425 0.930 . S
C414 C410 1.524 . S
C414 H426 0.956 . S
C414 H427 0.961 . S
C414 H428 0.961 . S
C415 C412 1.539 . S
C415 H429 0.958 . S
C415 H430 0.961 . S
C415 H431 0.960 . S
H416 C400 0.931 . S
H417 C405 0.929 . S
H418 C406 0.960 . S
H419 C406 0.962 . S
H420 C406 0.960 . S
H421 C407 0.961 . S
H422 C407 0.961 . S
H423 C407 0.961 . S
H424 C408 0.931 . S
H425 C413 0.930 . S
H426 C414 0.956 . S
H427 C414 0.961 . S
H428 C414 0.961 . S
H429 C415 0.958 . S
H430 C415 0.961 . S
H431 C415 0.960 . S
C432 C433 1.391 . S
C432 C434 1.394 . S
C432 H448 0.931 . S
C433 C432 1.391 . S
C433 C437 1.376 . S
C434 C432 1.394 . S
C434 C435 1.369 . S
C434 C438 1.531 . S
C435 C434 1.369 . S
C435 C436 1.410 . S
C435 C443 1.503 1_455 S
C436 C435 1.410 . S
C436 C437 1.392 . S
C436 C439 1.511 . S
C437 C433 1.376 . S
C437 C436 1.392 . S
C437 H449 0.929 . S
C438 C434 1.531 . S
C438 H450 0.960 . S
C438 H451 0.962 . S
C438 H452 0.960 . S
C439 C436 1.511 . S
C439 H453 0.961 . S
C439 H454 0.961 . S
C439 H455 0.961 . S
C440 C441 1.370 . S
C440 C442 1.363 . S
C440 H456 0.931 . S
C441 C440 1.370 . S
C441 C445 1.408 . S
C442 C440 1.363 . S
C442 C443 1.370 . S
C442 C446 1.524 1_655 S
C443 C435 1.503 1_655 S
C443 C442 1.370 . S
C443 C444 1.403 . S
C444 C443 1.403 . S
C444 C445 1.404 . S
C444 C447 1.539 . S
C445 C441 1.408 . S
C445 C444 1.404 . S
C445 H457 0.930 . S
C446 C442 1.524 1_455 S
C446 H458 0.956 . S
C446 H459 0.961 . S
C446 H460 0.961 1_455 S
C447 C444 1.539 . S
C447 H461 0.958 . S
C447 H462 0.961 . S
C447 H463 0.960 1_655 S
H448 C432 0.931 . S
H449 C437 0.929 . S
H450 C438 0.960 . S
H451 C438 0.962 . S
H452 C438 0.960 . S
H453 C439 0.961 . S
H454 C439 0.961 . S
H455 C439 0.961 . S
H456 C440 0.931 . S
H457 C445 0.930 . S
H458 C446 0.956 . S
H459 C446 0.961 . S
H460 C446 0.961 1_655 S
H461 C447 0.958 . S
H462 C447 0.961 . S
H463 C447 0.960 1_455 S
C464 C465 1.391 1_545 S
C464 C466 1.394 . S
C464 H480 0.931 . S
C465 C464 1.391 1_565 S
C465 C469 1.376 1_455 S
C466 C464 1.394 . S
C466 C467 1.369 . S
C466 C470 1.531 . S
C467 C466 1.369 . S
C467 C468 1.410 1_445 S
C467 C475 1.503 . S
C468 C467 1.410 1_665 S
C468 C469 1.392 . S
C468 C471 1.511 . S
C469 C465 1.376 1_655 S
C469 C468 1.392 . S
C469 H481 0.929 . S
C470 C466 1.531 . S
C470 H482 0.960 . S
C470 H483 0.962 . S
C470 H484 0.960 . S
C471 C468 1.511 . S
C471 H485 0.961 . S
C471 H486 0.961 . S
C471 H487 0.961 . S
C472 C473 1.370 1_565 S
C472 C474 1.363 . S
C472 H488 0.931 . S
C473 C472 1.370 1_545 S
C473 C477 1.408 1_455 S
C474 C472 1.363 . S
C474 C475 1.370 1_565 S
C474 C478 1.524 . S
C475 C467 1.503 . S
C475 C474 1.370 1_545 S
C475 C476 1.403 1_455 S
C476 C475 1.403 1_655 S
C476 C477 1.404 . S
C476 C479 1.539 . S
C477 C473 1.408 1_655 S
C477 C476 1.404 . S
C477 H489 0.930 . S
C478 C474 1.524 . S
C478 H490 0.956 . S
C478 H491 0.961 . S
C478 H492 0.961 . S
C479 C476 1.539 . S
C479 H493 0.958 . S
C479 H494 0.961 . S
C479 H495 0.960 . S
H480 C464 0.931 . S
H481 C469 0.929 . S
H482 C470 0.960 . S
H483 C470 0.962 . S
H484 C470 0.960 . S
H485 C471 0.961 . S
H486 C471 0.961 . S
H487 C471 0.961 . S
H488 C472 0.931 . S
H489 C477 0.930 . S
H490 C478 0.956 . S
H491 C478 0.961 . S
H492 C478 0.961 . S
H493 C479 0.958 . S
H494 C479 0.961 . S
H495 C479 0.960 . S
C496 C497 1.391 . S
C496 C498 1.394 . S
C496 H512 0.931 . S
C497 C496 1.391 . S
C497 C501 1.376 . S
C498 C496 1.394 . S
C498 C499 1.369 . S
C498 C502 1.531 . S
C499 C498 1.369 . S
C499 C500 1.410 . S
C499 C507 1.503 . S
C500 C499 1.410 . S
C500 C501 1.392 . S
C500 C503 1.511 . S
C501 C497 1.376 . S
C501 C500 1.392 . S
C501 H513 0.929 . S
C502 C498 1.531 . S
C502 H514 0.960 . S
C502 H515 0.962 . S
C502 H516 0.960 . S
C503 C500 1.511 . S
C503 H517 0.961 . S
C503 H518 0.961 . S
C503 H519 0.961 . S
C504 C505 1.370 . S
C504 C506 1.363 . S
C504 H520 0.931 . S
C505 C504 1.370 . S
C505 C509 1.408 . S
C506 C504 1.363 . S
C506 C507 1.370 . S
C506 C510 1.524 . S
C507 C499 1.503 . S
C507 C506 1.370 . S
C507 C508 1.403 . S
C508 C507 1.403 . S
C508 C509 1.404 . S
C508 C511 1.539 . S
C509 C505 1.408 . S
C509 C508 1.404 . S
C509 H521 0.930 . S
C510 C506 1.524 . S
C510 H522 0.956 . S
C510 H523 0.961 . S
C510 H524 0.961 . S
C511 C508 1.539 . S
C511 H525 0.958 . S
C511 H526 0.961 . S
C511 H527 0.960 . S
H512 C496 0.931 . S
H513 C501 0.929 . S
H514 C502 0.960 . S
H515 C502 0.962 . S
H516 C502 0.960 . S
H517 C503 0.961 . S
H518 C503 0.961 . S
H519 C503 0.961 . S
H520 C504 0.931 . S
H521 C509 0.930 . S
H522 C510 0.956 . S
H523 C510 0.961 . S
H524 C510 0.961 . S
H525 C511 0.958 . S
H526 C511 0.961 . S
H527 C511 0.960 . S
C528 C529 1.391 . S
C528 C530 1.394 . S
C528 H544 0.931 . S
C529 C528 1.391 . S
C529 C533 1.376 1_565 S
C530 C528 1.394 . S
C530 C531 1.369 . S
C530 C534 1.531 . S
C531 C530 1.369 . S
C531 C532 1.410 1_565 S
C531 C539 1.503 1_554 S
C532 C531 1.410 1_545 S
C532 C533 1.392 . S
C532 C535 1.511 . S
C533 C529 1.376 1_545 S
C533 C532 1.392 . S
C533 H545 0.929 . S
C534 C530 1.531 . S
C534 H546 0.960 1_554 S
C534 H547 0.962 . S
C534 H548 0.960 . S
C535 C532 1.511 . S
C535 H549 0.961 . S
C535 H550 0.961 . S
C535 H551 0.961 . S
C536 C537 1.370 . S
C536 C538 1.363 . S
C536 H552 0.931 . S
C537 C536 1.370 . S
C537 C541 1.408 1_545 S
C538 C536 1.363 . S
C538 C539 1.370 1_545 S
C538 C542 1.524 . S
C539 C531 1.503 1_556 S
C539 C538 1.370 1_565 S
C539 C540 1.403 . S
C540 C539 1.403 . S
C540 C541 1.404 . S
C540 C543 1.539 . S
C541 C537 1.408 1_565 S
C541 C540 1.404 . S
C541 H553 0.930 . S
C542 C538 1.524 . S
C542 H554 0.956 1_556 S
C542 H555 0.961 1_556 S
C542 H556 0.961 . S
C543 C540 1.539 . S
C543 H557 0.958 . S
C543 H558 0.961 . S
C543 H559 0.960 . S
H544 C528 0.931 . S
H545 C533 0.929 . S
H546 C534 0.960 1_556 S
H547 C534 0.962 . S
H548 C534 0.960 . S
H549 C535 0.961 . S
H550 C535 0.961 . S
H551 C535 0.961 . S
H552 C536 0.931 . S
H553 C541 0.930 . S
H554 C542 0.956 1_554 S
H555 C542 0.961 1_554 S
H556 C542 0.961 . S
H557 C543 0.958 . S
H558 C543 0.961 . S
H559 C543 0.960 . S
C560 C561 1.391 . S
C560 C562 1.394 . S
C560 H576 0.931 . S
C561 C560 1.391 . S
C561 C565 1.376 . S
C562 C560 1.394 . S
C562 C563 1.369 . S
C562 C566 1.531 . S
C563 C562 1.369 . S
C563 C564 1.410 . S
C563 C571 1.503 . S
C564 C563 1.410 . S
C564 C565 1.392 . S
C564 C567 1.511 . S
C565 C561 1.376 . S
C565 C564 1.392 . S
C565 H577 0.929 . S
C566 C562 1.531 . S
C566 H578 0.960 . S
C566 H579 0.962 . S
C566 H580 0.960 . S
C567 C564 1.511 . S
C567 H581 0.961 . S
C567 H582 0.961 . S
C567 H583 0.961 . S
C568 C569 1.370 . S
C568 C570 1.363 . S
C568 H584 0.931 . S
C569 C568 1.370 . S
C569 C573 1.408 . S
C570 C568 1.363 . S
C570 C571 1.370 . S
C570 C574 1.524 . S
C571 C563 1.503 . S
C571 C570 1.370 . S
C571 C572 1.403 . S
C572 C571 1.403 . S
C572 C573 1.404 . S
C572 C575 1.539 . S
C573 C569 1.408 . S
C573 C572 1.404 . S
C573 H585 0.930 . S
C574 C570 1.524 . S
C574 H586 0.956 . S
C574 H587 0.961 . S
C574 H588 0.961 . S
C575 C572 1.539 . S
C575 H589 0.958 . S
C575 H590 0.961 . S
C575 H591 0.960 . S
H576 C560 0.931 . S
H577 C565 0.929 . S
H578 C566 0.960 . S
H579 C566 0.962 . S
H580 C566 0.960 . S
H581 C567 0.961 . S
H582 C567 0.961 . S
H583 C567 0.961 . S
H584 C568 0.931 . S
H585 C573 0.930 . S
H586 C574 0.956 . S
H587 C574 0.961 . S
H588 C574 0.961 . S
H589 C575 0.958 . S
H590 C575 0.961 . S
H591 C575 0.960 . S
C592 C593 1.391 . S
C592 C594 1.394 . S
C592 H608 0.931 . S
C593 C592 1.391 . S
C593 C597 1.376 . S
C594 C592 1.394 . S
C594 C595 1.369 . S
C594 C598 1.531 . S
C595 C594 1.369 . S
C595 C596 1.410 . S
C595 C603 1.503 . S
C596 C595 1.410 . S
C596 C597 1.392 . S
C596 C599 1.511 . S
C597 C593 1.376 . S
C597 C596 1.392 . S
C597 H609 0.929 . S
C598 C594 1.531 . S
C598 H610 0.960 . S
C598 H611 0.962 . S
C598 H612 0.960 . S
C599 C596 1.511 . S
C599 H613 0.961 . S
C599 H614 0.961 . S
C599 H615 0.961 . S
C600 C601 1.370 . S
C600 C602 1.363 . S
C600 H616 0.931 . S
C601 C600 1.370 . S
C601 C605 1.408 . S
C602 C600 1.363 . S
C602 C603 1.370 . S
C602 C606 1.524 . S
C603 C595 1.503 . S
C603 C602 1.370 . S
C603 C604 1.403 . S
C604 C603 1.403 . S
C604 C605 1.404 . S
C604 C607 1.539 . S
C605 C601 1.408 . S
C605 C604 1.404 . S
C605 H617 0.930 . S
C606 C602 1.524 . S
C606 H618 0.956 . S
C606 H619 0.961 . S
C606 H620 0.961 . S
C607 C604 1.539 . S
C607 H621 0.958 . S
C607 H622 0.961 . S
C607 H623 0.960 . S
H608 C592 0.931 . S
H609 C597 0.929 . S
H610 C598 0.960 . S
H611 C598 0.962 . S
H612 C598 0.960 . S
H613 C599 0.961 . S
H614 C599 0.961 . S
H615 C599 0.961 . S
H616 C600 0.931 . S
H617 C605 0.930 . S
H618 C606 0.956 . S
H619 C606 0.961 . S
H620 C606 0.961 . S
H621 C607 0.958 . S
H622 C607 0.961 . S
H623 C607 0.960 . S
C624 C625 1.391 . S
C624 C626 1.394 . S
C624 H640 0.931 . S
C625 C624 1.391 . S
C625 C629 1.376 . S
C626 C624 1.394 . S
C626 C627 1.369 . S
C626 C630 1.531 . S
C627 C626 1.369 . S
C627 C628 1.410 . S
C627 C635 1.503 . S
C628 C627 1.410 . S
C628 C629 1.392 . S
C628 C631 1.511 . S
C629 C625 1.376 . S
C629 C628 1.392 . S
C629 H641 0.929 . S
C630 C626 1.531 . S
C630 H642 0.960 . S
C630 H643 0.962 . S
C630 H644 0.960 . S
C631 C628 1.511 . S
C631 H645 0.961 . S
C631 H646 0.961 . S
C631 H647 0.961 . S
C632 C633 1.370 . S
C632 C634 1.363 . S
C632 H648 0.931 . S
C633 C632 1.370 . S
C633 C637 1.408 . S
C634 C632 1.363 . S
C634 C635 1.370 . S
C634 C638 1.524 . S
C635 C627 1.503 . S
C635 C634 1.370 . S
C635 C636 1.403 . S
C636 C635 1.403 . S
C636 C637 1.404 . S
C636 C639 1.539 . S
C637 C633 1.408 . S
C637 C636 1.404 . S
C637 H649 0.930 . S
C638 C634 1.524 . S
C638 H650 0.956 . S
C638 H651 0.961 . S
C638 H652 0.961 . S
C639 C636 1.539 . S
C639 H653 0.958 . S
C639 H654 0.961 . S
C639 H655 0.960 . S
H640 C624 0.931 . S
H641 C629 0.929 . S
H642 C630 0.960 . S
H643 C630 0.962 . S
H644 C630 0.960 . S
H645 C631 0.961 . S
H646 C631 0.961 . S
H647 C631 0.961 . S
H648 C632 0.931 . S
H649 C637 0.930 . S
H650 C638 0.956 . S
H651 C638 0.961 . S
H652 C638 0.961 . S
H653 C639 0.958 . S
H654 C639 0.961 . S
H655 C639 0.960 . S
C656 C657 1.391 . S
C656 C658 1.394 . S
C656 H672 0.931 . S
C657 C656 1.391 . S
C657 C661 1.376 . S
C658 C656 1.394 . S
C658 C659 1.369 . S
C658 C662 1.531 . S
C659 C658 1.369 . S
C659 C660 1.410 . S
C659 C667 1.503 1_556 S
C660 C659 1.410 . S
C660 C661 1.392 . S
C660 C663 1.511 . S
C661 C657 1.376 . S
C661 C660 1.392 . S
C661 H673 0.929 . S
C662 C658 1.531 . S
C662 H674 0.960 . S
C662 H675 0.962 . S
C662 H676 0.960 . S
C663 C660 1.511 . S
C663 H677 0.961 . S
C663 H678 0.961 1_556 S
C663 H679 0.977 . S
C664 C665 1.370 . S
C664 C666 1.363 . S
C664 H680 0.931 . S
C665 C664 1.370 . S
C665 C669 1.408 . S
C666 C664 1.363 . S
C666 C667 1.370 . S
C666 C670 1.524 . S
C667 C659 1.503 1_554 S
C667 C666 1.370 . S
C667 C668 1.403 . S
C668 C667 1.403 . S
C668 C669 1.404 . S
C668 C671 1.539 . S
C669 C665 1.408 . S
C669 C668 1.404 . S
C669 H681 0.930 . S
C670 C666 1.524 . S
C670 H682 0.956 1_554 S
C670 H683 0.961 1_554 S
C670 H684 0.961 . S
C671 C668 1.539 . S
C671 H685 0.958 . S
C671 H686 0.961 . S
C671 H687 0.960 . S
H672 C656 0.931 . S
H673 C661 0.929 . S
H674 C662 0.960 . S
H675 C662 0.962 . S
H676 C662 0.960 . S
H677 C663 0.961 . S
H678 C663 0.961 1_554 S
H679 C663 0.977 . S
H680 C664 0.931 . S
H681 C669 0.930 . S
H682 C670 0.956 1_556 S
H683 C670 0.961 1_556 S
H684 C670 0.961 . S
H685 C671 0.958 . S
H686 C671 0.961 . S
H687 C671 0.960 . S
C688 C689 1.391 . S
C688 C690 1.394 . S
C688 H704 0.931 . S
C689 C688 1.391 . S
C689 C693 1.376 1_455 S
C690 C688 1.394 . S
C690 C691 1.369 . S
C690 C694 1.531 . S
C691 C690 1.369 . S
C691 C692 1.410 1_455 S
C691 C699 1.503 . S
C692 C691 1.410 1_655 S
C692 C693 1.392 . S
C692 C695 1.511 . S
C693 C689 1.376 1_655 S
C693 C692 1.392 . S
C693 H705 0.929 . S
C694 C690 1.531 . S
C694 H706 0.960 . S
C694 H707 0.962 . S
C694 H708 0.960 . S
C695 C692 1.511 . S
C695 H709 0.961 . S
C695 H710 0.961 . S
C695 H711 0.961 . S
C696 C697 1.370 . S
C696 C698 1.363 . S
C696 H712 0.931 . S
C697 C696 1.370 . S
C697 C701 1.408 . S
C698 C696 1.363 . S
C698 C699 1.370 . S
C698 C702 1.524 . S
C699 C691 1.503 . S
C699 C698 1.370 . S
C699 C700 1.403 . S
C700 C699 1.403 . S
C700 C701 1.404 . S
C700 C703 1.539 1_455 S
C701 C697 1.408 . S
C701 C700 1.404 . S
C701 H713 0.930 1_455 S
C702 C698 1.524 . S
C702 H714 0.956 . S
C702 H715 0.961 . S
C702 H716 0.961 . S
C703 C700 1.539 1_655 S
C703 H717 0.958 1_655 S
C703 H718 0.961 . S
C703 H719 0.960 . S
H704 C688 0.931 . S
H705 C693 0.929 . S
H706 C694 0.960 . S
H707 C694 0.962 . S
H708 C694 0.960 . S
H709 C695 0.961 . S
H710 C695 0.961 . S
H711 C695 0.961 . S
H712 C696 0.931 . S
H713 C701 0.930 1_655 S
H714 C702 0.956 . S
H715 C702 0.961 . S
H716 C702 0.961 . S
H717 C703 0.958 1_455 S
H718 C703 0.961 . S
H719 C703 0.960 . S
C720 C721 1.391 . S
C720 C722 1.394 . S
C720 H736 0.931 . S
C721 C720 1.391 . S
C721 C725 1.376 . S
C722 C720 1.394 . S
C722 C723 1.369 . S
C722 C726 1.531 . S
C723 C722 1.369 . S
C723 C724 1.410 . S
C723 C731 1.503 . S
C724 C723 1.410 . S
C724 C725 1.392 . S
C724 C727 1.511 . S
C725 C721 1.376 . S
C725 C724 1.392 . S
C725 H737 0.929 . S
C726 C722 1.531 . S
C726 H738 0.960 . S
C726 H739 0.962 . S
C726 H740 0.960 . S
C727 C724 1.511 . S
C727 H741 0.961 . S
C727 H742 0.961 . S
C727 H743 0.961 . S
C728 C729 1.370 . S
C728 C730 1.363 . S
C728 H744 0.931 . S
C729 C728 1.370 . S
C729 C733 1.408 . S
C730 C728 1.363 . S
C730 C731 1.370 . S
C730 C734 1.524 . S
C731 C723 1.503 . S
C731 C730 1.370 . S
C731 C732 1.403 . S
C732 C731 1.403 . S
C732 C733 1.404 . S
C732 C735 1.539 . S
C733 C729 1.408 . S
C733 C732 1.404 . S
C733 H745 0.930 . S
C734 C730 1.524 . S
C734 H746 0.956 . S
C734 H747 0.961 . S
C734 H748 0.961 . S
C735 C732 1.539 . S
C735 H749 0.958 . S
C735 H750 0.961 . S
C735 H751 0.960 . S
H736 C720 0.931 . S
H737 C725 0.929 . S
H738 C726 0.960 . S
H739 C726 0.962 . S
H740 C726 0.960 . S
H741 C727 0.961 . S
H742 C727 0.961 . S
H743 C727 0.961 . S
H744 C728 0.931 . S
H745 C733 0.930 . S
H746 C734 0.956 . S
H747 C734 0.961 . S
H748 C734 0.961 . S
H749 C735 0.958 . S
H750 C735 0.961 . S
H751 C735 0.960 . S
C752 C753 1.391 . S
C752 C754 1.394 . S
C752 H768 0.931 . S
C753 C752 1.391 . S
C753 C757 1.376 . S
C754 C752 1.394 . S
C754 C755 1.369 . S
C754 C758 1.531 . S
C755 C754 1.369 . S
C755 C756 1.410 . S
C755 C763 1.503 . S
C756 C755 1.410 . S
C756 C757 1.392 . S
C756 C759 1.511 . S
C757 C753 1.376 . S
C757 C756 1.392 . S
C757 H769 0.929 . S
C758 C754 1.531 . S
C758 H770 0.960 . S
C758 H771 0.962 . S
C758 H772 0.960 . S
C759 C756 1.511 . S
C759 H773 0.961 . S
C759 H774 0.961 . S
C759 H775 0.961 . S
C760 C761 1.370 . S
C760 C762 1.363 . S
C760 H776 0.931 . S
C761 C760 1.370 . S
C761 C765 1.408 . S
C762 C760 1.363 . S
C762 C763 1.370 . S
C762 C766 1.524 . S
C763 C755 1.503 . S
C763 C762 1.370 . S
C763 C764 1.403 . S
C764 C763 1.403 . S
C764 C765 1.404 . S
C764 C767 1.539 . S
C765 C761 1.408 . S
C765 C764 1.404 . S
C765 H777 0.930 1_565 S
C766 C762 1.524 . S
C766 H778 0.956 . S
C766 H779 0.961 . S
C766 H780 0.961 . S
C767 C764 1.539 . S
C767 H781 0.958 . S
C767 H782 0.961 . S
C767 H783 0.960 . S
H768 C752 0.931 . S
H769 C757 0.929 . S
H770 C758 0.960 . S
H771 C758 0.962 . S
H772 C758 0.960 . S
H773 C759 0.961 . S
H774 C759 0.961 . S
H775 C759 0.961 . S
H776 C760 0.931 . S
H777 C765 0.930 1_545 S
H778 C766 0.956 . S
H779 C766 0.961 . S
H780 C766 0.961 . S
H781 C767 0.958 . S
H782 C767 0.961 . S
H783 C767 0.960 . S
C784 C785 1.391 . S
C784 C786 1.394 . S
C784 H800 0.931 . S
C785 C784 1.391 . S
C785 C789 1.376 . S
C786 C784 1.394 . S
C786 C787 1.369 . S
C786 C790 1.531 . S
C787 C786 1.369 . S
C787 C788 1.410 . S
C787 C795 1.503 . S
C788 C787 1.410 . S
C788 C789 1.392 . S
C788 C791 1.511 . S
C789 C785 1.376 . S
C789 C788 1.392 . S
C789 H801 0.929 . S
C790 C786 1.531 . S
C790 H802 0.960 . S
C790 H803 0.962 . S
C790 H804 0.960 . S
C791 C788 1.511 . S
C791 H805 0.961 . S
C791 H806 0.961 . S
C791 H807 0.961 . S
C792 C793 1.370 . S
C792 C794 1.363 . S
C792 H808 0.931 . S
C793 C792 1.370 . S
C793 C797 1.408 . S
C794 C792 1.363 . S
C794 C795 1.370 . S
C794 C798 1.524 . S
C795 C787 1.503 . S
C795 C794 1.370 . S
C795 C796 1.403 . S
C796 C795 1.403 . S
C796 C797 1.404 . S
C796 C799 1.539 . S
C797 C793 1.408 . S
C797 C796 1.404 . S
C797 H809 0.930 . S
C798 C794 1.524 . S
C798 H810 0.956 . S
C798 H811 0.961 . S
C798 H812 0.961 . S
C799 C796 1.539 . S
C799 H813 0.958 . S
C799 H814 0.961 . S
C799 H815 0.960 . S
H800 C784 0.931 . S
H801 C789 0.929 . S
H802 C790 0.960 . S
H803 C790 0.962 . S
H804 C790 0.960 . S
H805 C791 0.961 . S
H806 C791 0.961 . S
H807 C791 0.961 . S
H808 C792 0.931 . S
H809 C797 0.930 . S
H810 C798 0.956 . S
H811 C798 0.961 . S
H812 C798 0.961 . S
H813 C799 0.958 . S
H814 C799 0.961 . S
H815 C799 0.960 . S
C816 C817 1.391 . S
C816 C818 1.394 . S
C816 H832 0.931 . S
C817 C816 1.391 . S
C817 C821 1.376 . S
C818 C816 1.394 . S
C818 C819 1.369 . S
C818 C822 1.531 . S
C819 C818 1.369 . S
C819 C820 1.410 . S
C819 C827 1.503 . S
C820 C819 1.410 . S
C820 C821 1.392 . S
C820 C823 1.511 . S
C821 C817 1.376 . S
C821 C820 1.392 . S
C821 H833 0.929 1_545 S
C822 C818 1.531 . S
C822 H834 0.960 . S
C822 H835 0.962 . S
C822 H836 0.960 . S
C823 C820 1.511 . S
C823 H837 0.961 . S
C823 H838 0.961 . S
C823 H839 0.961 . S
C824 C825 1.370 . S
C824 C826 1.363 . S
C824 H840 0.931 . S
C825 C824 1.370 . S
C825 C829 1.408 . S
C826 C824 1.363 . S
C826 C827 1.370 . S
C826 C830 1.524 . S
C827 C819 1.503 . S
C827 C826 1.370 . S
C827 C828 1.403 . S
C828 C827 1.403 . S
C828 C829 1.404 . S
C828 C831 1.539 . S
C829 C825 1.408 . S
C829 C828 1.404 . S
C829 H841 0.930 . S
C830 C826 1.524 . S
C830 H842 0.956 . S
C830 H843 0.961 . S
C830 H844 0.961 . S
C831 C828 1.539 . S
C831 H845 0.958 . S
C831 H846 0.961 . S
C831 H847 0.960 . S
H832 C816 0.931 . S
H833 C821 0.929 1_565 S
H834 C822 0.960 . S
H835 C822 0.962 . S
H836 C822 0.960 . S
H837 C823 0.961 . S
H838 C823 0.961 . S
H839 C823 0.961 . S
H840 C824 0.931 . S
H841 C829 0.930 . S
H842 C830 0.956 . S
H843 C830 0.961 . S
H844 C830 0.961 . S
H845 C831 0.958 . S
H846 C831 0.961 . S
H847 C831 0.960 . S
C848 C849 1.391 . S
C848 C850 1.394 . S
C848 H864 0.931 . S
C849 C848 1.391 . S
C849 C853 1.376 . S
C850 C848 1.394 . S
C850 C851 1.369 . S
C850 C854 1.531 . S
C851 C850 1.369 . S
C851 C852 1.410 . S
C851 C859 1.503 . S
C852 C851 1.410 . S
C852 C853 1.392 . S
C852 C855 1.511 . S
C853 C849 1.376 . S
C853 C852 1.392 . S
C853 H865 0.929 . S
C854 C850 1.531 . S
C854 H866 0.960 . S
C854 H867 0.962 . S
C854 H868 0.960 . S
C855 C852 1.511 . S
C855 H869 0.961 . S
C855 H870 0.961 . S
C855 H871 0.961 . S
C856 C857 1.370 . S
C856 C858 1.363 . S
C856 H872 0.931 . S
C857 C856 1.370 . S
C857 C861 1.408 . S
C858 C856 1.363 . S
C858 C859 1.370 . S
C858 C862 1.524 . S
C859 C851 1.503 . S
C859 C858 1.370 . S
C859 C860 1.403 . S
C860 C859 1.403 . S
C860 C861 1.404 . S
C860 C863 1.539 . S
C861 C857 1.408 . S
C861 C860 1.404 . S
C861 H873 0.930 . S
C862 C858 1.524 . S
C862 H874 0.956 . S
C862 H875 0.961 . S
C862 H876 0.961 . S
C863 C860 1.539 . S
C863 H877 0.958 . S
C863 H878 0.961 . S
C863 H879 0.960 . S
H864 C848 0.931 . S
H865 C853 0.929 . S
H866 C854 0.960 . S
H867 C854 0.962 . S
H868 C854 0.960 . S
H869 C855 0.961 . S
H870 C855 0.961 . S
H871 C855 0.961 . S
H872 C856 0.931 . S
H873 C861 0.930 . S
H874 C862 0.956 . S
H875 C862 0.961 . S
H876 C862 0.961 . S
H877 C863 0.958 . S
H878 C863 0.961 . S
H879 C863 0.960 . S
C880 C881 1.391 . S
C880 C882 1.394 . S
C880 H896 0.931 . S
C881 C880 1.391 . S
C881 C885 1.376 . S
C882 C880 1.394 . S
C882 C883 1.369 . S
C882 C886 1.531 . S
C883 C882 1.369 . S
C883 C884 1.410 . S
C883 C891 1.503 . S
C884 C883 1.410 . S
C884 C885 1.392 . S
C884 C887 1.511 . S
C885 C881 1.376 . S
C885 C884 1.392 . S
C885 H897 0.929 . S
C886 C882 1.531 . S
C886 H898 0.960 . S
C886 H899 0.962 . S
C886 H900 0.960 . S
C887 C884 1.511 . S
C887 H901 0.961 . S
C887 H902 0.961 . S
C887 H903 0.961 . S
C888 C889 1.370 . S
C888 C890 1.363 . S
C888 H904 0.931 . S
C889 C888 1.370 . S
C889 C893 1.408 . S
C890 C888 1.363 . S
C890 C891 1.370 . S
C890 C894 1.524 . S
C891 C883 1.503 . S
C891 C890 1.370 . S
C891 C892 1.403 . S
C892 C891 1.403 . S
C892 C893 1.404 . S
C892 C895 1.539 . S
C893 C889 1.408 . S
C893 C892 1.404 . S
C893 H905 0.930 . S
C894 C890 1.524 . S
C894 H906 0.956 . S
C894 H907 0.961 . S
C894 H908 0.961 . S
C895 C892 1.539 . S
C895 H909 0.958 . S
C895 H910 0.961 . S
C895 H911 0.960 . S
H896 C880 0.931 . S
H897 C885 0.929 . S
H898 C886 0.960 . S
H899 C886 0.962 . S
H900 C886 0.960 . S
H901 C887 0.961 . S
H902 C887 0.961 . S
H903 C887 0.961 . S
H904 C888 0.931 . S
H905 C893 0.930 . S
H906 C894 0.956 . S
H907 C894 0.961 . S
H908 C894 0.961 . S
H909 C895 0.958 . S
H910 C895 0.961 . S
H911 C895 0.960 . S
C912 C913 1.391 . S
C912 C914 1.394 . S
C912 H928 0.931 . S
C913 C912 1.391 . S
C913 C917 1.376 . S
C914 C912 1.394 . S
C914 C915 1.369 . S
C914 C918 1.531 . S
C915 C914 1.369 . S
C915 C916 1.410 . S
C915 C923 1.503 . S
C916 C915 1.410 . S
C916 C917 1.392 . S
C916 C919 1.511 . S
C917 C913 1.376 . S
C917 C916 1.392 . S
C917 H929 0.929 . S
C918 C914 1.531 . S
C918 H930 0.960 . S
C918 H931 0.962 . S
C918 H932 0.960 . S
C919 C916 1.511 . S
C919 H933 0.961 . S
C919 H934 0.961 . S
C919 H935 0.961 . S
C920 C921 1.370 . S
C920 C922 1.363 . S
C920 H936 0.931 . S
C921 C920 1.370 . S
C921 C925 1.408 . S
C922 C920 1.363 . S
C922 C923 1.370 . S
C922 C926 1.524 . S
C923 C915 1.503 . S
C923 C922 1.370 . S
C923 C924 1.403 . S
C924 C923 1.403 . S
C924 C925 1.404 . S
C924 C927 1.539 . S
C925 C921 1.408 . S
C925 C924 1.404 . S
C925 H937 0.930 . S
C926 C922 1.524 . S
C926 H938 0.956 . S
C926 H939 0.961 . S
C926 H940 0.961 . S
C927 C924 1.539 . S
C927 H941 0.958 . S
C927 H942 0.961 . S
C927 H943 0.960 . S
H928 C912 0.931 . S
H929 C917 0.929 . S
H930 C918 0.960 . S
H931 C918 0.962 . S
H932 C918 0.960 . S
H933 C919 0.961 . S
H934 C919 0.961 . S
H935 C919 0.961 . S
H936 C920 0.931 . S
H937 C925 0.930 . S
H938 C926 0.956 . S
H939 C926 0.961 . S
H940 C926 0.961 . S
H941 C927 0.958 . S
H942 C927 0.961 . S
H943 C927 0.960 . S
C944 C945 1.391 . S
C944 C946 1.394 . S
C944 H960 0.931 . S
C945 C944 1.391 . S
C945 C949 1.376 . S
C946 C944 1.394 . S
C946 C947 1.369 . S
C946 C950 1.531 . S
C947 C946 1.369 . S
C947 C948 1.410 . S
C947 C955 1.503 . S
C948 C947 1.410 . S
C948 C949 1.392 . S
C948 C951 1.511 . S
C949 C945 1.376 . S
C949 C948 1.392 . S
C949 H961 0.929 . S
C950 C946 1.531 . S
C950 H962 0.960 . S
C950 H963 0.962 . S
C950 H964 0.960 . S
C951 C948 1.511 . S
C951 H965 0.961 . S
C951 H966 0.961 . S
C951 H967 0.961 . S
C952 C953 1.370 . S
C952 C954 1.363 . S
C952 H968 0.931 . S
C953 C952 1.370 . S
C953 C957 1.408 . S
C954 C952 1.363 . S
C954 C955 1.370 . S
C954 C958 1.524 . S
C955 C947 1.503 . S
C955 C954 1.370 . S
C955 C956 1.403 . S
C956 C955 1.403 . S
C956 C957 1.404 . S
C956 C959 1.539 . S
C957 C953 1.408 . S
C957 C956 1.404 . S
C957 H969 0.930 . S
C958 C954 1.524 . S
C958 H970 0.956 . S
C958 H971 0.961 . S
C958 H972 0.961 . S
C959 C956 1.539 . S
C959 H973 0.958 . S
C959 H974 0.961 . S
C959 H975 0.960 . S
H960 C944 0.931 . S
H961 C949 0.929 . S
H962 C950 0.960 . S
H963 C950 0.962 . S
H964 C950 0.960 . S
H965 C951 0.961 . S
H966 C951 0.961 . S
H967 C951 0.961 . S
H968 C952 0.931 . S
H969 C957 0.930 . S
H970 C958 0.956 . S
H971 C958 0.961 . S
H972 C958 0.961 . S
H973 C959 0.958 . S
H974 C959 0.961 . S
H975 C959 0.960 . S
C976 C977 1.391 . S
C976 C978 1.394 . S
C976 H992 0.931 . S
C977 C976 1.391 . S
C977 C981 1.376 . S
C978 C976 1.394 . S
C978 C979 1.369 . S
C978 C982 1.531 . S
C979 C978 1.369 . S
C979 C980 1.410 . S
C979 C987 1.503 . S
C980 C979 1.410 . S
C980 C981 1.392 . S
C980 C983 1.511 . S
C981 C977 1.376 . S
C981 C980 1.392 . S
C981 H993 0.929 . S
C982 C978 1.531 . S
C982 H994 0.960 . S
C982 H995 0.962 . S
C982 H996 0.960 . S
C983 C980 1.511 . S
C983 H997 0.961 . S
C983 H998 0.961 . S
C983 H999 0.961 . S
C984 C985 1.370 . S
C984 C986 1.363 . S
C984 H1000 0.931 . S
C985 C984 1.370 . S
C985 C989 1.408 . S
C986 C984 1.363 . S
C986 C987 1.370 . S
C986 C990 1.524 . S
C987 C979 1.503 . S
C987 C986 1.370 . S
C987 C988 1.403 . S
C988 C987 1.403 . S
C988 C989 1.404 . S
C988 C991 1.539 . S
C989 C985 1.408 . S
C989 C988 1.404 . S
C989 H1001 0.930 . S
C990 C986 1.524 . S
C990 H1002 0.956 . S
C990 H1003 0.961 . S
C990 H1004 0.961 . S
C991 C988 1.539 . S
C991 H1005 0.958 . S
C991 H1006 0.961 . S
C991 H1007 0.960 . S
H992 C976 0.931 . S
H993 C981 0.929 . S
H994 C982 0.960 . S
H995 C982 0.962 . S
H996 C982 0.960 . S
H997 C983 0.961 . S
H998 C983 0.961 . S
H999 C983 0.961 . S
H1000 C984 0.931 . S
H1001 C989 0.930 . S
H1002 C990 0.956 . S
H1003 C990 0.961 . S
H1004 C990 0.961 . S
H1005 C991 0.958 . S
H1006 C991 0.961 . S
H1007 C991 0.960 . S
C1008 C1009 1.391 . S
C1008 C1010 1.394 . S
C1008 H1024 0.931 . S
C1009 C1008 1.391 . S
C1009 C1013 1.376 . S
C1010 C1008 1.394 . S
C1010 C1011 1.369 . S
C1010 C1014 1.531 . S
C1011 C1010 1.369 . S
C1011 C1012 1.410 . S
C1011 C1019 1.503 . S
C1012 C1011 1.410 . S
C1012 C1013 1.392 . S
C1012 C1015 1.511 . S
C1013 C1009 1.376 . S
C1013 C1012 1.392 . S
C1013 H1025 0.929 . S
C1014 C1010 1.531 . S
C1014 H1026 0.960 . S
C1014 H1027 0.962 . S
C1014 H1028 0.960 . S
C1015 C1012 1.511 . S
C1015 H1029 0.961 . S
C1015 H1030 0.961 . S
C1015 H1031 0.961 . S
C1016 C1017 1.370 . S
C1016 C1018 1.363 . S
C1016 H1032 0.931 . S
C1017 C1016 1.370 . S
C1017 C1021 1.408 . S
C1018 C1016 1.363 . S
C1018 C1019 1.370 . S
C1018 C1022 1.524 . S
C1019 C1011 1.503 . S
C1019 C1018 1.370 . S
C1019 C1020 1.403 . S
C1020 C1019 1.403 . S
C1020 C1021 1.404 . S
C1020 C1023 1.539 . S
C1021 C1017 1.408 . S
C1021 C1020 1.404 . S
C1021 H1033 0.930 . S
C1022 C1018 1.524 . S
C1022 H1034 0.956 . S
C1022 H1035 0.961 . S
C1022 H1036 0.961 . S
C1023 C1020 1.539 . S
C1023 H1037 0.958 . S
C1023 H1038 0.961 . S
C1023 H1039 0.960 . S
H1024 C1008 0.931 . S
H1025 C1013 0.929 . S
H1026 C1014 0.960 . S
H1027 C1014 0.962 . S
H1028 C1014 0.960 . S
H1029 C1015 0.961 . S
H1030 C1015 0.961 . S
H1031 C1015 0.961 . S
H1032 C1016 0.931 . S
H1033 C1021 0.930 . S
H1034 C1022 0.956 . S
H1035 C1022 0.961 . S
H1036 C1022 0.961 . S
H1037 C1023 0.958 . S
H1038 C1023 0.961 . S
H1039 C1023 0.960 . S
C1040 C1041 1.391 . S
C1040 C1042 1.394 . S
C1040 H1056 0.931 . S
C1041 C1040 1.391 . S
C1041 C1045 1.376 . S
C1042 C1040 1.394 . S
C1042 C1043 1.369 . S
C1042 C1046 1.531 . S
C1043 C1042 1.369 . S
C1043 C1044 1.410 . S
C1043 C1051 1.503 . S
C1044 C1043 1.410 . S
C1044 C1045 1.392 . S
C1044 C1047 1.511 . S
C1045 C1041 1.376 . S
C1045 C1044 1.392 . S
C1045 H1057 0.929 . S
C1046 C1042 1.531 . S
C1046 H1058 0.960 . S
C1046 H1059 0.962 . S
C1046 H1060 0.960 . S
C1047 C1044 1.511 . S
C1047 H1061 0.961 . S
C1047 H1062 0.961 . S
C1047 H1063 0.961 . S
C1048 C1049 1.370 . S
C1048 C1050 1.363 . S
C1048 H1064 0.931 . S
C1049 C1048 1.370 . S
C1049 C1053 1.408 . S
C1050 C1048 1.363 . S
C1050 C1051 1.370 . S
C1050 C1054 1.524 . S
C1051 C1043 1.503 . S
C1051 C1050 1.370 . S
C1051 C1052 1.403 . S
C1052 C1051 1.403 . S
C1052 C1053 1.404 . S
C1052 C1055 1.539 . S
C1053 C1049 1.408 . S
C1053 C1052 1.404 . S
C1053 H1065 0.930 . S
C1054 C1050 1.524 . S
C1054 H1066 0.956 . S
C1054 H1067 0.961 . S
C1054 H1068 0.961 . S
C1055 C1052 1.539 . S
C1055 H1069 0.958 . S
C1055 H1070 0.961 . S
C1055 H1071 0.960 . S
H1056 C1040 0.931 . S
H1057 C1045 0.929 . S
H1058 C1046 0.960 . S
H1059 C1046 0.962 . S
H1060 C1046 0.960 . S
H1061 C1047 0.961 . S
H1062 C1047 0.961 . S
H1063 C1047 0.961 . S
H1064 C1048 0.931 . S
H1065 C1053 0.930 . S
H1066 C1054 0.956 . S
H1067 C1054 0.961 . S
H1068 C1054 0.961 . S
H1069 C1055 0.958 . S
H1070 C1055 0.961 . S
H1071 C1055 0.960 . S
C1072 C1073 1.391 . S
C1072 C1074 1.394 . S
C1072 H1088 0.931 . S
C1073 C1072 1.391 . S
C1073 C1077 1.376 . S
C1074 C1072 1.394 . S
C1074 C1075 1.369 . S
C1074 C1078 1.531 . S
C1075 C1074 1.369 . S
C1075 C1076 1.410 . S
C1075 C1083 1.503 . S
C1076 C1075 1.410 . S
C1076 C1077 1.392 . S
C1076 C1079 1.511 . S
C1077 C1073 1.376 . S
C1077 C1076 1.392 . S
C1077 H1089 0.929 . S
C1078 C1074 1.531 . S
C1078 H1090 0.960 . S
C1078 H1091 0.962 . S
C1078 H1092 0.960 . S
C1079 C1076 1.511 . S
C1079 H1093 0.961 . S
C1079 H1094 0.961 . S
C1079 H1095 0.961 . S
C1080 C1081 1.370 . S
C1080 C1082 1.363 . S
C1080 H1096 0.931 . S
C1081 C1080 1.370 . S
C1081 C1085 1.408 . S
C1082 C1080 1.363 . S
C1082 C1083 1.370 . S
C1082 C1086 1.524 . S
C1083 C1075 1.503 . S
C1083 C1082 1.370 . S
C1083 C1084 1.403 . S
C1084 C1083 1.403 . S
C1084 C1085 1.404 . S
C1084 C1087 1.539 . S
C1085 C1081 1.408 . S
C1085 C1084 1.404 . S
C1085 H1097 0.930 . S
C1086 C1082 1.524 . S
C1086 H1098 0.956 . S
C1086 H1099 0.961 . S
C1086 H1100 0.961 . S
C1087 C1084 1.539 . S
C1087 H1101 0.958 . S
C1087 H1102 0.961 . S
C1087 H1103 0.960 . S
H1088 C1072 0.931 . S
H1089 C1077 0.929 . S
H1090 C1078 0.960 . S
H1091 C1078 0.962 . S
H1092 C1078 0.960 . S
H1093 C1079 0.961 . S
H1094 C1079 0.961 . S
H1095 C1079 0.961 . S
H1096 C1080 0.931 . S
H1097 C1085 0.930 . S
H1098 C1086 0.956 . S
H1099 C1086 0.961 . S
H1100 C1086 0.961 . S
H1101 C1087 0.958 . S
H1102 C1087 0.961 . S
H1103 C1087 0.960 . S
C1104 C1105 1.391 . S
C1104 C1106 1.394 . S
C1104 H1120 0.931 . S
C1105 C1104 1.391 . S
C1105 C1109 1.376 . S
C1106 C1104 1.394 . S
C1106 C1107 1.369 . S
C1106 C1110 1.531 . S
C1107 C1106 1.369 . S
C1107 C1108 1.410 . S
C1107 C1115 1.503 . S
C1108 C1107 1.410 . S
C1108 C1109 1.392 . S
C1108 C1111 1.511 . S
C1109 C1105 1.376 . S
C1109 C1108 1.392 . S
C1109 H1121 0.929 . S
C1110 C1106 1.531 . S
C1110 H1122 0.960 . S
C1110 H1123 0.962 . S
C1110 H1124 0.960 . S
C1111 C1108 1.511 . S
C1111 H1125 0.961 . S
C1111 H1126 0.961 . S
C1111 H1127 0.961 . S
C1112 C1113 1.370 . S
C1112 C1114 1.363 . S
C1112 H1128 0.931 . S
C1113 C1112 1.370 . S
C1113 C1117 1.408 . S
C1114 C1112 1.363 . S
C1114 C1115 1.370 . S
C1114 C1118 1.524 . S
C1115 C1107 1.503 . S
C1115 C1114 1.370 . S
C1115 C1116 1.403 . S
C1116 C1115 1.403 . S
C1116 C1117 1.404 . S
C1116 C1119 1.539 . S
C1117 C1113 1.408 . S
C1117 C1116 1.404 . S
C1117 H1129 0.930 . S
C1118 C1114 1.524 . S
C1118 H1130 0.956 . S
C1118 H1131 0.961 . S
C1118 H1132 0.961 . S
C1119 C1116 1.539 . S
C1119 H1133 0.958 . S
C1119 H1134 0.961 . S
C1119 H1135 0.960 . S
H1120 C1104 0.931 . S
H1121 C1109 0.929 . S
H1122 C1110 0.960 . S
H1123 C1110 0.962 . S
H1124 C1110 0.960 . S
H1125 C1111 0.961 . S
H1126 C1111 0.961 . S
H1127 C1111 0.961 . S
H1128 C1112 0.931 . S
H1129 C1117 0.930 . S
H1130 C1118 0.956 . S
H1131 C1118 0.961 . S
H1132 C1118 0.961 . S
H1133 C1119 0.958 . S
H1134 C1119 0.961 . S
H1135 C1119 0.960 . S
C1136 C1137 1.391 . S
C1136 C1138 1.394 . S
C1136 H1152 0.931 . S
C1137 C1136 1.391 . S
C1137 C1141 1.376 . S
C1138 C1136 1.394 . S
C1138 C1139 1.369 . S
C1138 C1142 1.531 . S
C1139 C1138 1.369 . S
C1139 C1140 1.410 . S
C1139 C1147 1.503 . S
C1140 C1139 1.410 . S
C1140 C1141 1.392 . S
C1140 C1143 1.511 . S
C1141 C1137 1.376 . S
C1141 C1140 1.392 . S
C1141 H1153 0.929 . S
C1142 C1138 1.531 . S
C1142 H1154 0.960 . S
C1142 H1155 0.962 . S
C1142 H1156 0.960 . S
C1143 C1140 1.511 . S
C1143 H1157 0.961 . S
C1143 H1158 0.961 . S
C1143 H1159 0.961 . S
C1144 C1145 1.370 . S
C1144 C1146 1.363 . S
C1144 H1160 0.931 . S
C1145 C1144 1.370 . S
C1145 C1149 1.408 . S
C1146 C1144 1.363 . S
C1146 C1147 1.370 . S
C1146 C1150 1.524 . S
C1147 C1139 1.503 . S
C1147 C1146 1.370 . S
C1147 C1148 1.403 . S
C1148 C1147 1.403 . S
C1148 C1149 1.404 . S
C1148 C1151 1.539 . S
C1149 C1145 1.408 . S
C1149 C1148 1.404 . S
C1149 H1161 0.930 . S
C1150 C1146 1.524 . S
C1150 H1162 0.956 . S
C1150 H1163 0.961 . S
C1150 H1164 0.961 . S
C1151 C1148 1.539 . S
C1151 H1165 0.958 . S
C1151 H1166 0.961 . S
C1151 H1167 0.960 . S
H1152 C1136 0.931 . S
H1153 C1141 0.929 . S
H1154 C1142 0.960 . S
H1155 C1142 0.962 . S
H1156 C1142 0.960 . S
H1157 C1143 0.961 . S
H1158 C1143 0.961 . S
H1159 C1143 0.961 . S
H1160 C1144 0.931 . S
H1161 C1149 0.930 . S
H1162 C1150 0.956 . S
H1163 C1150 0.961 . S
H1164 C1150 0.961 . S
H1165 C1151 0.958 . S
H1166 C1151 0.961 . S
H1167 C1151 0.960 . S
C1168 C1169 1.391 . S
C1168 C1170 1.394 . S
C1168 H1184 0.931 . S
C1169 C1168 1.391 . S
C1169 C1173 1.376 . S
C1170 C1168 1.394 . S
C1170 C1171 1.369 . S
C1170 C1174 1.531 . S
C1171 C1170 1.369 . S
C1171 C1172 1.410 . S
C1171 C1179 1.503 . S
C1172 C1171 1.410 . S
C1172 C1173 1.392 . S
C1172 C1175 1.511 . S
C1173 C1169 1.376 . S
C1173 C1172 1.392 . S
C1173 H1185 0.929 . S
C1174 C1170 1.531 . S
C1174 H1186 0.960 . S
C1174 H1187 0.962 . S
C1174 H1188 0.960 . S
C1175 C1172 1.511 . S
C1175 H1189 0.961 . S
C1175 H1190 0.961 . S
C1175 H1191 0.961 . S
C1176 C1177 1.370 . S
C1176 C1178 1.363 . S
C1176 H1192 0.931 . S
C1177 C1176 1.370 . S
C1177 C1181 1.408 . S
C1178 C1176 1.363 . S
C1178 C1179 1.370 . S
C1178 C1182 1.524 . S
C1179 C1171 1.503 . S
C1179 C1178 1.370 . S
C1179 C1180 1.403 . S
C1180 C1179 1.403 . S
C1180 C1181 1.404 . S
C1180 C1183 1.539 . S
C1181 C1177 1.408 . S
C1181 C1180 1.404 . S
C1181 H1193 0.930 . S
C1182 C1178 1.524 . S
C1182 H1194 0.956 . S
C1182 H1195 0.961 . S
C1182 H1196 0.961 . S
C1183 C1180 1.539 . S
C1183 H1197 0.958 . S
C1183 H1198 0.961 . S
C1183 H1199 0.960 . S
H1184 C1168 0.931 . S
H1185 C1173 0.929 . S
H1186 C1174 0.960 . S
H1187 C1174 0.962 . S
H1188 C1174 0.960 . S
H1189 C1175 0.961 . S
H1190 C1175 0.961 . S
H1191 C1175 0.961 . S
H1192 C1176 0.931 . S
H1193 C1181 0.930 . S
H1194 C1182 0.956 . S
H1195 C1182 0.961 . S
H1196 C1182 0.961 . S
H1197 C1183 0.958 . S
H1198 C1183 0.961 . S
H1199 C1183 0.960 . S
C1200 C1201 1.391 . S
C1200 C1202 1.394 . S
C1200 H1216 0.931 . S
C1201 C1200 1.391 . S
C1201 C1205 1.376 . S
C1202 C1200 1.394 . S
C1202 C1203 1.369 . S
C1202 C1206 1.531 . S
C1203 C1202 1.369 . S
C1203 C1204 1.410 . S
C1203 C1211 1.503 . S
C1204 C1203 1.410 . S
C1204 C1205 1.392 . S
C1204 C1207 1.511 . S
C1205 C1201 1.376 . S
C1205 C1204 1.392 . S
C1205 H1217 0.929 . S
C1206 C1202 1.531 . S
C1206 H1218 0.960 . S
C1206 H1219 0.962 . S
C1206 H1220 0.960 . S
C1207 C1204 1.511 . S
C1207 H1221 0.961 . S
C1207 H1222 0.961 . S
C1207 H1223 0.961 . S
C1208 C1209 1.370 . S
C1208 C1210 1.363 . S
C1208 H1224 0.931 . S
C1209 C1208 1.370 . S
C1209 C1213 1.408 . S
C1210 C1208 1.363 . S
C1210 C1211 1.370 . S
C1210 C1214 1.524 . S
C1211 C1203 1.503 . S
C1211 C1210 1.370 . S
C1211 C1212 1.403 . S
C1212 C1211 1.403 . S
C1212 C1213 1.404 . S
C1212 C1215 1.539 . S
C1213 C1209 1.408 . S
C1213 C1212 1.404 . S
C1213 H1225 0.930 . S
C1214 C1210 1.524 . S
C1214 H1226 0.956 . S
C1214 H1227 0.961 . S
C1214 H1228 0.961 . S
C1215 C1212 1.539 . S
C1215 H1229 0.958 . S
C1215 H1230 0.961 . S
C1215 H1231 0.960 . S
H1216 C1200 0.931 . S
H1217 C1205 0.929 . S
H1218 C1206 0.960 . S
H1219 C1206 0.962 . S
H1220 C1206 0.960 . S
H1221 C1207 0.961 . S
H1222 C1207 0.961 . S
H1223 C1207 0.961 . S
H1224 C1208 0.931 . S
H1225 C1213 0.930 . S
H1226 C1214 0.956 . S
H1227 C1214 0.961 . S
H1228 C1214 0.961 . S
H1229 C1215 0.958 . S
H1230 C1215 0.961 . S
H1231 C1215 0.960 . S
C209 C0 1.107 . S
C217 C169 1.111 . S
C241 C143 1.099 . S
C249 C13 1.104 . S
C273 C156 1.116 . S
C281 C26 1.107 . S
C305 C130 1.100 . S
C313 C39 1.104 . S
C337 C52 1.103 . S
C345 C195 1.112 . S
C369 C65 1.106 . S
C377 C117 1.111 . S
C401 C182 1.118 . S
C409 C78 1.100 . S
C433 C91 1.087 . S
C441 C104 1.111 . S
C465 C60 1.555 . S
C473 C8 1.578 . S
C497 C21 1.587 . S
C505 C73 1.565 . S
C529 C34 1.568 . S
C537 C86 1.558 . S
C561 C99 1.587 . S
C569 C47 1.564 . S
C593 C112 1.544 . S
C601 C138 1.575 . S
C625 C125 1.546 . S
C633 C151 1.576 . S
C657 C190 1.585 . S
C665 C164 1.568 . S
C689 C177 1.572 . S
C697 C203 1.558 . S
C721 C70 1.220 . S
C729 C5 1.233 . S
C753 C18 1.265 . S
C761 C83 1.245 . S
C785 C31 1.249 . S
C793 C96 1.236 . S
C817 C57 1.225 . S
C825 C44 1.234 . S
C849 C62 1.313 . S
C857 C140 1.295 . S
C881 C36 1.258 . S
C889 C114 1.289 . S
C913 C153 1.309 . S
C921 C88 1.280 . S
C945 C127 1.310 . S
C953 C10 1.280 . S
C977 C109 1.216 . S
C985 C161 1.222 . S
C1009 C135 1.233 . S
C1017 C200 1.229 . S
C1041 C174 1.243 . S
C1049 C122 1.233 . S
C1073 C148 1.195 . S
C1081 C187 1.220 . S
C1105 C192 1.272 . S
C1113 C23 1.302 . S
C1137 C179 1.292 . S
C1145 C75 1.278 . S
C1169 C205 1.291 . S
C1177 C49 1.303 . S
C1201 C166 1.265 . S
C1209 C101 1.283 . S
