# Generated by pormake.
# Topology wkf, (6)-cn, num edge types: 1
# Building blocks:
#     Node 0, Type 0, BuildingBlock: CUKXOW_clean_sbu_0, # of connection points: 6
#     Node 1, Type 0, BuildingBlock: CUKXOW_clean_sbu_0, # of connection points: 6
#     Node 2, Type 0, BuildingBlock: CUKXOW_clean_sbu_0, # of connection points: 6
#     Node 3, Type 0, BuildingBlock: CUKXOW_clean_sbu_0, # of connection points: 6
#     Node 4, Type 0, BuildingBlock: CUKXOW_clean_sbu_0, # of connection points: 6
#     Node 5, Type 0, BuildingBlock: CUKXOW_clean_sbu_0, # of connection points: 6
#     Node 6, Type 0, BuildingBlock: CUKXOW_clean_sbu_0, # of connection points: 6
#     Node 7, Type 0, BuildingBlock: CUKXOW_clean_sbu_0, # of connection points: 6
#     Node 8, Type 0, BuildingBlock: CUKXOW_clean_sbu_0, # of connection points: 6
#     Node 9, Type 0, BuildingBlock: CUKXOW_clean_sbu_0, # of connection points: 6
#     Node 10, Type 0, BuildingBlock: CUKXOW_clean_sbu_0, # of connection points: 6
#     Node 11, Type 0, BuildingBlock: CUKXOW_clean_sbu_0, # of connection points: 6
#     Edge 12, Type (0, 0), BuildingBlock: AJUNOK_clean_linker_0, # of connection points: 2
#     Edge 13, Type (0, 0), BuildingBlock: AJUNOK_clean_linker_0, # of connection points: 2
#     Edge 14, Type (0, 0), BuildingBlock: AJUNOK_clean_linker_0, # of connection points: 2
#     Edge 15, Type (0, 0), BuildingBlock: AJUNOK_clean_linker_0, # of connection points: 2
#     Edge 16, Type (0, 0), BuildingBlock: AJUNOK_clean_linker_0, # of connection points: 2
#     Edge 17, Type (0, 0), BuildingBlock: AJUNOK_clean_linker_0, # of connection points: 2
#     Edge 18, Type (0, 0), BuildingBlock: AJUNOK_clean_linker_0, # of connection points: 2
#     Edge 19, Type (0, 0), BuildingBlock: AJUNOK_clean_linker_0, # of connection points: 2
#     Edge 20, Type (0, 0), BuildingBlock: AJUNOK_clean_linker_0, # of connection points: 2
#     Edge 21, Type (0, 0), BuildingBlock: AJUNOK_clean_linker_0, # of connection points: 2
#     Edge 22, Type (0, 0), BuildingBlock: AJUNOK_clean_linker_0, # of connection points: 2
#     Edge 23, Type (0, 0), BuildingBlock: AJUNOK_clean_linker_0, # of connection points: 2
#     Edge 24, Type (0, 0), BuildingBlock: AJUNOK_clean_linker_0, # of connection points: 2
#     Edge 25, Type (0, 0), BuildingBlock: AJUNOK_clean_linker_0, # of connection points: 2
#     Edge 26, Type (0, 0), BuildingBlock: AJUNOK_clean_linker_0, # of connection points: 2
#     Edge 27, Type (0, 0), BuildingBlock: AJUNOK_clean_linker_0, # of connection points: 2
#     Edge 28, Type (0, 0), BuildingBlock: AJUNOK_clean_linker_0, # of connection points: 2
#     Edge 29, Type (0, 0), BuildingBlock: AJUNOK_clean_linker_0, # of connection points: 2
#     Edge 30, Type (0, 0), BuildingBlock: AJUNOK_clean_linker_0, # of connection points: 2
#     Edge 31, Type (0, 0), BuildingBlock: AJUNOK_clean_linker_0, # of connection points: 2
#     Edge 32, Type (0, 0), BuildingBlock: AJUNOK_clean_linker_0, # of connection points: 2
#     Edge 33, Type (0, 0), BuildingBlock: AJUNOK_clean_linker_0, # of connection points: 2
#     Edge 34, Type (0, 0), BuildingBlock: AJUNOK_clean_linker_0, # of connection points: 2
#     Edge 35, Type (0, 0), BuildingBlock: AJUNOK_clean_linker_0, # of connection points: 2
#     Edge 36, Type (0, 0), BuildingBlock: AJUNOK_clean_linker_0, # of connection points: 2
#     Edge 37, Type (0, 0), BuildingBlock: AJUNOK_clean_linker_0, # of connection points: 2
#     Edge 38, Type (0, 0), BuildingBlock: AJUNOK_clean_linker_0, # of connection points: 2
#     Edge 39, Type (0, 0), BuildingBlock: AJUNOK_clean_linker_0, # of connection points: 2
#     Edge 40, Type (0, 0), BuildingBlock: AJUNOK_clean_linker_0, # of connection points: 2
#     Edge 41, Type (0, 0), BuildingBlock: AJUNOK_clean_linker_0, # of connection points: 2
#     Edge 42, Type (0, 0), BuildingBlock: AJUNOK_clean_linker_0, # of connection points: 2
#     Edge 43, Type (0, 0), BuildingBlock: AJUNOK_clean_linker_0, # of connection points: 2
#     Edge 44, Type (0, 0), BuildingBlock: AJUNOK_clean_linker_0, # of connection points: 2
#     Edge 45, Type (0, 0), BuildingBlock: AJUNOK_clean_linker_0, # of connection points: 2
#     Edge 46, Type (0, 0), BuildingBlock: AJUNOK_clean_linker_0, # of connection points: 2
#     Edge 47, Type (0, 0), BuildingBlock: AJUNOK_clean_linker_0, # of connection points: 2
# Relax obj value: 0.112
# Max RMSD: 0.282
# Mean RMSD: 0.282
data_MOF--net-wkf--node1-CUKXOW_clean_sbu_0--edge1-AJUNOK_clean_linker_0
_symmetry_space_group_name_H-M    P1
_symmetry_Int_Tables_number       1
_symmetry_cell_setting            triclinic
loop_
_symmetry_equiv_pos_as_xyz
'x, y, z'
_cell_length_a     19.74603
_cell_length_b     19.775161
_cell_length_c     58.160588
_cell_angle_alpha  90.037156
_cell_angle_beta   89.879241
_cell_angle_gamma 120.20359
loop_
_atom_site_label
_atom_site_type_symbol
_atom_site_fract_x
_atom_site_fract_y
_atom_site_fract_z
_atom_type_partial_charge
Tb0 Tb 0.3313 0.19832 0.40824 0.0
C1 C 0.30385 0.02812 0.41649 0.0
Tb2 Tb 0.42896 0.14881 0.37984 0.0
O3 O 0.25935 0.18058 0.37636 0.0
O4 O 0.31255 0.11606 0.38294 0.0
O5 O 0.28901 0.08321 0.42346 0.0
C6 C 0.48918 0.07151 0.35991 0.0
O7 O 0.35735 0.04181 0.40045 0.0
C8 C 0.51514 0.27242 0.40419 0.0
C9 C 0.4245 0.3032 0.36726 0.0
O10 O 0.50442 0.09901 0.38068 0.0
O11 O 0.44093 0.08904 0.34985 0.0
O12 O 0.53728 0.25391 0.3855 0.0
O13 O 0.44863 0.21521 0.41081 0.0
O14 O 0.43052 0.24342 0.35849 0.0
O15 O 0.3944 0.30056 0.38778 0.0
C16 C 0.28624 0.24307 0.44624 0.0
O17 O 0.23994 0.20178 0.42952 0.0
O18 O 0.35718 0.26126 0.44082 0.0
C19 C 0.27317 0.12688 0.36831 0.0
Tb20 Tb 0.16586 0.33608 0.57751 0.0
C21 C 0.30897 0.312 0.58877 0.0
Tb22 Tb 0.32246 0.44447 0.5553 0.0
O23 O 0.1218 0.26564 0.54563 0.0
O24 O 0.24038 0.32494 0.55387 0.0
O25 O 0.24207 0.30412 0.59618 0.0
C26 C 0.45848 0.5159 0.53283 0.0
O27 O 0.34659 0.35868 0.5713 0.0
C28 C 0.28905 0.51002 0.59043 0.0
C29 C 0.16786 0.44431 0.53819 0.0
O30 O 0.44951 0.51763 0.55479 0.0
O31 O 0.38984 0.4773 0.52316 0.0
O32 O 0.3574 0.51956 0.58574 0.0
O33 O 0.2432 0.4605 0.57608 0.0
O34 O 0.24189 0.46361 0.53315 0.0
O35 O 0.12989 0.40228 0.55661 0.0
C36 C 0.0691 0.27999 0.61391 0.0
O37 O 0.05654 0.24475 0.59407 0.0
O38 O 0.13352 0.347 0.61253 0.0
C39 C 0.19232 0.28699 0.53821 0.0
Tb40 Tb 0.85468 0.16062 0.74414 0.0
C41 C 1.02826 0.29768 0.75377 0.0
Tb42 Tb 0.91802 0.31384 0.71674 0.0
O43 O 0.86511 0.10433 0.71186 0.0
O44 O 0.93916 0.22126 0.71883 0.0
O45 O 0.96791 0.23102 0.76114 0.0
C46 C 1.00522 0.44672 0.69459 0.0
O47 O 1.02222 0.33806 0.7365 0.0
C48 C 0.80059 0.28846 0.74289 0.0
C49 C 0.75513 0.16356 0.70391 0.0
O50 O 0.99022 0.44041 0.71647 0.0
O51 O 0.96928 0.37783 0.68493 0.0
O52 O 0.82524 0.33547 0.7255 0.0
O53 O 0.85085 0.26744 0.74756 0.0
O54 O 0.81899 0.2267 0.69548 0.0
O55 O 0.75298 0.13439 0.72455 0.0
C56 C 0.81033 0.05903 0.77929 0.0
O57 O 0.85676 0.06452 0.76263 0.0
O58 O 0.78658 0.10852 0.77551 0.0
C59 C 0.92268 0.16995 0.70393 0.0
Tb60 Tb 0.73179 0.84545 0.90938 0.0
C61 C 0.75345 1.01355 0.91784 0.0
Tb62 Tb 0.61944 0.88459 0.88564 0.0
O63 O 0.80404 0.87222 0.87766 0.0
O64 O 0.73909 0.92593 0.88487 0.0
O65 O 0.76275 0.95683 0.92648 0.0
C66 C 0.54355 0.94202 0.86234 0.0
O67 O 0.70674 0.99968 0.89988 0.0
C68 C 0.55563 0.78755 0.92158 0.0
C69 C 0.62799 0.73202 0.8707 0.0
O70 O 0.54631 0.93776 0.88446 0.0
O71 O 0.58026 0.90949 0.85303 0.0
O72 O 0.54253 0.84322 0.91593 0.0
O73 O 0.60657 0.79292 0.90748 0.0
O74 O 0.60653 0.78424 0.86456 0.0
O75 O 0.6691 0.7397 0.88957 0.0
C76 C 0.78381 0.80905 0.94706 0.0
O77 O 0.8211 0.829 0.92742 0.0
O78 O 0.71772 0.80743 0.94478 0.0
C79 C 0.7787 0.91715 0.86955 0.0
Tb80 Tb 0.91397 0.71382 0.07527 0.0
C81 C 0.77382 0.74543 0.08605 0.0
Tb82 Tb 0.75755 0.61284 0.05186 0.0
O83 O 0.96219 0.78754 0.04391 0.0
O84 O 0.84342 0.73016 0.05192 0.0
O85 O 0.84231 0.75493 0.09251 0.0
C86 C 0.62471 0.54445 0.02767 0.0
O87 O 0.73271 0.69605 0.06944 0.0
C88 C 0.78298 0.5426 0.08672 0.0
C89 C 0.91204 0.61073 0.03493 0.0
O90 O 0.63252 0.5297 0.04884 0.0
O91 O 0.69323 0.59508 0.0195 0.0
O92 O 0.7178 0.54091 0.08254 0.0
O93 O 0.83242 0.59002 0.07259 0.0
O94 O 0.83768 0.59088 0.03028 0.0
O95 O 0.95078 0.65083 0.05342 0.0
C96 C 1.00067 0.76048 0.11377 0.0
O97 O 1.02313 0.79543 0.09382 0.0
O98 O 0.93237 0.69821 0.1113 0.0
C99 C 0.89222 0.76819 0.03649 0.0
Tb100 Tb 0.21232 0.87557 0.24426 0.0
C101 C 0.03625 0.74832 0.25715 0.0
Tb102 Tb 0.13322 0.71652 0.22014 0.0
O103 O 0.20738 0.92889 0.21102 0.0
O104 O 0.12231 0.81608 0.22015 0.0
O105 O 0.09697 0.81944 0.26016 0.0
C106 C 0.03693 0.58156 0.20031 0.0
O107 O 0.03812 0.69704 0.24302 0.0
C108 C 0.2502 0.73542 0.24483 0.0
C109 C 0.302 0.85052 0.20487 0.0
O110 O 0.06249 0.58982 0.22121 0.0
O111 O 0.0666 0.64964 0.19024 0.0
O112 O 0.21975 0.68691 0.22794 0.0
O113 O 0.20668 0.76456 0.2499 0.0
O114 O 0.23382 0.79075 0.19746 0.0
O115 O 0.30944 0.88697 0.22466 0.0
C116 C 0.25476 0.97769 0.27973 0.0
O117 O 0.23012 0.986 0.25979 0.0
O118 O 0.25997 0.91487 0.27888 0.0
C119 C 0.14411 0.86572 0.20434 0.0
Tb120 Tb 0.84662 0.7086 0.44469 0.0
C121 C 1.01531 0.73833 0.43165 0.0
Tb122 Tb 0.90836 0.61573 0.47039 0.0
O123 O 0.86404 0.77677 0.47717 0.0
O124 O 0.93438 0.7312 0.46869 0.0
O125 O 0.95458 0.74554 0.42559 0.0
C126 C 0.99508 0.5673 0.49121 0.0
O127 O 1.01039 0.69124 0.44864 0.0
C128 C 0.78549 0.52709 0.44576 0.0
C129 C 0.74932 0.60721 0.48535 0.0
O130 O 0.97826 0.55902 0.46946 0.0
O131 O 0.96107 0.60102 0.5015 0.0
O132 O 0.80815 0.50314 0.4632 0.0
O133 O 0.83888 0.59649 0.44031 0.0
O134 O 0.8134 0.60729 0.49307 0.0
O135 O 0.74603 0.63486 0.46496 0.0
C136 C 0.79971 0.76654 0.41049 0.0
O137 O 0.85088 0.80775 0.42614 0.0
O138 O 0.77288 0.69294 0.41482 0.0
C139 C 0.92178 0.76758 0.48403 0.0
Tb140 Tb 0.1688 0.84883 0.61007 0.0
C141 C 0.30752 0.02215 0.60062 0.0
Tb142 Tb 0.32646 0.90633 0.63338 0.0
O143 O 0.11802 0.8657 0.64205 0.0
O144 O 0.23717 0.934 0.63452 0.0
O145 O 0.24456 0.96005 0.59223 0.0
C146 C 0.46244 0.97492 0.65561 0.0
O147 O 0.34323 1.01546 0.61893 0.0
C148 C 0.30062 0.81036 0.59776 0.0
C149 C 0.17884 0.74326 0.64851 0.0
O150 O 0.45373 0.96851 0.63357 0.0
O151 O 0.39376 0.93934 0.66549 0.0
O152 O 0.36693 0.87162 0.60285 0.0
O153 O 0.2529 0.81148 0.61177 0.0
O154 O 0.24952 0.80232 0.65464 0.0
O155 O 0.14059 0.74526 0.6299 0.0
C156 C 0.07422 0.80585 0.5732 0.0
O157 O 0.05968 0.82797 0.59285 0.0
O158 O 0.13909 0.80475 0.57515 0.0
C159 C 0.18674 0.91779 0.64997 0.0
Tb160 Tb 0.33233 0.14235 0.77958 0.0
C161 C 0.30916 0.28866 0.77298 0.0
Tb162 Tb 0.4452 0.29548 0.80431 0.0
O163 O 0.26075 0.09368 0.81129 0.0
O164 O 0.32578 0.21347 0.80504 0.0
O165 O 0.29948 0.22311 0.76375 0.0
C166 C 0.52125 0.43343 0.82551 0.0
O167 O 0.35561 0.32045 0.79102 0.0
C168 C 0.50701 0.26303 0.76761 0.0
C169 C 0.44056 0.13634 0.81797 0.0
O170 O 0.5127 0.4223 0.80357 0.0
O171 O 0.48981 0.36565 0.83591 0.0
O172 O 0.52353 0.33201 0.77432 0.0
O173 O 0.45618 0.21772 0.78164 0.0
O174 O 0.45971 0.20876 0.82492 0.0
O175 O 0.39938 0.10303 0.799 0.0
C176 C 0.28293 0.05509 0.7414 0.0
O177 O 0.34792 0.12104 0.7438 0.0
O178 O 0.24543 0.03622 0.76103 0.0
C179 C 0.28665 0.1634 0.8201 0.0
Tb180 Tb 0.20895 0.32104 0.94755 0.0
C181 C 0.04072 0.29962 0.93735 0.0
Tb182 Tb 0.1643 0.43052 0.97075 0.0
O183 O 0.18586 0.25371 0.98013 0.0
O184 O 0.12561 0.3113 0.97162 0.0
O185 O 0.0983 0.28942 0.92973 0.0
C186 C 0.10745 0.50462 0.99515 0.0
O187 O 0.05176 0.34692 0.9549 0.0
C188 C 0.25921 0.49391 0.93449 0.0
C189 C 0.32187 0.43217 0.98552 0.0
O190 O 0.13721 0.52398 0.97475 0.0
O191 O 0.11356 0.44591 1.00245 0.0
O192 O 0.19978 0.50222 0.93955 0.0
O193 O 0.25649 0.44506 0.94887 0.0
O194 O 0.26737 0.4505 0.99157 0.0
O195 O 0.31515 0.38912 0.96715 0.0
C196 C 0.24875 0.26579 0.91098 0.0
O197 O 0.22093 0.22781 0.93025 0.0
O198 O 0.25612 0.33454 0.91292 0.0
C199 C 0.13641 0.27471 0.98743 0.0
Tb200 Tb 0.88806 0.20689 0.11273 0.0
C201 C 0.76466 0.02825 0.10052 0.0
Tb202 Tb 0.72664 0.12475 0.13615 0.0
O203 O 0.94176 0.20055 0.14571 0.0
O204 O 0.82821 0.11689 0.13676 0.0
O205 O 0.83458 0.09097 0.09735 0.0
C206 C 0.59263 0.0253 0.15625 0.0
O207 O 0.71212 0.02835 0.1146 0.0
C208 C 0.74644 0.24076 0.11031 0.0
C209 C 0.85815 0.29192 0.15265 0.0
O210 O 0.60118 0.043 0.13457 0.0
O211 O 0.65944 0.06551 0.16683 0.0
O212 O 0.69598 0.21049 0.12683 0.0
O213 O 0.77601 0.19726 0.1063 0.0
O214 O 0.7987 0.2229 0.15951 0.0
O215 O 0.89599 0.30238 0.13287 0.0
C216 C 0.9884 0.25102 0.07677 0.0
O217 O 0.99948 0.22849 0.09673 0.0
O218 O 0.92389 0.25303 0.07788 0.0
C219 C 0.87786 0.13814 0.15258 0.0
Tb220 Tb 0.72177 0.89873 0.28011 0.0
C221 C 0.75606 0.75918 0.27179 0.0
Tb222 Tb 0.61288 0.73919 0.30074 0.0
O223 O 0.78753 0.94449 0.31265 0.0
O224 O 0.73008 0.82568 0.30445 0.0
O225 O 0.7652 0.82646 0.26415 0.0
C226 C 0.53356 0.60162 0.32192 0.0
O227 O 0.70663 0.72071 0.28864 0.0
C228 C 0.55541 0.77341 0.26406 0.0
C229 C 0.60544 0.88789 0.31843 0.0
O230 O 0.54293 0.61175 0.29995 0.0
O231 O 0.56611 0.66953 0.33203 0.0
O232 O 0.55159 0.70717 0.26797 0.0
O233 O 0.59815 0.81844 0.27963 0.0
O234 O 0.58466 0.8133 0.32236 0.0
O235 O 0.65143 0.93039 0.30112 0.0
C236 C 0.7739 0.99123 0.24284 0.0
O237 O 0.80838 1.00882 0.2629 0.0
O238 O 0.7098 0.92406 0.24444 0.0
C239 C 0.76399 0.87388 0.3204 0.0
C240 C 0.26047 0.98531 0.32247 0.0
C241 C 0.25816 1.0195 0.30154 0.0
C242 C 0.26046 1.0191 0.34363 0.0
C243 C 0.25926 0.08963 0.34514 0.0
H244 H 0.26209 0.93136 0.32263 0.0
H245 H 0.26335 0.99011 0.35909 0.0
S246 S 0.25269 0.20373 0.29554 0.0
N247 N 0.25267 0.12777 0.28359 0.0
N248 N 0.25525 0.19276 0.32366 0.0
C249 C 0.25571 0.12442 0.32443 0.0
C250 C 0.2548 0.08916 0.30261 0.0
C251 C 0.16269 0.25024 0.49617 0.0
C252 C 0.21509 0.27366 0.51485 0.0
C253 C 0.18573 0.24112 0.47387 0.0
C254 C 0.26226 0.25599 0.46943 0.0
H255 H 0.10373 0.2395 0.49873 0.0
H256 H 0.14345 0.22257 0.46004 0.0
S257 S 0.41998 0.31288 0.51269 0.0
N258 N 0.34539 0.30614 0.52741 0.0
N259 N 0.38916 0.29232 0.48589 0.0
C260 C 0.31474 0.27884 0.48802 0.0
C261 C 0.29103 0.28675 0.51061 0.0
C262 C 1.02698 0.26244 0.67773 0.0
C263 C 0.95758 0.19 0.68046 0.0
C264 C 0.06036 0.29047 0.65614 0.0
C265 C 1.02699 0.24703 0.63602 0.0
H266 H 0.05574 0.2991 0.69249 0.0
H267 H 0.11353 0.34705 0.65534 0.0
S268 S 0.84635 0.05193 0.63343 0.0
N269 N 0.85653 0.07419 0.6611 0.0
N270 N 0.92088 0.12611 0.62018 0.0
C271 C 0.95822 0.17342 0.63833 0.0
C272 C 0.92333 0.14495 0.66061 0.0
C273 C 0.76269 0.0319 0.8197 0.0
C274 C 0.79919 1.01652 0.80131 0.0
C275 C 0.75749 0.99961 0.84146 0.0
C276 C 0.78769 0.94991 0.84597 0.0
H277 H 0.73947 0.07065 0.81745 0.0
H278 H 0.72964 1.01476 0.85498 0.0
S279 S 0.88622 0.88831 0.80347 0.0
N280 N 0.86497 0.94676 0.78879 0.0
N281 N 0.8536 0.8849 0.82989 0.0
C282 C 0.82327 0.9327 0.82767 0.0
C283 C 0.82915 0.96628 0.80534 0.0
C284 C 0.88685 0.80425 0.97196 0.0
C285 C 0.81338 0.79929 0.96958 0.0
C286 C 0.9143 0.79691 0.99375 0.0
C287 C 0.8692 0.78477 0.01375 0.0
H288 H 0.92298 0.81333 0.95695 0.0
H289 H 0.97002 0.7989 0.99486 0.0
S290 S 0.67566 0.77365 0.0169 0.0
N291 N 0.69798 0.78452 0.98934 0.0
N292 N 0.74999 0.77355 0.02964 0.0
C293 C 0.79696 0.78214 0.01146 0.0
C294 C 0.76888 0.78856 0.98955 0.0
C295 C 0.15204 0.87718 0.16073 0.0
C296 C 0.10796 0.84656 0.18105 0.0
C297 C 0.11769 0.84987 0.13883 0.0
C298 C 0.03819 0.79132 0.13661 0.0
H299 H 0.21376 0.92051 0.16177 0.0
H300 H 0.15382 0.87363 0.12362 0.0
S301 S 0.89555 0.70143 0.18461 0.0
N302 N 0.97955 0.76027 0.19738 0.0
N303 N 0.91514 0.71066 0.15682 0.0
C304 C 0.99327 0.76342 0.15688 0.0
C305 C 1.02808 0.79064 0.17892 0.0
C306 C 0.96225 0.79676 0.549 0.0
C307 C 0.03357 0.79667 0.5508 0.0
C308 C 0.92645 0.79024 0.52736 0.0
C309 C 0.96134 0.78422 0.50687 0.0
H310 H 0.93362 0.80108 0.56437 0.0
H311 H 0.87059 0.78808 0.52672 0.0
S312 S 0.15105 0.78828 0.5021 0.0
N313 N 0.13855 0.79327 0.52991 0.0
N314 N 0.0741 0.78467 0.48988 0.0
C315 C 0.0338 0.78698 0.50856 0.0
C316 C 0.06907 0.79207 0.53033 0.0
C317 C 0.28242 1.01343 0.67782 0.0
C318 C 0.20685 0.94986 0.67369 0.0
C319 C 0.30608 0.04509 0.69984 0.0
C320 C 0.25535 1.01482 0.71886 0.0
H321 H 0.3241 0.03964 0.66388 0.0
H322 H 0.36486 0.09445 0.70186 0.0
S323 S 0.05165 0.84706 0.71763 0.0
N324 N 0.08146 0.85631 0.69063 0.0
N325 N 0.12595 0.91641 0.73223 0.0
C326 C 0.17965 0.95069 0.71515 0.0
C327 C 0.15535 0.91824 0.69253 0.0
C328 C 0.2991 0.28907 0.87096 0.0
C329 C 0.26178 0.23561 0.88897 0.0
C330 C 0.30657 0.26428 0.84909 0.0
C331 C 0.2769 0.18469 0.84397 0.0
H332 H 0.322 0.35109 0.87363 0.0
H333 H 0.33505 0.30853 0.83596 0.0
S334 S 0.17606 0.02044 0.88521 0.0
N335 N 0.19614 0.09887 0.9005 0.0
N336 N 0.21043 0.05211 0.85907 0.0
C337 C 0.24056 0.13023 0.86188 0.0
C338 C 0.23308 0.15572 0.88443 0.0
C339 C 0.9997 0.26856 0.03435 0.0
C340 C 0.03078 0.25784 0.05481 0.0
C341 C 0.03384 0.27215 0.01294 0.0
C342 C 0.1005 0.26428 0.01072 0.0
H343 H 0.94759 0.27347 0.0348 0.0
H344 H 1.00766 0.28196 0.99794 0.0
S345 S 0.2047 0.2331 0.05885 0.0
N346 N 0.13212 0.23778 0.07154 0.0
N347 N 0.19639 0.24422 0.03102 0.0
C348 C 0.13198 0.25214 0.03096 0.0
C349 C 0.09719 0.24903 0.05303 0.0
C350 C 0.76091 0.99818 0.20055 0.0
C351 C 0.80468 0.03291 0.22056 0.0
C352 C 0.78739 0.03173 0.17885 0.0
C353 C 0.85823 0.10268 0.17599 0.0
H354 H 0.70539 0.94386 0.20153 0.0
H355 H 0.7511 1.00176 0.16411 0.0
S356 S 0.99813 0.21562 0.22252 0.0
N357 N 0.92511 0.14076 0.236 0.0
N358 N 0.9745 0.20467 0.19496 0.0
C359 C 0.904 0.13756 0.1957 0.0
C360 C 0.87712 0.10275 0.21802 0.0
C361 C 0.74923 0.74419 0.37042 0.0
C362 C 0.78713 0.79688 0.38853 0.0
C363 C 0.74349 0.77047 0.34858 0.0
C364 C 0.7735 0.85045 0.34392 0.0
H365 H 0.72569 0.68198 0.37288 0.0
H366 H 0.71598 0.7273 0.33514 0.0
S367 S 0.87743 1.01277 0.38548 0.0
N368 N 0.85573 0.93329 0.40043 0.0
N369 N 0.84249 0.98244 0.35936 0.0
C370 C 0.81072 0.90398 0.36191 0.0
C371 C 0.81787 0.87724 0.38422 0.0
C372 C 0.49538 0.90892 0.3278 0.0
C373 C 0.57182 0.92494 0.3323 0.0
C374 C 0.46902 0.95782 0.33644 0.0
C375 C 0.51787 0.02217 0.35036 0.0
H376 H 0.45731 0.86078 0.31664 0.0
H377 H 0.41034 0.94522 0.33225 0.0
S378 S 0.72069 0.08395 0.36847 0.0
N379 N 0.69479 1.00687 0.35192 0.0
N380 N 0.64397 0.09633 0.36942 0.0
C381 C 0.59287 0.03596 0.35594 0.0
C382 C 0.62026 0.98773 0.34659 0.0
C383 C 0.53496 0.52318 0.49811 0.0
C384 C 0.53402 0.53919 0.52153 0.0
C385 C 0.6049 0.54132 0.48707 0.0
C386 C 0.67678 0.5761 0.49898 0.0
H387 H 0.48133 0.49663 0.48817 0.0
H388 H 0.6028 0.52953 0.4688 0.0
S389 S 0.70569 0.62682 0.56079 0.0
N390 N 0.6106 0.58918 0.55667 0.0
N391 N 0.7426 0.62361 0.53557 0.0
C392 C 0.67661 0.59021 0.52255 0.0
C393 C 0.60508 0.57198 0.53389 0.0
C394 C 0.13404 0.66434 0.68444 0.0
C395 C 0.14455 0.66813 0.66056 0.0
C396 C 0.08979 0.59185 0.69543 0.0
C397 C 0.05561 0.52141 0.68282 0.0
H398 H 0.15688 0.71755 0.69449 0.0
H399 H 0.08074 0.59117 0.71382 0.0
S400 S 0.07522 0.50083 0.62021 0.0
N401 N 0.12346 0.59613 0.62486 0.0
N402 N 0.04153 0.46002 0.64555 0.0
C403 C 0.06952 0.52461 0.65911 0.0
C404 C 0.11378 0.59814 0.64795 0.0
C405 C 0.4634 0.07857 0.85319 0.0
C406 C 0.47329 0.09302 0.82951 0.0
C407 C 0.48471 0.02788 0.86353 0.0
C408 C 0.51712 0.99068 0.85053 0.0
H409 H 0.43678 0.10444 0.86361 0.0
H410 H 0.47566 1.01778 0.88187 0.0
S411 S 0.56148 1.01599 0.78813 0.0
N412 N 0.52124 0.07009 0.79346 0.0
N413 N 0.56254 0.97619 0.81298 0.0
C414 C 0.52928 1.00666 0.82693 0.0
C415 C 0.50708 0.05761 0.8164 0.0
C416 C 0.40474 0.44912 0.0197 0.0
C417 C 0.3983 0.4691 0.99704 0.0
C418 C 0.47858 0.47311 0.02931 0.0
C419 C 0.54816 0.5182 0.0166 0.0
H420 H 0.35252 0.41239 0.02971 0.0
H421 H 0.48104 0.45574 0.04681 0.0
S422 S 0.56157 0.5897 0.95692 0.0
N423 N 0.4666 0.53839 0.96233 0.0
N424 N 0.60533 0.5851 0.98056 0.0
C425 C 0.54218 0.5404 0.99414 0.0
C426 C 0.46714 0.51536 0.98431 0.0
C427 C 0.97726 0.43673 0.19843 0.0
C428 C 0.98275 0.50583 0.18982 0.0
C429 C 0.93059 0.36485 0.18737 0.0
C430 C 0.88778 0.36036 0.16767 0.0
H431 H 1.01186 0.43874 0.21312 0.0
H432 H 0.93134 0.31363 0.19351 0.0
S433 S 0.86893 0.52119 0.14192 0.0
N434 N 0.93327 0.56335 0.16274 0.0
N435 N 0.84381 0.4279 0.14235 0.0
C436 C 0.88795 0.42778 0.16016 0.0
C437 C 0.93603 0.50081 0.17117 0.0
C438 C 0.03308 0.52369 0.52614 0.0
C439 C 0.04328 0.54004 0.50259 0.0
C440 C 0.07392 0.49278 0.53727 0.0
C441 C 0.12854 0.47936 0.52545 0.0
H442 H 0.99157 0.53271 0.53595 0.0
H443 H 0.06234 0.47945 0.55541 0.0
S444 S 0.1796 0.5171 0.46368 0.0
N445 N 0.11282 0.54298 0.46765 0.0
N446 N 0.1923 0.48716 0.48898 0.0
C447 C 0.14125 0.49789 0.50199 0.0
C448 C 0.0979 0.52769 0.49045 0.0
C449 C 0.54037 0.0289 0.69121 0.0
C450 C 0.53808 0.02404 0.6672 0.0
C451 C 0.61077 0.07631 0.70267 0.0
C452 C 0.6818 0.12132 0.69058 0.0
H453 H 0.48745 0.99562 0.70129 0.0
H454 H 0.60929 0.07721 0.72129 0.0
S455 S 0.70652 0.13186 0.62733 0.0
N456 N 0.61218 0.06997 0.63143 0.0
N457 N 0.74492 0.15974 0.65321 0.0
C458 C 0.68013 0.11866 0.66651 0.0
C459 C 0.60819 0.06964 0.65476 0.0
C460 C 0.57809 0.58887 0.87126 0.0
C461 C 0.59776 0.65692 0.85843 0.0
C462 C 0.55419 0.51699 0.86051 0.0
C463 C 0.55023 0.51062 0.8365 0.0
H464 H 0.5808 0.59099 0.88987 0.0
H465 H 0.5387 0.46617 0.8711 0.0
S466 S 0.59711 0.67174 0.79507 0.0
N467 N 0.61208 0.71365 0.82057 0.0
N468 N 0.56831 0.57887 0.80006 0.0
C469 C 0.5699 0.57832 0.82342 0.0
C470 C 0.5932 0.65138 0.83446 0.0
C471 C 1.02768 0.63485 0.01235 0.0
C472 C 0.95299 0.58117 0.02095 0.0
C473 C 0.07766 0.60953 1.00397 0.0
C474 C 0.05551 0.53018 1.00487 0.0
H475 H 0.04839 0.69707 0.01275 0.0
H476 H 0.13475 0.65241 0.99736 0.0
S477 S 0.86413 0.36631 0.02452 0.0
N478 N 0.85732 0.44532 0.0287 0.0
N479 N 0.95219 0.39745 0.0135 0.0
C480 C 0.98021 0.47575 0.0129 0.0
C481 C 0.92854 0.50138 0.02082 0.0
C482 C 0.5169 0.96002 0.19122 0.0
C483 C 0.51808 0.97033 0.1674 0.0
C484 C 0.44625 0.91612 0.20286 0.0
C485 C 0.37413 0.88058 0.19116 0.0
H486 H 0.57058 0.98855 0.20114 0.0
H487 H 0.44821 0.91289 0.22134 0.0
S488 S 0.34655 0.87981 0.12823 0.0
N489 N 0.44225 0.93433 0.13194 0.0
N490 N 0.30865 0.85074 0.15416 0.0
C491 C 0.37473 0.88497 0.16713 0.0
C492 C 0.44707 0.93044 0.15515 0.0
C493 C 0.47717 0.45637 0.32053 0.0
C494 C 0.50396 0.52559 0.33349 0.0
C495 C 0.45365 0.38412 0.33127 0.0
C496 C 0.45562 0.37911 0.35529 0.0
H497 H 0.47472 0.45804 0.30195 0.0
H498 H 0.43229 0.33198 0.32082 0.0
S499 S 0.52707 0.54495 0.39675 0.0
N500 N 0.53529 0.58522 0.37133 0.0
N501 N 0.49047 0.4509 0.39164 0.0
C502 C 0.48347 0.44857 0.36833 0.0
C503 C 0.50778 0.52148 0.35741 0.0
C504 C 0.09772 0.86105 0.40965 0.0
C505 C 0.09408 0.80094 0.42353 0.0
C506 C 0.16697 0.93269 0.40726 0.0
C507 C 0.23651 0.94751 0.41815 0.0
H508 H 0.04551 0.85524 0.40168 0.0
H509 H 0.16529 0.97818 0.39731 0.0
S510 S 0.26529 0.80443 0.45135 0.0
N511 N 0.17084 0.7569 0.44502 0.0
N512 N 0.30202 0.89257 0.43991 0.0
C513 C 0.23679 0.88595 0.43 0.0
C514 C 0.16536 0.81236 0.43276 0.0
C515 C 0.26323 0.17511 0.57908 0.0
C516 C 0.31715 0.24261 0.59102 0.0
C517 C 0.26533 0.10583 0.58061 0.0
C518 C 0.32086 0.10081 0.5945 0.0
H519 H 0.21777 0.1754 0.56874 0.0
H520 H 0.22016 0.05486 0.57175 0.0
S521 S 0.48223 0.26568 0.62665 0.0
N522 N 0.43318 0.30426 0.61492 0.0
N523 N 0.43701 0.17305 0.6185 0.0
C524 C 0.3786 0.16986 0.6054 0.0
C525 C 0.37671 0.24105 0.60354 0.0
C526 C 0.2311 0.32526 0.74714 0.0
C527 C 0.24646 0.30752 0.76918 0.0
C528 C 0.1635 0.32996 0.74288 0.0
C529 C 0.10757 0.31411 0.76032 0.0
H530 H 0.27003 0.33278 0.73298 0.0
H531 H 0.15222 0.34028 0.72539 0.0
S532 S 0.12205 0.26723 0.8211 0.0
N533 N 0.20261 0.27825 0.80891 0.0
N534 N 0.07403 0.28315 0.80057 0.0
C535 C 0.12378 0.29897 0.78256 0.0
C536 C 0.1936 0.29657 0.78705 0.0
C537 C 0.84222 0.11809 0.94539 0.0
C538 C 0.81583 0.09531 0.92277 0.0
C539 C 0.912 0.18846 0.94994 0.0
C540 C 0.95948 0.23746 0.93201 0.0
H541 H 0.81055 0.07961 0.95961 0.0
H542 H 0.93168 0.20152 0.96757 0.0
S543 S 0.91593 0.20599 0.86979 0.0
N544 N 0.84092 0.13017 0.88224 0.0
N545 N 0.97397 0.25981 0.8909 0.0
C546 C 0.9327 0.21681 0.9094 0.0
C547 C 0.86031 0.14647 0.90477 0.0
C548 C 0.69998 0.882 0.10387 0.0
C549 C 0.75453 0.95237 0.0928 0.0
C550 C 0.7045 0.81351 0.1015 0.0
C551 C 0.76487 0.81444 0.08853 0.0
H552 H 0.65618 0.88071 0.11539 0.0
H553 H 0.66283 0.76088 0.11053 0.0
S554 S 0.91438 0.97907 0.05344 0.0
N555 N 0.86261 1.01387 0.06553 0.0
N556 N 0.87549 0.88853 0.06294 0.0
C557 C 0.81674 0.88288 0.07649 0.0
C558 C 0.81022 0.95094 0.07807 0.0
C559 C 0.82536 0.69657 0.25341 0.0
C560 C 0.82327 0.74767 0.26968 0.0
C561 C 0.89267 0.69019 0.25106 0.0
C562 C 0.95948 0.73529 0.26481 0.0
H563 H 0.77614 0.66371 0.24201 0.0
H564 H 0.89414 0.65388 0.23734 0.0
S565 S 0.97643 0.86785 0.31237 0.0
N566 N 0.88847 0.83661 0.30148 0.0
N567 N 1.0146 0.82466 0.29715 0.0
C568 C 0.95494 0.78168 0.28232 0.0
C569 C 0.88689 0.78813 0.28465 0.0
C570 C 0.64808 0.41614 0.44916 0.0
C571 C 0.70719 0.47606 0.43542 0.0
C572 C 0.58018 0.35336 0.43946 0.0
C573 C 0.56985 0.34781 0.4156 0.0
H574 H 0.65651 0.4153 0.46754 0.0
H575 H 0.53945 0.30606 0.45047 0.0
S576 S 0.70093 0.49542 0.37244 0.0
N577 N 0.74523 0.53089 0.39725 0.0
N578 N 0.62014 0.41263 0.37865 0.0
C579 C 0.62543 0.41097 0.40193 0.0
C580 C 0.69346 0.47536 0.4119 0.0
C581 C 0.24306 0.67433 0.58185 0.0
C582 C 0.29949 0.7348 0.59553 0.0
C583 C 0.23658 0.60008 0.58144 0.0
C584 C 0.28568 0.58277 0.59479 0.0
H585 H 0.20359 0.68439 0.5714 0.0
H586 H 0.19376 0.55656 0.57016 0.0
S587 S 0.4355 0.71755 0.6361 0.0
N588 N 0.39996 0.76981 0.62478 0.0
N589 N 0.38824 0.63108 0.62351 0.0
C590 C 0.34 0.64186 0.60927 0.0
C591 C 0.34675 0.71742 0.60976 0.0
C592 C 0.59259 0.24569 0.73931 0.0
C593 C 0.57444 0.25205 0.76215 0.0
C594 C 0.66311 0.24845 0.7337 0.0
C595 C 0.71825 0.25681 0.75064 0.0
H596 H 0.55425 0.24297 0.7256 0.0
H597 H 0.67707 0.24975 0.71563 0.0
S598 S 0.69495 0.26945 0.8133 0.0
N599 N 0.6149 0.26279 0.80214 0.0
N600 N 0.74648 0.26589 0.79138 0.0
C601 C 0.69819 0.25765 0.77368 0.0
C602 C 0.62666 0.25605 0.77945 0.0
C603 C 0.45722 0.64885 0.90997 0.0
C604 C 0.48509 0.70951 0.92652 0.0
C605 C 0.38448 0.57909 0.91247 0.0
C606 C 0.33607 0.56752 0.9315 0.0
H607 H 0.49026 0.65629 0.89446 0.0
H608 H 0.3655 0.53467 0.89923 0.0
S609 S 0.38374 0.70428 0.98067 0.0
N610 N 0.45948 0.75059 0.96316 0.0
N611 N 0.32371 0.62009 0.96809 0.0
C612 C 0.3642 0.62651 0.94852 0.0
C613 C 0.43814 0.6973 0.94594 0.0
C614 C 0.69535 0.32757 0.10085 0.0
C615 C 0.75833 0.31344 0.09897 0.0
C616 C 0.70498 0.40173 0.09748 0.0
C617 C 0.77793 0.46602 0.09141 0.0
H618 H 0.63794 0.28126 0.1062 0.0
H619 H 0.65427 0.40845 0.0999 0.0
S620 S 0.96179 0.4611 0.08256 0.0
N621 N 0.89637 0.37029 0.08965 0.0
N622 N 0.91428 0.51 0.08228 0.0
C623 C 0.84098 0.45241 0.08804 0.0
C624 C 0.83121 0.37611 0.09191 0.0
C625 C 0.41659 0.69836 0.25173 0.0
C626 C 0.48047 0.77047 0.25837 0.0
C627 C 0.34141 0.68738 0.25018 0.0
C628 C 0.32561 0.7484 0.25432 0.0
H629 H 0.42402 0.64875 0.24807 0.0
H630 H 0.29518 0.63022 0.24468 0.0
S631 S 0.47229 0.95014 0.27191 0.0
N632 N 0.52337 0.90519 0.26923 0.0
N633 N 0.38059 0.88396 0.26592 0.0
C634 C 0.38828 0.82091 0.26136 0.0
C635 C 0.46602 0.8323 0.26315 0.0
loop_
_geom_bond_atom_site_label_1
_geom_bond_atom_site_label_2
_geom_bond_distance
_geom_bond_site_symmetry_2
_ccdc_geom_bond_type
Tb0 O3 2.453 . S
Tb0 O4 2.596 . S
Tb0 O5 2.374 . S
Tb0 O13 2.343 . S
Tb0 O15 2.353 . S
Tb0 O17 2.427 . S
Tb0 O18 2.513 . S
C1 O5 1.251 1_565 S
C1 O7 1.263 . S
Tb2 O4 2.343 . S
Tb2 O7 2.353 1_545 S
Tb2 O10 2.427 1_545 S
Tb2 O11 2.513 . S
Tb2 O12 2.453 . S
Tb2 O13 2.596 . S
Tb2 O14 2.374 . S
O3 Tb0 2.453 . S
O3 C19 1.245 . S
O4 Tb0 2.596 . S
O4 Tb2 2.343 . S
O4 C19 1.259 . S
O5 Tb0 2.374 . S
O5 C1 1.251 1_545 S
C6 O10 1.275 . S
C6 O11 1.246 1_565 S
O7 C1 1.263 . S
O7 Tb2 2.353 1_565 S
C8 O12 1.245 . S
C8 O13 1.259 . S
C9 O14 1.250 . S
C9 O15 1.263 . S
O10 Tb2 2.427 1_565 S
O10 C6 1.275 . S
O11 Tb2 2.513 . S
O11 C6 1.246 1_545 S
O12 Tb2 2.453 . S
O12 C8 1.245 . S
O13 Tb0 2.343 . S
O13 Tb2 2.596 . S
O13 C8 1.259 . S
O14 Tb2 2.374 . S
O14 C9 1.250 . S
O15 Tb0 2.353 . S
O15 C9 1.263 . S
C16 O17 1.275 . S
C16 O18 1.246 . S
O17 Tb0 2.427 . S
O17 C16 1.275 . S
O18 Tb0 2.513 . S
O18 C16 1.246 . S
C19 O3 1.245 . S
C19 O4 1.259 . S
Tb20 O23 2.453 . S
Tb20 O24 2.596 . S
Tb20 O25 2.374 . S
Tb20 O33 2.343 . S
Tb20 O35 2.353 . S
Tb20 O37 2.427 . S
Tb20 O38 2.513 . S
C21 O25 1.251 . S
C21 O27 1.263 . S
Tb22 O24 2.343 . S
Tb22 O27 2.353 . S
Tb22 O30 2.427 . S
Tb22 O31 2.513 . S
Tb22 O32 2.453 . S
Tb22 O33 2.596 . S
Tb22 O34 2.374 . S
O23 Tb20 2.453 . S
O23 C39 1.245 . S
O24 Tb20 2.596 . S
O24 Tb22 2.343 . S
O24 C39 1.259 . S
O25 Tb20 2.374 . S
O25 C21 1.251 . S
C26 O30 1.275 . S
C26 O31 1.246 . S
O27 C21 1.263 . S
O27 Tb22 2.353 . S
C28 O32 1.245 . S
C28 O33 1.259 . S
C29 O34 1.250 . S
C29 O35 1.263 . S
O30 Tb22 2.427 . S
O30 C26 1.275 . S
O31 Tb22 2.513 . S
O31 C26 1.246 . S
O32 Tb22 2.453 . S
O32 C28 1.245 . S
O33 Tb20 2.343 . S
O33 Tb22 2.596 . S
O33 C28 1.259 . S
O34 Tb22 2.374 . S
O34 C29 1.250 . S
O35 Tb20 2.353 . S
O35 C29 1.263 . S
C36 O37 1.275 . S
C36 O38 1.246 . S
O37 Tb20 2.427 . S
O37 C36 1.275 . S
O38 Tb20 2.513 . S
O38 C36 1.246 . S
C39 O23 1.245 . S
C39 O24 1.259 . S
Tb40 O43 2.453 . S
Tb40 O44 2.596 . S
Tb40 O45 2.374 . S
Tb40 O53 2.343 . S
Tb40 O55 2.353 . S
Tb40 O57 2.427 . S
Tb40 O58 2.513 . S
C41 O45 1.251 1_455 S
C41 O47 1.263 . S
Tb42 O44 2.343 . S
Tb42 O47 2.353 1_655 S
Tb42 O50 2.427 1_655 S
Tb42 O51 2.513 . S
Tb42 O52 2.453 . S
Tb42 O53 2.596 . S
Tb42 O54 2.374 . S
O43 Tb40 2.453 . S
O43 C59 1.245 . S
O44 Tb40 2.596 . S
O44 Tb42 2.343 . S
O44 C59 1.259 . S
O45 Tb40 2.374 . S
O45 C41 1.251 1_655 S
C46 O50 1.275 . S
C46 O51 1.246 1_455 S
O47 C41 1.263 . S
O47 Tb42 2.353 1_455 S
C48 O52 1.245 . S
C48 O53 1.259 . S
C49 O54 1.250 . S
C49 O55 1.263 . S
O50 Tb42 2.427 1_455 S
O50 C46 1.275 . S
O51 Tb42 2.513 . S
O51 C46 1.246 1_655 S
O52 Tb42 2.453 . S
O52 C48 1.245 . S
O53 Tb40 2.343 . S
O53 Tb42 2.596 . S
O53 C48 1.259 . S
O54 Tb42 2.374 . S
O54 C49 1.250 . S
O55 Tb40 2.353 . S
O55 C49 1.263 . S
C56 O57 1.275 . S
C56 O58 1.246 . S
O57 Tb40 2.427 . S
O57 C56 1.275 . S
O58 Tb40 2.513 . S
O58 C56 1.246 . S
C59 O43 1.245 . S
C59 O44 1.259 . S
Tb60 O63 2.453 . S
Tb60 O64 2.596 . S
Tb60 O65 2.374 . S
Tb60 O73 2.343 . S
Tb60 O75 2.353 . S
Tb60 O77 2.427 . S
Tb60 O78 2.513 . S
C61 O65 1.251 1_545 S
C61 O67 1.263 . S
Tb62 O64 2.343 . S
Tb62 O67 2.353 1_565 S
Tb62 O70 2.427 1_565 S
Tb62 O71 2.513 . S
Tb62 O72 2.453 . S
Tb62 O73 2.596 . S
Tb62 O74 2.374 . S
O63 Tb60 2.453 . S
O63 C79 1.245 . S
O64 Tb60 2.596 . S
O64 Tb62 2.343 . S
O64 C79 1.259 . S
O65 Tb60 2.374 . S
O65 C61 1.251 1_565 S
C66 O70 1.275 . S
C66 O71 1.246 1_545 S
O67 C61 1.263 . S
O67 Tb62 2.353 1_545 S
C68 O72 1.245 . S
C68 O73 1.259 . S
C69 O74 1.250 . S
C69 O75 1.263 . S
O70 Tb62 2.427 1_545 S
O70 C66 1.275 . S
O71 Tb62 2.513 . S
O71 C66 1.246 1_565 S
O72 Tb62 2.453 . S
O72 C68 1.245 . S
O73 Tb60 2.343 . S
O73 Tb62 2.596 . S
O73 C68 1.259 . S
O74 Tb62 2.374 . S
O74 C69 1.250 . S
O75 Tb60 2.353 . S
O75 C69 1.263 . S
C76 O77 1.275 . S
C76 O78 1.246 . S
O77 Tb60 2.427 . S
O77 C76 1.275 . S
O78 Tb60 2.513 . S
O78 C76 1.246 . S
C79 O63 1.245 . S
C79 O64 1.259 . S
Tb80 O83 2.453 . S
Tb80 O84 2.596 . S
Tb80 O85 2.374 . S
Tb80 O93 2.343 . S
Tb80 O95 2.353 . S
Tb80 O97 2.427 . S
Tb80 O98 2.513 . S
C81 O85 1.251 . S
C81 O87 1.263 . S
Tb82 O84 2.343 . S
Tb82 O87 2.353 . S
Tb82 O90 2.427 . S
Tb82 O91 2.513 . S
Tb82 O92 2.453 . S
Tb82 O93 2.596 . S
Tb82 O94 2.374 . S
O83 Tb80 2.453 . S
O83 C99 1.245 . S
O84 Tb80 2.596 . S
O84 Tb82 2.343 . S
O84 C99 1.259 . S
O85 Tb80 2.374 . S
O85 C81 1.251 . S
C86 O90 1.275 . S
C86 O91 1.246 . S
O87 C81 1.263 . S
O87 Tb82 2.353 . S
C88 O92 1.245 . S
C88 O93 1.259 . S
C89 O94 1.250 . S
C89 O95 1.263 . S
O90 Tb82 2.427 . S
O90 C86 1.275 . S
O91 Tb82 2.513 . S
O91 C86 1.246 . S
O92 Tb82 2.453 . S
O92 C88 1.245 . S
O93 Tb80 2.343 . S
O93 Tb82 2.596 . S
O93 C88 1.259 . S
O94 Tb82 2.374 . S
O94 C89 1.250 . S
O95 Tb80 2.353 . S
O95 C89 1.263 . S
C96 O97 1.275 . S
C96 O98 1.246 . S
O97 Tb80 2.427 . S
O97 C96 1.275 . S
O98 Tb80 2.513 . S
O98 C96 1.246 . S
C99 O83 1.245 . S
C99 O84 1.259 . S
Tb100 O103 2.453 . S
Tb100 O104 2.596 . S
Tb100 O105 2.374 . S
Tb100 O113 2.343 . S
Tb100 O115 2.353 . S
Tb100 O117 2.427 . S
Tb100 O118 2.513 . S
C101 O105 1.251 1_655 S
C101 O107 1.263 . S
Tb102 O104 2.343 . S
Tb102 O107 2.353 1_455 S
Tb102 O110 2.427 1_455 S
Tb102 O111 2.513 . S
Tb102 O112 2.453 . S
Tb102 O113 2.596 . S
Tb102 O114 2.374 . S
O103 Tb100 2.453 . S
O103 C119 1.245 . S
O104 Tb100 2.596 . S
O104 Tb102 2.343 . S
O104 C119 1.259 . S
O105 Tb100 2.374 . S
O105 C101 1.251 1_455 S
C106 O110 1.275 . S
C106 O111 1.246 1_655 S
O107 C101 1.263 . S
O107 Tb102 2.353 1_655 S
C108 O112 1.245 . S
C108 O113 1.259 . S
C109 O114 1.250 . S
C109 O115 1.263 . S
O110 Tb102 2.427 1_655 S
O110 C106 1.275 . S
O111 Tb102 2.513 . S
O111 C106 1.246 1_455 S
O112 Tb102 2.453 . S
O112 C108 1.245 . S
O113 Tb100 2.343 . S
O113 Tb102 2.596 . S
O113 C108 1.259 . S
O114 Tb102 2.374 . S
O114 C109 1.250 . S
O115 Tb100 2.353 . S
O115 C109 1.263 . S
C116 O117 1.275 . S
C116 O118 1.246 . S
O117 Tb100 2.427 . S
O117 C116 1.275 . S
O118 Tb100 2.513 . S
O118 C116 1.246 . S
C119 O103 1.245 . S
C119 O104 1.259 . S
Tb120 O123 2.453 . S
Tb120 O124 2.596 . S
Tb120 O125 2.374 . S
Tb120 O133 2.343 . S
Tb120 O135 2.353 . S
Tb120 O137 2.427 . S
Tb120 O138 2.513 . S
C121 O125 1.251 1_455 S
C121 O127 1.263 . S
Tb122 O124 2.343 . S
Tb122 O127 2.353 1_655 S
Tb122 O130 2.427 1_655 S
Tb122 O131 2.513 . S
Tb122 O132 2.453 . S
Tb122 O133 2.596 . S
Tb122 O134 2.374 . S
O123 Tb120 2.453 . S
O123 C139 1.245 . S
O124 Tb120 2.596 . S
O124 Tb122 2.343 . S
O124 C139 1.259 . S
O125 Tb120 2.374 . S
O125 C121 1.251 1_655 S
C126 O130 1.275 . S
C126 O131 1.246 1_455 S
O127 C121 1.263 . S
O127 Tb122 2.353 1_455 S
C128 O132 1.245 . S
C128 O133 1.259 . S
C129 O134 1.250 . S
C129 O135 1.263 . S
O130 Tb122 2.427 1_455 S
O130 C126 1.275 . S
O131 Tb122 2.513 . S
O131 C126 1.246 1_655 S
O132 Tb122 2.453 . S
O132 C128 1.245 . S
O133 Tb120 2.343 . S
O133 Tb122 2.596 . S
O133 C128 1.259 . S
O134 Tb122 2.374 . S
O134 C129 1.250 . S
O135 Tb120 2.353 . S
O135 C129 1.263 . S
C136 O137 1.275 . S
C136 O138 1.246 . S
O137 Tb120 2.427 . S
O137 C136 1.275 . S
O138 Tb120 2.513 . S
O138 C136 1.246 . S
C139 O123 1.245 . S
C139 O124 1.259 . S
Tb140 O143 2.453 . S
Tb140 O144 2.596 . S
Tb140 O145 2.374 . S
Tb140 O153 2.343 . S
Tb140 O155 2.353 . S
Tb140 O157 2.427 . S
Tb140 O158 2.513 . S
C141 O145 1.251 1_545 S
C141 O147 1.263 . S
Tb142 O144 2.343 . S
Tb142 O147 2.353 1_565 S
Tb142 O150 2.427 1_565 S
Tb142 O151 2.513 . S
Tb142 O152 2.453 . S
Tb142 O153 2.596 . S
Tb142 O154 2.374 . S
O143 Tb140 2.453 . S
O143 C159 1.245 . S
O144 Tb140 2.596 . S
O144 Tb142 2.343 . S
O144 C159 1.259 . S
O145 Tb140 2.374 . S
O145 C141 1.251 1_565 S
C146 O150 1.275 . S
C146 O151 1.246 1_545 S
O147 C141 1.263 . S
O147 Tb142 2.353 1_545 S
C148 O152 1.245 . S
C148 O153 1.259 . S
C149 O154 1.250 . S
C149 O155 1.263 . S
O150 Tb142 2.427 1_545 S
O150 C146 1.275 . S
O151 Tb142 2.513 . S
O151 C146 1.246 1_565 S
O152 Tb142 2.453 . S
O152 C148 1.245 . S
O153 Tb140 2.343 . S
O153 Tb142 2.596 . S
O153 C148 1.259 . S
O154 Tb142 2.374 . S
O154 C149 1.250 . S
O155 Tb140 2.353 . S
O155 C149 1.263 . S
C156 O157 1.275 . S
C156 O158 1.246 . S
O157 Tb140 2.427 . S
O157 C156 1.275 . S
O158 Tb140 2.513 . S
O158 C156 1.246 . S
C159 O143 1.245 . S
C159 O144 1.259 . S
Tb160 O163 2.453 . S
Tb160 O164 2.596 . S
Tb160 O165 2.374 . S
Tb160 O173 2.343 . S
Tb160 O175 2.353 . S
Tb160 O177 2.427 . S
Tb160 O178 2.513 . S
C161 O165 1.251 . S
C161 O167 1.263 . S
Tb162 O164 2.343 . S
Tb162 O167 2.353 . S
Tb162 O170 2.427 . S
Tb162 O171 2.513 . S
Tb162 O172 2.453 . S
Tb162 O173 2.596 . S
Tb162 O174 2.374 . S
O163 Tb160 2.453 . S
O163 C179 1.245 . S
O164 Tb160 2.596 . S
O164 Tb162 2.343 . S
O164 C179 1.259 . S
O165 Tb160 2.374 . S
O165 C161 1.251 . S
C166 O170 1.275 . S
C166 O171 1.246 . S
O167 C161 1.263 . S
O167 Tb162 2.353 . S
C168 O172 1.245 . S
C168 O173 1.259 . S
C169 O174 1.250 . S
C169 O175 1.263 . S
O170 Tb162 2.427 . S
O170 C166 1.275 . S
O171 Tb162 2.513 . S
O171 C166 1.246 . S
O172 Tb162 2.453 . S
O172 C168 1.245 . S
O173 Tb160 2.343 . S
O173 Tb162 2.596 . S
O173 C168 1.259 . S
O174 Tb162 2.374 . S
O174 C169 1.250 . S
O175 Tb160 2.353 . S
O175 C169 1.263 . S
C176 O177 1.275 . S
C176 O178 1.246 . S
O177 Tb160 2.427 . S
O177 C176 1.275 . S
O178 Tb160 2.513 . S
O178 C176 1.246 . S
C179 O163 1.245 . S
C179 O164 1.259 . S
Tb180 O183 2.453 . S
Tb180 O184 2.596 . S
Tb180 O185 2.374 . S
Tb180 O193 2.343 . S
Tb180 O195 2.353 . S
Tb180 O197 2.427 . S
Tb180 O198 2.513 . S
C181 O185 1.251 1_655 S
C181 O187 1.263 . S
Tb182 O184 2.343 . S
Tb182 O187 2.353 1_455 S
Tb182 O190 2.427 1_455 S
Tb182 O191 2.513 . S
Tb182 O192 2.453 . S
Tb182 O193 2.596 . S
Tb182 O194 2.374 . S
O183 Tb180 2.453 . S
O183 C199 1.245 . S
O184 Tb180 2.596 . S
O184 Tb182 2.343 . S
O184 C199 1.259 . S
O185 Tb180 2.374 . S
O185 C181 1.251 1_455 S
C186 O190 1.275 . S
C186 O191 1.246 1_655 S
O187 C181 1.263 . S
O187 Tb182 2.353 1_655 S
C188 O192 1.245 . S
C188 O193 1.259 . S
C189 O194 1.250 . S
C189 O195 1.263 . S
O190 Tb182 2.427 1_655 S
O190 C186 1.275 . S
O191 Tb182 2.513 . S
O191 C186 1.246 1_455 S
O192 Tb182 2.453 . S
O192 C188 1.245 . S
O193 Tb180 2.343 . S
O193 Tb182 2.596 . S
O193 C188 1.259 . S
O194 Tb182 2.374 . S
O194 C189 1.250 . S
O195 Tb180 2.353 . S
O195 C189 1.263 . S
C196 O197 1.275 . S
C196 O198 1.246 . S
O197 Tb180 2.427 . S
O197 C196 1.275 . S
O198 Tb180 2.513 . S
O198 C196 1.246 . S
C199 O183 1.245 . S
C199 O184 1.259 . S
Tb200 O203 2.453 . S
Tb200 O204 2.596 . S
Tb200 O205 2.374 . S
Tb200 O213 2.343 . S
Tb200 O215 2.353 . S
Tb200 O217 2.427 . S
Tb200 O218 2.513 . S
C201 O205 1.251 1_565 S
C201 O207 1.263 . S
Tb202 O204 2.343 . S
Tb202 O207 2.353 1_545 S
Tb202 O210 2.427 1_545 S
Tb202 O211 2.513 . S
Tb202 O212 2.453 . S
Tb202 O213 2.596 . S
Tb202 O214 2.374 . S
O203 Tb200 2.453 . S
O203 C219 1.245 . S
O204 Tb200 2.596 . S
O204 Tb202 2.343 . S
O204 C219 1.259 . S
O205 Tb200 2.374 . S
O205 C201 1.251 1_545 S
C206 O210 1.275 . S
C206 O211 1.246 1_565 S
O207 C201 1.263 . S
O207 Tb202 2.353 1_565 S
C208 O212 1.245 . S
C208 O213 1.259 . S
C209 O214 1.250 . S
C209 O215 1.263 . S
O210 Tb202 2.427 1_565 S
O210 C206 1.275 . S
O211 Tb202 2.513 . S
O211 C206 1.246 1_545 S
O212 Tb202 2.453 . S
O212 C208 1.245 . S
O213 Tb200 2.343 . S
O213 Tb202 2.596 . S
O213 C208 1.259 . S
O214 Tb202 2.374 . S
O214 C209 1.250 . S
O215 Tb200 2.353 . S
O215 C209 1.263 . S
C216 O217 1.275 . S
C216 O218 1.246 . S
O217 Tb200 2.427 . S
O217 C216 1.275 . S
O218 Tb200 2.513 . S
O218 C216 1.246 . S
C219 O203 1.245 . S
C219 O204 1.259 . S
Tb220 O223 2.453 . S
Tb220 O224 2.596 . S
Tb220 O225 2.374 . S
Tb220 O233 2.343 . S
Tb220 O235 2.353 . S
Tb220 O237 2.427 . S
Tb220 O238 2.513 . S
C221 O225 1.251 . S
C221 O227 1.263 . S
Tb222 O224 2.343 . S
Tb222 O227 2.353 . S
Tb222 O230 2.427 . S
Tb222 O231 2.513 . S
Tb222 O232 2.453 . S
Tb222 O233 2.596 . S
Tb222 O234 2.374 . S
O223 Tb220 2.453 . S
O223 C239 1.245 . S
O224 Tb220 2.596 . S
O224 Tb222 2.343 . S
O224 C239 1.259 . S
O225 Tb220 2.374 . S
O225 C221 1.251 . S
C226 O230 1.275 . S
C226 O231 1.246 . S
O227 C221 1.263 . S
O227 Tb222 2.353 . S
C228 O232 1.245 . S
C228 O233 1.259 . S
C229 O234 1.250 . S
C229 O235 1.263 . S
O230 Tb222 2.427 . S
O230 C226 1.275 . S
O231 Tb222 2.513 . S
O231 C226 1.246 . S
O232 Tb222 2.453 . S
O232 C228 1.245 . S
O233 Tb220 2.343 . S
O233 Tb222 2.596 . S
O233 C228 1.259 . S
O234 Tb222 2.374 . S
O234 C229 1.250 . S
O235 Tb220 2.353 . S
O235 C229 1.263 . S
C236 O237 1.275 . S
C236 O238 1.246 . S
O237 Tb220 2.427 . S
O237 C236 1.275 . S
O238 Tb220 2.513 . S
O238 C236 1.246 . S
C239 O223 1.245 . S
C239 O224 1.259 . S
C240 C241 1.369 . S
C240 C242 1.419 . S
C240 H244 0.930 . S
C241 C240 1.369 . S
C241 C250 1.429 . S
C242 C240 1.419 . S
C242 C243 1.363 . S
C242 H245 0.929 . S
C243 C242 1.363 . S
C243 C249 1.428 . S
H244 C240 0.930 . S
H245 C242 0.929 . S
S246 N247 1.613 . S
S246 N248 1.610 . S
N247 S246 1.613 . S
N247 C250 1.350 1_545 S
N248 S246 1.610 . S
N248 C249 1.351 1_545 S
C249 C243 1.428 . S
C249 N248 1.351 1_565 S
C249 C250 1.434 . S
C250 C241 1.429 . S
C250 N247 1.350 1_565 S
C250 C249 1.434 . S
C251 C252 1.369 . S
C251 C253 1.419 . S
C251 H255 0.930 . S
C252 C251 1.369 . S
C252 C261 1.429 . S
C253 C251 1.419 . S
C253 C254 1.363 . S
C253 H256 0.929 . S
C254 C253 1.363 . S
C254 C260 1.428 . S
H255 C251 0.930 . S
H256 C253 0.929 . S
S257 N258 1.613 . S
S257 N259 1.610 . S
N258 S257 1.613 . S
N258 C261 1.350 . S
N259 S257 1.610 . S
N259 C260 1.351 . S
C260 C254 1.428 . S
C260 N259 1.351 . S
C260 C261 1.434 . S
C261 C252 1.429 . S
C261 N258 1.350 . S
C261 C260 1.434 . S
C262 C263 1.369 . S
C262 C264 1.419 . S
C262 H266 0.930 . S
C263 C262 1.369 . S
C263 C272 1.429 1_455 S
C264 C262 1.419 . S
C264 C265 1.363 . S
C264 H267 0.929 . S
C265 C264 1.363 . S
C265 C271 1.428 . S
H266 C262 0.930 . S
H267 C264 0.929 . S
S268 N269 1.613 . S
S268 N270 1.610 . S
N269 S268 1.613 . S
N269 C272 1.350 . S
N270 S268 1.610 . S
N270 C271 1.351 1_655 S
C271 C265 1.428 . S
C271 N270 1.351 1_455 S
C271 C272 1.434 1_455 S
C272 C263 1.429 1_655 S
C272 N269 1.350 . S
C272 C271 1.434 1_655 S
C273 C274 1.369 . S
C273 C275 1.419 . S
C273 H277 0.930 . S
C274 C273 1.369 . S
C274 C283 1.429 . S
C275 C273 1.419 . S
C275 C276 1.363 . S
C275 H278 0.929 . S
C276 C275 1.363 . S
C276 C282 1.428 . S
H277 C273 0.930 . S
H278 C275 0.929 . S
S279 N280 1.613 1_565 S
S279 N281 1.610 . S
N280 S279 1.613 1_545 S
N280 C283 1.350 . S
N281 S279 1.610 . S
N281 C282 1.351 1_565 S
C282 C276 1.428 . S
C282 N281 1.351 1_545 S
C282 C283 1.434 . S
C283 C274 1.429 . S
C283 N280 1.350 . S
C283 C282 1.434 . S
C284 C285 1.369 . S
C284 C286 1.419 . S
C284 H288 0.930 . S
C285 C284 1.369 . S
C285 C294 1.429 . S
C286 C284 1.419 . S
C286 C287 1.363 . S
C286 H289 0.929 . S
C287 C286 1.363 . S
C287 C293 1.428 . S
H288 C284 0.930 . S
H289 C286 0.929 . S
S290 N291 1.613 . S
S290 N292 1.610 . S
N291 S290 1.613 . S
N291 C294 1.350 . S
N292 S290 1.610 . S
N292 C293 1.351 . S
C293 C287 1.428 . S
C293 N292 1.351 . S
C293 C294 1.434 . S
C294 C285 1.429 . S
C294 N291 1.350 . S
C294 C293 1.434 . S
C295 C296 1.369 . S
C295 C297 1.419 . S
C295 H299 0.930 1_655 S
C296 C295 1.369 . S
C296 C305 1.429 . S
C297 C295 1.419 . S
C297 C298 1.363 . S
C297 H300 0.929 . S
C298 C297 1.363 . S
C298 C304 1.428 . S
H299 C295 0.930 1_455 S
H300 C297 0.929 . S
S301 N302 1.613 . S
S301 N303 1.610 . S
N302 S301 1.613 . S
N302 C305 1.350 . S
N303 S301 1.610 . S
N303 C304 1.351 . S
C304 C298 1.428 . S
C304 N303 1.351 . S
C304 C305 1.434 . S
C305 C296 1.429 . S
C305 N302 1.350 . S
C305 C304 1.434 . S
C306 C307 1.369 . S
C306 C308 1.419 . S
C306 H310 0.930 1_455 S
C307 C306 1.369 . S
C307 C316 1.429 . S
C308 C306 1.419 . S
C308 C309 1.363 . S
C308 H311 0.929 1_455 S
C309 C308 1.363 . S
C309 C315 1.428 . S
H310 C306 0.930 1_655 S
H311 C308 0.929 1_655 S
S312 N313 1.613 . S
S312 N314 1.610 . S
N313 S312 1.613 . S
N313 C316 1.350 . S
N314 S312 1.610 . S
N314 C315 1.351 . S
C315 C309 1.428 . S
C315 N314 1.351 . S
C315 C316 1.434 . S
C316 C307 1.429 . S
C316 N313 1.350 . S
C316 C315 1.434 . S
C317 C318 1.369 . S
C317 C319 1.419 . S
C317 H321 0.930 . S
C318 C317 1.369 . S
C318 C327 1.429 . S
C319 C317 1.419 . S
C319 C320 1.363 . S
C319 H322 0.929 . S
C320 C319 1.363 . S
C320 C326 1.428 . S
H321 C317 0.930 . S
H322 C319 0.929 . S
S323 N324 1.613 . S
S323 N325 1.610 . S
N324 S323 1.613 . S
N324 C327 1.350 . S
N325 S323 1.610 . S
N325 C326 1.351 . S
C326 C320 1.428 . S
C326 N325 1.351 . S
C326 C327 1.434 . S
C327 C318 1.429 . S
C327 N324 1.350 . S
C327 C326 1.434 . S
C328 C329 1.369 . S
C328 C330 1.419 . S
C328 H332 0.930 . S
C329 C328 1.369 . S
C329 C338 1.429 . S
C330 C328 1.419 . S
C330 C331 1.363 . S
C330 H333 0.929 . S
C331 C330 1.363 . S
C331 C337 1.428 . S
H332 C328 0.930 . S
H333 C330 0.929 . S
S334 N335 1.613 . S
S334 N336 1.610 . S
N335 S334 1.613 . S
N335 C338 1.350 . S
N336 S334 1.610 . S
N336 C337 1.351 . S
C337 C331 1.428 . S
C337 N336 1.351 . S
C337 C338 1.434 . S
C338 C329 1.429 . S
C338 N335 1.350 . S
C338 C337 1.434 . S
C339 C340 1.369 . S
C339 C341 1.419 . S
C339 H343 0.930 . S
C340 C339 1.369 . S
C340 C349 1.429 . S
C341 C339 1.419 . S
C341 C342 1.363 . S
C341 H344 0.929 1_554 S
C342 C341 1.363 . S
C342 C348 1.428 . S
H343 C339 0.930 . S
H344 C341 0.929 1_556 S
S345 N346 1.613 1_455 S
S345 N347 1.610 . S
N346 S345 1.613 1_655 S
N346 C349 1.350 . S
N347 S345 1.610 . S
N347 C348 1.351 1_455 S
C348 C342 1.428 . S
C348 N347 1.351 1_655 S
C348 C349 1.434 . S
C349 C340 1.429 . S
C349 N346 1.350 . S
C349 C348 1.434 . S
C350 C351 1.369 . S
C350 C352 1.419 . S
C350 H354 0.930 . S
C351 C350 1.369 . S
C351 C360 1.429 . S
C352 C350 1.419 . S
C352 C353 1.363 . S
C352 H355 0.929 . S
C353 C352 1.363 . S
C353 C359 1.428 . S
H354 C350 0.930 . S
H355 C352 0.929 . S
S356 N357 1.613 . S
S356 N358 1.610 . S
N357 S356 1.613 . S
N357 C360 1.350 1_545 S
N358 S356 1.610 . S
N358 C359 1.351 1_545 S
C359 C353 1.428 . S
C359 N358 1.351 1_565 S
C359 C360 1.434 . S
C360 C351 1.429 . S
C360 N357 1.350 1_565 S
C360 C359 1.434 . S
C361 C362 1.369 . S
C361 C363 1.419 . S
C361 H365 0.930 . S
C362 C361 1.369 . S
C362 C371 1.429 . S
C363 C361 1.419 . S
C363 C364 1.363 . S
C363 H366 0.929 . S
C364 C363 1.363 . S
C364 C370 1.428 . S
H365 C361 0.930 . S
H366 C363 0.929 . S
S367 N368 1.613 . S
S367 N369 1.610 . S
N368 S367 1.613 . S
N368 C371 1.350 . S
N369 S367 1.610 . S
N369 C370 1.351 . S
C370 C364 1.428 . S
C370 N369 1.351 . S
C370 C371 1.434 . S
C371 C362 1.429 . S
C371 N368 1.350 . S
C371 C370 1.434 . S
C372 C373 1.369 . S
C372 C374 1.419 . S
C372 H376 0.930 . S
C373 C372 1.369 . S
C373 C382 1.429 . S
C374 C372 1.419 . S
C374 C375 1.363 . S
C374 H377 0.929 . S
C375 C374 1.363 . S
C375 C381 1.428 . S
H376 C372 0.930 . S
H377 C374 0.929 . S
S378 N379 1.613 . S
S378 N380 1.610 . S
N379 S378 1.613 . S
N379 C382 1.350 . S
N380 S378 1.610 . S
N380 C381 1.351 . S
C381 C375 1.428 . S
C381 N380 1.351 . S
C381 C382 1.434 . S
C382 C373 1.429 . S
C382 N379 1.350 . S
C382 C381 1.434 . S
C383 C384 1.369 . S
C383 C385 1.419 . S
C383 H387 0.930 . S
C384 C383 1.369 . S
C384 C393 1.429 . S
C385 C383 1.419 . S
C385 C386 1.363 . S
C385 H388 0.929 . S
C386 C385 1.363 . S
C386 C392 1.428 . S
H387 C383 0.930 . S
H388 C385 0.929 . S
S389 N390 1.613 . S
S389 N391 1.610 . S
N390 S389 1.613 . S
N390 C393 1.350 . S
N391 S389 1.610 . S
N391 C392 1.351 . S
C392 C386 1.428 . S
C392 N391 1.351 . S
C392 C393 1.434 . S
C393 C384 1.429 . S
C393 N390 1.350 . S
C393 C392 1.434 . S
C394 C395 1.369 . S
C394 C396 1.419 . S
C394 H398 0.930 . S
C395 C394 1.369 . S
C395 C404 1.429 . S
C396 C394 1.419 . S
C396 C397 1.363 . S
C396 H399 0.929 . S
C397 C396 1.363 . S
C397 C403 1.428 . S
H398 C394 0.930 . S
H399 C396 0.929 . S
S400 N401 1.613 . S
S400 N402 1.610 . S
N401 S400 1.613 . S
N401 C404 1.350 . S
N402 S400 1.610 . S
N402 C403 1.351 . S
C403 C397 1.428 . S
C403 N402 1.351 . S
C403 C404 1.434 . S
C404 C395 1.429 . S
C404 N401 1.350 . S
C404 C403 1.434 . S
C405 C406 1.369 . S
C405 C407 1.419 . S
C405 H409 0.930 . S
C406 C405 1.369 . S
C406 C415 1.429 . S
C407 C405 1.419 . S
C407 C408 1.363 . S
C407 H410 0.929 . S
C408 C407 1.363 . S
C408 C414 1.428 . S
H409 C405 0.930 . S
H410 C407 0.929 . S
S411 N412 1.613 . S
S411 N413 1.610 . S
N412 S411 1.613 . S
N412 C415 1.350 . S
N413 S411 1.610 . S
N413 C414 1.351 . S
C414 C408 1.428 . S
C414 N413 1.351 . S
C414 C415 1.434 . S
C415 C406 1.429 . S
C415 N412 1.350 . S
C415 C414 1.434 . S
C416 C417 1.369 1_554 S
C416 C418 1.419 . S
C416 H420 0.930 . S
C417 C416 1.369 1_556 S
C417 C426 1.429 . S
C418 C416 1.419 . S
C418 C419 1.363 1_554 S
C418 H421 0.929 . S
C419 C418 1.363 1_556 S
C419 C425 1.428 . S
H420 C416 0.930 . S
H421 C418 0.929 . S
S422 N423 1.613 . S
S422 N424 1.610 . S
N423 S422 1.613 . S
N423 C426 1.350 . S
N424 S422 1.610 . S
N424 C425 1.351 . S
C425 C419 1.428 . S
C425 N424 1.351 . S
C425 C426 1.434 . S
C426 C417 1.429 . S
C426 N423 1.350 . S
C426 C425 1.434 . S
C427 C428 1.369 . S
C427 C429 1.419 . S
C427 H431 0.930 . S
C428 C427 1.369 . S
C428 C437 1.429 . S
C429 C427 1.419 . S
C429 C430 1.363 . S
C429 H432 0.929 . S
C430 C429 1.363 . S
C430 C436 1.428 . S
H431 C427 0.930 . S
H432 C429 0.929 . S
S433 N434 1.613 . S
S433 N435 1.610 . S
N434 S433 1.613 . S
N434 C437 1.350 . S
N435 S433 1.610 . S
N435 C436 1.351 . S
C436 C430 1.428 . S
C436 N435 1.351 . S
C436 C437 1.434 . S
C437 C428 1.429 . S
C437 N434 1.350 . S
C437 C436 1.434 . S
C438 C439 1.369 . S
C438 C440 1.419 . S
C438 H442 0.930 . S
C439 C438 1.369 . S
C439 C448 1.429 . S
C440 C438 1.419 . S
C440 C441 1.363 . S
C440 H443 0.929 . S
C441 C440 1.363 . S
C441 C447 1.428 . S
H442 C438 0.930 . S
H443 C440 0.929 . S
S444 N445 1.613 . S
S444 N446 1.610 . S
N445 S444 1.613 . S
N445 C448 1.350 . S
N446 S444 1.610 . S
N446 C447 1.351 . S
C447 C441 1.428 . S
C447 N446 1.351 . S
C447 C448 1.434 . S
C448 C439 1.429 . S
C448 N445 1.350 . S
C448 C447 1.434 . S
C449 C450 1.369 . S
C449 C451 1.419 . S
C449 H453 0.930 . S
C450 C449 1.369 . S
C450 C459 1.429 . S
C451 C449 1.419 . S
C451 C452 1.363 . S
C451 H454 0.929 . S
C452 C451 1.363 . S
C452 C458 1.428 . S
H453 C449 0.930 . S
H454 C451 0.929 . S
S455 N456 1.613 . S
S455 N457 1.610 . S
N456 S455 1.613 . S
N456 C459 1.350 . S
N457 S455 1.610 . S
N457 C458 1.351 . S
C458 C452 1.428 . S
C458 N457 1.351 . S
C458 C459 1.434 . S
C459 C450 1.429 . S
C459 N456 1.350 . S
C459 C458 1.434 . S
C460 C461 1.369 . S
C460 C462 1.419 . S
C460 H464 0.930 . S
C461 C460 1.369 . S
C461 C470 1.429 . S
C462 C460 1.419 . S
C462 C463 1.363 . S
C462 H465 0.929 . S
C463 C462 1.363 . S
C463 C469 1.428 . S
H464 C460 0.930 . S
H465 C462 0.929 . S
S466 N467 1.613 . S
S466 N468 1.610 . S
N467 S466 1.613 . S
N467 C470 1.350 . S
N468 S466 1.610 . S
N468 C469 1.351 . S
C469 C463 1.428 . S
C469 N468 1.351 . S
C469 C470 1.434 . S
C470 C461 1.429 . S
C470 N467 1.350 . S
C470 C469 1.434 . S
C471 C472 1.369 1_556 S
C471 C473 1.419 . S
C471 H475 0.930 . S
C472 C471 1.369 1_554 S
C472 C481 1.429 . S
C473 C471 1.419 . S
C473 C474 1.363 1_556 S
C473 H476 0.929 . S
C474 C473 1.363 1_554 S
C474 C480 1.428 . S
H475 C471 0.930 . S
H476 C473 0.929 . S
S477 N478 1.613 . S
S477 N479 1.610 . S
N478 S477 1.613 . S
N478 C481 1.350 . S
N479 S477 1.610 . S
N479 C480 1.351 . S
C480 C474 1.428 . S
C480 N479 1.351 . S
C480 C481 1.434 . S
C481 C472 1.429 . S
C481 N478 1.350 . S
C481 C480 1.434 . S
C482 C483 1.369 . S
C482 C484 1.419 . S
C482 H486 0.930 . S
C483 C482 1.369 . S
C483 C492 1.429 . S
C484 C482 1.419 . S
C484 C485 1.363 . S
C484 H487 0.929 . S
C485 C484 1.363 . S
C485 C491 1.428 . S
H486 C482 0.930 . S
H487 C484 0.929 . S
S488 N489 1.613 . S
S488 N490 1.610 . S
N489 S488 1.613 . S
N489 C492 1.350 . S
N490 S488 1.610 . S
N490 C491 1.351 . S
C491 C485 1.428 . S
C491 N490 1.351 . S
C491 C492 1.434 . S
C492 C483 1.429 . S
C492 N489 1.350 . S
C492 C491 1.434 . S
C493 C494 1.369 . S
C493 C495 1.419 . S
C493 H497 0.930 . S
C494 C493 1.369 . S
C494 C503 1.429 . S
C495 C493 1.419 . S
C495 C496 1.363 . S
C495 H498 0.929 . S
C496 C495 1.363 . S
C496 C502 1.428 . S
H497 C493 0.930 . S
H498 C495 0.929 . S
S499 N500 1.613 . S
S499 N501 1.610 . S
N500 S499 1.613 . S
N500 C503 1.350 . S
N501 S499 1.610 . S
N501 C502 1.351 . S
C502 C496 1.428 . S
C502 N501 1.351 . S
C502 C503 1.434 . S
C503 C494 1.429 . S
C503 N500 1.350 . S
C503 C502 1.434 . S
C504 C505 1.369 . S
C504 C506 1.419 . S
C504 H508 0.930 . S
C505 C504 1.369 . S
C505 C514 1.429 . S
C506 C504 1.419 . S
C506 C507 1.363 . S
C506 H509 0.929 . S
C507 C506 1.363 . S
C507 C513 1.428 . S
H508 C504 0.930 . S
H509 C506 0.929 . S
S510 N511 1.613 . S
S510 N512 1.610 . S
N511 S510 1.613 . S
N511 C514 1.350 . S
N512 S510 1.610 . S
N512 C513 1.351 . S
C513 C507 1.428 . S
C513 N512 1.351 . S
C513 C514 1.434 . S
C514 C505 1.429 . S
C514 N511 1.350 . S
C514 C513 1.434 . S
C515 C516 1.369 . S
C515 C517 1.419 . S
C515 H519 0.930 . S
C516 C515 1.369 . S
C516 C525 1.429 . S
C517 C515 1.419 . S
C517 C518 1.363 . S
C517 H520 0.929 . S
C518 C517 1.363 . S
C518 C524 1.428 . S
H519 C515 0.930 . S
H520 C517 0.929 . S
S521 N522 1.613 . S
S521 N523 1.610 . S
N522 S521 1.613 . S
N522 C525 1.350 . S
N523 S521 1.610 . S
N523 C524 1.351 . S
C524 C518 1.428 . S
C524 N523 1.351 . S
C524 C525 1.434 . S
C525 C516 1.429 . S
C525 N522 1.350 . S
C525 C524 1.434 . S
C526 C527 1.369 . S
C526 C528 1.419 . S
C526 H530 0.930 . S
C527 C526 1.369 . S
C527 C536 1.429 . S
C528 C526 1.419 . S
C528 C529 1.363 . S
C528 H531 0.929 . S
C529 C528 1.363 . S
C529 C535 1.428 . S
H530 C526 0.930 . S
H531 C528 0.929 . S
S532 N533 1.613 . S
S532 N534 1.610 . S
N533 S532 1.613 . S
N533 C536 1.350 . S
N534 S532 1.610 . S
N534 C535 1.351 . S
C535 C529 1.428 . S
C535 N534 1.351 . S
C535 C536 1.434 . S
C536 C527 1.429 . S
C536 N533 1.350 . S
C536 C535 1.434 . S
C537 C538 1.369 . S
C537 C539 1.419 . S
C537 H541 0.930 . S
C538 C537 1.369 . S
C538 C547 1.429 . S
C539 C537 1.419 . S
C539 C540 1.363 . S
C539 H542 0.929 . S
C540 C539 1.363 . S
C540 C546 1.428 . S
H541 C537 0.930 . S
H542 C539 0.929 . S
S543 N544 1.613 . S
S543 N545 1.610 . S
N544 S543 1.613 . S
N544 C547 1.350 . S
N545 S543 1.610 . S
N545 C546 1.351 . S
C546 C540 1.428 . S
C546 N545 1.351 . S
C546 C547 1.434 . S
C547 C538 1.429 . S
C547 N544 1.350 . S
C547 C546 1.434 . S
C548 C549 1.369 . S
C548 C550 1.419 . S
C548 H552 0.930 . S
C549 C548 1.369 . S
C549 C558 1.429 . S
C550 C548 1.419 . S
C550 C551 1.363 . S
C550 H553 0.929 . S
C551 C550 1.363 . S
C551 C557 1.428 . S
H552 C548 0.930 . S
H553 C550 0.929 . S
S554 N555 1.613 . S
S554 N556 1.610 . S
N555 S554 1.613 . S
N555 C558 1.350 . S
N556 S554 1.610 . S
N556 C557 1.351 . S
C557 C551 1.428 . S
C557 N556 1.351 . S
C557 C558 1.434 . S
C558 C549 1.429 . S
C558 N555 1.350 . S
C558 C557 1.434 . S
C559 C560 1.369 . S
C559 C561 1.419 . S
C559 H563 0.930 . S
C560 C559 1.369 . S
C560 C569 1.429 . S
C561 C559 1.419 . S
C561 C562 1.363 . S
C561 H564 0.929 . S
C562 C561 1.363 . S
C562 C568 1.428 . S
H563 C559 0.930 . S
H564 C561 0.929 . S
S565 N566 1.613 . S
S565 N567 1.610 . S
N566 S565 1.613 . S
N566 C569 1.350 . S
N567 S565 1.610 . S
N567 C568 1.351 . S
C568 C562 1.428 . S
C568 N567 1.351 . S
C568 C569 1.434 . S
C569 C560 1.429 . S
C569 N566 1.350 . S
C569 C568 1.434 . S
C570 C571 1.369 . S
C570 C572 1.419 . S
C570 H574 0.930 . S
C571 C570 1.369 . S
C571 C580 1.429 . S
C572 C570 1.419 . S
C572 C573 1.363 . S
C572 H575 0.929 . S
C573 C572 1.363 . S
C573 C579 1.428 . S
H574 C570 0.930 . S
H575 C572 0.929 . S
S576 N577 1.613 . S
S576 N578 1.610 . S
N577 S576 1.613 . S
N577 C580 1.350 . S
N578 S576 1.610 . S
N578 C579 1.351 . S
C579 C573 1.428 . S
C579 N578 1.351 . S
C579 C580 1.434 . S
C580 C571 1.429 . S
C580 N577 1.350 . S
C580 C579 1.434 . S
C581 C582 1.369 . S
C581 C583 1.419 . S
C581 H585 0.930 . S
C582 C581 1.369 . S
C582 C591 1.429 . S
C583 C581 1.419 . S
C583 C584 1.363 . S
C583 H586 0.929 . S
C584 C583 1.363 . S
C584 C590 1.428 . S
H585 C581 0.930 . S
H586 C583 0.929 . S
S587 N588 1.613 . S
S587 N589 1.610 . S
N588 S587 1.613 . S
N588 C591 1.350 . S
N589 S587 1.610 . S
N589 C590 1.351 . S
C590 C584 1.428 . S
C590 N589 1.351 . S
C590 C591 1.434 . S
C591 C582 1.429 . S
C591 N588 1.350 . S
C591 C590 1.434 . S
C592 C593 1.369 . S
C592 C594 1.419 . S
C592 H596 0.930 . S
C593 C592 1.369 . S
C593 C602 1.429 . S
C594 C592 1.419 . S
C594 C595 1.363 . S
C594 H597 0.929 . S
C595 C594 1.363 . S
C595 C601 1.428 . S
H596 C592 0.930 . S
H597 C594 0.929 . S
S598 N599 1.613 . S
S598 N600 1.610 . S
N599 S598 1.613 . S
N599 C602 1.350 . S
N600 S598 1.610 . S
N600 C601 1.351 . S
C601 C595 1.428 . S
C601 N600 1.351 . S
C601 C602 1.434 . S
C602 C593 1.429 . S
C602 N599 1.350 . S
C602 C601 1.434 . S
C603 C604 1.369 . S
C603 C605 1.419 . S
C603 H607 0.930 . S
C604 C603 1.369 . S
C604 C613 1.429 . S
C605 C603 1.419 . S
C605 C606 1.363 . S
C605 H608 0.929 . S
C606 C605 1.363 . S
C606 C612 1.428 . S
H607 C603 0.930 . S
H608 C605 0.929 . S
S609 N610 1.613 . S
S609 N611 1.610 . S
N610 S609 1.613 . S
N610 C613 1.350 . S
N611 S609 1.610 . S
N611 C612 1.351 . S
C612 C606 1.428 . S
C612 N611 1.351 . S
C612 C613 1.434 . S
C613 C604 1.429 . S
C613 N610 1.350 . S
C613 C612 1.434 . S
C614 C615 1.369 . S
C614 C616 1.419 . S
C614 H618 0.930 . S
C615 C614 1.369 . S
C615 C624 1.429 . S
C616 C614 1.419 . S
C616 C617 1.363 . S
C616 H619 0.929 . S
C617 C616 1.363 . S
C617 C623 1.428 . S
H618 C614 0.930 . S
H619 C616 0.929 . S
S620 N621 1.613 . S
S620 N622 1.610 . S
N621 S620 1.613 . S
N621 C624 1.350 . S
N622 S620 1.610 . S
N622 C623 1.351 . S
C623 C617 1.428 . S
C623 N622 1.351 . S
C623 C624 1.434 . S
C624 C615 1.429 . S
C624 N621 1.350 . S
C624 C623 1.434 . S
C625 C626 1.369 . S
C625 C627 1.419 . S
C625 H629 0.930 . S
C626 C625 1.369 . S
C626 C635 1.429 . S
C627 C625 1.419 . S
C627 C628 1.363 . S
C627 H630 0.929 . S
C628 C627 1.363 . S
C628 C634 1.428 . S
H629 C625 0.930 . S
H630 C627 0.929 . S
S631 N632 1.613 . S
S631 N633 1.610 . S
N632 S631 1.613 . S
N632 C635 1.350 . S
N633 S631 1.610 . S
N633 C634 1.351 . S
C634 C628 1.428 . S
C634 N633 1.351 . S
C634 C635 1.434 . S
C635 C626 1.429 . S
C635 N632 1.350 . S
C635 C634 1.434 . S
C241 C116 1.747 . S
C243 C19 1.699 1_565 S
C252 C39 1.705 . S
C254 C16 1.742 . S
C263 C59 1.696 1_455 S
C265 C36 1.745 . S
C274 C56 1.747 . S
C276 C79 1.700 1_545 S
C285 C76 1.745 . S
C287 C99 1.703 1_556 S
C296 C119 1.705 1_655 S
C298 C96 1.744 . S
C307 C156 1.739 . S
C309 C139 1.703 1_455 S
C318 C159 1.700 1_545 S
C320 C176 1.746 . S
C329 C196 1.746 . S
C331 C179 1.702 . S
C340 C216 1.747 . S
C342 C199 1.700 1_654 S
C351 C236 1.744 . S
C353 C219 1.697 1_565 S
C362 C136 1.741 . S
C364 C239 1.698 . S
C373 C229 1.409 . S
C375 C6 1.413 . S
C384 C26 1.411 . S
C386 C129 1.412 . S
C395 C149 1.416 . S
C397 C46 1.419 . S
C406 C169 1.408 . S
C408 C66 1.415 . S
C417 C189 1.410 . S
C419 C86 1.418 1_556 S
C428 C106 1.419 . S
C430 C209 1.417 . S
C439 C126 1.411 . S
C441 C29 1.415 . S
C450 C146 1.411 . S
C452 C49 1.412 . S
C461 C69 1.416 . S
C463 C166 1.412 . S
C472 C89 1.412 . S
C474 C186 1.419 1_554 S
C483 C206 1.415 . S
C485 C109 1.409 . S
C494 C226 1.420 . S
C496 C9 1.415 . S
C505 C121 1.761 . S
C507 C1 1.763 . S
C516 C21 1.762 . S
C518 C141 1.763 . S
C527 C161 1.757 . S
C529 C41 1.759 . S
C538 C61 1.760 . S
C540 C181 1.762 . S
C549 C201 1.760 . S
C551 C81 1.758 . S
C560 C221 1.758 . S
C562 C101 1.760 . S
C571 C128 1.773 . S
C573 C8 1.766 . S
C582 C148 1.764 . S
C584 C28 1.772 . S
C593 C168 1.764 . S
C595 C48 1.772 . S
C604 C68 1.774 . S
C606 C188 1.770 . S
C615 C208 1.767 . S
C617 C88 1.773 . S
C626 C228 1.772 . S
C628 C108 1.772 . S
