# Generated by pormake.
# Topology msp, (4)-cn, num edge types: 1
# Building blocks:
#     Node 0, Type 0, BuildingBlock: GALJAG_clean_sbu_0, # of connection points: 4
#     Node 1, Type 0, BuildingBlock: GALJAG_clean_sbu_0, # of connection points: 4
#     Node 2, Type 0, BuildingBlock: GALJAG_clean_sbu_0, # of connection points: 4
#     Node 3, Type 0, BuildingBlock: GALJAG_clean_sbu_0, # of connection points: 4
#     Node 4, Type 0, BuildingBlock: GALJAG_clean_sbu_0, # of connection points: 4
#     Node 5, Type 0, BuildingBlock: GALJAG_clean_sbu_0, # of connection points: 4
#     Node 6, Type 0, BuildingBlock: GALJAG_clean_sbu_0, # of connection points: 4
#     Node 7, Type 0, BuildingBlock: GALJAG_clean_sbu_0, # of connection points: 4
#     Edge 8, Type (0, 0), BuildingBlock: XIVTED_clean_linker_0, # of connection points: 2
#     Edge 9, Type (0, 0), BuildingBlock: XIVTED_clean_linker_0, # of connection points: 2
#     Edge 10, Type (0, 0), BuildingBlock: XIVTED_clean_linker_0, # of connection points: 2
#     Edge 11, Type (0, 0), BuildingBlock: XIVTED_clean_linker_0, # of connection points: 2
#     Edge 12, Type (0, 0), BuildingBlock: XIVTED_clean_linker_0, # of connection points: 2
#     Edge 13, Type (0, 0), BuildingBlock: XIVTED_clean_linker_0, # of connection points: 2
#     Edge 14, Type (0, 0), BuildingBlock: XIVTED_clean_linker_0, # of connection points: 2
#     Edge 15, Type (0, 0), BuildingBlock: XIVTED_clean_linker_0, # of connection points: 2
#     Edge 16, Type (0, 0), BuildingBlock: XIVTED_clean_linker_0, # of connection points: 2
#     Edge 17, Type (0, 0), BuildingBlock: XIVTED_clean_linker_0, # of connection points: 2
#     Edge 18, Type (0, 0), BuildingBlock: XIVTED_clean_linker_0, # of connection points: 2
#     Edge 19, Type (0, 0), BuildingBlock: XIVTED_clean_linker_0, # of connection points: 2
#     Edge 20, Type (0, 0), BuildingBlock: XIVTED_clean_linker_0, # of connection points: 2
#     Edge 21, Type (0, 0), BuildingBlock: XIVTED_clean_linker_0, # of connection points: 2
#     Edge 22, Type (0, 0), BuildingBlock: XIVTED_clean_linker_0, # of connection points: 2
#     Edge 23, Type (0, 0), BuildingBlock: XIVTED_clean_linker_0, # of connection points: 2
# Relax obj value: 0.108
# Max RMSD: 0.183
# Mean RMSD: 0.183
data_MOF--net-msp--node1-GALJAG_clean_sbu_0--edge1-XIVTED_clean_linker_0
_symmetry_space_group_name_H-M    P1
_symmetry_Int_Tables_number       1
_symmetry_cell_setting            triclinic
loop_
_symmetry_equiv_pos_as_xyz
'x, y, z'
_cell_length_a     21.743634
_cell_length_b     21.296933
_cell_length_c     43.791328
_cell_angle_alpha  89.986881
_cell_angle_beta   99.594762
_cell_angle_gamma 89.96728
loop_
_atom_site_label
_atom_site_type_symbol
_atom_site_fract_x
_atom_site_fract_y
_atom_site_fract_z
_atom_type_partial_charge
In0 In 0.03652 0.25425 0.37226 0.0
O1 O 0.94819 0.20376 0.34878 0.0
O2 O 0.95682 0.30192 0.34121 0.0
C3 C 0.10283 0.16615 0.40761 0.0
C4 C 0.10409 0.25868 0.32642 0.0
C5 C 0.02396 0.34084 0.41583 0.0
O6 O 0.0438 0.16568 0.40292 0.0
O7 O 0.12701 0.21023 0.39457 0.0
O8 O 0.05716 0.3503 0.39516 0.0
O9 O -0.00268 0.28806 0.41438 0.0
C10 C 0.92489 0.25275 0.3351 0.0
O11 O 0.10453 0.30314 0.34568 0.0
O12 O 0.06936 0.21288 0.33034 0.0
In13 In 0.45715 0.25225 0.62079 0.0
O14 O 0.54507 0.2019 0.64484 0.0
O15 O 0.53465 0.2994 0.65355 0.0
C16 C 0.39371 0.16446 0.58409 0.0
C17 C 0.38654 0.25397 0.66542 0.0
C18 C 0.47131 0.34025 0.57809 0.0
O19 O 0.45272 0.16491 0.58941 0.0
O20 O 0.36812 0.20751 0.59718 0.0
O21 O 0.4362 0.34855 0.59804 0.0
O22 O 0.4991 0.28804 0.57989 0.0
C23 C 0.567 0.25038 0.65945 0.0
O24 O 0.38699 0.29939 0.64676 0.0
O25 O 0.42189 0.20863 0.66152 0.0
In26 In 0.95308 0.74223 0.62297 0.0
O27 O 0.88382 0.69448 0.64925 0.0
O28 O 0.9192 0.78481 0.66432 0.0
C29 C 0.96666 0.65488 0.5799 0.0
C30 C 0.06398 0.74436 0.66073 0.0
C31 C 0.88783 0.83015 0.58706 0.0
O32 O 0.93315 0.64568 0.60047 0.0
O33 O 0.9931 0.70776 0.58123 0.0
O34 O 0.94685 0.83059 0.59222 0.0
O35 O 0.86311 0.78605 0.59984 0.0
C36 C 0.88392 0.73945 0.66819 0.0
O37 O 0.04104 0.79298 0.64657 0.0
O38 O 0.03207 0.69512 0.65482 0.0
In39 In 0.53595 0.74951 0.37339 0.0
O40 O 0.44847 0.8005 0.3493 0.0
O41 O 0.45764 0.70271 0.34096 0.0
C42 C 0.59947 0.83761 0.40989 0.0
C43 C 0.60648 0.7461 0.32873 0.0
C44 C 0.52201 0.66188 0.41631 0.0
O45 O 0.54047 0.8368 0.40479 0.0
O46 O 0.62504 0.79483 0.39663 0.0
O47 O 0.55695 0.65339 0.39631 0.0
O48 O 0.49424 0.7141 0.41445 0.0
C49 C 0.42583 0.75203 0.33495 0.0
O50 O 0.60569 0.70114 0.34761 0.0
O51 O 0.57149 0.79187 0.33242 0.0
In52 In 0.53579 0.76012 0.87331 0.0
O53 O 0.60519 0.80834 0.84725 0.0
O54 O 0.56975 0.71816 0.83189 0.0
C55 C 0.52171 0.8468 0.91663 0.0
C56 C 0.42532 0.75816 0.83522 0.0
C57 C 0.60133 0.6717 0.90876 0.0
O58 O 0.55587 0.85617 0.89636 0.0
O59 O 0.49491 0.79408 0.9149 0.0
O60 O 0.54231 0.67156 0.90403 0.0
O61 O 0.62583 0.7158 0.89589 0.0
C62 C 0.60513 0.76356 0.82819 0.0
O63 O 0.44797 0.70952 0.84947 0.0
O64 O 0.45725 0.80736 0.84123 0.0
In65 In 0.95309 0.75982 0.12263 0.0
O66 O 0.04084 0.70858 0.14624 0.0
O67 O 0.03153 0.80621 0.15504 0.0
C68 C 0.88695 0.6731 0.08639 0.0
C69 C 0.8834 0.76341 0.16766 0.0
C70 C 0.96842 0.84672 0.0796 0.0
O71 O 0.94589 0.67055 0.09247 0.0
O72 O 0.86288 0.7186 0.09848 0.0
O73 O 0.93386 0.85605 0.09969 0.0
O74 O 0.99518 0.79394 0.08139 0.0
C75 C 0.06349 0.7569 0.16075 0.0
O76 O 0.8846 0.80868 0.149 0.0
O77 O 0.9176 0.71724 0.16358 0.0
In78 In 0.4538 0.25428 0.12159 0.0
O79 O 0.38314 0.20653 0.147 0.0
O80 O 0.41825 0.29677 0.16248 0.0
C81 C 0.46787 0.16693 0.07858 0.0
C82 C 0.56337 0.25528 0.16049 0.0
C83 C 0.39123 0.34308 0.08511 0.0
O84 O 0.43252 0.15844 0.0984 0.0
O85 O 0.49587 0.219 0.08064 0.0
O86 O 0.45022 0.34132 0.09003 0.0
O87 O 0.3652 0.30089 0.09852 0.0
C88 C 0.38267 0.2514 0.16597 0.0
O89 O 0.54132 0.30422 0.14631 0.0
O90 O 0.5313 0.2063 0.15404 0.0
In91 In 0.03996 0.24601 0.87151 0.0
O92 O 0.10847 0.19764 0.84498 0.0
O93 O 0.07296 0.28795 0.8298 0.0
C94 C 0.0272 0.15915 0.91498 0.0
C95 C 0.92879 0.2478 0.83395 0.0
C96 C 0.10517 0.33472 0.90688 0.0
O97 O 0.06154 0.15023 0.89475 0.0
O98 O -0.00044 0.21145 0.91312 0.0
O99 O 0.04616 0.33427 0.90232 0.0
O100 O 0.12994 0.29113 0.89378 0.0
C101 C 0.10796 0.24236 0.82584 0.0
O102 O 0.95154 0.29645 0.84812 0.0
O103 O 0.96103 0.19869 0.83976 0.0
H104 H 0.07501 0.45853 0.42382 0.0
H105 H 0.91608 0.53692 0.57216 0.0
H106 H 0.95581 0.3296 0.46262 0.0
H107 H 0.03532 0.66573 0.53332 0.0
H108 H 0.93018 0.46014 0.53229 0.0
H109 H 0.0613 0.53504 0.46385 0.0
C110 C 0.04598 0.44633 0.44077 0.0
C111 C 0.01648 0.38767 0.43988 0.0
C112 C 0.95328 0.5052 0.53249 0.0
C113 C 0.00052 0.4749 0.48577 0.0
C114 C 0.94522 0.54902 0.55525 0.0
C115 C 0.97457 0.60776 0.55605 0.0
C116 C 0.99095 0.52023 0.51036 0.0
C117 C 0.01183 0.62098 0.53357 0.0
C118 C 0.03814 0.49001 0.46362 0.0
C119 C 0.97939 0.37432 0.46242 0.0
N120 N 0.01893 0.5776 0.51166 0.0
N121 N 0.97246 0.41757 0.48442 0.0
H122 H 0.44967 0.67106 0.46146 0.0
H123 H 0.54403 0.33141 0.53311 0.0
H124 H 0.57643 0.54574 0.42562 0.0
H125 H 0.41691 0.45645 0.56885 0.0
H126 H 0.55666 0.40938 0.4937 0.0
H127 H 0.4372 0.59324 0.50097 0.0
C128 C 0.47488 0.62709 0.46189 0.0
C129 C 0.51413 0.61481 0.4402 0.0
C130 C 0.526 0.41986 0.51015 0.0
C131 C 0.5001 0.52542 0.48544 0.0
C132 C 0.51877 0.37535 0.53268 0.0
C133 C 0.47935 0.38749 0.55431 0.0
C134 C 0.49357 0.47707 0.50918 0.0
C135 C 0.44778 0.44518 0.55263 0.0
C136 C 0.46774 0.58267 0.48448 0.0
C137 C 0.54567 0.55711 0.44189 0.0
N138 N 0.45557 0.48782 0.53045 0.0
N139 N 0.53797 0.51456 0.46412 0.0
H140 H 0.54063 0.17657 0.03366 0.0
H141 H 0.45002 0.83631 0.962 0.0
H142 H 0.41392 0.05062 0.06905 0.0
H143 H 0.57446 0.96362 0.92583 0.0
H144 H 0.4366 0.91384 0.0015 0.0
H145 H 0.55396 0.09898 0.99421 0.0
C146 C 0.5156 0.13252 0.03313 0.0
C147 C 0.4761 0.12 0.05469 0.0
C148 C 0.46684 0.9249 0.98494 0.0
C149 C 0.49116 0.03083 0.00951 0.0
C150 C 0.47454 0.88064 0.96237 0.0
C151 C 0.51342 0.89357 0.94058 0.0
C152 C 0.49828 0.98263 0.98579 0.0
C153 C 0.54403 0.95174 0.94217 0.0
C154 C 0.52323 0.08822 0.01058 0.0
C155 C 0.44483 0.06218 0.05289 0.0
N156 N 0.53581 0.99411 0.96439 0.0
N157 N 0.45304 0.01972 0.0307 0.0
H158 H 0.91474 0.96302 0.07007 0.0
H159 H 0.08197 0.04321 0.92464 0.0
H160 H 0.04125 0.83681 0.03463 0.0
H161 H 0.95503 0.16879 0.96017 0.0
H162 H 0.0681 0.96698 0.96483 0.0
H163 H 0.92922 0.0392 0.03003 0.0
C164 C 0.94561 0.95138 0.05388 0.0
C165 C 0.97685 0.89353 0.05569 0.0
C166 C 0.04326 0.01121 0.96383 0.0
C167 C 0.99368 0.98043 0.00977 0.0
C168 C 0.05118 0.05471 0.94089 0.0
C169 C 0.01958 0.11237 0.93905 0.0
C170 C 0.00343 0.02549 0.98509 0.0
C171 C 0.9803 0.12488 0.96072 0.0
C172 C 0.95387 0.99487 0.03101 0.0
C173 C 0.01625 0.88088 0.03408 0.0
N174 N 0.97334 0.08184 0.98281 0.0
N175 N 0.02353 0.92394 0.01204 0.0
H176 H 0.63488 0.35592 0.18351 0.0
H177 H 0.85321 0.15184 0.31247 0.0
H178 H 0.61745 0.1554 0.19347 0.0
H179 H 0.86843 0.35276 0.30325 0.0
H180 H 0.76551 0.15215 0.26937 0.0
H181 H 0.72144 0.35561 0.22713 0.0
C182 C 0.64966 0.31179 0.1947 0.0
C183 C 0.61907 0.25563 0.18488 0.0
C184 C 0.78786 0.19621 0.27689 0.0
C185 C 0.71739 0.25488 0.23493 0.0
C186 C 0.83767 0.19604 0.30158 0.0
C187 C 0.86809 0.25231 0.31139 0.0
C188 C 0.76854 0.25305 0.26193 0.0
C189 C 0.84631 0.30826 0.29639 0.0
C190 C 0.69881 0.31163 0.21969 0.0
C191 C 0.63981 0.1998 0.2003 0.0
N192 N 0.79805 0.30718 0.27235 0.0
N193 N 0.68757 0.20086 0.2246 0.0
H194 H 0.63985 0.14948 0.68095 0.0
H195 H 0.85583 0.34879 0.81265 0.0
H196 H 0.62023 0.349 0.69367 0.0
H197 H 0.87415 0.14895 0.80044 0.0
H198 H 0.76827 0.34975 0.76951 0.0
H199 H 0.72674 0.14843 0.7244 0.0
C200 C 0.65421 0.19311 0.69271 0.0
C201 C 0.62289 0.24937 0.68371 0.0
C202 C 0.79128 0.30564 0.77637 0.0
C203 C 0.72158 0.24854 0.73359 0.0
C204 C 0.84102 0.30507 0.80108 0.0
C205 C 0.87223 0.24875 0.81009 0.0
C206 C 0.77282 0.24949 0.76057 0.0
C207 C 0.85137 0.19346 0.79424 0.0
C208 C 0.70356 0.19248 0.71761 0.0
C209 C 0.64314 0.30455 0.69984 0.0
N210 N 0.80314 0.19526 0.77019 0.0
N211 N 0.69108 0.30271 0.72404 0.0
H212 H 0.12071 0.64509 0.69316 0.0
H213 H 0.36944 0.85738 0.80239 0.0
H214 H 0.13441 0.84602 0.68338 0.0
H215 H 0.35479 0.65662 0.81252 0.0
H216 H 0.28297 0.85427 0.75905 0.0
H217 H 0.20755 0.6482 0.7363 0.0
C218 C 0.1424 0.68986 0.69994 0.0
C219 C 0.12034 0.74544 0.68469 0.0
C220 C 0.29841 0.8109 0.7708 0.0
C221 C 0.21937 0.74941 0.73433 0.0
C222 C 0.34762 0.81265 0.79564 0.0
C223 C 0.36927 0.75712 0.81106 0.0
C224 C 0.27066 0.75315 0.76121 0.0
C225 C 0.33941 0.70053 0.80131 0.0
C226 C 0.19182 0.69162 0.72467 0.0
C227 C 0.15008 0.80208 0.69447 0.0
N228 N 0.29172 0.69996 0.7769 0.0
N229 N 0.19797 0.80265 0.71878 0.0
H230 H 0.35362 0.85338 0.31353 0.0
H231 H 0.13574 0.65537 0.182 0.0
H232 H 0.37142 0.65358 0.301 0.0
H233 H 0.11831 0.8552 0.1946 0.0
H234 H 0.22325 0.65377 0.22518 0.0
H235 H 0.26633 0.85487 0.27029 0.0
C236 C 0.33878 0.80979 0.30185 0.0
C237 C 0.36971 0.75332 0.31083 0.0
C238 C 0.20042 0.69801 0.2184 0.0
C239 C 0.27055 0.75464 0.26119 0.0
C240 C 0.15072 0.69894 0.19367 0.0
C241 C 0.11981 0.75546 0.18475 0.0
C242 C 0.21917 0.75399 0.23429 0.0
C243 C 0.14086 0.81055 0.20074 0.0
C244 C 0.28919 0.81065 0.27708 0.0
C245 C 0.34882 0.69819 0.29483 0.0
N246 N 0.18908 0.8084 0.22478 0.0
N247 N 0.30068 0.70026 0.27073 0.0
H248 H 0.37512 0.34282 0.20868 0.0
H249 H 0.10946 0.16843 0.28284 0.0
H250 H 0.29798 0.16283 0.17738 0.0
H251 H 0.1875 0.34792 0.31439 0.0
H252 H 0.17697 0.16624 0.24358 0.0
H253 H 0.30627 0.34577 0.2473 0.0
C254 C 0.34373 0.30379 0.20999 0.0
C255 C 0.34223 0.25242 0.18983 0.0
C256 C 0.17931 0.20619 0.25902 0.0
C257 C 0.26311 0.25562 0.23394 0.0
C258 C 0.14072 0.20753 0.28142 0.0
C259 C 0.14301 0.25845 0.3019 0.0
C260 C 0.22059 0.25611 0.25709 0.0
C261 C 0.1843 0.30779 0.29904 0.0
C262 C 0.30436 0.30557 0.23203 0.0
C263 C 0.30065 0.20325 0.19253 0.0
N264 N 0.2216 0.30533 0.27706 0.0
N265 N 0.26265 0.20608 0.21419 0.0
H266 H 0.37953 0.16166 0.70778 0.0
H267 H 0.11292 0.33322 0.78253 0.0
H268 H 0.30176 0.34203 0.67737 0.0
H269 H 0.19215 0.15385 0.81368 0.0
H270 H 0.18056 0.33649 0.74337 0.0
H271 H 0.31083 0.15765 0.74646 0.0
C272 C 0.34804 0.20054 0.70931 0.0
C273 C 0.34631 0.25233 0.68937 0.0
C274 C 0.18315 0.29634 0.75871 0.0
C275 C 0.26735 0.24791 0.73353 0.0
C276 C 0.14447 0.29437 0.78105 0.0
C277 C 0.14704 0.24317 0.80139 0.0
C278 C 0.22481 0.24675 0.75667 0.0
C279 C 0.18872 0.19418 0.79844 0.0
C280 C 0.30876 0.19816 0.73138 0.0
C281 C 0.30462 0.3013 0.69233 0.0
N282 N 0.2261 0.19723 0.77651 0.0
N283 N 0.2667 0.29786 0.71401 0.0
H284 H 0.69039 0.85148 0.81671 0.0
H285 H 0.79918 0.6514 0.68002 0.0
H286 H 0.61165 0.67212 0.7854 0.0
H287 H 0.87739 0.83124 0.71086 0.0
H288 H 0.73053 0.65767 0.71888 0.0
H289 H 0.75933 0.84523 0.77795 0.0
C290 C 0.68746 0.81096 0.80159 0.0
C291 C 0.64533 0.76228 0.80422 0.0
C292 C 0.7628 0.69571 0.71718 0.0
C293 C 0.72403 0.75455 0.76003 0.0
C294 C 0.80205 0.69204 0.69506 0.0
C295 C 0.84392 0.74086 0.69225 0.0
C296 C 0.76553 0.7486 0.73658 0.0
C297 C 0.84571 0.79254 0.71225 0.0
C298 C 0.72687 0.8073 0.77953 0.0
C299 C 0.64349 0.71073 0.78414 0.0
N300 N 0.807 0.7951 0.73354 0.0
N301 N 0.68234 0.70818 0.76292 0.0
H302 H 0.80049 0.85324 0.17968 0.0
H303 H 0.69037 0.6568 0.31718 0.0
H304 H 0.87527 0.67183 0.21026 0.0
H305 H 0.61442 0.83743 0.28599 0.0
H306 H 0.75873 0.66134 0.27813 0.0
H307 H 0.73244 0.84883 0.21887 0.0
C308 C 0.80272 0.81263 0.19472 0.0
C309 C 0.84348 0.76285 0.19176 0.0
C310 C 0.72703 0.69994 0.2798 0.0
C311 C 0.76581 0.75727 0.23649 0.0
C312 C 0.68797 0.69727 0.30204 0.0
C313 C 0.64675 0.74678 0.30478 0.0
C314 C 0.72477 0.75251 0.26021 0.0
C315 C 0.64557 0.79821 0.28465 0.0
C316 C 0.76383 0.81003 0.21704 0.0
C317 C 0.84445 0.71125 0.21177 0.0
N318 N 0.68405 0.79977 0.26324 0.0
N319 N 0.80615 0.70977 0.23326 0.0
H320 H 0.42761 0.11029 0.53264 0.0
H321 H 0.07103 0.10648 0.45819 0.0
H322 H 0.27388 0.12799 0.58279 0.0
H323 H 0.22392 0.13451 0.40837 0.0
H324 H 0.14521 0.06845 0.50274 0.0
H325 H 0.35471 0.07325 0.4874 0.0
C326 C 0.3789 0.10416 0.53447 0.0
C327 C 0.35619 0.12371 0.56103 0.0
C328 C 0.16227 0.08112 0.4817 0.0
C329 C 0.27289 0.0824 0.50963 0.0
C330 C 0.1199 0.10249 0.45626 0.0
C331 C 0.14186 0.12521 0.43005 0.0
C332 C 0.22662 0.08276 0.4807 0.0
C333 C 0.20549 0.11883 0.42857 0.0
C334 C 0.33726 0.08337 0.50864 0.0
C335 C 0.29281 0.11474 0.56235 0.0
N336 N 0.24588 0.09941 0.45381 0.0
N337 N 0.25309 0.09593 0.53677 0.0
H338 H 0.92107 0.89043 0.53697 0.0
H339 H 0.56524 0.89147 0.46132 0.0
H340 H 0.76678 0.86237 0.58584 0.0
H341 H 0.7196 0.87363 0.4116 0.0
H342 H 0.63792 0.92712 0.50692 0.0
H343 H 0.84795 0.93022 0.49242 0.0
C344 C 0.87213 0.89473 0.5387 0.0
C345 C 0.84944 0.87156 0.56462 0.0
C346 C 0.65559 0.91729 0.48571 0.0
C347 C 0.76591 0.91609 0.514 0.0
C348 C 0.61406 0.89731 0.45966 0.0
C349 C 0.63698 0.87803 0.43312 0.0
C350 C 0.72005 0.9177 0.48494 0.0
C351 C 0.7005 0.88664 0.43203 0.0
C352 C 0.83037 0.91714 0.51327 0.0
C353 C 0.78576 0.87838 0.56586 0.0
N354 N 0.74011 0.9046 0.45781 0.0
N355 N 0.74597 0.89885 0.54063 0.0
H356 H 0.92286 0.60202 0.03998 0.0
H357 H 0.72071 0.63659 0.90796 0.0
H358 H 0.76278 0.65186 0.08118 0.0
H359 H 0.57109 0.61481 0.96038 0.0
H360 H 0.79414 0.59927 0.95195 0.0
H361 H 0.85273 0.56143 0.99472 0.0
C362 C 0.87298 0.60315 0.03974 0.0
C363 C 0.84831 0.63239 0.06369 0.0
C364 C 0.74519 0.59983 0.9538 0.0
C365 C 0.76792 0.58893 0.01171 0.0
C366 C 0.70312 0.62166 0.92854 0.0
C367 C 0.64018 0.63014 0.93092 0.0
C368 C 0.72418 0.58765 0.98189 0.0
C369 C 0.6195 0.60962 0.95783 0.0
C370 C 0.83281 0.5808 0.01371 0.0
C371 C 0.78354 0.63153 0.06264 0.0
N372 N 0.66179 0.59111 0.98268 0.0
N373 N 0.74554 0.6115 0.03677 0.0
H374 H 0.27336 0.38489 0.08487 0.0
H375 H 0.22436 0.37134 0.9062 0.0
H376 H 0.42371 0.39112 0.03207 0.0
H377 H 0.07418 0.3907 0.95852 0.0
H378 H 0.29704 0.41147 0.95028 0.0
H379 H 0.20134 0.42046 0.03945 0.0
C380 C 0.29147 0.39566 0.06386 0.0
C381 C 0.35405 0.38367 0.06184 0.0
C382 C 0.248 0.40867 0.95199 0.0
C383 C 0.27171 0.42223 0.0095 0.0
C384 C 0.20648 0.38577 0.92678 0.0
C385 C 0.14366 0.3763 0.92914 0.0
C386 C 0.22673 0.42038 0.98002 0.0
C387 C 0.12254 0.39655 0.956 0.0
C388 C 0.25032 0.41587 0.03788 0.0
C389 C 0.37551 0.39908 0.03437 0.0
N390 N 0.16439 0.41599 0.9808 0.0
N391 N 0.33397 0.41583 0.00892 0.0
loop_
_geom_bond_atom_site_label_1
_geom_bond_atom_site_label_2
_geom_bond_distance
_geom_bond_site_symmetry_2
_ccdc_geom_bond_type
In0 O1 2.294 1_455 S
In0 O2 2.326 1_455 S
In0 O6 2.266 . S
In0 O7 2.326 . S
In0 O8 2.266 . S
In0 O9 2.326 1_455 S
In0 O11 2.294 . S
In0 O12 2.326 . S
O1 In0 2.294 1_655 S
O1 C10 1.240 . S
O2 In0 2.326 1_655 S
O2 C10 1.252 . S
C3 O6 1.252 . S
C3 O7 1.260 . S
C4 O11 1.240 . S
C4 O12 1.252 . S
C5 O8 1.252 . S
C5 O9 1.260 1_455 S
O6 In0 2.266 . S
O6 C3 1.252 . S
O7 In0 2.326 . S
O7 C3 1.260 . S
O8 In0 2.266 . S
O8 C5 1.252 . S
O9 In0 2.326 1_655 S
O9 C5 1.260 1_655 S
C10 O1 1.240 . S
C10 O2 1.252 . S
O11 In0 2.294 . S
O11 C4 1.240 . S
O12 In0 2.326 . S
O12 C4 1.252 . S
In13 O14 2.294 . S
In13 O15 2.326 . S
In13 O19 2.266 . S
In13 O20 2.326 . S
In13 O21 2.266 . S
In13 O22 2.326 . S
In13 O24 2.294 . S
In13 O25 2.326 . S
O14 In13 2.294 . S
O14 C23 1.240 . S
O15 In13 2.326 . S
O15 C23 1.252 . S
C16 O19 1.252 . S
C16 O20 1.260 . S
C17 O24 1.240 . S
C17 O25 1.252 . S
C18 O21 1.252 . S
C18 O22 1.260 . S
O19 In13 2.266 . S
O19 C16 1.252 . S
O20 In13 2.326 . S
O20 C16 1.260 . S
O21 In13 2.266 . S
O21 C18 1.252 . S
O22 In13 2.326 . S
O22 C18 1.260 . S
C23 O14 1.240 . S
C23 O15 1.252 . S
O24 In13 2.294 . S
O24 C17 1.240 . S
O25 In13 2.326 . S
O25 C17 1.252 . S
In26 O27 2.294 . S
In26 O28 2.326 . S
In26 O32 2.266 . S
In26 O33 2.326 1_655 S
In26 O34 2.266 . S
In26 O35 2.326 . S
In26 O37 2.294 1_655 S
In26 O38 2.326 1_655 S
O27 In26 2.294 . S
O27 C36 1.240 . S
O28 In26 2.326 . S
O28 C36 1.252 . S
C29 O32 1.252 . S
C29 O33 1.260 1_655 S
C30 O37 1.240 . S
C30 O38 1.252 . S
C31 O34 1.252 . S
C31 O35 1.260 . S
O32 In26 2.266 . S
O32 C29 1.252 . S
O33 In26 2.326 1_455 S
O33 C29 1.260 1_455 S
O34 In26 2.266 . S
O34 C31 1.252 . S
O35 In26 2.326 . S
O35 C31 1.260 . S
C36 O27 1.240 . S
C36 O28 1.252 . S
O37 In26 2.294 1_455 S
O37 C30 1.240 . S
O38 In26 2.326 1_455 S
O38 C30 1.252 . S
In39 O40 2.294 . S
In39 O41 2.326 . S
In39 O45 2.266 . S
In39 O46 2.326 . S
In39 O47 2.266 . S
In39 O48 2.326 . S
In39 O50 2.294 . S
In39 O51 2.326 . S
O40 In39 2.294 . S
O40 C49 1.240 . S
O41 In39 2.326 . S
O41 C49 1.252 . S
C42 O45 1.252 . S
C42 O46 1.260 . S
C43 O50 1.240 . S
C43 O51 1.252 . S
C44 O47 1.252 . S
C44 O48 1.260 . S
O45 In39 2.266 . S
O45 C42 1.252 . S
O46 In39 2.326 . S
O46 C42 1.260 . S
O47 In39 2.266 . S
O47 C44 1.252 . S
O48 In39 2.326 . S
O48 C44 1.260 . S
C49 O40 1.240 . S
C49 O41 1.252 . S
O50 In39 2.294 . S
O50 C43 1.240 . S
O51 In39 2.326 . S
O51 C43 1.252 . S
In52 O53 2.294 . S
In52 O54 2.326 . S
In52 O58 2.266 . S
In52 O59 2.326 . S
In52 O60 2.266 . S
In52 O61 2.326 . S
In52 O63 2.294 . S
In52 O64 2.326 . S
O53 In52 2.294 . S
O53 C62 1.240 . S
O54 In52 2.326 . S
O54 C62 1.252 . S
C55 O58 1.252 . S
C55 O59 1.260 . S
C56 O63 1.240 . S
C56 O64 1.252 . S
C57 O60 1.252 . S
C57 O61 1.260 . S
O58 In52 2.266 . S
O58 C55 1.252 . S
O59 In52 2.326 . S
O59 C55 1.260 . S
O60 In52 2.266 . S
O60 C57 1.252 . S
O61 In52 2.326 . S
O61 C57 1.260 . S
C62 O53 1.240 . S
C62 O54 1.252 . S
O63 In52 2.294 . S
O63 C56 1.240 . S
O64 In52 2.326 . S
O64 C56 1.252 . S
In65 O66 2.294 1_655 S
In65 O67 2.326 1_655 S
In65 O71 2.266 . S
In65 O72 2.326 . S
In65 O73 2.266 . S
In65 O74 2.326 1_655 S
In65 O76 2.294 . S
In65 O77 2.326 . S
O66 In65 2.294 1_455 S
O66 C75 1.240 . S
O67 In65 2.326 1_455 S
O67 C75 1.252 . S
C68 O71 1.252 . S
C68 O72 1.260 . S
C69 O76 1.240 . S
C69 O77 1.252 . S
C70 O73 1.252 . S
C70 O74 1.260 1_655 S
O71 In65 2.266 . S
O71 C68 1.252 . S
O72 In65 2.326 . S
O72 C68 1.260 . S
O73 In65 2.266 . S
O73 C70 1.252 . S
O74 In65 2.326 1_455 S
O74 C70 1.260 1_455 S
C75 O66 1.240 . S
C75 O67 1.252 . S
O76 In65 2.294 . S
O76 C69 1.240 . S
O77 In65 2.326 . S
O77 C69 1.252 . S
In78 O79 2.294 . S
In78 O80 2.326 . S
In78 O84 2.266 . S
In78 O85 2.326 . S
In78 O86 2.266 . S
In78 O87 2.326 . S
In78 O89 2.294 . S
In78 O90 2.326 . S
O79 In78 2.294 . S
O79 C88 1.240 . S
O80 In78 2.326 . S
O80 C88 1.252 . S
C81 O84 1.252 . S
C81 O85 1.260 . S
C82 O89 1.240 . S
C82 O90 1.252 . S
C83 O86 1.252 . S
C83 O87 1.260 . S
O84 In78 2.266 . S
O84 C81 1.252 . S
O85 In78 2.326 . S
O85 C81 1.260 . S
O86 In78 2.266 . S
O86 C83 1.252 . S
O87 In78 2.326 . S
O87 C83 1.260 . S
C88 O79 1.240 . S
C88 O80 1.252 . S
O89 In78 2.294 . S
O89 C82 1.240 . S
O90 In78 2.326 . S
O90 C82 1.252 . S
In91 O92 2.294 . S
In91 O93 2.326 . S
In91 O97 2.266 . S
In91 O98 2.326 1_455 S
In91 O99 2.266 . S
In91 O100 2.326 . S
In91 O102 2.294 1_455 S
In91 O103 2.326 1_455 S
O92 In91 2.294 . S
O92 C101 1.240 . S
O93 In91 2.326 . S
O93 C101 1.252 . S
C94 O97 1.252 . S
C94 O98 1.260 1_455 S
C95 O102 1.240 . S
C95 O103 1.252 . S
C96 O99 1.252 . S
C96 O100 1.260 . S
O97 In91 2.266 . S
O97 C94 1.252 . S
O98 In91 2.326 1_655 S
O98 C94 1.260 1_655 S
O99 In91 2.266 . S
O99 C96 1.252 . S
O100 In91 2.326 . S
O100 C96 1.260 . S
C101 O92 1.240 . S
C101 O93 1.252 . S
O102 In91 2.294 1_655 S
O102 C95 1.240 . S
O103 In91 2.326 1_655 S
O103 C95 1.252 . S
H104 C110 0.930 . S
H105 C114 0.930 . S
H106 C119 0.929 . S
H107 C117 0.929 . S
H108 C112 0.929 . S
H109 C118 0.929 . S
C110 H104 0.930 . S
C110 C111 1.367 1_655 S
C110 C118 1.378 . S
C111 C110 1.367 1_455 S
C111 C119 1.433 . S
C112 H108 0.929 . S
C112 C114 1.378 . S
C112 C116 1.349 . S
C113 C116 1.462 1_655 S
C113 C118 1.349 . S
C113 N121 1.428 1_655 S
C114 H105 0.930 . S
C114 C112 1.378 . S
C114 C115 1.367 1_455 S
C115 C114 1.367 1_655 S
C115 C117 1.433 . S
C116 C112 1.349 . S
C116 C113 1.462 1_455 S
C116 N120 1.428 1_455 S
C117 H107 0.929 . S
C117 C115 1.433 . S
C117 N120 1.384 . S
C118 H109 0.929 . S
C118 C110 1.378 . S
C118 C113 1.349 . S
C119 H106 0.929 . S
C119 C111 1.433 . S
C119 N121 1.384 . S
N120 C116 1.428 1_655 S
N120 C117 1.384 . S
N121 C113 1.428 1_455 S
N121 C119 1.384 . S
H122 C128 0.930 . S
H123 C132 0.930 . S
H124 C137 0.929 . S
H125 C135 0.929 . S
H126 C130 0.929 . S
H127 C136 0.929 . S
C128 H122 0.930 . S
C128 C129 1.367 . S
C128 C136 1.378 . S
C129 C128 1.367 . S
C129 C137 1.433 . S
C130 H126 0.929 . S
C130 C132 1.378 . S
C130 C134 1.350 . S
C131 C134 1.463 . S
C131 C136 1.350 . S
C131 N139 1.427 . S
C132 H123 0.930 . S
C132 C130 1.378 . S
C132 C133 1.367 . S
C133 C132 1.367 . S
C133 C135 1.433 . S
C134 C130 1.350 . S
C134 C131 1.463 . S
C134 N138 1.427 . S
C135 H125 0.929 . S
C135 C133 1.433 . S
C135 N138 1.384 . S
C136 H127 0.929 . S
C136 C128 1.378 . S
C136 C131 1.350 . S
C137 H124 0.929 . S
C137 C129 1.433 . S
C137 N139 1.384 . S
N138 C134 1.427 . S
N138 C135 1.384 . S
N139 C131 1.427 . S
N139 C137 1.384 . S
H140 C146 0.930 . S
H141 C150 0.930 . S
H142 C155 0.929 . S
H143 C153 0.929 . S
H144 C148 0.929 1_554 S
H145 C154 0.929 1_556 S
C146 H140 0.930 . S
C146 C147 1.367 . S
C146 C154 1.378 . S
C147 C146 1.367 . S
C147 C155 1.433 . S
C148 H144 0.929 1_556 S
C148 C150 1.378 . S
C148 C152 1.350 . S
C149 C152 1.463 1_544 S
C149 C154 1.350 . S
C149 N157 1.427 1_545 S
C150 H141 0.930 . S
C150 C148 1.378 . S
C150 C151 1.367 . S
C151 C150 1.367 . S
C151 C153 1.433 . S
C152 C148 1.350 . S
C152 C149 1.463 1_566 S
C152 N156 1.427 1_565 S
C153 H143 0.929 . S
C153 C151 1.433 . S
C153 N156 1.384 1_565 S
C154 H145 0.929 1_554 S
C154 C146 1.378 . S
C154 C149 1.350 . S
C155 H142 0.929 . S
C155 C147 1.433 . S
C155 N157 1.384 1_545 S
N156 C152 1.427 1_545 S
N156 C153 1.384 1_545 S
N157 C149 1.427 1_565 S
N157 C155 1.384 1_565 S
H158 C164 0.930 . S
H159 C168 0.930 . S
H160 C173 0.929 . S
H161 C171 0.929 . S
H162 C166 0.940 . S
H163 C172 0.940 . S
C164 H158 0.930 . S
C164 C165 1.367 . S
C164 C172 1.378 . S
C165 C164 1.367 . S
C165 C173 1.433 1_655 S
C166 H162 0.940 . S
C166 C168 1.378 . S
C166 C170 1.350 . S
C167 C170 1.463 1_664 S
C167 C172 1.350 . S
C167 N175 1.427 1_655 S
C168 H159 0.930 . S
C168 C166 1.378 . S
C168 C169 1.367 . S
C169 C168 1.367 . S
C169 C171 1.433 1_455 S
C170 C166 1.350 . S
C170 C167 1.463 1_446 S
C170 N174 1.427 1_455 S
C171 H161 0.929 . S
C171 C169 1.433 1_655 S
C171 N174 1.384 . S
C172 H163 0.940 . S
C172 C164 1.378 . S
C172 C167 1.350 . S
C173 H160 0.929 . S
C173 C165 1.433 1_455 S
C173 N175 1.384 . S
N174 C170 1.427 1_655 S
N174 C171 1.384 . S
N175 C167 1.427 1_455 S
N175 C173 1.384 . S
H176 C182 0.930 . S
H177 C186 0.930 . S
H178 C191 0.929 . S
H179 C189 0.929 . S
H180 C184 0.929 . S
H181 C190 0.929 . S
C182 H176 0.930 . S
C182 C183 1.367 . S
C182 C190 1.378 . S
C183 C182 1.367 . S
C183 C191 1.433 . S
C184 H180 0.929 . S
C184 C186 1.378 . S
C184 C188 1.350 . S
C185 C188 1.463 . S
C185 C190 1.350 . S
C185 N193 1.427 . S
C186 H177 0.930 . S
C186 C184 1.378 . S
C186 C187 1.367 . S
C187 C186 1.367 . S
C187 C189 1.433 . S
C188 C184 1.350 . S
C188 C185 1.463 . S
C188 N192 1.427 . S
C189 H179 0.929 . S
C189 C187 1.433 . S
C189 N192 1.384 . S
C190 H181 0.929 . S
C190 C182 1.378 . S
C190 C185 1.350 . S
C191 H178 0.929 . S
C191 C183 1.433 . S
C191 N193 1.384 . S
N192 C188 1.427 . S
N192 C189 1.384 . S
N193 C185 1.427 . S
N193 C191 1.384 . S
H194 C200 0.930 . S
H195 C204 0.930 . S
H196 C209 0.929 . S
H197 C207 0.929 . S
H198 C202 0.929 . S
H199 C208 0.929 . S
C200 H194 0.930 . S
C200 C201 1.367 . S
C200 C208 1.378 . S
C201 C200 1.367 . S
C201 C209 1.433 . S
C202 H198 0.929 . S
C202 C204 1.378 . S
C202 C206 1.350 . S
C203 C206 1.463 . S
C203 C208 1.350 . S
C203 N211 1.427 . S
C204 H195 0.930 . S
C204 C202 1.378 . S
C204 C205 1.367 . S
C205 C204 1.367 . S
C205 C207 1.433 . S
C206 C202 1.350 . S
C206 C203 1.463 . S
C206 N210 1.427 . S
C207 H197 0.929 . S
C207 C205 1.433 . S
C207 N210 1.384 . S
C208 H199 0.929 . S
C208 C200 1.378 . S
C208 C203 1.350 . S
C209 H196 0.929 . S
C209 C201 1.433 . S
C209 N211 1.384 . S
N210 C206 1.427 . S
N210 C207 1.384 . S
N211 C203 1.427 . S
N211 C209 1.384 . S
H212 C218 0.930 . S
H213 C222 0.930 . S
H214 C227 0.929 . S
H215 C225 0.929 . S
H216 C220 0.929 . S
H217 C226 0.929 . S
C218 H212 0.930 . S
C218 C219 1.367 . S
C218 C226 1.378 . S
C219 C218 1.367 . S
C219 C227 1.433 . S
C220 H216 0.929 . S
C220 C222 1.378 . S
C220 C224 1.350 . S
C221 C224 1.463 . S
C221 C226 1.350 . S
C221 N229 1.427 . S
C222 H213 0.930 . S
C222 C220 1.378 . S
C222 C223 1.367 . S
C223 C222 1.367 . S
C223 C225 1.433 . S
C224 C220 1.350 . S
C224 C221 1.463 . S
C224 N228 1.427 . S
C225 H215 0.929 . S
C225 C223 1.433 . S
C225 N228 1.384 . S
C226 H217 0.929 . S
C226 C218 1.378 . S
C226 C221 1.350 . S
C227 H214 0.929 . S
C227 C219 1.433 . S
C227 N229 1.384 . S
N228 C224 1.427 . S
N228 C225 1.384 . S
N229 C221 1.427 . S
N229 C227 1.384 . S
H230 C236 0.930 . S
H231 C240 0.930 . S
H232 C245 0.929 . S
H233 C243 0.929 . S
H234 C238 0.929 . S
H235 C244 0.929 . S
C236 H230 0.930 . S
C236 C237 1.367 . S
C236 C244 1.378 . S
C237 C236 1.367 . S
C237 C245 1.433 . S
C238 H234 0.929 . S
C238 C240 1.378 . S
C238 C242 1.350 . S
C239 C242 1.463 . S
C239 C244 1.350 . S
C239 N247 1.427 . S
C240 H231 0.930 . S
C240 C238 1.378 . S
C240 C241 1.367 . S
C241 C240 1.367 . S
C241 C243 1.433 . S
C242 C238 1.350 . S
C242 C239 1.463 . S
C242 N246 1.427 . S
C243 H233 0.929 . S
C243 C241 1.433 . S
C243 N246 1.384 . S
C244 H235 0.929 . S
C244 C236 1.378 . S
C244 C239 1.350 . S
C245 H232 0.929 . S
C245 C237 1.433 . S
C245 N247 1.384 . S
N246 C242 1.427 . S
N246 C243 1.384 . S
N247 C239 1.427 . S
N247 C245 1.384 . S
H248 C254 0.930 . S
H249 C258 0.930 . S
H250 C263 0.929 . S
H251 C261 0.929 . S
H252 C256 0.929 . S
H253 C262 0.929 . S
C254 H248 0.930 . S
C254 C255 1.367 . S
C254 C262 1.378 . S
C255 C254 1.367 . S
C255 C263 1.433 . S
C256 H252 0.929 . S
C256 C258 1.378 . S
C256 C260 1.350 . S
C257 C260 1.463 . S
C257 C262 1.350 . S
C257 N265 1.427 . S
C258 H249 0.930 . S
C258 C256 1.378 . S
C258 C259 1.367 . S
C259 C258 1.367 . S
C259 C261 1.433 . S
C260 C256 1.350 . S
C260 C257 1.463 . S
C260 N264 1.427 . S
C261 H251 0.929 . S
C261 C259 1.433 . S
C261 N264 1.384 . S
C262 H253 0.929 . S
C262 C254 1.378 . S
C262 C257 1.350 . S
C263 H250 0.929 . S
C263 C255 1.433 . S
C263 N265 1.384 . S
N264 C260 1.427 . S
N264 C261 1.384 . S
N265 C257 1.427 . S
N265 C263 1.384 . S
H266 C272 0.930 . S
H267 C276 0.930 . S
H268 C281 0.929 . S
H269 C279 0.929 . S
H270 C274 0.929 . S
H271 C280 0.929 . S
C272 H266 0.930 . S
C272 C273 1.367 . S
C272 C280 1.378 . S
C273 C272 1.367 . S
C273 C281 1.433 . S
C274 H270 0.929 . S
C274 C276 1.378 . S
C274 C278 1.350 . S
C275 C278 1.463 . S
C275 C280 1.350 . S
C275 N283 1.427 . S
C276 H267 0.930 . S
C276 C274 1.378 . S
C276 C277 1.367 . S
C277 C276 1.367 . S
C277 C279 1.433 . S
C278 C274 1.350 . S
C278 C275 1.463 . S
C278 N282 1.427 . S
C279 H269 0.929 . S
C279 C277 1.433 . S
C279 N282 1.384 . S
C280 H271 0.929 . S
C280 C272 1.378 . S
C280 C275 1.350 . S
C281 H268 0.929 . S
C281 C273 1.433 . S
C281 N283 1.384 . S
N282 C278 1.427 . S
N282 C279 1.384 . S
N283 C275 1.427 . S
N283 C281 1.384 . S
H284 C290 0.930 . S
H285 C294 0.930 . S
H286 C299 0.929 . S
H287 C297 0.929 . S
H288 C292 0.929 . S
H289 C298 0.929 . S
C290 H284 0.930 . S
C290 C291 1.367 . S
C290 C298 1.378 . S
C291 C290 1.367 . S
C291 C299 1.433 . S
C292 H288 0.929 . S
C292 C294 1.378 . S
C292 C296 1.350 . S
C293 C296 1.463 . S
C293 C298 1.350 . S
C293 N301 1.427 . S
C294 H285 0.930 . S
C294 C292 1.378 . S
C294 C295 1.367 . S
C295 C294 1.367 . S
C295 C297 1.433 . S
C296 C292 1.350 . S
C296 C293 1.463 . S
C296 N300 1.427 . S
C297 H287 0.929 . S
C297 C295 1.433 . S
C297 N300 1.384 . S
C298 H289 0.929 . S
C298 C290 1.378 . S
C298 C293 1.350 . S
C299 H286 0.929 . S
C299 C291 1.433 . S
C299 N301 1.384 . S
N300 C296 1.427 . S
N300 C297 1.384 . S
N301 C293 1.427 . S
N301 C299 1.384 . S
H302 C308 0.930 . S
H303 C312 0.930 . S
H304 C317 0.929 . S
H305 C315 0.929 . S
H306 C310 0.929 . S
H307 C316 0.929 . S
C308 H302 0.930 . S
C308 C309 1.367 . S
C308 C316 1.378 . S
C309 C308 1.367 . S
C309 C317 1.433 . S
C310 H306 0.929 . S
C310 C312 1.378 . S
C310 C314 1.350 . S
C311 C314 1.463 . S
C311 C316 1.350 . S
C311 N319 1.427 . S
C312 H303 0.930 . S
C312 C310 1.378 . S
C312 C313 1.367 . S
C313 C312 1.367 . S
C313 C315 1.433 . S
C314 C310 1.350 . S
C314 C311 1.463 . S
C314 N318 1.427 . S
C315 H305 0.929 . S
C315 C313 1.433 . S
C315 N318 1.384 . S
C316 H307 0.929 . S
C316 C308 1.378 . S
C316 C311 1.350 . S
C317 H304 0.929 . S
C317 C309 1.433 . S
C317 N319 1.384 . S
N318 C314 1.427 . S
N318 C315 1.384 . S
N319 C311 1.427 . S
N319 C317 1.384 . S
H320 C326 0.930 . S
H321 C330 0.930 . S
H322 C335 0.929 . S
H323 C333 0.929 . S
H324 C328 0.929 . S
H325 C334 0.929 . S
C326 H320 0.930 . S
C326 C327 1.367 . S
C326 C334 1.378 . S
C327 C326 1.367 . S
C327 C335 1.433 . S
C328 H324 0.929 . S
C328 C330 1.378 . S
C328 C332 1.350 . S
C329 C332 1.463 . S
C329 C334 1.350 . S
C329 N337 1.427 . S
C330 H321 0.930 . S
C330 C328 1.378 . S
C330 C331 1.367 . S
C331 C330 1.367 . S
C331 C333 1.433 . S
C332 C328 1.350 . S
C332 C329 1.463 . S
C332 N336 1.427 . S
C333 H323 0.929 . S
C333 C331 1.433 . S
C333 N336 1.384 . S
C334 H325 0.929 . S
C334 C326 1.378 . S
C334 C329 1.350 . S
C335 H322 0.929 . S
C335 C327 1.433 . S
C335 N337 1.384 . S
N336 C332 1.427 . S
N336 C333 1.384 . S
N337 C329 1.427 . S
N337 C335 1.384 . S
H338 C344 0.930 . S
H339 C348 0.930 . S
H340 C353 0.929 . S
H341 C351 0.929 . S
H342 C346 0.929 . S
H343 C352 0.929 . S
C344 H338 0.930 . S
C344 C345 1.367 . S
C344 C352 1.378 . S
C345 C344 1.367 . S
C345 C353 1.433 . S
C346 H342 0.929 . S
C346 C348 1.378 . S
C346 C350 1.350 . S
C347 C350 1.463 . S
C347 C352 1.350 . S
C347 N355 1.427 . S
C348 H339 0.930 . S
C348 C346 1.378 . S
C348 C349 1.367 . S
C349 C348 1.367 . S
C349 C351 1.433 . S
C350 C346 1.350 . S
C350 C347 1.463 . S
C350 N354 1.427 . S
C351 H341 0.929 . S
C351 C349 1.433 . S
C351 N354 1.384 . S
C352 H343 0.929 . S
C352 C344 1.378 . S
C352 C347 1.350 . S
C353 H340 0.929 . S
C353 C345 1.433 . S
C353 N355 1.384 . S
N354 C350 1.427 . S
N354 C351 1.384 . S
N355 C347 1.427 . S
N355 C353 1.384 . S
H356 C362 0.930 . S
H357 C366 0.930 . S
H358 C371 0.929 . S
H359 C369 0.929 . S
H360 C364 0.929 . S
H361 C370 0.929 . S
C362 H356 0.930 . S
C362 C363 1.367 . S
C362 C370 1.378 . S
C363 C362 1.367 . S
C363 C371 1.433 . S
C364 H360 0.929 . S
C364 C366 1.378 . S
C364 C368 1.350 . S
C365 C368 1.463 1_554 S
C365 C370 1.350 . S
C365 N373 1.427 . S
C366 H357 0.930 . S
C366 C364 1.378 . S
C366 C367 1.367 . S
C367 C366 1.367 . S
C367 C369 1.433 . S
C368 C364 1.350 . S
C368 C365 1.463 1_556 S
C368 N372 1.427 . S
C369 H359 0.929 . S
C369 C367 1.433 . S
C369 N372 1.384 . S
C370 H361 0.929 . S
C370 C362 1.378 . S
C370 C365 1.350 . S
C371 H358 0.929 . S
C371 C363 1.433 . S
C371 N373 1.384 . S
N372 C368 1.427 . S
N372 C369 1.384 . S
N373 C365 1.427 . S
N373 C371 1.384 . S
H374 C380 0.930 . S
H375 C384 0.930 . S
H376 C389 0.929 . S
H377 C387 0.929 . S
H378 C382 0.929 . S
H379 C388 0.929 . S
C380 H374 0.930 . S
C380 C381 1.367 . S
C380 C388 1.378 . S
C381 C380 1.367 . S
C381 C389 1.433 . S
C382 H378 0.929 . S
C382 C384 1.378 . S
C382 C386 1.350 . S
C383 C386 1.463 1_554 S
C383 C388 1.350 . S
C383 N391 1.427 . S
C384 H375 0.930 . S
C384 C382 1.378 . S
C384 C385 1.367 . S
C385 C384 1.367 . S
C385 C387 1.433 . S
C386 C382 1.350 . S
C386 C383 1.463 1_556 S
C386 N390 1.427 . S
C387 H377 0.929 . S
C387 C385 1.433 . S
C387 N390 1.384 . S
C388 H379 0.929 . S
C388 C380 1.378 . S
C388 C383 1.350 . S
C389 H376 0.929 . S
C389 C381 1.433 . S
C389 N391 1.384 . S
N390 C386 1.427 . S
N390 C387 1.384 . S
N391 C383 1.427 . S
N391 C389 1.384 . S
C111 C5 1.553 . S
C115 C29 1.553 . S
C129 C44 1.547 . S
C133 C18 1.547 . S
C147 C81 1.546 . S
C151 C55 1.546 . S
C165 C70 1.546 . S
C169 C94 1.546 . S
C183 C82 1.746 . S
C187 C10 1.746 . S
C201 C23 1.750 . S
C205 C95 1.750 . S
C219 C30 1.740 . S
C223 C56 1.740 . S
C237 C49 1.749 . S
C241 C75 1.749 . S
C255 C88 1.572 . S
C259 C4 1.572 . S
C273 C17 1.574 . S
C277 C101 1.574 . S
C291 C62 1.572 . S
C295 C36 1.572 . S
C309 C69 1.571 . S
C313 C43 1.571 . S
C327 C16 0.563 . S
C331 C3 0.578 . S
C345 C31 0.581 . S
C349 C42 0.559 . S
C363 C68 0.549 . S
C367 C57 0.582 . S
C381 C83 0.574 . S
C385 C96 0.550 . S
