# Generated by pormake.
# Topology smu, (6)-cn, num edge types: 1
# Building blocks:
#     Node 0, Type 0, BuildingBlock: PAMTUU_clean_sbu_0, # of connection points: 6
#     Node 1, Type 0, BuildingBlock: PAMTUU_clean_sbu_0, # of connection points: 6
#     Node 2, Type 0, BuildingBlock: PAMTUU_clean_sbu_0, # of connection points: 6
#     Node 3, Type 0, BuildingBlock: PAMTUU_clean_sbu_0, # of connection points: 6
#     Node 4, Type 0, BuildingBlock: PAMTUU_clean_sbu_0, # of connection points: 6
#     Node 5, Type 0, BuildingBlock: PAMTUU_clean_sbu_0, # of connection points: 6
#     Edge 6, Type (0, 0), BuildingBlock: UVAHIK_clean_linker_0, # of connection points: 2
#     Edge 7, Type (0, 0), BuildingBlock: UVAHIK_clean_linker_0, # of connection points: 2
#     Edge 8, Type (0, 0), BuildingBlock: UVAHIK_clean_linker_0, # of connection points: 2
#     Edge 9, Type (0, 0), BuildingBlock: UVAHIK_clean_linker_0, # of connection points: 2
#     Edge 10, Type (0, 0), BuildingBlock: UVAHIK_clean_linker_0, # of connection points: 2
#     Edge 11, Type (0, 0), BuildingBlock: UVAHIK_clean_linker_0, # of connection points: 2
#     Edge 12, Type (0, 0), BuildingBlock: UVAHIK_clean_linker_0, # of connection points: 2
#     Edge 13, Type (0, 0), BuildingBlock: UVAHIK_clean_linker_0, # of connection points: 2
#     Edge 14, Type (0, 0), BuildingBlock: UVAHIK_clean_linker_0, # of connection points: 2
#     Edge 15, Type (0, 0), BuildingBlock: UVAHIK_clean_linker_0, # of connection points: 2
#     Edge 16, Type (0, 0), BuildingBlock: UVAHIK_clean_linker_0, # of connection points: 2
#     Edge 17, Type (0, 0), BuildingBlock: UVAHIK_clean_linker_0, # of connection points: 2
#     Edge 18, Type (0, 0), BuildingBlock: UVAHIK_clean_linker_0, # of connection points: 2
#     Edge 19, Type (0, 0), BuildingBlock: UVAHIK_clean_linker_0, # of connection points: 2
#     Edge 20, Type (0, 0), BuildingBlock: UVAHIK_clean_linker_0, # of connection points: 2
#     Edge 21, Type (0, 0), BuildingBlock: UVAHIK_clean_linker_0, # of connection points: 2
#     Edge 22, Type (0, 0), BuildingBlock: UVAHIK_clean_linker_0, # of connection points: 2
#     Edge 23, Type (0, 0), BuildingBlock: UVAHIK_clean_linker_0, # of connection points: 2
# Relax obj value: 0.209
# Max RMSD: 0.298
# Mean RMSD: 0.298
data_MOF--net-smu--node1-PAMTUU_clean_sbu_0--edge1-UVAHIK_clean_linker_0
_symmetry_space_group_name_H-M    P1
_symmetry_Int_Tables_number       1
_symmetry_cell_setting            triclinic
loop_
_symmetry_equiv_pos_as_xyz
'x, y, z'
_cell_length_a     47.684355
_cell_length_b     47.644048
_cell_length_c     36.110351
_cell_angle_alpha  89.865586
_cell_angle_beta   90.066639
_cell_angle_gamma 120.10624
loop_
_atom_site_label
_atom_site_type_symbol
_atom_site_fract_x
_atom_site_fract_y
_atom_site_fract_z
_atom_type_partial_charge
Tb0 Tb 0.32003 0.11045 0.26175 0.0
Tb1 Tb 0.37096 0.08283 0.26087 0.0
C2 C 0.33805 0.08815 0.18685 0.0
C3 C 0.25971 0.14322 0.25613 0.0
C4 C 0.2165 0.16726 0.2499 0.0
C5 C 0.24363 0.17899 0.22649 0.0
C6 C 0.2652 0.16723 0.22976 0.0
C7 C 0.23127 0.12986 0.27749 0.0
C8 C 0.20991 0.14175 0.27442 0.0
C9 C 0.28607 0.13724 0.26749 0.0
O10 O 0.29099 0.06093 0.24383 0.0
O11 O 0.32217 0.03998 0.26688 0.0
O12 O 0.36536 0.09309 0.31823 0.0
O13 O 0.31423 0.08539 0.31412 0.0
O14 O 0.40191 0.07158 0.23144 0.0
O15 O 0.39767 0.06584 0.29062 0.0
O16 O 0.39903 0.13481 0.24996 0.0
O17 O 0.3664 0.14649 0.28406 0.0
O18 O 0.32908 0.10746 0.20258 0.0
O19 O 0.35051 0.07349 0.20583 0.0
C20 C 0.29455 0.03635 0.2539 0.0
O21 O 0.27865 0.1096 0.28295 0.0
O22 O 0.31268 0.14922 0.24795 0.0
C23 C 0.33726 0.0848 0.33339 0.0
C24 C 0.44966 0.08445 0.26462 0.0
C25 C 0.51814 0.11705 0.26961 0.0
C26 C 0.49874 0.08926 0.29125 0.0
C27 C 0.46491 0.07309 0.28862 0.0
C28 C 0.46884 0.11265 0.24367 0.0
C29 C 0.50267 0.12864 0.24599 0.0
C30 C 0.41393 0.06649 0.26138 0.0
C31 C 0.39419 0.15584 0.26789 0.0
H32 H 0.24934 0.19872 0.20741 0.0
H33 H 0.28712 0.17836 0.21325 0.0
H34 H 0.22653 0.11165 0.29839 0.0
H35 H 0.18892 0.13195 0.29244 0.0
H36 H 0.50966 0.07996 0.31035 0.0
H37 H 0.45061 0.05157 0.30527 0.0
H38 H 0.45776 0.12217 0.22509 0.0
H39 H 0.51665 0.14968 0.22857 0.0
Tb40 Tb 0.80262 0.69631 0.25664 0.0
Tb41 Tb 0.7245 0.64787 0.26962 0.0
C42 C 0.75331 0.67733 0.19273 0.0
C43 C 0.89388 0.75819 0.25278 0.0
C44 C 0.95862 0.80749 0.26488 0.0
C45 C 0.94547 0.80069 0.22894 0.0
C46 C 0.91348 0.77631 0.22301 0.0
C47 C 0.90634 0.76588 0.28897 0.0
C48 C 0.93846 0.79035 0.29495 0.0
C49 C 0.8629 0.7286 0.24451 0.0
O50 O 0.78326 0.7287 0.25579 0.0
O51 O 0.73118 0.69648 0.2794 0.0
O52 O 0.75002 0.65557 0.32193 0.0
O53 O 0.7929 0.70654 0.3125 0.0
O54 O 0.67832 0.61829 0.24704 0.0
O55 O 0.68541 0.62105 0.30615 0.0
O56 O 0.74403 0.61753 0.25041 0.0
O57 O 0.79429 0.6495 0.27427 0.0
O58 O 0.77962 0.67702 0.20305 0.0
O59 O 0.73066 0.67174 0.2169 0.0
C60 C 0.75557 0.72477 0.2683 0.0
O61 O 0.84952 0.70696 0.27065 0.0
O62 O 0.84153 0.73128 0.22461 0.0
C63 C 0.77124 0.68435 0.33471 0.0
C64 C 0.6479 0.5698 0.28101 0.0
C65 C 0.6123 0.50113 0.28372 0.0
C66 C 0.6056 0.51978 0.30861 0.0
C67 C 0.62313 0.55373 0.30713 0.0
C68 C 0.65528 0.55137 0.25675 0.0
C69 C 0.63757 0.51746 0.25794 0.0
C70 C 0.66558 0.60563 0.27901 0.0
C71 C 0.77199 0.62151 0.26151 0.0
H72 H 0.96036 0.81304 0.20508 0.0
H73 H 0.90454 0.7705 0.19484 0.0
H74 H 0.89176 0.7522 0.31248 0.0
H75 H 0.94772 0.79533 0.323 0.0
H76 H 0.58684 0.50819 0.32938 0.0
H77 H 0.61722 0.56745 0.32632 0.0
H78 H 0.67448 0.56313 0.23646 0.0
H79 H 0.64329 0.50412 0.23802 0.0
Tb80 Tb 0.91022 0.21701 0.25453 0.0
Tb81 Tb 0.93558 0.29421 0.27082 0.0
C82 C 0.93034 0.26746 0.19032 0.0
C83 C 0.88295 0.12605 0.25168 0.0
C84 C 0.8669 0.06161 0.26775 0.0
C85 C 0.87154 0.07289 0.23097 0.0
C86 C 0.87947 0.10473 0.22308 0.0
C87 C 0.87982 0.11548 0.2886 0.0
C88 C 0.87188 0.08352 0.29656 0.0
C89 C 0.88465 0.15689 0.24168 0.0
O90 O 0.96215 0.24173 0.24578 0.0
O91 O 0.97941 0.29057 0.27633 0.0
O92 O 0.92418 0.26753 0.32298 0.0
O93 O 0.93359 0.22627 0.3086 0.0
O94 O 0.95772 0.34323 0.25486 0.0
O95 O 0.93683 0.32804 0.30907 0.0
O96 O 0.88532 0.27219 0.25298 0.0
O97 O 0.87119 0.22276 0.27668 0.0
O98 O 0.90801 0.23855 0.20192 0.0
O99 O 0.94711 0.2912 0.21357 0.0
C100 C 0.98512 0.26917 0.25989 0.0
O101 O 0.87371 0.16941 0.26566 0.0
O102 O 0.91023 0.17899 0.22441 0.0
C103 C 0.93353 0.24687 0.33271 0.0
C104 C 0.93185 0.36985 0.28098 0.0
C105 C 0.89795 0.40428 0.27524 0.0
C106 C 0.92227 0.41264 0.3022 0.0
C107 C 0.93906 0.39566 0.30494 0.0
C108 C 0.90738 0.36103 0.2543 0.0
C109 C 0.89067 0.37815 0.25136 0.0
C110 C 0.94919 0.35168 0.2852 0.0
C111 C 0.86305 0.2436 0.26473 0.0
H112 H 0.86748 0.05668 0.20802 0.0
H113 H 0.88132 0.11223 0.1944 0.0
H114 H 0.88229 0.13147 0.31121 0.0
H115 H 0.86898 0.07577 0.32521 0.0
H116 H 0.92811 0.43209 0.32164 0.0
H117 H 0.95754 0.40254 0.32603 0.0
H118 H 0.9012 0.34091 0.23573 0.0
H119 H 0.87234 0.37115 0.23009 0.0
Tb120 Tb 0.08601 0.36745 0.76158 0.0
Tb121 Tb 0.11277 0.31594 0.76346 0.0
C122 C 0.0896 0.33551 0.83532 0.0
C123 C 0.09045 0.44746 0.7603 0.0
C124 C 0.12645 0.51607 0.75899 0.0
C125 C 0.09931 0.49954 0.7823 0.0
C126 C 0.08143 0.46557 0.78282 0.0
C127 C 0.11794 0.4639 0.73751 0.0
C128 C 0.13561 0.49784 0.73669 0.0
C129 C 0.0712 0.4116 0.76103 0.0
O130 O 0.13731 0.39398 0.7473 0.0
O131 O 0.14969 0.36299 0.78353 0.0
O132 O 0.10878 0.32422 0.70432 0.0
O133 O 0.0739 0.34444 0.70783 0.0
O134 O 0.11217 0.2745 0.7845 0.0
O135 O 0.15137 0.30866 0.74925 0.0
O136 O 0.06221 0.28652 0.74867 0.0
O137 O 0.04329 0.31937 0.77176 0.0
O138 O 0.09726 0.36312 0.81907 0.0
O139 O 0.09022 0.31209 0.81699 0.0
C140 C 0.15883 0.38992 0.76531 0.0
O141 O 0.07255 0.39664 0.73158 0.0
O142 O 0.07319 0.39756 0.79106 0.0
C143 C 0.08859 0.33211 0.68876 0.0
C144 C 0.1449 0.25548 0.75604 0.0
C145 C 0.16767 0.21158 0.74467 0.0
C146 C 0.17644 0.23774 0.72018 0.0
C147 C 0.1653 0.25959 0.72592 0.0
C148 C 0.1346 0.2283 0.77906 0.0
C149 C 0.14583 0.20666 0.77352 0.0
C150 C 0.13958 0.28193 0.76859 0.0
C151 C 0.03853 0.2909 0.76032 0.0
H152 H 0.0915 0.51289 0.79958 0.0
H153 H 0.06042 0.45342 0.80072 0.0
H154 H 0.12576 0.45056 0.72021 0.0
H155 H 0.15662 0.50985 0.7188 0.0
H156 H 0.19279 0.242 0.69733 0.0
H157 H 0.17394 0.2805 0.70787 0.0
H158 H 0.11945 0.22485 0.80294 0.0
H159 H 0.13888 0.18722 0.79339 0.0
Tb160 Tb 0.29894 0.93399 0.76999 0.0
Tb161 Tb 0.22039 0.90287 0.75725 0.0
C162 C 0.25197 0.92527 0.83533 0.0
C163 C 0.37764 0.93527 0.77931 0.0
C164 C 0.41539 0.90451 0.779 0.0
C165 C 0.39763 0.90333 0.81066 0.0
C166 C 0.379 0.91859 0.81085 0.0
C167 C 0.39544 0.93647 0.74776 0.0
C168 C 0.41389 0.92115 0.74752 0.0
C169 C 0.35822 0.95175 0.77876 0.0
O170 O 0.27941 0.88381 0.75175 0.0
O171 O 0.22931 0.8651 0.77623 0.0
O172 O 0.24318 0.9062 0.70361 0.0
O173 O 0.29269 0.94998 0.71629 0.0
O174 O 0.17345 0.86617 0.77092 0.0
O175 O 0.18173 0.89817 0.72437 0.0
O176 O 0.23849 0.95448 0.75921 0.0
O177 O 0.29261 0.97627 0.77661 0.0
O178 O 0.2746 0.91934 0.82355 0.0
O179 O 0.22937 0.92338 0.81281 0.0
C180 C 0.25151 0.85964 0.76284 0.0
O181 O 0.34523 0.95189 0.7471 0.0
O182 O 0.33818 0.94612 0.80606 0.0
C183 C 0.27017 0.9318 0.69253 0.0
C184 C 0.1284 0.87116 0.75064 0.0
C185 C 0.0619 0.8513 0.75582 0.0
C186 C 0.07934 0.8658 0.72323 0.0
C187 C 0.1122 0.87553 0.72065 0.0
C188 C 0.11152 0.85857 0.78406 0.0
C189 C 0.0786 0.84884 0.78664 0.0
C190 C 0.16026 0.87392 0.7441 0.0
C191 C 0.26688 0.97898 0.7691 0.0
H192 H 0.39856 0.89112 0.83556 0.0
H193 H 0.36581 0.9174 0.83575 0.0
H194 H 0.39505 0.94923 0.72307 0.0
H195 H 0.42681 0.92218 0.72245 0.0
H196 H 0.06729 0.86856 0.69921 0.0
H197 H 0.12451 0.88486 0.69446 0.0
H198 H 0.12321 0.85458 0.80758 0.0
H199 H 0.06584 0.83764 0.81209 0.0
Tb200 Tb 0.65179 0.72217 0.7587 0.0
Tb201 Tb 0.70155 0.80128 0.76155 0.0
C202 C 0.68447 0.75737 0.83346 0.0
C203 C 0.5738 0.64269 0.7551 0.0
C204 C 0.50521 0.60487 0.75352 0.0
C205 C 0.52304 0.60181 0.78278 0.0
C206 C 0.55685 0.62034 0.78342 0.0
C207 C 0.55621 0.64607 0.72585 0.0
C208 C 0.52227 0.62729 0.72504 0.0
C209 C 0.60959 0.66236 0.75737 0.0
O210 O 0.62384 0.74539 0.77304 0.0
O211 O 0.65506 0.79004 0.73877 0.0
O212 O 0.70739 0.78577 0.70683 0.0
O213 O 0.65772 0.7396 0.70191 0.0
O214 O 0.70485 0.84551 0.77583 0.0
O215 O 0.74411 0.84437 0.747 0.0
O216 O 0.73181 0.78118 0.77593 0.0
O217 O 0.70084 0.72931 0.75174 0.0
O218 O 0.67414 0.73158 0.81256 0.0
O219 O 0.69086 0.78574 0.81977 0.0
C220 C 0.62784 0.77136 0.75592 0.0
O221 O 0.62544 0.67892 0.72826 0.0
O222 O 0.62107 0.67918 0.78753 0.0
C223 C 0.68523 0.76166 0.68711 0.0
C224 C 0.75723 0.89345 0.77965 0.0
C225 C 0.7993 0.95937 0.79785 0.0
C226 C 0.81124 0.94129 0.77996 0.0
C227 C 0.79039 0.90872 0.77078 0.0
C228 C 0.74583 0.91092 0.79983 0.0
C229 C 0.76663 0.94347 0.80889 0.0
C230 C 0.73377 0.86259 0.7615 0.0
C231 C 0.72847 0.75339 0.76472 0.0
H232 H 0.51088 0.58537 0.80562 0.0
H233 H 0.56982 0.6174 0.80638 0.0
H234 H 0.56859 0.66319 0.70363 0.0
H235 H 0.50946 0.63011 0.70186 0.0
H236 H 0.83622 0.95286 0.7708 0.0
H237 H 0.79989 0.89616 0.75473 0.0
H238 H 0.72037 0.90005 0.80673 0.0
H239 H 0.7568 0.95662 0.82313 0.0
C240 C 0.27829 0.9394 0.89795 0.0
C241 C 0.25461 0.93801 0.87357 0.0
C242 C 0.2841 0.95528 0.93201 0.0
C243 C 0.2747 0.01854 0.98086 0.0
H244 H 0.30022 0.98666 0.0658 0.0
C245 C 0.30354 0.07746 0.12956 0.0
C246 C 0.33021 0.07834 0.14744 0.0
C247 C 0.29267 0.06175 0.09519 0.0
C248 C 0.29335 0.99605 0.04228 0.0
H249 H 0.21792 0.95179 0.86658 0.0
H250 H 0.2277 0.97905 0.92645 0.0
H251 H 0.28232 0.95444 1.00953 0.0
H252 H 0.36777 0.06561 0.14188 0.0
H253 H 0.34917 0.03883 0.08244 0.0
H254 H 0.28581 0.06024 1.01417 0.0
C255 C 0.24207 0.96814 0.91891 0.0
C256 C 0.28309 0.97755 1.00991 0.0
C257 C 0.2362 0.95215 0.88473 0.0
C258 C 0.34691 0.06507 0.12916 0.0
C259 C 0.33611 0.04947 0.09514 0.0
C260 C 0.28482 0.03704 1.0135 0.0
C261 C 0.2664 0.97028 0.94284 0.0
C262 C 0.27427 0.98878 0.97843 0.0
C263 C 0.30824 0.04661 0.07827 0.0
C264 C 0.29496 0.02631 0.04431 0.0
H265 H 0.29314 0.92903 0.8903 0.0
H266 H 0.30336 0.95675 0.9493 0.0
H267 H 0.26832 0.02813 0.95714 0.0
H268 H 0.28999 0.08722 0.14303 0.0
H269 H 0.27117 0.06004 0.08282 0.0
C270 C 0.72159 0.78092 0.63118 0.0
C271 C 0.69287 0.75732 0.64837 0.0
C272 C 0.73073 0.77507 0.59647 0.0
C273 C 0.69944 0.71942 0.51491 0.0
H274 H 0.79041 0.74858 0.4987 0.0
C275 C 0.74149 0.67009 0.39519 0.0
C276 C 0.76706 0.69299 0.37304 0.0
C277 C 0.73396 0.67915 0.42885 0.0
C278 C 0.76497 0.74051 0.50271 0.0
H279 H 0.65092 0.70924 0.64195 0.0
H280 H 0.66702 0.69883 0.5821 0.0
H281 H 0.77345 0.76265 0.55617 0.0
H282 H 0.80561 0.74323 0.36993 0.0
H283 H 0.79272 0.75891 0.42925 0.0
H284 H 0.69095 0.69661 0.46183 0.0
C285 C 0.68231 0.72218 0.59495 0.0
C286 C 0.75519 0.74869 0.5356 0.0
C287 C 0.67306 0.72812 0.62949 0.0
C288 C 0.78589 0.72491 0.38633 0.0
C289 C 0.77848 0.73392 0.42029 0.0
C290 C 0.70918 0.71099 0.48228 0.0
C291 C 0.71151 0.74537 0.57813 0.0
C292 C 0.72222 0.73806 0.5423 0.0
C293 C 0.75191 0.7113 0.44147 0.0
C294 C 0.742 0.7212 0.4759 0.0
H295 H 0.73743 0.80372 0.64485 0.0
H296 H 0.75304 0.79379 0.58416 0.0
H297 H 0.67396 0.71136 0.51856 0.0
H298 H 0.72645 0.64527 0.38599 0.0
H299 H 0.71371 0.66102 0.44483 0.0
C300 C 0.95773 0.30482 0.13699 0.0
C301 C 0.94019 0.27298 0.15081 0.0
C302 C 0.97222 0.31107 0.10204 0.0
C303 C 0.97562 0.27248 1.01361 0.0
H304 H 0.06138 0.34865 1.00746 0.0
C305 C 0.06027 0.2973 0.88784 0.0
C306 C 0.076 0.32907 0.87344 0.0
C307 C 0.0439 0.29026 0.92175 0.0
C308 C 0.03735 0.32745 1.00858 0.0
H309 H 0.92309 0.22252 0.13808 0.0
H310 H 0.9488 0.23338 0.07715 0.0
H311 H 0.03092 0.33634 0.06504 0.0
H312 H 0.08749 0.37849 0.88414 0.0
H313 H 0.0593 0.36627 0.94354 0.0
H314 H 0.98247 0.26345 0.95714 0.0
C315 C 0.95099 0.25359 0.09313 0.0
C316 C 0.01975 0.32041 0.04161 0.0
C317 C 0.93616 0.2473 0.12808 0.0
C318 C 0.0758 0.3538 0.89442 0.0
C319 C 0.05965 0.34679 0.92853 0.0
C320 C 0.99335 0.27943 0.98061 0.0
C321 C 0.96995 0.28567 0.08005 0.0
C322 C 0.98853 0.29293 0.04458 0.0
C323 C 0.04305 0.31484 0.94233 0.0
C324 C 0.0244 0.30708 0.97765 0.0
H325 H 0.96109 0.32515 0.15368 0.0
H326 H 0.98579 0.33598 0.09259 0.0
H327 H 0.95157 0.25134 1.01462 0.0
H328 H 0.05971 0.27756 0.87241 0.0
H329 H 0.03175 0.26549 0.9318 0.0
C330 C 0.29786 0.05378 0.38425 0.0
C331 C 0.33003 0.07086 0.37136 0.0
C332 C 0.29038 0.03749 0.41829 0.0
C333 C 0.324 1.00402 0.48738 0.0
H334 H 0.25522 0.99833 0.54983 0.0
C335 C 0.30686 0.96247 0.63997 0.0
C336 C 0.27522 0.94196 0.65313 0.0
C337 C 0.31216 0.97541 0.60423 0.0
C338 C 0.2742 0.99933 0.53244 0.0
H339 H 0.37971 0.08507 0.38491 0.0
H340 H 0.36688 0.05766 0.44478 0.0
H341 H 0.26799 0.02843 0.49166 0.0
H342 H 0.22429 0.91843 0.63875 0.0
H343 H 0.23358 0.94145 0.57604 0.0
H344 H 0.33072 0.97564 0.52881 0.0
C345 C 0.34722 0.05603 0.42813 0.0
C346 C 0.28158 0.01662 0.49904 0.0
C347 C 0.35466 0.07208 0.39391 0.0
C348 C 0.24894 0.93398 0.62931 0.0
C349 C 0.25425 0.94738 0.59357 0.0
C350 C 0.31682 0.98701 0.52091 0.0
C351 C 0.3149 0.03804 0.44055 0.0
C352 C 0.30675 0.0194 0.47611 0.0
C353 C 0.28595 0.96852 0.58082 0.0
C354 C 0.29197 0.98462 0.54396 0.0
H355 H 0.27819 0.052 0.36748 0.0
H356 H 0.26519 0.02362 0.42653 0.0
H357 H 0.343 1.00487 0.47018 0.0
H358 H 0.32766 0.96908 0.65761 0.0
H359 H 0.33684 0.99179 0.59542 0.0
C360 C 0.68285 0.72299 0.88649 0.0
C361 C 0.69256 0.75415 0.87245 0.0
C362 C 0.69358 0.71896 0.92091 0.0
C363 C 0.72396 0.75555 1.01111 0.0
H364 H 0.75266 0.69243 0.01635 0.0
C365 C 0.72387 0.69235 0.1467 0.0
C366 C 0.75016 0.68772 0.15484 0.0
C367 C 0.72136 0.70434 0.11234 0.0
C368 C 0.74516 0.71043 0.01535 0.0
H369 H 0.72024 0.80557 0.88473 0.0
H370 H 0.73852 0.79835 0.94597 0.0
H371 H 0.73993 0.70708 0.95634 0.0
H372 H 0.79435 0.69192 0.13273 0.0
H373 H 0.78953 0.71235 0.07194 0.0
H374 H 0.72836 0.75823 0.07027 0.0
C375 C 0.72279 0.77712 0.92965 0.0
C376 C 0.7376 0.71864 0.98102 0.0
C377 C 0.71221 0.78125 0.89472 0.0
C378 C 0.77371 0.69501 0.12733 0.0
C379 C 0.77099 0.70677 0.09258 0.0
C380 C 0.73124 0.74711 0.04553 0.0
C381 C 0.71416 0.74589 0.94263 0.0
C382 C 0.72617 0.74069 0.97859 0.0
C383 C 0.74491 0.71188 0.08489 0.0
C384 C 0.7412 0.72389 0.04811 0.0
H385 H 0.66742 0.70143 0.8705 0.0
H386 H 0.68581 0.69456 0.93049 0.0
H387 H 0.71521 0.77258 1.01014 0.0
H388 H 0.70523 0.68712 0.16709 0.0
H389 H 0.70064 0.70735 0.10712 0.0
C390 C 0.96482 0.23412 0.37983 0.0
C391 C 0.94761 0.24999 0.37032 0.0
C392 C 0.9821 0.24118 0.41332 0.0
C393 C 0.02184 0.30771 0.48075 0.0
H394 H 0.01993 0.24348 0.5484 0.0
C395 C 0.06351 0.33901 0.63128 0.0
C396 C 0.07921 0.32445 0.64919 0.0
C397 C 0.05105 0.32975 0.5956 0.0
C398 C 0.02121 0.26176 0.5295 0.0
H399 H 0.93391 0.28457 0.38964 0.0
H400 H 0.96369 0.29661 0.44753 0.0
H401 H 0.98975 0.22608 0.48997 0.0
H402 H 0.09472 0.28905 0.64298 0.0
H403 H 0.07306 0.27292 0.58 0.0
H404 H 0.05303 0.3434 0.51986 0.0
C405 C 0.96431 0.27911 0.42895 0.0
C406 C 1.00381 0.25176 0.49608 0.0
C407 C 0.94699 0.27198 0.39578 0.0
C408 C 0.08295 0.3009 0.62991 0.0
C409 C 0.07024 0.29143 0.59399 0.0
C410 C 0.03931 0.31768 0.51385 0.0
C411 C 0.98271 0.26443 0.43779 0.0
C412 C 1.00327 0.27462 0.47179 0.0
C413 C 0.05386 0.30559 0.57651 0.0
C414 C 0.0386 0.29485 0.53918 0.0
H415 H 0.96602 0.21721 0.3608 0.0
H416 H 0.99605 0.22946 0.41934 0.0
H417 H 0.02262 0.32602 0.46223 0.0
H418 H 0.06015 0.35725 0.64517 0.0
H419 H 0.03822 0.34089 0.58345 0.0
C420 C 0.57374 0.16729 0.26756 0.0
C421 C 0.55428 0.13334 0.271 0.0
C422 C 0.60763 0.1823 0.26817 0.0
C423 C 0.67375 0.16984 0.30037 0.0
H424 H 0.72594 0.23227 0.22476 0.0
C425 C 0.80486 0.20231 0.2747 0.0
C426 C 0.82838 0.23443 0.26595 0.0
C427 C 0.77213 0.19296 0.27651 0.0
C428 C 0.7118 0.2153 0.24645 0.0
H429 H 0.55568 0.0887 0.27704 0.0
H430 H 0.61447 0.11492 0.27909 0.0
H431 H 0.66726 0.21045 0.22608 0.0
H432 H 0.83575 0.28194 0.25189 0.0
H433 H 0.77816 0.26558 0.25553 0.0
H434 H 0.71791 0.17451 0.32092 0.0
C435 C 0.60346 0.12992 0.27621 0.0
C436 C 0.67818 0.20276 0.24714 0.0
C437 C 0.56968 0.1149 0.27519 0.0
C438 C 0.81823 0.257 0.2587 0.0
C439 C 0.78524 0.24759 0.26067 0.0
C440 C 0.70725 0.18252 0.29989 0.0
C441 C 0.62283 0.16376 0.27268 0.0
C442 C 0.65875 0.17935 0.27364 0.0
C443 C 0.76182 0.21545 0.26988 0.0
C444 C 0.72666 0.20481 0.2724 0.0
H445 H 0.56285 0.18239 0.26483 0.0
H446 H 0.62193 0.20846 0.2657 0.0
H447 H 0.6595 0.15235 0.3216 0.0
H448 H 0.81165 0.18412 0.28003 0.0
H449 H 0.75481 0.16783 0.28273 0.0
C450 C 0.6067 0.44579 0.27591 0.0
C451 C 0.59256 0.46491 0.28402 0.0
C452 C 0.58787 0.41187 0.27527 0.0
C453 C 0.51213 0.34392 0.31139 0.0
H454 H 0.51612 0.29542 0.22742 0.0
C455 C 0.41205 0.21304 0.28524 0.0
C456 C 0.41984 0.19046 0.27066 0.0
C457 C 0.43545 0.24578 0.28792 0.0
C458 C 0.51509 0.30848 0.2514 0.0
H459 H 0.54713 0.46281 0.29729 0.0
H460 H 0.51474 0.40389 0.29725 0.0
H461 H 0.55288 0.35411 0.23047 0.0
H462 H 0.45857 0.18473 0.24742 0.0
H463 H 0.49991 0.24225 0.25274 0.0
H464 H 0.47465 0.29866 0.3326 0.0
C465 C 0.54046 0.41523 0.29156 0.0
C466 C 0.53609 0.34212 0.25307 0.0
C467 C 0.55914 0.44908 0.29175 0.0
C468 C 0.45178 0.20152 0.25875 0.0
C469 C 0.47541 0.2345 0.26166 0.0
C470 C 0.49143 0.31037 0.30994 0.0
C471 C 0.55457 0.39624 0.28323 0.0
C472 C 0.53433 0.36027 0.28272 0.0
C473 C 0.46751 0.25703 0.27643 0.0
C474 C 0.49205 0.29225 0.27952 0.0
H475 H 0.63242 0.45697 0.2704 0.0
H476 H 0.59946 0.39784 0.26909 0.0
H477 H 0.51065 0.35716 0.33494 0.0
H478 H 0.38763 0.20555 0.29429 0.0
H479 H 0.42814 0.26239 0.29852 0.0
C480 C 0.84715 0.40737 0.26395 0.0
C481 C 0.88053 0.42293 0.27221 0.0
C482 C 0.83086 0.42503 0.26253 0.0
C483 C 0.8368 0.49978 0.2988 0.0
H484 H 0.78141 0.49428 0.21704 0.0
C485 C 0.81077 0.60153 0.27035 0.0
C486 C 0.77923 0.59459 0.26126 0.0
C487 C 0.81854 0.57706 0.27197 0.0
C488 C 0.79633 0.49563 0.24037 0.0
H489 H 0.92303 0.46967 0.28366 0.0
H490 H 0.8946 0.50005 0.28198 0.0
H491 H 0.80396 0.45788 0.21904 0.0
H492 H 0.73123 0.5562 0.24573 0.0
H493 H 0.74505 0.51284 0.24858 0.0
H494 H 0.82976 0.5376 0.32002 0.0
C495 C 0.88093 0.47413 0.27713 0.0
C496 C 0.8093 0.47489 0.24147 0.0
C497 C 0.89722 0.45664 0.27822 0.0
C498 C 0.75572 0.56234 0.25292 0.0
C499 C 0.76363 0.53758 0.25449 0.0
C500 C 0.82379 0.52025 0.29781 0.0
C501 C 0.84752 0.45853 0.26969 0.0
C502 C 0.83048 0.47749 0.27017 0.0
C503 C 0.79508 0.54472 0.26465 0.0
C504 C 0.80427 0.5192 0.26802 0.0
H505 H 0.8334 0.38142 0.25949 0.0
H506 H 0.80508 0.41234 0.25684 0.0
H507 H 0.85238 0.50182 0.32174 0.0
H508 H 0.82977 0.62606 0.27644 0.0
H509 H 0.84319 0.5836 0.27892 0.0
C510 C 0.15288 0.57076 0.78987 0.0
C511 C 0.14468 0.55216 0.7573 0.0
C512 C 0.16907 0.6047 0.78811 0.0
C513 C 0.1794 0.67056 0.72707 0.0
H514 H 0.2489 0.72604 0.79415 0.0
C515 C 0.2109 0.80062 0.76012 0.0
C516 C 0.24361 0.8254 0.75944 0.0
C517 C 0.20239 0.76815 0.75712 0.0
C518 C 0.22978 0.71086 0.77498 0.0
H519 H 0.14725 0.55466 0.69737 0.0
H520 H 0.17523 0.61386 0.69429 0.0
H521 H 0.22772 0.66726 0.79455 0.0
H522 H 0.2931 0.83536 0.75525 0.0
H523 H 0.27805 0.77788 0.75078 0.0
H524 H 0.18071 0.71386 0.70826 0.0
C525 C 0.16924 0.60218 0.72119 0.0
C526 C 0.21746 0.67724 0.77543 0.0
C527 C 0.15341 0.56829 0.72296 0.0
C528 C 0.26772 0.81682 0.75578 0.0
C529 C 0.25913 0.78401 0.75338 0.0
C530 C 0.1914 0.70401 0.72696 0.0
C531 C 0.17707 0.62079 0.75373 0.0
C532 C 0.19186 0.65668 0.75176 0.0
C533 C 0.22631 0.75939 0.75379 0.0
C534 C 0.21639 0.72448 0.75125 0.0
H535 H 0.14673 0.55905 0.81675 0.0
H536 H 0.1745 0.61833 0.81366 0.0
H537 H 0.15953 0.65541 0.7087 0.0
H538 H 0.19164 0.80628 0.76273 0.0
H539 H 0.17695 0.74975 0.75796 0.0
C540 C 0.46629 0.90446 0.76112 0.0
C541 C 0.43591 0.88903 0.77878 0.0
C542 C 0.48553 0.89002 0.76031 0.0
C543 C 0.48269 0.81124 0.77058 0.0
H544 H 0.57576 0.86658 0.78024 0.0
C545 C 0.57411 0.76336 0.77799 0.0
C546 C 0.60285 0.78118 0.75747 0.0
C547 C 0.55211 0.77462 0.78156 0.0
C548 C 0.54983 0.85079 0.77721 0.0
H549 H 0.40198 0.84601 0.80939 0.0
H550 H 0.43601 0.8211 0.80873 0.0
H551 H 0.54087 0.88997 0.78572 0.0
H552 H 0.63031 0.8242 0.72353 0.0
H553 H 0.59214 0.84349 0.72959 0.0
H554 H 0.49196 0.77201 0.76213 0.0
C555 C 0.44471 0.84428 0.79508 0.0
C556 C 0.5298 0.86422 0.7803 0.0
C557 C 0.42537 0.85875 0.79584 0.0
C558 C 0.60858 0.80991 0.73978 0.0
C559 C 0.58677 0.82115 0.74344 0.0
C560 C 0.50282 0.79773 0.76763 0.0
C561 C 0.47508 0.85979 0.77735 0.0
C562 C 0.496 0.84477 0.77642 0.0
C563 C 0.55856 0.80399 0.76487 0.0
C564 C 0.53667 0.81749 0.77029 0.0
H565 H 0.47543 0.92796 0.7481 0.0
H566 H 0.50854 0.90249 0.74592 0.0
H567 H 0.45679 0.79556 0.76718 0.0
H568 H 0.56896 0.74113 0.79196 0.0
H569 H 0.53059 0.76088 0.7983 0.0
C570 C 0.21659 0.40863 0.78124 0.0
C571 C 0.19369 0.41521 0.76499 0.0
C572 C 0.2496 0.43154 0.78024 0.0
C573 C 0.31085 0.5047 0.73012 0.0
H574 H 0.3644 0.51056 0.81399 0.0
C575 C 0.44975 0.59747 0.74035 0.0
C576 C 0.46904 0.5847 0.75305 0.0
C577 C 0.41582 0.57872 0.74137 0.0
C578 C 0.34981 0.5091 0.79026 0.0
H579 H 0.18768 0.45138 0.73514 0.0
H580 H 0.24558 0.49185 0.73392 0.0
H581 H 0.30587 0.47545 0.81762 0.0
H582 H 0.46733 0.54149 0.7753 0.0
H583 H 0.40851 0.5093 0.77778 0.0
H584 H 0.35517 0.53868 0.70297 0.0
C585 C 0.23789 0.46863 0.74701 0.0
C586 C 0.31621 0.4889 0.79228 0.0
C587 C 0.20468 0.44552 0.74789 0.0
C588 C 0.45344 0.55252 0.76616 0.0
C589 C 0.41964 0.53397 0.7675 0.0
C590 C 0.34457 0.52519 0.72823 0.0
C591 C 0.26079 0.46189 0.76319 0.0
C592 C 0.29629 0.48586 0.76198 0.0
C593 C 0.40042 0.54689 0.75543 0.0
C594 C 0.36446 0.5271 0.75804 0.0
H595 H 0.20912 0.38546 0.79438 0.0
H596 H 0.26643 0.42511 0.79229 0.0
H597 H 0.29636 0.50282 0.70613 0.0
H598 H 0.46082 0.62224 0.73045 0.0
H599 H 0.40165 0.58941 0.73205 0.0
C600 C 0.1859 0.19124 0.21907 0.0
C601 C 0.19691 0.18353 0.25148 0.0
C602 C 0.16762 0.20679 0.22114 0.0
C603 C 0.11737 0.22271 0.28708 0.0
H604 H 0.1233 0.28291 0.21086 0.0
C605 C 0.03636 0.28027 0.2913 0.0
C606 C 0.01808 0.27403 0.25877 0.0
C607 C 0.06373 0.27657 0.29171 0.0
C608 C 0.12155 0.26628 0.23246 0.0
H609 H 0.19867 0.18727 0.31134 0.0
H610 H 0.16757 0.21491 0.315 0.0
H611 H 0.15974 0.26081 0.20901 0.0
H612 H 0.01487 0.26133 0.20079 0.0
H613 H 0.06297 0.25577 0.20117 0.0
H614 H 0.079 0.22799 0.31028 0.0
C615 C 0.17199 0.2081 0.28798 0.0
C616 C 0.14221 0.25338 0.23125 0.0
C617 C 0.18987 0.19225 0.28591 0.0
C618 C 0.0288 0.26647 0.22613 0.0
C619 C 0.05636 0.26335 0.22636 0.0
C620 C 0.09699 0.23587 0.28848 0.0
C621 C 0.16035 0.21535 0.25567 0.0
C622 C 0.13997 0.23093 0.25817 0.0
C623 C 0.0734 0.26713 0.25944 0.0
C624 C 0.09842 0.25731 0.26082 0.0
H625 H 0.19094 0.18474 0.19218 0.0
H626 H 0.15867 0.2115 0.19568 0.0
H627 H 0.11449 0.20513 0.30799 0.0
H628 H 0.02819 0.28564 0.31691 0.0
H629 H 0.07654 0.27977 0.31755 0.0
C630 C 0.0123 0.82363 0.29477 0.0
C631 C 0.99374 0.8308 0.27029 0.0
C632 C 0.04594 0.844 0.29698 0.0
C633 C 0.11195 0.92669 0.27139 0.0
H634 H 0.16685 0.88809 0.27438 0.0
C635 C 0.24212 0.99811 0.22503 0.0
C636 C 0.26493 1.00428 0.25303 0.0
C637 C 0.21023 0.97307 0.22891 0.0
C638 C 0.15172 0.89908 0.27389 0.0
H639 H 0.99589 0.8657 0.23008 0.0
H640 H 0.0543 0.90055 0.23306 0.0
H641 H 0.10783 0.85337 0.27982 0.0
H642 H 0.27321 0.98756 0.30552 0.0
H643 H 0.21685 0.94292 0.3121 0.0
H644 H 0.15562 0.97212 0.26391 0.0
C645 C 0.043 0.87948 0.25099 0.0
C646 C 0.118 0.87933 0.27717 0.0
C647 C 1.00947 0.85926 0.24893 0.0
C648 C 0.2561 0.983 0.28339 0.0
C649 C 0.22392 0.95769 0.28726 0.0
C650 C 0.1454 0.94622 0.26766 0.0
C651 C 0.06175 0.87197 0.27475 0.0
C652 C 0.09768 0.89289 0.27518 0.0
C653 C 0.20051 0.95366 0.26083 0.0
C654 C 0.16551 0.93255 0.26812 0.0
H655 H 1.00101 0.80171 0.31134 0.0
H656 H 0.05956 0.83769 0.31588 0.0
H657 H 0.09721 0.9381 0.27075 0.0
H658 H 0.24843 0.01409 0.20125 0.0
H659 H 0.19266 0.97008 0.20795 0.0
C660 C 0.86607 0.00949 0.25424 0.0
C661 C 0.85501 0.02668 0.27548 0.0
C662 C 0.8527 0.97608 0.25882 0.0
C663 C 0.7792 0.90289 0.29349 0.0
H664 H 0.83266 0.86395 0.27756 0.0
C665 C 0.74577 0.76436 0.3036 0.0
C666 C 0.75366 0.75461 0.27038 0.0
C667 C 0.75344 0.79675 0.30816 0.0
C668 C 0.8175 0.87455 0.28229 0.0
H669 H 0.82153 0.02206 0.31893 0.0
H670 H 0.79893 0.96382 0.32779 0.0
H671 H 0.85796 0.92276 0.28058 0.0
H672 H 0.77297 0.76978 0.21506 0.0
H673 H 0.78613 0.82587 0.22299 0.0
H674 H 0.73872 0.85405 0.29519 0.0
C675 C 0.81759 0.97618 0.30706 0.0
C676 C 0.8319 0.90823 0.28374 0.0
C677 C 0.8309 0.00969 0.30234 0.0
C678 C 0.76669 0.77677 0.24093 0.0
C679 C 0.77435 0.80884 0.24548 0.0
C680 C 0.76478 0.86899 0.29248 0.0
C681 C 0.82806 0.95888 0.28505 0.0
C682 C 0.8129 0.92294 0.28825 0.0
C683 C 0.76907 0.81943 0.27956 0.0
C684 C 0.7838 0.85469 0.28588 0.0
H685 H 0.88483 0.0218 0.2336 0.0
H686 H 0.86113 0.96363 0.24095 0.0
H687 H 0.76376 0.91334 0.29677 0.0
H688 H 0.73621 0.74779 0.32687 0.0
H689 H 0.74927 0.80454 0.33472 0.0
C690 C 0.16575 0.1582 0.75286 0.0
C691 C 0.1832 0.19114 0.74264 0.0
C692 C 0.1814 0.14026 0.75665 0.0
C693 C 0.24896 0.13099 0.72927 0.0
H694 H 0.23638 0.0892 0.82499 0.0
C695 C 0.29265 0.03918 0.75897 0.0
C696 C 0.26796 0.01015 0.77427 0.0
C697 C 0.28951 0.06698 0.75845 0.0
C698 C 0.24018 0.10069 0.79811 0.0
H699 H 0.23075 0.23039 0.72643 0.0
H700 H 0.25769 0.19832 0.7316 0.0
H701 H 0.21504 0.12547 0.81395 0.0
H702 H 0.22192 0.98765 0.80308 0.0
H703 H 0.21645 0.03546 0.80241 0.0
H704 H 0.27239 0.10463 0.71265 0.0
C705 C 0.23195 0.18682 0.7372 0.0
C706 C 0.22796 0.12144 0.79185 0.0
C707 C 0.21638 0.20503 0.73399 0.0
C708 C 0.24126 0.00978 0.79101 0.0
C709 C 0.23828 0.03734 0.79085 0.0
C710 C 0.26084 0.10976 0.73536 0.0
C711 C 0.21474 0.15458 0.74964 0.0
C712 C 0.23138 0.136 0.75708 0.0
C713 C 0.26188 0.06609 0.77377 0.0
C714 C 0.25559 0.09353 0.7695 0.0
H715 H 0.14005 0.14641 0.75883 0.0
H716 H 0.16751 0.1152 0.76563 0.0
H717 H 0.25195 0.14209 0.70225 0.0
H718 H 0.31335 0.03989 0.74568 0.0
H719 H 0.3082 0.08884 0.7453 0.0
C720 C 1.01024 0.83936 0.78792 0.0
C721 C 0.02606 0.83647 0.75661 0.0
C722 C 0.97641 0.82428 0.78888 0.0
C723 C 0.90452 0.79041 0.7278 0.0
H724 H 0.8582 0.75302 0.8194 0.0
C725 C 0.76615 0.73651 0.73781 0.0
C726 C 0.75755 0.75017 0.76692 0.0
C727 C 0.79707 0.73982 0.73696 0.0
C728 C 0.8708 0.76326 0.79358 0.0
H729 H 0.01867 0.81479 0.7021 0.0
H730 H 0.95981 0.78855 0.70377 0.0
H731 H 0.91663 0.77454 0.8167 0.0
H732 H 0.77312 0.77568 0.8192 0.0
H733 H 0.82656 0.78103 0.81805 0.0
H734 H 0.85878 0.77975 0.70495 0.0
C735 C 0.97351 0.80295 0.72733 0.0
C736 C 0.90429 0.77579 0.79209 0.0
C737 C 1.00729 0.81809 0.72634 0.0
C738 C 0.77928 0.76504 0.79636 0.0
C739 C 0.80983 0.76794 0.7958 0.0
C740 C 0.871 0.77778 0.72927 0.0
C741 C 0.95763 0.80582 0.75861 0.0
C742 C 0.92167 0.79017 0.75942 0.0
C743 C 0.8195 0.75634 0.76553 0.0
C744 C 0.8539 0.76473 0.76241 0.0
H745 H 0.02402 0.85355 0.81155 0.0
H746 H 0.96501 0.82748 0.81316 0.0
H747 H 0.91714 0.80158 0.70228 0.0
H748 H 0.74983 0.72513 0.7147 0.0
H749 H 0.80383 0.73044 0.71342 0.0
C750 C 0.9881 0.25525 0.79625 0.0
C751 C 1.00631 0.26161 0.7636 0.0
C752 C 0.96121 0.22438 0.80256 0.0
C753 C 0.92658 0.1505 0.81696 0.0
H754 H 0.86299 0.1014 0.74122 0.0
C755 C 0.85261 0.00986 0.81144 0.0
C756 C 0.81981 0.99524 0.80115 0.0
C757 C 0.87244 0.04368 0.81088 0.0
C758 C 0.88034 0.11486 0.76284 0.0
H759 H 1.00994 0.24168 0.71119 0.0
H760 H 0.96246 0.1883 0.72155 0.0
H761 H 0.90133 0.15904 0.73146 0.0
H762 H 0.78208 1.0048 0.78264 0.0
H763 H 0.81664 0.06365 0.78174 0.0
H764 H 0.90626 0.10599 0.84779 0.0
C765 C 0.96895 0.20687 0.74241 0.0
C766 C 0.90236 0.1478 0.75715 0.0
C767 C 0.99611 0.23739 0.73647 0.0
C768 C 0.80713 0.01525 0.79119 0.0
C769 C 0.82699 0.04897 0.79029 0.0
C770 C 0.90479 0.1174 0.82245 0.0
C771 C 0.95179 0.19971 0.77595 0.0
C772 C 0.92598 0.16587 0.78392 0.0
C773 C 0.85997 0.06355 0.79959 0.0
C774 C 0.88168 0.09915 0.79524 0.0
H775 H 0.99585 0.27341 0.81783 0.0
H776 H 0.94832 0.21951 0.8286 0.0
H777 H 0.94475 0.16376 0.8379 0.0
H778 H 0.86306 0.99512 0.81938 0.0
H779 H 0.89784 0.05421 0.81794 0.0
loop_
_geom_bond_atom_site_label_1
_geom_bond_atom_site_label_2
_geom_bond_distance
_geom_bond_site_symmetry_2
_ccdc_geom_bond_type
Tb0 C9 2.764 . S
Tb0 O10 2.325 . S
Tb0 O13 2.303 . S
Tb0 O17 2.322 . S
Tb0 O18 2.349 . S
Tb0 O21 2.415 . S
Tb0 O22 2.399 . S
Tb1 O11 2.322 . S
Tb1 O12 2.349 . S
Tb1 O14 2.415 . S
Tb1 O15 2.399 . S
Tb1 O16 2.325 . S
Tb1 O19 2.303 . S
Tb1 C30 2.764 . S
C2 O18 1.261 . S
C2 O19 1.257 . S
C3 C6 1.358 . S
C3 C7 1.332 . S
C3 C9 1.504 . S
C4 C5 1.373 . S
C4 C8 1.308 . S
C5 C4 1.373 . S
C5 C6 1.429 . S
C5 H32 0.932 . S
C6 C3 1.358 . S
C6 C5 1.429 . S
C6 H33 0.930 . S
C7 C3 1.332 . S
C7 C8 1.394 . S
C7 H34 0.932 . S
C8 C4 1.308 . S
C8 C7 1.394 . S
C8 H35 0.929 . S
C9 Tb0 2.764 . S
C9 C3 1.504 . S
C9 O21 1.239 . S
C9 O22 1.263 . S
O10 Tb0 2.325 . S
O10 C20 1.236 . S
O11 Tb1 2.322 . S
O11 C20 1.257 . S
O12 Tb1 2.349 . S
O12 C23 1.261 . S
O13 Tb0 2.303 . S
O13 C23 1.257 . S
O14 Tb1 2.415 . S
O14 C30 1.239 . S
O15 Tb1 2.399 . S
O15 C30 1.263 . S
O16 Tb1 2.325 . S
O16 C31 1.236 . S
O17 Tb0 2.322 . S
O17 C31 1.257 . S
O18 Tb0 2.349 . S
O18 C2 1.261 . S
O19 Tb1 2.303 . S
O19 C2 1.257 . S
C20 O10 1.236 . S
C20 O11 1.257 . S
O21 Tb0 2.415 . S
O21 C9 1.239 . S
O22 Tb0 2.399 . S
O22 C9 1.263 . S
C23 O12 1.261 . S
C23 O13 1.257 . S
C24 C27 1.358 . S
C24 C28 1.332 . S
C24 C30 1.504 . S
C25 C26 1.373 . S
C25 C29 1.308 . S
C26 C25 1.373 . S
C26 C27 1.429 . S
C26 H36 0.932 . S
C27 C24 1.358 . S
C27 C26 1.429 . S
C27 H37 0.930 . S
C28 C24 1.332 . S
C28 C29 1.394 . S
C28 H38 0.932 . S
C29 C25 1.308 . S
C29 C28 1.394 . S
C29 H39 0.929 . S
C30 Tb1 2.764 . S
C30 O14 1.239 . S
C30 O15 1.263 . S
C30 C24 1.504 . S
C31 O16 1.236 . S
C31 O17 1.257 . S
H32 C5 0.932 . S
H33 C6 0.930 . S
H34 C7 0.932 . S
H35 C8 0.929 . S
H36 C26 0.932 . S
H37 C27 0.930 . S
H38 C28 0.932 . S
H39 C29 0.929 . S
Tb40 C49 2.764 . S
Tb40 O50 2.325 . S
Tb40 O53 2.303 . S
Tb40 O57 2.322 . S
Tb40 O58 2.349 . S
Tb40 O61 2.415 . S
Tb40 O62 2.399 . S
Tb41 O51 2.322 . S
Tb41 O52 2.349 . S
Tb41 O54 2.415 . S
Tb41 O55 2.399 . S
Tb41 O56 2.325 . S
Tb41 O59 2.303 . S
Tb41 C70 2.764 . S
C42 O58 1.261 . S
C42 O59 1.257 . S
C43 C46 1.358 . S
C43 C47 1.332 . S
C43 C49 1.504 . S
C44 C45 1.373 . S
C44 C48 1.308 . S
C45 C44 1.373 . S
C45 C46 1.429 . S
C45 H72 0.932 . S
C46 C43 1.358 . S
C46 C45 1.429 . S
C46 H73 0.930 . S
C47 C43 1.332 . S
C47 C48 1.394 . S
C47 H74 0.932 . S
C48 C44 1.308 . S
C48 C47 1.394 . S
C48 H75 0.929 . S
C49 Tb40 2.764 . S
C49 C43 1.504 . S
C49 O61 1.239 . S
C49 O62 1.263 . S
O50 Tb40 2.325 . S
O50 C60 1.236 . S
O51 Tb41 2.322 . S
O51 C60 1.257 . S
O52 Tb41 2.349 . S
O52 C63 1.261 . S
O53 Tb40 2.303 . S
O53 C63 1.257 . S
O54 Tb41 2.415 . S
O54 C70 1.239 . S
O55 Tb41 2.399 . S
O55 C70 1.263 . S
O56 Tb41 2.325 . S
O56 C71 1.236 . S
O57 Tb40 2.322 . S
O57 C71 1.257 . S
O58 Tb40 2.349 . S
O58 C42 1.261 . S
O59 Tb41 2.303 . S
O59 C42 1.257 . S
C60 O50 1.236 . S
C60 O51 1.257 . S
O61 Tb40 2.415 . S
O61 C49 1.239 . S
O62 Tb40 2.399 . S
O62 C49 1.263 . S
C63 O52 1.261 . S
C63 O53 1.257 . S
C64 C67 1.358 . S
C64 C68 1.332 . S
C64 C70 1.504 . S
C65 C66 1.373 . S
C65 C69 1.308 . S
C66 C65 1.373 . S
C66 C67 1.429 . S
C66 H76 0.932 . S
C67 C64 1.358 . S
C67 C66 1.429 . S
C67 H77 0.930 . S
C68 C64 1.332 . S
C68 C69 1.394 . S
C68 H78 0.932 . S
C69 C65 1.308 . S
C69 C68 1.394 . S
C69 H79 0.929 . S
C70 Tb41 2.764 . S
C70 O54 1.239 . S
C70 O55 1.263 . S
C70 C64 1.504 . S
C71 O56 1.236 . S
C71 O57 1.257 . S
H72 C45 0.932 . S
H73 C46 0.930 . S
H74 C47 0.932 . S
H75 C48 0.929 . S
H76 C66 0.932 . S
H77 C67 0.930 . S
H78 C68 0.932 . S
H79 C69 0.929 . S
Tb80 C89 2.764 . S
Tb80 O90 2.325 . S
Tb80 O93 2.303 . S
Tb80 O97 2.322 . S
Tb80 O98 2.349 . S
Tb80 O101 2.415 . S
Tb80 O102 2.399 . S
Tb81 O91 2.322 . S
Tb81 O92 2.349 . S
Tb81 O94 2.415 . S
Tb81 O95 2.399 . S
Tb81 O96 2.325 . S
Tb81 O99 2.303 . S
Tb81 C110 2.764 . S
C82 O98 1.261 . S
C82 O99 1.257 . S
C83 C86 1.358 . S
C83 C87 1.332 . S
C83 C89 1.504 . S
C84 C85 1.373 . S
C84 C88 1.308 . S
C85 C84 1.373 . S
C85 C86 1.429 . S
C85 H112 0.932 . S
C86 C83 1.358 . S
C86 C85 1.429 . S
C86 H113 0.930 . S
C87 C83 1.332 . S
C87 C88 1.394 . S
C87 H114 0.932 . S
C88 C84 1.308 . S
C88 C87 1.394 . S
C88 H115 0.929 . S
C89 Tb80 2.764 . S
C89 C83 1.504 . S
C89 O101 1.239 . S
C89 O102 1.263 . S
O90 Tb80 2.325 . S
O90 C100 1.236 . S
O91 Tb81 2.322 . S
O91 C100 1.257 . S
O92 Tb81 2.349 . S
O92 C103 1.261 . S
O93 Tb80 2.303 . S
O93 C103 1.257 . S
O94 Tb81 2.415 . S
O94 C110 1.239 . S
O95 Tb81 2.399 . S
O95 C110 1.263 . S
O96 Tb81 2.325 . S
O96 C111 1.236 . S
O97 Tb80 2.322 . S
O97 C111 1.257 . S
O98 Tb80 2.349 . S
O98 C82 1.261 . S
O99 Tb81 2.303 . S
O99 C82 1.257 . S
C100 O90 1.236 . S
C100 O91 1.257 . S
O101 Tb80 2.415 . S
O101 C89 1.239 . S
O102 Tb80 2.399 . S
O102 C89 1.263 . S
C103 O92 1.261 . S
C103 O93 1.257 . S
C104 C107 1.358 . S
C104 C108 1.332 . S
C104 C110 1.504 . S
C105 C106 1.373 . S
C105 C109 1.308 . S
C106 C105 1.373 . S
C106 C107 1.429 . S
C106 H116 0.932 . S
C107 C104 1.358 . S
C107 C106 1.429 . S
C107 H117 0.930 . S
C108 C104 1.332 . S
C108 C109 1.394 . S
C108 H118 0.932 . S
C109 C105 1.308 . S
C109 C108 1.394 . S
C109 H119 0.929 . S
C110 Tb81 2.764 . S
C110 O94 1.239 . S
C110 O95 1.263 . S
C110 C104 1.504 . S
C111 O96 1.236 . S
C111 O97 1.257 . S
H112 C85 0.932 . S
H113 C86 0.930 . S
H114 C87 0.932 . S
H115 C88 0.929 . S
H116 C106 0.932 . S
H117 C107 0.930 . S
H118 C108 0.932 . S
H119 C109 0.929 . S
Tb120 C129 2.764 . S
Tb120 O130 2.325 . S
Tb120 O133 2.303 . S
Tb120 O137 2.322 . S
Tb120 O138 2.349 . S
Tb120 O141 2.415 . S
Tb120 O142 2.399 . S
Tb121 O131 2.322 . S
Tb121 O132 2.349 . S
Tb121 O134 2.415 . S
Tb121 O135 2.399 . S
Tb121 O136 2.325 . S
Tb121 O139 2.303 . S
Tb121 C150 2.764 . S
C122 O138 1.261 . S
C122 O139 1.257 . S
C123 C126 1.358 . S
C123 C127 1.332 . S
C123 C129 1.504 . S
C124 C125 1.373 . S
C124 C128 1.308 . S
C125 C124 1.373 . S
C125 C126 1.429 . S
C125 H152 0.932 . S
C126 C123 1.358 . S
C126 C125 1.429 . S
C126 H153 0.930 . S
C127 C123 1.332 . S
C127 C128 1.394 . S
C127 H154 0.932 . S
C128 C124 1.308 . S
C128 C127 1.394 . S
C128 H155 0.929 . S
C129 Tb120 2.764 . S
C129 C123 1.504 . S
C129 O141 1.239 . S
C129 O142 1.263 . S
O130 Tb120 2.325 . S
O130 C140 1.236 . S
O131 Tb121 2.322 . S
O131 C140 1.257 . S
O132 Tb121 2.349 . S
O132 C143 1.261 . S
O133 Tb120 2.303 . S
O133 C143 1.257 . S
O134 Tb121 2.415 . S
O134 C150 1.239 . S
O135 Tb121 2.399 . S
O135 C150 1.263 . S
O136 Tb121 2.325 . S
O136 C151 1.236 . S
O137 Tb120 2.322 . S
O137 C151 1.257 . S
O138 Tb120 2.349 . S
O138 C122 1.261 . S
O139 Tb121 2.303 . S
O139 C122 1.257 . S
C140 O130 1.236 . S
C140 O131 1.257 . S
O141 Tb120 2.415 . S
O141 C129 1.239 . S
O142 Tb120 2.399 . S
O142 C129 1.263 . S
C143 O132 1.261 . S
C143 O133 1.257 . S
C144 C147 1.358 . S
C144 C148 1.332 . S
C144 C150 1.504 . S
C145 C146 1.373 . S
C145 C149 1.308 . S
C146 C145 1.373 . S
C146 C147 1.429 . S
C146 H156 0.932 . S
C147 C144 1.358 . S
C147 C146 1.429 . S
C147 H157 0.930 . S
C148 C144 1.332 . S
C148 C149 1.394 . S
C148 H158 0.932 . S
C149 C145 1.308 . S
C149 C148 1.394 . S
C149 H159 0.929 . S
C150 Tb121 2.764 . S
C150 O134 1.239 . S
C150 O135 1.263 . S
C150 C144 1.504 . S
C151 O136 1.236 . S
C151 O137 1.257 . S
H152 C125 0.932 . S
H153 C126 0.930 . S
H154 C127 0.932 . S
H155 C128 0.929 . S
H156 C146 0.932 . S
H157 C147 0.930 . S
H158 C148 0.932 . S
H159 C149 0.929 . S
Tb160 C169 2.764 . S
Tb160 O170 2.325 . S
Tb160 O173 2.303 . S
Tb160 O177 2.322 . S
Tb160 O178 2.349 . S
Tb160 O181 2.415 . S
Tb160 O182 2.399 . S
Tb161 O171 2.322 . S
Tb161 O172 2.349 . S
Tb161 O174 2.415 . S
Tb161 O175 2.399 . S
Tb161 O176 2.325 . S
Tb161 O179 2.303 . S
Tb161 C190 2.764 . S
C162 O178 1.261 . S
C162 O179 1.257 . S
C163 C166 1.358 . S
C163 C167 1.332 . S
C163 C169 1.504 . S
C164 C165 1.373 . S
C164 C168 1.308 . S
C165 C164 1.373 . S
C165 C166 1.429 . S
C165 H192 0.932 . S
C166 C163 1.358 . S
C166 C165 1.429 . S
C166 H193 0.930 . S
C167 C163 1.332 . S
C167 C168 1.394 . S
C167 H194 0.932 . S
C168 C164 1.308 . S
C168 C167 1.394 . S
C168 H195 0.929 . S
C169 Tb160 2.764 . S
C169 C163 1.504 . S
C169 O181 1.239 . S
C169 O182 1.263 . S
O170 Tb160 2.325 . S
O170 C180 1.236 . S
O171 Tb161 2.322 . S
O171 C180 1.257 . S
O172 Tb161 2.349 . S
O172 C183 1.261 . S
O173 Tb160 2.303 . S
O173 C183 1.257 . S
O174 Tb161 2.415 . S
O174 C190 1.239 . S
O175 Tb161 2.399 . S
O175 C190 1.263 . S
O176 Tb161 2.325 . S
O176 C191 1.236 . S
O177 Tb160 2.322 . S
O177 C191 1.257 . S
O178 Tb160 2.349 . S
O178 C162 1.261 . S
O179 Tb161 2.303 . S
O179 C162 1.257 . S
C180 O170 1.236 . S
C180 O171 1.257 . S
O181 Tb160 2.415 . S
O181 C169 1.239 . S
O182 Tb160 2.399 . S
O182 C169 1.263 . S
C183 O172 1.261 . S
C183 O173 1.257 . S
C184 C187 1.358 . S
C184 C188 1.332 . S
C184 C190 1.504 . S
C185 C186 1.373 . S
C185 C189 1.308 . S
C186 C185 1.373 . S
C186 C187 1.429 . S
C186 H196 0.932 . S
C187 C184 1.358 . S
C187 C186 1.429 . S
C187 H197 0.930 . S
C188 C184 1.332 . S
C188 C189 1.394 . S
C188 H198 0.932 . S
C189 C185 1.308 . S
C189 C188 1.394 . S
C189 H199 0.929 . S
C190 Tb161 2.764 . S
C190 O174 1.239 . S
C190 O175 1.263 . S
C190 C184 1.504 . S
C191 O176 1.236 . S
C191 O177 1.257 . S
H192 C165 0.932 . S
H193 C166 0.930 . S
H194 C167 0.932 . S
H195 C168 0.929 . S
H196 C186 0.932 . S
H197 C187 0.930 . S
H198 C188 0.932 . S
H199 C189 0.929 . S
Tb200 C209 2.764 . S
Tb200 O210 2.325 . S
Tb200 O213 2.303 . S
Tb200 O217 2.322 . S
Tb200 O218 2.349 . S
Tb200 O221 2.415 . S
Tb200 O222 2.399 . S
Tb201 O211 2.322 . S
Tb201 O212 2.349 . S
Tb201 O214 2.415 . S
Tb201 O215 2.399 . S
Tb201 O216 2.325 . S
Tb201 O219 2.303 . S
Tb201 C230 2.764 . S
C202 O218 1.261 . S
C202 O219 1.257 . S
C203 C206 1.358 . S
C203 C207 1.332 . S
C203 C209 1.504 . S
C204 C205 1.373 . S
C204 C208 1.308 . S
C205 C204 1.373 . S
C205 C206 1.429 . S
C205 H232 0.932 . S
C206 C203 1.358 . S
C206 C205 1.429 . S
C206 H233 0.930 . S
C207 C203 1.332 . S
C207 C208 1.394 . S
C207 H234 0.932 . S
C208 C204 1.308 . S
C208 C207 1.394 . S
C208 H235 0.929 . S
C209 Tb200 2.764 . S
C209 C203 1.504 . S
C209 O221 1.239 . S
C209 O222 1.263 . S
O210 Tb200 2.325 . S
O210 C220 1.236 . S
O211 Tb201 2.322 . S
O211 C220 1.257 . S
O212 Tb201 2.349 . S
O212 C223 1.261 . S
O213 Tb200 2.303 . S
O213 C223 1.257 . S
O214 Tb201 2.415 . S
O214 C230 1.239 . S
O215 Tb201 2.399 . S
O215 C230 1.263 . S
O216 Tb201 2.325 . S
O216 C231 1.236 . S
O217 Tb200 2.322 . S
O217 C231 1.257 . S
O218 Tb200 2.349 . S
O218 C202 1.261 . S
O219 Tb201 2.303 . S
O219 C202 1.257 . S
C220 O210 1.236 . S
C220 O211 1.257 . S
O221 Tb200 2.415 . S
O221 C209 1.239 . S
O222 Tb200 2.399 . S
O222 C209 1.263 . S
C223 O212 1.261 . S
C223 O213 1.257 . S
C224 C227 1.358 . S
C224 C228 1.332 . S
C224 C230 1.504 . S
C225 C226 1.373 . S
C225 C229 1.308 . S
C226 C225 1.373 . S
C226 C227 1.429 . S
C226 H236 0.932 . S
C227 C224 1.358 . S
C227 C226 1.429 . S
C227 H237 0.930 . S
C228 C224 1.332 . S
C228 C229 1.394 . S
C228 H238 0.932 . S
C229 C225 1.308 . S
C229 C228 1.394 . S
C229 H239 0.929 . S
C230 Tb201 2.764 . S
C230 O214 1.239 . S
C230 O215 1.263 . S
C230 C224 1.504 . S
C231 O216 1.236 . S
C231 O217 1.257 . S
H232 C205 0.932 . S
H233 C206 0.930 . S
H234 C207 0.932 . S
H235 C208 0.929 . S
H236 C226 0.932 . S
H237 C227 0.930 . S
H238 C228 0.932 . S
H239 C229 0.929 . S
C240 C241 1.349 . S
C240 C242 1.327 . S
C240 H265 0.950 . S
C241 C240 1.349 . S
C241 C257 1.349 . S
C242 C240 1.327 . S
C242 C261 1.429 . S
C242 H266 0.950 . S
C243 C260 1.574 1_556 S
C243 C262 1.368 1_545 S
C243 H267 0.949 . S
H244 C248 0.949 . S
C245 C246 1.349 . S
C245 C247 1.327 . S
C245 H268 0.950 . S
C246 C245 1.349 . S
C246 C258 1.349 . S
C247 C245 1.327 . S
C247 C263 1.429 . S
C247 H269 0.950 . S
C248 H244 0.949 . S
C248 C256 1.574 1_554 S
C248 C264 1.368 1_565 S
H249 C257 0.950 . S
H250 C255 0.950 . S
H251 C256 0.949 . S
H252 C258 0.950 . S
H253 C259 0.950 . S
H254 C260 0.949 . S
C255 H250 0.950 . S
C255 C257 1.327 . S
C255 C261 1.429 . S
C256 C248 1.574 1_556 S
C256 H251 0.949 . S
C256 C262 1.368 . S
C257 C241 1.349 . S
C257 H249 0.950 . S
C257 C255 1.327 . S
C258 C246 1.349 . S
C258 H252 0.950 . S
C258 C259 1.327 . S
C259 H253 0.950 . S
C259 C258 1.327 . S
C259 C263 1.429 . S
C260 C243 1.574 1_554 S
C260 H254 0.949 . S
C260 C264 1.368 . S
C261 C242 1.429 . S
C261 C255 1.429 . S
C261 C262 1.523 . S
C262 C243 1.368 1_565 S
C262 C256 1.368 . S
C262 C261 1.523 . S
C263 C247 1.429 . S
C263 C259 1.429 . S
C263 C264 1.523 . S
C264 C248 1.368 1_545 S
C264 C260 1.368 . S
C264 C263 1.523 . S
H265 C240 0.950 . S
H266 C242 0.950 . S
H267 C243 0.949 . S
H268 C245 0.950 . S
H269 C247 0.950 . S
C270 C271 1.349 . S
C270 C272 1.327 . S
C270 H295 0.950 . S
C271 C270 1.349 . S
C271 C287 1.349 . S
C272 C270 1.327 . S
C272 C291 1.429 . S
C272 H296 0.950 . S
C273 C290 1.574 . S
C273 C292 1.368 . S
C273 H297 0.949 . S
H274 C278 0.949 . S
C275 C276 1.349 . S
C275 C277 1.327 . S
C275 H298 0.950 . S
C276 C275 1.349 . S
C276 C288 1.349 . S
C277 C275 1.327 . S
C277 C293 1.429 . S
C277 H299 0.950 . S
C278 H274 0.949 . S
C278 C286 1.574 . S
C278 C294 1.368 . S
H279 C287 0.950 . S
H280 C285 0.950 . S
H281 C286 0.949 . S
H282 C288 0.950 . S
H283 C289 0.950 . S
H284 C290 0.949 . S
C285 H280 0.950 . S
C285 C287 1.327 . S
C285 C291 1.429 . S
C286 C278 1.574 . S
C286 H281 0.949 . S
C286 C292 1.368 . S
C287 C271 1.349 . S
C287 H279 0.950 . S
C287 C285 1.327 . S
C288 C276 1.349 . S
C288 H282 0.950 . S
C288 C289 1.327 . S
C289 H283 0.950 . S
C289 C288 1.327 . S
C289 C293 1.429 . S
C290 C273 1.574 . S
C290 H284 0.949 . S
C290 C294 1.368 . S
C291 C272 1.429 . S
C291 C285 1.429 . S
C291 C292 1.523 . S
C292 C273 1.368 . S
C292 C286 1.368 . S
C292 C291 1.523 . S
C293 C277 1.429 . S
C293 C289 1.429 . S
C293 C294 1.523 . S
C294 C278 1.368 . S
C294 C290 1.368 . S
C294 C293 1.523 . S
H295 C270 0.950 . S
H296 C272 0.950 . S
H297 C273 0.949 . S
H298 C275 0.950 . S
H299 C277 0.950 . S
C300 C301 1.349 . S
C300 C302 1.327 . S
C300 H325 0.950 . S
C301 C300 1.349 . S
C301 C317 1.349 . S
C302 C300 1.327 . S
C302 C321 1.429 . S
C302 H326 0.950 . S
C303 C320 1.574 . S
C303 C322 1.368 1_556 S
C303 H327 0.949 . S
H304 C308 0.949 . S
C305 C306 1.349 . S
C305 C307 1.327 . S
C305 H328 0.950 . S
C306 C305 1.349 . S
C306 C318 1.349 . S
C307 C305 1.327 . S
C307 C323 1.429 . S
C307 H329 0.950 . S
C308 H304 0.949 . S
C308 C316 1.574 . S
C308 C324 1.368 1_554 S
H309 C317 0.950 . S
H310 C315 0.950 . S
H311 C316 0.949 . S
H312 C318 0.950 . S
H313 C319 0.950 . S
H314 C320 0.949 . S
C315 H310 0.950 . S
C315 C317 1.327 . S
C315 C321 1.429 . S
C316 C308 1.574 . S
C316 H311 0.949 . S
C316 C322 1.368 1_455 S
C317 C301 1.349 . S
C317 H309 0.950 . S
C317 C315 1.327 . S
C318 C306 1.349 . S
C318 H312 0.950 . S
C318 C319 1.327 . S
C319 H313 0.950 . S
C319 C318 1.327 . S
C319 C323 1.429 . S
C320 C303 1.574 . S
C320 H314 0.949 . S
C320 C324 1.368 1_655 S
C321 C302 1.429 . S
C321 C315 1.429 . S
C321 C322 1.523 . S
C322 C303 1.368 1_554 S
C322 C316 1.368 1_655 S
C322 C321 1.523 . S
C323 C307 1.429 . S
C323 C319 1.429 . S
C323 C324 1.523 . S
C324 C308 1.368 1_556 S
C324 C320 1.368 1_455 S
C324 C323 1.523 . S
H325 C300 0.950 . S
H326 C302 0.950 . S
H327 C303 0.949 . S
H328 C305 0.950 . S
H329 C307 0.950 . S
C330 C331 1.349 . S
C330 C332 1.327 . S
C330 H355 0.950 . S
C331 C330 1.349 . S
C331 C347 1.349 . S
C332 C330 1.327 . S
C332 C351 1.429 . S
C332 H356 0.950 . S
C333 C350 1.574 . S
C333 C352 1.368 1_565 S
C333 H357 0.949 . S
H334 C338 0.949 . S
C335 C336 1.349 . S
C335 C337 1.327 . S
C335 H358 0.950 . S
C336 C335 1.349 . S
C336 C348 1.349 . S
C337 C335 1.327 . S
C337 C353 1.429 . S
C337 H359 0.950 . S
C338 H334 0.949 . S
C338 C346 1.574 . S
C338 C354 1.368 1_545 S
H339 C347 0.950 . S
H340 C345 0.950 . S
H341 C346 0.949 . S
H342 C348 0.950 . S
H343 C349 0.950 . S
H344 C350 0.949 . S
C345 H340 0.950 . S
C345 C347 1.327 . S
C345 C351 1.429 . S
C346 C338 1.574 . S
C346 H341 0.949 . S
C346 C352 1.368 . S
C347 C331 1.349 . S
C347 H339 0.950 . S
C347 C345 1.327 . S
C348 C336 1.349 . S
C348 H342 0.950 . S
C348 C349 1.327 . S
C349 H343 0.950 . S
C349 C348 1.327 . S
C349 C353 1.429 . S
C350 C333 1.574 . S
C350 H344 0.949 . S
C350 C354 1.368 . S
C351 C332 1.429 . S
C351 C345 1.429 . S
C351 C352 1.523 . S
C352 C333 1.368 1_545 S
C352 C346 1.368 . S
C352 C351 1.523 . S
C353 C337 1.429 . S
C353 C349 1.429 . S
C353 C354 1.523 . S
C354 C338 1.368 1_565 S
C354 C350 1.368 . S
C354 C353 1.523 . S
H355 C330 0.950 . S
H356 C332 0.950 . S
H357 C333 0.949 . S
H358 C335 0.950 . S
H359 C337 0.950 . S
C360 C361 1.349 . S
C360 C362 1.327 . S
C360 H385 0.950 . S
C361 C360 1.349 . S
C361 C377 1.349 . S
C362 C360 1.327 . S
C362 C381 1.429 . S
C362 H386 0.950 . S
C363 C380 1.574 . S
C363 C382 1.368 1_554 S
C363 H387 0.949 . S
H364 C368 0.949 . S
C365 C366 1.349 . S
C365 C367 1.327 . S
C365 H388 0.950 . S
C366 C365 1.349 . S
C366 C378 1.349 . S
C367 C365 1.327 . S
C367 C383 1.429 . S
C367 H389 0.950 . S
C368 H364 0.949 . S
C368 C376 1.574 . S
C368 C384 1.368 1_556 S
H369 C377 0.950 . S
H370 C375 0.950 . S
H371 C376 0.949 . S
H372 C378 0.950 . S
H373 C379 0.950 . S
H374 C380 0.949 . S
C375 H370 0.950 . S
C375 C377 1.327 . S
C375 C381 1.429 . S
C376 C368 1.574 . S
C376 H371 0.949 . S
C376 C382 1.368 . S
C377 C361 1.349 . S
C377 H369 0.950 . S
C377 C375 1.327 . S
C378 C366 1.349 . S
C378 H372 0.950 . S
C378 C379 1.327 . S
C379 H373 0.950 . S
C379 C378 1.327 . S
C379 C383 1.429 . S
C380 C363 1.574 . S
C380 H374 0.949 . S
C380 C384 1.368 . S
C381 C362 1.429 . S
C381 C375 1.429 . S
C381 C382 1.523 . S
C382 C363 1.368 1_556 S
C382 C376 1.368 . S
C382 C381 1.523 . S
C383 C367 1.429 . S
C383 C379 1.429 . S
C383 C384 1.523 . S
C384 C368 1.368 1_554 S
C384 C380 1.368 . S
C384 C383 1.523 . S
H385 C360 0.950 . S
H386 C362 0.950 . S
H387 C363 0.949 . S
H388 C365 0.950 . S
H389 C367 0.950 . S
C390 C391 1.349 . S
C390 C392 1.327 . S
C390 H415 0.950 . S
C391 C390 1.349 . S
C391 C407 1.349 . S
C392 C390 1.327 . S
C392 C411 1.429 . S
C392 H416 0.950 . S
C393 C410 1.574 . S
C393 C412 1.368 1_455 S
C393 H417 0.949 . S
H394 C398 0.949 1_655 S
C395 C396 1.349 . S
C395 C397 1.327 . S
C395 H418 0.950 . S
C396 C395 1.349 . S
C396 C408 1.349 . S
C397 C395 1.327 . S
C397 C413 1.429 . S
C397 H419 0.950 . S
C398 H394 0.949 1_455 S
C398 C406 1.573 1_455 S
C398 C414 1.368 . S
H399 C407 0.950 . S
H400 C405 0.950 . S
H401 C406 0.949 . S
H402 C408 0.950 . S
H403 C409 0.950 . S
H404 C410 0.949 . S
C405 H400 0.950 . S
C405 C407 1.327 . S
C405 C411 1.429 . S
C406 C398 1.573 1_655 S
C406 H401 0.949 . S
C406 C412 1.368 . S
C407 C391 1.349 . S
C407 H399 0.950 . S
C407 C405 1.327 . S
C408 C396 1.349 . S
C408 H402 0.950 . S
C408 C409 1.327 . S
C409 H403 0.950 . S
C409 C408 1.327 . S
C409 C413 1.429 . S
C410 C393 1.574 . S
C410 H404 0.949 . S
C410 C414 1.368 . S
C411 C392 1.429 . S
C411 C405 1.429 . S
C411 C412 1.523 . S
C412 C393 1.368 1_655 S
C412 C406 1.368 . S
C412 C411 1.523 . S
C413 C397 1.429 . S
C413 C409 1.429 . S
C413 C414 1.523 . S
C414 C398 1.368 . S
C414 C410 1.368 . S
C414 C413 1.523 . S
H415 C390 0.950 . S
H416 C392 0.950 . S
H417 C393 0.949 . S
H418 C395 0.950 . S
H419 C397 0.950 . S
C420 C421 1.349 . S
C420 C422 1.327 . S
C420 H445 0.950 . S
C421 C420 1.349 . S
C421 C437 1.349 . S
C422 C420 1.327 . S
C422 C441 1.429 . S
C422 H446 0.950 . S
C423 C440 1.574 . S
C423 C442 1.368 . S
C423 H447 0.949 . S
H424 C428 0.949 . S
C425 C426 1.349 . S
C425 C427 1.327 . S
C425 H448 0.950 . S
C426 C425 1.349 . S
C426 C438 1.349 . S
C427 C425 1.327 . S
C427 C443 1.429 . S
C427 H449 0.950 . S
C428 H424 0.949 . S
C428 C436 1.574 . S
C428 C444 1.368 . S
H429 C437 0.950 . S
H430 C435 0.950 . S
H431 C436 0.949 . S
H432 C438 0.950 . S
H433 C439 0.950 . S
H434 C440 0.949 . S
C435 H430 0.950 . S
C435 C437 1.327 . S
C435 C441 1.429 . S
C436 C428 1.574 . S
C436 H431 0.949 . S
C436 C442 1.368 . S
C437 C421 1.349 . S
C437 H429 0.950 . S
C437 C435 1.327 . S
C438 C426 1.349 . S
C438 H432 0.950 . S
C438 C439 1.327 . S
C439 H433 0.950 . S
C439 C438 1.327 . S
C439 C443 1.429 . S
C440 C423 1.574 . S
C440 H434 0.949 . S
C440 C444 1.368 . S
C441 C422 1.429 . S
C441 C435 1.429 . S
C441 C442 1.523 . S
C442 C423 1.368 . S
C442 C436 1.368 . S
C442 C441 1.523 . S
C443 C427 1.429 . S
C443 C439 1.429 . S
C443 C444 1.523 . S
C444 C428 1.368 . S
C444 C440 1.368 . S
C444 C443 1.523 . S
H445 C420 0.950 . S
H446 C422 0.950 . S
H447 C423 0.949 . S
H448 C425 0.950 . S
H449 C427 0.950 . S
C450 C451 1.349 . S
C450 C452 1.327 . S
C450 H475 0.950 . S
C451 C450 1.349 . S
C451 C467 1.349 . S
C452 C450 1.327 . S
C452 C471 1.429 . S
C452 H476 0.950 . S
C453 C470 1.574 . S
C453 C472 1.368 . S
C453 H477 0.949 . S
H454 C458 0.949 . S
C455 C456 1.349 . S
C455 C457 1.327 . S
C455 H478 0.950 . S
C456 C455 1.349 . S
C456 C468 1.349 . S
C457 C455 1.327 . S
C457 C473 1.429 . S
C457 H479 0.950 . S
C458 H454 0.949 . S
C458 C466 1.574 . S
C458 C474 1.368 . S
H459 C467 0.950 . S
H460 C465 0.950 . S
H461 C466 0.949 . S
H462 C468 0.950 . S
H463 C469 0.950 . S
H464 C470 0.949 . S
C465 H460 0.950 . S
C465 C467 1.327 . S
C465 C471 1.429 . S
C466 C458 1.574 . S
C466 H461 0.949 . S
C466 C472 1.368 . S
C467 C451 1.349 . S
C467 H459 0.950 . S
C467 C465 1.327 . S
C468 C456 1.349 . S
C468 H462 0.950 . S
C468 C469 1.327 . S
C469 H463 0.950 . S
C469 C468 1.327 . S
C469 C473 1.429 . S
C470 C453 1.574 . S
C470 H464 0.949 . S
C470 C474 1.368 . S
C471 C452 1.429 . S
C471 C465 1.429 . S
C471 C472 1.523 . S
C472 C453 1.368 . S
C472 C466 1.368 . S
C472 C471 1.523 . S
C473 C457 1.429 . S
C473 C469 1.429 . S
C473 C474 1.523 . S
C474 C458 1.368 . S
C474 C470 1.368 . S
C474 C473 1.523 . S
H475 C450 0.950 . S
H476 C452 0.950 . S
H477 C453 0.949 . S
H478 C455 0.950 . S
H479 C457 0.950 . S
C480 C481 1.349 . S
C480 C482 1.327 . S
C480 H505 0.950 . S
C481 C480 1.349 . S
C481 C497 1.349 . S
C482 C480 1.327 . S
C482 C501 1.429 . S
C482 H506 0.950 . S
C483 C500 1.574 . S
C483 C502 1.368 . S
C483 H507 0.949 . S
H484 C488 0.949 . S
C485 C486 1.349 . S
C485 C487 1.327 . S
C485 H508 0.950 . S
C486 C485 1.349 . S
C486 C498 1.349 . S
C487 C485 1.327 . S
C487 C503 1.429 . S
C487 H509 0.950 . S
C488 H484 0.949 . S
C488 C496 1.574 . S
C488 C504 1.368 . S
H489 C497 0.950 . S
H490 C495 0.950 . S
H491 C496 0.949 . S
H492 C498 0.950 . S
H493 C499 0.950 . S
H494 C500 0.949 . S
C495 H490 0.950 . S
C495 C497 1.327 . S
C495 C501 1.429 . S
C496 C488 1.574 . S
C496 H491 0.949 . S
C496 C502 1.368 . S
C497 C481 1.349 . S
C497 H489 0.950 . S
C497 C495 1.327 . S
C498 C486 1.349 . S
C498 H492 0.950 . S
C498 C499 1.327 . S
C499 H493 0.950 . S
C499 C498 1.327 . S
C499 C503 1.429 . S
C500 C483 1.574 . S
C500 H494 0.949 . S
C500 C504 1.368 . S
C501 C482 1.429 . S
C501 C495 1.429 . S
C501 C502 1.523 . S
C502 C483 1.368 . S
C502 C496 1.368 . S
C502 C501 1.523 . S
C503 C487 1.429 . S
C503 C499 1.429 . S
C503 C504 1.523 . S
C504 C488 1.368 . S
C504 C500 1.368 . S
C504 C503 1.523 . S
H505 C480 0.950 . S
H506 C482 0.950 . S
H507 C483 0.949 . S
H508 C485 0.950 . S
H509 C487 0.950 . S
C510 C511 1.349 . S
C510 C512 1.327 . S
C510 H535 0.950 . S
C511 C510 1.349 . S
C511 C527 1.349 . S
C512 C510 1.327 . S
C512 C531 1.429 . S
C512 H536 0.950 . S
C513 C530 1.574 . S
C513 C532 1.368 . S
C513 H537 0.949 . S
H514 C518 0.949 . S
C515 C516 1.349 . S
C515 C517 1.327 . S
C515 H538 0.950 . S
C516 C515 1.349 . S
C516 C528 1.349 . S
C517 C515 1.327 . S
C517 C533 1.429 . S
C517 H539 0.950 . S
C518 H514 0.949 . S
C518 C526 1.574 . S
C518 C534 1.368 . S
H519 C527 0.950 . S
H520 C525 0.950 . S
H521 C526 0.949 . S
H522 C528 0.950 . S
H523 C529 0.950 . S
H524 C530 0.949 . S
C525 H520 0.950 . S
C525 C527 1.327 . S
C525 C531 1.429 . S
C526 C518 1.574 . S
C526 H521 0.949 . S
C526 C532 1.368 . S
C527 C511 1.349 . S
C527 H519 0.950 . S
C527 C525 1.327 . S
C528 C516 1.349 . S
C528 H522 0.950 . S
C528 C529 1.327 . S
C529 H523 0.950 . S
C529 C528 1.327 . S
C529 C533 1.429 . S
C530 C513 1.574 . S
C530 H524 0.949 . S
C530 C534 1.368 . S
C531 C512 1.429 . S
C531 C525 1.429 . S
C531 C532 1.523 . S
C532 C513 1.368 . S
C532 C526 1.368 . S
C532 C531 1.523 . S
C533 C517 1.429 . S
C533 C529 1.429 . S
C533 C534 1.523 . S
C534 C518 1.368 . S
C534 C530 1.368 . S
C534 C533 1.523 . S
H535 C510 0.950 . S
H536 C512 0.950 . S
H537 C513 0.949 . S
H538 C515 0.950 . S
H539 C517 0.950 . S
C540 C541 1.349 . S
C540 C542 1.327 . S
C540 H565 0.950 . S
C541 C540 1.349 . S
C541 C557 1.349 . S
C542 C540 1.327 . S
C542 C561 1.429 . S
C542 H566 0.950 . S
C543 C560 1.574 . S
C543 C562 1.368 . S
C543 H567 0.949 . S
H544 C548 0.949 . S
C545 C546 1.349 . S
C545 C547 1.327 . S
C545 H568 0.950 . S
C546 C545 1.349 . S
C546 C558 1.349 . S
C547 C545 1.327 . S
C547 C563 1.429 . S
C547 H569 0.950 . S
C548 H544 0.949 . S
C548 C556 1.574 . S
C548 C564 1.368 . S
H549 C557 0.950 . S
H550 C555 0.950 . S
H551 C556 0.949 . S
H552 C558 0.950 . S
H553 C559 0.950 . S
H554 C560 0.949 . S
C555 H550 0.950 . S
C555 C557 1.327 . S
C555 C561 1.429 . S
C556 C548 1.574 . S
C556 H551 0.949 . S
C556 C562 1.368 . S
C557 C541 1.349 . S
C557 H549 0.950 . S
C557 C555 1.327 . S
C558 C546 1.349 . S
C558 H552 0.950 . S
C558 C559 1.327 . S
C559 H553 0.950 . S
C559 C558 1.327 . S
C559 C563 1.429 . S
C560 C543 1.574 . S
C560 H554 0.949 . S
C560 C564 1.368 . S
C561 C542 1.429 . S
C561 C555 1.429 . S
C561 C562 1.523 . S
C562 C543 1.368 . S
C562 C556 1.368 . S
C562 C561 1.523 . S
C563 C547 1.429 . S
C563 C559 1.429 . S
C563 C564 1.523 . S
C564 C548 1.368 . S
C564 C560 1.368 . S
C564 C563 1.523 . S
H565 C540 0.950 . S
H566 C542 0.950 . S
H567 C543 0.949 . S
H568 C545 0.950 . S
H569 C547 0.950 . S
C570 C571 1.349 . S
C570 C572 1.327 . S
C570 H595 0.950 . S
C571 C570 1.349 . S
C571 C587 1.349 . S
C572 C570 1.327 . S
C572 C591 1.429 . S
C572 H596 0.950 . S
C573 C590 1.574 . S
C573 C592 1.368 . S
C573 H597 0.949 . S
H574 C578 0.949 . S
C575 C576 1.349 . S
C575 C577 1.327 . S
C575 H598 0.950 . S
C576 C575 1.349 . S
C576 C588 1.349 . S
C577 C575 1.327 . S
C577 C593 1.429 . S
C577 H599 0.950 . S
C578 H574 0.949 . S
C578 C586 1.574 . S
C578 C594 1.368 . S
H579 C587 0.950 . S
H580 C585 0.950 . S
H581 C586 0.949 . S
H582 C588 0.950 . S
H583 C589 0.950 . S
H584 C590 0.949 . S
C585 H580 0.950 . S
C585 C587 1.327 . S
C585 C591 1.429 . S
C586 C578 1.574 . S
C586 H581 0.949 . S
C586 C592 1.368 . S
C587 C571 1.349 . S
C587 H579 0.950 . S
C587 C585 1.327 . S
C588 C576 1.349 . S
C588 H582 0.950 . S
C588 C589 1.327 . S
C589 H583 0.950 . S
C589 C588 1.327 . S
C589 C593 1.429 . S
C590 C573 1.574 . S
C590 H584 0.949 . S
C590 C594 1.368 . S
C591 C572 1.429 . S
C591 C585 1.429 . S
C591 C592 1.523 . S
C592 C573 1.368 . S
C592 C586 1.368 . S
C592 C591 1.523 . S
C593 C577 1.429 . S
C593 C589 1.429 . S
C593 C594 1.523 . S
C594 C578 1.368 . S
C594 C590 1.368 . S
C594 C593 1.523 . S
H595 C570 0.950 . S
H596 C572 0.950 . S
H597 C573 0.949 . S
H598 C575 0.950 . S
H599 C577 0.950 . S
C600 C601 1.349 . S
C600 C602 1.327 . S
C600 H625 0.950 . S
C601 C600 1.349 . S
C601 C617 1.349 . S
C602 C600 1.327 . S
C602 C621 1.429 . S
C602 H626 0.950 . S
C603 C620 1.574 . S
C603 C622 1.368 . S
C603 H627 0.949 . S
H604 C608 0.949 . S
C605 C606 1.349 . S
C605 C607 1.327 . S
C605 H628 0.950 . S
C606 C605 1.349 . S
C606 C618 1.349 . S
C607 C605 1.327 . S
C607 C623 1.429 1_655 S
C607 H629 0.950 . S
C608 H604 0.949 . S
C608 C616 1.574 . S
C608 C624 1.368 . S
H609 C617 0.950 . S
H610 C615 0.950 . S
H611 C616 0.949 . S
H612 C618 0.950 . S
H613 C619 0.950 . S
H614 C620 0.949 . S
C615 H610 0.950 . S
C615 C617 1.327 . S
C615 C621 1.429 . S
C616 C608 1.574 . S
C616 H611 0.949 . S
C616 C622 1.368 . S
C617 C601 1.349 . S
C617 H609 0.950 . S
C617 C615 1.327 . S
C618 C606 1.349 . S
C618 H612 0.950 . S
C618 C619 1.327 1_655 S
C619 H613 0.950 . S
C619 C618 1.327 1_455 S
C619 C623 1.429 . S
C620 C603 1.574 . S
C620 H614 0.949 . S
C620 C624 1.368 . S
C621 C602 1.429 . S
C621 C615 1.429 . S
C621 C622 1.523 . S
C622 C603 1.368 . S
C622 C616 1.368 . S
C622 C621 1.523 . S
C623 C607 1.429 1_455 S
C623 C619 1.429 . S
C623 C624 1.523 . S
C624 C608 1.368 . S
C624 C620 1.368 . S
C624 C623 1.523 . S
H625 C600 0.950 . S
H626 C602 0.950 . S
H627 C603 0.949 . S
H628 C605 0.950 . S
H629 C607 0.950 . S
C630 C631 1.377 . S
C630 C632 1.294 1_655 S
C630 H655 0.956 . S
C631 C630 1.377 . S
C631 C647 1.349 . S
C632 C630 1.294 1_455 S
C632 C651 1.429 . S
C632 H656 0.950 . S
C633 C650 1.574 . S
C633 C652 1.368 . S
C633 H657 0.949 . S
H634 C638 0.949 . S
C635 C636 1.349 . S
C635 C637 1.327 . S
C635 H658 0.950 . S
C636 C635 1.349 . S
C636 C648 1.349 . S
C637 C635 1.327 . S
C637 C653 1.429 1_545 S
C637 H659 0.950 . S
C638 H634 0.949 . S
C638 C646 1.574 . S
C638 C654 1.368 . S
H639 C647 0.950 . S
H640 C645 0.950 . S
H641 C646 0.949 . S
H642 C648 0.950 . S
H643 C649 0.950 . S
H644 C650 0.949 . S
C645 H640 0.950 . S
C645 C647 1.327 1_455 S
C645 C651 1.429 . S
C646 C638 1.574 . S
C646 H641 0.949 . S
C646 C652 1.368 . S
C647 C631 1.349 . S
C647 H639 0.950 . S
C647 C645 1.327 1_655 S
C648 C636 1.349 . S
C648 H642 0.950 . S
C648 C649 1.327 1_545 S
C649 H643 0.950 . S
C649 C648 1.327 1_565 S
C649 C653 1.429 . S
C650 C633 1.574 . S
C650 H644 0.949 . S
C650 C654 1.368 . S
C651 C632 1.429 . S
C651 C645 1.429 . S
C651 C652 1.523 . S
C652 C633 1.368 . S
C652 C646 1.368 . S
C652 C651 1.523 . S
C653 C637 1.429 1_565 S
C653 C649 1.429 . S
C653 C654 1.523 . S
C654 C638 1.368 . S
C654 C650 1.368 . S
C654 C653 1.523 . S
H655 C630 0.956 . S
H656 C632 0.950 . S
H657 C633 0.949 . S
H658 C635 0.950 . S
H659 C637 0.950 . S
C660 C661 1.349 . S
C660 C662 1.327 1_545 S
C660 H685 0.950 . S
C661 C660 1.349 . S
C661 C677 1.359 . S
C662 C660 1.327 1_565 S
C662 C681 1.429 . S
C662 H686 0.950 . S
C663 C680 1.574 . S
C663 C682 1.368 . S
C663 H687 0.949 . S
H664 C668 0.949 . S
C665 C666 1.349 . S
C665 C667 1.327 . S
C665 H688 0.950 . S
C666 C665 1.349 . S
C666 C678 1.349 . S
C667 C665 1.327 . S
C667 C683 1.429 . S
C667 H689 0.950 . S
C668 H664 0.949 . S
C668 C676 1.574 . S
C668 C684 1.368 . S
H669 C677 0.973 . S
H670 C675 0.950 . S
H671 C676 0.949 . S
H672 C678 0.950 . S
H673 C679 0.950 . S
H674 C680 0.949 . S
C675 H670 0.950 . S
C675 C677 1.295 1_565 S
C675 C681 1.429 . S
C676 C668 1.574 . S
C676 H671 0.949 . S
C676 C682 1.368 . S
C677 C661 1.359 . S
C677 H669 0.973 . S
C677 C675 1.295 1_545 S
C678 C666 1.349 . S
C678 H672 0.950 . S
C678 C679 1.327 . S
C679 H673 0.950 . S
C679 C678 1.327 . S
C679 C683 1.429 . S
C680 C663 1.574 . S
C680 H674 0.949 . S
C680 C684 1.368 . S
C681 C662 1.429 . S
C681 C675 1.429 . S
C681 C682 1.523 . S
C682 C663 1.368 . S
C682 C676 1.368 . S
C682 C681 1.523 . S
C683 C667 1.429 . S
C683 C679 1.429 . S
C683 C684 1.523 . S
C684 C668 1.368 . S
C684 C680 1.368 . S
C684 C683 1.523 . S
H685 C660 0.950 . S
H686 C662 0.950 . S
H687 C663 0.949 . S
H688 C665 0.950 . S
H689 C667 0.950 . S
C690 C691 1.349 . S
C690 C692 1.327 . S
C690 H715 0.950 . S
C691 C690 1.349 . S
C691 C707 1.349 . S
C692 C690 1.327 . S
C692 C711 1.429 . S
C692 H716 0.950 . S
C693 C710 1.574 . S
C693 C712 1.368 . S
C693 H717 0.949 . S
H694 C698 0.949 . S
C695 C696 1.349 . S
C695 C697 1.327 1_565 S
C695 H718 0.950 . S
C696 C695 1.349 . S
C696 C708 1.349 . S
C697 C695 1.327 1_545 S
C697 C713 1.429 . S
C697 H719 0.950 . S
C698 H694 0.949 . S
C698 C706 1.574 . S
C698 C714 1.368 . S
H699 C707 0.950 . S
H700 C705 0.950 . S
H701 C706 0.949 . S
H702 C708 0.950 . S
H703 C709 0.950 . S
H704 C710 0.949 . S
C705 H700 0.950 . S
C705 C707 1.327 . S
C705 C711 1.429 . S
C706 C698 1.574 . S
C706 H701 0.949 . S
C706 C712 1.368 . S
C707 C691 1.349 . S
C707 H699 0.950 . S
C707 C705 1.327 . S
C708 C696 1.349 . S
C708 H702 0.950 . S
C708 C709 1.327 . S
C709 H703 0.950 . S
C709 C708 1.327 . S
C709 C713 1.429 1_565 S
C710 C693 1.574 . S
C710 H704 0.949 . S
C710 C714 1.368 . S
C711 C692 1.429 . S
C711 C705 1.429 . S
C711 C712 1.523 . S
C712 C693 1.368 . S
C712 C706 1.368 . S
C712 C711 1.523 . S
C713 C697 1.429 . S
C713 C709 1.429 1_545 S
C713 C714 1.523 . S
C714 C698 1.368 . S
C714 C710 1.368 . S
C714 C713 1.523 . S
H715 C690 0.950 . S
H716 C692 0.950 . S
H717 C693 0.949 . S
H718 C695 0.950 . S
H719 C697 0.950 . S
C720 C721 1.349 . S
C720 C722 1.327 1_455 S
C720 H745 0.950 . S
C721 C720 1.349 . S
C721 C737 1.349 . S
C722 C720 1.327 1_655 S
C722 C741 1.429 . S
C722 H746 0.950 . S
C723 C740 1.574 . S
C723 C742 1.368 . S
C723 H747 0.949 . S
H724 C728 0.949 . S
C725 C726 1.349 . S
C725 C727 1.327 . S
C725 H748 0.950 . S
C726 C725 1.349 . S
C726 C738 1.349 . S
C727 C725 1.327 . S
C727 C743 1.429 . S
C727 H749 0.950 . S
C728 H724 0.949 . S
C728 C736 1.574 . S
C728 C744 1.368 . S
H729 C737 0.950 . S
H730 C735 0.950 . S
H731 C736 0.949 . S
H732 C738 0.950 . S
H733 C739 0.950 . S
H734 C740 0.949 . S
C735 H730 0.950 . S
C735 C737 1.327 1_655 S
C735 C741 1.429 . S
C736 C728 1.574 . S
C736 H731 0.949 . S
C736 C742 1.368 . S
C737 C721 1.349 . S
C737 H729 0.950 . S
C737 C735 1.327 1_455 S
C738 C726 1.349 . S
C738 H732 0.950 . S
C738 C739 1.327 . S
C739 H733 0.950 . S
C739 C738 1.327 . S
C739 C743 1.429 . S
C740 C723 1.574 . S
C740 H734 0.949 . S
C740 C744 1.368 . S
C741 C722 1.429 . S
C741 C735 1.429 . S
C741 C742 1.523 . S
C742 C723 1.368 . S
C742 C736 1.368 . S
C742 C741 1.523 . S
C743 C727 1.429 . S
C743 C739 1.429 . S
C743 C744 1.523 . S
C744 C728 1.368 . S
C744 C740 1.368 . S
C744 C743 1.523 . S
H745 C720 0.950 . S
H746 C722 0.950 . S
H747 C723 0.949 . S
H748 C725 0.950 . S
H749 C727 0.950 . S
C750 C751 1.349 . S
C750 C752 1.327 1_455 S
C750 H775 0.950 . S
C751 C750 1.349 . S
C751 C767 1.349 . S
C752 C750 1.327 1_655 S
C752 C771 1.429 . S
C752 H776 0.950 . S
C753 C770 1.574 . S
C753 C772 1.368 . S
C753 H777 0.949 . S
H754 C758 0.949 . S
C755 C756 1.349 . S
C755 C757 1.327 1_565 S
C755 H778 0.950 . S
C756 C755 1.349 . S
C756 C768 1.376 . S
C757 C755 1.327 1_545 S
C757 C773 1.429 . S
C757 H779 0.950 . S
C758 H754 0.949 . S
C758 C766 1.574 . S
C758 C774 1.368 . S
H759 C767 0.950 . S
H760 C765 0.950 . S
H761 C766 0.949 . S
H762 C768 0.955 . S
H763 C769 0.950 . S
H764 C770 0.949 . S
C765 H760 0.950 . S
C765 C767 1.327 . S
C765 C771 1.429 1_455 S
C766 C758 1.574 . S
C766 H761 0.949 . S
C766 C772 1.368 . S
C767 C751 1.349 . S
C767 H759 0.950 . S
C767 C765 1.327 . S
C768 C756 1.376 . S
C768 H762 0.955 . S
C768 C769 1.297 1_565 S
C769 H763 0.950 . S
C769 C768 1.297 1_545 S
C769 C773 1.429 . S
C770 C753 1.574 . S
C770 H764 0.949 . S
C770 C774 1.368 . S
C771 C752 1.429 . S
C771 C765 1.429 1_655 S
C771 C772 1.523 . S
C772 C753 1.368 . S
C772 C766 1.368 . S
C772 C771 1.523 . S
C773 C757 1.429 . S
C773 C769 1.429 . S
C773 C774 1.523 . S
C774 C758 1.368 . S
C774 C770 1.368 . S
C774 C773 1.523 . S
H775 C750 0.950 . S
H776 C752 0.950 . S
H777 C753 0.949 . S
H778 C755 0.950 . S
H779 C757 0.950 . S
C241 C162 2.358 . S
C246 C2 2.409 . S
C271 C223 2.409 . S
C276 C63 2.358 . S
C301 C82 2.409 . S
C306 C122 2.358 . S
C331 C23 2.358 . S
C336 C183 2.409 . S
C361 C202 2.358 . S
C366 C42 2.409 . S
C391 C103 2.358 . S
C396 C143 2.409 . S
C421 C25 1.776 . S
C426 C111 1.779 . S
C451 C65 1.775 . S
C456 C31 1.778 . S
C481 C105 1.775 . S
C486 C71 1.779 . S
C511 C124 1.776 . S
C516 C180 1.779 . S
C541 C164 1.775 . S
C546 C220 1.779 . S
C571 C140 1.778 . S
C576 C204 1.775 . S
C601 C4 0.836 . S
C606 C100 0.835 . S
C631 C44 0.836 . S
C636 C20 0.835 . S
C661 C84 0.836 . S
C666 C60 0.835 . S
C691 C145 0.836 . S
C696 C191 0.835 . S
C721 C185 0.836 . S
C726 C231 0.835 . S
C751 C151 0.835 . S
C756 C225 0.836 . S
