# Generated by pormake.
# Topology snk, (6)-cn, num edge types: 1
# Building blocks:
#     Node 0, Type 0, BuildingBlock: PAMTUU_clean_sbu_0, # of connection points: 6
#     Node 1, Type 0, BuildingBlock: PAMTUU_clean_sbu_0, # of connection points: 6
#     Node 2, Type 0, BuildingBlock: PAMTUU_clean_sbu_0, # of connection points: 6
#     Node 3, Type 0, BuildingBlock: PAMTUU_clean_sbu_0, # of connection points: 6
#     Node 4, Type 0, BuildingBlock: PAMTUU_clean_sbu_0, # of connection points: 6
#     Node 5, Type 0, BuildingBlock: PAMTUU_clean_sbu_0, # of connection points: 6
#     Node 6, Type 0, BuildingBlock: PAMTUU_clean_sbu_0, # of connection points: 6
#     Node 7, Type 0, BuildingBlock: PAMTUU_clean_sbu_0, # of connection points: 6
#     Edge 8, Type (0, 0), BuildingBlock: EZIPEK_clean_linker_0, # of connection points: 2
#     Edge 9, Type (0, 0), BuildingBlock: EZIPEK_clean_linker_0, # of connection points: 2
#     Edge 10, Type (0, 0), BuildingBlock: EZIPEK_clean_linker_0, # of connection points: 2
#     Edge 11, Type (0, 0), BuildingBlock: EZIPEK_clean_linker_0, # of connection points: 2
#     Edge 12, Type (0, 0), BuildingBlock: EZIPEK_clean_linker_0, # of connection points: 2
#     Edge 13, Type (0, 0), BuildingBlock: EZIPEK_clean_linker_0, # of connection points: 2
#     Edge 14, Type (0, 0), BuildingBlock: EZIPEK_clean_linker_0, # of connection points: 2
#     Edge 15, Type (0, 0), BuildingBlock: EZIPEK_clean_linker_0, # of connection points: 2
#     Edge 16, Type (0, 0), BuildingBlock: EZIPEK_clean_linker_0, # of connection points: 2
#     Edge 17, Type (0, 0), BuildingBlock: EZIPEK_clean_linker_0, # of connection points: 2
#     Edge 18, Type (0, 0), BuildingBlock: EZIPEK_clean_linker_0, # of connection points: 2
#     Edge 19, Type (0, 0), BuildingBlock: EZIPEK_clean_linker_0, # of connection points: 2
#     Edge 20, Type (0, 0), BuildingBlock: EZIPEK_clean_linker_0, # of connection points: 2
#     Edge 21, Type (0, 0), BuildingBlock: EZIPEK_clean_linker_0, # of connection points: 2
#     Edge 22, Type (0, 0), BuildingBlock: EZIPEK_clean_linker_0, # of connection points: 2
#     Edge 23, Type (0, 0), BuildingBlock: EZIPEK_clean_linker_0, # of connection points: 2
#     Edge 24, Type (0, 0), BuildingBlock: EZIPEK_clean_linker_0, # of connection points: 2
#     Edge 25, Type (0, 0), BuildingBlock: EZIPEK_clean_linker_0, # of connection points: 2
#     Edge 26, Type (0, 0), BuildingBlock: EZIPEK_clean_linker_0, # of connection points: 2
#     Edge 27, Type (0, 0), BuildingBlock: EZIPEK_clean_linker_0, # of connection points: 2
#     Edge 28, Type (0, 0), BuildingBlock: EZIPEK_clean_linker_0, # of connection points: 2
#     Edge 29, Type (0, 0), BuildingBlock: EZIPEK_clean_linker_0, # of connection points: 2
#     Edge 30, Type (0, 0), BuildingBlock: EZIPEK_clean_linker_0, # of connection points: 2
#     Edge 31, Type (0, 0), BuildingBlock: EZIPEK_clean_linker_0, # of connection points: 2
# Relax obj value: 0.116
# Max RMSD: 0.156
# Mean RMSD: 0.156
data_MOF--net-snk--node1-PAMTUU_clean_sbu_0--edge1-EZIPEK_clean_linker_0
_symmetry_space_group_name_H-M    P1
_symmetry_Int_Tables_number       1
_symmetry_cell_setting            triclinic
loop_
_symmetry_equiv_pos_as_xyz
'x, y, z'
_cell_length_a     27.691223
_cell_length_b     27.575539
_cell_length_c     20.750233
_cell_angle_alpha  90.052082
_cell_angle_beta   89.741453
_cell_angle_gamma 89.817451
loop_
_atom_site_label
_atom_site_type_symbol
_atom_site_fract_x
_atom_site_fract_y
_atom_site_fract_z
_atom_type_partial_charge
Tb0 Tb -0.01433 0.02255 0.60574 0.0
Tb1 Tb -0.01531 0.94875 0.4746 0.0
C2 C 0.92116 0.04698 0.48465 0.0
C3 C -0.00514 0.05489 0.77748 0.0
C4 C -0.00476 0.02449 0.90719 0.0
C5 C -0.01394 0.07322 0.89164 0.0
C6 C -0.01415 0.0883 0.82716 0.0
C7 C 0.00448 0.00624 0.79309 0.0
C8 C 0.00473 -0.00883 0.85748 0.0
C9 C -0.00837 0.07017 0.70954 0.0
O10 O 0.93325 0.96735 0.62844 0.0
O11 O 0.93528 0.91388 0.54159 0.0
O12 O 0.02276 0.9058 0.54437 0.0
O13 O 0.03929 0.96556 0.61978 0.0
O14 O 0.94661 0.91333 0.40103 0.0
O15 O 0.02442 0.91464 0.40054 0.0
O16 O 0.04876 -0.00635 0.47259 0.0
O17 O 0.02281 0.06045 0.52869 0.0
O18 O 0.93316 0.05737 0.54424 0.0
O19 O 0.93892 0.01018 0.45194 0.0
C20 C 0.91989 0.92753 0.59901 0.0
O21 O 0.02864 0.05955 0.67296 0.0
O22 O 0.95102 0.05995 0.68121 0.0
C23 C 0.04453 0.92148 0.59629 0.0
C24 C -0.01415 0.92248 0.30015 0.0
C25 C -0.01068 0.95682 0.17222 0.0
C26 C 0.01351 0.91391 0.18922 0.0
C27 C 0.01177 0.89686 0.25276 0.0
C28 C 0.96187 0.96563 0.28306 0.0
C29 C 0.96349 0.98257 0.21953 0.0
C30 C -0.01427 0.90505 0.36749 0.0
C31 C 0.05074 0.04004 0.48522 0.0
H32 H 0.97849 0.09937 0.92938 0.0
H33 H 0.978 0.12588 0.81603 0.0
H34 H 0.01121 0.97982 0.75542 0.0
H35 H 0.01172 0.95341 0.86855 0.0
H36 H 0.03365 0.89365 0.15326 0.0
H37 H 0.03086 0.86379 0.26501 0.0
H38 H 0.94208 -0.01362 0.31884 0.0
H39 H 0.94475 0.01583 0.20727 0.0
Tb40 Tb 0.19391 0.73412 0.861 0.0
Tb41 Tb 0.26496 0.73026 0.72991 0.0
C42 C 0.1678 0.67229 0.74044 0.0
C43 C 0.1648 0.73157 1.03452 0.0
C44 C 0.19653 0.72569 0.16333 0.0
C45 C 0.15457 0.70133 0.14394 0.0
C46 C 0.13879 0.70431 0.07996 0.0
C47 C 0.20712 0.75552 0.05401 0.0
C48 C 0.22274 0.75271 0.11794 0.0
C49 C 0.14835 0.73381 0.96683 0.0
O50 O 0.23793 0.66898 0.86318 0.0
O51 O 0.30437 0.69415 0.80635 0.0
O52 O 0.29428 0.78816 0.78878 0.0
O53 O 0.26044 0.76975 0.88765 0.0
O54 O 0.30329 0.6887 0.66162 0.0
O55 O 0.2991 0.76657 0.6534 0.0
O56 O 0.20122 0.77148 0.70441 0.0
O57 O 0.17322 0.79665 0.80383 0.0
O58 O 0.15074 0.70108 0.78565 0.0
O59 O 0.21369 0.67095 0.72449 0.0
C60 C 0.28425 0.66685 0.85072 0.0
O61 O 0.15928 0.77304 0.93503 0.0
O62 O 0.15592 0.69506 0.93223 0.0
C63 C 0.29125 0.7938 0.85164 0.0
C64 C 0.29523 0.72189 0.55728 0.0
C65 C 0.26333 0.71985 0.4284 0.0
C66 C 0.31157 0.73108 0.44266 0.0
C67 C 0.3274 0.73209 0.50669 0.0
C68 C 0.24707 0.7102 0.54301 0.0
C69 C 0.23129 0.70904 0.47902 0.0
C70 C 0.31117 0.7262 0.62475 0.0
C71 C 0.17423 0.79964 0.74073 0.0
H72 H 0.13398 0.68026 0.1784 0.0
H73 H 0.10633 0.68526 0.06592 0.0
H74 H 0.22827 0.77629 1.01983 0.0
H75 H 0.25531 0.77155 0.13202 0.0
H76 H 0.33674 0.73968 0.40424 0.0
H77 H 0.36455 0.74156 0.51679 0.0
H78 H 0.22155 0.70266 0.58144 0.0
H79 H 0.19392 0.70045 0.46897 0.0
Tb80 Tb 0.48299 0.95337 0.10292 0.0
Tb81 Tb 0.47529 0.02183 0.97192 0.0
C82 C 0.54318 0.93153 0.97712 0.0
C83 C 0.47982 0.92269 0.27509 0.0
C84 C 0.47042 0.95468 0.40355 0.0
C85 C 0.4914 0.90937 0.3898 0.0
C86 C 0.49609 0.8935 0.32592 0.0
C87 C 0.45831 0.96779 0.28892 0.0
C88 C 0.45356 0.98363 0.35273 0.0
C89 C 0.48723 0.90719 0.20778 0.0
O90 O 0.51305 0.02299 0.128 0.0
O91 O 0.53644 0.04885 1.02729 0.0
O92 O 0.439 0.06139 0.04788 0.0
O93 O 0.41789 -0.00277 0.11126 0.0
O94 O 0.50935 0.05972 0.89691 0.0
O95 O 0.43171 0.05609 0.90232 0.0
O96 O 0.41397 0.97283 0.97537 0.0
O97 O 0.44845 0.90965 1.02967 0.0
O98 O 0.54355 0.93294 1.04054 0.0
O99 O 0.51215 0.95619 0.94276 0.0
C100 C 0.53945 0.05036 0.09046 0.0
O101 O 0.44913 0.90842 0.17106 0.0
O102 O 0.52477 0.9258 0.17894 0.0
C103 C 0.41028 0.04168 0.09091 0.0
C104 C 0.46723 0.0512 0.79881 0.0
C105 C 0.46415 0.02082 0.66912 0.0
C106 C 0.43687 0.06103 0.68966 0.0
C107 C 0.43849 0.07617 0.75412 0.0
C108 C 0.49385 0.01045 0.77823 0.0
C109 C 0.49246 -0.00446 0.71385 0.0
C110 C 0.46886 0.06738 0.86669 0.0
C111 C 0.41661 0.92644 0.98859 0.0
H112 H 0.50473 0.88669 0.42847 0.0
H113 H 0.51301 0.85877 0.31614 0.0
H114 H 0.44578 -0.00899 0.25029 0.0
H115 H 0.43739 0.01871 0.36248 0.0
H116 H 0.41478 0.08089 0.65569 0.0
H117 H 0.41744 0.10744 0.76905 0.0
H118 H 0.51587 -0.00983 0.81184 0.0
H119 H 0.51357 0.96434 0.69882 0.0
Tb120 Tb 0.27549 0.23518 0.36954 0.0
Tb121 Tb 0.20559 0.23491 0.23863 0.0
C122 C 0.29768 0.29947 0.24832 0.0
C123 C 0.30608 0.23361 0.54251 0.0
C124 C 0.2767 0.22898 0.67258 0.0
C125 C 0.32195 0.21062 0.65362 0.0
C126 C 0.33653 0.21292 0.58894 0.0
C127 C 0.26065 0.25166 0.56159 0.0
C128 C 0.24612 0.2494 0.62613 0.0
C129 C 0.32156 0.23587 0.47441 0.0
O130 O 0.20746 0.26889 0.39609 0.0
O131 O 0.18316 0.29651 0.29691 0.0
O132 O 0.16463 0.19778 0.31285 0.0
O133 O 0.22873 0.17215 0.3746 0.0
O134 O 0.17261 0.27355 0.16351 0.0
O135 O 0.16614 0.19585 0.16958 0.0
O136 O 0.25452 0.17367 0.23234 0.0
O137 O 0.31806 0.19904 0.2952 0.0
O138 O 0.29685 0.29742 0.31156 0.0
O139 O 0.27178 0.27078 0.21209 0.0
C140 C 0.18127 0.29768 0.36011 0.0
O141 O 0.31442 0.19687 0.44027 0.0
O142 O 0.30903 0.27484 0.44304 0.0
C143 C 0.18319 0.16979 0.3576 0.0
C144 C 0.17706 0.2299 0.0666 0.0
C145 C 0.21068 0.22623 0.93839 0.0
C146 C 0.16094 0.22896 0.95157 0.0
C147 C 0.14423 0.23086 1.01536 0.0
C148 C 0.22679 0.22634 0.05339 0.0
C149 C 0.24349 0.2246 0.9897 0.0
C150 C 0.15983 0.23407 0.13362 0.0
C151 C 0.30004 0.17188 0.24923 0.0
H152 H 0.34597 0.19474 0.68893 0.0
H153 H 0.37159 0.19865 0.57517 0.0
H154 H 0.23643 0.26765 0.52665 0.0
H155 H 0.21108 0.26369 0.63995 0.0
H156 H 0.13519 0.23028 0.91246 0.0
H157 H 0.1058 0.23361 1.02467 0.0
H158 H 0.2527 0.22547 0.09235 0.0
H159 H 0.28196 0.22247 0.98037 0.0
Tb160 Tb 0.69841 0.23309 0.35312 0.0
Tb161 Tb 0.77025 0.23425 0.22144 0.0
C162 C 0.66849 0.17674 0.2291 0.0
C163 C 0.67303 0.23245 0.52809 0.0
C164 C 0.70654 0.22834 0.65623 0.0
C165 C 0.6655 0.20205 0.63781 0.0
C166 C 0.64886 0.20412 0.57418 0.0
C167 C 0.71441 0.25843 0.54661 0.0
C168 C 0.73091 0.25646 0.6102 0.0
C169 C 0.65558 0.23371 0.4608 0.0
O170 O 0.74231 0.16762 0.35083 0.0
O171 O 0.80835 0.19734 0.29812 0.0
O172 O 0.79606 0.29337 0.28155 0.0
O173 O 0.76536 0.26807 0.37936 0.0
O174 O 0.80886 0.19156 0.15472 0.0
O175 O 0.80856 0.26952 0.14755 0.0
O176 O 0.71327 0.28321 0.19615 0.0
O177 O 0.66724 0.28833 0.28985 0.0
O178 O 0.6544 0.19615 0.28376 0.0
O179 O 0.71202 0.18248 0.2042 0.0
C180 C 0.7889 0.16755 0.33986 0.0
O181 O 0.66556 0.27273 0.42782 0.0
O182 O 0.66284 0.19451 0.42689 0.0
C183 C 0.79399 0.29542 0.34477 0.0
C184 C 0.80406 0.22571 0.05075 0.0
C185 C 0.77369 0.22441 0.92119 0.0
C186 C 0.82241 0.23258 0.93635 0.0
C187 C 0.83749 0.23323 1.00077 0.0
C188 C 0.75541 0.21722 1.03551 0.0
C189 C 0.74036 0.21648 0.97124 0.0
C190 C 0.81925 0.22889 0.11866 0.0
C191 C 0.67698 0.30051 0.22961 0.0
H192 H 0.64629 0.18014 0.67276 0.0
H193 H 0.61714 0.18357 0.56091 0.0
H194 H 0.73411 0.28016 0.51195 0.0
H195 H 0.76269 0.27688 0.62357 0.0
H196 H 0.84857 0.23895 0.89835 0.0
H197 H 0.87507 0.24017 1.01159 0.0
H198 H 0.72896 0.2117 0.0734 0.0
H199 H 0.70263 0.2103 0.9605 0.0
Tb200 Tb 0.76448 0.73717 0.85524 0.0
Tb201 Tb 0.69592 0.73684 0.72432 0.0
C202 C 0.78965 0.7983 0.73263 0.0
C203 C 0.79594 0.73309 1.02691 0.0
C204 C 0.76516 0.72986 0.1563 0.0
C205 C 0.81404 0.73759 0.14124 0.0
C206 C 0.82933 0.73921 0.07685 0.0
C207 C 0.74713 0.72491 1.042 0.0
C208 C 0.73186 0.72326 0.10629 0.0
C209 C 0.81153 0.73692 0.95924 0.0
O210 O 0.69897 0.77572 0.87987 0.0
O211 O 0.67816 0.80203 0.77872 0.0
O212 O 0.65125 0.7049 0.79944 0.0
O213 O 0.7128 0.67833 0.86522 0.0
O214 O 0.66132 0.77576 0.65087 0.0
O215 O 0.65899 0.69771 0.6526 0.0
O216 O 0.73976 0.67151 0.72435 0.0
O217 O 0.80507 0.69897 0.78102 0.0
O218 O 0.78692 0.79817 0.79585 0.0
O219 O 0.76467 0.76817 0.69722 0.0
C220 C 0.67521 0.80503 0.84172 0.0
O221 O 0.80479 0.69847 0.92381 0.0
O222 O 0.79775 0.77623 0.92965 0.0
C223 C 0.66745 0.67791 0.84688 0.0
C224 C 0.66742 0.73515 0.55108 0.0
C225 C 0.69923 0.73143 0.42205 0.0
C226 C 0.65544 0.70966 0.44007 0.0
C227 C 0.63962 0.71157 0.50424 0.0
C228 C 0.71151 0.75648 0.53293 0.0
C229 C 0.72719 0.75477 0.46885 0.0
C230 C 0.65083 0.73661 0.61873 0.0
C231 C 0.78575 0.66953 0.73864 0.0
H232 H 0.84015 0.74289 0.17931 0.0
H233 H 0.86707 0.74575 0.06602 0.0
H234 H 0.7208 0.72034 1.00401 0.0
H235 H 0.69402 0.71738 0.11709 0.0
H236 H 0.63349 0.6915 0.4044 0.0
H237 H 0.6057 0.69466 0.51731 0.0
H238 H 0.73387 0.77446 0.56826 0.0
H239 H 0.7611 0.77165 0.45571 0.0
Tb240 Tb 0.47926 0.52244 0.10929 0.0
Tb241 Tb 0.48324 0.45159 0.97835 0.0
C242 C 0.41394 0.54099 0.98958 0.0
C243 C 0.47272 0.55228 0.28177 0.0
C244 C 0.4713 0.52008 0.41069 0.0
C245 C 0.47505 0.56976 0.39661 0.0
C246 C 0.47577 0.58574 0.33252 0.0
C247 C 0.46837 0.50263 0.29585 0.0
C248 C 0.46763 0.48665 0.35986 0.0
C249 C 0.47605 0.56878 0.21435 0.0
O250 O 0.42137 0.46977 0.11679 0.0
O251 O 0.45084 0.40735 0.05379 0.0
O252 O 0.54728 0.43536 1.03457 0.0
O253 O 0.51926 0.45783 0.13461 0.0
O254 O 0.44644 0.41179 0.9071 0.0
O255 O 0.52394 0.41807 0.90517 0.0
O256 O 0.51446 0.52035 0.95092 0.0
O257 O 0.53821 0.54972 0.04984 0.0
O258 O 0.44028 0.56121 1.03468 0.0
O259 O 0.41798 0.49504 0.97437 0.0
C260 C 0.42285 0.42384 0.10027 0.0
O261 O 0.51598 0.55725 0.18451 0.0
O262 O 0.43836 0.56052 0.17855 0.0
C263 C 0.54934 0.43361 0.09768 0.0
C264 C 0.48347 0.42183 0.80522 0.0
C265 C 0.47778 0.45336 0.67613 0.0
C266 C 0.45619 0.40957 0.69502 0.0
C267 C 0.45904 0.39391 0.75916 0.0
C268 C 0.50475 0.46586 0.78618 0.0
C269 C 0.50201 0.48141 0.72214 0.0
C270 C 0.48562 0.40552 0.87305 0.0
C271 C 0.54073 0.54915 0.98656 0.0
H272 H 0.47801 0.59602 0.43524 0.0
H273 H 0.47931 0.62413 0.32256 0.0
H274 H 0.46616 0.4762 0.25728 0.0
H275 H 0.46481 0.4482 0.36979 0.0
H276 H 0.43732 0.38751 0.66008 0.0
H277 H 0.44213 0.36005 0.77283 0.0
H278 H 0.52346 0.48835 0.82079 0.0
H279 H 0.51877 0.51533 0.70842 0.0
Tb280 Tb 0.98051 0.44563 0.61623 0.0
Tb281 Tb 0.9786 0.5176 0.48385 0.0
C282 C 0.04514 0.42408 0.49032 0.0
C283 C 0.97898 0.41739 0.79066 0.0
C284 C 0.97361 0.45144 0.91885 0.0
C285 C 0.01257 0.42236 0.89872 0.0
C286 C 0.01523 0.40551 0.83512 0.0
C287 C 0.9396 0.44595 0.81128 0.0
C288 C 0.93704 0.46294 0.87479 0.0
C289 C -0.0161 0.40154 0.72272 0.0
O290 O 0.01487 0.51357 0.64053 0.0
O291 O 0.03877 0.54269 0.54143 0.0
O292 O 0.94001 0.55577 0.5597 0.0
O293 O 0.91659 0.49107 0.62249 0.0
O294 O 0.01328 0.55764 0.41127 0.0
O295 O 0.93564 0.5543 0.41596 0.0
O296 O 0.92666 0.45981 0.46838 0.0
O297 O 0.94125 0.40241 0.54771 0.0
O298 O 0.03572 0.41597 0.55177 0.0
O299 O 0.02531 0.45879 0.45643 0.0
C300 C 0.04171 0.54167 0.6045 0.0
O301 O 0.94535 0.40407 0.68693 0.0
O302 O 0.02203 0.41722 0.69214 0.0
C303 C 0.9132 0.53669 0.60533 0.0
C304 C 0.97175 0.551 0.31308 0.0
C305 C 0.96982 0.52106 0.18316 0.0
C306 C 0.9552 0.56822 0.20035 0.0
C307 C 0.95625 0.58312 0.26496 0.0
C308 C -0.01422 0.50369 0.29588 0.0
C309 C -0.01499 0.48891 0.23144 0.0
C310 C 0.973 0.5664 0.38113 0.0
C311 C 0.92073 0.4166 0.49406 0.0
H312 H 0.0411 0.41311 0.93212 0.0
H313 H 0.04594 0.38364 0.82041 0.0
H314 H 0.91104 0.45571 0.77822 0.0
H315 H 0.90674 0.48538 0.88948 0.0
H316 H 0.9432 0.59344 0.16373 0.0
H317 H 0.94503 0.61964 0.27734 0.0
H318 H -0.0025 0.47822 0.33229 0.0
H319 H -0.00374 0.45237 0.21917 0.0
C320 C 0.09111 0.07003 0.38367 0.0
C321 C 0.08764 0.06982 0.45215 0.0
C322 C 0.14651 0.13551 0.45848 0.0
C323 C 0.15169 0.13429 0.39036 0.0
N324 N 0.13861 0.09225 0.28997 0.0
N325 N 0.12305 0.09147 0.55424 0.0
C326 C 0.12682 0.09913 0.35342 0.0
C327 C 0.11862 0.09935 0.48947 0.0
N328 N 0.05933 0.04404 0.34717 0.0
N329 N 0.16645 0.17224 0.4936 0.0
H330 H 0.10502 0.06361 0.57823 0.0
H331 H 0.1487 0.10879 0.58265 0.0
H332 H 0.18677 0.19993 0.47312 0.0
H333 H 0.15917 0.17768 0.5424 0.0
H334 H 0.05652 0.04778 0.29738 0.0
H335 H 0.03284 0.02163 0.36656 0.0
H336 H 0.12535 0.06371 0.26238 0.0
H337 H 0.16544 0.11208 0.26649 0.0
C338 C 0.12799 0.90205 0.63476 0.0
C339 C 0.07861 0.88879 0.62963 0.0
C340 C 0.0909 0.82268 0.70622 0.0
C341 C 0.14098 0.8333 0.70765 0.0
N342 N 0.20887 0.87895 0.66734 0.0
N343 N 0.01657 0.82852 0.64656 0.0
C344 C 0.16005 0.87184 0.67013 0.0
C345 C 0.0611 0.84668 0.66099 0.0
N346 N 0.14431 0.9433 0.60538 0.0
N347 N 0.07136 0.79007 0.74842 0.0
H348 H -0.00714 0.84497 0.61451 0.0
H349 H 0.00466 0.79472 0.66231 0.0
H350 H 0.09156 0.77122 0.78232 0.0
H351 H 0.03428 0.78517 0.754 0.0
H352 H 0.17804 0.95842 0.61419 0.0
H353 H 0.12331 0.96377 0.57382 0.0
H354 H 0.22556 0.90249 0.63507 0.0
H355 H 0.23328 0.85909 0.69493 0.0
C356 C 0.3377 0.8726 0.85729 0.0
C357 C 0.32539 0.82707 0.88451 0.0
C358 C 0.36682 0.85015 0.98353 0.0
C359 C 0.3852 0.89221 0.95286 0.0
N360 N 0.40025 0.93279 0.85082 0.0
N361 N 0.34465 0.767 0.96541 0.0
C362 C 0.37434 0.90047 0.88676 0.0
C363 C 0.34478 0.81407 0.94534 0.0
N364 N 0.31343 0.89062 0.80541 0.0
N365 N 0.36841 0.84504 0.04892 0.0
H366 H 0.33445 0.73875 0.9351 0.0
H367 H 0.36117 0.75576 1.00797 0.0
H368 H 0.38031 0.8724 0.07961 0.0
H369 H 0.35206 0.81606 0.07272 0.0
H370 H 0.31943 0.92546 0.78758 0.0
H371 H 0.28346 0.8736 0.78559 0.0
H372 H 0.39523 0.93689 0.80133 0.0
H373 H 0.43082 0.95037 0.86802 0.0
C374 C 0.36903 0.12224 0.10781 0.0
C375 C 0.37351 0.07266 0.12469 0.0
C376 C 0.32932 0.08837 0.22541 0.0
C377 C 0.33128 0.13866 0.21214 0.0
N378 N 0.35956 0.20435 0.1456 0.0
N379 N 0.33487 0.00709 0.18199 0.0
C380 C 0.35309 0.15584 0.15477 0.0
C381 C 0.34737 0.05493 0.17892 0.0
N382 N 0.37487 0.13642 0.04519 0.0
N383 N 0.31098 0.07279 0.28303 0.0
H384 H 0.33937 0.98363 0.14299 0.0
H385 H 0.31331 -0.00759 0.21821 0.0
H386 H 0.29742 0.09664 0.31782 0.0
H387 H 0.31322 0.03702 0.29877 0.0
H388 H 0.36825 0.17164 1.02929 0.0
H389 H 0.37851 0.1115 1.00763 0.0
H390 H 0.37954 0.21865 0.10746 0.0
H391 H 0.34969 0.22977 0.18018 0.0
C392 C 0.83841 0.88906 0.6109 0.0
C393 C 0.88604 0.89562 0.6341 0.0
C394 C 0.87136 0.83633 0.71956 0.0
C395 C 0.82253 0.8327 0.69989 0.0
N396 N 0.75666 0.86483 0.63687 0.0
N397 N 0.94362 0.88485 0.72059 0.0
C398 C 0.80518 0.86148 0.64809 0.0
C399 C 0.9011 0.87247 0.6918 0.0
N400 N 0.82456 0.90982 0.55407 0.0
N401 N 0.89047 0.80343 0.7617 0.0
H402 H 0.96818 0.90918 0.70074 0.0
H403 H 0.95305 0.87314 0.76662 0.0
H404 H 0.87085 0.77468 0.78099 0.0
H405 H 0.92724 0.80149 0.77197 0.0
H406 H 0.79231 0.90139 0.53103 0.0
H407 H 0.84654 0.93332 0.5278 0.0
H408 H 0.74156 0.88873 0.6037 0.0
H409 H 0.73091 0.84758 0.6655 0.0
C410 C 0.89809 0.09289 0.38546 0.0
C411 C 0.88743 0.07958 0.44997 0.0
C412 C 0.81439 0.12941 0.44539 0.0
C413 C 0.82104 0.13532 0.37772 0.0
N414 N 0.86394 0.11003 0.28142 0.0
N415 N 0.82844 0.07673 0.53639 0.0
C416 C 0.86129 0.1132 0.34703 0.0
C417 C 0.8435 0.0953 0.47872 0.0
N418 N 0.94392 0.08857 0.3617 0.0
N419 N 0.78263 0.15798 0.47888 0.0
H420 H 0.8473 0.04981 0.56104 0.0
H421 H 0.79451 0.08436 0.556 0.0
H422 H 0.76348 0.18637 0.45797 0.0
H423 H 0.77996 0.15734 0.52901 0.0
H424 H 0.9539 0.10095 0.31609 0.0
H425 H 0.97287 0.07879 0.39084 0.0
H426 H 0.89126 0.09083 0.25774 0.0
H427 H 0.83597 0.12121 0.25135 0.0
C428 C 0.64818 0.09508 0.18393 0.0
C429 C 0.63465 0.14422 0.19476 0.0
C430 C 0.56042 0.13254 0.13238 0.0
C431 C 0.57384 0.08358 0.1218 0.0
N432 N 0.63107 0.01815 0.13143 0.0
N433 N 0.57324 0.20688 0.19169 0.0
C434 C 0.61791 0.06478 0.14602 0.0
C435 C 0.58943 0.16219 0.17257 0.0
N436 N 0.68822 0.07665 0.21385 0.0
N437 N 0.52067 0.15115 0.10215 0.0
H438 H 0.59357 0.2309 0.21899 0.0
H439 H 0.5382 0.21934 0.1842 0.0
H440 H 0.49845 0.13045 0.07263 0.0
H441 H 0.5119 0.18787 0.10145 0.0
H442 H 0.69838 0.04034 0.21295 0.0
H443 H 0.70995 0.09704 0.24449 0.0
H444 H 0.66476 0.00318 0.14106 0.0
H445 H 0.60888 -0.00545 0.1059 0.0
C446 C 0.66025 0.87707 0.91266 0.0
C447 C 0.64179 0.8404 0.87153 0.0
C448 C 0.55929 0.86108 0.90399 0.0
C449 C 0.57741 0.89956 0.9423 0.0
N450 N 0.64386 0.95087 0.97265 0.0
N451 N 0.57358 0.80327 0.81848 0.0
C452 C 0.62762 0.90937 0.94401 0.0
C453 C 0.59128 0.83449 0.86379 0.0
N454 N 0.70897 0.88116 0.92151 0.0
N455 N 0.51183 0.84807 0.90857 0.0
H456 H 0.59518 0.78082 0.79014 0.0
H457 H 0.53735 0.80225 0.80526 0.0
H458 H 0.48727 0.86602 0.93807 0.0
H459 H 0.49769 0.81668 0.88817 0.0
H460 H 0.72431 0.90284 0.95701 0.0
H461 H 0.73423 0.861 0.89528 0.0
H462 H 0.67949 0.96266 0.96993 0.0
H463 H 0.62079 0.97606 0.99432 0.0
C464 C 0.61213 0.56306 0.915 0.0
C465 C 0.57395 0.58255 0.95297 0.0
C466 C 0.59815 0.6649 0.92332 0.0
C467 C 0.63382 0.6453 0.88129 0.0
N468 N 0.67009 0.57608 0.82883 0.0
N469 N 0.52525 0.65119 0.98531 0.0
C470 C 0.63953 0.59442 0.87481 0.0
C471 C 0.5655 0.63326 0.9551 0.0
N472 N 0.62325 0.5148 0.91913 0.0
N473 N 0.59656 0.71365 0.93485 0.0
H474 H 0.50083 0.62942 1.01018 0.0
H475 H 0.51394 0.68712 0.98154 0.0
H476 H 0.61931 0.73804 0.91186 0.0
H477 H 0.57538 0.72953 0.97075 0.0
H478 H 0.65375 0.4993 0.89792 0.0
H479 H 0.60434 0.49077 0.94862 0.0
H480 H 0.67193 0.53945 0.81686 0.0
H481 H 0.69074 0.59799 0.79849 0.0
C482 C 0.63977 0.3834 0.21779 0.0
C483 C 0.6447 0.33487 0.19563 0.0
C484 C 0.586 0.35074 0.11019 0.0
C485 C 0.58398 0.4002 0.12895 0.0
N486 N 0.61696 0.46595 0.19141 0.0
N487 N 0.63112 0.27609 0.11032 0.0
C488 C 0.61296 0.41721 0.18045 0.0
C489 C 0.62083 0.31982 0.13842 0.0
N490 N 0.66146 0.39759 0.27369 0.0
N491 N 0.55265 0.33202 0.06867 0.0
H492 H 0.65324 0.24982 0.13079 0.0
H493 H 0.61963 0.26694 0.06412 0.0
H494 H 0.52517 0.35238 0.04791 0.0
H495 H 0.54903 0.29496 0.06011 0.0
H496 H 0.65409 0.43047 0.29648 0.0
H497 H 0.68492 0.37539 0.29938 0.0
H498 H 0.64111 0.48095 0.22411 0.0
H499 H 0.59978 0.49195 0.16304 0.0
C500 C 0.90463 0.33933 0.43365 0.0
C501 C 0.88715 0.38326 0.46098 0.0
C502 C 0.80721 0.36791 0.41486 0.0
C503 C 0.82676 0.32781 0.38047 0.0
N504 N 0.89556 0.27868 0.35035 0.0
N505 N 0.82194 0.44021 0.47821 0.0
C506 C 0.87592 0.31453 0.38781 0.0
C507 C 0.83845 0.39786 0.45156 0.0
N508 N 0.94806 0.32046 0.45238 0.0
N509 N 0.75856 0.37658 0.41381 0.0
H510 H 0.84184 0.46042 0.51122 0.0
H511 H 0.78921 0.45635 0.46596 0.0
H512 H 0.73471 0.35644 0.3859 0.0
H513 H 0.7412 0.40149 0.44374 0.0
H514 H 0.95975 0.28577 0.43977 0.0
H515 H 0.97113 0.33764 0.4845 0.0
H516 H 0.93245 0.27129 0.34838 0.0
H517 H 0.87577 0.25918 0.31666 0.0
C518 C 0.81664 0.63159 0.63611 0.0
C519 C 0.8167 0.63387 0.70463 0.0
C520 C 0.88199 0.5741 0.70784 0.0
C521 C 0.87871 0.56845 0.63994 0.0
N522 N 0.83525 0.58362 0.54143 0.0
N523 N 0.84083 0.59819 0.80577 0.0
C524 C 0.84369 0.59473 0.60461 0.0
C525 C 0.84687 0.60246 0.7406 0.0
N526 N 0.79285 0.66589 0.60074 0.0
N527 N 0.91984 0.55449 0.74094 0.0
H528 H 0.81419 0.61697 0.83136 0.0
H529 H 0.85874 0.57216 0.83322 0.0
H530 H 0.94695 0.534 0.71908 0.0
H531 H 0.92666 0.56229 0.78919 0.0
H532 H 0.79602 0.6687 0.55083 0.0
H533 H 0.77375 0.69457 0.6213 0.0
H534 H 0.80667 0.59828 0.51529 0.0
H535 H 0.85368 0.55609 0.51699 0.0
C536 C 0.38105 0.32814 0.22011 0.0
C537 C 0.33023 0.33378 0.21514 0.0
C538 C 0.34074 0.39355 0.12883 0.0
C539 C 0.39146 0.39006 0.13634 0.0
N540 N 0.46041 0.3587 0.19373 0.0
N541 N 0.26148 0.37746 0.17397 0.0
C542 C 0.41177 0.35858 0.18319 0.0
C543 C 0.31 0.36807 0.17197 0.0
N544 N 0.40006 0.2922 0.25775 0.0
N545 N 0.32207 0.42012 0.07913 0.0
H546 H 0.23807 0.3602 0.20607 0.0
H547 H 0.24501 0.40537 0.14837 0.0
H548 H 0.34363 0.43913 0.04649 0.0
H549 H 0.28569 0.42004 0.0667 0.0
H550 H 0.43622 0.2818 0.25639 0.0
H551 H 0.37924 0.2701 0.28743 0.0
H552 H 0.47682 0.34214 0.23306 0.0
H553 H 0.48441 0.37769 0.16482 0.0
C554 C 0.34232 0.59647 0.98838 0.0
C555 C 0.37862 0.57086 0.95401 0.0
C556 C 0.34517 0.59993 0.85199 0.0
C557 C 0.31434 0.63176 0.88663 0.0
N558 N 0.28656 0.66394 0.98923 0.0
N559 N 0.41866 0.55284 0.85266 0.0
C560 C 0.31336 0.63084 0.95528 0.0
C561 C 0.38108 0.57362 0.88564 0.0
N562 N 0.33429 0.58669 0.05214 0.0
N563 N 0.33882 0.59318 0.78727 0.0
H564 H 0.44603 0.53324 0.87483 0.0
H565 H 0.42497 0.55864 0.80373 0.0
H566 H 0.31137 0.61015 0.76135 0.0
H567 H 0.35713 0.56669 0.76083 0.0
H568 H 0.30489 0.6004 0.07789 0.0
H569 H 0.35405 0.56089 0.07772 0.0
H570 H 0.2892 0.66837 1.03895 0.0
H571 H 0.26505 0.69029 0.96773 0.0
C572 C 0.10227 0.65773 0.6599 0.0
C573 C 0.13469 0.63918 0.7066 0.0
C574 C 0.11039 0.55635 0.67988 0.0
C575 C 0.07476 0.57527 0.63765 0.0
N576 N 0.03021 0.64428 0.59733 0.0
N577 N 0.16503 0.57181 0.76848 0.0
C578 C 0.06888 0.62605 0.63024 0.0
C579 C 0.13748 0.5887 0.71873 0.0
N580 N 0.10458 0.70526 0.64186 0.0
N581 N 0.11953 0.50759 0.68114 0.0
H582 H 0.18558 0.59448 0.79775 0.0
H583 H 0.16439 0.53598 0.78426 0.0
H584 H 0.10071 0.4827 0.65307 0.0
H585 H 0.14851 0.49218 0.7056 0.0
H586 H 0.08567 0.71955 0.60292 0.0
H587 H 0.12877 0.7295 0.6621 0.0
H588 H 0.02105 0.68096 0.59717 0.0
H589 H 0.00458 0.62254 0.57497 0.0
C590 C 0.16331 0.3629 0.44118 0.0
C591 C 0.14683 0.33101 0.39228 0.0
C592 C 0.06554 0.36526 0.40165 0.0
C593 C 0.08033 0.39242 0.45641 0.0
N594 N 0.14318 0.41602 0.53042 0.0
N595 N 0.07991 0.29453 0.33586 0.0
C596 C 0.12913 0.39052 0.47723 0.0
C597 C 0.09739 0.33033 0.3749 0.0
N598 N 0.2118 0.36896 0.45056 0.0
N599 N 0.02132 0.37275 0.3743 0.0
H600 H 0.10136 0.26704 0.31651 0.0
H601 H 0.04316 0.28909 0.32814 0.0
H602 H -0.00509 0.39545 0.39359 0.0
H603 H 0.01187 0.35853 0.32955 0.0
H604 H 0.22627 0.39516 0.48094 0.0
H605 H 0.23802 0.35107 0.42317 0.0
H606 H 0.17635 0.41096 0.55294 0.0
H607 H 0.12085 0.4408 0.5541 0.0
C608 C 0.0326 0.0181 1.01747 0.0
C609 C -0.00649 0.0079 0.97554 0.0
C610 C 0.95325 0.96165 0.06139 0.0
C611 C -0.0093 0.97465 0.10451 0.0
N612 N 0.06247 0.02067 0.12732 0.0
N613 N 0.91309 0.97695 0.95968 0.0
C614 C 0.02938 0.00451 0.08359 0.0
C615 C 0.95283 0.98155 0.9981 0.0
N616 N 0.07347 0.03931 0.9935 0.0
N617 N 0.91866 0.92936 0.08055 0.0
H618 H 0.91145 -0.0091 0.91303 0.0
H619 H 0.88032 0.96286 0.97561 0.0
H620 H 0.91707 0.91499 0.127 0.0
H621 H 0.89366 0.91401 0.04932 0.0
H622 H 0.10525 0.04298 1.01965 0.0
H623 H 0.077 0.05006 0.94553 0.0
H624 H 0.08833 0.04687 0.11693 0.0
H625 H 0.0619 0.01051 0.17573 0.0
C626 C 0.25856 0.68285 0.31741 0.0
C627 C 0.24592 0.72095 0.36048 0.0
C628 C 0.19718 0.75945 0.27593 0.0
C629 C 0.21294 0.72348 0.23155 0.0
N630 N 0.2631 0.65431 0.20675 0.0
N631 N 0.20951 0.79936 0.37877 0.0
C632 C 0.24495 0.6861 0.25138 0.0
C633 C 0.21682 0.76028 0.33923 0.0
N634 N 0.28221 0.64281 0.34019 0.0
N635 N 0.16276 0.79235 0.25783 0.0
H636 H 0.2233 0.8014 0.42539 0.0
H637 H 0.19321 0.83148 0.36383 0.0
H638 H 0.14853 0.79374 0.21141 0.0
H639 H 0.14561 0.81591 0.28987 0.0
H640 H 0.28801 0.61152 0.3131 0.0
H641 H 0.29287 0.63924 0.38811 0.0
H642 H 0.29083 0.62981 0.21631 0.0
H643 H 0.25272 0.65462 0.15848 0.0
C644 C 0.49807 0.02587 0.55686 0.0
C645 C 0.46405 0.00544 0.60034 0.0
C646 C 0.43105 0.95525 0.51321 0.0
C647 C 0.46772 0.97264 0.47121 0.0
N648 N 0.53995 0.01962 0.45419 0.0
N649 N 0.40121 0.94757 0.62301 0.0
C650 C 0.50218 0.0068 0.49328 0.0
C651 C 0.43132 0.96925 0.57934 0.0
N652 N 0.526 0.06399 0.5762 0.0
N653 N 0.39521 0.92644 0.48931 0.0
H654 H 0.39911 0.95816 0.67122 0.0
H655 H 0.38048 0.91713 0.61273 0.0
H656 H 0.39419 0.91512 0.44134 0.0
H657 H 0.3646 0.91663 0.51543 0.0
H658 H 0.54747 0.0842 0.54497 0.0
H659 H 0.52511 0.07793 0.62293 0.0
H660 H 0.56928 0.03999 0.46964 0.0
H661 H 0.54401 0.0068 0.40715 0.0
C662 C 0.22934 0.18283 0.83443 0.0
C663 C 0.22856 0.22652 0.87065 0.0
C664 C 0.26463 0.27028 0.77945 0.0
C665 C 0.26133 0.22763 0.74139 0.0
N666 N 0.23526 0.14483 0.72909 0.0
N667 N 0.23943 0.31314 0.87614 0.0
C668 C 0.24233 0.18422 0.76796 0.0
C669 C 0.24463 0.27064 0.84275 0.0
N670 N 0.21877 0.13987 0.86408 0.0
N671 N 0.28806 0.31004 0.7556 0.0
H672 H 0.22571 0.31479 0.923 0.0
H673 H 0.24523 0.34718 0.85592 0.0
H674 H 0.30279 0.31124 0.70926 0.0
H675 H 0.29642 0.34038 0.78323 0.0
H676 H 0.22382 0.10614 0.84246 0.0
H677 H 0.20835 0.13762 0.91236 0.0
H678 H 0.21662 0.11395 0.74357 0.0
H679 H 0.24496 0.14428 0.68045 0.0
C680 C 0.76698 0.18561 0.81146 0.0
C681 C 0.7571 0.22548 0.85291 0.0
C682 C 0.71074 0.26513 0.76699 0.0
C683 C 0.72374 0.22707 0.72414 0.0
N684 N 0.76963 0.1545 0.70195 0.0
N685 N 0.72645 0.3067 0.8678 0.0
C686 C 0.75343 0.18823 0.74537 0.0
C687 C 0.73082 0.26624 0.83001 0.0
N688 N 0.78786 0.14458 0.83584 0.0
N689 N 0.67819 0.2996 0.74791 0.0
H690 H 0.74063 0.30891 0.91419 0.0
H691 H 0.71237 0.33948 0.85145 0.0
H692 H 0.66332 0.30045 0.70181 0.0
H693 H 0.66298 0.32507 0.77907 0.0
H694 H 0.79127 0.11234 0.81006 0.0
H695 H 0.79853 0.14144 0.88381 0.0
H696 H 0.7957 0.12847 0.71257 0.0
H697 H 0.75964 0.15472 0.65353 0.0
C698 C 0.74351 0.69085 0.33058 0.0
C699 C 0.71567 0.73055 0.35376 0.0
C700 C 0.7239 0.77144 0.24932 0.0
C701 C 0.74845 0.7301 0.22457 0.0
N702 N 0.77605 0.64774 0.23793 0.0
N703 N 0.67346 0.80562 0.33393 0.0
C704 C 0.7568 0.68902 0.26424 0.0
C705 C 0.70413 0.77 0.31269 0.0
N706 N 0.75814 0.65547 0.3724 0.0
N707 N 0.72097 0.8127 0.21298 0.0
H708 H 0.65919 0.80641 0.38054 0.0
H709 H 0.65918 0.83237 0.30415 0.0
H710 H 0.73487 0.81514 0.16629 0.0
H711 H 0.70833 0.84574 0.23068 0.0
H712 H 0.78301 0.62851 0.36038 0.0
H713 H 0.74807 0.65498 0.42091 0.0
H714 H 0.77826 0.61485 0.26235 0.0
H715 H 0.78657 0.64522 0.18971 0.0
C716 C 0.51552 0.46108 0.56618 0.0
C717 C 0.47562 0.4698 0.60782 0.0
C718 C 0.43131 0.50801 0.51887 0.0
C719 C 0.47269 0.50282 0.47874 0.0
N720 N 0.55671 0.48132 0.46637 0.0
N721 N 0.39819 0.50727 0.62744 0.0
C722 C 0.51552 0.48117 0.50299 0.0
C723 C 0.43419 0.49487 0.58515 0.0
N724 N 0.55296 0.4326 0.5866 0.0
N725 N 0.38884 0.52413 0.49309 0.0
H726 H 0.39866 0.49751 0.676 0.0
H727 H 0.36965 0.53026 0.61575 0.0
H728 H 0.38548 0.53439 0.44493 0.0
H729 H 0.35606 0.52378 0.51784 0.0
H730 H 0.5805 0.42031 0.55636 0.0
H731 H 0.5546 0.41791 0.63285 0.0
H732 H 0.59043 0.47105 0.48378 0.0
H733 H 0.55814 0.49553 0.41982 0.0
C734 C 0.93869 0.45 1.03115 0.0
C735 C 0.97151 0.47043 0.98606 0.0
C736 C 0.00464 0.5228 0.07071 0.0
C737 C 0.9694 0.50497 0.11456 0.0
N738 N 0.8972 0.45842 0.13376 0.0
N739 N 0.02951 0.53235 0.95922 0.0
C740 C 0.93473 0.47051 0.09393 0.0
C741 C 0.00269 0.50866 1.00478 0.0
N742 N 0.9125 0.40994 1.0147 0.0
N743 N 0.0411 0.55175 0.09251 0.0
H744 H 0.02907 0.52302 0.91049 0.0
H745 H 0.0489 0.56384 0.96865 0.0
H746 H 0.04389 0.56287 0.1404 0.0
H747 H 0.0708 0.56148 0.06447 0.0
H748 H 0.89206 0.39013 0.04761 0.0
H749 H 0.91429 0.39396 0.96916 0.0
H750 H 0.868 0.43747 0.11914 0.0
H751 H 0.89294 0.47291 0.1799 0.0
loop_
_geom_bond_atom_site_label_1
_geom_bond_atom_site_label_2
_geom_bond_distance
_geom_bond_site_symmetry_2
_ccdc_geom_bond_type
Tb0 C9 2.764 1_455 S
Tb0 O10 2.325 1_445 S
Tb0 O13 2.303 1_545 S
Tb0 O17 2.322 . S
Tb0 O18 2.349 1_455 S
Tb0 O21 2.415 . S
Tb0 O22 2.399 1_455 S
Tb1 O11 2.322 . S
Tb1 O12 2.349 1_655 S
Tb1 O14 2.415 . S
Tb1 O15 2.399 1_655 S
Tb1 O16 2.325 1_665 S
Tb1 O19 2.303 1_565 S
Tb1 C30 2.764 1_655 S
C2 O18 1.261 . S
C2 O19 1.257 . S
C3 C6 1.358 . S
C3 C7 1.332 . S
C3 C9 1.504 . S
C4 C5 1.373 . S
C4 C8 1.308 . S
C5 C4 1.373 . S
C5 C6 1.429 . S
C5 H32 0.932 . S
C6 C3 1.358 . S
C6 C5 1.429 . S
C6 H33 0.930 . S
C7 C3 1.332 . S
C7 C8 1.394 . S
C7 H34 0.932 1_645 S
C8 C4 1.308 . S
C8 C7 1.394 . S
C8 H35 0.929 1_545 S
C9 Tb0 2.764 1_655 S
C9 C3 1.504 . S
C9 O21 1.239 1_655 S
C9 O22 1.263 . S
O10 Tb0 2.325 1_665 S
O10 C20 1.236 . S
O11 Tb1 2.322 . S
O11 C20 1.257 . S
O12 Tb1 2.349 1_455 S
O12 C23 1.261 . S
O13 Tb0 2.303 1_565 S
O13 C23 1.257 . S
O14 Tb1 2.415 . S
O14 C30 1.239 1_655 S
O15 Tb1 2.399 1_455 S
O15 C30 1.263 . S
O16 Tb1 2.325 1_445 S
O16 C31 1.236 . S
O17 Tb0 2.322 . S
O17 C31 1.257 . S
O18 Tb0 2.349 1_655 S
O18 C2 1.261 . S
O19 Tb1 2.303 1_545 S
O19 C2 1.257 . S
C20 O10 1.236 . S
C20 O11 1.257 . S
O21 Tb0 2.415 . S
O21 C9 1.239 1_455 S
O22 Tb0 2.399 1_655 S
O22 C9 1.263 . S
C23 O12 1.261 . S
C23 O13 1.257 . S
C24 C27 1.358 . S
C24 C28 1.332 . S
C24 C30 1.504 . S
C25 C26 1.373 . S
C25 C29 1.308 . S
C26 C25 1.373 . S
C26 C27 1.429 . S
C26 H36 0.932 . S
C27 C24 1.358 . S
C27 C26 1.429 . S
C27 H37 0.930 . S
C28 C24 1.332 . S
C28 C29 1.394 . S
C28 H38 0.932 1_465 S
C29 C25 1.308 . S
C29 C28 1.394 . S
C29 H39 0.929 1_565 S
C30 Tb1 2.764 1_455 S
C30 O14 1.239 1_455 S
C30 O15 1.263 . S
C30 C24 1.504 . S
C31 O16 1.236 . S
C31 O17 1.257 . S
H32 C5 0.932 . S
H33 C6 0.930 . S
H34 C7 0.932 1_465 S
H35 C8 0.929 1_565 S
H36 C26 0.932 . S
H37 C27 0.930 . S
H38 C28 0.932 1_645 S
H39 C29 0.929 1_545 S
Tb40 C49 2.764 . S
Tb40 O50 2.325 . S
Tb40 O53 2.303 . S
Tb40 O57 2.322 . S
Tb40 O58 2.349 . S
Tb40 O61 2.415 . S
Tb40 O62 2.399 . S
Tb41 O51 2.322 . S
Tb41 O52 2.349 . S
Tb41 O54 2.415 . S
Tb41 O55 2.399 . S
Tb41 O56 2.325 . S
Tb41 O59 2.303 . S
Tb41 C70 2.764 . S
C42 O58 1.261 . S
C42 O59 1.257 . S
C43 C46 1.358 . S
C43 C47 1.332 . S
C43 C49 1.504 1_554 S
C44 C45 1.373 . S
C44 C48 1.308 . S
C45 C44 1.373 . S
C45 C46 1.429 . S
C45 H72 0.932 . S
C46 C43 1.358 . S
C46 C45 1.429 . S
C46 H73 0.930 . S
C47 C43 1.332 . S
C47 C48 1.394 . S
C47 H74 0.932 . S
C48 C44 1.308 . S
C48 C47 1.394 . S
C48 H75 0.929 . S
C49 Tb40 2.764 . S
C49 C43 1.504 1_556 S
C49 O61 1.239 . S
C49 O62 1.263 . S
O50 Tb40 2.325 . S
O50 C60 1.236 . S
O51 Tb41 2.322 . S
O51 C60 1.257 . S
O52 Tb41 2.349 . S
O52 C63 1.261 . S
O53 Tb40 2.303 . S
O53 C63 1.257 . S
O54 Tb41 2.415 . S
O54 C70 1.239 . S
O55 Tb41 2.399 . S
O55 C70 1.263 . S
O56 Tb41 2.325 . S
O56 C71 1.236 . S
O57 Tb40 2.322 . S
O57 C71 1.257 . S
O58 Tb40 2.349 . S
O58 C42 1.261 . S
O59 Tb41 2.303 . S
O59 C42 1.257 . S
C60 O50 1.236 . S
C60 O51 1.257 . S
O61 Tb40 2.415 . S
O61 C49 1.239 . S
O62 Tb40 2.399 . S
O62 C49 1.263 . S
C63 O52 1.261 . S
C63 O53 1.257 . S
C64 C67 1.358 . S
C64 C68 1.332 . S
C64 C70 1.504 . S
C65 C66 1.373 . S
C65 C69 1.308 . S
C66 C65 1.373 . S
C66 C67 1.429 . S
C66 H76 0.932 . S
C67 C64 1.358 . S
C67 C66 1.429 . S
C67 H77 0.930 . S
C68 C64 1.332 . S
C68 C69 1.394 . S
C68 H78 0.932 . S
C69 C65 1.308 . S
C69 C68 1.394 . S
C69 H79 0.929 . S
C70 Tb41 2.764 . S
C70 O54 1.239 . S
C70 O55 1.263 . S
C70 C64 1.504 . S
C71 O56 1.236 . S
C71 O57 1.257 . S
H72 C45 0.932 . S
H73 C46 0.930 . S
H74 C47 0.932 . S
H75 C48 0.929 . S
H76 C66 0.932 . S
H77 C67 0.930 . S
H78 C68 0.932 . S
H79 C69 0.929 . S
Tb80 C89 2.764 . S
Tb80 O90 2.325 1_565 S
Tb80 O93 2.303 1_565 S
Tb80 O97 2.322 1_554 S
Tb80 O98 2.349 . S
Tb80 O101 2.415 . S
Tb80 O102 2.399 . S
Tb81 O91 2.322 1_556 S
Tb81 O92 2.349 . S
Tb81 O94 2.415 . S
Tb81 O95 2.399 . S
Tb81 O96 2.325 1_545 S
Tb81 O99 2.303 1_545 S
Tb81 C110 2.764 . S
C82 O98 1.261 1_556 S
C82 O99 1.257 . S
C83 C86 1.358 . S
C83 C87 1.332 . S
C83 C89 1.504 . S
C84 C85 1.373 . S
C84 C88 1.308 . S
C85 C84 1.373 . S
C85 C86 1.429 . S
C85 H112 0.932 . S
C86 C83 1.358 . S
C86 C85 1.429 . S
C86 H113 0.930 . S
C87 C83 1.332 . S
C87 C88 1.394 . S
C87 H114 0.932 1_565 S
C88 C84 1.308 . S
C88 C87 1.394 . S
C88 H115 0.929 1_565 S
C89 Tb80 2.764 . S
C89 C83 1.504 . S
C89 O101 1.239 . S
C89 O102 1.263 . S
O90 Tb80 2.325 1_545 S
O90 C100 1.236 . S
O91 Tb81 2.322 1_554 S
O91 C100 1.257 . S
O92 Tb81 2.349 . S
O92 C103 1.261 1_556 S
O93 Tb80 2.303 1_545 S
O93 C103 1.257 . S
O94 Tb81 2.415 . S
O94 C110 1.239 . S
O95 Tb81 2.399 . S
O95 C110 1.263 . S
O96 Tb81 2.325 1_565 S
O96 C111 1.236 . S
O97 Tb80 2.322 1_556 S
O97 C111 1.257 . S
O98 Tb80 2.349 . S
O98 C82 1.261 1_554 S
O99 Tb81 2.303 1_565 S
O99 C82 1.257 . S
C100 O90 1.236 . S
C100 O91 1.257 . S
O101 Tb80 2.415 . S
O101 C89 1.239 . S
O102 Tb80 2.399 . S
O102 C89 1.263 . S
C103 O92 1.261 1_554 S
C103 O93 1.257 . S
C104 C107 1.358 . S
C104 C108 1.332 . S
C104 C110 1.504 . S
C105 C106 1.373 . S
C105 C109 1.308 . S
C106 C105 1.373 . S
C106 C107 1.429 . S
C106 H116 0.932 . S
C107 C104 1.358 . S
C107 C106 1.429 . S
C107 H117 0.930 . S
C108 C104 1.332 . S
C108 C109 1.394 . S
C108 H118 0.932 1_545 S
C109 C105 1.308 . S
C109 C108 1.394 . S
C109 H119 0.929 1_545 S
C110 Tb81 2.764 . S
C110 O94 1.239 . S
C110 O95 1.263 . S
C110 C104 1.504 . S
C111 O96 1.236 . S
C111 O97 1.257 . S
H112 C85 0.932 . S
H113 C86 0.930 . S
H114 C87 0.932 1_545 S
H115 C88 0.929 1_545 S
H116 C106 0.932 . S
H117 C107 0.930 . S
H118 C108 0.932 1_565 S
H119 C109 0.929 1_565 S
Tb120 C129 2.764 . S
Tb120 O130 2.325 . S
Tb120 O133 2.303 . S
Tb120 O137 2.322 . S
Tb120 O138 2.349 . S
Tb120 O141 2.415 . S
Tb120 O142 2.399 . S
Tb121 O131 2.322 . S
Tb121 O132 2.349 . S
Tb121 O134 2.415 . S
Tb121 O135 2.399 . S
Tb121 O136 2.325 . S
Tb121 O139 2.303 . S
Tb121 C150 2.764 . S
C122 O138 1.261 . S
C122 O139 1.257 . S
C123 C126 1.358 . S
C123 C127 1.332 . S
C123 C129 1.504 . S
C124 C125 1.373 . S
C124 C128 1.308 . S
C125 C124 1.373 . S
C125 C126 1.429 . S
C125 H152 0.932 . S
C126 C123 1.358 . S
C126 C125 1.429 . S
C126 H153 0.930 . S
C127 C123 1.332 . S
C127 C128 1.394 . S
C127 H154 0.932 . S
C128 C124 1.308 . S
C128 C127 1.394 . S
C128 H155 0.929 . S
C129 Tb120 2.764 . S
C129 C123 1.504 . S
C129 O141 1.239 . S
C129 O142 1.263 . S
O130 Tb120 2.325 . S
O130 C140 1.236 . S
O131 Tb121 2.322 . S
O131 C140 1.257 . S
O132 Tb121 2.349 . S
O132 C143 1.261 . S
O133 Tb120 2.303 . S
O133 C143 1.257 . S
O134 Tb121 2.415 . S
O134 C150 1.239 . S
O135 Tb121 2.399 . S
O135 C150 1.263 . S
O136 Tb121 2.325 . S
O136 C151 1.236 . S
O137 Tb120 2.322 . S
O137 C151 1.257 . S
O138 Tb120 2.349 . S
O138 C122 1.261 . S
O139 Tb121 2.303 . S
O139 C122 1.257 . S
C140 O130 1.236 . S
C140 O131 1.257 . S
O141 Tb120 2.415 . S
O141 C129 1.239 . S
O142 Tb120 2.399 . S
O142 C129 1.263 . S
C143 O132 1.261 . S
C143 O133 1.257 . S
C144 C147 1.358 . S
C144 C148 1.332 . S
C144 C150 1.504 1_556 S
C145 C146 1.373 . S
C145 C149 1.308 . S
C146 C145 1.373 . S
C146 C147 1.429 . S
C146 H156 0.932 . S
C147 C144 1.358 . S
C147 C146 1.429 . S
C147 H157 0.930 . S
C148 C144 1.332 . S
C148 C149 1.394 . S
C148 H158 0.932 . S
C149 C145 1.308 . S
C149 C148 1.394 . S
C149 H159 0.929 . S
C150 Tb121 2.764 . S
C150 O134 1.239 . S
C150 O135 1.263 . S
C150 C144 1.504 1_554 S
C151 O136 1.236 . S
C151 O137 1.257 . S
H152 C125 0.932 . S
H153 C126 0.930 . S
H154 C127 0.932 . S
H155 C128 0.929 . S
H156 C146 0.932 . S
H157 C147 0.930 . S
H158 C148 0.932 . S
H159 C149 0.929 . S
Tb160 C169 2.764 . S
Tb160 O170 2.325 . S
Tb160 O173 2.303 . S
Tb160 O177 2.322 . S
Tb160 O178 2.349 . S
Tb160 O181 2.415 . S
Tb160 O182 2.399 . S
Tb161 O171 2.322 . S
Tb161 O172 2.349 . S
Tb161 O174 2.415 . S
Tb161 O175 2.399 . S
Tb161 O176 2.325 . S
Tb161 O179 2.303 . S
Tb161 C190 2.764 . S
C162 O178 1.261 . S
C162 O179 1.257 . S
C163 C166 1.358 . S
C163 C167 1.332 . S
C163 C169 1.504 . S
C164 C165 1.373 . S
C164 C168 1.308 . S
C165 C164 1.373 . S
C165 C166 1.429 . S
C165 H192 0.932 . S
C166 C163 1.358 . S
C166 C165 1.429 . S
C166 H193 0.930 . S
C167 C163 1.332 . S
C167 C168 1.394 . S
C167 H194 0.932 . S
C168 C164 1.308 . S
C168 C167 1.394 . S
C168 H195 0.929 . S
C169 Tb160 2.764 . S
C169 C163 1.504 . S
C169 O181 1.239 . S
C169 O182 1.263 . S
O170 Tb160 2.325 . S
O170 C180 1.236 . S
O171 Tb161 2.322 . S
O171 C180 1.257 . S
O172 Tb161 2.349 . S
O172 C183 1.261 . S
O173 Tb160 2.303 . S
O173 C183 1.257 . S
O174 Tb161 2.415 . S
O174 C190 1.239 . S
O175 Tb161 2.399 . S
O175 C190 1.263 . S
O176 Tb161 2.325 . S
O176 C191 1.236 . S
O177 Tb160 2.322 . S
O177 C191 1.257 . S
O178 Tb160 2.349 . S
O178 C162 1.261 . S
O179 Tb161 2.303 . S
O179 C162 1.257 . S
C180 O170 1.236 . S
C180 O171 1.257 . S
O181 Tb160 2.415 . S
O181 C169 1.239 . S
O182 Tb160 2.399 . S
O182 C169 1.263 . S
C183 O172 1.261 . S
C183 O173 1.257 . S
C184 C187 1.358 . S
C184 C188 1.332 . S
C184 C190 1.504 1_556 S
C185 C186 1.373 . S
C185 C189 1.308 . S
C186 C185 1.373 . S
C186 C187 1.429 . S
C186 H196 0.932 . S
C187 C184 1.358 . S
C187 C186 1.429 . S
C187 H197 0.930 . S
C188 C184 1.332 . S
C188 C189 1.394 . S
C188 H198 0.932 . S
C189 C185 1.308 . S
C189 C188 1.394 . S
C189 H199 0.929 . S
C190 Tb161 2.764 . S
C190 O174 1.239 . S
C190 O175 1.263 . S
C190 C184 1.504 1_554 S
C191 O176 1.236 . S
C191 O177 1.257 . S
H192 C165 0.932 . S
H193 C166 0.930 . S
H194 C167 0.932 . S
H195 C168 0.929 . S
H196 C186 0.932 . S
H197 C187 0.930 . S
H198 C188 0.932 . S
H199 C189 0.929 . S
Tb200 C209 2.764 . S
Tb200 O210 2.325 . S
Tb200 O213 2.303 . S
Tb200 O217 2.322 . S
Tb200 O218 2.349 . S
Tb200 O221 2.415 . S
Tb200 O222 2.399 . S
Tb201 O211 2.322 . S
Tb201 O212 2.349 . S
Tb201 O214 2.415 . S
Tb201 O215 2.399 . S
Tb201 O216 2.325 . S
Tb201 O219 2.303 . S
Tb201 C230 2.764 . S
C202 O218 1.261 . S
C202 O219 1.257 . S
C203 C206 1.358 . S
C203 C207 1.332 . S
C203 C209 1.504 1_554 S
C204 C205 1.373 . S
C204 C208 1.308 . S
C205 C204 1.373 . S
C205 C206 1.429 . S
C205 H232 0.932 . S
C206 C203 1.358 . S
C206 C205 1.429 . S
C206 H233 0.930 . S
C207 C203 1.332 . S
C207 C208 1.394 . S
C207 H234 0.932 . S
C208 C204 1.308 . S
C208 C207 1.394 . S
C208 H235 0.929 . S
C209 Tb200 2.764 . S
C209 C203 1.504 1_556 S
C209 O221 1.239 . S
C209 O222 1.263 . S
O210 Tb200 2.325 . S
O210 C220 1.236 . S
O211 Tb201 2.322 . S
O211 C220 1.257 . S
O212 Tb201 2.349 . S
O212 C223 1.261 . S
O213 Tb200 2.303 . S
O213 C223 1.257 . S
O214 Tb201 2.415 . S
O214 C230 1.239 . S
O215 Tb201 2.399 . S
O215 C230 1.263 . S
O216 Tb201 2.325 . S
O216 C231 1.236 . S
O217 Tb200 2.322 . S
O217 C231 1.257 . S
O218 Tb200 2.349 . S
O218 C202 1.261 . S
O219 Tb201 2.303 . S
O219 C202 1.257 . S
C220 O210 1.236 . S
C220 O211 1.257 . S
O221 Tb200 2.415 . S
O221 C209 1.239 . S
O222 Tb200 2.399 . S
O222 C209 1.263 . S
C223 O212 1.261 . S
C223 O213 1.257 . S
C224 C227 1.358 . S
C224 C228 1.332 . S
C224 C230 1.504 . S
C225 C226 1.373 . S
C225 C229 1.308 . S
C226 C225 1.373 . S
C226 C227 1.429 . S
C226 H236 0.932 . S
C227 C224 1.358 . S
C227 C226 1.429 . S
C227 H237 0.930 . S
C228 C224 1.332 . S
C228 C229 1.394 . S
C228 H238 0.932 . S
C229 C225 1.308 . S
C229 C228 1.394 . S
C229 H239 0.929 . S
C230 Tb201 2.764 . S
C230 O214 1.239 . S
C230 O215 1.263 . S
C230 C224 1.504 . S
C231 O216 1.236 . S
C231 O217 1.257 . S
H232 C205 0.932 . S
H233 C206 0.930 . S
H234 C207 0.932 . S
H235 C208 0.929 . S
H236 C226 0.932 . S
H237 C227 0.930 . S
H238 C228 0.932 . S
H239 C229 0.929 . S
Tb240 C249 2.764 . S
Tb240 O250 2.325 . S
Tb240 O253 2.303 . S
Tb240 O257 2.322 1_554 S
Tb240 O258 2.349 . S
Tb240 O261 2.415 . S
Tb240 O262 2.399 . S
Tb241 O251 2.322 1_556 S
Tb241 O252 2.349 . S
Tb241 O254 2.415 . S
Tb241 O255 2.399 . S
Tb241 O256 2.325 . S
Tb241 O259 2.303 . S
Tb241 C270 2.764 . S
C242 O258 1.261 1_556 S
C242 O259 1.257 . S
C243 C246 1.358 . S
C243 C247 1.332 . S
C243 C249 1.504 . S
C244 C245 1.373 . S
C244 C248 1.308 . S
C245 C244 1.373 . S
C245 C246 1.429 . S
C245 H272 0.932 . S
C246 C243 1.358 . S
C246 C245 1.429 . S
C246 H273 0.930 . S
C247 C243 1.332 . S
C247 C248 1.394 . S
C247 H274 0.932 . S
C248 C244 1.308 . S
C248 C247 1.394 . S
C248 H275 0.929 . S
C249 Tb240 2.764 . S
C249 C243 1.504 . S
C249 O261 1.239 . S
C249 O262 1.263 . S
O250 Tb240 2.325 . S
O250 C260 1.236 . S
O251 Tb241 2.322 1_554 S
O251 C260 1.257 . S
O252 Tb241 2.349 . S
O252 C263 1.261 1_556 S
O253 Tb240 2.303 . S
O253 C263 1.257 . S
O254 Tb241 2.415 . S
O254 C270 1.239 . S
O255 Tb241 2.399 . S
O255 C270 1.263 . S
O256 Tb241 2.325 . S
O256 C271 1.236 . S
O257 Tb240 2.322 1_556 S
O257 C271 1.257 . S
O258 Tb240 2.349 . S
O258 C242 1.261 1_554 S
O259 Tb241 2.303 . S
O259 C242 1.257 . S
C260 O250 1.236 . S
C260 O251 1.257 . S
O261 Tb240 2.415 . S
O261 C249 1.239 . S
O262 Tb240 2.399 . S
O262 C249 1.263 . S
C263 O252 1.261 1_554 S
C263 O253 1.257 . S
C264 C267 1.358 . S
C264 C268 1.332 . S
C264 C270 1.504 . S
C265 C266 1.373 . S
C265 C269 1.308 . S
C266 C265 1.373 . S
C266 C267 1.429 . S
C266 H276 0.932 . S
C267 C264 1.358 . S
C267 C266 1.429 . S
C267 H277 0.930 . S
C268 C264 1.332 . S
C268 C269 1.394 . S
C268 H278 0.932 . S
C269 C265 1.308 . S
C269 C268 1.394 . S
C269 H279 0.929 . S
C270 Tb241 2.764 . S
C270 O254 1.239 . S
C270 O255 1.263 . S
C270 C264 1.504 . S
C271 O256 1.236 . S
C271 O257 1.257 . S
H272 C245 0.932 . S
H273 C246 0.930 . S
H274 C247 0.932 . S
H275 C248 0.929 . S
H276 C266 0.932 . S
H277 C267 0.930 . S
H278 C268 0.932 . S
H279 C269 0.929 . S
Tb280 C289 2.764 1_655 S
Tb280 O290 2.325 1_655 S
Tb280 O293 2.303 . S
Tb280 O297 2.322 . S
Tb280 O298 2.349 1_655 S
Tb280 O301 2.415 . S
Tb280 O302 2.399 1_655 S
Tb281 O291 2.322 . S
Tb281 O292 2.349 1_455 S
Tb281 O294 2.415 . S
Tb281 O295 2.399 1_455 S
Tb281 O296 2.325 1_455 S
Tb281 O299 2.303 . S
Tb281 C310 2.764 1_455 S
C282 O298 1.261 . S
C282 O299 1.257 . S
C283 C286 1.358 . S
C283 C287 1.332 . S
C283 C289 1.504 . S
C284 C285 1.373 . S
C284 C288 1.308 . S
C285 C284 1.373 . S
C285 C286 1.429 . S
C285 H312 0.932 . S
C286 C283 1.358 . S
C286 C285 1.429 . S
C286 H313 0.930 . S
C287 C283 1.332 . S
C287 C288 1.394 . S
C287 H314 0.932 1_455 S
C288 C284 1.308 . S
C288 C287 1.394 . S
C288 H315 0.929 . S
C289 Tb280 2.764 1_455 S
C289 C283 1.504 . S
C289 O301 1.239 1_455 S
C289 O302 1.263 . S
O290 Tb280 2.325 1_455 S
O290 C300 1.236 . S
O291 Tb281 2.322 . S
O291 C300 1.257 . S
O292 Tb281 2.349 1_655 S
O292 C303 1.261 . S
O293 Tb280 2.303 . S
O293 C303 1.257 . S
O294 Tb281 2.415 . S
O294 C310 1.239 1_455 S
O295 Tb281 2.399 1_655 S
O295 C310 1.263 . S
O296 Tb281 2.325 1_655 S
O296 C311 1.236 . S
O297 Tb280 2.322 . S
O297 C311 1.257 . S
O298 Tb280 2.349 1_455 S
O298 C282 1.261 . S
O299 Tb281 2.303 . S
O299 C282 1.257 . S
C300 O290 1.236 . S
C300 O291 1.257 . S
O301 Tb280 2.415 . S
O301 C289 1.239 1_655 S
O302 Tb280 2.399 1_455 S
O302 C289 1.263 . S
C303 O292 1.261 . S
C303 O293 1.257 . S
C304 C307 1.358 . S
C304 C308 1.332 . S
C304 C310 1.504 . S
C305 C306 1.373 . S
C305 C309 1.308 . S
C306 C305 1.373 . S
C306 C307 1.429 . S
C306 H316 0.932 . S
C307 C304 1.358 . S
C307 C306 1.429 . S
C307 H317 0.930 . S
C308 C304 1.332 . S
C308 C309 1.394 . S
C308 H318 0.932 1_655 S
C309 C305 1.308 . S
C309 C308 1.394 . S
C309 H319 0.929 . S
C310 Tb281 2.764 1_655 S
C310 O294 1.239 1_655 S
C310 O295 1.263 . S
C310 C304 1.504 . S
C311 O296 1.236 . S
C311 O297 1.257 . S
H312 C285 0.932 . S
H313 C286 0.930 . S
H314 C287 0.932 1_655 S
H315 C288 0.929 . S
H316 C306 0.932 . S
H317 C307 0.930 . S
H318 C308 0.932 1_455 S
H319 C309 0.929 . S
C320 C321 1.363 . S
C320 C326 1.379 . S
C320 N328 1.356 . S
C321 C320 1.363 . S
C321 C327 1.363 . S
C322 C323 1.363 . S
C322 C327 1.379 . S
C322 N329 1.356 . S
C323 C322 1.363 . S
C323 C326 1.363 . S
N324 C326 1.356 . S
N324 H336 0.984 . S
N324 H337 0.985 . S
N325 C327 1.356 . S
N325 H330 0.984 . S
N325 H331 0.985 . S
C326 C320 1.379 . S
C326 C323 1.363 . S
C326 N324 1.356 . S
C327 C321 1.363 . S
C327 C322 1.379 . S
C327 N325 1.356 . S
N328 C320 1.356 . S
N328 H334 0.984 . S
N328 H335 0.984 . S
N329 C322 1.356 . S
N329 H332 0.984 . S
N329 H333 0.985 . S
H330 N325 0.984 . S
H331 N325 0.985 . S
H332 N329 0.984 . S
H333 N329 0.985 . S
H334 N328 0.984 . S
H335 N328 0.984 . S
H336 N324 0.984 . S
H337 N324 0.985 . S
C338 C339 1.363 . S
C338 C344 1.379 . S
C338 N346 1.356 . S
C339 C338 1.363 . S
C339 C345 1.363 . S
C340 C341 1.363 . S
C340 C345 1.379 . S
C340 N347 1.356 . S
C341 C340 1.363 . S
C341 C344 1.363 . S
N342 C344 1.356 . S
N342 H354 0.984 . S
N342 H355 0.985 . S
N343 C345 1.356 . S
N343 H348 0.984 . S
N343 H349 0.985 . S
C344 C338 1.379 . S
C344 C341 1.363 . S
C344 N342 1.356 . S
C345 C339 1.363 . S
C345 C340 1.379 . S
C345 N343 1.356 . S
N346 C338 1.356 . S
N346 H352 0.984 . S
N346 H353 0.984 . S
N347 C340 1.356 . S
N347 H350 0.984 . S
N347 H351 0.985 . S
H348 N343 0.984 . S
H349 N343 0.985 . S
H350 N347 0.984 . S
H351 N347 0.985 . S
H352 N346 0.984 . S
H353 N346 0.984 . S
H354 N342 0.984 . S
H355 N342 0.985 . S
C356 C357 1.363 . S
C356 C362 1.379 . S
C356 N364 1.356 . S
C357 C356 1.363 . S
C357 C363 1.363 . S
C358 C359 1.363 . S
C358 C363 1.379 . S
C358 N365 1.356 . S
C359 C358 1.363 . S
C359 C362 1.363 . S
N360 C362 1.356 . S
N360 H372 0.984 . S
N360 H373 0.985 . S
N361 C363 1.356 . S
N361 H366 0.984 . S
N361 H367 0.985 . S
C362 C356 1.379 . S
C362 C359 1.363 . S
C362 N360 1.356 . S
C363 C357 1.363 . S
C363 C358 1.379 . S
C363 N361 1.356 . S
N364 C356 1.356 . S
N364 H370 0.984 . S
N364 H371 0.984 . S
N365 C358 1.356 . S
N365 H368 0.984 . S
N365 H369 0.985 1_556 S
H366 N361 0.984 . S
H367 N361 0.985 . S
H368 N365 0.984 . S
H369 N365 0.985 1_554 S
H370 N364 0.984 . S
H371 N364 0.984 . S
H372 N360 0.984 . S
H373 N360 0.985 . S
C374 C375 1.363 . S
C374 C380 1.379 . S
C374 N382 1.356 1_554 S
C375 C374 1.363 . S
C375 C381 1.363 . S
C376 C377 1.363 . S
C376 C381 1.379 . S
C376 N383 1.356 . S
C377 C376 1.363 . S
C377 C380 1.363 . S
N378 C380 1.356 . S
N378 H390 0.984 . S
N378 H391 0.985 . S
N379 C381 1.356 . S
N379 H384 0.984 . S
N379 H385 0.985 . S
C380 C374 1.379 . S
C380 C377 1.363 . S
C380 N378 1.356 . S
C381 C375 1.363 . S
C381 C376 1.379 . S
C381 N379 1.356 . S
N382 C374 1.356 1_556 S
N382 H388 0.984 . S
N382 H389 0.984 . S
N383 C376 1.356 . S
N383 H386 0.984 . S
N383 H387 0.985 . S
H384 N379 0.984 . S
H385 N379 0.985 . S
H386 N383 0.984 . S
H387 N383 0.985 . S
H388 N382 0.984 . S
H389 N382 0.984 . S
H390 N378 0.984 . S
H391 N378 0.985 . S
C392 C393 1.363 . S
C392 C398 1.379 . S
C392 N400 1.356 . S
C393 C392 1.363 . S
C393 C399 1.363 . S
C394 C395 1.363 . S
C394 C399 1.379 . S
C394 N401 1.356 . S
C395 C394 1.363 . S
C395 C398 1.363 . S
N396 C398 1.356 . S
N396 H408 0.984 . S
N396 H409 0.985 . S
N397 C399 1.356 . S
N397 H402 0.984 . S
N397 H403 0.985 . S
C398 C392 1.379 . S
C398 C395 1.363 . S
C398 N396 1.356 . S
C399 C393 1.363 . S
C399 C394 1.379 . S
C399 N397 1.356 . S
N400 C392 1.356 . S
N400 H406 0.984 . S
N400 H407 0.984 . S
N401 C394 1.356 . S
N401 H404 0.984 . S
N401 H405 0.985 . S
H402 N397 0.984 . S
H403 N397 0.985 . S
H404 N401 0.984 . S
H405 N401 0.985 . S
H406 N400 0.984 . S
H407 N400 0.984 . S
H408 N396 0.984 . S
H409 N396 0.985 . S
C410 C411 1.363 . S
C410 C416 1.379 . S
C410 N418 1.356 . S
C411 C410 1.363 . S
C411 C417 1.363 . S
C412 C413 1.363 . S
C412 C417 1.379 . S
C412 N419 1.356 . S
C413 C412 1.363 . S
C413 C416 1.363 . S
N414 C416 1.356 . S
N414 H426 0.984 . S
N414 H427 0.985 . S
N415 C417 1.356 . S
N415 H420 0.984 . S
N415 H421 0.985 . S
C416 C410 1.379 . S
C416 C413 1.363 . S
C416 N414 1.356 . S
C417 C411 1.363 . S
C417 C412 1.379 . S
C417 N415 1.356 . S
N418 C410 1.356 . S
N418 H424 0.984 . S
N418 H425 0.984 . S
N419 C412 1.356 . S
N419 H422 0.984 . S
N419 H423 0.985 . S
H420 N415 0.984 . S
H421 N415 0.985 . S
H422 N419 0.984 . S
H423 N419 0.985 . S
H424 N418 0.984 . S
H425 N418 0.984 . S
H426 N414 0.984 . S
H427 N414 0.985 . S
C428 C429 1.363 . S
C428 C434 1.379 . S
C428 N436 1.356 . S
C429 C428 1.363 . S
C429 C435 1.363 . S
C430 C431 1.363 . S
C430 C435 1.379 . S
C430 N437 1.356 . S
C431 C430 1.363 . S
C431 C434 1.363 . S
N432 C434 1.356 . S
N432 H444 0.984 . S
N432 H445 0.985 . S
N433 C435 1.356 . S
N433 H438 0.984 . S
N433 H439 0.985 . S
C434 C428 1.379 . S
C434 C431 1.363 . S
C434 N432 1.356 . S
C435 C429 1.363 . S
C435 C430 1.379 . S
C435 N433 1.356 . S
N436 C428 1.356 . S
N436 H442 0.984 . S
N436 H443 0.984 . S
N437 C430 1.356 . S
N437 H440 0.984 . S
N437 H441 0.985 . S
H438 N433 0.984 . S
H439 N433 0.985 . S
H440 N437 0.984 . S
H441 N437 0.985 . S
H442 N436 0.984 . S
H443 N436 0.984 . S
H444 N432 0.984 . S
H445 N432 0.985 . S
C446 C447 1.363 . S
C446 C452 1.379 . S
C446 N454 1.356 . S
C447 C446 1.363 . S
C447 C453 1.363 . S
C448 C449 1.363 . S
C448 C453 1.379 . S
C448 N455 1.356 . S
C449 C448 1.363 . S
C449 C452 1.363 . S
N450 C452 1.356 . S
N450 H462 0.978 1_565 S
N450 H463 0.985 . S
N451 C453 1.356 . S
N451 H456 0.984 . S
N451 H457 0.985 . S
C452 C446 1.379 . S
C452 C449 1.363 . S
C452 N450 1.356 . S
C453 C447 1.363 . S
C453 C448 1.379 . S
C453 N451 1.356 . S
N454 C446 1.356 . S
N454 H460 0.984 . S
N454 H461 0.984 . S
N455 C448 1.356 . S
N455 H458 0.984 . S
N455 H459 0.985 . S
H456 N451 0.984 . S
H457 N451 0.985 . S
H458 N455 0.984 . S
H459 N455 0.985 . S
H460 N454 0.984 . S
H461 N454 0.984 . S
H462 N450 0.978 1_545 S
H463 N450 0.985 . S
C464 C465 1.363 . S
C464 C470 1.379 . S
C464 N472 1.356 . S
C465 C464 1.363 . S
C465 C471 1.363 . S
C466 C467 1.363 . S
C466 C471 1.379 . S
C466 N473 1.356 . S
C467 C466 1.363 . S
C467 C470 1.363 . S
N468 C470 1.356 . S
N468 H480 0.984 . S
N468 H481 0.985 . S
N469 C471 1.356 . S
N469 H474 0.984 . S
N469 H475 0.985 . S
C470 C464 1.379 . S
C470 C467 1.363 . S
C470 N468 1.356 . S
C471 C465 1.363 . S
C471 C466 1.379 . S
C471 N469 1.356 . S
N472 C464 1.356 . S
N472 H478 0.984 . S
N472 H479 0.984 . S
N473 C466 1.356 . S
N473 H476 0.984 . S
N473 H477 0.985 . S
H474 N469 0.984 . S
H475 N469 0.985 . S
H476 N473 0.984 . S
H477 N473 0.985 . S
H478 N472 0.984 . S
H479 N472 0.984 . S
H480 N468 0.984 . S
H481 N468 0.985 . S
C482 C483 1.363 . S
C482 C488 1.379 . S
C482 N490 1.356 . S
C483 C482 1.363 . S
C483 C489 1.363 . S
C484 C485 1.363 . S
C484 C489 1.379 . S
C484 N491 1.356 . S
C485 C484 1.363 . S
C485 C488 1.363 . S
N486 C488 1.356 . S
N486 H498 0.984 . S
N486 H499 0.985 . S
N487 C489 1.356 . S
N487 H492 0.984 . S
N487 H493 0.985 . S
C488 C482 1.379 . S
C488 C485 1.363 . S
C488 N486 1.356 . S
C489 C483 1.363 . S
C489 C484 1.379 . S
C489 N487 1.356 . S
N490 C482 1.356 . S
N490 H496 0.984 . S
N490 H497 0.984 . S
N491 C484 1.356 . S
N491 H494 0.984 1_554 S
N491 H495 0.985 1_554 S
H492 N487 0.984 . S
H493 N487 0.985 . S
H494 N491 0.984 1_556 S
H495 N491 0.985 1_556 S
H496 N490 0.984 . S
H497 N490 0.984 . S
H498 N486 0.984 . S
H499 N486 0.985 . S
C500 C501 1.363 . S
C500 C506 1.379 . S
C500 N508 1.356 . S
C501 C500 1.363 . S
C501 C507 1.363 . S
C502 C503 1.363 . S
C502 C507 1.379 . S
C502 N509 1.356 . S
C503 C502 1.363 . S
C503 C506 1.363 . S
N504 C506 1.356 . S
N504 H516 0.984 . S
N504 H517 0.985 . S
N505 C507 1.356 . S
N505 H510 0.984 . S
N505 H511 0.985 . S
C506 C500 1.379 . S
C506 C503 1.363 . S
C506 N504 1.356 . S
C507 C501 1.363 . S
C507 C502 1.379 . S
C507 N505 1.356 . S
N508 C500 1.356 . S
N508 H514 0.984 . S
N508 H515 0.984 . S
N509 C502 1.356 . S
N509 H512 0.984 . S
N509 H513 0.985 . S
H510 N505 0.984 . S
H511 N505 0.985 . S
H512 N509 0.984 . S
H513 N509 0.985 . S
H514 N508 0.984 . S
H515 N508 0.984 . S
H516 N504 0.984 . S
H517 N504 0.985 . S
C518 C519 1.363 . S
C518 C524 1.379 . S
C518 N526 1.356 . S
C519 C518 1.363 . S
C519 C525 1.363 . S
C520 C521 1.363 . S
C520 C525 1.379 . S
C520 N527 1.356 . S
C521 C520 1.363 . S
C521 C524 1.363 . S
N522 C524 1.356 . S
N522 H534 0.984 . S
N522 H535 0.985 . S
N523 C525 1.356 . S
N523 H528 0.984 . S
N523 H529 0.985 . S
C524 C518 1.379 . S
C524 C521 1.363 . S
C524 N522 1.356 . S
C525 C519 1.363 . S
C525 C520 1.379 . S
C525 N523 1.356 . S
N526 C518 1.356 . S
N526 H532 0.984 . S
N526 H533 0.984 . S
N527 C520 1.356 . S
N527 H530 0.984 . S
N527 H531 0.985 . S
H528 N523 0.984 . S
H529 N523 0.985 . S
H530 N527 0.984 . S
H531 N527 0.985 . S
H532 N526 0.984 . S
H533 N526 0.984 . S
H534 N522 0.984 . S
H535 N522 0.985 . S
C536 C537 1.363 . S
C536 C542 1.379 . S
C536 N544 1.356 . S
C537 C536 1.363 . S
C537 C543 1.363 . S
C538 C539 1.363 . S
C538 C543 1.379 . S
C538 N545 1.356 . S
C539 C538 1.363 . S
C539 C542 1.363 . S
N540 C542 1.356 . S
N540 H552 0.984 . S
N540 H553 0.985 . S
N541 C543 1.356 . S
N541 H546 0.984 . S
N541 H547 0.985 . S
C542 C536 1.379 . S
C542 C539 1.363 . S
C542 N540 1.356 . S
C543 C537 1.363 . S
C543 C538 1.379 . S
C543 N541 1.356 . S
N544 C536 1.356 . S
N544 H550 0.984 . S
N544 H551 0.984 . S
N545 C538 1.356 . S
N545 H548 0.984 . S
N545 H549 0.985 . S
H546 N541 0.984 . S
H547 N541 0.985 . S
H548 N545 0.984 . S
H549 N545 0.985 . S
H550 N544 0.984 . S
H551 N544 0.984 . S
H552 N540 0.984 . S
H553 N540 0.985 . S
C554 C555 1.363 . S
C554 C560 1.379 . S
C554 N562 1.356 1_556 S
C555 C554 1.363 . S
C555 C561 1.363 . S
C556 C557 1.363 . S
C556 C561 1.379 . S
C556 N563 1.356 . S
C557 C556 1.363 . S
C557 C560 1.363 . S
N558 C560 1.356 . S
N558 H570 0.984 . S
N558 H571 0.985 . S
N559 C561 1.356 . S
N559 H564 0.984 . S
N559 H565 0.985 . S
C560 C554 1.379 . S
C560 C557 1.363 . S
C560 N558 1.356 . S
C561 C555 1.363 . S
C561 C556 1.379 . S
C561 N559 1.356 . S
N562 C554 1.356 1_554 S
N562 H568 0.984 . S
N562 H569 0.984 . S
N563 C556 1.356 . S
N563 H566 0.984 . S
N563 H567 0.985 . S
H564 N559 0.984 . S
H565 N559 0.985 . S
H566 N563 0.984 . S
H567 N563 0.985 . S
H568 N562 0.984 . S
H569 N562 0.984 . S
H570 N558 0.984 . S
H571 N558 0.985 . S
C572 C573 1.363 . S
C572 C578 1.379 . S
C572 N580 1.356 . S
C573 C572 1.363 . S
C573 C579 1.363 . S
C574 C575 1.363 . S
C574 C579 1.379 . S
C574 N581 1.356 . S
C575 C574 1.363 . S
C575 C578 1.363 . S
N576 C578 1.356 . S
N576 H588 0.984 . S
N576 H589 0.985 . S
N577 C579 1.356 . S
N577 H582 0.984 . S
N577 H583 0.985 . S
C578 C572 1.379 . S
C578 C575 1.363 . S
C578 N576 1.356 . S
C579 C573 1.363 . S
C579 C574 1.379 . S
C579 N577 1.356 . S
N580 C572 1.356 . S
N580 H586 0.984 . S
N580 H587 0.984 . S
N581 C574 1.356 . S
N581 H584 0.984 . S
N581 H585 0.985 . S
H582 N577 0.984 . S
H583 N577 0.985 . S
H584 N581 0.984 . S
H585 N581 0.985 . S
H586 N580 0.984 . S
H587 N580 0.984 . S
H588 N576 0.984 . S
H589 N576 0.985 . S
C590 C591 1.363 . S
C590 C596 1.379 . S
C590 N598 1.356 . S
C591 C590 1.363 . S
C591 C597 1.363 . S
C592 C593 1.363 . S
C592 C597 1.379 . S
C592 N599 1.356 . S
C593 C592 1.363 . S
C593 C596 1.363 . S
N594 C596 1.356 . S
N594 H606 0.984 . S
N594 H607 0.985 . S
N595 C597 1.356 . S
N595 H600 0.984 . S
N595 H601 0.985 . S
C596 C590 1.379 . S
C596 C593 1.363 . S
C596 N594 1.356 . S
C597 C591 1.363 . S
C597 C592 1.379 . S
C597 N595 1.356 . S
N598 C590 1.356 . S
N598 H604 0.984 . S
N598 H605 0.984 . S
N599 C592 1.356 . S
N599 H602 0.984 . S
N599 H603 0.985 . S
H600 N595 0.984 . S
H601 N595 0.985 . S
H602 N599 0.984 . S
H603 N599 0.985 . S
H604 N598 0.984 . S
H605 N598 0.984 . S
H606 N594 0.984 . S
H607 N594 0.985 . S
C608 C609 1.363 1_455 S
C608 C614 1.379 1_556 S
C608 N616 1.356 . S
C609 C608 1.363 1_655 S
C609 C615 1.363 1_545 S
C610 C611 1.363 1_655 S
C610 C615 1.379 1_554 S
C610 N617 1.356 . S
C611 C610 1.363 1_455 S
C611 C614 1.363 1_565 S
N612 C614 1.356 . S
N612 H624 0.984 . S
N612 H625 0.985 1_545 S
N613 C615 1.356 . S
N613 H618 0.984 1_565 S
N613 H619 0.985 . S
C614 C608 1.379 1_554 S
C614 C611 1.363 1_545 S
C614 N612 1.356 . S
C615 C609 1.363 1_565 S
C615 C610 1.379 1_556 S
C615 N613 1.356 . S
N616 C608 1.356 . S
N616 H622 0.984 . S
N616 H623 0.984 . S
N617 C610 1.356 . S
N617 H620 0.984 . S
N617 H621 0.985 . S
H618 N613 0.984 1_545 S
H619 N613 0.985 . S
H620 N617 0.984 . S
H621 N617 0.985 . S
H622 N616 0.984 . S
H623 N616 0.984 . S
H624 N612 0.984 . S
H625 N612 0.985 1_565 S
C626 C627 1.363 . S
C626 C632 1.379 . S
C626 N634 1.356 . S
C627 C626 1.363 . S
C627 C633 1.363 . S
C628 C629 1.363 . S
C628 C633 1.379 . S
C628 N635 1.356 . S
C629 C628 1.363 . S
C629 C632 1.363 . S
N630 C632 1.356 . S
N630 H642 0.984 . S
N630 H643 0.985 . S
N631 C633 1.356 . S
N631 H636 0.984 . S
N631 H637 0.985 . S
C632 C626 1.379 . S
C632 C629 1.363 . S
C632 N630 1.356 . S
C633 C627 1.363 . S
C633 C628 1.379 . S
C633 N631 1.356 . S
N634 C626 1.356 . S
N634 H640 0.984 . S
N634 H641 0.984 . S
N635 C628 1.356 . S
N635 H638 0.984 . S
N635 H639 0.985 . S
H636 N631 0.984 . S
H637 N631 0.985 . S
H638 N635 0.984 . S
H639 N635 0.985 . S
H640 N634 0.984 . S
H641 N634 0.984 . S
H642 N630 0.984 . S
H643 N630 0.985 . S
C644 C645 1.363 . S
C644 C650 1.379 . S
C644 N652 1.356 . S
C645 C644 1.363 . S
C645 C651 1.363 1_545 S
C646 C647 1.363 . S
C646 C651 1.379 . S
C646 N653 1.356 . S
C647 C646 1.363 . S
C647 C650 1.363 1_565 S
N648 C650 1.356 . S
N648 H660 0.984 . S
N648 H661 0.985 . S
N649 C651 1.356 . S
N649 H654 0.984 . S
N649 H655 0.985 . S
C650 C644 1.379 . S
C650 C647 1.363 1_545 S
C650 N648 1.356 . S
C651 C645 1.363 1_565 S
C651 C646 1.379 . S
C651 N649 1.356 . S
N652 C644 1.356 . S
N652 H658 0.984 . S
N652 H659 0.984 . S
N653 C646 1.356 . S
N653 H656 0.984 . S
N653 H657 0.985 . S
H654 N649 0.984 . S
H655 N649 0.985 . S
H656 N653 0.984 . S
H657 N653 0.985 . S
H658 N652 0.984 . S
H659 N652 0.984 . S
H660 N648 0.984 . S
H661 N648 0.985 . S
C662 C663 1.363 . S
C662 C668 1.379 . S
C662 N670 1.356 . S
C663 C662 1.363 . S
C663 C669 1.363 . S
C664 C665 1.363 . S
C664 C669 1.379 . S
C664 N671 1.356 . S
C665 C664 1.363 . S
C665 C668 1.363 . S
N666 C668 1.356 . S
N666 H678 0.984 . S
N666 H679 0.985 . S
N667 C669 1.356 . S
N667 H672 0.984 . S
N667 H673 0.985 . S
C668 C662 1.379 . S
C668 C665 1.363 . S
C668 N666 1.356 . S
C669 C663 1.363 . S
C669 C664 1.379 . S
C669 N667 1.356 . S
N670 C662 1.356 . S
N670 H676 0.984 . S
N670 H677 0.984 . S
N671 C664 1.356 . S
N671 H674 0.984 . S
N671 H675 0.985 . S
H672 N667 0.984 . S
H673 N667 0.985 . S
H674 N671 0.984 . S
H675 N671 0.985 . S
H676 N670 0.984 . S
H677 N670 0.984 . S
H678 N666 0.984 . S
H679 N666 0.985 . S
C680 C681 1.363 . S
C680 C686 1.379 . S
C680 N688 1.356 . S
C681 C680 1.363 . S
C681 C687 1.363 . S
C682 C683 1.363 . S
C682 C687 1.379 . S
C682 N689 1.356 . S
C683 C682 1.363 . S
C683 C686 1.363 . S
N684 C686 1.356 . S
N684 H696 0.984 . S
N684 H697 0.985 . S
N685 C687 1.356 . S
N685 H690 0.984 . S
N685 H691 0.985 . S
C686 C680 1.379 . S
C686 C683 1.363 . S
C686 N684 1.356 . S
C687 C681 1.363 . S
C687 C682 1.379 . S
C687 N685 1.356 . S
N688 C680 1.356 . S
N688 H694 0.984 . S
N688 H695 0.984 . S
N689 C682 1.356 . S
N689 H692 0.984 . S
N689 H693 0.985 . S
H690 N685 0.984 . S
H691 N685 0.985 . S
H692 N689 0.984 . S
H693 N689 0.985 . S
H694 N688 0.984 . S
H695 N688 0.984 . S
H696 N684 0.984 . S
H697 N684 0.985 . S
C698 C699 1.363 . S
C698 C704 1.379 . S
C698 N706 1.356 . S
C699 C698 1.363 . S
C699 C705 1.363 . S
C700 C701 1.363 . S
C700 C705 1.379 . S
C700 N707 1.356 . S
C701 C700 1.363 . S
C701 C704 1.363 . S
N702 C704 1.356 . S
N702 H714 0.984 . S
N702 H715 0.985 . S
N703 C705 1.356 . S
N703 H708 0.984 . S
N703 H709 0.985 . S
C704 C698 1.379 . S
C704 C701 1.363 . S
C704 N702 1.356 . S
C705 C699 1.363 . S
C705 C700 1.379 . S
C705 N703 1.356 . S
N706 C698 1.356 . S
N706 H712 0.984 . S
N706 H713 0.984 . S
N707 C700 1.356 . S
N707 H710 0.984 . S
N707 H711 0.985 . S
H708 N703 0.984 . S
H709 N703 0.985 . S
H710 N707 0.984 . S
H711 N707 0.985 . S
H712 N706 0.984 . S
H713 N706 0.984 . S
H714 N702 0.984 . S
H715 N702 0.985 . S
C716 C717 1.363 . S
C716 C722 1.379 . S
C716 N724 1.356 . S
C717 C716 1.363 . S
C717 C723 1.363 . S
C718 C719 1.363 . S
C718 C723 1.379 . S
C718 N725 1.356 . S
C719 C718 1.363 . S
C719 C722 1.363 . S
N720 C722 1.356 . S
N720 H732 0.984 . S
N720 H733 0.985 . S
N721 C723 1.356 . S
N721 H726 0.984 . S
N721 H727 0.985 . S
C722 C716 1.379 . S
C722 C719 1.363 . S
C722 N720 1.356 . S
C723 C717 1.363 . S
C723 C718 1.379 . S
C723 N721 1.356 . S
N724 C716 1.356 . S
N724 H730 0.984 . S
N724 H731 0.984 . S
N725 C718 1.356 . S
N725 H728 0.984 . S
N725 H729 0.985 . S
H726 N721 0.984 . S
H727 N721 0.985 . S
H728 N725 0.984 . S
H729 N725 0.985 . S
H730 N724 0.984 . S
H731 N724 0.984 . S
H732 N720 0.984 . S
H733 N720 0.985 . S
C734 C735 1.363 1_655 S
C734 C740 1.379 1_556 S
C734 N742 1.356 . S
C735 C734 1.363 1_455 S
C735 C741 1.363 . S
C736 C737 1.363 1_455 S
C736 C741 1.379 1_554 S
C736 N743 1.356 . S
C737 C736 1.363 1_655 S
C737 C740 1.363 . S
N738 C740 1.356 . S
N738 H750 0.984 . S
N738 H751 0.985 . S
N739 C741 1.356 . S
N739 H744 0.984 . S
N739 H745 0.985 . S
C740 C734 1.379 1_554 S
C740 C737 1.363 . S
C740 N738 1.356 . S
C741 C735 1.363 . S
C741 C736 1.379 1_556 S
C741 N739 1.356 . S
N742 C734 1.356 . S
N742 H748 0.984 . S
N742 H749 0.984 . S
N743 C736 1.356 . S
N743 H746 0.984 . S
N743 H747 0.985 . S
H744 N739 0.984 . S
H745 N739 0.985 . S
H746 N743 0.984 . S
H747 N743 0.985 . S
H748 N742 0.984 . S
H749 N742 0.984 . S
H750 N738 0.984 . S
H751 N738 0.985 . S
C321 C31 1.554 . S
C323 C143 1.552 . S
C339 C23 1.554 . S
C341 C71 1.554 . S
C357 C63 1.554 . S
C359 C111 1.557 . S
C375 C103 1.554 . S
C377 C151 1.552 . S
C393 C20 1.554 . S
C395 C202 1.557 . S
C411 C2 1.554 . S
C413 C180 1.554 . S
C429 C162 1.554 . S
C431 C100 1.551 . S
C447 C220 1.554 . S
C449 C82 1.557 . S
C465 C271 1.554 . S
C467 C223 1.556 . S
C483 C191 1.554 . S
C485 C263 1.553 . S
C501 C311 1.554 . S
C503 C183 1.556 . S
C519 C231 1.554 . S
C521 C303 1.556 . S
C537 C122 1.554 . S
C539 C260 1.553 . S
C555 C242 1.554 . S
C557 C60 1.556 . S
C573 C42 1.554 . S
C575 C300 1.553 . S
C591 C140 1.554 . S
C593 C282 1.553 . S
C609 C4 1.769 . S
C611 C25 1.769 . S
C627 C65 1.769 . S
C629 C44 1.769 . S
C645 C105 1.769 . S
C647 C84 1.769 . S
C663 C145 1.769 . S
C665 C124 1.769 . S
C681 C185 1.769 . S
C683 C164 1.769 . S
C699 C225 1.769 . S
C701 C204 1.769 . S
C717 C265 1.769 . S
C719 C244 1.769 . S
C735 C284 1.769 . S
C737 C305 1.769 . S
