# Generated by pormake.
# Topology umw, (4)-cn, num edge types: 1
# Building blocks:
#     Node 0, Type 0, BuildingBlock: QUQFOY_clean_sbu_1, # of connection points: 4
#     Node 1, Type 0, BuildingBlock: QUQFOY_clean_sbu_1, # of connection points: 4
#     Node 2, Type 0, BuildingBlock: QUQFOY_clean_sbu_1, # of connection points: 4
#     Node 3, Type 0, BuildingBlock: QUQFOY_clean_sbu_1, # of connection points: 4
#     Node 4, Type 0, BuildingBlock: QUQFOY_clean_sbu_1, # of connection points: 4
#     Node 5, Type 0, BuildingBlock: QUQFOY_clean_sbu_1, # of connection points: 4
#     Node 6, Type 0, BuildingBlock: QUQFOY_clean_sbu_1, # of connection points: 4
#     Node 7, Type 0, BuildingBlock: QUQFOY_clean_sbu_1, # of connection points: 4
#     Edge 8, Type (0, 0), BuildingBlock: TEMPAE_clean_linker_10, # of connection points: 2
#     Edge 9, Type (0, 0), BuildingBlock: TEMPAE_clean_linker_10, # of connection points: 2
#     Edge 10, Type (0, 0), BuildingBlock: TEMPAE_clean_linker_10, # of connection points: 2
#     Edge 11, Type (0, 0), BuildingBlock: TEMPAE_clean_linker_10, # of connection points: 2
#     Edge 12, Type (0, 0), BuildingBlock: TEMPAE_clean_linker_10, # of connection points: 2
#     Edge 13, Type (0, 0), BuildingBlock: TEMPAE_clean_linker_10, # of connection points: 2
#     Edge 14, Type (0, 0), BuildingBlock: TEMPAE_clean_linker_10, # of connection points: 2
#     Edge 15, Type (0, 0), BuildingBlock: TEMPAE_clean_linker_10, # of connection points: 2
#     Edge 16, Type (0, 0), BuildingBlock: TEMPAE_clean_linker_10, # of connection points: 2
#     Edge 17, Type (0, 0), BuildingBlock: TEMPAE_clean_linker_10, # of connection points: 2
#     Edge 18, Type (0, 0), BuildingBlock: TEMPAE_clean_linker_10, # of connection points: 2
#     Edge 19, Type (0, 0), BuildingBlock: TEMPAE_clean_linker_10, # of connection points: 2
#     Edge 20, Type (0, 0), BuildingBlock: TEMPAE_clean_linker_10, # of connection points: 2
#     Edge 21, Type (0, 0), BuildingBlock: TEMPAE_clean_linker_10, # of connection points: 2
#     Edge 22, Type (0, 0), BuildingBlock: TEMPAE_clean_linker_10, # of connection points: 2
#     Edge 23, Type (0, 0), BuildingBlock: TEMPAE_clean_linker_10, # of connection points: 2
# Relax obj value: 0.048
# Max RMSD: 0.094
# Mean RMSD: 0.094
data_MOF--net-umw--node1-QUQFOY_clean_sbu_1--edge1-TEMPAE_clean_linker_10
_symmetry_space_group_name_H-M    P1
_symmetry_Int_Tables_number       1
_symmetry_cell_setting            triclinic
loop_
_symmetry_equiv_pos_as_xyz
'x, y, z'
_cell_length_a     43.316555
_cell_length_b     43.311287
_cell_length_c     28.471176
_cell_angle_alpha  90.029407
_cell_angle_beta   89.992738
_cell_angle_gamma 89.992538
loop_
_atom_site_label
_atom_site_type_symbol
_atom_site_fract_x
_atom_site_fract_y
_atom_site_fract_z
_atom_type_partial_charge
O0 O 0.42847 0.1793 0.39476 0.0
Cd1 Cd 0.40207 0.17206 0.33576 0.0
Cd2 Cd 0.45781 0.1797 0.30051 0.0
O3 O 0.46635 0.20452 0.36093 0.0
O4 O 0.36048 0.1711 0.3651 0.0
O5 O 0.37509 0.2076 0.31574 0.0
C6 C 0.35476 0.197 0.34477 0.0
C7 C 0.46722 0.19855 0.22563 0.0
C8 C 0.45225 0.19627 0.39792 0.0
C9 C 0.432 0.11643 0.30199 0.0
O10 O 0.45665 0.13204 0.30692 0.0
O11 O 0.40591 0.12977 0.30337 0.0
O12 O 0.48967 0.19074 0.25293 0.0
O13 O 0.43931 0.19688 0.24155 0.0
O14 O 0.80585 0.42343 0.65255 0.0
Cd15 Cd 0.82067 0.38848 0.60977 0.0
Cd16 Cd 0.82823 0.44655 0.55108 0.0
O17 O 0.81134 0.46667 0.61196 0.0
O18 O 0.81772 0.35418 0.65612 0.0
O19 O 0.78895 0.35608 0.59241 0.0
C20 C 0.7958 0.34256 0.63144 0.0
C21 C 0.81361 0.46597 0.47728 0.0
C22 C 0.80354 0.45253 0.64926 0.0
C23 C 0.88388 0.40503 0.57106 0.0
O24 O 0.87257 0.42936 0.55296 0.0
O25 O 0.86699 0.38602 0.59333 0.0
O26 O 0.83188 0.48097 0.50473 0.0
O27 O 0.80243 0.4402 0.49251 0.0
O28 O 0.57051 0.82226 0.89409 0.0
Cd29 Cd 0.59742 0.83007 0.83572 0.0
Cd30 Cd 0.54104 0.82221 0.79963 0.0
O31 O 0.53169 0.79825 0.86028 0.0
O32 O 0.63897 0.8301 0.8653 0.0
O33 O 0.62399 0.79449 0.81466 0.0
C34 C 0.64443 0.80446 0.84402 0.0
C35 C 0.52565 0.80447 0.72609 0.0
C36 C 0.54622 0.80599 0.89715 0.0
C37 C 0.568 0.88585 0.80286 0.0
O38 O 0.54358 0.86976 0.80596 0.0
O39 O 0.59428 0.87299 0.80515 0.0
O40 O 0.50609 0.81598 0.75541 0.0
O41 O 0.55403 0.80159 0.73944 0.0
O42 O 0.17648 0.58042 0.14323 0.0
Cd43 Cd 0.17314 0.61346 0.09231 0.0
Cd44 Cd 0.17163 0.55545 0.03977 0.0
O45 O 0.18648 0.53759 0.10387 0.0
O46 O 0.17511 0.65044 0.1338 0.0
O47 O 0.21059 0.64035 0.08054 0.0
C48 C 0.20108 0.65741 0.1148 0.0
C49 C 0.18906 0.53458 0.9681 0.0
C50 C 0.18362 0.55203 0.14258 0.0
C51 C 0.11451 0.59741 0.04442 0.0
O52 O 0.1264 0.5711 0.03604 0.0
O53 O 0.13053 0.61893 0.06242 0.0
O54 O 0.17058 0.51968 0.99531 0.0
O55 O 0.19919 0.56095 0.98271 0.0
O56 O 0.42593 0.81878 0.21717 0.0
Cd57 Cd 0.39898 0.82762 0.27519 0.0
Cd58 Cd 0.45633 0.82127 0.31111 0.0
O59 O 0.46626 0.79726 0.25076 0.0
O60 O 0.35792 0.82837 0.24407 0.0
O61 O 0.37112 0.79282 0.29579 0.0
C62 C 0.35146 0.80303 0.26542 0.0
C63 C 0.47198 0.80405 0.38479 0.0
C64 C 0.4509 0.80357 0.21403 0.0
C65 C 0.42803 0.88433 0.30691 0.0
O66 O 0.45276 0.86868 0.3043 0.0
O67 O 0.40197 0.87101 0.30456 0.0
O68 O 0.49133 0.81592 0.3555 0.0
O69 O 0.44369 0.80057 0.37137 0.0
O70 O 0.1754 0.41867 0.45745 0.0
Cd71 Cd 0.17309 0.38662 0.50998 0.0
Cd72 Cd 0.17275 0.4447 0.56036 0.0
O73 O 0.18772 0.46136 0.49556 0.0
O74 O 0.17561 0.34866 0.47071 0.0
O75 O 0.21122 0.361 0.52272 0.0
C76 C 0.2019 0.34286 0.48964 0.0
C77 C 0.19062 0.46617 0.63133 0.0
C78 C 0.18362 0.44677 0.45724 0.0
C79 C 0.11526 0.40335 0.55886 0.0
O80 O 0.12731 0.42981 0.56529 0.0
O81 O 0.13103 0.38136 0.54172 0.0
O82 O 0.17248 0.48111 0.60363 0.0
O83 O 0.20026 0.43944 0.61748 0.0
O84 O 0.56983 0.18107 0.72026 0.0
Cd85 Cd 0.59491 0.17317 0.7804 0.0
Cd86 Cd 0.53858 0.18131 0.81317 0.0
O87 O 0.53135 0.2063 0.7526 0.0
O88 O 0.63719 0.17161 0.75341 0.0
O89 O 0.62188 0.20827 0.80207 0.0
C90 C 0.64278 0.19738 0.77424 0.0
C91 C 0.52852 0.2 0.88799 0.0
C92 C 0.54617 0.19814 0.71618 0.0
C93 C 0.56355 0.11778 0.81215 0.0
O94 O 0.53919 0.13369 0.80629 0.0
O95 O 0.58981 0.13081 0.81213 0.0
O96 O 0.5063 0.19265 0.85993 0.0
O97 O 0.55659 0.19803 0.87277 0.0
O98 O 0.80461 0.57434 0.96427 0.0
Cd99 Cd 0.81922 0.6092 0.00745 0.0
Cd100 Cd 0.82821 0.55101 0.06482 0.0
O101 O 0.8112 0.53094 0.00404 0.0
O102 O 0.816 0.64361 0.96133 0.0
O103 O 0.78737 0.64147 0.02516 0.0
C104 C 0.79415 0.65515 0.98624 0.0
C105 C 0.81384 0.53158 0.13872 0.0
C106 C 0.80288 0.54518 0.9671 0.0
C107 C 0.88311 0.59317 0.04433 0.0
O108 O 0.87241 0.5685 0.06218 0.0
O109 O 0.86562 0.61214 0.02309 0.0
O110 O 0.83216 0.51666 0.11124 0.0
O111 O 0.80251 0.5573 0.1235 0.0
C112 C 0.48775 0.22616 0.45085 0.0
C113 C 0.46451 0.20395 0.44494 0.0
C114 C 0.501 0.23138 0.49522 0.0
C115 C 0.49123 0.21341 0.53401 0.0
C116 C 0.46696 0.19187 0.52851 0.0
C117 C 0.45371 0.18766 0.4842 0.0
C118 C 0.52625 0.25515 0.50017 0.0
C119 C 0.45618 0.17184 0.56878 0.0
C120 C 0.54662 0.18998 0.62972 0.0
C121 C 0.53465 0.20578 0.6687 0.0
C122 C 0.53369 0.19361 0.58506 0.0
C123 C 0.50854 0.21405 0.57896 0.0
C124 C 0.49773 0.23175 0.61742 0.0
C125 C 0.51071 0.22714 0.66211 0.0
C126 C 0.54561 0.17389 0.54516 0.0
C127 C 0.47151 0.2544 0.61184 0.0
H128 H 0.49592 0.2391 0.42073 0.0
H129 H 0.4357 0.17049 0.48002 0.0
H130 H 0.52238 0.26956 0.53187 0.0
H131 H 0.5488 0.24337 0.50459 0.0
H132 H 0.52772 0.27046 0.46895 0.0
H133 H 0.43594 0.1574 0.55921 0.0
H134 H 0.47522 0.15634 0.57994 0.0
H135 H 0.44989 0.18632 0.59944 0.0
H136 H 0.56522 0.17352 0.63439 0.0
H137 H 0.50162 0.23973 0.69199 0.0
H138 H 0.55099 0.18839 0.51416 0.0
H139 H 0.52751 0.15717 0.53443 0.0
H140 H 0.56668 0.16076 0.55498 0.0
H141 H 0.47474 0.26857 0.57975 0.0
H142 H 0.46943 0.27001 0.64266 0.0
H143 H 0.44948 0.24162 0.60784 0.0
C144 C 0.81118 0.49608 0.70509 0.0
C145 C 0.79478 0.46963 0.69194 0.0
C146 C 0.8083 0.50822 0.75061 0.0
C147 C 0.78792 0.49399 0.78302 0.0
C148 C 0.76947 0.46881 0.7685 0.0
C149 C 0.77349 0.45661 0.7233 0.0
C150 C 0.82865 0.53492 0.76497 0.0
C151 C 0.7467 0.45371 0.80142 0.0
C152 C 0.81088 0.50181 0.91104 0.0
C153 C 0.79435 0.52818 0.92421 0.0
C154 C 0.80819 0.48973 0.86546 0.0
C155 C 0.78786 0.50396 0.83297 0.0
C156 C 0.76929 0.52908 0.84745 0.0
C157 C 0.77312 0.5412 0.89274 0.0
C158 C 0.82865 0.46311 0.85114 0.0
C159 C 0.74658 0.54416 0.81443 0.0
H160 H 0.8279 0.50589 0.681 0.0
H161 H 0.76073 0.43616 0.71297 0.0
H162 H 0.81455 0.55376 0.78031 0.0
H163 H 0.84508 0.52717 0.79246 0.0
H164 H 0.84207 0.54436 0.73498 0.0
H165 H 0.73103 0.43755 0.78272 0.0
H166 H 0.75936 0.44058 0.82875 0.0
H167 H 0.73257 0.47142 0.81963 0.0
H168 H 0.82754 0.49198 0.9352 0.0
H169 H 0.76024 0.56158 0.90306 0.0
H170 H 0.84508 0.47089 0.82367 0.0
H171 H 0.81462 0.44421 0.8358 0.0
H172 H 0.84207 0.45371 0.88116 0.0
H173 H 0.75928 0.5573 0.78716 0.0
H174 H 0.73085 0.56031 0.83306 0.0
H175 H 0.73251 0.52643 0.79615 0.0
C176 C 0.4499 0.80982 0.12728 0.0
C177 C 0.463 0.79582 0.16697 0.0
C178 C 0.4631 0.80623 0.08282 0.0
C179 C 0.48973 0.78763 0.07771 0.0
C180 C 0.50176 0.77156 0.11694 0.0
C181 C 0.48845 0.77614 0.16139 0.0
C182 C 0.44983 0.8242 0.04204 0.0
C183 C 0.52961 0.75083 0.1124 0.0
C184 C 0.51213 0.77494 0.95042 0.0
C185 C 0.53386 0.79855 0.94408 0.0
C186 C 0.49896 0.76955 0.99477 0.0
C187 C 0.50715 0.78884 0.03295 0.0
C188 C 0.52981 0.81201 0.02695 0.0
C189 C 0.54314 0.81632 0.98275 0.0
C190 C 0.47553 0.74403 1.00035 0.0
C191 C 0.53873 0.83353 0.06652 0.0
H192 H 0.43012 0.82494 0.13118 0.0
H193 H 0.4984 0.76489 0.19184 0.0
H194 H 0.46659 0.8421 0.03076 0.0
H195 H 0.44575 0.80876 0.0116 0.0
H196 H 0.42774 0.83577 0.05118 0.0
H197 H 0.53273 0.73597 0.14384 0.0
H198 H 0.52756 0.7359 0.08087 0.0
H199 H 0.55065 0.76513 0.10802 0.0
H200 H 0.5052 0.76091 0.92069 0.0
H201 H 0.55991 0.83464 0.97808 0.0
H202 H 0.45214 0.75415 0.00419 0.0
H203 H 0.48032 0.73045 0.03258 0.0
H204 H 0.47535 0.72817 0.96967 0.0
H205 H 0.51844 0.84759 0.077 0.0
H206 H 0.55775 0.84944 0.05653 0.0
H207 H 0.54608 0.82013 0.09774 0.0
C208 C 0.1687 0.45198 0.3735 0.0
C209 C 0.18677 0.46227 0.41128 0.0
C210 C 0.17065 0.46595 0.3293 0.0
C211 C 0.1918 0.49038 0.32223 0.0
C212 C 0.21078 0.50038 0.35986 0.0
C213 C 0.2077 0.48648 0.40431 0.0
C214 C 0.14925 0.45523 0.29066 0.0
C215 C 0.23408 0.52591 0.35323 0.0
C216 C 0.20625 0.51049 0.19386 0.0
C217 C 0.18679 0.53604 0.18818 0.0
C218 C 0.2093 0.49612 0.23798 0.0
C219 C 0.19175 0.50709 0.27662 0.0
C220 C 0.17205 0.53283 0.27081 0.0
C221 C 0.17012 0.54717 0.22691 0.0
C222 C 0.23105 0.46913 0.24323 0.0
C223 C 0.15219 0.54469 0.31059 0.0
H224 H 0.15233 0.43337 0.37882 0.0
H225 H 0.22193 0.49422 0.43334 0.0
H226 H 0.1339 0.47449 0.27994 0.0
H227 H 0.16274 0.44829 0.25928 0.0
H228 H 0.13465 0.43542 0.30165 0.0
H229 H 0.24902 0.52902 0.38459 0.0
H230 H 0.2489 0.52092 0.32235 0.0
H231 H 0.22197 0.54799 0.34613 0.0
H232 H 0.21938 0.50205 0.16409 0.0
H233 H 0.15483 0.5668 0.22262 0.0
H234 H 0.21775 0.44787 0.25111 0.0
H235 H 0.24695 0.47313 0.27318 0.0
H236 H 0.24494 0.46509 0.21101 0.0
H237 H 0.13607 0.5263 0.3222 0.0
H238 H 0.13846 0.56528 0.30039 0.0
H239 H 0.16678 0.55086 0.34119 0.0
C240 C 0.32429 0.24614 0.34414 0.0
C241 C 0.32778 0.21561 0.35956 0.0
C242 C 0.30206 0.26565 0.3644 0.0
C243 C 0.28298 0.25432 0.40096 0.0
C244 C 0.28536 0.2231 0.41499 0.0
C245 C 0.30766 0.2041 0.39403 0.0
C246 C 0.29991 0.29875 0.34812 0.0
C247 C 0.26534 0.21012 0.45368 0.0
C248 C 0.25175 0.31353 0.48733 0.0
C249 C 0.22167 0.31796 0.47052 0.0
C250 C 0.27179 0.29243 0.4655 0.0
C251 C 0.26148 0.27548 0.4259 0.0
C252 C 0.23085 0.27917 0.4097 0.0
C253 C 0.21131 0.30029 0.43226 0.0
C254 C 0.30425 0.28887 0.48405 0.0
C255 C 0.219 0.26147 0.36768 0.0
H256 H 0.33976 0.25522 0.31759 0.0
H257 H 0.31013 0.18051 0.40614 0.0
H258 H 0.27571 0.30455 0.33887 0.0
H259 H 0.30695 0.31442 0.37704 0.0
H260 H 0.31484 0.30337 0.31718 0.0
H261 H 0.2685 0.18484 0.4581 0.0
H262 H 0.27108 0.22165 0.48739 0.0
H263 H 0.24063 0.2148 0.44635 0.0
H264 H 0.25993 0.32712 0.51678 0.0
H265 H 0.18808 0.30356 0.41899 0.0
H266 H 0.32106 0.29611 0.4568 0.0
H267 H 0.30898 0.26427 0.49222 0.0
H268 H 0.3083 0.30282 0.51622 0.0
H269 H 0.23239 0.26801 0.33599 0.0
H270 H 0.19416 0.26596 0.36081 0.0
H271 H 0.22227 0.23631 0.37303 0.0
C272 C 0.78669 0.30176 0.69169 0.0
C273 C 0.77734 0.31662 0.65023 0.0
C274 C 0.76749 0.28029 0.71416 0.0
C275 C 0.73818 0.27361 0.69481 0.0
C276 C 0.72916 0.28751 0.65189 0.0
C277 C 0.74891 0.30881 0.63001 0.0
C278 C 0.77807 0.26569 0.75954 0.0
C279 C 0.69809 0.28083 0.63009 0.0
C280 C 0.69258 0.20276 0.73097 0.0
C281 C 0.67033 0.21561 0.76105 0.0
C282 C 0.71561 0.22114 0.71055 0.0
C283 C 0.71634 0.25314 0.72036 0.0
C284 C 0.69506 0.26592 0.75279 0.0
C285 C 0.67233 0.24696 0.77289 0.0
C286 C 0.73814 0.20658 0.67665 0.0
C287 C 0.69527 0.29995 0.76438 0.0
H288 H 0.80871 0.30758 0.70746 0.0
H289 H 0.74152 0.32026 0.59809 0.0
H290 H 0.76331 0.27385 0.78887 0.0
H291 H 0.77564 0.24022 0.75773 0.0
H292 H 0.80248 0.27137 0.76786 0.0
H293 H 0.69518 0.29233 0.5955 0.0
H294 H 0.69503 0.25559 0.62531 0.0
H295 H 0.67947 0.28889 0.65391 0.0
H296 H 0.69127 0.17851 0.72178 0.0
H297 H 0.65519 0.25707 0.79599 0.0
H298 H 0.76215 0.21319 0.68571 0.0
H299 H 0.73352 0.21518 0.64062 0.0
H300 H 0.73644 0.18099 0.67637 0.0
H301 H 0.71867 0.30726 0.77562 0.0
H302 H 0.67857 0.30588 0.7926 0.0
H303 H 0.68931 0.31346 0.73253 0.0
C304 C 0.78562 0.69681 0.9272 0.0
C305 C 0.77586 0.68135 0.96791 0.0
C306 C 0.76674 0.71875 0.90519 0.0
C307 C 0.7373 0.72528 0.9242 0.0
C308 C 0.7278 0.71069 0.96634 0.0
C309 C 0.74726 0.68893 0.98782 0.0
C310 C 0.77783 0.73408 0.86065 0.0
C311 C 0.69656 0.71716 0.98774 0.0
C312 C 0.69312 0.79737 0.88957 0.0
C313 C 0.67125 0.78542 0.85805 0.0
C314 C 0.71547 0.77827 0.91019 0.0
C315 C 0.7159 0.74644 0.89911 0.0
C316 C 0.69493 0.73454 0.86548 0.0
C317 C 0.67288 0.75422 0.84521 0.0
C318 C 0.73769 0.79189 0.94543 0.0
C319 C 0.69481 0.70072 0.85258 0.0
H320 H 0.80777 0.69116 0.9117 0.0
H321 H 0.73954 0.677 0.01915 0.0
H322 H 0.76314 0.72675 0.83074 0.0
H323 H 0.77576 0.75954 0.86365 0.0
H324 H 0.80221 0.72821 0.85241 0.0
H325 H 0.69323 0.70501 0.02172 0.0
H326 H 0.69363 0.74231 0.99359 0.0
H327 H 0.67813 0.70971 0.96315 0.0
H328 H 0.69208 0.8215 0.89958 0.0
H329 H 0.656 0.7448 0.82102 0.0
H330 H 0.76176 0.78537 0.93656 0.0
H331 H 0.73267 0.78245 0.98084 0.0
H332 H 0.73612 0.81747 0.94709 0.0
H333 H 0.71821 0.69331 0.84146 0.0
H334 H 0.67827 0.69548 0.82384 0.0
H335 H 0.68845 0.68675 0.88378 0.0
C336 C 0.25039 0.68755 0.11869 0.0
C337 C 0.22032 0.68233 0.13503 0.0
C338 C 0.26997 0.70861 0.14153 0.0
C339 C 0.25919 0.72475 0.18163 0.0
C340 C 0.22856 0.7203 0.19734 0.0
C341 C 0.20949 0.6992 0.17383 0.0
C342 C 0.30246 0.71298 0.1235 0.0
C343 C 0.2162 0.73716 0.23983 0.0
C344 C 0.32126 0.75375 0.26494 0.0
C345 C 0.32454 0.78447 0.25031 0.0
C346 C 0.2993 0.73427 0.24394 0.0
C347 C 0.28023 0.74586 0.20756 0.0
C348 C 0.28229 0.77729 0.19451 0.0
C349 C 0.30438 0.79622 0.21609 0.0
C350 C 0.29752 0.70093 0.25915 0.0
C351 C 0.26221 0.79056 0.15613 0.0
H352 H 0.25894 0.67458 0.08883 0.0
H353 H 0.18627 0.69533 0.18672 0.0
H354 H 0.30681 0.73776 0.11619 0.0
H355 H 0.31925 0.70564 0.15073 0.0
H356 H 0.30692 0.69954 0.09095 0.0
H357 H 0.19138 0.73221 0.24618 0.0
H358 H 0.22949 0.73031 0.27146 0.0
H359 H 0.21914 0.76244 0.23544 0.0
H360 H 0.33677 0.74449 0.29127 0.0
H361 H 0.30668 0.81997 0.20465 0.0
H362 H 0.30499 0.68577 0.22983 0.0
H363 H 0.27335 0.69465 0.26784 0.0
H364 H 0.31231 0.6961 0.29016 0.0
H365 H 0.26832 0.77974 0.12204 0.0
H366 H 0.26493 0.81597 0.15277 0.0
H367 H 0.23756 0.78532 0.16299 0.0
C368 C 0.40905 0.93566 0.33454 0.0
C369 C 0.42972 0.91827 0.30755 0.0
C370 C 0.41024 0.96806 0.33414 0.0
C371 C 0.43173 0.98323 0.30452 0.0
C372 C 0.45233 0.96565 0.2767 0.0
C373 C 0.45147 0.93334 0.27928 0.0
C374 C 0.38865 0.98605 0.36553 0.0
C375 C 0.47479 0.98092 0.24344 0.0
C376 C 0.41264 0.06604 0.27166 0.0
C377 C 0.43334 0.08251 0.2999 0.0
C378 C 0.41246 0.03363 0.27181 0.0
C379 C 0.43258 0.01751 0.30242 0.0
C380 C 0.45344 0.03413 0.33117 0.0
C381 C 0.45397 0.06648 0.32888 0.0
C382 C 0.39072 0.01668 0.23935 0.0
C383 C 0.47453 0.01782 0.36534 0.0
H384 H 0.39231 0.92389 0.35645 0.0
H385 H 0.46715 0.9198 0.25789 0.0
H386 H 0.40205 0.0021 0.38808 0.0
H387 H 0.3728 0.00026 0.34391 0.0
H388 H 0.3746 0.97075 0.38842 0.0
H389 H 0.48857 0.96387 0.22318 0.0
H390 H 0.46207 0.99584 0.21835 0.0
H391 H 0.49087 0.99601 0.26324 0.0
H392 H 0.39674 0.07854 0.24924 0.0
H393 H 0.46965 0.07932 0.35124 0.0
H394 H 0.37362 0.00344 0.26018 0.0
H395 H 0.40376 -0.00018 0.21769 0.0
H396 H 0.37807 0.0326 0.21557 0.0
H397 H 0.46062 0.00374 0.39009 0.0
H398 H 0.48889 0.03421 0.38595 0.0
H399 H 0.49007 0.00179 0.34628 0.0
C400 C 0.93522 0.41483 0.53418 0.0
C401 C 0.91761 0.40004 0.5688 0.0
C402 C 0.9675 0.41259 0.53396 0.0
C403 C 0.98256 0.39564 0.56977 0.0
C404 C 0.9649 0.38009 0.60425 0.0
C405 C 0.93257 0.38224 0.6031 0.0
C406 C 0.98552 0.42901 0.49603 0.0
C407 C 0.98019 0.36219 0.64334 0.0
C408 C 0.06607 0.37428 0.54613 0.0
C409 C 0.08177 0.3991 0.56699 0.0
C410 C 0.03377 0.37226 0.54804 0.0
C411 C 0.01683 0.39537 0.57194 0.0
C412 C 0.03265 0.41956 0.59522 0.0
C413 C 0.06492 0.42125 0.59219 0.0
C414 C 0.0177 0.34629 0.52244 0.0
C415 C 0.0154 0.44435 0.62175 0.0
H416 H 0.92374 0.42844 0.50742 0.0
H417 H 0.91907 0.37096 0.63018 0.0
H418 H -0.00021 0.44755 0.51189 0.0
H419 H 0.00149 0.41265 0.47842 0.0
H420 H 0.97025 0.4395 0.46904 0.0
H421 H 0.96316 0.35007 0.66596 0.0
H422 H 0.99645 0.34491 0.62867 0.0
H423 H 0.99388 0.37816 0.66559 0.0
H424 H 0.0789 0.35712 0.52645 0.0
H425 H 0.0769 0.44036 0.6087 0.0
H426 H 0.00441 0.35582 0.49245 0.0
H427 H 0.001 0.33459 0.54599 0.0
H428 H 0.03422 0.32884 0.50877 0.0
H429 H 0.00179 0.45853 0.59676 0.0
H430 H 0.03118 0.45987 0.64149 0.0
H431 H -0.00112 0.43379 0.64681 0.0
C432 C 0.54332 0.93447 0.82975 0.0
C433 C 0.56572 0.91976 0.80218 0.0
C434 C 0.54212 0.96675 0.83282 0.0
C435 C 0.56311 0.98468 0.80625 0.0
C436 C 0.58519 0.96989 0.77716 0.0
C437 C 0.58665 0.9375 0.77625 0.0
C438 C 0.51899 0.98162 0.86547 0.0
C439 C 0.60724 0.98826 0.74709 0.0
C440 C 0.5416 0.06828 0.78335 0.0
C441 C 0.56181 0.08387 0.81355 0.0
C442 C 0.54197 0.03596 0.78026 0.0
C443 C 0.56224 0.01891 0.8094 0.0
C444 C 0.58187 0.03458 0.84127 0.0
C445 C 0.58187 0.06698 0.84225 0.0
C446 C 0.52143 0.02013 0.74478 0.0
C447 C 0.60296 0.01716 0.87413 0.0
H448 H 0.52742 0.92067 0.85035 0.0
H449 H 0.6039 0.92603 0.75487 0.0
H450 H 0.53123 0.99605 0.89177 0.0
H451 H 0.50344 0.99713 0.84547 0.0
H452 H 0.50469 0.96433 0.88435 0.0
H453 H 0.62157 0.97325 0.72413 0.0
H454 H 0.5942 0.00468 0.72469 0.0
H455 H 0.62282 0.0021 0.76972 0.0
H456 H 0.52642 0.08144 0.76064 0.0
H457 H 0.59746 0.07914 0.86561 0.0
H458 H 0.50567 0.00376 0.76269 0.0
H459 H 0.53576 0.00648 0.71999 0.0
H460 H 0.50733 0.0368 0.72431 0.0
H461 H 0.58951 1e-05 0.89462 0.0
H462 H 0.61514 0.03274 0.899 0.0
H463 H 0.62047 0.00422 0.85362 0.0
C464 C 0.93069 0.61832 0.01237 0.0
C465 C 0.91683 0.5986 0.04531 0.0
C466 C 0.96294 0.62105 0.00962 0.0
C467 C 0.98167 0.60405 0.04106 0.0
C468 C 0.96776 0.58508 0.07559 0.0
C469 C 0.93552 0.5824 0.07705 0.0
C470 C 0.97697 0.64121 0.97201 0.0
C471 C 0.98696 0.567 0.11029 0.0
C472 C 0.06373 0.58085 0.01113 0.0
C473 C 0.08089 0.60183 0.03804 0.0
C474 C 0.03138 0.5823 0.00995 0.0
C475 C 0.01586 0.60497 0.03693 0.0
C476 C 0.03308 0.62701 0.06259 0.0
C477 C 0.06543 0.62533 0.06254 0.0
C478 C 0.0138 0.55874 0.98141 0.0
C479 C 0.01734 0.65131 0.09217 0.0
H480 H 0.91639 0.63075 0.9875 0.0
H481 H 0.92494 0.56729 0.10278 0.0
H482 H 0.9934 0.65789 0.9878 0.0
H483 H 0.99026 0.62668 0.94705 0.0
H484 H 0.95923 0.65424 0.952 0.0
H485 H 0.97254 0.55488 0.13677 0.0
H486 H 0.00105 0.54959 0.09137 0.0
H487 H 0.00316 0.58262 0.12891 0.0
H488 H 0.07554 0.56277 0.99184 0.0
H489 H 0.07851 0.64156 0.08361 0.0
H490 H 0.9965 0.57035 0.95875 0.0
H491 H 0.00106 0.54303 0.0053 0.0
H492 H 0.02928 0.54462 0.95887 0.0
H493 H -0.00019 0.66387 0.07117 0.0
H494 H 0.03396 0.66832 0.1068 0.0
H495 H 0.00506 0.64005 0.12177 0.0
C496 C 0.53857 0.19206 0.97292 0.0
C497 C 0.52187 0.20706 0.93759 0.0
C498 C 0.52929 0.19399 0.02008 0.0
C499 C 0.5035 0.21248 0.0323 0.0
C500 C 0.48788 0.22938 0.99694 0.0
C501 C 0.49677 0.22581 0.94976 0.0
C502 C 0.54591 0.17469 0.05631 0.0
C503 C 0.46122 0.25044 0.00874 0.0
C504 C 0.45885 0.18825 0.14102 0.0
C505 C 0.47337 0.20567 0.17599 0.0
C506 C 0.4681 0.19063 0.09392 0.0
C507 C 0.49149 0.21198 0.08135 0.0
C508 C 0.50479 0.23108 0.11634 0.0
C509 C 0.49616 0.22708 0.16356 0.0
C510 C 0.45411 0.16899 0.05814 0.0
C511 C 0.5287 0.25511 0.10412 0.0
H512 H 0.55771 0.1772 0.9633 0.0
H513 H 0.48391 0.23743 0.92229 0.0
H514 H 0.55449 0.18949 0.08526 0.0
H515 H 0.52961 0.15778 0.0719 0.0
H516 H 0.56578 0.16188 0.04114 0.0
H517 H 0.45471 0.26537 0.9786 0.0
H518 H 0.44082 0.23649 0.01881 0.0
H519 H 0.46714 0.26535 0.03915 0.0
H520 H 0.44157 0.17135 0.15097 0.0
H521 H 0.50736 0.2405 0.19082 0.0
H522 H 0.47247 0.15421 0.04279 0.0
H523 H 0.44365 0.18229 0.02895 0.0
H524 H 0.43611 0.15384 0.07364 0.0
H525 H 0.55067 0.24365 0.09433 0.0
H526 H 0.53331 0.27101 0.13394 0.0
H527 H 0.52104 0.26889 0.07339 0.0
C528 C 0.78658 0.53518 0.21664 0.0
C529 C 0.80794 0.52036 0.1872 0.0
C530 C 0.78312 0.52622 0.2639 0.0
C531 C 0.80181 0.50225 0.2823 0.0
C532 C 0.82266 0.48659 0.25228 0.0
C533 C 0.82529 0.49567 0.20515 0.0
C534 C 0.76023 0.5431 0.29453 0.0
C535 C 0.8433 0.46114 0.27046 0.0
C536 C 0.82478 0.50207 0.41098 0.0
C537 C 0.8077 0.47714 0.42877 0.0
C538 C 0.82223 0.5111 0.36382 0.0
C539 C 0.80175 0.49514 0.33361 0.0
C540 C 0.78332 0.47091 0.35183 0.0
C541 C 0.78668 0.46202 0.39914 0.0
C542 C 0.84258 0.53684 0.34584 0.0
C543 C 0.76082 0.45368 0.32098 0.0
H544 H 0.77295 0.55415 0.20302 0.0
H545 H 0.84187 0.48405 0.18276 0.0
H546 H 0.74565 0.52641 0.31405 0.0
H547 H 0.77277 0.55718 0.32091 0.0
H548 H 0.74501 0.55863 0.27384 0.0
H549 H 0.85708 0.45017 0.24208 0.0
H550 H 0.85942 0.47065 0.29708 0.0
H551 H 0.82933 0.44305 0.288 0.0
H552 H 0.84108 0.51393 0.43352 0.0
H553 H 0.77327 0.44285 0.41263 0.0
H554 H 0.82843 0.55473 0.32814 0.0
H555 H 0.85895 0.52755 0.31939 0.0
H556 H 0.85607 0.54801 0.37435 0.0
H557 H 0.74611 0.47016 0.30125 0.0
H558 H 0.74572 0.43797 0.34152 0.0
H559 H 0.7737 0.43976 0.29478 0.0
C560 C 0.4913 0.81383 0.65765 0.0
C561 C 0.5162 0.79769 0.67728 0.0
C562 C 0.48404 0.81099 0.60989 0.0
C563 C 0.50149 0.79071 0.58128 0.0
C564 C 0.52549 0.7729 0.60154 0.0
C565 C 0.53296 0.77704 0.64922 0.0
C566 C 0.45885 0.83107 0.58954 0.0
C567 C 0.54387 0.75025 0.57255 0.0
C568 C 0.46516 0.7765 0.46161 0.0
C569 C 0.48155 0.79746 0.4336 0.0
C570 C 0.47272 0.77247 0.50927 0.0
C571 C 0.49641 0.79068 0.52957 0.0
C572 C 0.51348 0.81128 0.50101 0.0
C573 C 0.50616 0.81403 0.45326 0.0
C574 C 0.45475 0.74947 0.5382 0.0
C575 C 0.53833 0.83178 0.5214 0.0
H576 H 0.4784 0.82999 0.67914 0.0
H577 H 0.55208 0.76435 0.66441 0.0
H578 H 0.46892 0.84716 0.56336 0.0
H579 H 0.44154 0.81671 0.57097 0.0
H580 H 0.44679 0.84488 0.61686 0.0
H581 H 0.55847 0.73503 0.59476 0.0
H582 H 0.52821 0.73565 0.55111 0.0
H583 H 0.55911 0.76296 0.54795 0.0
H584 H 0.44627 0.76348 0.44639 0.0
H585 H 0.51876 0.83042 0.43181 0.0
H586 H 0.4393 0.7619 0.56286 0.0
H587 H 0.47067 0.73514 0.55958 0.0
H588 H 0.44041 0.73403 0.51596 0.0
H589 H 0.52798 0.84768 0.54763 0.0
H590 H 0.55014 0.8458 0.49412 0.0
H591 H 0.55588 0.8177 0.53993 0.0
C592 C 0.17872 0.49819 0.90181 0.0
C593 C 0.19599 0.52282 0.92016 0.0
C594 C 0.18189 0.48894 0.8548 0.0
C595 C 0.20329 0.50427 0.82532 0.0
C596 C 0.22202 0.52807 0.84424 0.0
C597 C 0.21792 0.53729 0.89132 0.0
C598 C 0.16112 0.46375 0.83608 0.0
C599 C 0.24559 0.54452 0.81432 0.0
C600 C 0.21818 0.46299 0.70913 0.0
C601 C 0.19749 0.47824 0.67911 0.0
C602 C 0.22176 0.47233 0.75624 0.0
C603 C 0.20379 0.4971 0.77396 0.0
C604 C 0.18385 0.51332 0.74324 0.0
C605 C 0.18116 0.50388 0.69624 0.0
C606 C 0.2438 0.45489 0.78752 0.0
C607 C 0.16397 0.53962 0.76061 0.0
H608 H 0.16167 0.48685 0.92369 0.0
H609 H 0.23149 0.55623 0.90524 0.0
H610 H 0.14553 0.47343 0.80888 0.0
H611 H 0.17506 0.44539 0.81911 0.0
H612 H 0.14677 0.45309 0.86405 0.0
H613 H 0.26099 0.55955 0.83557 0.0
H614 H 0.25993 0.52757 0.79485 0.0
H615 H 0.23364 0.55906 0.78792 0.0
H616 H 0.23103 0.44327 0.69617 0.0
H617 H 0.16511 0.51586 0.67343 0.0
H618 H 0.23055 0.44086 0.81312 0.0
H619 H 0.25834 0.47119 0.8079 0.0
H620 H 0.25908 0.43921 0.76717 0.0
H621 H 0.14708 0.53079 0.78667 0.0
H622 H 0.15106 0.55104 0.73172 0.0
H623 H 0.17835 0.5572 0.77859 0.0
loop_
_geom_bond_atom_site_label_1
_geom_bond_atom_site_label_2
_geom_bond_distance
_geom_bond_site_symmetry_2
_ccdc_geom_bond_type
O0 Cd1 2.223 . S
O0 C8 1.315 . S
Cd1 O0 2.223 . S
Cd1 O4 2.297 . S
Cd1 O5 2.439 . S
Cd1 O11 2.240 . S
Cd2 O3 2.240 . S
Cd2 O10 2.223 . S
Cd2 O12 2.297 . S
Cd2 O13 2.439 . S
O3 Cd2 2.240 . S
O3 C8 1.279 . S
O4 Cd1 2.297 . S
O4 C6 1.247 . S
O5 Cd1 2.439 . S
O5 C6 1.208 . S
C6 O4 1.247 . S
C6 O5 1.208 . S
C7 O12 1.247 . S
C7 O13 1.208 . S
C8 O0 1.315 . S
C8 O3 1.279 . S
C9 O10 1.315 . S
C9 O11 1.279 . S
O10 Cd2 2.223 . S
O10 C9 1.315 . S
O11 Cd1 2.240 . S
O11 C9 1.279 . S
O12 Cd2 2.297 . S
O12 C7 1.247 . S
O13 Cd2 2.439 . S
O13 C7 1.208 . S
O14 Cd15 2.223 . S
O14 C22 1.315 . S
Cd15 O14 2.223 . S
Cd15 O18 2.297 . S
Cd15 O19 2.439 . S
Cd15 O25 2.240 . S
Cd16 O17 2.240 . S
Cd16 O24 2.223 . S
Cd16 O26 2.297 . S
Cd16 O27 2.439 . S
O17 Cd16 2.240 . S
O17 C22 1.279 . S
O18 Cd15 2.297 . S
O18 C20 1.247 . S
O19 Cd15 2.439 . S
O19 C20 1.208 . S
C20 O18 1.247 . S
C20 O19 1.208 . S
C21 O26 1.247 . S
C21 O27 1.208 . S
C22 O14 1.315 . S
C22 O17 1.279 . S
C23 O24 1.315 . S
C23 O25 1.279 . S
O24 Cd16 2.223 . S
O24 C23 1.315 . S
O25 Cd15 2.240 . S
O25 C23 1.279 . S
O26 Cd16 2.297 . S
O26 C21 1.247 . S
O27 Cd16 2.439 . S
O27 C21 1.208 . S
O28 Cd29 2.223 . S
O28 C36 1.315 . S
Cd29 O28 2.223 . S
Cd29 O32 2.297 . S
Cd29 O33 2.439 . S
Cd29 O39 2.240 . S
Cd30 O31 2.240 . S
Cd30 O38 2.223 . S
Cd30 O40 2.297 . S
Cd30 O41 2.439 . S
O31 Cd30 2.240 . S
O31 C36 1.279 . S
O32 Cd29 2.297 . S
O32 C34 1.247 . S
O33 Cd29 2.439 . S
O33 C34 1.208 . S
C34 O32 1.247 . S
C34 O33 1.208 . S
C35 O40 1.247 . S
C35 O41 1.208 . S
C36 O28 1.315 . S
C36 O31 1.279 . S
C37 O38 1.315 . S
C37 O39 1.279 . S
O38 Cd30 2.223 . S
O38 C37 1.315 . S
O39 Cd29 2.240 . S
O39 C37 1.279 . S
O40 Cd30 2.297 . S
O40 C35 1.247 . S
O41 Cd30 2.439 . S
O41 C35 1.208 . S
O42 Cd43 2.223 . S
O42 C50 1.315 . S
Cd43 O42 2.223 . S
Cd43 O46 2.297 . S
Cd43 O47 2.439 . S
Cd43 O53 2.240 . S
Cd44 O45 2.240 . S
Cd44 O52 2.223 . S
Cd44 O54 2.297 1_554 S
Cd44 O55 2.439 1_554 S
O45 Cd44 2.240 . S
O45 C50 1.279 . S
O46 Cd43 2.297 . S
O46 C48 1.247 . S
O47 Cd43 2.439 . S
O47 C48 1.208 . S
C48 O46 1.247 . S
C48 O47 1.208 . S
C49 O54 1.247 . S
C49 O55 1.208 . S
C50 O42 1.315 . S
C50 O45 1.279 . S
C51 O52 1.315 . S
C51 O53 1.279 . S
O52 Cd44 2.223 . S
O52 C51 1.315 . S
O53 Cd43 2.240 . S
O53 C51 1.279 . S
O54 Cd44 2.297 1_556 S
O54 C49 1.247 . S
O55 Cd44 2.439 1_556 S
O55 C49 1.208 . S
O56 Cd57 2.223 . S
O56 C64 1.315 . S
Cd57 O56 2.223 . S
Cd57 O60 2.297 . S
Cd57 O61 2.439 . S
Cd57 O67 2.240 . S
Cd58 O59 2.240 . S
Cd58 O66 2.223 . S
Cd58 O68 2.297 . S
Cd58 O69 2.439 . S
O59 Cd58 2.240 . S
O59 C64 1.279 . S
O60 Cd57 2.297 . S
O60 C62 1.247 . S
O61 Cd57 2.439 . S
O61 C62 1.208 . S
C62 O60 1.247 . S
C62 O61 1.208 . S
C63 O68 1.247 . S
C63 O69 1.208 . S
C64 O56 1.315 . S
C64 O59 1.279 . S
C65 O66 1.315 . S
C65 O67 1.279 . S
O66 Cd58 2.223 . S
O66 C65 1.315 . S
O67 Cd57 2.240 . S
O67 C65 1.279 . S
O68 Cd58 2.297 . S
O68 C63 1.247 . S
O69 Cd58 2.439 . S
O69 C63 1.208 . S
O70 Cd71 2.223 . S
O70 C78 1.315 . S
Cd71 O70 2.223 . S
Cd71 O74 2.297 . S
Cd71 O75 2.439 . S
Cd71 O81 2.240 . S
Cd72 O73 2.240 . S
Cd72 O80 2.223 . S
Cd72 O82 2.297 . S
Cd72 O83 2.439 . S
O73 Cd72 2.240 . S
O73 C78 1.279 . S
O74 Cd71 2.297 . S
O74 C76 1.247 . S
O75 Cd71 2.439 . S
O75 C76 1.208 . S
C76 O74 1.247 . S
C76 O75 1.208 . S
C77 O82 1.247 . S
C77 O83 1.208 . S
C78 O70 1.315 . S
C78 O73 1.279 . S
C79 O80 1.315 . S
C79 O81 1.279 . S
O80 Cd72 2.223 . S
O80 C79 1.315 . S
O81 Cd71 2.240 . S
O81 C79 1.279 . S
O82 Cd72 2.297 . S
O82 C77 1.247 . S
O83 Cd72 2.439 . S
O83 C77 1.208 . S
O84 Cd85 2.223 . S
O84 C92 1.315 . S
Cd85 O84 2.223 . S
Cd85 O88 2.297 . S
Cd85 O89 2.439 . S
Cd85 O95 2.240 . S
Cd86 O87 2.240 . S
Cd86 O94 2.223 . S
Cd86 O96 2.297 . S
Cd86 O97 2.439 . S
O87 Cd86 2.240 . S
O87 C92 1.279 . S
O88 Cd85 2.297 . S
O88 C90 1.247 . S
O89 Cd85 2.439 . S
O89 C90 1.208 . S
C90 O88 1.247 . S
C90 O89 1.208 . S
C91 O96 1.247 . S
C91 O97 1.208 . S
C92 O84 1.315 . S
C92 O87 1.279 . S
C93 O94 1.315 . S
C93 O95 1.279 . S
O94 Cd86 2.223 . S
O94 C93 1.315 . S
O95 Cd85 2.240 . S
O95 C93 1.279 . S
O96 Cd86 2.297 . S
O96 C91 1.247 . S
O97 Cd86 2.439 . S
O97 C91 1.208 . S
O98 Cd99 2.223 . S
O98 C106 1.315 . S
Cd99 O98 2.223 . S
Cd99 O102 2.297 . S
Cd99 O103 2.439 1_556 S
Cd99 O109 2.240 1_556 S
Cd100 O101 2.240 1_554 S
Cd100 O108 2.223 . S
Cd100 O110 2.297 . S
Cd100 O111 2.439 . S
O101 Cd100 2.240 1_556 S
O101 C106 1.279 . S
O102 Cd99 2.297 . S
O102 C104 1.247 . S
O103 Cd99 2.439 1_554 S
O103 C104 1.208 1_554 S
C104 O102 1.247 . S
C104 O103 1.208 1_556 S
C105 O110 1.247 . S
C105 O111 1.208 . S
C106 O98 1.315 . S
C106 O101 1.279 . S
C107 O108 1.315 . S
C107 O109 1.279 . S
O108 Cd100 2.223 . S
O108 C107 1.315 . S
O109 Cd99 2.240 1_554 S
O109 C107 1.279 . S
O110 Cd100 2.297 . S
O110 C105 1.247 . S
O111 Cd100 2.439 . S
O111 C105 1.208 . S
C112 C113 1.391 . S
C112 C114 1.394 . S
C112 H128 0.931 . S
C113 C112 1.391 . S
C113 C117 1.376 . S
C114 C112 1.394 . S
C114 C115 1.369 . S
C114 C118 1.531 . S
C115 C114 1.369 . S
C115 C116 1.410 . S
C115 C123 1.503 . S
C116 C115 1.410 . S
C116 C117 1.392 . S
C116 C119 1.511 . S
C117 C113 1.376 . S
C117 C116 1.392 . S
C117 H129 0.929 . S
C118 C114 1.531 . S
C118 H130 0.960 . S
C118 H131 0.962 . S
C118 H132 0.960 . S
C119 C116 1.511 . S
C119 H133 0.961 . S
C119 H134 0.961 . S
C119 H135 0.961 . S
C120 C121 1.370 . S
C120 C122 1.363 . S
C120 H136 0.931 . S
C121 C120 1.370 . S
C121 C125 1.408 . S
C122 C120 1.363 . S
C122 C123 1.370 . S
C122 C126 1.524 . S
C123 C115 1.503 . S
C123 C122 1.370 . S
C123 C124 1.403 . S
C124 C123 1.403 . S
C124 C125 1.404 . S
C124 C127 1.539 . S
C125 C121 1.408 . S
C125 C124 1.404 . S
C125 H137 0.930 . S
C126 C122 1.524 . S
C126 H138 0.956 . S
C126 H139 0.961 . S
C126 H140 0.961 . S
C127 C124 1.539 . S
C127 H141 0.958 . S
C127 H142 0.961 . S
C127 H143 0.960 . S
H128 C112 0.931 . S
H129 C117 0.929 . S
H130 C118 0.960 . S
H131 C118 0.962 . S
H132 C118 0.960 . S
H133 C119 0.961 . S
H134 C119 0.961 . S
H135 C119 0.961 . S
H136 C120 0.931 . S
H137 C125 0.930 . S
H138 C126 0.956 . S
H139 C126 0.961 . S
H140 C126 0.961 . S
H141 C127 0.958 . S
H142 C127 0.961 . S
H143 C127 0.960 . S
C144 C145 1.391 . S
C144 C146 1.394 . S
C144 H160 0.931 . S
C145 C144 1.391 . S
C145 C149 1.376 . S
C146 C144 1.394 . S
C146 C147 1.369 . S
C146 C150 1.531 . S
C147 C146 1.369 . S
C147 C148 1.410 . S
C147 C155 1.503 . S
C148 C147 1.410 . S
C148 C149 1.392 . S
C148 C151 1.511 . S
C149 C145 1.376 . S
C149 C148 1.392 . S
C149 H161 0.929 . S
C150 C146 1.531 . S
C150 H162 0.960 . S
C150 H163 0.962 . S
C150 H164 0.960 . S
C151 C148 1.511 . S
C151 H165 0.961 . S
C151 H166 0.961 . S
C151 H167 0.961 . S
C152 C153 1.370 . S
C152 C154 1.363 . S
C152 H168 0.931 . S
C153 C152 1.370 . S
C153 C157 1.408 . S
C154 C152 1.363 . S
C154 C155 1.370 . S
C154 C158 1.524 . S
C155 C147 1.503 . S
C155 C154 1.370 . S
C155 C156 1.403 . S
C156 C155 1.403 . S
C156 C157 1.404 . S
C156 C159 1.539 . S
C157 C153 1.408 . S
C157 C156 1.404 . S
C157 H169 0.930 . S
C158 C154 1.524 . S
C158 H170 0.956 . S
C158 H171 0.961 . S
C158 H172 0.961 . S
C159 C156 1.539 . S
C159 H173 0.958 . S
C159 H174 0.961 . S
C159 H175 0.960 . S
H160 C144 0.931 . S
H161 C149 0.929 . S
H162 C150 0.960 . S
H163 C150 0.962 . S
H164 C150 0.960 . S
H165 C151 0.961 . S
H166 C151 0.961 . S
H167 C151 0.961 . S
H168 C152 0.931 . S
H169 C157 0.930 . S
H170 C158 0.956 . S
H171 C158 0.961 . S
H172 C158 0.961 . S
H173 C159 0.958 . S
H174 C159 0.961 . S
H175 C159 0.960 . S
C176 C177 1.391 . S
C176 C178 1.394 . S
C176 H192 0.931 . S
C177 C176 1.391 . S
C177 C181 1.376 . S
C178 C176 1.394 . S
C178 C179 1.369 . S
C178 C182 1.531 . S
C179 C178 1.369 . S
C179 C180 1.410 . S
C179 C187 1.503 . S
C180 C179 1.410 . S
C180 C181 1.392 . S
C180 C183 1.511 . S
C181 C177 1.376 . S
C181 C180 1.392 . S
C181 H193 0.929 . S
C182 C178 1.531 . S
C182 H194 0.960 . S
C182 H195 0.962 . S
C182 H196 0.960 . S
C183 C180 1.511 . S
C183 H197 0.961 . S
C183 H198 0.961 . S
C183 H199 0.961 . S
C184 C185 1.370 . S
C184 C186 1.363 1_556 S
C184 H200 0.931 . S
C185 C184 1.370 . S
C185 C189 1.408 . S
C186 C184 1.363 1_554 S
C186 C187 1.370 . S
C186 C190 1.524 . S
C187 C179 1.503 . S
C187 C186 1.370 . S
C187 C188 1.403 . S
C188 C187 1.403 . S
C188 C189 1.404 1_554 S
C188 C191 1.539 . S
C189 C185 1.408 . S
C189 C188 1.404 1_556 S
C189 H201 0.930 . S
C190 C186 1.524 . S
C190 H202 0.956 . S
C190 H203 0.961 . S
C190 H204 0.961 . S
C191 C188 1.539 . S
C191 H205 0.958 . S
C191 H206 0.961 . S
C191 H207 0.960 . S
H192 C176 0.931 . S
H193 C181 0.929 . S
H194 C182 0.960 . S
H195 C182 0.962 . S
H196 C182 0.960 . S
H197 C183 0.961 . S
H198 C183 0.961 . S
H199 C183 0.961 . S
H200 C184 0.931 . S
H201 C189 0.930 . S
H202 C190 0.956 . S
H203 C190 0.961 . S
H204 C190 0.961 . S
H205 C191 0.958 . S
H206 C191 0.961 . S
H207 C191 0.960 . S
C208 C209 1.391 . S
C208 C210 1.394 . S
C208 H224 0.931 . S
C209 C208 1.391 . S
C209 C213 1.376 . S
C210 C208 1.394 . S
C210 C211 1.369 . S
C210 C214 1.531 . S
C211 C210 1.369 . S
C211 C212 1.410 . S
C211 C219 1.503 . S
C212 C211 1.410 . S
C212 C213 1.392 . S
C212 C215 1.511 . S
C213 C209 1.376 . S
C213 C212 1.392 . S
C213 H225 0.929 . S
C214 C210 1.531 . S
C214 H226 0.960 . S
C214 H227 0.962 . S
C214 H228 0.960 . S
C215 C212 1.511 . S
C215 H229 0.961 . S
C215 H230 0.961 . S
C215 H231 0.961 . S
C216 C217 1.370 . S
C216 C218 1.363 . S
C216 H232 0.931 . S
C217 C216 1.370 . S
C217 C221 1.408 . S
C218 C216 1.363 . S
C218 C219 1.370 . S
C218 C222 1.524 . S
C219 C211 1.503 . S
C219 C218 1.370 . S
C219 C220 1.403 . S
C220 C219 1.403 . S
C220 C221 1.404 . S
C220 C223 1.539 . S
C221 C217 1.408 . S
C221 C220 1.404 . S
C221 H233 0.930 . S
C222 C218 1.524 . S
C222 H234 0.956 . S
C222 H235 0.961 . S
C222 H236 0.961 . S
C223 C220 1.539 . S
C223 H237 0.958 . S
C223 H238 0.961 . S
C223 H239 0.960 . S
H224 C208 0.931 . S
H225 C213 0.929 . S
H226 C214 0.960 . S
H227 C214 0.962 . S
H228 C214 0.960 . S
H229 C215 0.961 . S
H230 C215 0.961 . S
H231 C215 0.961 . S
H232 C216 0.931 . S
H233 C221 0.930 . S
H234 C222 0.956 . S
H235 C222 0.961 . S
H236 C222 0.961 . S
H237 C223 0.958 . S
H238 C223 0.961 . S
H239 C223 0.960 . S
C240 C241 1.391 . S
C240 C242 1.394 . S
C240 H256 0.931 . S
C241 C240 1.391 . S
C241 C245 1.376 . S
C242 C240 1.394 . S
C242 C243 1.369 . S
C242 C246 1.531 . S
C243 C242 1.369 . S
C243 C244 1.410 . S
C243 C251 1.503 . S
C244 C243 1.410 . S
C244 C245 1.392 . S
C244 C247 1.511 . S
C245 C241 1.376 . S
C245 C244 1.392 . S
C245 H257 0.929 . S
C246 C242 1.531 . S
C246 H258 0.960 . S
C246 H259 0.962 . S
C246 H260 0.960 . S
C247 C244 1.511 . S
C247 H261 0.961 . S
C247 H262 0.961 . S
C247 H263 0.961 . S
C248 C249 1.370 . S
C248 C250 1.363 . S
C248 H264 0.931 . S
C249 C248 1.370 . S
C249 C253 1.408 . S
C250 C248 1.363 . S
C250 C251 1.370 . S
C250 C254 1.524 . S
C251 C243 1.503 . S
C251 C250 1.370 . S
C251 C252 1.403 . S
C252 C251 1.403 . S
C252 C253 1.404 . S
C252 C255 1.539 . S
C253 C249 1.408 . S
C253 C252 1.404 . S
C253 H265 0.930 . S
C254 C250 1.524 . S
C254 H266 0.956 . S
C254 H267 0.961 . S
C254 H268 0.961 . S
C255 C252 1.539 . S
C255 H269 0.958 . S
C255 H270 0.961 . S
C255 H271 0.960 . S
H256 C240 0.931 . S
H257 C245 0.929 . S
H258 C246 0.960 . S
H259 C246 0.962 . S
H260 C246 0.960 . S
H261 C247 0.961 . S
H262 C247 0.961 . S
H263 C247 0.961 . S
H264 C248 0.931 . S
H265 C253 0.930 . S
H266 C254 0.956 . S
H267 C254 0.961 . S
H268 C254 0.961 . S
H269 C255 0.958 . S
H270 C255 0.961 . S
H271 C255 0.960 . S
C272 C273 1.391 . S
C272 C274 1.394 . S
C272 H288 0.931 . S
C273 C272 1.391 . S
C273 C277 1.376 . S
C274 C272 1.394 . S
C274 C275 1.369 . S
C274 C278 1.531 . S
C275 C274 1.369 . S
C275 C276 1.410 . S
C275 C283 1.503 . S
C276 C275 1.410 . S
C276 C277 1.392 . S
C276 C279 1.511 . S
C277 C273 1.376 . S
C277 C276 1.392 . S
C277 H289 0.929 . S
C278 C274 1.531 . S
C278 H290 0.960 . S
C278 H291 0.962 . S
C278 H292 0.960 . S
C279 C276 1.511 . S
C279 H293 0.961 . S
C279 H294 0.961 . S
C279 H295 0.961 . S
C280 C281 1.370 . S
C280 C282 1.363 . S
C280 H296 0.931 . S
C281 C280 1.370 . S
C281 C285 1.408 . S
C282 C280 1.363 . S
C282 C283 1.370 . S
C282 C286 1.524 . S
C283 C275 1.503 . S
C283 C282 1.370 . S
C283 C284 1.403 . S
C284 C283 1.403 . S
C284 C285 1.404 . S
C284 C287 1.539 . S
C285 C281 1.408 . S
C285 C284 1.404 . S
C285 H297 0.930 . S
C286 C282 1.524 . S
C286 H298 0.956 . S
C286 H299 0.961 . S
C286 H300 0.961 . S
C287 C284 1.539 . S
C287 H301 0.958 . S
C287 H302 0.961 . S
C287 H303 0.960 . S
H288 C272 0.931 . S
H289 C277 0.929 . S
H290 C278 0.960 . S
H291 C278 0.962 . S
H292 C278 0.960 . S
H293 C279 0.961 . S
H294 C279 0.961 . S
H295 C279 0.961 . S
H296 C280 0.931 . S
H297 C285 0.930 . S
H298 C286 0.956 . S
H299 C286 0.961 . S
H300 C286 0.961 . S
H301 C287 0.958 . S
H302 C287 0.961 . S
H303 C287 0.960 . S
C304 C305 1.391 . S
C304 C306 1.394 . S
C304 H320 0.931 1_556 S
C305 C304 1.391 . S
C305 C309 1.376 . S
C306 C304 1.394 . S
C306 C307 1.369 . S
C306 C310 1.531 . S
C307 C306 1.369 . S
C307 C308 1.410 . S
C307 C315 1.503 . S
C308 C307 1.410 . S
C308 C309 1.392 . S
C308 C311 1.511 . S
C309 C305 1.376 . S
C309 C308 1.392 . S
C309 H321 0.929 . S
C310 C306 1.531 . S
C310 H322 0.960 . S
C310 H323 0.962 1_556 S
C310 H324 0.960 . S
C311 C308 1.511 . S
C311 H325 0.961 . S
C311 H326 0.961 . S
C311 H327 0.961 . S
C312 C313 1.370 . S
C312 C314 1.363 . S
C312 H328 0.931 . S
C313 C312 1.370 . S
C313 C317 1.408 . S
C314 C312 1.363 . S
C314 C315 1.370 . S
C314 C318 1.524 . S
C315 C307 1.503 . S
C315 C314 1.370 . S
C315 C316 1.403 . S
C316 C315 1.403 . S
C316 C317 1.404 . S
C316 C319 1.539 . S
C317 C313 1.408 . S
C317 C316 1.404 . S
C317 H329 0.930 . S
C318 C314 1.524 . S
C318 H330 0.963 . S
C318 H331 0.961 . S
C318 H332 0.961 . S
C319 C316 1.539 . S
C319 H333 0.958 . S
C319 H334 0.961 . S
C319 H335 0.960 . S
H320 C304 0.931 1_554 S
H321 C309 0.929 . S
H322 C310 0.960 . S
H323 C310 0.962 1_554 S
H324 C310 0.960 . S
H325 C311 0.961 . S
H326 C311 0.961 . S
H327 C311 0.961 . S
H328 C312 0.931 . S
H329 C317 0.930 . S
H330 C318 0.963 . S
H331 C318 0.961 . S
H332 C318 0.961 . S
H333 C319 0.958 . S
H334 C319 0.961 . S
H335 C319 0.960 . S
C336 C337 1.391 . S
C336 C338 1.394 . S
C336 H352 0.931 . S
C337 C336 1.391 . S
C337 C341 1.376 . S
C338 C336 1.394 . S
C338 C339 1.369 . S
C338 C342 1.531 . S
C339 C338 1.369 . S
C339 C340 1.410 . S
C339 C347 1.503 . S
C340 C339 1.410 . S
C340 C341 1.392 . S
C340 C343 1.511 . S
C341 C337 1.376 . S
C341 C340 1.392 . S
C341 H353 0.929 . S
C342 C338 1.531 . S
C342 H354 0.960 . S
C342 H355 0.962 . S
C342 H356 0.960 . S
C343 C340 1.511 . S
C343 H357 0.961 . S
C343 H358 0.961 . S
C343 H359 0.961 . S
C344 C345 1.370 . S
C344 C346 1.363 . S
C344 H360 0.931 . S
C345 C344 1.370 . S
C345 C349 1.408 . S
C346 C344 1.363 . S
C346 C347 1.370 . S
C346 C350 1.524 . S
C347 C339 1.503 . S
C347 C346 1.370 . S
C347 C348 1.403 . S
C348 C347 1.403 . S
C348 C349 1.404 . S
C348 C351 1.539 . S
C349 C345 1.408 . S
C349 C348 1.404 . S
C349 H361 0.930 . S
C350 C346 1.524 . S
C350 H362 0.956 . S
C350 H363 0.961 . S
C350 H364 0.961 . S
C351 C348 1.539 . S
C351 H365 0.958 . S
C351 H366 0.961 . S
C351 H367 0.960 . S
H352 C336 0.931 . S
H353 C341 0.929 . S
H354 C342 0.960 . S
H355 C342 0.962 . S
H356 C342 0.960 . S
H357 C343 0.961 . S
H358 C343 0.961 . S
H359 C343 0.961 . S
H360 C344 0.931 . S
H361 C349 0.930 . S
H362 C350 0.956 . S
H363 C350 0.961 . S
H364 C350 0.961 . S
H365 C351 0.958 . S
H366 C351 0.961 . S
H367 C351 0.960 . S
C368 C369 1.391 . S
C368 C370 1.394 . S
C368 H384 0.931 . S
C369 C368 1.391 . S
C369 C373 1.376 . S
C370 C368 1.394 . S
C370 C371 1.369 . S
C370 C374 1.531 . S
C371 C370 1.369 . S
C371 C372 1.410 . S
C371 C379 1.503 1_565 S
C372 C371 1.410 . S
C372 C373 1.392 . S
C372 C375 1.511 . S
C373 C369 1.376 . S
C373 C372 1.392 . S
C373 H385 0.929 . S
C374 C370 1.531 . S
C374 H386 0.960 . S
C374 H387 0.962 . S
C374 H388 0.960 . S
C375 C372 1.511 . S
C375 H389 0.961 . S
C375 H390 0.961 1_565 S
C375 H391 0.961 . S
C376 C377 1.370 . S
C376 C378 1.363 . S
C376 H392 0.931 . S
C377 C376 1.370 . S
C377 C381 1.408 . S
C378 C376 1.363 . S
C378 C379 1.370 . S
C378 C382 1.524 . S
C379 C371 1.503 1_545 S
C379 C378 1.370 . S
C379 C380 1.403 . S
C380 C379 1.403 . S
C380 C381 1.404 . S
C380 C383 1.539 . S
C381 C377 1.408 . S
C381 C380 1.404 . S
C381 H393 0.930 . S
C382 C378 1.524 . S
C382 H394 0.956 . S
C382 H395 0.961 . S
C382 H396 0.961 . S
C383 C380 1.539 . S
C383 H397 0.958 . S
C383 H398 0.961 . S
C383 H399 0.960 1_545 S
H384 C368 0.931 . S
H385 C373 0.929 . S
H386 C374 0.960 . S
H387 C374 0.962 . S
H388 C374 0.960 . S
H389 C375 0.961 . S
H390 C375 0.961 1_545 S
H391 C375 0.961 . S
H392 C376 0.931 . S
H393 C381 0.930 . S
H394 C382 0.956 . S
H395 C382 0.961 . S
H396 C382 0.961 . S
H397 C383 0.958 . S
H398 C383 0.961 . S
H399 C383 0.960 1_565 S
C400 C401 1.391 . S
C400 C402 1.394 . S
C400 H416 0.931 . S
C401 C400 1.391 . S
C401 C405 1.376 . S
C402 C400 1.394 . S
C402 C403 1.369 . S
C402 C406 1.531 . S
C403 C402 1.369 . S
C403 C404 1.410 . S
C403 C411 1.503 1_655 S
C404 C403 1.410 . S
C404 C405 1.392 . S
C404 C407 1.511 . S
C405 C401 1.376 . S
C405 C404 1.392 . S
C405 H417 0.929 . S
C406 C402 1.531 . S
C406 H418 0.960 . S
C406 H419 0.962 . S
C406 H420 0.960 . S
C407 C404 1.511 . S
C407 H421 0.961 . S
C407 H422 0.961 1_655 S
C407 H423 0.961 . S
C408 C409 1.370 . S
C408 C410 1.363 . S
C408 H424 0.931 . S
C409 C408 1.370 . S
C409 C413 1.408 . S
C410 C408 1.363 . S
C410 C411 1.370 . S
C410 C414 1.524 . S
C411 C403 1.503 1_455 S
C411 C410 1.370 . S
C411 C412 1.403 . S
C412 C411 1.403 . S
C412 C413 1.404 . S
C412 C415 1.539 . S
C413 C409 1.408 . S
C413 C412 1.404 . S
C413 H425 0.930 . S
C414 C410 1.524 . S
C414 H426 0.956 . S
C414 H427 0.961 . S
C414 H428 0.961 . S
C415 C412 1.539 . S
C415 H429 0.958 . S
C415 H430 0.961 . S
C415 H431 0.960 1_455 S
H416 C400 0.931 . S
H417 C405 0.929 . S
H418 C406 0.960 . S
H419 C406 0.962 . S
H420 C406 0.960 . S
H421 C407 0.961 . S
H422 C407 0.961 1_455 S
H423 C407 0.961 . S
H424 C408 0.931 . S
H425 C413 0.930 . S
H426 C414 0.956 . S
H427 C414 0.961 . S
H428 C414 0.961 . S
H429 C415 0.958 . S
H430 C415 0.961 . S
H431 C415 0.960 1_655 S
C432 C433 1.391 . S
C432 C434 1.394 . S
C432 H448 0.931 . S
C433 C432 1.391 . S
C433 C437 1.376 . S
C434 C432 1.394 . S
C434 C435 1.369 . S
C434 C438 1.531 . S
C435 C434 1.369 . S
C435 C436 1.410 . S
C435 C443 1.503 1_565 S
C436 C435 1.410 . S
C436 C437 1.392 . S
C436 C439 1.511 . S
C437 C433 1.376 . S
C437 C436 1.392 . S
C437 H449 0.929 . S
C438 C434 1.531 . S
C438 H450 0.960 1_565 S
C438 H451 0.962 . S
C438 H452 0.960 . S
C439 C436 1.511 . S
C439 H453 0.961 . S
C439 H454 0.961 . S
C439 H455 0.961 . S
C440 C441 1.370 . S
C440 C442 1.363 . S
C440 H456 0.931 . S
C441 C440 1.370 . S
C441 C445 1.408 . S
C442 C440 1.363 . S
C442 C443 1.370 . S
C442 C446 1.524 . S
C443 C435 1.503 1_545 S
C443 C442 1.370 . S
C443 C444 1.403 . S
C444 C443 1.403 . S
C444 C445 1.404 . S
C444 C447 1.539 . S
C445 C441 1.408 . S
C445 C444 1.404 . S
C445 H457 0.930 . S
C446 C442 1.524 . S
C446 H458 0.956 1_545 S
C446 H459 0.961 1_545 S
C446 H460 0.961 . S
C447 C444 1.539 . S
C447 H461 0.958 . S
C447 H462 0.961 . S
C447 H463 0.960 . S
H448 C432 0.931 . S
H449 C437 0.929 . S
H450 C438 0.960 1_545 S
H451 C438 0.962 . S
H452 C438 0.960 . S
H453 C439 0.961 . S
H454 C439 0.961 . S
H455 C439 0.961 . S
H456 C440 0.931 . S
H457 C445 0.930 . S
H458 C446 0.956 1_565 S
H459 C446 0.961 1_565 S
H460 C446 0.961 . S
H461 C447 0.958 . S
H462 C447 0.961 . S
H463 C447 0.960 . S
C464 C465 1.386 1_556 S
C464 C466 1.393 1_556 S
C464 H480 0.936 . S
C465 C464 1.386 1_554 S
C465 C469 1.376 . S
C466 C464 1.393 1_554 S
C466 C467 1.369 . S
C466 C470 1.531 1_554 S
C467 C466 1.369 . S
C467 C468 1.410 . S
C467 C475 1.503 1_655 S
C468 C467 1.410 . S
C468 C469 1.392 . S
C468 C471 1.511 . S
C469 C465 1.376 . S
C469 C468 1.392 . S
C469 H481 0.929 . S
C470 C466 1.531 1_556 S
C470 H482 0.960 1_655 S
C470 H483 0.962 . S
C470 H484 0.960 . S
C471 C468 1.511 . S
C471 H485 0.961 . S
C471 H486 0.961 . S
C471 H487 0.961 . S
C472 C473 1.370 . S
C472 C474 1.363 . S
C472 H488 0.931 . S
C473 C472 1.370 . S
C473 C477 1.408 . S
C474 C472 1.363 . S
C474 C475 1.370 . S
C474 C478 1.524 . S
C475 C467 1.503 1_455 S
C475 C474 1.370 . S
C475 C476 1.403 . S
C476 C475 1.403 . S
C476 C477 1.404 . S
C476 C479 1.539 . S
C477 C473 1.408 . S
C477 C476 1.404 . S
C477 H489 0.930 . S
C478 C474 1.524 . S
C478 H490 0.956 . S
C478 H491 0.961 1_455 S
C478 H492 0.961 . S
C479 C476 1.539 . S
C479 H493 0.958 . S
C479 H494 0.961 . S
C479 H495 0.960 1_455 S
H480 C464 0.936 . S
H481 C469 0.929 . S
H482 C470 0.960 1_455 S
H483 C470 0.962 . S
H484 C470 0.960 . S
H485 C471 0.961 . S
H486 C471 0.961 . S
H487 C471 0.961 . S
H488 C472 0.931 . S
H489 C477 0.930 . S
H490 C478 0.956 . S
H491 C478 0.961 1_655 S
H492 C478 0.961 . S
H493 C479 0.958 . S
H494 C479 0.961 . S
H495 C479 0.960 1_655 S
C496 C497 1.391 . S
C496 C498 1.394 1_556 S
C496 H512 0.931 . S
C497 C496 1.391 . S
C497 C501 1.376 . S
C498 C496 1.394 1_554 S
C498 C499 1.369 . S
C498 C502 1.531 . S
C499 C498 1.369 . S
C499 C500 1.410 1_554 S
C499 C507 1.503 . S
C500 C499 1.410 1_556 S
C500 C501 1.392 . S
C500 C503 1.511 1_556 S
C501 C497 1.376 . S
C501 C500 1.392 . S
C501 H513 0.929 . S
C502 C498 1.531 . S
C502 H514 0.960 . S
C502 H515 0.962 . S
C502 H516 0.960 . S
C503 C500 1.511 1_554 S
C503 H517 0.961 1_554 S
C503 H518 0.961 . S
C503 H519 0.961 . S
C504 C505 1.370 . S
C504 C506 1.363 . S
C504 H520 0.931 . S
C505 C504 1.370 . S
C505 C509 1.408 . S
C506 C504 1.363 . S
C506 C507 1.370 . S
C506 C510 1.524 . S
C507 C499 1.503 . S
C507 C506 1.370 . S
C507 C508 1.403 . S
C508 C507 1.403 . S
C508 C509 1.404 . S
C508 C511 1.539 . S
C509 C505 1.408 . S
C509 C508 1.404 . S
C509 H521 0.930 . S
C510 C506 1.524 . S
C510 H522 0.956 . S
C510 H523 0.961 . S
C510 H524 0.961 . S
C511 C508 1.539 . S
C511 H525 0.958 . S
C511 H526 0.961 . S
C511 H527 0.960 . S
H512 C496 0.931 . S
H513 C501 0.929 . S
H514 C502 0.960 . S
H515 C502 0.962 . S
H516 C502 0.960 . S
H517 C503 0.961 1_556 S
H518 C503 0.961 . S
H519 C503 0.961 . S
H520 C504 0.931 . S
H521 C509 0.930 . S
H522 C510 0.956 . S
H523 C510 0.961 . S
H524 C510 0.961 . S
H525 C511 0.958 . S
H526 C511 0.961 . S
H527 C511 0.960 . S
C528 C529 1.391 . S
C528 C530 1.394 . S
C528 H544 0.931 . S
C529 C528 1.391 . S
C529 C533 1.376 . S
C530 C528 1.394 . S
C530 C531 1.369 . S
C530 C534 1.531 . S
C531 C530 1.369 . S
C531 C532 1.410 . S
C531 C539 1.503 . S
C532 C531 1.410 . S
C532 C533 1.392 . S
C532 C535 1.511 . S
C533 C529 1.376 . S
C533 C532 1.392 . S
C533 H545 0.929 . S
C534 C530 1.531 . S
C534 H546 0.960 . S
C534 H547 0.962 . S
C534 H548 0.960 . S
C535 C532 1.511 . S
C535 H549 0.961 . S
C535 H550 0.961 . S
C535 H551 0.961 . S
C536 C537 1.370 . S
C536 C538 1.363 . S
C536 H552 0.931 . S
C537 C536 1.370 . S
C537 C541 1.408 . S
C538 C536 1.363 . S
C538 C539 1.370 . S
C538 C542 1.524 . S
C539 C531 1.503 . S
C539 C538 1.370 . S
C539 C540 1.403 . S
C540 C539 1.403 . S
C540 C541 1.404 . S
C540 C543 1.539 . S
C541 C537 1.408 . S
C541 C540 1.404 . S
C541 H553 0.930 . S
C542 C538 1.524 . S
C542 H554 0.956 . S
C542 H555 0.961 . S
C542 H556 0.961 . S
C543 C540 1.539 . S
C543 H557 0.958 . S
C543 H558 0.961 . S
C543 H559 0.960 . S
H544 C528 0.931 . S
H545 C533 0.929 . S
H546 C534 0.960 . S
H547 C534 0.962 . S
H548 C534 0.960 . S
H549 C535 0.961 . S
H550 C535 0.961 . S
H551 C535 0.961 . S
H552 C536 0.931 . S
H553 C541 0.930 . S
H554 C542 0.956 . S
H555 C542 0.961 . S
H556 C542 0.961 . S
H557 C543 0.958 . S
H558 C543 0.961 . S
H559 C543 0.960 . S
C560 C561 1.391 . S
C560 C562 1.394 . S
C560 H576 0.931 . S
C561 C560 1.391 . S
C561 C565 1.376 . S
C562 C560 1.394 . S
C562 C563 1.369 . S
C562 C566 1.531 . S
C563 C562 1.369 . S
C563 C564 1.410 . S
C563 C571 1.503 . S
C564 C563 1.410 . S
C564 C565 1.392 . S
C564 C567 1.511 . S
C565 C561 1.376 . S
C565 C564 1.392 . S
C565 H577 0.929 . S
C566 C562 1.531 . S
C566 H578 0.960 . S
C566 H579 0.962 . S
C566 H580 0.960 . S
C567 C564 1.511 . S
C567 H581 0.961 . S
C567 H582 0.961 . S
C567 H583 0.961 . S
C568 C569 1.370 . S
C568 C570 1.363 . S
C568 H584 0.931 . S
C569 C568 1.370 . S
C569 C573 1.408 . S
C570 C568 1.363 . S
C570 C571 1.370 . S
C570 C574 1.524 . S
C571 C563 1.503 . S
C571 C570 1.370 . S
C571 C572 1.403 . S
C572 C571 1.403 . S
C572 C573 1.404 . S
C572 C575 1.539 . S
C573 C569 1.408 . S
C573 C572 1.404 . S
C573 H585 0.930 . S
C574 C570 1.524 . S
C574 H586 0.956 . S
C574 H587 0.961 . S
C574 H588 0.961 . S
C575 C572 1.539 . S
C575 H589 0.958 . S
C575 H590 0.961 . S
C575 H591 0.960 . S
H576 C560 0.931 . S
H577 C565 0.929 . S
H578 C566 0.960 . S
H579 C566 0.962 . S
H580 C566 0.960 . S
H581 C567 0.961 . S
H582 C567 0.961 . S
H583 C567 0.961 . S
H584 C568 0.931 . S
H585 C573 0.930 . S
H586 C574 0.956 . S
H587 C574 0.961 . S
H588 C574 0.961 . S
H589 C575 0.958 . S
H590 C575 0.961 . S
H591 C575 0.960 . S
C592 C593 1.391 . S
C592 C594 1.394 . S
C592 H608 0.931 . S
C593 C592 1.391 . S
C593 C597 1.376 . S
C594 C592 1.394 . S
C594 C595 1.369 . S
C594 C598 1.531 . S
C595 C594 1.369 . S
C595 C596 1.410 . S
C595 C603 1.503 . S
C596 C595 1.410 . S
C596 C597 1.392 . S
C596 C599 1.511 . S
C597 C593 1.376 . S
C597 C596 1.392 . S
C597 H609 0.929 . S
C598 C594 1.531 . S
C598 H610 0.960 . S
C598 H611 0.962 . S
C598 H612 0.960 . S
C599 C596 1.511 . S
C599 H613 0.961 . S
C599 H614 0.961 . S
C599 H615 0.961 . S
C600 C601 1.370 . S
C600 C602 1.363 . S
C600 H616 0.931 . S
C601 C600 1.370 . S
C601 C605 1.408 . S
C602 C600 1.363 . S
C602 C603 1.370 . S
C602 C606 1.524 . S
C603 C595 1.503 . S
C603 C602 1.370 . S
C603 C604 1.403 . S
C604 C603 1.403 . S
C604 C605 1.404 . S
C604 C607 1.539 . S
C605 C601 1.408 . S
C605 C604 1.404 . S
C605 H617 0.930 . S
C606 C602 1.524 . S
C606 H618 0.956 . S
C606 H619 0.961 . S
C606 H620 0.961 . S
C607 C604 1.539 . S
C607 H621 0.958 . S
C607 H622 0.961 . S
C607 H623 0.960 . S
H608 C592 0.931 . S
H609 C597 0.929 . S
H610 C598 0.960 . S
H611 C598 0.962 . S
H612 C598 0.960 . S
H613 C599 0.961 . S
H614 C599 0.961 . S
H615 C599 0.961 . S
H616 C600 0.931 . S
H617 C605 0.930 . S
H618 C606 0.956 . S
H619 C606 0.961 . S
H620 C606 0.961 . S
H621 C607 0.958 . S
H622 C607 0.961 . S
H623 C607 0.960 . S
C113 C8 1.163 . S
C121 C92 1.199 . S
C145 C22 1.211 . S
C153 C106 1.179 . S
C177 C64 1.189 . S
C185 C36 1.190 . S
C209 C78 1.216 . S
C217 C50 1.178 . S
C241 C6 1.517 . S
C249 C76 1.490 . S
C273 C20 1.503 . S
C281 C90 1.512 . S
C305 C104 1.467 . S
C313 C34 1.504 . S
C337 C48 1.487 . S
C345 C62 1.490 . S
C369 C65 1.513 . S
C377 C9 1.533 . S
C401 C23 1.512 . S
C409 C79 1.536 . S
C433 C37 1.558 . S
C441 C93 1.541 . S
C465 C107 1.548 . S
C473 C51 1.548 . S
C497 C91 1.351 . S
C505 C7 1.325 . S
C529 C105 1.291 . S
C537 C21 1.334 . S
C561 C35 1.346 . S
C569 C63 1.313 . S
C593 C49 1.300 . S
C601 C77 1.323 . S
