# Generated by pormake.
# Topology can, (4)-cn, num edge types: 1
# Building blocks:
#     Node 0, Type 0, BuildingBlock: KUFVIS_clean_sbu_0, # of connection points: 4
#     Node 1, Type 0, BuildingBlock: KUFVIS_clean_sbu_0, # of connection points: 4
#     Node 2, Type 0, BuildingBlock: KUFVIS_clean_sbu_0, # of connection points: 4
#     Node 3, Type 0, BuildingBlock: KUFVIS_clean_sbu_0, # of connection points: 4
#     Node 4, Type 0, BuildingBlock: KUFVIS_clean_sbu_0, # of connection points: 4
#     Node 5, Type 0, BuildingBlock: KUFVIS_clean_sbu_0, # of connection points: 4
#     Node 6, Type 0, BuildingBlock: KUFVIS_clean_sbu_0, # of connection points: 4
#     Node 7, Type 0, BuildingBlock: KUFVIS_clean_sbu_0, # of connection points: 4
#     Node 8, Type 0, BuildingBlock: KUFVIS_clean_sbu_0, # of connection points: 4
#     Node 9, Type 0, BuildingBlock: KUFVIS_clean_sbu_0, # of connection points: 4
#     Node 10, Type 0, BuildingBlock: KUFVIS_clean_sbu_0, # of connection points: 4
#     Node 11, Type 0, BuildingBlock: KUFVIS_clean_sbu_0, # of connection points: 4
#     Edge 12, Type (0, 0), BuildingBlock: UVAHIK_clean_linker_0, # of connection points: 2
#     Edge 13, Type (0, 0), BuildingBlock: UVAHIK_clean_linker_0, # of connection points: 2
#     Edge 14, Type (0, 0), BuildingBlock: UVAHIK_clean_linker_0, # of connection points: 2
#     Edge 15, Type (0, 0), BuildingBlock: UVAHIK_clean_linker_0, # of connection points: 2
#     Edge 16, Type (0, 0), BuildingBlock: UVAHIK_clean_linker_0, # of connection points: 2
#     Edge 17, Type (0, 0), BuildingBlock: UVAHIK_clean_linker_0, # of connection points: 2
#     Edge 18, Type (0, 0), BuildingBlock: UVAHIK_clean_linker_0, # of connection points: 2
#     Edge 19, Type (0, 0), BuildingBlock: UVAHIK_clean_linker_0, # of connection points: 2
#     Edge 20, Type (0, 0), BuildingBlock: UVAHIK_clean_linker_0, # of connection points: 2
#     Edge 21, Type (0, 0), BuildingBlock: UVAHIK_clean_linker_0, # of connection points: 2
#     Edge 22, Type (0, 0), BuildingBlock: UVAHIK_clean_linker_0, # of connection points: 2
#     Edge 23, Type (0, 0), BuildingBlock: UVAHIK_clean_linker_0, # of connection points: 2
#     Edge 24, Type (0, 0), BuildingBlock: UVAHIK_clean_linker_0, # of connection points: 2
#     Edge 25, Type (0, 0), BuildingBlock: UVAHIK_clean_linker_0, # of connection points: 2
#     Edge 26, Type (0, 0), BuildingBlock: UVAHIK_clean_linker_0, # of connection points: 2
#     Edge 27, Type (0, 0), BuildingBlock: UVAHIK_clean_linker_0, # of connection points: 2
#     Edge 28, Type (0, 0), BuildingBlock: UVAHIK_clean_linker_0, # of connection points: 2
#     Edge 29, Type (0, 0), BuildingBlock: UVAHIK_clean_linker_0, # of connection points: 2
#     Edge 30, Type (0, 0), BuildingBlock: UVAHIK_clean_linker_0, # of connection points: 2
#     Edge 31, Type (0, 0), BuildingBlock: UVAHIK_clean_linker_0, # of connection points: 2
#     Edge 32, Type (0, 0), BuildingBlock: UVAHIK_clean_linker_0, # of connection points: 2
#     Edge 33, Type (0, 0), BuildingBlock: UVAHIK_clean_linker_0, # of connection points: 2
#     Edge 34, Type (0, 0), BuildingBlock: UVAHIK_clean_linker_0, # of connection points: 2
#     Edge 35, Type (0, 0), BuildingBlock: UVAHIK_clean_linker_0, # of connection points: 2
# Relax obj value: 0.068
# Max RMSD: 0.070
# Mean RMSD: 0.065
data_MOF--net-can--node1-KUFVIS_clean_sbu_0--edge1-UVAHIK_clean_linker_0
_symmetry_space_group_name_H-M    P1
_symmetry_Int_Tables_number       1
_symmetry_cell_setting            triclinic
loop_
_symmetry_equiv_pos_as_xyz
'x, y, z'
_cell_length_a     70.611227
_cell_length_b     71.493262
_cell_length_c     35.292002
_cell_angle_alpha  90.004184
_cell_angle_beta   89.989368
_cell_angle_gamma 119.59647
loop_
_atom_site_label
_atom_site_type_symbol
_atom_site_fract_x
_atom_site_fract_y
_atom_site_fract_z
_atom_type_partial_charge
Mn0 Mn 0.0606 0.40134 0.24854 0.0
Mn1 Mn 0.09689 0.44284 0.30194 0.0
C2 C 0.05782 0.4321 0.25374 0.0
C3 C 0.05023 0.38313 0.19085 0.0
C4 C 0.05974 0.402 0.33502 0.0
O5 O 0.08538 0.39468 0.25561 0.0
O6 O 0.10957 0.42459 0.2867 0.0
C7 C 0.13071 0.46626 0.24384 0.0
N8 N 0.11648 0.466 0.27017 0.0
C9 C 0.12786 0.50326 0.25863 0.0
C10 C 0.14274 0.50397 0.23155 0.0
C11 C 0.14412 0.48537 0.22407 0.0
C12 C 0.11497 0.48378 0.27753 0.0
H13 H 0.13178 0.45198 0.23797 0.0
C14 C 0.10406 0.40654 0.27059 0.0
O15 O 0.04205 0.37333 0.22267 0.0
O16 O 0.06497 0.4033 0.19272 0.0
N17 N 0.08682 0.46192 0.31848 0.0
C18 C 0.07078 0.4582 0.34386 0.0
C19 C 0.06685 0.47501 0.3537 0.0
C20 C 0.07954 0.4955 0.33762 0.0
C21 C 0.0961 0.49899 0.31188 0.0
C22 C 0.09937 0.48166 0.30334 0.0
H23 H 0.06099 0.4425 0.35636 0.0
O24 O 0.04112 0.41406 0.24348 0.0
O25 O 0.07573 0.43167 0.26024 0.0
O26 O 0.05092 0.39308 0.30367 0.0
O27 O 0.07726 0.4201 0.33738 0.0
C28 C 0.10918 0.51886 0.29373 0.0
C29 C 0.12502 0.52098 0.26707 0.0
H30 H 0.15304 0.51864 0.2161 0.0
H31 H 0.15549 0.48577 0.20307 0.0
H32 H 0.05402 0.47218 0.37354 0.0
H33 H 0.07633 0.50837 0.34501 0.0
H34 H 0.10694 0.53252 0.2996 0.0
H35 H 0.13474 0.53625 0.25288 0.0
Mn36 Mn 0.66563 0.06077 0.74003 0.0
Mn37 Mn 0.69601 0.03636 0.7326 0.0
C38 C 0.67179 0.05061 0.68137 0.0
C39 C 0.63228 0.05941 0.74921 0.0
C40 C 0.7155 0.08438 0.74441 0.0
O41 O 0.66599 0.05102 0.79396 0.0
O42 O 0.68535 0.03398 0.78563 0.0
C43 C 0.66132 0.99145 0.74609 0.0
N44 N 0.67743 0.00631 0.72367 0.0
C45 C 0.67161 0.97946 0.67696 0.0
C46 C 0.65505 0.96384 0.69968 0.0
C47 C 0.64986 0.96988 0.73434 0.0
C48 C 0.68255 0.00068 0.69024 0.0
H49 H 0.65723 0.99603 0.7727 0.0
C50 C 0.67443 0.04002 0.80636 0.0
O51 O 0.65058 0.07678 0.75607 0.0
O52 O 0.63336 0.04268 0.73798 0.0
N53 N 0.70718 0.03716 0.68283 0.0
C54 C 0.72264 0.05438 0.66324 0.0
C55 C 0.72916 0.0512 0.62735 0.0
C56 C 0.71989 0.03036 0.61213 0.0
C57 C 0.70419 0.01287 0.63301 0.0
C58 C 0.69839 0.01701 0.6687 0.0
H59 H 0.72982 0.07044 0.67478 0.0
O60 O 0.66637 0.06545 0.68432 0.0
O61 O 0.67326 0.04196 0.7129 0.0
O62 O 0.69751 0.08453 0.74454 0.0
O63 O 0.71668 0.06722 0.74076 0.0
C64 C 0.69375 0.99155 0.61948 0.0
C65 C 0.67743 0.97486 0.64139 0.0
H66 H 0.64609 0.9472 0.69063 0.0
H67 H 0.63702 0.95794 0.75194 0.0
H68 H 0.74127 0.06478 0.61139 0.0
H69 H 0.72482 0.02799 0.58429 0.0
H70 H 0.69794 0.98785 0.59203 0.0
H71 H 0.66928 0.95859 0.63041 0.0
Mn72 Mn 0.6059 0.66637 0.23589 0.0
Mn73 Mn 0.66027 0.69684 0.22466 0.0
C74 C 0.6211 0.67046 0.17637 0.0
C75 C 0.57532 0.63324 0.24905 0.0
C76 C 0.63023 0.71542 0.23717 0.0
O77 O 0.61756 0.66922 0.28956 0.0
O78 O 0.65374 0.68675 0.27817 0.0
C79 C 0.67343 0.66389 0.23698 0.0
N80 N 0.67307 0.67923 0.21461 0.0
C81 C 0.69376 0.67375 0.16602 0.0
C82 C 0.69456 0.65806 0.18873 0.0
C83 C 0.6843 0.65308 0.22432 0.0
C84 C 0.68291 0.68417 0.18032 0.0
H85 H 0.66542 0.65987 0.2642 0.0
C86 C 0.6373 0.67707 0.30041 0.0
O87 O 0.57518 0.65116 0.25425 0.0
O88 O 0.59338 0.63465 0.23725 0.0
N89 N 0.66862 0.70718 0.17396 0.0
C90 C 0.66465 0.72127 0.15421 0.0
C91 C 0.67277 0.72708 0.1172 0.0
C92 C 0.68493 0.71843 0.10095 0.0
C93 C 0.68889 0.70405 0.12189 0.0
C94 C 0.68053 0.69897 0.15876 0.0
H95 H 0.65522 0.72789 0.16646 0.0
O96 O 0.60068 0.66481 0.18003 0.0
O97 O 0.63195 0.67353 0.20767 0.0
O98 O 0.61241 0.69759 0.2371 0.0
O99 O 0.64887 0.71674 0.23399 0.0
C100 C 0.70031 0.69412 0.10726 0.0
C101 C 0.70276 0.679 0.12932 0.0
H102 H 0.70273 0.64952 0.17891 0.0
H103 H 0.68469 0.64086 0.24187 0.0
H104 H 0.66957 0.73813 0.10116 0.0
H105 H 0.69096 0.72278 0.07224 0.0
H106 H 0.70692 0.69771 0.07881 0.0
H107 H 0.71123 0.67119 0.1175 0.0
Mn108 Mn 0.93923 0.59819 0.75062 0.0
Mn109 Mn 0.90532 0.56211 0.81476 0.0
C110 C 0.94158 0.56777 0.76367 0.0
C111 C 0.94728 0.61127 0.68891 0.0
C112 C 0.94453 0.6045 0.83653 0.0
O113 O 0.91512 0.60585 0.7556 0.0
O114 O 0.89306 0.58036 0.79719 0.0
C115 C 0.8681 0.53599 0.76397 0.0
N116 N 0.88343 0.53736 0.78896 0.0
C117 C 0.87003 0.49925 0.78513 0.0
C118 C 0.85401 0.4974 0.75953 0.0
C119 C 0.85309 0.51587 0.74883 0.0
C120 C 0.88453 0.51971 0.79932 0.0
H121 H 0.86737 0.55016 0.75565 0.0
C122 C 0.89783 0.59651 0.7756 0.0
O123 O 0.95672 0.6237 0.71777 0.0
O124 O 0.93268 0.59151 0.69598 0.0
N125 N 0.9151 0.54332 0.83406 0.0
C126 C 0.93227 0.54805 0.85737 0.0
C127 C 0.93592 0.53144 0.8698 0.0
C128 C 0.92177 0.51014 0.85847 0.0
C129 C 0.90407 0.50565 0.83484 0.0
C130 C 0.90122 0.52286 0.82341 0.0
H131 H 0.94318 0.56439 0.8662 0.0
O132 O 0.95806 0.58464 0.74916 0.0
O133 O 0.92419 0.56921 0.77004 0.0
O134 O 0.95129 0.61096 0.80297 0.0
O135 O 0.92742 0.58672 0.84404 0.0
C136 C 0.88933 0.48483 0.82169 0.0
C137 C 0.87239 0.48164 0.7967 0.0
H138 H 0.84244 0.48193 0.7477 0.0
H139 H 0.84083 0.51459 0.72896 0.0
H140 H 0.94964 0.53504 0.88802 0.0
H141 H 0.92473 0.49739 0.8679 0.0
H142 H 0.89107 0.4712 0.83018 0.0
H143 H 0.86139 0.4656 0.78628 0.0
Mn144 Mn 0.33557 0.94064 0.24257 0.0
Mn145 Mn 0.30453 0.96427 0.23454 0.0
C146 C 0.32912 0.95027 0.18364 0.0
C147 C 0.36921 0.94279 0.25207 0.0
C148 C 0.28595 0.91645 0.24863 0.0
O149 O 0.33481 0.95046 0.29634 0.0
O150 O 0.31634 0.96831 0.28701 0.0
C151 C 0.33859 0.00981 0.24412 0.0
N152 N 0.32232 0.99414 0.22309 0.0
C153 C 0.32664 0.0195 0.17437 0.0
C154 C 0.34334 0.03595 0.19564 0.0
C155 C 0.34936 0.03106 0.23062 0.0
C156 C 0.31639 0.99865 0.18939 0.0
H157 H 0.34334 0.00612 0.27094 0.0
C158 C 0.32707 0.9622 0.30811 0.0
O159 O 0.35111 0.92524 0.25911 0.0
O160 O 0.36776 0.95927 0.24054 0.0
N161 N 0.29243 0.96183 0.18505 0.0
C162 C 0.27711 0.94391 0.16683 0.0
C163 C 0.2699 0.94589 0.13076 0.0
C164 C 0.27839 0.96626 0.1139 0.0
C165 C 0.29402 0.9845 0.13332 0.0
C166 C 0.30051 0.98155 0.16929 0.0
H167 H 0.27054 0.92819 0.1796 0.0
O168 O 0.33498 0.93577 0.18688 0.0
O169 O 0.32742 0.95888 0.21501 0.0
O170 O 0.30401 0.91652 0.24726 0.0
O171 O 0.28447 0.93348 0.24539 0.0
C172 C 0.30374 0.00542 0.11807 0.0
C173 C 0.32008 0.0229 0.13853 0.0
H174 H 0.35178 0.05233 0.18522 0.0
H175 H 0.36232 0.04364 0.2471 0.0
H176 H 0.25787 0.93173 0.11591 0.0
H177 H 0.27293 0.9677 0.08593 0.0
H178 H 0.29901 0.0082 0.09036 0.0
H179 H 0.32769 0.03886 0.1262 0.0
Mn180 Mn 0.39266 0.3322 0.73278 0.0
Mn181 Mn 0.33801 0.30349 0.72451 0.0
C182 C 0.37657 0.32719 0.67387 0.0
C183 C 0.42426 0.36488 0.74334 0.0
C184 C 0.36652 0.28323 0.73753 0.0
O185 O 0.38208 0.3311 0.78684 0.0
O186 O 0.34578 0.31471 0.77726 0.0
C187 C 0.32779 0.33867 0.73459 0.0
N188 N 0.32675 0.3223 0.71329 0.0
C189 C 0.30735 0.32889 0.66374 0.0
C190 C 0.30798 0.34565 0.68537 0.0
C191 C 0.31829 0.35058 0.7209 0.0
C192 C 0.31692 0.31745 0.67901 0.0
H193 H 0.33591 0.34269 0.7617 0.0
C194 C 0.36265 0.3243 0.79856 0.0
O195 O 0.42363 0.34668 0.74964 0.0
O196 O 0.4064 0.36404 0.73186 0.0
N197 N 0.32847 0.29216 0.67465 0.0
C198 C 0.33048 0.27645 0.65631 0.0
C199 C 0.3217 0.27011 0.61981 0.0
C200 C 0.31091 0.27994 0.60258 0.0
C201 C 0.3089 0.29595 0.6221 0.0
C202 C 0.31776 0.30143 0.65859 0.0
H203 H 0.33884 0.2689 0.66931 0.0
O204 O 0.39686 0.33222 0.67667 0.0
O205 O 0.36647 0.32539 0.70558 0.0
O206 O 0.38472 0.30066 0.73607 0.0
O207 O 0.34815 0.2826 0.73493 0.0
C208 C 0.29885 0.30699 0.60646 0.0
C209 C 0.29808 0.32345 0.62726 0.0
H210 H 0.30085 0.355 0.67477 0.0
H211 H 0.31902 0.36362 0.73761 0.0
H212 H 0.32336 0.25778 0.60489 0.0
H213 H 0.3044 0.27519 0.57423 0.0
H214 H 0.29196 0.30317 0.57822 0.0
H215 H 0.29061 0.33205 0.6147 0.0
Mn216 Mn 0.60495 0.94163 0.25726 0.0
Mn217 Mn 0.65971 0.96515 0.26374 0.0
C218 C 0.62175 0.95302 0.31529 0.0
C219 C 0.5733 0.94343 0.24734 0.0
C220 C 0.63021 0.91705 0.25468 0.0
O221 O 0.61485 0.95006 0.20283 0.0
O222 O 0.65132 0.9669 0.21046 0.0
C223 C 0.67111 0.01017 0.24771 0.0
N224 N 0.67194 0.99543 0.27109 0.0
C225 C 0.6933 0.02277 0.31686 0.0
C226 C 0.69281 0.03826 0.29313 0.0
C227 C 0.68164 0.03191 0.25844 0.0
C228 C 0.68268 0.00136 0.30451 0.0
H229 H 0.66246 0.00535 0.2211 0.0
C230 C 0.63423 0.96066 0.18995 0.0
O231 O 0.57382 0.92574 0.24192 0.0
O232 O 0.59133 0.96024 0.25756 0.0
N233 N 0.67002 0.96485 0.31378 0.0
C234 C 0.66772 0.94775 0.33447 0.0
C235 C 0.67724 0.95125 0.37057 0.0
C236 C 0.68912 0.97226 0.38492 0.0
C237 C 0.69145 0.98962 0.36296 0.0
C238 C 0.68173 0.98517 0.32706 0.0
H239 H 0.65853 0.93155 0.32365 0.0
O240 O 0.60138 0.93835 0.3133 0.0
O241 O 0.63169 0.96065 0.28322 0.0
O242 O 0.61231 0.91734 0.25476 0.0
O243 O 0.6488 0.93403 0.25718 0.0
C244 C 0.70258 0.0111 0.37566 0.0
C245 C 0.7035 0.02766 0.35263 0.0
H246 H 0.70077 0.05502 0.30144 0.0
H247 H 0.68108 0.04376 0.24008 0.0
H248 H 0.67533 0.93776 0.38738 0.0
H249 H 0.69622 0.97487 0.41296 0.0
H250 H 0.71019 0.01502 0.40335 0.0
H251 H 0.71183 0.04407 0.36294 0.0
Mn252 Mn 0.65811 0.59649 0.74902 0.0
Mn253 Mn 0.65795 0.55953 0.68924 0.0
C254 C 0.62588 0.56551 0.73573 0.0
C255 C 0.66172 0.61051 0.80979 0.0
C256 C 0.66104 0.60124 0.66279 0.0
O257 O 0.69011 0.60462 0.74679 0.0
O258 O 0.68794 0.57825 0.70878 0.0
C259 C 0.66801 0.53446 0.74437 0.0
N260 N 0.65462 0.53528 0.71746 0.0
C261 C 0.63004 0.49719 0.72245 0.0
C262 C 0.64363 0.49591 0.75005 0.0
C263 C 0.66267 0.51463 0.76112 0.0
C264 C 0.63623 0.51738 0.70669 0.0
H265 H 0.68263 0.54883 0.75299 0.0
C266 C 0.69869 0.59497 0.7295 0.0
O267 O 0.66508 0.62244 0.78004 0.0
O268 O 0.65702 0.59075 0.80419 0.0
N269 N 0.62993 0.54025 0.66842 0.0
C270 C 0.61794 0.54447 0.64313 0.0
C271 C 0.59802 0.52756 0.63009 0.0
C272 C 0.59075 0.50649 0.6429 0.0
C273 C 0.60348 0.50251 0.66862 0.0
C274 C 0.62321 0.51999 0.68054 0.0
H275 H 0.62347 0.56064 0.63318 0.0
O276 O 0.62568 0.58247 0.74832 0.0
O277 O 0.64496 0.56719 0.73141 0.0
O278 O 0.65964 0.60819 0.69537 0.0
O279 O 0.66101 0.58356 0.6575 0.0
C280 C 0.5972 0.48195 0.68337 0.0
C281 C 0.61041 0.47931 0.71039 0.0
H282 H 0.63953 0.48066 0.76314 0.0
H283 H 0.67319 0.51379 0.78253 0.0
H284 H 0.58828 0.53077 0.61028 0.0
H285 H 0.5753 0.49351 0.63299 0.0
H286 H 0.58206 0.46812 0.67455 0.0
H287 H 0.60521 0.46348 0.72201 0.0
Mn288 Mn 0.05991 0.6658 0.26392 0.0
Mn289 Mn 0.03532 0.69576 0.27351 0.0
C290 C 0.04718 0.6689 0.32255 0.0
C291 C 0.05795 0.63299 0.25019 0.0
C292 C 0.0843 0.71487 0.26537 0.0
O293 O 0.05264 0.66951 0.20966 0.0
O294 O 0.03353 0.68669 0.21961 0.0
C295 C 0.98981 0.66266 0.25685 0.0
N296 N 0.00468 0.67774 0.28067 0.0
C297 C 0.97694 0.67124 0.3267 0.0
C298 C 0.96129 0.65581 0.30246 0.0
C299 C 0.96776 0.65146 0.26743 0.0
C300 C 0.99864 0.68205 0.31445 0.0
H301 H 0.99474 0.65914 0.23005 0.0
C302 C 0.04108 0.67753 0.19788 0.0
O303 O 0.07607 0.65104 0.24661 0.0
O304 O 0.04093 0.6341 0.26068 0.0
N305 N 0.03563 0.70524 0.32435 0.0
C306 C 0.05296 0.7192 0.34573 0.0
C307 C 0.0494 0.72444 0.38242 0.0
C308 C 0.02809 0.71536 0.39666 0.0
C309 C 0.01051 0.70114 0.37404 0.0
C310 C 0.01503 0.69664 0.33759 0.0
H311 H 0.06938 0.72617 0.33501 0.0
O312 O 0.06208 0.66335 0.31992 0.0
O313 O 0.04011 0.67235 0.29075 0.0
O314 O 0.08444 0.69711 0.26504 0.0
O315 O 0.06682 0.71601 0.26721 0.0
C316 C 0.98873 0.69082 0.38661 0.0
C317 C 0.97196 0.67589 0.36295 0.0
H318 H 0.9443 0.64699 0.31067 0.0
H319 H 0.9558 0.63945 0.24871 0.0
H320 H 0.06306 0.73537 0.39975 0.0
H321 H 0.02544 0.71926 0.42512 0.0
H322 H 0.98474 0.69395 0.41468 0.0
H323 H 0.95532 0.66777 0.37319 0.0
Mn324 Mn 0.39598 0.05982 0.7591 0.0
Mn325 Mn 0.34122 0.03458 0.76768 0.0
C326 C 0.38003 0.04825 0.8178 0.0
C327 C 0.42803 0.05889 0.74781 0.0
C328 C 0.36929 0.08285 0.75686 0.0
O329 O 0.38545 0.05111 0.70491 0.0
O330 O 0.34916 0.03209 0.71451 0.0
C331 C 0.33101 0.98968 0.75415 0.0
N332 N 0.32995 0.00457 0.77677 0.0
C333 C 0.30959 0.97784 0.82408 0.0
C334 C 0.31031 0.96219 0.80115 0.0
C335 C 0.32111 0.96815 0.76608 0.0
C336 C 0.31959 0.99901 0.81056 0.0
H337 H 0.33937 0.9942 0.72725 0.0
C338 C 0.36599 0.03915 0.6931 0.0
O339 O 0.42695 0.07632 0.74262 0.0
O340 O 0.41032 0.04187 0.75849 0.0
N341 N 0.33145 0.0355 0.8179 0.0
C342 C 0.33354 0.05278 0.83775 0.0
C343 C 0.32442 0.0497 0.87413 0.0
C344 C 0.31313 0.02891 0.88963 0.0
C345 C 0.31102 0.01136 0.86854 0.0
C346 C 0.32032 0.01539 0.83231 0.0
H347 H 0.34225 0.0688 0.82605 0.0
O348 O 0.40022 0.06329 0.8151 0.0
O349 O 0.36983 0.04036 0.78607 0.0
O350 O 0.38761 0.0834 0.75733 0.0
O351 O 0.35107 0.06541 0.75934 0.0
C352 C 0.3005 0.99011 0.8824 0.0
C353 C 0.29978 0.97336 0.86019 0.0
H354 H 0.30284 0.9456 0.81037 0.0
H355 H 0.32185 0.95618 0.74832 0.0
H356 H 0.32616 0.06334 0.89027 0.0
H357 H 0.30633 0.02664 0.91787 0.0
H358 H 0.29322 0.98652 0.91036 0.0
H359 H 0.29194 0.95714 0.8714 0.0
Mn360 Mn 0.34124 0.40141 0.2508 0.0
Mn361 Mn 0.3466 0.44216 0.19516 0.0
C362 C 0.37487 0.43198 0.2446 0.0
C363 C 0.33339 0.38435 0.3096 0.0
C364 C 0.34237 0.4006 0.16446 0.0
O365 O 0.30986 0.39482 0.24321 0.0
O366 O 0.31571 0.42448 0.21111 0.0
C367 C 0.33694 0.46692 0.2516 0.0
N368 N 0.35067 0.46599 0.22555 0.0
C369 C 0.37707 0.50327 0.23542 0.0
C370 C 0.36314 0.50467 0.26218 0.0
C371 C 0.34302 0.48641 0.27036 0.0
C372 C 0.37009 0.48345 0.2175 0.0
H373 H 0.32149 0.4529 0.25802 0.0
C374 C 0.30311 0.40662 0.22777 0.0
O375 O 0.3317 0.37387 0.27856 0.0
O376 O 0.33889 0.40447 0.30626 0.0
N377 N 0.37575 0.46063 0.17793 0.0
C378 C 0.38781 0.45624 0.15306 0.0
C379 C 0.40867 0.47266 0.14268 0.0
C380 C 0.41684 0.49342 0.15774 0.0
C381 C 0.40405 0.4976 0.183 0.0
C382 C 0.38332 0.48065 0.19208 0.0
H383 H 0.38162 0.44032 0.14137 0.0
O384 O 0.37345 0.41408 0.256 0.0
O385 O 0.35656 0.43151 0.2376 0.0
O386 O 0.34255 0.39222 0.19627 0.0
O387 O 0.34296 0.41867 0.16113 0.0
C388 C 0.41124 0.5178 0.20014 0.0
C389 C 0.39777 0.52062 0.22637 0.0
H390 H 0.36781 0.51964 0.27687 0.0
H391 H 0.33223 0.48734 0.29112 0.0
H392 H 0.41845 0.46929 0.12322 0.0
H393 H 0.43301 0.50598 0.14995 0.0
H394 H 0.42724 0.53118 0.19382 0.0
H395 H 0.40361 0.53614 0.2398 0.0
Mn396 Mn 0.94114 0.33417 0.7681 0.0
Mn397 Mn 0.96684 0.30517 0.7754 0.0
C398 C 0.9515 0.32819 0.82694 0.0
C399 C 0.94244 0.36701 0.75839 0.0
C400 C 0.91817 0.28526 0.76146 0.0
O401 O 0.95099 0.33368 0.71407 0.0
O402 O 0.97082 0.31719 0.72319 0.0
C403 C 0.01233 0.3405 0.76727 0.0
N404 N 0.99682 0.32375 0.78763 0.0
C405 C 0.0224 0.32928 0.83732 0.0
C406 C 0.03872 0.34642 0.81666 0.0
C407 C 0.03364 0.35209 0.78153 0.0
C408 C 0.0015 0.31824 0.82156 0.0
H409 H 0.00846 0.34506 0.74045 0.0
C410 C 0.96371 0.32703 0.70219 0.0
O411 O 0.92488 0.3489 0.75149 0.0
O412 O 0.95932 0.366 0.77015 0.0
N413 N 0.96459 0.29297 0.82463 0.0
C414 C 0.94674 0.27682 0.84194 0.0
C415 C 0.94892 0.26964 0.87786 0.0
C416 C 0.96941 0.27905 0.89552 0.0
C417 C 0.98757 0.2955 0.87699 0.0
C418 C 0.98446 0.30185 0.84106 0.0
H419 H 0.93094 0.26953 0.82858 0.0
O420 O 0.93643 0.33349 0.8241 0.0
O421 O 0.96017 0.32684 0.79532 0.0
O422 O 0.91747 0.30271 0.7636 0.0
O423 O 0.93587 0.28453 0.76394 0.0
C424 C 0.00857 0.3061 0.89307 0.0
C425 C 0.02596 0.32301 0.87329 0.0
H426 H 0.05514 0.35549 0.82768 0.0
H427 H 0.0461 0.36541 0.76556 0.0
H428 H 0.93481 0.25695 0.89199 0.0
H429 H 0.97097 0.27363 0.92339 0.0
H430 H 0.01145 0.30161 0.92089 0.0
H431 H 0.04195 0.33127 0.88622 0.0
C432 C 0.05221 0.38279 0.12011 0.0
C433 C 0.04174 0.37249 0.15391 0.0
C434 C 0.04278 0.37413 0.08502 0.0
C435 C 0.98937 0.34197 0.04229 0.0
H436 H 0.02202 0.34209 0.95388 0.0
C437 C 0.94892 0.31733 0.89477 0.0
C438 C 0.96155 0.32939 0.86394 0.0
C439 C 0.95852 0.31944 0.93035 0.0
C440 C 0.01268 0.34209 0.97821 0.0
H441 H 0.01361 0.34456 0.17744 0.0
H442 H 0.99703 0.32953 0.11604 0.0
H443 H 0.03968 0.35117 0.01582 0.0
H444 H 0.99351 0.35415 0.84613 0.0
H445 H 0.01026 0.35837 0.90822 0.0
H446 H 0.96267 0.33388 0.00478 0.0
C447 C 0.01252 0.34433 0.11677 0.0
C448 C 0.0228 0.34721 0.0137 0.0
C449 C 0.02208 0.35288 0.15189 0.0
C450 C 0.98367 0.34417 0.86936 0.0
C451 C 0.99323 0.3465 0.90492 0.0
C452 C 0.97931 0.33707 0.00677 0.0
C453 C 0.02257 0.35509 0.08301 0.0
C454 C 0.01134 0.34751 0.04601 0.0
C455 C 0.98081 0.33414 0.93592 0.0
C456 C 0.99093 0.33741 0.97415 0.0
H457 H 0.06739 0.39791 0.12074 0.0
H458 H 0.05084 0.38287 0.05951 0.0
H459 H 0.98021 0.34235 0.06661 0.0
H460 H 0.93171 0.30611 0.89119 0.0
H461 H 0.94848 0.30954 0.95343 0.0
C462 C 0.64009 0.98606 0.35456 0.0
C463 C 0.63072 0.96368 0.35168 0.0
C464 C 0.64753 0.9963 0.38942 0.0
C465 C 0.6599 0.98709 0.4885 0.0
H466 H 0.65255 0.03638 0.50958 0.0
C467 C 0.65803 0.01903 0.63839 0.0
C468 C 0.6711 0.04125 0.64402 0.0
C469 C 0.65589 0.0102 0.60231 0.0
C470 C 0.65494 0.02279 0.5039 0.0
H471 H 0.62019 0.93415 0.38287 0.0
H472 H 0.63244 0.95183 0.44433 0.0
H473 H 0.64299 0.01957 0.44743 0.0
H474 H 0.6911 0.07191 0.61655 0.0
H475 H 0.68703 0.05648 0.55292 0.0
H476 H 0.67066 0.98979 0.54608 0.0
C477 C 0.63518 0.96171 0.41948 0.0
C478 C 0.64956 0.01317 0.46819 0.0
C479 C 0.62798 0.95153 0.38442 0.0
C480 C 0.68138 0.05465 0.61287 0.0
C481 C 0.67902 0.04586 0.57665 0.0
C482 C 0.66487 0.99649 0.52448 0.0
C483 C 0.64506 0.98427 0.42246 0.0
C484 C 0.65183 0.99509 0.46003 0.0
C485 C 0.66622 0.02356 0.57108 0.0
C486 C 0.66233 0.01436 0.53249 0.0
H487 H 0.64155 0.99564 0.32981 0.0
H488 H 0.65524 0.01367 0.39034 0.0
H489 H 0.6623 0.9735 0.4831 0.0
H490 H 0.64915 0.00855 0.66181 0.0
H491 H 0.64558 0.99301 0.59861 0.0
C492 C 0.63926 0.6549 0.13773 0.0
C493 C 0.62915 0.66748 0.1397 0.0
C494 C 0.64602 0.65093 0.10299 0.0
C495 C 0.64749 0.63325 0.02689 0.0
H496 H 0.65899 0.67077 0.94053 0.0
C497 C 0.64898 0.60369 0.87665 0.0
C498 C 0.66146 0.61839 0.84832 0.0
C499 C 0.64718 0.61088 0.91248 0.0
C500 C 0.65625 0.66023 0.96439 0.0
H501 H 0.61636 0.68431 0.10701 0.0
H502 H 0.62685 0.67637 0.04577 0.0
H503 H 0.65318 0.68188 0.00233 0.0
H504 H 0.68242 0.65211 0.8354 0.0
H505 H 0.68046 0.66474 0.89882 0.0
H506 H 0.652 0.61229 0.9898 0.0
C507 C 0.63104 0.67071 0.07112 0.0
C508 C 0.65245 0.66644 -7e-05 0.0
C509 C 0.62478 0.67512 0.10615 0.0
C510 C 0.67261 0.64045 0.85678 0.0
C511 C 0.67129 0.64766 0.89308 0.0
C512 C 0.65192 0.62736 0.99173 0.0
C513 C 0.64179 0.65853 0.069 0.0
C514 C 0.64753 0.65282 0.03159 0.0
C515 C 0.65832 0.63297 0.92139 0.0
C516 C 0.65579 0.64045 0.95966 0.0
H517 H 0.64189 0.64801 0.16317 0.0
H518 H 0.65454 0.64185 0.10306 0.0
H519 H 0.64348 0.62202 0.05008 0.0
H520 H 0.63993 0.5866 0.87075 0.0
H521 H 0.63651 0.599 0.9328 0.0
C522 C 0.01294 0.6533 0.35992 0.0
C523 C 0.03567 0.66591 0.35867 0.0
C524 C 0.00184 0.64941 0.39428 0.0
C525 C 0.98196 0.63223 0.47043 0.0
H526 H 0.00762 0.67041 0.55611 0.0
C527 C 0.95152 0.60373 0.62157 0.0
C528 C 0.95419 0.61867 0.64972 0.0
C529 C 0.9599 0.61061 0.58526 0.0
C530 C 0.99988 0.65969 0.53245 0.0
H531 H 0.06492 0.68281 0.39227 0.0
H532 H 0.04584 0.67507 0.45278 0.0
H533 H 0.0247 0.6811 0.49448 0.0
H534 H 0.96683 0.65247 0.66173 0.0
H535 H 0.98028 0.66454 0.59762 0.0
H536 H 0.95639 0.61147 0.50762 0.0
C537 C 0.03626 0.66932 0.42716 0.0
C538 C 0.01002 0.66566 0.497 0.0
C539 C 0.04729 0.67361 0.39255 0.0
C540 C 0.96467 0.64062 0.64052 0.0
C541 C 0.97257 0.64751 0.60381 0.0
C542 C 0.97151 0.62656 0.50553 0.0
C543 C 0.01331 0.65718 0.42857 0.0
C544 C 0.00152 0.65177 0.46564 0.0
C545 C 0.97067 0.63263 0.57577 0.0
C546 C 0.9806 0.63989 0.53739 0.0
H547 H 0.00373 0.64636 0.33422 0.0
H548 H 0.98424 0.64029 0.3937 0.0
H549 H 0.97487 0.62085 0.44742 0.0
H550 H 0.94374 0.5867 0.628 0.0
H551 H 0.9585 0.59858 0.56512 0.0
C552 C 0.36297 0.01532 0.85739 0.0
C553 C 0.3716 0.0376 0.85437 0.0
C554 C 0.35564 0.00504 0.89224 0.0
C555 C 0.34167 0.0137 0.99046 0.0
H556 H 0.34989 0.96505 0.01278 0.0
C557 C 0.34272 0.98181 0.14072 0.0
C558 C 0.32982 0.95957 0.14624 0.0
C559 C 0.34498 0.99066 0.10464 0.0
C560 C 0.34726 0.97846 0.00673 0.0
H561 H 0.38112 0.06701 0.88533 0.0
H562 H 0.36905 0.04928 0.94682 0.0
H563 H 0.36013 0.9821 0.95089 0.0
H564 H 0.31021 0.92889 0.11862 0.0
H565 H 0.31455 0.94434 0.05492 0.0
H566 H 0.33002 0.01062 0.04752 0.0
C567 C 0.36679 0.03946 0.92206 0.0
C568 C 0.35303 0.98822 0.97117 0.0
C569 C 0.37389 0.04969 0.887 0.0
C570 C 0.3198 0.94616 0.115 0.0
C571 C 0.3223 0.95496 0.07875 0.0
C572 C 0.33632 0.00418 0.02633 0.0
C573 C 0.35747 0.01696 0.92513 0.0
C574 C 0.35045 0.00606 0.96258 0.0
C575 C 0.33496 0.97729 0.07331 0.0
C576 C 0.33916 0.98653 0.03476 0.0
H577 H 0.36186 0.00583 0.8327 0.0
H578 H 0.34839 0.98772 0.8932 0.0
H579 H 0.33899 0.02708 0.98469 0.0
H580 H 0.35141 0.99232 0.16423 0.0
H581 H 0.35519 0.00787 0.10102 0.0
C582 C 0.3325 0.35567 0.35161 0.0
C583 C 0.3313 0.37459 0.34738 0.0
C584 C 0.33397 0.34837 0.38772 0.0
C585 C 0.35203 0.37003 0.48405 0.0
H586 H 0.3287 0.31014 0.5119 0.0
C587 C 0.3612 0.34513 0.63451 0.0
C588 C 0.36818 0.32993 0.63745 0.0
C589 C 0.35448 0.34905 0.5997 0.0
C590 C 0.33539 0.32692 0.50433 0.0
H591 H 0.32905 0.39982 0.37758 0.0
H592 H 0.33088 0.38678 0.44041 0.0
H593 H 0.31963 0.31928 0.45013 0.0
H594 H 0.37467 0.30757 0.60657 0.0
H595 H 0.36266 0.31427 0.54518 0.0
H596 H 0.3678 0.37771 0.53802 0.0
C597 C 0.33145 0.37792 0.41595 0.0
C598 C 0.33022 0.33217 0.46901 0.0
C599 C 0.33023 0.38532 0.37992 0.0
C600 C 0.36886 0.31903 0.60491 0.0
C601 C 0.36192 0.32279 0.57001 0.0
C602 C 0.35706 0.36479 0.51928 0.0
C603 C 0.33408 0.35977 0.42031 0.0
C604 C 0.33855 0.35382 0.4584 0.0
C605 C 0.35482 0.33799 0.56704 0.0
C606 C 0.34889 0.34322 0.52978 0.0
H607 H 0.33342 0.34708 0.32701 0.0
H608 H 0.3361 0.33441 0.38993 0.0
H609 H 0.35921 0.38687 0.47659 0.0
H610 H 0.36113 0.35414 0.65915 0.0
H611 H 0.34902 0.36078 0.59834 0.0
C612 C 0.98035 0.62878 0.86747 0.0
C613 C 0.95748 0.61771 0.86884 0.0
C614 C 0.99251 0.63927 0.89973 0.0
C615 C 0.99201 0.66439 0.98851 0.0
H616 H 0.02539 0.63988 0.03167 0.0
C617 C 0.01647 0.67589 0.1455 0.0
C618 C 0.03512 0.67522 0.15725 0.0
C619 C 0.00979 0.67215 0.10771 0.0
C620 C 0.01666 0.64739 0.01977 0.0
H621 H 0.92937 0.60972 0.90414 0.0
H622 H 0.95066 0.62877 0.96003 0.0
H623 H 0.00909 0.62842 0.96914 0.0
H624 H 0.06201 0.67109 0.13816 0.0
H625 H 0.05097 0.66554 0.07184 0.0
H626 H 0.99966 0.68362 0.0385 0.0
C627 C 0.95912 0.62904 0.93425 0.0
C628 C 0.00724 0.64069 0.98397 0.0
C629 C 0.94699 0.6181 0.90239 0.0
C630 C 0.04741 0.67148 0.13006 0.0
C631 C 0.04097 0.66816 0.09203 0.0
C632 C 0.00181 0.67147 0.02394 0.0
C633 C 0.98194 0.63934 0.9334 0.0
C634 C 0.99441 0.64875 0.96853 0.0
C635 C 0.02184 0.66806 0.0804 0.0
C636 C 0.01375 0.6626 0.04062 0.0
H637 H 0.98881 0.62856 0.84201 0.0
H638 H 0.01012 0.64709 0.89859 0.0
H639 H 0.98226 0.6709 0.97693 0.0
H640 H 0.00653 0.6786 0.16573 0.0
H641 H 0.99473 0.67177 0.10031 0.0
C642 C 0.33962 0.96103 0.37427 0.0
C643 C 0.33128 0.96985 0.3479 0.0
C644 C 0.344 0.96866 0.41154 0.0
C645 C 0.35602 0.01589 0.46977 0.0
H646 H 0.33644 0.97556 0.55361 0.0
C647 C 0.37969 0.04155 0.62644 0.0
C648 C 0.36259 0.03217 0.6529 0.0
C649 C 0.37648 0.03429 0.58892 0.0
C650 C 0.34197 0.987 0.53047 0.0
H651 H 0.32111 0.99375 0.34016 0.0
H652 H 0.32883 0.00703 0.40503 0.0
H653 H 0.3296 0.96207 0.48858 0.0
H654 H 0.32866 0.00779 0.66041 0.0
H655 H 0.32321 0.99519 0.59519 0.0
H656 H 0.36824 0.04082 0.51171 0.0
C657 C 0.33203 0.99426 0.3968 0.0
C658 C 0.33822 0.97929 0.49329 0.0
C659 C 0.32745 0.9865 0.35969 0.0
C660 C 0.34221 0.01546 0.64087 0.0
C661 C 0.33909 0.00809 0.60353 0.0
C662 C 0.35997 0.02361 0.50698 0.0
C663 C 0.34035 0.98543 0.42311 0.0
C664 C 0.34504 0.99364 0.46256 0.0
C665 C 0.3562 0.01735 0.5772 0.0
C666 C 0.35279 0.00924 0.5377 0.0
H667 H 0.34278 0.94821 0.36618 0.0
H668 H 0.35054 0.96166 0.43118 0.0
H669 H 0.36163 0.02732 0.44662 0.0
H670 H 0.39559 0.05445 0.63471 0.0
H671 H 0.38999 0.04165 0.56923 0.0
C672 C 0.37552 0.33353 0.86597 0.0
C673 C 0.35941 0.32881 0.83831 0.0
C674 C 0.37287 0.33909 0.90286 0.0
C675 C 0.3501 0.36671 0.95291 0.0
H676 H 0.34935 0.33584 0.04371 0.0
C677 C 0.33152 0.39103 0.09698 0.0
C678 C 0.3422 0.38938 0.12923 0.0
C679 C 0.33264 0.38193 0.06266 0.0
C680 C 0.34988 0.34489 0.01878 0.0
H681 H 0.32776 0.32594 0.828 0.0
H682 H 0.32361 0.33639 0.89196 0.0
H683 H 0.35401 0.32329 0.98173 0.0
H684 H 0.36227 0.37675 0.15115 0.0
H685 H 0.36521 0.36172 0.09078 0.0
H686 H 0.34707 0.38892 0.98914 0.0
C687 C 0.33808 0.33546 0.88509 0.0
C688 C 0.35242 0.33758 0.98332 0.0
C689 C 0.34048 0.32944 0.84854 0.0
C690 C 0.35373 0.37809 0.12672 0.0
C691 C 0.35531 0.3694 0.09207 0.0
C692 C 0.34806 0.3743 0.98825 0.0
C693 C 0.35431 0.34049 0.91243 0.0
C694 C 0.3523 0.34833 0.95015 0.0
C695 C 0.34501 0.37144 0.05937 0.0
C696 C 0.34763 0.36337 0.02175 0.0
H697 H 0.39024 0.33309 0.85903 0.0
H698 H 0.38562 0.343 0.92355 0.0
H699 H 0.35026 0.37541 0.92765 0.0
H700 H 0.3223 0.39944 0.09826 0.0
H701 H 0.32386 0.38328 0.03864 0.0
C702 C 0.99146 0.33297 0.65256 0.0
C703 C 0.97168 0.33193 0.6626 0.0
C704 C 0.99993 0.33912 0.61606 0.0
C705 C 0.98763 0.34038 0.51785 0.0
H706 H 0.04361 0.39253 0.51107 0.0
C707 C 0.02612 0.37968 0.37347 0.0
C708 C 0.04892 0.39137 0.3708 0.0
C709 C 0.01599 0.37137 0.40837 0.0
C710 C 0.0282 0.37769 0.51225 0.0
H711 H 0.94486 0.3357 0.64168 0.0
H712 H 0.95948 0.34581 0.57724 0.0
H713 H 0.02706 0.3793 0.57279 0.0
H714 H 0.07904 0.40259 0.40191 0.0
H715 H 0.0616 0.3871 0.46205 0.0
H716 H 0.98902 0.33811 0.45759 0.0
C717 C 0.96845 0.34214 0.59804 0.0
C718 C 0.01866 0.37027 0.54771 0.0
C719 C 0.96018 0.33645 0.63487 0.0
C720 C 0.06141 0.39386 0.40327 0.0
C721 C 0.05134 0.38513 0.43789 0.0
C722 C 0.9974 0.34753 0.48231 0.0
C723 C 0.98857 0.34386 0.5886 0.0
C724 C 0.99832 0.35159 0.5508 0.0
C725 C 0.02848 0.37418 0.44123 0.0
C726 C 0.01788 0.36631 0.47898 0.0
H727 H 0.00076 0.32963 0.67318 0.0
H728 H 0.01545 0.34031 0.6093 0.0
H729 H 0.97195 0.32585 0.5197 0.0
H730 H 0.0161 0.37769 0.34889 0.0
H731 H 0.9984 0.36333 0.40967 0.0
C732 C 0.65296 0.03169 0.86671 0.0
C733 C 0.6707 0.03298 0.84645 0.0
C734 C 0.64862 0.02359 0.90369 0.0
C735 C 0.66133 0.991 0.97075 0.0
H736 H 0.63729 0.01337 0.04525 0.0
C737 C 0.65725 0.97311 0.13136 0.0
C738 C 0.63731 0.96704 0.14952 0.0
C739 C 0.66063 0.98029 0.09385 0.0
C740 C 0.64383 0.00687 0.02459 0.0
H741 H 0.69826 0.0275 0.84962 0.0
H742 H 0.69127 0.01427 0.91442 0.0
H743 H 0.64529 0.02857 0.98153 0.0
H744 H 0.60524 0.96368 0.14241 0.0
H745 H 0.61136 0.9766 0.07695 0.0
H746 H 0.66048 0.96979 0.01448 0.0
C747 C 0.68019 0.01876 0.90145 0.0
C748 C 0.64837 0.0155 0.98801 0.0
C749 C 0.68433 0.02653 0.86432 0.0
C750 C 0.62075 0.96812 0.12918 0.0
C751 C 0.62427 0.97565 0.09184 0.0
C752 C 0.6571 0.98261 0.00748 0.0
C753 C 0.6621 0.01688 0.9215 0.0
C754 C 0.6572 0.0077 0.96056 0.0
C755 C 0.64428 0.98188 0.07389 0.0
C756 C 0.64831 0.99045 0.03473 0.0
H757 H 0.64203 0.03634 0.85362 0.0
H758 H 0.63436 0.02212 0.9179 0.0
H759 H 0.66764 0.98419 0.95026 0.0
H760 H 0.67033 0.97243 0.14621 0.0
H761 H 0.67624 0.98511 0.08072 0.0
C762 C 0.66131 0.67472 0.3501 0.0
C763 C 0.64149 0.67363 0.34023 0.0
C764 C 0.66461 0.66944 0.38665 0.0
C765 C 0.64955 0.66554 0.48534 0.0
H766 H 0.66055 0.61755 0.48945 0.0
C767 C 0.64891 0.62351 0.62645 0.0
C768 C 0.66179 0.61361 0.62886 0.0
C769 C 0.64757 0.63282 0.59238 0.0
C770 C 0.658 0.63129 0.48906 0.0
H771 H 0.61001 0.66718 0.36165 0.0
H772 H 0.61614 0.65848 0.4261 0.0
H773 H 0.65654 0.63091 0.42844 0.0
H774 H 0.68442 0.60685 0.5987 0.0
H775 H 0.68327 0.6242 0.54021 0.0
H776 H 0.65171 0.66648 0.54585 0.0
C777 C 0.62892 0.66319 0.40516 0.0
C778 C 0.65551 0.63878 0.45398 0.0
C779 C 0.62541 0.66806 0.3683 0.0
C780 C 0.67416 0.61416 0.59738 0.0
C781 C 0.67328 0.62393 0.56371 0.0
C782 C 0.65252 0.65833 0.52058 0.0
C783 C 0.64836 0.6634 0.41433 0.0
C784 C 0.65121 0.6559 0.4518 0.0
C785 C 0.65946 0.63282 0.56028 0.0
C786 C 0.65676 0.64106 0.52293 0.0
H787 H 0.67405 0.67893 0.32926 0.0
H788 H 0.67976 0.66976 0.3932 0.0
H789 H 0.64631 0.67884 0.48422 0.0
H790 H 0.63906 0.62311 0.6503 0.0
H791 H 0.63656 0.63925 0.59092 0.0
C792 C 0.07473 0.61072 0.23021 0.0
C793 C 0.05693 0.61198 0.24509 0.0
C794 C 0.07418 0.5909 0.22809 0.0
C795 C 0.04953 0.53852 0.27451 0.0
H796 H 0.06621 0.51906 0.18451 0.0
C797 C 0.0401 0.45399 0.26778 0.0
C798 C 0.05699 0.45216 0.2506 0.0
C799 C 0.03935 0.4731 0.26475 0.0
C800 C 0.06177 0.52435 0.21006 0.0
H801 H 0.02444 0.59343 0.26869 0.0
H802 H 0.02365 0.55898 0.2654 0.0
H803 H 0.06691 0.55356 0.18376 0.0
H804 H 0.08488 0.46759 0.21337 0.0
H805 H 0.08416 0.50131 0.2089 0.0
H806 H 0.045 0.50983 0.30135 0.0
C807 C 0.038 0.57329 0.25542 0.0
C808 C 0.06211 0.54409 0.20953 0.0
C809 C 0.03843 0.59301 0.25708 0.0
C810 C 0.07222 0.46907 0.22811 0.0
C811 C 0.07154 0.48821 0.22507 0.0
C812 C 0.04945 0.51896 0.27523 0.0
C813 C 0.05595 0.57206 0.2413 0.0
C814 C 0.05586 0.55128 0.24168 0.0
C815 C 0.05534 0.49065 0.24398 0.0
C816 C 0.05542 0.51152 0.24295 0.0
H817 H 0.08921 0.62507 0.22073 0.0
H818 H 0.08827 0.5904 0.21722 0.0
H819 H 0.04497 0.54386 0.29991 0.0
H820 H 0.02776 0.4408 0.28424 0.0
H821 H 0.02625 0.47412 0.27875 0.0
C822 C 0.44918 0.03927 0.74609 0.0
C823 C 0.44883 0.05874 0.74425 0.0
C824 C 0.46896 0.03924 0.74565 0.0
C825 C 0.52652 0.07303 0.76972 0.0
H826 H 0.53523 0.03324 0.70745 0.0
C827 C 0.61053 0.07823 0.75594 0.0
C828 C 0.61118 0.05901 0.7519 0.0
C829 C 0.59064 0.07805 0.75559 0.0
C830 C 0.53299 0.04424 0.72551 0.0
H831 H 0.4689 0.09339 0.73981 0.0
H832 H 0.50346 0.09331 0.73935 0.0
H833 H 0.50071 0.03318 0.70444 0.0
H834 H 0.59146 0.02444 0.74556 0.0
H835 H 0.55673 0.024 0.74618 0.0
H836 H 0.55853 0.08382 0.79147 0.0
C837 C 0.48843 0.07811 0.74123 0.0
C838 C 0.51322 0.04426 0.72359 0.0
C839 C 0.46863 0.07813 0.74123 0.0
C840 C 0.5915 0.03954 0.7485 0.0
C841 C 0.57159 0.03932 0.74854 0.0
C842 C 0.5462 0.07286 0.77196 0.0
C843 C 0.4888 0.05867 0.74379 0.0
C844 C 0.50982 0.05871 0.74557 0.0
C845 C 0.5709 0.05861 0.75157 0.0
C846 C 0.54975 0.05851 0.74979 0.0
H847 H 0.43418 0.02406 0.74845 0.0
H848 H 0.46876 0.02403 0.74788 0.0
H849 H 0.52422 0.08412 0.78743 0.0
H850 H 0.62543 0.09352 0.75836 0.0
H851 H 0.59083 0.09326 0.75746 0.0
C852 C 0.55509 0.5933 0.24106 0.0
C853 C 0.55546 0.61209 0.25388 0.0
C854 C 0.5359 0.57348 0.24254 0.0
C855 C 0.48258 0.54382 0.28883 0.0
H856 H 0.46561 0.50969 0.19685 0.0
C857 C 0.39739 0.46912 0.26942 0.0
C858 C 0.39577 0.45206 0.24744 0.0
C859 C 0.41723 0.48825 0.27242 0.0
C860 C 0.47025 0.5188 0.223 0.0
H861 H 0.53617 0.62473 0.27947 0.0
H862 H 0.50262 0.58993 0.28254 0.0
H863 H 0.49965 0.54376 0.1985 0.0
H864 H 0.41369 0.44047 0.21455 0.0
H865 H 0.44856 0.47383 0.21989 0.0
H866 H 0.45337 0.51876 0.31359 0.0
C867 C 0.51722 0.59063 0.27123 0.0
C868 C 0.48973 0.53838 0.22386 0.0
C869 C 0.53639 0.61053 0.26935 0.0
C870 C 0.41452 0.45377 0.23063 0.0
C871 C 0.4344 0.47289 0.23359 0.0
C872 C 0.46318 0.5241 0.28813 0.0
C873 C 0.51671 0.57197 0.25725 0.0
C874 C 0.49609 0.5511 0.25675 0.0
C875 C 0.43592 0.49053 0.25396 0.0
C876 C 0.45675 0.51134 0.25517 0.0
H877 H 0.56951 0.59395 0.22899 0.0
H878 H 0.53603 0.55932 0.23197 0.0
H879 H 0.48719 0.55324 0.31466 0.0
H880 H 0.38322 0.46776 0.28384 0.0
H881 H 0.4177 0.50144 0.28825 0.0
C882 C 0.95876 0.54548 0.77894 0.0
C883 C 0.94137 0.54712 0.76344 0.0
C884 C 0.95899 0.52606 0.77688 0.0
C885 C 0.92302 0.46776 0.76205 0.0
H886 H 0.97701 0.46822 0.73979 0.0
C887 C 0.92528 0.38899 0.73912 0.0
C888 C 0.94296 0.38787 0.75483 0.0
C889 C 0.92535 0.40858 0.73777 0.0
C890 C 0.96184 0.4678 0.74651 0.0
H891 H 0.91158 0.53066 0.73095 0.0
H892 H 0.91182 0.49664 0.72739 0.0
H893 H 0.97662 0.50208 0.74308 0.0
H894 H 0.97469 0.40641 0.78108 0.0
H895 H 0.97462 0.44039 0.7796 0.0
H896 H 0.90827 0.43357 0.76623 0.0
C897 C 0.92491 0.51002 0.7423 0.0
C898 C 0.96163 0.48722 0.74837 0.0
C899 C 0.9247 0.52942 0.74444 0.0
C900 C 0.96086 0.40677 0.76861 0.0
C901 C 0.96086 0.4263 0.76756 0.0
C902 C 0.92326 0.44835 0.76056 0.0
C903 C 0.94203 0.50809 0.7586 0.0
C904 C 0.94223 0.48744 0.75632 0.0
C905 C 0.94304 0.42745 0.7524 0.0
C906 C 0.94268 0.44811 0.75287 0.0
H907 H 0.97201 0.55914 0.79302 0.0
H908 H 0.97235 0.52506 0.78991 0.0
H909 H 0.90783 0.46735 0.76837 0.0
H910 H 0.9113 0.37471 0.72808 0.0
H911 H 0.91152 0.40891 0.72527 0.0
C912 C 0.40999 0.9632 0.2508 0.0
C913 C 0.39048 0.94357 0.25464 0.0
C914 C 0.43004 0.96371 0.2504 0.0
C915 C 0.45423 0.93026 0.22709 0.0
H916 H 0.50345 0.97132 0.28658 0.0
C917 C 0.53276 0.92491 0.24129 0.0
C918 C 0.55275 0.94408 0.2443 0.0
C919 C 0.51318 0.92532 0.24139 0.0
C920 C 0.49 0.95997 0.26927 0.0
H921 H 0.3767 0.90914 0.26174 0.0
H922 H 0.41172 0.91003 0.26067 0.0
H923 H 0.46891 0.97124 0.2902 0.0
H924 H 0.56799 0.97879 0.24851 0.0
H925 H 0.53388 0.9796 0.24744 0.0
H926 H 0.47525 0.91921 0.2055 0.0
C927 C 0.41147 0.925 0.2579 0.0
C928 C 0.47018 0.95988 0.27154 0.0
C929 C 0.39145 0.92452 0.25877 0.0
C930 C 0.55281 0.96373 0.24636 0.0
C931 C 0.53323 0.96417 0.24607 0.0
C932 C 0.47409 0.9305 0.22447 0.0
C933 C 0.43094 0.94457 0.25334 0.0
C934 C 0.45206 0.94491 0.2507 0.0
C935 C 0.51314 0.94494 0.24409 0.0
C936 C 0.49221 0.94525 0.24574 0.0
H937 H 0.40976 0.97816 0.24757 0.0
H938 H 0.4448 0.97901 0.24668 0.0
H939 H 0.44061 0.91877 0.21023 0.0
H940 H 0.53216 0.9095 0.23992 0.0
H941 H 0.49806 0.91017 0.24041 0.0
C942 C 0.60446 0.52745 0.7567 0.0
C943 C 0.60562 0.5447 0.7359 0.0
C944 C 0.58492 0.50798 0.75896 0.0
C945 C 0.52562 0.48491 0.75116 0.0
H946 H 0.52528 0.431 0.73661 0.0
C947 C 0.44582 0.40455 0.73267 0.0
C948 C 0.44466 0.38567 0.74692 0.0
C949 C 0.46542 0.42401 0.7335 0.0
C950 C 0.52508 0.44586 0.74139 0.0
H951 H 0.58726 0.55587 0.70319 0.0
H952 H 0.55294 0.52169 0.70678 0.0
H953 H 0.55956 0.46475 0.7338 0.0
H954 H 0.46295 0.37248 0.77432 0.0
H955 H 0.49705 0.4066 0.77692 0.0
H956 H 0.49124 0.4661 0.75969 0.0
C957 C 0.56718 0.52309 0.72097 0.0
C958 C 0.54476 0.46523 0.73948 0.0
C959 C 0.58677 0.54255 0.71867 0.0
C960 C 0.46338 0.38675 0.76293 0.0
C961 C 0.48296 0.40629 0.76414 0.0
C962 C 0.50597 0.46554 0.75353 0.0
C963 C 0.56605 0.50558 0.74111 0.0
C964 C 0.54521 0.48498 0.74394 0.0
C965 C 0.48431 0.42514 0.749 0.0
C966 C 0.50539 0.44575 0.74831 0.0
H967 H 0.61865 0.52911 0.77153 0.0
H968 H 0.58449 0.49494 0.77525 0.0
H969 H 0.52551 0.49986 0.75546 0.0
H970 H 0.43171 0.40423 0.71991 0.0
H971 H 0.46585 0.43805 0.721 0.0
C972 C 0.11885 0.38387 0.24267 0.0
C973 C 0.12076 0.3997 0.2685 0.0
C974 C 0.13571 0.379 0.23883 0.0
C975 C 0.18085 0.38584 0.21803 0.0
H976 H 0.21481 0.38591 0.30449 0.0
C977 C 0.27121 0.41042 0.20746 0.0
C978 C 0.27961 0.39994 0.2299 0.0
C979 C 0.24954 0.40544 0.21098 0.0
C980 C 0.20533 0.38548 0.28004 0.0
H981 H 0.1415 0.4221 0.31169 0.0
H982 H 0.17064 0.41365 0.30496 0.0
H983 H 0.18041 0.38548 0.31463 0.0
H984 H 0.27146 0.37549 0.273 0.0
H985 H 0.23346 0.36685 0.27928 0.0
H986 H 0.20604 0.38637 0.18345 0.0
C987 C 0.15616 0.40491 0.28775 0.0
C988 C 0.18573 0.38545 0.28585 0.0
C989 C 0.13949 0.40991 0.29135 0.0
C990 C 0.26555 0.38388 0.25529 0.0
C991 C 0.24382 0.379 0.25902 0.0
C992 C 0.2005 0.38595 0.21222 0.0
C993 C 0.15466 0.38966 0.26107 0.0
C994 C 0.17357 0.38624 0.25493 0.0
C995 C 0.23565 0.3899 0.23716 0.0
C996 C 0.21327 0.38639 0.24316 0.0
H997 H 0.10466 0.37571 0.22463 0.0
H998 H 0.13403 0.36707 0.21817 0.0
H999 H 0.17194 0.38655 0.1936 0.0
H1000 H 0.28149 0.42281 0.18749 0.0
H1001 H 0.24389 0.41437 0.19409 0.0
C1002 C 0.89704 0.24493 0.75618 0.0
C1003 C 0.89732 0.26474 0.75734 0.0
C1004 C 0.87731 0.22558 0.75401 0.0
C1005 C 0.81865 0.20213 0.77416 0.0
H1006 H 0.8129 0.15582 0.70932 0.0
C1007 C 0.73605 0.12478 0.74911 0.0
C1008 C 0.73616 0.10517 0.74735 0.0
C1009 C 0.75561 0.14434 0.75033 0.0
C1010 C 0.8143 0.1685 0.72792 0.0
H1011 H 0.87692 0.27961 0.75653 0.0
H1012 H 0.84263 0.24591 0.75248 0.0
H1013 H 0.8472 0.18971 0.71073 0.0
H1014 H 0.75711 0.09091 0.74606 0.0
H1015 H 0.79104 0.12492 0.74878 0.0
H1016 H 0.7858 0.18088 0.79153 0.0
C1017 C 0.85768 0.24535 0.75372 0.0
C1018 C 0.83397 0.18793 0.72868 0.0
C1019 C 0.87738 0.2647 0.75579 0.0
C1020 C 0.75633 0.10565 0.74729 0.0
C1021 C 0.77584 0.12519 0.74856 0.0
C1022 C 0.79899 0.18267 0.77346 0.0
C1023 C 0.85739 0.22556 0.75304 0.0
C1024 C 0.83639 0.20497 0.75185 0.0
C1025 C 0.77574 0.14479 0.74984 0.0
C1026 C 0.79659 0.16559 0.7504 0.0
H1027 H 0.91203 0.24429 0.75746 0.0
H1028 H 0.87765 0.2106 0.75393 0.0
H1029 H 0.82009 0.21482 0.79275 0.0
H1030 H 0.72086 0.12507 0.74906 0.0
H1031 H 0.75493 0.15915 0.7509 0.0
C1032 C 0.60935 0.73544 0.24212 0.0
C1033 C 0.6294 0.73571 0.24042 0.0
C1034 C 0.60872 0.75466 0.2445 0.0
C1035 C 0.6422 0.81185 0.27119 0.0
H1036 H 0.60155 0.81987 0.20886 0.0
C1037 C 0.64886 0.89491 0.25266 0.0
C1038 C 0.62948 0.89595 0.25253 0.0
C1039 C 0.64824 0.87508 0.25164 0.0
C1040 C 0.61281 0.81779 0.22681 0.0
H1041 H 0.66452 0.75658 0.23993 0.0
H1042 H 0.66333 0.78992 0.24394 0.0
H1043 H 0.60141 0.78567 0.2069 0.0
H1044 H 0.5942 0.87678 0.25107 0.0
H1045 H 0.59317 0.8422 0.24966 0.0
H1046 H 0.65364 0.84392 0.29112 0.0
C1047 C 0.64811 0.77484 0.24385 0.0
C1048 C 0.61273 0.7982 0.22568 0.0
C1049 C 0.64877 0.75568 0.24134 0.0
C1050 C 0.60946 0.87663 0.25109 0.0
C1051 C 0.60885 0.85678 0.2501 0.0
C1052 C 0.64226 0.83141 0.27239 0.0
C1053 C 0.6281 0.77458 0.2454 0.0
C1054 C 0.62755 0.79507 0.24763 0.0
C1055 C 0.62824 0.85577 0.25054 0.0
C1056 C 0.62769 0.83469 0.24999 0.0
H1057 H 0.59411 0.72039 0.24149 0.0
H1058 H 0.59303 0.75391 0.24601 0.0
H1059 H 0.65357 0.80983 0.28895 0.0
H1060 H 0.66459 0.90942 0.25366 0.0
H1061 H 0.66349 0.87491 0.25138 0.0
C1062 C 0.87626 0.6091 0.73796 0.0
C1063 C 0.8818 0.60397 0.7731 0.0
C1064 C 0.85886 0.61319 0.73515 0.0
C1065 C 0.80911 0.60294 0.78882 0.0
H1066 H 0.80344 0.63603 0.70701 0.0
C1067 C 0.73248 0.61145 0.76932 0.0
C1068 C 0.72218 0.60272 0.73457 0.0
C1069 C 0.75396 0.61611 0.77548 0.0
C1070 C 0.80494 0.6269 0.73016 0.0
H1071 H 0.87476 0.60064 0.83318 0.0
H1072 H 0.84546 0.60916 0.8289 0.0
H1073 H 0.83801 0.63659 0.71632 0.0
H1074 H 0.72658 0.59326 0.67832 0.0
H1075 H 0.7643 0.60203 0.68878 0.0
H1076 H 0.77607 0.59354 0.80276 0.0
C1077 C 0.85362 0.60897 0.80306 0.0
C1078 C 0.82465 0.62701 0.73534 0.0
C1079 C 0.87058 0.60429 0.80566 0.0
C1080 C 0.7341 0.59988 0.70544 0.0
C1081 C 0.75569 0.60501 0.71131 0.0
C1082 C 0.78964 0.60324 0.78413 0.0
C1083 C 0.84698 0.61275 0.7676 0.0
C1084 C 0.82688 0.61463 0.76426 0.0
C1085 C 0.76562 0.61264 0.74666 0.0
C1086 C 0.78723 0.61485 0.75433 0.0
H1087 H 0.8846 0.60879 0.7124 0.0
H1088 H 0.85419 0.61573 0.70724 0.0
H1089 H 0.8098 0.59277 0.81086 0.0
H1090 H 0.72362 0.61369 0.7923 0.0
H1091 H 0.76132 0.62196 0.803 0.0
C1092 C 0.26622 0.87617 0.25497 0.0
C1093 C 0.26559 0.89552 0.25305 0.0
C1094 C 0.24697 0.85642 0.25773 0.0
C1095 C 0.18894 0.83196 0.2843 0.0
H1096 H 0.18217 0.78441 0.22183 0.0
C1097 C 0.10591 0.75521 0.26475 0.0
C1098 C 0.10541 0.73529 0.26425 0.0
C1099 C 0.12571 0.77447 0.26429 0.0
C1100 C 0.18389 0.79743 0.23984 0.0
H1101 H 0.24407 0.90914 0.25284 0.0
H1102 H 0.2106 0.87471 0.25754 0.0
H1103 H 0.21627 0.81852 0.22 0.0
H1104 H 0.12554 0.72015 0.26289 0.0
H1105 H 0.16009 0.7538 0.26245 0.0
H1106 H 0.15659 0.81093 0.30411 0.0
C1107 C 0.22601 0.87486 0.25727 0.0
C1108 C 0.20344 0.81698 0.23878 0.0
C1109 C 0.24523 0.89461 0.2544 0.0
C1110 C 0.12527 0.73516 0.26317 0.0
C1111 C 0.1451 0.75447 0.26274 0.0
C1112 C 0.16942 0.81241 0.28542 0.0
C1113 C 0.22665 0.85553 0.25877 0.0
C1114 C 0.20614 0.83452 0.26081 0.0
C1115 C 0.14556 0.77436 0.26339 0.0
C1116 C 0.1666 0.79494 0.26301 0.0
H1117 H 0.28157 0.87622 0.25407 0.0
H1118 H 0.24802 0.84183 0.25928 0.0
H1119 H 0.19063 0.84505 0.30208 0.0
H1120 H 0.09098 0.75599 0.26551 0.0
H1121 H 0.12545 0.78949 0.2642 0.0
C1122 C 0.38657 0.2625 0.7433 0.0
C1123 C 0.36673 0.26264 0.74129 0.0
C1124 C 0.38683 0.24311 0.74546 0.0
C1125 C 0.35282 0.18571 0.77025 0.0
H1126 H 0.39456 0.17873 0.7091 0.0
C1127 C 0.3492 0.10364 0.7538 0.0
C1128 C 0.36905 0.10347 0.75422 0.0
C1129 C 0.34894 0.12304 0.75221 0.0
C1130 C 0.38297 0.18049 0.7267 0.0
H1131 H 0.33156 0.24229 0.7403 0.0
H1132 H 0.33208 0.20851 0.74396 0.0
H1133 H 0.39407 0.21257 0.707 0.0
H1134 H 0.40422 0.12377 0.75326 0.0
H1135 H 0.40372 0.15756 0.7509 0.0
H1136 H 0.34176 0.15366 0.79006 0.0
C1137 C 0.34743 0.22346 0.7442 0.0
C1138 C 0.38269 0.19989 0.72549 0.0
C1139 C 0.34715 0.24286 0.74194 0.0
C1140 C 0.38862 0.12323 0.75283 0.0
C1141 C 0.38834 0.14264 0.75128 0.0
C1142 C 0.35314 0.16632 0.77153 0.0
C1143 C 0.36727 0.22336 0.74575 0.0
C1144 C 0.36761 0.20273 0.74723 0.0
C1145 C 0.3685 0.14279 0.75105 0.0
C1146 C 0.3682 0.16345 0.74974 0.0
H1147 H 0.40198 0.27738 0.74298 0.0
H1148 H 0.40239 0.24361 0.74715 0.0
H1149 H 0.34121 0.18748 0.78775 0.0
H1150 H 0.33379 0.08877 0.75478 0.0
H1151 H 0.33336 0.12255 0.75152 0.0
loop_
_geom_bond_atom_site_label_1
_geom_bond_atom_site_label_2
_geom_bond_distance
_geom_bond_site_symmetry_2
_ccdc_geom_bond_type
Mn0 O5 2.095 . S
Mn0 O15 2.162 . S
Mn0 O16 2.297 . S
Mn0 O24 2.385 . S
Mn0 O25 2.209 . S
Mn0 O26 2.094 . S
Mn1 O6 2.121 . S
Mn1 N8 2.257 . S
Mn1 N17 2.282 . S
Mn1 O25 2.215 . S
Mn1 O27 2.117 . S
C2 O24 1.234 . S
C2 O25 1.283 . S
C3 O15 1.281 . S
C3 O16 1.236 . S
C4 O26 1.240 . S
C4 O27 1.264 . S
O5 Mn0 2.095 . S
O5 C14 1.250 . S
O6 Mn1 2.121 . S
O6 C14 1.258 . S
C7 N8 1.326 . S
C7 C11 1.460 . S
C7 H13 0.929 . S
N8 Mn1 2.257 . S
N8 C7 1.326 . S
N8 C12 1.362 . S
C9 C10 1.258 . S
C9 C12 1.431 . S
C9 C29 1.449 . S
C10 C9 1.258 . S
C10 C11 1.477 . S
C10 H30 0.931 . S
C11 C7 1.460 . S
C11 C10 1.477 . S
C11 H31 0.930 . S
C12 N8 1.362 . S
C12 C9 1.431 . S
C12 C22 1.476 . S
H13 C7 0.929 . S
C14 O5 1.250 . S
C14 O6 1.258 . S
O15 Mn0 2.162 . S
O15 C3 1.281 . S
O16 Mn0 2.297 . S
O16 C3 1.236 . S
N17 Mn1 2.282 . S
N17 C18 1.328 . S
N17 C22 1.318 . S
C18 N17 1.328 . S
C18 C19 1.457 . S
C18 H23 0.929 . S
C19 C18 1.457 . S
C19 C20 1.291 . S
C19 H32 0.931 . S
C20 C19 1.291 . S
C20 C21 1.373 . S
C20 H33 0.929 . S
C21 C20 1.373 . S
C21 C22 1.396 . S
C21 C28 1.403 . S
C22 C12 1.476 . S
C22 N17 1.318 . S
C22 C21 1.396 . S
H23 C18 0.929 . S
O24 Mn0 2.385 . S
O24 C2 1.234 . S
O25 Mn0 2.209 . S
O25 Mn1 2.215 . S
O25 C2 1.283 . S
O26 Mn0 2.094 . S
O26 C4 1.240 . S
O27 Mn1 2.117 . S
O27 C4 1.264 . S
C28 C21 1.403 . S
C28 C29 1.399 . S
C28 H34 0.929 . S
C29 C9 1.449 . S
C29 C28 1.399 . S
C29 H35 0.930 . S
H30 C10 0.931 . S
H31 C11 0.930 . S
H32 C19 0.931 . S
H33 C20 0.929 . S
H34 C28 0.929 . S
H35 C29 0.930 . S
Mn36 O41 2.095 . S
Mn36 O51 2.162 . S
Mn36 O52 2.297 . S
Mn36 O60 2.385 . S
Mn36 O61 2.209 . S
Mn36 O62 2.094 . S
Mn37 O42 2.121 . S
Mn37 N44 2.257 . S
Mn37 N53 2.282 . S
Mn37 O61 2.215 . S
Mn37 O63 2.117 . S
C38 O60 1.234 . S
C38 O61 1.283 . S
C39 O51 1.281 . S
C39 O52 1.236 . S
C40 O62 1.240 . S
C40 O63 1.264 . S
O41 Mn36 2.095 . S
O41 C50 1.250 . S
O42 Mn37 2.121 . S
O42 C50 1.258 . S
C43 N44 1.326 1_565 S
C43 C47 1.460 . S
C43 H49 0.929 . S
N44 Mn37 2.257 . S
N44 C43 1.326 1_545 S
N44 C48 1.362 . S
C45 C46 1.258 . S
C45 C48 1.431 1_565 S
C45 C65 1.449 . S
C46 C45 1.258 . S
C46 C47 1.477 . S
C46 H66 0.931 . S
C47 C43 1.460 . S
C47 C46 1.477 . S
C47 H67 0.930 . S
C48 N44 1.362 . S
C48 C45 1.431 1_545 S
C48 C58 1.476 . S
H49 C43 0.929 . S
C50 O41 1.250 . S
C50 O42 1.258 . S
O51 Mn36 2.162 . S
O51 C39 1.281 . S
O52 Mn36 2.297 . S
O52 C39 1.236 . S
N53 Mn37 2.282 . S
N53 C54 1.328 . S
N53 C58 1.318 . S
C54 N53 1.328 . S
C54 C55 1.457 . S
C54 H59 0.929 . S
C55 C54 1.457 . S
C55 C56 1.291 . S
C55 H68 0.931 . S
C56 C55 1.291 . S
C56 C57 1.373 . S
C56 H69 0.929 . S
C57 C56 1.373 . S
C57 C58 1.396 . S
C57 C64 1.403 . S
C58 C48 1.476 . S
C58 N53 1.318 . S
C58 C57 1.396 . S
H59 C54 0.929 . S
O60 Mn36 2.385 . S
O60 C38 1.234 . S
O61 Mn36 2.209 . S
O61 Mn37 2.215 . S
O61 C38 1.283 . S
O62 Mn36 2.094 . S
O62 C40 1.240 . S
O63 Mn37 2.117 . S
O63 C40 1.264 . S
C64 C57 1.403 . S
C64 C65 1.399 1_545 S
C64 H70 0.942 . S
C65 C45 1.449 . S
C65 C64 1.399 1_565 S
C65 H71 0.930 . S
H66 C46 0.931 . S
H67 C47 0.930 . S
H68 C55 0.931 . S
H69 C56 0.929 . S
H70 C64 0.942 . S
H71 C65 0.930 . S
Mn72 O77 2.095 . S
Mn72 O87 2.162 . S
Mn72 O88 2.297 . S
Mn72 O96 2.385 . S
Mn72 O97 2.209 . S
Mn72 O98 2.094 . S
Mn73 O78 2.121 . S
Mn73 N80 2.257 . S
Mn73 N89 2.282 . S
Mn73 O97 2.215 . S
Mn73 O99 2.117 . S
C74 O96 1.234 . S
C74 O97 1.283 . S
C75 O87 1.281 . S
C75 O88 1.236 . S
C76 O98 1.240 . S
C76 O99 1.264 . S
O77 Mn72 2.095 . S
O77 C86 1.250 . S
O78 Mn73 2.121 . S
O78 C86 1.258 . S
C79 N80 1.326 . S
C79 C83 1.460 . S
C79 H85 0.929 . S
N80 Mn73 2.257 . S
N80 C79 1.326 . S
N80 C84 1.362 . S
C81 C82 1.258 . S
C81 C84 1.431 . S
C81 C101 1.449 . S
C82 C81 1.258 . S
C82 C83 1.477 . S
C82 H102 0.931 . S
C83 C79 1.460 . S
C83 C82 1.477 . S
C83 H103 0.930 . S
C84 N80 1.362 . S
C84 C81 1.431 . S
C84 C94 1.476 . S
H85 C79 0.929 . S
C86 O77 1.250 . S
C86 O78 1.258 . S
O87 Mn72 2.162 . S
O87 C75 1.281 . S
O88 Mn72 2.297 . S
O88 C75 1.236 . S
N89 Mn73 2.282 . S
N89 C90 1.328 . S
N89 C94 1.318 . S
C90 N89 1.328 . S
C90 C91 1.457 . S
C90 H95 0.929 . S
C91 C90 1.457 . S
C91 C92 1.291 . S
C91 H104 0.931 . S
C92 C91 1.291 . S
C92 C93 1.373 . S
C92 H105 0.929 . S
C93 C92 1.373 . S
C93 C94 1.396 . S
C93 C100 1.403 . S
C94 C84 1.476 . S
C94 N89 1.318 . S
C94 C93 1.396 . S
H95 C90 0.929 . S
O96 Mn72 2.385 . S
O96 C74 1.234 . S
O97 Mn72 2.209 . S
O97 Mn73 2.215 . S
O97 C74 1.283 . S
O98 Mn72 2.094 . S
O98 C76 1.240 . S
O99 Mn73 2.117 . S
O99 C76 1.264 . S
C100 C93 1.403 . S
C100 C101 1.399 . S
C100 H106 0.929 . S
C101 C81 1.449 . S
C101 C100 1.399 . S
C101 H107 0.930 . S
H102 C82 0.931 . S
H103 C83 0.930 . S
H104 C91 0.931 . S
H105 C92 0.929 . S
H106 C100 0.929 . S
H107 C101 0.930 . S
Mn108 O113 2.095 . S
Mn108 O123 2.162 . S
Mn108 O124 2.297 . S
Mn108 O132 2.385 . S
Mn108 O133 2.209 . S
Mn108 O134 2.094 . S
Mn109 O114 2.121 . S
Mn109 N116 2.257 . S
Mn109 N125 2.282 . S
Mn109 O133 2.215 . S
Mn109 O135 2.117 . S
C110 O132 1.234 . S
C110 O133 1.283 . S
C111 O123 1.281 . S
C111 O124 1.236 . S
C112 O134 1.240 . S
C112 O135 1.264 . S
O113 Mn108 2.095 . S
O113 C122 1.250 . S
O114 Mn109 2.121 . S
O114 C122 1.258 . S
C115 N116 1.326 . S
C115 C119 1.460 . S
C115 H121 0.929 . S
N116 Mn109 2.257 . S
N116 C115 1.326 . S
N116 C120 1.362 . S
C117 C118 1.258 . S
C117 C120 1.431 . S
C117 C137 1.449 . S
C118 C117 1.258 . S
C118 C119 1.477 . S
C118 H138 0.931 . S
C119 C115 1.460 . S
C119 C118 1.477 . S
C119 H139 0.930 . S
C120 N116 1.362 . S
C120 C117 1.431 . S
C120 C130 1.476 . S
H121 C115 0.929 . S
C122 O113 1.250 . S
C122 O114 1.258 . S
O123 Mn108 2.162 . S
O123 C111 1.281 . S
O124 Mn108 2.297 . S
O124 C111 1.236 . S
N125 Mn109 2.282 . S
N125 C126 1.328 . S
N125 C130 1.318 . S
C126 N125 1.328 . S
C126 C127 1.457 . S
C126 H131 0.929 . S
C127 C126 1.457 . S
C127 C128 1.291 . S
C127 H140 0.931 . S
C128 C127 1.291 . S
C128 C129 1.373 . S
C128 H141 0.929 . S
C129 C128 1.373 . S
C129 C130 1.396 . S
C129 C136 1.403 . S
C130 C120 1.476 . S
C130 N125 1.318 . S
C130 C129 1.396 . S
H131 C126 0.929 . S
O132 Mn108 2.385 . S
O132 C110 1.234 . S
O133 Mn108 2.209 . S
O133 Mn109 2.215 . S
O133 C110 1.283 . S
O134 Mn108 2.094 . S
O134 C112 1.240 . S
O135 Mn109 2.117 . S
O135 C112 1.264 . S
C136 C129 1.403 . S
C136 C137 1.399 . S
C136 H142 0.929 . S
C137 C117 1.449 . S
C137 C136 1.399 . S
C137 H143 0.930 . S
H138 C118 0.931 . S
H139 C119 0.930 . S
H140 C127 0.931 . S
H141 C128 0.929 . S
H142 C136 0.929 . S
H143 C137 0.930 . S
Mn144 O149 2.095 . S
Mn144 O159 2.162 . S
Mn144 O160 2.297 . S
Mn144 O168 2.385 . S
Mn144 O169 2.209 . S
Mn144 O170 2.094 . S
Mn145 O150 2.121 . S
Mn145 N152 2.257 . S
Mn145 N161 2.282 . S
Mn145 O169 2.215 . S
Mn145 O171 2.117 . S
C146 O168 1.234 . S
C146 O169 1.283 . S
C147 O159 1.281 . S
C147 O160 1.236 . S
C148 O170 1.240 . S
C148 O171 1.264 . S
O149 Mn144 2.095 . S
O149 C158 1.250 . S
O150 Mn145 2.121 . S
O150 C158 1.258 . S
C151 N152 1.326 1_545 S
C151 C155 1.460 . S
C151 H157 0.929 . S
N152 Mn145 2.257 . S
N152 C151 1.326 1_565 S
N152 C156 1.362 . S
C153 C154 1.258 . S
C153 C156 1.431 1_545 S
C153 C173 1.449 . S
C154 C153 1.258 . S
C154 C155 1.477 . S
C154 H174 0.931 . S
C155 C151 1.460 . S
C155 C154 1.477 . S
C155 H175 0.930 . S
C156 N152 1.362 . S
C156 C153 1.431 1_565 S
C156 C166 1.476 . S
H157 C151 0.929 . S
C158 O149 1.250 . S
C158 O150 1.258 . S
O159 Mn144 2.162 . S
O159 C147 1.281 . S
O160 Mn144 2.297 . S
O160 C147 1.236 . S
N161 Mn145 2.282 . S
N161 C162 1.328 . S
N161 C166 1.318 . S
C162 N161 1.328 . S
C162 C163 1.457 . S
C162 H167 0.929 . S
C163 C162 1.457 . S
C163 C164 1.291 . S
C163 H176 0.931 . S
C164 C163 1.291 . S
C164 C165 1.373 . S
C164 H177 0.929 . S
C165 C164 1.373 . S
C165 C166 1.396 . S
C165 C172 1.403 . S
C166 C156 1.476 . S
C166 N161 1.318 . S
C166 C165 1.396 . S
H167 C162 0.929 . S
O168 Mn144 2.385 . S
O168 C146 1.234 . S
O169 Mn144 2.209 . S
O169 Mn145 2.215 . S
O169 C146 1.283 . S
O170 Mn144 2.094 . S
O170 C148 1.240 . S
O171 Mn145 2.117 . S
O171 C148 1.264 . S
C172 C165 1.403 . S
C172 C173 1.399 1_565 S
C172 H178 0.942 . S
C173 C153 1.449 . S
C173 C172 1.399 1_545 S
C173 H179 0.930 . S
H174 C154 0.931 . S
H175 C155 0.930 . S
H176 C163 0.931 . S
H177 C164 0.929 . S
H178 C172 0.942 . S
H179 C173 0.930 . S
Mn180 O185 2.095 . S
Mn180 O195 2.162 . S
Mn180 O196 2.297 . S
Mn180 O204 2.385 . S
Mn180 O205 2.209 . S
Mn180 O206 2.094 . S
Mn181 O186 2.121 . S
Mn181 N188 2.257 . S
Mn181 N197 2.282 . S
Mn181 O205 2.215 . S
Mn181 O207 2.117 . S
C182 O204 1.234 . S
C182 O205 1.283 . S
C183 O195 1.281 . S
C183 O196 1.236 . S
C184 O206 1.240 . S
C184 O207 1.264 . S
O185 Mn180 2.095 . S
O185 C194 1.250 . S
O186 Mn181 2.121 . S
O186 C194 1.258 . S
C187 N188 1.326 . S
C187 C191 1.460 . S
C187 H193 0.929 . S
N188 Mn181 2.257 . S
N188 C187 1.326 . S
N188 C192 1.362 . S
C189 C190 1.258 . S
C189 C192 1.431 . S
C189 C209 1.449 . S
C190 C189 1.258 . S
C190 C191 1.477 . S
C190 H210 0.931 . S
C191 C187 1.460 . S
C191 C190 1.477 . S
C191 H211 0.930 . S
C192 N188 1.362 . S
C192 C189 1.431 . S
C192 C202 1.476 . S
H193 C187 0.929 . S
C194 O185 1.250 . S
C194 O186 1.258 . S
O195 Mn180 2.162 . S
O195 C183 1.281 . S
O196 Mn180 2.297 . S
O196 C183 1.236 . S
N197 Mn181 2.282 . S
N197 C198 1.328 . S
N197 C202 1.318 . S
C198 N197 1.328 . S
C198 C199 1.457 . S
C198 H203 0.929 . S
C199 C198 1.457 . S
C199 C200 1.291 . S
C199 H212 0.931 . S
C200 C199 1.291 . S
C200 C201 1.373 . S
C200 H213 0.929 . S
C201 C200 1.373 . S
C201 C202 1.396 . S
C201 C208 1.403 . S
C202 C192 1.476 . S
C202 N197 1.318 . S
C202 C201 1.396 . S
H203 C198 0.929 . S
O204 Mn180 2.385 . S
O204 C182 1.234 . S
O205 Mn180 2.209 . S
O205 Mn181 2.215 . S
O205 C182 1.283 . S
O206 Mn180 2.094 . S
O206 C184 1.240 . S
O207 Mn181 2.117 . S
O207 C184 1.264 . S
C208 C201 1.403 . S
C208 C209 1.399 . S
C208 H214 0.929 . S
C209 C189 1.449 . S
C209 C208 1.399 . S
C209 H215 0.930 . S
H210 C190 0.931 . S
H211 C191 0.930 . S
H212 C199 0.931 . S
H213 C200 0.929 . S
H214 C208 0.929 . S
H215 C209 0.930 . S
Mn216 O221 2.095 . S
Mn216 O231 2.162 . S
Mn216 O232 2.297 . S
Mn216 O240 2.385 . S
Mn216 O241 2.209 . S
Mn216 O242 2.094 . S
Mn217 O222 2.121 . S
Mn217 N224 2.257 . S
Mn217 N233 2.282 . S
Mn217 O241 2.215 . S
Mn217 O243 2.117 . S
C218 O240 1.234 . S
C218 O241 1.283 . S
C219 O231 1.281 . S
C219 O232 1.236 . S
C220 O242 1.240 . S
C220 O243 1.264 . S
O221 Mn216 2.095 . S
O221 C230 1.250 . S
O222 Mn217 2.121 . S
O222 C230 1.258 . S
C223 N224 1.326 1_545 S
C223 C227 1.460 . S
C223 H229 0.929 . S
N224 Mn217 2.257 . S
N224 C223 1.326 1_565 S
N224 C228 1.362 . S
C225 C226 1.258 . S
C225 C228 1.431 1_545 S
C225 C245 1.449 . S
C226 C225 1.258 . S
C226 C227 1.477 . S
C226 H246 0.931 . S
C227 C223 1.460 . S
C227 C226 1.477 . S
C227 H247 0.930 . S
C228 N224 1.362 . S
C228 C225 1.431 1_565 S
C228 C238 1.476 . S
H229 C223 0.929 . S
C230 O221 1.250 . S
C230 O222 1.258 . S
O231 Mn216 2.162 . S
O231 C219 1.281 . S
O232 Mn216 2.297 . S
O232 C219 1.236 . S
N233 Mn217 2.282 . S
N233 C234 1.328 . S
N233 C238 1.318 . S
C234 N233 1.328 . S
C234 C235 1.457 . S
C234 H239 0.929 . S
C235 C234 1.457 . S
C235 C236 1.291 . S
C235 H248 0.931 . S
C236 C235 1.291 . S
C236 C237 1.373 . S
C236 H249 0.929 . S
C237 C236 1.373 . S
C237 C238 1.396 . S
C237 C244 1.403 . S
C238 C228 1.476 . S
C238 N233 1.318 . S
C238 C237 1.396 . S
H239 C234 0.929 . S
O240 Mn216 2.385 . S
O240 C218 1.234 . S
O241 Mn216 2.209 . S
O241 Mn217 2.215 . S
O241 C218 1.283 . S
O242 Mn216 2.094 . S
O242 C220 1.240 . S
O243 Mn217 2.117 . S
O243 C220 1.264 . S
C244 C237 1.403 . S
C244 C245 1.399 1_565 S
C244 H250 0.922 . S
C245 C225 1.449 . S
C245 C244 1.399 1_545 S
C245 H251 0.930 . S
H246 C226 0.931 . S
H247 C227 0.930 . S
H248 C235 0.931 . S
H249 C236 0.929 . S
H250 C244 0.922 . S
H251 C245 0.930 . S
Mn252 O257 2.095 . S
Mn252 O267 2.162 . S
Mn252 O268 2.297 . S
Mn252 O276 2.385 . S
Mn252 O277 2.209 . S
Mn252 O278 2.094 . S
Mn253 O258 2.121 . S
Mn253 N260 2.257 . S
Mn253 N269 2.282 . S
Mn253 O277 2.215 . S
Mn253 O279 2.117 . S
C254 O276 1.234 . S
C254 O277 1.283 . S
C255 O267 1.281 . S
C255 O268 1.236 . S
C256 O278 1.240 . S
C256 O279 1.264 . S
O257 Mn252 2.095 . S
O257 C266 1.250 . S
O258 Mn253 2.121 . S
O258 C266 1.258 . S
C259 N260 1.326 . S
C259 C263 1.460 . S
C259 H265 0.929 . S
N260 Mn253 2.257 . S
N260 C259 1.326 . S
N260 C264 1.362 . S
C261 C262 1.258 . S
C261 C264 1.431 . S
C261 C281 1.449 . S
C262 C261 1.258 . S
C262 C263 1.477 . S
C262 H282 0.931 . S
C263 C259 1.460 . S
C263 C262 1.477 . S
C263 H283 0.930 . S
C264 N260 1.362 . S
C264 C261 1.431 . S
C264 C274 1.476 . S
H265 C259 0.929 . S
C266 O257 1.250 . S
C266 O258 1.258 . S
O267 Mn252 2.162 . S
O267 C255 1.281 . S
O268 Mn252 2.297 . S
O268 C255 1.236 . S
N269 Mn253 2.282 . S
N269 C270 1.328 . S
N269 C274 1.318 . S
C270 N269 1.328 . S
C270 C271 1.457 . S
C270 H275 0.929 . S
C271 C270 1.457 . S
C271 C272 1.291 . S
C271 H284 0.931 . S
C272 C271 1.291 . S
C272 C273 1.373 . S
C272 H285 0.929 . S
C273 C272 1.373 . S
C273 C274 1.396 . S
C273 C280 1.403 . S
C274 C264 1.476 . S
C274 N269 1.318 . S
C274 C273 1.396 . S
H275 C270 0.929 . S
O276 Mn252 2.385 . S
O276 C254 1.234 . S
O277 Mn252 2.209 . S
O277 Mn253 2.215 . S
O277 C254 1.283 . S
O278 Mn252 2.094 . S
O278 C256 1.240 . S
O279 Mn253 2.117 . S
O279 C256 1.264 . S
C280 C273 1.403 . S
C280 C281 1.399 . S
C280 H286 0.929 . S
C281 C261 1.449 . S
C281 C280 1.399 . S
C281 H287 0.930 . S
H282 C262 0.931 . S
H283 C263 0.930 . S
H284 C271 0.931 . S
H285 C272 0.929 . S
H286 C280 0.929 . S
H287 C281 0.930 . S
Mn288 O293 2.095 . S
Mn288 O303 2.162 . S
Mn288 O304 2.297 . S
Mn288 O312 2.385 . S
Mn288 O313 2.209 . S
Mn288 O314 2.094 . S
Mn289 O294 2.121 . S
Mn289 N296 2.257 . S
Mn289 N305 2.282 . S
Mn289 O313 2.215 . S
Mn289 O315 2.117 . S
C290 O312 1.234 . S
C290 O313 1.283 . S
C291 O303 1.281 . S
C291 O304 1.236 . S
C292 O314 1.240 . S
C292 O315 1.264 . S
O293 Mn288 2.095 . S
O293 C302 1.250 . S
O294 Mn289 2.121 . S
O294 C302 1.258 . S
C295 N296 1.326 1_655 S
C295 C299 1.460 . S
C295 H301 0.929 . S
N296 Mn289 2.257 . S
N296 C295 1.326 1_455 S
N296 C300 1.362 . S
C297 C298 1.258 . S
C297 C300 1.431 1_655 S
C297 C317 1.449 . S
C298 C297 1.258 . S
C298 C299 1.477 . S
C298 H318 0.931 . S
C299 C295 1.460 . S
C299 C298 1.477 . S
C299 H319 0.930 . S
C300 N296 1.362 . S
C300 C297 1.431 1_455 S
C300 C310 1.476 . S
H301 C295 0.929 . S
C302 O293 1.250 . S
C302 O294 1.258 . S
O303 Mn288 2.162 . S
O303 C291 1.281 . S
O304 Mn288 2.297 . S
O304 C291 1.236 . S
N305 Mn289 2.282 . S
N305 C306 1.328 . S
N305 C310 1.318 . S
C306 N305 1.328 . S
C306 C307 1.457 . S
C306 H311 0.929 . S
C307 C306 1.457 . S
C307 C308 1.291 . S
C307 H320 0.931 . S
C308 C307 1.291 . S
C308 C309 1.373 . S
C308 H321 0.929 . S
C309 C308 1.373 . S
C309 C310 1.396 . S
C309 C316 1.403 . S
C310 C300 1.476 . S
C310 N305 1.318 . S
C310 C309 1.396 . S
H311 C306 0.929 . S
O312 Mn288 2.385 . S
O312 C290 1.234 . S
O313 Mn288 2.209 . S
O313 Mn289 2.215 . S
O313 C290 1.283 . S
O314 Mn288 2.094 . S
O314 C292 1.240 . S
O315 Mn289 2.117 . S
O315 C292 1.264 . S
C316 C309 1.403 . S
C316 C317 1.399 1_455 S
C316 H322 0.935 . S
C317 C297 1.449 . S
C317 C316 1.399 1_655 S
C317 H323 0.930 . S
H318 C298 0.931 . S
H319 C299 0.930 . S
H320 C307 0.931 . S
H321 C308 0.929 . S
H322 C316 0.935 . S
H323 C317 0.930 . S
Mn324 O329 2.095 . S
Mn324 O339 2.162 . S
Mn324 O340 2.297 . S
Mn324 O348 2.385 . S
Mn324 O349 2.209 . S
Mn324 O350 2.094 . S
Mn325 O330 2.121 . S
Mn325 N332 2.257 . S
Mn325 N341 2.282 . S
Mn325 O349 2.215 . S
Mn325 O351 2.117 . S
C326 O348 1.234 . S
C326 O349 1.283 . S
C327 O339 1.281 . S
C327 O340 1.236 . S
C328 O350 1.240 . S
C328 O351 1.264 . S
O329 Mn324 2.095 . S
O329 C338 1.250 . S
O330 Mn325 2.121 . S
O330 C338 1.258 . S
C331 N332 1.326 1_565 S
C331 C335 1.460 . S
C331 H337 0.929 . S
N332 Mn325 2.257 . S
N332 C331 1.326 1_545 S
N332 C336 1.362 . S
C333 C334 1.258 . S
C333 C336 1.431 1_565 S
C333 C353 1.449 . S
C334 C333 1.258 . S
C334 C335 1.477 . S
C334 H354 0.931 . S
C335 C331 1.460 . S
C335 C334 1.477 . S
C335 H355 0.930 . S
C336 N332 1.362 . S
C336 C333 1.431 1_545 S
C336 C346 1.476 . S
H337 C331 0.929 . S
C338 O329 1.250 . S
C338 O330 1.258 . S
O339 Mn324 2.162 . S
O339 C327 1.281 . S
O340 Mn324 2.297 . S
O340 C327 1.236 . S
N341 Mn325 2.282 . S
N341 C342 1.328 . S
N341 C346 1.318 . S
C342 N341 1.328 . S
C342 C343 1.457 . S
C342 H347 0.929 . S
C343 C342 1.457 . S
C343 C344 1.291 . S
C343 H356 0.931 . S
C344 C343 1.291 . S
C344 C345 1.373 . S
C344 H357 0.929 . S
C345 C344 1.373 . S
C345 C346 1.396 . S
C345 C352 1.403 . S
C346 C336 1.476 . S
C346 N341 1.318 . S
C346 C345 1.396 . S
H347 C342 0.929 . S
O348 Mn324 2.385 . S
O348 C326 1.234 . S
O349 Mn324 2.209 . S
O349 Mn325 2.215 . S
O349 C326 1.283 . S
O350 Mn324 2.094 . S
O350 C328 1.240 . S
O351 Mn325 2.117 . S
O351 C328 1.264 . S
C352 C345 1.403 . S
C352 C353 1.399 1_545 S
C352 H358 0.922 . S
C353 C333 1.449 . S
C353 C352 1.399 1_565 S
C353 H359 0.930 . S
H354 C334 0.931 . S
H355 C335 0.930 . S
H356 C343 0.931 . S
H357 C344 0.929 . S
H358 C352 0.922 . S
H359 C353 0.930 . S
Mn360 O365 2.095 . S
Mn360 O375 2.162 . S
Mn360 O376 2.297 . S
Mn360 O384 2.385 . S
Mn360 O385 2.209 . S
Mn360 O386 2.094 . S
Mn361 O366 2.121 . S
Mn361 N368 2.257 . S
Mn361 N377 2.282 . S
Mn361 O385 2.215 . S
Mn361 O387 2.117 . S
C362 O384 1.234 . S
C362 O385 1.283 . S
C363 O375 1.281 . S
C363 O376 1.236 . S
C364 O386 1.240 . S
C364 O387 1.264 . S
O365 Mn360 2.095 . S
O365 C374 1.250 . S
O366 Mn361 2.121 . S
O366 C374 1.258 . S
C367 N368 1.326 . S
C367 C371 1.460 . S
C367 H373 0.929 . S
N368 Mn361 2.257 . S
N368 C367 1.326 . S
N368 C372 1.362 . S
C369 C370 1.258 . S
C369 C372 1.431 . S
C369 C389 1.449 . S
C370 C369 1.258 . S
C370 C371 1.477 . S
C370 H390 0.931 . S
C371 C367 1.460 . S
C371 C370 1.477 . S
C371 H391 0.930 . S
C372 N368 1.362 . S
C372 C369 1.431 . S
C372 C382 1.476 . S
H373 C367 0.929 . S
C374 O365 1.250 . S
C374 O366 1.258 . S
O375 Mn360 2.162 . S
O375 C363 1.281 . S
O376 Mn360 2.297 . S
O376 C363 1.236 . S
N377 Mn361 2.282 . S
N377 C378 1.328 . S
N377 C382 1.318 . S
C378 N377 1.328 . S
C378 C379 1.457 . S
C378 H383 0.929 . S
C379 C378 1.457 . S
C379 C380 1.291 . S
C379 H392 0.931 . S
C380 C379 1.291 . S
C380 C381 1.373 . S
C380 H393 0.929 . S
C381 C380 1.373 . S
C381 C382 1.396 . S
C381 C388 1.403 . S
C382 C372 1.476 . S
C382 N377 1.318 . S
C382 C381 1.396 . S
H383 C378 0.929 . S
O384 Mn360 2.385 . S
O384 C362 1.234 . S
O385 Mn360 2.209 . S
O385 Mn361 2.215 . S
O385 C362 1.283 . S
O386 Mn360 2.094 . S
O386 C364 1.240 . S
O387 Mn361 2.117 . S
O387 C364 1.264 . S
C388 C381 1.403 . S
C388 C389 1.399 . S
C388 H394 0.929 . S
C389 C369 1.449 . S
C389 C388 1.399 . S
C389 H395 0.930 . S
H390 C370 0.931 . S
H391 C371 0.930 . S
H392 C379 0.931 . S
H393 C380 0.929 . S
H394 C388 0.929 . S
H395 C389 0.930 . S
Mn396 O401 2.095 . S
Mn396 O411 2.162 . S
Mn396 O412 2.297 . S
Mn396 O420 2.385 . S
Mn396 O421 2.209 . S
Mn396 O422 2.094 . S
Mn397 O402 2.121 . S
Mn397 N404 2.257 . S
Mn397 N413 2.282 . S
Mn397 O421 2.215 . S
Mn397 O423 2.117 . S
C398 O420 1.234 . S
C398 O421 1.283 . S
C399 O411 1.281 . S
C399 O412 1.236 . S
C400 O422 1.240 . S
C400 O423 1.264 . S
O401 Mn396 2.095 . S
O401 C410 1.250 . S
O402 Mn397 2.121 . S
O402 C410 1.258 . S
C403 N404 1.326 1_455 S
C403 C407 1.460 . S
C403 H409 0.929 . S
N404 Mn397 2.257 . S
N404 C403 1.326 1_655 S
N404 C408 1.362 . S
C405 C406 1.258 . S
C405 C408 1.431 1_455 S
C405 C425 1.449 . S
C406 C405 1.258 . S
C406 C407 1.477 . S
C406 H426 0.931 . S
C407 C403 1.460 . S
C407 C406 1.477 . S
C407 H427 0.930 . S
C408 N404 1.362 . S
C408 C405 1.431 1_655 S
C408 C418 1.476 . S
H409 C403 0.929 . S
C410 O401 1.250 . S
C410 O402 1.258 . S
O411 Mn396 2.162 . S
O411 C399 1.281 . S
O412 Mn396 2.297 . S
O412 C399 1.236 . S
N413 Mn397 2.282 . S
N413 C414 1.328 . S
N413 C418 1.318 . S
C414 N413 1.328 . S
C414 C415 1.457 . S
C414 H419 0.929 . S
C415 C414 1.457 . S
C415 C416 1.291 . S
C415 H428 0.931 . S
C416 C415 1.291 . S
C416 C417 1.373 . S
C416 H429 0.929 . S
C417 C416 1.373 . S
C417 C418 1.396 . S
C417 C424 1.403 . S
C418 C408 1.476 . S
C418 N413 1.318 . S
C418 C417 1.396 . S
H419 C414 0.929 . S
O420 Mn396 2.385 . S
O420 C398 1.234 . S
O421 Mn396 2.209 . S
O421 Mn397 2.215 . S
O421 C398 1.283 . S
O422 Mn396 2.094 . S
O422 C400 1.240 . S
O423 Mn397 2.117 . S
O423 C400 1.264 . S
C424 C417 1.403 . S
C424 C425 1.399 1_655 S
C424 H430 0.935 . S
C425 C405 1.449 . S
C425 C424 1.399 1_455 S
C425 H431 0.930 . S
H426 C406 0.931 . S
H427 C407 0.930 . S
H428 C415 0.931 . S
H429 C416 0.929 . S
H430 C424 0.935 . S
H431 C425 0.930 . S
C432 C433 1.349 . S
C432 C434 1.327 . S
C432 H457 0.950 . S
C433 C432 1.349 . S
C433 C449 1.349 . S
C434 C432 1.327 . S
C434 C453 1.429 . S
C434 H458 0.950 . S
C435 C452 1.574 1_554 S
C435 C454 1.368 1_655 S
C435 H459 0.949 . S
H436 C440 0.949 . S
C437 C438 1.349 . S
C437 C439 1.327 . S
C437 H460 0.950 . S
C438 C437 1.349 . S
C438 C450 1.349 . S
C439 C437 1.327 . S
C439 C455 1.429 . S
C439 H461 0.950 . S
C440 H436 0.949 . S
C440 C448 1.574 . S
C440 C456 1.368 1_455 S
H441 C449 0.933 1_655 S
H442 C447 0.950 1_655 S
H443 C448 0.949 1_554 S
H444 C450 0.950 1_455 S
H445 C451 0.950 1_455 S
H446 C452 0.949 . S
C447 H442 0.950 1_455 S
C447 C449 1.327 . S
C447 C453 1.429 . S
C448 C440 1.574 . S
C448 H443 0.949 1_556 S
C448 C454 1.368 1_556 S
C449 C433 1.349 . S
C449 H441 0.933 1_455 S
C449 C447 1.327 . S
C450 C438 1.349 . S
C450 H444 0.950 1_655 S
C450 C451 1.327 . S
C451 H445 0.950 1_655 S
C451 C450 1.327 . S
C451 C455 1.429 . S
C452 C435 1.574 1_556 S
C452 H446 0.949 . S
C452 C456 1.368 . S
C453 C434 1.429 . S
C453 C447 1.429 . S
C453 C454 1.523 . S
C454 C435 1.368 1_455 S
C454 C448 1.368 1_554 S
C454 C453 1.523 . S
C455 C439 1.429 . S
C455 C451 1.429 . S
C455 C456 1.523 . S
C456 C440 1.368 1_655 S
C456 C452 1.368 . S
C456 C455 1.523 . S
H457 C432 0.950 . S
H458 C434 0.950 . S
H459 C435 0.949 . S
H460 C437 0.950 . S
H461 C439 0.950 . S
C462 C463 1.349 . S
C462 C464 1.327 . S
C462 H487 0.950 . S
C463 C462 1.349 . S
C463 C479 1.349 . S
C464 C462 1.327 . S
C464 C483 1.429 . S
C464 H488 0.950 1_565 S
C465 C482 1.574 . S
C465 C484 1.368 . S
C465 H489 0.949 . S
H466 C470 0.949 . S
C467 C468 1.349 . S
C467 C469 1.327 . S
C467 H490 0.950 . S
C468 C467 1.349 . S
C468 C480 1.349 . S
C469 C467 1.327 . S
C469 C485 1.429 . S
C469 H491 0.950 1_545 S
C470 H466 0.949 . S
C470 C478 1.574 . S
C470 C486 1.368 . S
H471 C479 0.950 . S
H472 C477 0.950 . S
H473 C478 0.949 . S
H474 C480 0.950 . S
H475 C481 0.950 . S
H476 C482 0.949 . S
C477 H472 0.950 . S
C477 C479 1.327 . S
C477 C483 1.429 . S
C478 C470 1.574 . S
C478 H473 0.949 . S
C478 C484 1.368 1_545 S
C479 C463 1.349 . S
C479 H471 0.950 . S
C479 C477 1.327 . S
C480 C468 1.349 . S
C480 H474 0.950 . S
C480 C481 1.327 . S
C481 H475 0.950 . S
C481 C480 1.327 . S
C481 C485 1.429 . S
C482 C465 1.574 . S
C482 H476 0.949 . S
C482 C486 1.368 1_565 S
C483 C464 1.429 . S
C483 C477 1.429 . S
C483 C484 1.523 . S
C484 C465 1.368 . S
C484 C478 1.368 1_565 S
C484 C483 1.523 . S
C485 C469 1.429 . S
C485 C481 1.429 . S
C485 C486 1.523 . S
C486 C470 1.368 . S
C486 C482 1.368 1_545 S
C486 C485 1.523 . S
H487 C462 0.950 . S
H488 C464 0.950 1_545 S
H489 C465 0.949 . S
H490 C467 0.950 . S
H491 C469 0.950 1_565 S
C492 C493 1.349 . S
C492 C494 1.327 . S
C492 H517 0.950 . S
C493 C492 1.349 . S
C493 C509 1.349 . S
C494 C492 1.327 . S
C494 C513 1.429 . S
C494 H518 0.950 . S
C495 C512 1.574 1_554 S
C495 C514 1.368 . S
C495 H519 0.949 . S
H496 C500 0.949 . S
C497 C498 1.349 . S
C497 C499 1.327 . S
C497 H520 0.950 . S
C498 C497 1.349 . S
C498 C510 1.349 . S
C499 C497 1.327 . S
C499 C515 1.429 . S
C499 H521 0.950 . S
C500 H496 0.949 . S
C500 C508 1.574 1_556 S
C500 C516 1.368 . S
H501 C509 0.950 . S
H502 C507 0.950 . S
H503 C508 0.949 . S
H504 C510 0.950 . S
H505 C511 0.950 . S
H506 C512 0.949 . S
C507 H502 0.950 . S
C507 C509 1.327 . S
C507 C513 1.429 . S
C508 C500 1.574 1_554 S
C508 H503 0.949 . S
C508 C514 1.368 . S
C509 C493 1.349 . S
C509 H501 0.950 . S
C509 C507 1.327 . S
C510 C498 1.349 . S
C510 H504 0.950 . S
C510 C511 1.327 . S
C511 H505 0.950 . S
C511 C510 1.327 . S
C511 C515 1.429 . S
C512 C495 1.574 1_556 S
C512 H506 0.949 . S
C512 C516 1.368 . S
C513 C494 1.429 . S
C513 C507 1.429 . S
C513 C514 1.523 . S
C514 C495 1.368 . S
C514 C508 1.368 . S
C514 C513 1.523 . S
C515 C499 1.429 . S
C515 C511 1.429 . S
C515 C516 1.523 . S
C516 C500 1.368 . S
C516 C512 1.368 . S
C516 C515 1.523 . S
H517 C492 0.950 . S
H518 C494 0.950 . S
H519 C495 0.949 . S
H520 C497 0.950 . S
H521 C499 0.950 . S
C522 C523 1.349 . S
C522 C524 1.327 . S
C522 H547 0.950 . S
C523 C522 1.349 . S
C523 C539 1.349 . S
C524 C522 1.327 . S
C524 C543 1.429 . S
C524 H548 0.950 . S
C525 C542 1.574 1_455 S
C525 C544 1.368 . S
C525 H549 0.949 . S
H526 C530 0.949 . S
C527 C528 1.349 . S
C527 C529 1.327 . S
C527 H550 0.950 . S
C528 C527 1.349 . S
C528 C540 1.349 . S
C529 C527 1.327 . S
C529 C545 1.429 . S
C529 H551 0.950 . S
C530 H526 0.949 . S
C530 C538 1.574 1_655 S
C530 C546 1.368 . S
H531 C539 0.950 . S
H532 C537 0.950 . S
H533 C538 0.949 . S
H534 C540 0.950 . S
H535 C541 0.950 . S
H536 C542 0.949 . S
C537 H532 0.950 . S
C537 C539 1.327 . S
C537 C543 1.429 . S
C538 C530 1.574 1_455 S
C538 H533 0.949 . S
C538 C544 1.368 . S
C539 C523 1.349 . S
C539 H531 0.950 . S
C539 C537 1.327 . S
C540 C528 1.349 . S
C540 H534 0.950 . S
C540 C541 1.327 . S
C541 H535 0.950 . S
C541 C540 1.327 . S
C541 C545 1.429 . S
C542 C525 1.574 1_655 S
C542 H536 0.949 . S
C542 C546 1.368 . S
C543 C524 1.429 . S
C543 C537 1.429 . S
C543 C544 1.523 . S
C544 C525 1.368 . S
C544 C538 1.368 . S
C544 C543 1.523 . S
C545 C529 1.429 . S
C545 C541 1.429 . S
C545 C546 1.523 . S
C546 C530 1.368 . S
C546 C542 1.368 . S
C546 C545 1.523 . S
H547 C522 0.950 . S
H548 C524 0.950 . S
H549 C525 0.949 . S
H550 C527 0.950 . S
H551 C529 0.950 . S
C552 C553 1.349 . S
C552 C554 1.327 . S
C552 H577 0.950 . S
C553 C552 1.349 . S
C553 C569 1.349 . S
C554 C552 1.327 . S
C554 C573 1.429 . S
C554 H578 0.950 . S
C555 C572 1.574 1_546 S
C555 C574 1.368 . S
C555 H579 0.949 . S
H556 C560 0.949 . S
C557 C558 1.349 . S
C557 C559 1.327 . S
C557 H580 0.950 . S
C558 C557 1.349 . S
C558 C570 1.349 . S
C559 C557 1.327 . S
C559 C575 1.429 . S
C559 H581 0.950 . S
C560 H556 0.949 . S
C560 C568 1.574 1_564 S
C560 C576 1.368 . S
H561 C569 0.950 . S
H562 C567 0.950 . S
H563 C568 0.949 . S
H564 C570 0.950 . S
H565 C571 0.950 . S
H566 C572 0.949 . S
C567 H562 0.950 . S
C567 C569 1.327 . S
C567 C573 1.429 . S
C568 C560 1.574 1_546 S
C568 H563 0.949 . S
C568 C574 1.368 . S
C569 C553 1.349 . S
C569 H561 0.950 . S
C569 C567 1.327 . S
C570 C558 1.349 . S
C570 H564 0.950 . S
C570 C571 1.327 . S
C571 H565 0.950 . S
C571 C570 1.327 . S
C571 C575 1.429 . S
C572 C555 1.574 1_564 S
C572 H566 0.949 . S
C572 C576 1.368 . S
C573 C554 1.429 . S
C573 C567 1.429 . S
C573 C574 1.523 . S
C574 C555 1.368 . S
C574 C568 1.368 . S
C574 C573 1.523 . S
C575 C559 1.429 . S
C575 C571 1.429 . S
C575 C576 1.523 . S
C576 C560 1.368 . S
C576 C572 1.368 . S
C576 C575 1.523 . S
H577 C552 0.950 . S
H578 C554 0.950 . S
H579 C555 0.949 . S
H580 C557 0.950 . S
H581 C559 0.950 . S
C582 C583 1.349 . S
C582 C584 1.327 . S
C582 H607 0.950 . S
C583 C582 1.349 . S
C583 C599 1.349 . S
C584 C582 1.327 . S
C584 C603 1.429 . S
C584 H608 0.950 . S
C585 C602 1.574 . S
C585 C604 1.368 . S
C585 H609 0.949 . S
H586 C590 0.949 . S
C587 C588 1.349 . S
C587 C589 1.327 . S
C587 H610 0.950 . S
C588 C587 1.349 . S
C588 C600 1.349 . S
C589 C587 1.327 . S
C589 C605 1.429 . S
C589 H611 0.950 . S
C590 H586 0.949 . S
C590 C598 1.574 . S
C590 C606 1.368 . S
H591 C599 0.950 . S
H592 C597 0.950 . S
H593 C598 0.949 . S
H594 C600 0.950 . S
H595 C601 0.950 . S
H596 C602 0.949 . S
C597 H592 0.950 . S
C597 C599 1.327 . S
C597 C603 1.429 . S
C598 C590 1.574 . S
C598 H593 0.949 . S
C598 C604 1.368 . S
C599 C583 1.349 . S
C599 H591 0.950 . S
C599 C597 1.327 . S
C600 C588 1.349 . S
C600 H594 0.950 . S
C600 C601 1.327 . S
C601 H595 0.950 . S
C601 C600 1.327 . S
C601 C605 1.429 . S
C602 C585 1.574 . S
C602 H596 0.949 . S
C602 C606 1.368 . S
C603 C584 1.429 . S
C603 C597 1.429 . S
C603 C604 1.523 . S
C604 C585 1.368 . S
C604 C598 1.368 . S
C604 C603 1.523 . S
C605 C589 1.429 . S
C605 C601 1.429 . S
C605 C606 1.523 . S
C606 C590 1.368 . S
C606 C602 1.368 . S
C606 C605 1.523 . S
H607 C582 0.950 . S
H608 C584 0.950 . S
H609 C585 0.949 . S
H610 C587 0.950 . S
H611 C589 0.950 . S
C612 C613 1.349 . S
C612 C614 1.327 . S
C612 H637 0.950 . S
C613 C612 1.349 . S
C613 C629 1.349 . S
C614 C612 1.327 . S
C614 C633 1.429 . S
C614 H638 0.950 . S
C615 C632 1.574 1_656 S
C615 C634 1.368 . S
C615 H639 0.949 . S
H616 C620 0.949 . S
C617 C618 1.349 . S
C617 C619 1.327 . S
C617 H640 0.950 . S
C618 C617 1.349 . S
C618 C630 1.349 . S
C619 C617 1.327 . S
C619 C635 1.429 . S
C619 H641 0.950 . S
C620 H616 0.949 . S
C620 C628 1.574 1_454 S
C620 C636 1.368 . S
H621 C629 0.950 . S
H622 C627 0.950 . S
H623 C628 0.949 . S
H624 C630 0.950 . S
H625 C631 0.950 . S
H626 C632 0.949 . S
C627 H622 0.950 . S
C627 C629 1.327 . S
C627 C633 1.429 . S
C628 C620 1.574 1_656 S
C628 H623 0.949 . S
C628 C634 1.368 . S
C629 C613 1.349 . S
C629 H621 0.950 . S
C629 C627 1.327 . S
C630 C618 1.349 . S
C630 H624 0.950 . S
C630 C631 1.327 . S
C631 H625 0.950 . S
C631 C630 1.327 . S
C631 C635 1.429 . S
C632 C615 1.574 1_454 S
C632 H626 0.949 . S
C632 C636 1.368 . S
C633 C614 1.429 . S
C633 C627 1.429 . S
C633 C634 1.523 . S
C634 C615 1.368 . S
C634 C628 1.368 . S
C634 C633 1.523 . S
C635 C619 1.429 . S
C635 C631 1.429 . S
C635 C636 1.523 . S
C636 C620 1.368 . S
C636 C632 1.368 . S
C636 C635 1.523 . S
H637 C612 0.950 . S
H638 C614 0.950 . S
H639 C615 0.949 . S
H640 C617 0.950 . S
H641 C619 0.950 . S
C642 C643 1.349 . S
C642 C644 1.327 . S
C642 H667 0.950 . S
C643 C642 1.349 . S
C643 C659 1.349 . S
C644 C642 1.327 . S
C644 C663 1.429 . S
C644 H668 0.950 . S
C645 C662 1.574 . S
C645 C664 1.368 1_545 S
C645 H669 0.949 . S
H646 C650 0.949 . S
C647 C648 1.349 . S
C647 C649 1.327 . S
C647 H670 0.950 . S
C648 C647 1.349 . S
C648 C660 1.349 . S
C649 C647 1.327 . S
C649 C665 1.429 . S
C649 H671 0.950 . S
C650 H646 0.949 . S
C650 C658 1.574 . S
C650 C666 1.368 1_565 S
H651 C659 0.950 1_545 S
H652 C657 0.951 1_545 S
H653 C658 0.949 . S
H654 C660 0.950 1_565 S
H655 C661 0.952 1_565 S
H656 C662 0.949 . S
C657 H652 0.951 1_565 S
C657 C659 1.327 . S
C657 C663 1.427 . S
C658 C650 1.574 . S
C658 H653 0.949 . S
C658 C664 1.368 . S
C659 C643 1.349 . S
C659 H651 0.950 1_565 S
C659 C657 1.327 . S
C660 C648 1.349 . S
C660 H654 0.950 1_545 S
C660 C661 1.326 . S
C661 H655 0.952 1_545 S
C661 C660 1.326 . S
C661 C665 1.427 . S
C662 C645 1.574 . S
C662 H656 0.949 . S
C662 C666 1.368 . S
C663 C644 1.429 . S
C663 C657 1.427 . S
C663 C664 1.523 . S
C664 C645 1.368 1_565 S
C664 C658 1.368 . S
C664 C663 1.523 . S
C665 C649 1.429 . S
C665 C661 1.427 . S
C665 C666 1.523 . S
C666 C650 1.368 1_545 S
C666 C662 1.368 . S
C666 C665 1.523 . S
H667 C642 0.950 . S
H668 C644 0.950 . S
H669 C645 0.949 . S
H670 C647 0.950 . S
H671 C649 0.950 . S
C672 C673 1.349 . S
C672 C674 1.327 . S
C672 H697 0.950 . S
C673 C672 1.349 . S
C673 C689 1.349 . S
C674 C672 1.327 . S
C674 C693 1.429 . S
C674 H698 0.950 . S
C675 C692 1.574 1_556 S
C675 C694 1.368 . S
C675 H699 0.949 . S
H676 C680 0.949 . S
C677 C678 1.349 . S
C677 C679 1.327 . S
C677 H700 0.950 . S
C678 C677 1.349 . S
C678 C690 1.349 . S
C679 C677 1.327 . S
C679 C695 1.429 . S
C679 H701 0.950 . S
C680 H676 0.949 . S
C680 C688 1.574 1_554 S
C680 C696 1.368 . S
H681 C689 0.950 . S
H682 C687 0.950 . S
H683 C688 0.949 . S
H684 C690 0.950 . S
H685 C691 0.950 . S
H686 C692 0.949 . S
C687 H682 0.950 . S
C687 C689 1.327 . S
C687 C693 1.429 . S
C688 C680 1.574 1_556 S
C688 H683 0.949 . S
C688 C694 1.368 . S
C689 C673 1.349 . S
C689 H681 0.950 . S
C689 C687 1.327 . S
C690 C678 1.349 . S
C690 H684 0.950 . S
C690 C691 1.327 . S
C691 H685 0.950 . S
C691 C690 1.327 . S
C691 C695 1.429 . S
C692 C675 1.574 1_554 S
C692 H686 0.949 . S
C692 C696 1.368 . S
C693 C674 1.429 . S
C693 C687 1.429 . S
C693 C694 1.523 . S
C694 C675 1.368 . S
C694 C688 1.368 . S
C694 C693 1.523 . S
C695 C679 1.429 . S
C695 C691 1.429 . S
C695 C696 1.523 . S
C696 C680 1.368 . S
C696 C692 1.368 . S
C696 C695 1.523 . S
H697 C672 0.950 . S
H698 C674 0.950 . S
H699 C675 0.949 . S
H700 C677 0.950 . S
H701 C679 0.950 . S
C702 C703 1.349 . S
C702 C704 1.338 . S
C702 H727 0.950 1_655 S
C703 C702 1.349 . S
C703 C719 1.349 . S
C704 C702 1.338 . S
C704 C723 1.446 . S
C704 H728 0.921 1_655 S
C705 C722 1.574 . S
C705 C724 1.368 . S
C705 H729 0.949 . S
H706 C710 0.949 . S
C707 C708 1.349 . S
C707 C709 1.327 . S
C707 H730 0.953 . S
C708 C707 1.349 . S
C708 C720 1.349 . S
C709 C707 1.327 . S
C709 C725 1.429 . S
C709 H731 0.950 1_455 S
C710 H706 0.949 . S
C710 C718 1.574 . S
C710 C726 1.368 . S
H711 C719 0.950 . S
H712 C717 0.950 . S
H713 C718 0.949 . S
H714 C720 0.950 . S
H715 C721 0.950 . S
H716 C722 0.949 . S
C717 H712 0.950 . S
C717 C719 1.327 . S
C717 C723 1.429 . S
C718 C710 1.574 . S
C718 H713 0.949 . S
C718 C724 1.368 1_455 S
C719 C703 1.349 . S
C719 H711 0.950 . S
C719 C717 1.327 . S
C720 C708 1.349 . S
C720 H714 0.950 . S
C720 C721 1.327 . S
C721 H715 0.950 . S
C721 C720 1.327 . S
C721 C725 1.429 . S
C722 C705 1.574 . S
C722 H716 0.949 . S
C722 C726 1.368 1_655 S
C723 C704 1.446 . S
C723 C717 1.429 . S
C723 C724 1.523 . S
C724 C705 1.368 . S
C724 C718 1.368 1_655 S
C724 C723 1.523 . S
C725 C709 1.429 . S
C725 C721 1.429 . S
C725 C726 1.523 . S
C726 C710 1.368 . S
C726 C722 1.368 1_455 S
C726 C725 1.523 . S
H727 C702 0.950 1_455 S
H728 C704 0.921 1_455 S
H729 C705 0.949 . S
H730 C707 0.953 . S
H731 C709 0.950 1_655 S
C732 C733 1.349 . S
C732 C734 1.327 . S
C732 H757 0.950 . S
C733 C732 1.349 . S
C733 C749 1.349 . S
C734 C732 1.327 . S
C734 C753 1.429 . S
C734 H758 0.950 . S
C735 C752 1.574 1_556 S
C735 C754 1.368 1_565 S
C735 H759 0.949 . S
H736 C740 0.949 . S
C737 C738 1.349 . S
C737 C739 1.327 . S
C737 H760 0.950 . S
C738 C737 1.349 . S
C738 C750 1.349 . S
C739 C737 1.327 . S
C739 C755 1.429 . S
C739 H761 0.950 . S
C740 H736 0.949 . S
C740 C748 1.574 1_554 S
C740 C756 1.368 1_545 S
H741 C749 0.950 . S
H742 C747 0.950 1_565 S
H743 C748 0.949 . S
H744 C750 0.950 . S
H745 C751 0.950 1_545 S
H746 C752 0.949 . S
C747 H742 0.950 1_545 S
C747 C749 1.327 . S
C747 C753 1.429 . S
C748 C740 1.574 1_556 S
C748 H743 0.949 . S
C748 C754 1.368 . S
C749 C733 1.349 . S
C749 H741 0.950 . S
C749 C747 1.327 . S
C750 C738 1.349 . S
C750 H744 0.950 . S
C750 C751 1.327 . S
C751 H745 0.950 1_565 S
C751 C750 1.327 . S
C751 C755 1.429 . S
C752 C735 1.574 1_554 S
C752 H746 0.949 . S
C752 C756 1.368 . S
C753 C734 1.429 . S
C753 C747 1.429 . S
C753 C754 1.523 . S
C754 C735 1.368 1_545 S
C754 C748 1.368 . S
C754 C753 1.523 . S
C755 C739 1.429 . S
C755 C751 1.429 . S
C755 C756 1.523 . S
C756 C740 1.368 1_565 S
C756 C752 1.368 . S
C756 C755 1.523 . S
H757 C732 0.950 . S
H758 C734 0.950 . S
H759 C735 0.949 . S
H760 C737 0.950 . S
H761 C739 0.950 . S
C762 C763 1.349 . S
C762 C764 1.327 . S
C762 H787 0.950 . S
C763 C762 1.349 . S
C763 C779 1.349 . S
C764 C762 1.327 . S
C764 C783 1.429 . S
C764 H788 0.950 . S
C765 C782 1.574 . S
C765 C784 1.368 . S
C765 H789 0.949 . S
H766 C770 0.949 . S
C767 C768 1.349 . S
C767 C769 1.327 . S
C767 H790 0.950 . S
C768 C767 1.349 . S
C768 C780 1.349 . S
C769 C767 1.327 . S
C769 C785 1.429 . S
C769 H791 0.950 . S
C770 H766 0.949 . S
C770 C778 1.574 . S
C770 C786 1.368 . S
H771 C779 0.950 . S
H772 C777 0.950 . S
H773 C778 0.949 . S
H774 C780 0.950 . S
H775 C781 0.950 . S
H776 C782 0.949 . S
C777 H772 0.950 . S
C777 C779 1.327 . S
C777 C783 1.429 . S
C778 C770 1.574 . S
C778 H773 0.949 . S
C778 C784 1.368 . S
C779 C763 1.349 . S
C779 H771 0.950 . S
C779 C777 1.327 . S
C780 C768 1.349 . S
C780 H774 0.950 . S
C780 C781 1.327 . S
C781 H775 0.950 . S
C781 C780 1.327 . S
C781 C785 1.429 . S
C782 C765 1.574 . S
C782 H776 0.949 . S
C782 C786 1.368 . S
C783 C764 1.429 . S
C783 C777 1.429 . S
C783 C784 1.523 . S
C784 C765 1.368 . S
C784 C778 1.368 . S
C784 C783 1.523 . S
C785 C769 1.429 . S
C785 C781 1.429 . S
C785 C786 1.523 . S
C786 C770 1.368 . S
C786 C782 1.368 . S
C786 C785 1.523 . S
H787 C762 0.950 . S
H788 C764 0.950 . S
H789 C765 0.949 . S
H790 C767 0.950 . S
H791 C769 0.950 . S
C792 C793 1.349 . S
C792 C794 1.327 . S
C792 H817 0.950 . S
C793 C792 1.349 . S
C793 C809 1.349 . S
C794 C792 1.327 . S
C794 C813 1.429 . S
C794 H818 0.950 . S
C795 C812 1.574 . S
C795 C814 1.368 . S
C795 H819 0.949 . S
H796 C800 0.949 . S
C797 C798 1.349 . S
C797 C799 1.327 . S
C797 H820 0.950 . S
C798 C797 1.349 . S
C798 C810 1.349 . S
C799 C797 1.327 . S
C799 C815 1.429 . S
C799 H821 0.950 . S
C800 H796 0.949 . S
C800 C808 1.574 . S
C800 C816 1.368 . S
H801 C809 0.950 . S
H802 C807 0.950 . S
H803 C808 0.949 . S
H804 C810 0.950 . S
H805 C811 0.950 . S
H806 C812 0.949 . S
C807 H802 0.950 . S
C807 C809 1.327 . S
C807 C813 1.429 . S
C808 C800 1.574 . S
C808 H803 0.949 . S
C808 C814 1.368 . S
C809 C793 1.349 . S
C809 H801 0.950 . S
C809 C807 1.327 . S
C810 C798 1.349 . S
C810 H804 0.950 . S
C810 C811 1.327 . S
C811 H805 0.950 . S
C811 C810 1.327 . S
C811 C815 1.429 . S
C812 C795 1.574 . S
C812 H806 0.949 . S
C812 C816 1.368 . S
C813 C794 1.429 . S
C813 C807 1.429 . S
C813 C814 1.523 . S
C814 C795 1.368 . S
C814 C808 1.368 . S
C814 C813 1.523 . S
C815 C799 1.429 . S
C815 C811 1.429 . S
C815 C816 1.523 . S
C816 C800 1.368 . S
C816 C812 1.368 . S
C816 C815 1.523 . S
H817 C792 0.950 . S
H818 C794 0.950 . S
H819 C795 0.949 . S
H820 C797 0.950 . S
H821 C799 0.950 . S
C822 C823 1.349 . S
C822 C824 1.327 . S
C822 H847 0.950 . S
C823 C822 1.349 . S
C823 C839 1.349 . S
C824 C822 1.327 . S
C824 C843 1.429 . S
C824 H848 0.950 . S
C825 C842 1.574 . S
C825 C844 1.368 . S
C825 H849 0.949 . S
H826 C830 0.949 . S
C827 C828 1.349 . S
C827 C829 1.327 . S
C827 H850 0.950 . S
C828 C827 1.349 . S
C828 C840 1.349 . S
C829 C827 1.327 . S
C829 C845 1.429 . S
C829 H851 0.950 . S
C830 H826 0.949 . S
C830 C838 1.574 . S
C830 C846 1.368 . S
H831 C839 0.950 . S
H832 C837 0.950 . S
H833 C838 0.949 . S
H834 C840 0.950 . S
H835 C841 0.950 . S
H836 C842 0.949 . S
C837 H832 0.950 . S
C837 C839 1.327 . S
C837 C843 1.429 . S
C838 C830 1.574 . S
C838 H833 0.949 . S
C838 C844 1.368 . S
C839 C823 1.349 . S
C839 H831 0.950 . S
C839 C837 1.327 . S
C840 C828 1.349 . S
C840 H834 0.950 . S
C840 C841 1.327 . S
C841 H835 0.950 . S
C841 C840 1.327 . S
C841 C845 1.429 . S
C842 C825 1.574 . S
C842 H836 0.949 . S
C842 C846 1.368 . S
C843 C824 1.429 . S
C843 C837 1.429 . S
C843 C844 1.523 . S
C844 C825 1.368 . S
C844 C838 1.368 . S
C844 C843 1.523 . S
C845 C829 1.429 . S
C845 C841 1.429 . S
C845 C846 1.523 . S
C846 C830 1.368 . S
C846 C842 1.368 . S
C846 C845 1.523 . S
H847 C822 0.950 . S
H848 C824 0.950 . S
H849 C825 0.949 . S
H850 C827 0.950 . S
H851 C829 0.950 . S
C852 C853 1.349 . S
C852 C854 1.327 . S
C852 H877 0.950 . S
C853 C852 1.349 . S
C853 C869 1.349 . S
C854 C852 1.327 . S
C854 C873 1.429 . S
C854 H878 0.950 . S
C855 C872 1.574 . S
C855 C874 1.368 . S
C855 H879 0.949 . S
H856 C860 0.949 . S
C857 C858 1.349 . S
C857 C859 1.327 . S
C857 H880 0.950 . S
C858 C857 1.349 . S
C858 C870 1.349 . S
C859 C857 1.327 . S
C859 C875 1.429 . S
C859 H881 0.950 . S
C860 H856 0.949 . S
C860 C868 1.574 . S
C860 C876 1.368 . S
H861 C869 0.950 . S
H862 C867 0.950 . S
H863 C868 0.949 . S
H864 C870 0.950 . S
H865 C871 0.950 . S
H866 C872 0.949 . S
C867 H862 0.950 . S
C867 C869 1.327 . S
C867 C873 1.429 . S
C868 C860 1.574 . S
C868 H863 0.949 . S
C868 C874 1.368 . S
C869 C853 1.349 . S
C869 H861 0.950 . S
C869 C867 1.327 . S
C870 C858 1.349 . S
C870 H864 0.950 . S
C870 C871 1.327 . S
C871 H865 0.950 . S
C871 C870 1.327 . S
C871 C875 1.429 . S
C872 C855 1.574 . S
C872 H866 0.949 . S
C872 C876 1.368 . S
C873 C854 1.429 . S
C873 C867 1.429 . S
C873 C874 1.523 . S
C874 C855 1.368 . S
C874 C868 1.368 . S
C874 C873 1.523 . S
C875 C859 1.429 . S
C875 C871 1.429 . S
C875 C876 1.523 . S
C876 C860 1.368 . S
C876 C872 1.368 . S
C876 C875 1.523 . S
H877 C852 0.950 . S
H878 C854 0.950 . S
H879 C855 0.949 . S
H880 C857 0.950 . S
H881 C859 0.950 . S
C882 C883 1.349 . S
C882 C884 1.327 . S
C882 H907 0.950 . S
C883 C882 1.349 . S
C883 C899 1.349 . S
C884 C882 1.327 . S
C884 C903 1.429 . S
C884 H908 0.950 . S
C885 C902 1.574 . S
C885 C904 1.368 . S
C885 H909 0.949 . S
H886 C890 0.949 . S
C887 C888 1.349 . S
C887 C889 1.327 . S
C887 H910 0.950 . S
C888 C887 1.349 . S
C888 C900 1.349 . S
C889 C887 1.327 . S
C889 C905 1.429 . S
C889 H911 0.950 . S
C890 H886 0.949 . S
C890 C898 1.574 . S
C890 C906 1.368 . S
H891 C899 0.950 . S
H892 C897 0.950 . S
H893 C898 0.949 . S
H894 C900 0.950 . S
H895 C901 0.950 . S
H896 C902 0.949 . S
C897 H892 0.950 . S
C897 C899 1.327 . S
C897 C903 1.429 . S
C898 C890 1.574 . S
C898 H893 0.949 . S
C898 C904 1.368 . S
C899 C883 1.349 . S
C899 H891 0.950 . S
C899 C897 1.327 . S
C900 C888 1.349 . S
C900 H894 0.950 . S
C900 C901 1.327 . S
C901 H895 0.950 . S
C901 C900 1.327 . S
C901 C905 1.429 . S
C902 C885 1.574 . S
C902 H896 0.949 . S
C902 C906 1.368 . S
C903 C884 1.429 . S
C903 C897 1.429 . S
C903 C904 1.523 . S
C904 C885 1.368 . S
C904 C898 1.368 . S
C904 C903 1.523 . S
C905 C889 1.429 . S
C905 C901 1.429 . S
C905 C906 1.523 . S
C906 C890 1.368 . S
C906 C902 1.368 . S
C906 C905 1.523 . S
H907 C882 0.950 . S
H908 C884 0.950 . S
H909 C885 0.949 . S
H910 C887 0.950 . S
H911 C889 0.950 . S
C912 C913 1.349 . S
C912 C914 1.327 . S
C912 H937 0.950 . S
C913 C912 1.349 . S
C913 C929 1.349 . S
C914 C912 1.327 . S
C914 C933 1.429 . S
C914 H938 0.950 . S
C915 C932 1.574 . S
C915 C934 1.368 . S
C915 H939 0.949 . S
H916 C920 0.949 . S
C917 C918 1.349 . S
C917 C919 1.327 . S
C917 H940 0.950 . S
C918 C917 1.349 . S
C918 C930 1.349 . S
C919 C917 1.327 . S
C919 C935 1.429 . S
C919 H941 0.950 . S
C920 H916 0.949 . S
C920 C928 1.574 . S
C920 C936 1.368 . S
H921 C929 0.950 . S
H922 C927 0.950 . S
H923 C928 0.949 . S
H924 C930 0.950 . S
H925 C931 0.950 . S
H926 C932 0.949 . S
C927 H922 0.950 . S
C927 C929 1.327 . S
C927 C933 1.429 . S
C928 C920 1.574 . S
C928 H923 0.949 . S
C928 C934 1.368 . S
C929 C913 1.349 . S
C929 H921 0.950 . S
C929 C927 1.327 . S
C930 C918 1.349 . S
C930 H924 0.950 . S
C930 C931 1.327 . S
C931 H925 0.950 . S
C931 C930 1.327 . S
C931 C935 1.429 . S
C932 C915 1.574 . S
C932 H926 0.949 . S
C932 C936 1.368 . S
C933 C914 1.429 . S
C933 C927 1.429 . S
C933 C934 1.523 . S
C934 C915 1.368 . S
C934 C928 1.368 . S
C934 C933 1.523 . S
C935 C919 1.429 . S
C935 C931 1.429 . S
C935 C936 1.523 . S
C936 C920 1.368 . S
C936 C932 1.368 . S
C936 C935 1.523 . S
H937 C912 0.950 . S
H938 C914 0.950 . S
H939 C915 0.949 . S
H940 C917 0.950 . S
H941 C919 0.950 . S
C942 C943 1.349 . S
C942 C944 1.327 . S
C942 H967 0.950 . S
C943 C942 1.349 . S
C943 C959 1.349 . S
C944 C942 1.327 . S
C944 C963 1.429 . S
C944 H968 0.950 . S
C945 C962 1.574 . S
C945 C964 1.368 . S
C945 H969 0.949 . S
H946 C950 0.949 . S
C947 C948 1.349 . S
C947 C949 1.327 . S
C947 H970 0.950 . S
C948 C947 1.349 . S
C948 C960 1.349 . S
C949 C947 1.327 . S
C949 C965 1.429 . S
C949 H971 0.950 . S
C950 H946 0.949 . S
C950 C958 1.574 . S
C950 C966 1.368 . S
H951 C959 0.950 . S
H952 C957 0.950 . S
H953 C958 0.949 . S
H954 C960 0.950 . S
H955 C961 0.950 . S
H956 C962 0.949 . S
C957 H952 0.950 . S
C957 C959 1.327 . S
C957 C963 1.429 . S
C958 C950 1.574 . S
C958 H953 0.949 . S
C958 C964 1.368 . S
C959 C943 1.349 . S
C959 H951 0.950 . S
C959 C957 1.327 . S
C960 C948 1.349 . S
C960 H954 0.950 . S
C960 C961 1.327 . S
C961 H955 0.950 . S
C961 C960 1.327 . S
C961 C965 1.429 . S
C962 C945 1.574 . S
C962 H956 0.949 . S
C962 C966 1.368 . S
C963 C944 1.429 . S
C963 C957 1.429 . S
C963 C964 1.523 . S
C964 C945 1.368 . S
C964 C958 1.368 . S
C964 C963 1.523 . S
C965 C949 1.429 . S
C965 C961 1.429 . S
C965 C966 1.523 . S
C966 C950 1.368 . S
C966 C962 1.368 . S
C966 C965 1.523 . S
H967 C942 0.950 . S
H968 C944 0.950 . S
H969 C945 0.949 . S
H970 C947 0.950 . S
H971 C949 0.950 . S
C972 C973 1.349 . S
C972 C974 1.327 . S
C972 H997 0.950 . S
C973 C972 1.349 . S
C973 C989 1.349 . S
C974 C972 1.327 . S
C974 C993 1.429 . S
C974 H998 0.950 . S
C975 C992 1.574 . S
C975 C994 1.368 . S
C975 H999 0.949 . S
H976 C980 0.949 . S
C977 C978 1.349 . S
C977 C979 1.327 . S
C977 H1000 0.950 . S
C978 C977 1.349 . S
C978 C990 1.349 . S
C979 C977 1.327 . S
C979 C995 1.429 . S
C979 H1001 0.950 . S
C980 H976 0.949 . S
C980 C988 1.574 . S
C980 C996 1.368 . S
H981 C989 0.950 . S
H982 C987 0.950 . S
H983 C988 0.949 . S
H984 C990 0.950 . S
H985 C991 0.950 . S
H986 C992 0.949 . S
C987 H982 0.950 . S
C987 C989 1.327 . S
C987 C993 1.429 . S
C988 C980 1.574 . S
C988 H983 0.949 . S
C988 C994 1.368 . S
C989 C973 1.349 . S
C989 H981 0.950 . S
C989 C987 1.327 . S
C990 C978 1.349 . S
C990 H984 0.950 . S
C990 C991 1.327 . S
C991 H985 0.950 . S
C991 C990 1.327 . S
C991 C995 1.429 . S
C992 C975 1.574 . S
C992 H986 0.949 . S
C992 C996 1.368 . S
C993 C974 1.429 . S
C993 C987 1.429 . S
C993 C994 1.523 . S
C994 C975 1.368 . S
C994 C988 1.368 . S
C994 C993 1.523 . S
C995 C979 1.429 . S
C995 C991 1.429 . S
C995 C996 1.523 . S
C996 C980 1.368 . S
C996 C992 1.368 . S
C996 C995 1.523 . S
H997 C972 0.950 . S
H998 C974 0.950 . S
H999 C975 0.949 . S
H1000 C977 0.950 . S
H1001 C979 0.950 . S
C1002 C1003 1.349 . S
C1002 C1004 1.327 . S
C1002 H1027 0.950 . S
C1003 C1002 1.349 . S
C1003 C1019 1.349 . S
C1004 C1002 1.327 . S
C1004 C1023 1.429 . S
C1004 H1028 0.950 . S
C1005 C1022 1.574 . S
C1005 C1024 1.368 . S
C1005 H1029 0.949 . S
H1006 C1010 0.949 . S
C1007 C1008 1.349 . S
C1007 C1009 1.327 . S
C1007 H1030 0.950 . S
C1008 C1007 1.349 . S
C1008 C1020 1.349 . S
C1009 C1007 1.327 . S
C1009 C1025 1.429 . S
C1009 H1031 0.950 . S
C1010 H1006 0.949 . S
C1010 C1018 1.574 . S
C1010 C1026 1.368 . S
H1011 C1019 0.950 . S
H1012 C1017 0.950 . S
H1013 C1018 0.949 . S
H1014 C1020 0.950 . S
H1015 C1021 0.950 . S
H1016 C1022 0.949 . S
C1017 H1012 0.950 . S
C1017 C1019 1.327 . S
C1017 C1023 1.429 . S
C1018 C1010 1.574 . S
C1018 H1013 0.949 . S
C1018 C1024 1.368 . S
C1019 C1003 1.349 . S
C1019 H1011 0.950 . S
C1019 C1017 1.327 . S
C1020 C1008 1.349 . S
C1020 H1014 0.950 . S
C1020 C1021 1.327 . S
C1021 H1015 0.950 . S
C1021 C1020 1.327 . S
C1021 C1025 1.429 . S
C1022 C1005 1.574 . S
C1022 H1016 0.949 . S
C1022 C1026 1.368 . S
C1023 C1004 1.429 . S
C1023 C1017 1.429 . S
C1023 C1024 1.523 . S
C1024 C1005 1.368 . S
C1024 C1018 1.368 . S
C1024 C1023 1.523 . S
C1025 C1009 1.429 . S
C1025 C1021 1.429 . S
C1025 C1026 1.523 . S
C1026 C1010 1.368 . S
C1026 C1022 1.368 . S
C1026 C1025 1.523 . S
H1027 C1002 0.950 . S
H1028 C1004 0.950 . S
H1029 C1005 0.949 . S
H1030 C1007 0.950 . S
H1031 C1009 0.950 . S
C1032 C1033 1.349 . S
C1032 C1034 1.327 . S
C1032 H1057 0.950 . S
C1033 C1032 1.349 . S
C1033 C1049 1.349 . S
C1034 C1032 1.327 . S
C1034 C1053 1.429 . S
C1034 H1058 0.950 . S
C1035 C1052 1.574 . S
C1035 C1054 1.368 . S
C1035 H1059 0.949 . S
H1036 C1040 0.949 . S
C1037 C1038 1.349 . S
C1037 C1039 1.327 . S
C1037 H1060 0.950 . S
C1038 C1037 1.349 . S
C1038 C1050 1.349 . S
C1039 C1037 1.327 . S
C1039 C1055 1.429 . S
C1039 H1061 0.950 . S
C1040 H1036 0.949 . S
C1040 C1048 1.574 . S
C1040 C1056 1.368 . S
H1041 C1049 0.950 . S
H1042 C1047 0.950 . S
H1043 C1048 0.949 . S
H1044 C1050 0.950 . S
H1045 C1051 0.950 . S
H1046 C1052 0.949 . S
C1047 H1042 0.950 . S
C1047 C1049 1.327 . S
C1047 C1053 1.429 . S
C1048 C1040 1.574 . S
C1048 H1043 0.949 . S
C1048 C1054 1.368 . S
C1049 C1033 1.349 . S
C1049 H1041 0.950 . S
C1049 C1047 1.327 . S
C1050 C1038 1.349 . S
C1050 H1044 0.950 . S
C1050 C1051 1.327 . S
C1051 H1045 0.950 . S
C1051 C1050 1.327 . S
C1051 C1055 1.429 . S
C1052 C1035 1.574 . S
C1052 H1046 0.949 . S
C1052 C1056 1.368 . S
C1053 C1034 1.429 . S
C1053 C1047 1.429 . S
C1053 C1054 1.523 . S
C1054 C1035 1.368 . S
C1054 C1048 1.368 . S
C1054 C1053 1.523 . S
C1055 C1039 1.429 . S
C1055 C1051 1.429 . S
C1055 C1056 1.523 . S
C1056 C1040 1.368 . S
C1056 C1052 1.368 . S
C1056 C1055 1.523 . S
H1057 C1032 0.950 . S
H1058 C1034 0.950 . S
H1059 C1035 0.949 . S
H1060 C1037 0.950 . S
H1061 C1039 0.950 . S
C1062 C1063 1.349 . S
C1062 C1064 1.327 . S
C1062 H1087 0.950 . S
C1063 C1062 1.349 . S
C1063 C1079 1.349 . S
C1064 C1062 1.327 . S
C1064 C1083 1.429 . S
C1064 H1088 0.950 . S
C1065 C1082 1.574 . S
C1065 C1084 1.368 . S
C1065 H1089 0.949 . S
H1066 C1070 0.949 . S
C1067 C1068 1.349 . S
C1067 C1069 1.327 . S
C1067 H1090 0.950 . S
C1068 C1067 1.349 . S
C1068 C1080 1.349 . S
C1069 C1067 1.327 . S
C1069 C1085 1.429 . S
C1069 H1091 0.950 . S
C1070 H1066 0.949 . S
C1070 C1078 1.574 . S
C1070 C1086 1.368 . S
H1071 C1079 0.950 . S
H1072 C1077 0.950 . S
H1073 C1078 0.949 . S
H1074 C1080 0.950 . S
H1075 C1081 0.950 . S
H1076 C1082 0.949 . S
C1077 H1072 0.950 . S
C1077 C1079 1.327 . S
C1077 C1083 1.429 . S
C1078 C1070 1.574 . S
C1078 H1073 0.949 . S
C1078 C1084 1.368 . S
C1079 C1063 1.349 . S
C1079 H1071 0.950 . S
C1079 C1077 1.327 . S
C1080 C1068 1.349 . S
C1080 H1074 0.950 . S
C1080 C1081 1.327 . S
C1081 H1075 0.950 . S
C1081 C1080 1.327 . S
C1081 C1085 1.429 . S
C1082 C1065 1.574 . S
C1082 H1076 0.949 . S
C1082 C1086 1.368 . S
C1083 C1064 1.429 . S
C1083 C1077 1.429 . S
C1083 C1084 1.523 . S
C1084 C1065 1.368 . S
C1084 C1078 1.368 . S
C1084 C1083 1.523 . S
C1085 C1069 1.429 . S
C1085 C1081 1.429 . S
C1085 C1086 1.523 . S
C1086 C1070 1.368 . S
C1086 C1082 1.368 . S
C1086 C1085 1.523 . S
H1087 C1062 0.950 . S
H1088 C1064 0.950 . S
H1089 C1065 0.949 . S
H1090 C1067 0.950 . S
H1091 C1069 0.950 . S
C1092 C1093 1.349 . S
C1092 C1094 1.327 . S
C1092 H1117 0.950 . S
C1093 C1092 1.349 . S
C1093 C1109 1.349 . S
C1094 C1092 1.327 . S
C1094 C1113 1.429 . S
C1094 H1118 0.950 . S
C1095 C1112 1.574 . S
C1095 C1114 1.368 . S
C1095 H1119 0.949 . S
H1096 C1100 0.949 . S
C1097 C1098 1.349 . S
C1097 C1099 1.327 . S
C1097 H1120 0.950 . S
C1098 C1097 1.349 . S
C1098 C1110 1.349 . S
C1099 C1097 1.327 . S
C1099 C1115 1.429 . S
C1099 H1121 0.950 . S
C1100 H1096 0.949 . S
C1100 C1108 1.574 . S
C1100 C1116 1.368 . S
H1101 C1109 0.950 . S
H1102 C1107 0.950 . S
H1103 C1108 0.949 . S
H1104 C1110 0.950 . S
H1105 C1111 0.950 . S
H1106 C1112 0.949 . S
C1107 H1102 0.950 . S
C1107 C1109 1.327 . S
C1107 C1113 1.429 . S
C1108 C1100 1.574 . S
C1108 H1103 0.949 . S
C1108 C1114 1.368 . S
C1109 C1093 1.349 . S
C1109 H1101 0.950 . S
C1109 C1107 1.327 . S
C1110 C1098 1.349 . S
C1110 H1104 0.950 . S
C1110 C1111 1.327 . S
C1111 H1105 0.950 . S
C1111 C1110 1.327 . S
C1111 C1115 1.429 . S
C1112 C1095 1.574 . S
C1112 H1106 0.949 . S
C1112 C1116 1.368 . S
C1113 C1094 1.429 . S
C1113 C1107 1.429 . S
C1113 C1114 1.523 . S
C1114 C1095 1.368 . S
C1114 C1108 1.368 . S
C1114 C1113 1.523 . S
C1115 C1099 1.429 . S
C1115 C1111 1.429 . S
C1115 C1116 1.523 . S
C1116 C1100 1.368 . S
C1116 C1112 1.368 . S
C1116 C1115 1.523 . S
H1117 C1092 0.950 . S
H1118 C1094 0.950 . S
H1119 C1095 0.949 . S
H1120 C1097 0.950 . S
H1121 C1099 0.950 . S
C1122 C1123 1.349 . S
C1122 C1124 1.327 . S
C1122 H1147 0.950 . S
C1123 C1122 1.349 . S
C1123 C1139 1.349 . S
C1124 C1122 1.327 . S
C1124 C1143 1.429 . S
C1124 H1148 0.950 . S
C1125 C1142 1.574 . S
C1125 C1144 1.368 . S
C1125 H1149 0.949 . S
H1126 C1130 0.949 . S
C1127 C1128 1.349 . S
C1127 C1129 1.327 . S
C1127 H1150 0.950 . S
C1128 C1127 1.349 . S
C1128 C1140 1.349 . S
C1129 C1127 1.327 . S
C1129 C1145 1.429 . S
C1129 H1151 0.950 . S
C1130 H1126 0.949 . S
C1130 C1138 1.574 . S
C1130 C1146 1.368 . S
H1131 C1139 0.950 . S
H1132 C1137 0.950 . S
H1133 C1138 0.949 . S
H1134 C1140 0.950 . S
H1135 C1141 0.950 . S
H1136 C1142 0.949 . S
C1137 H1132 0.950 . S
C1137 C1139 1.327 . S
C1137 C1143 1.429 . S
C1138 C1130 1.574 . S
C1138 H1133 0.949 . S
C1138 C1144 1.368 . S
C1139 C1123 1.349 . S
C1139 H1131 0.950 . S
C1139 C1137 1.327 . S
C1140 C1128 1.349 . S
C1140 H1134 0.950 . S
C1140 C1141 1.327 . S
C1141 H1135 0.950 . S
C1141 C1140 1.327 . S
C1141 C1145 1.429 . S
C1142 C1125 1.574 . S
C1142 H1136 0.949 . S
C1142 C1146 1.368 . S
C1143 C1124 1.429 . S
C1143 C1137 1.429 . S
C1143 C1144 1.523 . S
C1144 C1125 1.368 . S
C1144 C1138 1.368 . S
C1144 C1143 1.523 . S
C1145 C1129 1.429 . S
C1145 C1141 1.429 . S
C1145 C1146 1.523 . S
C1146 C1130 1.368 . S
C1146 C1142 1.368 . S
C1146 C1145 1.523 . S
H1147 C1122 0.950 . S
H1148 C1124 0.950 . S
H1149 C1125 0.949 . S
H1150 C1127 0.950 . S
H1151 C1129 0.950 . S
C433 C3 1.270 . S
C438 C398 1.247 . S
C463 C218 1.407 . S
C468 C38 1.407 . S
C493 C74 1.247 . S
C498 C255 1.270 . S
C523 C290 1.247 . S
C528 C111 1.270 . S
C553 C326 1.407 . S
C558 C146 1.407 . S
C583 C363 1.270 . S
C588 C182 1.247 . S
C613 C112 1.176 . S
C618 C302 1.183 . S
C643 C158 1.310 . S
C648 C338 1.310 . S
C673 C194 1.183 . S
C678 C364 1.176 . S
C703 C410 1.183 . S
C708 C4 1.176 . S
C733 C50 1.310 . S
C738 C230 1.310 . S
C763 C86 1.183 . S
C768 C256 1.176 . S
C793 C291 1.635 . S
C798 C2 1.622 . S
C823 C327 1.613 . S
C828 C39 1.613 . S
C853 C75 1.635 . S
C858 C362 1.622 . S
C883 C110 1.622 . S
C888 C399 1.635 . S
C913 C147 1.613 . S
C918 C219 1.613 . S
C943 C254 1.622 . S
C948 C183 1.635 . S
C973 C14 1.453 . S
C978 C374 1.453 . S
C1003 C400 1.537 . S
C1008 C40 1.537 . S
C1033 C76 1.537 . S
C1038 C220 1.538 . S
C1063 C122 1.453 . S
C1068 C266 1.453 . S
C1093 C148 1.537 . S
C1098 C292 1.536 . S
C1123 C184 1.537 . S
C1128 C328 1.538 . S
