# Generated by pormake.
# Topology vma, (5)-cn, num edge types: 1
# Building blocks:
#     Node 0, Type 0, BuildingBlock: XOMCOT_clean_sbu_1, # of connection points: 5
#     Node 1, Type 0, BuildingBlock: XOMCOT_clean_sbu_1, # of connection points: 5
#     Node 2, Type 0, BuildingBlock: XOMCOT_clean_sbu_1, # of connection points: 5
#     Node 3, Type 0, BuildingBlock: XOMCOT_clean_sbu_1, # of connection points: 5
#     Node 4, Type 0, BuildingBlock: XOMCOT_clean_sbu_1, # of connection points: 5
#     Node 5, Type 0, BuildingBlock: XOMCOT_clean_sbu_1, # of connection points: 5
#     Node 6, Type 0, BuildingBlock: XOMCOT_clean_sbu_1, # of connection points: 5
#     Node 7, Type 0, BuildingBlock: XOMCOT_clean_sbu_1, # of connection points: 5
#     Edge 8, Type (0, 0), BuildingBlock: UVAHIK_clean_linker_0, # of connection points: 2
#     Edge 9, Type (0, 0), BuildingBlock: UVAHIK_clean_linker_0, # of connection points: 2
#     Edge 10, Type (0, 0), BuildingBlock: UVAHIK_clean_linker_0, # of connection points: 2
#     Edge 11, Type (0, 0), BuildingBlock: UVAHIK_clean_linker_0, # of connection points: 2
#     Edge 12, Type (0, 0), BuildingBlock: UVAHIK_clean_linker_0, # of connection points: 2
#     Edge 13, Type (0, 0), BuildingBlock: UVAHIK_clean_linker_0, # of connection points: 2
#     Edge 14, Type (0, 0), BuildingBlock: UVAHIK_clean_linker_0, # of connection points: 2
#     Edge 15, Type (0, 0), BuildingBlock: UVAHIK_clean_linker_0, # of connection points: 2
#     Edge 16, Type (0, 0), BuildingBlock: UVAHIK_clean_linker_0, # of connection points: 2
#     Edge 17, Type (0, 0), BuildingBlock: UVAHIK_clean_linker_0, # of connection points: 2
#     Edge 18, Type (0, 0), BuildingBlock: UVAHIK_clean_linker_0, # of connection points: 2
#     Edge 19, Type (0, 0), BuildingBlock: UVAHIK_clean_linker_0, # of connection points: 2
#     Edge 20, Type (0, 0), BuildingBlock: UVAHIK_clean_linker_0, # of connection points: 2
#     Edge 21, Type (0, 0), BuildingBlock: UVAHIK_clean_linker_0, # of connection points: 2
#     Edge 22, Type (0, 0), BuildingBlock: UVAHIK_clean_linker_0, # of connection points: 2
#     Edge 23, Type (0, 0), BuildingBlock: UVAHIK_clean_linker_0, # of connection points: 2
#     Edge 24, Type (0, 0), BuildingBlock: UVAHIK_clean_linker_0, # of connection points: 2
#     Edge 25, Type (0, 0), BuildingBlock: UVAHIK_clean_linker_0, # of connection points: 2
#     Edge 26, Type (0, 0), BuildingBlock: UVAHIK_clean_linker_0, # of connection points: 2
#     Edge 27, Type (0, 0), BuildingBlock: UVAHIK_clean_linker_0, # of connection points: 2
# Relax obj value: 0.093
# Max RMSD: 0.173
# Mean RMSD: 0.170
data_MOF--net-vma--node1-XOMCOT_clean_sbu_1--edge1-UVAHIK_clean_linker_0
_symmetry_space_group_name_H-M    P1
_symmetry_Int_Tables_number       1
_symmetry_cell_setting            triclinic
loop_
_symmetry_equiv_pos_as_xyz
'x, y, z'
_cell_length_a     52.161288
_cell_length_b     35.409459
_cell_length_c     46.957248
_cell_angle_alpha  90.097027
_cell_angle_beta   100.37842
_cell_angle_gamma 89.883033
loop_
_atom_site_label
_atom_site_type_symbol
_atom_site_fract_x
_atom_site_fract_y
_atom_site_fract_z
_atom_type_partial_charge
C0 C 0.34749 0.11452 0.30632 0.0
C1 C 0.36718 0.11746 0.29057 0.0
N2 N 0.39026 0.11575 0.30891 0.0
N3 N 0.35787 0.11075 0.33456 0.0
C4 C 0.38399 0.1117 0.33555 0.0
H5 H 0.32681 0.1148 0.29771 0.0
Co6 Co 0.33767 0.1059 0.36349 0.0
C7 C 0.37081 0.05811 0.4076 0.0
O8 O 0.35108 0.03542 0.4082 0.0
N9 N 0.31631 0.10153 0.39313 0.0
C10 C 0.28838 0.08067 0.42057 0.0
C11 C 0.3024 0.07136 0.39951 0.0
C12 C 0.31012 0.12889 0.41114 0.0
N13 N 0.29308 0.11701 0.42782 0.0
O14 O 0.34643 0.15659 0.37503 0.0
H15 H 0.302 0.04384 0.38949 0.0
H16 H 0.31778 0.15725 0.41209 0.0
O17 O 0.36805 0.08654 0.39054 0.0
C18 C 0.32843 0.17615 0.35989 0.0
O19 O 0.30925 0.15861 0.3431 0.0
N20 N 0.32698 0.05856 0.34834 0.0
C21 C 0.3043 -0.00276 0.31603 0.0
C22 C 0.33082 -0.00353 0.32894 0.0
C23 C 0.34198 0.02788 0.34472 0.0
C24 C 0.30168 0.0604 0.33461 0.0
C25 C 0.28984 0.02995 0.31886 0.0
H26 H 0.36265 0.02795 0.35322 0.0
H27 H 0.2906 0.08599 0.3359 0.0
H28 H 0.3981 0.10985 0.35544 0.0
H29 H 0.36456 0.11994 0.26727 0.0
H30 H 0.27501 0.06234 0.42909 0.0
H31 H 0.34284 0.97209 0.32662 0.0
H32 H 0.26967 0.0325 0.30828 0.0
C33 C 0.68374 0.11773 0.22305 0.0
C34 C 0.6641 0.11897 0.239 0.0
N35 N 0.64114 0.11436 0.2209 0.0
N36 N 0.67341 0.11216 0.19495 0.0
C37 C 0.64734 0.11054 0.19423 0.0
H38 H 0.70436 0.12044 0.23143 0.0
Co39 Co 0.69403 0.10726 0.16643 0.0
C40 C 0.66155 0.0667 0.11737 0.0
O41 O 0.68207 0.04806 0.1125 0.0
N42 N 0.71616 0.10296 0.13756 0.0
C43 C 0.74625 0.08352 0.11231 0.0
C44 C 0.73234 0.07421 0.13343 0.0
C45 C 0.72084 0.12938 0.11813 0.0
N46 N 0.73919 0.11841 0.10276 0.0
O47 O 0.68669 0.15861 0.15602 0.0
H48 H 0.7341 0.04751 0.14464 0.0
H49 H 0.71119 0.15649 0.11532 0.0
O50 O 0.66362 0.09018 0.13839 0.0
C51 C 0.70568 0.17722 0.17021 0.0
O52 O 0.72496 0.15875 0.18611 0.0
N53 N 0.70302 0.05898 0.18023 0.0
C54 C 0.72291 0.99526 0.21114 0.0
C55 C 0.69752 0.99505 0.19478 0.0
C56 C 0.68777 0.02758 0.17949 0.0
C57 C 0.72713 0.06001 0.19716 0.0
C58 C 0.73766 0.02833 0.21226 0.0
H59 H 0.66787 0.02784 0.16805 0.0
H60 H 0.73832 0.08584 0.19877 0.0
H61 H 0.63321 0.10598 0.17469 0.0
H62 H 0.66656 0.12329 0.26216 0.0
H63 H 0.76112 0.0663 0.1053 0.0
H64 H 0.68534 0.97022 0.19407 0.0
H65 H 0.75695 0.03006 0.2254 0.0
C66 C 0.65268 0.95499 0.61692 0.0
C67 C 0.6351 0.97394 0.59658 0.0
N68 N 0.61168 0.95694 0.59422 0.0
N69 N 0.64056 0.92599 0.62739 0.0
C70 C 0.61564 0.92776 0.61315 0.0
H71 H 0.67305 0.96191 0.62376 0.0
Co72 Co 0.65676 0.89275 0.65586 0.0
C73 C 0.61255 0.85099 0.67152 0.0
O74 O 0.62303 0.81913 0.66489 0.0
N75 N 0.67315 0.85963 0.68452 0.0
C76 C 0.68631 0.83235 0.72725 0.0
C77 C 0.66975 0.85868 0.71236 0.0
C78 C 0.69168 0.83337 0.68292 0.0
N79 N 0.7 0.81648 0.70866 0.0
O80 O 0.65299 0.85229 0.62784 0.0
H81 H 0.65634 0.87648 0.72138 0.0
H82 H 0.69946 0.82738 0.66354 0.0
O83 O 0.62357 0.88222 0.66762 0.0
C84 C 0.67054 0.85638 0.61232 0.0
O85 O 0.68641 0.88534 0.61759 0.0
N86 N 0.6628 0.93292 0.68204 0.0
C87 C 0.67734 0.99443 0.71821 0.0
C88 C 0.65097 0.98773 0.70692 0.0
C89 C 0.64403 0.95646 0.68888 0.0
C90 C 0.6885 0.93969 0.69231 0.0
C91 C 0.69618 0.96986 0.71089 0.0
H92 H 0.62375 0.95188 0.6797 0.0
H93 H 0.70317 0.92163 0.68579 0.0
H94 H 0.60068 0.90833 0.617 0.0
H95 H 0.63948 -0.0018 0.58435 0.0
H96 H 0.6881 0.82525 0.74994 0.0
H97 H 0.63598 0.00661 0.7118 0.0
H98 H 0.71675 0.97474 0.71865 0.0
C99 C 0.38164 0.95591 0.9117 0.0
C100 C 0.39939 0.9757 0.93127 0.0
N101 N 0.42209 0.95657 0.93559 0.0
N102 N 0.39314 0.92459 0.90347 0.0
C103 C 0.41776 0.92552 0.91862 0.0
H104 H 0.36167 0.96408 0.90361 0.0
Co105 Co 0.37696 0.89054 0.87564 0.0
C106 C 0.42139 0.84959 0.85949 0.0
O107 O 0.41136 0.81764 0.86647 0.0
N108 N 0.36059 0.85693 0.84757 0.0
C109 C 0.34744 0.82839 0.80534 0.0
C110 C 0.36385 0.85522 0.81971 0.0
C111 C 0.34216 0.83088 0.84966 0.0
N112 N 0.33384 0.81313 0.82422 0.0
O113 O 0.38175 0.85053 0.90396 0.0
H114 H 0.37715 0.87271 0.81036 0.0
H115 H 0.33449 0.82563 0.86921 0.0
O116 O 0.41003 0.88068 0.86328 0.0
C117 C 0.36486 0.85504 0.92028 0.0
O118 O 0.34921 0.88441 0.91577 0.0
N119 N 0.36964 0.9301 0.84933 0.0
C120 C 0.35209 0.99432 0.81771 0.0
C121 C 0.37875 0.98531 0.82336 0.0
C122 C 0.38724 0.95298 0.83958 0.0
C123 C 0.34368 0.93779 0.84309 0.0
C124 C 0.33446 0.96959 0.82717 0.0
H125 H 0.40788 0.94748 0.84548 0.0
H126 H 0.33011 0.91978 0.85159 0.0
H127 H 0.43241 0.90446 0.91665 0.0
H128 H 0.39587 0.00211 0.94157 0.0
H129 H 0.34578 0.8205 0.7828 0.0
H130 H 0.39293 0.00409 0.81669 0.0
H131 H 0.31373 0.97548 0.82312 0.0
C132 C 0.84975 0.61728 0.30971 0.0
C133 C 0.86918 0.62001 0.29359 0.0
N134 N 0.89243 0.61765 0.31155 0.0
N135 N 0.86046 0.61302 0.33782 0.0
C136 C 0.88653 0.61342 0.33835 0.0
H137 H 0.82901 0.61796 0.30145 0.0
Co138 Co 0.84049 0.60788 0.36694 0.0
C139 C 0.87386 0.56182 0.41164 0.0
O140 O 0.85392 0.53987 0.4131 0.0
N141 N 0.81926 0.60333 0.39675 0.0
C142 C 0.79066 0.5833 0.42367 0.0
C143 C 0.80465 0.57367 0.40264 0.0
C144 C 0.81366 0.63058 0.41518 0.0
N145 N 0.79614 0.6193 0.43148 0.0
O146 O 0.84849 0.65889 0.37792 0.0
H147 H 0.80381 0.54629 0.39239 0.0
H148 H 0.82204 0.65851 0.41663 0.0
O149 O 0.87118 0.58958 0.39395 0.0
C150 C 0.82969 0.67747 0.36325 0.0
O151 O 0.81058 0.65891 0.34717 0.0
N152 N 0.83063 0.56005 0.35232 0.0
C153 C 0.8101 0.49815 0.3193 0.0
C154 C 0.83645 0.49862 0.33279 0.0
C155 C 0.8465 0.53026 0.34899 0.0
C156 C 0.80541 0.5606 0.33821 0.0
C157 C 0.7946 0.52973 0.32218 0.0
H158 H 0.8671 0.5314 0.35776 0.0
H159 H 0.79363 0.58556 0.33929 0.0
H160 H 0.90086 0.61097 0.358 0.0
H161 H 0.86625 0.62274 0.27029 0.0
H162 H 0.77677 0.56543 0.43175 0.0
H163 H 0.84922 0.47511 0.33041 0.0
H164 H 0.77448 0.53118 0.31123 0.0
C165 C 0.18338 0.61395 0.21898 0.0
C166 C 0.16412 0.61521 0.23545 0.0
N167 N 0.14087 0.61128 0.21777 0.0
N168 N 0.17251 0.60905 0.19096 0.0
C169 C 0.14651 0.60781 0.19081 0.0
H170 H 0.20411 0.61621 0.22691 0.0
Co171 Co 0.19237 0.60466 0.1617 0.0
C172 C 0.15902 0.56094 0.11528 0.0
O173 O 0.17913 0.53975 0.11276 0.0
N174 N 0.21364 0.6009 0.13182 0.0
C175 C 0.24266 0.58169 0.10503 0.0
C176 C 0.2286 0.57156 0.12583 0.0
C177 C 0.21914 0.62849 0.11369 0.0
N178 N 0.23692 0.6177 0.09753 0.0
O179 O 0.1845 0.6561 0.15181 0.0
H180 H 0.22959 0.54403 0.13581 0.0
H181 H 0.21056 0.65634 0.11238 0.0
O182 O 0.16152 0.58728 0.13427 0.0
C183 C 0.20375 0.67463 0.16562 0.0
O184 O 0.22356 0.65592 0.18037 0.0
N185 N 0.2021 0.55636 0.17534 0.0
C186 C 0.22254 0.49365 0.20739 0.0
C187 C 0.19635 0.49413 0.19334 0.0
C188 C 0.18635 0.52615 0.17755 0.0
C189 C 0.22715 0.5568 0.18997 0.0
C190 C 0.23793 0.52554 0.20551 0.0
H191 H 0.16585 0.52722 0.16826 0.0
H192 H 0.2388 0.58198 0.18969 0.0
H193 H 0.13203 0.60375 0.17147 0.0
H194 H 0.16705 0.61913 0.25867 0.0
H195 H 0.25682 0.56422 0.09692 0.0
H196 H 0.18368 0.47035 0.19499 0.0
H197 H 0.25791 0.5269 0.21689 0.0
C198 C 0.15672 0.44548 0.61278 0.0
C199 C 0.13971 0.464 0.59161 0.0
N200 N 0.11557 0.45012 0.59108 0.0
N201 N 0.14348 0.41997 0.62568 0.0
C202 C 0.11849 0.4232 0.61188 0.0
H203 H 0.17745 0.45049 0.61865 0.0
Co204 Co 0.1585 0.38839 0.65612 0.0
C205 C 0.1131 0.3932 0.68836 0.0
O206 O 0.1255 0.41684 0.70746 0.0
N207 N 0.17384 0.35556 0.68626 0.0
C208 C 0.18645 0.32775 0.72894 0.0
C209 C 0.17132 0.35569 0.7144 0.0
C210 C 0.19088 0.32708 0.68446 0.0
N211 N 0.19875 0.30952 0.71011 0.0
O212 O 0.15301 0.34587 0.62997 0.0
H213 H 0.16041 0.37581 0.72449 0.0
H214 H 0.19755 0.31949 0.66474 0.0
O215 O 0.12379 0.38025 0.66775 0.0
C216 C 0.17073 0.34735 0.61443 0.0
O217 O 0.18819 0.37436 0.6195 0.0
N218 N 0.16694 0.43164 0.68017 0.0
C219 C 0.18498 0.49612 0.71196 0.0
C220 C 0.16008 0.49558 0.69474 0.0
C221 C 0.15159 0.46329 0.67865 0.0
C222 C 0.19187 0.43295 0.69533 0.0
C223 C 0.201 0.46438 0.71197 0.0
H224 H 0.13235 0.4635 0.66541 0.0
H225 H 0.20517 0.40979 0.69419 0.0
H226 H 0.1027 0.40665 0.61742 0.0
H227 H 0.1449 0.48581 0.57759 0.0
H228 H 0.1889 0.32241 0.75195 0.0
H229 H 0.14728 0.51984 0.69373 0.0
H230 H 0.22081 0.46434 0.72392 0.0
C231 C 0.87575 0.45594 0.91054 0.0
C232 C 0.89361 0.47431 0.93094 0.0
N233 N 0.91616 0.45466 0.93495 0.0
N234 N 0.88689 0.42485 0.90152 0.0
C235 C 0.91148 0.42468 0.9168 0.0
H236 H 0.85592 0.46482 0.90252 0.0
Co237 Co 0.87006 0.39125 0.87363 0.0
C238 C 0.91405 0.3497 0.85626 0.0
O239 O 0.90429 0.31737 0.86285 0.0
N240 N 0.85305 0.35773 0.84568 0.0
C241 C 0.83901 0.32867 0.80381 0.0
C242 C 0.85565 0.3557 0.81761 0.0
C243 C 0.83483 0.3316 0.84846 0.0
N244 N 0.82599 0.31354 0.82328 0.0
O245 O 0.87473 0.35124 0.90185 0.0
H246 H 0.86869 0.37304 0.80775 0.0
H247 H 0.82774 0.32637 0.86836 0.0
O248 O 0.90273 0.38052 0.86086 0.0
C249 C 0.85807 0.3557 0.91844 0.0
O250 O 0.84238 0.38504 0.91412 0.0
N251 N 0.86333 0.43106 0.84718 0.0
C252 C 0.8484 0.49365 0.81227 0.0
C253 C 0.87485 0.48631 0.82283 0.0
C254 C 0.88196 0.45464 0.84027 0.0
C255 C 0.83757 0.438 0.83728 0.0
C256 C 0.82969 0.46878 0.8194 0.0
H257 H 0.90227 0.45005 0.84928 0.0
H258 H 0.823 0.41991 0.84385 0.0
H259 H 0.92554 0.40279 0.91477 0.0
H260 H 0.8903 0.50058 0.94152 0.0
H261 H 0.83684 0.32047 0.78128 0.0
H262 H 0.88981 0.50527 0.81811 0.0
H263 H 0.80907 0.47403 0.8123 0.0
C264 C 0.17975 0.33284 0.56584 0.0
C265 C 0.17355 0.31945 0.59186 0.0
C266 C 0.18973 0.30854 0.54713 0.0
C267 C 0.20187 0.20917 0.52899 0.0
H268 H 0.2626 0.25268 0.50455 0.0
C269 C 0.27092 0.12133 0.47023 0.0
C270 C 0.28053 0.13895 0.44744 0.0
C271 C 0.25727 0.14203 0.48812 0.0
C272 C 0.24551 0.24016 0.51079 0.0
H273 H 0.17158 0.26983 0.61818 0.0
H274 H 0.18918 0.22678 0.58523 0.0
H275 H 0.23793 0.28986 0.53378 0.0
H276 H 0.28321 0.19235 0.42581 0.0
H277 H 0.25941 0.22842 0.45672 0.0
H278 H 0.20951 0.15942 0.50575 0.0
C279 C 0.18603 0.25615 0.5792 0.0
C280 C 0.23133 0.26152 0.52762 0.0
C281 C 0.17579 0.28065 0.59796 0.0
C282 C 0.27647 0.17794 0.44332 0.0
C283 C 0.26275 0.19863 0.46112 0.0
C284 C 0.21606 0.18775 0.51196 0.0
C285 C 0.19413 0.27025 0.55418 0.0
C286 C 0.20918 0.24651 0.5367 0.0
C287 C 0.25283 0.18095 0.4837 0.0
C288 C 0.23798 0.2031 0.50246 0.0
H289 H 0.17822 0.36269 0.56071 0.0
H290 H 0.19511 0.32016 0.52772 0.0
H291 H 0.18489 0.19682 0.53557 0.0
H292 H 0.274 0.09145 0.47433 0.0
H293 H 0.25039 0.12755 0.50559 0.0
C294 C 0.75248 0.17992 0.08485 0.0
C295 C 0.75111 0.14034 0.08271 0.0
C296 C 0.76642 0.20073 0.06743 0.0
C297 C 0.79395 0.19702 1.00011 0.0
H298 H 0.83787 0.27801 0.03681 0.0
C299 C 0.85651 0.28879 0.93624 0.0
C300 C 0.8539 0.32778 0.94051 0.0
C301 C 0.84749 0.26288 0.95483 0.0
C302 C 0.82564 0.25558 0.02617 0.0
H303 H 0.76221 0.09194 0.05926 0.0
H304 H 0.78654 0.1282 0.02896 0.0
H305 H 0.81329 0.23975 0.06554 0.0
H306 H 0.84123 0.37025 0.96823 0.0
H307 H 0.82588 0.32565 1.00047 0.0
H308 H 0.80589 0.21348 0.96057 0.0
C309 C 0.77697 0.14312 0.04427 0.0
C310 C 0.81146 0.23374 0.04264 0.0
C311 C 0.76318 0.1223 0.06184 0.0
C312 C 0.84352 0.34034 0.96445 0.0
C313 C 0.83482 0.31468 0.98305 0.0
C314 C 0.80809 0.21902 0.98357 0.0
C315 C 0.77917 0.18254 0.04722 0.0
C316 C 0.79509 0.2046 0.02974 0.0
C317 C 0.83606 0.27562 0.97815 0.0
C318 C 0.82375 0.24904 0.99629 0.0
H319 H 0.74349 0.19479 0.10061 0.0
H320 H 0.76733 0.23114 0.06991 0.0
H321 H 0.78144 0.17489 0.98947 0.0
H322 H 0.86416 0.27838 0.91774 0.0
H323 H 0.84893 0.23295 0.95059 0.0
C324 C 0.67537 0.78953 0.59562 0.0
C325 C 0.67548 0.82859 0.59044 0.0
C326 C 0.68634 0.76447 0.57783 0.0
C327 C 0.73639 0.76604 0.5314 0.0
H328 H 0.7103 0.66736 0.50488 0.0
C329 C 0.78174 0.68117 0.448 0.0
C330 C 0.78374 0.64172 0.451 0.0
C331 C 0.76815 0.7025 0.46554 0.0
C332 C 0.71803 0.69468 0.51242 0.0
H333 H 0.68511 0.87183 0.56158 0.0
H334 H 0.70332 0.82846 0.53029 0.0
H335 H 0.68561 0.70639 0.53359 0.0
H336 H 0.77366 0.59412 0.47584 0.0
H337 H 0.75018 0.63133 0.50655 0.0
H338 H 0.7688 0.7546 0.5106 0.0
C339 C 0.69562 0.81701 0.5484 0.0
C340 C 0.70382 0.71704 0.52883 0.0
C341 C 0.68494 0.84184 0.56615 0.0
C342 C 0.7722 0.62432 0.47251 0.0
C343 C 0.75863 0.64568 0.49012 0.0
C344 C 0.75056 0.74376 0.51515 0.0
C345 C 0.69748 0.77822 0.55465 0.0
C346 C 0.71267 0.75325 0.53815 0.0
C347 C 0.75626 0.68505 0.48674 0.0
C348 C 0.74147 0.70795 0.50512 0.0
H349 H 0.66851 0.77868 0.61445 0.0
H350 H 0.68745 0.73471 0.58321 0.0
H351 H 0.74416 0.79338 0.53886 0.0
H352 H 0.79004 0.69559 0.43156 0.0
H353 H 0.76645 0.73268 0.46199 0.0
C354 C 0.35165 0.84024 0.967 0.0
C355 C 0.3601 0.82707 0.94204 0.0
C356 C 0.34079 0.81558 0.98465 0.0
C357 C 0.33022 0.71548 1.00205 0.0
H358 H 0.26703 0.75601 0.02317 0.0
C359 C 0.26033 0.62386 0.05628 0.0
C360 C 0.24949 0.64062 0.07861 0.0
C361 C 0.2742 0.64548 0.03926 0.0
C362 C 0.28478 0.74433 0.01782 0.0
H363 H 0.36507 0.77742 0.91665 0.0
H364 H 0.34587 0.73379 0.94768 0.0
H365 H 0.29221 0.79452 0.99549 0.0
H366 H 0.24482 0.69352 0.1004 0.0
H367 H 0.26896 0.73121 0.07087 0.0
H368 H 0.32269 0.66521 0.02455 0.0
C369 C 0.34792 0.76331 0.95371 0.0
C370 C 0.29927 0.76646 1.00191 0.0
C371 C 0.35905 0.78817 0.93604 0.0
C372 C 0.2525 0.67974 0.08314 0.0
C373 C 0.26643 0.70136 0.06617 0.0
C374 C 0.3157 0.69328 0.01811 0.0
C375 C 0.33775 0.77708 0.97761 0.0
C376 C 0.32232 0.75253 0.99404 0.0
C377 C 0.27763 0.68449 0.04412 0.0
C378 C 0.29287 0.70754 0.02639 0.0
H379 H 0.35232 0.87011 0.97218 0.0
H380 H 0.33385 0.82701 1.0033 0.0
H381 H 0.34791 0.70394 0.99645 0.0
H382 H 0.25809 0.59392 0.05191 0.0
H383 H 0.28208 0.63162 0.02215 0.0
C384 C 0.61282 0.10069 0.25664 0.0
C385 C 0.61564 0.1132 0.22894 0.0
C386 C 0.58842 0.10069 0.26505 0.0
C387 C 0.52348 0.14544 0.24917 0.0
H388 H 0.50281 0.06136 0.29272 0.0
C389 C 0.41931 0.1331 0.27457 0.0
C390 C 0.41591 0.11726 0.30113 0.0
C391 C 0.44373 0.13307 0.2662 0.0
C392 C 0.50838 0.08537 0.28097 0.0
H393 H 0.59479 0.13529 0.1883 0.0
H394 H 0.55203 0.13527 0.20296 0.0
H395 H 0.54469 0.05962 0.27661 0.0
H396 H 0.43613 0.08951 0.33991 0.0
H397 H 0.47886 0.09039 0.32569 0.0
H398 H 0.4874 0.17149 0.2538 0.0
C399 C 0.56884 0.12562 0.21823 0.0
C400 C 0.5324 0.08429 0.2716 0.0
C401 C 0.5933 0.12531 0.20971 0.0
C402 C 0.43789 0.10212 0.31938 0.0
C403 C 0.46241 0.10221 0.31102 0.0
C404 C 0.49952 0.14665 0.25869 0.0
C405 C 0.56611 0.1134 0.24607 0.0
C406 C 0.54027 0.11428 0.25555 0.0
C407 C 0.46565 0.11744 0.28418 0.0
C408 C 0.49156 0.11659 0.27467 0.0
H409 H 0.62951 0.0907 0.27189 0.0
H410 H 0.58712 0.09136 0.2867 0.0
H411 H 0.52908 0.16931 0.23728 0.0
H412 H 0.40308 0.14561 0.26005 0.0
H413 H 0.44524 0.14471 0.24526 0.0
C414 C 0.58072 0.88443 0.69721 0.0
C415 C 0.59071 0.85051 0.688 0.0
C416 C 0.56222 0.88401 0.71542 0.0
C417 C 0.5142 0.82287 0.74292 0.0
H418 H 0.5232 0.89481 0.80629 0.0
C419 C 0.45276 0.81494 0.83386 0.0
C420 C 0.44318 0.84924 0.84295 0.0
C421 C 0.47136 0.81467 0.81574 0.0
C422 C 0.52021 0.87476 0.78856 0.0
H423 H 0.58832 0.78945 0.69008 0.0
H424 H 0.55614 0.78872 0.72184 0.0
H425 H 0.55321 0.8954 0.77208 0.0
H426 H 0.44651 0.91018 0.84083 0.0
H427 H 0.47866 0.90972 0.80914 0.0
H428 H 0.48116 0.80228 0.75939 0.0
C429 C 0.5625 0.81572 0.71486 0.0
C430 C 0.53743 0.87514 0.76887 0.0
C431 C 0.58104 0.81614 0.69666 0.0
C432 C 0.45333 0.88322 0.83422 0.0
C433 C 0.47193 0.88295 0.81612 0.0
C434 C 0.49697 0.82251 0.76262 0.0
C435 C 0.55316 0.84965 0.72489 0.0
C436 C 0.53463 0.84927 0.74573 0.0
C437 C 0.48093 0.84868 0.80628 0.0
C438 C 0.4997 0.8485 0.78569 0.0
H439 H 0.58755 0.91144 0.69087 0.0
H440 H 0.5551 0.91069 0.72223 0.0
H441 H 0.51124 0.80283 0.72519 0.0
H442 H 0.44546 0.7882 0.84018 0.0
H443 H 0.47816 0.78773 0.80903 0.0
C444 C 0.11314 0.59786 0.25417 0.0
C445 C 0.1156 0.61057 0.22641 0.0
C446 C 0.089 0.59835 0.26318 0.0
C447 C 0.02454 0.64476 0.24903 0.0
H448 H 1.00377 0.56089 0.29273 0.0
C449 C 0.92105 0.63461 0.27665 0.0
C450 C 0.9179 0.61865 0.30326 0.0
C451 C 0.94524 0.63409 0.26775 0.0
C452 C 1.00938 0.58485 0.28094 0.0
H453 H 0.09433 0.63356 0.18628 0.0
H454 H 0.05202 0.63437 0.20199 0.0
H455 H 0.04518 0.55831 0.27562 0.0
H456 H 0.93836 0.59014 0.34156 0.0
H457 H 0.98072 0.59015 0.32644 0.0
H458 H 0.98896 0.67157 0.25461 0.0
C459 C 0.06893 0.62419 0.21685 0.0
C460 C 0.03314 0.58328 0.27101 0.0
C461 C 0.09313 0.62339 0.20772 0.0
C462 C 0.93993 0.60286 0.32102 0.0
C463 C 0.96423 0.60246 0.31213 0.0
C464 C 1.00085 0.64644 0.25911 0.0
C465 C 0.06658 0.61177 0.24475 0.0
C466 C 0.04102 0.61318 0.25488 0.0
C467 C 0.9672 0.61782 0.28524 0.0
C468 C 0.99286 0.61646 0.27516 0.0
H469 H 0.12993 0.58735 0.26901 0.0
H470 H 0.08801 0.58885 0.28486 0.0
H471 H 0.03017 0.66857 0.2371 0.0
H472 H 0.90479 0.64761 0.26249 0.0
H473 H 0.94654 0.64585 0.24679 0.0
C474 C 0.08304 0.34429 0.70196 0.0
C475 C 0.08712 0.38121 0.69285 0.0
C476 C 0.06231 0.33661 0.71651 0.0
C477 C 0.02762 0.3874 0.76533 0.0
H478 H 0.97953 0.30324 0.75848 0.0
C479 C 0.94365 0.38494 0.82914 0.0
C480 C 0.93554 0.35045 0.8393 0.0
C481 C 0.96209 0.38588 0.81097 0.0
C482 C 0.9931 0.32662 0.76097 0.0
H483 H 0.07194 0.4382 0.68962 0.0
H484 H 0.03555 0.42475 0.71412 0.0
H485 H 1.01006 0.30883 0.72459 0.0
H486 H 0.94111 0.28976 0.8387 0.0
H487 H 0.97398 0.29146 0.80757 0.0
H488 H 1.0115 0.40498 0.80187 0.0
C489 C 0.04839 0.40182 0.71053 0.0
C490 C 1.01046 0.32987 0.74143 0.0
C491 C 0.06899 0.40943 0.69617 0.0
C492 C 0.94689 0.31686 0.83131 0.0
C493 C 0.96556 0.31781 0.8132 0.0
C494 C 1.01059 0.38397 0.78494 0.0
C495 C 0.0456 0.36586 0.7222 0.0
C496 C 0.02755 0.36076 0.7431 0.0
C497 C 0.97329 0.35237 0.80261 0.0
C498 C 0.99272 0.35397 0.78278 0.0
H499 H 0.09716 0.3223 0.70025 0.0
H500 H 0.06065 0.30863 0.72528 0.0
H501 H 0.04105 0.41097 0.76771 0.0
H502 H 0.93534 0.41139 0.83464 0.0
H503 H 0.96708 0.41303 0.80293 0.0
C504 C 0.22805 0.7335 0.16255 0.0
C505 C 0.20482 0.71597 0.1663 0.0
C506 C 0.23372 0.77013 0.1726 0.0
C507 C 0.22204 0.82623 0.23335 0.0
H508 H 0.26529 0.89974 0.20333 0.0
C509 C 0.26593 0.9549 0.30041 0.0
C510 C 0.29158 0.96527 0.29847 0.0
C511 C 0.25275 0.92755 0.28197 0.0
C512 C 0.25339 0.8793 0.21208 0.0
H513 H 0.16832 0.72341 0.18135 0.0
H514 H 0.17815 0.78798 0.19908 0.0
H515 H 0.24407 0.84981 0.17165 0.0
H516 H 0.32369 0.95433 0.27604 0.0
H517 H 0.30092 0.90556 0.24434 0.0
H518 H 0.23206 0.85462 0.27401 0.0
C519 C 0.192 0.77337 0.18833 0.0
C520 C 0.24106 0.85093 0.19387 0.0
C521 C 0.1862 0.73671 0.17788 0.0
C522 C 0.30403 0.94677 0.27822 0.0
C523 C 0.29082 0.91928 0.25976 0.0
C524 C 0.23441 0.85448 0.25156 0.0
C525 C 0.21638 0.78968 0.18704 0.0
C526 C 0.22565 0.82364 0.20446 0.0
C527 C 0.26491 0.90967 0.2612 0.0
C528 C 0.25063 0.88094 0.24131 0.0
H529 H 0.24278 0.71774 0.15392 0.0
H530 H 0.25271 0.78166 0.1714 0.0
H531 H 0.21076 0.8052 0.24239 0.0
H532 H 0.25589 0.96835 0.316 0.0
H533 H 0.23279 0.92103 0.28361 0.0
C534 C 0.72015 0.94483 0.24778 0.0
C535 C 0.73399 0.96232 0.22846 0.0
C536 C 0.73215 0.91721 0.26696 0.0
C537 C 0.79773 0.88164 0.30066 0.0
H538 H 0.75902 0.79363 0.31729 0.0
C539 C 0.84258 0.74012 0.34747 0.0
C540 C 0.82787 0.71867 0.36374 0.0
C541 C 0.83368 0.77576 0.33715 0.0
C542 C 0.77001 0.81842 0.31339 0.0
H543 H 0.77067 0.96358 0.21295 0.0
H544 H 0.79137 0.91465 0.24574 0.0
H545 H 0.73731 0.84181 0.28491 0.0
H546 H 0.79395 0.71826 0.38421 0.0
H547 H 0.7791 0.78106 0.36759 0.0
H548 H 0.83073 0.85722 0.3285 0.0
C549 C 0.77158 0.92298 0.24683 0.0
C550 C 0.75753 0.84603 0.29471 0.0
C551 C 0.75966 0.95071 0.22786 0.0
C552 C 0.80584 0.73474 0.37219 0.0
C553 C 0.79712 0.77037 0.36222 0.0
C554 C 0.81029 0.85381 0.31927 0.0
C555 C 0.75816 0.90637 0.26699 0.0
C556 C 0.77127 0.87782 0.28787 0.0
C557 C 0.80999 0.79015 0.34305 0.0
C558 C 0.79657 0.82179 0.3257 0.0
H559 H 0.70046 0.95365 0.24893 0.0
H560 H 0.7213 0.90522 0.28235 0.0
H561 H 0.80878 0.90612 0.29625 0.0
H562 H 0.85927 0.72775 0.34014 0.0
H563 H 0.84399 0.79027 0.32235 0.0
C564 C 0.70258 0.02446 0.76268 0.0
C565 C 0.68581 0.02821 0.7359 0.0
C566 C 0.71391 0.05632 0.77738 0.0
C567 C 0.71325 0.16233 0.7765 0.0
H568 H 0.78601 0.14936 0.81131 0.0
C569 C 0.78965 0.28177 0.7915 0.0
C570 C 0.8069 0.28391 0.81811 0.0
C571 C 0.77206 0.25188 0.78569 0.0
C572 C 0.7656 0.15333 0.80207 0.0
H573 H 0.66698 0.06788 0.70382 0.0
H574 H 0.68743 0.1235 0.72874 0.0
H575 H 0.76005 0.09447 0.79354 0.0
H576 H 0.81912 0.25689 0.85969 0.0
H577 H 0.78864 0.20385 0.84925 0.0
H578 H 0.71961 0.22172 0.78359 0.0
C579 C 0.69136 0.09626 0.73903 0.0
C580 C 0.7506 0.12182 0.79197 0.0
C581 C 0.67965 0.0644 0.72462 0.0
C582 C 0.80591 0.25595 0.83907 0.0
C583 C 0.78861 0.22561 0.83306 0.0
C584 C 0.72843 0.19392 0.78618 0.0
C585 C 0.70918 0.09258 0.76529 0.0
C586 C 0.72429 0.12588 0.77864 0.0
C587 C 0.77167 0.2232 0.80622 0.0
C588 C 0.75482 0.18971 0.7987 0.0
H589 H 0.70746 -0.00326 0.77184 0.0
H590 H 0.72693 0.05234 0.79788 0.0
H591 H 0.69297 0.16661 0.76694 0.0
H592 H 0.7899 0.30317 0.77511 0.0
H593 H 0.75937 0.25051 0.76474 0.0
C594 C 0.21746 0.25724 0.74198 0.0
C595 C 0.21716 0.27887 0.71683 0.0
C596 C 0.23629 0.22947 0.74997 0.0
C597 C 0.27999 0.16339 0.7247 0.0
H598 H 0.31478 0.16583 0.805 0.0
C599 C 0.34902 0.04336 0.77838 0.0
C600 C 0.3425 0.03081 0.80454 0.0
C601 C 0.33819 0.07689 0.76552 0.0
C602 C 0.30531 0.16478 0.7825 0.0
H603 H 0.23609 0.28674 0.67967 0.0
H604 H 0.26874 0.23707 0.69344 0.0
H605 H 0.28639 0.21789 0.78551 0.0
H606 H 0.32063 0.04403 0.83839 0.0
H607 H 0.30181 0.10192 0.81616 0.0
H608 H 0.29796 0.10918 0.7222 0.0
C609 C 0.2544 0.24238 0.70703 0.0
C610 C 0.28911 0.19458 0.77136 0.0
C611 C 0.23563 0.2707 0.69915 0.0
C612 C 0.32576 0.05284 0.81806 0.0
C613 C 0.3152 0.08624 0.80545 0.0
C614 C 0.29616 0.13327 0.73595 0.0
C615 C 0.25518 0.22214 0.73286 0.0
C616 C 0.27559 0.19356 0.74268 0.0
C617 C 0.32109 0.09857 0.77895 0.0
C618 C 0.30821 0.13311 0.76529 0.0
H619 H 0.20317 0.26173 0.75571 0.0
H620 H 0.23608 0.21361 0.76964 0.0
H621 H 0.26975 0.16201 0.7025 0.0
H622 H 0.36188 0.02679 0.76755 0.0
H623 H 0.3431 0.0858 0.74511 0.0
C624 C 0.77372 0.453 0.30233 0.0
C625 C 0.7988 0.46627 0.30075 0.0
C626 C 0.76184 0.42554 0.28304 0.0
C627 C 0.77637 0.35066 0.23388 0.0
H628 H 0.70232 0.35737 0.20288 0.0
C629 C 0.72902 0.23448 0.16038 0.0
C630 C 0.70734 0.2184 0.16946 0.0
C631 C 0.73725 0.27069 0.16938 0.0
C632 C 0.723 0.35518 0.21133 0.0
H633 H 0.83119 0.46102 0.2779 0.0
H634 H 0.81049 0.41288 0.24415 0.0
H635 H 0.72367 0.4077 0.23415 0.0
H636 H 0.67614 0.22782 0.19331 0.0
H637 H 0.69068 0.29117 0.20962 0.0
H638 H 0.77575 0.2979 0.21185 0.0
C639 C 0.80009 0.42348 0.2605 0.0
C640 C 0.73522 0.38386 0.22933 0.0
C641 C 0.81201 0.45091 0.27989 0.0
C642 C 0.69257 0.24017 0.18553 0.0
C643 C 0.70103 0.27633 0.19497 0.0
C644 C 0.76421 0.32211 0.21591 0.0
C645 C 0.77475 0.41075 0.26168 0.0
C646 C 0.76198 0.38163 0.24112 0.0
C647 C 0.72433 0.29101 0.18832 0.0
C648 C 0.73733 0.32378 0.20464 0.0
H649 H 0.76319 0.46406 0.31842 0.0
H650 H 0.74258 0.41572 0.285 0.0
H651 H 0.79689 0.34772 0.24294 0.0
H652 H 0.74095 0.21779 0.14845 0.0
H653 H 0.75493 0.28154 0.16335 0.0
C654 C 0.22077 0.4462 0.24657 0.0
C655 C 0.23382 0.46146 0.2256 0.0
C656 C 0.23293 0.41901 0.26605 0.0
C657 C 0.29845 0.38036 0.29685 0.0
H658 H 0.25868 0.29583 0.31782 0.0
C659 C 0.34167 0.23777 0.34278 0.0
C660 C 0.32765 0.21744 0.36045 0.0
C661 C 0.33313 0.27365 0.33266 0.0
C662 C 0.27002 0.31967 0.31272 0.0
H663 H 0.26929 0.45919 0.20769 0.0
H664 H 0.29023 0.4111 0.24109 0.0
H665 H 0.23684 0.34429 0.2858 0.0
H666 H 0.29529 0.21922 0.38336 0.0
H667 H 0.28105 0.28239 0.36697 0.0
H668 H 0.33185 0.35469 0.32311 0.0
C669 C 0.27097 0.42085 0.24316 0.0
C670 C 0.25746 0.34745 0.29424 0.0
C671 C 0.25888 0.44814 0.22385 0.0
C672 C 0.30671 0.23481 0.37028 0.0
C673 C 0.29831 0.27067 0.36044 0.0
C674 C 0.31107 0.35238 0.31528 0.0
C675 C 0.25832 0.40636 0.26481 0.0
C676 C 0.27154 0.37791 0.28576 0.0
C677 C 0.3104 0.28942 0.34007 0.0
C678 C 0.29702 0.32154 0.32322 0.0
H679 H 0.20159 0.45636 0.24866 0.0
H680 H 0.2227 0.40869 0.28259 0.0
H681 H 0.30981 0.40383 0.29118 0.0
H682 H 0.35745 0.2244 0.33433 0.0
H683 H 0.34283 0.28727 0.31691 0.0
C684 C 0.2085 0.52693 0.75722 0.0
C685 C 0.19495 0.53021 0.72863 0.0
C686 C 0.21983 0.55863 0.77214 0.0
C687 C 0.22196 0.66389 0.76934 0.0
H688 H 0.29196 0.64964 0.81266 0.0
C689 C 0.29841 0.78192 0.79079 0.0
C690 C 0.3145 0.78396 0.81815 0.0
C691 C 0.28077 0.7523 0.78402 0.0
C692 C 0.27226 0.65399 0.80108 0.0
H693 H 0.18219 0.56919 0.69341 0.0
H694 H 0.20243 0.62437 0.71909 0.0
H695 H 0.26653 0.59497 0.79296 0.0
H696 H 0.32444 0.75716 0.86012 0.0
H697 H 0.29369 0.70473 0.84812 0.0
H698 H 0.22839 0.72319 0.77636 0.0
C699 C 0.20383 0.59758 0.73035 0.0
C700 C 0.25762 0.62265 0.7898 0.0
C701 C 0.19228 0.56594 0.71555 0.0
C702 C 0.31215 0.75628 0.83892 0.0
C703 C 0.29472 0.72627 0.83201 0.0
C704 C 0.23672 0.69524 0.78037 0.0
C705 C 0.2181 0.59424 0.75869 0.0
C706 C 0.23247 0.62725 0.7733 0.0
C707 C 0.27905 0.72385 0.80438 0.0
C708 C 0.26219 0.69062 0.79587 0.0
H709 H 0.21054 0.49974 0.76794 0.0
H710 H 0.23022 0.55511 0.79412 0.0
H711 H 0.20247 0.66844 0.75727 0.0
H712 H 0.29964 0.80313 0.77452 0.0
H713 H 0.26912 0.75097 0.76248 0.0
C714 C 0.73741 0.78915 0.74151 0.0
C715 C 0.71956 0.78767 0.71538 0.0
C716 C 0.75525 0.75991 0.74927 0.0
C717 C 0.78274 0.6721 0.7216 0.0
H718 H 0.79645 0.6469 0.80328 0.0
C719 C 0.82056 0.5276 0.77113 0.0
C720 C 0.83988 0.52875 0.79621 0.0
C721 C 0.80964 0.56102 0.7585 0.0
C722 C 0.7931 0.65391 0.78046 0.0
H723 H 0.70652 0.75515 0.67649 0.0
H724 H 0.73683 0.70286 0.69051 0.0
H725 H 0.7696 0.70135 0.78679 0.0
H726 H 0.86362 0.56558 0.82711 0.0
H727 H 0.84421 0.62406 0.80527 0.0
H728 H 0.80526 0.62283 0.71549 0.0
C729 C 0.73774 0.72708 0.70475 0.0
C730 C 0.77777 0.6853 0.77093 0.0
C731 C 0.72026 0.75688 0.6967 0.0
C732 C 0.84891 0.56392 0.80766 0.0
C733 C 0.83771 0.5973 0.79531 0.0
C734 C 0.79775 0.64019 0.73115 0.0
C735 C 0.75521 0.72791 0.73141 0.0
C736 C 0.77234 0.69493 0.74136 0.0
C737 C 0.81756 0.5961 0.77103 0.0
C738 C 0.80304 0.63088 0.76068 0.0
H739 H 0.73748 0.813 0.75599 0.0
H740 H 0.76887 0.76229 0.76951 0.0
H741 H 0.77935 0.67882 0.69875 0.0
H742 H 0.81334 0.50079 0.76186 0.0
H743 H 0.79404 0.55934 0.73989 0.0
C744 C 0.41738 0.07461 0.42889 0.0
C745 C 0.39629 0.04938 0.42614 0.0
C746 C 0.44104 0.06608 0.44717 0.0
C747 C 0.46865 0.00382 0.50915 0.0
H748 H 0.53489 0.02807 0.4873 0.0
C749 C 0.56648 0.94296 0.56929 0.0
C750 C 0.58761 0.96812 0.57563 0.0
C751 C 0.54329 0.95392 0.55126 0.0
C752 C 0.51653 0.0214 0.4938 0.0
H753 H 0.38385 0.99495 0.4399 0.0
H754 H 0.42489 0.97985 0.47091 0.0
H755 H 0.49436 0.04573 0.45533 0.0
H756 H 0.60029 0.02509 0.56801 0.0
H757 H 0.5602 0.04366 0.53634 0.0
H758 H 0.49082 0.97894 0.54736 0.0
C759 C 0.42311 0.00669 0.45971 0.0
C760 C 0.49328 0.03164 0.47553 0.0
C761 C 0.39954 0.01528 0.44167 0.0
C762 C 0.58481 0.00453 0.56336 0.0
C763 C 0.56173 0.01533 0.54516 0.0
C764 C 0.49184 0.99336 0.52726 0.0
C765 C 0.44413 0.03206 0.46298 0.0
C766 C 0.46901 0.02272 0.48286 0.0
C767 C 0.54068 0.99019 0.53892 0.0
C768 C 0.51605 0.00183 0.51975 0.0
H769 H 0.41551 0.10113 0.41723 0.0
H770 H 0.45673 0.08644 0.44931 0.0
H771 H 0.45038 -0.00277 0.51589 0.0
H772 H 0.56785 0.91458 0.57788 0.0
H773 H 0.52751 0.93373 0.5466 0.0
C774 C 0.61258 0.06386 0.10918 0.0
C775 C 0.63604 0.05886 0.09887 0.0
C776 C 0.58875 0.05396 0.09186 0.0
C777 C 0.55668 0.04102 0.0166 0.0
H778 H 0.51014 0.97245 0.0467 0.0
C779 C 0.45261 0.00662 0.95647 0.0
C780 C 0.44608 0.96814 0.95369 0.0
C781 C 0.47561 0.01821 0.97435 0.0
C782 C 0.523 0.99157 0.03805 0.0
H783 H 0.6529 0.04063 0.06215 0.0
H784 H 0.61137 0.02435 0.03179 0.0
H785 H 0.55039 0.99351 0.07806 0.0
H786 H 0.45834 0.91164 0.96755 0.0
H787 H 0.49858 0.93201 0.99938 0.0
H788 H 0.5293 0.03932 0.97668 0.0
C789 C 0.61139 0.03552 0.05329 0.0
C790 C 0.54584 0.00385 0.05602 0.0
C791 C 0.63516 0.04469 0.07074 0.0
C792 C 0.46302 0.94143 0.9692 0.0
C793 C 0.48586 0.95309 0.98753 0.0
C794 C 0.53365 0.02927 0.99881 0.0
C795 C 0.58799 0.03968 0.06376 0.0
C796 C 0.563 0.02843 0.04537 0.0
C797 C 0.49239 0.99161 0.9902 0.0
C798 C 0.51669 0.0042 1.00927 0.0
H799 H 0.61266 0.07448 0.13081 0.0
H800 H 0.57093 0.05757 0.10037 0.0
H801 H 0.56955 0.06005 1.00789 0.0
H802 H 0.44002 0.02776 0.94456 0.0
H803 H 0.48012 0.04807 0.97609 0.0
C804 C 0.09017 0.49783 0.55903 0.0
C805 C 0.09175 0.4622 0.57253 0.0
C806 C 0.0673 0.50946 0.54084 0.0
C807 C 1.00593 0.47223 0.4976 0.0
H808 H 0.98286 0.57634 0.49901 0.0
C809 C 0.90257 0.51877 0.44552 0.0
C810 C 0.89963 0.55223 0.42915 0.0
C811 C 0.92667 0.50881 0.46186 0.0
C812 C 0.98923 0.54729 0.49812 0.0
H813 H 0.07012 0.41101 0.57725 0.0
H814 H 0.03009 0.43172 0.54631 0.0
H815 H 0.02326 0.55676 0.53031 0.0
H816 H 0.91983 0.60166 0.41733 0.0
H817 H 0.96216 0.58427 0.44629 0.0
H818 H 0.97162 0.46265 0.46585 0.0
C819 C 0.04676 0.45042 0.54938 0.0
C820 C 1.01239 0.53602 0.51605 0.0
C821 C 0.06969 0.4387 0.56749 0.0
C822 C 0.92144 0.57571 0.42971 0.0
C823 C 0.94562 0.56583 0.44635 0.0
C824 C 0.98273 0.48344 0.47985 0.0
C825 C 0.04529 0.48592 0.53572 0.0
C826 C 0.02094 0.49825 0.51619 0.0
C827 C 0.94849 0.53212 0.46246 0.0
C828 C 0.97399 0.52101 0.48009 0.0
H829 H 0.10652 0.51704 0.56261 0.0
H830 H 0.06703 0.53681 0.5305 0.0
H831 H 1.01216 0.44315 0.49661 0.0
H832 H 0.88624 0.49998 0.44568 0.0
H833 H 0.92813 0.48296 0.47436 0.0
C834 C 0.11017 0.56886 0.10225 0.0
C835 C 0.13339 0.55224 0.09703 0.0
C836 C 0.0861 0.55876 0.08544 0.0
C837 C 0.05512 0.48227 0.03659 0.0
H838 H 1.00101 0.55661 1.01226 0.0
C839 C 0.96431 0.45068 0.94929 0.0
C840 C 0.94015 0.46446 0.95417 0.0
C841 C 0.98752 0.46124 0.96746 0.0
C842 C 0.01584 0.53543 0.01912 0.0
H843 H 0.14952 0.51291 0.06939 0.0
H844 H 0.10801 0.4961 0.04001 0.0
H845 H 0.04193 0.576 0.04261 0.0
H846 H 0.92169 0.49941 0.98276 0.0
H847 H 0.96205 0.51798 1.01407 0.0
H848 H 0.02918 0.44182 1.01283 0.0
C849 C 0.10813 0.51611 0.0575 0.0
C850 C 0.03929 0.54654 0.03658 0.0
C851 C 0.13204 0.52601 0.0743 0.0
C852 C 0.93986 0.48876 0.97789 0.0
C853 C 0.96305 0.49944 0.99593 0.0
C854 C 0.03177 0.47123 0.01904 0.0
C855 C 0.08478 0.53195 0.06301 0.0
C856 C 0.05933 0.52014 0.04537 0.0
C857 C 0.98718 0.48595 0.99089 0.0
C858 C 1.01188 0.49769 1.00996 0.0
H859 H 0.11052 0.58916 0.11958 0.0
H860 H 0.06851 0.57138 0.09043 0.0
H861 H 0.06985 0.46096 0.04343 0.0
H862 H 0.96541 0.43235 0.9311 0.0
H863 H 1.00581 0.45066 0.96277 0.0
loop_
_geom_bond_atom_site_label_1
_geom_bond_atom_site_label_2
_geom_bond_distance
_geom_bond_site_symmetry_2
_ccdc_geom_bond_type
C0 C1 1.351 . S
C0 N3 1.368 . S
C0 H5 0.931 . S
C1 C0 1.351 . S
C1 N2 1.373 . S
C1 H29 0.930 . S
N2 C1 1.373 . S
N2 C4 1.340 . S
N3 C0 1.368 . S
N3 C4 1.321 . S
N3 Co6 2.135 . S
C4 N2 1.340 . S
C4 N3 1.321 . S
C4 H28 0.930 . S
H5 C0 0.931 . S
Co6 N3 2.135 . S
Co6 N9 2.121 . S
Co6 O14 2.055 . S
Co6 O17 2.039 . S
Co6 N20 2.140 . S
C7 O8 1.227 . S
C7 O17 1.265 . S
O8 C7 1.227 . S
N9 Co6 2.121 . S
N9 C11 1.375 . S
N9 C12 1.313 . S
C10 C11 1.338 . S
C10 N13 1.377 . S
C10 H30 0.930 . S
C11 N9 1.375 . S
C11 C10 1.338 . S
C11 H15 0.931 . S
C12 N9 1.313 . S
C12 N13 1.344 . S
C12 H16 0.930 . S
N13 C10 1.377 . S
N13 C12 1.344 . S
O14 Co6 2.055 . S
O14 C18 1.253 . S
H15 C11 0.931 . S
H16 C12 0.930 . S
O17 Co6 2.039 . S
O17 C7 1.265 . S
C18 O14 1.253 . S
C18 O19 1.227 . S
O19 C18 1.227 . S
N20 Co6 2.140 . S
N20 C23 1.346 . S
N20 C24 1.345 . S
C21 C22 1.387 . S
C21 C25 1.391 . S
C22 C21 1.387 . S
C22 C23 1.369 . S
C22 H31 0.929 . S
C23 N20 1.346 . S
C23 C22 1.369 . S
C23 H26 0.928 . S
C24 N20 1.345 . S
C24 C25 1.371 . S
C24 H27 0.931 . S
C25 C21 1.391 . S
C25 C24 1.371 . S
C25 H32 0.930 . S
H26 C23 0.928 . S
H27 C24 0.931 . S
H28 C4 0.930 . S
H29 C1 0.930 . S
H30 C10 0.930 . S
H31 C22 0.929 . S
H32 C25 0.930 . S
C33 C34 1.351 . S
C33 N36 1.368 . S
C33 H38 0.931 . S
C34 C33 1.351 . S
C34 N35 1.373 . S
C34 H62 0.930 . S
N35 C34 1.373 . S
N35 C37 1.340 . S
N36 C33 1.368 . S
N36 C37 1.321 . S
N36 Co39 2.135 . S
C37 N35 1.340 . S
C37 N36 1.321 . S
C37 H61 0.930 . S
H38 C33 0.931 . S
Co39 N36 2.135 . S
Co39 N42 2.121 . S
Co39 O47 2.055 . S
Co39 O50 2.039 . S
Co39 N53 2.140 . S
C40 O41 1.227 . S
C40 O50 1.265 . S
O41 C40 1.227 . S
N42 Co39 2.121 . S
N42 C44 1.375 . S
N42 C45 1.313 . S
C43 C44 1.338 . S
C43 N46 1.377 . S
C43 H63 0.930 . S
C44 N42 1.375 . S
C44 C43 1.338 . S
C44 H48 0.931 . S
C45 N42 1.313 . S
C45 N46 1.344 . S
C45 H49 0.930 . S
N46 C43 1.377 . S
N46 C45 1.344 . S
O47 Co39 2.055 . S
O47 C51 1.253 . S
H48 C44 0.931 . S
H49 C45 0.930 . S
O50 Co39 2.039 . S
O50 C40 1.265 . S
C51 O47 1.253 . S
C51 O52 1.227 . S
O52 C51 1.227 . S
N53 Co39 2.140 . S
N53 C56 1.346 . S
N53 C57 1.345 . S
C54 C55 1.387 . S
C54 C58 1.391 . S
C55 C54 1.387 . S
C55 C56 1.369 . S
C55 H64 0.929 . S
C56 N53 1.346 . S
C56 C55 1.369 . S
C56 H59 0.928 . S
C57 N53 1.345 . S
C57 C58 1.371 . S
C57 H60 0.931 . S
C58 C54 1.391 . S
C58 C57 1.371 . S
C58 H65 0.930 . S
H59 C56 0.928 . S
H60 C57 0.931 . S
H61 C37 0.930 . S
H62 C34 0.930 . S
H63 C43 0.930 . S
H64 C55 0.929 . S
H65 C58 0.930 . S
C66 C67 1.351 . S
C66 N69 1.368 . S
C66 H71 0.931 . S
C67 C66 1.351 . S
C67 N68 1.373 . S
C67 H95 0.930 . S
N68 C67 1.373 . S
N68 C70 1.340 . S
N69 C66 1.368 . S
N69 C70 1.321 . S
N69 Co72 2.135 . S
C70 N68 1.340 . S
C70 N69 1.321 . S
C70 H94 0.930 . S
H71 C66 0.931 . S
Co72 N69 2.135 . S
Co72 N75 2.121 . S
Co72 O80 2.055 . S
Co72 O83 2.039 . S
Co72 N86 2.140 . S
C73 O74 1.227 . S
C73 O83 1.265 . S
O74 C73 1.227 . S
N75 Co72 2.121 . S
N75 C77 1.375 . S
N75 C78 1.313 . S
C76 C77 1.338 . S
C76 N79 1.377 . S
C76 H96 0.930 . S
C77 N75 1.375 . S
C77 C76 1.338 . S
C77 H81 0.931 . S
C78 N75 1.313 . S
C78 N79 1.344 . S
C78 H82 0.930 . S
N79 C76 1.377 . S
N79 C78 1.344 . S
O80 Co72 2.055 . S
O80 C84 1.253 . S
H81 C77 0.931 . S
H82 C78 0.930 . S
O83 Co72 2.039 . S
O83 C73 1.265 . S
C84 O80 1.253 . S
C84 O85 1.227 . S
O85 C84 1.227 . S
N86 Co72 2.140 . S
N86 C89 1.346 . S
N86 C90 1.345 . S
C87 C88 1.387 . S
C87 C91 1.391 . S
C88 C87 1.387 . S
C88 C89 1.369 . S
C88 H97 0.929 1_565 S
C89 N86 1.346 . S
C89 C88 1.369 . S
C89 H92 0.928 . S
C90 N86 1.345 . S
C90 C91 1.371 . S
C90 H93 0.931 . S
C91 C87 1.391 . S
C91 C90 1.371 . S
C91 H98 0.930 . S
H92 C89 0.928 . S
H93 C90 0.931 . S
H94 C70 0.930 . S
H95 C67 0.930 . S
H96 C76 0.930 . S
H97 C88 0.929 1_545 S
H98 C91 0.930 . S
C99 C100 1.351 . S
C99 N102 1.368 . S
C99 H104 0.931 . S
C100 C99 1.351 . S
C100 N101 1.373 . S
C100 H128 0.930 . S
N101 C100 1.373 . S
N101 C103 1.340 . S
N102 C99 1.368 . S
N102 C103 1.321 . S
N102 Co105 2.135 . S
C103 N101 1.340 . S
C103 N102 1.321 . S
C103 H127 0.930 . S
H104 C99 0.931 . S
Co105 N102 2.135 . S
Co105 N108 2.121 . S
Co105 O113 2.055 . S
Co105 O116 2.039 . S
Co105 N119 2.140 . S
C106 O107 1.227 . S
C106 O116 1.265 . S
O107 C106 1.227 . S
N108 Co105 2.121 . S
N108 C110 1.375 . S
N108 C111 1.313 . S
C109 C110 1.338 . S
C109 N112 1.377 . S
C109 H129 0.930 . S
C110 N108 1.375 . S
C110 C109 1.338 . S
C110 H114 0.931 . S
C111 N108 1.313 . S
C111 N112 1.344 . S
C111 H115 0.930 . S
N112 C109 1.377 . S
N112 C111 1.344 . S
O113 Co105 2.055 . S
O113 C117 1.253 . S
H114 C110 0.931 . S
H115 C111 0.930 . S
O116 Co105 2.039 . S
O116 C106 1.265 . S
C117 O113 1.253 . S
C117 O118 1.227 . S
O118 C117 1.227 . S
N119 Co105 2.140 . S
N119 C122 1.346 . S
N119 C123 1.345 . S
C120 C121 1.387 . S
C120 C124 1.391 . S
C121 C120 1.387 . S
C121 C122 1.369 . S
C121 H130 0.929 1_565 S
C122 N119 1.346 . S
C122 C121 1.369 . S
C122 H125 0.928 . S
C123 N119 1.345 . S
C123 C124 1.371 . S
C123 H126 0.931 . S
C124 C120 1.391 . S
C124 C123 1.371 . S
C124 H131 0.930 . S
H125 C122 0.928 . S
H126 C123 0.931 . S
H127 C103 0.930 . S
H128 C100 0.930 . S
H129 C109 0.930 . S
H130 C121 0.929 1_545 S
H131 C124 0.930 . S
C132 C133 1.351 . S
C132 N135 1.368 . S
C132 H137 0.931 . S
C133 C132 1.351 . S
C133 N134 1.373 . S
C133 H161 0.930 . S
N134 C133 1.373 . S
N134 C136 1.340 . S
N135 C132 1.368 . S
N135 C136 1.321 . S
N135 Co138 2.135 . S
C136 N134 1.340 . S
C136 N135 1.321 . S
C136 H160 0.930 . S
H137 C132 0.931 . S
Co138 N135 2.135 . S
Co138 N141 2.121 . S
Co138 O146 2.055 . S
Co138 O149 2.039 . S
Co138 N152 2.140 . S
C139 O140 1.227 . S
C139 O149 1.265 . S
O140 C139 1.227 . S
N141 Co138 2.121 . S
N141 C143 1.375 . S
N141 C144 1.313 . S
C142 C143 1.338 . S
C142 N145 1.377 . S
C142 H162 0.930 . S
C143 N141 1.375 . S
C143 C142 1.338 . S
C143 H147 0.931 . S
C144 N141 1.313 . S
C144 N145 1.344 . S
C144 H148 0.930 . S
N145 C142 1.377 . S
N145 C144 1.344 . S
O146 Co138 2.055 . S
O146 C150 1.253 . S
H147 C143 0.931 . S
H148 C144 0.930 . S
O149 Co138 2.039 . S
O149 C139 1.265 . S
C150 O146 1.253 . S
C150 O151 1.227 . S
O151 C150 1.227 . S
N152 Co138 2.140 . S
N152 C155 1.346 . S
N152 C156 1.345 . S
C153 C154 1.387 . S
C153 C157 1.391 . S
C154 C153 1.387 . S
C154 C155 1.369 . S
C154 H163 0.929 . S
C155 N152 1.346 . S
C155 C154 1.369 . S
C155 H158 0.928 . S
C156 N152 1.345 . S
C156 C157 1.371 . S
C156 H159 0.931 . S
C157 C153 1.391 . S
C157 C156 1.371 . S
C157 H164 0.930 . S
H158 C155 0.928 . S
H159 C156 0.931 . S
H160 C136 0.930 . S
H161 C133 0.930 . S
H162 C142 0.930 . S
H163 C154 0.929 . S
H164 C157 0.930 . S
C165 C166 1.351 . S
C165 N168 1.368 . S
C165 H170 0.931 . S
C166 C165 1.351 . S
C166 N167 1.373 . S
C166 H194 0.930 . S
N167 C166 1.373 . S
N167 C169 1.340 . S
N168 C165 1.368 . S
N168 C169 1.321 . S
N168 Co171 2.135 . S
C169 N167 1.340 . S
C169 N168 1.321 . S
C169 H193 0.930 . S
H170 C165 0.931 . S
Co171 N168 2.135 . S
Co171 N174 2.121 . S
Co171 O179 2.055 . S
Co171 O182 2.039 . S
Co171 N185 2.140 . S
C172 O173 1.227 . S
C172 O182 1.265 . S
O173 C172 1.227 . S
N174 Co171 2.121 . S
N174 C176 1.375 . S
N174 C177 1.313 . S
C175 C176 1.338 . S
C175 N178 1.377 . S
C175 H195 0.930 . S
C176 N174 1.375 . S
C176 C175 1.338 . S
C176 H180 0.931 . S
C177 N174 1.313 . S
C177 N178 1.344 . S
C177 H181 0.930 . S
N178 C175 1.377 . S
N178 C177 1.344 . S
O179 Co171 2.055 . S
O179 C183 1.253 . S
H180 C176 0.931 . S
H181 C177 0.930 . S
O182 Co171 2.039 . S
O182 C172 1.265 . S
C183 O179 1.253 . S
C183 O184 1.227 . S
O184 C183 1.227 . S
N185 Co171 2.140 . S
N185 C188 1.346 . S
N185 C189 1.345 . S
C186 C187 1.387 . S
C186 C190 1.391 . S
C187 C186 1.387 . S
C187 C188 1.369 . S
C187 H196 0.929 . S
C188 N185 1.346 . S
C188 C187 1.369 . S
C188 H191 0.928 . S
C189 N185 1.345 . S
C189 C190 1.371 . S
C189 H192 0.931 . S
C190 C186 1.391 . S
C190 C189 1.371 . S
C190 H197 0.930 . S
H191 C188 0.928 . S
H192 C189 0.931 . S
H193 C169 0.930 . S
H194 C166 0.930 . S
H195 C175 0.930 . S
H196 C187 0.929 . S
H197 C190 0.930 . S
C198 C199 1.351 . S
C198 N201 1.368 . S
C198 H203 0.931 . S
C199 C198 1.351 . S
C199 N200 1.373 . S
C199 H227 0.930 . S
N200 C199 1.373 . S
N200 C202 1.340 . S
N201 C198 1.368 . S
N201 C202 1.321 . S
N201 Co204 2.135 . S
C202 N200 1.340 . S
C202 N201 1.321 . S
C202 H226 0.930 . S
H203 C198 0.931 . S
Co204 N201 2.135 . S
Co204 N207 2.121 . S
Co204 O212 2.055 . S
Co204 O215 2.039 . S
Co204 N218 2.140 . S
C205 O206 1.227 . S
C205 O215 1.265 . S
O206 C205 1.227 . S
N207 Co204 2.121 . S
N207 C209 1.375 . S
N207 C210 1.313 . S
C208 C209 1.338 . S
C208 N211 1.377 . S
C208 H228 0.930 . S
C209 N207 1.375 . S
C209 C208 1.338 . S
C209 H213 0.931 . S
C210 N207 1.313 . S
C210 N211 1.344 . S
C210 H214 0.930 . S
N211 C208 1.377 . S
N211 C210 1.344 . S
O212 Co204 2.055 . S
O212 C216 1.253 . S
H213 C209 0.931 . S
H214 C210 0.930 . S
O215 Co204 2.039 . S
O215 C205 1.265 . S
C216 O212 1.253 . S
C216 O217 1.227 . S
O217 C216 1.227 . S
N218 Co204 2.140 . S
N218 C221 1.346 . S
N218 C222 1.345 . S
C219 C220 1.387 . S
C219 C223 1.391 . S
C220 C219 1.387 . S
C220 C221 1.369 . S
C220 H229 0.929 . S
C221 N218 1.346 . S
C221 C220 1.369 . S
C221 H224 0.928 . S
C222 N218 1.345 . S
C222 C223 1.371 . S
C222 H225 0.931 . S
C223 C219 1.391 . S
C223 C222 1.371 . S
C223 H230 0.930 . S
H224 C221 0.928 . S
H225 C222 0.931 . S
H226 C202 0.930 . S
H227 C199 0.930 . S
H228 C208 0.930 . S
H229 C220 0.929 . S
H230 C223 0.930 . S
C231 C232 1.351 . S
C231 N234 1.368 . S
C231 H236 0.931 . S
C232 C231 1.351 . S
C232 N233 1.373 . S
C232 H260 0.930 . S
N233 C232 1.373 . S
N233 C235 1.340 . S
N234 C231 1.368 . S
N234 C235 1.321 . S
N234 Co237 2.135 . S
C235 N233 1.340 . S
C235 N234 1.321 . S
C235 H259 0.930 . S
H236 C231 0.931 . S
Co237 N234 2.135 . S
Co237 N240 2.121 . S
Co237 O245 2.055 . S
Co237 O248 2.039 . S
Co237 N251 2.140 . S
C238 O239 1.227 . S
C238 O248 1.265 . S
O239 C238 1.227 . S
N240 Co237 2.121 . S
N240 C242 1.375 . S
N240 C243 1.313 . S
C241 C242 1.338 . S
C241 N244 1.377 . S
C241 H261 0.930 . S
C242 N240 1.375 . S
C242 C241 1.338 . S
C242 H246 0.931 . S
C243 N240 1.313 . S
C243 N244 1.344 . S
C243 H247 0.930 . S
N244 C241 1.377 . S
N244 C243 1.344 . S
O245 Co237 2.055 . S
O245 C249 1.253 . S
H246 C242 0.931 . S
H247 C243 0.930 . S
O248 Co237 2.039 . S
O248 C238 1.265 . S
C249 O245 1.253 . S
C249 O250 1.227 . S
O250 C249 1.227 . S
N251 Co237 2.140 . S
N251 C254 1.346 . S
N251 C255 1.345 . S
C252 C253 1.387 . S
C252 C256 1.391 . S
C253 C252 1.387 . S
C253 C254 1.369 . S
C253 H262 0.929 . S
C254 N251 1.346 . S
C254 C253 1.369 . S
C254 H257 0.928 . S
C255 N251 1.345 . S
C255 C256 1.371 . S
C255 H258 0.931 . S
C256 C252 1.391 . S
C256 C255 1.371 . S
C256 H263 0.930 . S
H257 C254 0.928 . S
H258 C255 0.931 . S
H259 C235 0.930 . S
H260 C232 0.930 . S
H261 C241 0.930 . S
H262 C253 0.929 . S
H263 C256 0.930 . S
C264 C265 1.349 . S
C264 C266 1.327 . S
C264 H289 0.950 . S
C265 C264 1.349 . S
C265 C281 1.349 . S
C266 C264 1.327 . S
C266 C285 1.429 . S
C266 H290 0.950 . S
C267 C284 1.574 . S
C267 C286 1.368 . S
C267 H291 0.949 . S
H268 C272 0.949 . S
C269 C270 1.349 . S
C269 C271 1.327 . S
C269 H292 0.950 . S
C270 C269 1.349 . S
C270 C282 1.349 . S
C271 C269 1.327 . S
C271 C287 1.429 . S
C271 H293 0.950 . S
C272 H268 0.949 . S
C272 C280 1.574 . S
C272 C288 1.368 . S
H273 C281 0.950 . S
H274 C279 0.950 . S
H275 C280 0.949 . S
H276 C282 0.950 . S
H277 C283 0.950 . S
H278 C284 0.949 . S
C279 H274 0.950 . S
C279 C281 1.327 . S
C279 C285 1.429 . S
C280 C272 1.574 . S
C280 H275 0.949 . S
C280 C286 1.368 . S
C281 C265 1.349 . S
C281 H273 0.950 . S
C281 C279 1.327 . S
C282 C270 1.349 . S
C282 H276 0.950 . S
C282 C283 1.327 . S
C283 H277 0.950 . S
C283 C282 1.327 . S
C283 C287 1.429 . S
C284 C267 1.574 . S
C284 H278 0.949 . S
C284 C288 1.368 . S
C285 C266 1.429 . S
C285 C279 1.429 . S
C285 C286 1.523 . S
C286 C267 1.368 . S
C286 C280 1.368 . S
C286 C285 1.523 . S
C287 C271 1.429 . S
C287 C283 1.429 . S
C287 C288 1.523 . S
C288 C272 1.368 . S
C288 C284 1.368 . S
C288 C287 1.523 . S
H289 C264 0.950 . S
H290 C266 0.950 . S
H291 C267 0.949 . S
H292 C269 0.950 . S
H293 C271 0.950 . S
C294 C295 1.349 . S
C294 C296 1.327 . S
C294 H319 0.950 . S
C295 C294 1.349 . S
C295 C311 1.349 . S
C296 C294 1.327 . S
C296 C315 1.429 . S
C296 H320 0.950 . S
C297 C314 1.574 . S
C297 C316 1.368 1_556 S
C297 H321 0.949 . S
H298 C302 0.949 . S
C299 C300 1.349 . S
C299 C301 1.327 . S
C299 H322 0.950 . S
C300 C299 1.349 . S
C300 C312 1.349 . S
C301 C299 1.327 . S
C301 C317 1.429 . S
C301 H323 0.950 . S
C302 H298 0.949 . S
C302 C310 1.574 . S
C302 C318 1.368 1_554 S
H303 C311 0.950 . S
H304 C309 0.950 . S
H305 C310 0.949 . S
H306 C312 0.950 . S
H307 C313 0.950 . S
H308 C314 0.949 . S
C309 H304 0.950 . S
C309 C311 1.327 . S
C309 C315 1.429 . S
C310 C302 1.574 . S
C310 H305 0.949 . S
C310 C316 1.368 . S
C311 C295 1.349 . S
C311 H303 0.950 . S
C311 C309 1.327 . S
C312 C300 1.349 . S
C312 H306 0.950 . S
C312 C313 1.327 . S
C313 H307 0.950 . S
C313 C312 1.327 . S
C313 C317 1.429 . S
C314 C297 1.574 . S
C314 H308 0.949 . S
C314 C318 1.368 . S
C315 C296 1.429 . S
C315 C309 1.429 . S
C315 C316 1.523 . S
C316 C297 1.368 1_554 S
C316 C310 1.368 . S
C316 C315 1.523 . S
C317 C301 1.429 . S
C317 C313 1.429 . S
C317 C318 1.523 . S
C318 C302 1.368 1_556 S
C318 C314 1.368 . S
C318 C317 1.523 . S
H319 C294 0.950 . S
H320 C296 0.950 . S
H321 C297 0.949 . S
H322 C299 0.950 . S
H323 C301 0.950 . S
C324 C325 1.349 . S
C324 C326 1.327 . S
C324 H349 0.950 . S
C325 C324 1.349 . S
C325 C341 1.349 . S
C326 C324 1.327 . S
C326 C345 1.429 . S
C326 H350 0.950 . S
C327 C344 1.574 . S
C327 C346 1.368 . S
C327 H351 0.949 . S
H328 C332 0.949 . S
C329 C330 1.349 . S
C329 C331 1.327 . S
C329 H352 0.950 . S
C330 C329 1.349 . S
C330 C342 1.349 . S
C331 C329 1.327 . S
C331 C347 1.429 . S
C331 H353 0.950 . S
C332 H328 0.949 . S
C332 C340 1.574 . S
C332 C348 1.368 . S
H333 C341 0.950 . S
H334 C339 0.950 . S
H335 C340 0.949 . S
H336 C342 0.950 . S
H337 C343 0.950 . S
H338 C344 0.949 . S
C339 H334 0.950 . S
C339 C341 1.327 . S
C339 C345 1.429 . S
C340 C332 1.574 . S
C340 H335 0.949 . S
C340 C346 1.368 . S
C341 C325 1.349 . S
C341 H333 0.950 . S
C341 C339 1.327 . S
C342 C330 1.349 . S
C342 H336 0.950 . S
C342 C343 1.327 . S
C343 H337 0.950 . S
C343 C342 1.327 . S
C343 C347 1.429 . S
C344 C327 1.574 . S
C344 H338 0.949 . S
C344 C348 1.368 . S
C345 C326 1.429 . S
C345 C339 1.429 . S
C345 C346 1.523 . S
C346 C327 1.368 . S
C346 C340 1.368 . S
C346 C345 1.523 . S
C347 C331 1.429 . S
C347 C343 1.429 . S
C347 C348 1.523 . S
C348 C332 1.368 . S
C348 C344 1.368 . S
C348 C347 1.523 . S
H349 C324 0.950 . S
H350 C326 0.950 . S
H351 C327 0.949 . S
H352 C329 0.950 . S
H353 C331 0.950 . S
C354 C355 1.349 . S
C354 C356 1.327 . S
C354 H379 0.950 . S
C355 C354 1.349 . S
C355 C371 1.349 . S
C356 C354 1.327 . S
C356 C375 1.429 . S
C356 H380 0.950 . S
C357 C374 1.574 1_556 S
C357 C376 1.368 . S
C357 H381 0.949 . S
H358 C362 0.949 . S
C359 C360 1.349 . S
C359 C361 1.327 . S
C359 H382 0.950 . S
C360 C359 1.349 . S
C360 C372 1.349 . S
C361 C359 1.327 . S
C361 C377 1.429 . S
C361 H383 0.950 . S
C362 H358 0.949 . S
C362 C370 1.574 1_554 S
C362 C378 1.368 . S
H363 C371 0.950 . S
H364 C369 0.950 . S
H365 C370 0.949 . S
H366 C372 0.950 . S
H367 C373 0.950 . S
H368 C374 0.949 . S
C369 H364 0.950 . S
C369 C371 1.327 . S
C369 C375 1.429 . S
C370 C362 1.574 1_556 S
C370 H365 0.949 . S
C370 C376 1.368 . S
C371 C355 1.349 . S
C371 H363 0.950 . S
C371 C369 1.327 . S
C372 C360 1.349 . S
C372 H366 0.950 . S
C372 C373 1.327 . S
C373 H367 0.950 . S
C373 C372 1.327 . S
C373 C377 1.429 . S
C374 C357 1.574 1_554 S
C374 H368 0.949 . S
C374 C378 1.368 . S
C375 C356 1.429 . S
C375 C369 1.429 . S
C375 C376 1.523 . S
C376 C357 1.368 . S
C376 C370 1.368 . S
C376 C375 1.523 . S
C377 C361 1.429 . S
C377 C373 1.429 . S
C377 C378 1.523 . S
C378 C362 1.368 . S
C378 C374 1.368 . S
C378 C377 1.523 . S
H379 C354 0.950 . S
H380 C356 0.950 . S
H381 C357 0.949 . S
H382 C359 0.950 . S
H383 C361 0.950 . S
C384 C385 1.349 . S
C384 C386 1.327 . S
C384 H409 0.950 . S
C385 C384 1.349 . S
C385 C401 1.349 . S
C386 C384 1.327 . S
C386 C405 1.429 . S
C386 H410 0.950 . S
C387 C404 1.574 . S
C387 C406 1.368 . S
C387 H411 0.949 . S
H388 C392 0.949 . S
C389 C390 1.349 . S
C389 C391 1.327 . S
C389 H412 0.950 . S
C390 C389 1.349 . S
C390 C402 1.349 . S
C391 C389 1.327 . S
C391 C407 1.429 . S
C391 H413 0.950 . S
C392 H388 0.949 . S
C392 C400 1.574 . S
C392 C408 1.368 . S
H393 C401 0.950 . S
H394 C399 0.950 . S
H395 C400 0.949 . S
H396 C402 0.950 . S
H397 C403 0.950 . S
H398 C404 0.949 . S
C399 H394 0.950 . S
C399 C401 1.327 . S
C399 C405 1.429 . S
C400 C392 1.574 . S
C400 H395 0.949 . S
C400 C406 1.368 . S
C401 C385 1.349 . S
C401 H393 0.950 . S
C401 C399 1.327 . S
C402 C390 1.349 . S
C402 H396 0.950 . S
C402 C403 1.327 . S
C403 H397 0.950 . S
C403 C402 1.327 . S
C403 C407 1.429 . S
C404 C387 1.574 . S
C404 H398 0.949 . S
C404 C408 1.368 . S
C405 C386 1.429 . S
C405 C399 1.429 . S
C405 C406 1.523 . S
C406 C387 1.368 . S
C406 C400 1.368 . S
C406 C405 1.523 . S
C407 C391 1.429 . S
C407 C403 1.429 . S
C407 C408 1.523 . S
C408 C392 1.368 . S
C408 C404 1.368 . S
C408 C407 1.523 . S
H409 C384 0.950 . S
H410 C386 0.950 . S
H411 C387 0.949 . S
H412 C389 0.950 . S
H413 C391 0.950 . S
C414 C415 1.349 . S
C414 C416 1.327 . S
C414 H439 0.950 . S
C415 C414 1.349 . S
C415 C431 1.349 . S
C416 C414 1.327 . S
C416 C435 1.429 . S
C416 H440 0.950 . S
C417 C434 1.574 . S
C417 C436 1.368 . S
C417 H441 0.949 . S
H418 C422 0.949 . S
C419 C420 1.349 . S
C419 C421 1.327 . S
C419 H442 0.950 . S
C420 C419 1.349 . S
C420 C432 1.349 . S
C421 C419 1.327 . S
C421 C437 1.429 . S
C421 H443 0.950 . S
C422 H418 0.949 . S
C422 C430 1.574 . S
C422 C438 1.368 . S
H423 C431 0.950 . S
H424 C429 0.950 . S
H425 C430 0.949 . S
H426 C432 0.950 . S
H427 C433 0.950 . S
H428 C434 0.949 . S
C429 H424 0.950 . S
C429 C431 1.327 . S
C429 C435 1.429 . S
C430 C422 1.574 . S
C430 H425 0.949 . S
C430 C436 1.368 . S
C431 C415 1.349 . S
C431 H423 0.950 . S
C431 C429 1.327 . S
C432 C420 1.349 . S
C432 H426 0.950 . S
C432 C433 1.327 . S
C433 H427 0.950 . S
C433 C432 1.327 . S
C433 C437 1.429 . S
C434 C417 1.574 . S
C434 H428 0.949 . S
C434 C438 1.368 . S
C435 C416 1.429 . S
C435 C429 1.429 . S
C435 C436 1.523 . S
C436 C417 1.368 . S
C436 C430 1.368 . S
C436 C435 1.523 . S
C437 C421 1.429 . S
C437 C433 1.429 . S
C437 C438 1.523 . S
C438 C422 1.368 . S
C438 C434 1.368 . S
C438 C437 1.523 . S
H439 C414 0.950 . S
H440 C416 0.950 . S
H441 C417 0.949 . S
H442 C419 0.950 . S
H443 C421 0.950 . S
C444 C445 1.349 . S
C444 C446 1.327 . S
C444 H469 0.950 . S
C445 C444 1.349 . S
C445 C461 1.349 . S
C446 C444 1.327 . S
C446 C465 1.429 . S
C446 H470 0.950 . S
C447 C464 1.574 1_455 S
C447 C466 1.368 . S
C447 H471 0.949 . S
H448 C452 0.949 . S
C449 C450 1.349 . S
C449 C451 1.327 . S
C449 H472 0.950 . S
C450 C449 1.349 . S
C450 C462 1.349 . S
C451 C449 1.327 . S
C451 C467 1.429 . S
C451 H473 0.950 . S
C452 H448 0.949 . S
C452 C460 1.574 1_655 S
C452 C468 1.368 . S
H453 C461 0.950 . S
H454 C459 0.950 . S
H455 C460 0.949 . S
H456 C462 0.950 . S
H457 C463 0.950 . S
H458 C464 0.949 . S
C459 H454 0.950 . S
C459 C461 1.327 . S
C459 C465 1.429 . S
C460 C452 1.574 1_455 S
C460 H455 0.949 . S
C460 C466 1.368 . S
C461 C445 1.349 . S
C461 H453 0.950 . S
C461 C459 1.327 . S
C462 C450 1.349 . S
C462 H456 0.950 . S
C462 C463 1.327 . S
C463 H457 0.950 . S
C463 C462 1.327 . S
C463 C467 1.429 . S
C464 C447 1.574 1_655 S
C464 H458 0.949 . S
C464 C468 1.368 . S
C465 C446 1.429 . S
C465 C459 1.429 . S
C465 C466 1.523 . S
C466 C447 1.368 . S
C466 C460 1.368 . S
C466 C465 1.523 . S
C467 C451 1.429 . S
C467 C463 1.429 . S
C467 C468 1.523 . S
C468 C452 1.368 . S
C468 C464 1.368 . S
C468 C467 1.523 . S
H469 C444 0.950 . S
H470 C446 0.950 . S
H471 C447 0.949 . S
H472 C449 0.950 . S
H473 C451 0.950 . S
C474 C475 1.349 . S
C474 C476 1.327 . S
C474 H499 0.950 . S
C475 C474 1.349 . S
C475 C491 1.349 . S
C476 C474 1.327 . S
C476 C495 1.429 . S
C476 H500 0.950 . S
C477 C494 1.554 1_455 S
C477 C496 1.384 . S
C477 H501 0.954 . S
H478 C482 0.954 . S
C479 C480 1.349 . S
C479 C481 1.327 . S
C479 H502 0.950 . S
C480 C479 1.349 . S
C480 C492 1.349 . S
C481 C479 1.327 . S
C481 C497 1.429 . S
C481 H503 0.950 . S
C482 H478 0.954 . S
C482 C490 1.554 1_655 S
C482 C498 1.384 . S
H483 C491 0.950 . S
H484 C489 0.950 . S
H485 C490 0.949 . S
H486 C492 0.950 . S
H487 C493 0.950 . S
H488 C494 0.949 . S
C489 H484 0.950 . S
C489 C491 1.327 . S
C489 C495 1.429 . S
C490 C482 1.554 1_455 S
C490 H485 0.949 . S
C490 C496 1.368 . S
C491 C475 1.349 . S
C491 H483 0.950 . S
C491 C489 1.327 . S
C492 C480 1.349 . S
C492 H486 0.950 . S
C492 C493 1.327 . S
C493 H487 0.950 . S
C493 C492 1.327 . S
C493 C497 1.429 . S
C494 C477 1.554 1_655 S
C494 H488 0.949 . S
C494 C498 1.368 . S
C495 C476 1.429 . S
C495 C489 1.429 . S
C495 C496 1.523 . S
C496 C477 1.384 . S
C496 C490 1.368 . S
C496 C495 1.523 . S
C497 C481 1.429 . S
C497 C493 1.429 . S
C497 C498 1.523 . S
C498 C482 1.384 . S
C498 C494 1.368 . S
C498 C497 1.523 . S
H499 C474 0.950 . S
H500 C476 0.950 . S
H501 C477 0.954 . S
H502 C479 0.950 . S
H503 C481 0.950 . S
C504 C505 1.349 . S
C504 C506 1.327 . S
C504 H529 0.950 . S
C505 C504 1.349 . S
C505 C521 1.349 . S
C506 C504 1.327 . S
C506 C525 1.429 . S
C506 H530 0.950 . S
C507 C524 1.574 . S
C507 C526 1.368 . S
C507 H531 0.949 . S
H508 C512 0.949 . S
C509 C510 1.349 . S
C509 C511 1.327 . S
C509 H532 0.950 . S
C510 C509 1.349 . S
C510 C522 1.349 . S
C511 C509 1.327 . S
C511 C527 1.429 . S
C511 H533 0.950 . S
C512 H508 0.949 . S
C512 C520 1.574 . S
C512 C528 1.368 . S
H513 C521 0.950 . S
H514 C519 0.950 . S
H515 C520 0.949 . S
H516 C522 0.950 1_545 S
H517 C523 0.950 . S
H518 C524 0.949 . S
C519 H514 0.950 . S
C519 C521 1.327 . S
C519 C525 1.429 . S
C520 C512 1.574 . S
C520 H515 0.949 . S
C520 C526 1.368 . S
C521 C505 1.349 . S
C521 H513 0.950 . S
C521 C519 1.327 . S
C522 C510 1.349 . S
C522 H516 0.950 1_565 S
C522 C523 1.327 . S
C523 H517 0.950 . S
C523 C522 1.327 . S
C523 C527 1.429 . S
C524 C507 1.574 . S
C524 H518 0.949 . S
C524 C528 1.368 . S
C525 C506 1.429 . S
C525 C519 1.429 . S
C525 C526 1.523 . S
C526 C507 1.368 . S
C526 C520 1.368 . S
C526 C525 1.523 . S
C527 C511 1.429 . S
C527 C523 1.429 . S
C527 C528 1.523 . S
C528 C512 1.368 . S
C528 C524 1.368 . S
C528 C527 1.523 . S
H529 C504 0.950 . S
H530 C506 0.950 . S
H531 C507 0.949 . S
H532 C509 0.950 . S
H533 C511 0.950 . S
C534 C535 1.349 . S
C534 C536 1.327 . S
C534 H559 0.950 . S
C535 C534 1.349 . S
C535 C551 1.349 . S
C536 C534 1.327 . S
C536 C555 1.429 . S
C536 H560 0.950 . S
C537 C554 1.574 . S
C537 C556 1.368 . S
C537 H561 0.949 . S
H538 C542 0.949 . S
C539 C540 1.349 . S
C539 C541 1.327 . S
C539 H562 0.950 . S
C540 C539 1.349 . S
C540 C552 1.349 . S
C541 C539 1.327 . S
C541 C557 1.429 . S
C541 H563 0.950 . S
C542 H538 0.949 . S
C542 C550 1.574 . S
C542 C558 1.368 . S
H543 C551 0.950 . S
H544 C549 0.950 . S
H545 C550 0.949 . S
H546 C552 0.950 . S
H547 C553 0.950 . S
H548 C554 0.949 . S
C549 H544 0.950 . S
C549 C551 1.327 . S
C549 C555 1.429 . S
C550 C542 1.574 . S
C550 H545 0.949 . S
C550 C556 1.368 . S
C551 C535 1.349 . S
C551 H543 0.950 . S
C551 C549 1.327 . S
C552 C540 1.349 . S
C552 H546 0.950 . S
C552 C553 1.327 . S
C553 H547 0.950 . S
C553 C552 1.327 . S
C553 C557 1.429 . S
C554 C537 1.574 . S
C554 H548 0.949 . S
C554 C558 1.368 . S
C555 C536 1.429 . S
C555 C549 1.429 . S
C555 C556 1.523 . S
C556 C537 1.368 . S
C556 C550 1.368 . S
C556 C555 1.523 . S
C557 C541 1.429 . S
C557 C553 1.429 . S
C557 C558 1.523 . S
C558 C542 1.368 . S
C558 C554 1.368 . S
C558 C557 1.523 . S
H559 C534 0.950 . S
H560 C536 0.950 . S
H561 C537 0.949 . S
H562 C539 0.950 . S
H563 C541 0.950 . S
C564 C565 1.349 . S
C564 C566 1.327 . S
C564 H589 0.950 1_545 S
C565 C564 1.349 . S
C565 C581 1.349 . S
C566 C564 1.327 . S
C566 C585 1.429 . S
C566 H590 0.950 . S
C567 C584 1.574 . S
C567 C586 1.368 . S
C567 H591 0.949 . S
H568 C572 0.949 . S
C569 C570 1.349 . S
C569 C571 1.327 . S
C569 H592 0.950 . S
C570 C569 1.349 . S
C570 C582 1.349 . S
C571 C569 1.327 . S
C571 C587 1.429 . S
C571 H593 0.950 . S
C572 H568 0.949 . S
C572 C580 1.574 . S
C572 C588 1.368 . S
H573 C581 0.950 . S
H574 C579 0.950 . S
H575 C580 0.949 . S
H576 C582 0.950 . S
H577 C583 0.950 . S
H578 C584 0.949 . S
C579 H574 0.950 . S
C579 C581 1.327 . S
C579 C585 1.429 . S
C580 C572 1.574 . S
C580 H575 0.949 . S
C580 C586 1.368 . S
C581 C565 1.349 . S
C581 H573 0.950 . S
C581 C579 1.327 . S
C582 C570 1.349 . S
C582 H576 0.950 . S
C582 C583 1.327 . S
C583 H577 0.950 . S
C583 C582 1.327 . S
C583 C587 1.429 . S
C584 C567 1.574 . S
C584 H578 0.949 . S
C584 C588 1.368 . S
C585 C566 1.429 . S
C585 C579 1.429 . S
C585 C586 1.523 . S
C586 C567 1.368 . S
C586 C580 1.368 . S
C586 C585 1.523 . S
C587 C571 1.429 . S
C587 C583 1.429 . S
C587 C588 1.523 . S
C588 C572 1.368 . S
C588 C584 1.368 . S
C588 C587 1.523 . S
H589 C564 0.950 1_565 S
H590 C566 0.950 . S
H591 C567 0.949 . S
H592 C569 0.950 . S
H593 C571 0.950 . S
C594 C595 1.349 . S
C594 C596 1.327 . S
C594 H619 0.950 . S
C595 C594 1.349 . S
C595 C611 1.349 . S
C596 C594 1.327 . S
C596 C615 1.429 . S
C596 H620 0.950 . S
C597 C614 1.574 . S
C597 C616 1.368 . S
C597 H621 0.949 . S
H598 C602 0.949 . S
C599 C600 1.349 . S
C599 C601 1.327 . S
C599 H622 0.950 . S
C600 C599 1.349 . S
C600 C612 1.349 . S
C601 C599 1.327 . S
C601 C617 1.429 . S
C601 H623 0.950 . S
C602 H598 0.949 . S
C602 C610 1.574 . S
C602 C618 1.368 . S
H603 C611 0.950 . S
H604 C609 0.950 . S
H605 C610 0.949 . S
H606 C612 0.950 . S
H607 C613 0.950 . S
H608 C614 0.949 . S
C609 H604 0.950 . S
C609 C611 1.327 . S
C609 C615 1.429 . S
C610 C602 1.574 . S
C610 H605 0.949 . S
C610 C616 1.368 . S
C611 C595 1.349 . S
C611 H603 0.950 . S
C611 C609 1.327 . S
C612 C600 1.349 . S
C612 H606 0.950 . S
C612 C613 1.327 . S
C613 H607 0.950 . S
C613 C612 1.327 . S
C613 C617 1.429 . S
C614 C597 1.574 . S
C614 H608 0.949 . S
C614 C618 1.368 . S
C615 C596 1.429 . S
C615 C609 1.429 . S
C615 C616 1.523 . S
C616 C597 1.368 . S
C616 C610 1.368 . S
C616 C615 1.523 . S
C617 C601 1.429 . S
C617 C613 1.429 . S
C617 C618 1.523 . S
C618 C602 1.368 . S
C618 C614 1.368 . S
C618 C617 1.523 . S
H619 C594 0.950 . S
H620 C596 0.950 . S
H621 C597 0.949 . S
H622 C599 0.950 . S
H623 C601 0.950 . S
C624 C625 1.349 . S
C624 C626 1.327 . S
C624 H649 0.950 . S
C625 C624 1.349 . S
C625 C641 1.349 . S
C626 C624 1.327 . S
C626 C645 1.429 . S
C626 H650 0.950 . S
C627 C644 1.574 . S
C627 C646 1.368 . S
C627 H651 0.949 . S
H628 C632 0.949 . S
C629 C630 1.349 . S
C629 C631 1.327 . S
C629 H652 0.950 . S
C630 C629 1.349 . S
C630 C642 1.349 . S
C631 C629 1.327 . S
C631 C647 1.429 . S
C631 H653 0.950 . S
C632 H628 0.949 . S
C632 C640 1.574 . S
C632 C648 1.368 . S
H633 C641 0.950 . S
H634 C639 0.950 . S
H635 C640 0.949 . S
H636 C642 0.950 . S
H637 C643 0.950 . S
H638 C644 0.949 . S
C639 H634 0.950 . S
C639 C641 1.327 . S
C639 C645 1.429 . S
C640 C632 1.574 . S
C640 H635 0.949 . S
C640 C646 1.368 . S
C641 C625 1.349 . S
C641 H633 0.950 . S
C641 C639 1.327 . S
C642 C630 1.349 . S
C642 H636 0.950 . S
C642 C643 1.327 . S
C643 H637 0.950 . S
C643 C642 1.327 . S
C643 C647 1.429 . S
C644 C627 1.574 . S
C644 H638 0.949 . S
C644 C648 1.368 . S
C645 C626 1.429 . S
C645 C639 1.429 . S
C645 C646 1.523 . S
C646 C627 1.368 . S
C646 C640 1.368 . S
C646 C645 1.523 . S
C647 C631 1.429 . S
C647 C643 1.429 . S
C647 C648 1.523 . S
C648 C632 1.368 . S
C648 C644 1.368 . S
C648 C647 1.523 . S
H649 C624 0.950 . S
H650 C626 0.950 . S
H651 C627 0.949 . S
H652 C629 0.950 . S
H653 C631 0.950 . S
C654 C655 1.349 . S
C654 C656 1.327 . S
C654 H679 0.950 . S
C655 C654 1.349 . S
C655 C671 1.349 . S
C656 C654 1.327 . S
C656 C675 1.429 . S
C656 H680 0.950 . S
C657 C674 1.574 . S
C657 C676 1.368 . S
C657 H681 0.949 . S
H658 C662 0.949 . S
C659 C660 1.349 . S
C659 C661 1.327 . S
C659 H682 0.950 . S
C660 C659 1.349 . S
C660 C672 1.349 . S
C661 C659 1.327 . S
C661 C677 1.429 . S
C661 H683 0.950 . S
C662 H658 0.949 . S
C662 C670 1.574 . S
C662 C678 1.368 . S
H663 C671 0.950 . S
H664 C669 0.950 . S
H665 C670 0.949 . S
H666 C672 0.950 . S
H667 C673 0.950 . S
H668 C674 0.949 . S
C669 H664 0.950 . S
C669 C671 1.327 . S
C669 C675 1.429 . S
C670 C662 1.574 . S
C670 H665 0.949 . S
C670 C676 1.368 . S
C671 C655 1.349 . S
C671 H663 0.950 . S
C671 C669 1.327 . S
C672 C660 1.349 . S
C672 H666 0.950 . S
C672 C673 1.327 . S
C673 H667 0.950 . S
C673 C672 1.327 . S
C673 C677 1.429 . S
C674 C657 1.574 . S
C674 H668 0.949 . S
C674 C678 1.368 . S
C675 C656 1.429 . S
C675 C669 1.429 . S
C675 C676 1.523 . S
C676 C657 1.368 . S
C676 C670 1.368 . S
C676 C675 1.523 . S
C677 C661 1.429 . S
C677 C673 1.429 . S
C677 C678 1.523 . S
C678 C662 1.368 . S
C678 C674 1.368 . S
C678 C677 1.523 . S
H679 C654 0.950 . S
H680 C656 0.950 . S
H681 C657 0.949 . S
H682 C659 0.950 . S
H683 C661 0.950 . S
C684 C685 1.349 . S
C684 C686 1.327 . S
C684 H709 0.950 . S
C685 C684 1.349 . S
C685 C701 1.349 . S
C686 C684 1.327 . S
C686 C705 1.429 . S
C686 H710 0.950 . S
C687 C704 1.574 . S
C687 C706 1.368 . S
C687 H711 0.949 . S
H688 C692 0.949 . S
C689 C690 1.349 . S
C689 C691 1.327 . S
C689 H712 0.950 . S
C690 C689 1.349 . S
C690 C702 1.349 . S
C691 C689 1.327 . S
C691 C707 1.429 . S
C691 H713 0.950 . S
C692 H688 0.949 . S
C692 C700 1.574 . S
C692 C708 1.368 . S
H693 C701 0.950 . S
H694 C699 0.950 . S
H695 C700 0.949 . S
H696 C702 0.950 . S
H697 C703 0.950 . S
H698 C704 0.949 . S
C699 H694 0.950 . S
C699 C701 1.327 . S
C699 C705 1.429 . S
C700 C692 1.574 . S
C700 H695 0.949 . S
C700 C706 1.368 . S
C701 C685 1.349 . S
C701 H693 0.950 . S
C701 C699 1.327 . S
C702 C690 1.349 . S
C702 H696 0.950 . S
C702 C703 1.327 . S
C703 H697 0.950 . S
C703 C702 1.327 . S
C703 C707 1.429 . S
C704 C687 1.574 . S
C704 H698 0.949 . S
C704 C708 1.368 . S
C705 C686 1.429 . S
C705 C699 1.429 . S
C705 C706 1.523 . S
C706 C687 1.368 . S
C706 C700 1.368 . S
C706 C705 1.523 . S
C707 C691 1.429 . S
C707 C703 1.429 . S
C707 C708 1.523 . S
C708 C692 1.368 . S
C708 C704 1.368 . S
C708 C707 1.523 . S
H709 C684 0.950 . S
H710 C686 0.950 . S
H711 C687 0.949 . S
H712 C689 0.950 . S
H713 C691 0.950 . S
C714 C715 1.349 . S
C714 C716 1.327 . S
C714 H739 0.950 . S
C715 C714 1.349 . S
C715 C731 1.349 . S
C716 C714 1.327 . S
C716 C735 1.429 . S
C716 H740 0.950 . S
C717 C734 1.574 . S
C717 C736 1.368 . S
C717 H741 0.949 . S
H718 C722 0.949 . S
C719 C720 1.349 . S
C719 C721 1.327 . S
C719 H742 0.950 . S
C720 C719 1.349 . S
C720 C732 1.349 . S
C721 C719 1.327 . S
C721 C737 1.429 . S
C721 H743 0.950 . S
C722 H718 0.949 . S
C722 C730 1.574 . S
C722 C738 1.368 . S
H723 C731 0.950 . S
H724 C729 0.950 . S
H725 C730 0.949 . S
H726 C732 0.950 . S
H727 C733 0.950 . S
H728 C734 0.949 . S
C729 H724 0.950 . S
C729 C731 1.327 . S
C729 C735 1.429 . S
C730 C722 1.574 . S
C730 H725 0.949 . S
C730 C736 1.368 . S
C731 C715 1.349 . S
C731 H723 0.950 . S
C731 C729 1.327 . S
C732 C720 1.349 . S
C732 H726 0.950 . S
C732 C733 1.327 . S
C733 H727 0.950 . S
C733 C732 1.327 . S
C733 C737 1.429 . S
C734 C717 1.574 . S
C734 H728 0.949 . S
C734 C738 1.368 . S
C735 C716 1.429 . S
C735 C729 1.429 . S
C735 C736 1.523 . S
C736 C717 1.368 . S
C736 C730 1.368 . S
C736 C735 1.523 . S
C737 C721 1.429 . S
C737 C733 1.429 . S
C737 C738 1.523 . S
C738 C722 1.368 . S
C738 C734 1.368 . S
C738 C737 1.523 . S
H739 C714 0.950 . S
H740 C716 0.950 . S
H741 C717 0.949 . S
H742 C719 0.950 . S
H743 C721 0.950 . S
C744 C745 1.349 . S
C744 C746 1.327 . S
C744 H769 0.950 . S
C745 C744 1.349 . S
C745 C761 1.349 . S
C746 C744 1.327 . S
C746 C765 1.429 . S
C746 H770 0.950 . S
C747 C764 1.564 1_545 S
C747 C766 1.368 . S
C747 H771 0.949 . S
H748 C752 0.949 . S
C749 C750 1.349 . S
C749 C751 1.327 . S
C749 H772 0.950 . S
C750 C749 1.349 . S
C750 C762 1.349 . S
C751 C749 1.327 . S
C751 C767 1.429 . S
C751 H773 0.950 . S
C752 H748 0.949 . S
C752 C760 1.574 . S
C752 C768 1.368 . S
H753 C761 0.950 . S
H754 C759 0.950 . S
H755 C760 0.949 . S
H756 C762 0.950 . S
H757 C763 0.950 . S
H758 C764 0.967 . S
C759 H754 0.950 . S
C759 C761 1.327 . S
C759 C765 1.429 . S
C760 C752 1.574 . S
C760 H755 0.949 . S
C760 C766 1.368 . S
C761 C745 1.349 . S
C761 H753 0.950 . S
C761 C759 1.327 . S
C762 C750 1.349 . S
C762 H756 0.950 . S
C762 C763 1.327 1_565 S
C763 H757 0.950 . S
C763 C762 1.327 1_545 S
C763 C767 1.429 1_545 S
C764 C747 1.564 1_565 S
C764 H758 0.967 . S
C764 C768 1.360 1_565 S
C765 C746 1.429 . S
C765 C759 1.429 . S
C765 C766 1.523 . S
C766 C747 1.368 . S
C766 C760 1.368 . S
C766 C765 1.523 . S
C767 C751 1.429 . S
C767 C763 1.429 1_565 S
C767 C768 1.523 1_565 S
C768 C752 1.368 . S
C768 C764 1.360 1_545 S
C768 C767 1.523 1_545 S
H769 C744 0.950 . S
H770 C746 0.950 . S
H771 C747 0.949 . S
H772 C749 0.950 . S
H773 C751 0.950 . S
C774 C775 1.349 . S
C774 C776 1.327 . S
C774 H799 0.950 . S
C775 C774 1.349 . S
C775 C791 1.349 . S
C776 C774 1.327 . S
C776 C795 1.429 . S
C776 H800 0.950 . S
C777 C794 1.574 . S
C777 C796 1.368 1_556 S
C777 H801 0.949 . S
H778 C782 0.947 . S
C779 C780 1.349 . S
C779 C781 1.327 1_565 S
C779 H802 0.950 . S
C780 C779 1.349 . S
C780 C792 1.349 . S
C781 C779 1.327 1_545 S
C781 C797 1.429 1_545 S
C781 H803 0.950 . S
C782 H778 0.947 . S
C782 C790 1.575 1_565 S
C782 C798 1.369 1_564 S
H783 C791 0.950 . S
H784 C789 0.950 . S
H785 C790 0.949 . S
H786 C792 0.950 . S
H787 C793 0.950 . S
H788 C794 0.949 . S
C789 H784 0.950 . S
C789 C791 1.327 . S
C789 C795 1.429 . S
C790 C782 1.575 1_545 S
C790 H785 0.949 . S
C790 C796 1.368 . S
C791 C775 1.349 . S
C791 H783 0.950 . S
C791 C789 1.327 . S
C792 C780 1.349 . S
C792 H786 0.950 . S
C792 C793 1.327 . S
C793 H787 0.950 . S
C793 C792 1.327 . S
C793 C797 1.429 . S
C794 C777 1.574 . S
C794 H788 0.949 . S
C794 C798 1.368 . S
C795 C776 1.429 . S
C795 C789 1.429 . S
C795 C796 1.523 . S
C796 C777 1.368 1_554 S
C796 C790 1.368 . S
C796 C795 1.523 . S
C797 C781 1.429 1_565 S
C797 C793 1.429 . S
C797 C798 1.523 1_565 S
C798 C782 1.369 1_546 S
C798 C794 1.368 . S
C798 C797 1.523 1_545 S
H799 C774 0.950 . S
H800 C776 0.950 . S
H801 C777 0.949 . S
H802 C779 0.950 . S
H803 C781 0.950 . S
C804 C805 1.349 . S
C804 C806 1.327 . S
C804 H829 0.950 . S
C805 C804 1.349 . S
C805 C821 1.349 . S
C806 C804 1.327 . S
C806 C825 1.429 . S
C806 H830 0.950 . S
C807 C824 1.574 . S
C807 C826 1.368 . S
C807 H831 0.949 . S
H808 C812 0.949 . S
C809 C810 1.349 . S
C809 C811 1.327 . S
C809 H832 0.950 . S
C810 C809 1.349 . S
C810 C822 1.349 . S
C811 C809 1.327 . S
C811 C827 1.429 . S
C811 H833 0.950 . S
C812 H808 0.949 . S
C812 C820 1.574 . S
C812 C828 1.368 . S
H813 C821 0.950 . S
H814 C819 0.950 . S
H815 C820 0.949 1_455 S
H816 C822 0.950 . S
H817 C823 0.950 . S
H818 C824 0.949 . S
C819 H814 0.950 . S
C819 C821 1.327 . S
C819 C825 1.429 . S
C820 C812 1.574 . S
C820 H815 0.949 1_655 S
C820 C826 1.368 . S
C821 C805 1.349 . S
C821 H813 0.950 . S
C821 C819 1.327 . S
C822 C810 1.349 . S
C822 H816 0.950 . S
C822 C823 1.327 . S
C823 H817 0.950 . S
C823 C822 1.327 . S
C823 C827 1.429 . S
C824 C807 1.574 . S
C824 H818 0.949 . S
C824 C828 1.368 . S
C825 C806 1.429 . S
C825 C819 1.429 . S
C825 C826 1.523 1_455 S
C826 C807 1.368 . S
C826 C820 1.368 . S
C826 C825 1.523 1_655 S
C827 C811 1.429 . S
C827 C823 1.429 . S
C827 C828 1.523 . S
C828 C812 1.368 . S
C828 C824 1.368 . S
C828 C827 1.523 . S
H829 C804 0.950 . S
H830 C806 0.950 . S
H831 C807 0.949 . S
H832 C809 0.950 . S
H833 C811 0.950 . S
C834 C835 1.349 . S
C834 C836 1.327 . S
C834 H859 0.950 . S
C835 C834 1.349 . S
C835 C851 1.349 . S
C836 C834 1.327 . S
C836 C855 1.429 . S
C836 H860 0.950 . S
C837 C854 1.574 . S
C837 C856 1.368 1_556 S
C837 H861 0.949 . S
H838 C842 0.949 1_655 S
C839 C840 1.349 . S
C839 C841 1.327 . S
C839 H862 0.950 . S
C840 C839 1.349 . S
C840 C852 1.349 . S
C841 C839 1.327 . S
C841 C857 1.429 . S
C841 H863 0.950 . S
C842 H838 0.949 1_455 S
C842 C850 1.574 . S
C842 C858 1.368 1_554 S
H843 C851 0.950 . S
H844 C849 0.950 . S
H845 C850 0.949 . S
H846 C852 0.950 . S
H847 C853 0.950 . S
H848 C854 0.949 . S
C849 H844 0.950 . S
C849 C851 1.327 . S
C849 C855 1.429 . S
C850 C842 1.574 . S
C850 H845 0.949 . S
C850 C856 1.368 . S
C851 C835 1.349 . S
C851 H843 0.950 . S
C851 C849 1.327 . S
C852 C840 1.349 . S
C852 H846 0.950 . S
C852 C853 1.327 . S
C853 H847 0.950 . S
C853 C852 1.327 . S
C853 C857 1.429 . S
C854 C837 1.574 . S
C854 H848 0.949 . S
C854 C858 1.368 . S
C855 C836 1.429 . S
C855 C849 1.429 . S
C855 C856 1.523 . S
C856 C837 1.368 1_554 S
C856 C850 1.368 . S
C856 C855 1.523 . S
C857 C841 1.429 . S
C857 C853 1.429 . S
C857 C858 1.523 1_655 S
C858 C842 1.368 1_556 S
C858 C854 1.368 . S
C858 C857 1.523 1_455 S
H859 C834 0.950 . S
H860 C836 0.950 . S
H861 C837 0.949 . S
H862 C839 0.950 . S
H863 C841 0.950 . S
C265 C216 1.661 . S
C270 N13 1.620 . S
C295 N46 1.620 . S
C300 C249 1.661 . S
C325 C84 1.661 . S
C330 N145 1.620 . S
C355 C117 1.661 . S
C360 N178 1.620 . S
C385 N35 1.237 . S
C390 N2 1.237 . S
C415 C73 1.129 . S
C420 C106 1.129 . S
C445 N167 1.237 . S
C450 N134 1.237 . S
C475 C205 1.129 . S
C480 C238 1.129 . S
C505 C183 1.302 . S
C510 C21 1.307 1_565 S
C535 C54 1.307 1_565 S
C540 C150 1.302 . S
C565 C87 1.380 1_545 S
C570 N244 1.355 . S
C595 N211 1.355 . S
C600 C120 1.380 1_545 S
C625 C153 1.307 . S
C630 C51 1.302 . S
C655 C186 1.307 . S
C660 C18 1.302 . S
C685 C219 1.380 . S
C690 N112 1.355 . S
C715 N79 1.355 . S
C720 C252 1.380 . S
C745 C7 1.518 . S
C750 N68 1.488 . S
C775 C40 1.518 . S
C780 N101 1.488 . S
C805 N200 1.488 . S
C810 C139 1.518 . S
C835 C172 1.518 . S
C840 N233 1.488 . S
