# Generated by pormake.
# Topology snp, (6)-cn, num edge types: 1
# Building blocks:
#     Node 0, Type 0, BuildingBlock: HISSIN_clean_sbu_0, # of connection points: 6
#     Node 1, Type 0, BuildingBlock: HISSIN_clean_sbu_0, # of connection points: 6
#     Node 2, Type 0, BuildingBlock: HISSIN_clean_sbu_0, # of connection points: 6
#     Node 3, Type 0, BuildingBlock: HISSIN_clean_sbu_0, # of connection points: 6
#     Edge 4, Type (0, 0), BuildingBlock: TEMPAE_clean_linker_10, # of connection points: 2
#     Edge 5, Type (0, 0), BuildingBlock: TEMPAE_clean_linker_10, # of connection points: 2
#     Edge 6, Type (0, 0), BuildingBlock: TEMPAE_clean_linker_10, # of connection points: 2
#     Edge 7, Type (0, 0), BuildingBlock: TEMPAE_clean_linker_10, # of connection points: 2
#     Edge 8, Type (0, 0), BuildingBlock: TEMPAE_clean_linker_10, # of connection points: 2
#     Edge 9, Type (0, 0), BuildingBlock: TEMPAE_clean_linker_10, # of connection points: 2
#     Edge 10, Type (0, 0), BuildingBlock: TEMPAE_clean_linker_10, # of connection points: 2
#     Edge 11, Type (0, 0), BuildingBlock: TEMPAE_clean_linker_10, # of connection points: 2
#     Edge 12, Type (0, 0), BuildingBlock: TEMPAE_clean_linker_10, # of connection points: 2
#     Edge 13, Type (0, 0), BuildingBlock: TEMPAE_clean_linker_10, # of connection points: 2
#     Edge 14, Type (0, 0), BuildingBlock: TEMPAE_clean_linker_10, # of connection points: 2
#     Edge 15, Type (0, 0), BuildingBlock: TEMPAE_clean_linker_10, # of connection points: 2
# Relax obj value: 0.708
# Max RMSD: 0.184
# Mean RMSD: 0.184
data_MOF--net-snp--node1-HISSIN_clean_sbu_0--edge1-TEMPAE_clean_linker_10
_symmetry_space_group_name_H-M    P1
_symmetry_Int_Tables_number       1
_symmetry_cell_setting            triclinic
loop_
_symmetry_equiv_pos_as_xyz
'x, y, z'
_cell_length_a     24.282691
_cell_length_b     24.319721
_cell_length_c     29.734083
_cell_angle_alpha  90.682026
_cell_angle_beta   89.11114
_cell_angle_gamma 122.03213
loop_
_atom_site_label
_atom_site_type_symbol
_atom_site_fract_x
_atom_site_fract_y
_atom_site_fract_z
_atom_type_partial_charge
Eu0 Eu 0.24875 0.06676 0.25319 0.0
Eu1 Eu 0.389 0.18839 0.23647 0.0
C2 C 0.38113 0.06592 0.26972 0.0
C3 C 0.11933 0.89816 0.29104 0.0
C4 C 0.1177 0.84665 0.26764 0.0
C5 C 0.11087 0.84471 0.36137 0.0
C6 C 0.11669 0.79664 0.29109 0.0
C7 C 0.11182 0.89451 0.33799 0.0
C8 C 0.11687 0.7971 0.33832 0.0
C9 C 0.13728 0.95865 0.26727 0.0
O10 O 0.35643 0.12464 0.16933 0.0
O11 O 0.24692 0.07548 0.17762 0.0
C12 C 0.29694 0.09103 1.15142 0.0
O13 O 0.23779 0.15324 0.23832 0.0
O14 O 0.48729 0.23051 0.20892 0.0
O15 O 0.46024 0.29196 0.24299 0.0
O16 O 0.32937 0.20985 0.19544 0.0
C17 C 0.27469 0.20053 0.20982 0.0
O18 O 0.2749 0.10997 0.32411 0.0
O19 O 0.35037 0.21302 0.30243 0.0
O20 O 0.40557 0.12617 0.28104 0.0
O21 O 0.15821 0.0108 0.29177 0.0
O22 O 0.17251 0.97054 0.231 0.0
O23 O 0.3231 0.03424 0.25125 0.0
C24 C 0.52004 0.3313 0.17653 0.0
C25 C 0.47471 0.31122 1.14199 0.0
C26 C 0.58711 0.43515 1.13904 0.0
C27 C 0.48394 0.35317 1.10734 0.0
C28 C 0.57687 0.39315 0.17466 0.0
C29 C 0.53992 0.41608 1.10538 0.0
C30 C 0.50243 0.28997 0.21644 0.0
C31 C 0.30891 0.17251 0.33364 0.0
H32 H 0.1217 0.84725 0.23129 0.0
H33 H 0.11137 0.84724 0.39775 0.0
H34 H 0.12002 0.76004 0.27233 0.0
H35 H 0.11152 0.93262 0.35703 0.0
H36 H 0.43043 0.2638 1.14282 0.0
H37 H 0.63114 0.48282 1.13845 0.0
H38 H 0.44523 0.33675 1.08326 0.0
H39 H 0.61225 0.40958 0.20127 0.0
Eu40 Eu 0.06983 0.22214 0.72212 0.0
Eu41 Eu 0.18331 0.36544 0.73973 0.0
C42 C 0.05611 0.34395 0.70542 0.0
C43 C 0.90465 0.08832 0.68464 0.0
C44 C 0.85695 0.09212 0.70955 0.0
C45 C 0.84415 0.07294 0.6167 0.0
C46 C 0.8053 0.0901 0.68773 0.0
C47 C 0.89544 0.07473 0.6385 0.0
C48 C 0.80048 0.08424 0.64068 0.0
C49 C 0.96777 0.1076 0.70482 0.0
O50 O 0.12332 0.32864 0.80853 0.0
O51 O 0.07128 0.21901 0.79792 0.0
C52 C 0.08771 0.26822 0.82501 0.0
O53 O 0.1621 0.22156 0.73707 0.0
O54 O 0.2106 0.46349 0.75896 0.0
O55 O 0.28495 0.44437 0.73822 0.0
O56 O 0.21016 0.31107 0.78226 0.0
C57 C 0.20671 0.25951 0.76671 0.0
O58 O 0.11491 0.25568 0.65158 0.0
O59 O 0.21616 0.33133 0.67577 0.0
O60 O 0.11553 0.36872 0.69167 0.0
O61 O 0.01853 0.13705 0.6783 0.0
O62 O 0.97949 0.13559 0.74405 0.0
O63 O 0.02979 0.28919 0.72759 0.0
C64 C 0.30872 0.51596 0.79834 0.0
C65 C 0.28844 0.4802 0.83826 0.0
C66 C 0.40404 0.60185 0.83643 0.0
C67 C 0.32613 0.5043 0.8767 0.0
C68 C 0.36603 0.57743 0.79771 0.0
C69 C 0.38511 0.56487 0.87613 0.0
C70 C 0.27278 0.48575 0.75694 0.0
C71 C 0.17795 0.29154 0.64335 0.0
H72 H 0.86178 0.10111 0.74547 0.0
H73 H 0.84277 0.06875 0.58038 0.0
H74 H 0.77178 0.0975 0.70733 0.0
H75 H 0.93092 0.07079 0.61858 0.0
H76 H 0.24471 0.43225 0.8392 0.0
H77 H 0.44908 0.64864 0.83491 0.0
H78 H 0.31066 0.47349 0.90609 0.0
H79 H 0.38243 0.60546 0.76699 0.0
Eu80 Eu 0.92226 0.12842 0.26333 0.0
Eu81 Eu 0.87811 -0.01519 0.22959 0.0
C82 C 0.77259 0.0222 0.26302 0.0
C83 C 0.91713 0.26736 0.31323 0.0
C84 C 0.84979 0.22746 0.3204 0.0
C85 C 0.92352 0.33519 0.37579 0.0
C86 C 0.82022 0.23917 0.35655 0.0
C87 C 0.95324 0.32318 0.33961 0.0
C88 C 0.85763 0.2907 0.38642 0.0
C89 C 0.95019 0.24554 0.28293 0.0
O90 O 0.90128 0.0336 0.1601 0.0
O91 O 0.91625 0.13058 0.18439 0.0
C92 C 0.91375 0.09243 1.15087 0.0
O93 O 0.01015 0.12307 0.25295 0.0
O94 O 0.79832 0.88902 0.20928 0.0
O95 O 0.89125 0.90287 0.22705 0.0
O96 O 0.97793 0.04923 0.19755 0.0
C97 C 0.02145 0.10631 0.2139 0.0
O98 O 0.93728 0.08846 0.32957 0.0
O99 O 0.90888 -0.01219 0.30335 0.0
O100 O 0.78668 -0.00921 0.23327 0.0
O101 O 0.97742 0.21823 0.30238 0.0
O102 O 0.91738 0.21302 0.24772 0.0
O103 O 0.81882 0.0684 0.28706 0.0
C104 C 0.82353 0.81505 0.17872 0.0
C105 C 0.77066 0.75085 0.1822 0.0
C106 C 0.85539 0.78817 1.10849 0.0
C107 C 0.75946 0.70558 1.14854 0.0
C108 C 0.86635 0.83336 1.142 0.0
C109 C 0.80109 0.72425 1.11097 0.0
C110 C 0.83219 0.86203 0.21346 0.0
C111 C 0.93055 0.03125 0.33629 0.0
H112 H 0.82073 0.18424 0.30024 0.0
H113 H 0.95336 0.37586 0.39787 0.0
H114 H 0.76958 0.20362 0.36371 0.0
H115 H 1.00515 0.35482 0.33426 0.0
H116 H 0.73727 0.7361 0.21056 0.0
H117 H 0.88867 0.80357 1.08005 0.0
H118 H 0.71704 0.65691 1.15101 0.0
H119 H 0.90753 0.88267 1.13888 0.0
Eu120 Eu 0.16986 0.91666 0.7105 0.0
Eu121 Eu 0.02585 0.86845 0.74798 0.0
C122 C 0.06854 0.76405 0.71997 0.0
C123 C 0.31339 0.92306 0.65684 0.0
C124 C 0.27706 0.85537 0.6521 0.0
C125 C 0.38045 0.93051 0.59317 0.0
C126 C 0.28941 0.82583 0.61634 0.0
C127 C 0.36741 0.9602 0.62879 0.0
C128 C 0.33835 0.86365 0.58454 0.0
C129 C 0.2888 0.95451 0.68616 0.0
O130 O 0.07497 0.88377 0.81646 0.0
O131 O 0.17907 0.92707 0.78929 0.0
C132 C 0.13801 0.91205 0.82397 0.0
O133 O 0.15381 -0.00156 0.71368 0.0
O134 O 0.92651 0.81703 0.72339 0.0
O135 O 0.94461 0.84686 0.79303 0.0
O136 O 0.08649 0.97276 0.77252 0.0
C137 C 0.14131 0.01479 0.75241 0.0
O138 O 0.11572 0.90934 0.64457 0.0
O139 O 0.0328 0.91367 0.67827 0.0
O140 O 0.03234 0.77782 0.74518 0.0
O141 O 0.2542 0.97343 0.66623 0.0
O142 O 0.26186 0.92459 0.72371 0.0
O143 O 0.11886 0.80967 0.69796 0.0
C144 C 0.85464 0.743 0.7772 0.0
C145 C 0.80076 0.72802 0.80414 0.0
C146 C 0.83576 0.63611 0.79156 0.0
C147 C 0.76639 0.66841 0.82631 0.0
C148 C 0.86888 0.69488 0.76849 0.0
C149 C 0.78739 0.6244 0.82325 0.0
C150 C 0.901 0.81033 0.76333 0.0
C151 C 0.06562 0.91704 0.64127 0.0
H152 H 0.23568 0.82571 0.67383 0.0
H153 H 0.4196 0.9608 0.56992 0.0
H154 H 0.25574 0.77439 0.61106 0.0
H155 H 0.39652 0.01249 0.63238 0.0
H156 H 0.78817 0.764 0.81061 0.0
H157 H 0.85204 0.60259 0.78788 0.0
H158 H 0.72816 0.66022 0.84964 0.0
H159 H 0.90879 0.70453 0.74644 0.0
C160 C 0.09212 0.15258 1.1451 0.0
C161 C 0.05931 0.15937 0.18167 0.0
C162 C 0.13091 0.20633 1.11729 0.0
C163 C 0.1436 0.26827 1.1312 0.0
C164 C 0.09139 0.26643 0.1536 0.0
C165 C 0.05525 0.21522 0.1837 0.0
C166 C 0.16036 0.19741 1.07522 0.0
C167 C 0.08321 0.32351 0.15278 0.0
C168 C 0.28311 0.27609 1.15065 0.0
C169 C 0.25735 0.24533 0.19252 0.0
C170 C 0.26155 0.31393 1.13176 0.0
C171 C 0.20866 0.31259 0.15283 0.0
C172 C 0.2079 0.30825 0.20056 0.0
C173 C 0.22434 0.26638 0.21935 0.0
C174 C 0.28782 0.34658 1.08717 0.0
C175 C 0.18712 0.34412 0.23081 0.0
H176 H 0.08801 0.10661 1.13846 0.0
H177 H 0.0246 0.21939 0.20849 0.0
H178 H 0.17695 0.23839 1.05173 0.0
H179 H 0.2019 0.19275 1.08381 0.0
H180 H 0.12423 0.15184 1.05806 0.0
H181 H 0.12703 0.36734 1.13881 0.0
H182 H 0.04152 0.31125 1.13095 0.0
H183 H 0.07162 0.33404 0.18687 0.0
H184 H 0.31715 0.26849 1.13183 0.0
H185 H 0.21461 0.25327 0.25459 0.0
H186 H 0.2557 0.36067 1.07172 0.0
H187 H 0.29505 0.31495 1.06376 0.0
H188 H 0.33626 0.39102 1.0926 0.0
H189 H 0.18724 0.38374 0.2126 0.0
H190 H 0.22073 0.36537 0.25968 0.0
H191 H 0.1381 0.31008 0.24512 0.0
C192 C 0.19156 0.08508 0.82046 0.0
C193 C 0.19798 0.05793 0.78057 0.0
C194 C 0.24726 0.12748 0.8453 0.0
C195 C 0.3096 0.15007 0.82562 0.0
C196 C 0.31262 0.10481 0.79761 0.0
C197 C 0.25827 0.06407 0.7713 0.0
C198 C 0.23919 0.14783 0.89161 0.0
C199 C 0.37494 0.10634 0.79092 0.0
C200 C 0.29154 0.27594 0.82072 0.0
C201 C 0.25967 0.25117 0.77926 0.0
C202 C 0.33915 0.26338 0.83387 0.0
C203 C 0.34598 0.21859 0.80788 0.0
C204 C 0.33814 0.22258 0.76098 0.0
C205 C 0.28745 0.22989 0.74755 0.0
C206 C 0.37439 0.28934 0.87752 0.0
C207 C 0.37845 0.21417 0.72602 0.0
H208 H 0.144 0.07298 0.83238 0.0
H209 H 0.263 0.03651 0.74442 0.0
H210 H 0.28382 0.16646 0.91174 0.0
H211 H 0.22644 0.18525 0.88937 0.0
H212 H 0.19821 0.10581 0.90929 0.0
H213 H 0.41703 0.15109 0.80529 0.0
H214 H 0.37044 0.06398 0.8083 0.0
H215 H 0.3838 0.10156 0.75474 0.0
H216 H 0.27806 0.30244 0.84319 0.0
H217 H 0.27244 0.22253 0.7127 0.0
H218 H 0.39534 0.26103 0.88912 0.0
H219 H 0.3418 0.28988 0.90391 0.0
H220 H 0.41476 0.34028 0.8723 0.0
H221 H 0.39257 0.25047 0.69892 0.0
H222 H 0.34931 0.16562 0.71003 0.0
H223 H 0.42312 0.22035 0.74076 0.0
C224 C 0.65906 0.97826 0.23314 0.0
C225 C 0.70569 0.01141 0.26671 0.0
C226 C 0.59964 0.97619 0.23358 0.0
C227 C 0.5858 0.00756 0.26857 0.0
C228 C 0.63112 0.03775 0.30388 0.0
C229 C 0.69018 0.03957 0.30241 0.0
C230 C 0.55309 0.94328 0.19527 0.0
C231 C 0.61885 0.07122 0.34228 0.0
C232 C 0.48866 0.08615 0.2449 0.0
C233 C 0.4281 0.04398 0.2654 0.0
C234 C 0.53873 0.07334 0.24429 0.0
C235 C 0.52915 0.01688 0.26529 0.0
C236 C 0.46717 0.97259 0.28483 0.0
C237 C 0.41725 -0.01347 0.28453 0.0
C238 C 0.60293 0.12179 0.22232 0.0
C239 C 0.45426 0.91201 0.30798 0.0
H240 H 0.67011 0.95628 0.20536 0.0
H241 H 0.72519 0.06489 0.32887 0.0
H242 H 0.50307 0.91019 0.20841 0.0
H243 H 0.55218 -0.01966 0.17444 0.0
H244 H 0.56697 0.9151 0.17338 0.0
H245 H 0.65421 0.08493 0.36991 0.0
H246 H 0.62262 0.11594 0.3298 0.0
H247 H 0.56902 0.0394 0.35611 0.0
H248 H 0.49745 0.13043 0.22975 0.0
H249 H 0.37096 0.95394 0.30088 0.0
H250 H 0.61722 0.09703 0.1975 0.0
H251 H 0.64141 0.14421 0.24813 0.0
H252 H 0.60127 0.16103 0.2049 0.0
H253 H 0.47757 0.88951 0.28958 0.0
H254 H 0.40137 0.87576 0.3112 0.0
H255 H 0.47506 0.92481 0.34224 0.0
C256 C 1.00179 0.40207 0.68002 0.0
C257 C 0.03504 0.39063 0.71307 0.0
C258 C 0.99674 0.45741 0.68222 0.0
C259 C 0.02829 0.50394 0.71714 0.0
C260 C 0.05958 0.49079 0.75148 0.0
C261 C 0.06153 0.43397 0.74938 0.0
C262 C 0.96041 0.46763 0.64593 0.0
C263 C 0.09517 0.53899 0.78886 0.0
C264 C 0.09578 0.68279 0.69207 0.0
C265 C 0.05486 0.6961 0.71757 0.0
C266 C 0.08695 0.62067 0.69118 0.0
C267 C 0.03479 0.56911 0.71558 0.0
C268 C 0.99208 0.58152 0.74046 0.0
C269 C 1.00285 0.64471 0.74142 0.0
C270 C 0.135 0.61085 0.66511 0.0
C271 C 0.93473 0.52794 0.76594 0.0
H272 H 0.982 0.36922 0.65154 0.0
H273 H 0.08765 0.42547 0.77481 0.0
H274 H 0.92894 0.48359 0.66088 0.0
H275 H 0.9955 0.50642 0.62288 0.0
H276 H 0.92985 0.42284 0.62584 0.0
H277 H 0.11457 0.52035 0.81406 0.0
H278 H 0.13636 0.5845 0.77446 0.0
H279 H 0.06249 0.55147 0.80632 0.0
H280 H 0.13589 0.72139 0.67317 0.0
H281 H 0.97084 0.65389 0.76131 0.0
H282 H 0.10944 0.5725 0.63927 0.0
H283 H 0.1589 0.59437 0.68814 0.0
H284 H 0.17317 0.65584 0.64811 0.0
H285 H 0.89832 0.49328 0.74159 0.0
H286 H 0.91119 0.54666 0.78829 0.0
H287 H 0.94958 0.50043 0.78666 0.0
C288 C 0.17401 0.27932 0.55659 0.0
C289 C 0.20484 0.28373 0.59763 0.0
C290 C 0.19508 0.2678 0.5141 0.0
C291 C 0.24736 0.25677 0.51109 0.0
C292 C 0.27915 0.26193 0.55249 0.0
C293 C 0.25847 0.27591 0.59436 0.0
C294 C 0.16154 0.26974 0.47241 0.0
C295 C 0.33503 0.25157 0.55273 0.0
C296 C 0.25591 0.15092 0.41297 0.0
C297 C 0.29681 0.19595 0.37967 0.0
C298 C 0.24082 0.16967 0.455 0.0
C299 C 0.26603 0.23618 0.46596 0.0
C300 C 0.30829 0.28219 0.43283 0.0
C301 C 0.3228 0.26198 0.39086 0.0
C302 C 0.1968 0.11613 0.48707 0.0
C303 C 0.33843 0.3536 0.44166 0.0
H304 H 0.13314 0.28578 0.55749 0.0
H305 H 0.28317 0.27837 0.62506 0.0
H306 H 0.18392 0.32104 0.46205 0.0
H307 H 0.16585 0.24261 0.44375 0.0
H308 H 0.1093 0.25034 0.47937 0.0
H309 H 0.317 0.20015 0.54437 0.0
H310 H 0.37147 0.28208 0.5266 0.0
H311 H 0.35923 0.26315 0.58592 0.0
H312 H 0.23471 0.09966 0.40627 0.0
H313 H 0.35426 0.29837 0.36648 0.0
H314 H 0.15089 0.08188 0.46972 0.0
H315 H 0.1849 0.13294 0.5184 0.0
H316 H 0.21978 0.08872 0.49618 0.0
H317 H 0.3002 0.36544 0.4409 0.0
H318 H 0.37641 0.38391 0.41628 0.0
H319 H 0.36032 0.36646 0.47563 0.0
C320 C 1.00015 0.19691 0.88298 0.0
C321 C 0.0626 0.25169 0.87405 0.0
C322 C 0.97561 0.17494 0.92738 0.0
C323 C 0.01488 0.20556 0.96592 0.0
C324 C 0.07815 0.26176 0.95722 0.0
C325 C 0.10048 0.28425 0.91214 0.0
C326 C 0.90663 0.1181 0.93215 0.0
C327 C 0.12433 0.29898 0.99492 0.0
C328 C 0.94137 0.17794 1.08871 0.0
C329 C 0.93684 0.12041 1.10296 0.0
C330 C 0.96603 0.20569 1.04515 0.0
C331 C 0.98985 0.17754 1.01407 0.0
C332 C 0.98695 0.12039 1.02888 0.0
C333 C 0.96001 0.09251 1.07194 0.0
C334 C 0.96648 0.26569 1.03244 0.0
C335 C 0.01331 0.08842 0.99943 0.0
H336 H 0.96939 0.1706 0.85466 0.0
H337 H 0.149 0.32612 0.90683 0.0
H338 H 0.88445 0.11786 0.96511 0.0
H339 H 0.87574 0.11847 0.90512 0.0
H340 H 0.906 0.07234 0.92856 0.0
H341 H 0.10624 0.27635 1.02835 0.0
H342 H 0.17183 0.30394 0.98795 0.0
H343 H 0.13346 0.3488 0.99615 0.0
H344 H 0.92513 0.20152 1.1117 0.0
H345 H 0.95896 0.04923 1.08184 0.0
H346 H 0.94725 0.26065 0.998 0.0
H347 H 0.01718 0.30799 1.03252 0.0
H348 H 0.93727 0.27591 1.05626 0.0
H349 H 0.97745 0.05897 0.97317 0.0
H350 H 0.02273 0.05565 1.01898 0.0
H351 H 0.0591 0.12525 0.98235 0.0
C352 C 0.9948 0.94391 0.5933 0.0
C353 C 0.04592 0.9322 0.59574 0.0
C354 C 0.97503 0.95788 0.55203 0.0
C355 C 0.00725 0.96232 0.51038 0.0
C356 C 0.0579 0.94873 0.51238 0.0
C357 C 0.07641 0.93451 0.55428 0.0
C358 C 0.91782 0.96633 0.55304 0.0
C359 C 0.09234 0.94666 0.47033 0.0
C360 C 0.9333 0.95037 0.39085 0.0
C361 C 0.94888 0.01411 0.3816 0.0
C362 C 0.95064 0.93302 0.43182 0.0
C363 C 0.98719 -0.01964 0.46571 0.0
C364 C 1.00301 0.04495 0.4565 0.0
C365 C 0.98374 0.06056 0.41554 0.0
C366 C 0.92916 0.86294 0.43817 0.0
C367 C 0.04232 0.09996 0.48882 0.0
H368 H 0.96929 0.94182 0.62408 0.0
H369 H 0.11501 0.92464 0.55426 0.0
H370 H 0.88308 0.93665 0.52614 0.0
H371 H 0.89171 0.9523 0.58593 0.0
H372 H 0.9347 0.01776 0.54656 0.0
H373 H 0.07231 0.89523 0.46085 0.0
H374 H 0.08682 0.97168 0.44143 0.0
H375 H 0.1449 0.96848 0.47672 0.0
H376 H 0.90662 0.91293 0.36586 0.0
H377 H 0.9974 0.11023 0.40994 0.0
H378 H 0.92115 0.8489 0.47416 0.0
H379 H 0.96717 0.85513 0.4243 0.0
H380 H 0.8836 0.83016 0.41968 0.0
H381 H 0.01576 0.12442 0.4974 0.0
H382 H 0.08809 0.13608 0.47173 0.0
H383 H 0.05486 0.08535 0.52029 0.0
C384 C 0.23034 -0.01847 0.88047 0.0
C385 C 0.16432 0.93445 0.8723 0.0
C386 C 0.25425 0.00882 0.9241 0.0
C387 C 0.21288 -0.01381 0.96304 0.0
C388 C 0.14677 0.93559 0.95533 0.0
C389 C 0.1234 0.91234 0.9108 0.0
C390 C 0.32446 0.06296 0.92782 0.0
C391 C 0.09943 0.9056 0.99413 0.0
C392 C 0.30433 0.0331 1.07949 0.0
C393 C 0.28294 0.07024 1.10159 0.0
C394 C 0.28165 0.00498 1.03569 0.0
C395 C 0.23787 0.01575 1.01094 0.0
C396 C 0.21785 0.05501 1.03309 0.0
C397 C 0.23904 0.07974 1.07749 0.0
C398 C 0.30388 0.96172 1.01744 0.0
C399 C 0.17383 0.0726 1.0109 0.0
H400 H 0.26375 -0.00119 0.85223 0.0
H401 H 0.07242 0.87588 0.90634 0.0
H402 H 0.35407 0.0422 0.93622 0.0
H403 H 0.34347 0.08928 0.89554 0.0
H404 H 0.33132 0.09841 0.95441 0.0
H405 H 0.05925 0.85554 0.98589 0.0
H406 H 0.12377 0.90398 1.02494 0.0
H407 H 0.07759 0.93488 1.00155 0.0
H408 H 0.33658 0.02303 1.09735 0.0
H409 H 0.22062 0.10704 1.09368 0.0
H410 H 0.35524 -0.00774 1.00608 0.0
H411 H 0.27413 0.93072 0.98904 0.0
H412 H 0.30244 0.92981 1.04446 0.0
H413 H 0.15711 0.05081 0.97721 0.0
H414 H 0.19974 0.12614 1.00761 0.0
H415 H 0.13055 0.05718 1.03272 0.0
C416 C 0.78865 0.70343 1.02923 0.0
C417 C 0.78548 0.67977 1.07229 0.0
C418 C 0.77901 0.66549 0.99123 0.0
C419 C 0.76555 0.6014 0.99616 0.0
C420 C 0.75835 0.57559 1.03983 0.0
C421 C 0.7681 0.61518 1.07762 0.0
C422 C 0.78437 0.69522 0.94581 0.0
C423 C 0.74004 0.50658 1.0469 0.0
C424 C 0.71261 0.54646 0.88196 0.0
C425 C 0.77448 0.58094 0.86183 0.0
C426 C 0.70653 0.53627 0.92866 0.0
C427 C 0.7633 0.56518 0.9548 0.0
C428 C 0.82306 0.58396 0.93344 0.0
C429 C 0.82808 0.59143 0.88663 0.0
C430 C 0.64073 0.50292 0.95082 0.0
C431 C 0.88407 0.60889 0.96025 0.0
H432 H 0.79933 0.75245 1.02523 0.0
H433 H 0.76395 0.59627 1.11116 0.0
H434 H 0.73931 0.66392 0.92683 0.0
H435 H 0.79172 0.7443 0.94836 0.0
H436 H 0.8258 0.69952 0.92638 0.0
H437 H 0.75415 0.49986 1.0808 0.0
H438 H 0.68653 0.47415 1.0442 0.0
H439 H 0.76274 0.4912 1.0211 0.0
H440 H 0.67032 0.53461 0.86243 0.0
H441 H 0.87599 0.6156 0.87111 0.0
H442 H 0.63745 0.53686 0.97422 0.0
H443 H 0.63407 0.46183 0.97117 0.0
H444 H 0.60107 0.48398 0.92591 0.0
H445 H 0.9206 0.60351 0.94108 0.0
H446 H 0.87335 0.58292 0.99274 0.0
H447 H 0.90558 0.66126 0.96756 0.0
C448 C 0.19002 0.75489 0.34857 0.0
C449 C 0.13666 0.75817 0.36376 0.0
C450 C 0.22823 0.74643 0.37929 0.0
C451 C 0.21397 0.74434 0.42565 0.0
C452 C 0.15293 0.73362 0.43955 0.0
C453 C 0.11423 0.73959 0.40801 0.0
C454 C 0.28885 0.74931 0.36315 0.0
C455 C 0.13348 0.72688 0.48861 0.0
C456 C 0.30852 0.77103 0.53117 0.0
C457 C 0.33231 0.83717 0.53832 0.0
C458 C 0.27671 0.74012 0.49108 0.0
C459 C 0.26821 0.77632 0.45808 0.0
C460 C 0.30156 0.84485 0.46223 0.0
C461 C 0.33373 0.87437 0.50217 0.0
C462 C 0.24724 0.66802 0.48652 0.0
C463 C 0.296 0.88656 0.42739 0.0
H464 H 0.20673 0.76662 0.31401 0.0
H465 H 0.07084 0.73822 0.41929 0.0
H466 H 0.33223 0.79741 0.3712 0.0
H467 H 0.294 0.71235 0.38084 0.0
H468 H 0.28826 0.74115 0.32627 0.0
H469 H 0.08207 0.71263 0.49328 0.0
H470 H 0.14006 0.68999 0.50483 0.0
H471 H 0.16492 0.77381 0.50621 0.0
H472 H 0.30954 0.74223 0.55833 0.0
H473 H 0.35264 0.9256 0.50681 0.0
H474 H 0.23179 0.65033 0.45165 0.0
H475 H 0.20456 0.64216 0.50946 0.0
H476 H 0.28284 0.65533 0.49706 0.0
H477 H 0.31072 0.87845 0.39373 0.0
H478 H 0.32685 0.93915 0.4353 0.0
H479 H 0.24485 0.87361 0.42541 0.0
C480 C 0.49555 0.60647 0.90779 0.0
C481 C 0.42955 0.58361 0.91498 0.0
C482 C 0.53275 0.60305 0.94202 0.0
C483 C 0.50242 0.57415 0.98354 0.0
C484 C 0.4394 0.56137 0.99313 0.0
C485 C 0.40388 0.56693 0.95876 0.0
C486 C 0.60179 0.62325 0.93136 0.0
C487 C 0.40583 0.53283 1.03752 0.0
C488 C 0.51584 0.43743 1.0283 0.0
C489 C 0.54492 0.46185 1.07019 0.0
C490 C 0.5046 0.47482 0.99894 0.0
C491 C 0.52637 0.53992 1.01039 0.0
C492 C 0.56303 0.56757 1.04991 0.0
C493 C 0.57099 0.5279 1.07981 0.0
C494 C 0.46612 0.4431 0.95678 0.0
C495 C 0.59004 0.63755 1.06239 0.0
H496 H 0.51673 0.62115 0.87442 0.0
H497 H 0.35376 0.55212 0.9651 0.0
H498 H 0.63032 0.63126 0.96218 0.0
H499 H 0.60174 0.58519 0.91042 0.0
H500 H 0.62623 0.66859 0.91131 0.0
H501 H 0.3625 0.53655 1.04267 0.0
H502 H 0.38972 0.48078 1.03819 0.0
H503 H 0.43957 0.55735 1.06588 0.0
H504 H 0.49879 0.38765 1.01922 0.0
H505 H 0.59429 0.54799 1.11175 0.0
H506 H 0.49167 0.47337 0.92691 0.0
H507 H 0.41811 0.43829 0.95951 0.0
H508 H 0.45786 0.39408 0.95101 0.0
H509 H 0.60322 0.66857 1.03215 0.0
H510 H 0.63366 0.65665 1.08381 0.0
H511 H 0.55279 0.64129 1.08184 0.0
C512 C 0.87181 0.2889 0.46839 0.0
C513 C 0.83292 0.28606 0.43305 0.0
C514 C 0.84421 0.2593 0.50955 0.0
C515 C 0.77593 0.22758 0.51592 0.0
C516 C 0.73822 0.23426 0.48317 0.0
C517 C 0.76709 0.26285 0.44166 0.0
C518 C 0.88745 0.2549 0.5436 0.0
C519 C 0.66653 0.20661 0.48979 0.0
C520 C 0.73799 0.07714 0.57263 0.0
C521 C 0.76078 0.10338 0.61547 0.0
C522 C 0.73115 0.11382 0.53976 0.0
C523 C 0.74512 0.17673 0.55105 0.0
C524 C 0.75133 0.19539 0.59672 0.0
C525 C 0.76072 0.15913 0.62862 0.0
C526 C 0.71976 0.08971 0.49173 0.0
C527 C 0.75798 0.25836 0.6108 0.0
H528 H 0.92278 0.3071 0.4623 0.0
H529 H 0.73703 0.26228 0.41484 0.0
H530 H 0.88325 0.27396 0.57664 0.0
H531 H 0.87241 0.20351 0.54819 0.0
H532 H 0.93948 0.28275 0.53327 0.0
H533 H 0.65442 0.24248 0.47894 0.0
H534 H 0.63863 0.16307 0.46812 0.0
H535 H 0.65055 0.19321 0.52528 0.0
H536 H 0.73387 0.03194 0.5631 0.0
H537 H 0.77564 0.17903 0.66215 0.0
H538 H 0.76507 0.11897 0.47162 0.0
H539 H 0.68159 0.09516 0.47648 0.0
H540 H 0.70468 0.03793 0.48926 0.0
H541 H 0.81011 0.29747 0.61155 0.0
H542 H 0.73763 0.2543 0.64519 0.0
H543 H 0.73289 0.27261 0.58704 0.0
loop_
_geom_bond_atom_site_label_1
_geom_bond_atom_site_label_2
_geom_bond_distance
_geom_bond_site_symmetry_2
_ccdc_geom_bond_type
Eu0 C9 2.828 . S
Eu0 O11 2.392 . S
Eu0 O13 2.418 . S
Eu0 O18 2.373 . S
Eu0 O21 2.488 . S
Eu0 O22 2.471 . S
Eu0 O23 2.349 . S
Eu1 O10 2.373 . S
Eu1 O14 2.488 . S
Eu1 O15 2.471 . S
Eu1 O16 2.349 . S
Eu1 O19 2.392 . S
Eu1 O20 2.418 . S
Eu1 C30 2.828 1_554 S
C2 O20 1.244 . S
C2 O23 1.265 . S
C3 C4 1.379 . S
C3 C7 1.373 1_545 S
C3 C9 1.505 . S
C4 C3 1.379 . S
C4 C6 1.369 . S
C4 H32 0.930 . S
C5 C7 1.383 . S
C5 C8 1.382 . S
C5 H33 0.930 . S
C6 C4 1.369 . S
C6 C8 1.392 1_545 S
C6 H34 0.930 . S
C7 C3 1.373 1_565 S
C7 C5 1.383 . S
C7 H35 0.931 . S
C8 C5 1.382 . S
C8 C6 1.392 1_565 S
C9 Eu0 2.828 . S
C9 C3 1.505 . S
C9 O21 1.249 . S
C9 O22 1.244 . S
O10 Eu1 2.373 . S
O10 C12 1.258 . S
O11 Eu0 2.392 . S
O11 C12 1.242 . S
C12 O10 1.258 . S
C12 O11 1.242 . S
O13 Eu0 2.418 . S
O13 C17 1.244 . S
O14 Eu1 2.488 . S
O14 C30 1.249 1_554 S
O15 Eu1 2.471 . S
O15 C30 1.244 1_554 S
O16 Eu1 2.349 . S
O16 C17 1.265 . S
C17 O13 1.244 . S
C17 O16 1.265 . S
O18 Eu0 2.373 . S
O18 C31 1.258 . S
O19 Eu1 2.392 . S
O19 C31 1.242 . S
O20 Eu1 2.418 . S
O20 C2 1.244 . S
O21 Eu0 2.488 . S
O21 C9 1.249 . S
O22 Eu0 2.471 . S
O22 C9 1.244 . S
O23 Eu0 2.349 . S
O23 C2 1.265 . S
C24 C25 1.379 . S
C24 C28 1.373 . S
C24 C30 1.505 . S
C25 C24 1.379 . S
C25 C27 1.369 . S
C25 H36 0.930 . S
C26 C28 1.383 . S
C26 C29 1.382 . S
C26 H37 0.930 . S
C27 C25 1.369 . S
C27 C29 1.392 . S
C27 H38 0.930 . S
C28 C24 1.373 . S
C28 C26 1.383 . S
C28 H39 0.931 . S
C29 C26 1.382 . S
C29 C27 1.392 . S
C30 Eu1 2.828 1_556 S
C30 O14 1.249 1_556 S
C30 O15 1.244 1_556 S
C30 C24 1.505 . S
C31 O18 1.258 . S
C31 O19 1.242 . S
H32 C4 0.930 . S
H33 C5 0.930 . S
H34 C6 0.930 . S
H35 C7 0.931 . S
H36 C25 0.930 . S
H37 C26 0.930 . S
H38 C27 0.930 . S
H39 C28 0.931 . S
Eu40 C49 2.828 . S
Eu40 O51 2.392 . S
Eu40 O53 2.418 . S
Eu40 O58 2.373 . S
Eu40 O61 2.488 . S
Eu40 O62 2.471 . S
Eu40 O63 2.349 . S
Eu41 O50 2.373 . S
Eu41 O54 2.488 . S
Eu41 O55 2.471 . S
Eu41 O56 2.349 . S
Eu41 O59 2.392 . S
Eu41 O60 2.418 . S
Eu41 C70 2.828 . S
C42 O60 1.244 . S
C42 O63 1.265 . S
C43 C44 1.379 . S
C43 C47 1.373 1_455 S
C43 C49 1.505 . S
C44 C43 1.379 . S
C44 C46 1.369 . S
C44 H72 0.930 . S
C45 C47 1.383 . S
C45 C48 1.382 . S
C45 H73 0.930 . S
C46 C44 1.369 . S
C46 C48 1.392 1_455 S
C46 H74 0.930 . S
C47 C43 1.373 1_655 S
C47 C45 1.383 . S
C47 H75 0.931 . S
C48 C45 1.382 . S
C48 C46 1.392 1_655 S
C49 Eu40 2.828 . S
C49 C43 1.505 . S
C49 O61 1.249 . S
C49 O62 1.244 . S
O50 Eu41 2.373 . S
O50 C52 1.258 . S
O51 Eu40 2.392 . S
O51 C52 1.242 . S
C52 O50 1.258 . S
C52 O51 1.242 . S
O53 Eu40 2.418 . S
O53 C57 1.244 . S
O54 Eu41 2.488 . S
O54 C70 1.249 . S
O55 Eu41 2.471 . S
O55 C70 1.244 . S
O56 Eu41 2.349 . S
O56 C57 1.265 . S
C57 O53 1.244 . S
C57 O56 1.265 . S
O58 Eu40 2.373 . S
O58 C71 1.258 . S
O59 Eu41 2.392 . S
O59 C71 1.242 . S
O60 Eu41 2.418 . S
O60 C42 1.244 . S
O61 Eu40 2.488 . S
O61 C49 1.249 . S
O62 Eu40 2.471 . S
O62 C49 1.244 . S
O63 Eu40 2.349 . S
O63 C42 1.265 . S
C64 C65 1.379 . S
C64 C68 1.373 . S
C64 C70 1.505 . S
C65 C64 1.379 . S
C65 C67 1.369 . S
C65 H76 0.930 . S
C66 C68 1.383 . S
C66 C69 1.382 . S
C66 H77 0.930 . S
C67 C65 1.369 . S
C67 C69 1.392 . S
C67 H78 0.930 . S
C68 C64 1.373 . S
C68 C66 1.383 . S
C68 H79 0.931 . S
C69 C66 1.382 . S
C69 C67 1.392 . S
C70 Eu41 2.828 . S
C70 O54 1.249 . S
C70 O55 1.244 . S
C70 C64 1.505 . S
C71 O58 1.258 . S
C71 O59 1.242 . S
H72 C44 0.930 . S
H73 C45 0.930 . S
H74 C46 0.930 . S
H75 C47 0.931 . S
H76 C65 0.930 . S
H77 C66 0.930 . S
H78 C67 0.930 . S
H79 C68 0.931 . S
Eu80 C89 2.828 . S
Eu80 O91 2.392 . S
Eu80 O93 2.418 . S
Eu80 O98 2.373 . S
Eu80 O101 2.488 . S
Eu80 O102 2.471 . S
Eu80 O103 2.349 . S
Eu81 O90 2.373 1_565 S
Eu81 O94 2.488 . S
Eu81 O95 2.471 . S
Eu81 O96 2.349 . S
Eu81 O99 2.392 . S
Eu81 O100 2.418 . S
Eu81 C110 2.828 1_554 S
C82 O100 1.244 . S
C82 O103 1.265 1_565 S
C83 C84 1.379 . S
C83 C87 1.373 . S
C83 C89 1.505 . S
C84 C83 1.379 . S
C84 C86 1.369 . S
C84 H112 0.930 . S
C85 C87 1.383 . S
C85 C88 1.382 . S
C85 H113 0.930 . S
C86 C84 1.369 . S
C86 C88 1.392 . S
C86 H114 0.930 . S
C87 C83 1.373 . S
C87 C85 1.383 . S
C87 H115 0.931 . S
C88 C85 1.382 . S
C88 C86 1.392 . S
C89 Eu80 2.828 . S
C89 C83 1.505 . S
C89 O101 1.249 . S
C89 O102 1.244 . S
O90 Eu81 2.373 1_545 S
O90 C92 1.258 . S
O91 Eu80 2.392 . S
O91 C92 1.242 . S
C92 O90 1.258 . S
C92 O91 1.242 . S
O93 Eu80 2.418 . S
O93 C97 1.244 . S
O94 Eu81 2.488 . S
O94 C110 1.249 1_554 S
O95 Eu81 2.471 . S
O95 C110 1.244 1_554 S
O96 Eu81 2.349 . S
O96 C97 1.265 1_565 S
C97 O93 1.244 . S
C97 O96 1.265 1_545 S
O98 Eu80 2.373 . S
O98 C111 1.258 1_545 S
O99 Eu81 2.392 . S
O99 C111 1.242 . S
O100 Eu81 2.418 . S
O100 C82 1.244 . S
O101 Eu80 2.488 . S
O101 C89 1.249 . S
O102 Eu80 2.471 . S
O102 C89 1.244 . S
O103 Eu80 2.349 . S
O103 C82 1.265 1_545 S
C104 C105 1.379 . S
C104 C108 1.373 . S
C104 C110 1.505 . S
C105 C104 1.379 . S
C105 C107 1.369 . S
C105 H116 0.930 . S
C106 C108 1.383 . S
C106 C109 1.382 . S
C106 H117 0.930 . S
C107 C105 1.369 . S
C107 C109 1.392 . S
C107 H118 0.930 . S
C108 C104 1.373 . S
C108 C106 1.383 . S
C108 H119 0.931 . S
C109 C106 1.382 . S
C109 C107 1.392 . S
C110 Eu81 2.828 1_556 S
C110 O94 1.249 1_556 S
C110 O95 1.244 1_556 S
C110 C104 1.505 . S
C111 O98 1.258 1_565 S
C111 O99 1.242 . S
H112 C84 0.930 . S
H113 C85 0.930 . S
H114 C86 0.930 . S
H115 C87 0.931 . S
H116 C105 0.930 . S
H117 C106 0.930 . S
H118 C107 0.930 . S
H119 C108 0.931 . S
Eu120 C129 2.828 . S
Eu120 O131 2.392 . S
Eu120 O133 2.418 . S
Eu120 O138 2.373 . S
Eu120 O141 2.488 . S
Eu120 O142 2.471 . S
Eu120 O143 2.349 . S
Eu121 O130 2.373 1_655 S
Eu121 O134 2.488 . S
Eu121 O135 2.471 . S
Eu121 O136 2.349 . S
Eu121 O139 2.392 . S
Eu121 O140 2.418 . S
Eu121 C150 2.828 . S
C122 O140 1.244 . S
C122 O143 1.265 1_655 S
C123 C124 1.379 . S
C123 C127 1.373 . S
C123 C129 1.505 . S
C124 C123 1.379 . S
C124 C126 1.369 . S
C124 H152 0.930 . S
C125 C127 1.383 . S
C125 C128 1.382 . S
C125 H153 0.930 . S
C126 C124 1.369 . S
C126 C128 1.392 . S
C126 H154 0.930 . S
C127 C123 1.373 . S
C127 C125 1.383 . S
C127 H155 0.931 . S
C128 C125 1.382 . S
C128 C126 1.392 . S
C129 Eu120 2.828 . S
C129 C123 1.505 . S
C129 O141 1.249 . S
C129 O142 1.244 . S
O130 Eu121 2.373 1_455 S
O130 C132 1.258 . S
O131 Eu120 2.392 . S
O131 C132 1.242 . S
C132 O130 1.258 . S
C132 O131 1.242 . S
O133 Eu120 2.418 . S
O133 C137 1.244 . S
O134 Eu121 2.488 . S
O134 C150 1.249 . S
O135 Eu121 2.471 . S
O135 C150 1.244 . S
O136 Eu121 2.349 . S
O136 C137 1.265 1_655 S
C137 O133 1.244 . S
C137 O136 1.265 1_455 S
O138 Eu120 2.373 . S
O138 C151 1.258 1_455 S
O139 Eu121 2.392 . S
O139 C151 1.242 . S
O140 Eu121 2.418 . S
O140 C122 1.244 . S
O141 Eu120 2.488 . S
O141 C129 1.249 . S
O142 Eu120 2.471 . S
O142 C129 1.244 . S
O143 Eu120 2.349 . S
O143 C122 1.265 1_455 S
C144 C145 1.379 . S
C144 C148 1.373 . S
C144 C150 1.505 . S
C145 C144 1.379 . S
C145 C147 1.369 . S
C145 H156 0.930 . S
C146 C148 1.383 . S
C146 C149 1.382 . S
C146 H157 0.930 . S
C147 C145 1.369 . S
C147 C149 1.392 . S
C147 H158 0.930 . S
C148 C144 1.373 . S
C148 C146 1.383 . S
C148 H159 0.931 . S
C149 C146 1.382 . S
C149 C147 1.392 . S
C150 Eu121 2.828 . S
C150 O134 1.249 . S
C150 O135 1.244 . S
C150 C144 1.505 . S
C151 O138 1.258 1_655 S
C151 O139 1.242 . S
H152 C124 0.930 . S
H153 C125 0.930 . S
H154 C126 0.930 . S
H155 C127 0.931 . S
H156 C145 0.930 . S
H157 C146 0.930 . S
H158 C147 0.930 . S
H159 C148 0.931 . S
C160 C161 1.391 . S
C160 C162 1.394 1_655 S
C160 H176 0.931 . S
C161 C160 1.391 . S
C161 C165 1.376 1_545 S
C162 C160 1.394 1_455 S
C162 C163 1.369 . S
C162 C166 1.531 . S
C163 C162 1.369 . S
C163 C164 1.410 . S
C163 C171 1.503 . S
C164 C163 1.410 . S
C164 C165 1.392 1_445 S
C164 C167 1.511 1_545 S
C165 C161 1.376 1_565 S
C165 C164 1.392 1_665 S
C165 H177 0.929 . S
C166 C162 1.531 . S
C166 H178 0.960 . S
C166 H179 0.962 . S
C166 H180 0.960 . S
C167 C164 1.511 1_565 S
C167 H181 0.961 . S
C167 H182 0.961 1_565 S
C167 H183 0.959 1_565 S
C168 C169 1.370 . S
C168 C170 1.363 . S
C168 H184 0.931 . S
C169 C168 1.370 . S
C169 C173 1.408 . S
C170 C168 1.363 . S
C170 C171 1.370 . S
C170 C174 1.524 . S
C171 C163 1.503 . S
C171 C170 1.370 . S
C171 C172 1.403 . S
C172 C171 1.403 . S
C172 C173 1.404 . S
C172 C175 1.539 . S
C173 C169 1.408 . S
C173 C172 1.404 . S
C173 H185 0.930 . S
C174 C170 1.524 . S
C174 H186 0.956 . S
C174 H187 0.961 . S
C174 H188 0.961 . S
C175 C172 1.539 . S
C175 H189 0.958 . S
C175 H190 0.961 . S
C175 H191 0.960 . S
H176 C160 0.931 . S
H177 C165 0.929 . S
H178 C166 0.960 . S
H179 C166 0.962 . S
H180 C166 0.960 . S
H181 C167 0.961 . S
H182 C167 0.961 1_545 S
H183 C167 0.959 1_545 S
H184 C168 0.931 . S
H185 C173 0.930 . S
H186 C174 0.956 . S
H187 C174 0.961 . S
H188 C174 0.961 . S
H189 C175 0.958 . S
H190 C175 0.961 . S
H191 C175 0.960 . S
C192 C193 1.391 . S
C192 C194 1.394 1_565 S
C192 H208 0.931 . S
C193 C192 1.391 . S
C193 C197 1.376 1_455 S
C194 C192 1.394 1_545 S
C194 C195 1.369 . S
C194 C198 1.531 . S
C195 C194 1.369 . S
C195 C196 1.410 . S
C195 C203 1.503 . S
C196 C195 1.410 . S
C196 C197 1.392 1_445 S
C196 C199 1.511 1_455 S
C197 C193 1.376 1_655 S
C197 C196 1.392 1_665 S
C197 H209 0.929 . S
C198 C194 1.531 . S
C198 H210 0.960 . S
C198 H211 0.962 . S
C198 H212 0.960 . S
C199 C196 1.511 1_655 S
C199 H213 0.961 . S
C199 H214 0.961 . S
C199 H215 0.961 . S
C200 C201 1.370 . S
C200 C202 1.363 . S
C200 H216 0.931 . S
C201 C200 1.370 . S
C201 C205 1.408 . S
C202 C200 1.363 . S
C202 C203 1.370 . S
C202 C206 1.524 . S
C203 C195 1.503 . S
C203 C202 1.370 . S
C203 C204 1.403 . S
C204 C203 1.403 . S
C204 C205 1.404 . S
C204 C207 1.539 . S
C205 C201 1.408 . S
C205 C204 1.404 . S
C205 H217 0.930 . S
C206 C202 1.524 . S
C206 H218 0.956 . S
C206 H219 0.961 . S
C206 H220 0.961 . S
C207 C204 1.539 . S
C207 H221 0.958 . S
C207 H222 0.961 . S
C207 H223 0.960 . S
H208 C192 0.931 . S
H209 C197 0.929 . S
H210 C198 0.960 . S
H211 C198 0.962 . S
H212 C198 0.960 . S
H213 C199 0.961 . S
H214 C199 0.961 . S
H215 C199 0.961 . S
H216 C200 0.931 . S
H217 C205 0.930 . S
H218 C206 0.956 . S
H219 C206 0.961 . S
H220 C206 0.961 . S
H221 C207 0.958 . S
H222 C207 0.961 . S
H223 C207 0.960 . S
C224 C225 1.391 . S
C224 C226 1.394 . S
C224 H240 0.931 . S
C225 C224 1.391 . S
C225 C229 1.376 1_545 S
C226 C224 1.394 . S
C226 C227 1.369 . S
C226 C230 1.531 . S
C227 C226 1.369 . S
C227 C228 1.410 . S
C227 C235 1.503 . S
C228 C227 1.410 . S
C228 C229 1.392 1_545 S
C228 C231 1.511 . S
C229 C225 1.376 1_565 S
C229 C228 1.392 1_565 S
C229 H241 0.929 . S
C230 C226 1.531 . S
C230 H242 0.960 . S
C230 H243 0.962 . S
C230 H244 0.960 . S
C231 C228 1.511 . S
C231 H245 0.961 . S
C231 H246 0.961 . S
C231 H247 0.961 1_545 S
C232 C233 1.370 . S
C232 C234 1.363 . S
C232 H248 0.931 . S
C233 C232 1.370 . S
C233 C237 1.408 . S
C234 C232 1.363 . S
C234 C235 1.370 . S
C234 C238 1.524 . S
C235 C227 1.503 . S
C235 C234 1.370 . S
C235 C236 1.403 . S
C236 C235 1.403 . S
C236 C237 1.404 . S
C236 C239 1.539 . S
C237 C233 1.408 . S
C237 C236 1.404 . S
C237 H249 0.930 . S
C238 C234 1.524 . S
C238 H250 0.956 . S
C238 H251 0.961 . S
C238 H252 0.961 . S
C239 C236 1.539 . S
C239 H253 0.958 . S
C239 H254 0.961 . S
C239 H255 0.960 1_545 S
H240 C224 0.931 . S
H241 C229 0.929 . S
H242 C230 0.960 . S
H243 C230 0.962 . S
H244 C230 0.960 . S
H245 C231 0.961 . S
H246 C231 0.961 . S
H247 C231 0.961 1_565 S
H248 C232 0.931 . S
H249 C237 0.930 . S
H250 C238 0.956 . S
H251 C238 0.961 . S
H252 C238 0.961 . S
H253 C239 0.958 . S
H254 C239 0.961 . S
H255 C239 0.960 1_565 S
C256 C257 1.391 . S
C256 C258 1.394 . S
C256 H272 0.931 . S
C257 C256 1.391 . S
C257 C261 1.376 . S
C258 C256 1.394 . S
C258 C259 1.369 . S
C258 C262 1.531 . S
C259 C258 1.369 . S
C259 C260 1.410 . S
C259 C267 1.503 . S
C260 C259 1.410 . S
C260 C261 1.392 . S
C260 C263 1.511 . S
C261 C257 1.376 . S
C261 C260 1.392 . S
C261 H273 0.929 . S
C262 C258 1.531 . S
C262 H274 0.960 . S
C262 H275 0.962 . S
C262 H276 0.960 . S
C263 C260 1.511 . S
C263 H277 0.961 . S
C263 H278 0.961 . S
C263 H279 0.961 . S
C264 C265 1.370 1_655 S
C264 C266 1.363 1_655 S
C264 H280 0.931 . S
C265 C264 1.370 1_455 S
C265 C269 1.408 . S
C266 C264 1.363 1_455 S
C266 C267 1.370 . S
C266 C270 1.524 . S
C267 C259 1.503 . S
C267 C266 1.370 . S
C267 C268 1.403 . S
C268 C267 1.403 . S
C268 C269 1.404 . S
C268 C271 1.539 . S
C269 C265 1.408 . S
C269 C268 1.404 . S
C269 H281 0.930 . S
C270 C266 1.524 . S
C270 H282 0.956 . S
C270 H283 0.961 . S
C270 H284 0.961 1_455 S
C271 C268 1.539 . S
C271 H285 0.958 . S
C271 H286 0.961 . S
C271 H287 0.960 . S
H272 C256 0.931 . S
H273 C261 0.929 . S
H274 C262 0.960 . S
H275 C262 0.962 . S
H276 C262 0.960 . S
H277 C263 0.961 . S
H278 C263 0.961 . S
H279 C263 0.961 . S
H280 C264 0.931 . S
H281 C269 0.930 . S
H282 C270 0.956 . S
H283 C270 0.961 . S
H284 C270 0.961 1_655 S
H285 C271 0.958 . S
H286 C271 0.961 . S
H287 C271 0.960 . S
C288 C289 1.391 . S
C288 C290 1.394 . S
C288 H304 0.931 . S
C289 C288 1.391 . S
C289 C293 1.376 . S
C290 C288 1.394 . S
C290 C291 1.369 . S
C290 C294 1.531 . S
C291 C290 1.369 . S
C291 C292 1.410 . S
C291 C299 1.503 . S
C292 C291 1.410 . S
C292 C293 1.392 . S
C292 C295 1.511 . S
C293 C289 1.376 . S
C293 C292 1.392 . S
C293 H305 0.929 . S
C294 C290 1.531 . S
C294 H306 0.960 . S
C294 H307 0.962 . S
C294 H308 0.960 . S
C295 C292 1.511 . S
C295 H309 0.961 . S
C295 H310 0.961 . S
C295 H311 0.961 . S
C296 C297 1.370 . S
C296 C298 1.363 . S
C296 H312 0.931 . S
C297 C296 1.370 . S
C297 C301 1.408 . S
C298 C296 1.363 . S
C298 C299 1.370 . S
C298 C302 1.524 . S
C299 C291 1.503 . S
C299 C298 1.370 . S
C299 C300 1.403 . S
C300 C299 1.403 . S
C300 C301 1.404 . S
C300 C303 1.539 . S
C301 C297 1.408 . S
C301 C300 1.404 . S
C301 H313 0.930 . S
C302 C298 1.524 . S
C302 H314 0.956 . S
C302 H315 0.961 . S
C302 H316 0.961 . S
C303 C300 1.539 . S
C303 H317 0.958 . S
C303 H318 0.961 . S
C303 H319 0.960 . S
H304 C288 0.931 . S
H305 C293 0.929 . S
H306 C294 0.960 . S
H307 C294 0.962 . S
H308 C294 0.960 . S
H309 C295 0.961 . S
H310 C295 0.961 . S
H311 C295 0.961 . S
H312 C296 0.931 . S
H313 C301 0.930 . S
H314 C302 0.956 . S
H315 C302 0.961 . S
H316 C302 0.961 . S
H317 C303 0.958 . S
H318 C303 0.961 . S
H319 C303 0.960 . S
C320 C321 1.391 1_655 S
C320 C322 1.394 . S
C320 H336 0.931 . S
C321 C320 1.391 1_455 S
C321 C325 1.376 . S
C322 C320 1.394 . S
C322 C323 1.369 . S
C322 C326 1.531 . S
C323 C322 1.369 . S
C323 C324 1.410 1_655 S
C323 C331 1.503 . S
C324 C323 1.410 1_455 S
C324 C325 1.392 . S
C324 C327 1.511 . S
C325 C321 1.376 . S
C325 C324 1.392 . S
C325 H337 0.929 . S
C326 C322 1.531 . S
C326 H338 0.960 . S
C326 H339 0.962 . S
C326 H340 0.960 . S
C327 C324 1.511 . S
C327 H341 0.961 . S
C327 H342 0.961 . S
C327 H343 0.961 . S
C328 C329 1.370 . S
C328 C330 1.363 . S
C328 H344 0.931 . S
C329 C328 1.370 . S
C329 C333 1.408 . S
C330 C328 1.363 . S
C330 C331 1.370 . S
C330 C334 1.524 1_655 S
C331 C323 1.503 . S
C331 C330 1.370 . S
C331 C332 1.403 . S
C332 C331 1.403 . S
C332 C333 1.404 . S
C332 C335 1.539 . S
C333 C329 1.408 . S
C333 C332 1.404 . S
C333 H345 0.930 . S
C334 C330 1.524 1_455 S
C334 H346 0.956 1_455 S
C334 H347 0.961 . S
C334 H348 0.961 . S
C335 C332 1.539 . S
C335 H349 0.958 . S
C335 H350 0.961 . S
C335 H351 0.960 . S
H336 C320 0.931 . S
H337 C325 0.929 . S
H338 C326 0.960 . S
H339 C326 0.962 . S
H340 C326 0.960 . S
H341 C327 0.961 . S
H342 C327 0.961 . S
H343 C327 0.961 . S
H344 C328 0.931 . S
H345 C333 0.930 . S
H346 C334 0.956 1_655 S
H347 C334 0.961 . S
H348 C334 0.961 . S
H349 C335 0.958 . S
H350 C335 0.961 . S
H351 C335 0.960 . S
C352 C353 1.391 . S
C352 C354 1.394 . S
C352 H368 0.931 . S
C353 C352 1.391 . S
C353 C357 1.376 . S
C354 C352 1.394 . S
C354 C355 1.369 . S
C354 C358 1.531 . S
C355 C354 1.369 . S
C355 C356 1.410 . S
C355 C363 1.503 . S
C356 C355 1.410 . S
C356 C357 1.392 . S
C356 C359 1.511 . S
C357 C353 1.376 . S
C357 C356 1.392 . S
C357 H369 0.929 . S
C358 C354 1.531 . S
C358 H370 0.960 . S
C358 H371 0.962 . S
C358 H372 0.960 . S
C359 C356 1.511 . S
C359 H373 0.961 . S
C359 H374 0.961 . S
C359 H375 0.961 1_655 S
C360 C361 1.370 . S
C360 C362 1.363 . S
C360 H376 0.931 . S
C361 C360 1.370 . S
C361 C365 1.408 . S
C362 C360 1.363 . S
C362 C363 1.370 . S
C362 C366 1.524 . S
C363 C355 1.503 . S
C363 C362 1.370 . S
C363 C364 1.403 . S
C364 C363 1.403 . S
C364 C365 1.404 . S
C364 C367 1.539 . S
C365 C361 1.408 . S
C365 C364 1.404 . S
C365 H377 0.930 . S
C366 C362 1.524 . S
C366 H378 0.956 . S
C366 H379 0.961 . S
C366 H380 0.961 . S
C367 C364 1.539 . S
C367 H381 0.958 . S
C367 H382 0.961 1_565 S
C367 H383 0.960 . S
H368 C352 0.931 . S
H369 C357 0.929 . S
H370 C358 0.960 . S
H371 C358 0.962 . S
H372 C358 0.960 . S
H373 C359 0.961 . S
H374 C359 0.961 . S
H375 C359 0.961 1_455 S
H376 C360 0.931 . S
H377 C365 0.930 . S
H378 C366 0.956 . S
H379 C366 0.961 . S
H380 C366 0.961 . S
H381 C367 0.958 . S
H382 C367 0.961 1_545 S
H383 C367 0.960 . S
C384 C385 1.391 . S
C384 C386 1.394 1_565 S
C384 H400 0.931 1_565 S
C385 C384 1.391 . S
C385 C389 1.376 . S
C386 C384 1.394 1_545 S
C386 C387 1.369 1_545 S
C386 C390 1.531 . S
C387 C386 1.369 1_565 S
C387 C388 1.410 . S
C387 C395 1.503 . S
C388 C387 1.410 . S
C388 C389 1.392 . S
C388 C391 1.511 . S
C389 C385 1.376 . S
C389 C388 1.392 . S
C389 H401 0.929 . S
C390 C386 1.531 . S
C390 H402 0.960 . S
C390 H403 0.962 . S
C390 H404 0.960 . S
C391 C388 1.511 . S
C391 H405 0.961 . S
C391 H406 0.961 . S
C391 H407 0.961 . S
C392 C393 1.370 . S
C392 C394 1.363 1_545 S
C392 H408 0.931 . S
C393 C392 1.370 . S
C393 C397 1.408 . S
C394 C392 1.363 1_565 S
C394 C395 1.370 . S
C394 C398 1.524 . S
C395 C387 1.503 . S
C395 C394 1.370 . S
C395 C396 1.403 1_565 S
C396 C395 1.403 1_545 S
C396 C397 1.404 . S
C396 C399 1.539 . S
C397 C393 1.408 . S
C397 C396 1.404 . S
C397 H409 0.930 . S
C398 C394 1.524 . S
C398 H410 0.956 . S
C398 H411 0.961 . S
C398 H412 0.961 . S
C399 C396 1.539 . S
C399 H413 0.958 . S
C399 H414 0.961 . S
C399 H415 0.960 . S
H400 C384 0.931 1_545 S
H401 C389 0.929 . S
H402 C390 0.960 . S
H403 C390 0.962 . S
H404 C390 0.960 . S
H405 C391 0.961 . S
H406 C391 0.961 . S
H407 C391 0.961 . S
H408 C392 0.931 . S
H409 C397 0.930 . S
H410 C398 0.956 . S
H411 C398 0.961 . S
H412 C398 0.961 . S
H413 C399 0.958 . S
H414 C399 0.961 . S
H415 C399 0.960 . S
C416 C417 1.391 . S
C416 C418 1.394 . S
C416 H432 0.931 . S
C417 C416 1.391 . S
C417 C421 1.376 . S
C418 C416 1.394 . S
C418 C419 1.369 . S
C418 C422 1.531 . S
C419 C418 1.369 . S
C419 C420 1.410 . S
C419 C427 1.503 . S
C420 C419 1.410 . S
C420 C421 1.392 . S
C420 C423 1.511 . S
C421 C417 1.376 . S
C421 C420 1.392 . S
C421 H433 0.929 . S
C422 C418 1.531 . S
C422 H434 0.960 . S
C422 H435 0.962 . S
C422 H436 0.960 . S
C423 C420 1.511 . S
C423 H437 0.961 . S
C423 H438 0.961 . S
C423 H439 0.961 . S
C424 C425 1.370 . S
C424 C426 1.363 . S
C424 H440 0.931 . S
C425 C424 1.370 . S
C425 C429 1.408 . S
C426 C424 1.363 . S
C426 C427 1.370 . S
C426 C430 1.524 . S
C427 C419 1.503 . S
C427 C426 1.370 . S
C427 C428 1.403 . S
C428 C427 1.403 . S
C428 C429 1.404 . S
C428 C431 1.539 . S
C429 C425 1.408 . S
C429 C428 1.404 . S
C429 H441 0.930 . S
C430 C426 1.524 . S
C430 H442 0.956 . S
C430 H443 0.961 . S
C430 H444 0.961 . S
C431 C428 1.539 . S
C431 H445 0.958 . S
C431 H446 0.961 . S
C431 H447 0.960 . S
H432 C416 0.931 . S
H433 C421 0.929 . S
H434 C422 0.960 . S
H435 C422 0.962 . S
H436 C422 0.960 . S
H437 C423 0.961 . S
H438 C423 0.961 . S
H439 C423 0.961 . S
H440 C424 0.931 . S
H441 C429 0.930 . S
H442 C430 0.956 . S
H443 C430 0.961 . S
H444 C430 0.961 . S
H445 C431 0.958 . S
H446 C431 0.961 . S
H447 C431 0.960 . S
C448 C449 1.391 . S
C448 C450 1.394 . S
C448 H464 0.931 . S
C449 C448 1.391 . S
C449 C453 1.376 1_545 S
C450 C448 1.394 . S
C450 C451 1.369 1_545 S
C450 C454 1.531 . S
C451 C450 1.369 1_565 S
C451 C452 1.410 . S
C451 C459 1.503 . S
C452 C451 1.410 . S
C452 C453 1.392 . S
C452 C455 1.511 . S
C453 C449 1.376 1_565 S
C453 C452 1.392 . S
C453 H465 0.929 . S
C454 C450 1.531 . S
C454 H466 0.960 . S
C454 H467 0.962 . S
C454 H468 0.960 . S
C455 C452 1.511 . S
C455 H469 0.961 . S
C455 H470 0.961 . S
C455 H471 0.961 . S
C456 C457 1.370 . S
C456 C458 1.363 . S
C456 H472 0.931 . S
C457 C456 1.370 . S
C457 C461 1.408 . S
C458 C456 1.363 . S
C458 C459 1.370 . S
C458 C462 1.524 . S
C459 C451 1.503 . S
C459 C458 1.370 . S
C459 C460 1.403 . S
C460 C459 1.403 . S
C460 C461 1.404 . S
C460 C463 1.539 . S
C461 C457 1.408 . S
C461 C460 1.404 . S
C461 H473 0.930 . S
C462 C458 1.524 . S
C462 H474 0.956 . S
C462 H475 0.961 . S
C462 H476 0.961 . S
C463 C460 1.539 . S
C463 H477 0.958 1_565 S
C463 H478 0.961 . S
C463 H479 0.960 1_565 S
H464 C448 0.931 . S
H465 C453 0.929 . S
H466 C454 0.960 . S
H467 C454 0.962 . S
H468 C454 0.960 . S
H469 C455 0.961 . S
H470 C455 0.961 . S
H471 C455 0.961 . S
H472 C456 0.931 . S
H473 C461 0.930 . S
H474 C462 0.956 . S
H475 C462 0.961 . S
H476 C462 0.961 . S
H477 C463 0.958 1_545 S
H478 C463 0.961 . S
H479 C463 0.960 1_545 S
C480 C481 1.391 . S
C480 C482 1.394 . S
C480 H496 0.931 . S
C481 C480 1.391 . S
C481 C485 1.376 . S
C482 C480 1.394 . S
C482 C483 1.369 . S
C482 C486 1.531 . S
C483 C482 1.369 . S
C483 C484 1.410 . S
C483 C491 1.503 . S
C484 C483 1.410 . S
C484 C485 1.392 . S
C484 C487 1.511 . S
C485 C481 1.376 . S
C485 C484 1.392 . S
C485 H497 0.929 . S
C486 C482 1.531 . S
C486 H498 0.960 . S
C486 H499 0.962 . S
C486 H500 0.960 . S
C487 C484 1.511 . S
C487 H501 0.961 . S
C487 H502 0.961 . S
C487 H503 0.961 . S
C488 C489 1.370 . S
C488 C490 1.363 . S
C488 H504 0.931 . S
C489 C488 1.370 . S
C489 C493 1.408 . S
C490 C488 1.363 . S
C490 C491 1.370 . S
C490 C494 1.524 . S
C491 C483 1.503 . S
C491 C490 1.370 . S
C491 C492 1.403 . S
C492 C491 1.403 . S
C492 C493 1.404 . S
C492 C495 1.539 . S
C493 C489 1.408 . S
C493 C492 1.404 . S
C493 H505 0.930 . S
C494 C490 1.524 . S
C494 H506 0.956 . S
C494 H507 0.961 . S
C494 H508 0.961 . S
C495 C492 1.539 . S
C495 H509 0.958 . S
C495 H510 0.961 . S
C495 H511 0.960 . S
H496 C480 0.931 . S
H497 C485 0.929 . S
H498 C486 0.960 . S
H499 C486 0.962 . S
H500 C486 0.960 . S
H501 C487 0.961 . S
H502 C487 0.961 . S
H503 C487 0.961 . S
H504 C488 0.931 . S
H505 C493 0.930 . S
H506 C494 0.956 . S
H507 C494 0.961 . S
H508 C494 0.961 . S
H509 C495 0.958 . S
H510 C495 0.961 . S
H511 C495 0.960 . S
C512 C513 1.391 . S
C512 C514 1.394 . S
C512 H528 0.931 . S
C513 C512 1.391 . S
C513 C517 1.376 . S
C514 C512 1.394 . S
C514 C515 1.369 . S
C514 C518 1.531 1_655 S
C515 C514 1.369 . S
C515 C516 1.410 . S
C515 C523 1.503 . S
C516 C515 1.410 . S
C516 C517 1.392 . S
C516 C519 1.511 . S
C517 C513 1.376 . S
C517 C516 1.392 . S
C517 H529 0.929 . S
C518 C514 1.531 1_455 S
C518 H530 0.960 . S
C518 H531 0.962 . S
C518 H532 0.960 . S
C519 C516 1.511 . S
C519 H533 0.961 . S
C519 H534 0.961 . S
C519 H535 0.961 . S
C520 C521 1.370 . S
C520 C522 1.363 1_455 S
C520 H536 0.931 . S
C521 C520 1.370 . S
C521 C525 1.408 . S
C522 C520 1.363 1_655 S
C522 C523 1.370 . S
C522 C526 1.524 . S
C523 C515 1.503 . S
C523 C522 1.370 . S
C523 C524 1.403 . S
C524 C523 1.403 . S
C524 C525 1.404 1_655 S
C524 C527 1.539 . S
C525 C521 1.408 . S
C525 C524 1.404 1_455 S
C525 H537 0.930 . S
C526 C522 1.524 . S
C526 H538 0.956 . S
C526 H539 0.961 . S
C526 H540 0.961 . S
C527 C524 1.539 . S
C527 H541 0.958 1_655 S
C527 H542 0.961 . S
C527 H543 0.960 . S
H528 C512 0.931 . S
H529 C517 0.929 . S
H530 C518 0.960 . S
H531 C518 0.962 . S
H532 C518 0.960 . S
H533 C519 0.961 . S
H534 C519 0.961 . S
H535 C519 0.961 . S
H536 C520 0.931 . S
H537 C525 0.930 . S
H538 C526 0.956 . S
H539 C526 0.961 . S
H540 C526 0.961 . S
H541 C527 0.958 1_455 S
H542 C527 0.961 . S
H543 C527 0.960 . S
C161 C97 0.523 . S
C169 C17 0.596 . S
C193 C137 0.571 . S
C201 C57 0.576 . S
C225 C82 1.236 1_545 S
C233 C2 1.222 . S
C257 C42 1.226 . S
C265 C122 1.221 1_455 S
C289 C71 4.686 . S
C297 C31 4.693 . S
C321 C52 4.452 . S
C329 C92 4.461 1_556 S
C353 C151 4.676 . S
C361 C111 4.688 . S
C385 C132 4.451 . S
C393 C12 4.460 1_556 S
C417 C109 0.889 . S
C425 C149 0.831 . S
C449 C8 1.159 1_545 S
C457 C128 1.149 . S
C481 C69 0.916 . S
C489 C29 0.834 . S
C513 C88 1.163 . S
C521 C48 1.173 1_455 S
