# Generated by pormake.
# Topology msp, (4)-cn, num edge types: 1
# Building blocks:
#     Node 0, Type 0, BuildingBlock: KOZSID_clean_sbu_0, # of connection points: 4
#     Node 1, Type 0, BuildingBlock: KOZSID_clean_sbu_0, # of connection points: 4
#     Node 2, Type 0, BuildingBlock: KOZSID_clean_sbu_0, # of connection points: 4
#     Node 3, Type 0, BuildingBlock: KOZSID_clean_sbu_0, # of connection points: 4
#     Node 4, Type 0, BuildingBlock: KOZSID_clean_sbu_0, # of connection points: 4
#     Node 5, Type 0, BuildingBlock: KOZSID_clean_sbu_0, # of connection points: 4
#     Node 6, Type 0, BuildingBlock: KOZSID_clean_sbu_0, # of connection points: 4
#     Node 7, Type 0, BuildingBlock: KOZSID_clean_sbu_0, # of connection points: 4
#     Edge 8, Type (0, 0), BuildingBlock: KIFKEQ_clean_linker_1, # of connection points: 2
#     Edge 9, Type (0, 0), BuildingBlock: KIFKEQ_clean_linker_1, # of connection points: 2
#     Edge 10, Type (0, 0), BuildingBlock: KIFKEQ_clean_linker_1, # of connection points: 2
#     Edge 11, Type (0, 0), BuildingBlock: KIFKEQ_clean_linker_1, # of connection points: 2
#     Edge 12, Type (0, 0), BuildingBlock: KIFKEQ_clean_linker_1, # of connection points: 2
#     Edge 13, Type (0, 0), BuildingBlock: KIFKEQ_clean_linker_1, # of connection points: 2
#     Edge 14, Type (0, 0), BuildingBlock: KIFKEQ_clean_linker_1, # of connection points: 2
#     Edge 15, Type (0, 0), BuildingBlock: KIFKEQ_clean_linker_1, # of connection points: 2
#     Edge 16, Type (0, 0), BuildingBlock: KIFKEQ_clean_linker_1, # of connection points: 2
#     Edge 17, Type (0, 0), BuildingBlock: KIFKEQ_clean_linker_1, # of connection points: 2
#     Edge 18, Type (0, 0), BuildingBlock: KIFKEQ_clean_linker_1, # of connection points: 2
#     Edge 19, Type (0, 0), BuildingBlock: KIFKEQ_clean_linker_1, # of connection points: 2
#     Edge 20, Type (0, 0), BuildingBlock: KIFKEQ_clean_linker_1, # of connection points: 2
#     Edge 21, Type (0, 0), BuildingBlock: KIFKEQ_clean_linker_1, # of connection points: 2
#     Edge 22, Type (0, 0), BuildingBlock: KIFKEQ_clean_linker_1, # of connection points: 2
#     Edge 23, Type (0, 0), BuildingBlock: KIFKEQ_clean_linker_1, # of connection points: 2
# Relax obj value: 0.072
# Max RMSD: 0.204
# Mean RMSD: 0.204
data_MOF--net-msp--node1-KOZSID_clean_sbu_0--edge1-KIFKEQ_clean_linker_1
_symmetry_space_group_name_H-M    P1
_symmetry_Int_Tables_number       1
_symmetry_cell_setting            triclinic
loop_
_symmetry_equiv_pos_as_xyz
'x, y, z'
_cell_length_a     25.723362
_cell_length_b     12.65839
_cell_length_c     57.388919
_cell_angle_alpha  89.995878
_cell_angle_beta   90.496524
_cell_angle_gamma 89.941587
loop_
_atom_site_label
_atom_site_type_symbol
_atom_site_fract_x
_atom_site_fract_y
_atom_site_fract_z
_atom_type_partial_charge
C0 C 0.99762 0.51088 0.40673 0.0
C1 C 0.98672 0.61647 0.41071 0.0
C2 C 0.99956 0.66931 0.39062 0.0
C3 C 0.01746 0.59295 0.3756 0.0
N4 N 0.01616 0.49584 0.38501 0.0
Co5 Co 0.0416 0.36333 0.37074 0.0
N6 N 0.08543 0.4418 0.34838 0.0
C7 C 0.08097 0.54535 0.34318 0.0
C8 C 0.11666 0.57835 0.32711 0.0
C9 C 0.14466 0.48983 0.32157 0.0
C10 C 0.12407 0.40695 0.33443 0.0
N11 N 0.06654 0.2297 0.35662 0.0
C12 C 0.10618 0.21217 0.34167 0.0
C13 C 0.10787 0.10646 0.33516 0.0
C14 C 0.06749 0.05705 0.34616 0.0
C15 C 0.04329 0.13476 0.35873 0.0
N16 N 0.99748 0.2866 0.39323 0.0
C17 C 0.9809 0.18636 0.3914 0.0
C18 C 0.95344 0.15454 0.41065 0.0
C19 C 0.95319 0.24025 0.42542 0.0
C20 C 0.98053 0.31943 0.41427 0.0
N21 N 0.98369 0.36574 0.34817 0.0
C22 C 0.90029 0.34527 0.31661 0.0
C23 C 0.89181 0.37742 0.33966 0.0
C24 C 0.93401 0.38668 0.3552 0.0
C25 C 0.9515 0.32834 0.3095 0.0
C26 C 0.99243 0.33988 0.32539 0.0
N27 N 0.09898 0.35962 0.39335 0.0
C28 C 0.14132 0.26798 0.42494 0.0
C29 C 0.16552 0.36149 0.43221 0.0
C30 C 0.15917 0.45217 0.41843 0.0
C31 C 0.12564 0.44958 0.39906 0.0
C32 C 0.10866 0.26852 0.40542 0.0
H33 H 0.1191 0.52175 0.3895 0.0
H34 H 0.08895 0.19627 0.40091 0.0
H35 H 0.92635 0.40805 0.37306 0.0
H36 H 0.03111 0.325 0.31924 0.0
C37 C 0.04738 0.61122 0.35574 0.0
C38 C 0.98951 0.42571 0.42352 0.0
C39 C 0.13793 0.29519 0.33083 0.0
C40 C 1.00254 0.11964 0.37455 0.0
H41 H 0.97213 0.65144 0.42657 0.0
H42 H 0.99938 0.75397 0.38795 0.0
H43 H 0.12239 0.6576 0.32054 0.0
H44 H 0.17583 0.48637 0.30904 0.0
H45 H 0.13444 0.06944 0.32313 0.0
H46 H 0.05734 0.97418 0.34524 0.0
H47 H 0.93848 0.0764 0.41426 0.0
H48 H 0.9358 0.24359 0.44251 0.0
H49 H 0.85277 0.39163 0.34586 0.0
H50 H 0.95993 0.30545 0.29174 0.0
H51 H 0.14607 0.19551 0.43477 0.0
H52 H 0.17726 0.52613 0.42339 0.0
C53 C 0.51692 0.52832 0.6132 0.0
C54 C 0.5247 0.63536 0.60967 0.0
C55 C 0.51141 0.68472 0.63014 0.0
C56 C 0.49642 0.60501 0.64495 0.0
N57 N 0.49993 0.50922 0.63502 0.0
Co58 Co 0.47907 0.3729 0.64889 0.0
N59 N 0.43395 0.4439 0.67195 0.0
C60 C 0.43632 0.54687 0.67788 0.0
C61 C 0.40115 0.57369 0.69474 0.0
C62 C 0.37573 0.48164 0.69999 0.0
C63 C 0.39704 0.40319 0.68606 0.0
N64 N 0.45858 0.23544 0.66261 0.0
C65 C 0.41969 0.21191 0.67754 0.0
C66 C 0.42092 0.10556 0.68351 0.0
C67 C 0.46251 0.06191 0.6722 0.0
C68 C 0.48438 0.14354 0.65998 0.0
N69 N 0.52456 0.30347 0.62579 0.0
C70 C 0.54401 0.2051 0.62714 0.0
C71 C 0.57125 0.17752 0.60755 0.0
C72 C 0.56833 0.26386 0.59304 0.0
C73 C 0.53961 0.33974 0.6047 0.0
N74 N 0.53763 0.38075 0.67103 0.0
C75 C 0.62237 0.37842 0.70237 0.0
C76 C 0.62877 0.40915 0.67904 0.0
C77 C 0.58604 0.40972 0.6637 0.0
C78 C 0.57221 0.35178 0.70968 0.0
C79 C 0.53065 0.35385 0.69388 0.0
N80 N 0.42109 0.36485 0.62667 0.0
C81 C 0.38036 0.27381 0.59459 0.0
C82 C 0.35288 0.36538 0.58832 0.0
C83 C 0.35749 0.45431 0.60278 0.0
C84 C 0.3917 0.45236 0.62186 0.0
C85 C 0.41378 0.27494 0.61389 0.0
H86 H 0.39628 0.52341 0.63203 0.0
H87 H 0.43592 0.20462 0.61766 0.0
H88 H 0.59228 0.4321 0.64579 0.0
H89 H 0.49299 0.33131 0.70017 0.0
C90 C 0.46736 0.61777 0.66531 0.0
C91 C 0.52694 0.44579 0.59591 0.0
C92 C 0.38546 0.2899 0.68863 0.0
C93 C 0.52492 0.13463 0.64386 0.0
H94 H 0.53764 0.67341 0.59386 0.0
H95 H 0.50951 0.76898 0.63324 0.0
H96 H 0.39412 0.65116 0.70206 0.0
H97 H 0.34579 0.47286 0.71298 0.0
H98 H 0.39532 0.06445 0.69531 0.0
H99 H 0.47483 0.98013 0.67261 0.0
H100 H 0.58793 0.10122 0.60352 0.0
H101 H 0.58447 0.26868 0.57576 0.0
H102 H 0.66653 0.43215 0.67259 0.0
H103 H 0.56507 0.32603 0.72735 0.0
H104 H 0.37826 0.20306 0.58402 0.0
H105 H 0.33613 0.52611 0.59898 0.0
C106 C 1.00035 0.69798 0.60637 0.0
C107 C 0.01574 0.78987 0.5952 0.0
C108 C 0.00886 0.87097 0.61083 0.0
C109 C 0.98927 0.82468 0.63055 0.0
N110 N 0.98381 0.71966 0.62822 0.0
Co111 Co 0.95157 0.62251 0.651 0.0
N112 N 0.9152 0.73989 0.66689 0.0
C113 C 0.9276 0.84301 0.66517 0.0
C114 C 0.89667 0.90654 0.6786 0.0
C115 C 0.86339 0.83903 0.68973 0.0
C116 C 0.87611 0.73743 0.68256 0.0
N117 N 0.91962 0.52359 0.6735 0.0
C118 C 0.88037 0.53913 0.68873 0.0
C119 C 0.87317 0.45019 0.7025 0.0
C120 C 0.90931 0.37704 0.6957 0.0
C121 C 0.93679 0.42521 0.67828 0.0
N122 N 0.98851 0.50639 0.63517 0.0
C123 C 0.99942 0.41062 0.64404 0.0
C124 C 0.02383 0.34606 0.62824 0.0
C125 C 0.02805 0.40525 0.60824 0.0
C126 C 0.00578 0.5025 0.61303 0.0
N127 N 0.01103 0.64222 0.67226 0.0
C128 C 0.09426 0.69434 0.70223 0.0
C129 C 0.04371 0.68181 0.71074 0.0
C130 C 1.00292 0.65642 0.69557 0.0
C131 C 0.10247 0.67534 0.67842 0.0
C132 C 0.0605 0.64879 0.6638 0.0
N133 N 0.89262 0.60478 0.62959 0.0
C134 C 0.84437 0.49295 0.60324 0.0
C135 C 0.82939 0.58154 0.59018 0.0
C136 C 0.8421 0.6819 0.59856 0.0
C137 C 0.87297 0.69184 0.61849 0.0
C138 C 0.87623 0.50633 0.62298 0.0
H139 H 0.88427 0.77014 0.62378 0.0
H140 H 0.89057 0.43697 0.63188 0.0
H141 H 0.96456 0.65088 0.70276 0.0
H142 H 0.06783 0.63651 0.64551 0.0
C143 C 0.96352 0.87778 0.64854 0.0
C144 C 1.00202 0.59054 0.59652 0.0
C145 C 0.85429 0.64072 0.69287 0.0
C146 C 0.97526 0.37757 0.66459 0.0
H147 H 0.02917 0.79888 0.57754 0.0
H148 H 0.01377 0.95452 0.6075 0.0
H149 H 0.89741 0.99187 0.6798 0.0
H150 H 0.83392 0.8619 0.70209 0.0
H151 H 0.84612 0.44098 0.71666 0.0
H152 H 0.91475 0.2982 0.70261 0.0
H153 H 0.03414 0.26371 0.63042 0.0
H154 H 0.04457 0.37951 0.59191 0.0
H155 H 0.03532 0.69234 0.72905 0.0
H156 H 0.14067 0.68402 0.6709 0.0
H157 H 0.83497 0.41404 0.59726 0.0
H158 H 0.83056 0.75217 0.58904 0.0
C159 C 0.49018 0.6988 0.41313 0.0
C160 C 0.47087 0.78676 0.42451 0.0
C161 C 0.47656 0.87048 0.40943 0.0
C162 C 0.4989 0.82871 0.38975 0.0
N163 N 0.50707 0.72425 0.3916 0.0
Co164 Co 0.54202 0.63226 0.36871 0.0
N165 N 0.5763 0.75442 0.3537 0.0
C166 C 0.56148 0.85619 0.35581 0.0
C167 C 0.5913 0.92377 0.34287 0.0
C168 C 0.6264 0.86047 0.33164 0.0
C169 C 0.61586 0.75713 0.33828 0.0
N170 N 0.57721 0.53862 0.34607 0.0
C171 C 0.61729 0.55887 0.33155 0.0
C172 C 0.62861 0.47072 0.31808 0.0
C173 C 0.59377 0.39373 0.32414 0.0
C174 C 0.56319 0.43868 0.34094 0.0
N175 N 0.50679 0.51146 0.38375 0.0
C176 C 0.49908 0.41529 0.37444 0.0
C177 C 0.47687 0.34631 0.38995 0.0
C178 C 0.47073 0.4028 0.41021 0.0
C179 C 0.48934 0.50366 0.40587 0.0
N180 N 0.48308 0.6487 0.34699 0.0
C181 C 0.39975 0.68771 0.31597 0.0
C182 C 0.45109 0.68091 0.30805 0.0
C183 C 0.49187 0.66264 0.32373 0.0
C184 C 0.39115 0.67108 0.33987 0.0
C185 C 0.43314 0.65069 0.35498 0.0
N186 N 0.60044 0.61681 0.39047 0.0
C187 C 0.65082 0.5051 0.41602 0.0
C188 C 0.66674 0.59312 0.42912 0.0
C189 C 0.65222 0.69375 0.42111 0.0
C190 C 0.61931 0.70379 0.4018 0.0
C191 C 0.61804 0.51873 0.39666 0.0
H192 H 0.60644 0.78187 0.397 0.0
H193 H 0.60465 0.44943 0.3875 0.0
H194 H 0.53067 0.66128 0.31691 0.0
H195 H 0.4253 0.63861 0.37324 0.0
C196 C 0.52408 0.88619 0.37227 0.0
C197 C 0.49081 0.59136 0.42264 0.0
C198 C 0.64031 0.66371 0.32769 0.0
C199 C 0.52534 0.38639 0.35411 0.0
H200 H 0.45524 0.79002 0.44194 0.0
H201 H 0.46866 0.95283 0.41305 0.0
H202 H 0.58857 0.00902 0.34202 0.0
H203 H 0.65564 0.88717 0.31955 0.0
H204 H 0.65799 0.46386 0.30479 0.0
H205 H 0.59152 0.31414 0.31731 0.0
H206 H 0.46981 0.26275 0.38749 0.0
H207 H 0.45573 0.37179 0.42634 0.0
H208 H 0.4602 0.68969 0.28977 0.0
H209 H 0.3525 0.67604 0.34708 0.0
H210 H 0.66224 0.42592 0.42105 0.0
H211 H 0.6631 0.76444 0.43057 0.0
C212 C 0.48978 0.02687 0.9044 0.0
C213 C 0.4822 0.13431 0.9074 0.0
C214 C 0.49577 0.18136 0.88671 0.0
C215 C 0.51076 0.09995 0.87234 0.0
N216 N 0.507 0.00523 0.88273 0.0
Co217 Co 0.52793 0.86715 0.86962 0.0
N218 N 0.5732 0.93538 0.84626 0.0
C219 C 0.57105 0.03781 0.83985 0.0
C220 C 0.60652 0.06276 0.823 0.0
C221 C 0.63189 0.97005 0.81826 0.0
C222 C 0.61018 0.89298 0.83241 0.0
N223 N 0.54855 0.72798 0.85673 0.0
C224 C 0.58745 0.70261 0.84192 0.0
C225 C 0.5863 0.59557 0.83659 0.0
C226 C 0.5448 0.55331 0.8482 0.0
C227 C 0.52287 0.63641 0.85994 0.0
N228 N 0.48221 0.80062 0.89302 0.0
C229 C 0.46276 0.70224 0.89225 0.0
C230 C 0.43491 0.67769 0.91189 0.0
C231 C 0.43746 0.76615 0.9258 0.0
C232 C 0.46671 0.8397 0.91378 0.0
N233 N 0.46959 0.8728 0.84732 0.0
C234 C 0.38567 0.86904 0.81549 0.0
C235 C 0.37884 0.903 0.83859 0.0
C236 C 0.42115 0.90399 0.8542 0.0
C237 C 0.43584 0.83923 0.80873 0.0
C238 C 0.47695 0.84242 0.82472 0.0
N239 N 0.58581 0.86118 0.89193 0.0
C240 C 0.62699 0.77309 0.92433 0.0
C241 C 0.65497 0.8648 0.92995 0.0
C242 C 0.65035 0.95206 0.91498 0.0
C243 C 0.6156 0.94864 0.89611 0.0
C244 C 0.5931 0.77267 0.9052 0.0
H245 H 0.61103 0.01859 0.88558 0.0
H246 H 0.57064 0.70235 0.90194 0.0
H247 H 0.4146 0.92885 0.87193 0.0
H248 H 0.51461 0.81812 0.81874 0.0
C249 C 0.54002 0.11029 0.85199 0.0
C250 C 0.4793 0.94629 0.92201 0.0
C251 C 0.62141 0.77928 0.83025 0.0
C252 C 0.48215 0.62955 0.87604 0.0
H253 H 0.46915 0.17411 0.92298 0.0
H254 H 0.49786 0.26525 0.88318 0.0
H255 H 0.6138 0.1395 0.81538 0.0
H256 H 0.66209 0.95994 0.80543 0.0
H257 H 0.61185 0.55306 0.82499 0.0
H258 H 0.53253 0.47154 0.84826 0.0
H259 H 0.41791 0.60223 0.91633 0.0
H260 H 0.42071 0.77467 0.94292 0.0
H261 H 0.34111 0.92844 0.84467 0.0
H262 H 0.44343 0.81042 0.79133 0.0
H263 H 0.62891 0.70366 0.93532 0.0
H264 H 0.67201 0.02391 0.91827 0.0
C265 C 0.0077 0.01546 0.11162 0.0
C266 C 0.01961 0.12069 0.1078 0.0
C267 C 0.00815 0.17316 0.12811 0.0
C268 C 0.99002 0.09697 0.14309 0.0
N269 N 0.9899 0.0003 0.13345 0.0
Co270 Co 0.9635 0.86843 0.14757 0.0
N271 N 0.92116 0.94795 0.17035 0.0
C272 C 0.92697 0.05095 0.17579 0.0
C273 C 0.89215 0.08491 0.19215 0.0
C274 C 0.86331 0.99756 0.19764 0.0
C275 C 0.88254 0.91435 0.18444 0.0
N276 N 0.93753 0.73541 0.16154 0.0
C277 C 0.89809 0.71912 0.17666 0.0
C278 C 0.89543 0.61324 0.18295 0.0
C279 C 0.935 0.56241 0.17164 0.0
C280 C 0.95971 0.63951 0.1591 0.0
N281 N 0.00616 0.79071 0.12467 0.0
C282 C 0.02174 0.68965 0.12619 0.0
C283 C 0.04815 0.65733 0.10668 0.0
C284 C 0.04874 0.74357 0.09206 0.0
C285 C 0.02267 0.82365 0.10356 0.0
N286 N 0.02201 0.86707 0.16982 0.0
C287 C 0.10595 0.84161 0.20089 0.0
C288 C 0.11417 0.87469 0.17789 0.0
C289 C 0.07168 0.88636 0.16258 0.0
C290 C 0.05481 0.8262 0.20822 0.0
C291 C 0.0136 0.84032 0.19258 0.0
N292 N 0.90552 0.86845 0.12527 0.0
C293 C 0.86055 0.77982 0.094 0.0
C294 C 0.83668 0.87459 0.08715 0.0
C295 C 0.84535 0.96475 0.10089 0.0
C296 C 0.87979 0.95994 0.11989 0.0
C297 C 0.89436 0.77832 0.11313 0.0
H298 H 0.88742 0.03137 0.12956 0.0
H299 H 0.91368 0.70511 0.11727 0.0
H300 H 0.07907 0.90833 0.14474 0.0
H301 H 0.97497 0.82673 0.1989 0.0
C302 C 0.96094 0.11575 0.1632 0.0
C303 C 0.01422 0.93072 0.09457 0.0
C304 C 0.86749 0.80316 0.18783 0.0
C305 C 0.99987 0.62321 0.14303 0.0
H306 H 0.03394 0.1557 0.0919 0.0
H307 H 0.00932 0.25767 0.13096 0.0
H308 H 0.88753 0.16407 0.19897 0.0
H309 H 0.83249 0.99502 0.21035 0.0
H310 H 0.86876 0.577 0.19504 0.0
H311 H 0.94429 0.47903 0.17233 0.0
H312 H 0.06208 0.57861 0.1028 0.0
H313 H 0.06544 0.74651 0.07484 0.0
H314 H 0.15318 0.88778 0.17155 0.0
H315 H 0.04665 0.80257 0.22596 0.0
H316 H 0.85549 0.70809 0.08396 0.0
H317 H 0.82698 0.03932 0.09658 0.0
C318 C 0.51038 0.21939 0.10455 0.0
C319 C 0.525 0.3118 0.09337 0.0
C320 C 0.51783 0.39256 0.10904 0.0
C321 C 0.49884 0.34558 0.1288 0.0
N322 N 0.49408 0.24043 0.12646 0.0
Co323 Co 0.46264 0.1423 0.14925 0.0
N324 N 0.42549 0.25861 0.16512 0.0
C325 C 0.43733 0.36203 0.16347 0.0
C326 C 0.40619 0.4247 0.177 0.0
C327 C 0.37335 0.3563 0.18811 0.0
C328 C 0.38647 0.25511 0.18079 0.0
N329 N 0.43122 0.04246 0.1717 0.0
C330 C 0.39124 0.05655 0.18663 0.0
C331 C 0.38312 0.96602 0.19978 0.0
C332 C 0.41994 0.89389 0.19309 0.0
C333 C 0.44843 0.94392 0.17625 0.0
N334 N 0.50054 0.0275 0.13339 0.0
C335 C 0.51188 0.93178 0.14218 0.0
C336 C 0.5363 0.86788 0.12624 0.0
C337 C 0.53996 0.92739 0.10625 0.0
C338 C 0.5174 0.02417 0.11117 0.0
N339 N 0.52191 0.16321 0.17058 0.0
C340 C 0.60566 0.20371 0.20126 0.0
C341 C 0.55475 0.1928 0.20949 0.0
C342 C 0.51374 0.17377 0.19398 0.0
C343 C 0.61362 0.19134 0.17719 0.0
C344 C 0.57144 0.17031 0.16224 0.0
N345 N 0.40393 0.1222 0.12786 0.0
C346 C 0.35902 0.00705 0.10113 0.0
C347 C 0.34282 0.09425 0.08777 0.0
C348 C 0.35204 0.19553 0.09686 0.0
C349 C 0.3826 0.20774 0.11686 0.0
C350 C 0.38938 0.02283 0.12118 0.0
H351 H 0.39215 0.28679 0.12236 0.0
H352 H 0.40454 0.95444 0.13016 0.0
H353 H 0.47526 0.16851 0.20106 0.0
H354 H 0.57879 0.16131 0.14385 0.0
C355 C 0.4729 0.39788 0.14683 0.0
C356 C 0.51248 0.11207 0.09464 0.0
C357 C 0.36512 0.15795 0.19102 0.0
C358 C 0.48738 0.89755 0.16258 0.0
H359 H 0.53809 0.3215 0.07568 0.0
H360 H 0.5221 0.47627 0.10572 0.0
H361 H 0.40654 0.51001 0.17828 0.0
H362 H 0.34392 0.37826 0.20057 0.0
H363 H 0.35451 0.95448 0.21325 0.0
H364 H 0.42485 0.81412 0.19955 0.0
H365 H 0.54672 0.78551 0.12829 0.0
H366 H 0.5561 0.902 0.08982 0.0
H367 H 0.54622 0.19846 0.22788 0.0
H368 H 0.65191 0.19978 0.16976 0.0
H369 H 0.35246 0.92699 0.0952 0.0
H370 H 0.33807 0.26559 0.08797 0.0
C371 C 0.01139 0.22383 0.91337 0.0
C372 C 1.00025 0.31699 0.92507 0.0
C373 C 0.01142 0.39815 0.91 0.0
C374 C 0.02914 0.35049 0.89007 0.0
N375 N 0.02946 0.24463 0.89173 0.0
Co376 Co 0.05727 0.14431 0.86842 0.0
N377 N 0.09902 0.25594 0.85325 0.0
C378 C 0.09144 0.36079 0.85558 0.0
C379 C 0.12546 0.41964 0.84266 0.0
C380 C 0.15568 0.34736 0.83123 0.0
C381 C 0.13815 0.24783 0.8377 0.0
N382 N 0.08521 0.04225 0.8455 0.0
C383 C 0.12617 0.05115 0.83092 0.0
C384 C 0.13148 0.96055 0.81754 0.0
C385 C 0.09186 0.89391 0.82362 0.0
C386 C 0.0646 0.94704 0.84042 0.0
N387 N 0.01465 0.03419 0.88343 0.0
C388 C 0.99971 0.9419 0.87396 0.0
C389 C 0.97168 0.88094 0.88921 0.0
C390 C 0.96934 0.93868 0.90948 0.0
C391 C 0.99629 0.0315 0.9054 0.0
N392 N 0.99926 0.17723 0.84709 0.0
C393 C 0.91738 0.22873 0.81642 0.0
C394 C 0.9678 0.21277 0.80817 0.0
C395 C 0.00807 0.18815 0.82373 0.0
C396 C 0.9087 0.2183 0.84039 0.0
C397 C 0.95 0.1914 0.85539 0.0
N398 N 0.11492 0.11226 0.88977 0.0
C399 C 0.15938 0.98763 0.91464 0.0
C400 C 0.18425 0.07039 0.92647 0.0
C401 C 0.17635 0.17375 0.91856 0.0
C402 C 0.14141 0.19304 0.90031 0.0
C403 C 0.12548 0.01018 0.89608 0.0
H404 H 0.13385 0.27395 0.89558 0.0
H405 H 0.10582 0.94534 0.88761 0.0
H406 H 0.04645 0.17857 0.81673 0.0
H407 H 0.94212 0.18228 0.87372 0.0
C408 C 0.05734 0.40041 0.87243 0.0
C409 C 0.00383 0.1162 0.92249 0.0
C410 C 0.1558 0.14869 0.82687 0.0
C411 C 0.02352 0.90584 0.85356 0.0
H412 H 0.98675 0.32659 0.9427 0.0
H413 H 0.01036 0.48186 0.91381 0.0
H414 H 0.12879 0.50483 0.84205 0.0
H415 H 0.18645 0.36592 0.81916 0.0
H416 H 0.16021 0.94565 0.80433 0.0
H417 H 0.08435 0.81559 0.81682 0.0
H418 H 0.95778 0.80115 0.88652 0.0
H419 H 0.95107 0.9146 0.92554 0.0
H420 H 0.97631 0.22094 0.7898 0.0
H421 H 0.87014 0.22914 0.84745 0.0
H422 H 0.16482 0.90653 0.92017 0.0
H423 H 0.19464 0.23996 0.92733 0.0
H424 H 0.90698 0.45707 0.45252 0.0
H425 H 0.07406 0.44537 0.45138 0.0
H426 H 0.90973 0.49928 0.49421 0.0
H427 H 0.07769 0.48273 0.49307 0.0
H428 H 0.07076 0.65272 0.56259 0.0
H429 H 0.0659 0.61653 0.52087 0.0
H430 H 0.92782 0.42896 0.53171 0.0
H431 H 0.93156 0.47077 0.57318 0.0
C432 C 0.94427 0.46242 0.46136 0.0
C433 C 0.9904 0.44733 0.44895 0.0
C434 C 0.94601 0.4861 0.48524 0.0
C435 C 0.99399 0.49475 0.4972 0.0
C436 C 0.04003 0.47879 0.48455 0.0
C437 C 0.03814 0.45613 0.46069 0.0
C438 C 0.03846 0.60679 0.5559 0.0
C439 C 1.00011 0.56876 0.57097 0.0
C440 C 0.03622 0.58385 0.53201 0.0
C441 C 0.99613 0.52032 0.52268 0.0
C442 C 0.95858 0.4801 0.53801 0.0
C443 C 0.96076 0.50367 0.56183 0.0
H444 H 0.41957 0.49929 0.45176 0.0
H445 H 0.56986 0.64863 0.45147 0.0
H446 H 0.42925 0.46326 0.49343 0.0
H447 H 0.57959 0.61579 0.4932 0.0
H448 H 0.60359 0.44324 0.56275 0.0
H449 H 0.59413 0.4778 0.52097 0.0
H450 H 0.43106 0.54619 0.53074 0.0
H451 H 0.44076 0.5078 0.57227 0.0
C452 C 0.45498 0.52332 0.46061 0.0
C453 C 0.49486 0.57334 0.44826 0.0
C454 C 0.46032 0.50412 0.48457 0.0
C455 C 0.50553 0.53551 0.49679 0.0
C456 C 0.54476 0.58821 0.48439 0.0
C457 C 0.53923 0.60746 0.46047 0.0
C458 C 0.56561 0.4637 0.5558 0.0
C459 C 0.52243 0.46944 0.57054 0.0
C460 C 0.56025 0.48512 0.53193 0.0
C461 C 0.51162 0.51386 0.5223 0.0
C462 C 0.4688 0.52194 0.53732 0.0
C463 C 0.47428 0.50048 0.56114 0.0
H464 H 0.57645 0.17803 0.05908 0.0
H465 H 0.44146 0.98802 0.07273 0.0
H466 H 0.56612 0.14513 0.01742 0.0
H467 H 0.43179 0.95071 0.03131 0.0
H468 H 0.4002 0.97675 0.95307 0.0
H469 H 0.40789 0.02091 0.99455 0.0
H470 H 0.57547 0.01497 0.98887 0.0
H471 H 0.56685 0.97583 0.9474 0.0
C472 C 0.5437 0.13141 0.05312 0.0
C473 C 0.50794 0.09053 0.0691 0.0
C474 C 0.53834 0.11038 0.02923 0.0
C475 C 0.49764 0.04602 0.02074 0.0
C476 C 0.46277 0.00292 0.03693 0.0
C477 C 0.4682 0.02426 0.06076 0.0
C478 C 0.4385 0.98495 0.96086 0.0
C479 C 0.48308 0.97183 0.94725 0.0
C480 C 0.44307 0.00978 0.98462 0.0
C481 C 0.4924 0.02151 0.99528 0.0
C482 C 0.53684 0.00852 0.98138 0.0
C483 C 0.5321 0.98488 0.95765 0.0
H484 H 0.09617 0.94545 0.06464 0.0
H485 H 0.92962 0.97192 0.06781 0.0
H486 H 0.09343 0.99209 0.02322 0.0
H487 H 0.92578 0.01427 0.02631 0.0
H488 H 0.93925 0.18867 0.95723 0.0
H489 H 0.94328 0.14654 0.99871 0.0
H490 H 0.06949 0.92931 0.9858 0.0
H491 H 0.06738 0.97781 0.94459 0.0
C492 C 0.05891 0.95988 0.05628 0.0
C493 C 0.01299 0.95414 0.0692 0.0
C494 C 0.05714 0.98622 0.03255 0.0
C495 C 0.00931 0.00702 0.0212 0.0
C496 C 0.96341 0.00065 0.03436 0.0
C497 C 0.96538 0.97527 0.05809 0.0
C498 C 0.96907 0.13499 0.96343 0.0
C499 C 0.00483 0.09061 0.94788 0.0
C500 C 0.97067 0.10871 0.98717 0.0
C501 C 0.00734 0.03539 0.99586 0.0
C502 C 0.04187 0.98852 0.98001 0.0
C503 C 0.04056 0.01578 0.95637 0.0
H504 H 0.60336 0.3232 0.24138 0.0
H505 H 0.70845 0.14127 0.19875 0.0
H506 H 0.67253 0.3541 0.2693 0.0
H507 H 0.77906 0.18117 0.22558 0.0
H508 H 0.88494 0.17341 0.28884 0.0
H509 H 0.8145 0.14068 0.2613 0.0
H510 H 0.74716 0.44385 0.27857 0.0
H511 H 0.81654 0.47278 0.30717 0.0
C512 C 0.6412 0.28968 0.23784 0.0
C513 C 0.64961 0.22822 0.21774 0.0
C514 C 0.68148 0.30943 0.25378 0.0
C515 C 0.73194 0.27033 0.24997 0.0
C516 C 0.74072 0.21111 0.22956 0.0
C517 C 0.70014 0.18966 0.21381 0.0
C518 C 0.855 0.23298 0.28672 0.0
C519 C 0.85639 0.32597 0.30008 0.0
C520 C 0.81464 0.21472 0.27074 0.0
C521 C 0.77486 0.28987 0.26732 0.0
C522 C 0.77636 0.38306 0.28082 0.0
C523 C 0.81631 0.40027 0.29717 0.0
H524 H 0.62642 0.42411 0.74927 0.0
H525 H 0.72126 0.31012 0.69281 0.0
H526 H 0.69722 0.39093 0.77657 0.0
H527 H 0.79283 0.28143 0.71983 0.0
H528 H 0.89148 0.12737 0.7761 0.0
H529 H 0.82182 0.16947 0.74871 0.0
H530 H 0.77823 0.43656 0.79136 0.0
H531 H 0.84658 0.38997 0.81936 0.0
C532 C 0.66247 0.39238 0.74261 0.0
C533 C 0.66766 0.3688 0.71876 0.0
C534 C 0.70357 0.37464 0.7583 0.0
C535 C 0.7512 0.33282 0.75062 0.0
C536 C 0.75677 0.31229 0.72663 0.0
C537 C 0.71572 0.33014 0.71096 0.0
C538 C 0.8669 0.19501 0.77958 0.0
C539 C 0.87436 0.25511 0.7999 0.0
C540 C 0.8271 0.22002 0.76376 0.0
C541 C 0.7941 0.30719 0.76756 0.0
C542 C 0.80199 0.36782 0.78791 0.0
C543 C 0.84131 0.34146 0.80398 0.0
H544 H 0.1975 0.63465 0.70182 0.0
H545 H 0.08938 0.83472 0.73865 0.0
H546 H 0.2669 0.68984 0.72851 0.0
H547 H 0.15845 0.88657 0.76552 0.0
H548 H 0.28433 0.81329 0.82462 0.0
H549 H 0.21414 0.78094 0.79669 0.0
H550 H 0.31518 0.86685 0.74022 0.0
H551 H 0.3851 0.90324 0.76804 0.0
C552 C 0.18844 0.69081 0.71542 0.0
C553 C 0.13741 0.7291 0.71811 0.0
C554 C 0.22825 0.7222 0.73075 0.0
C555 C 0.21791 0.79177 0.74924 0.0
C556 C 0.16731 0.83131 0.75175 0.0
C557 C 0.12768 0.80098 0.73632 0.0
C558 C 0.29152 0.82778 0.80634 0.0
C559 C 0.34098 0.85963 0.79871 0.0
C560 C 0.25121 0.80877 0.79032 0.0
C561 C 0.25943 0.8203 0.76628 0.0
C562 C 0.30809 0.85551 0.75863 0.0
C563 C 0.3482 0.8758 0.77464 0.0
H564 H 0.40214 0.81286 0.27668 0.0
H565 H 0.29738 0.62171 0.31741 0.0
H566 H 0.33349 0.84607 0.24866 0.0
H567 H 0.22713 0.66416 0.2906 0.0
H568 H 0.12158 0.66585 0.22737 0.0
H569 H 0.19206 0.62939 0.25468 0.0
H570 H 0.25891 0.93516 0.23951 0.0
H571 H 0.1896 0.96763 0.21104 0.0
C572 C 0.3645 0.77769 0.27978 0.0
C573 C 0.35607 0.71301 0.29938 0.0
C574 C 0.32446 0.79881 0.26379 0.0
C575 C 0.27418 0.75803 0.26707 0.0
C576 C 0.26536 0.69549 0.287 0.0
C577 C 0.30573 0.67255 0.30276 0.0
C578 C 0.15149 0.72507 0.22989 0.0
C579 C 0.15 0.81985 0.21717 0.0
C580 C 0.19185 0.7047 0.24575 0.0
C581 C 0.23145 0.77955 0.24973 0.0
C582 C 0.22987 0.87452 0.23683 0.0
C583 C 0.18996 0.89379 0.22056 0.0
H584 H 0.39449 0.20956 0.23502 0.0
H585 H 0.26013 0.12803 0.19351 0.0
H586 H 0.33939 0.23608 0.26898 0.0
H587 H 0.20443 0.15186 0.22757 0.0
H588 H 0.11582 0.32582 0.28495 0.0
H589 H 0.17017 0.28637 0.25142 0.0
H590 H 0.28706 0.15379 0.29752 0.0
H591 H 0.23302 0.19842 0.33111 0.0
C592 C 0.353 0.19635 0.23336 0.0
C593 C 0.33123 0.16761 0.21178 0.0
C594 C 0.32141 0.21068 0.25281 0.0
C595 C 0.26724 0.19616 0.25113 0.0
C596 C 0.24579 0.1653 0.22948 0.0
C597 C 0.27753 0.15097 0.21 0.0
C598 C 0.15332 0.28872 0.2878 0.0
C599 C 0.17086 0.26681 0.31053 0.0
C600 C 0.18428 0.2649 0.26861 0.0
C601 C 0.23329 0.21702 0.27164 0.0
C602 C 0.25006 0.19246 0.29448 0.0
C603 C 0.21916 0.2173 0.31373 0.0
H604 H 0.41091 0.28731 0.73462 0.0
H605 H 0.28617 0.21383 0.68679 0.0
H606 H 0.35588 0.23963 0.76752 0.0
H607 H 0.23089 0.16321 0.71959 0.0
H608 H 0.13034 0.22869 0.78447 0.0
H609 H 0.18596 0.25034 0.75056 0.0
H610 H 0.31232 0.09938 0.78798 0.0
H611 H 0.25631 0.0804 0.82215 0.0
C612 C 0.37166 0.25991 0.73126 0.0
C613 C 0.35229 0.25532 0.70834 0.0
C614 C 0.34025 0.23163 0.75003 0.0
C615 C 0.28872 0.19788 0.7463 0.0
C616 C 0.27004 0.19043 0.72317 0.0
C617 C 0.30157 0.21889 0.70438 0.0
C618 C 0.17003 0.20004 0.78532 0.0
C619 C 0.18956 0.15491 0.80595 0.0
C620 C 0.2018 0.21137 0.76585 0.0
C621 C 0.25386 0.17705 0.76648 0.0
C622 C 0.27273 0.12823 0.78697 0.0
C623 C 0.2408 0.11704 0.80651 0.0
H624 H 0.59691 0.78446 0.78417 0.0
H625 H 0.71857 0.69178 0.83201 0.0
H626 H 0.6522 0.73965 0.75122 0.0
H627 H 0.77396 0.64312 0.79913 0.0
H628 H 0.87915 0.71042 0.73624 0.0
H629 H 0.82223 0.73042 0.76977 0.0
H630 H 0.6939 0.60635 0.72905 0.0
H631 H 0.75139 0.58813 0.69543 0.0
C632 C 0.63547 0.75311 0.78752 0.0
C633 C 0.65403 0.74294 0.81048 0.0
C634 C 0.66706 0.7265 0.76869 0.0
C635 C 0.7179 0.68838 0.7724 0.0
C636 C 0.73548 0.67416 0.79555 0.0
C637 C 0.70383 0.70131 0.8144 0.0
C638 C 0.83869 0.68761 0.73459 0.0
C639 C 0.81916 0.64998 0.71326 0.0
C640 C 0.80614 0.69776 0.75384 0.0
C641 C 0.75325 0.66992 0.75225 0.0
C642 C 0.73418 0.62964 0.73091 0.0
C643 C 0.76693 0.61921 0.71164 0.0
H644 H 0.77078 0.71379 0.18767 0.0
H645 H 0.89128 0.8284 0.23371 0.0
H646 H 0.71664 0.67145 0.22137 0.0
H647 H 0.83697 0.79092 0.26737 0.0
H648 H 0.74506 0.63045 0.32479 0.0
H649 H 0.80067 0.65623 0.29077 0.0
H650 H 0.66664 0.75673 0.25051 0.0
H651 H 0.61157 0.72852 0.28442 0.0
C652 C 0.78538 0.73028 0.20506 0.0
C653 C 0.83463 0.77556 0.2082 0.0
C654 C 0.75442 0.70681 0.22436 0.0
C655 C 0.77213 0.72843 0.2472 0.0
C656 C 0.8221 0.77192 0.25017 0.0
C657 C 0.85306 0.7945 0.23091 0.0
C658 C 0.72787 0.65803 0.3086 0.0
C659 C 0.67444 0.67878 0.30715 0.0
C660 C 0.75955 0.67324 0.28914 0.0
C661 C 0.73828 0.70867 0.26779 0.0
C662 C 0.68442 0.72785 0.26645 0.0
C663 C 0.65289 0.71278 0.28589 0.0
H664 H 0.29164 0.21064 0.56897 0.0
H665 H 0.3457 0.52895 0.55704 0.0
H666 H 0.24779 0.2121 0.53126 0.0
H667 H 0.30002 0.53199 0.51966 0.0
H668 H 0.25953 0.4536 0.44296 0.0
H669 H 0.30369 0.45777 0.48093 0.0
H670 H 0.17524 0.28803 0.5113 0.0
H671 H 0.13215 0.28198 0.47346 0.0
C672 C 0.29399 0.28121 0.55837 0.0
C673 C 0.3224 0.36951 0.5661 0.0
C674 C 0.26835 0.2825 0.53679 0.0
C675 C 0.27025 0.37224 0.52234 0.0
C676 C 0.29814 0.46109 0.53018 0.0
C677 C 0.32378 0.45982 0.5518 0.0
C678 C 0.24089 0.41734 0.4578 0.0
C679 C 0.19281 0.36597 0.45514 0.0
C680 C 0.266 0.4201 0.47959 0.0
C681 C 0.24326 0.37244 0.49921 0.0
C682 C 0.19459 0.32324 0.49653 0.0
C683 C 0.16983 0.31975 0.4748 0.0
H684 H 0.8738 0.64191 0.55003 0.0
H685 H 0.73505 0.49832 0.57711 0.0
H686 H 0.83866 0.63113 0.51073 0.0
H687 H 0.69705 0.49528 0.53782 0.0
H688 H 0.65319 0.43919 0.46231 0.0
H689 H 0.6946 0.42545 0.50044 0.0
H690 H 0.78029 0.71231 0.48665 0.0
H691 H 0.7425 0.72035 0.44797 0.0
C692 C 0.83549 0.60822 0.54744 0.0
C693 C 0.8071 0.57074 0.56647 0.0
C694 C 0.81488 0.60323 0.52492 0.0
C695 C 0.76442 0.5639 0.52086 0.0
C696 C 0.73624 0.52487 0.54005 0.0
C697 C 0.75768 0.5272 0.56261 0.0
C698 C 0.68202 0.49763 0.46716 0.0
C699 C 0.6946 0.58065 0.45188 0.0
C700 C 0.70512 0.4909 0.4893 0.0
C701 C 0.74099 0.56772 0.49691 0.0
C702 C 0.75377 0.65012 0.48148 0.0
C703 C 0.73135 0.65585 0.45926 0.0
H704 H 0.76965 0.72714 0.06884 0.0
H705 H 0.836 0.03379 0.05466 0.0
H706 H 0.72777 0.72804 0.03058 0.0
H707 H 0.79341 0.035 0.01652 0.0
H708 H 0.66266 0.0336 0.95979 0.0
H709 H 0.70521 0.04007 0.99788 0.0
H710 H 0.75643 0.71766 0.9893 0.0
H711 H 0.71457 0.71127 0.95104 0.0
C712 C 0.77529 0.79484 0.05761 0.0
C713 C 0.8065 0.88012 0.06487 0.0
C714 C 0.75133 0.79522 0.03565 0.0
C715 C 0.75767 0.88112 0.02042 0.0
C716 C 0.78746 0.96795 0.02791 0.0
C717 C 0.81168 0.96738 0.04985 0.0
C718 C 0.68385 0.96463 0.96576 0.0
C719 C 0.685 0.87173 0.95226 0.0
C720 C 0.70804 0.96832 0.98769 0.0
C721 C 0.73379 0.87911 0.99671 0.0
C722 C 0.73603 0.7871 0.98303 0.0
C723 C 0.71207 0.78353 0.96107 0.0
H724 H 0.35757 0.22266 0.04997 0.0
H725 H 0.28128 0.93308 0.0702 0.0
H726 H 0.32286 0.20487 0.01108 0.0
H727 H 0.25087 0.90909 0.03038 0.0
H728 H 0.15167 0.9647 0.9648 0.0
H729 H 0.19138 0.96332 1.0033 0.0
H730 H 0.32555 0.12579 0.9757 0.0
H731 H 0.2827 0.13529 0.93771 0.0
C732 C 0.33315 0.15507 0.04623 0.0
C733 C 0.32136 0.08077 0.06365 0.0
C734 C 0.31422 0.14324 0.02352 0.0
C735 C 0.28389 0.05517 0.01719 0.0
C736 C 0.2732 0.97917 0.03446 0.0
C737 C 0.2913 0.99222 0.05739 0.0
C738 C 0.18972 0.9995 0.96703 0.0
C739 C 0.21365 0.05165 0.94843 0.0
C740 C 0.21298 0.99802 0.98914 0.0
C741 C 0.26168 0.04607 0.99304 0.0
C742 C 0.28728 0.09131 0.97381 0.0
C743 C 0.26313 0.09566 0.95188 0.0
loop_
_geom_bond_atom_site_label_1
_geom_bond_atom_site_label_2
_geom_bond_distance
_geom_bond_site_symmetry_2
_ccdc_geom_bond_type
C0 C1 1.443 . S
C0 N4 1.376 . S
C0 C38 1.389 1_455 S
C1 C0 1.443 . S
C1 C2 1.340 . S
C1 H41 0.951 . S
C2 C1 1.340 . S
C2 C3 1.439 . S
C2 H42 0.950 . S
C3 C2 1.439 . S
C3 N4 1.374 . S
C3 C37 1.395 . S
N4 C0 1.376 . S
N4 C3 1.374 . S
N4 Co5 2.008 . S
Co5 N4 2.008 . S
Co5 N6 1.995 . S
Co5 N11 2.008 . S
Co5 N16 1.995 . S
Co5 N21 2.282 1_455 S
Co5 N27 2.282 . S
N6 Co5 1.995 . S
N6 C7 1.376 . S
N6 C10 1.383 . S
C7 N6 1.376 . S
C7 C8 1.446 . S
C7 C37 1.391 . S
C8 C7 1.446 . S
C8 C9 1.339 . S
C8 H43 0.949 . S
C9 C8 1.339 . S
C9 C10 1.439 . S
C9 H44 0.950 . S
C10 N6 1.383 . S
C10 C9 1.439 . S
C10 C39 1.392 . S
N11 Co5 2.008 . S
N11 C12 1.376 . S
N11 C15 1.374 1_545 S
C12 N11 1.376 . S
C12 C13 1.443 1_545 S
C12 C39 1.389 . S
C13 C12 1.443 1_565 S
C13 C14 1.340 . S
C13 H45 0.951 . S
C14 C13 1.340 . S
C14 C15 1.439 . S
C14 H46 0.950 . S
C15 N11 1.374 1_565 S
C15 C14 1.439 . S
C15 C40 1.395 . S
N16 Co5 1.995 . S
N16 C17 1.376 1_455 S
N16 C20 1.383 1_455 S
C17 N16 1.376 1_655 S
C17 C18 1.446 1_545 S
C17 C40 1.391 1_645 S
C18 C17 1.446 1_565 S
C18 C19 1.339 1_565 S
C18 H47 0.949 . S
C19 C18 1.339 1_545 S
C19 C20 1.439 . S
C19 H48 0.950 . S
C20 N16 1.383 1_655 S
C20 C19 1.439 . S
C20 C38 1.392 . S
N21 Co5 2.282 1_655 S
N21 C24 1.332 . S
N21 C26 1.332 . S
C22 C23 1.386 . S
C22 C25 1.388 . S
C23 C22 1.386 . S
C23 C24 1.382 . S
C23 H49 0.950 . S
C24 N21 1.332 . S
C24 C23 1.382 . S
C24 H35 0.952 . S
C25 C22 1.388 . S
C25 C26 1.382 . S
C25 H50 0.950 . S
C26 N21 1.332 . S
C26 C25 1.382 . S
C26 H36 0.948 1_655 S
N27 Co5 2.282 . S
N27 C31 1.332 . S
N27 C32 1.332 . S
C28 C29 1.388 . S
C28 C32 1.382 . S
C28 H51 0.950 . S
C29 C28 1.388 . S
C29 C30 1.386 . S
C30 C29 1.386 . S
C30 C31 1.382 . S
C30 H52 0.950 . S
C31 N27 1.332 . S
C31 C30 1.382 . S
C31 H33 0.952 . S
C32 N27 1.332 . S
C32 C28 1.382 . S
C32 H34 0.948 . S
H33 C31 0.952 . S
H34 C32 0.948 . S
H35 C24 0.952 . S
H36 C26 0.948 1_455 S
C37 C3 1.395 . S
C37 C7 1.391 . S
C38 C0 1.389 1_655 S
C38 C20 1.392 . S
C39 C10 1.392 . S
C39 C12 1.389 . S
C40 C15 1.395 . S
C40 C17 1.391 1_465 S
H41 C1 0.951 . S
H42 C2 0.950 . S
H43 C8 0.949 . S
H44 C9 0.950 . S
H45 C13 0.951 . S
H46 C14 0.950 . S
H47 C18 0.949 . S
H48 C19 0.950 . S
H49 C23 0.950 . S
H50 C25 0.950 . S
H51 C28 0.950 . S
H52 C30 0.950 . S
C53 C54 1.443 . S
C53 N57 1.376 . S
C53 C91 1.389 . S
C54 C53 1.443 . S
C54 C55 1.340 . S
C54 H94 0.951 . S
C55 C54 1.340 . S
C55 C56 1.439 . S
C55 H95 0.950 . S
C56 C55 1.439 . S
C56 N57 1.374 . S
C56 C90 1.395 . S
N57 C53 1.376 . S
N57 C56 1.374 . S
N57 Co58 2.008 . S
Co58 N57 2.008 . S
Co58 N59 1.995 . S
Co58 N64 2.008 . S
Co58 N69 1.995 . S
Co58 N74 2.282 . S
Co58 N80 2.282 . S
N59 Co58 1.995 . S
N59 C60 1.376 . S
N59 C63 1.383 . S
C60 N59 1.376 . S
C60 C61 1.446 . S
C60 C90 1.391 . S
C61 C60 1.446 . S
C61 C62 1.339 . S
C61 H96 0.949 . S
C62 C61 1.339 . S
C62 C63 1.439 . S
C62 H97 0.950 . S
C63 N59 1.383 . S
C63 C62 1.439 . S
C63 C92 1.392 . S
N64 Co58 2.008 . S
N64 C65 1.376 . S
N64 C68 1.374 1_545 S
C65 N64 1.376 . S
C65 C66 1.443 1_545 S
C65 C92 1.389 . S
C66 C65 1.443 1_565 S
C66 C67 1.340 . S
C66 H98 0.951 . S
C67 C66 1.340 . S
C67 C68 1.439 . S
C67 H99 0.950 . S
C68 N64 1.374 1_565 S
C68 C67 1.439 . S
C68 C93 1.395 . S
N69 Co58 1.995 . S
N69 C70 1.376 . S
N69 C73 1.383 . S
C70 N69 1.376 . S
C70 C71 1.446 1_545 S
C70 C93 1.391 1_545 S
C71 C70 1.446 1_565 S
C71 C72 1.339 1_565 S
C71 H100 0.949 . S
C72 C71 1.339 1_545 S
C72 C73 1.439 . S
C72 H101 0.950 . S
C73 N69 1.383 . S
C73 C72 1.439 . S
C73 C91 1.392 . S
N74 Co58 2.282 . S
N74 C77 1.332 . S
N74 C79 1.332 . S
C75 C76 1.386 . S
C75 C78 1.388 . S
C76 C75 1.386 . S
C76 C77 1.382 . S
C76 H102 0.950 . S
C77 N74 1.332 . S
C77 C76 1.382 . S
C77 H88 0.952 . S
C78 C75 1.388 . S
C78 C79 1.382 . S
C78 H103 0.950 . S
C79 N74 1.332 . S
C79 C78 1.382 . S
C79 H89 0.948 . S
N80 Co58 2.282 . S
N80 C84 1.332 . S
N80 C85 1.332 . S
C81 C82 1.388 . S
C81 C85 1.382 . S
C81 H104 0.950 . S
C82 C81 1.388 . S
C82 C83 1.386 . S
C83 C82 1.386 . S
C83 C84 1.382 . S
C83 H105 0.950 . S
C84 N80 1.332 . S
C84 C83 1.382 . S
C84 H86 0.952 . S
C85 N80 1.332 . S
C85 C81 1.382 . S
C85 H87 0.948 . S
H86 C84 0.952 . S
H87 C85 0.948 . S
H88 C77 0.952 . S
H89 C79 0.948 . S
C90 C56 1.395 . S
C90 C60 1.391 . S
C91 C53 1.389 . S
C91 C73 1.392 . S
C92 C63 1.392 . S
C92 C65 1.389 . S
C93 C68 1.395 . S
C93 C70 1.391 1_565 S
H94 C54 0.951 . S
H95 C55 0.950 . S
H96 C61 0.949 . S
H97 C62 0.950 . S
H98 C66 0.951 . S
H99 C67 0.950 . S
H100 C71 0.949 . S
H101 C72 0.950 . S
H102 C76 0.950 . S
H103 C78 0.950 . S
H104 C81 0.950 . S
H105 C83 0.950 . S
C106 C107 1.443 . S
C106 N110 1.376 1_455 S
C106 C144 1.389 . S
C107 C106 1.443 . S
C107 C108 1.340 1_565 S
C107 H147 0.951 . S
C108 C107 1.340 1_545 S
C108 C109 1.439 1_455 S
C108 H148 0.950 . S
C109 C108 1.439 1_655 S
C109 N110 1.374 1_545 S
C109 C143 1.395 . S
N110 C106 1.376 1_655 S
N110 C109 1.374 1_565 S
N110 Co111 2.008 . S
Co111 N110 2.008 . S
Co111 N112 1.995 . S
Co111 N117 2.008 . S
Co111 N122 1.995 . S
Co111 N127 2.282 1_655 S
Co111 N133 2.282 . S
N112 Co111 1.995 . S
N112 C113 1.376 1_565 S
N112 C116 1.383 . S
C113 N112 1.376 1_545 S
C113 C114 1.446 . S
C113 C143 1.391 . S
C114 C113 1.446 . S
C114 C115 1.339 . S
C114 H149 0.949 . S
C115 C114 1.339 . S
C115 C116 1.439 1_545 S
C115 H150 0.950 . S
C116 N112 1.383 . S
C116 C115 1.439 1_565 S
C116 C145 1.392 . S
N117 Co111 2.008 . S
N117 C118 1.376 . S
N117 C121 1.374 . S
C118 N117 1.376 . S
C118 C119 1.443 . S
C118 C145 1.389 . S
C119 C118 1.443 . S
C119 C120 1.340 . S
C119 H151 0.951 . S
C120 C119 1.340 . S
C120 C121 1.439 . S
C120 H152 0.950 . S
C121 N117 1.374 . S
C121 C120 1.439 . S
C121 C146 1.395 . S
N122 Co111 1.995 . S
N122 C123 1.376 . S
N122 C126 1.383 . S
C123 N122 1.376 . S
C123 C124 1.446 . S
C123 C146 1.391 . S
C124 C123 1.446 . S
C124 C125 1.348 . S
C124 H153 0.949 . S
C125 C124 1.348 . S
C125 C126 1.441 . S
C125 H154 0.941 1_655 S
C126 N122 1.383 . S
C126 C125 1.441 . S
C126 C144 1.392 1_655 S
N127 Co111 2.282 1_455 S
N127 C130 1.332 . S
N127 C132 1.332 . S
C128 C129 1.386 . S
C128 C131 1.388 . S
C129 C128 1.386 . S
C129 C130 1.382 . S
C129 H155 0.950 . S
C130 N127 1.332 . S
C130 C129 1.382 . S
C130 H141 0.952 . S
C131 C128 1.388 . S
C131 C132 1.382 . S
C131 H156 0.950 . S
C132 N127 1.332 . S
C132 C131 1.382 . S
C132 H142 0.948 . S
N133 Co111 2.282 . S
N133 C137 1.332 . S
N133 C138 1.332 . S
C134 C135 1.388 . S
C134 C138 1.382 . S
C134 H157 0.950 . S
C135 C134 1.388 . S
C135 C136 1.386 . S
C136 C135 1.386 . S
C136 C137 1.382 . S
C136 H158 0.950 . S
C137 N133 1.332 . S
C137 C136 1.382 . S
C137 H139 0.952 . S
C138 N133 1.332 . S
C138 C134 1.382 . S
C138 H140 0.948 . S
H139 C137 0.952 . S
H140 C138 0.948 . S
H141 C130 0.952 . S
H142 C132 0.948 . S
C143 C109 1.395 . S
C143 C113 1.391 . S
C144 C106 1.389 . S
C144 C126 1.392 1_455 S
C145 C116 1.392 . S
C145 C118 1.389 . S
C146 C121 1.395 . S
C146 C123 1.391 . S
H147 C107 0.951 . S
H148 C108 0.950 . S
H149 C114 0.949 . S
H150 C115 0.950 . S
H151 C119 0.951 . S
H152 C120 0.950 . S
H153 C124 0.949 . S
H154 C125 0.941 1_455 S
H155 C129 0.950 . S
H156 C131 0.950 . S
H157 C134 0.950 . S
H158 C136 0.950 . S
C159 C160 1.443 . S
C159 N163 1.376 . S
C159 C197 1.389 . S
C160 C159 1.443 . S
C160 C161 1.340 1_565 S
C160 H200 0.951 . S
C161 C160 1.340 1_545 S
C161 C162 1.439 1_545 S
C161 H201 0.950 . S
C162 C161 1.439 1_565 S
C162 N163 1.374 . S
C162 C196 1.395 1_565 S
N163 C159 1.376 . S
N163 C162 1.374 . S
N163 Co164 2.008 . S
Co164 N163 2.008 . S
Co164 N165 1.995 . S
Co164 N170 2.008 . S
Co164 N175 1.995 . S
Co164 N180 2.282 . S
Co164 N186 2.282 . S
N165 Co164 1.995 . S
N165 C166 1.376 1_565 S
N165 C169 1.383 . S
C166 N165 1.376 1_545 S
C166 C167 1.446 . S
C166 C196 1.391 . S
C167 C166 1.446 . S
C167 C168 1.339 . S
C167 H202 0.949 . S
C168 C167 1.339 . S
C168 C169 1.439 1_545 S
C168 H203 0.950 . S
C169 N165 1.383 . S
C169 C168 1.439 1_565 S
C169 C198 1.392 . S
N170 Co164 2.008 . S
N170 C171 1.376 . S
N170 C174 1.374 . S
C171 N170 1.376 . S
C171 C172 1.443 . S
C171 C198 1.389 . S
C172 C171 1.443 . S
C172 C173 1.340 . S
C172 H204 0.951 . S
C173 C172 1.340 . S
C173 C174 1.439 . S
C173 H205 0.950 . S
C174 N170 1.374 . S
C174 C173 1.439 . S
C174 C199 1.395 . S
N175 Co164 1.995 . S
N175 C176 1.376 . S
N175 C179 1.383 . S
C176 N175 1.376 . S
C176 C177 1.446 . S
C176 C199 1.391 . S
C177 C176 1.446 . S
C177 C178 1.339 . S
C177 H206 0.949 . S
C178 C177 1.339 . S
C178 C179 1.439 . S
C178 H207 0.950 . S
C179 N175 1.383 . S
C179 C178 1.439 . S
C179 C197 1.392 . S
N180 Co164 2.282 . S
N180 C183 1.332 . S
N180 C185 1.332 . S
C181 C182 1.386 . S
C181 C184 1.388 . S
C182 C181 1.386 . S
C182 C183 1.382 . S
C182 H208 0.950 . S
C183 N180 1.332 . S
C183 C182 1.382 . S
C183 H194 0.952 . S
C184 C181 1.388 . S
C184 C185 1.382 . S
C184 H209 0.950 . S
C185 N180 1.332 . S
C185 C184 1.382 . S
C185 H195 0.948 . S
N186 Co164 2.282 . S
N186 C190 1.332 . S
N186 C191 1.332 . S
C187 C188 1.388 . S
C187 C191 1.382 . S
C187 H210 0.950 . S
C188 C187 1.388 . S
C188 C189 1.386 . S
C189 C188 1.386 . S
C189 C190 1.382 . S
C189 H211 0.950 . S
C190 N186 1.332 . S
C190 C189 1.382 . S
C190 H192 0.952 . S
C191 N186 1.332 . S
C191 C187 1.382 . S
C191 H193 0.948 . S
H192 C190 0.952 . S
H193 C191 0.948 . S
H194 C183 0.952 . S
H195 C185 0.948 . S
C196 C162 1.395 1_545 S
C196 C166 1.391 . S
C197 C159 1.389 . S
C197 C179 1.392 . S
C198 C169 1.392 . S
C198 C171 1.389 . S
C199 C174 1.395 . S
C199 C176 1.391 . S
H200 C160 0.951 . S
H201 C161 0.950 . S
H202 C167 0.949 . S
H203 C168 0.950 . S
H204 C172 0.951 . S
H205 C173 0.950 . S
H206 C177 0.949 . S
H207 C178 0.950 . S
H208 C182 0.950 . S
H209 C184 0.950 . S
H210 C187 0.950 . S
H211 C189 0.950 . S
C212 C213 1.443 . S
C212 N216 1.376 . S
C212 C250 1.389 . S
C213 C212 1.443 . S
C213 C214 1.340 . S
C213 H253 0.951 . S
C214 C213 1.340 . S
C214 C215 1.439 . S
C214 H254 0.950 1_565 S
C215 C214 1.439 . S
C215 N216 1.374 . S
C215 C249 1.395 . S
N216 C212 1.376 . S
N216 C215 1.374 . S
N216 Co217 2.008 . S
Co217 N216 2.008 . S
Co217 N218 1.995 . S
Co217 N223 2.008 . S
Co217 N228 1.995 . S
Co217 N233 2.282 . S
Co217 N239 2.282 . S
N218 Co217 1.995 . S
N218 C219 1.376 . S
N218 C222 1.383 . S
C219 N218 1.376 . S
C219 C220 1.446 . S
C219 C249 1.391 . S
C220 C219 1.446 . S
C220 C221 1.339 . S
C220 H255 0.949 . S
C221 C220 1.339 . S
C221 C222 1.439 . S
C221 H256 0.950 . S
C222 N218 1.383 . S
C222 C221 1.439 . S
C222 C251 1.392 . S
N223 Co217 2.008 . S
N223 C224 1.376 . S
N223 C227 1.374 . S
C224 N223 1.376 . S
C224 C225 1.443 . S
C224 C251 1.389 . S
C225 C224 1.443 . S
C225 C226 1.340 . S
C225 H257 0.951 . S
C226 C225 1.340 . S
C226 C227 1.439 . S
C226 H258 0.950 . S
C227 N223 1.374 . S
C227 C226 1.439 . S
C227 C252 1.395 . S
N228 Co217 1.995 . S
N228 C229 1.376 . S
N228 C232 1.383 . S
C229 N228 1.376 . S
C229 C230 1.446 . S
C229 C252 1.391 . S
C230 C229 1.446 . S
C230 C231 1.339 . S
C230 H259 0.949 . S
C231 C230 1.339 . S
C231 C232 1.439 . S
C231 H260 0.950 . S
C232 N228 1.383 . S
C232 C231 1.439 . S
C232 C250 1.392 . S
N233 Co217 2.282 . S
N233 C236 1.332 . S
N233 C238 1.332 . S
C234 C235 1.386 . S
C234 C237 1.388 . S
C235 C234 1.386 . S
C235 C236 1.382 . S
C235 H261 0.950 . S
C236 N233 1.332 . S
C236 C235 1.382 . S
C236 H247 0.952 . S
C237 C234 1.388 . S
C237 C238 1.382 . S
C237 H262 0.950 . S
C238 N233 1.332 . S
C238 C237 1.382 . S
C238 H248 0.948 . S
N239 Co217 2.282 . S
N239 C243 1.332 . S
N239 C244 1.332 . S
C240 C241 1.388 . S
C240 C244 1.382 . S
C240 H263 0.950 . S
C241 C240 1.388 . S
C241 C242 1.386 . S
C242 C241 1.386 . S
C242 C243 1.382 . S
C242 H264 0.950 . S
C243 N239 1.332 . S
C243 C242 1.382 . S
C243 H245 0.952 . S
C244 N239 1.332 . S
C244 C240 1.382 . S
C244 H246 0.948 . S
H245 C243 0.952 . S
H246 C244 0.948 . S
H247 C236 0.952 . S
H248 C238 0.948 . S
C249 C215 1.395 . S
C249 C219 1.391 . S
C250 C212 1.389 . S
C250 C232 1.392 . S
C251 C222 1.392 . S
C251 C224 1.389 . S
C252 C227 1.395 . S
C252 C229 1.391 . S
H253 C213 0.951 . S
H254 C214 0.950 1_545 S
H255 C220 0.949 . S
H256 C221 0.950 . S
H257 C225 0.951 . S
H258 C226 0.950 . S
H259 C230 0.949 . S
H260 C231 0.950 . S
H261 C235 0.950 . S
H262 C237 0.950 . S
H263 C240 0.950 . S
H264 C242 0.950 . S
C265 C266 1.443 . S
C265 N269 1.376 . S
C265 C303 1.389 1_655 S
C266 C265 1.443 . S
C266 C267 1.340 . S
C266 H306 0.951 . S
C267 C266 1.340 . S
C267 C268 1.439 . S
C267 H307 0.950 1_565 S
C268 C267 1.439 . S
C268 N269 1.374 . S
C268 C302 1.395 . S
N269 C265 1.376 . S
N269 C268 1.374 . S
N269 Co270 2.008 . S
Co270 N269 2.008 . S
Co270 N271 1.995 . S
Co270 N276 2.008 . S
Co270 N281 1.995 . S
Co270 N286 2.282 1_655 S
Co270 N292 2.282 . S
N271 Co270 1.995 . S
N271 C272 1.376 . S
N271 C275 1.383 . S
C272 N271 1.376 . S
C272 C273 1.446 . S
C272 C302 1.391 . S
C273 C272 1.446 . S
C273 C274 1.339 . S
C273 H308 0.949 . S
C274 C273 1.339 . S
C274 C275 1.439 . S
C274 H309 0.950 . S
C275 N271 1.383 . S
C275 C274 1.439 . S
C275 C304 1.392 . S
N276 Co270 2.008 . S
N276 C277 1.376 . S
N276 C280 1.374 . S
C277 N276 1.376 . S
C277 C278 1.443 . S
C277 C304 1.389 . S
C278 C277 1.443 . S
C278 C279 1.340 . S
C278 H310 0.951 . S
C279 C278 1.340 . S
C279 C280 1.439 . S
C279 H311 0.950 . S
C280 N276 1.374 . S
C280 C279 1.439 . S
C280 C305 1.395 . S
N281 Co270 1.995 . S
N281 C282 1.376 1_655 S
N281 C285 1.383 1_655 S
C282 N281 1.376 1_455 S
C282 C283 1.446 . S
C282 C305 1.391 1_455 S
C283 C282 1.446 . S
C283 C284 1.339 . S
C283 H312 0.949 . S
C284 C283 1.339 . S
C284 C285 1.439 . S
C284 H313 0.950 . S
C285 N281 1.383 1_455 S
C285 C284 1.439 . S
C285 C303 1.392 . S
N286 Co270 2.282 1_455 S
N286 C289 1.332 . S
N286 C291 1.332 . S
C287 C288 1.386 . S
C287 C290 1.388 . S
C288 C287 1.386 . S
C288 C289 1.382 . S
C288 H314 0.950 . S
C289 N286 1.332 . S
C289 C288 1.382 . S
C289 H300 0.952 . S
C290 C287 1.388 . S
C290 C291 1.382 . S
C290 H315 0.950 . S
C291 N286 1.332 . S
C291 C290 1.382 . S
C291 H301 0.948 1_455 S
N292 Co270 2.282 . S
N292 C296 1.332 . S
N292 C297 1.332 . S
C293 C294 1.388 . S
C293 C297 1.382 . S
C293 H316 0.950 . S
C294 C293 1.388 . S
C294 C295 1.386 . S
C295 C294 1.386 . S
C295 C296 1.382 . S
C295 H317 0.950 . S
C296 N292 1.332 . S
C296 C295 1.382 . S
C296 H298 0.952 . S
C297 N292 1.332 . S
C297 C293 1.382 . S
C297 H299 0.948 . S
H298 C296 0.952 . S
H299 C297 0.948 . S
H300 C289 0.952 . S
H301 C291 0.948 1_655 S
C302 C268 1.395 . S
C302 C272 1.391 . S
C303 C265 1.389 1_455 S
C303 C285 1.392 . S
C304 C275 1.392 . S
C304 C277 1.389 . S
C305 C280 1.395 . S
C305 C282 1.391 1_655 S
H306 C266 0.951 . S
H307 C267 0.950 1_545 S
H308 C273 0.949 . S
H309 C274 0.950 . S
H310 C278 0.951 . S
H311 C279 0.950 . S
H312 C283 0.949 . S
H313 C284 0.950 . S
H314 C288 0.950 . S
H315 C290 0.950 . S
H316 C293 0.950 . S
H317 C295 0.950 . S
C318 C319 1.443 . S
C318 N322 1.376 . S
C318 C356 1.389 . S
C319 C318 1.443 . S
C319 C320 1.340 . S
C319 H359 0.951 . S
C320 C319 1.340 . S
C320 C321 1.439 . S
C320 H360 0.950 . S
C321 C320 1.439 . S
C321 N322 1.374 . S
C321 C355 1.395 . S
N322 C318 1.376 . S
N322 C321 1.374 . S
N322 Co323 2.008 . S
Co323 N322 2.008 . S
Co323 N324 1.995 . S
Co323 N329 2.008 . S
Co323 N334 1.995 . S
Co323 N339 2.282 . S
Co323 N345 2.282 . S
N324 Co323 1.995 . S
N324 C325 1.376 . S
N324 C328 1.383 . S
C325 N324 1.376 . S
C325 C326 1.446 . S
C325 C355 1.391 . S
C326 C325 1.446 . S
C326 C327 1.339 . S
C326 H361 0.949 . S
C327 C326 1.339 . S
C327 C328 1.439 . S
C327 H362 0.950 . S
C328 N324 1.383 . S
C328 C327 1.439 . S
C328 C357 1.392 . S
N329 Co323 2.008 . S
N329 C330 1.376 . S
N329 C333 1.374 . S
C330 N329 1.376 . S
C330 C331 1.443 . S
C330 C357 1.389 . S
C331 C330 1.443 . S
C331 C332 1.340 . S
C331 H363 0.951 . S
C332 C331 1.340 . S
C332 C333 1.439 . S
C332 H364 0.950 . S
C333 N329 1.374 . S
C333 C332 1.439 . S
C333 C358 1.395 . S
N334 Co323 1.995 . S
N334 C335 1.376 . S
N334 C338 1.383 . S
C335 N334 1.376 . S
C335 C336 1.446 1_545 S
C335 C358 1.391 . S
C336 C335 1.446 1_565 S
C336 C337 1.339 1_565 S
C336 H365 0.949 . S
C337 C336 1.339 1_545 S
C337 C338 1.439 . S
C337 H366 0.950 . S
C338 N334 1.383 . S
C338 C337 1.439 . S
C338 C356 1.392 . S
N339 Co323 2.282 . S
N339 C342 1.332 . S
N339 C344 1.332 . S
C340 C341 1.386 . S
C340 C343 1.388 . S
C341 C340 1.386 . S
C341 C342 1.382 . S
C341 H367 0.950 . S
C342 N339 1.332 . S
C342 C341 1.382 . S
C342 H353 0.952 . S
C343 C340 1.388 . S
C343 C344 1.382 . S
C343 H368 0.950 . S
C344 N339 1.332 . S
C344 C343 1.382 . S
C344 H354 0.948 . S
N345 Co323 2.282 . S
N345 C349 1.332 . S
N345 C350 1.332 . S
C346 C347 1.388 . S
C346 C350 1.382 . S
C346 H369 0.950 . S
C347 C346 1.388 . S
C347 C348 1.386 . S
C348 C347 1.386 . S
C348 C349 1.382 . S
C348 H370 0.950 . S
C349 N345 1.332 . S
C349 C348 1.382 . S
C349 H351 0.952 . S
C350 N345 1.332 . S
C350 C346 1.382 . S
C350 H352 0.948 . S
H351 C349 0.952 . S
H352 C350 0.948 . S
H353 C342 0.952 . S
H354 C344 0.948 . S
C355 C321 1.395 . S
C355 C325 1.391 . S
C356 C318 1.389 . S
C356 C338 1.392 . S
C357 C328 1.392 . S
C357 C330 1.389 . S
C358 C333 1.395 . S
C358 C335 1.391 . S
H359 C319 0.951 . S
H360 C320 0.950 . S
H361 C326 0.949 . S
H362 C327 0.950 . S
H363 C331 0.951 . S
H364 C332 0.950 . S
H365 C336 0.949 . S
H366 C337 0.950 . S
H367 C341 0.950 . S
H368 C343 0.950 . S
H369 C346 0.950 . S
H370 C348 0.950 . S
C371 C372 1.443 . S
C371 N375 1.376 1_655 S
C371 C409 1.389 . S
C372 C371 1.443 . S
C372 C373 1.340 . S
C372 H412 0.951 . S
C373 C372 1.340 . S
C373 C374 1.439 1_655 S
C373 H413 0.950 . S
C374 C373 1.439 1_455 S
C374 N375 1.374 . S
C374 C408 1.395 . S
N375 C371 1.376 1_455 S
N375 C374 1.374 . S
N375 Co376 2.008 . S
Co376 N375 2.008 . S
Co376 N377 1.995 . S
Co376 N382 2.008 . S
Co376 N387 1.995 . S
Co376 N392 2.282 1_455 S
Co376 N398 2.282 . S
N377 Co376 1.995 . S
N377 C378 1.376 . S
N377 C381 1.383 . S
C378 N377 1.376 . S
C378 C379 1.446 . S
C378 C408 1.391 . S
C379 C378 1.446 . S
C379 C380 1.339 . S
C379 H414 0.949 . S
C380 C379 1.339 . S
C380 C381 1.439 . S
C380 H415 0.950 . S
C381 N377 1.383 . S
C381 C380 1.439 . S
C381 C410 1.392 . S
N382 Co376 2.008 . S
N382 C383 1.376 . S
N382 C386 1.374 . S
C383 N382 1.376 . S
C383 C384 1.443 . S
C383 C410 1.389 . S
C384 C383 1.443 . S
C384 C385 1.340 . S
C384 H416 0.951 . S
C385 C384 1.340 . S
C385 C386 1.439 . S
C385 H417 0.950 . S
C386 N382 1.374 . S
C386 C385 1.439 . S
C386 C411 1.395 . S
N387 Co376 1.995 . S
N387 C388 1.376 . S
N387 C391 1.383 . S
C388 N387 1.376 . S
C388 C389 1.446 1_545 S
C388 C411 1.391 . S
C389 C388 1.446 1_565 S
C389 C390 1.348 1_565 S
C389 H418 0.949 . S
C390 C389 1.348 1_545 S
C390 C391 1.441 . S
C390 H419 0.940 1_455 S
C391 N387 1.383 . S
C391 C390 1.441 . S
C391 C409 1.392 1_455 S
N392 Co376 2.282 1_655 S
N392 C395 1.332 . S
N392 C397 1.332 . S
C393 C394 1.386 . S
C393 C396 1.388 . S
C394 C393 1.386 . S
C394 C395 1.382 . S
C394 H420 0.950 . S
C395 N392 1.332 . S
C395 C394 1.382 . S
C395 H406 0.952 . S
C396 C393 1.388 . S
C396 C397 1.382 . S
C396 H421 0.950 . S
C397 N392 1.332 . S
C397 C396 1.382 . S
C397 H407 0.948 . S
N398 Co376 2.282 . S
N398 C402 1.332 . S
N398 C403 1.332 . S
C399 C400 1.388 . S
C399 C403 1.382 . S
C399 H422 0.950 . S
C400 C399 1.388 . S
C400 C401 1.386 . S
C401 C400 1.386 . S
C401 C402 1.382 . S
C401 H423 0.950 . S
C402 N398 1.332 . S
C402 C401 1.382 . S
C402 H404 0.952 . S
C403 N398 1.332 . S
C403 C399 1.382 . S
C403 H405 0.948 . S
H404 C402 0.952 . S
H405 C403 0.948 . S
H406 C395 0.952 . S
H407 C397 0.948 . S
C408 C374 1.395 . S
C408 C378 1.391 . S
C409 C371 1.389 . S
C409 C391 1.392 1_655 S
C410 C381 1.392 . S
C410 C383 1.389 . S
C411 C386 1.395 . S
C411 C388 1.391 . S
H412 C372 0.951 . S
H413 C373 0.950 . S
H414 C379 0.949 . S
H415 C380 0.950 . S
H416 C384 0.951 . S
H417 C385 0.950 . S
H418 C389 0.949 . S
H419 C390 0.940 1_655 S
H420 C394 0.950 . S
H421 C396 0.950 . S
H422 C399 0.950 . S
H423 C401 0.950 . S
H424 C432 0.950 . S
H425 C437 0.950 . S
H426 C434 0.950 . S
H427 C436 0.950 . S
H428 C438 0.950 . S
H429 C440 0.950 . S
H430 C442 0.950 . S
H431 C443 0.950 . S
C432 H424 0.950 . S
C432 C433 1.386 . S
C432 C434 1.391 . S
C433 C432 1.386 . S
C433 C437 1.393 1_655 S
C434 H426 0.950 . S
C434 C432 1.391 . S
C434 C435 1.400 . S
C435 C434 1.400 . S
C435 C436 1.398 1_655 S
C435 C441 1.491 1_655 S
C436 H427 0.950 . S
C436 C435 1.398 1_455 S
C436 C437 1.391 . S
C437 H425 0.950 . S
C437 C433 1.393 1_455 S
C437 C436 1.391 . S
C438 H428 0.950 . S
C438 C439 1.386 . S
C438 C440 1.391 . S
C439 C438 1.386 . S
C439 C443 1.393 1_455 S
C440 H429 0.950 . S
C440 C438 1.391 . S
C440 C441 1.400 . S
C441 C435 1.491 1_455 S
C441 C440 1.400 . S
C441 C442 1.398 1_455 S
C442 H430 0.950 . S
C442 C441 1.398 1_655 S
C442 C443 1.391 . S
C443 H431 0.950 . S
C443 C439 1.393 1_655 S
C443 C442 1.391 . S
H444 C452 0.950 . S
H445 C457 0.950 . S
H446 C454 0.950 . S
H447 C456 0.950 . S
H448 C458 0.950 . S
H449 C460 0.950 . S
H450 C462 0.950 . S
H451 C463 0.950 . S
C452 H444 0.950 . S
C452 C453 1.386 . S
C452 C454 1.391 . S
C453 C452 1.386 . S
C453 C457 1.393 . S
C454 H446 0.950 . S
C454 C452 1.391 . S
C454 C455 1.400 . S
C455 C454 1.400 . S
C455 C456 1.398 . S
C455 C461 1.491 . S
C456 H447 0.950 . S
C456 C455 1.398 . S
C456 C457 1.391 . S
C457 H445 0.950 . S
C457 C453 1.393 . S
C457 C456 1.391 . S
C458 H448 0.950 . S
C458 C459 1.386 . S
C458 C460 1.391 . S
C459 C458 1.386 . S
C459 C463 1.393 . S
C460 H449 0.950 . S
C460 C458 1.391 . S
C460 C461 1.400 . S
C461 C455 1.491 . S
C461 C460 1.400 . S
C461 C462 1.398 . S
C462 H450 0.950 . S
C462 C461 1.398 . S
C462 C463 1.391 . S
C463 H451 0.950 . S
C463 C459 1.393 . S
C463 C462 1.391 . S
H464 C472 0.950 . S
H465 C477 0.950 . S
H466 C474 0.950 1_556 S
H467 C476 0.950 1_565 S
H468 C478 0.950 . S
H469 C480 0.950 1_554 S
H470 C482 0.950 1_545 S
H471 C483 0.950 . S
C472 H464 0.950 . S
C472 C473 1.386 . S
C472 C474 1.391 . S
C473 C472 1.386 . S
C473 C477 1.393 . S
C474 H466 0.950 1_554 S
C474 C472 1.391 . S
C474 C475 1.400 . S
C475 C474 1.400 . S
C475 C476 1.398 . S
C475 C481 1.491 1_544 S
C476 H467 0.950 1_545 S
C476 C475 1.398 . S
C476 C477 1.391 . S
C477 H465 0.950 . S
C477 C473 1.393 . S
C477 C476 1.391 . S
C478 H468 0.950 . S
C478 C479 1.386 . S
C478 C480 1.391 . S
C479 C478 1.386 . S
C479 C483 1.393 . S
C480 H469 0.950 1_556 S
C480 C478 1.391 . S
C480 C481 1.400 . S
C481 C475 1.491 1_566 S
C481 C480 1.400 . S
C481 C482 1.398 . S
C482 H470 0.950 1_565 S
C482 C481 1.398 . S
C482 C483 1.391 . S
C483 H471 0.950 . S
C483 C479 1.393 . S
C483 C482 1.391 . S
H484 C492 0.950 . S
H485 C497 0.950 . S
H486 C494 0.950 1_556 S
H487 C496 0.950 1_545 S
H488 C498 0.950 . S
H489 C500 0.950 1_554 S
H490 C502 0.950 1_565 S
H491 C503 0.950 . S
C492 H484 0.950 . S
C492 C493 1.386 . S
C492 C494 1.391 . S
C493 C492 1.386 . S
C493 C497 1.393 1_455 S
C494 H486 0.950 1_554 S
C494 C492 1.391 . S
C494 C495 1.400 . S
C495 C494 1.400 . S
C495 C496 1.398 1_455 S
C495 C501 1.491 1_464 S
C496 H487 0.950 1_565 S
C496 C495 1.398 1_655 S
C496 C497 1.391 . S
C497 H485 0.950 . S
C497 C493 1.393 1_655 S
C497 C496 1.391 . S
C498 H488 0.950 . S
C498 C499 1.386 . S
C498 C500 1.391 . S
C499 C498 1.386 . S
C499 C503 1.393 1_655 S
C500 H489 0.950 1_556 S
C500 C498 1.391 . S
C500 C501 1.400 . S
C501 C495 1.491 1_646 S
C501 C500 1.400 . S
C501 C502 1.398 1_655 S
C502 H490 0.950 1_545 S
C502 C501 1.398 1_455 S
C502 C503 1.391 . S
C503 H491 0.950 . S
C503 C499 1.393 1_455 S
C503 C502 1.391 . S
H504 C512 0.950 . S
H505 C517 0.950 . S
H506 C514 0.950 . S
H507 C516 0.950 . S
H508 C518 0.950 . S
H509 C520 0.950 . S
H510 C522 0.950 . S
H511 C523 0.950 . S
C512 H504 0.950 . S
C512 C513 1.386 . S
C512 C514 1.391 . S
C513 C512 1.386 . S
C513 C517 1.393 . S
C514 H506 0.950 . S
C514 C512 1.391 . S
C514 C515 1.400 . S
C515 C514 1.400 . S
C515 C516 1.398 . S
C515 C521 1.491 . S
C516 H507 0.950 . S
C516 C515 1.398 . S
C516 C517 1.391 . S
C517 H505 0.950 . S
C517 C513 1.393 . S
C517 C516 1.391 . S
C518 H508 0.950 . S
C518 C519 1.386 . S
C518 C520 1.391 . S
C519 C518 1.386 . S
C519 C523 1.393 . S
C520 H509 0.950 . S
C520 C518 1.391 . S
C520 C521 1.400 . S
C521 C515 1.491 . S
C521 C520 1.400 . S
C521 C522 1.398 . S
C522 H510 0.950 . S
C522 C521 1.398 . S
C522 C523 1.391 . S
C523 H511 0.950 . S
C523 C519 1.393 . S
C523 C522 1.391 . S
H524 C532 0.950 . S
H525 C537 0.950 . S
H526 C534 0.950 . S
H527 C536 0.950 . S
H528 C538 0.950 . S
H529 C540 0.950 . S
H530 C542 0.950 . S
H531 C543 0.950 . S
C532 H524 0.950 . S
C532 C533 1.386 . S
C532 C534 1.391 . S
C533 C532 1.386 . S
C533 C537 1.393 . S
C534 H526 0.950 . S
C534 C532 1.391 . S
C534 C535 1.400 . S
C535 C534 1.400 . S
C535 C536 1.398 . S
C535 C541 1.491 . S
C536 H527 0.950 . S
C536 C535 1.398 . S
C536 C537 1.391 . S
C537 H525 0.950 . S
C537 C533 1.393 . S
C537 C536 1.391 . S
C538 H528 0.950 . S
C538 C539 1.386 . S
C538 C540 1.391 . S
C539 C538 1.386 . S
C539 C543 1.393 . S
C540 H529 0.950 . S
C540 C538 1.391 . S
C540 C541 1.400 . S
C541 C535 1.491 . S
C541 C540 1.400 . S
C541 C542 1.398 . S
C542 H530 0.950 . S
C542 C541 1.398 . S
C542 C543 1.391 . S
C543 H531 0.950 . S
C543 C539 1.393 . S
C543 C542 1.391 . S
H544 C552 0.950 . S
H545 C557 0.950 . S
H546 C554 0.950 . S
H547 C556 0.950 . S
H548 C558 0.950 . S
H549 C560 0.950 . S
H550 C562 0.950 . S
H551 C563 0.950 . S
C552 H544 0.950 . S
C552 C553 1.386 . S
C552 C554 1.391 . S
C553 C552 1.386 . S
C553 C557 1.393 . S
C554 H546 0.950 . S
C554 C552 1.391 . S
C554 C555 1.400 . S
C555 C554 1.400 . S
C555 C556 1.398 . S
C555 C561 1.491 . S
C556 H547 0.950 . S
C556 C555 1.398 . S
C556 C557 1.391 . S
C557 H545 0.950 . S
C557 C553 1.393 . S
C557 C556 1.391 . S
C558 H548 0.950 . S
C558 C559 1.386 . S
C558 C560 1.391 . S
C559 C558 1.386 . S
C559 C563 1.393 . S
C560 H549 0.950 . S
C560 C558 1.391 . S
C560 C561 1.400 . S
C561 C555 1.491 . S
C561 C560 1.400 . S
C561 C562 1.398 . S
C562 H550 0.950 . S
C562 C561 1.398 . S
C562 C563 1.391 . S
C563 H551 0.950 . S
C563 C559 1.393 . S
C563 C562 1.391 . S
H564 C572 0.950 . S
H565 C577 0.950 . S
H566 C574 0.950 . S
H567 C576 0.950 . S
H568 C578 0.950 . S
H569 C580 0.950 . S
H570 C582 0.950 . S
H571 C583 0.950 . S
C572 H564 0.950 . S
C572 C573 1.386 . S
C572 C574 1.391 . S
C573 C572 1.386 . S
C573 C577 1.393 . S
C574 H566 0.950 . S
C574 C572 1.391 . S
C574 C575 1.400 . S
C575 C574 1.400 . S
C575 C576 1.398 . S
C575 C581 1.491 . S
C576 H567 0.950 . S
C576 C575 1.398 . S
C576 C577 1.391 . S
C577 H565 0.950 . S
C577 C573 1.393 . S
C577 C576 1.391 . S
C578 H568 0.950 . S
C578 C579 1.386 . S
C578 C580 1.391 . S
C579 C578 1.386 . S
C579 C583 1.393 . S
C580 H569 0.950 . S
C580 C578 1.391 . S
C580 C581 1.400 . S
C581 C575 1.491 . S
C581 C580 1.400 . S
C581 C582 1.398 . S
C582 H570 0.950 . S
C582 C581 1.398 . S
C582 C583 1.391 . S
C583 H571 0.950 . S
C583 C579 1.393 . S
C583 C582 1.391 . S
H584 C592 0.950 . S
H585 C597 0.950 . S
H586 C594 0.950 . S
H587 C596 0.950 . S
H588 C598 0.950 . S
H589 C600 0.950 . S
H590 C602 0.950 . S
H591 C603 0.950 . S
C592 H584 0.950 . S
C592 C593 1.386 . S
C592 C594 1.391 . S
C593 C592 1.386 . S
C593 C597 1.393 . S
C594 H586 0.950 . S
C594 C592 1.391 . S
C594 C595 1.400 . S
C595 C594 1.400 . S
C595 C596 1.398 . S
C595 C601 1.491 . S
C596 H587 0.950 . S
C596 C595 1.398 . S
C596 C597 1.391 . S
C597 H585 0.950 . S
C597 C593 1.393 . S
C597 C596 1.391 . S
C598 H588 0.950 . S
C598 C599 1.386 . S
C598 C600 1.391 . S
C599 C598 1.386 . S
C599 C603 1.393 . S
C600 H589 0.950 . S
C600 C598 1.391 . S
C600 C601 1.400 . S
C601 C595 1.491 . S
C601 C600 1.400 . S
C601 C602 1.398 . S
C602 H590 0.950 . S
C602 C601 1.398 . S
C602 C603 1.391 . S
C603 H591 0.950 . S
C603 C599 1.393 . S
C603 C602 1.391 . S
H604 C612 0.950 . S
H605 C617 0.950 . S
H606 C614 0.950 . S
H607 C616 0.950 . S
H608 C618 0.950 . S
H609 C620 0.950 . S
H610 C622 0.950 . S
H611 C623 0.950 . S
C612 H604 0.950 . S
C612 C613 1.386 . S
C612 C614 1.391 . S
C613 C612 1.386 . S
C613 C617 1.393 . S
C614 H606 0.950 . S
C614 C612 1.391 . S
C614 C615 1.400 . S
C615 C614 1.400 . S
C615 C616 1.398 . S
C615 C621 1.491 . S
C616 H607 0.950 . S
C616 C615 1.398 . S
C616 C617 1.391 . S
C617 H605 0.950 . S
C617 C613 1.393 . S
C617 C616 1.391 . S
C618 H608 0.950 . S
C618 C619 1.386 . S
C618 C620 1.391 . S
C619 C618 1.386 . S
C619 C623 1.393 . S
C620 H609 0.950 . S
C620 C618 1.391 . S
C620 C621 1.400 . S
C621 C615 1.491 . S
C621 C620 1.400 . S
C621 C622 1.398 . S
C622 H610 0.950 . S
C622 C621 1.398 . S
C622 C623 1.391 . S
C623 H611 0.950 . S
C623 C619 1.393 . S
C623 C622 1.391 . S
H624 C632 0.950 . S
H625 C637 0.950 . S
H626 C634 0.950 . S
H627 C636 0.950 . S
H628 C638 0.950 . S
H629 C640 0.950 . S
H630 C642 0.950 . S
H631 C643 0.950 . S
C632 H624 0.950 . S
C632 C633 1.386 . S
C632 C634 1.391 . S
C633 C632 1.386 . S
C633 C637 1.393 . S
C634 H626 0.950 . S
C634 C632 1.391 . S
C634 C635 1.400 . S
C635 C634 1.400 . S
C635 C636 1.398 . S
C635 C641 1.491 . S
C636 H627 0.950 . S
C636 C635 1.398 . S
C636 C637 1.391 . S
C637 H625 0.950 . S
C637 C633 1.393 . S
C637 C636 1.391 . S
C638 H628 0.950 . S
C638 C639 1.386 . S
C638 C640 1.391 . S
C639 C638 1.386 . S
C639 C643 1.393 . S
C640 H629 0.950 . S
C640 C638 1.391 . S
C640 C641 1.400 . S
C641 C635 1.491 . S
C641 C640 1.400 . S
C641 C642 1.398 . S
C642 H630 0.950 . S
C642 C641 1.398 . S
C642 C643 1.391 . S
C643 H631 0.950 . S
C643 C639 1.393 . S
C643 C642 1.391 . S
H644 C652 0.950 . S
H645 C657 0.950 . S
H646 C654 0.950 . S
H647 C656 0.950 . S
H648 C658 0.950 . S
H649 C660 0.950 . S
H650 C662 0.950 . S
H651 C663 0.950 . S
C652 H644 0.950 . S
C652 C653 1.386 . S
C652 C654 1.391 . S
C653 C652 1.386 . S
C653 C657 1.393 . S
C654 H646 0.950 . S
C654 C652 1.391 . S
C654 C655 1.400 . S
C655 C654 1.400 . S
C655 C656 1.398 . S
C655 C661 1.491 . S
C656 H647 0.950 . S
C656 C655 1.398 . S
C656 C657 1.391 . S
C657 H645 0.950 . S
C657 C653 1.393 . S
C657 C656 1.391 . S
C658 H648 0.950 . S
C658 C659 1.386 . S
C658 C660 1.391 . S
C659 C658 1.386 . S
C659 C663 1.393 . S
C660 H649 0.950 . S
C660 C658 1.391 . S
C660 C661 1.400 . S
C661 C655 1.491 . S
C661 C660 1.400 . S
C661 C662 1.398 . S
C662 H650 0.950 . S
C662 C661 1.398 . S
C662 C663 1.391 . S
C663 H651 0.950 . S
C663 C659 1.393 . S
C663 C662 1.391 . S
H664 C672 0.950 . S
H665 C677 0.950 . S
H666 C674 0.950 . S
H667 C676 0.950 . S
H668 C678 0.950 . S
H669 C680 0.950 . S
H670 C682 0.950 . S
H671 C683 0.950 . S
C672 H664 0.950 . S
C672 C673 1.386 . S
C672 C674 1.391 . S
C673 C672 1.386 . S
C673 C677 1.393 . S
C674 H666 0.950 . S
C674 C672 1.391 . S
C674 C675 1.400 . S
C675 C674 1.400 . S
C675 C676 1.398 . S
C675 C681 1.491 . S
C676 H667 0.950 . S
C676 C675 1.398 . S
C676 C677 1.391 . S
C677 H665 0.950 . S
C677 C673 1.393 . S
C677 C676 1.391 . S
C678 H668 0.950 . S
C678 C679 1.386 . S
C678 C680 1.391 . S
C679 C678 1.386 . S
C679 C683 1.393 . S
C680 H669 0.950 . S
C680 C678 1.391 . S
C680 C681 1.400 . S
C681 C675 1.491 . S
C681 C680 1.400 . S
C681 C682 1.398 . S
C682 H670 0.950 . S
C682 C681 1.398 . S
C682 C683 1.391 . S
C683 H671 0.950 . S
C683 C679 1.393 . S
C683 C682 1.391 . S
H684 C692 0.950 . S
H685 C697 0.950 . S
H686 C694 0.950 . S
H687 C696 0.950 . S
H688 C698 0.950 . S
H689 C700 0.950 . S
H690 C702 0.950 . S
H691 C703 0.950 . S
C692 H684 0.950 . S
C692 C693 1.386 . S
C692 C694 1.391 . S
C693 C692 1.386 . S
C693 C697 1.393 . S
C694 H686 0.950 . S
C694 C692 1.391 . S
C694 C695 1.400 . S
C695 C694 1.400 . S
C695 C696 1.398 . S
C695 C701 1.491 . S
C696 H687 0.950 . S
C696 C695 1.398 . S
C696 C697 1.391 . S
C697 H685 0.950 . S
C697 C693 1.393 . S
C697 C696 1.391 . S
C698 H688 0.950 . S
C698 C699 1.386 . S
C698 C700 1.391 . S
C699 C698 1.386 . S
C699 C703 1.393 . S
C700 H689 0.950 . S
C700 C698 1.391 . S
C700 C701 1.400 . S
C701 C695 1.491 . S
C701 C700 1.400 . S
C701 C702 1.398 . S
C702 H690 0.950 . S
C702 C701 1.398 . S
C702 C703 1.391 . S
C703 H691 0.950 . S
C703 C699 1.393 . S
C703 C702 1.391 . S
H704 C712 0.950 . S
H705 C717 0.950 . S
H706 C714 0.950 . S
H707 C716 0.950 . S
H708 C718 0.950 . S
H709 C720 0.950 . S
H710 C722 0.950 . S
H711 C723 0.950 . S
C712 H704 0.950 . S
C712 C713 1.386 . S
C712 C714 1.391 . S
C713 C712 1.386 . S
C713 C717 1.393 . S
C714 H706 0.950 . S
C714 C712 1.391 . S
C714 C715 1.400 . S
C715 C714 1.400 . S
C715 C716 1.398 . S
C715 C721 1.491 1_554 S
C716 H707 0.950 . S
C716 C715 1.398 . S
C716 C717 1.391 . S
C717 H705 0.950 . S
C717 C713 1.393 . S
C717 C716 1.391 . S
C718 H708 0.950 . S
C718 C719 1.386 . S
C718 C720 1.391 . S
C719 C718 1.386 . S
C719 C723 1.393 . S
C720 H709 0.950 . S
C720 C718 1.391 . S
C720 C721 1.400 . S
C721 C715 1.491 1_556 S
C721 C720 1.400 . S
C721 C722 1.398 . S
C722 H710 0.950 . S
C722 C721 1.398 . S
C722 C723 1.391 . S
C723 H711 0.950 . S
C723 C719 1.393 . S
C723 C722 1.391 . S
H724 C732 0.950 . S
H725 C737 0.950 . S
H726 C734 0.950 . S
H727 C736 0.950 . S
H728 C738 0.950 . S
H729 C740 0.950 . S
H730 C742 0.950 . S
H731 C743 0.950 . S
C732 H724 0.950 . S
C732 C733 1.386 . S
C732 C734 1.391 . S
C733 C732 1.386 . S
C733 C737 1.393 . S
C734 H726 0.950 . S
C734 C732 1.391 . S
C734 C735 1.400 . S
C735 C734 1.400 . S
C735 C736 1.398 . S
C735 C741 1.491 1_554 S
C736 H727 0.950 . S
C736 C735 1.398 . S
C736 C737 1.391 . S
C737 H725 0.950 . S
C737 C733 1.393 . S
C737 C736 1.391 . S
C738 H728 0.950 . S
C738 C739 1.386 . S
C738 C740 1.391 . S
C739 C738 1.386 . S
C739 C743 1.393 . S
C740 H729 0.950 . S
C740 C738 1.391 . S
C740 C741 1.400 . S
C741 C735 1.491 1_556 S
C741 C740 1.400 . S
C741 C742 1.398 . S
C742 H730 0.950 . S
C742 C741 1.398 . S
C742 C743 1.391 . S
C743 H731 0.950 . S
C743 C739 1.393 . S
C743 C742 1.391 . S
C433 C38 1.946 . S
C439 C144 1.957 . S
C453 C197 1.957 . S
C459 C91 1.945 . S
C473 C356 1.963 . S
C479 C250 1.951 . S
C493 C303 1.944 . S
C499 C409 1.955 . S
C513 C340 1.979 . S
C519 C22 1.979 . S
C533 C75 1.984 . S
C539 C393 1.984 . S
C553 C128 1.982 . S
C559 C234 1.983 . S
C573 C181 1.980 . S
C579 C287 1.980 . S
C593 C357 2.220 . S
C599 C39 2.231 . S
C613 C92 2.214 . S
C619 C410 2.202 . S
C633 C251 2.213 . S
C639 C145 2.201 . S
C653 C304 2.231 . S
C659 C198 2.220 . S
C673 C82 0.683 . S
C679 C29 0.686 . S
C693 C135 0.657 . S
C699 C188 0.661 . S
C713 C294 0.699 . S
C719 C241 0.699 . S
C733 C347 0.668 . S
C739 C400 0.675 . S
