# Generated by pormake.
# Topology snz, (6)-cn, num edge types: 1
# Building blocks:
#     Node 0, Type 0, BuildingBlock: JUFBIX_clean_sbu_0, # of connection points: 6
#     Node 1, Type 0, BuildingBlock: JUFBIX_clean_sbu_0, # of connection points: 6
#     Node 2, Type 0, BuildingBlock: JUFBIX_clean_sbu_0, # of connection points: 6
#     Node 3, Type 0, BuildingBlock: JUFBIX_clean_sbu_0, # of connection points: 6
#     Node 4, Type 0, BuildingBlock: JUFBIX_clean_sbu_0, # of connection points: 6
#     Node 5, Type 0, BuildingBlock: JUFBIX_clean_sbu_0, # of connection points: 6
#     Node 6, Type 0, BuildingBlock: JUFBIX_clean_sbu_0, # of connection points: 6
#     Node 7, Type 0, BuildingBlock: JUFBIX_clean_sbu_0, # of connection points: 6
#     Node 8, Type 0, BuildingBlock: JUFBIX_clean_sbu_0, # of connection points: 6
#     Edge 9, Type (0, 0), BuildingBlock: CIFDUS_clean_linker_0, # of connection points: 2
#     Edge 10, Type (0, 0), BuildingBlock: CIFDUS_clean_linker_0, # of connection points: 2
#     Edge 11, Type (0, 0), BuildingBlock: CIFDUS_clean_linker_0, # of connection points: 2
#     Edge 12, Type (0, 0), BuildingBlock: CIFDUS_clean_linker_0, # of connection points: 2
#     Edge 13, Type (0, 0), BuildingBlock: CIFDUS_clean_linker_0, # of connection points: 2
#     Edge 14, Type (0, 0), BuildingBlock: CIFDUS_clean_linker_0, # of connection points: 2
#     Edge 15, Type (0, 0), BuildingBlock: CIFDUS_clean_linker_0, # of connection points: 2
#     Edge 16, Type (0, 0), BuildingBlock: CIFDUS_clean_linker_0, # of connection points: 2
#     Edge 17, Type (0, 0), BuildingBlock: CIFDUS_clean_linker_0, # of connection points: 2
#     Edge 18, Type (0, 0), BuildingBlock: CIFDUS_clean_linker_0, # of connection points: 2
#     Edge 19, Type (0, 0), BuildingBlock: CIFDUS_clean_linker_0, # of connection points: 2
#     Edge 20, Type (0, 0), BuildingBlock: CIFDUS_clean_linker_0, # of connection points: 2
#     Edge 21, Type (0, 0), BuildingBlock: CIFDUS_clean_linker_0, # of connection points: 2
#     Edge 22, Type (0, 0), BuildingBlock: CIFDUS_clean_linker_0, # of connection points: 2
#     Edge 23, Type (0, 0), BuildingBlock: CIFDUS_clean_linker_0, # of connection points: 2
#     Edge 24, Type (0, 0), BuildingBlock: CIFDUS_clean_linker_0, # of connection points: 2
#     Edge 25, Type (0, 0), BuildingBlock: CIFDUS_clean_linker_0, # of connection points: 2
#     Edge 26, Type (0, 0), BuildingBlock: CIFDUS_clean_linker_0, # of connection points: 2
#     Edge 27, Type (0, 0), BuildingBlock: CIFDUS_clean_linker_0, # of connection points: 2
#     Edge 28, Type (0, 0), BuildingBlock: CIFDUS_clean_linker_0, # of connection points: 2
#     Edge 29, Type (0, 0), BuildingBlock: CIFDUS_clean_linker_0, # of connection points: 2
#     Edge 30, Type (0, 0), BuildingBlock: CIFDUS_clean_linker_0, # of connection points: 2
#     Edge 31, Type (0, 0), BuildingBlock: CIFDUS_clean_linker_0, # of connection points: 2
#     Edge 32, Type (0, 0), BuildingBlock: CIFDUS_clean_linker_0, # of connection points: 2
#     Edge 33, Type (0, 0), BuildingBlock: CIFDUS_clean_linker_0, # of connection points: 2
#     Edge 34, Type (0, 0), BuildingBlock: CIFDUS_clean_linker_0, # of connection points: 2
#     Edge 35, Type (0, 0), BuildingBlock: CIFDUS_clean_linker_0, # of connection points: 2
# Relax obj value: 0.349
# Max RMSD: 0.279
# Mean RMSD: 0.226
data_MOF--net-snz--node1-JUFBIX_clean_sbu_0--edge1-CIFDUS_clean_linker_0
_symmetry_space_group_name_H-M    P1
_symmetry_Int_Tables_number       1
_symmetry_cell_setting            triclinic
loop_
_symmetry_equiv_pos_as_xyz
'x, y, z'
_cell_length_a     47.33421
_cell_length_b     51.94382
_cell_length_c     12.963558
_cell_angle_alpha  90.075999
_cell_angle_beta   89.402009
_cell_angle_gamma 119.878
loop_
_atom_site_label
_atom_site_type_symbol
_atom_site_fract_x
_atom_site_fract_y
_atom_site_fract_z
_atom_type_partial_charge
Co0 Co 0.1563 0.58324 0.84306 0.0
C1 C 0.12683 0.55796 0.02989 0.0
Co2 Co 0.11324 0.53806 0.8288 0.0
C3 C 0.19951 0.64223 0.92838 0.0
C4 C 0.21621 0.63512 0.7828 0.0
N5 N 0.19177 0.62178 0.85296 0.0
N6 N 0.2274 0.66769 0.90661 0.0
C7 C 0.23786 0.66332 0.81503 0.0
H8 H 0.18495 0.6387 -0.00257 0.0
H9 H 0.21855 0.62496 0.71285 0.0
C10 C 0.14226 0.56293 0.64171 0.0
N11 N 0.07929 0.49876 0.817 0.0
C12 C 0.08221 0.47639 0.77414 0.0
C13 C 0.04903 0.48537 0.8583 0.0
N14 N 0.05537 0.44948 0.78849 0.0
C15 C 0.03426 0.45515 0.84077 0.0
C16 C 0.09717 0.58255 0.81468 0.0
O17 O 0.16138 0.5846 0.69766 0.0
O18 O 0.11961 0.53969 0.68422 0.0
O19 O 0.08428 0.55426 0.8116 0.0
O20 O 0.12768 0.59839 0.82949 0.0
O21 O 0.10699 0.53664 0.97356 0.0
H22 H 0.03892 0.49663 0.90241 0.0
H23 H 0.10416 0.47978 0.73535 0.0
O24 O 0.15026 0.58089 -0.01208 0.0
O25 O 0.18487 0.56816 0.85719 0.0
O26 O 0.14293 0.52331 0.84781 0.0
C27 C 0.17333 0.5403 0.86044 0.0
H28 H 0.26003 0.67922 0.77547 0.0
H29 H 1.01047 0.43856 0.86913 0.0
Co30 Co 0.63916 0.53315 -0.00138 0.0
C31 C 0.64 0.5617 0.81263 0.0
Co32 Co 0.64331 0.5773 0.01379 0.0
C33 C 0.61082 0.46894 -0.02612 0.0
C34 C 0.66025 0.49395 0.92108 0.0
N35 N 0.63665 0.49685 0.96996 0.0
N36 N 0.61748 0.449 0.92894 0.0
C37 C 0.64868 0.46484 0.89638 0.0
H38 H 0.58724 0.46354 0.00518 0.0
H39 H 0.68382 0.51201 0.89772 0.0
C40 C 0.64236 0.54832 0.1996 0.0
N41 N 0.64781 0.61439 0.04 0.0
C42 C 0.66464 0.63187 0.11969 0.0
C43 C 0.63757 0.63052 -0.01313 0.0
N44 N 0.6652 0.65801 0.11934 0.0
C45 C 0.64849 0.65757 0.03535 0.0
C46 C 0.57909 0.53001 0.01814 0.0
O47 O 0.63912 0.52704 0.14283 0.0
O48 O 0.64513 0.57154 0.15759 0.0
O49 O 0.59612 0.55823 0.02573 0.0
O50 O 0.5935 0.51522 0.00255 0.0
O51 O 0.64124 0.58221 0.86942 0.0
H52 H 0.62343 0.62327 0.91705 0.0
H53 H 0.67719 0.62598 0.17604 0.0
O54 O 0.63918 0.53928 0.85466 0.0
O55 O 0.6848 0.55171 -0.00366 0.0
O56 O 0.6904 0.59599 0.0015 0.0
C57 C 0.70324 0.57958 -0.00475 0.0
H58 H 0.66169 0.45645 0.85124 0.0
H59 H 0.64429 0.67533 0.01145 0.0
Co60 Co 0.68257 0.02116 0.22699 0.0
C61 C 0.68404 0.04813 0.41424 0.0
Co62 Co 0.67258 0.05811 0.2143 0.0
C63 C 0.72073 0.99536 0.28634 0.0
C64 C 0.67633 0.96265 0.21726 0.0
N65 N 0.69324 0.99165 0.24223 0.0
N66 N 0.72175 0.96996 0.29016 0.0
C67 C 0.69378 0.94919 0.24722 0.0
H68 H 0.73936 0.01623 0.3177 0.0
H69 H 0.65279 0.95199 0.18052 0.0
C70 C 0.67122 0.031 0.02725 0.0
N71 N 0.66367 0.08871 0.20236 0.0
C72 C 0.64302 0.09132 0.138 0.0
C73 C 0.6792 0.11488 0.25233 0.0
N74 N 0.64542 0.11825 0.14503 0.0
C75 C 0.66808 0.1331 0.21709 0.0
C76 C 0.73732 0.07655 0.18192 0.0
O77 O 0.67671 0.01394 0.08338 0.0
O78 O 0.6679 0.05147 0.06956 0.0
O79 O 0.7169 0.08543 0.1913 0.0
O80 O 0.72782 0.04932 0.1987 0.0
O81 O 0.67741 0.06445 0.35862 0.0
H82 H 0.69817 0.12069 0.30845 0.0
H83 H 0.62766 0.07434 0.0837 0.0
O84 O 0.68833 0.02835 0.37131 0.0
O85 O 0.63686 0.99336 0.25222 0.0
O86 O 0.62804 0.03082 0.23575 0.0
C87 C 0.61706 1.00331 0.25219 0.0
H88 H 0.68659 0.92602 0.2376 0.0
H89 H 0.67645 0.15571 0.24113 0.0
Co90 Co 0.89993 0.92201 0.55221 0.0
C91 C 0.87091 0.89616 0.73942 0.0
Co92 Co 0.85856 0.87587 0.53863 0.0
C93 C 0.9334 0.98691 0.58223 0.0
C94 C 0.96632 0.97096 0.54947 0.0
N95 N 0.9344 0.9616 0.5638 0.0
N96 N 0.96338 1.01162 0.57946 0.0
C97 C 0.98401 1.00132 0.55944 0.0
H98 H 0.91097 0.98723 0.59495 0.0
H99 H 0.9763 0.95677 0.53105 0.0
C100 C 0.88784 0.90202 0.35144 0.0
N101 N 0.8247 0.83708 0.5254 0.0
C102 C 0.80357 0.82507 0.44677 0.0
C103 C 0.81804 0.81406 0.58822 0.0
N104 N 0.78417 0.79535 0.45719 0.0
C105 C 0.79327 0.78848 0.54668 0.0
C106 C 0.83862 0.91695 0.52226 0.0
O107 O 0.90695 0.92371 0.40768 0.0
O108 O 0.86514 0.8787 0.3937 0.0
O109 O 0.82933 0.88951 0.52562 0.0
O110 O 0.86888 0.93582 0.53145 0.0
O111 O 0.85269 0.87391 0.68372 0.0
H112 H 0.83126 0.81559 0.65766 0.0
H113 H 0.80305 0.83793 0.38201 0.0
O114 O 0.89269 0.91999 0.69673 0.0
O115 O 0.92958 0.90613 0.57274 0.0
O116 O 0.88744 0.86172 0.55235 0.0
C117 C 0.9175 0.87796 0.57039 0.0
H118 H 1.01022 0.01462 0.5521 0.0
H119 H 0.78393 0.76637 0.57795 0.0
Co120 Co 0.36053 0.88328 0.36233 0.0
C121 C 0.35985 0.90945 0.17601 0.0
Co122 Co 0.36506 0.92747 0.37719 0.0
C123 C 0.33269 0.82455 0.28198 0.0
C124 C 0.36786 0.83166 0.3972 0.0
N125 N 0.35448 0.84541 0.34567 0.0
N126 N 0.3317 0.79828 0.29173 0.0
C127 C 0.35378 0.80258 0.36443 0.0
H128 H 0.31698 0.82832 0.23167 0.0
H129 H 0.38615 0.84192 0.45614 0.0
C130 C 0.3657 0.90132 0.56345 0.0
N131 N 0.36962 0.96466 0.39306 0.0
C132 C 0.38957 0.98649 0.45739 0.0
C133 C 0.35206 0.97514 0.34622 0.0
N134 N 0.38494 1.01008 0.45325 0.0
C135 C 0.36139 1.00304 0.38316 0.0
C136 C 0.30132 0.88284 0.38839 0.0
O137 O 0.36347 0.88047 0.50663 0.0
O138 O 0.36689 0.92398 0.52191 0.0
O139 O 0.31989 0.91072 0.38762 0.0
O140 O 0.3138 0.86621 0.37777 0.0
O141 O 0.36316 0.93069 0.23266 0.0
H142 H 0.33337 0.96308 0.2898 0.0
H143 H 0.40656 0.98475 0.50818 0.0
O144 O 0.3577 0.88644 0.21776 0.0
O145 O 0.40757 0.90109 0.34825 0.0
O146 O 0.41034 0.94428 0.36695 0.0
C147 C 0.42467 0.92936 0.35331 0.0
H148 H 0.35937 0.78596 0.39176 0.0
H149 H 0.35175 0.01712 0.35972 0.0
Co150 Co 0.3328 0.40398 0.20978 0.0
C151 C 0.33523 0.43139 0.39675 0.0
Co152 Co 0.32466 0.4421 0.19669 0.0
C153 C 0.3574 0.36728 0.29081 0.0
C154 C 0.32133 0.34517 0.17495 0.0
N155 N 0.3385 0.37144 0.22335 0.0
N156 N 0.35229 0.33931 0.2875 0.0
C157 C 0.3297 0.32536 0.2144 0.0
H158 H 0.37328 0.38394 0.34517 0.0
H159 H 0.30293 0.34038 0.1176 0.0
C160 C 0.3222 0.41473 0.00968 0.0
N161 N 0.3183 0.47427 0.18219 0.0
C162 C 0.29686 0.47662 0.12051 0.0
C163 C 0.3352 0.50099 0.22763 0.0
N164 N 0.29984 0.50385 0.12496 0.0
C165 C 0.32392 0.51919 0.19275 0.0
C166 C 0.38987 0.45675 0.17105 0.0
O167 O 0.3275 0.39757 0.0656 0.0
O168 O 0.31925 0.43532 0.05221 0.0
O169 O 0.37086 0.46752 0.17339 0.0
O170 O 0.3781 0.42911 0.18713 0.0
O171 O 0.3302 0.44871 0.34072 0.0
H172 H 0.35472 0.50693 0.28178 0.0
H173 H 0.27998 0.45886 0.07131 0.0
O174 O 0.33796 0.41065 0.35436 0.0
O175 O 0.28768 0.37901 0.23291 0.0
O176 O 0.27855 0.41627 0.22188 0.0
C177 C 0.26793 0.38878 0.23914 0.0
H178 H 0.31942 0.3023 0.1927 0.0
H179 H 0.33272 0.54192 0.21612 0.0
Co180 Co 0.51255 0.22195 0.73661 0.0
C181 C 0.45668 0.16881 0.70577 0.0
Co182 Co 0.46926 0.2271 0.7246 0.0
C183 C 0.55551 0.20175 0.81015 0.0
C184 C 0.57829 0.23639 0.69718 0.0
N185 N 0.54979 0.21925 0.74717 0.0
N186 N 0.58658 0.20757 0.80224 0.0
C187 C 0.601 0.22932 0.73113 0.0
H188 H 0.53761 0.18595 0.86384 0.0
H189 H 0.58251 0.25349 0.64158 0.0
C190 C 0.52556 0.28016 0.75567 0.0
N191 N 0.43233 0.2303 0.71237 0.0
C192 C 0.42829 0.24883 0.64947 0.0
C193 C 0.403 0.21331 0.75783 0.0
N194 N 0.3975 0.2439 0.65275 0.0
C195 C 0.38147 0.22156 0.72101 0.0
C196 C 0.4828 0.21931 0.92468 0.0
O197 O 0.5378 0.26331 0.75265 0.0
O198 O 0.49508 0.26902 0.74314 0.0
O199 O 0.46286 0.22255 0.86905 0.0
O200 O 0.50632 0.218 0.88182 0.0
O201 O 0.44384 0.18527 0.7065 0.0
H202 H 0.39744 0.19556 0.81208 0.0
H203 H 0.44726 0.26478 0.5988 0.0
O204 O 0.4871 0.18043 0.7204 0.0
O205 O 0.51856 0.22598 0.59194 0.0
O206 O 0.47583 0.23153 0.57946 0.0
C207 C 0.499 0.22973 0.53643 0.0
H208 H 0.62624 0.23963 0.70647 0.0
H209 H 0.35594 0.21164 0.7418 0.0
Co210 Co 1.02112 0.23531 0.66509 0.0
C211 C 1.00489 0.28001 0.68373 0.0
Co212 Co 0.96821 0.218 0.68473 0.0
C213 C 0.08521 0.26908 0.56896 0.0
C214 C 0.08383 0.24018 0.68911 0.0
N215 N 0.06533 0.24949 0.64157 0.0
N216 N 0.11522 0.27197 0.5685 0.0
C217 C 0.11439 0.25388 0.64444 0.0
H218 H 0.07739 0.28002 0.51463 0.0
H219 H 0.07535 0.22385 0.75049 0.0
C220 C 0.98326 0.17282 0.66772 0.0
N221 N 0.92424 0.204 0.70884 0.0
C222 C 0.9058 0.18621 0.78721 0.0
C223 C 0.90477 0.21198 0.66003 0.0
N224 N 0.8758 0.18322 0.79057 0.0
C225 C 0.87502 0.19928 0.7101 0.0
C226 C 0.9872 0.22566 0.48146 0.0
O227 O 1.01235 0.19448 0.65777 0.0
O228 O 0.96025 0.17843 0.68158 0.0
O229 O 0.96224 0.2168 0.53964 0.0
O230 O 1.01492 0.23489 0.52169 0.0
O231 O 0.97627 0.25769 0.68842 0.0
H232 H 0.91215 0.22696 0.59468 0.0
H233 H 0.91479 0.17686 0.84393 0.0
O234 O 0.02895 0.27558 0.67284 0.0
O235 O 0.02697 0.23558 0.81011 0.0
O236 O 0.97472 0.21942 0.82823 0.0
C237 C 1.00222 0.22768 0.86841 0.0
H238 H 0.13437 0.25048 0.66547 0.0
H239 H 0.85462 0.20214 0.68987 0.0
Co240 Co 0.98051 0.70996 0.7211 0.0
C241 C 0.98192 0.76483 0.69493 0.0
Co242 Co 0.02947 0.74934 0.7031 0.0
C243 C 0.9134 0.67972 0.78956 0.0
C244 C 0.92553 0.65042 0.70915 0.0
N245 N 0.93821 0.6788 0.74021 0.0
N246 N 0.88582 0.65306 0.79088 0.0
C247 C 0.89339 0.63453 0.74057 0.0
H248 H 0.91564 0.69949 0.8253 0.0
H249 H 0.93876 0.64186 0.66623 0.0
C250 C 0.02852 0.69473 0.72853 0.0
N251 N 0.07149 0.78051 0.68409 0.0
C252 C 0.09563 0.78023 0.62853 0.0
C253 C 0.08443 0.80851 0.71942 0.0
N254 N 0.12305 0.80697 0.62718 0.0
C255 C 0.1161 0.82487 0.68418 0.0
C256 C 1.00963 0.7369 0.90569 0.0
O257 O 0.9977 0.68328 0.73321 0.0
O258 O 0.04597 0.72264 0.71525 0.0
O259 O 0.03297 0.75502 0.84788 0.0
O260 O 0.98431 0.71587 0.86511 0.0
O261 O 1.01264 0.77595 0.69082 0.0
H262 H 0.07159 0.81653 0.76721 0.0
H263 H 0.09293 0.7609 0.58796 0.0
O264 O 0.96413 0.73693 0.70854 0.0
O265 O 0.97699 0.70423 0.57636 0.0
O266 O 0.02561 0.74341 0.55906 0.0
C267 C 1.00031 0.72236 0.51852 0.0
H268 H 0.87672 0.61125 0.72602 0.0
H269 H 0.13284 0.84805 0.7001 0.0
H270 H 0.09957 0.52495 0.50176 0.0
H271 H 0.19055 0.60742 0.5272 0.0
H272 H 0.19315 0.61361 0.34018 0.0
H273 H 0.16948 0.59584 0.17002 0.0
H274 H 0.07841 0.51344 0.14433 0.0
H275 H 0.07583 0.50722 0.33142 0.0
C276 C 0.1201 0.54418 0.4664 0.0
C277 C 0.14488 0.56563 0.52828 0.0
C278 C 0.12127 0.54778 0.35901 0.0
C279 C 0.17118 0.59053 0.4813 0.0
C280 C 0.17264 0.59416 0.37439 0.0
C281 C 0.14893 0.57661 0.20529 0.0
C282 C 0.12414 0.55519 0.14333 0.0
C283 C 0.14774 0.57301 0.31264 0.0
C284 C 0.0978 0.5303 0.19029 0.0
C285 C 0.09635 0.52666 0.29721 0.0
H286 H 0.63708 0.52105 0.67538 0.0
H287 H 0.64397 0.60703 0.69392 0.0
H288 H 0.64582 0.61048 0.50556 0.0
H289 H 0.64546 0.58909 0.33682 0.0
H290 H 0.6383 0.50299 0.31834 0.0
H291 H 0.63667 0.49966 0.50665 0.0
C292 C 0.63892 0.54056 0.63846 0.0
C293 C 0.64035 0.56376 0.69877 0.0
C294 C 0.64 0.54239 0.53049 0.0
C295 C 0.64276 0.58885 0.64941 0.0
C296 C 0.64387 0.59084 0.54177 0.0
C297 C 0.64363 0.56958 0.37373 0.0
C298 C 0.64207 0.54631 0.31344 0.0
C299 C 0.64254 0.56776 0.48171 0.0
C300 C 0.63959 0.52121 0.36282 0.0
C301 C 0.63861 0.51928 0.47044 0.0
H302 H 0.67159 0.06998 0.88699 0.0
H303 H 0.67351 0.98798 0.91195 0.0
H304 H 0.67925 0.98686 0.72481 0.0
H305 H 0.68406 1.00928 0.55437 0.0
H306 H 0.68196 0.0912 0.52954 0.0
H307 H 0.67645 0.09241 0.71674 0.0
C308 C 0.67297 0.0517 0.85154 0.0
C309 C 0.67194 0.02901 0.91347 0.0
C310 C 0.67666 0.05137 0.74405 0.0
C311 C 0.67409 1.00567 0.86615 0.0
C312 C 0.67753 1.00508 0.75915 0.0
C313 C 0.68271 0.02756 0.58991 0.0
C314 C 0.68356 0.05018 0.52801 0.0
C315 C 0.67907 0.02791 0.69744 0.0
C316 C 0.68145 0.07354 0.57536 0.0
C317 C 0.67816 0.07419 0.68238 0.0
H318 H 0.91275 0.93521 0.87894 0.0
H319 H 0.82413 0.85066 0.85491 0.0
H320 H 0.82227 0.84459 0.04202 0.0
H321 H 0.84597 0.86306 0.21182 0.0
H322 H 0.93473 0.94751 0.23595 0.0
H323 H 0.93653 0.95362 0.04887 0.0
C324 C 0.89287 0.91556 0.91461 0.0
C325 C 0.86854 0.8935 0.85305 0.0
C326 C 0.89216 0.91202 0.02202 0.0
C327 C 0.84312 0.86804 0.90052 0.0
C328 C 0.8421 0.86448 0.00746 0.0
C329 C 0.86586 0.88272 0.17623 0.0
C330 C 0.89024 0.90474 0.23782 0.0
C331 C 0.86659 0.88624 0.06884 0.0
C332 C 0.9157 0.93017 0.19036 0.0
C333 C 0.91669 0.93375 0.08341 0.0
H334 H 0.36653 0.94038 0.7039 0.0
H335 H 0.36352 0.85614 0.67731 0.0
H336 H 0.36053 0.85093 0.86485 0.0
H337 H 0.35868 0.87021 0.03564 0.0
H338 H 0.36185 0.95452 0.06213 0.0
H339 H 0.36461 0.95962 0.87459 0.0
C340 C 0.36535 0.92092 0.73902 0.0
C341 C 0.36531 0.89871 0.67678 0.0
C342 C 0.36348 0.91798 0.84661 0.0
C343 C 0.36366 0.8736 0.72353 0.0
C344 C 0.36188 0.87056 0.8307 0.0
C345 C 0.35984 0.88966 0.00047 0.0
C346 C 0.36005 0.91194 0.06269 0.0
C347 C 0.36167 0.89257 0.89286 0.0
C348 C 0.36165 0.93704 0.01592 0.0
C349 C 0.3633 0.94001 0.90876 0.0
H350 H 0.33359 0.39189 0.5372 0.0
H351 H 0.33468 0.47525 0.51162 0.0
H352 H 0.3292 0.4767 0.69874 0.0
H353 H 0.32368 0.45416 0.86923 0.0
H354 H 0.32268 0.37083 0.89483 0.0
H355 H 0.32807 0.36934 0.70768 0.0
C356 C 0.33293 0.41052 0.57253 0.0
C357 C 0.3347 0.43349 0.51046 0.0
C358 C 0.32937 0.41104 0.68001 0.0
C359 C 0.33348 0.45732 0.55757 0.0
C360 C 0.3302 0.45811 0.66455 0.0
C361 C 0.32435 0.43552 0.83389 0.0
C362 C 0.32264 0.41258 0.89597 0.0
C363 C 0.32789 0.43499 0.72641 0.0
C364 C 0.32384 0.38874 0.84887 0.0
C365 C 0.32707 0.38793 0.74187 0.0
H366 H 0.45521 0.22697 0.39699 0.0
H367 H 0.54842 0.23133 0.42124 0.0
H368 H 0.55098 0.22731 0.23417 0.0
H369 H 0.52662 0.22216 0.06419 0.0
H370 H 0.43337 0.21773 0.03991 0.0
H371 H 0.43083 0.2218 0.22696 0.0
C372 C 0.47622 0.22728 0.36133 0.0
C373 C 0.50162 0.22954 0.42291 0.0
C374 C 0.47738 0.22461 0.25394 0.0
C375 C 0.52855 0.22967 0.37556 0.0
C376 C 0.52999 0.22726 0.26864 0.0
C377 C 0.50561 0.22185 0.09981 0.0
C378 C 0.48018 0.21955 0.03822 0.0
C379 C 0.50445 0.22452 0.2072 0.0
C380 C 0.45325 0.21941 0.08558 0.0
C381 C 0.45182 0.22185 0.19249 0.0
H382 H 0.03583 0.2408 0.34114 0.0
H383 H 0.93235 0.20806 0.36702 0.0
H384 H 0.92804 0.20551 0.17911 0.0
H385 H 0.9536 0.21249 0.00875 0.0
H386 H 0.05706 0.24512 -0.01718 0.0
H387 H 0.06136 0.24766 0.17074 0.0
C388 C 1.01229 0.23315 0.30588 0.0
C389 C 0.98442 0.22466 0.36803 0.0
C390 C 1.00999 0.23164 0.1982 0.0
C391 C 0.95416 0.21475 0.32096 0.0
C392 C 0.95168 0.21325 0.21361 0.0
C393 C 0.97714 0.22013 0.04399 0.0
C394 C 1.005 0.22862 -0.01816 0.0
C395 C 0.97943 0.2216 0.15167 0.0
C396 C 0.03525 0.23844 0.0289 0.0
C397 C 0.03773 0.23994 0.13625 0.0
H398 H 0.04354 0.76043 0.37728 0.0
H399 H 0.9506 0.6797 0.40519 0.0
H400 H 0.94505 0.67763 0.21779 0.0
H401 H 0.9664 0.69884 0.04694 0.0
H402 H 0.05933 0.77957 0.01903 0.0
H403 H 0.06488 0.78164 0.20643 0.0
C404 C 1.0221 0.74228 0.3425 0.0
C405 C 0.99754 0.72021 0.40513 0.0
C406 C 1.01896 0.74134 0.23502 0.0
C407 C 0.96989 0.69693 0.35873 0.0
C408 C 0.96666 0.69577 0.25165 0.0
C409 C 0.98783 0.71699 0.08172 0.0
C410 C 1.01239 0.73905 0.01908 0.0
C411 C 0.99098 0.71793 0.1892 0.0
C412 C 0.04004 0.76233 0.06548 0.0
C413 C 0.04327 0.76349 0.17257 0.0
H414 H 0.23913 0.47128 0.04778 0.0
H415 H 0.31966 0.56085 0.07277 0.0
H416 H 0.28835 0.57968 -0.01487 0.0
H417 H 0.23734 0.57121 0.90979 0.0
H418 H 0.15626 0.48188 0.88518 0.0
H419 H 0.18894 0.46245 0.96149 0.0
C420 C 0.25003 0.49486 0.03284 0.0
C421 C 0.28166 0.5146 0.06818 0.0
C422 C 0.23184 0.50562 -0.01803 0.0
C423 C 0.29518 0.54516 0.04871 0.0
C424 C 0.27736 0.55597 -0.00224 0.0
C425 C 0.22688 0.54743 0.91968 0.0
C426 C 0.19433 0.52807 0.89209 0.0
C427 C 0.24555 0.53646 0.96534 0.0
C428 C 0.18125 0.49733 0.90569 0.0
C429 C 0.19987 0.48619 0.94988 0.0
H430 H 0.70347 0.71655 0.08246 0.0
H431 H 0.66296 0.65089 0.32448 0.0
H432 H 0.69444 0.68859 0.45313 0.0
H433 H 0.73591 0.73926 0.49499 0.0
H434 H 0.78029 0.80456 0.25176 0.0
H435 H 0.74444 0.76837 0.12625 0.0
C436 C 0.70125 0.71079 0.16364 0.0
C437 C 0.68103 0.68112 0.19442 0.0
C438 C 0.72021 0.7325 0.23686 0.0
C439 C 0.67856 0.67363 0.29946 0.0
C440 C 0.69654 0.69515 0.37281 0.0
C441 C 0.73799 0.74569 0.41465 0.0
C442 C 0.7612 0.77471 0.3837 0.0
C443 C 0.71797 0.72451 0.34212 0.0
C444 C 0.76268 0.78258 0.27895 0.0
C445 C 0.74226 0.76177 0.20652 0.0
H446 H 0.57386 0.02125 0.29455 0.0
H447 H 0.5804 0.94187 0.25718 0.0
H448 H 0.52125 0.91131 0.2866 0.0
H449 H 0.46706 0.90762 0.31945 0.0
H450 H 0.46394 0.98889 0.35873 0.0
H451 H 0.52215 0.01791 0.33202 0.0
C452 C 0.56252 0.99724 0.2926 0.0
C453 C 0.58158 0.98393 0.27282 0.0
C454 C 0.52888 0.98002 0.30995 0.0
C455 C 0.56631 0.95274 0.27204 0.0
C456 C 0.53246 0.93527 0.28872 0.0
C457 C 0.4792 0.93165 0.32252 0.0
C458 C 0.46077 0.94585 0.34068 0.0
C459 C 0.51337 0.9487 0.30728 0.0
C460 C 0.47709 0.9771 0.34466 0.0
C461 C 0.51058 0.99391 0.32932 0.0
H462 H 0.67202 0.17381 0.07293 0.0
H463 H 0.58397 0.0887 0.07275 0.0
H464 H 0.55735 0.10899 0.96486 0.0
H465 H 0.55942 0.15139 0.87189 0.0
H466 H 0.64832 0.23597 0.87056 0.0
H467 H 0.6745 0.21551 -0.0221 0.0
C468 C 0.64691 0.15982 0.05003 0.0
C469 C 0.62979 0.12996 0.08136 0.0
C470 C 0.63207 0.17154 -0.01242 0.0
C471 C 0.59755 0.11177 0.04913 0.0
C472 C 0.58237 0.12338 -0.01211 0.0
C473 C 0.58445 0.16527 0.89566 0.0
C474 C 0.60194 0.1951 0.86359 0.0
C475 C 0.5994 0.15328 0.95689 0.0
C476 C 0.63453 0.21285 0.89338 0.0
C477 C 0.64943 0.20123 0.9552 0.0
H478 H 0.06227 0.33314 0.69894 0.0
H479 H 0.95783 0.29559 0.69683 0.0
H480 H 0.96415 0.34447 0.72672 0.0
H481 H 0.99904 0.39794 0.75799 0.0
H482 H 0.10339 0.4356 0.76367 0.0
H483 H 0.09733 0.38709 0.72687 0.0
C484 C 0.0409 0.33567 0.7043 0.0
C485 C 1.00961 0.3105 0.69573 0.0
C486 C 0.04463 0.36404 0.72225 0.0
C487 C 0.98225 0.31438 0.70323 0.0
C488 C 0.9858 0.34242 0.7205 0.0
C489 C 1.02047 0.39558 0.75154 0.0
C490 C 0.05162 0.42068 0.76351 0.0
C491 C 1.01683 0.3674 0.73112 0.0
C492 C 0.07909 0.41701 0.75343 0.0
C493 C 0.07565 0.3891 0.73302 0.0
H494 H 0.84343 0.60207 0.88435 0.0
H495 H 0.85821 0.68792 0.79744 0.0
H496 H 0.80352 0.67407 0.86191 0.0
H497 H 0.74967 0.63571 0.93179 0.0
H498 H 0.73649 0.55012 0.01859 0.0
H499 H 0.79216 0.56574 0.96637 0.0
C500 C 0.83465 0.61772 0.87965 0.0
C501 C 0.85462 0.64578 0.83515 0.0
C502 C 0.80335 0.60963 0.917 0.0
C503 C 0.84326 0.66615 0.83156 0.0
C504 C 0.81195 0.65819 0.86806 0.0
C505 C 0.75921 0.62072 0.94089 0.0
C506 C 0.7387 0.59167 -0.02183 0.0
C507 C 0.79152 0.62977 0.90965 0.0
C508 C 0.75151 0.5725 -0.01076 0.0
C509 C 0.78341 0.58136 0.95917 0.0
H510 H 1.00072 0.6338 0.7544 0.0
H511 H 0.09349 0.71501 0.73101 0.0
H512 H 0.12188 0.68751 0.75559 0.0
H513 H 0.1213 0.64127 0.78516 0.0
H514 H 0.03014 0.55881 0.80623 0.0
H515 H 1.00038 0.58589 0.78095 0.0
C516 C 0.02712 0.64542 0.75448 0.0
C517 C 0.04478 0.67661 0.74104 0.0
C518 C 0.0437 0.62928 0.76842 0.0
C519 C 0.07906 0.69117 0.74116 0.0
C520 C 0.09546 0.67544 0.75535 0.0
C521 C 0.09487 0.629 0.78457 0.0
C522 C 0.07805 0.59795 0.79833 0.0
C523 C 0.07811 0.64461 0.7694 0.0
C524 C 0.04379 0.58268 0.79605 0.0
C525 C 0.02678 0.59821 0.78164 0.0
H526 H 0.63373 0.40723 0.89131 0.0
H527 H 0.55125 0.42106 0.91418 0.0
H528 H 0.51508 0.36984 0.86029 0.0
H529 H 0.50732 0.32136 0.80147 0.0
H530 H 0.59135 0.30978 0.7717 0.0
H531 H 0.62656 0.3603 0.82973 0.0
C532 C 0.60792 0.39927 0.88358 0.0
C533 C 0.59542 0.41818 0.90602 0.0
C534 C 0.58753 0.37025 0.84971 0.0
C535 C 0.56165 0.40702 0.8984 0.0
C536 C 0.54095 0.37779 0.86646 0.0
C537 C 0.53337 0.33002 0.80676 0.0
C538 C 0.54662 0.31177 0.78208 0.0
C539 C 0.55371 0.35928 0.84075 0.0
C540 C 0.58042 0.32327 0.79008 0.0
C541 C 0.60064 0.35216 0.82372 0.0
H542 H 0.86408 0.13493 0.90287 0.0
H543 H 0.8319 0.1985 0.8569 0.0
H544 H 0.7888 0.17304 -0.01467 0.0
H545 H 0.75807 0.1312 0.10154 0.0
H546 H 0.78761 0.06559 0.14326 0.0
H547 H 0.83462 0.09396 0.02859 0.0
C548 C 0.84784 0.14335 0.92186 0.0
C549 C 0.85102 0.16841 0.86917 0.0
C550 C 0.82282 0.1284 -0.00428 0.0
C551 C 0.82962 0.17893 0.89433 0.0
C552 C 0.80511 0.16453 0.96855 0.0
C553 C 0.77507 0.12328 0.0874 0.0
C554 C 0.76923 0.09623 0.1311 0.0
C555 C 0.8012 0.13903 0.01854 0.0
C556 C 0.79153 0.08636 0.11103 0.0
C557 C 0.81827 0.10246 0.04469 0.0
H558 H 0.71415 0.92291 0.39758 0.0
H559 H 0.78657 1.00856 0.28136 0.0
H560 H 0.83005 1.00141 0.35191 0.0
H561 H 0.84743 0.96903 0.43832 0.0
H562 H 0.77373 0.88355 0.55494 0.0
H563 H 0.73102 0.89253 0.49412 0.0
C564 C 0.73947 0.93991 0.38757 0.0
C565 C 0.74722 0.966 0.33351 0.0
C566 C 0.76417 0.93575 0.42903 0.0
C567 C 0.78008 0.98825 0.32288 0.0
C568 C 0.80491 0.98415 0.36306 0.0
C569 C 0.82203 0.9527 0.45203 0.0
C570 C 0.81384 0.92559 0.50033 0.0
C571 C 0.79728 0.95782 0.41557 0.0
C572 C 0.78077 0.90453 0.51714 0.0
C573 C 0.75623 0.90955 0.48208 0.0
H574 H 0.31175 0.79405 0.09633 0.0
H575 H 0.30481 0.74187 0.36348 0.0
H576 H 0.26916 0.69615 0.26975 0.0
H577 H 0.2412 0.67095 0.10855 0.0
H578 H 0.25122 0.72358 0.83991 0.0
H579 H 0.28385 0.76925 0.93737 0.0
C580 C 0.30217 0.77268 0.13426 0.0
C581 C 0.31085 0.77133 0.23666 0.0
C582 C 0.2821 0.7466 0.07954 0.0
C583 C 0.29874 0.74345 0.28434 0.0
C584 C 0.27821 0.71734 0.23098 0.0
C585 C 0.25021 0.6925 0.07244 0.0
C586 C 0.24377 0.69412 0.96779 0.0
C587 C 0.26984 0.71862 0.12828 0.0
C588 C 0.25598 0.72202 0.92053 0.0
C589 C 0.27464 0.74803 -0.02392 0.0
H590 H 0.5385 0.55141 0.07971 0.0
H591 H 0.5383 0.47096 -0.0071 0.0
H592 H 0.4807 0.44182 0.0339 0.0
H593 H 0.4305 0.43824 0.09939 0.0
H594 H 0.42806 0.5176 0.18076 0.0
H595 H 0.48623 0.54788 0.13713 0.0
C596 C 0.52576 0.52756 0.06883 0.0
C597 C 0.54307 0.51354 0.03397 0.0
C598 C 0.49208 0.51057 0.09247 0.0
C599 C 0.52597 0.48253 0.0203 0.0
C600 C 0.49286 0.46568 0.04389 0.0
C601 C 0.44265 0.46217 0.10804 0.0
C602 C 0.42501 0.47557 0.14456 0.0
C603 C 0.47578 0.47936 0.08127 0.0
C604 C 0.4411 0.50668 0.15331 0.0
C605 C 0.47437 0.524 0.12827 0.0
H606 H 1.01124 0.82509 0.65418 0.0
H607 H 0.91733 0.74636 0.70144 0.0
H608 H 0.89027 0.7747 0.66841 0.0
H609 H 0.89238 0.8206 0.62244 0.0
H610 H 0.98463 0.90077 0.57596 0.0
H611 H 1.0132 0.87309 0.61295 0.0
C612 C 0.98487 0.81422 0.65774 0.0
C613 C 0.96643 0.78345 0.67991 0.0
C614 C 0.96913 0.83081 0.63846 0.0
C615 C 0.93227 0.76983 0.68436 0.0
C616 C 0.91667 0.78604 0.66535 0.0
C617 C 0.91881 0.83226 0.61978 0.0
C618 C 0.9363 0.86276 0.59498 0.0
C619 C 0.93478 0.81636 0.64148 0.0
C620 C 0.97053 0.87732 0.59424 0.0
C621 C 0.98681 0.86144 0.61532 0.0
H622 H 0.47819 0.12964 0.67469 0.0
H623 H 0.39147 0.13731 0.66705 0.0
H624 H 0.36106 0.08782 0.59247 0.0
H625 H 0.36017 0.04406 0.51738 0.0
H626 H 0.44704 0.03684 0.5206 0.0
H627 H 0.47627 0.08438 0.61001 0.0
C628 C 0.45252 0.12034 0.65813 0.0
C629 C 0.43722 0.13728 0.67569 0.0
C630 C 0.43529 0.09207 0.61365 0.0
C631 C 0.40391 0.12483 0.65394 0.0
C632 C 0.38651 0.09657 0.61085 0.0
C633 C 0.38551 0.05294 0.53747 0.0
C634 C 0.40153 0.03715 0.51137 0.0
C635 C 0.40216 0.08032 0.58807 0.0
C636 C 0.43415 0.04855 0.54016 0.0
C637 C 0.4509 0.07577 0.59083 0.0
H638 H 0.13279 0.32536 0.48057 0.0
H639 H 0.15779 0.25617 0.49526 0.0
H640 H 0.20523 0.2851 0.38477 0.0
H641 H 0.24165 0.33103 0.29423 0.0
H642 H 0.21952 0.40213 0.28356 0.0
H643 H 0.16863 0.37129 0.37965 0.0
C644 C 0.14847 0.31657 0.45844 0.0
C645 C 0.14194 0.28875 0.49737 0.0
C646 C 0.17619 0.33363 0.39534 0.0
C647 C 0.16257 0.2777 0.4683 0.0
C648 C 0.18963 0.29417 0.4045 0.0
C649 C 0.22557 0.33979 0.3114 0.0
C650 C 0.23458 0.36899 0.28164 0.0
C651 C 0.19699 0.32234 0.3691 0.0
C652 C 0.21325 0.37975 0.30506 0.0
C653 C 0.18422 0.36217 0.36073 0.0
H654 H 0.42851 0.30018 0.58228 0.0
H655 H 0.33623 0.21861 0.57944 0.0
H656 H 0.31399 0.24118 0.46479 0.0
H657 H 0.32105 0.28378 0.36304 0.0
H658 H 0.41285 0.36566 0.3666 0.0
H659 H 0.43519 0.34334 0.48313 0.0
C660 C 0.40359 0.28737 0.55615 0.0
C661 C 0.38408 0.25776 0.58907 0.0
C662 C 0.39097 0.30051 0.49023 0.0
C663 C 0.35163 0.24153 0.55614 0.0
C664 C 0.33897 0.25435 0.49 0.0
C665 C 0.34604 0.29661 0.38859 0.0
C666 C 0.36543 0.32618 0.35562 0.0
C667 C 0.35848 0.28373 0.45608 0.0
C668 C 0.39751 0.34286 0.39129 0.0
C669 C 0.41026 0.33009 0.45757 0.0
H670 H 0.92605 0.03338 0.66051 0.0
H671 H 1.02042 0.06087 0.52283 0.0
H672 H 0.03544 0.11255 0.54268 0.0
H673 H 1.02188 0.15083 0.59564 0.0
H674 H 0.92672 0.12341 0.72567 0.0
H675 H 0.9122 0.07145 0.71134 0.0
C676 C 0.94983 0.05051 0.63408 0.0
C677 C 0.97193 0.04259 0.5908 0.0
C678 C 0.95838 0.08064 0.6442 0.0
C679 C 1.0028 0.06567 0.55817 0.0
C680 C 1.0115 0.09554 0.56886 0.0
C681 C 0.99805 0.1335 0.62139 0.0
C682 C 0.97554 0.14125 0.6618 0.0
C683 C 0.98954 0.10338 0.61168 0.0
C684 C 0.94463 0.11831 0.69397 0.0
C685 C 0.93622 0.08845 0.68582 0.0
H686 H 0.16343 0.85895 0.53577 0.0
H687 H 0.15063 0.77253 0.60195 0.0
H688 H 0.20396 0.78722 0.52384 0.0
H689 H 0.25617 0.82628 0.44845 0.0
H690 H 0.26785 0.91261 0.38346 0.0
H691 H 0.21309 0.89626 0.44828 0.0
C692 C 0.17238 0.84338 0.53301 0.0
C693 C 0.15341 0.8149 0.5756 0.0
C694 C 0.20289 0.85196 0.48801 0.0
C695 C 0.16486 0.79462 0.5695 0.0
C696 C 0.19537 0.80304 0.52519 0.0
C697 C 0.24648 0.8413 0.44683 0.0
C698 C 0.26626 0.87071 0.41204 0.0
C699 C 0.21486 0.83186 0.48554 0.0
C700 C 0.25332 0.88993 0.4106 0.0
C701 C 0.22199 0.88065 0.44797 0.0
loop_
_geom_bond_atom_site_label_1
_geom_bond_atom_site_label_2
_geom_bond_distance
_geom_bond_site_symmetry_2
_ccdc_geom_bond_type
Co0 N5 2.057 . S
Co0 O17 2.021 1_554 S
Co0 O20 2.062 . S
Co0 O24 2.117 . S
Co0 O25 2.020 . S
C1 O21 1.259 . S
C1 O24 1.258 . S
Co2 N11 2.057 1_554 S
Co2 O18 2.117 1_554 S
Co2 O19 2.020 . S
Co2 O21 2.021 . S
Co2 O26 2.062 . S
C3 N5 1.316 . S
C3 N6 1.347 . S
C3 H8 0.931 1_554 S
C4 N5 1.375 . S
C4 C7 1.350 . S
C4 H9 0.930 . S
N5 Co0 2.057 . S
N5 C3 1.316 . S
N5 C4 1.375 . S
N6 C3 1.347 . S
N6 C7 1.373 . S
C7 C4 1.350 . S
C7 N6 1.373 . S
C7 H28 0.931 . S
H8 C3 0.931 1_556 S
H9 C4 0.930 . S
C10 O17 1.259 . S
C10 O18 1.258 . S
N11 Co2 2.057 1_556 S
N11 C12 1.316 1_556 S
N11 C13 1.375 . S
C12 N11 1.316 1_554 S
C12 N14 1.347 1_554 S
C12 H23 0.931 . S
C13 N11 1.375 . S
C13 C15 1.350 . S
C13 H22 0.930 . S
N14 C12 1.347 1_556 S
N14 C15 1.373 . S
C15 C13 1.350 . S
C15 N14 1.373 . S
C15 H29 0.931 . S
C16 O19 1.256 . S
C16 O20 1.255 . S
O17 Co0 2.021 1_556 S
O17 C10 1.259 . S
O18 Co2 2.117 1_556 S
O18 C10 1.258 . S
O19 Co2 2.020 . S
O19 C16 1.256 . S
O20 Co0 2.062 . S
O20 C16 1.255 . S
O21 C1 1.259 . S
O21 Co2 2.021 . S
H22 C13 0.930 . S
H23 C12 0.931 . S
O24 Co0 2.117 . S
O24 C1 1.258 . S
O25 Co0 2.020 . S
O25 C27 1.256 . S
O26 Co2 2.062 . S
O26 C27 1.255 . S
C27 O25 1.256 . S
C27 O26 1.255 . S
H28 C7 0.931 . S
H29 C15 0.931 . S
Co30 N35 2.057 . S
Co30 O47 2.021 . S
Co30 O50 2.062 . S
Co30 O54 2.117 1_554 S
Co30 O55 2.020 . S
C31 O51 1.259 . S
C31 O54 1.258 . S
Co32 N41 2.057 . S
Co32 O48 2.117 . S
Co32 O49 2.020 . S
Co32 O51 2.021 1_554 S
Co32 O56 2.062 . S
C33 N35 1.316 . S
C33 N36 1.347 . S
C33 H38 0.931 . S
C34 N35 1.375 1_556 S
C34 C37 1.350 . S
C34 H39 0.930 . S
N35 Co30 2.057 . S
N35 C33 1.316 . S
N35 C34 1.375 1_554 S
N36 C33 1.347 . S
N36 C37 1.373 1_554 S
C37 C34 1.350 . S
C37 N36 1.373 1_556 S
C37 H58 0.931 . S
H38 C33 0.931 . S
H39 C34 0.930 . S
C40 O47 1.259 . S
C40 O48 1.258 . S
N41 Co32 2.057 . S
N41 C42 1.316 . S
N41 C43 1.375 . S
C42 N41 1.316 . S
C42 N44 1.347 . S
C42 H53 0.931 . S
C43 N41 1.375 . S
C43 C45 1.350 . S
C43 H52 0.930 . S
N44 C42 1.347 . S
N44 C45 1.373 . S
C45 C43 1.350 . S
C45 N44 1.373 . S
C45 H59 0.931 . S
C46 O49 1.256 . S
C46 O50 1.255 . S
O47 Co30 2.021 . S
O47 C40 1.259 . S
O48 Co32 2.117 . S
O48 C40 1.258 . S
O49 Co32 2.020 . S
O49 C46 1.256 . S
O50 Co30 2.062 . S
O50 C46 1.255 . S
O51 C31 1.259 . S
O51 Co32 2.021 1_556 S
H52 C43 0.930 . S
H53 C42 0.931 . S
O54 Co30 2.117 1_556 S
O54 C31 1.258 . S
O55 Co30 2.020 . S
O55 C57 1.256 . S
O56 Co32 2.062 . S
O56 C57 1.255 . S
C57 O55 1.256 . S
C57 O56 1.255 . S
H58 C37 0.931 . S
H59 C45 0.931 . S
Co60 N65 2.057 1_545 S
Co60 O77 2.018 1_545 S
Co60 O80 2.062 . S
Co60 O84 2.117 . S
Co60 O85 2.020 1_545 S
C61 O81 1.259 . S
C61 O84 1.258 . S
Co62 N71 2.057 . S
Co62 O78 2.117 . S
Co62 O79 2.020 . S
Co62 O81 2.021 . S
Co62 O86 2.062 . S
C63 N65 1.316 . S
C63 N66 1.347 . S
C63 H68 0.931 . S
C64 N65 1.375 . S
C64 C67 1.350 . S
C64 H69 0.930 . S
N65 Co60 2.057 1_565 S
N65 C63 1.316 . S
N65 C64 1.375 . S
N66 C63 1.347 . S
N66 C67 1.373 . S
C67 C64 1.350 . S
C67 N66 1.373 . S
C67 H88 0.931 . S
H68 C63 0.931 . S
H69 C64 0.930 . S
C70 O77 1.239 1_546 S
C70 O78 1.258 1_556 S
N71 Co62 2.057 . S
N71 C72 1.316 . S
N71 C73 1.375 . S
C72 N71 1.316 . S
C72 N74 1.347 . S
C72 H83 0.931 . S
C73 N71 1.375 . S
C73 C75 1.350 . S
C73 H82 0.930 1_554 S
N74 C72 1.347 . S
N74 C75 1.373 . S
C75 C73 1.350 . S
C75 N74 1.373 . S
C75 H89 0.931 1_554 S
C76 O79 1.256 . S
C76 O80 1.255 . S
O77 Co60 2.018 1_565 S
O77 C70 1.239 1_564 S
O78 Co62 2.117 . S
O78 C70 1.258 1_554 S
O79 Co62 2.020 . S
O79 C76 1.256 . S
O80 Co60 2.062 . S
O80 C76 1.255 . S
O81 C61 1.259 . S
O81 Co62 2.021 . S
H82 C73 0.930 1_556 S
H83 C72 0.931 . S
O84 Co60 2.117 . S
O84 C61 1.258 . S
O85 Co60 2.020 1_565 S
O85 C87 1.256 . S
O86 Co62 2.062 . S
O86 C87 1.255 1_545 S
C87 O85 1.256 . S
C87 O86 1.255 1_565 S
H88 C67 0.931 . S
H89 C75 0.931 1_556 S
Co90 N95 2.057 . S
Co90 O107 2.021 . S
Co90 O110 2.062 . S
Co90 O114 2.117 . S
Co90 O115 2.020 . S
C91 O111 1.259 . S
C91 O114 1.258 . S
Co92 N101 2.057 . S
Co92 O108 2.117 . S
Co92 O109 2.020 . S
Co92 O111 2.021 . S
Co92 O116 2.062 . S
C93 N95 1.316 . S
C93 N96 1.347 1_565 S
C93 H98 0.931 . S
C94 N95 1.375 . S
C94 C97 1.350 1_565 S
C94 H99 0.930 . S
N95 Co90 2.057 . S
N95 C93 1.316 . S
N95 C94 1.375 . S
N96 C93 1.347 1_545 S
N96 C97 1.373 . S
C97 C94 1.350 1_545 S
C97 N96 1.373 . S
C97 H118 0.931 . S
H98 C93 0.931 . S
H99 C94 0.930 . S
C100 O107 1.259 . S
C100 O108 1.258 . S
N101 Co92 2.057 . S
N101 C102 1.316 . S
N101 C103 1.375 . S
C102 N101 1.316 . S
C102 N104 1.347 . S
C102 H113 0.931 . S
C103 N101 1.375 . S
C103 C105 1.350 . S
C103 H112 0.930 . S
N104 C102 1.347 . S
N104 C105 1.373 . S
C105 C103 1.350 . S
C105 N104 1.373 . S
C105 H119 0.931 . S
C106 O109 1.256 . S
C106 O110 1.255 . S
O107 Co90 2.021 . S
O107 C100 1.259 . S
O108 Co92 2.117 . S
O108 C100 1.258 . S
O109 Co92 2.020 . S
O109 C106 1.256 . S
O110 Co90 2.062 . S
O110 C106 1.255 . S
O111 C91 1.259 . S
O111 Co92 2.021 . S
H112 C103 0.930 . S
H113 C102 0.931 . S
O114 Co90 2.117 . S
O114 C91 1.258 . S
O115 Co90 2.020 . S
O115 C117 1.256 . S
O116 Co92 2.062 . S
O116 C117 1.255 . S
C117 O115 1.256 . S
C117 O116 1.255 . S
H118 C97 0.931 . S
H119 C105 0.931 . S
Co120 N125 2.057 . S
Co120 O137 2.021 . S
Co120 O140 2.062 . S
Co120 O144 2.117 . S
Co120 O145 2.020 . S
C121 O141 1.259 . S
C121 O144 1.258 . S
Co122 N131 2.057 . S
Co122 O138 2.117 . S
Co122 O139 2.020 . S
Co122 O141 2.021 . S
Co122 O146 2.062 . S
C123 N125 1.316 . S
C123 N126 1.347 . S
C123 H128 0.931 . S
C124 N125 1.375 . S
C124 C127 1.350 . S
C124 H129 0.930 . S
N125 Co120 2.057 . S
N125 C123 1.316 . S
N125 C124 1.375 . S
N126 C123 1.347 . S
N126 C127 1.373 . S
C127 C124 1.350 . S
C127 N126 1.373 . S
C127 H148 0.931 . S
H128 C123 0.931 . S
H129 C124 0.930 . S
C130 O137 1.259 . S
C130 O138 1.258 . S
N131 Co122 2.057 . S
N131 C132 1.316 1_565 S
N131 C133 1.375 . S
C132 N131 1.316 1_545 S
C132 N134 1.347 . S
C132 H143 0.931 . S
C133 N131 1.375 . S
C133 C135 1.350 1_565 S
C133 H142 0.930 . S
N134 C132 1.347 . S
N134 C135 1.373 . S
C135 C133 1.350 1_545 S
C135 N134 1.373 . S
C135 H149 0.931 . S
C136 O139 1.256 . S
C136 O140 1.255 . S
O137 Co120 2.021 . S
O137 C130 1.259 . S
O138 Co122 2.117 . S
O138 C130 1.258 . S
O139 Co122 2.020 . S
O139 C136 1.256 . S
O140 Co120 2.062 . S
O140 C136 1.255 . S
O141 C121 1.259 . S
O141 Co122 2.021 . S
H142 C133 0.930 . S
H143 C132 0.931 . S
O144 Co120 2.117 . S
O144 C121 1.258 . S
O145 Co120 2.020 . S
O145 C147 1.256 . S
O146 Co122 2.062 . S
O146 C147 1.255 . S
C147 O145 1.256 . S
C147 O146 1.255 . S
H148 C127 0.931 . S
H149 C135 0.931 . S
Co150 N155 2.057 . S
Co150 O167 2.021 . S
Co150 O170 2.062 . S
Co150 O174 2.117 . S
Co150 O175 2.020 . S
C151 O171 1.259 . S
C151 O174 1.258 . S
Co152 N161 2.057 . S
Co152 O168 2.117 . S
Co152 O169 2.020 . S
Co152 O171 2.021 . S
Co152 O176 2.062 . S
C153 N155 1.316 . S
C153 N156 1.347 . S
C153 H158 0.931 . S
C154 N155 1.375 . S
C154 C157 1.350 . S
C154 H159 0.930 . S
N155 Co150 2.057 . S
N155 C153 1.316 . S
N155 C154 1.375 . S
N156 C153 1.347 . S
N156 C157 1.373 . S
C157 C154 1.350 . S
C157 N156 1.373 . S
C157 H178 0.931 . S
H158 C153 0.931 . S
H159 C154 0.930 . S
C160 O167 1.259 . S
C160 O168 1.258 . S
N161 Co152 2.057 . S
N161 C162 1.316 . S
N161 C163 1.375 . S
C162 N161 1.316 . S
C162 N164 1.347 . S
C162 H173 0.931 . S
C163 N161 1.375 . S
C163 C165 1.350 . S
C163 H172 0.930 . S
N164 C162 1.347 . S
N164 C165 1.373 . S
C165 C163 1.350 . S
C165 N164 1.373 . S
C165 H179 0.931 . S
C166 O169 1.256 . S
C166 O170 1.255 . S
O167 Co150 2.021 . S
O167 C160 1.259 . S
O168 Co152 2.117 . S
O168 C160 1.258 . S
O169 Co152 2.020 . S
O169 C166 1.256 . S
O170 Co150 2.062 . S
O170 C166 1.255 . S
O171 C151 1.259 . S
O171 Co152 2.021 . S
H172 C163 0.930 . S
H173 C162 0.931 . S
O174 Co150 2.117 . S
O174 C151 1.258 . S
O175 Co150 2.020 . S
O175 C177 1.256 . S
O176 Co152 2.062 . S
O176 C177 1.255 . S
C177 O175 1.256 . S
C177 O176 1.255 . S
H178 C157 0.931 . S
H179 C165 0.931 . S
Co180 N185 2.057 . S
Co180 O197 2.021 . S
Co180 O200 2.062 . S
Co180 O204 2.117 . S
Co180 O205 2.020 . S
C181 O201 1.259 . S
C181 O204 1.258 . S
Co182 N191 2.057 . S
Co182 O198 2.117 . S
Co182 O199 2.020 . S
Co182 O201 2.021 . S
Co182 O206 2.062 . S
C183 N185 1.316 . S
C183 N186 1.347 . S
C183 H188 0.931 . S
C184 N185 1.375 . S
C184 C187 1.350 . S
C184 H189 0.930 . S
N185 Co180 2.057 . S
N185 C183 1.316 . S
N185 C184 1.375 . S
N186 C183 1.347 . S
N186 C187 1.373 . S
C187 C184 1.350 . S
C187 N186 1.373 . S
C187 H208 0.931 . S
H188 C183 0.931 . S
H189 C184 0.930 . S
C190 O197 1.259 . S
C190 O198 1.258 . S
N191 Co182 2.057 . S
N191 C192 1.316 . S
N191 C193 1.375 . S
C192 N191 1.316 . S
C192 N194 1.347 . S
C192 H203 0.931 . S
C193 N191 1.375 . S
C193 C195 1.350 . S
C193 H202 0.930 . S
N194 C192 1.347 . S
N194 C195 1.373 . S
C195 C193 1.350 . S
C195 N194 1.373 . S
C195 H209 0.931 . S
C196 O199 1.256 . S
C196 O200 1.255 . S
O197 Co180 2.021 . S
O197 C190 1.259 . S
O198 Co182 2.117 . S
O198 C190 1.258 . S
O199 Co182 2.020 . S
O199 C196 1.256 . S
O200 Co180 2.062 . S
O200 C196 1.255 . S
O201 C181 1.259 . S
O201 Co182 2.021 . S
H202 C193 0.930 . S
H203 C192 0.931 . S
O204 Co180 2.117 . S
O204 C181 1.258 . S
O205 Co180 2.020 . S
O205 C207 1.256 . S
O206 Co182 2.062 . S
O206 C207 1.255 . S
C207 O205 1.256 . S
C207 O206 1.255 . S
H208 C187 0.931 . S
H209 C195 0.931 . S
Co210 N215 2.057 . S
Co210 O227 2.021 . S
Co210 O230 2.062 1_455 S
Co210 O234 2.117 . S
Co210 O235 2.020 . S
C211 O231 1.259 . S
C211 O234 1.258 1_655 S
Co212 N221 2.057 . S
Co212 O228 2.117 . S
Co212 O229 2.020 . S
Co212 O231 2.021 . S
Co212 O236 2.062 . S
C213 N215 1.316 . S
C213 N216 1.347 . S
C213 H218 0.931 . S
C214 N215 1.375 . S
C214 C217 1.350 . S
C214 H219 0.930 . S
N215 Co210 2.057 . S
N215 C213 1.316 . S
N215 C214 1.375 . S
N216 C213 1.347 . S
N216 C217 1.373 . S
C217 C214 1.350 . S
C217 N216 1.373 . S
C217 H238 0.931 . S
H218 C213 0.931 . S
H219 C214 0.930 . S
C220 O227 1.259 1_655 S
C220 O228 1.258 . S
N221 Co212 2.057 . S
N221 C222 1.316 . S
N221 C223 1.375 . S
C222 N221 1.316 . S
C222 N224 1.347 . S
C222 H233 0.931 . S
C223 N221 1.375 . S
C223 C225 1.350 . S
C223 H232 0.930 . S
N224 C222 1.347 . S
N224 C225 1.373 . S
C225 C223 1.350 . S
C225 N224 1.373 . S
C225 H239 0.931 . S
C226 O229 1.256 . S
C226 O230 1.255 . S
O227 Co210 2.021 . S
O227 C220 1.259 1_455 S
O228 Co212 2.117 . S
O228 C220 1.258 . S
O229 Co212 2.020 . S
O229 C226 1.256 . S
O230 Co210 2.062 1_655 S
O230 C226 1.255 . S
O231 C211 1.259 . S
O231 Co212 2.021 . S
H232 C223 0.930 . S
H233 C222 0.931 . S
O234 Co210 2.117 . S
O234 C211 1.258 1_455 S
O235 Co210 2.020 . S
O235 C237 1.256 1_455 S
O236 Co212 2.062 . S
O236 C237 1.255 . S
C237 O235 1.256 1_655 S
C237 O236 1.255 . S
H238 C217 0.931 . S
H239 C225 0.931 . S
Co240 N245 2.057 . S
Co240 O257 2.021 . S
Co240 O260 2.062 . S
Co240 O264 2.117 . S
Co240 O265 2.020 . S
C241 O261 1.259 . S
C241 O264 1.258 . S
Co242 N251 2.057 . S
Co242 O258 2.117 . S
Co242 O259 2.020 . S
Co242 O261 2.021 1_455 S
Co242 O266 2.062 1_455 S
C243 N245 1.316 . S
C243 N246 1.347 . S
C243 H248 0.931 . S
C244 N245 1.375 . S
C244 C247 1.350 . S
C244 H249 0.930 . S
N245 Co240 2.057 . S
N245 C243 1.316 . S
N245 C244 1.375 . S
N246 C243 1.347 . S
N246 C247 1.373 . S
C247 C244 1.350 . S
C247 N246 1.373 . S
C247 H268 0.931 . S
H248 C243 0.931 . S
H249 C244 0.930 . S
C250 O257 1.259 . S
C250 O258 1.258 1_655 S
N251 Co242 2.057 . S
N251 C252 1.316 . S
N251 C253 1.375 . S
C252 N251 1.316 . S
C252 N254 1.347 . S
C252 H263 0.931 . S
C253 N251 1.375 . S
C253 C255 1.350 . S
C253 H262 0.930 . S
N254 C252 1.347 . S
N254 C255 1.373 . S
C255 C253 1.350 . S
C255 N254 1.373 . S
C255 H269 0.931 . S
C256 O259 1.256 1_655 S
C256 O260 1.255 . S
O257 Co240 2.021 . S
O257 C250 1.259 . S
O258 Co242 2.117 . S
O258 C250 1.258 1_455 S
O259 Co242 2.020 . S
O259 C256 1.256 1_455 S
O260 Co240 2.062 . S
O260 C256 1.255 . S
O261 C241 1.259 . S
O261 Co242 2.021 1_655 S
H262 C253 0.930 . S
H263 C252 0.931 . S
O264 Co240 2.117 . S
O264 C241 1.258 . S
O265 Co240 2.020 . S
O265 C267 1.256 . S
O266 Co242 2.062 1_655 S
O266 C267 1.255 . S
C267 O265 1.256 . S
C267 O266 1.255 . S
H268 C247 0.931 . S
H269 C255 0.931 . S
H270 C276 0.930 . S
H271 C279 0.930 . S
H272 C280 0.930 . S
H273 C281 0.930 . S
H274 C284 0.930 . S
H275 C285 0.930 . S
C276 H270 0.930 . S
C276 C277 1.355 . S
C276 C278 1.415 . S
C277 C276 1.355 . S
C277 C279 1.419 . S
C278 C276 1.415 . S
C278 C283 1.425 . S
C278 C285 1.409 . S
C279 H271 0.930 . S
C279 C277 1.419 . S
C279 C280 1.362 . S
C280 H272 0.930 . S
C280 C279 1.362 . S
C280 C283 1.409 . S
C281 H273 0.930 . S
C281 C282 1.355 . S
C281 C283 1.415 . S
C282 C281 1.355 . S
C282 C284 1.419 . S
C283 C278 1.425 . S
C283 C280 1.409 . S
C283 C281 1.415 . S
C284 H274 0.930 . S
C284 C282 1.419 . S
C284 C285 1.362 . S
C285 H275 0.930 . S
C285 C278 1.409 . S
C285 C284 1.362 . S
H286 C292 0.930 . S
H287 C295 0.930 . S
H288 C296 0.930 . S
H289 C297 0.930 . S
H290 C300 0.930 . S
H291 C301 0.930 . S
C292 H286 0.930 . S
C292 C293 1.355 . S
C292 C294 1.415 . S
C293 C292 1.355 . S
C293 C295 1.419 . S
C294 C292 1.415 . S
C294 C299 1.425 . S
C294 C301 1.409 . S
C295 H287 0.930 . S
C295 C293 1.419 . S
C295 C296 1.362 . S
C296 H288 0.930 . S
C296 C295 1.362 . S
C296 C299 1.409 . S
C297 H289 0.930 . S
C297 C298 1.355 . S
C297 C299 1.415 . S
C298 C297 1.355 . S
C298 C300 1.419 . S
C299 C294 1.425 . S
C299 C296 1.409 . S
C299 C297 1.415 . S
C300 H290 0.930 . S
C300 C298 1.419 . S
C300 C301 1.362 . S
C301 H291 0.930 . S
C301 C294 1.409 . S
C301 C300 1.362 . S
H302 C308 0.930 . S
H303 C311 0.930 . S
H304 C312 0.930 . S
H305 C313 0.930 . S
H306 C316 0.930 . S
H307 C317 0.930 . S
C308 H302 0.930 . S
C308 C309 1.355 . S
C308 C310 1.415 . S
C309 C308 1.355 . S
C309 C311 1.419 . S
C310 C308 1.415 . S
C310 C315 1.425 . S
C310 C317 1.409 . S
C311 H303 0.930 . S
C311 C309 1.419 . S
C311 C312 1.362 . S
C312 H304 0.930 . S
C312 C311 1.362 . S
C312 C315 1.409 . S
C313 H305 0.930 . S
C313 C314 1.355 . S
C313 C315 1.415 . S
C314 C313 1.355 . S
C314 C316 1.419 . S
C315 C310 1.425 . S
C315 C312 1.409 . S
C315 C313 1.415 . S
C316 H306 0.930 . S
C316 C314 1.419 . S
C316 C317 1.362 . S
C317 H307 0.930 . S
C317 C310 1.409 . S
C317 C316 1.362 . S
H318 C324 0.930 . S
H319 C327 0.930 . S
H320 C328 0.930 . S
H321 C329 0.930 . S
H322 C332 0.930 . S
H323 C333 0.930 . S
C324 H318 0.930 . S
C324 C325 1.355 . S
C324 C326 1.415 . S
C325 C324 1.355 . S
C325 C327 1.419 . S
C326 C324 1.415 . S
C326 C331 1.425 . S
C326 C333 1.409 . S
C327 H319 0.930 . S
C327 C325 1.419 . S
C327 C328 1.362 . S
C328 H320 0.930 . S
C328 C327 1.362 . S
C328 C331 1.409 . S
C329 H321 0.930 . S
C329 C330 1.355 . S
C329 C331 1.415 1_554 S
C330 C329 1.355 . S
C330 C332 1.419 . S
C331 C326 1.425 . S
C331 C328 1.409 . S
C331 C329 1.415 1_556 S
C332 H322 0.930 . S
C332 C330 1.419 . S
C332 C333 1.362 1_554 S
C333 H323 0.930 . S
C333 C326 1.409 . S
C333 C332 1.362 1_556 S
H334 C340 0.930 . S
H335 C343 0.930 . S
H336 C344 0.930 . S
H337 C345 0.930 1_554 S
H338 C348 0.930 1_554 S
H339 C349 0.930 . S
C340 H334 0.930 . S
C340 C341 1.355 . S
C340 C342 1.415 . S
C341 C340 1.355 . S
C341 C343 1.419 . S
C342 C340 1.415 . S
C342 C347 1.425 . S
C342 C349 1.409 . S
C343 H335 0.930 . S
C343 C341 1.419 . S
C343 C344 1.362 . S
C344 H336 0.930 . S
C344 C343 1.362 . S
C344 C347 1.409 . S
C345 H337 0.930 1_556 S
C345 C346 1.355 1_556 S
C345 C347 1.415 . S
C346 C345 1.355 1_554 S
C346 C348 1.419 1_554 S
C347 C342 1.425 . S
C347 C344 1.409 . S
C347 C345 1.415 . S
C348 H338 0.930 1_556 S
C348 C346 1.419 1_556 S
C348 C349 1.362 . S
C349 H339 0.930 . S
C349 C342 1.409 . S
C349 C348 1.362 . S
H350 C356 0.930 . S
H351 C359 0.930 . S
H352 C360 0.930 . S
H353 C361 0.930 . S
H354 C364 0.930 . S
H355 C365 0.930 . S
C356 H350 0.930 . S
C356 C357 1.355 . S
C356 C358 1.415 . S
C357 C356 1.355 . S
C357 C359 1.419 . S
C358 C356 1.415 . S
C358 C363 1.425 . S
C358 C365 1.409 . S
C359 H351 0.930 . S
C359 C357 1.419 . S
C359 C360 1.362 . S
C360 H352 0.930 . S
C360 C359 1.362 . S
C360 C363 1.409 . S
C361 H353 0.930 . S
C361 C362 1.355 . S
C361 C363 1.415 . S
C362 C361 1.355 . S
C362 C364 1.419 . S
C363 C358 1.425 . S
C363 C360 1.409 . S
C363 C361 1.415 . S
C364 H354 0.930 . S
C364 C362 1.419 . S
C364 C365 1.362 . S
C365 H355 0.930 . S
C365 C358 1.409 . S
C365 C364 1.362 . S
H366 C372 0.930 . S
H367 C375 0.930 . S
H368 C376 0.930 . S
H369 C377 0.930 . S
H370 C380 0.930 . S
H371 C381 0.930 . S
C372 H366 0.930 . S
C372 C373 1.355 . S
C372 C374 1.415 . S
C373 C372 1.355 . S
C373 C375 1.419 . S
C374 C372 1.415 . S
C374 C379 1.425 . S
C374 C381 1.409 . S
C375 H367 0.930 . S
C375 C373 1.419 . S
C375 C376 1.362 . S
C376 H368 0.930 . S
C376 C375 1.362 . S
C376 C379 1.409 . S
C377 H369 0.930 . S
C377 C378 1.355 . S
C377 C379 1.415 . S
C378 C377 1.355 . S
C378 C380 1.419 . S
C379 C374 1.425 . S
C379 C376 1.409 . S
C379 C377 1.415 . S
C380 H370 0.930 . S
C380 C378 1.419 . S
C380 C381 1.362 . S
C381 H371 0.930 . S
C381 C374 1.409 . S
C381 C380 1.362 . S
H382 C388 0.930 1_455 S
H383 C391 0.930 . S
H384 C392 0.930 . S
H385 C393 0.930 . S
H386 C396 0.930 . S
H387 C397 0.930 . S
C388 H382 0.930 1_655 S
C388 C389 1.355 . S
C388 C390 1.415 . S
C389 C388 1.355 . S
C389 C391 1.419 . S
C390 C388 1.415 . S
C390 C395 1.425 . S
C390 C397 1.409 1_655 S
C391 H383 0.930 . S
C391 C389 1.419 . S
C391 C392 1.362 . S
C392 H384 0.930 . S
C392 C391 1.362 . S
C392 C395 1.409 . S
C393 H385 0.930 . S
C393 C394 1.355 . S
C393 C395 1.415 . S
C394 C393 1.355 . S
C394 C396 1.419 1_655 S
C395 C390 1.425 . S
C395 C392 1.409 . S
C395 C393 1.415 . S
C396 H386 0.930 . S
C396 C394 1.419 1_455 S
C396 C397 1.362 . S
C397 H387 0.930 . S
C397 C390 1.409 1_455 S
C397 C396 1.362 . S
H398 C404 0.930 1_455 S
H399 C407 0.930 . S
H400 C408 0.930 . S
H401 C409 0.930 . S
H402 C412 0.930 . S
H403 C413 0.930 . S
C404 H398 0.930 1_655 S
C404 C405 1.355 . S
C404 C406 1.415 . S
C405 C404 1.355 . S
C405 C407 1.419 . S
C406 C404 1.415 . S
C406 C411 1.425 . S
C406 C413 1.409 1_655 S
C407 H399 0.930 . S
C407 C405 1.419 . S
C407 C408 1.362 . S
C408 H400 0.930 . S
C408 C407 1.362 . S
C408 C411 1.409 . S
C409 H401 0.930 . S
C409 C410 1.355 . S
C409 C411 1.415 . S
C410 C409 1.355 . S
C410 C412 1.419 1_655 S
C411 C406 1.425 . S
C411 C408 1.409 . S
C411 C409 1.415 . S
C412 H402 0.930 . S
C412 C410 1.419 1_455 S
C412 C413 1.362 . S
C413 H403 0.930 . S
C413 C406 1.409 1_455 S
C413 C412 1.362 . S
H414 C420 0.930 . S
H415 C423 0.930 . S
H416 C424 0.930 1_556 S
H417 C425 0.930 . S
H418 C428 0.930 . S
H419 C429 0.930 . S
C420 H414 0.930 . S
C420 C421 1.355 . S
C420 C422 1.415 . S
C421 C420 1.355 . S
C421 C423 1.419 . S
C422 C420 1.415 . S
C422 C427 1.425 . S
C422 C429 1.409 . S
C423 H415 0.930 . S
C423 C421 1.419 . S
C423 C424 1.362 . S
C424 H416 0.930 1_554 S
C424 C423 1.362 . S
C424 C427 1.409 . S
C425 H417 0.930 . S
C425 C426 1.355 . S
C425 C427 1.415 . S
C426 C425 1.355 . S
C426 C428 1.419 . S
C427 C422 1.425 . S
C427 C424 1.409 . S
C427 C425 1.415 . S
C428 H418 0.930 . S
C428 C426 1.419 . S
C428 C429 1.362 . S
C429 H419 0.930 . S
C429 C422 1.409 . S
C429 C428 1.362 . S
H430 C436 0.930 . S
H431 C439 0.930 . S
H432 C440 0.930 . S
H433 C441 0.930 . S
H434 C444 0.930 . S
H435 C445 0.930 . S
C436 H430 0.930 . S
C436 C437 1.355 . S
C436 C438 1.415 . S
C437 C436 1.355 . S
C437 C439 1.419 . S
C438 C436 1.415 . S
C438 C443 1.425 . S
C438 C445 1.409 . S
C439 H431 0.930 . S
C439 C437 1.419 . S
C439 C440 1.362 . S
C440 H432 0.930 . S
C440 C439 1.362 . S
C440 C443 1.409 . S
C441 H433 0.930 . S
C441 C442 1.355 . S
C441 C443 1.415 . S
C442 C441 1.355 . S
C442 C444 1.419 . S
C443 C438 1.425 . S
C443 C440 1.409 . S
C443 C441 1.415 . S
C444 H434 0.930 . S
C444 C442 1.419 . S
C444 C445 1.362 . S
C445 H435 0.930 . S
C445 C438 1.409 . S
C445 C444 1.362 . S
H446 C452 0.930 . S
H447 C455 0.930 . S
H448 C456 0.930 . S
H449 C457 0.930 . S
H450 C460 0.930 . S
H451 C461 0.930 . S
C452 H446 0.930 . S
C452 C453 1.355 . S
C452 C454 1.415 . S
C453 C452 1.355 . S
C453 C455 1.419 . S
C454 C452 1.415 . S
C454 C459 1.425 . S
C454 C461 1.409 . S
C455 H447 0.930 . S
C455 C453 1.419 . S
C455 C456 1.362 . S
C456 H448 0.930 . S
C456 C455 1.362 . S
C456 C459 1.409 . S
C457 H449 0.930 . S
C457 C458 1.355 . S
C457 C459 1.415 . S
C458 C457 1.355 . S
C458 C460 1.419 . S
C459 C454 1.425 . S
C459 C456 1.409 . S
C459 C457 1.415 . S
C460 H450 0.930 . S
C460 C458 1.419 . S
C460 C461 1.362 . S
C461 H451 0.930 . S
C461 C454 1.409 . S
C461 C460 1.362 . S
H462 C468 0.930 . S
H463 C471 0.930 . S
H464 C472 0.930 . S
H465 C473 0.930 . S
H466 C476 0.930 . S
H467 C477 0.930 . S
C468 H462 0.930 . S
C468 C469 1.355 . S
C468 C470 1.415 1_554 S
C469 C468 1.355 . S
C469 C471 1.419 . S
C470 C468 1.415 1_556 S
C470 C475 1.425 1_556 S
C470 C477 1.409 . S
C471 H463 0.930 . S
C471 C469 1.419 . S
C471 C472 1.362 . S
C472 H464 0.930 . S
C472 C471 1.362 . S
C472 C475 1.409 . S
C473 H465 0.930 . S
C473 C474 1.355 . S
C473 C475 1.415 1_556 S
C474 C473 1.355 . S
C474 C476 1.419 . S
C475 C470 1.425 1_554 S
C475 C472 1.409 . S
C475 C473 1.415 1_554 S
C476 H466 0.930 . S
C476 C474 1.419 . S
C476 C477 1.362 . S
C477 H467 0.930 . S
C477 C470 1.409 . S
C477 C476 1.362 . S
H478 C484 0.930 1_455 S
H479 C487 0.930 . S
H480 C488 0.930 1_554 S
H481 C489 0.930 1_554 S
H482 C492 0.930 . S
H483 C493 0.930 . S
C484 H478 0.930 1_655 S
C484 C485 1.355 . S
C484 C486 1.415 . S
C485 C484 1.355 . S
C485 C487 1.419 . S
C486 C484 1.415 . S
C486 C491 1.425 . S
C486 C493 1.409 1_655 S
C487 H479 0.930 . S
C487 C485 1.419 . S
C487 C488 1.362 . S
C488 H480 0.930 1_556 S
C488 C487 1.362 . S
C488 C491 1.409 . S
C489 H481 0.930 1_556 S
C489 C490 1.355 . S
C489 C491 1.415 . S
C490 C489 1.355 . S
C490 C492 1.419 1_655 S
C491 C486 1.425 . S
C491 C488 1.409 . S
C491 C489 1.415 . S
C492 H482 0.930 . S
C492 C490 1.419 1_455 S
C492 C493 1.362 . S
C493 H483 0.930 . S
C493 C486 1.409 1_455 S
C493 C492 1.362 . S
H494 C500 0.930 . S
H495 C503 0.930 1_554 S
H496 C504 0.930 . S
H497 C505 0.930 . S
H498 C508 0.930 . S
H499 C509 0.930 . S
C500 H494 0.930 . S
C500 C501 1.355 . S
C500 C502 1.415 . S
C501 C500 1.355 . S
C501 C503 1.419 . S
C502 C500 1.415 . S
C502 C507 1.425 1_556 S
C502 C509 1.409 . S
C503 H495 0.930 1_556 S
C503 C501 1.419 . S
C503 C504 1.362 1_556 S
C504 H496 0.930 . S
C504 C503 1.362 1_554 S
C504 C507 1.409 . S
C505 H497 0.930 . S
C505 C506 1.355 . S
C505 C507 1.415 . S
C506 C505 1.355 . S
C506 C508 1.419 1_554 S
C507 C502 1.425 1_554 S
C507 C504 1.409 . S
C507 C505 1.415 . S
C508 H498 0.930 . S
C508 C506 1.419 1_556 S
C508 C509 1.362 . S
C509 H499 0.930 . S
C509 C502 1.409 . S
C509 C508 1.362 . S
H510 C516 0.910 1_655 S
H511 C519 0.930 . S
H512 C520 0.930 . S
H513 C521 0.930 . S
H514 C524 0.930 . S
H515 C525 0.930 . S
C516 H510 0.910 1_455 S
C516 C517 1.355 . S
C516 C518 1.415 . S
C517 C516 1.355 . S
C517 C519 1.419 . S
C518 C516 1.415 . S
C518 C523 1.425 . S
C518 C525 1.409 1_556 S
C519 H511 0.930 . S
C519 C517 1.419 . S
C519 C520 1.362 . S
C520 H512 0.930 . S
C520 C519 1.362 . S
C520 C523 1.409 . S
C521 H513 0.930 . S
C521 C522 1.355 . S
C521 C523 1.415 . S
C522 C521 1.355 . S
C522 C524 1.419 1_556 S
C523 C518 1.425 . S
C523 C520 1.409 . S
C523 C521 1.415 . S
C524 H514 0.930 . S
C524 C522 1.419 1_554 S
C524 C525 1.362 . S
C525 H515 0.930 . S
C525 C518 1.409 1_554 S
C525 C524 1.362 . S
H526 C532 0.930 . S
H527 C535 0.930 . S
H528 C536 0.930 . S
H529 C537 0.930 . S
H530 C540 0.930 . S
H531 C541 0.930 . S
C532 H526 0.930 . S
C532 C533 1.355 1_556 S
C532 C534 1.415 . S
C533 C532 1.355 1_554 S
C533 C535 1.419 . S
C534 C532 1.415 . S
C534 C539 1.425 . S
C534 C541 1.409 . S
C535 H527 0.930 . S
C535 C533 1.419 . S
C535 C536 1.362 . S
C536 H528 0.930 . S
C536 C535 1.362 . S
C536 C539 1.409 1_554 S
C537 H529 0.930 . S
C537 C538 1.355 . S
C537 C539 1.415 . S
C538 C537 1.355 . S
C538 C540 1.419 . S
C539 C534 1.425 . S
C539 C536 1.409 1_556 S
C539 C537 1.415 . S
C540 H530 0.930 . S
C540 C538 1.419 . S
C540 C541 1.362 . S
C541 H531 0.930 . S
C541 C534 1.409 . S
C541 C540 1.362 . S
H542 C548 0.930 1_554 S
H543 C551 0.930 . S
H544 C552 0.930 . S
H545 C553 0.930 1_556 S
H546 C556 0.930 . S
H547 C557 0.930 . S
C548 H542 0.930 1_556 S
C548 C549 1.355 . S
C548 C550 1.415 1_556 S
C549 C548 1.355 . S
C549 C551 1.419 . S
C550 C548 1.415 1_554 S
C550 C555 1.425 1_554 S
C550 C557 1.409 . S
C551 H543 0.930 . S
C551 C549 1.419 . S
C551 C552 1.362 . S
C552 H544 0.930 . S
C552 C551 1.362 . S
C552 C555 1.409 . S
C553 H545 0.930 1_554 S
C553 C554 1.355 . S
C553 C555 1.415 1_554 S
C554 C553 1.355 . S
C554 C556 1.419 . S
C555 C550 1.425 1_556 S
C555 C552 1.409 . S
C555 C553 1.415 1_556 S
C556 H546 0.930 . S
C556 C554 1.419 . S
C556 C557 1.362 . S
C557 H547 0.930 . S
C557 C550 1.409 . S
C557 C556 1.362 . S
H558 C564 0.930 . S
H559 C567 0.930 . S
H560 C568 0.930 . S
H561 C569 0.930 . S
H562 C572 0.930 . S
H563 C573 0.930 . S
C564 H558 0.930 . S
C564 C565 1.355 . S
C564 C566 1.415 . S
C565 C564 1.355 . S
C565 C567 1.419 . S
C566 C564 1.415 . S
C566 C571 1.425 . S
C566 C573 1.409 . S
C567 H559 0.930 . S
C567 C565 1.419 . S
C567 C568 1.362 . S
C568 H560 0.930 . S
C568 C567 1.362 . S
C568 C571 1.409 . S
C569 H561 0.930 . S
C569 C570 1.355 . S
C569 C571 1.415 . S
C570 C569 1.355 . S
C570 C572 1.419 . S
C571 C566 1.425 . S
C571 C568 1.409 . S
C571 C569 1.415 . S
C572 H562 0.930 . S
C572 C570 1.419 . S
C572 C573 1.362 . S
C573 H563 0.930 . S
C573 C566 1.409 . S
C573 C572 1.362 . S
H574 C580 0.930 . S
H575 C583 0.930 . S
H576 C584 0.930 . S
H577 C585 0.930 . S
H578 C588 0.930 . S
H579 C589 0.930 . S
C580 H574 0.930 . S
C580 C581 1.355 . S
C580 C582 1.415 . S
C581 C580 1.355 . S
C581 C583 1.419 . S
C582 C580 1.415 . S
C582 C587 1.425 . S
C582 C589 1.409 . S
C583 H575 0.930 . S
C583 C581 1.419 . S
C583 C584 1.362 . S
C584 H576 0.930 . S
C584 C583 1.362 . S
C584 C587 1.409 . S
C585 H577 0.930 . S
C585 C586 1.355 . S
C585 C587 1.415 . S
C586 C585 1.355 . S
C586 C588 1.419 . S
C587 C582 1.425 . S
C587 C584 1.409 . S
C587 C585 1.415 . S
C588 H578 0.930 . S
C588 C586 1.419 . S
C588 C589 1.362 . S
C589 H579 0.930 . S
C589 C582 1.409 . S
C589 C588 1.362 . S
H590 C596 0.930 . S
H591 C599 0.930 . S
H592 C600 0.930 . S
H593 C601 0.930 . S
H594 C604 0.930 . S
H595 C605 0.930 . S
C596 H590 0.930 . S
C596 C597 1.355 . S
C596 C598 1.415 . S
C597 C596 1.355 . S
C597 C599 1.419 . S
C598 C596 1.415 . S
C598 C603 1.425 . S
C598 C605 1.409 . S
C599 H591 0.930 . S
C599 C597 1.419 . S
C599 C600 1.362 . S
C600 H592 0.930 . S
C600 C599 1.362 . S
C600 C603 1.409 . S
C601 H593 0.930 . S
C601 C602 1.355 . S
C601 C603 1.415 . S
C602 C601 1.355 . S
C602 C604 1.419 . S
C603 C598 1.425 . S
C603 C600 1.409 . S
C603 C601 1.415 . S
C604 H594 0.930 . S
C604 C602 1.419 . S
C604 C605 1.362 . S
C605 H595 0.930 . S
C605 C598 1.409 . S
C605 C604 1.362 . S
H606 C612 0.930 . S
H607 C615 0.930 . S
H608 C616 0.930 . S
H609 C617 0.930 . S
H610 C620 0.930 . S
H611 C621 0.930 . S
C612 H606 0.930 . S
C612 C613 1.355 . S
C612 C614 1.415 . S
C613 C612 1.355 . S
C613 C615 1.419 . S
C614 C612 1.415 . S
C614 C619 1.425 . S
C614 C621 1.409 . S
C615 H607 0.930 . S
C615 C613 1.419 . S
C615 C616 1.362 . S
C616 H608 0.930 . S
C616 C615 1.362 . S
C616 C619 1.409 . S
C617 H609 0.930 . S
C617 C618 1.355 . S
C617 C619 1.415 . S
C618 C617 1.355 . S
C618 C620 1.419 . S
C619 C614 1.425 . S
C619 C616 1.409 . S
C619 C617 1.415 . S
C620 H610 0.930 . S
C620 C618 1.419 . S
C620 C621 1.362 . S
C621 H611 0.930 . S
C621 C614 1.409 . S
C621 C620 1.362 . S
H622 C628 0.930 . S
H623 C631 0.930 . S
H624 C632 0.930 . S
H625 C633 0.930 . S
H626 C636 0.930 . S
H627 C637 0.930 . S
C628 H622 0.930 . S
C628 C629 1.355 . S
C628 C630 1.415 . S
C629 C628 1.355 . S
C629 C631 1.419 . S
C630 C628 1.415 . S
C630 C635 1.425 . S
C630 C637 1.409 . S
C631 H623 0.930 . S
C631 C629 1.419 . S
C631 C632 1.362 . S
C632 H624 0.930 . S
C632 C631 1.362 . S
C632 C635 1.409 . S
C633 H625 0.930 . S
C633 C634 1.355 . S
C633 C635 1.415 . S
C634 C633 1.355 . S
C634 C636 1.419 . S
C635 C630 1.425 . S
C635 C632 1.409 . S
C635 C633 1.415 . S
C636 H626 0.930 . S
C636 C634 1.419 . S
C636 C637 1.362 . S
C637 H627 0.930 . S
C637 C630 1.409 . S
C637 C636 1.362 . S
H638 C644 0.930 . S
H639 C647 0.930 . S
H640 C648 0.930 . S
H641 C649 0.930 . S
H642 C652 0.930 . S
H643 C653 0.930 . S
C644 H638 0.930 . S
C644 C645 1.355 . S
C644 C646 1.415 . S
C645 C644 1.355 . S
C645 C647 1.419 . S
C646 C644 1.415 . S
C646 C651 1.425 . S
C646 C653 1.409 . S
C647 H639 0.930 . S
C647 C645 1.419 . S
C647 C648 1.362 . S
C648 H640 0.930 . S
C648 C647 1.362 . S
C648 C651 1.409 . S
C649 H641 0.930 . S
C649 C650 1.355 . S
C649 C651 1.415 . S
C650 C649 1.355 . S
C650 C652 1.419 . S
C651 C646 1.425 . S
C651 C648 1.409 . S
C651 C649 1.415 . S
C652 H642 0.930 . S
C652 C650 1.419 . S
C652 C653 1.362 . S
C653 H643 0.930 . S
C653 C646 1.409 . S
C653 C652 1.362 . S
H654 C660 0.930 . S
H655 C663 0.930 . S
H656 C664 0.930 . S
H657 C665 0.930 . S
H658 C668 0.930 . S
H659 C669 0.930 . S
C660 H654 0.930 . S
C660 C661 1.355 . S
C660 C662 1.415 . S
C661 C660 1.355 . S
C661 C663 1.419 . S
C662 C660 1.415 . S
C662 C667 1.425 . S
C662 C669 1.409 . S
C663 H655 0.930 . S
C663 C661 1.419 . S
C663 C664 1.362 . S
C664 H656 0.930 . S
C664 C663 1.362 . S
C664 C667 1.409 . S
C665 H657 0.930 . S
C665 C666 1.355 . S
C665 C667 1.415 . S
C666 C665 1.355 . S
C666 C668 1.419 . S
C667 C662 1.425 . S
C667 C664 1.409 . S
C667 C665 1.415 . S
C668 H658 0.930 . S
C668 C666 1.419 . S
C668 C669 1.362 . S
C669 H659 0.930 . S
C669 C662 1.409 . S
C669 C668 1.362 . S
H670 C676 0.930 . S
H671 C679 0.930 1_455 S
H672 C680 0.930 . S
H673 C681 0.930 1_455 S
H674 C684 0.930 . S
H675 C685 0.930 . S
C676 H670 0.930 . S
C676 C677 1.355 . S
C676 C678 1.415 . S
C677 C676 1.355 . S
C677 C679 1.419 . S
C678 C676 1.415 . S
C678 C683 1.425 . S
C678 C685 1.409 . S
C679 H671 0.930 1_655 S
C679 C677 1.419 . S
C679 C680 1.362 1_655 S
C680 H672 0.930 . S
C680 C679 1.362 1_455 S
C680 C683 1.409 1_455 S
C681 H673 0.930 1_655 S
C681 C682 1.355 . S
C681 C683 1.415 . S
C682 C681 1.355 . S
C682 C684 1.419 . S
C683 C678 1.425 . S
C683 C680 1.409 1_655 S
C683 C681 1.415 . S
C684 H674 0.930 . S
C684 C682 1.419 . S
C684 C685 1.362 . S
C685 H675 0.930 . S
C685 C678 1.409 . S
C685 C684 1.362 . S
H686 C692 0.930 . S
H687 C695 0.930 . S
H688 C696 0.930 . S
H689 C697 0.930 . S
H690 C700 0.930 . S
H691 C701 0.930 . S
C692 H686 0.930 . S
C692 C693 1.355 . S
C692 C694 1.415 . S
C693 C692 1.355 . S
C693 C695 1.419 . S
C694 C692 1.415 . S
C694 C699 1.425 . S
C694 C701 1.409 . S
C695 H687 0.930 . S
C695 C693 1.419 . S
C695 C696 1.362 . S
C696 H688 0.930 . S
C696 C695 1.362 . S
C696 C699 1.409 . S
C697 H689 0.930 . S
C697 C698 1.355 . S
C697 C699 1.415 . S
C698 C697 1.355 . S
C698 C700 1.419 . S
C699 C694 1.425 . S
C699 C696 1.409 . S
C699 C697 1.415 . S
C700 H690 0.930 . S
C700 C698 1.419 . S
C700 C701 1.362 . S
C701 H691 0.930 . S
C701 C694 1.409 . S
C701 C700 1.362 . S
C277 C10 1.164 . S
C282 C1 1.164 . S
C293 C31 1.172 . S
C298 C40 1.172 . S
C309 C70 1.185 . S
C314 C61 1.185 . S
C325 C91 1.147 . S
C330 C100 1.147 . S
C341 C130 1.175 . S
C346 C121 1.175 . S
C357 C151 1.219 . S
C362 C160 1.219 1_556 S
C373 C207 1.226 . S
C378 C196 1.226 1_554 S
C389 C226 1.172 . S
C394 C237 1.172 1_554 S
C405 C267 1.106 . S
C410 C256 1.106 1_554 S
C421 N164 1.415 . S
C426 C27 1.500 . S
C437 N44 1.058 . S
C442 N104 1.052 . S
C453 C87 1.902 . S
C458 C147 1.937 . S
C469 N74 0.951 . S
C474 N186 0.922 . S
C485 C211 1.577 . S
C490 N14 1.430 1_655 S
C501 N246 1.417 . S
C506 C57 1.403 . S
C517 C250 1.979 1_455 S
C522 C16 1.938 1_556 S
C533 N36 1.028 . S
C538 C190 1.095 . S
C549 N224 1.163 . S
C554 C76 1.246 . S
C565 N66 1.451 . S
C570 C106 1.505 . S
C581 N126 1.076 . S
C586 N6 1.070 . S
C597 C46 1.937 . S
C602 C166 1.909 . S
C613 C241 1.979 . S
C618 C117 1.942 . S
C629 C181 1.037 . S
C634 N134 0.916 . S
C645 N216 1.168 . S
C650 C177 1.247 . S
C661 N194 0.842 . S
C666 N156 0.934 . S
C677 N96 1.501 . S
C682 C220 1.600 . S
C693 N254 1.407 . S
C698 C136 1.414 . S
