# Generated by pormake.
# Topology oof, (8)-cn, num edge types: 1
# Building blocks:
#     Node 0, Type 0, BuildingBlock: LIZSOE_clean_sbu_0, # of connection points: 8
#     Node 1, Type 0, BuildingBlock: LIZSOE_clean_sbu_0, # of connection points: 8
#     Node 2, Type 0, BuildingBlock: LIZSOE_clean_sbu_0, # of connection points: 8
#     Node 3, Type 0, BuildingBlock: LIZSOE_clean_sbu_0, # of connection points: 8
#     Edge 4, Type (0, 0), BuildingBlock: KIFKEQ_clean_linker_1, # of connection points: 2
#     Edge 5, Type (0, 0), BuildingBlock: KIFKEQ_clean_linker_1, # of connection points: 2
#     Edge 6, Type (0, 0), BuildingBlock: KIFKEQ_clean_linker_1, # of connection points: 2
#     Edge 7, Type (0, 0), BuildingBlock: KIFKEQ_clean_linker_1, # of connection points: 2
#     Edge 8, Type (0, 0), BuildingBlock: KIFKEQ_clean_linker_1, # of connection points: 2
#     Edge 9, Type (0, 0), BuildingBlock: KIFKEQ_clean_linker_1, # of connection points: 2
#     Edge 10, Type (0, 0), BuildingBlock: KIFKEQ_clean_linker_1, # of connection points: 2
#     Edge 11, Type (0, 0), BuildingBlock: KIFKEQ_clean_linker_1, # of connection points: 2
#     Edge 12, Type (0, 0), BuildingBlock: KIFKEQ_clean_linker_1, # of connection points: 2
#     Edge 13, Type (0, 0), BuildingBlock: KIFKEQ_clean_linker_1, # of connection points: 2
#     Edge 14, Type (0, 0), BuildingBlock: KIFKEQ_clean_linker_1, # of connection points: 2
#     Edge 15, Type (0, 0), BuildingBlock: KIFKEQ_clean_linker_1, # of connection points: 2
#     Edge 16, Type (0, 0), BuildingBlock: KIFKEQ_clean_linker_1, # of connection points: 2
#     Edge 17, Type (0, 0), BuildingBlock: KIFKEQ_clean_linker_1, # of connection points: 2
#     Edge 18, Type (0, 0), BuildingBlock: KIFKEQ_clean_linker_1, # of connection points: 2
#     Edge 19, Type (0, 0), BuildingBlock: KIFKEQ_clean_linker_1, # of connection points: 2
# Relax obj value: 0.085
# Max RMSD: 0.206
# Mean RMSD: 0.204
data_MOF--net-oof--node1-LIZSOE_clean_sbu_0--edge1-KIFKEQ_clean_linker_1
_symmetry_space_group_name_H-M    P1
_symmetry_Int_Tables_number       1
_symmetry_cell_setting            triclinic
loop_
_symmetry_equiv_pos_as_xyz
'x, y, z'
_cell_length_a     15.723143
_cell_length_b     43.629178
_cell_length_c     23.527748
_cell_angle_alpha  89.845945
_cell_angle_beta   115.56758
_cell_angle_gamma 88.938553
loop_
_atom_site_label
_atom_site_type_symbol
_atom_site_fract_x
_atom_site_fract_y
_atom_site_fract_z
_atom_type_partial_charge
Co0 Co 0.06894 0.17204 0.15408 0.0
N1 N 0.13399 0.17013 0.10471 0.0
C2 C 0.21562 0.15462 0.1181 0.0
N3 N 0.1682 0.17308 0.0217 0.0
C4 C 0.10756 0.18158 0.046 0.0
C5 C 0.2366 0.15635 0.06724 0.0
Co6 Co 0.04206 0.12437 0.40494 0.0
N7 N 0.02595 0.1317 0.47863 0.0
N8 N 0.03921 0.14021 0.57607 0.0
C9 C 0.95166 0.1306 0.54034 0.0
C10 C 0.9437 0.12545 0.481 0.0
C11 C 0.08356 0.14071 0.53789 0.0
Co12 Co 0.03213 0.14507 0.26782 0.0
C13 C 0.09814 0.10305 0.39855 0.0
H14 H 0.88208 0.11659 0.44243 0.0
O15 O 0.9989 0.17554 0.19484 0.0
O16 O 0.06888 0.18269 0.3213 0.0
O17 O 0.1701 0.14109 0.28463 0.0
O18 O 1.00111 0.10909 0.20866 0.0
O19 O 0.08407 0.12847 0.16193 0.0
O20 O 0.07334 0.16524 0.4094 0.0
O21 O 0.05797 0.11359 0.33891 0.0
O22 O 0.91561 0.13528 0.35474 0.0
O23 O 0.18024 0.17871 0.2243 0.0
O24 O 0.95878 0.16545 0.09252 0.0
O25 O 0.89729 0.14893 0.2572 0.0
O26 O 0.16656 0.11673 0.44397 0.0
C27 C 0.21855 0.16047 0.27077 0.0
C28 C 0.18648 0.14694 0.55995 0.0
H29 H 0.19775 0.16125 0.52495 0.0
H30 H 0.2168 0.15853 0.60605 0.0
H31 H 0.22526 0.12481 0.56525 0.0
C32 C 0.08385 0.1867 0.37792 0.0
C33 C 0.04438 0.10584 0.17368 0.0
H34 H 0.25484 0.14148 0.16075 0.0
H35 H 0.95961 0.18764 0.98727 0.0
H36 H 0.03145 0.21716 0.97816 0.0
H37 H 0.00865 0.21597 0.04751 0.0
C38 C 0.0221 0.20193 1.01282 0.0
C39 C 0.93484 0.17565 0.13548 0.0
C40 C 0.865 0.14452 0.29844 0.0
H41 H 0.29384 0.14432 0.06227 0.0
H42 H 0.89791 0.12685 0.55666 0.0
Co43 Co 0.02139 0.91174 0.63717 0.0
N44 N 0.0586 0.89833 0.57661 0.0
C45 C 0.13958 0.88408 0.58361 0.0
N46 N 0.05449 0.89005 0.48153 0.0
C47 C 0.0085 0.90197 0.51365 0.0
C48 C 0.13663 0.87858 0.52532 0.0
Co49 Co 0.94488 0.8752 0.87759 0.0
N50 N 0.88939 0.87885 0.93304 0.0
N51 N 0.86513 0.88287 0.02 0.0
C52 C 0.78852 0.87044 0.97463 0.0
C53 C 0.80366 0.86788 0.92147 0.0
C54 C 0.92491 0.88816 0.99374 0.0
Co55 Co 0.99267 0.89985 0.76202 0.0
C56 C 0.07463 0.86361 0.88769 0.0
H57 H 0.75693 0.85709 0.87815 0.0
O58 O 0.98511 0.92956 0.69179 0.0
O59 O 0.02657 0.93555 0.82229 0.0
O60 O 0.13075 0.89333 0.78671 0.0
O61 O 0.94763 0.8637 0.69993 0.0
O62 O 0.92266 0.8856 0.60824 0.0
O63 O 0.96153 0.91783 0.88268 0.0
O64 O 0.00601 0.86916 0.83101 0.0
O65 O 0.82936 0.88069 0.81074 0.0
O66 O 0.10194 0.87957 0.69183 0.0
O67 O 0.11315 0.93675 0.67143 0.0
O68 O 0.85231 0.90803 0.73809 0.0
O69 O 0.05939 0.87011 0.93625 0.0
C70 C 0.16042 0.88254 0.74863 0.0
C71 C 0.02042 0.90191 0.02908 0.0
H72 H 0.03967 0.91646 0.99812 0.0
H73 H 0.02213 0.91609 0.06864 0.0
H74 H 0.07433 0.88324 0.04895 0.0
C75 C 0.99713 0.93944 0.86479 0.0
C76 C 0.90608 0.86454 0.63905 0.0
H77 H 0.19777 0.87825 0.62793 0.0
H78 H 0.87966 0.91895 0.51612 0.0
H79 H 0.86605 0.90409 0.44106 0.0
H80 H 0.91916 0.94053 0.46757 0.0
C81 C 0.91259 0.91707 0.48321 0.0
C82 C 0.0471 0.94796 0.68507 0.0
C83 C 0.798 0.89604 0.75989 0.0
H84 H 0.19107 0.86743 0.51571 0.0
H85 H 0.72899 0.8618 0.98094 0.0
Co86 Co 0.48206 0.6641 0.12801 0.0
N87 N 0.51569 0.66008 0.06148 0.0
C88 C 0.54158 0.63309 0.04495 0.0
N89 N 0.55724 0.66791 0.98264 0.0
C90 C 0.52607 0.68111 0.02242 0.0
C91 C 0.56668 0.6378 0.99687 0.0
Co92 Co 0.52871 0.62708 0.4099 0.0
N93 N 0.51551 0.63498 0.48389 0.0
N94 N 0.51911 0.6516 0.57497 0.0
C95 C 0.4476 0.63206 0.54891 0.0
C96 C 0.44616 0.62178 0.49376 0.0
C97 C 0.56102 0.65258 0.53534 0.0
Co98 Co 0.50224 0.64457 0.26798 0.0
C99 C 0.5952 0.60908 0.40611 0.0
H100 H 0.397 0.60565 0.46252 0.0
O101 O 0.44905 0.6714 0.18849 0.0
O102 O 0.53304 0.68421 0.31476 0.0
O103 O 0.63537 0.6435 0.27782 0.0
O104 O 0.47567 0.60581 0.21443 0.0
O105 O 0.43809 0.62406 0.11654 0.0
O106 O 0.53045 0.66953 0.40233 0.0
O107 O 0.54577 0.61597 0.34481 0.0
O108 O 0.39762 0.62837 0.36217 0.0
O109 O 0.60303 0.65023 0.17833 0.0
O110 O 0.52508 0.70145 0.1487 0.0
O111 O 0.37038 0.64436 0.26416 0.0
O112 O 0.65558 0.62754 0.44601 0.0
C113 C 0.66127 0.64392 0.23381 0.0
C114 C 0.64912 0.66995 0.54829 0.0
H115 H 0.659 0.67464 0.50553 0.0
H116 H 0.64878 0.69197 0.57166 0.0
H117 H 0.71099 0.65596 0.58034 0.0
C118 C 0.53702 0.69046 0.36812 0.0
C119 C 0.4478 0.60201 0.15459 0.0
H120 H 0.54479 0.61124 0.06747 0.0
H121 H 0.44726 0.72022 0.03098 0.0
H122 H 0.51658 0.72847 0.98861 0.0
H123 H 0.57358 0.72321 0.07133 0.0
C124 C 0.51443 0.71511 0.02786 0.0
C125 C 0.46802 0.69909 0.17497 0.0
C126 C 0.34164 0.63594 0.30557 0.0
H127 H 0.58981 0.62033 0.97372 0.0
H128 H 0.39958 0.62562 0.5686 0.0
Co129 Co 0.476 0.42606 0.63253 0.0
N130 N 0.48617 0.41843 0.55581 0.0
C131 C 0.55516 0.3991 0.55623 0.0
N132 N 0.47748 0.41395 0.45824 0.0
C133 C 0.43838 0.42676 0.49385 0.0
C134 C 0.55043 0.39659 0.49713 0.0
Co135 Co 0.47412 0.36923 0.88733 0.0
N136 N 0.41968 0.36776 0.94392 0.0
N137 N 0.37904 0.37389 0.02371 0.0
C138 C 0.31385 0.35664 0.97988 0.0
C139 C 0.33906 0.35278 0.93137 0.0
C140 C 0.44375 0.37989 1.00172 0.0
Co141 Co 0.49649 0.40085 0.7697 0.0
C142 C 0.60341 0.36358 0.89484 0.0
H143 H 0.3006 0.3396 0.88949 0.0
O144 O 0.46582 0.43479 0.70164 0.0
O145 O 0.53088 0.43519 0.83218 0.0
O146 O 0.62941 0.39822 0.77651 0.0
O147 O 0.45704 0.36423 0.71278 0.0
O148 O 0.44209 0.38589 0.62602 0.0
O149 O 0.46967 0.41312 0.89111 0.0
O150 O 0.53214 0.36808 0.83887 0.0
O151 O 0.35578 0.36794 0.82126 0.0
O152 O 0.60321 0.41578 0.67993 0.0
O153 O 0.35275 0.43467 0.5975 0.0
O154 O 0.36172 0.40471 0.75788 0.0
O155 O 0.59125 0.37068 0.94443 0.0
C156 C 0.65825 0.4059 0.7349 0.0
C157 C 0.53781 0.39373 0.04042 0.0
H158 H 0.55448 0.41053 1.01194 0.0
H159 H 0.54167 0.4049 0.08356 0.0
H160 H 0.59291 0.3753 0.05515 0.0
C161 C 0.50059 0.43663 0.87464 0.0
C162 C 0.43471 0.36276 0.65459 0.0
H163 H 0.60499 0.38634 0.59663 0.0
H164 H 0.31455 0.44984 0.49504 0.0
H165 H 0.30374 0.43997 0.41897 0.0
H166 H 0.37678 0.47085 0.45916 0.0
C167 C 0.35356 0.44791 0.46617 0.0
C168 C 0.42076 0.44778 0.64452 0.0
C169 C 0.31536 0.38641 0.77569 0.0
H170 H 0.59484 0.38221 0.48315 0.0
H171 H 0.25239 0.34748 0.98292 0.0
H172 H 0.01143 0.15533 0.92324 0.0
H173 H 0.29048 0.18941 0.97515 0.0
H174 H 0.98979 0.1491 0.81497 0.0
H175 H 0.26942 0.18291 0.86587 0.0
H176 H 0.11559 0.19221 0.63752 0.0
H177 H 0.15447 0.20318 0.74858 0.0
H178 H 0.077 0.11124 0.77256 0.0
H179 H 0.04003 0.10041 0.66255 0.0
C180 C 0.06695 0.16236 0.91084 0.0
C181 C 0.15178 0.17345 0.95683 0.0
C182 C 0.05526 0.15837 0.84926 0.0
C183 C 0.12829 0.16533 0.83248 0.0
C184 C 0.21209 0.17751 0.87782 0.0
C185 C 0.22412 0.18122 0.93991 0.0
C186 C 0.10992 0.17424 0.66747 0.0
C187 C 0.07594 0.14543 0.64243 0.0
C188 C 0.13148 0.1805 0.7305 0.0
C189 C 0.11756 0.15812 0.76853 0.0
C190 C 0.08711 0.12897 0.74385 0.0
C191 C 0.06647 0.12271 0.68136 0.0
H192 H 0.0472 0.83981 0.41461 0.0
H193 H 0.99336 0.93739 0.39873 0.0
H194 H 0.99342 0.83698 0.3004 0.0
H195 H 0.93921 0.93487 0.28454 0.0
H196 H 0.76886 0.91258 0.07461 0.0
H197 H 0.80971 0.91384 0.18799 0.0
H198 H 0.05149 0.85445 0.22484 0.0
H199 H 0.00883 0.85287 0.11212 0.0
C200 C 0.02359 0.86058 0.38631 0.0
C201 C 0.02281 0.88869 0.41467 0.0
C202 C 0.99293 0.85904 0.32127 0.0
C203 C 0.96168 0.8857 0.28363 0.0
C204 C 0.96107 0.91388 0.31224 0.0
C205 C 0.99182 0.91536 0.37735 0.0
C206 C 0.83024 0.89982 0.10744 0.0
C207 C 0.88692 0.8831 0.08567 0.0
C208 C 0.85396 0.90061 0.17193 0.0
C209 C 0.93398 0.88432 0.21514 0.0
C210 C 0.98908 0.86703 0.19269 0.0
C211 C 0.96555 0.86638 0.12852 0.0
H212 H 0.70517 0.65618 0.95781 0.0
H213 H 0.44315 0.70775 0.89211 0.0
H214 H 0.71125 0.66504 0.85853 0.0
H215 H 0.45646 0.72149 0.7966 0.0
H216 H 0.39171 0.67851 0.60619 0.0
H217 H 0.41638 0.69582 0.70876 0.0
H218 H 0.71847 0.68381 0.77331 0.0
H219 H 0.69069 0.66204 0.67244 0.0
C220 C 0.65138 0.67082 0.92298 0.0
C221 C 0.5738 0.68118 0.93257 0.0
C222 C 0.65525 0.67641 0.86591 0.0
C223 C 0.58239 0.69327 0.81752 0.0
C224 C 0.51166 0.70718 0.83105 0.0
C225 C 0.50532 0.70017 0.88692 0.0
C226 C 0.46338 0.67975 0.64245 0.0
C227 C 0.53882 0.66845 0.63148 0.0
C228 C 0.47828 0.69035 0.70155 0.0
C229 C 0.56988 0.69069 0.75113 0.0
C230 C 0.64652 0.68281 0.73757 0.0
C231 C 0.63097 0.67096 0.67889 0.0
H232 H 0.39306 0.43117 0.06893 0.0
H233 H 0.35995 0.33673 0.10805 0.0
H234 H 0.40094 0.44585 0.17172 0.0
H235 H 0.36663 0.35111 0.21028 0.0
H236 H 0.32296 0.38748 0.37328 0.0
H237 H 0.28178 0.38129 0.26083 0.0
H238 H 0.52254 0.43479 0.28282 0.0
H239 H 0.56211 0.44096 0.39495 0.0
C240 C 0.38762 0.41366 0.09987 0.0
C241 C 0.37868 0.38279 0.08214 0.0
C242 C 0.39156 0.422 0.15816 0.0
C243 C 0.3847 0.39959 0.19887 0.0
C244 C 0.37112 0.3689 0.17954 0.0
C245 C 0.36795 0.3606 0.12152 0.0
C246 C 0.36474 0.3986 0.35306 0.0
C247 C 0.44455 0.41499 0.39143 0.0
C248 C 0.34201 0.39489 0.28931 0.0
C249 C 0.39919 0.40751 0.26334 0.0
C250 C 0.4766 0.42518 0.30145 0.0
C251 C 0.49948 0.42867 0.36527 0.0
H252 H 0.70455 0.11747 0.2142 0.0
H253 H 0.80846 0.18611 0.35828 0.0
H254 H 0.54993 0.12059 0.21686 0.0
H255 H 0.65687 0.18877 0.36258 0.0
H256 H 0.34077 0.20658 0.30308 0.0
H257 H 0.49632 0.20463 0.30478 0.0
H258 H 0.48288 0.10591 0.29058 0.0
H259 H 0.32488 0.10817 0.28739 0.0
C260 C 0.69303 0.13394 0.2447 0.0
C261 C 0.76695 0.1521 0.28492 0.0
C262 C 0.60568 0.13523 0.24746 0.0
C263 C 0.5916 0.15463 0.29064 0.0
C264 C 0.66482 0.17377 0.3285 0.0
C265 C 0.75138 0.17248 0.32566 0.0
C266 C 0.37272 0.18438 0.30281 0.0
C267 C 0.32154 0.15752 0.29573 0.0
C268 C 0.46148 0.18324 0.30315 0.0
C269 C 0.50124 0.15516 0.29652 0.0
C270 C 0.45308 0.12796 0.29436 0.0
C271 C 0.3639 0.12912 0.29428 0.0
H272 H 0.72179 0.93995 0.80347 0.0
H273 H 0.6494 0.86619 0.67089 0.0
H274 H 0.57098 0.93643 0.80727 0.0
H275 H 0.49376 0.86388 0.67003 0.0
H276 H 0.2746 0.83791 0.73577 0.0
H277 H 0.42408 0.84517 0.72981 0.0
H278 H 0.41422 0.94104 0.77405 0.0
H279 H 0.26989 0.93267 0.78518 0.0
C280 C 0.67057 0.92434 0.77167 0.0
C281 C 0.69672 0.90393 0.7356 0.0
C282 C 0.58374 0.92192 0.77444 0.0
C283 C 0.51921 0.89931 0.74013 0.0
C284 C 0.54202 0.88091 0.69905 0.0
C285 C 0.63022 0.88289 0.6976 0.0
C286 C 0.30686 0.86017 0.74661 0.0
C287 C 0.26118 0.8846 0.76162 0.0
C288 C 0.39147 0.86469 0.74147 0.0
C289 C 0.43161 0.894 0.74964 0.0
C290 C 0.38741 0.91803 0.76771 0.0
C291 C 0.30429 0.91326 0.77451 0.0
H292 H 0.72879 0.63803 0.14575 0.0
H293 H 0.82039 0.64077 0.34736 0.0
H294 H 0.89098 0.63557 0.16102 0.0
H295 H 0.98487 0.63848 0.36259 0.0
H296 H 0.25955 0.60151 0.36329 0.0
H297 H 0.09662 0.6028 0.34733 0.0
H298 H 0.02846 0.66892 0.19616 0.0
H299 H 0.19351 0.66774 0.21245 0.0
C300 C 0.78355 0.63805 0.19357 0.0
C301 C 0.76126 0.63974 0.24548 0.0
C302 C 0.87682 0.63688 0.20212 0.0
C303 C 0.95076 0.63721 0.26283 0.0
C304 C 0.92911 0.63809 0.31509 0.0
C305 C 0.8351 0.63936 0.3065 0.0
C306 C 0.21019 0.61651 0.32676 0.0
C307 C 0.23985 0.63491 0.28967 0.0
C308 C 0.11671 0.61727 0.31785 0.0
C309 C 0.04996 0.63628 0.27126 0.0
C310 C 0.0785 0.65397 0.23249 0.0
C311 C 0.17275 0.65327 0.24158 0.0
H312 H 0.74225 0.44434 0.68663 0.0
H313 H 0.80109 0.36665 0.81338 0.0
H314 H 0.89845 0.44022 0.69194 0.0
H315 H 0.96181 0.36309 0.8206 0.0
H316 H 0.18849 0.34195 0.75363 0.0
H317 H 0.03179 0.348 0.75008 0.0
H318 H 0.0615 0.44644 0.75658 0.0
H319 H 0.21717 0.4402 0.7582 0.0
C320 C 0.78947 0.42658 0.71666 0.0
C321 C 0.75907 0.40549 0.74902 0.0
C322 C 0.87956 0.42441 0.71997 0.0
C323 C 0.9423 0.40118 0.75611 0.0
C324 C 0.91404 0.38093 0.79135 0.0
C325 C 0.82284 0.38313 0.78799 0.0
C326 C 0.15983 0.36488 0.75221 0.0
C327 C 0.21373 0.39066 0.75516 0.0
C328 C 0.07123 0.36832 0.75163 0.0
C329 C 0.0351 0.39763 0.75445 0.0
C330 C 0.08722 0.42352 0.75412 0.0
C331 C 0.17573 0.42005 0.75414 0.0
H332 H 0.38262 0.35574 0.52932 0.0
H333 H 0.38598 0.30785 0.69137 0.0
H334 H 0.29509 0.31508 0.46165 0.0
H335 H 0.30131 0.26565 0.62299 0.0
H336 H 0.06381 0.21097 0.4778 0.0
H337 H 0.15243 0.25221 0.54572 0.0
H338 H 0.29623 0.26572 0.42722 0.0
H339 H 0.20389 0.22527 0.35783 0.0
C340 C 0.36617 0.33619 0.55098 0.0
C341 C 0.39141 0.33528 0.61624 0.0
C342 C 0.31606 0.31256 0.51173 0.0
C343 C 0.29028 0.28685 0.53623 0.0
C344 C 0.31813 0.28533 0.60194 0.0
C345 C 0.3678 0.30934 0.64148 0.0
C346 C 0.11302 0.22325 0.46559 0.0
C347 C 0.12602 0.21513 0.41198 0.0
C348 C 0.16518 0.2466 0.50523 0.0
C349 C 0.23288 0.26229 0.49289 0.0
C350 C 0.24405 0.25459 0.43816 0.0
C351 C 0.19075 0.23146 0.39795 0.0
H352 H 0.53835 0.30639 0.86021 0.0
H353 H 0.79173 0.35526 0.96927 0.0
H354 H 0.60547 0.26073 0.92376 0.0
H355 H 0.86322 0.30888 0.03071 0.0
H356 H 0.94426 0.23489 0.1781 0.0
H357 H 0.86625 0.27945 0.11196 0.0
H358 H 0.69889 0.21913 0.96097 0.0
H359 H 0.77172 0.17527 0.02876 0.0
C360 C 0.61111 0.30682 0.8952 0.0
C361 C 0.66003 0.33453 0.90856 0.0
C362 C 0.64972 0.28051 0.93293 0.0
C363 C 0.73981 0.28073 0.98459 0.0
C364 C 0.79243 0.30767 0.99347 0.0
C365 C 0.75278 0.33418 0.95657 0.0
C366 C 0.88715 0.23124 0.13201 0.0
C367 C 0.86393 0.2013 0.10928 0.0
C368 C 0.84423 0.25691 0.09282 0.0
C369 C 0.77767 0.25347 0.02935 0.0
C370 C 0.74907 0.22343 1.00892 0.0
C371 C 0.79046 0.19795 0.0484 0.0
H372 H 0.50495 0.71649 0.46259 0.0
H373 H 0.64683 0.73182 0.34401 0.0
H374 H 0.59073 0.75851 0.53033 0.0
H375 H 0.73184 0.77406 0.41123 0.0
H376 H 0.80796 0.86417 0.51164 0.0
H377 H 0.70993 0.82508 0.44458 0.0
H378 H 0.75772 0.76928 0.60778 0.0
H379 H 0.85789 0.80929 0.67687 0.0
C380 C 0.5531 0.72928 0.45023 0.0
C381 C 0.5695 0.72065 0.39806 0.0
C382 C 0.60311 0.75311 0.48958 0.0
C383 C 0.66952 0.76935 0.47706 0.0
C384 C 0.6812 0.76206 0.4224 0.0
C385 C 0.63176 0.73801 0.38335 0.0
C386 C 0.79856 0.84367 0.53413 0.0
C387 C 0.84267 0.83993 0.60034 0.0
C388 C 0.74197 0.82108 0.49505 0.0
C389 C 0.72662 0.79383 0.5204 0.0
C390 C 0.76801 0.79013 0.58667 0.0
C391 C 0.82571 0.81295 0.62631 0.0
H392 H 0.29798 0.68897 0.0777 0.0
H393 H 0.46841 0.76075 0.19405 0.0
H394 H 0.20971 0.72611 0.99555 0.0
H395 H 0.37569 0.79873 0.11434 0.0
H396 H 0.26645 0.8619 0.94997 0.0
H397 H 0.35474 0.82074 0.0227 0.0
H398 H 0.10865 0.76405 0.94374 0.0
H399 H 0.02498 0.80439 0.86825 0.0
C400 C 0.31259 0.71305 0.08749 0.0
C401 C 0.38937 0.72179 0.14345 0.0
C402 C 0.2626 0.73463 0.03942 0.0
C403 C 0.28613 0.76595 0.04611 0.0
C404 C 0.35692 0.77495 0.10505 0.0
C405 C 0.40843 0.75321 0.15237 0.0
C406 C 0.23359 0.83987 0.94554 0.0
C407 C 0.13898 0.83643 0.90212 0.0
C408 C 0.283 0.81644 0.98927 0.0
C409 C 0.23861 0.78897 0.99231 0.0
C410 C 0.1469 0.78447 0.94435 0.0
C411 C 0.09868 0.80762 0.89952 0.0
H412 H 0.90824 0.06119 0.12554 0.0
H413 H 0.18144 0.08645 0.1414 0.0
H414 H 0.90008 1.0216 0.04945 0.0
H415 H 0.17159 0.04885 0.06385 0.0
H416 H 0.16097 0.96258 0.95201 0.0
H417 H 0.17605 0.99909 0.0341 0.0
H418 H 0.87434 1.01562 0.94443 0.0
H419 H 0.86025 0.97789 0.86463 0.0
C420 C 0.9673 0.05788 0.1139 0.0
C421 C 0.04536 0.07706 0.13973 0.0
C422 C 0.96203 0.03561 0.06914 0.0
C423 C 0.03448 0.0321 0.04894 0.0
C424 C 0.11445 0.05031 0.07778 0.0
C425 C 0.11995 0.07216 0.1225 0.0
C426 C 0.0986 0.97498 0.94865 0.0
C427 C 0.00989 0.96821 0.90057 0.0
C428 C 0.10674 0.99574 0.99627 0.0
C429 C 0.02627 1.01046 0.99695 0.0
C430 C 0.93794 1.00447 0.94695 0.0
C431 C 0.9299 0.98341 0.9 0.0
H432 H 0.92316 0.07703 0.36932 0.0
H433 H 0.22121 0.06044 0.47853 0.0
H434 H 0.89088 0.04431 0.44236 0.0
H435 H 0.18955 0.02707 0.54934 0.0
H436 H 0.14419 1.00083 0.71271 0.0
H437 H 0.14585 0.03591 0.63264 0.0
H438 H 0.8915 0.99609 0.49495 0.0
H439 H 0.88791 0.96195 0.57683 0.0
C440 C 0.98182 0.06547 0.40714 0.0
C441 C 0.07518 0.07227 0.41846 0.0
C442 C 0.96328 0.04689 0.44985 0.0
C443 C 0.03769 0.03414 0.5043 0.0
C444 C 0.13007 0.03765 0.51027 0.0
C445 C 0.14833 0.05625 0.46826 0.0
C446 C 0.08544 1.00073 0.66632 0.0
C447 C 0.0165 0.97815 0.65149 0.0
C448 C 0.08804 1.02021 0.61944 0.0
C449 C 0.02185 1.01782 0.55584 0.0
C450 C 0.94529 0.99827 0.54274 0.0
C451 C 0.94237 0.97888 0.59012 0.0
H452 H 0.60225 0.56641 0.18112 0.0
H453 H 0.30394 0.57163 0.06262 0.0
H454 H 0.62254 0.52945 0.11119 0.0
H455 H 0.32091 0.53219 0.99505 0.0
H456 H 0.3724 0.48404 0.84443 0.0
H457 H 0.35946 0.52182 0.91657 0.0
H458 H 0.61969 0.48562 0.0643 0.0
H459 H 0.63616 0.45077 0.9895 0.0
C460 C 0.53993 0.55809 0.14201 0.0
C461 C 0.45116 0.57137 0.12849 0.0
C462 C 0.55142 0.53691 0.10086 0.0
C463 C 0.47384 0.52762 0.04544 0.0
C464 C 0.38367 0.5392 0.03521 0.0
C465 C 0.37293 0.56121 0.07528 0.0
C466 C 0.42872 0.48532 0.89163 0.0
C467 C 0.50613 0.46485 0.91097 0.0
C468 C 0.42016 0.50641 0.93412 0.0
C469 C 0.48704 0.50683 0.9981 0.0
C470 C 0.56648 0.48689 1.01612 0.0
C471 C 0.57638 0.46666 0.97298 0.0
H472 H 0.59996 0.47179 0.68525 0.0
H473 H 0.30878 0.49362 0.56504 0.0
H474 H 0.64837 0.50525 0.62261 0.0
H475 H 0.35661 0.53013 0.50636 0.0
H476 H 0.44694 0.56768 0.36224 0.0
H477 H 0.40729 0.53201 0.42726 0.0
H478 H 0.67345 0.54999 0.58545 0.0
H479 H 0.71454 0.5834 0.52006 0.0
C480 C 0.54597 0.48432 0.64643 0.0
C481 C 0.45016 0.47846 0.62849 0.0
C482 C 0.57381 0.50395 0.61011 0.0
C483 C 0.50659 0.51977 0.55646 0.0
C484 C 0.41107 0.51736 0.54473 0.0
C485 C 0.38341 0.49688 0.57971 0.0
C486 C 0.49859 0.56295 0.41007 0.0
C487 C 0.58389 0.57886 0.43534 0.0
C488 C 0.47483 0.54303 0.44834 0.0
C489 C 0.53541 0.53847 0.5132 0.0
C490 C 0.62387 0.55244 0.53644 0.0
C491 C 0.64792 0.57182 0.49821 0.0
loop_
_geom_bond_atom_site_label_1
_geom_bond_atom_site_label_2
_geom_bond_distance
_geom_bond_site_symmetry_2
_ccdc_geom_bond_type
Co0 N1 2.034 . S
Co0 O15 2.262 1_455 S
Co0 O19 1.958 1_455 S
Co0 O23 1.950 . S
Co0 O24 2.057 1_455 S
N1 Co0 2.034 . S
N1 C2 1.366 1_554 S
N1 C4 1.332 . S
C2 N1 1.366 1_556 S
C2 C5 1.377 . S
C2 H34 0.931 1_455 S
N3 C4 1.346 1_556 S
N3 C5 1.337 . S
C4 N1 1.332 . S
C4 N3 1.346 1_554 S
C4 C38 1.361 . S
C5 C2 1.377 . S
C5 N3 1.337 . S
C5 H41 0.930 . S
Co6 N7 2.034 . S
Co6 O20 1.950 1_655 S
Co6 O21 2.262 1_655 S
Co6 O22 1.958 . S
Co6 O26 2.057 1_655 S
N7 Co6 2.034 . S
N7 C10 1.366 . S
N7 C11 1.332 . S
N8 C9 1.337 . S
N8 C11 1.346 . S
C9 N8 1.337 . S
C9 C10 1.377 . S
C9 H42 0.930 . S
C10 N7 1.366 . S
C10 C9 1.377 . S
C10 H14 0.931 . S
C11 N7 1.332 . S
C11 N8 1.346 . S
C11 C28 1.361 1_655 S
Co12 O15 2.097 . S
Co12 O16 2.065 1_655 S
Co12 O17 2.065 1_655 S
Co12 O18 2.042 . S
Co12 O21 2.097 1_655 S
Co12 O25 2.042 . S
C13 O21 1.253 . S
C13 O26 1.263 . S
H14 C10 0.931 . S
O15 Co0 2.262 1_655 S
O15 Co12 2.097 . S
O15 C39 1.253 . S
O16 Co12 2.065 1_455 S
O16 C32 1.221 . S
O17 Co12 2.065 1_455 S
O17 C27 1.221 . S
O18 Co12 2.042 . S
O18 C33 1.237 . S
O19 Co0 1.958 1_655 S
O19 C33 1.278 . S
O20 Co6 1.950 1_455 S
O20 C32 1.277 . S
O21 Co6 2.262 1_455 S
O21 Co12 2.097 1_455 S
O21 C13 1.253 . S
O22 Co6 1.958 . S
O22 C40 1.278 . S
O23 Co0 1.950 . S
O23 C27 1.277 . S
O24 Co0 2.057 1_655 S
O24 C39 1.263 . S
O25 Co12 2.042 . S
O25 C40 1.237 . S
O26 Co6 2.057 1_455 S
O26 C13 1.263 . S
C27 O17 1.221 . S
C27 O23 1.277 . S
C28 C11 1.361 1_455 S
C28 H29 0.960 . S
C28 H30 0.961 . S
C28 H31 0.961 . S
H29 C28 0.960 . S
H30 C28 0.961 . S
H31 C28 0.961 . S
C32 O16 1.221 . S
C32 O20 1.277 . S
C33 O18 1.237 . S
C33 O19 1.278 . S
H34 C2 0.931 1_655 S
H35 C38 0.961 . S
H36 C38 0.961 . S
H37 C38 0.960 . S
C38 C4 1.361 . S
C38 H35 0.961 . S
C38 H36 0.961 . S
C38 H37 0.960 . S
C39 O15 1.253 . S
C39 O24 1.263 . S
C40 O22 1.278 . S
C40 O25 1.237 . S
H41 C5 0.930 . S
H42 C9 0.930 . S
Co43 N44 2.034 . S
Co43 O58 2.262 1_455 S
Co43 O62 1.958 1_455 S
Co43 O66 1.950 . S
Co43 O67 2.057 1_455 S
N44 Co43 2.034 . S
N44 C45 1.366 . S
N44 C47 1.332 . S
C45 N44 1.366 . S
C45 C48 1.377 . S
C45 H77 0.931 1_455 S
N46 C47 1.346 . S
N46 C48 1.337 . S
C47 N44 1.332 . S
C47 N46 1.346 . S
C47 C81 1.361 . S
C48 C45 1.377 . S
C48 N46 1.337 . S
C48 H84 0.930 . S
Co49 N50 2.034 . S
Co49 O63 1.950 1_655 S
Co49 O64 2.262 1_655 S
Co49 O65 1.958 . S
Co49 O69 2.057 1_655 S
N50 Co49 2.034 . S
N50 C53 1.366 . S
N50 C54 1.332 1_556 S
N51 C52 1.337 . S
N51 C54 1.346 . S
C52 N51 1.337 . S
C52 C53 1.377 1_554 S
C52 H85 0.930 . S
C53 N50 1.366 . S
C53 C52 1.377 1_556 S
C53 H57 0.931 . S
C54 N50 1.332 1_554 S
C54 N51 1.346 . S
C54 C71 1.361 1_655 S
Co55 O58 2.097 . S
Co55 O59 2.065 1_655 S
Co55 O60 2.065 1_655 S
Co55 O61 2.042 . S
Co55 O64 2.097 1_655 S
Co55 O68 2.042 . S
C56 O64 1.253 . S
C56 O69 1.263 . S
H57 C53 0.931 . S
O58 Co43 2.262 1_655 S
O58 Co55 2.097 . S
O58 C82 1.253 . S
O59 Co55 2.065 1_455 S
O59 C75 1.221 . S
O60 Co55 2.065 1_455 S
O60 C70 1.221 . S
O61 Co55 2.042 . S
O61 C76 1.237 . S
O62 Co43 1.958 1_655 S
O62 C76 1.278 . S
O63 Co49 1.950 1_455 S
O63 C75 1.277 . S
O64 Co49 2.262 1_455 S
O64 Co55 2.097 1_455 S
O64 C56 1.253 . S
O65 Co49 1.958 . S
O65 C83 1.278 . S
O66 Co43 1.950 . S
O66 C70 1.277 . S
O67 Co43 2.057 1_655 S
O67 C82 1.263 . S
O68 Co55 2.042 . S
O68 C83 1.237 . S
O69 Co49 2.057 1_455 S
O69 C56 1.263 . S
C70 O60 1.221 . S
C70 O66 1.277 . S
C71 C54 1.361 1_455 S
C71 H72 0.940 1_554 S
C71 H73 0.961 . S
C71 H74 0.961 . S
H72 C71 0.940 1_556 S
H73 C71 0.961 . S
H74 C71 0.961 . S
C75 O59 1.221 . S
C75 O63 1.277 . S
C76 O61 1.237 . S
C76 O62 1.278 . S
H77 C45 0.931 1_655 S
H78 C81 0.961 . S
H79 C81 0.961 . S
H80 C81 0.960 . S
C81 C47 1.361 . S
C81 H78 0.961 . S
C81 H79 0.961 . S
C81 H80 0.960 . S
C82 O58 1.253 . S
C82 O67 1.263 . S
C83 O65 1.278 . S
C83 O68 1.237 . S
H84 C48 0.930 . S
H85 C52 0.930 . S
Co86 N87 2.034 . S
Co86 O101 2.262 . S
Co86 O105 1.958 . S
Co86 O109 1.950 . S
Co86 O110 2.057 . S
N87 Co86 2.034 . S
N87 C88 1.366 1_554 S
N87 C90 1.332 . S
C88 N87 1.366 1_556 S
C88 C91 1.377 . S
C88 H120 0.931 . S
N89 C90 1.346 1_556 S
N89 C91 1.337 . S
C90 N87 1.332 . S
C90 N89 1.346 1_554 S
C90 C124 1.361 . S
C91 C88 1.377 . S
C91 N89 1.337 . S
C91 H127 0.930 . S
Co92 N93 2.034 . S
Co92 O106 1.950 . S
Co92 O107 2.262 . S
Co92 O108 1.958 . S
Co92 O112 2.057 . S
N93 Co92 2.034 . S
N93 C96 1.366 . S
N93 C97 1.332 . S
N94 C95 1.337 . S
N94 C97 1.346 . S
C95 N94 1.337 . S
C95 C96 1.377 . S
C95 H128 0.930 . S
C96 N93 1.366 . S
C96 C95 1.377 . S
C96 H100 0.931 . S
C97 N93 1.332 . S
C97 N94 1.346 . S
C97 C114 1.361 . S
Co98 O101 2.097 . S
Co98 O102 2.065 . S
Co98 O103 2.065 . S
Co98 O104 2.042 . S
Co98 O107 2.097 . S
Co98 O111 2.042 . S
C99 O107 1.253 . S
C99 O112 1.263 . S
H100 C96 0.931 . S
O101 Co86 2.262 . S
O101 Co98 2.097 . S
O101 C125 1.253 . S
O102 Co98 2.065 . S
O102 C118 1.221 . S
O103 Co98 2.065 . S
O103 C113 1.221 . S
O104 Co98 2.042 . S
O104 C119 1.237 . S
O105 Co86 1.958 . S
O105 C119 1.278 . S
O106 Co92 1.950 . S
O106 C118 1.277 . S
O107 Co92 2.262 . S
O107 Co98 2.097 . S
O107 C99 1.253 . S
O108 Co92 1.958 . S
O108 C126 1.278 . S
O109 Co86 1.950 . S
O109 C113 1.277 . S
O110 Co86 2.057 . S
O110 C125 1.263 . S
O111 Co98 2.042 . S
O111 C126 1.237 . S
O112 Co92 2.057 . S
O112 C99 1.263 . S
C113 O103 1.221 . S
C113 O109 1.277 . S
C114 C97 1.361 . S
C114 H115 0.960 . S
C114 H116 0.961 . S
C114 H117 0.961 . S
H115 C114 0.960 . S
H116 C114 0.961 . S
H117 C114 0.961 . S
C118 O102 1.221 . S
C118 O106 1.277 . S
C119 O104 1.237 . S
C119 O105 1.278 . S
H120 C88 0.931 . S
H121 C124 0.961 . S
H122 C124 0.961 . S
H123 C124 0.960 . S
C124 C90 1.361 . S
C124 H121 0.961 . S
C124 H122 0.961 . S
C124 H123 0.960 . S
C125 O101 1.253 . S
C125 O110 1.263 . S
C126 O108 1.278 . S
C126 O111 1.237 . S
H127 C91 0.930 . S
H128 C95 0.930 . S
Co129 N130 2.034 . S
Co129 O144 2.262 . S
Co129 O148 1.958 . S
Co129 O152 1.950 . S
Co129 O153 2.057 . S
N130 Co129 2.034 . S
N130 C131 1.366 . S
N130 C133 1.332 . S
C131 N130 1.366 . S
C131 C134 1.377 . S
C131 H163 0.931 . S
N132 C133 1.346 . S
N132 C134 1.337 . S
C133 N130 1.332 . S
C133 N132 1.346 . S
C133 C167 1.361 . S
C134 C131 1.377 . S
C134 N132 1.337 . S
C134 H170 0.930 . S
Co135 N136 2.034 . S
Co135 O149 1.950 . S
Co135 O150 2.262 . S
Co135 O151 1.958 . S
Co135 O155 2.057 . S
N136 Co135 2.034 . S
N136 C139 1.366 . S
N136 C140 1.332 1_556 S
N137 C138 1.337 . S
N137 C140 1.346 . S
C138 N137 1.337 . S
C138 C139 1.377 1_554 S
C138 H171 0.930 . S
C139 N136 1.366 . S
C139 C138 1.377 1_556 S
C139 H143 0.931 . S
C140 N136 1.332 1_554 S
C140 N137 1.346 . S
C140 C157 1.361 . S
Co141 O144 2.097 . S
Co141 O145 2.065 . S
Co141 O146 2.065 . S
Co141 O147 2.042 . S
Co141 O150 2.097 . S
Co141 O154 2.042 . S
C142 O150 1.253 . S
C142 O155 1.263 . S
H143 C139 0.931 . S
O144 Co129 2.262 . S
O144 Co141 2.097 . S
O144 C168 1.253 . S
O145 Co141 2.065 . S
O145 C161 1.221 . S
O146 Co141 2.065 . S
O146 C156 1.221 . S
O147 Co141 2.042 . S
O147 C162 1.237 . S
O148 Co129 1.958 . S
O148 C162 1.278 . S
O149 Co135 1.950 . S
O149 C161 1.277 . S
O150 Co135 2.262 . S
O150 Co141 2.097 . S
O150 C142 1.253 . S
O151 Co135 1.958 . S
O151 C169 1.278 . S
O152 Co129 1.950 . S
O152 C156 1.277 . S
O153 Co129 2.057 . S
O153 C168 1.263 . S
O154 Co141 2.042 . S
O154 C169 1.237 . S
O155 Co135 2.057 . S
O155 C142 1.263 . S
C156 O146 1.221 . S
C156 O152 1.277 . S
C157 C140 1.361 . S
C157 H158 0.940 1_554 S
C157 H159 0.961 . S
C157 H160 0.961 . S
H158 C157 0.940 1_556 S
H159 C157 0.961 . S
H160 C157 0.961 . S
C161 O145 1.221 . S
C161 O149 1.277 . S
C162 O147 1.237 . S
C162 O148 1.278 . S
H163 C131 0.931 . S
H164 C167 0.961 . S
H165 C167 0.961 . S
H166 C167 0.960 . S
C167 C133 1.361 . S
C167 H164 0.961 . S
C167 H165 0.961 . S
C167 H166 0.960 . S
C168 O144 1.253 . S
C168 O153 1.263 . S
C169 O151 1.278 . S
C169 O154 1.237 . S
H170 C134 0.930 . S
H171 C138 0.930 . S
H172 C180 0.950 1_655 S
H173 C185 0.950 . S
H174 C182 0.950 . S
H175 C184 0.950 . S
H176 C186 0.950 . S
H177 C188 0.950 . S
H178 C190 0.950 . S
H179 C191 0.950 . S
C180 H172 0.950 1_455 S
C180 C181 1.386 . S
C180 C182 1.391 1_455 S
C181 C180 1.386 . S
C181 C185 1.393 . S
C182 H174 0.950 . S
C182 C180 1.391 1_655 S
C182 C183 1.400 1_655 S
C183 C182 1.400 1_455 S
C183 C184 1.398 . S
C183 C189 1.491 . S
C184 H175 0.950 . S
C184 C183 1.398 . S
C184 C185 1.391 . S
C185 H173 0.950 . S
C185 C181 1.393 . S
C185 C184 1.391 . S
C186 H176 0.950 . S
C186 C187 1.386 1_455 S
C186 C188 1.391 . S
C187 C186 1.386 1_655 S
C187 C191 1.393 . S
C188 H177 0.950 . S
C188 C186 1.391 . S
C188 C189 1.400 . S
C189 C183 1.491 . S
C189 C188 1.400 . S
C189 C190 1.398 1_455 S
C190 H178 0.950 . S
C190 C189 1.398 1_655 S
C190 C191 1.391 . S
C191 H179 0.950 . S
C191 C187 1.393 . S
C191 C190 1.391 . S
H192 C200 0.950 . S
H193 C205 0.950 . S
H194 C202 0.950 1_655 S
H195 C204 0.950 . S
H196 C206 0.950 . S
H197 C208 0.950 . S
H198 C210 0.950 . S
H199 C211 0.950 . S
C200 H192 0.950 . S
C200 C201 1.386 . S
C200 C202 1.391 . S
C201 C200 1.386 . S
C201 C205 1.393 . S
C202 H194 0.950 1_455 S
C202 C200 1.391 . S
C202 C203 1.400 . S
C203 C202 1.400 . S
C203 C204 1.398 . S
C203 C209 1.491 . S
C204 H195 0.950 . S
C204 C203 1.398 . S
C204 C205 1.391 . S
C205 H193 0.950 . S
C205 C201 1.393 . S
C205 C204 1.391 . S
C206 H196 0.950 . S
C206 C207 1.386 1_455 S
C206 C208 1.391 . S
C207 C206 1.386 1_655 S
C207 C211 1.393 . S
C208 H197 0.950 . S
C208 C206 1.391 . S
C208 C209 1.400 . S
C209 C203 1.491 . S
C209 C208 1.400 . S
C209 C210 1.398 1_455 S
C210 H198 0.950 . S
C210 C209 1.398 1_655 S
C210 C211 1.391 . S
C211 H199 0.950 . S
C211 C207 1.393 . S
C211 C210 1.391 . S
H212 C220 0.950 . S
H213 C225 0.950 . S
H214 C222 0.950 . S
H215 C224 0.950 . S
H216 C226 0.950 . S
H217 C228 0.950 . S
H218 C230 0.950 . S
H219 C231 0.950 . S
C220 H212 0.950 . S
C220 C221 1.386 . S
C220 C222 1.391 . S
C221 C220 1.386 . S
C221 C225 1.393 . S
C222 H214 0.950 . S
C222 C220 1.391 . S
C222 C223 1.400 . S
C223 C222 1.400 . S
C223 C224 1.398 . S
C223 C229 1.491 . S
C224 H215 0.950 . S
C224 C223 1.398 . S
C224 C225 1.391 . S
C225 H213 0.950 . S
C225 C221 1.393 . S
C225 C224 1.391 . S
C226 H216 0.950 . S
C226 C227 1.386 . S
C226 C228 1.391 . S
C227 C226 1.386 . S
C227 C231 1.393 . S
C228 H217 0.950 . S
C228 C226 1.391 . S
C228 C229 1.400 . S
C229 C223 1.491 . S
C229 C228 1.400 . S
C229 C230 1.398 . S
C230 H218 0.950 . S
C230 C229 1.398 . S
C230 C231 1.391 . S
C231 H219 0.950 . S
C231 C227 1.393 . S
C231 C230 1.391 . S
H232 C240 0.950 . S
H233 C245 0.950 . S
H234 C242 0.950 . S
H235 C244 0.950 . S
H236 C246 0.950 . S
H237 C248 0.950 . S
H238 C250 0.950 . S
H239 C251 0.950 . S
C240 H232 0.950 . S
C240 C241 1.386 . S
C240 C242 1.391 . S
C241 C240 1.386 . S
C241 C245 1.393 . S
C242 H234 0.950 . S
C242 C240 1.391 . S
C242 C243 1.400 . S
C243 C242 1.400 . S
C243 C244 1.398 . S
C243 C249 1.491 . S
C244 H235 0.950 . S
C244 C243 1.398 . S
C244 C245 1.391 . S
C245 H233 0.950 . S
C245 C241 1.393 . S
C245 C244 1.391 . S
C246 H236 0.950 . S
C246 C247 1.386 . S
C246 C248 1.391 . S
C247 C246 1.386 . S
C247 C251 1.393 . S
C248 H237 0.950 . S
C248 C246 1.391 . S
C248 C249 1.400 . S
C249 C243 1.491 . S
C249 C248 1.400 . S
C249 C250 1.398 . S
C250 H238 0.950 . S
C250 C249 1.398 . S
C250 C251 1.391 . S
C251 H239 0.950 . S
C251 C247 1.393 . S
C251 C250 1.391 . S
H252 C260 0.950 . S
H253 C265 0.950 . S
H254 C262 0.950 . S
H255 C264 0.950 . S
H256 C266 0.950 . S
H257 C268 0.950 . S
H258 C270 0.950 . S
H259 C271 0.950 . S
C260 H252 0.950 . S
C260 C261 1.386 . S
C260 C262 1.391 . S
C261 C260 1.386 . S
C261 C265 1.393 . S
C262 H254 0.950 . S
C262 C260 1.391 . S
C262 C263 1.400 . S
C263 C262 1.400 . S
C263 C264 1.398 . S
C263 C269 1.491 . S
C264 H255 0.950 . S
C264 C263 1.398 . S
C264 C265 1.391 . S
C265 H253 0.950 . S
C265 C261 1.393 . S
C265 C264 1.391 . S
C266 H256 0.950 . S
C266 C267 1.386 . S
C266 C268 1.391 . S
C267 C266 1.386 . S
C267 C271 1.393 . S
C268 H257 0.950 . S
C268 C266 1.391 . S
C268 C269 1.400 . S
C269 C263 1.491 . S
C269 C268 1.400 . S
C269 C270 1.398 . S
C270 H258 0.950 . S
C270 C269 1.398 . S
C270 C271 1.391 . S
C271 H259 0.950 . S
C271 C267 1.393 . S
C271 C270 1.391 . S
H272 C280 0.950 . S
H273 C285 0.950 . S
H274 C282 0.950 . S
H275 C284 0.950 . S
H276 C286 0.950 . S
H277 C288 0.950 . S
H278 C290 0.950 . S
H279 C291 0.950 . S
C280 H272 0.950 . S
C280 C281 1.386 . S
C280 C282 1.391 . S
C281 C280 1.386 . S
C281 C285 1.393 . S
C282 H274 0.950 . S
C282 C280 1.391 . S
C282 C283 1.400 . S
C283 C282 1.400 . S
C283 C284 1.398 . S
C283 C289 1.491 . S
C284 H275 0.950 . S
C284 C283 1.398 . S
C284 C285 1.391 . S
C285 H273 0.950 . S
C285 C281 1.393 . S
C285 C284 1.391 . S
C286 H276 0.950 . S
C286 C287 1.386 . S
C286 C288 1.391 . S
C287 C286 1.386 . S
C287 C291 1.393 . S
C288 H277 0.950 . S
C288 C286 1.391 . S
C288 C289 1.400 . S
C289 C283 1.491 . S
C289 C288 1.400 . S
C289 C290 1.398 . S
C290 H278 0.950 . S
C290 C289 1.398 . S
C290 C291 1.391 . S
C291 H279 0.950 . S
C291 C287 1.393 . S
C291 C290 1.391 . S
H292 C300 0.950 . S
H293 C305 0.950 . S
H294 C302 0.950 . S
H295 C304 0.950 . S
H296 C306 0.950 . S
H297 C308 0.950 . S
H298 C310 0.950 1_655 S
H299 C311 0.950 . S
C300 H292 0.950 . S
C300 C301 1.386 . S
C300 C302 1.391 . S
C301 C300 1.386 . S
C301 C305 1.393 . S
C302 H294 0.950 . S
C302 C300 1.391 . S
C302 C303 1.400 . S
C303 C302 1.400 . S
C303 C304 1.398 . S
C303 C309 1.491 1_655 S
C304 H295 0.950 . S
C304 C303 1.398 . S
C304 C305 1.391 . S
C305 H293 0.950 . S
C305 C301 1.393 . S
C305 C304 1.391 . S
C306 H296 0.950 . S
C306 C307 1.386 . S
C306 C308 1.391 . S
C307 C306 1.386 . S
C307 C311 1.393 . S
C308 H297 0.950 . S
C308 C306 1.391 . S
C308 C309 1.400 . S
C309 C303 1.491 1_455 S
C309 C308 1.400 . S
C309 C310 1.398 . S
C310 H298 0.950 1_455 S
C310 C309 1.398 . S
C310 C311 1.391 . S
C311 H299 0.950 . S
C311 C307 1.393 . S
C311 C310 1.391 . S
H312 C320 0.950 . S
H313 C325 0.950 . S
H314 C322 0.950 . S
H315 C324 0.950 . S
H316 C326 0.950 . S
H317 C328 0.950 . S
H318 C330 0.950 . S
H319 C331 0.950 . S
C320 H312 0.950 . S
C320 C321 1.386 . S
C320 C322 1.391 . S
C321 C320 1.386 . S
C321 C325 1.393 . S
C322 H314 0.950 . S
C322 C320 1.391 . S
C322 C323 1.400 . S
C323 C322 1.400 . S
C323 C324 1.398 . S
C323 C329 1.491 1_655 S
C324 H315 0.950 . S
C324 C323 1.398 . S
C324 C325 1.391 . S
C325 H313 0.950 . S
C325 C321 1.393 . S
C325 C324 1.391 . S
C326 H316 0.950 . S
C326 C327 1.386 . S
C326 C328 1.391 . S
C327 C326 1.386 . S
C327 C331 1.393 . S
C328 H317 0.950 . S
C328 C326 1.391 . S
C328 C329 1.400 . S
C329 C323 1.491 1_455 S
C329 C328 1.400 . S
C329 C330 1.398 . S
C330 H318 0.950 . S
C330 C329 1.398 . S
C330 C331 1.391 . S
C331 H319 0.950 . S
C331 C327 1.393 . S
C331 C330 1.391 . S
H332 C340 0.950 . S
H333 C345 0.950 . S
H334 C342 0.950 . S
H335 C344 0.950 . S
H336 C346 0.950 . S
H337 C348 0.950 . S
H338 C350 0.950 . S
H339 C351 0.950 . S
C340 H332 0.950 . S
C340 C341 1.386 . S
C340 C342 1.391 . S
C341 C340 1.386 . S
C341 C345 1.393 . S
C342 H334 0.950 . S
C342 C340 1.391 . S
C342 C343 1.400 . S
C343 C342 1.400 . S
C343 C344 1.398 . S
C343 C349 1.491 . S
C344 H335 0.950 . S
C344 C343 1.398 . S
C344 C345 1.391 . S
C345 H333 0.950 . S
C345 C341 1.393 . S
C345 C344 1.391 . S
C346 H336 0.950 . S
C346 C347 1.386 . S
C346 C348 1.391 . S
C347 C346 1.386 . S
C347 C351 1.393 . S
C348 H337 0.950 . S
C348 C346 1.391 . S
C348 C349 1.400 . S
C349 C343 1.491 . S
C349 C348 1.400 . S
C349 C350 1.398 . S
C350 H338 0.950 . S
C350 C349 1.398 . S
C350 C351 1.391 . S
C351 H339 0.950 . S
C351 C347 1.393 . S
C351 C350 1.391 . S
H352 C360 0.950 . S
H353 C365 0.950 . S
H354 C362 0.950 . S
H355 C364 0.950 . S
H356 C366 0.950 . S
H357 C368 0.950 . S
H358 C370 0.950 . S
H359 C371 0.950 . S
C360 H352 0.950 . S
C360 C361 1.386 . S
C360 C362 1.391 . S
C361 C360 1.386 . S
C361 C365 1.393 . S
C362 H354 0.950 . S
C362 C360 1.391 . S
C362 C363 1.400 . S
C363 C362 1.400 . S
C363 C364 1.398 . S
C363 C369 1.491 1_556 S
C364 H355 0.950 . S
C364 C363 1.398 . S
C364 C365 1.391 . S
C365 H353 0.950 . S
C365 C361 1.393 . S
C365 C364 1.391 . S
C366 H356 0.950 . S
C366 C367 1.386 . S
C366 C368 1.391 . S
C367 C366 1.386 . S
C367 C371 1.393 . S
C368 H357 0.950 . S
C368 C366 1.391 . S
C368 C369 1.400 . S
C369 C363 1.491 1_554 S
C369 C368 1.400 . S
C369 C370 1.398 . S
C370 H358 0.950 . S
C370 C369 1.398 . S
C370 C371 1.391 . S
C371 H359 0.950 . S
C371 C367 1.393 . S
C371 C370 1.391 . S
H372 C380 0.950 . S
H373 C385 0.950 . S
H374 C382 0.950 . S
H375 C384 0.950 . S
H376 C386 0.950 . S
H377 C388 0.950 . S
H378 C390 0.950 . S
H379 C391 0.950 . S
C380 H372 0.950 . S
C380 C381 1.386 . S
C380 C382 1.391 . S
C381 C380 1.386 . S
C381 C385 1.393 . S
C382 H374 0.950 . S
C382 C380 1.391 . S
C382 C383 1.400 . S
C383 C382 1.400 . S
C383 C384 1.398 . S
C383 C389 1.491 . S
C384 H375 0.950 . S
C384 C383 1.398 . S
C384 C385 1.391 . S
C385 H373 0.950 . S
C385 C381 1.393 . S
C385 C384 1.391 . S
C386 H376 0.950 . S
C386 C387 1.386 . S
C386 C388 1.391 . S
C387 C386 1.386 . S
C387 C391 1.393 . S
C388 H377 0.950 . S
C388 C386 1.391 . S
C388 C389 1.400 . S
C389 C383 1.491 . S
C389 C388 1.400 . S
C389 C390 1.398 . S
C390 H378 0.950 . S
C390 C389 1.398 . S
C390 C391 1.391 . S
C391 H379 0.950 . S
C391 C387 1.393 . S
C391 C390 1.391 . S
H392 C400 0.950 . S
H393 C405 0.950 . S
H394 C402 0.950 . S
H395 C404 0.950 . S
H396 C406 0.950 . S
H397 C408 0.950 . S
H398 C410 0.950 . S
H399 C411 0.950 . S
C400 H392 0.950 . S
C400 C401 1.386 . S
C400 C402 1.391 . S
C401 C400 1.386 . S
C401 C405 1.393 . S
C402 H394 0.950 . S
C402 C400 1.391 . S
C402 C403 1.400 . S
C403 C402 1.400 . S
C403 C404 1.398 . S
C403 C409 1.491 1_554 S
C404 H395 0.950 . S
C404 C403 1.398 . S
C404 C405 1.391 . S
C405 H393 0.950 . S
C405 C401 1.393 . S
C405 C404 1.391 . S
C406 H396 0.950 . S
C406 C407 1.386 . S
C406 C408 1.391 . S
C407 C406 1.386 . S
C407 C411 1.393 . S
C408 H397 0.950 . S
C408 C406 1.391 . S
C408 C409 1.400 . S
C409 C403 1.491 1_556 S
C409 C408 1.400 . S
C409 C410 1.398 . S
C410 H398 0.950 . S
C410 C409 1.398 . S
C410 C411 1.391 . S
C411 H399 0.950 . S
C411 C407 1.393 . S
C411 C410 1.391 . S
H412 C420 0.950 . S
H413 C425 0.950 . S
H414 C422 0.949 1_556 S
H415 C424 0.950 . S
H416 C426 0.950 . S
H417 C428 0.950 1_654 S
H418 C430 0.950 1_545 S
H419 C431 0.950 . S
C420 H412 0.950 . S
C420 C421 1.386 . S
C420 C422 1.391 . S
C421 C420 1.386 . S
C421 C425 1.393 . S
C422 H414 0.949 1_554 S
C422 C420 1.391 . S
C422 C423 1.400 . S
C423 C422 1.400 . S
C423 C424 1.398 1_545 S
C423 C429 1.491 1_644 S
C424 H415 0.950 . S
C424 C423 1.398 1_565 S
C424 C425 1.391 1_565 S
C425 H413 0.950 . S
C425 C421 1.393 . S
C425 C424 1.391 1_545 S
C426 H416 0.950 . S
C426 C427 1.386 . S
C426 C428 1.391 . S
C427 C426 1.386 . S
C427 C431 1.393 . S
C428 H417 0.950 1_456 S
C428 C426 1.391 . S
C428 C429 1.400 . S
C429 C423 1.491 1_466 S
C429 C428 1.400 . S
C429 C430 1.398 . S
C430 H418 0.950 1_565 S
C430 C429 1.398 . S
C430 C431 1.391 . S
C431 H419 0.950 . S
C431 C427 1.393 . S
C431 C430 1.391 . S
H432 C440 0.950 1_655 S
H433 C445 0.950 . S
H434 C442 0.950 1_565 S
H435 C444 0.950 . S
H436 C446 0.950 1_455 S
H437 C448 0.950 1_545 S
H438 C450 0.950 . S
H439 C451 0.950 . S
C440 H432 0.950 1_455 S
C440 C441 1.386 . S
C440 C442 1.391 1_455 S
C441 C440 1.386 . S
C441 C445 1.393 . S
C442 H434 0.950 1_545 S
C442 C440 1.391 1_655 S
C442 C443 1.400 1_655 S
C443 C442 1.400 1_455 S
C443 C444 1.398 . S
C443 C449 1.491 1_445 S
C444 H435 0.950 . S
C444 C443 1.398 . S
C444 C445 1.391 . S
C445 H433 0.950 . S
C445 C441 1.393 . S
C445 C444 1.391 . S
C446 H436 0.950 1_655 S
C446 C447 1.386 . S
C446 C448 1.391 1_655 S
C447 C446 1.386 . S
C447 C451 1.393 . S
C448 H437 0.950 1_565 S
C448 C446 1.391 1_455 S
C448 C449 1.400 1_455 S
C449 C443 1.491 1_665 S
C449 C448 1.400 1_655 S
C449 C450 1.398 . S
C450 H438 0.950 . S
C450 C449 1.398 . S
C450 C451 1.391 . S
C451 H439 0.950 . S
C451 C447 1.393 . S
C451 C450 1.391 . S
H452 C460 0.950 . S
H453 C465 0.950 . S
H454 C462 0.950 . S
H455 C464 0.950 1_556 S
H456 C466 0.950 . S
H457 C468 0.950 . S
H458 C470 0.950 1_554 S
H459 C471 0.950 . S
C460 H452 0.950 . S
C460 C461 1.386 . S
C460 C462 1.391 . S
C461 C460 1.386 . S
C461 C465 1.393 . S
C462 H454 0.950 . S
C462 C460 1.391 . S
C462 C463 1.400 . S
C463 C462 1.400 . S
C463 C464 1.398 . S
C463 C469 1.491 1_554 S
C464 H455 0.950 1_554 S
C464 C463 1.398 . S
C464 C465 1.391 . S
C465 H453 0.950 . S
C465 C461 1.393 . S
C465 C464 1.391 . S
C466 H456 0.950 . S
C466 C467 1.386 . S
C466 C468 1.391 . S
C467 C466 1.386 . S
C467 C471 1.393 . S
C468 H457 0.950 . S
C468 C466 1.391 . S
C468 C469 1.400 . S
C469 C463 1.491 1_556 S
C469 C468 1.400 . S
C469 C470 1.398 . S
C470 H458 0.950 1_556 S
C470 C469 1.398 . S
C470 C471 1.391 . S
C471 H459 0.950 . S
C471 C467 1.393 . S
C471 C470 1.391 . S
H472 C480 0.950 . S
H473 C485 0.950 . S
H474 C482 0.950 . S
H475 C484 0.950 . S
H476 C486 0.950 . S
H477 C488 0.950 . S
H478 C490 0.950 . S
H479 C491 0.950 . S
C480 H472 0.950 . S
C480 C481 1.386 . S
C480 C482 1.391 . S
C481 C480 1.386 . S
C481 C485 1.393 . S
C482 H474 0.950 . S
C482 C480 1.391 . S
C482 C483 1.400 . S
C483 C482 1.400 . S
C483 C484 1.398 . S
C483 C489 1.491 . S
C484 H475 0.950 . S
C484 C483 1.398 . S
C484 C485 1.391 . S
C485 H473 0.950 . S
C485 C481 1.393 . S
C485 C484 1.391 . S
C486 H476 0.950 . S
C486 C487 1.386 . S
C486 C488 1.391 . S
C487 C486 1.386 . S
C487 C491 1.393 . S
C488 H477 0.950 . S
C488 C486 1.391 . S
C488 C489 1.400 . S
C489 C483 1.491 . S
C489 C488 1.400 . S
C489 C490 1.398 . S
C490 H478 0.950 . S
C490 C489 1.398 . S
C490 C491 1.391 . S
C491 H479 0.950 . S
C491 C487 1.393 . S
C491 C490 1.391 . S
C181 N3 1.190 . S
C187 N8 1.240 . S
C201 N46 1.190 . S
C207 N51 1.249 . S
C221 N89 1.162 . S
C227 N94 1.224 . S
C241 N137 1.238 . S
C247 N132 1.188 . S
C261 C40 1.175 . S
C267 C27 1.176 . S
C281 C83 1.209 . S
C287 C70 1.207 . S
C301 C113 1.207 . S
C307 C126 1.202 . S
C321 C156 1.212 . S
C327 C169 1.210 . S
C341 C162 1.521 . S
C347 C32 1.527 . S
C361 C142 1.567 . S
C367 C39 1.562 . S
C381 C118 1.531 . S
C387 C76 1.520 . S
C401 C125 1.563 . S
C407 C56 1.569 . S
C421 C33 1.820 . S
C427 C75 1.790 . S
C441 C13 1.842 . S
C447 C82 1.870 . S
C461 C119 1.842 . S
C467 C161 1.814 . S
C481 C168 1.842 . S
C487 C99 1.814 . S
