# Generated by pormake.
# Topology fcp, (5)-cn, num edge types: 1
# Building blocks:
#     Node 0, Type 0, BuildingBlock: XOMCOT_clean_sbu_1, # of connection points: 5
#     Node 1, Type 0, BuildingBlock: XOMCOT_clean_sbu_1, # of connection points: 5
#     Node 2, Type 0, BuildingBlock: XOMCOT_clean_sbu_1, # of connection points: 5
#     Node 3, Type 0, BuildingBlock: XOMCOT_clean_sbu_1, # of connection points: 5
#     Node 4, Type 0, BuildingBlock: XOMCOT_clean_sbu_1, # of connection points: 5
#     Node 5, Type 0, BuildingBlock: XOMCOT_clean_sbu_1, # of connection points: 5
#     Node 6, Type 0, BuildingBlock: XOMCOT_clean_sbu_1, # of connection points: 5
#     Node 7, Type 0, BuildingBlock: XOMCOT_clean_sbu_1, # of connection points: 5
#     Node 8, Type 0, BuildingBlock: XOMCOT_clean_sbu_1, # of connection points: 5
#     Node 9, Type 0, BuildingBlock: XOMCOT_clean_sbu_1, # of connection points: 5
#     Node 10, Type 0, BuildingBlock: XOMCOT_clean_sbu_1, # of connection points: 5
#     Node 11, Type 0, BuildingBlock: XOMCOT_clean_sbu_1, # of connection points: 5
#     Node 12, Type 0, BuildingBlock: XOMCOT_clean_sbu_1, # of connection points: 5
#     Node 13, Type 0, BuildingBlock: XOMCOT_clean_sbu_1, # of connection points: 5
#     Node 14, Type 0, BuildingBlock: XOMCOT_clean_sbu_1, # of connection points: 5
#     Node 15, Type 0, BuildingBlock: XOMCOT_clean_sbu_1, # of connection points: 5
#     Node 16, Type 0, BuildingBlock: XOMCOT_clean_sbu_1, # of connection points: 5
#     Node 17, Type 0, BuildingBlock: XOMCOT_clean_sbu_1, # of connection points: 5
#     Node 18, Type 0, BuildingBlock: XOMCOT_clean_sbu_1, # of connection points: 5
#     Node 19, Type 0, BuildingBlock: XOMCOT_clean_sbu_1, # of connection points: 5
#     Node 20, Type 0, BuildingBlock: XOMCOT_clean_sbu_1, # of connection points: 5
#     Node 21, Type 0, BuildingBlock: XOMCOT_clean_sbu_1, # of connection points: 5
#     Node 22, Type 0, BuildingBlock: XOMCOT_clean_sbu_1, # of connection points: 5
#     Node 23, Type 0, BuildingBlock: XOMCOT_clean_sbu_1, # of connection points: 5
#     Edge 24, Type (0, 0), BuildingBlock: CIFDUS_clean_linker_0, # of connection points: 2
#     Edge 25, Type (0, 0), BuildingBlock: CIFDUS_clean_linker_0, # of connection points: 2
#     Edge 26, Type (0, 0), BuildingBlock: CIFDUS_clean_linker_0, # of connection points: 2
#     Edge 27, Type (0, 0), BuildingBlock: CIFDUS_clean_linker_0, # of connection points: 2
#     Edge 28, Type (0, 0), BuildingBlock: CIFDUS_clean_linker_0, # of connection points: 2
#     Edge 29, Type (0, 0), BuildingBlock: CIFDUS_clean_linker_0, # of connection points: 2
#     Edge 30, Type (0, 0), BuildingBlock: CIFDUS_clean_linker_0, # of connection points: 2
#     Edge 31, Type (0, 0), BuildingBlock: CIFDUS_clean_linker_0, # of connection points: 2
#     Edge 32, Type (0, 0), BuildingBlock: CIFDUS_clean_linker_0, # of connection points: 2
#     Edge 33, Type (0, 0), BuildingBlock: CIFDUS_clean_linker_0, # of connection points: 2
#     Edge 34, Type (0, 0), BuildingBlock: CIFDUS_clean_linker_0, # of connection points: 2
#     Edge 35, Type (0, 0), BuildingBlock: CIFDUS_clean_linker_0, # of connection points: 2
#     Edge 36, Type (0, 0), BuildingBlock: CIFDUS_clean_linker_0, # of connection points: 2
#     Edge 37, Type (0, 0), BuildingBlock: CIFDUS_clean_linker_0, # of connection points: 2
#     Edge 38, Type (0, 0), BuildingBlock: CIFDUS_clean_linker_0, # of connection points: 2
#     Edge 39, Type (0, 0), BuildingBlock: CIFDUS_clean_linker_0, # of connection points: 2
#     Edge 40, Type (0, 0), BuildingBlock: CIFDUS_clean_linker_0, # of connection points: 2
#     Edge 41, Type (0, 0), BuildingBlock: CIFDUS_clean_linker_0, # of connection points: 2
#     Edge 42, Type (0, 0), BuildingBlock: CIFDUS_clean_linker_0, # of connection points: 2
#     Edge 43, Type (0, 0), BuildingBlock: CIFDUS_clean_linker_0, # of connection points: 2
#     Edge 44, Type (0, 0), BuildingBlock: CIFDUS_clean_linker_0, # of connection points: 2
#     Edge 45, Type (0, 0), BuildingBlock: CIFDUS_clean_linker_0, # of connection points: 2
#     Edge 46, Type (0, 0), BuildingBlock: CIFDUS_clean_linker_0, # of connection points: 2
#     Edge 47, Type (0, 0), BuildingBlock: CIFDUS_clean_linker_0, # of connection points: 2
#     Edge 48, Type (0, 0), BuildingBlock: CIFDUS_clean_linker_0, # of connection points: 2
#     Edge 49, Type (0, 0), BuildingBlock: CIFDUS_clean_linker_0, # of connection points: 2
#     Edge 50, Type (0, 0), BuildingBlock: CIFDUS_clean_linker_0, # of connection points: 2
#     Edge 51, Type (0, 0), BuildingBlock: CIFDUS_clean_linker_0, # of connection points: 2
#     Edge 52, Type (0, 0), BuildingBlock: CIFDUS_clean_linker_0, # of connection points: 2
#     Edge 53, Type (0, 0), BuildingBlock: CIFDUS_clean_linker_0, # of connection points: 2
#     Edge 54, Type (0, 0), BuildingBlock: CIFDUS_clean_linker_0, # of connection points: 2
#     Edge 55, Type (0, 0), BuildingBlock: CIFDUS_clean_linker_0, # of connection points: 2
#     Edge 56, Type (0, 0), BuildingBlock: CIFDUS_clean_linker_0, # of connection points: 2
#     Edge 57, Type (0, 0), BuildingBlock: CIFDUS_clean_linker_0, # of connection points: 2
#     Edge 58, Type (0, 0), BuildingBlock: CIFDUS_clean_linker_0, # of connection points: 2
#     Edge 59, Type (0, 0), BuildingBlock: CIFDUS_clean_linker_0, # of connection points: 2
#     Edge 60, Type (0, 0), BuildingBlock: CIFDUS_clean_linker_0, # of connection points: 2
#     Edge 61, Type (0, 0), BuildingBlock: CIFDUS_clean_linker_0, # of connection points: 2
#     Edge 62, Type (0, 0), BuildingBlock: CIFDUS_clean_linker_0, # of connection points: 2
#     Edge 63, Type (0, 0), BuildingBlock: CIFDUS_clean_linker_0, # of connection points: 2
#     Edge 64, Type (0, 0), BuildingBlock: CIFDUS_clean_linker_0, # of connection points: 2
#     Edge 65, Type (0, 0), BuildingBlock: CIFDUS_clean_linker_0, # of connection points: 2
#     Edge 66, Type (0, 0), BuildingBlock: CIFDUS_clean_linker_0, # of connection points: 2
#     Edge 67, Type (0, 0), BuildingBlock: CIFDUS_clean_linker_0, # of connection points: 2
#     Edge 68, Type (0, 0), BuildingBlock: CIFDUS_clean_linker_0, # of connection points: 2
#     Edge 69, Type (0, 0), BuildingBlock: CIFDUS_clean_linker_0, # of connection points: 2
#     Edge 70, Type (0, 0), BuildingBlock: CIFDUS_clean_linker_0, # of connection points: 2
#     Edge 71, Type (0, 0), BuildingBlock: CIFDUS_clean_linker_0, # of connection points: 2
#     Edge 72, Type (0, 0), BuildingBlock: CIFDUS_clean_linker_0, # of connection points: 2
#     Edge 73, Type (0, 0), BuildingBlock: CIFDUS_clean_linker_0, # of connection points: 2
#     Edge 74, Type (0, 0), BuildingBlock: CIFDUS_clean_linker_0, # of connection points: 2
#     Edge 75, Type (0, 0), BuildingBlock: CIFDUS_clean_linker_0, # of connection points: 2
#     Edge 76, Type (0, 0), BuildingBlock: CIFDUS_clean_linker_0, # of connection points: 2
#     Edge 77, Type (0, 0), BuildingBlock: CIFDUS_clean_linker_0, # of connection points: 2
#     Edge 78, Type (0, 0), BuildingBlock: CIFDUS_clean_linker_0, # of connection points: 2
#     Edge 79, Type (0, 0), BuildingBlock: CIFDUS_clean_linker_0, # of connection points: 2
#     Edge 80, Type (0, 0), BuildingBlock: CIFDUS_clean_linker_0, # of connection points: 2
#     Edge 81, Type (0, 0), BuildingBlock: CIFDUS_clean_linker_0, # of connection points: 2
#     Edge 82, Type (0, 0), BuildingBlock: CIFDUS_clean_linker_0, # of connection points: 2
#     Edge 83, Type (0, 0), BuildingBlock: CIFDUS_clean_linker_0, # of connection points: 2
# Relax obj value: 0.098
# Max RMSD: 0.138
# Mean RMSD: 0.138
data_MOF--net-fcp--node1-XOMCOT_clean_sbu_1--edge1-CIFDUS_clean_linker_0
_symmetry_space_group_name_H-M    P1
_symmetry_Int_Tables_number       1
_symmetry_cell_setting            triclinic
loop_
_symmetry_equiv_pos_as_xyz
'x, y, z'
_cell_length_a     45.657901
_cell_length_b     45.928123
_cell_length_c     45.681173
_cell_angle_alpha  90.087616
_cell_angle_beta   89.987139
_cell_angle_gamma 90.097907
loop_
_atom_site_label
_atom_site_type_symbol
_atom_site_fract_x
_atom_site_fract_y
_atom_site_fract_z
_atom_type_partial_charge
C0 C 0.04349 0.33126 0.16811 0.0
C1 C 0.01912 0.33611 0.18522 0.0
N2 N 0.02749 0.3509 0.20934 0.0
N3 N 0.06706 0.34326 0.18118 0.0
C4 C 0.0567 0.35476 0.20639 0.0
H5 H 0.04405 0.31981 0.1474 0.0
Co6 Co 0.10548 0.34273 0.16719 0.0
C7 C 0.11833 0.40566 0.1857 0.0
O8 O 0.11695 0.4174 0.15955 0.0
N9 N 0.14452 0.34133 0.15369 0.0
C10 C 0.18926 0.35154 0.13716 0.0
C11 C 0.16258 0.363 0.14506 0.0
C12 C 0.16069 0.31687 0.15039 0.0
N13 N 0.18805 0.32247 0.14052 0.0
O14 O 0.1168 0.32089 0.20098 0.0
H15 H 0.15686 0.38566 0.14378 0.0
H16 H 0.15254 0.2953 0.15522 0.0
O17 O 0.11421 0.37833 0.18905 0.0
C18 C 0.11053 0.29386 0.20062 0.0
O19 O 0.09717 0.28312 0.1775 0.0
N20 N 0.09328 0.36242 0.13274 0.0
C21 C 0.0683 0.38032 0.07965 0.0
C22 C 0.06035 0.39367 0.10616 0.0
C23 C 0.07293 0.38425 0.13248 0.0
C24 C 0.10112 0.34924 0.10711 0.0
C25 C 0.08934 0.35814 0.08041 0.0
H26 H 0.06532 0.39367 0.15282 0.0
H27 H 0.11549 0.33058 0.10733 0.0
H28 H 0.0703 0.36598 0.22219 0.0
H29 H 0.99705 0.32886 0.18049 0.0
H30 H 0.20783 0.36363 0.12881 0.0
H31 H 0.04396 0.41068 0.10667 0.0
H32 H 0.09544 0.34649 0.06071 0.0
C33 C 0.83549 0.48017 0.33833 0.0
C34 C 0.84286 0.504 0.32161 0.0
N35 N 0.85833 0.49468 0.29828 0.0
N36 N 0.84659 0.45601 0.32578 0.0
C37 C 0.86007 0.46549 0.30126 0.0
H38 H 0.82305 0.48037 0.35849 0.0
Co39 Co 0.84317 0.41822 0.33994 0.0
C40 C 0.90604 0.40135 0.3241 0.0
O41 O 0.91633 0.40127 0.35095 0.0
N42 N 0.83857 0.38003 0.35372 0.0
C43 C 0.84298 0.33468 0.37018 0.0
C44 C 0.85787 0.3586 0.35973 0.0
C45 C 0.81222 0.36856 0.36065 0.0
N46 N 0.81423 0.34107 0.37087 0.0
O47 O 0.82133 0.40769 0.30565 0.0
H48 H 0.88126 0.36003 0.35734 0.0
H49 H 0.7919 0.38042 0.35857 0.0
O50 O 0.87912 0.40728 0.31934 0.0
C51 C 0.79446 0.41518 0.30545 0.0
O52 O 0.78424 0.43018 0.32774 0.0
N53 N 0.86257 0.4296 0.37499 0.0
C54 C 0.87774 0.45615 0.4282 0.0
C55 C 0.89379 0.46196 0.40263 0.0
C56 C 0.88568 0.44862 0.37614 0.0
C57 C 0.8475 0.42317 0.39996 0.0
C58 C 0.8551 0.43559 0.4267 0.0
H59 H 0.89676 0.45506 0.35624 0.0
H60 H 0.82806 0.40984 0.39914 0.0
H61 H 0.87125 0.45128 0.28602 0.0
H62 H 0.83693 0.52638 0.32607 0.0
H63 H 0.85271 0.31449 0.37751 0.0
H64 H 0.91115 0.47806 0.40265 0.0
H65 H 0.84218 0.43023 0.44586 0.0
C66 C 0.99337 0.69011 0.16881 0.0
C67 C 0.01938 0.6849 0.18297 0.0
N68 N 0.01411 0.6667 0.20549 0.0
N69 N 0.97179 0.67512 0.18213 0.0
C70 C 0.98498 0.66133 0.20469 0.0
H71 H 0.99036 0.70354 0.14961 0.0
Co72 Co 0.93332 0.67463 0.16854 0.0
C73 C 0.91977 0.6123 0.18629 0.0
O74 O 0.91897 0.60209 0.15942 0.0
N75 N 0.89437 0.67587 0.15494 0.0
C76 C 0.84766 0.66889 0.14262 0.0
C77 C 0.87294 0.6557 0.15224 0.0
C78 C 0.88145 0.70103 0.14675 0.0
N79 N 0.85304 0.69749 0.1392 0.0
O80 O 0.92162 0.69674 0.20195 0.0
H81 H 0.87484 0.63291 0.15716 0.0
H82 H 0.89269 0.72176 0.14685 0.0
O83 O 0.92507 0.63926 0.19091 0.0
C84 C 0.92656 0.72402 0.20169 0.0
O85 O 0.93975 0.73544 0.17884 0.0
N86 N 0.9459 0.65425 0.13468 0.0
C87 C 0.97486 0.63626 0.08377 0.0
C88 C 0.98093 0.62314 0.11078 0.0
C89 C 0.9664 0.63258 0.13597 0.0
C90 C 0.93915 0.66662 0.10839 0.0
C91 C 0.95305 0.65769 0.08266 0.0
H92 H 0.97284 0.6235 0.1568 0.0
H93 H 0.92441 0.68494 0.10742 0.0
H94 H 0.97367 0.64695 0.21966 0.0
H95 H 0.04052 0.69388 0.17717 0.0
H96 H 0.82697 0.65814 0.13837 0.0
H97 H 0.99766 0.60656 0.11265 0.0
H98 H 0.94819 0.66895 0.06243 0.0
C99 C 0.18855 0.53652 0.34664 0.0
C100 C 0.18343 0.51292 0.32871 0.0
N101 N 0.1686 0.52214 0.30496 0.0
N102 N 0.17671 0.56044 0.3344 0.0
C103 C 0.165 0.55108 0.30891 0.0
H104 H 0.20013 0.53633 0.3673 0.0
Co105 Co 0.17782 0.59812 0.34955 0.0
C106 C 0.11532 0.61382 0.33671 0.0
O107 O 0.1094 0.61695 0.36469 0.0
N108 N 0.1804 0.63664 0.36416 0.0
C109 C 0.17646 0.68422 0.37307 0.0
C110 C 0.1628 0.66015 0.36143 0.0
C111 C 0.20491 0.64742 0.37685 0.0
N112 N 0.20304 0.67617 0.38278 0.0
O113 O 0.2008 0.61016 0.31647 0.0
H114 H 0.14199 0.66078 0.35044 0.0
H115 H 0.2242 0.63442 0.38089 0.0
O116 O 0.14134 0.60734 0.32855 0.0
C117 C 0.2277 0.6043 0.32114 0.0
O118 O 0.23453 0.59075 0.34552 0.0
N119 N 0.15775 0.58491 0.38371 0.0
C120 C 0.1407 0.5561 0.43507 0.0
C121 C 0.12647 0.55038 0.40845 0.0
C122 C 0.13549 0.56485 0.38295 0.0
C123 C 0.17105 0.59118 0.40971 0.0
C124 C 0.16245 0.57765 0.43556 0.0
H125 H 0.12567 0.55872 0.3623 0.0
H126 H 0.1899 0.6052 0.41054 0.0
H127 H 0.15386 0.56521 0.29363 0.0
H128 H 0.19055 0.4908 0.33264 0.0
H129 H 0.1676 0.70604 0.37378 0.0
H130 H 0.10987 0.53358 0.40693 0.0
H131 H 0.174 0.58293 0.4556 0.0
C132 C 0.03229 0.68402 0.84227 0.0
C133 C 1.00636 0.67741 0.82849 0.0
N134 N 0.012 0.65864 0.80649 0.0
N135 N 0.05425 0.66939 0.8292 0.0
C136 C 0.04131 0.65437 0.8072 0.0
H137 H 0.035 0.69816 0.86103 0.0
Co138 Co 0.0929 0.67076 0.84241 0.0
C139 C 0.10823 0.60882 0.82433 0.0
O140 O 0.10916 0.59816 0.85099 0.0
N141 N 0.13199 0.67371 0.85556 0.0
C142 C 0.17867 0.6678 0.86849 0.0
C143 C 0.15355 0.65392 0.85926 0.0
C144 C 0.14466 0.69936 0.86285 0.0
N145 N 0.17304 0.69646 0.87075 0.0
O146 O 0.1033 0.6929 0.80875 0.0
H147 H 0.15171 0.63088 0.85559 0.0
H148 H 0.13321 0.71993 0.86209 0.0
O149 O 0.10226 0.63566 0.82022 0.0
C150 C 0.09698 0.71986 0.80921 0.0
O151 O 0.08368 0.73054 0.83236 0.0
N152 N 0.08154 0.65042 0.87662 0.0
C153 C 0.05324 0.63327 0.92815 0.0
C154 C 0.04755 0.61898 0.9016 0.0
C155 C 0.06177 0.62799 0.87607 0.0
C156 C 0.08801 0.66386 0.90248 0.0
C157 C 0.07445 0.65538 0.92851 0.0
H158 H 0.05547 0.61809 0.85554 0.0
H159 H 0.1021 0.68275 0.90283 0.0
H160 H 0.05297 0.63988 0.79261 0.0
H161 H 0.98501 0.68585 0.83425 0.0
H162 H 0.19934 0.65746 0.87352 0.0
H163 H 0.03125 0.60186 0.90031 0.0
H164 H 0.07899 0.66754 0.94834 0.0
C165 C 0.18467 0.47724 0.6668 0.0
C166 C 0.17949 0.50136 0.68407 0.0
N167 N 0.16501 0.49261 0.70824 0.0
N168 N 0.17304 0.45359 0.67987 0.0
C169 C 0.16157 0.46361 0.70517 0.0
H170 H 0.196 0.47694 0.64601 0.0
Co171 Co 0.17332 0.41515 0.66686 0.0
C172 C 0.10922 0.40459 0.68433 0.0
O173 O 0.09692 0.40595 0.65838 0.0
N174 N 0.17408 0.37621 0.65461 0.0
C175 C 0.16349 0.33164 0.63864 0.0
C176 C 0.15223 0.35863 0.64532 0.0
C177 C 0.19836 0.35955 0.65305 0.0
N178 N 0.19256 0.33232 0.64349 0.0
O179 O 0.19349 0.4043 0.7018 0.0
H180 H 0.12968 0.36497 0.6428 0.0
H181 H 0.21997 0.36732 0.65881 0.0
O182 O 0.1368 0.40794 0.68713 0.0
C183 C 0.22062 0.41072 0.7024 0.0
O184 O 0.23217 0.42383 0.67958 0.0
N185 N 0.15564 0.42671 0.63128 0.0
C186 C 0.14783 0.45534 0.57792 0.0
C187 C 0.13017 0.46226 0.60211 0.0
C188 C 0.13454 0.4477 0.62878 0.0
C189 C 0.1715 0.4186 0.60732 0.0
C190 C 0.1675 0.43213 0.58043 0.0
H191 H 0.12303 0.45531 0.64801 0.0
H192 H 0.18933 0.40334 0.60942 0.0
H193 H 0.15067 0.44987 0.72102 0.0
H194 H 0.18625 0.52347 0.67943 0.0
H195 H 0.15136 0.31324 0.63006 0.0
H196 H 0.11505 0.48037 0.60117 0.0
H197 H 0.18151 0.42604 0.56228 0.0
C198 C 0.98482 0.33627 0.85108 0.0
C199 C 1.0078 0.34145 0.83225 0.0
N200 N 0.99734 0.35538 0.80849 0.0
N201 N 0.9601 0.34724 0.8394 0.0
C202 C 0.96835 0.35845 0.81336 0.0
H203 H 0.98594 0.3251 0.87189 0.0
Co204 Co 0.92246 0.34526 0.85483 0.0
C205 C 0.90683 0.40792 0.84159 0.0
O206 O 0.90554 0.41524 0.86937 0.0
N207 N 0.88403 0.34196 0.86961 0.0
C208 C 0.83691 0.34625 0.88154 0.0
C209 C 0.86116 0.36059 0.87093 0.0
C210 C 0.87287 0.31645 0.8793 0.0
N211 N 0.84435 0.31843 0.88681 0.0
O212 O 0.91047 0.32298 0.82128 0.0
H213 H 0.86122 0.38292 0.86394 0.0
H214 H 0.88543 0.29654 0.88028 0.0
O215 O 0.91243 0.38159 0.83431 0.0
C216 C 0.91753 0.29627 0.82408 0.0
O217 O 0.93202 0.28849 0.84766 0.0
N218 N 0.93556 0.36467 0.8894 0.0
C219 C 0.96187 0.38234 0.94205 0.0
C220 C 0.969 0.39608 0.91555 0.0
C221 C 0.95566 0.38686 0.88944 0.0
C222 C 0.9288 0.35101 0.91507 0.0
C223 C 0.94116 0.35983 0.94153 0.0
H224 H 0.96233 0.39684 0.86907 0.0
H225 H 0.91506 0.33194 0.91516 0.0
H226 H 0.95334 0.36868 0.79824 0.0
H227 H 0.03031 0.33489 0.83552 0.0
H228 H 0.81544 0.35562 0.88493 0.0
H229 H 0.98521 0.4133 0.91491 0.0
H230 H 0.93579 0.34786 0.96123 0.0
C231 C 0.83295 0.52414 0.66888 0.0
C232 C 0.83887 0.49856 0.6833 0.0
N233 N 0.85711 0.50447 0.70574 0.0
N234 N 0.84766 0.54608 0.68188 0.0
C235 C 0.86194 0.53352 0.70451 0.0
H236 H 0.81884 0.52667 0.65004 0.0
Co237 Co 0.84607 0.58492 0.66996 0.0
C238 C 0.91104 0.59655 0.67869 0.0
O239 O 0.9172 0.59661 0.65061 0.0
N240 N 0.84317 0.62426 0.65863 0.0
C241 C 0.84942 0.67043 0.64511 0.0
C242 C 0.86337 0.64491 0.65251 0.0
C243 C 0.81722 0.63788 0.65489 0.0
N244 N 0.82032 0.66591 0.64651 0.0
O245 O 0.82825 0.59511 0.70656 0.0
H246 H 0.88673 0.642 0.65287 0.0
H247 H 0.79634 0.62717 0.65799 0.0
O248 O 0.88472 0.59232 0.68731 0.0
C249 C 0.80113 0.58866 0.70827 0.0
O250 O 0.78894 0.57476 0.68624 0.0
N251 N 0.86106 0.57405 0.63251 0.0
C252 C 0.86741 0.54841 0.57711 0.0
C253 C 0.88516 0.53965 0.60057 0.0
C254 C 0.88148 0.55262 0.62821 0.0
C255 C 0.84468 0.58351 0.60942 0.0
C256 C 0.84796 0.57153 0.58162 0.0
H257 H 0.89363 0.54401 0.64657 0.0
H258 H 0.82717 0.59888 0.61265 0.0
H259 H 0.87573 0.54539 0.71966 0.0
H260 H 0.82994 0.47735 0.67803 0.0
H261 H 0.85994 0.69047 0.6384 0.0
H262 H 0.90017 0.52157 0.59818 0.0
H263 H 0.83387 0.57911 0.56414 0.0
C264 C 0.17113 0.02759 0.34904 0.0
C265 C 0.18932 1.00451 0.35501 0.0
N266 N 0.21634 0.01496 0.36068 0.0
N267 N 0.18642 0.05264 0.3513 0.0
C268 C 0.21406 0.04413 0.3576 0.0
H269 H 0.14817 0.02604 0.34354 0.0
Co270 Co 0.17262 0.09068 0.34583 0.0
C271 C 0.20064 0.09323 0.40637 0.0
O272 O 0.19574 0.06571 0.41252 0.0
N273 N 0.1591 0.12832 0.33959 0.0
C274 C 0.1442 0.17408 0.34462 0.0
C275 C 0.15305 0.1494 0.35927 0.0
C276 C 0.15345 0.14044 0.31331 0.0
N277 N 0.14446 0.16835 0.31568 0.0
O278 O 0.20783 0.1003 0.32508 0.0
H279 H 0.15485 0.14703 0.38275 0.0
H280 H 0.15629 0.12904 0.29277 0.0
O281 O 0.19155 0.10398 0.38219 0.0
C282 C 0.20866 0.09221 0.29839 0.0
O283 O 0.1866 0.07693 0.28802 0.0
N284 N 0.13645 0.08105 0.36349 0.0
C285 C 0.08024 0.06109 0.37731 0.0
C286 C 0.10111 0.06561 0.39941 0.0
C287 C 0.1291 0.07616 0.39208 0.0
C288 C 0.11604 0.07739 0.34199 0.0
C289 C 0.08781 0.06768 0.34841 0.0
H290 H 0.1445 0.07996 0.40941 0.0
H291 H 0.12211 0.08128 0.31944 0.0
H292 H 0.23189 0.05929 0.36112 0.0
H293 H 0.18302 0.98178 0.3551 0.0
H294 H 0.13764 0.19447 0.35454 0.0
H295 H 0.09582 0.06103 0.42205 0.0
H296 H 0.0723 0.06441 0.33076 0.0
C297 C 0.52476 0.34134 0.18765 0.0
C298 C 0.49901 0.32705 0.18147 0.0
N299 N 0.50464 0.30598 0.16169 0.0
N300 N 0.54656 0.32955 0.17172 0.0
C301 C 0.53374 0.30777 0.15636 0.0
H302 H 0.52743 0.35958 0.20243 0.0
Co303 Co 0.58493 0.34367 0.17196 0.0
C304 C 0.59785 0.33216 0.108 0.0
O305 O 0.59927 0.35995 0.10133 0.0
N306 N 0.62392 0.35755 0.17383 0.0
C307 C 0.67121 0.36798 0.16756 0.0
C308 C 0.64605 0.35827 0.15416 0.0
C309 C 0.63649 0.36671 0.19906 0.0
N310 N 0.6652 0.37326 0.19589 0.0
O311 O 0.59734 0.30917 0.19178 0.0
H312 H 0.64492 0.35139 0.1317 0.0
H313 H 0.62481 0.36784 0.21963 0.0
O314 O 0.59276 0.32435 0.13439 0.0
C315 C 0.59257 0.30918 0.21926 0.0
O316 O 0.57938 0.33181 0.23092 0.0
N317 N 0.57159 0.37875 0.1544 0.0
C318 C 0.54241 0.43056 0.14044 0.0
C319 C 0.5361 0.40465 0.12541 0.0
C320 C 0.55074 0.37898 0.13286 0.0
C321 C 0.57829 0.40395 0.16882 0.0
C322 C 0.56433 0.43009 0.16191 0.0
H323 H 0.54427 0.35897 0.12218 0.0
H324 H 0.59308 0.40369 0.18721 0.0
H325 H 0.54531 0.29406 0.14095 0.0
H326 H 0.4778 0.33176 0.19092 0.0
H327 H 0.69234 0.37075 0.15717 0.0
H328 H 0.51926 0.40397 0.10873 0.0
H329 H 0.56934 0.44935 0.17469 0.0
C330 C 0.84633 0.98597 0.33693 0.0
C331 C 0.82803 0.00892 0.34335 0.0
N332 N 0.8044 0.99841 0.35756 0.0
N333 N 0.83447 0.96121 0.34743 0.0
C334 C 0.80879 0.96942 0.35955 0.0
H335 H 0.867 0.98719 0.32541 0.0
Co336 Co 0.85011 0.92396 0.34438 0.0
C337 C 0.83419 0.90657 0.40728 0.0
O338 O 0.86084 0.90742 0.41806 0.0
N339 N 0.86523 0.88628 0.34011 0.0
C340 C 0.88262 0.84132 0.34493 0.0
C341 C 0.87255 0.86549 0.35965 0.0
C342 C 0.87121 0.87427 0.31378 0.0
N343 N 0.88181 0.84694 0.31604 0.0
O344 O 0.81615 0.91192 0.32262 0.0
H345 H 0.87116 0.86749 0.38307 0.0
H346 H 0.8678 0.88549 0.29327 0.0
O347 O 0.8297 0.9125 0.38032 0.0
C348 C 0.81414 0.91948 0.29585 0.0
O349 O 0.83479 0.93602 0.28465 0.0
N350 N 0.88475 0.93669 0.36402 0.0
C351 C 0.93737 0.96268 0.38201 0.0
C352 C 0.91094 0.96938 0.39614 0.0
C353 C 0.88483 0.95597 0.38692 0.0
C354 C 0.91041 0.93032 0.35003 0.0
C355 C 0.93693 0.94248 0.35909 0.0
H356 H 0.86447 0.9622 0.39726 0.0
H357 H 0.91041 0.91685 0.33065 0.0
H358 H 0.79365 0.95443 0.36978 0.0
H359 H 0.83157 0.03149 0.33752 0.0
H360 H 0.89056 0.82143 0.35479 0.0
H361 H 0.91039 0.98527 0.41368 0.0
H362 H 0.95676 0.93735 0.34712 0.0
C363 C 0.48463 0.67308 0.19692 0.0
C364 C 0.51108 0.68624 0.19117 0.0
N365 N 0.50667 0.70761 0.17148 0.0
N366 N 0.4636 0.68591 0.1808 0.0
C367 C 0.47759 0.70719 0.16582 0.0
H368 H 0.48102 0.65467 0.21122 0.0
Co369 Co 0.42497 0.67259 0.17933 0.0
C370 C 0.41429 0.69079 0.11593 0.0
O371 O 0.41597 0.66448 0.1048 0.0
N372 N 0.38574 0.65931 0.17887 0.0
C373 C 0.34183 0.6419 0.16661 0.0
C374 C 0.36927 0.64912 0.15651 0.0
C375 C 0.36783 0.65752 0.20242 0.0
N376 N 0.34093 0.6472 0.19556 0.0
O377 O 0.41304 0.70608 0.20151 0.0
H378 H 0.37665 0.64606 0.13439 0.0
H379 H 0.37439 0.66364 0.22431 0.0
O380 O 0.41774 0.69487 0.14342 0.0
C381 C 0.41785 0.7049 0.22897 0.0
O382 O 0.42998 0.68129 0.23972 0.0
N383 N 0.43796 0.63861 0.15952 0.0
C384 C 0.46675 0.58714 0.14356 0.0
C385 C 0.47384 0.61367 0.13014 0.0
C386 C 0.45943 0.63916 0.13862 0.0
C387 C 0.43035 0.61282 0.17228 0.0
C388 C 0.44413 0.58683 0.16434 0.0
H389 H 0.46667 0.65958 0.12939 0.0
H390 H 0.41483 0.61252 0.19015 0.0
H391 H 0.46697 0.72121 0.15007 0.0
H392 H 0.53199 0.68034 0.20059 0.0
H393 H 0.32423 0.63254 0.15379 0.0
H394 H 0.49121 0.61496 0.11404 0.0
H395 H 0.43844 0.56702 0.17586 0.0
C396 C 0.16997 0.98513 0.68448 0.0
C397 C 0.18828 0.0085 0.67981 0.0
N398 N 0.21114 0.9994 0.66352 0.0
N399 N 0.18107 0.96156 0.67086 0.0
C400 C 0.20624 0.97083 0.65852 0.0
H401 H 0.14998 0.98517 0.6972 0.0
Co402 Co 0.16577 0.92413 0.67166 0.0
C403 C 0.17708 0.91205 0.6068 0.0
O404 O 0.14961 0.91333 0.59836 0.0
N405 N 0.15096 0.88614 0.67369 0.0
C406 C 0.13469 0.84088 0.66711 0.0
C407 C 0.14437 0.86578 0.65333 0.0
C408 C 0.14512 0.8731 0.69949 0.0
N409 N 0.13509 0.84567 0.69618 0.0
O410 O 0.2009 0.91084 0.6901 0.0
H411 H 0.14625 0.86844 0.63001 0.0
H412 H 0.14819 0.88367 0.72043 0.0
O413 O 0.18371 0.91584 0.63371 0.0
C414 C 0.20278 0.91679 0.71728 0.0
O415 O 0.18143 0.93156 0.72961 0.0
N416 N 0.13008 0.93821 0.65588 0.0
C417 C 0.07844 0.97034 0.64966 0.0
C418 C 0.10233 0.97533 0.63099 0.0
C419 C 0.12817 0.95917 0.63467 0.0
C420 C 0.10635 0.93224 0.67302 0.0
C421 C 0.08032 0.94764 0.66997 0.0
H422 H 0.14736 0.96524 0.6222 0.0
H423 H 0.1081 0.91725 0.69106 0.0
H424 H 0.22079 0.95682 0.64623 0.0
H425 H 0.1854 0.03028 0.68843 0.0
H426 H 0.12744 0.82103 0.65655 0.0
H427 H 0.10189 0.99303 0.61536 0.0
H428 H 0.0624 0.9431 0.68485 0.0
C429 C 0.48504 0.34642 0.84234 0.0
C430 C 0.50844 0.3285 0.84841 0.0
N431 N 0.49825 0.30453 0.86207 0.0
N432 N 0.46031 0.33396 0.85252 0.0
C433 C 0.46901 0.30837 0.8641 0.0
H434 H 0.48592 0.36717 0.8312 0.0
Co435 Co 0.42223 0.34824 0.84953 0.0
C436 C 0.40566 0.33394 0.91216 0.0
O437 O 0.40483 0.36145 0.92001 0.0
N438 N 0.38342 0.36179 0.84533 0.0
C439 C 0.3362 0.37336 0.84942 0.0
C440 C 0.36074 0.36417 0.86423 0.0
C441 C 0.37192 0.36967 0.81925 0.0
N442 N 0.34331 0.3768 0.82107 0.0
O443 O 0.41189 0.3148 0.82624 0.0
H444 H 0.36123 0.35914 0.88718 0.0
H445 H 0.3843 0.36973 0.79909 0.0
O446 O 0.41149 0.32709 0.88561 0.0
C447 C 0.41973 0.31888 0.79973 0.0
O448 O 0.43414 0.34288 0.79343 0.0
N449 N 0.43376 0.38296 0.86958 0.0
C450 C 0.45841 0.43628 0.88705 0.0
C451 C 0.46641 0.41023 0.90093 0.0
C452 C 0.45386 0.38378 0.89185 0.0
C453 C 0.42607 0.40824 0.85589 0.0
C454 C 0.43757 0.43499 0.86463 0.0
H455 H 0.46122 0.36379 0.90192 0.0
H456 H 0.41229 0.40784 0.83675 0.0
H457 H 0.45414 0.29283 0.87392 0.0
H458 H 0.53108 0.33254 0.84265 0.0
H459 H 0.31481 0.3772 0.85887 0.0
H460 H 0.48275 0.41021 0.91812 0.0
H461 H 0.43151 0.45436 0.85257 0.0
C462 C 0.84226 0.04913 0.68737 0.0
C463 C 0.82662 0.02421 0.6811 0.0
N464 N 0.80601 0.03081 0.66106 0.0
N465 N 0.83161 0.07131 0.67131 0.0
C466 C 0.80936 0.05955 0.65575 0.0
H467 H 0.86062 0.05091 0.70223 0.0
Co468 Co 0.84577 0.10949 0.67142 0.0
C469 C 0.83314 0.12003 0.60688 0.0
O470 O 0.86076 0.1188 0.59897 0.0
N471 N 0.85939 0.14843 0.67268 0.0
C472 C 0.87427 0.19366 0.66299 0.0
C473 C 0.86669 0.16719 0.65108 0.0
C474 C 0.86312 0.16412 0.69753 0.0
N475 N 0.87198 0.19173 0.69227 0.0
O476 O 0.811 0.12133 0.69191 0.0
H477 H 0.8668 0.16245 0.62807 0.0
H478 H 0.85909 0.15552 0.71916 0.0
O479 O 0.82599 0.11708 0.63383 0.0
C480 C 0.81222 0.1156 0.7192 0.0
O481 O 0.83607 0.10327 0.72943 0.0
N482 N 0.88122 0.09647 0.65371 0.0
C483 C 0.93451 0.06935 0.63986 0.0
C484 C 0.90849 0.06109 0.62578 0.0
C485 C 0.88207 0.07461 0.63328 0.0
C486 C 0.9065 0.10507 0.66716 0.0
C487 C 0.93332 0.09219 0.66025 0.0
H488 H 0.86209 0.06668 0.62339 0.0
H489 H 0.90591 0.12089 0.68466 0.0
H490 H 0.79587 0.07178 0.64071 0.0
H491 H 0.83075 1.00273 0.68988 0.0
H492 H 0.88138 0.2127 0.65099 0.0
H493 H 0.90819 0.04317 0.61035 0.0
H494 H 0.95281 0.09933 0.67172 0.0
C495 C 0.53433 0.66231 0.82997 0.0
C496 C 0.50822 0.67621 0.83533 0.0
N497 N 0.51357 0.69964 0.85233 0.0
N498 N 0.55608 0.67668 0.84375 0.0
C499 C 0.54285 0.69956 0.85692 0.0
H500 H 0.53733 0.64274 0.81712 0.0
Co501 Co 0.59523 0.66506 0.84336 0.0
C502 C 0.61013 0.67758 0.90598 0.0
O503 O 0.61656 0.65004 0.91032 0.0
N504 N 0.63518 0.65385 0.84141 0.0
C505 C 0.68378 0.65088 0.8454 0.0
C506 C 0.65852 0.66104 0.85818 0.0
C507 C 0.64726 0.64033 0.81798 0.0
N508 N 0.67671 0.63782 0.81998 0.0
O509 O 0.60518 0.69928 0.82121 0.0
H510 H 0.6581 0.67438 0.87756 0.0
H511 H 0.63464 0.63359 0.79912 0.0
O512 O 0.60212 0.68611 0.88051 0.0
C513 C 0.60079 0.69485 0.79398 0.0
O514 O 0.58972 0.66962 0.78601 0.0
N515 N 0.58423 0.62976 0.86272 0.0
C516 C 0.56061 0.5764 0.88146 0.0
C517 C 0.55263 0.60259 0.89515 0.0
C518 C 0.5645 0.62903 0.88533 0.0
C519 C 0.59182 0.60442 0.84907 0.0
C520 C 0.58079 0.57763 0.85838 0.0
H521 H 0.55701 0.64904 0.89528 0.0
H522 H 0.60507 0.60472 0.82963 0.0
H523 H 0.55434 0.71551 0.87007 0.0
H524 H 0.48697 0.66971 0.82707 0.0
H525 H 0.70571 0.65363 0.85395 0.0
H526 H 0.53683 0.60275 0.91283 0.0
H527 H 0.58674 0.55817 0.84636 0.0
C528 C 0.32985 0.16075 0.02732 0.0
C529 C 0.33546 0.17535 1.00164 0.0
N530 N 0.35258 0.19853 1.00773 0.0
N531 N 0.34357 0.17443 0.04954 0.0
C532 C 0.35696 0.19758 0.03701 0.0
H533 H 0.31683 0.1412 0.02969 0.0
Co534 Co 0.3428 0.1621 0.08854 0.0
C535 C 0.40596 0.17585 0.10221 0.0
O536 O 0.41244 0.1482 0.10562 0.0
N537 N 0.34055 0.15022 0.12828 0.0
C538 C 0.34613 0.14341 0.17629 0.0
C539 C 0.3594 0.15279 0.15098 0.0
C540 C 0.31579 0.13967 0.14075 0.0
N541 N 0.31859 0.13516 0.16988 0.0
O542 O 0.32059 0.19611 0.09871 0.0
H543 H 0.38108 0.16188 0.15014 0.0
H544 H 0.29578 0.13599 0.12865 0.0
O545 O 0.37963 0.18336 0.09621 0.0
C546 C 0.29341 0.19224 0.09352 0.0
O547 O 0.28527 0.16751 0.08146 0.0
N548 N 0.3622 0.12697 0.07736 0.0
C549 C 0.38001 0.07345 0.05354 0.0
C550 C 0.39331 0.09957 0.04471 0.0
C551 C 0.38399 0.12609 0.05673 0.0
C552 C 0.34905 0.10166 0.08595 0.0
C553 C 0.35793 0.07479 0.07479 0.0
H554 H 0.39366 0.14604 0.04871 0.0
H555 H 0.33029 0.10208 0.10022 0.0
H556 H 0.37009 0.21316 0.04905 0.0
H557 H 0.32725 0.1695 0.9802 0.0
H558 H 0.35605 0.14299 0.19779 0.0
H559 H 0.41027 0.0996 0.02813 0.0
H560 H 0.34629 0.05535 0.08152 0.0
C561 C 0.33807 0.84193 0.97824 0.0
C562 C 0.34441 0.8256 1.00269 0.0
N563 N 0.36079 0.80264 0.99434 0.0
N564 N 0.35067 0.8295 0.95467 0.0
C565 C 0.36409 0.80548 0.96509 0.0
H566 H 0.32509 0.8616 0.97761 0.0
Co567 Co 0.34836 0.84275 0.91626 0.0
C568 C 0.41194 0.83205 0.90079 0.0
O569 O 0.41777 0.85989 0.89761 0.0
N570 N 0.34456 0.85546 0.87721 0.0
C571 C 0.348 0.865 0.82951 0.0
C572 C 0.36281 0.85539 0.85389 0.0
C573 C 0.31874 0.86467 0.86616 0.0
N574 N 0.32022 0.87089 0.83731 0.0
O575 O 0.32821 0.80763 0.90553 0.0
H576 H 0.38518 0.84811 0.85377 0.0
H577 H 0.299 0.86635 0.87914 0.0
O578 O 0.38597 0.82382 0.90734 0.0
C579 C 0.30093 0.80772 0.91152 0.0
O580 O 0.28998 0.83056 0.92497 0.0
N581 N 0.36606 0.87862 0.92789 0.0
C582 C 0.382 0.93261 0.95201 0.0
C583 C 0.39701 0.90713 0.9598 0.0
C584 C 0.38864 0.88034 0.94758 0.0
C585 C 0.35114 0.90327 0.9205 0.0
C586 C 0.35907 0.93039 0.93177 0.0
H587 H 0.39964 0.86079 0.95477 0.0
H588 H 0.33181 0.90205 0.90707 0.0
H589 H 0.37616 0.7904 0.95146 0.0
H590 H 0.337 0.82998 0.02476 0.0
H591 H 0.35706 0.8674 0.80776 0.0
H592 H 0.41462 0.9078 0.97567 0.0
H593 H 0.34616 0.94928 0.92593 0.0
C594 C 0.34797 0.18713 0.53898 0.0
C595 C 0.33085 0.17969 0.5152 0.0
N596 N 0.3092 0.16198 0.52449 0.0
N597 N 0.3372 0.17411 0.56313 0.0
C598 C 0.31339 0.15929 0.55363 0.0
H599 H 0.36746 0.20055 0.53862 0.0
Co600 Co 0.35268 0.17566 0.60116 0.0
C601 C 0.33297 0.114 0.6165 0.0
O602 O 0.35874 0.10155 0.61437 0.0
N603 N 0.36747 0.17754 0.63999 0.0
C604 C 0.38605 0.16603 0.6836 0.0
C605 C 0.37884 0.15575 0.65626 0.0
C606 C 0.36855 0.20102 0.65798 0.0
N607 N 0.37952 0.19454 0.68469 0.0
O608 O 0.32036 0.19939 0.61253 0.0
H609 H 0.3826 0.13388 0.64874 0.0
H610 H 0.36126 0.2225 0.65178 0.0
O611 O 0.33008 0.14126 0.61187 0.0
C612 C 0.32444 0.22594 0.60561 0.0
O613 O 0.34918 0.2331 0.59274 0.0
N614 N 0.38592 0.15455 0.58844 0.0
C615 C 0.43793 0.13447 0.56309 0.0
C616 C 0.41095 0.1217 0.55582 0.0
C617 C 0.38513 0.1322 0.5686 0.0
C618 C 0.41201 0.16742 0.59525 0.0
C619 C 0.43821 0.15736 0.58337 0.0
H620 H 0.36441 0.12307 0.56171 0.0
H621 H 0.41254 0.18659 0.60898 0.0
H622 H 0.29937 0.14654 0.56775 0.0
H623 H 0.33471 0.18596 0.49269 0.0
H624 H 0.39607 0.15363 0.70105 0.0
H625 H 0.40973 0.10429 0.53984 0.0
H626 H 0.45837 0.16862 0.58877 0.0
C627 C 0.68635 0.16608 0.99235 0.0
C628 C 0.67935 0.18013 0.01801 0.0
N629 N 0.66092 0.20216 0.01173 0.0
N630 N 0.67226 0.17901 0.96998 0.0
C631 C 0.65721 0.20116 0.98238 0.0
H632 H 0.70043 0.14729 0.9901 0.0
Co633 Co 0.67408 0.16613 0.93134 0.0
C634 C 0.61155 0.18435 0.91585 0.0
O635 O 0.59994 0.15817 0.91516 0.0
N636 N 0.67731 0.15344 0.89232 0.0
C637 C 0.67119 0.13963 0.84595 0.0
C638 C 0.65717 0.14683 0.87168 0.0
C639 C 0.70329 0.14969 0.87867 0.0
N640 N 0.70027 0.14146 0.85042 0.0
O641 O 0.69593 0.20013 0.92134 0.0
H642 H 0.63382 0.14691 0.87479 0.0
H643 H 0.72415 0.15329 0.88927 0.0
O644 O 0.63867 0.18774 0.9218 0.0
C645 C 0.72285 0.20135 0.92846 0.0
O646 O 0.73442 0.17934 0.94269 0.0
N647 N 0.65398 0.13172 0.94223 0.0
C648 C 0.63783 0.08016 0.97058 0.0
C649 C 0.6228 0.10621 0.9761 0.0
C650 C 0.63127 0.13177 0.96178 0.0
C651 C 0.66803 0.10629 0.9358 0.0
C652 C 0.66003 0.08023 0.94938 0.0
H653 H 0.62092 0.15198 0.96804 0.0
H654 H 0.68704 0.10642 0.92172 0.0
H655 H 0.64317 0.21576 0.97026 0.0
H656 H 0.68736 0.1746 0.03958 0.0
H657 H 0.66077 0.13308 0.8257 0.0
H658 H 0.60559 0.10713 0.9924 0.0
H659 H 0.67267 0.06078 0.94493 0.0
C660 C 0.6731 0.83993 0.54052 0.0
C661 C 0.69038 0.84377 0.51614 0.0
N662 N 0.71786 0.85007 0.52495 0.0
N663 N 0.68938 0.84415 0.5648 0.0
C664 C 0.71673 0.84935 0.55456 0.0
H665 H 0.65002 0.83471 0.54039 0.0
Co666 Co 0.67671 0.84272 0.60401 0.0
C667 C 0.706 0.90229 0.59993 0.0
O668 O 0.70126 0.90571 0.57177 0.0
N669 N 0.66426 0.84066 0.643 0.0
C670 C 0.65012 0.85216 0.68814 0.0
C671 C 0.65832 0.86301 0.66127 0.0
C672 C 0.65917 0.8165 0.6591 0.0
N673 N 0.65066 0.82285 0.68677 0.0
O674 O 0.71171 0.82227 0.61428 0.0
H675 H 0.65962 0.88578 0.65542 0.0
H676 H 0.66194 0.79464 0.65074 0.0
O677 O 0.69663 0.87955 0.61311 0.0
C678 C 0.71046 0.79506 0.60894 0.0
O679 O 0.68663 0.7846 0.59664 0.0
N680 N 0.64076 0.86024 0.59388 0.0
C681 C 0.58472 0.87402 0.57373 0.0
C682 C 0.60654 0.89548 0.57539 0.0
C683 C 0.6344 0.88826 0.58609 0.0
C684 C 0.61943 0.83945 0.59317 0.0
C685 C 0.59123 0.84589 0.58342 0.0
H686 H 0.65051 0.90519 0.58755 0.0
H687 H 0.62471 0.81735 0.59938 0.0
H688 H 0.73515 0.85405 0.56871 0.0
H689 H 0.68309 0.84217 0.49366 0.0
H690 H 0.64372 0.8649 0.70703 0.0
H691 H 0.6021 0.91755 0.56839 0.0
H692 H 0.57497 0.82871 0.58237 0.0
C693 C 0.69075 0.83906 0.03243 0.0
C694 C 0.68438 0.82572 1.00626 0.0
N695 N 0.66473 0.80438 0.01127 0.0
N696 N 0.67505 0.82643 0.05392 0.0
C697 C 0.65965 0.80504 0.04046 0.0
H698 H 0.70543 0.8573 0.03562 0.0
Co699 Co 0.67567 0.83987 0.0925 0.0
C700 C 0.61289 0.82977 0.10859 0.0
O701 O 0.6092 0.8577 0.11368 0.0
N702 N 0.67821 0.85311 0.13177 0.0
C703 C 0.67519 0.85773 0.18029 0.0
C704 C 0.66168 0.84712 0.1556 0.0
C705 C 0.70217 0.86652 0.143 0.0
N706 N 0.70083 0.86988 0.17242 0.0
O707 O 0.6962 0.80548 0.10403 0.0
H708 H 0.64205 0.83411 0.15595 0.0
H709 H 0.72102 0.87229 0.12988 0.0
O710 O 0.63802 0.8203 0.10055 0.0
C711 C 0.72377 0.80697 0.09989 0.0
O712 O 0.7346 0.83076 0.08814 0.0
N713 N 0.65727 0.8749 0.07976 0.0
C714 C 0.64095 0.92578 0.05017 0.0
C715 C 0.62608 0.89952 0.0452 0.0
C716 C 0.63464 0.87436 0.06007 0.0
C717 C 0.67154 0.90049 0.08519 0.0
C718 C 0.66343 0.92621 0.07104 0.0
H719 H 0.62399 0.85406 0.05453 0.0
H720 H 0.69069 0.90092 0.0989 0.0
H721 H 0.64433 0.79089 0.05162 0.0
H722 H 0.69357 0.83127 0.98514 0.0
H723 H 0.66702 0.85575 0.20243 0.0
H724 H 0.60869 0.89818 0.02912 0.0
H725 H 0.67604 0.94583 0.07495 0.0
C726 C 0.35411 0.83302 0.49902 0.0
C727 C 0.3385 0.83936 0.52398 0.0
N728 N 0.31558 0.85631 0.5166 0.0
N729 N 0.3413 0.84609 0.47598 0.0
C730 C 0.31768 0.85986 0.48728 0.0
H731 H 0.37367 0.81982 0.49766 0.0
Co732 Co 0.35486 0.84369 0.43754 0.0
C733 C 0.33761 0.90606 0.42146 0.0
O734 O 0.36404 0.91738 0.42096 0.0
N735 N 0.36799 0.83992 0.39869 0.0
C736 C 0.38301 0.8454 0.35265 0.0
C737 C 0.37477 0.85968 0.37788 0.0
C738 C 0.37255 0.8139 0.38561 0.0
N739 N 0.38163 0.81654 0.35759 0.0
O740 O 0.32045 0.82249 0.42708 0.0
H741 H 0.37425 0.88294 0.38058 0.0
H742 H 0.36914 0.79332 0.39656 0.0
O743 O 0.33392 0.87918 0.42756 0.0
C744 C 0.31847 0.79576 0.43411 0.0
O745 O 0.3398 0.78386 0.44922 0.0
N746 N 0.38988 0.86324 0.44863 0.0
C747 C 0.4431 0.88078 0.47346 0.0
C748 C 0.41691 0.89473 0.48113 0.0
C749 C 0.39049 0.88576 0.46829 0.0
C750 C 0.41533 0.84963 0.44097 0.0
C751 C 0.44217 0.85847 0.45259 0.0
H752 H 0.37034 0.89586 0.4754 0.0
H753 H 0.4149 0.83064 0.42702 0.0
H754 H 0.30256 0.87257 0.47436 0.0
H755 H 0.34348 0.83172 0.54581 0.0
H756 H 0.39013 0.85553 0.33248 0.0
H757 H 0.41677 0.91181 0.4975 0.0
H758 H 0.46185 0.84667 0.4467 0.0
C759 C 0.66009 0.18595 0.48534 0.0
C760 C 0.67402 0.18133 0.51159 0.0
N761 N 0.6978 0.16467 0.50666 0.0
N762 N 0.67482 0.17209 0.46392 0.0
C763 C 0.69787 0.15954 0.47748 0.0
H764 H 0.64039 0.19855 0.48196 0.0
Co765 Co 0.66357 0.17248 0.42479 0.0
C766 C 0.68287 0.11038 0.4112 0.0
O767 O 0.65647 0.09933 0.40836 0.0
N768 N 0.6524 0.17456 0.38527 0.0
C769 C 0.64168 0.16876 0.33806 0.0
C770 C 0.65086 0.15498 0.36321 0.0
C771 C 0.64418 0.19994 0.37288 0.0
N772 N 0.6374 0.1971 0.34424 0.0
O773 O 0.69778 0.19437 0.41543 0.0
H774 H 0.65599 0.13219 0.36477 0.0
H775 H 0.64327 0.22024 0.38485 0.0
O776 O 0.68623 0.13733 0.41729 0.0
C777 C 0.69815 0.22161 0.42049 0.0
O778 O 0.67522 0.23368 0.43295 0.0
N779 N 0.62885 0.15211 0.43471 0.0
C780 C 0.57541 0.13269 0.45762 0.0
C781 C 0.60182 0.11941 0.46582 0.0
C782 C 0.62833 0.12958 0.45427 0.0
C783 C 0.60329 0.16498 0.42635 0.0
C784 C 0.5764 0.15535 0.43713 0.0
H785 H 0.64855 0.12026 0.46218 0.0
H786 H 0.6036 0.18407 0.41263 0.0
H787 H 0.71418 0.14664 0.46622 0.0
H788 H 0.6674 0.19003 0.5326 0.0
H789 H 0.638 0.15855 0.31701 0.0
H790 H 0.6021 0.10202 0.48179 0.0
H791 H 0.55672 0.16692 0.4309 0.0
H792 H 0.15448 0.46508 0.3053 0.0
H793 H 0.16079 0.5402 0.24907 0.0
H794 H 0.14487 0.51096 0.20734 0.0
H795 H 0.13027 0.46382 0.18651 0.0
H796 H 0.12435 0.3885 0.2427 0.0
H797 H 0.13918 0.41802 0.28462 0.0
C798 C 0.1526 0.47501 0.28388 0.0
C799 C 0.15892 0.50482 0.28039 0.0
C800 C 0.14351 0.45802 0.25992 0.0
C801 C 0.1558 0.51742 0.25252 0.0
C802 C 0.14683 0.50066 0.22858 0.0
C803 C 0.13213 0.45383 0.20792 0.0
C804 C 0.12629 0.42391 0.21133 0.0
C805 C 0.14073 0.47092 0.23199 0.0
C806 C 0.12877 0.41143 0.23933 0.0
C807 C 0.13728 0.4283 0.26337 0.0
H808 H 0.97022 0.36509 0.20684 0.0
H809 H 0.04347 0.35821 0.266 0.0
H810 H 0.01251 0.37381 0.30668 0.0
H811 H 0.96438 0.38854 0.32571 0.0
H812 H 0.89109 0.3955 0.26641 0.0
H813 H 0.92225 0.38057 0.22569 0.0
C814 C 0.97936 0.36679 0.22866 0.0
C815 C 1.00915 0.36038 0.23329 0.0
C816 C 0.9614 0.37577 0.252 0.0
C817 C 0.02074 0.36326 0.26168 0.0
C818 C 1.00298 0.37204 0.28503 0.0
C819 C 0.95518 0.38684 0.30389 0.0
C820 C 0.92534 0.39304 0.29927 0.0
C821 C 0.97326 0.37828 0.28047 0.0
C822 C 0.91393 0.39083 0.27073 0.0
C823 C 0.93175 0.38225 0.24737 0.0
H824 H 0.87721 0.55019 0.30208 0.0
H825 H 0.86673 0.47844 0.24195 0.0
H826 H 0.8863 0.50814 0.2022 0.0
H827 H 0.90471 0.55497 0.18412 0.0
H828 H 0.91497 0.62698 0.24417 0.0
H829 H 0.89714 0.5967 0.28429 0.0
C830 C 0.87904 0.54113 0.28024 0.0
C831 C 0.87037 0.51217 0.275 0.0
C832 C 0.89029 0.55837 0.25746 0.0
C833 C 0.87345 0.50056 0.24667 0.0
C834 C 0.88452 0.51759 0.22388 0.0
C835 C 0.90322 0.56405 0.206 0.0
C836 C 0.91102 0.5933 0.21101 0.0
C837 C 0.89283 0.54657 0.22898 0.0
C838 C 0.90905 0.60458 0.23959 0.0
C839 C 0.89878 0.5873 0.26258 0.0
H840 H 0.12228 0.62307 0.27809 0.0
H841 H 0.05688 0.62105 0.34631 0.0
H842 H 0.01941 0.63599 0.31142 0.0
H843 H 1.0055 0.65199 0.26197 0.0
H844 H 0.07103 0.65512 0.19408 0.0
H845 H 0.10804 0.63762 0.22832 0.0
C846 C 0.09979 0.62568 0.28528 0.0
C847 C 0.09249 0.62106 0.31483 0.0
C848 C 0.07834 0.63474 0.26517 0.0
C849 C 0.06321 0.62464 0.32375 0.0
C850 C 0.04171 0.63319 0.3038 0.0
C851 C 0.0278 0.64852 0.25462 0.0
C852 C 0.03549 0.65506 0.22556 0.0
C853 C 0.04907 0.63865 0.27453 0.0
C854 C 0.0646 0.65073 0.21645 0.0
C855 C 0.08577 0.64056 0.23599 0.0
H856 H 0.14738 0.54854 0.70614 0.0
H857 H 0.16027 0.47624 0.76482 0.0
H858 H 0.14283 0.50556 0.80585 0.0
H859 H 0.12464 0.5519 0.82523 0.0
H860 H 0.11157 0.62443 0.76664 0.0
H861 H 0.12837 0.59489 0.72549 0.0
C862 C 0.14658 0.53933 0.72795 0.0
C863 C 0.15515 0.51027 0.7324 0.0
C864 C 0.13643 0.55632 0.75146 0.0
C865 C 0.15353 0.49845 0.76073 0.0
C866 C 0.14366 0.51524 0.78424 0.0
C867 C 0.12534 0.56127 0.80346 0.0
C868 C 0.11694 0.5904 0.79914 0.0
C869 C 0.13507 0.5442 0.77987 0.0
C870 C 0.11795 0.60208 0.77069 0.0
C871 C 0.12761 0.58523 0.7471 0.0
H872 H 0.05421 0.3708 0.80646 0.0
H873 H 0.97692 0.36108 0.75305 0.0
H874 H 1.00439 0.37657 0.70993 0.0
H875 H 0.05082 0.39169 0.68707 0.0
H876 H 0.12816 0.4007 0.74081 0.0
H877 H 0.10027 0.38655 0.78392 0.0
C878 C 0.04343 0.37184 0.78536 0.0
C879 C 0.01356 0.3647 0.78305 0.0
C880 C 0.05939 0.38066 0.76062 0.0
C881 C 0.9998 0.36673 0.75558 0.0
C882 C 0.01555 0.37545 0.73084 0.0
C883 C 0.06156 0.39068 0.70822 0.0
C884 C 0.09159 0.39719 0.71056 0.0
C885 C 0.0454 0.38236 0.73307 0.0
C886 C 0.1051 0.39577 0.73822 0.0
C887 C 0.08917 0.38763 0.76297 0.0
H888 H 0.89856 0.39918 0.78298 0.0
H889 H 0.89858 0.46627 0.84928 0.0
H890 H 0.88452 0.50238 0.81285 0.0
H891 H 0.87016 0.51474 0.76246 0.0
H892 H 0.86917 0.44761 0.69641 0.0
H893 H 0.8855 0.41183 0.73234 0.0
C894 C 0.89563 0.42172 0.78945 0.0
C895 C 0.89951 0.42988 0.81892 0.0
C896 C 0.88719 0.44243 0.76841 0.0
C897 C 0.89559 0.45924 0.82683 0.0
C898 C 0.88755 0.47999 0.80599 0.0
C899 C 0.87387 0.49237 0.75587 0.0
C900 C 0.86831 0.48388 0.7268 0.0
C901 C 0.88303 0.47181 0.77676 0.0
C902 C 0.87287 0.45466 0.71872 0.0
C903 C 0.88234 0.43419 0.73924 0.0
H904 H 0.02078 0.64053 0.75085 0.0
H905 H 0.95522 0.64675 0.81854 0.0
H906 H 0.91846 0.62671 0.78545 0.0
H907 H 0.90432 0.6091 0.7367 0.0
H908 H 0.96963 0.60344 0.6686 0.0
H909 H 1.00702 0.62103 0.70248 0.0
C910 C 0.99854 0.63719 0.75844 0.0
C911 C 0.99079 0.64543 0.7871 0.0
C912 C 0.97738 0.62571 0.73919 0.0
C913 C 0.96173 0.64116 0.79647 0.0
C914 C 0.94068 0.62951 0.77759 0.0
C915 C 0.92677 0.61147 0.7293 0.0
C916 C 0.93404 0.60504 0.70005 0.0
C917 C 0.94816 0.622 0.7488 0.0
C918 C 0.9633 0.60833 0.69092 0.0
C919 C 0.98475 0.61843 0.71029 0.0
H920 H 0.22149 0.07809 0.46007 0.0
H921 H 0.22121 0.14869 0.39781 0.0
H922 H 0.25445 0.17653 0.42914 0.0
H923 H 0.28513 0.18013 0.47357 0.0
H924 H 0.28507 0.10925 0.53543 0.0
H925 H 0.25035 0.08247 0.50509 0.0
C926 C 0.22851 0.09964 0.45337 0.0
C927 C 0.2189 0.11114 0.42649 0.0
C928 C 0.24768 0.11554 0.47146 0.0
C929 C 0.22821 0.13921 0.41835 0.0
C930 C 0.24732 0.15515 0.43623 0.0
C931 C 0.27754 0.15881 0.48035 0.0
C932 C 0.28778 0.1468 0.5068 0.0
C933 C 0.2575 0.1434 0.46269 0.0
C934 C 0.27736 0.11927 0.51544 0.0
C935 C 0.2576 0.1038 0.49798 0.0
H936 H 0.60986 0.27466 0.1166 0.0
H937 H 0.60554 0.34045 0.04935 0.0
H938 H 0.62368 0.30565 0.01327 0.0
H939 H 0.64335 0.25729 1.0013 0.0
H940 H 0.64827 0.19179 0.06868 0.0
H941 H 0.62765 0.22576 0.10417 0.0
C942 C 0.61262 0.28134 0.09401 0.0
C943 C 0.60645 0.3102 0.08578 0.0
C944 C 0.6235 0.26133 0.07339 0.0
C945 C 0.61025 0.31844 0.05638 0.0
C946 C 0.62067 0.29855 0.03569 0.0
C947 C 0.6396 0.25033 0.02364 0.0
C948 C 0.64761 0.22205 0.03228 0.0
C949 C 0.62776 0.27005 0.04402 0.0
C950 C 0.64285 0.21355 0.06149 0.0
C951 C 0.63085 0.23293 0.08179 0.0
H952 H 0.71575 0.87199 0.47 0.0
H953 H 0.77577 0.84766 0.5387 0.0
H954 H 0.817 0.86371 0.50875 0.0
H955 H 0.83617 0.88459 0.46287 0.0
H956 H 0.77588 0.90732 0.39379 0.0
H957 H 0.73477 0.89168 0.424 0.0
C958 C 0.73781 0.86975 0.47839 0.0
C959 C 0.74242 0.85851 0.50673 0.0
C960 C 0.76149 0.87885 0.46095 0.0
C961 C 0.77134 0.85647 0.51721 0.0
C962 C 0.79502 0.86556 0.5 0.0
C963 C 0.81404 0.8862 0.45442 0.0
C964 C 0.80925 0.89727 0.42605 0.0
C965 C 0.79037 0.87687 0.47185 0.0
C966 C 0.78036 0.89898 0.41549 0.0
C967 C 0.75676 0.88999 0.43277 0.0
H968 H 0.37456 0.80601 0.05173 0.0
H969 H 0.37182 0.74697 0.97822 0.0
H970 H 0.38947 0.70752 1.00916 0.0
H971 H 0.40407 0.6893 0.05732 0.0
H972 H 0.40631 0.74794 0.13127 0.0
H973 H 0.39035 0.78796 0.09993 0.0
C974 C 0.37764 0.78448 0.04252 0.0
C975 C 0.37176 0.77952 0.01266 0.0
C976 C 0.38768 0.76179 0.06052 0.0
C977 C 0.37644 0.75156 1.00099 0.0
C978 C 0.38639 0.7289 0.01874 0.0
C979 C 0.4012 0.71084 0.06664 0.0
C980 C 0.40625 0.7155 0.09668 0.0
C981 C 0.39191 0.73372 0.04855 0.0
C982 C 0.40251 0.74365 0.10825 0.0
C983 C 0.39333 0.76657 0.09035 0.0
H984 H 0.25939 0.86987 0.5036 0.0
H985 H 0.32247 0.86956 0.5739 0.0
H986 H 0.28543 0.88764 0.60776 0.0
H987 H 0.23488 0.90236 0.61788 0.0
H988 H 0.17138 0.90247 0.54787 0.0
H989 H 0.20889 0.88612 0.51346 0.0
C990 C 0.26512 0.87405 0.52623 0.0
C991 C 0.29371 0.86812 0.53615 0.0
C992 C 0.24361 0.88444 0.54571 0.0
C993 C 0.30058 0.87341 0.56571 0.0
C994 C 0.27943 0.88393 0.5851 0.0
C995 C 0.2292 0.89896 0.59508 0.0
C996 C 0.20024 0.90357 0.58559 0.0
C997 C 0.25081 0.88928 0.57542 0.0
C998 C 0.19342 0.89903 0.55589 0.0
C999 C 0.21488 0.88964 0.53615 0.0
H1000 H 0.39608 0.27582 0.9026 0.0
H1001 H 0.39679 0.34104 0.97076 0.0
H1002 H 0.38137 0.30479 1.0065 0.0
H1003 H 0.36587 0.25492 0.01833 0.0
H1004 H 0.3646 0.18972 0.95032 0.0
H1005 H 0.38174 0.22552 0.91477 0.0
C1006 C 0.393 0.28208 0.92529 0.0
C1007 C 0.39751 0.31122 0.93384 0.0
C1008 C 0.3838 0.26112 0.94584 0.0
C1009 C 0.39336 0.31886 0.96341 0.0
C1010 C 0.38452 0.29812 0.98395 0.0
C1011 C 0.36965 0.24845 0.99582 0.0
C1012 C 0.36377 0.21964 0.98708 0.0
C1013 C 0.37944 0.26923 0.9754 0.0
C1014 C 0.36847 0.21181 0.95764 0.0
C1015 C 0.37845 0.23226 0.93728 0.0
H1016 H 0.77447 0.12878 0.61503 0.0
H1017 H 0.84114 0.12585 0.54802 0.0
H1018 H 0.80499 0.13844 0.51098 0.0
H1019 H 0.75486 0.15217 0.49765 0.0
H1020 H 0.68807 0.1552 0.56438 0.0
H1021 H 0.72384 0.14097 0.60134 0.0
C1022 C 0.78109 0.13079 0.59232 0.0
C1023 C 0.81058 0.12651 0.58445 0.0
C1024 C 0.76017 0.13826 0.571 0.0
C1025 C 0.81867 0.12915 0.55484 0.0
C1026 C 0.79799 0.13636 0.53355 0.0
C1027 C 0.74802 0.14938 0.52019 0.0
C1028 C 0.7188 0.15495 0.52816 0.0
C1029 C 0.76873 0.1412 0.54139 0.0
C1030 C 0.71049 0.15155 0.55763 0.0
C1031 C 0.73091 0.14324 0.57881 0.0
H1032 H 0.64785 0.74852 0.01842 0.0
H1033 H 0.65237 0.81781 0.95506 0.0
H1034 H 0.63367 0.78527 0.91708 0.0
H1035 H 0.61865 0.73626 0.9011 0.0
H1036 H 0.61587 0.66647 0.96417 0.0
H1037 H 0.63073 0.7 1.00292 0.0
C1038 C 0.64436 0.75655 0.9964 0.0
C1039 C 0.65174 0.78548 0.98956 0.0
C1040 C 0.63392 0.73756 0.97452 0.0
C1041 C 0.64735 0.79551 0.9608 0.0
C1042 C 0.63651 0.77694 0.93908 0.0
C1043 C 0.62094 0.72848 0.92339 0.0
C1044 C 0.61626 0.69886 0.92966 0.0
C1045 C 0.63013 0.74778 0.94555 0.0
C1046 C 0.61952 0.68912 0.95866 0.0
C1047 C 0.62805 0.70828 0.98088 0.0
H1048 H 0.51455 0.25127 0.14247 0.0
H1049 H 0.44719 0.31634 0.15164 0.0
H1050 H 0.41083 0.28243 0.13223 0.0
H1051 H 0.39761 0.23345 0.11468 0.0
H1052 H 0.46487 0.16801 0.10668 0.0
H1053 H 0.50173 0.20293 0.12303 0.0
C1054 C 0.492 0.25813 0.13988 0.0
C1055 C 0.48363 0.28626 0.14874 0.0
C1056 C 0.4711 0.2384 0.12887 0.0
C1057 C 0.45418 0.29467 0.1455 0.0
C1058 C 0.43337 0.27533 0.13422 0.0
C1059 C 0.42038 0.22692 0.1162 0.0
C1060 C 0.42839 0.19809 0.10956 0.0
C1061 C 0.44148 0.247 0.12616 0.0
C1062 C 0.45801 0.19 0.11182 0.0
C1063 C 0.47916 0.20996 0.1212 0.0
H1064 H 0.40545 0.77328 0.89423 0.0
H1065 H 0.47021 0.84182 0.89155 0.0
H1066 H 0.50774 0.8067 0.87753 0.0
H1067 H 0.52188 0.75676 0.86386 0.0
H1068 H 0.45692 0.68854 0.86556 0.0
H1069 H 0.41989 0.72322 0.88191 0.0
C1070 C 0.4278 0.78054 0.89076 0.0
C1071 C 0.43489 0.81022 0.89385 0.0
C1072 C 0.44929 0.76026 0.88229 0.0
C1073 C 0.46402 0.81916 0.8892 0.0
C1074 C 0.48556 0.79907 0.88116 0.0
C1075 C 0.49971 0.74944 0.86813 0.0
C1076 C 0.49221 0.7201 0.8633 0.0
C1077 C 0.4784 0.7696 0.87734 0.0
C1078 C 0.46323 0.71106 0.86863 0.0
C1079 C 0.44204 0.73087 0.87814 0.0
H1080 H 0.21231 0.05694 0.65241 0.0
H1081 H 0.26625 0.97993 0.65388 0.0
H1082 H 0.30867 0.00859 0.63883 0.0
H1083 H 0.33069 0.05563 0.62622 0.0
H1084 H 0.27682 0.13283 0.62495 0.0
H1085 H 0.23423 0.104 0.63921 0.0
C1086 C 0.23339 0.04648 0.64965 0.0
C1087 C 0.23607 0.01634 0.65431 0.0
C1088 C 0.25774 0.06313 0.64109 0.0
C1089 C 0.26346 1.00302 0.65011 0.0
C1090 C 0.28779 0.01943 0.64168 0.0
C1091 C 0.30966 0.0662 0.62904 0.0
C1092 C 0.30705 0.09639 0.62465 0.0
C1093 C 0.28521 0.04951 0.6372 0.0
C1094 C 0.27953 0.10964 0.62826 0.0
C1095 C 0.25512 0.09318 0.63643 0.0
H1096 H 0.55441 0.30445 0.88025 0.0
H1097 H 0.47959 0.24869 0.86631 0.0
H1098 H 0.50774 0.20664 0.88272 0.0
H1099 H 0.554 0.18544 0.8999 0.0
H1100 H 0.62897 0.24127 0.91363 0.0
H1101 H 0.60043 0.28341 0.89832 0.0
C1102 C 0.54434 0.28307 0.8806 0.0
C1103 C 0.51494 0.27978 0.87198 0.0
C1104 C 0.5607 0.25894 0.89003 0.0
C1105 C 0.50206 0.25196 0.8731 0.0
C1106 C 0.51821 0.22784 0.88235 0.0
C1107 C 0.5641 0.20682 0.89965 0.0
C1108 C 0.59366 0.21006 0.90779 0.0
C1109 C 0.54758 0.23105 0.89076 0.0
C1110 C 0.6063 0.23803 0.9074 0.0
C1111 C 0.59001 0.2622 0.89861 0.0
H1112 H 0.78297 0.98144 0.68335 0.0
H1113 H 0.78448 0.03525 0.60605 0.0
H1114 H 0.7527 1.00073 0.58071 0.0
H1115 H 0.72602 0.95437 0.57974 0.0
H1116 H 0.72444 0.90023 0.65691 0.0
H1117 H 0.75477 0.93565 0.68293 0.0
C1118 C 0.7764 0.98555 0.66094 0.0
C1119 C 0.78619 0.01091 0.64666 0.0
C1120 C 0.75817 0.96549 0.64641 0.0
C1121 C 0.77705 0.01613 0.61773 0.0
C1122 C 0.75901 0.99628 0.60313 0.0
C1123 C 0.73219 0.95032 0.60229 0.0
C1124 C 0.72305 0.92455 0.61624 0.0
C1125 C 0.74963 0.97078 0.61716 0.0
C1126 C 0.73116 0.91982 0.64556 0.0
C1127 C 0.74857 0.94006 0.66048 0.0
H1128 H 0.50021 0.76266 0.15205 0.0
H1129 H 0.5631 0.69329 0.16067 0.0
H1130 H 0.60126 0.7243 0.13994 0.0
H1131 H 0.61741 0.77193 0.12129 0.0
H1132 H 0.55485 0.84186 0.11422 0.0
H1133 H 0.51596 0.8098 0.13182 0.0
C1134 C 0.52218 0.75426 0.14909 0.0
C1135 C 0.52879 0.72576 0.15814 0.0
C1136 C 0.54414 0.77234 0.13734 0.0
C1137 C 0.5575 0.7153 0.1544 0.0
C1138 C 0.57932 0.73297 0.14236 0.0
C1139 C 0.59519 0.78003 0.12325 0.0
C1140 C 0.58907 0.80926 0.11648 0.0
C1141 C 0.573 0.76164 0.13404 0.0
C1142 C 0.5602 0.81949 0.11941 0.0
C1143 C 0.53792 0.80118 0.12952 0.0
H1144 H 0.21647 0.96277 0.3878 0.0
H1145 H 0.27358 0.03041 0.35545 0.0
H1146 H 0.31622 1.00335 0.37263 0.0
H1147 H 0.33741 0.95992 0.39612 0.0
H1148 H 0.27986 0.89174 0.42675 0.0
H1149 H 0.23739 0.9195 0.41075 0.0
C1150 C 0.2382 0.97151 0.38412 0.0
C1151 C 0.24165 0.99864 0.3702 0.0
C1152 C 0.26264 0.95573 0.39384 0.0
C1153 C 0.27012 0.00977 0.3663 0.0
C1154 C 0.29458 0.99422 0.37603 0.0
C1155 C 0.31558 0.9512 0.39945 0.0
C1156 C 0.31193 0.92377 0.41271 0.0
C1157 C 0.29111 0.96716 0.38983 0.0
C1158 C 0.28342 0.91276 0.41664 0.0
C1159 C 0.25905 0.92862 0.40745 0.0
H1160 H 0.80415 0.05384 0.37681 0.0
H1161 H 0.74844 0.97938 0.36198 0.0
H1162 H 0.70593 1.00707 0.37861 0.0
H1163 H 0.68429 0.05302 0.3957 0.0
H1164 H 0.74021 0.12754 0.41057 0.0
H1165 H 0.78282 0.09927 0.39558 0.0
C1166 C 0.78268 0.04375 0.37707 0.0
C1167 C 0.77947 0.01464 0.368 0.0
C1168 C 0.75833 0.05982 0.38667 0.0
C1169 C 0.75157 1.00167 0.36904 0.0
C1170 C 0.72722 0.01755 0.37842 0.0
C1171 C 0.7058 0.06307 0.39582 0.0
C1172 C 0.70892 0.09245 0.40408 0.0
C1173 C 0.7303 0.0467 0.38711 0.0
C1174 C 0.73706 0.10501 0.40423 0.0
C1175 C 0.76149 0.08887 0.3956 0.0
H1176 H 0.02064 0.38887 0.95027 0.0
H1177 H 0.93822 0.39001 0.99638 0.0
H1178 H 0.96401 0.39253 0.04318 0.0
H1179 H 1.00984 0.38879 0.07108 0.0
H1180 H 0.09235 0.3866 0.02511 0.0
H1181 H 0.06674 0.39031 0.9783 0.0
C1182 C 1.00834 0.39041 0.97053 0.0
C1183 C 0.97755 0.38907 0.96983 0.0
C1184 C 0.02335 0.39129 0.99745 0.0
C1185 C 0.96194 0.3907 0.99633 0.0
C1186 C 0.97668 0.39211 0.02311 0.0
C1187 C 0.02229 0.38985 0.05088 0.0
C1188 C 0.053 0.38719 0.05166 0.0
C1189 C 1.00738 0.39158 0.02398 0.0
C1190 C 0.06869 0.38819 0.02516 0.0
C1191 C 0.05405 0.39036 0.99836 0.0
H1192 H 0.83546 0.47907 0.46243 0.0
H1193 H 0.92938 0.47293 0.455 0.0
H1194 H 0.93495 0.50094 0.50055 0.0
H1195 H 0.9125 0.52684 0.5431 0.0
H1196 H 0.81819 0.53082 0.54924 0.0
H1197 H 0.81351 0.50366 0.50389 0.0
C1198 C 0.85723 0.48342 0.47091 0.0
C1199 C 0.88195 0.47346 0.45553 0.0
C1200 C 0.86019 0.49925 0.49697 0.0
C1201 C 0.90995 0.48028 0.46642 0.0
C1202 C 0.91313 0.49619 0.49253 0.0
C1203 C 0.89099 0.52165 0.53448 0.0
C1204 C 0.86575 0.53133 0.54941 0.0
C1205 C 0.88834 0.50572 0.50811 0.0
C1206 C 0.83801 0.52435 0.53794 0.0
C1207 C 0.83525 0.50861 0.51205 0.0
H1208 H 0.07098 0.62844 0.98493 0.0
H1209 H 0.99388 0.62683 0.93038 0.0
H1210 H 0.96272 0.62497 0.97374 0.0
H1211 H 0.95719 0.62847 0.02723 0.0
H1212 H 0.03433 0.63133 0.08171 0.0
H1213 H 0.0655 0.62778 0.03849 0.0
C1214 C 0.04736 0.62741 0.98257 0.0
C1215 C 0.03482 0.62791 0.95445 0.0
C1216 C 0.02951 0.62673 1.00763 0.0
C1217 C 1.00417 0.62618 0.95173 0.0
C1218 C 0.98629 0.62538 0.97654 0.0
C1219 C 0.98082 0.62807 0.02962 0.0
C1220 C 0.99337 0.63028 0.05766 0.0
C1221 C 0.99869 0.62636 1.0046 0.0
C1222 C 0.02404 0.62936 0.06043 0.0
C1223 C 0.04193 0.62758 0.03569 0.0
H1224 H 0.10336 0.47744 0.54356 0.0
H1225 H 0.19727 0.47754 0.55466 0.0
H1226 H 0.20298 0.5082 0.51181 0.0
H1227 H 0.18208 0.53402 0.47073 0.0
H1228 H 0.08854 0.53579 0.4581 0.0
H1229 H 0.0819 0.50504 0.5016 0.0
C1230 C 0.12498 0.48432 0.53654 0.0
C1231 C 0.14988 0.4748 0.55203 0.0
C1232 C 0.12822 0.50214 0.51156 0.0
C1233 C 0.17779 0.48397 0.54279 0.0
C1234 C 0.18111 0.50166 0.51835 0.0
C1235 C 0.16013 0.52816 0.47768 0.0
C1236 C 0.13583 0.53761 0.46141 0.0
C1237 C 0.15657 0.51071 0.50252 0.0
C1238 C 0.10764 0.52885 0.47025 0.0
C1239 C 0.10386 0.51136 0.49518 0.0
H1240 H 0.94818 0.0207 0.3786 0.0
H1241 H 0.98898 0.93885 0.39949 0.0
H1242 H 0.03671 0.96298 0.40364 0.0
H1243 H 0.06765 1.00656 0.39621 0.0
H1244 H 0.0274 0.08734 0.37073 0.0
H1245 H 0.97878 0.06482 0.37374 0.0
C1246 C 0.96747 0.00837 0.38473 0.0
C1247 C 0.96512 0.97813 0.38901 0.0
C1248 C 0.995 0.02224 0.38599 0.0
C1249 C 0.99032 0.96219 0.39627 0.0
C1250 C 0.0176 0.97596 0.39852 0.0
C1251 C 0.04811 0.01928 0.39199 0.0
C1252 C 0.05093 0.04859 0.38357 0.0
C1253 C 0.02034 1.00585 0.39272 0.0
C1254 C 0.02561 0.0648 0.37747 0.0
C1255 C 0.99788 0.05189 0.37907 0.0
H1256 H 0.56107 0.4869 0.13683 0.0
H1257 H 0.48295 0.43395 0.13493 0.0
H1258 H 0.45262 0.47764 0.13349 0.0
H1259 H 0.4481 0.53099 0.13662 0.0
H1260 H 0.52629 0.58381 0.13972 0.0
H1261 H 0.55661 0.54024 0.13663 0.0
C1262 C 0.53741 0.48495 0.13593 0.0
C1263 C 0.52435 0.45717 0.1361 0.0
C1264 C 0.52004 0.51019 0.13543 0.0
C1265 C 0.49364 0.45502 0.13452 0.0
C1266 C 0.47624 0.48002 0.13394 0.0
C1267 C 0.47178 0.53295 0.13645 0.0
C1268 C 0.48484 0.56066 0.13846 0.0
C1269 C 0.48917 0.50773 0.13497 0.0
C1270 C 0.51558 0.56283 0.13785 0.0
C1271 C 0.53299 0.53788 0.13632 0.0
H1272 H 0.04371 0.99081 0.60498 0.0
H1273 H 0.05713 0.99619 0.69833 0.0
H1274 H 0.01475 0.02785 0.70321 0.0
H1275 H 0.97268 0.05219 0.68176 0.0
H1276 H 0.95777 0.04756 0.58866 0.0
H1277 H 1.00161 0.01733 0.58291 0.0
C1278 C 0.03737 0.99913 0.62628 0.0
C1279 C 0.05331 0.99082 0.6513 0.0
C1280 C 0.01262 0.01733 0.62904 0.0
C1281 C 0.04491 1.00178 0.67881 0.0
C1282 C 0.02073 0.02001 0.68163 0.0
C1283 C 0.97925 0.04509 0.66008 0.0
C1284 C 0.96202 0.05238 0.63567 0.0
C1285 C 1.00426 0.02767 0.657 0.0
C1286 C 0.97054 0.04219 0.60787 0.0
C1287 C 0.99567 0.02496 0.60456 0.0
H1288 H 0.50264 0.56616 0.8917 0.0
H1289 H 0.58636 0.52301 0.88745 0.0
H1290 H 0.56227 0.4757 0.89225 0.0
H1291 H 0.51702 0.44636 0.89225 0.0
H1292 H 0.43331 0.48958 0.89513 0.0
H1293 H 0.45773 0.53696 0.89678 0.0
C1294 C 0.51568 0.54647 0.89254 0.0
C1295 C 0.54628 0.54818 0.889 0.0
C1296 C 0.50162 0.51925 0.89484 0.0
C1297 C 0.56276 0.52232 0.88974 0.0
C1298 C 0.54899 0.49524 0.89252 0.0
C1299 C 0.50416 0.46612 0.894 0.0
C1300 C 0.47338 0.46443 0.89343 0.0
C1301 C 0.51837 0.49338 0.8943 0.0
C1302 C 0.45703 0.4903 0.89528 0.0
C1303 C 0.47098 0.51741 0.89618 0.0
H1304 H 0.38675 0.06294 0.99521 0.0
H1305 H 0.38778 0.02029 0.07925 0.0
H1306 H 0.39161 0.97287 0.0552 0.0
H1307 H 0.38958 0.94326 0.01023 0.0
H1308 H 0.38714 0.98597 0.92626 0.0
H1309 H 0.38935 0.03351 0.95027 0.0
C1310 C 0.38851 0.04333 1.00828 0.0
C1311 C 0.38682 0.04519 0.039 0.0
C1312 C 0.39021 0.01606 0.99428 0.0
C1313 C 0.3887 0.01946 0.05557 0.0
C1314 C 0.39091 0.99232 0.04182 0.0
C1315 C 0.39024 0.96296 0.99718 0.0
C1316 C 0.38805 0.96106 0.96649 0.0
C1317 C 0.39094 0.99029 0.01118 0.0
C1318 C 0.38851 0.98684 0.94992 0.0
C1319 C 0.38976 0.01405 0.96364 0.0
H1320 H 0.44599 0.12654 0.50461 0.0
H1321 H 0.49181 0.12524 0.58714 0.0
H1322 H 0.5386 0.12101 0.56153 0.0
H1323 H 0.56664 0.12396 0.51582 0.0
H1324 H 0.52101 0.12648 0.43318 0.0
H1325 H 0.47401 0.12366 0.45866 0.0
C1326 C 0.46615 0.12454 0.51698 0.0
C1327 C 0.46545 0.12643 0.54772 0.0
C1328 C 0.49304 0.1227 0.50208 0.0
C1329 C 0.49182 0.12418 0.56345 0.0
C1330 C 0.51857 0.12179 0.54882 0.0
C1331 C 0.54646 0.12308 0.50332 0.0
C1332 C 0.54736 0.12566 0.47264 0.0
C1333 C 0.51951 0.12195 0.51814 0.0
C1334 C 0.52092 0.12491 0.45684 0.0
C1335 C 0.49404 0.12329 0.4714 0.0
H1336 H 0.63309 0.02342 0.95335 0.0
H1337 H 0.63291 0.07838 0.03 0.0
H1338 H 0.63177 0.03553 0.06152 0.0
H1339 H 0.63496 0.98232 0.06743 0.0
H1340 H 0.63527 0.92734 0.99081 0.0
H1341 H 0.63202 0.97012 0.95929 0.0
C1342 C 0.63252 0.02596 0.97695 0.0
C1343 C 0.63316 0.05406 0.98927 0.0
C1344 C 0.63205 1.00118 0.99501 0.0
C1345 C 0.63211 0.05704 0.01991 0.0
C1346 C 0.63172 0.03252 0.03799 0.0
C1347 C 0.63407 0.97975 0.04384 0.0
C1348 C 0.63546 0.9517 0.0315 0.0
C1349 C 0.6323 1.00448 0.0258 0.0
C1350 C 0.63396 0.94866 1.0009 0.0
C1351 C 0.63231 0.97314 0.98283 0.0
H1352 H 0.45327 0.87695 0.53168 0.0
H1353 H 0.4954 0.89692 0.44975 0.0
H1354 H 0.54294 0.90016 0.47446 0.0
H1355 H 0.57312 0.89245 0.51862 0.0
H1356 H 0.53138 0.86784 0.59946 0.0
H1357 H 0.48315 0.8715 0.57627 0.0
C1358 C 0.47282 0.88265 0.51945 0.0
C1359 C 0.47092 0.88696 0.48904 0.0
C1360 C 0.50017 0.88336 0.53364 0.0
C1361 C 0.49642 0.89367 0.47321 0.0
C1362 C 0.52357 0.89541 0.48731 0.0
C1363 C 0.55336 0.88849 0.5312 0.0
C1364 C 0.55564 0.8801 0.5607 0.0
C1365 C 0.52582 0.88962 0.5174 0.0
C1366 C 0.53002 0.87443 0.57674 0.0
C1367 C 0.50251 0.87644 0.56346 0.0
H1368 H 0.10532 0.23512 0.20265 0.0
H1369 H 0.13372 0.30894 0.25394 0.0
H1370 H 0.14651 0.27648 0.29442 0.0
H1371 H 0.14985 0.22695 0.31504 0.0
H1372 H 0.12155 0.15355 0.26317 0.0
H1373 H 0.10872 0.18605 0.22301 0.0
C1374 C 0.11426 0.24419 0.22268 0.0
C1375 C 0.11849 0.27445 0.22525 0.0
C1376 C 0.12168 0.22544 0.24573 0.0
C1377 C 0.13026 0.28574 0.25135 0.0
C1378 C 0.13755 0.26719 0.27451 0.0
C1379 C 0.14065 0.21811 0.29505 0.0
C1380 C 0.1367 0.18781 0.29216 0.0
C1381 C 0.13333 0.23699 0.27196 0.0
C1382 C 0.12518 0.17669 0.26588 0.0
C1383 C 0.11768 0.19529 0.24295 0.0
H1384 H 0.73575 0.42378 0.30251 0.0
H1385 H 0.80781 0.38541 0.25506 0.0
H1386 H 0.77404 0.36913 0.21676 0.0
H1387 H 0.72389 0.36511 0.19728 0.0
H1388 H 0.65213 0.40361 0.24503 0.0
H1389 H 0.68597 0.42016 0.28291 0.0
C1390 C 0.74417 0.41195 0.28375 0.0
C1391 C 0.77434 0.40589 0.28168 0.0
C1392 C 0.72463 0.4025 0.26197 0.0
C1393 C 0.78474 0.39041 0.25724 0.0
C1394 C 0.76541 0.38107 0.23534 0.0
C1395 C 0.71565 0.37737 0.2158 0.0
C1396 C 0.68539 0.38307 0.21821 0.0
C1397 C 0.7353 0.38692 0.23752 0.0
C1398 C 0.67516 0.39856 0.24272 0.0
C1399 C 0.69455 0.40821 0.26433 0.0
H1400 H 0.88056 0.78821 0.31526 0.0
H1401 H 0.90407 0.86333 0.26373 0.0
H1402 H 0.91995 0.83177 0.22381 0.0
H1403 H 0.9275 0.783 0.20363 0.0
H1404 H 0.90384 0.70751 0.25466 0.0
H1405 H 0.88796 0.73906 0.29482 0.0
C1406 C 0.88937 0.79764 0.29538 0.0
C1407 C 0.89109 0.82812 0.29252 0.0
C1408 C 0.89848 0.77931 0.27246 0.0
C1409 C 0.90213 0.84 0.2664 0.0
C1410 C 0.9114 0.82195 0.24362 0.0
C1411 C 0.91895 0.77338 0.22355 0.0
C1412 C 0.91697 0.74292 0.22615 0.0
C1413 C 0.90969 0.7916 0.24641 0.0
C1414 C 0.90562 0.73089 0.25207 0.0
C1415 C 0.89654 0.74891 0.27505 0.0
H1416 H 0.34411 0.63278 0.25255 0.0
H1417 H 0.283 0.64883 0.18255 0.0
H1418 H 0.242 0.63778 0.21522 0.0
H1419 H 0.22349 0.62248 0.26391 0.0
H1420 H 0.28572 0.60583 0.33303 0.0
H1421 H 0.32599 0.6185 0.30071 0.0
C1422 C 0.32184 0.63424 0.24451 0.0
C1423 C 0.31671 0.64165 0.21514 0.0
C1424 C 0.29842 0.62767 0.26333 0.0
C1425 C 0.28762 0.64288 0.20499 0.0
C1426 C 0.26413 0.63668 0.22371 0.0
C1427 C 0.24586 0.62179 0.27186 0.0
C1428 C 0.25148 0.61309 0.30085 0.0
C1429 C 0.26925 0.62885 0.25294 0.0
C1430 C 0.28065 0.6122 0.31079 0.0
C1431 C 0.3038 0.61951 0.29233 0.0
H1432 H 0.09204 0.77852 0.80737 0.0
H1433 H 0.12048 0.7048 0.75608 0.0
H1434 H 0.13434 0.73737 0.71602 0.0
H1435 H 0.139 0.78707 0.69596 0.0
H1436 H 0.11087 0.86029 0.74801 0.0
H1437 H 0.09643 0.82762 0.78749 0.0
C1438 C 0.10118 0.76949 0.78741 0.0
C1439 C 0.10517 0.73927 0.78471 0.0
C1440 C 0.10927 0.7883 0.76466 0.0
C1441 C 0.1172 0.72801 0.75873 0.0
C1442 C 0.12511 0.74661 0.73582 0.0
C1443 C 0.12948 0.79578 0.71585 0.0
C1444 C 0.12611 0.82607 0.71908 0.0
C1445 C 0.12129 0.77682 0.73857 0.0
C1446 C 0.11409 0.83712 0.74514 0.0
C1447 C 0.10568 0.81844 0.76767 0.0
H1448 H 0.2848 0.3686 0.81737 0.0
H1449 H 0.35901 0.40455 0.77131 0.0
H1450 H 0.3274 0.4182 0.7306 0.0
H1451 H 0.27898 0.41976 0.70796 0.0
H1452 H 0.20432 0.38416 0.75363 0.0
H1453 H 0.23581 0.37086 0.79484 0.0
C1454 C 0.294 0.3797 0.79858 0.0
C1455 C 0.3243 0.38546 0.79742 0.0
C1456 C 0.27564 0.38756 0.7752 0.0
C1457 C 0.3359 0.39946 0.77264 0.0
C1458 C 0.3178 0.40743 0.7494 0.0
C1459 C 0.2695 0.40914 0.72692 0.0
C1460 C 0.23932 0.40295 0.72768 0.0
C1461 C 0.28769 0.4015 0.75041 0.0
C1462 C 0.22749 0.38915 0.75246 0.0
C1463 C 0.24548 0.38154 0.77602 0.0
H1464 H 0.89536 0.30375 0.76868 0.0
H1465 H 0.92105 0.23775 0.83077 0.0
H1466 H 0.90858 0.19972 0.79589 0.0
H1467 H 0.89148 0.18478 0.74742 0.0
H1468 H 0.86624 0.24996 0.68455 0.0
H1469 H 0.87759 0.28848 0.71978 0.0
C1470 C 0.89811 0.28105 0.77455 0.0
C1471 C 0.9092 0.27373 0.80232 0.0
C1472 C 0.89111 0.25902 0.75417 0.0
C1473 C 0.91274 0.24415 0.80953 0.0
C1474 C 0.90556 0.22227 0.78959 0.0
C1475 C 0.88815 0.20738 0.74152 0.0
C1476 C 0.87802 0.2144 0.71337 0.0
C1477 C 0.89485 0.22941 0.76182 0.0
C1478 C 0.87433 0.24391 0.70596 0.0
C1479 C 0.88069 0.26598 0.72616 0.0
H1480 H 0.73477 0.64907 0.81336 0.0
H1481 H 0.66351 0.59777 0.77836 0.0
H1482 H 0.69609 0.57752 0.74142 0.0
H1483 H 0.74432 0.57498 0.71836 0.0
H1484 H 0.81611 0.62536 0.7534 0.0
H1485 H 0.78387 0.64479 0.79155 0.0
C1486 C 0.72634 0.63321 0.79795 0.0
C1487 C 0.69646 0.62524 0.79868 0.0
C1488 C 0.74534 0.62135 0.77682 0.0
C1489 C 0.68612 0.60484 0.77812 0.0
C1490 C 0.70483 0.59303 0.75706 0.0
C1491 C 0.75305 0.5901 0.73441 0.0
C1492 C 0.78261 0.59877 0.73292 0.0
C1493 C 0.73439 0.60128 0.75609 0.0
C1494 C 0.79348 0.61827 0.75404 0.0
C1495 C 0.77501 0.62947 0.77579 0.0
H1496 H 0.21374 0.08087 0.24028 0.0
H1497 H 0.25731 0.12478 0.31169 0.0
H1498 H 0.29539 0.14184 0.27811 0.0
H1499 H 0.31548 0.14533 0.22824 0.0
H1500 H 0.27181 0.10102 0.15715 0.0
H1501 H 0.23433 0.08348 0.19085 0.0
C1502 C 0.23162 0.09406 0.24861 0.0
C1503 C 0.23263 0.1015 0.27853 0.0
C1504 C 0.25329 0.10395 0.22917 0.0
C1505 C 0.25598 0.11868 0.28881 0.0
C1506 C 0.27774 0.1285 0.26959 0.0
C1507 C 0.29799 0.13158 0.2201 0.0
C1508 C 0.29658 0.12461 0.19004 0.0
C1509 C 0.27653 0.12139 0.23969 0.0
C1510 C 0.27334 0.10713 0.17998 0.0
C1511 C 0.25195 0.09691 0.19931 0.0
H1512 H 0.64347 0.19921 0.28529 0.0
H1513 H 0.60779 0.24587 0.35921 0.0
H1514 H 0.59089 0.28441 0.3269 0.0
H1515 H 0.58617 0.30503 0.27799 0.0
H1516 H 0.62116 0.25894 0.20341 0.0
H1517 H 0.63802 0.2198 0.23563 0.0
C1518 C 0.63178 0.21767 0.2943 0.0
C1519 C 0.62711 0.21961 0.32476 0.0
C1520 C 0.62192 0.23983 0.27548 0.0
C1521 C 0.6122 0.24394 0.33602 0.0
C1522 C 0.60231 0.26595 0.3175 0.0
C1523 C 0.59742 0.28642 0.26866 0.0
C1524 C 0.60238 0.28495 0.23829 0.0
C1525 C 0.60711 0.26416 0.28726 0.0
C1526 C 0.61704 0.26064 0.2267 0.0
C1527 C 0.6267 0.23826 0.24513 0.0
H1528 H 0.8048 0.93158 0.23833 0.0
H1529 H 0.76943 0.88244 0.31069 0.0
H1530 H 0.73112 0.86285 0.27882 0.0
H1531 H 0.70854 0.8587 0.23022 0.0
H1532 H 0.74349 0.90852 0.15812 0.0
H1533 H 0.78138 0.92842 0.19007 0.0
C1534 C 0.78867 0.91666 0.24723 0.0
C1535 C 0.79007 0.9085 0.27692 0.0
C1536 C 0.76675 0.90541 0.22876 0.0
C1537 C 0.76891 0.88914 0.28797 0.0
C1538 C 0.74701 0.87788 0.26973 0.0
C1539 C 0.72415 0.87416 0.22145 0.0
C1540 C 0.72301 0.88197 0.1916 0.0
C1541 C 0.7458 0.88575 0.24005 0.0
C1542 C 0.74394 0.90172 0.18078 0.0
C1543 C 0.76556 0.91329 0.19912 0.0
H1544 H 0.42031 0.70508 0.28821 0.0
H1545 H 0.39614 0.75878 0.21466 0.0
H1546 H 0.38274 0.79831 0.24813 0.0
H1547 H 0.37798 0.81752 0.29847 0.0
H1548 H 0.40232 0.76318 0.37147 0.0
H1549 H 0.41527 0.72391 0.33799 0.0
C1550 C 0.41214 0.72542 0.2794 0.0
C1551 C 0.40934 0.72896 0.24892 0.0
C1552 C 0.40439 0.74792 0.29872 0.0
C1553 C 0.39854 0.75545 0.23801 0.0
C1554 C 0.39089 0.77807 0.25714 0.0
C1555 C 0.38631 0.79716 0.30703 0.0
C1556 C 0.38912 0.79338 0.33753 0.0
C1557 C 0.39379 0.77457 0.28756 0.0
C1558 C 0.39954 0.76664 0.34822 0.0
C1559 C 0.40713 0.74419 0.32905 0.0
H1560 H 0.31452 0.86335 0.77879 0.0
H1561 H 0.27326 0.90257 0.85414 0.0
H1562 H 0.23346 0.9202 0.82346 0.0
H1563 H 0.21031 0.92454 0.77553 0.0
H1564 H 0.25114 0.88592 0.69964 0.0
H1565 H 0.29145 0.86836 0.73022 0.0
C1566 C 0.29698 0.87597 0.78847 0.0
C1567 C 0.29692 0.88149 0.81884 0.0
C1568 C 0.27413 0.88622 0.7706 0.0
C1569 C 0.27372 0.89756 0.831 0.0
C1570 C 0.25101 0.90784 0.81341 0.0
C1571 C 0.22803 0.91234 0.76557 0.0
C1572 C 0.22768 0.90656 0.73531 0.0
C1573 C 0.25097 0.90225 0.78324 0.0
C1574 C 0.25085 0.89068 0.72287 0.0
C1575 C 0.27389 0.88061 0.74036 0.0
H1576 H 0.40147 0.26186 0.80306 0.0
H1577 H 0.41932 0.33118 0.74185 0.0
H1578 H 0.40727 0.29936 0.70106 0.0
H1579 H 0.39325 0.25145 0.68218 0.0
H1580 H 0.37669 0.18119 0.74235 0.0
H1581 H 0.38669 0.21348 0.78384 0.0
C1582 C 0.40257 0.26995 0.7808 0.0
C1583 C 0.41143 0.29884 0.77562 0.0
C1584 C 0.39595 0.2513 0.75711 0.0
C1585 C 0.41285 0.30898 0.74658 0.0
C1586 C 0.40588 0.29081 0.72312 0.0
C1587 C 0.39149 0.24331 0.70437 0.0
C1588 C 0.38424 0.21397 0.70912 0.0
C1589 C 0.39761 0.26189 0.72807 0.0
C1590 C 0.38253 0.20363 0.73807 0.0
C1591 C 0.38815 0.22212 0.76182 0.0
H1592 H 0.81252 0.11019 0.77808 0.0
H1593 H 0.75727 0.13665 0.7063 0.0
H1594 H 0.71735 0.14687 0.74075 0.0
H1595 H 0.69831 0.1481 0.79155 0.0
H1596 H 0.75449 0.12142 0.86254 0.0
H1597 H 0.79398 0.11167 0.82806 0.0
C1598 C 0.79177 0.11819 0.76983 0.0
C1599 C 0.7879 0.12256 0.73958 0.0
C1600 C 0.7691 0.12403 0.78969 0.0
C1601 C 0.76086 0.1331 0.72945 0.0
C1602 C 0.73803 0.1389 0.74916 0.0
C1603 C 0.71912 0.13995 0.79941 0.0
C1604 C 0.72338 0.13556 0.82968 0.0
C1605 C 0.74188 0.13435 0.77935 0.0
C1606 C 0.75067 0.12538 0.83951 0.0
C1607 C 0.77325 0.11963 0.81976 0.0
H1608 H 0.62362 0.75007 0.80072 0.0
H1609 H 0.5959 0.68796 0.73521 0.0
H1610 H 0.6092 0.72166 0.69655 0.0
H1611 H 0.6284 0.7688 0.68076 0.0
H1612 H 0.65612 0.8316 0.7453 0.0
H1613 H 0.64298 0.79791 0.78458 0.0
C1614 C 0.62047 0.74397 0.778 0.0
C1615 C 0.60874 0.71643 0.77106 0.0
C1616 C 0.62814 0.76364 0.75552 0.0
C1617 C 0.60481 0.70895 0.7414 0.0
C1618 C 0.61246 0.72823 0.71912 0.0
C1619 C 0.63185 0.77504 0.70338 0.0
C1620 C 0.64329 0.80272 0.70995 0.0
C1621 C 0.62418 0.7556 0.72587 0.0
C1622 C 0.64708 0.81057 0.73953 0.0
C1623 C 0.63968 0.79124 0.76206 0.0
H1624 H 0.30093 0.24809 0.11408 0.0
H1625 H 0.23451 0.18484 0.09157 0.0
H1626 H 0.19628 0.21911 0.10479 0.0
H1627 H 0.18118 0.26724 0.12196 0.0
H1628 H 0.24666 0.3313 0.14399 0.0
H1629 H 0.28551 0.29678 0.13162 0.0
C1630 C 0.2781 0.24185 0.11211 0.0
C1631 C 0.27074 0.21389 0.10177 0.0
C1632 C 0.25591 0.26187 0.11961 0.0
C1633 C 0.24097 0.20621 0.09931 0.0
C1634 C 0.21896 0.2258 0.10693 0.0
C1635 C 0.20393 0.27355 0.12438 0.0
C1636 C 0.21094 0.3018 0.13394 0.0
C1637 C 0.22613 0.25368 0.11705 0.0
C1638 C 0.24062 0.30978 0.1364 0.0
C1639 C 0.26287 0.29 0.12944 0.0
H1640 H 0.2419 0.8055 0.91712 0.0
H1641 H 0.31552 0.75566 0.88558 0.0
H1642 H 0.2823 0.71653 0.87029 0.0
H1643 H 0.23212 0.6969 0.86535 0.0
H1644 H 0.15903 0.7474 0.89703 0.0
H1645 H 0.19231 0.78601 0.91247 0.0
C1646 C 0.2508 0.78607 0.90699 0.0
C1647 C 0.28123 0.78354 0.90258 0.0
C1648 C 0.23161 0.76383 0.8981 0.0
C1649 C 0.29222 0.7582 0.88927 0.0
C1650 C 0.27322 0.73583 0.88051 0.0
C1651 C 0.22348 0.71622 0.87585 0.0
C1652 C 0.19299 0.71917 0.87994 0.0
C1653 C 0.24284 0.73843 0.88478 0.0
C1654 C 0.18224 0.74464 0.8932 0.0
C1655 C 0.20131 0.76669 0.90223 0.0
H1656 H 0.26766 0.21927 0.62367 0.0
H1657 H 0.33298 0.28433 0.60346 0.0
H1658 H 0.29808 0.32288 0.61396 0.0
H1659 H 0.24889 0.33839 0.6277 0.0
H1660 H 0.18279 0.27424 0.6474 0.0
H1661 H 0.21792 0.23513 0.63798 0.0
C1662 C 0.27423 0.24188 0.62169 0.0
C1663 C 0.30287 0.24885 0.61276 0.0
C1664 C 0.25387 0.26414 0.6275 0.0
C1665 C 0.31104 0.27828 0.61015 0.0
C1666 C 0.2911 0.30042 0.61618 0.0
C1667 C 0.24224 0.31589 0.63029 0.0
C1668 C 0.21331 0.30927 0.63834 0.0
C1669 C 0.26247 0.29362 0.62474 0.0
C1670 C 0.20489 0.27991 0.64097 0.0
C1671 C 0.225 0.25755 0.63572 0.0
H1672 H 0.78586 0.3137 0.87947 0.0
H1673 H 0.86072 0.2709 0.91758 0.0
H1674 H 0.82953 0.23101 0.93413 0.0
H1675 H 0.78122 0.20806 0.93739 0.0
H1676 H 0.70611 0.25068 0.89941 0.0
H1677 H 0.73715 0.29112 0.88357 0.0
C1678 C 0.79531 0.29584 0.89168 0.0
C1679 C 0.82564 0.29531 0.89719 0.0
C1680 C 0.77721 0.27295 0.90118 0.0
C1681 C 0.83756 0.27169 0.91266 0.0
C1682 C 0.8197 0.24894 0.92229 0.0
C1683 C 0.77156 0.22622 0.92574 0.0
C1684 C 0.74137 0.22631 0.91959 0.0
C1685 C 0.78953 0.24928 0.91656 0.0
C1686 C 0.72929 0.25003 0.90442 0.0
C1687 C 0.74703 0.27316 0.89534 0.0
H1688 H 0.70984 0.73621 0.60637 0.0
H1689 H 0.7649 0.80879 0.63064 0.0
H1690 H 0.80397 0.77505 0.64463 0.0
H1691 H 0.82228 0.72472 0.65004 0.0
H1692 H 0.76651 0.65275 0.6255 0.0
H1693 H 0.72779 0.68651 0.61191 0.0
C1694 C 0.73039 0.74475 0.61464 0.0
C1695 C 0.73445 0.77502 0.61734 0.0
C1696 C 0.75258 0.72529 0.62277 0.0
C1697 C 0.76119 0.7856 0.62831 0.0
C1698 C 0.78353 0.76631 0.63631 0.0
C1699 C 0.80173 0.71644 0.64155 0.0
C1700 C 0.79738 0.68615 0.6389 0.0
C1701 C 0.77947 0.73608 0.63362 0.0
C1702 C 0.7704 0.67584 0.62823 0.0
C1703 C 0.74827 0.69517 0.62023 0.0
H1704 H 0.79399 0.69708 0.14502 0.0
H1705 H 0.86624 0.74829 0.11227 0.0
H1706 H 0.83246 0.78647 0.09734 0.0
H1707 H 0.78271 0.80547 0.0936 0.0
H1708 H 0.70988 0.75471 0.12572 0.0
H1709 H 0.7436 0.71599 0.14051 0.0
C1710 C 0.80234 0.71644 0.13436 0.0
C1711 C 0.83274 0.71975 0.12991 0.0
C1712 C 0.78269 0.73838 0.12567 0.0
C1713 C 0.8431 0.74526 0.11642 0.0
C1714 C 0.82375 0.76708 0.10769 0.0
C1715 C 0.77409 0.78594 0.10379 0.0
C1716 C 0.74375 0.78304 0.10853 0.0
C1717 C 0.79355 0.7639 0.11227 0.0
C1718 C 0.73311 0.75753 0.12178 0.0
C1719 C 0.75239 0.73539 0.13027 0.0
H1720 H 0.20976 0.73419 0.3751 0.0
H1721 H 0.247 0.65977 0.41898 0.0
H1722 H 0.28572 0.69042 0.43916 0.0
H1723 H 0.30942 0.73811 0.44385 0.0
H1724 H 0.27197 0.81273 0.40046 0.0
H1725 H 0.23255 0.78226 0.38108 0.0
C1726 C 0.22607 0.72467 0.38936 0.0
C1727 C 0.22542 0.6946 0.39535 0.0
C1728 C 0.24823 0.74248 0.40106 0.0
C1729 C 0.24715 0.6827 0.41356 0.0
C1730 C 0.26923 0.70026 0.4253 0.0
C1731 C 0.29258 0.74779 0.43027 0.0
C1732 C 0.29372 0.77767 0.42359 0.0
C1733 C 0.27007 0.73014 0.41907 0.0
C1734 C 0.27166 0.7898 0.40596 0.0
C1735 C 0.24913 0.77237 0.39481 0.0
H1736 H 0.70201 0.28056 0.42173 0.0
H1737 H 0.75037 0.20356 0.39735 0.0
H1738 H 0.79086 0.23387 0.38 0.0
H1739 H 0.81206 0.28235 0.37084 0.0
H1740 H 0.76332 0.35904 0.39525 0.0
H1741 H 0.72332 0.32872 0.41315 0.0
C1742 C 0.72145 0.27035 0.41276 0.0
C1743 C 0.72314 0.23983 0.41088 0.0
C1744 C 0.7445 0.28787 0.4026 0.0
C1745 C 0.74847 0.22701 0.39904 0.0
C1746 C 0.77163 0.24433 0.38909 0.0
C1747 C 0.7928 0.29241 0.3803 0.0
C1748 C 0.79071 0.32296 0.38155 0.0
C1749 C 0.76983 0.27479 0.39065 0.0
C1750 C 0.76538 0.33564 0.39354 0.0
C1751 C 0.74254 0.31829 0.40399 0.0
loop_
_geom_bond_atom_site_label_1
_geom_bond_atom_site_label_2
_geom_bond_distance
_geom_bond_site_symmetry_2
_ccdc_geom_bond_type
C0 C1 1.351 1_455 S
C0 N3 1.368 . S
C0 H5 0.931 . S
C1 C0 1.351 1_655 S
C1 N2 1.373 1_655 S
C1 H29 0.930 . S
N2 C1 1.373 1_455 S
N2 C4 1.340 . S
N3 C0 1.368 . S
N3 C4 1.321 . S
N3 Co6 2.135 . S
C4 N2 1.340 . S
C4 N3 1.321 . S
C4 H28 0.930 . S
H5 C0 0.931 . S
Co6 N3 2.135 . S
Co6 N9 2.121 . S
Co6 O14 2.055 . S
Co6 O17 2.039 . S
Co6 N20 2.140 . S
C7 O8 1.227 . S
C7 O17 1.265 . S
O8 C7 1.227 . S
N9 Co6 2.121 . S
N9 C11 1.375 . S
N9 C12 1.313 . S
C10 C11 1.338 . S
C10 N13 1.377 . S
C10 H30 0.930 . S
C11 N9 1.375 . S
C11 C10 1.338 . S
C11 H15 0.931 . S
C12 N9 1.313 . S
C12 N13 1.344 . S
C12 H16 0.930 . S
N13 C10 1.377 . S
N13 C12 1.344 . S
O14 Co6 2.055 . S
O14 C18 1.253 . S
H15 C11 0.931 . S
H16 C12 0.930 . S
O17 Co6 2.039 . S
O17 C7 1.265 . S
C18 O14 1.253 . S
C18 O19 1.227 . S
O19 C18 1.227 . S
N20 Co6 2.140 . S
N20 C23 1.346 . S
N20 C24 1.345 . S
C21 C22 1.387 . S
C21 C25 1.391 . S
C22 C21 1.387 . S
C22 C23 1.369 . S
C22 H31 0.929 . S
C23 N20 1.346 . S
C23 C22 1.369 . S
C23 H26 0.928 . S
C24 N20 1.345 . S
C24 C25 1.371 . S
C24 H27 0.931 . S
C25 C21 1.391 . S
C25 C24 1.371 . S
C25 H32 0.930 . S
H26 C23 0.928 . S
H27 C24 0.931 . S
H28 C4 0.930 . S
H29 C1 0.930 . S
H30 C10 0.930 . S
H31 C22 0.929 . S
H32 C25 0.930 . S
C33 C34 1.351 . S
C33 N36 1.368 . S
C33 H38 0.931 . S
C34 C33 1.351 . S
C34 N35 1.373 . S
C34 H62 0.930 . S
N35 C34 1.373 . S
N35 C37 1.340 . S
N36 C33 1.368 . S
N36 C37 1.321 . S
N36 Co39 2.135 . S
C37 N35 1.340 . S
C37 N36 1.321 . S
C37 H61 0.930 . S
H38 C33 0.931 . S
Co39 N36 2.135 . S
Co39 N42 2.121 . S
Co39 O47 2.055 . S
Co39 O50 2.039 . S
Co39 N53 2.140 . S
C40 O41 1.227 . S
C40 O50 1.265 . S
O41 C40 1.227 . S
N42 Co39 2.121 . S
N42 C44 1.375 . S
N42 C45 1.313 . S
C43 C44 1.338 . S
C43 N46 1.377 . S
C43 H63 0.930 . S
C44 N42 1.375 . S
C44 C43 1.338 . S
C44 H48 0.931 . S
C45 N42 1.313 . S
C45 N46 1.344 . S
C45 H49 0.930 . S
N46 C43 1.377 . S
N46 C45 1.344 . S
O47 Co39 2.055 . S
O47 C51 1.253 . S
H48 C44 0.931 . S
H49 C45 0.930 . S
O50 Co39 2.039 . S
O50 C40 1.265 . S
C51 O47 1.253 . S
C51 O52 1.227 . S
O52 C51 1.227 . S
N53 Co39 2.140 . S
N53 C56 1.346 . S
N53 C57 1.345 . S
C54 C55 1.387 . S
C54 C58 1.391 . S
C55 C54 1.387 . S
C55 C56 1.369 . S
C55 H64 0.929 . S
C56 N53 1.346 . S
C56 C55 1.369 . S
C56 H59 0.928 . S
C57 N53 1.345 . S
C57 C58 1.371 . S
C57 H60 0.931 . S
C58 C54 1.391 . S
C58 C57 1.371 . S
C58 H65 0.930 . S
H59 C56 0.928 . S
H60 C57 0.931 . S
H61 C37 0.930 . S
H62 C34 0.930 . S
H63 C43 0.930 . S
H64 C55 0.929 . S
H65 C58 0.930 . S
C66 C67 1.351 1_655 S
C66 N69 1.368 . S
C66 H71 0.931 . S
C67 C66 1.351 1_455 S
C67 N68 1.373 1_455 S
C67 H95 0.930 . S
N68 C67 1.373 1_655 S
N68 C70 1.340 . S
N69 C66 1.368 . S
N69 C70 1.321 . S
N69 Co72 2.135 . S
C70 N68 1.340 . S
C70 N69 1.321 . S
C70 H94 0.930 . S
H71 C66 0.931 . S
Co72 N69 2.135 . S
Co72 N75 2.121 . S
Co72 O80 2.055 . S
Co72 O83 2.039 . S
Co72 N86 2.140 . S
C73 O74 1.227 . S
C73 O83 1.265 . S
O74 C73 1.227 . S
N75 Co72 2.121 . S
N75 C77 1.375 . S
N75 C78 1.313 . S
C76 C77 1.338 . S
C76 N79 1.377 . S
C76 H96 0.930 . S
C77 N75 1.375 . S
C77 C76 1.338 . S
C77 H81 0.931 . S
C78 N75 1.313 . S
C78 N79 1.344 . S
C78 H82 0.930 . S
N79 C76 1.377 . S
N79 C78 1.344 . S
O80 Co72 2.055 . S
O80 C84 1.253 . S
H81 C77 0.931 . S
H82 C78 0.930 . S
O83 Co72 2.039 . S
O83 C73 1.265 . S
C84 O80 1.253 . S
C84 O85 1.227 . S
O85 C84 1.227 . S
N86 Co72 2.140 . S
N86 C89 1.346 . S
N86 C90 1.345 . S
C87 C88 1.387 . S
C87 C91 1.391 . S
C88 C87 1.387 . S
C88 C89 1.369 . S
C88 H97 0.929 . S
C89 N86 1.346 . S
C89 C88 1.369 . S
C89 H92 0.928 . S
C90 N86 1.345 . S
C90 C91 1.371 . S
C90 H93 0.931 . S
C91 C87 1.391 . S
C91 C90 1.371 . S
C91 H98 0.930 . S
H92 C89 0.928 . S
H93 C90 0.931 . S
H94 C70 0.930 . S
H95 C67 0.930 . S
H96 C76 0.930 . S
H97 C88 0.929 . S
H98 C91 0.930 . S
C99 C100 1.351 . S
C99 N102 1.368 . S
C99 H104 0.931 . S
C100 C99 1.351 . S
C100 N101 1.373 . S
C100 H128 0.930 . S
N101 C100 1.373 . S
N101 C103 1.340 . S
N102 C99 1.368 . S
N102 C103 1.321 . S
N102 Co105 2.135 . S
C103 N101 1.340 . S
C103 N102 1.321 . S
C103 H127 0.930 . S
H104 C99 0.931 . S
Co105 N102 2.135 . S
Co105 N108 2.121 . S
Co105 O113 2.055 . S
Co105 O116 2.039 . S
Co105 N119 2.140 . S
C106 O107 1.227 . S
C106 O116 1.265 . S
O107 C106 1.227 . S
N108 Co105 2.121 . S
N108 C110 1.375 . S
N108 C111 1.313 . S
C109 C110 1.338 . S
C109 N112 1.377 . S
C109 H129 0.930 . S
C110 N108 1.375 . S
C110 C109 1.338 . S
C110 H114 0.931 . S
C111 N108 1.313 . S
C111 N112 1.344 . S
C111 H115 0.930 . S
N112 C109 1.377 . S
N112 C111 1.344 . S
O113 Co105 2.055 . S
O113 C117 1.253 . S
H114 C110 0.931 . S
H115 C111 0.930 . S
O116 Co105 2.039 . S
O116 C106 1.265 . S
C117 O113 1.253 . S
C117 O118 1.227 . S
O118 C117 1.227 . S
N119 Co105 2.140 . S
N119 C122 1.346 . S
N119 C123 1.345 . S
C120 C121 1.387 . S
C120 C124 1.391 . S
C121 C120 1.387 . S
C121 C122 1.369 . S
C121 H130 0.929 . S
C122 N119 1.346 . S
C122 C121 1.369 . S
C122 H125 0.928 . S
C123 N119 1.345 . S
C123 C124 1.371 . S
C123 H126 0.931 . S
C124 C120 1.391 . S
C124 C123 1.371 . S
C124 H131 0.930 . S
H125 C122 0.928 . S
H126 C123 0.931 . S
H127 C103 0.930 . S
H128 C100 0.930 . S
H129 C109 0.930 . S
H130 C121 0.929 . S
H131 C124 0.930 . S
C132 C133 1.351 1_455 S
C132 N135 1.368 . S
C132 H137 0.931 . S
C133 C132 1.351 1_655 S
C133 N134 1.373 1_655 S
C133 H161 0.930 . S
N134 C133 1.373 1_455 S
N134 C136 1.340 . S
N135 C132 1.368 . S
N135 C136 1.321 . S
N135 Co138 2.135 . S
C136 N134 1.340 . S
C136 N135 1.321 . S
C136 H160 0.930 . S
H137 C132 0.931 . S
Co138 N135 2.135 . S
Co138 N141 2.121 . S
Co138 O146 2.055 . S
Co138 O149 2.039 . S
Co138 N152 2.140 . S
C139 O140 1.227 . S
C139 O149 1.265 . S
O140 C139 1.227 . S
N141 Co138 2.121 . S
N141 C143 1.375 . S
N141 C144 1.313 . S
C142 C143 1.338 . S
C142 N145 1.377 . S
C142 H162 0.930 . S
C143 N141 1.375 . S
C143 C142 1.338 . S
C143 H147 0.931 . S
C144 N141 1.313 . S
C144 N145 1.344 . S
C144 H148 0.930 . S
N145 C142 1.377 . S
N145 C144 1.344 . S
O146 Co138 2.055 . S
O146 C150 1.253 . S
H147 C143 0.931 . S
H148 C144 0.930 . S
O149 Co138 2.039 . S
O149 C139 1.265 . S
C150 O146 1.253 . S
C150 O151 1.227 . S
O151 C150 1.227 . S
N152 Co138 2.140 . S
N152 C155 1.346 . S
N152 C156 1.345 . S
C153 C154 1.387 . S
C153 C157 1.391 . S
C154 C153 1.387 . S
C154 C155 1.369 . S
C154 H163 0.929 . S
C155 N152 1.346 . S
C155 C154 1.369 . S
C155 H158 0.928 . S
C156 N152 1.345 . S
C156 C157 1.371 . S
C156 H159 0.931 . S
C157 C153 1.391 . S
C157 C156 1.371 . S
C157 H164 0.930 . S
H158 C155 0.928 . S
H159 C156 0.931 . S
H160 C136 0.930 . S
H161 C133 0.930 . S
H162 C142 0.930 . S
H163 C154 0.929 . S
H164 C157 0.930 . S
C165 C166 1.351 . S
C165 N168 1.368 . S
C165 H170 0.931 . S
C166 C165 1.351 . S
C166 N167 1.373 . S
C166 H194 0.930 . S
N167 C166 1.373 . S
N167 C169 1.340 . S
N168 C165 1.368 . S
N168 C169 1.321 . S
N168 Co171 2.135 . S
C169 N167 1.340 . S
C169 N168 1.321 . S
C169 H193 0.930 . S
H170 C165 0.931 . S
Co171 N168 2.135 . S
Co171 N174 2.121 . S
Co171 O179 2.055 . S
Co171 O182 2.039 . S
Co171 N185 2.140 . S
C172 O173 1.227 . S
C172 O182 1.265 . S
O173 C172 1.227 . S
N174 Co171 2.121 . S
N174 C176 1.375 . S
N174 C177 1.313 . S
C175 C176 1.338 . S
C175 N178 1.377 . S
C175 H195 0.930 . S
C176 N174 1.375 . S
C176 C175 1.338 . S
C176 H180 0.931 . S
C177 N174 1.313 . S
C177 N178 1.344 . S
C177 H181 0.930 . S
N178 C175 1.377 . S
N178 C177 1.344 . S
O179 Co171 2.055 . S
O179 C183 1.253 . S
H180 C176 0.931 . S
H181 C177 0.930 . S
O182 Co171 2.039 . S
O182 C172 1.265 . S
C183 O179 1.253 . S
C183 O184 1.227 . S
O184 C183 1.227 . S
N185 Co171 2.140 . S
N185 C188 1.346 . S
N185 C189 1.345 . S
C186 C187 1.387 . S
C186 C190 1.391 . S
C187 C186 1.387 . S
C187 C188 1.369 . S
C187 H196 0.929 . S
C188 N185 1.346 . S
C188 C187 1.369 . S
C188 H191 0.928 . S
C189 N185 1.345 . S
C189 C190 1.371 . S
C189 H192 0.931 . S
C190 C186 1.391 . S
C190 C189 1.371 . S
C190 H197 0.930 . S
H191 C188 0.928 . S
H192 C189 0.931 . S
H193 C169 0.930 . S
H194 C166 0.930 . S
H195 C175 0.930 . S
H196 C187 0.929 . S
H197 C190 0.930 . S
C198 C199 1.351 1_655 S
C198 N201 1.368 . S
C198 H203 0.931 . S
C199 C198 1.351 1_455 S
C199 N200 1.373 1_455 S
C199 H227 0.930 . S
N200 C199 1.373 1_655 S
N200 C202 1.340 . S
N201 C198 1.368 . S
N201 C202 1.321 . S
N201 Co204 2.135 . S
C202 N200 1.340 . S
C202 N201 1.321 . S
C202 H226 0.930 . S
H203 C198 0.931 . S
Co204 N201 2.135 . S
Co204 N207 2.121 . S
Co204 O212 2.055 . S
Co204 O215 2.039 . S
Co204 N218 2.140 . S
C205 O206 1.227 . S
C205 O215 1.265 . S
O206 C205 1.227 . S
N207 Co204 2.121 . S
N207 C209 1.375 . S
N207 C210 1.313 . S
C208 C209 1.338 . S
C208 N211 1.377 . S
C208 H228 0.930 . S
C209 N207 1.375 . S
C209 C208 1.338 . S
C209 H213 0.931 . S
C210 N207 1.313 . S
C210 N211 1.344 . S
C210 H214 0.930 . S
N211 C208 1.377 . S
N211 C210 1.344 . S
O212 Co204 2.055 . S
O212 C216 1.253 . S
H213 C209 0.931 . S
H214 C210 0.930 . S
O215 Co204 2.039 . S
O215 C205 1.265 . S
C216 O212 1.253 . S
C216 O217 1.227 . S
O217 C216 1.227 . S
N218 Co204 2.140 . S
N218 C221 1.346 . S
N218 C222 1.345 . S
C219 C220 1.387 . S
C219 C223 1.391 . S
C220 C219 1.387 . S
C220 C221 1.369 . S
C220 H229 0.929 . S
C221 N218 1.346 . S
C221 C220 1.369 . S
C221 H224 0.928 . S
C222 N218 1.345 . S
C222 C223 1.371 . S
C222 H225 0.931 . S
C223 C219 1.391 . S
C223 C222 1.371 . S
C223 H230 0.930 . S
H224 C221 0.928 . S
H225 C222 0.931 . S
H226 C202 0.930 . S
H227 C199 0.930 . S
H228 C208 0.930 . S
H229 C220 0.929 . S
H230 C223 0.930 . S
C231 C232 1.351 . S
C231 N234 1.368 . S
C231 H236 0.931 . S
C232 C231 1.351 . S
C232 N233 1.373 . S
C232 H260 0.930 . S
N233 C232 1.373 . S
N233 C235 1.340 . S
N234 C231 1.368 . S
N234 C235 1.321 . S
N234 Co237 2.135 . S
C235 N233 1.340 . S
C235 N234 1.321 . S
C235 H259 0.930 . S
H236 C231 0.931 . S
Co237 N234 2.135 . S
Co237 N240 2.121 . S
Co237 O245 2.055 . S
Co237 O248 2.039 . S
Co237 N251 2.140 . S
C238 O239 1.227 . S
C238 O248 1.265 . S
O239 C238 1.227 . S
N240 Co237 2.121 . S
N240 C242 1.375 . S
N240 C243 1.313 . S
C241 C242 1.338 . S
C241 N244 1.377 . S
C241 H261 0.930 . S
C242 N240 1.375 . S
C242 C241 1.338 . S
C242 H246 0.931 . S
C243 N240 1.313 . S
C243 N244 1.344 . S
C243 H247 0.930 . S
N244 C241 1.377 . S
N244 C243 1.344 . S
O245 Co237 2.055 . S
O245 C249 1.253 . S
H246 C242 0.931 . S
H247 C243 0.930 . S
O248 Co237 2.039 . S
O248 C238 1.265 . S
C249 O245 1.253 . S
C249 O250 1.227 . S
O250 C249 1.227 . S
N251 Co237 2.140 . S
N251 C254 1.346 . S
N251 C255 1.345 . S
C252 C253 1.387 . S
C252 C256 1.391 . S
C253 C252 1.387 . S
C253 C254 1.369 . S
C253 H262 0.929 . S
C254 N251 1.346 . S
C254 C253 1.369 . S
C254 H257 0.928 . S
C255 N251 1.345 . S
C255 C256 1.371 . S
C255 H258 0.931 . S
C256 C252 1.391 . S
C256 C255 1.371 . S
C256 H263 0.930 . S
H257 C254 0.928 . S
H258 C255 0.931 . S
H259 C235 0.930 . S
H260 C232 0.930 . S
H261 C241 0.930 . S
H262 C253 0.929 . S
H263 C256 0.930 . S
C264 C265 1.351 1_545 S
C264 N267 1.368 . S
C264 H269 0.931 . S
C265 C264 1.351 1_565 S
C265 N266 1.373 1_565 S
C265 H293 0.930 . S
N266 C265 1.373 1_545 S
N266 C268 1.340 . S
N267 C264 1.368 . S
N267 C268 1.321 . S
N267 Co270 2.135 . S
C268 N266 1.340 . S
C268 N267 1.321 . S
C268 H292 0.930 . S
H269 C264 0.931 . S
Co270 N267 2.135 . S
Co270 N273 2.121 . S
Co270 O278 2.055 . S
Co270 O281 2.039 . S
Co270 N284 2.140 . S
C271 O272 1.227 . S
C271 O281 1.265 . S
O272 C271 1.227 . S
N273 Co270 2.121 . S
N273 C275 1.375 . S
N273 C276 1.313 . S
C274 C275 1.338 . S
C274 N277 1.377 . S
C274 H294 0.930 . S
C275 N273 1.375 . S
C275 C274 1.338 . S
C275 H279 0.931 . S
C276 N273 1.313 . S
C276 N277 1.344 . S
C276 H280 0.930 . S
N277 C274 1.377 . S
N277 C276 1.344 . S
O278 Co270 2.055 . S
O278 C282 1.253 . S
H279 C275 0.931 . S
H280 C276 0.930 . S
O281 Co270 2.039 . S
O281 C271 1.265 . S
C282 O278 1.253 . S
C282 O283 1.227 . S
O283 C282 1.227 . S
N284 Co270 2.140 . S
N284 C287 1.346 . S
N284 C288 1.345 . S
C285 C286 1.387 . S
C285 C289 1.391 . S
C286 C285 1.387 . S
C286 C287 1.369 . S
C286 H295 0.929 . S
C287 N284 1.346 . S
C287 C286 1.369 . S
C287 H290 0.928 . S
C288 N284 1.345 . S
C288 C289 1.371 . S
C288 H291 0.931 . S
C289 C285 1.391 . S
C289 C288 1.371 . S
C289 H296 0.930 . S
H290 C287 0.928 . S
H291 C288 0.931 . S
H292 C268 0.930 . S
H293 C265 0.930 . S
H294 C274 0.930 . S
H295 C286 0.929 . S
H296 C289 0.930 . S
C297 C298 1.351 . S
C297 N300 1.368 . S
C297 H302 0.931 . S
C298 C297 1.351 . S
C298 N299 1.373 . S
C298 H326 0.930 . S
N299 C298 1.373 . S
N299 C301 1.340 . S
N300 C297 1.368 . S
N300 C301 1.321 . S
N300 Co303 2.135 . S
C301 N299 1.340 . S
C301 N300 1.321 . S
C301 H325 0.930 . S
H302 C297 0.931 . S
Co303 N300 2.135 . S
Co303 N306 2.121 . S
Co303 O311 2.055 . S
Co303 O314 2.039 . S
Co303 N317 2.140 . S
C304 O305 1.227 . S
C304 O314 1.265 . S
O305 C304 1.227 . S
N306 Co303 2.121 . S
N306 C308 1.375 . S
N306 C309 1.313 . S
C307 C308 1.338 . S
C307 N310 1.377 . S
C307 H327 0.930 . S
C308 N306 1.375 . S
C308 C307 1.338 . S
C308 H312 0.931 . S
C309 N306 1.313 . S
C309 N310 1.344 . S
C309 H313 0.930 . S
N310 C307 1.377 . S
N310 C309 1.344 . S
O311 Co303 2.055 . S
O311 C315 1.253 . S
H312 C308 0.931 . S
H313 C309 0.930 . S
O314 Co303 2.039 . S
O314 C304 1.265 . S
C315 O311 1.253 . S
C315 O316 1.227 . S
O316 C315 1.227 . S
N317 Co303 2.140 . S
N317 C320 1.346 . S
N317 C321 1.345 . S
C318 C319 1.387 . S
C318 C322 1.391 . S
C319 C318 1.387 . S
C319 C320 1.369 . S
C319 H328 0.929 . S
C320 N317 1.346 . S
C320 C319 1.369 . S
C320 H323 0.928 . S
C321 N317 1.345 . S
C321 C322 1.371 . S
C321 H324 0.931 . S
C322 C318 1.391 . S
C322 C321 1.371 . S
C322 H329 0.930 . S
H323 C320 0.928 . S
H324 C321 0.931 . S
H325 C301 0.930 . S
H326 C298 0.930 . S
H327 C307 0.930 . S
H328 C319 0.929 . S
H329 C322 0.930 . S
C330 C331 1.351 1_565 S
C330 N333 1.368 . S
C330 H335 0.931 . S
C331 C330 1.351 1_545 S
C331 N332 1.373 1_545 S
C331 H359 0.930 . S
N332 C331 1.373 1_565 S
N332 C334 1.340 . S
N333 C330 1.368 . S
N333 C334 1.321 . S
N333 Co336 2.135 . S
C334 N332 1.340 . S
C334 N333 1.321 . S
C334 H358 0.930 . S
H335 C330 0.931 . S
Co336 N333 2.135 . S
Co336 N339 2.121 . S
Co336 O344 2.055 . S
Co336 O347 2.039 . S
Co336 N350 2.140 . S
C337 O338 1.227 . S
C337 O347 1.265 . S
O338 C337 1.227 . S
N339 Co336 2.121 . S
N339 C341 1.375 . S
N339 C342 1.313 . S
C340 C341 1.338 . S
C340 N343 1.377 . S
C340 H360 0.930 . S
C341 N339 1.375 . S
C341 C340 1.338 . S
C341 H345 0.931 . S
C342 N339 1.313 . S
C342 N343 1.344 . S
C342 H346 0.930 . S
N343 C340 1.377 . S
N343 C342 1.344 . S
O344 Co336 2.055 . S
O344 C348 1.253 . S
H345 C341 0.931 . S
H346 C342 0.930 . S
O347 Co336 2.039 . S
O347 C337 1.265 . S
C348 O344 1.253 . S
C348 O349 1.227 . S
O349 C348 1.227 . S
N350 Co336 2.140 . S
N350 C353 1.346 . S
N350 C354 1.345 . S
C351 C352 1.387 . S
C351 C355 1.391 . S
C352 C351 1.387 . S
C352 C353 1.369 . S
C352 H361 0.929 . S
C353 N350 1.346 . S
C353 C352 1.369 . S
C353 H356 0.928 . S
C354 N350 1.345 . S
C354 C355 1.371 . S
C354 H357 0.931 . S
C355 C351 1.391 . S
C355 C354 1.371 . S
C355 H362 0.930 . S
H356 C353 0.928 . S
H357 C354 0.931 . S
H358 C334 0.930 . S
H359 C331 0.930 . S
H360 C340 0.930 . S
H361 C352 0.929 . S
H362 C355 0.930 . S
C363 C364 1.351 . S
C363 N366 1.368 . S
C363 H368 0.931 . S
C364 C363 1.351 . S
C364 N365 1.373 . S
C364 H392 0.930 . S
N365 C364 1.373 . S
N365 C367 1.340 . S
N366 C363 1.368 . S
N366 C367 1.321 . S
N366 Co369 2.135 . S
C367 N365 1.340 . S
C367 N366 1.321 . S
C367 H391 0.930 . S
H368 C363 0.931 . S
Co369 N366 2.135 . S
Co369 N372 2.121 . S
Co369 O377 2.055 . S
Co369 O380 2.039 . S
Co369 N383 2.140 . S
C370 O371 1.227 . S
C370 O380 1.265 . S
O371 C370 1.227 . S
N372 Co369 2.121 . S
N372 C374 1.375 . S
N372 C375 1.313 . S
C373 C374 1.338 . S
C373 N376 1.377 . S
C373 H393 0.930 . S
C374 N372 1.375 . S
C374 C373 1.338 . S
C374 H378 0.931 . S
C375 N372 1.313 . S
C375 N376 1.344 . S
C375 H379 0.930 . S
N376 C373 1.377 . S
N376 C375 1.344 . S
O377 Co369 2.055 . S
O377 C381 1.253 . S
H378 C374 0.931 . S
H379 C375 0.930 . S
O380 Co369 2.039 . S
O380 C370 1.265 . S
C381 O377 1.253 . S
C381 O382 1.227 . S
O382 C381 1.227 . S
N383 Co369 2.140 . S
N383 C386 1.346 . S
N383 C387 1.345 . S
C384 C385 1.387 . S
C384 C388 1.391 . S
C385 C384 1.387 . S
C385 C386 1.369 . S
C385 H394 0.929 . S
C386 N383 1.346 . S
C386 C385 1.369 . S
C386 H389 0.928 . S
C387 N383 1.345 . S
C387 C388 1.371 . S
C387 H390 0.931 . S
C388 C384 1.391 . S
C388 C387 1.371 . S
C388 H395 0.930 . S
H389 C386 0.928 . S
H390 C387 0.931 . S
H391 C367 0.930 . S
H392 C364 0.930 . S
H393 C373 0.930 . S
H394 C385 0.929 . S
H395 C388 0.930 . S
C396 C397 1.351 1_565 S
C396 N399 1.368 . S
C396 H401 0.931 . S
C397 C396 1.351 1_545 S
C397 N398 1.373 1_545 S
C397 H425 0.930 . S
N398 C397 1.373 1_565 S
N398 C400 1.340 . S
N399 C396 1.368 . S
N399 C400 1.321 . S
N399 Co402 2.135 . S
C400 N398 1.340 . S
C400 N399 1.321 . S
C400 H424 0.930 . S
H401 C396 0.931 . S
Co402 N399 2.135 . S
Co402 N405 2.121 . S
Co402 O410 2.055 . S
Co402 O413 2.039 . S
Co402 N416 2.140 . S
C403 O404 1.227 . S
C403 O413 1.265 . S
O404 C403 1.227 . S
N405 Co402 2.121 . S
N405 C407 1.375 . S
N405 C408 1.313 . S
C406 C407 1.338 . S
C406 N409 1.377 . S
C406 H426 0.930 . S
C407 N405 1.375 . S
C407 C406 1.338 . S
C407 H411 0.931 . S
C408 N405 1.313 . S
C408 N409 1.344 . S
C408 H412 0.930 . S
N409 C406 1.377 . S
N409 C408 1.344 . S
O410 Co402 2.055 . S
O410 C414 1.253 . S
H411 C407 0.931 . S
H412 C408 0.930 . S
O413 Co402 2.039 . S
O413 C403 1.265 . S
C414 O410 1.253 . S
C414 O415 1.227 . S
O415 C414 1.227 . S
N416 Co402 2.140 . S
N416 C419 1.346 . S
N416 C420 1.345 . S
C417 C418 1.387 . S
C417 C421 1.391 . S
C418 C417 1.387 . S
C418 C419 1.369 . S
C418 H427 0.929 . S
C419 N416 1.346 . S
C419 C418 1.369 . S
C419 H422 0.928 . S
C420 N416 1.345 . S
C420 C421 1.371 . S
C420 H423 0.931 . S
C421 C417 1.391 . S
C421 C420 1.371 . S
C421 H428 0.930 . S
H422 C419 0.928 . S
H423 C420 0.931 . S
H424 C400 0.930 . S
H425 C397 0.930 . S
H426 C406 0.930 . S
H427 C418 0.929 . S
H428 C421 0.930 . S
C429 C430 1.351 . S
C429 N432 1.368 . S
C429 H434 0.931 . S
C430 C429 1.351 . S
C430 N431 1.373 . S
C430 H458 0.930 . S
N431 C430 1.373 . S
N431 C433 1.340 . S
N432 C429 1.368 . S
N432 C433 1.321 . S
N432 Co435 2.135 . S
C433 N431 1.340 . S
C433 N432 1.321 . S
C433 H457 0.930 . S
H434 C429 0.931 . S
Co435 N432 2.135 . S
Co435 N438 2.121 . S
Co435 O443 2.055 . S
Co435 O446 2.039 . S
Co435 N449 2.140 . S
C436 O437 1.227 . S
C436 O446 1.265 . S
O437 C436 1.227 . S
N438 Co435 2.121 . S
N438 C440 1.375 . S
N438 C441 1.313 . S
C439 C440 1.338 . S
C439 N442 1.377 . S
C439 H459 0.930 . S
C440 N438 1.375 . S
C440 C439 1.338 . S
C440 H444 0.931 . S
C441 N438 1.313 . S
C441 N442 1.344 . S
C441 H445 0.930 . S
N442 C439 1.377 . S
N442 C441 1.344 . S
O443 Co435 2.055 . S
O443 C447 1.253 . S
H444 C440 0.931 . S
H445 C441 0.930 . S
O446 Co435 2.039 . S
O446 C436 1.265 . S
C447 O443 1.253 . S
C447 O448 1.227 . S
O448 C447 1.227 . S
N449 Co435 2.140 . S
N449 C452 1.346 . S
N449 C453 1.345 . S
C450 C451 1.387 . S
C450 C454 1.391 . S
C451 C450 1.387 . S
C451 C452 1.369 . S
C451 H460 0.929 . S
C452 N449 1.346 . S
C452 C451 1.369 . S
C452 H455 0.928 . S
C453 N449 1.345 . S
C453 C454 1.371 . S
C453 H456 0.931 . S
C454 C450 1.391 . S
C454 C453 1.371 . S
C454 H461 0.930 . S
H455 C452 0.928 . S
H456 C453 0.931 . S
H457 C433 0.930 . S
H458 C430 0.930 . S
H459 C439 0.930 . S
H460 C451 0.929 . S
H461 C454 0.930 . S
C462 C463 1.351 1_545 S
C462 N465 1.368 . S
C462 H467 0.931 . S
C463 C462 1.351 1_565 S
C463 N464 1.373 1_565 S
C463 H491 0.930 . S
N464 C463 1.373 1_545 S
N464 C466 1.340 . S
N465 C462 1.368 . S
N465 C466 1.321 . S
N465 Co468 2.135 . S
C466 N464 1.340 . S
C466 N465 1.321 . S
C466 H490 0.930 . S
H467 C462 0.931 . S
Co468 N465 2.135 . S
Co468 N471 2.121 . S
Co468 O476 2.055 . S
Co468 O479 2.039 . S
Co468 N482 2.140 . S
C469 O470 1.227 . S
C469 O479 1.265 . S
O470 C469 1.227 . S
N471 Co468 2.121 . S
N471 C473 1.375 . S
N471 C474 1.313 . S
C472 C473 1.338 . S
C472 N475 1.377 . S
C472 H492 0.930 . S
C473 N471 1.375 . S
C473 C472 1.338 . S
C473 H477 0.931 . S
C474 N471 1.313 . S
C474 N475 1.344 . S
C474 H478 0.930 . S
N475 C472 1.377 . S
N475 C474 1.344 . S
O476 Co468 2.055 . S
O476 C480 1.253 . S
H477 C473 0.931 . S
H478 C474 0.930 . S
O479 Co468 2.039 . S
O479 C469 1.265 . S
C480 O476 1.253 . S
C480 O481 1.227 . S
O481 C480 1.227 . S
N482 Co468 2.140 . S
N482 C485 1.346 . S
N482 C486 1.345 . S
C483 C484 1.387 . S
C483 C487 1.391 . S
C484 C483 1.387 . S
C484 C485 1.369 . S
C484 H493 0.929 . S
C485 N482 1.346 . S
C485 C484 1.369 . S
C485 H488 0.928 . S
C486 N482 1.345 . S
C486 C487 1.371 . S
C486 H489 0.931 . S
C487 C483 1.391 . S
C487 C486 1.371 . S
C487 H494 0.930 . S
H488 C485 0.928 . S
H489 C486 0.931 . S
H490 C466 0.930 . S
H491 C463 0.930 . S
H492 C472 0.930 . S
H493 C484 0.929 . S
H494 C487 0.930 . S
C495 C496 1.351 . S
C495 N498 1.368 . S
C495 H500 0.931 . S
C496 C495 1.351 . S
C496 N497 1.373 . S
C496 H524 0.930 . S
N497 C496 1.373 . S
N497 C499 1.340 . S
N498 C495 1.368 . S
N498 C499 1.321 . S
N498 Co501 2.135 . S
C499 N497 1.340 . S
C499 N498 1.321 . S
C499 H523 0.930 . S
H500 C495 0.931 . S
Co501 N498 2.135 . S
Co501 N504 2.121 . S
Co501 O509 2.055 . S
Co501 O512 2.039 . S
Co501 N515 2.140 . S
C502 O503 1.227 . S
C502 O512 1.265 . S
O503 C502 1.227 . S
N504 Co501 2.121 . S
N504 C506 1.375 . S
N504 C507 1.313 . S
C505 C506 1.338 . S
C505 N508 1.377 . S
C505 H525 0.930 . S
C506 N504 1.375 . S
C506 C505 1.338 . S
C506 H510 0.931 . S
C507 N504 1.313 . S
C507 N508 1.344 . S
C507 H511 0.930 . S
N508 C505 1.377 . S
N508 C507 1.344 . S
O509 Co501 2.055 . S
O509 C513 1.253 . S
H510 C506 0.931 . S
H511 C507 0.930 . S
O512 Co501 2.039 . S
O512 C502 1.265 . S
C513 O509 1.253 . S
C513 O514 1.227 . S
O514 C513 1.227 . S
N515 Co501 2.140 . S
N515 C518 1.346 . S
N515 C519 1.345 . S
C516 C517 1.387 . S
C516 C520 1.391 . S
C517 C516 1.387 . S
C517 C518 1.369 . S
C517 H526 0.929 . S
C518 N515 1.346 . S
C518 C517 1.369 . S
C518 H521 0.928 . S
C519 N515 1.345 . S
C519 C520 1.371 . S
C519 H522 0.931 . S
C520 C516 1.391 . S
C520 C519 1.371 . S
C520 H527 0.930 . S
H521 C518 0.928 . S
H522 C519 0.931 . S
H523 C499 0.930 . S
H524 C496 0.930 . S
H525 C505 0.930 . S
H526 C517 0.929 . S
H527 C520 0.930 . S
C528 C529 1.351 1_554 S
C528 N531 1.368 . S
C528 H533 0.931 . S
C529 C528 1.351 1_556 S
C529 N530 1.373 1_556 S
C529 H557 0.930 . S
N530 C529 1.373 1_554 S
N530 C532 1.340 . S
N531 C528 1.368 . S
N531 C532 1.321 . S
N531 Co534 2.135 . S
C532 N530 1.340 . S
C532 N531 1.321 . S
C532 H556 0.930 . S
H533 C528 0.931 . S
Co534 N531 2.135 . S
Co534 N537 2.121 . S
Co534 O542 2.055 . S
Co534 O545 2.039 . S
Co534 N548 2.140 . S
C535 O536 1.227 . S
C535 O545 1.265 . S
O536 C535 1.227 . S
N537 Co534 2.121 . S
N537 C539 1.375 . S
N537 C540 1.313 . S
C538 C539 1.338 . S
C538 N541 1.377 . S
C538 H558 0.930 . S
C539 N537 1.375 . S
C539 C538 1.338 . S
C539 H543 0.931 . S
C540 N537 1.313 . S
C540 N541 1.344 . S
C540 H544 0.930 . S
N541 C538 1.377 . S
N541 C540 1.344 . S
O542 Co534 2.055 . S
O542 C546 1.253 . S
H543 C539 0.931 . S
H544 C540 0.930 . S
O545 Co534 2.039 . S
O545 C535 1.265 . S
C546 O542 1.253 . S
C546 O547 1.227 . S
O547 C546 1.227 . S
N548 Co534 2.140 . S
N548 C551 1.346 . S
N548 C552 1.345 . S
C549 C550 1.387 . S
C549 C553 1.391 . S
C550 C549 1.387 . S
C550 C551 1.369 . S
C550 H559 0.929 . S
C551 N548 1.346 . S
C551 C550 1.369 . S
C551 H554 0.928 . S
C552 N548 1.345 . S
C552 C553 1.371 . S
C552 H555 0.931 . S
C553 C549 1.391 . S
C553 C552 1.371 . S
C553 H560 0.930 . S
H554 C551 0.928 . S
H555 C552 0.931 . S
H556 C532 0.930 . S
H557 C529 0.930 . S
H558 C538 0.930 . S
H559 C550 0.929 . S
H560 C553 0.930 . S
C561 C562 1.351 1_556 S
C561 N564 1.368 . S
C561 H566 0.931 . S
C562 C561 1.351 1_554 S
C562 N563 1.373 1_554 S
C562 H590 0.930 . S
N563 C562 1.373 1_556 S
N563 C565 1.340 . S
N564 C561 1.368 . S
N564 C565 1.321 . S
N564 Co567 2.135 . S
C565 N563 1.340 . S
C565 N564 1.321 . S
C565 H589 0.930 . S
H566 C561 0.931 . S
Co567 N564 2.135 . S
Co567 N570 2.121 . S
Co567 O575 2.055 . S
Co567 O578 2.039 . S
Co567 N581 2.140 . S
C568 O569 1.227 . S
C568 O578 1.265 . S
O569 C568 1.227 . S
N570 Co567 2.121 . S
N570 C572 1.375 . S
N570 C573 1.313 . S
C571 C572 1.338 . S
C571 N574 1.377 . S
C571 H591 0.930 . S
C572 N570 1.375 . S
C572 C571 1.338 . S
C572 H576 0.931 . S
C573 N570 1.313 . S
C573 N574 1.344 . S
C573 H577 0.930 . S
N574 C571 1.377 . S
N574 C573 1.344 . S
O575 Co567 2.055 . S
O575 C579 1.253 . S
H576 C572 0.931 . S
H577 C573 0.930 . S
O578 Co567 2.039 . S
O578 C568 1.265 . S
C579 O575 1.253 . S
C579 O580 1.227 . S
O580 C579 1.227 . S
N581 Co567 2.140 . S
N581 C584 1.346 . S
N581 C585 1.345 . S
C582 C583 1.387 . S
C582 C586 1.391 . S
C583 C582 1.387 . S
C583 C584 1.369 . S
C583 H592 0.929 . S
C584 N581 1.346 . S
C584 C583 1.369 . S
C584 H587 0.928 . S
C585 N581 1.345 . S
C585 C586 1.371 . S
C585 H588 0.931 . S
C586 C582 1.391 . S
C586 C585 1.371 . S
C586 H593 0.930 . S
H587 C584 0.928 . S
H588 C585 0.931 . S
H589 C565 0.930 . S
H590 C562 0.930 . S
H591 C571 0.930 . S
H592 C583 0.929 . S
H593 C586 0.930 . S
C594 C595 1.351 . S
C594 N597 1.368 . S
C594 H599 0.931 . S
C595 C594 1.351 . S
C595 N596 1.373 . S
C595 H623 0.930 . S
N596 C595 1.373 . S
N596 C598 1.340 . S
N597 C594 1.368 . S
N597 C598 1.321 . S
N597 Co600 2.135 . S
C598 N596 1.340 . S
C598 N597 1.321 . S
C598 H622 0.930 . S
H599 C594 0.931 . S
Co600 N597 2.135 . S
Co600 N603 2.121 . S
Co600 O608 2.055 . S
Co600 O611 2.039 . S
Co600 N614 2.140 . S
C601 O602 1.227 . S
C601 O611 1.265 . S
O602 C601 1.227 . S
N603 Co600 2.121 . S
N603 C605 1.375 . S
N603 C606 1.313 . S
C604 C605 1.338 . S
C604 N607 1.377 . S
C604 H624 0.930 . S
C605 N603 1.375 . S
C605 C604 1.338 . S
C605 H609 0.931 . S
C606 N603 1.313 . S
C606 N607 1.344 . S
C606 H610 0.930 . S
N607 C604 1.377 . S
N607 C606 1.344 . S
O608 Co600 2.055 . S
O608 C612 1.253 . S
H609 C605 0.931 . S
H610 C606 0.930 . S
O611 Co600 2.039 . S
O611 C601 1.265 . S
C612 O608 1.253 . S
C612 O613 1.227 . S
O613 C612 1.227 . S
N614 Co600 2.140 . S
N614 C617 1.346 . S
N614 C618 1.345 . S
C615 C616 1.387 . S
C615 C619 1.391 . S
C616 C615 1.387 . S
C616 C617 1.369 . S
C616 H625 0.929 . S
C617 N614 1.346 . S
C617 C616 1.369 . S
C617 H620 0.928 . S
C618 N614 1.345 . S
C618 C619 1.371 . S
C618 H621 0.931 . S
C619 C615 1.391 . S
C619 C618 1.371 . S
C619 H626 0.930 . S
H620 C617 0.928 . S
H621 C618 0.931 . S
H622 C598 0.930 . S
H623 C595 0.930 . S
H624 C604 0.930 . S
H625 C616 0.929 . S
H626 C619 0.930 . S
C627 C628 1.351 1_556 S
C627 N630 1.368 . S
C627 H632 0.931 . S
C628 C627 1.351 1_554 S
C628 N629 1.373 1_554 S
C628 H656 0.930 . S
N629 C628 1.373 1_556 S
N629 C631 1.340 . S
N630 C627 1.368 . S
N630 C631 1.321 . S
N630 Co633 2.135 . S
C631 N629 1.340 . S
C631 N630 1.321 . S
C631 H655 0.930 . S
H632 C627 0.931 . S
Co633 N630 2.135 . S
Co633 N636 2.121 . S
Co633 O641 2.055 . S
Co633 O644 2.039 . S
Co633 N647 2.140 . S
C634 O635 1.227 . S
C634 O644 1.265 . S
O635 C634 1.227 . S
N636 Co633 2.121 . S
N636 C638 1.375 . S
N636 C639 1.313 . S
C637 C638 1.338 . S
C637 N640 1.377 . S
C637 H657 0.930 . S
C638 N636 1.375 . S
C638 C637 1.338 . S
C638 H642 0.931 . S
C639 N636 1.313 . S
C639 N640 1.344 . S
C639 H643 0.930 . S
N640 C637 1.377 . S
N640 C639 1.344 . S
O641 Co633 2.055 . S
O641 C645 1.253 . S
H642 C638 0.931 . S
H643 C639 0.930 . S
O644 Co633 2.039 . S
O644 C634 1.265 . S
C645 O641 1.253 . S
C645 O646 1.227 . S
O646 C645 1.227 . S
N647 Co633 2.140 . S
N647 C650 1.346 . S
N647 C651 1.345 . S
C648 C649 1.387 . S
C648 C652 1.391 . S
C649 C648 1.387 . S
C649 C650 1.369 . S
C649 H658 0.929 . S
C650 N647 1.346 . S
C650 C649 1.369 . S
C650 H653 0.928 . S
C651 N647 1.345 . S
C651 C652 1.371 . S
C651 H654 0.931 . S
C652 C648 1.391 . S
C652 C651 1.371 . S
C652 H659 0.930 . S
H653 C650 0.928 . S
H654 C651 0.931 . S
H655 C631 0.930 . S
H656 C628 0.930 . S
H657 C637 0.930 . S
H658 C649 0.929 . S
H659 C652 0.930 . S
C660 C661 1.351 . S
C660 N663 1.368 . S
C660 H665 0.931 . S
C661 C660 1.351 . S
C661 N662 1.373 . S
C661 H689 0.930 . S
N662 C661 1.373 . S
N662 C664 1.340 . S
N663 C660 1.368 . S
N663 C664 1.321 . S
N663 Co666 2.135 . S
C664 N662 1.340 . S
C664 N663 1.321 . S
C664 H688 0.930 . S
H665 C660 0.931 . S
Co666 N663 2.135 . S
Co666 N669 2.121 . S
Co666 O674 2.055 . S
Co666 O677 2.039 . S
Co666 N680 2.140 . S
C667 O668 1.227 . S
C667 O677 1.265 . S
O668 C667 1.227 . S
N669 Co666 2.121 . S
N669 C671 1.375 . S
N669 C672 1.313 . S
C670 C671 1.338 . S
C670 N673 1.377 . S
C670 H690 0.930 . S
C671 N669 1.375 . S
C671 C670 1.338 . S
C671 H675 0.931 . S
C672 N669 1.313 . S
C672 N673 1.344 . S
C672 H676 0.930 . S
N673 C670 1.377 . S
N673 C672 1.344 . S
O674 Co666 2.055 . S
O674 C678 1.253 . S
H675 C671 0.931 . S
H676 C672 0.930 . S
O677 Co666 2.039 . S
O677 C667 1.265 . S
C678 O674 1.253 . S
C678 O679 1.227 . S
O679 C678 1.227 . S
N680 Co666 2.140 . S
N680 C683 1.346 . S
N680 C684 1.345 . S
C681 C682 1.387 . S
C681 C685 1.391 . S
C682 C681 1.387 . S
C682 C683 1.369 . S
C682 H691 0.929 . S
C683 N680 1.346 . S
C683 C682 1.369 . S
C683 H686 0.928 . S
C684 N680 1.345 . S
C684 C685 1.371 . S
C684 H687 0.931 . S
C685 C681 1.391 . S
C685 C684 1.371 . S
C685 H692 0.930 . S
H686 C683 0.928 . S
H687 C684 0.931 . S
H688 C664 0.930 . S
H689 C661 0.930 . S
H690 C670 0.930 . S
H691 C682 0.929 . S
H692 C685 0.930 . S
C693 C694 1.351 1_554 S
C693 N696 1.368 . S
C693 H698 0.931 . S
C694 C693 1.351 1_556 S
C694 N695 1.373 1_556 S
C694 H722 0.930 . S
N695 C694 1.373 1_554 S
N695 C697 1.340 . S
N696 C693 1.368 . S
N696 C697 1.321 . S
N696 Co699 2.135 . S
C697 N695 1.340 . S
C697 N696 1.321 . S
C697 H721 0.930 . S
H698 C693 0.931 . S
Co699 N696 2.135 . S
Co699 N702 2.121 . S
Co699 O707 2.055 . S
Co699 O710 2.039 . S
Co699 N713 2.140 . S
C700 O701 1.227 . S
C700 O710 1.265 . S
O701 C700 1.227 . S
N702 Co699 2.121 . S
N702 C704 1.375 . S
N702 C705 1.313 . S
C703 C704 1.338 . S
C703 N706 1.377 . S
C703 H723 0.930 . S
C704 N702 1.375 . S
C704 C703 1.338 . S
C704 H708 0.931 . S
C705 N702 1.313 . S
C705 N706 1.344 . S
C705 H709 0.930 . S
N706 C703 1.377 . S
N706 C705 1.344 . S
O707 Co699 2.055 . S
O707 C711 1.253 . S
H708 C704 0.931 . S
H709 C705 0.930 . S
O710 Co699 2.039 . S
O710 C700 1.265 . S
C711 O707 1.253 . S
C711 O712 1.227 . S
O712 C711 1.227 . S
N713 Co699 2.140 . S
N713 C716 1.346 . S
N713 C717 1.345 . S
C714 C715 1.387 . S
C714 C718 1.391 . S
C715 C714 1.387 . S
C715 C716 1.369 . S
C715 H724 0.929 . S
C716 N713 1.346 . S
C716 C715 1.369 . S
C716 H719 0.928 . S
C717 N713 1.345 . S
C717 C718 1.371 . S
C717 H720 0.931 . S
C718 C714 1.391 . S
C718 C717 1.371 . S
C718 H725 0.930 . S
H719 C716 0.928 . S
H720 C717 0.931 . S
H721 C697 0.930 . S
H722 C694 0.930 . S
H723 C703 0.930 . S
H724 C715 0.929 . S
H725 C718 0.930 . S
C726 C727 1.351 . S
C726 N729 1.368 . S
C726 H731 0.931 . S
C727 C726 1.351 . S
C727 N728 1.373 . S
C727 H755 0.930 . S
N728 C727 1.373 . S
N728 C730 1.340 . S
N729 C726 1.368 . S
N729 C730 1.321 . S
N729 Co732 2.135 . S
C730 N728 1.340 . S
C730 N729 1.321 . S
C730 H754 0.930 . S
H731 C726 0.931 . S
Co732 N729 2.135 . S
Co732 N735 2.121 . S
Co732 O740 2.055 . S
Co732 O743 2.039 . S
Co732 N746 2.140 . S
C733 O734 1.227 . S
C733 O743 1.265 . S
O734 C733 1.227 . S
N735 Co732 2.121 . S
N735 C737 1.375 . S
N735 C738 1.313 . S
C736 C737 1.338 . S
C736 N739 1.377 . S
C736 H756 0.930 . S
C737 N735 1.375 . S
C737 C736 1.338 . S
C737 H741 0.931 . S
C738 N735 1.313 . S
C738 N739 1.344 . S
C738 H742 0.930 . S
N739 C736 1.377 . S
N739 C738 1.344 . S
O740 Co732 2.055 . S
O740 C744 1.253 . S
H741 C737 0.931 . S
H742 C738 0.930 . S
O743 Co732 2.039 . S
O743 C733 1.265 . S
C744 O740 1.253 . S
C744 O745 1.227 . S
O745 C744 1.227 . S
N746 Co732 2.140 . S
N746 C749 1.346 . S
N746 C750 1.345 . S
C747 C748 1.387 . S
C747 C751 1.391 . S
C748 C747 1.387 . S
C748 C749 1.369 . S
C748 H757 0.929 . S
C749 N746 1.346 . S
C749 C748 1.369 . S
C749 H752 0.928 . S
C750 N746 1.345 . S
C750 C751 1.371 . S
C750 H753 0.931 . S
C751 C747 1.391 . S
C751 C750 1.371 . S
C751 H758 0.930 . S
H752 C749 0.928 . S
H753 C750 0.931 . S
H754 C730 0.930 . S
H755 C727 0.930 . S
H756 C736 0.930 . S
H757 C748 0.929 . S
H758 C751 0.930 . S
C759 C760 1.351 . S
C759 N762 1.368 . S
C759 H764 0.931 . S
C760 C759 1.351 . S
C760 N761 1.373 . S
C760 H788 0.930 . S
N761 C760 1.373 . S
N761 C763 1.340 . S
N762 C759 1.368 . S
N762 C763 1.321 . S
N762 Co765 2.135 . S
C763 N761 1.340 . S
C763 N762 1.321 . S
C763 H787 0.930 . S
H764 C759 0.931 . S
Co765 N762 2.135 . S
Co765 N768 2.121 . S
Co765 O773 2.055 . S
Co765 O776 2.039 . S
Co765 N779 2.140 . S
C766 O767 1.227 . S
C766 O776 1.265 . S
O767 C766 1.227 . S
N768 Co765 2.121 . S
N768 C770 1.375 . S
N768 C771 1.313 . S
C769 C770 1.338 . S
C769 N772 1.377 . S
C769 H789 0.930 . S
C770 N768 1.375 . S
C770 C769 1.338 . S
C770 H774 0.931 . S
C771 N768 1.313 . S
C771 N772 1.344 . S
C771 H775 0.930 . S
N772 C769 1.377 . S
N772 C771 1.344 . S
O773 Co765 2.055 . S
O773 C777 1.253 . S
H774 C770 0.931 . S
H775 C771 0.930 . S
O776 Co765 2.039 . S
O776 C766 1.265 . S
C777 O773 1.253 . S
C777 O778 1.227 . S
O778 C777 1.227 . S
N779 Co765 2.140 . S
N779 C782 1.346 . S
N779 C783 1.345 . S
C780 C781 1.387 . S
C780 C784 1.391 . S
C781 C780 1.387 . S
C781 C782 1.369 . S
C781 H790 0.929 . S
C782 N779 1.346 . S
C782 C781 1.369 . S
C782 H785 0.928 . S
C783 N779 1.345 . S
C783 C784 1.371 . S
C783 H786 0.931 . S
C784 C780 1.391 . S
C784 C783 1.371 . S
C784 H791 0.930 . S
H785 C782 0.928 . S
H786 C783 0.931 . S
H787 C763 0.930 . S
H788 C760 0.930 . S
H789 C769 0.930 . S
H790 C781 0.929 . S
H791 C784 0.930 . S
H792 C798 0.930 . S
H793 C801 0.930 . S
H794 C802 0.930 . S
H795 C803 0.930 . S
H796 C806 0.930 . S
H797 C807 0.930 . S
C798 H792 0.930 . S
C798 C799 1.355 . S
C798 C800 1.415 . S
C799 C798 1.355 . S
C799 C801 1.419 . S
C800 C798 1.415 . S
C800 C805 1.425 . S
C800 C807 1.409 . S
C801 H793 0.930 . S
C801 C799 1.419 . S
C801 C802 1.362 . S
C802 H794 0.930 . S
C802 C801 1.362 . S
C802 C805 1.409 . S
C803 H795 0.930 . S
C803 C804 1.355 . S
C803 C805 1.415 . S
C804 C803 1.355 . S
C804 C806 1.419 . S
C805 C800 1.425 . S
C805 C802 1.409 . S
C805 C803 1.415 . S
C806 H796 0.930 . S
C806 C804 1.419 . S
C806 C807 1.362 . S
C807 H797 0.930 . S
C807 C800 1.409 . S
C807 C806 1.362 . S
H808 C814 0.930 . S
H809 C817 0.930 . S
H810 C818 0.930 . S
H811 C819 0.930 . S
H812 C822 0.930 . S
H813 C823 0.930 . S
C814 H808 0.930 . S
C814 C815 1.355 . S
C814 C816 1.415 . S
C815 C814 1.355 . S
C815 C817 1.419 . S
C816 C814 1.415 . S
C816 C821 1.425 . S
C816 C823 1.409 . S
C817 H809 0.930 . S
C817 C815 1.419 . S
C817 C818 1.362 . S
C818 H810 0.930 . S
C818 C817 1.362 . S
C818 C821 1.409 . S
C819 H811 0.930 . S
C819 C820 1.355 . S
C819 C821 1.415 . S
C820 C819 1.355 . S
C820 C822 1.419 . S
C821 C816 1.425 . S
C821 C818 1.409 . S
C821 C819 1.415 . S
C822 H812 0.930 . S
C822 C820 1.419 . S
C822 C823 1.362 . S
C823 H813 0.930 . S
C823 C816 1.409 . S
C823 C822 1.362 . S
H824 C830 0.930 . S
H825 C833 0.930 . S
H826 C834 0.930 . S
H827 C835 0.930 . S
H828 C838 0.930 . S
H829 C839 0.930 . S
C830 H824 0.930 . S
C830 C831 1.355 . S
C830 C832 1.415 . S
C831 C830 1.355 . S
C831 C833 1.419 . S
C832 C830 1.415 . S
C832 C837 1.425 . S
C832 C839 1.409 . S
C833 H825 0.930 . S
C833 C831 1.419 . S
C833 C834 1.362 . S
C834 H826 0.930 . S
C834 C833 1.362 . S
C834 C837 1.409 . S
C835 H827 0.930 . S
C835 C836 1.355 . S
C835 C837 1.415 . S
C836 C835 1.355 . S
C836 C838 1.419 . S
C837 C832 1.425 . S
C837 C834 1.409 . S
C837 C835 1.415 . S
C838 H828 0.930 . S
C838 C836 1.419 . S
C838 C839 1.362 . S
C839 H829 0.930 . S
C839 C832 1.409 . S
C839 C838 1.362 . S
H840 C846 0.930 . S
H841 C849 0.930 . S
H842 C850 0.930 . S
H843 C851 0.930 . S
H844 C854 0.930 . S
H845 C855 0.930 . S
C846 H840 0.930 . S
C846 C847 1.355 . S
C846 C848 1.415 . S
C847 C846 1.355 . S
C847 C849 1.419 . S
C848 C846 1.415 . S
C848 C853 1.425 . S
C848 C855 1.409 . S
C849 H841 0.930 . S
C849 C847 1.419 . S
C849 C850 1.362 . S
C850 H842 0.930 . S
C850 C849 1.362 . S
C850 C853 1.409 . S
C851 H843 0.930 . S
C851 C852 1.355 . S
C851 C853 1.415 . S
C852 C851 1.355 . S
C852 C854 1.419 . S
C853 C848 1.425 . S
C853 C850 1.409 . S
C853 C851 1.415 . S
C854 H844 0.930 . S
C854 C852 1.419 . S
C854 C855 1.362 . S
C855 H845 0.930 . S
C855 C848 1.409 . S
C855 C854 1.362 . S
H856 C862 0.930 . S
H857 C865 0.930 . S
H858 C866 0.930 . S
H859 C867 0.930 . S
H860 C870 0.930 . S
H861 C871 0.930 . S
C862 H856 0.930 . S
C862 C863 1.355 . S
C862 C864 1.415 . S
C863 C862 1.355 . S
C863 C865 1.419 . S
C864 C862 1.415 . S
C864 C869 1.425 . S
C864 C871 1.409 . S
C865 H857 0.930 . S
C865 C863 1.419 . S
C865 C866 1.362 . S
C866 H858 0.930 . S
C866 C865 1.362 . S
C866 C869 1.409 . S
C867 H859 0.930 . S
C867 C868 1.355 . S
C867 C869 1.415 . S
C868 C867 1.355 . S
C868 C870 1.419 . S
C869 C864 1.425 . S
C869 C866 1.409 . S
C869 C867 1.415 . S
C870 H860 0.930 . S
C870 C868 1.419 . S
C870 C871 1.362 . S
C871 H861 0.930 . S
C871 C864 1.409 . S
C871 C870 1.362 . S
H872 C878 0.930 . S
H873 C881 0.930 1_655 S
H874 C882 0.930 . S
H875 C883 0.930 . S
H876 C886 0.930 . S
H877 C887 0.930 . S
C878 H872 0.930 . S
C878 C879 1.355 . S
C878 C880 1.415 . S
C879 C878 1.355 . S
C879 C881 1.419 . S
C880 C878 1.415 . S
C880 C885 1.425 . S
C880 C887 1.409 . S
C881 H873 0.930 1_455 S
C881 C879 1.419 . S
C881 C882 1.362 . S
C882 H874 0.930 . S
C882 C881 1.362 . S
C882 C885 1.409 . S
C883 H875 0.930 . S
C883 C884 1.355 . S
C883 C885 1.415 . S
C884 C883 1.355 . S
C884 C886 1.419 . S
C885 C880 1.425 . S
C885 C882 1.409 . S
C885 C883 1.415 . S
C886 H876 0.930 . S
C886 C884 1.419 . S
C886 C887 1.362 . S
C887 H877 0.930 . S
C887 C880 1.409 . S
C887 C886 1.362 . S
H888 C894 0.930 . S
H889 C897 0.930 . S
H890 C898 0.930 . S
H891 C899 0.930 . S
H892 C902 0.930 . S
H893 C903 0.930 . S
C894 H888 0.930 . S
C894 C895 1.355 . S
C894 C896 1.415 . S
C895 C894 1.355 . S
C895 C897 1.419 . S
C896 C894 1.415 . S
C896 C901 1.425 . S
C896 C903 1.409 . S
C897 H889 0.930 . S
C897 C895 1.419 . S
C897 C898 1.362 . S
C898 H890 0.930 . S
C898 C897 1.362 . S
C898 C901 1.409 . S
C899 H891 0.930 . S
C899 C900 1.355 . S
C899 C901 1.415 . S
C900 C899 1.355 . S
C900 C902 1.419 . S
C901 C896 1.425 . S
C901 C898 1.409 . S
C901 C899 1.415 . S
C902 H892 0.930 . S
C902 C900 1.419 . S
C902 C903 1.362 . S
C903 H893 0.930 . S
C903 C896 1.409 . S
C903 C902 1.362 . S
H904 C910 0.928 . S
H905 C913 0.930 . S
H906 C914 0.930 . S
H907 C915 0.930 . S
H908 C918 0.930 . S
H909 C919 0.930 . S
C910 H904 0.928 . S
C910 C911 1.355 . S
C910 C912 1.415 . S
C911 C910 1.355 . S
C911 C913 1.419 . S
C912 C910 1.415 . S
C912 C917 1.425 . S
C912 C919 1.409 . S
C913 H905 0.930 . S
C913 C911 1.419 . S
C913 C914 1.362 . S
C914 H906 0.930 . S
C914 C913 1.362 . S
C914 C917 1.409 . S
C915 H907 0.930 . S
C915 C916 1.355 . S
C915 C917 1.415 . S
C916 C915 1.355 . S
C916 C918 1.419 . S
C917 C912 1.425 . S
C917 C914 1.409 . S
C917 C915 1.415 . S
C918 H908 0.930 . S
C918 C916 1.419 . S
C918 C919 1.362 . S
C919 H909 0.930 . S
C919 C912 1.409 . S
C919 C918 1.362 . S
H920 C926 0.930 . S
H921 C929 0.930 . S
H922 C930 0.930 . S
H923 C931 0.930 . S
H924 C934 0.930 . S
H925 C935 0.930 . S
C926 H920 0.930 . S
C926 C927 1.355 . S
C926 C928 1.415 . S
C927 C926 1.355 . S
C927 C929 1.419 . S
C928 C926 1.415 . S
C928 C933 1.425 . S
C928 C935 1.409 . S
C929 H921 0.930 . S
C929 C927 1.419 . S
C929 C930 1.362 . S
C930 H922 0.930 . S
C930 C929 1.362 . S
C930 C933 1.409 . S
C931 H923 0.930 . S
C931 C932 1.355 . S
C931 C933 1.415 . S
C932 C931 1.355 . S
C932 C934 1.419 . S
C933 C928 1.425 . S
C933 C930 1.409 . S
C933 C931 1.415 . S
C934 H924 0.930 . S
C934 C932 1.419 . S
C934 C935 1.362 . S
C935 H925 0.930 . S
C935 C928 1.409 . S
C935 C934 1.362 . S
H936 C942 0.930 . S
H937 C945 0.930 . S
H938 C946 0.930 . S
H939 C947 0.935 . S
H940 C950 0.930 . S
H941 C951 0.930 . S
C942 H936 0.930 . S
C942 C943 1.355 . S
C942 C944 1.415 . S
C943 C942 1.355 . S
C943 C945 1.419 . S
C944 C942 1.415 . S
C944 C949 1.425 . S
C944 C951 1.409 . S
C945 H937 0.930 . S
C945 C943 1.419 . S
C945 C946 1.362 . S
C946 H938 0.930 . S
C946 C945 1.362 . S
C946 C949 1.409 . S
C947 H939 0.935 . S
C947 C948 1.355 . S
C947 C949 1.415 . S
C948 C947 1.355 . S
C948 C950 1.419 . S
C949 C944 1.425 . S
C949 C946 1.409 . S
C949 C947 1.415 . S
C950 H940 0.930 . S
C950 C948 1.419 . S
C950 C951 1.362 . S
C951 H941 0.930 . S
C951 C944 1.409 . S
C951 C950 1.362 . S
H952 C958 0.930 . S
H953 C961 0.930 . S
H954 C962 0.930 . S
H955 C963 0.930 . S
H956 C966 0.930 . S
H957 C967 0.930 . S
C958 H952 0.930 . S
C958 C959 1.355 . S
C958 C960 1.415 . S
C959 C958 1.355 . S
C959 C961 1.419 . S
C960 C958 1.415 . S
C960 C965 1.425 . S
C960 C967 1.409 . S
C961 H953 0.930 . S
C961 C959 1.419 . S
C961 C962 1.362 . S
C962 H954 0.930 . S
C962 C961 1.362 . S
C962 C965 1.409 . S
C963 H955 0.930 . S
C963 C964 1.355 . S
C963 C965 1.415 . S
C964 C963 1.355 . S
C964 C966 1.419 . S
C965 C960 1.425 . S
C965 C962 1.409 . S
C965 C963 1.415 . S
C966 H956 0.930 . S
C966 C964 1.419 . S
C966 C967 1.362 . S
C967 H957 0.930 . S
C967 C960 1.409 . S
C967 C966 1.362 . S
H968 C974 0.930 . S
H969 C977 0.930 . S
H970 C978 0.930 . S
H971 C979 0.930 . S
H972 C982 0.930 . S
H973 C983 0.930 . S
C974 H968 0.930 . S
C974 C975 1.355 . S
C974 C976 1.415 . S
C975 C974 1.355 . S
C975 C977 1.419 . S
C976 C974 1.415 . S
C976 C981 1.425 . S
C976 C983 1.409 . S
C977 H969 0.930 . S
C977 C975 1.419 . S
C977 C978 1.362 . S
C978 H970 0.930 . S
C978 C977 1.362 . S
C978 C981 1.409 . S
C979 H971 0.930 . S
C979 C980 1.355 . S
C979 C981 1.415 . S
C980 C979 1.355 . S
C980 C982 1.419 . S
C981 C976 1.425 . S
C981 C978 1.409 . S
C981 C979 1.415 . S
C982 H972 0.930 . S
C982 C980 1.419 . S
C982 C983 1.362 . S
C983 H973 0.930 . S
C983 C976 1.409 . S
C983 C982 1.362 . S
H984 C990 0.930 . S
H985 C993 0.930 . S
H986 C994 0.930 . S
H987 C995 0.930 . S
H988 C998 0.930 . S
H989 C999 0.930 . S
C990 H984 0.930 . S
C990 C991 1.355 . S
C990 C992 1.415 . S
C991 C990 1.355 . S
C991 C993 1.419 . S
C992 C990 1.415 . S
C992 C997 1.425 . S
C992 C999 1.409 . S
C993 H985 0.930 . S
C993 C991 1.419 . S
C993 C994 1.362 . S
C994 H986 0.930 . S
C994 C993 1.362 . S
C994 C997 1.409 . S
C995 H987 0.930 . S
C995 C996 1.355 . S
C995 C997 1.415 . S
C996 C995 1.355 . S
C996 C998 1.419 . S
C997 C992 1.425 . S
C997 C994 1.409 . S
C997 C995 1.415 . S
C998 H988 0.930 . S
C998 C996 1.419 . S
C998 C999 1.362 . S
C999 H989 0.930 . S
C999 C992 1.409 . S
C999 C998 1.362 . S
H1000 C1006 0.930 . S
H1001 C1009 0.930 . S
H1002 C1010 0.930 . S
H1003 C1011 0.930 . S
H1004 C1014 0.930 . S
H1005 C1015 0.930 . S
C1006 H1000 0.930 . S
C1006 C1007 1.355 . S
C1006 C1008 1.415 . S
C1007 C1006 1.355 . S
C1007 C1009 1.419 . S
C1008 C1006 1.415 . S
C1008 C1013 1.425 . S
C1008 C1015 1.409 . S
C1009 H1001 0.930 . S
C1009 C1007 1.419 . S
C1009 C1010 1.362 . S
C1010 H1002 0.930 . S
C1010 C1009 1.362 . S
C1010 C1013 1.409 . S
C1011 H1003 0.930 . S
C1011 C1012 1.355 . S
C1011 C1013 1.415 . S
C1012 C1011 1.355 . S
C1012 C1014 1.419 . S
C1013 C1008 1.425 . S
C1013 C1010 1.409 . S
C1013 C1011 1.415 . S
C1014 H1004 0.930 . S
C1014 C1012 1.419 . S
C1014 C1015 1.362 . S
C1015 H1005 0.930 . S
C1015 C1008 1.409 . S
C1015 C1014 1.362 . S
H1016 C1022 0.930 . S
H1017 C1025 0.930 . S
H1018 C1026 0.930 . S
H1019 C1027 0.930 . S
H1020 C1030 0.930 . S
H1021 C1031 0.930 . S
C1022 H1016 0.930 . S
C1022 C1023 1.355 . S
C1022 C1024 1.415 . S
C1023 C1022 1.355 . S
C1023 C1025 1.419 . S
C1024 C1022 1.415 . S
C1024 C1029 1.425 . S
C1024 C1031 1.409 . S
C1025 H1017 0.930 . S
C1025 C1023 1.419 . S
C1025 C1026 1.362 . S
C1026 H1018 0.930 . S
C1026 C1025 1.362 . S
C1026 C1029 1.409 . S
C1027 H1019 0.930 . S
C1027 C1028 1.355 . S
C1027 C1029 1.415 . S
C1028 C1027 1.355 . S
C1028 C1030 1.419 . S
C1029 C1024 1.425 . S
C1029 C1026 1.409 . S
C1029 C1027 1.415 . S
C1030 H1020 0.930 . S
C1030 C1028 1.419 . S
C1030 C1031 1.362 . S
C1031 H1021 0.930 . S
C1031 C1024 1.409 . S
C1031 C1030 1.362 . S
H1032 C1038 0.933 1_554 S
H1033 C1041 0.930 . S
H1034 C1042 0.930 . S
H1035 C1043 0.930 . S
H1036 C1046 0.930 . S
H1037 C1047 0.930 . S
C1038 H1032 0.933 1_556 S
C1038 C1039 1.355 . S
C1038 C1040 1.415 . S
C1039 C1038 1.355 . S
C1039 C1041 1.419 . S
C1040 C1038 1.415 . S
C1040 C1045 1.425 . S
C1040 C1047 1.409 . S
C1041 H1033 0.930 . S
C1041 C1039 1.419 . S
C1041 C1042 1.362 . S
C1042 H1034 0.930 . S
C1042 C1041 1.362 . S
C1042 C1045 1.409 . S
C1043 H1035 0.930 . S
C1043 C1044 1.355 . S
C1043 C1045 1.415 . S
C1044 C1043 1.355 . S
C1044 C1046 1.419 . S
C1045 C1040 1.425 . S
C1045 C1042 1.409 . S
C1045 C1043 1.415 . S
C1046 H1036 0.930 . S
C1046 C1044 1.419 . S
C1046 C1047 1.362 . S
C1047 H1037 0.930 . S
C1047 C1040 1.409 . S
C1047 C1046 1.362 . S
H1048 C1054 0.930 . S
H1049 C1057 0.930 . S
H1050 C1058 0.930 . S
H1051 C1059 0.930 . S
H1052 C1062 0.930 . S
H1053 C1063 0.930 . S
C1054 H1048 0.930 . S
C1054 C1055 1.355 . S
C1054 C1056 1.415 . S
C1055 C1054 1.355 . S
C1055 C1057 1.419 . S
C1056 C1054 1.415 . S
C1056 C1061 1.425 . S
C1056 C1063 1.409 . S
C1057 H1049 0.930 . S
C1057 C1055 1.419 . S
C1057 C1058 1.362 . S
C1058 H1050 0.930 . S
C1058 C1057 1.362 . S
C1058 C1061 1.409 . S
C1059 H1051 0.930 . S
C1059 C1060 1.355 . S
C1059 C1061 1.415 . S
C1060 C1059 1.355 . S
C1060 C1062 1.419 . S
C1061 C1056 1.425 . S
C1061 C1058 1.409 . S
C1061 C1059 1.415 . S
C1062 H1052 0.930 . S
C1062 C1060 1.419 . S
C1062 C1063 1.362 . S
C1063 H1053 0.930 . S
C1063 C1056 1.409 . S
C1063 C1062 1.362 . S
H1064 C1070 0.930 . S
H1065 C1073 0.930 . S
H1066 C1074 0.930 . S
H1067 C1075 0.930 . S
H1068 C1078 0.930 . S
H1069 C1079 0.930 . S
C1070 H1064 0.930 . S
C1070 C1071 1.355 . S
C1070 C1072 1.415 . S
C1071 C1070 1.355 . S
C1071 C1073 1.419 . S
C1072 C1070 1.415 . S
C1072 C1077 1.425 . S
C1072 C1079 1.409 . S
C1073 H1065 0.930 . S
C1073 C1071 1.419 . S
C1073 C1074 1.362 . S
C1074 H1066 0.930 . S
C1074 C1073 1.362 . S
C1074 C1077 1.409 . S
C1075 H1067 0.930 . S
C1075 C1076 1.355 . S
C1075 C1077 1.415 . S
C1076 C1075 1.355 . S
C1076 C1078 1.419 . S
C1077 C1072 1.425 . S
C1077 C1074 1.409 . S
C1077 C1075 1.415 . S
C1078 H1068 0.930 . S
C1078 C1076 1.419 . S
C1078 C1079 1.362 . S
C1079 H1069 0.930 . S
C1079 C1072 1.409 . S
C1079 C1078 1.362 . S
H1080 C1086 0.930 . S
H1081 C1089 0.930 1_565 S
H1082 C1090 0.930 . S
H1083 C1091 0.930 . S
H1084 C1094 0.930 . S
H1085 C1095 0.930 . S
C1086 H1080 0.930 . S
C1086 C1087 1.355 . S
C1086 C1088 1.415 . S
C1087 C1086 1.355 . S
C1087 C1089 1.419 . S
C1088 C1086 1.415 . S
C1088 C1093 1.425 . S
C1088 C1095 1.409 . S
C1089 H1081 0.930 1_545 S
C1089 C1087 1.419 . S
C1089 C1090 1.362 . S
C1090 H1082 0.930 . S
C1090 C1089 1.362 . S
C1090 C1093 1.409 . S
C1091 H1083 0.930 . S
C1091 C1092 1.355 . S
C1091 C1093 1.415 . S
C1092 C1091 1.355 . S
C1092 C1094 1.419 . S
C1093 C1088 1.425 . S
C1093 C1090 1.409 . S
C1093 C1091 1.415 . S
C1094 H1084 0.930 . S
C1094 C1092 1.419 . S
C1094 C1095 1.362 . S
C1095 H1085 0.930 . S
C1095 C1088 1.409 . S
C1095 C1094 1.362 . S
H1096 C1102 0.930 . S
H1097 C1105 0.930 . S
H1098 C1106 0.930 . S
H1099 C1107 0.930 . S
H1100 C1110 0.930 . S
H1101 C1111 0.930 . S
C1102 H1096 0.930 . S
C1102 C1103 1.355 . S
C1102 C1104 1.415 . S
C1103 C1102 1.355 . S
C1103 C1105 1.419 . S
C1104 C1102 1.415 . S
C1104 C1109 1.425 . S
C1104 C1111 1.409 . S
C1105 H1097 0.930 . S
C1105 C1103 1.419 . S
C1105 C1106 1.362 . S
C1106 H1098 0.930 . S
C1106 C1105 1.362 . S
C1106 C1109 1.409 . S
C1107 H1099 0.930 . S
C1107 C1108 1.355 . S
C1107 C1109 1.415 . S
C1108 C1107 1.355 . S
C1108 C1110 1.419 . S
C1109 C1104 1.425 . S
C1109 C1106 1.409 . S
C1109 C1107 1.415 . S
C1110 H1100 0.930 . S
C1110 C1108 1.419 . S
C1110 C1111 1.362 . S
C1111 H1101 0.930 . S
C1111 C1104 1.409 . S
C1111 C1110 1.362 . S
H1112 C1118 0.930 . S
H1113 C1121 0.930 . S
H1114 C1122 0.930 . S
H1115 C1123 0.930 . S
H1116 C1126 0.930 . S
H1117 C1127 0.930 . S
C1118 H1112 0.930 . S
C1118 C1119 1.355 . S
C1118 C1120 1.415 . S
C1119 C1118 1.355 . S
C1119 C1121 1.419 . S
C1120 C1118 1.415 . S
C1120 C1125 1.425 . S
C1120 C1127 1.409 . S
C1121 H1113 0.930 . S
C1121 C1119 1.419 . S
C1121 C1122 1.362 . S
C1122 H1114 0.930 . S
C1122 C1121 1.362 . S
C1122 C1125 1.409 . S
C1123 H1115 0.930 . S
C1123 C1124 1.355 . S
C1123 C1125 1.415 . S
C1124 C1123 1.355 . S
C1124 C1126 1.419 . S
C1125 C1120 1.425 . S
C1125 C1122 1.409 . S
C1125 C1123 1.415 . S
C1126 H1116 0.930 . S
C1126 C1124 1.419 . S
C1126 C1127 1.362 . S
C1127 H1117 0.930 . S
C1127 C1120 1.409 . S
C1127 C1126 1.362 . S
H1128 C1134 0.930 . S
H1129 C1137 0.930 . S
H1130 C1138 0.930 . S
H1131 C1139 0.930 . S
H1132 C1142 0.930 . S
H1133 C1143 0.930 . S
C1134 H1128 0.930 . S
C1134 C1135 1.355 . S
C1134 C1136 1.415 . S
C1135 C1134 1.355 . S
C1135 C1137 1.419 . S
C1136 C1134 1.415 . S
C1136 C1141 1.425 . S
C1136 C1143 1.409 . S
C1137 H1129 0.930 . S
C1137 C1135 1.419 . S
C1137 C1138 1.362 . S
C1138 H1130 0.930 . S
C1138 C1137 1.362 . S
C1138 C1141 1.409 . S
C1139 H1131 0.930 . S
C1139 C1140 1.355 . S
C1139 C1141 1.415 . S
C1140 C1139 1.355 . S
C1140 C1142 1.419 . S
C1141 C1136 1.425 . S
C1141 C1138 1.409 . S
C1141 C1139 1.415 . S
C1142 H1132 0.930 . S
C1142 C1140 1.419 . S
C1142 C1143 1.362 . S
C1143 H1133 0.930 . S
C1143 C1136 1.409 . S
C1143 C1142 1.362 . S
H1144 C1150 0.930 . S
H1145 C1153 0.930 1_545 S
H1146 C1154 0.930 . S
H1147 C1155 0.930 . S
H1148 C1158 0.930 . S
H1149 C1159 0.930 . S
C1150 H1144 0.930 . S
C1150 C1151 1.355 . S
C1150 C1152 1.415 . S
C1151 C1150 1.355 . S
C1151 C1153 1.419 . S
C1152 C1150 1.415 . S
C1152 C1157 1.425 . S
C1152 C1159 1.409 . S
C1153 H1145 0.930 1_565 S
C1153 C1151 1.419 . S
C1153 C1154 1.362 . S
C1154 H1146 0.930 . S
C1154 C1153 1.362 . S
C1154 C1157 1.409 . S
C1155 H1147 0.930 . S
C1155 C1156 1.355 . S
C1155 C1157 1.415 . S
C1156 C1155 1.355 . S
C1156 C1158 1.419 . S
C1157 C1152 1.425 . S
C1157 C1154 1.409 . S
C1157 C1155 1.415 . S
C1158 H1148 0.930 . S
C1158 C1156 1.419 . S
C1158 C1159 1.362 . S
C1159 H1149 0.930 . S
C1159 C1152 1.409 . S
C1159 C1158 1.362 . S
H1160 C1166 0.930 . S
H1161 C1169 0.930 1_565 S
H1162 C1170 0.930 . S
H1163 C1171 0.930 . S
H1164 C1174 0.930 . S
H1165 C1175 0.930 . S
C1166 H1160 0.930 . S
C1166 C1167 1.355 . S
C1166 C1168 1.415 . S
C1167 C1166 1.355 . S
C1167 C1169 1.419 . S
C1168 C1166 1.415 . S
C1168 C1173 1.425 . S
C1168 C1175 1.409 . S
C1169 H1161 0.930 1_545 S
C1169 C1167 1.419 . S
C1169 C1170 1.362 . S
C1170 H1162 0.930 . S
C1170 C1169 1.362 . S
C1170 C1173 1.409 . S
C1171 H1163 0.930 . S
C1171 C1172 1.355 . S
C1171 C1173 1.415 . S
C1172 C1171 1.355 . S
C1172 C1174 1.419 . S
C1173 C1168 1.425 . S
C1173 C1170 1.409 . S
C1173 C1171 1.415 . S
C1174 H1164 0.930 . S
C1174 C1172 1.419 . S
C1174 C1175 1.362 . S
C1175 H1165 0.930 . S
C1175 C1168 1.409 . S
C1175 C1174 1.362 . S
H1176 C1182 0.930 . S
H1177 C1185 0.930 . S
H1178 C1186 0.930 1_554 S
H1179 C1187 0.930 . S
H1180 C1190 0.930 . S
H1181 C1191 0.930 1_556 S
C1182 H1176 0.930 . S
C1182 C1183 1.355 1_455 S
C1182 C1184 1.415 . S
C1183 C1182 1.355 1_655 S
C1183 C1185 1.419 . S
C1184 C1182 1.415 . S
C1184 C1189 1.425 1_456 S
C1184 C1191 1.409 1_556 S
C1185 H1177 0.930 . S
C1185 C1183 1.419 . S
C1185 C1186 1.362 . S
C1186 H1178 0.930 1_556 S
C1186 C1185 1.362 . S
C1186 C1189 1.409 1_556 S
C1187 H1179 0.930 . S
C1187 C1188 1.355 1_655 S
C1187 C1189 1.415 . S
C1188 C1187 1.355 1_455 S
C1188 C1190 1.419 . S
C1189 C1184 1.425 1_654 S
C1189 C1186 1.409 1_554 S
C1189 C1187 1.415 . S
C1190 H1180 0.930 . S
C1190 C1188 1.419 . S
C1190 C1191 1.362 . S
C1191 H1181 0.930 1_554 S
C1191 C1184 1.409 1_554 S
C1191 C1190 1.362 . S
H1192 C1198 0.930 . S
H1193 C1201 0.930 . S
H1194 C1202 0.930 . S
H1195 C1203 0.930 . S
H1196 C1206 0.930 . S
H1197 C1207 0.930 . S
C1198 H1192 0.930 . S
C1198 C1199 1.355 . S
C1198 C1200 1.415 . S
C1199 C1198 1.355 . S
C1199 C1201 1.419 . S
C1200 C1198 1.415 . S
C1200 C1205 1.425 . S
C1200 C1207 1.409 . S
C1201 H1193 0.930 . S
C1201 C1199 1.419 . S
C1201 C1202 1.362 . S
C1202 H1194 0.930 . S
C1202 C1201 1.362 . S
C1202 C1205 1.409 . S
C1203 H1195 0.930 . S
C1203 C1204 1.355 . S
C1203 C1205 1.415 . S
C1204 C1203 1.355 . S
C1204 C1206 1.419 . S
C1205 C1200 1.425 . S
C1205 C1202 1.409 . S
C1205 C1203 1.415 . S
C1206 H1196 0.930 . S
C1206 C1204 1.419 . S
C1206 C1207 1.362 . S
C1207 H1197 0.930 . S
C1207 C1200 1.409 . S
C1207 C1206 1.362 . S
H1208 C1214 0.930 . S
H1209 C1217 0.930 . S
H1210 C1218 0.930 . S
H1211 C1219 0.930 . S
H1212 C1222 0.930 . S
H1213 C1223 0.930 . S
C1214 H1208 0.930 . S
C1214 C1215 1.355 . S
C1214 C1216 1.415 . S
C1215 C1214 1.355 . S
C1215 C1217 1.419 1_455 S
C1216 C1214 1.415 . S
C1216 C1221 1.425 1_456 S
C1216 C1223 1.409 1_556 S
C1217 H1209 0.930 . S
C1217 C1215 1.419 1_655 S
C1217 C1218 1.362 . S
C1218 H1210 0.930 . S
C1218 C1217 1.362 . S
C1218 C1221 1.409 1_556 S
C1219 H1211 0.930 . S
C1219 C1220 1.355 . S
C1219 C1221 1.415 . S
C1220 C1219 1.355 . S
C1220 C1222 1.419 1_655 S
C1221 C1216 1.425 1_654 S
C1221 C1218 1.409 1_554 S
C1221 C1219 1.415 . S
C1222 H1212 0.930 . S
C1222 C1220 1.419 1_455 S
C1222 C1223 1.362 . S
C1223 H1213 0.930 . S
C1223 C1216 1.409 1_554 S
C1223 C1222 1.362 . S
H1224 C1230 0.930 . S
H1225 C1233 0.930 . S
H1226 C1234 0.930 . S
H1227 C1235 0.930 . S
H1228 C1238 0.930 . S
H1229 C1239 0.930 . S
C1230 H1224 0.930 . S
C1230 C1231 1.355 . S
C1230 C1232 1.415 . S
C1231 C1230 1.355 . S
C1231 C1233 1.419 . S
C1232 C1230 1.415 . S
C1232 C1237 1.425 . S
C1232 C1239 1.409 . S
C1233 H1225 0.930 . S
C1233 C1231 1.419 . S
C1233 C1234 1.362 . S
C1234 H1226 0.930 . S
C1234 C1233 1.362 . S
C1234 C1237 1.409 . S
C1235 H1227 0.930 . S
C1235 C1236 1.355 . S
C1235 C1237 1.415 . S
C1236 C1235 1.355 . S
C1236 C1238 1.419 . S
C1237 C1232 1.425 . S
C1237 C1234 1.409 . S
C1237 C1235 1.415 . S
C1238 H1228 0.930 . S
C1238 C1236 1.419 . S
C1238 C1239 1.362 . S
C1239 H1229 0.930 . S
C1239 C1232 1.409 . S
C1239 C1238 1.362 . S
H1240 C1246 0.930 . S
H1241 C1249 0.930 . S
H1242 C1250 0.917 1_455 S
H1243 C1251 0.930 . S
H1244 C1254 0.930 . S
H1245 C1255 0.917 1_655 S
C1246 H1240 0.930 . S
C1246 C1247 1.355 1_545 S
C1246 C1248 1.415 . S
C1247 C1246 1.355 1_565 S
C1247 C1249 1.419 . S
C1248 C1246 1.415 . S
C1248 C1253 1.425 1_645 S
C1248 C1255 1.402 1_655 S
C1249 H1241 0.930 . S
C1249 C1247 1.419 . S
C1249 C1250 1.382 . S
C1250 H1242 0.917 1_655 S
C1250 C1249 1.382 . S
C1250 C1253 1.402 1_655 S
C1251 H1243 0.930 . S
C1251 C1252 1.355 1_565 S
C1251 C1253 1.415 . S
C1252 C1251 1.355 1_545 S
C1252 C1254 1.419 . S
C1253 C1248 1.425 1_465 S
C1253 C1250 1.402 1_455 S
C1253 C1251 1.415 . S
C1254 H1244 0.930 . S
C1254 C1252 1.419 . S
C1254 C1255 1.382 . S
C1255 H1245 0.917 1_455 S
C1255 C1248 1.402 1_455 S
C1255 C1254 1.382 . S
H1256 C1262 0.930 . S
H1257 C1265 0.930 . S
H1258 C1266 0.930 . S
H1259 C1267 0.930 . S
H1260 C1270 0.930 . S
H1261 C1271 0.930 . S
C1262 H1256 0.930 . S
C1262 C1263 1.355 . S
C1262 C1264 1.415 . S
C1263 C1262 1.355 . S
C1263 C1265 1.419 . S
C1264 C1262 1.415 . S
C1264 C1269 1.425 . S
C1264 C1271 1.409 . S
C1265 H1257 0.930 . S
C1265 C1263 1.419 . S
C1265 C1266 1.362 . S
C1266 H1258 0.930 . S
C1266 C1265 1.362 . S
C1266 C1269 1.409 . S
C1267 H1259 0.930 . S
C1267 C1268 1.355 . S
C1267 C1269 1.415 . S
C1268 C1267 1.355 . S
C1268 C1270 1.419 . S
C1269 C1264 1.425 . S
C1269 C1266 1.409 . S
C1269 C1267 1.415 . S
C1270 H1260 0.930 . S
C1270 C1268 1.419 . S
C1270 C1271 1.362 . S
C1271 H1261 0.930 . S
C1271 C1264 1.409 . S
C1271 C1270 1.362 . S
H1272 C1278 0.930 . S
H1273 C1281 0.930 . S
H1274 C1282 0.930 . S
H1275 C1283 0.930 . S
H1276 C1286 0.930 . S
H1277 C1287 0.930 . S
C1278 H1272 0.930 . S
C1278 C1279 1.355 . S
C1278 C1280 1.415 . S
C1279 C1278 1.355 . S
C1279 C1281 1.419 . S
C1280 C1278 1.415 . S
C1280 C1285 1.425 1_465 S
C1280 C1287 1.409 1_465 S
C1281 H1273 0.930 . S
C1281 C1279 1.419 . S
C1281 C1282 1.362 . S
C1282 H1274 0.930 . S
C1282 C1281 1.362 . S
C1282 C1285 1.409 1_465 S
C1283 H1275 0.930 . S
C1283 C1284 1.355 . S
C1283 C1285 1.415 . S
C1284 C1283 1.355 . S
C1284 C1286 1.419 . S
C1285 C1280 1.425 1_645 S
C1285 C1282 1.409 1_645 S
C1285 C1283 1.415 . S
C1286 H1276 0.930 . S
C1286 C1284 1.419 . S
C1286 C1287 1.362 . S
C1287 H1277 0.930 . S
C1287 C1280 1.409 1_645 S
C1287 C1286 1.362 . S
H1288 C1294 0.930 . S
H1289 C1297 0.930 . S
H1290 C1298 0.930 . S
H1291 C1299 0.930 . S
H1292 C1302 0.930 . S
H1293 C1303 0.930 . S
C1294 H1288 0.930 . S
C1294 C1295 1.355 . S
C1294 C1296 1.415 . S
C1295 C1294 1.355 . S
C1295 C1297 1.419 . S
C1296 C1294 1.415 . S
C1296 C1301 1.425 . S
C1296 C1303 1.409 . S
C1297 H1289 0.930 . S
C1297 C1295 1.419 . S
C1297 C1298 1.362 . S
C1298 H1290 0.930 . S
C1298 C1297 1.362 . S
C1298 C1301 1.409 . S
C1299 H1291 0.930 . S
C1299 C1300 1.355 . S
C1299 C1301 1.415 . S
C1300 C1299 1.355 . S
C1300 C1302 1.419 . S
C1301 C1296 1.425 . S
C1301 C1298 1.409 . S
C1301 C1299 1.415 . S
C1302 H1292 0.930 . S
C1302 C1300 1.419 . S
C1302 C1303 1.362 . S
C1303 H1293 0.930 . S
C1303 C1296 1.409 . S
C1303 C1302 1.362 . S
H1304 C1310 0.930 1_556 S
H1305 C1313 0.930 . S
H1306 C1314 0.930 1_565 S
H1307 C1315 0.930 1_554 S
H1308 C1318 0.930 . S
H1309 C1319 0.930 1_545 S
C1310 H1304 0.930 1_554 S
C1310 C1311 1.355 . S
C1310 C1312 1.415 1_554 S
C1311 C1310 1.355 . S
C1311 C1313 1.419 . S
C1312 C1310 1.415 1_556 S
C1312 C1317 1.425 1_546 S
C1312 C1319 1.409 1_545 S
C1313 H1305 0.930 . S
C1313 C1311 1.419 . S
C1313 C1314 1.362 . S
C1314 H1306 0.930 1_545 S
C1314 C1313 1.362 . S
C1314 C1317 1.409 1_545 S
C1315 H1307 0.930 1_556 S
C1315 C1316 1.355 . S
C1315 C1317 1.415 1_556 S
C1316 C1315 1.355 . S
C1316 C1318 1.419 . S
C1317 C1312 1.425 1_564 S
C1317 C1314 1.409 1_565 S
C1317 C1315 1.415 1_554 S
C1318 H1308 0.930 . S
C1318 C1316 1.419 . S
C1318 C1319 1.362 . S
C1319 H1309 0.930 1_565 S
C1319 C1312 1.409 1_565 S
C1319 C1318 1.362 . S
H1320 C1326 0.930 . S
H1321 C1329 0.930 . S
H1322 C1330 0.930 . S
H1323 C1331 0.930 . S
H1324 C1334 0.930 . S
H1325 C1335 0.930 . S
C1326 H1320 0.930 . S
C1326 C1327 1.355 . S
C1326 C1328 1.415 . S
C1327 C1326 1.355 . S
C1327 C1329 1.419 . S
C1328 C1326 1.415 . S
C1328 C1333 1.425 . S
C1328 C1335 1.409 . S
C1329 H1321 0.930 . S
C1329 C1327 1.419 . S
C1329 C1330 1.362 . S
C1330 H1322 0.930 . S
C1330 C1329 1.362 . S
C1330 C1333 1.409 . S
C1331 H1323 0.930 . S
C1331 C1332 1.355 . S
C1331 C1333 1.415 . S
C1332 C1331 1.355 . S
C1332 C1334 1.419 . S
C1333 C1328 1.425 . S
C1333 C1330 1.409 . S
C1333 C1331 1.415 . S
C1334 H1324 0.930 . S
C1334 C1332 1.419 . S
C1334 C1335 1.362 . S
C1335 H1325 0.930 . S
C1335 C1328 1.409 . S
C1335 C1334 1.362 . S
H1336 C1342 0.930 . S
H1337 C1345 0.930 . S
H1338 C1346 0.930 . S
H1339 C1347 0.930 . S
H1340 C1350 0.930 . S
H1341 C1351 0.930 . S
C1342 H1336 0.930 . S
C1342 C1343 1.355 . S
C1342 C1344 1.403 1_545 S
C1343 C1342 1.355 . S
C1343 C1345 1.419 1_556 S
C1344 C1342 1.403 1_565 S
C1344 C1349 1.425 1_566 S
C1344 C1351 1.421 . S
C1345 H1337 0.930 . S
C1345 C1343 1.419 1_554 S
C1345 C1346 1.362 . S
C1346 H1338 0.930 . S
C1346 C1345 1.362 . S
C1346 C1349 1.421 . S
C1347 H1339 0.930 . S
C1347 C1348 1.355 . S
C1347 C1349 1.403 1_565 S
C1348 C1347 1.355 . S
C1348 C1350 1.419 1_554 S
C1349 C1344 1.425 1_544 S
C1349 C1346 1.421 . S
C1349 C1347 1.403 1_545 S
C1350 H1340 0.930 . S
C1350 C1348 1.419 1_556 S
C1350 C1351 1.362 . S
C1351 H1341 0.930 . S
C1351 C1344 1.421 . S
C1351 C1350 1.362 . S
H1352 C1358 0.930 . S
H1353 C1361 0.930 . S
H1354 C1362 0.930 . S
H1355 C1363 0.930 . S
H1356 C1366 0.930 . S
H1357 C1367 0.930 . S
C1358 H1352 0.930 . S
C1358 C1359 1.355 . S
C1358 C1360 1.415 . S
C1359 C1358 1.355 . S
C1359 C1361 1.419 . S
C1360 C1358 1.415 . S
C1360 C1365 1.425 . S
C1360 C1367 1.409 . S
C1361 H1353 0.930 . S
C1361 C1359 1.419 . S
C1361 C1362 1.362 . S
C1362 H1354 0.930 . S
C1362 C1361 1.362 . S
C1362 C1365 1.409 . S
C1363 H1355 0.930 . S
C1363 C1364 1.355 . S
C1363 C1365 1.415 . S
C1364 C1363 1.355 . S
C1364 C1366 1.419 . S
C1365 C1360 1.425 . S
C1365 C1362 1.409 . S
C1365 C1363 1.415 . S
C1366 H1356 0.930 . S
C1366 C1364 1.419 . S
C1366 C1367 1.362 . S
C1367 H1357 0.930 . S
C1367 C1360 1.409 . S
C1367 C1366 1.362 . S
H1368 C1374 0.930 . S
H1369 C1377 0.930 . S
H1370 C1378 0.930 . S
H1371 C1379 0.930 . S
H1372 C1382 0.930 . S
H1373 C1383 0.930 . S
C1374 H1368 0.930 . S
C1374 C1375 1.355 . S
C1374 C1376 1.415 . S
C1375 C1374 1.355 . S
C1375 C1377 1.419 . S
C1376 C1374 1.415 . S
C1376 C1381 1.425 . S
C1376 C1383 1.409 . S
C1377 H1369 0.930 . S
C1377 C1375 1.419 . S
C1377 C1378 1.362 . S
C1378 H1370 0.930 . S
C1378 C1377 1.362 . S
C1378 C1381 1.409 . S
C1379 H1371 0.930 . S
C1379 C1380 1.355 . S
C1379 C1381 1.415 . S
C1380 C1379 1.355 . S
C1380 C1382 1.419 . S
C1381 C1376 1.425 . S
C1381 C1378 1.409 . S
C1381 C1379 1.415 . S
C1382 H1372 0.930 . S
C1382 C1380 1.419 . S
C1382 C1383 1.362 . S
C1383 H1373 0.930 . S
C1383 C1376 1.409 . S
C1383 C1382 1.362 . S
H1384 C1390 0.930 . S
H1385 C1393 0.930 . S
H1386 C1394 0.930 . S
H1387 C1395 0.930 . S
H1388 C1398 0.930 . S
H1389 C1399 0.930 . S
C1390 H1384 0.930 . S
C1390 C1391 1.355 . S
C1390 C1392 1.415 . S
C1391 C1390 1.355 . S
C1391 C1393 1.419 . S
C1392 C1390 1.415 . S
C1392 C1397 1.425 . S
C1392 C1399 1.409 . S
C1393 H1385 0.930 . S
C1393 C1391 1.419 . S
C1393 C1394 1.362 . S
C1394 H1386 0.930 . S
C1394 C1393 1.362 . S
C1394 C1397 1.409 . S
C1395 H1387 0.930 . S
C1395 C1396 1.355 . S
C1395 C1397 1.415 . S
C1396 C1395 1.355 . S
C1396 C1398 1.419 . S
C1397 C1392 1.425 . S
C1397 C1394 1.409 . S
C1397 C1395 1.415 . S
C1398 H1388 0.930 . S
C1398 C1396 1.419 . S
C1398 C1399 1.362 . S
C1399 H1389 0.930 . S
C1399 C1392 1.409 . S
C1399 C1398 1.362 . S
H1400 C1406 0.930 . S
H1401 C1409 0.930 . S
H1402 C1410 0.930 . S
H1403 C1411 0.930 . S
H1404 C1414 0.930 . S
H1405 C1415 0.930 . S
C1406 H1400 0.930 . S
C1406 C1407 1.355 . S
C1406 C1408 1.415 . S
C1407 C1406 1.355 . S
C1407 C1409 1.419 . S
C1408 C1406 1.415 . S
C1408 C1413 1.425 . S
C1408 C1415 1.409 . S
C1409 H1401 0.930 . S
C1409 C1407 1.419 . S
C1409 C1410 1.362 . S
C1410 H1402 0.930 . S
C1410 C1409 1.362 . S
C1410 C1413 1.409 . S
C1411 H1403 0.930 . S
C1411 C1412 1.355 . S
C1411 C1413 1.415 . S
C1412 C1411 1.355 . S
C1412 C1414 1.419 . S
C1413 C1408 1.425 . S
C1413 C1410 1.409 . S
C1413 C1411 1.415 . S
C1414 H1404 0.930 . S
C1414 C1412 1.419 . S
C1414 C1415 1.362 . S
C1415 H1405 0.930 . S
C1415 C1408 1.409 . S
C1415 C1414 1.362 . S
H1416 C1422 0.930 . S
H1417 C1425 0.930 . S
H1418 C1426 0.930 . S
H1419 C1427 0.930 . S
H1420 C1430 0.930 . S
H1421 C1431 0.930 . S
C1422 H1416 0.930 . S
C1422 C1423 1.355 . S
C1422 C1424 1.415 . S
C1423 C1422 1.355 . S
C1423 C1425 1.419 . S
C1424 C1422 1.415 . S
C1424 C1429 1.425 . S
C1424 C1431 1.409 . S
C1425 H1417 0.930 . S
C1425 C1423 1.419 . S
C1425 C1426 1.362 . S
C1426 H1418 0.930 . S
C1426 C1425 1.362 . S
C1426 C1429 1.409 . S
C1427 H1419 0.930 . S
C1427 C1428 1.355 . S
C1427 C1429 1.415 . S
C1428 C1427 1.355 . S
C1428 C1430 1.419 . S
C1429 C1424 1.425 . S
C1429 C1426 1.409 . S
C1429 C1427 1.415 . S
C1430 H1420 0.930 . S
C1430 C1428 1.419 . S
C1430 C1431 1.362 . S
C1431 H1421 0.930 . S
C1431 C1424 1.409 . S
C1431 C1430 1.362 . S
H1432 C1438 0.930 . S
H1433 C1441 0.930 . S
H1434 C1442 0.930 . S
H1435 C1443 0.930 . S
H1436 C1446 0.930 . S
H1437 C1447 0.930 . S
C1438 H1432 0.930 . S
C1438 C1439 1.355 . S
C1438 C1440 1.415 . S
C1439 C1438 1.355 . S
C1439 C1441 1.419 . S
C1440 C1438 1.415 . S
C1440 C1445 1.425 . S
C1440 C1447 1.409 . S
C1441 H1433 0.930 . S
C1441 C1439 1.419 . S
C1441 C1442 1.362 . S
C1442 H1434 0.930 . S
C1442 C1441 1.362 . S
C1442 C1445 1.409 . S
C1443 H1435 0.930 . S
C1443 C1444 1.355 . S
C1443 C1445 1.415 . S
C1444 C1443 1.355 . S
C1444 C1446 1.419 . S
C1445 C1440 1.425 . S
C1445 C1442 1.409 . S
C1445 C1443 1.415 . S
C1446 H1436 0.930 . S
C1446 C1444 1.419 . S
C1446 C1447 1.362 . S
C1447 H1437 0.930 . S
C1447 C1440 1.409 . S
C1447 C1446 1.362 . S
H1448 C1454 0.930 . S
H1449 C1457 0.930 . S
H1450 C1458 0.930 . S
H1451 C1459 0.930 . S
H1452 C1462 0.930 . S
H1453 C1463 0.930 . S
C1454 H1448 0.930 . S
C1454 C1455 1.355 . S
C1454 C1456 1.415 . S
C1455 C1454 1.355 . S
C1455 C1457 1.419 . S
C1456 C1454 1.415 . S
C1456 C1461 1.425 . S
C1456 C1463 1.409 . S
C1457 H1449 0.930 . S
C1457 C1455 1.419 . S
C1457 C1458 1.362 . S
C1458 H1450 0.930 . S
C1458 C1457 1.362 . S
C1458 C1461 1.409 . S
C1459 H1451 0.930 . S
C1459 C1460 1.355 . S
C1459 C1461 1.415 . S
C1460 C1459 1.355 . S
C1460 C1462 1.419 . S
C1461 C1456 1.425 . S
C1461 C1458 1.409 . S
C1461 C1459 1.415 . S
C1462 H1452 0.930 . S
C1462 C1460 1.419 . S
C1462 C1463 1.362 . S
C1463 H1453 0.930 . S
C1463 C1456 1.409 . S
C1463 C1462 1.362 . S
H1464 C1470 0.930 . S
H1465 C1473 0.930 . S
H1466 C1474 0.930 . S
H1467 C1475 0.930 . S
H1468 C1478 0.930 . S
H1469 C1479 0.930 . S
C1470 H1464 0.930 . S
C1470 C1471 1.355 . S
C1470 C1472 1.415 . S
C1471 C1470 1.355 . S
C1471 C1473 1.419 . S
C1472 C1470 1.415 . S
C1472 C1477 1.425 . S
C1472 C1479 1.409 . S
C1473 H1465 0.930 . S
C1473 C1471 1.419 . S
C1473 C1474 1.362 . S
C1474 H1466 0.930 . S
C1474 C1473 1.362 . S
C1474 C1477 1.409 . S
C1475 H1467 0.930 . S
C1475 C1476 1.355 . S
C1475 C1477 1.415 . S
C1476 C1475 1.355 . S
C1476 C1478 1.419 . S
C1477 C1472 1.425 . S
C1477 C1474 1.409 . S
C1477 C1475 1.415 . S
C1478 H1468 0.930 . S
C1478 C1476 1.419 . S
C1478 C1479 1.362 . S
C1479 H1469 0.930 . S
C1479 C1472 1.409 . S
C1479 C1478 1.362 . S
H1480 C1486 0.930 . S
H1481 C1489 0.930 . S
H1482 C1490 0.930 . S
H1483 C1491 0.930 . S
H1484 C1494 0.930 . S
H1485 C1495 0.930 . S
C1486 H1480 0.930 . S
C1486 C1487 1.355 . S
C1486 C1488 1.415 . S
C1487 C1486 1.355 . S
C1487 C1489 1.419 . S
C1488 C1486 1.415 . S
C1488 C1493 1.425 . S
C1488 C1495 1.409 . S
C1489 H1481 0.930 . S
C1489 C1487 1.419 . S
C1489 C1490 1.362 . S
C1490 H1482 0.930 . S
C1490 C1489 1.362 . S
C1490 C1493 1.409 . S
C1491 H1483 0.930 . S
C1491 C1492 1.355 . S
C1491 C1493 1.415 . S
C1492 C1491 1.355 . S
C1492 C1494 1.419 . S
C1493 C1488 1.425 . S
C1493 C1490 1.409 . S
C1493 C1491 1.415 . S
C1494 H1484 0.930 . S
C1494 C1492 1.419 . S
C1494 C1495 1.362 . S
C1495 H1485 0.930 . S
C1495 C1488 1.409 . S
C1495 C1494 1.362 . S
H1496 C1502 0.930 . S
H1497 C1505 0.930 . S
H1498 C1506 0.930 . S
H1499 C1507 0.930 . S
H1500 C1510 0.930 . S
H1501 C1511 0.930 . S
C1502 H1496 0.930 . S
C1502 C1503 1.355 . S
C1502 C1504 1.415 . S
C1503 C1502 1.355 . S
C1503 C1505 1.419 . S
C1504 C1502 1.415 . S
C1504 C1509 1.425 . S
C1504 C1511 1.409 . S
C1505 H1497 0.930 . S
C1505 C1503 1.419 . S
C1505 C1506 1.362 . S
C1506 H1498 0.930 . S
C1506 C1505 1.362 . S
C1506 C1509 1.409 . S
C1507 H1499 0.930 . S
C1507 C1508 1.355 . S
C1507 C1509 1.415 . S
C1508 C1507 1.355 . S
C1508 C1510 1.419 . S
C1509 C1504 1.425 . S
C1509 C1506 1.409 . S
C1509 C1507 1.415 . S
C1510 H1500 0.930 . S
C1510 C1508 1.419 . S
C1510 C1511 1.362 . S
C1511 H1501 0.930 . S
C1511 C1504 1.409 . S
C1511 C1510 1.362 . S
H1512 C1518 0.930 . S
H1513 C1521 0.930 . S
H1514 C1522 0.930 . S
H1515 C1523 0.930 . S
H1516 C1526 0.930 . S
H1517 C1527 0.930 . S
C1518 H1512 0.930 . S
C1518 C1519 1.355 . S
C1518 C1520 1.415 . S
C1519 C1518 1.355 . S
C1519 C1521 1.419 . S
C1520 C1518 1.415 . S
C1520 C1525 1.425 . S
C1520 C1527 1.409 . S
C1521 H1513 0.930 . S
C1521 C1519 1.419 . S
C1521 C1522 1.362 . S
C1522 H1514 0.930 . S
C1522 C1521 1.362 . S
C1522 C1525 1.409 . S
C1523 H1515 0.930 . S
C1523 C1524 1.355 . S
C1523 C1525 1.415 . S
C1524 C1523 1.355 . S
C1524 C1526 1.419 . S
C1525 C1520 1.425 . S
C1525 C1522 1.409 . S
C1525 C1523 1.415 . S
C1526 H1516 0.930 . S
C1526 C1524 1.419 . S
C1526 C1527 1.362 . S
C1527 H1517 0.930 . S
C1527 C1520 1.409 . S
C1527 C1526 1.362 . S
H1528 C1534 0.930 . S
H1529 C1537 0.930 . S
H1530 C1538 0.930 . S
H1531 C1539 0.930 . S
H1532 C1542 0.930 . S
H1533 C1543 0.930 . S
C1534 H1528 0.930 . S
C1534 C1535 1.355 . S
C1534 C1536 1.415 . S
C1535 C1534 1.355 . S
C1535 C1537 1.419 . S
C1536 C1534 1.415 . S
C1536 C1541 1.425 . S
C1536 C1543 1.409 . S
C1537 H1529 0.930 . S
C1537 C1535 1.419 . S
C1537 C1538 1.362 . S
C1538 H1530 0.930 . S
C1538 C1537 1.362 . S
C1538 C1541 1.409 . S
C1539 H1531 0.930 . S
C1539 C1540 1.355 . S
C1539 C1541 1.415 . S
C1540 C1539 1.355 . S
C1540 C1542 1.419 . S
C1541 C1536 1.425 . S
C1541 C1538 1.409 . S
C1541 C1539 1.415 . S
C1542 H1532 0.930 . S
C1542 C1540 1.419 . S
C1542 C1543 1.362 . S
C1543 H1533 0.930 . S
C1543 C1536 1.409 . S
C1543 C1542 1.362 . S
H1544 C1550 0.930 . S
H1545 C1553 0.930 . S
H1546 C1554 0.930 . S
H1547 C1555 0.930 . S
H1548 C1558 0.930 . S
H1549 C1559 0.930 . S
C1550 H1544 0.930 . S
C1550 C1551 1.355 . S
C1550 C1552 1.415 . S
C1551 C1550 1.355 . S
C1551 C1553 1.419 . S
C1552 C1550 1.415 . S
C1552 C1557 1.425 . S
C1552 C1559 1.409 . S
C1553 H1545 0.930 . S
C1553 C1551 1.419 . S
C1553 C1554 1.362 . S
C1554 H1546 0.930 . S
C1554 C1553 1.362 . S
C1554 C1557 1.409 . S
C1555 H1547 0.930 . S
C1555 C1556 1.355 . S
C1555 C1557 1.415 . S
C1556 C1555 1.355 . S
C1556 C1558 1.419 . S
C1557 C1552 1.425 . S
C1557 C1554 1.409 . S
C1557 C1555 1.415 . S
C1558 H1548 0.930 . S
C1558 C1556 1.419 . S
C1558 C1559 1.362 . S
C1559 H1549 0.930 . S
C1559 C1552 1.409 . S
C1559 C1558 1.362 . S
H1560 C1566 0.930 . S
H1561 C1569 0.930 . S
H1562 C1570 0.930 . S
H1563 C1571 0.930 . S
H1564 C1574 0.930 . S
H1565 C1575 0.930 . S
C1566 H1560 0.930 . S
C1566 C1567 1.355 . S
C1566 C1568 1.415 . S
C1567 C1566 1.355 . S
C1567 C1569 1.419 . S
C1568 C1566 1.415 . S
C1568 C1573 1.425 . S
C1568 C1575 1.409 . S
C1569 H1561 0.930 . S
C1569 C1567 1.419 . S
C1569 C1570 1.362 . S
C1570 H1562 0.930 . S
C1570 C1569 1.362 . S
C1570 C1573 1.409 . S
C1571 H1563 0.930 . S
C1571 C1572 1.355 . S
C1571 C1573 1.415 . S
C1572 C1571 1.355 . S
C1572 C1574 1.419 . S
C1573 C1568 1.425 . S
C1573 C1570 1.409 . S
C1573 C1571 1.415 . S
C1574 H1564 0.930 . S
C1574 C1572 1.419 . S
C1574 C1575 1.362 . S
C1575 H1565 0.930 . S
C1575 C1568 1.409 . S
C1575 C1574 1.362 . S
H1576 C1582 0.930 . S
H1577 C1585 0.930 . S
H1578 C1586 0.930 . S
H1579 C1587 0.930 . S
H1580 C1590 0.930 . S
H1581 C1591 0.930 . S
C1582 H1576 0.930 . S
C1582 C1583 1.355 . S
C1582 C1584 1.415 . S
C1583 C1582 1.355 . S
C1583 C1585 1.419 . S
C1584 C1582 1.415 . S
C1584 C1589 1.425 . S
C1584 C1591 1.409 . S
C1585 H1577 0.930 . S
C1585 C1583 1.419 . S
C1585 C1586 1.362 . S
C1586 H1578 0.930 . S
C1586 C1585 1.362 . S
C1586 C1589 1.409 . S
C1587 H1579 0.930 . S
C1587 C1588 1.355 . S
C1587 C1589 1.415 . S
C1588 C1587 1.355 . S
C1588 C1590 1.419 . S
C1589 C1584 1.425 . S
C1589 C1586 1.409 . S
C1589 C1587 1.415 . S
C1590 H1580 0.930 . S
C1590 C1588 1.419 . S
C1590 C1591 1.362 . S
C1591 H1581 0.930 . S
C1591 C1584 1.409 . S
C1591 C1590 1.362 . S
H1592 C1598 0.930 . S
H1593 C1601 0.930 . S
H1594 C1602 0.930 . S
H1595 C1603 0.930 . S
H1596 C1606 0.930 . S
H1597 C1607 0.930 . S
C1598 H1592 0.930 . S
C1598 C1599 1.355 . S
C1598 C1600 1.415 . S
C1599 C1598 1.355 . S
C1599 C1601 1.419 . S
C1600 C1598 1.415 . S
C1600 C1605 1.425 . S
C1600 C1607 1.409 . S
C1601 H1593 0.930 . S
C1601 C1599 1.419 . S
C1601 C1602 1.362 . S
C1602 H1594 0.930 . S
C1602 C1601 1.362 . S
C1602 C1605 1.409 . S
C1603 H1595 0.930 . S
C1603 C1604 1.355 . S
C1603 C1605 1.415 . S
C1604 C1603 1.355 . S
C1604 C1606 1.419 . S
C1605 C1600 1.425 . S
C1605 C1602 1.409 . S
C1605 C1603 1.415 . S
C1606 H1596 0.930 . S
C1606 C1604 1.419 . S
C1606 C1607 1.362 . S
C1607 H1597 0.930 . S
C1607 C1600 1.409 . S
C1607 C1606 1.362 . S
H1608 C1614 0.930 . S
H1609 C1617 0.930 . S
H1610 C1618 0.930 . S
H1611 C1619 0.930 . S
H1612 C1622 0.930 . S
H1613 C1623 0.930 . S
C1614 H1608 0.930 . S
C1614 C1615 1.355 . S
C1614 C1616 1.415 . S
C1615 C1614 1.355 . S
C1615 C1617 1.419 . S
C1616 C1614 1.415 . S
C1616 C1621 1.425 . S
C1616 C1623 1.409 . S
C1617 H1609 0.930 . S
C1617 C1615 1.419 . S
C1617 C1618 1.362 . S
C1618 H1610 0.930 . S
C1618 C1617 1.362 . S
C1618 C1621 1.409 . S
C1619 H1611 0.930 . S
C1619 C1620 1.355 . S
C1619 C1621 1.415 . S
C1620 C1619 1.355 . S
C1620 C1622 1.419 . S
C1621 C1616 1.425 . S
C1621 C1618 1.409 . S
C1621 C1619 1.415 . S
C1622 H1612 0.930 . S
C1622 C1620 1.419 . S
C1622 C1623 1.362 . S
C1623 H1613 0.930 . S
C1623 C1616 1.409 . S
C1623 C1622 1.362 . S
H1624 C1630 0.930 . S
H1625 C1633 0.930 . S
H1626 C1634 0.930 . S
H1627 C1635 0.930 . S
H1628 C1638 0.930 . S
H1629 C1639 0.930 . S
C1630 H1624 0.930 . S
C1630 C1631 1.355 . S
C1630 C1632 1.415 . S
C1631 C1630 1.355 . S
C1631 C1633 1.419 . S
C1632 C1630 1.415 . S
C1632 C1637 1.425 . S
C1632 C1639 1.409 . S
C1633 H1625 0.930 . S
C1633 C1631 1.419 . S
C1633 C1634 1.362 . S
C1634 H1626 0.930 . S
C1634 C1633 1.362 . S
C1634 C1637 1.409 . S
C1635 H1627 0.930 . S
C1635 C1636 1.355 . S
C1635 C1637 1.415 . S
C1636 C1635 1.355 . S
C1636 C1638 1.419 . S
C1637 C1632 1.425 . S
C1637 C1634 1.409 . S
C1637 C1635 1.415 . S
C1638 H1628 0.930 . S
C1638 C1636 1.419 . S
C1638 C1639 1.362 . S
C1639 H1629 0.930 . S
C1639 C1632 1.409 . S
C1639 C1638 1.362 . S
H1640 C1646 0.930 . S
H1641 C1649 0.930 . S
H1642 C1650 0.930 . S
H1643 C1651 0.930 . S
H1644 C1654 0.930 . S
H1645 C1655 0.930 . S
C1646 H1640 0.930 . S
C1646 C1647 1.355 . S
C1646 C1648 1.415 . S
C1647 C1646 1.355 . S
C1647 C1649 1.419 . S
C1648 C1646 1.415 . S
C1648 C1653 1.425 . S
C1648 C1655 1.409 . S
C1649 H1641 0.930 . S
C1649 C1647 1.419 . S
C1649 C1650 1.362 . S
C1650 H1642 0.930 . S
C1650 C1649 1.362 . S
C1650 C1653 1.409 . S
C1651 H1643 0.930 . S
C1651 C1652 1.355 . S
C1651 C1653 1.415 . S
C1652 C1651 1.355 . S
C1652 C1654 1.419 . S
C1653 C1648 1.425 . S
C1653 C1650 1.409 . S
C1653 C1651 1.415 . S
C1654 H1644 0.930 . S
C1654 C1652 1.419 . S
C1654 C1655 1.362 . S
C1655 H1645 0.930 . S
C1655 C1648 1.409 . S
C1655 C1654 1.362 . S
H1656 C1662 0.930 . S
H1657 C1665 0.930 . S
H1658 C1666 0.930 . S
H1659 C1667 0.930 . S
H1660 C1670 0.930 . S
H1661 C1671 0.930 . S
C1662 H1656 0.930 . S
C1662 C1663 1.355 . S
C1662 C1664 1.415 . S
C1663 C1662 1.355 . S
C1663 C1665 1.419 . S
C1664 C1662 1.415 . S
C1664 C1669 1.425 . S
C1664 C1671 1.409 . S
C1665 H1657 0.930 . S
C1665 C1663 1.419 . S
C1665 C1666 1.362 . S
C1666 H1658 0.930 . S
C1666 C1665 1.362 . S
C1666 C1669 1.409 . S
C1667 H1659 0.930 . S
C1667 C1668 1.355 . S
C1667 C1669 1.415 . S
C1668 C1667 1.355 . S
C1668 C1670 1.419 . S
C1669 C1664 1.425 . S
C1669 C1666 1.409 . S
C1669 C1667 1.415 . S
C1670 H1660 0.930 . S
C1670 C1668 1.419 . S
C1670 C1671 1.362 . S
C1671 H1661 0.930 . S
C1671 C1664 1.409 . S
C1671 C1670 1.362 . S
H1672 C1678 0.930 . S
H1673 C1681 0.930 . S
H1674 C1682 0.930 . S
H1675 C1683 0.930 . S
H1676 C1686 0.930 . S
H1677 C1687 0.930 . S
C1678 H1672 0.930 . S
C1678 C1679 1.355 . S
C1678 C1680 1.415 . S
C1679 C1678 1.355 . S
C1679 C1681 1.419 . S
C1680 C1678 1.415 . S
C1680 C1685 1.425 . S
C1680 C1687 1.409 . S
C1681 H1673 0.930 . S
C1681 C1679 1.419 . S
C1681 C1682 1.362 . S
C1682 H1674 0.930 . S
C1682 C1681 1.362 . S
C1682 C1685 1.409 . S
C1683 H1675 0.930 . S
C1683 C1684 1.355 . S
C1683 C1685 1.415 . S
C1684 C1683 1.355 . S
C1684 C1686 1.419 . S
C1685 C1680 1.425 . S
C1685 C1682 1.409 . S
C1685 C1683 1.415 . S
C1686 H1676 0.930 . S
C1686 C1684 1.419 . S
C1686 C1687 1.362 . S
C1687 H1677 0.930 . S
C1687 C1680 1.409 . S
C1687 C1686 1.362 . S
H1688 C1694 0.930 . S
H1689 C1697 0.930 . S
H1690 C1698 0.930 . S
H1691 C1699 0.930 . S
H1692 C1702 0.930 . S
H1693 C1703 0.930 . S
C1694 H1688 0.930 . S
C1694 C1695 1.355 . S
C1694 C1696 1.415 . S
C1695 C1694 1.355 . S
C1695 C1697 1.419 . S
C1696 C1694 1.415 . S
C1696 C1701 1.425 . S
C1696 C1703 1.409 . S
C1697 H1689 0.930 . S
C1697 C1695 1.419 . S
C1697 C1698 1.362 . S
C1698 H1690 0.930 . S
C1698 C1697 1.362 . S
C1698 C1701 1.409 . S
C1699 H1691 0.930 . S
C1699 C1700 1.355 . S
C1699 C1701 1.415 . S
C1700 C1699 1.355 . S
C1700 C1702 1.419 . S
C1701 C1696 1.425 . S
C1701 C1698 1.409 . S
C1701 C1699 1.415 . S
C1702 H1692 0.930 . S
C1702 C1700 1.419 . S
C1702 C1703 1.362 . S
C1703 H1693 0.930 . S
C1703 C1696 1.409 . S
C1703 C1702 1.362 . S
H1704 C1710 0.930 . S
H1705 C1713 0.930 . S
H1706 C1714 0.930 . S
H1707 C1715 0.930 . S
H1708 C1718 0.930 . S
H1709 C1719 0.930 . S
C1710 H1704 0.930 . S
C1710 C1711 1.355 . S
C1710 C1712 1.415 . S
C1711 C1710 1.355 . S
C1711 C1713 1.419 . S
C1712 C1710 1.415 . S
C1712 C1717 1.425 . S
C1712 C1719 1.409 . S
C1713 H1705 0.930 . S
C1713 C1711 1.419 . S
C1713 C1714 1.362 . S
C1714 H1706 0.930 . S
C1714 C1713 1.362 . S
C1714 C1717 1.409 . S
C1715 H1707 0.930 . S
C1715 C1716 1.355 . S
C1715 C1717 1.415 . S
C1716 C1715 1.355 . S
C1716 C1718 1.419 . S
C1717 C1712 1.425 . S
C1717 C1714 1.409 . S
C1717 C1715 1.415 . S
C1718 H1708 0.930 . S
C1718 C1716 1.419 . S
C1718 C1719 1.362 . S
C1719 H1709 0.930 . S
C1719 C1712 1.409 . S
C1719 C1718 1.362 . S
H1720 C1726 0.930 . S
H1721 C1729 0.930 . S
H1722 C1730 0.930 . S
H1723 C1731 0.930 . S
H1724 C1734 0.930 . S
H1725 C1735 0.930 . S
C1726 H1720 0.930 . S
C1726 C1727 1.355 . S
C1726 C1728 1.415 . S
C1727 C1726 1.355 . S
C1727 C1729 1.419 . S
C1728 C1726 1.415 . S
C1728 C1733 1.425 . S
C1728 C1735 1.409 . S
C1729 H1721 0.930 . S
C1729 C1727 1.419 . S
C1729 C1730 1.362 . S
C1730 H1722 0.930 . S
C1730 C1729 1.362 . S
C1730 C1733 1.409 . S
C1731 H1723 0.930 . S
C1731 C1732 1.355 . S
C1731 C1733 1.415 . S
C1732 C1731 1.355 . S
C1732 C1734 1.419 . S
C1733 C1728 1.425 . S
C1733 C1730 1.409 . S
C1733 C1731 1.415 . S
C1734 H1724 0.930 . S
C1734 C1732 1.419 . S
C1734 C1735 1.362 . S
C1735 H1725 0.930 . S
C1735 C1728 1.409 . S
C1735 C1734 1.362 . S
H1736 C1742 0.930 . S
H1737 C1745 0.930 . S
H1738 C1746 0.930 . S
H1739 C1747 0.930 . S
H1740 C1750 0.930 . S
H1741 C1751 0.930 . S
C1742 H1736 0.930 . S
C1742 C1743 1.355 . S
C1742 C1744 1.415 . S
C1743 C1742 1.355 . S
C1743 C1745 1.419 . S
C1744 C1742 1.415 . S
C1744 C1749 1.425 . S
C1744 C1751 1.409 . S
C1745 H1737 0.930 . S
C1745 C1743 1.419 . S
C1745 C1746 1.362 . S
C1746 H1738 0.930 . S
C1746 C1745 1.362 . S
C1746 C1749 1.409 . S
C1747 H1739 0.930 . S
C1747 C1748 1.355 . S
C1747 C1749 1.415 . S
C1748 C1747 1.355 . S
C1748 C1750 1.419 . S
C1749 C1744 1.425 . S
C1749 C1746 1.409 . S
C1749 C1747 1.415 . S
C1750 H1740 0.930 . S
C1750 C1748 1.419 . S
C1750 C1751 1.362 . S
C1751 H1741 0.930 . S
C1751 C1744 1.409 . S
C1751 C1750 1.362 . S
C799 N101 1.302 . S
C804 C7 1.324 . S
C815 N2 1.344 1_655 S
C820 C40 1.360 . S
C831 N35 1.313 . S
C836 C73 1.331 . S
C847 C106 1.358 . S
C852 N68 1.335 1_455 S
C863 N167 1.268 . S
C868 C139 1.315 . S
C879 N200 1.326 1_455 S
C884 C172 1.340 . S
C895 C205 1.352 . S
C900 N233 1.323 . S
C911 N134 1.299 1_655 S
C916 C238 1.338 . S
C927 C271 1.356 . S
C932 N596 1.343 . S
C943 C304 1.356 . S
C948 N629 1.330 1_554 S
C959 N662 1.272 . S
C964 C337 1.308 . S
C975 N563 1.340 1_554 S
C980 C370 1.359 . S
C991 N728 1.338 . S
C996 C403 1.359 . S
C1007 C436 1.359 . S
C1012 N530 1.340 1_556 S
C1023 C469 1.349 . S
C1028 N761 1.318 . S
C1039 N695 1.295 1_556 S
C1044 C502 1.335 . S
C1055 N299 1.335 . S
C1060 C535 1.358 . S
C1071 C568 1.355 . S
C1076 N497 1.328 . S
C1087 N398 1.287 1_545 S
C1092 C601 1.315 . S
C1103 N431 1.264 . S
C1108 C634 1.311 . S
C1119 N464 1.339 1_565 S
C1124 C667 1.359 . S
C1135 N365 1.291 . S
C1140 C700 1.333 . S
C1151 N266 1.321 1_565 S
C1156 C733 1.336 . S
C1167 N332 1.273 1_545 S
C1172 C766 1.308 . S
C1183 C219 1.762 . S
C1188 C21 1.761 . S
C1199 C54 1.771 . S
C1204 C252 1.766 . S
C1215 C153 1.770 . S
C1220 C87 1.773 . S
C1231 C186 1.761 . S
C1236 C120 1.764 . S
C1247 C351 1.761 . S
C1252 C285 1.762 . S
C1263 C318 1.772 . S
C1268 C384 1.772 . S
C1279 C417 1.766 . S
C1284 C483 1.771 . S
C1295 C516 1.763 . S
C1300 C450 1.760 . S
C1311 C549 1.763 . S
C1316 C582 1.760 . S
C1327 C615 1.765 . S
C1332 C780 1.761 . S
C1343 C648 1.773 . S
C1348 C714 1.770 . S
C1359 C747 1.760 . S
C1364 C681 1.762 . S
C1375 C18 1.184 . S
C1380 N277 1.232 . S
C1391 C51 1.182 . S
C1396 N310 1.230 . S
C1407 N343 1.240 . S
C1412 C84 1.211 . S
C1423 N376 1.235 . S
C1428 C117 1.224 . S
C1439 C150 1.230 . S
C1444 N409 1.244 . S
C1455 N442 1.230 . S
C1460 C183 1.182 . S
C1471 C216 1.209 . S
C1476 N475 1.232 . S
C1487 N508 1.235 . S
C1492 C249 1.192 . S
C1503 C282 1.219 . S
C1508 N541 1.242 . S
C1519 N772 1.236 . S
C1524 C315 1.197 . S
C1535 C348 1.233 . S
C1540 N706 1.245 . S
C1551 C381 1.232 . S
C1556 N739 1.245 . S
C1567 N574 1.235 . S
C1572 C414 1.192 . S
C1583 C447 1.227 . S
C1588 N607 1.236 . S
C1599 C480 1.203 . S
C1604 N640 1.238 . S
C1615 C513 1.225 . S
C1620 N673 1.236 . S
C1631 C546 1.227 . S
C1636 N13 1.236 . S
C1647 C579 1.210 . S
C1652 N145 1.240 . S
C1663 C612 1.230 . S
C1668 N178 1.237 . S
C1679 N211 1.245 . S
C1684 C645 1.234 . S
C1695 C678 1.192 . S
C1700 N244 1.229 . S
C1711 N79 1.231 . S
C1716 C711 1.184 . S
C1727 N112 1.229 . S
C1732 C744 1.193 . S
C1743 C777 1.217 . S
C1748 N46 1.242 . S
