# Generated by pormake.
# Topology sml, (6)-cn, num edge types: 1
# Building blocks:
#     Node 0, Type 0, BuildingBlock: VOLQOD_clean_sbu_1, # of connection points: 6
#     Node 1, Type 0, BuildingBlock: VOLQOD_clean_sbu_1, # of connection points: 6
#     Node 2, Type 0, BuildingBlock: VOLQOD_clean_sbu_1, # of connection points: 6
#     Node 3, Type 0, BuildingBlock: VOLQOD_clean_sbu_1, # of connection points: 6
#     Node 4, Type 0, BuildingBlock: VOLQOD_clean_sbu_1, # of connection points: 6
#     Node 5, Type 0, BuildingBlock: VOLQOD_clean_sbu_1, # of connection points: 6
#     Edge 6, Type (0, 0), BuildingBlock: MIFKUJ_clean_linker_0, # of connection points: 2
#     Edge 7, Type (0, 0), BuildingBlock: MIFKUJ_clean_linker_0, # of connection points: 2
#     Edge 8, Type (0, 0), BuildingBlock: MIFKUJ_clean_linker_0, # of connection points: 2
#     Edge 9, Type (0, 0), BuildingBlock: MIFKUJ_clean_linker_0, # of connection points: 2
#     Edge 10, Type (0, 0), BuildingBlock: MIFKUJ_clean_linker_0, # of connection points: 2
#     Edge 11, Type (0, 0), BuildingBlock: MIFKUJ_clean_linker_0, # of connection points: 2
#     Edge 12, Type (0, 0), BuildingBlock: MIFKUJ_clean_linker_0, # of connection points: 2
#     Edge 13, Type (0, 0), BuildingBlock: MIFKUJ_clean_linker_0, # of connection points: 2
#     Edge 14, Type (0, 0), BuildingBlock: MIFKUJ_clean_linker_0, # of connection points: 2
#     Edge 15, Type (0, 0), BuildingBlock: MIFKUJ_clean_linker_0, # of connection points: 2
#     Edge 16, Type (0, 0), BuildingBlock: MIFKUJ_clean_linker_0, # of connection points: 2
#     Edge 17, Type (0, 0), BuildingBlock: MIFKUJ_clean_linker_0, # of connection points: 2
#     Edge 18, Type (0, 0), BuildingBlock: MIFKUJ_clean_linker_0, # of connection points: 2
#     Edge 19, Type (0, 0), BuildingBlock: MIFKUJ_clean_linker_0, # of connection points: 2
#     Edge 20, Type (0, 0), BuildingBlock: MIFKUJ_clean_linker_0, # of connection points: 2
#     Edge 21, Type (0, 0), BuildingBlock: MIFKUJ_clean_linker_0, # of connection points: 2
#     Edge 22, Type (0, 0), BuildingBlock: MIFKUJ_clean_linker_0, # of connection points: 2
#     Edge 23, Type (0, 0), BuildingBlock: MIFKUJ_clean_linker_0, # of connection points: 2
# Relax obj value: 0.294
# Max RMSD: 0.187
# Mean RMSD: 0.187
data_MOF--net-sml--node1-VOLQOD_clean_sbu_1--edge1-MIFKUJ_clean_linker_0
_symmetry_space_group_name_H-M    P1
_symmetry_Int_Tables_number       1
_symmetry_cell_setting            triclinic
loop_
_symmetry_equiv_pos_as_xyz
'x, y, z'
_cell_length_a     55.347928
_cell_length_b     55.302071
_cell_length_c     18.922049
_cell_angle_alpha  89.860921
_cell_angle_beta   90.118935
_cell_angle_gamma 120.02178
loop_
_atom_site_label
_atom_site_type_symbol
_atom_site_fract_x
_atom_site_fract_y
_atom_site_fract_z
_atom_type_partial_charge
O0 O 0.11862 0.39832 -0.00498 0.0
Zn1 Zn 0.1537 0.43106 0.9573 0.0
O2 O 0.18477 0.42519 0.9716 0.0
Zn3 Zn 0.20828 0.44883 0.04564 0.0
Zn4 Zn 0.16897 0.38612 0.9922 0.0
Zn5 Zn 0.20735 0.43383 0.89025 0.0
O6 O 0.24915 0.46861 0.0176 0.0
O7 O 0.24273 0.47037 0.90203 0.0
O8 O 0.16057 0.46706 0.00106 0.0
O9 O 0.19918 0.47938 0.06278 0.0
O10 O 0.19863 0.42607 0.13462 0.0
O11 O 0.16988 0.38291 0.09617 0.0
O12 O 0.19007 0.36958 0.94536 0.0
O13 O 0.14723 0.43163 0.85398 0.0
O14 O 0.21881 0.40497 0.87657 0.0
O15 O 0.18479 0.43301 0.80725 0.0
C16 C 0.11057 0.37248 0.98715 0.0
C17 C 0.25841 0.47891 0.9565 0.0
C18 C 0.18179 0.4002 0.14622 0.0
C19 C 0.17995 0.48401 0.04197 0.0
C20 C 0.21003 0.38049 0.90101 0.0
C21 C 0.16126 0.43176 0.80071 0.0
O22 O 0.12779 0.36447 0.97066 0.0
O23 O 0.72344 0.11817 0.32282 0.0
Zn24 Zn 0.72634 0.15409 0.29114 0.0
O25 O 0.76438 0.18484 0.30061 0.0
Zn26 Zn 0.76637 0.21061 0.37287 0.0
Zn27 Zn 0.78827 0.16952 0.32474 0.0
Zn28 Zn 0.77664 0.2052 0.21331 0.0
O29 O 0.78572 0.25072 0.33883 0.0
O30 O 0.783 0.24397 0.2228 0.0
O31 O 0.69953 0.16139 0.34578 0.0
O32 O 0.72757 0.20093 0.40217 0.0
O33 O 0.78418 0.20582 0.45955 0.0
O34 O 0.79863 0.17664 0.42669 0.0
O35 O 0.82288 0.18584 0.26439 0.0
O36 O 0.71464 0.14779 0.18964 0.0
O37 O 0.81351 0.20956 0.18474 0.0
O38 O 0.74903 0.18499 0.13664 0.0
C39 C 0.74144 0.11027 0.32574 0.0
C40 C 0.78838 0.25998 0.27587 0.0
C41 C 0.79526 0.19099 0.47395 0.0
C42 C 0.70322 0.18095 0.38769 0.0
C43 C 0.82956 0.20131 0.20961 0.0
C44 C 0.7257 0.16231 0.13452 0.0
O45 O 0.76744 0.12754 0.31925 0.0
O46 O 0.60501 0.72532 0.6901 0.0
Zn47 Zn 0.57169 0.72643 0.6539 0.0
O48 O 0.57733 0.76372 0.66171 0.0
Zn49 Zn 0.55502 0.76558 0.73771 0.0
Zn50 Zn 0.61696 0.78851 0.6773 0.0
Zn51 Zn 0.56611 0.77393 0.57617 0.0
O52 O 0.53147 0.78227 0.70613 0.0
O53 O 0.53199 0.77703 0.58992 0.0
O54 O 0.53798 0.69876 0.7088 0.0
O55 O 0.52775 0.72657 0.77071 0.0
O56 O 0.57992 0.78604 0.81986 0.0
O57 O 0.62259 0.80055 0.77819 0.0
O58 O 0.63248 0.82227 0.61391 0.0
O59 O 0.56893 0.71579 0.55152 0.0
O60 O 0.59615 0.81176 0.54455 0.0
O61 O 0.56088 0.74715 0.49931 0.0
C62 C 0.63081 0.74326 0.68395 0.0
C63 C 0.52236 0.78275 0.64445 0.0
C64 C 0.60629 0.79811 0.8285 0.0
C65 C 0.52313 0.70226 0.75452 0.0
C66 C 0.62122 0.82837 0.5634 0.0
C67 C 0.56393 0.72583 0.4965 0.0
O68 O 0.63891 0.76852 0.66734 0.0
O69 O 0.87972 0.61402 0.06027 0.0
Zn70 Zn 0.84922 0.58049 0.01122 0.0
O71 O 0.81461 0.58184 0.01187 0.0
Zn72 Zn 0.78714 0.55295 0.07213 0.0
Zn73 Zn 0.82242 0.61813 0.04599 0.0
Zn74 Zn 0.79892 0.57543 0.91817 0.0
O75 O 0.7496 0.53098 0.02477 0.0
O76 O 0.76181 0.53997 0.91187 0.0
O77 O 0.84362 0.54495 0.05764 0.0
O78 O 0.79982 0.52576 0.09551 0.0
O79 O 0.78413 0.56922 0.16389 0.0
O80 O 0.80639 0.61473 0.14212 0.0
O81 O 0.80753 0.63605 0.98021 0.0
O82 O 0.86315 0.58319 0.91142 0.0
O83 O 0.79246 0.60682 0.88911 0.0
O84 O 0.82565 0.57495 0.84913 0.0
C85 C 0.88306 0.63816 0.07225 0.0
C86 C 0.74376 0.52622 0.9593 0.0
C87 C 0.7928 0.59423 0.18375 0.0
C88 C 0.82236 0.52513 0.08812 0.0
C89 C 0.79658 0.62918 0.91902 0.0
C90 C 0.85047 0.57933 0.8528 0.0
O91 O 0.86346 0.64354 0.06245 0.0
O92 O 0.26495 0.87515 0.40425 0.0
Zn93 Zn 0.26521 0.84053 0.37504 0.0
O94 O 0.22778 0.80853 0.38288 0.0
Zn95 Zn 0.22922 0.7787 0.43236 0.0
Zn96 Zn 0.2041 0.8186 0.43546 0.0
Zn97 Zn 0.21218 0.79568 0.29092 0.0
O98 O 0.22004 0.74618 0.36959 0.0
O99 O 0.20832 0.75815 0.26873 0.0
O100 O 0.2929 0.83606 0.43484 0.0
O101 O 0.26738 0.79233 0.47226 0.0
O102 O 0.20421 0.76618 0.51627 0.0
O103 O 0.20228 0.80475 0.53424 0.0
O104 O 0.16573 0.80221 0.3912 0.0
O105 O 0.27805 0.84681 0.27401 0.0
O106 O 0.17388 0.79055 0.28526 0.0
O107 O 0.23726 0.82293 0.21835 0.0
C108 C 0.24626 0.88021 0.42678 0.0
C109 C 0.2121 0.74101 0.30553 0.0
C110 C 0.20139 0.78268 0.55765 0.0
C111 C 0.29037 0.81532 0.4703 0.0
C112 C 0.15763 0.79276 0.32896 0.0
C113 C 0.26337 0.84039 0.21803 0.0
O114 O 0.22153 0.86055 0.43959 0.0
O115 O 0.39854 0.27499 0.68518 0.0
Zn116 Zn 0.42994 0.27096 0.64555 0.0
O117 O 0.42239 0.23268 0.65464 0.0
Zn118 Zn 0.44716 0.23102 0.72483 0.0
Zn119 Zn 0.38343 0.20974 0.68152 0.0
Zn120 Zn 0.42835 0.21897 0.56668 0.0
O121 O 0.46851 0.21281 0.68817 0.0
O122 O 0.46029 0.2116 0.57294 0.0
O123 O 0.46541 0.29811 0.69577 0.0
O124 O 0.47662 0.26985 0.75219 0.0
O125 O 0.42539 0.21257 0.81244 0.0
O126 O 0.38145 0.19776 0.78142 0.0
O127 O 0.36283 0.17593 0.62039 0.0
O128 O 0.43273 0.28135 0.54294 0.0
O129 O 0.39467 0.18226 0.54022 0.0
O130 O 0.43506 0.24659 0.49029 0.0
C131 C 0.37264 0.25746 0.69185 0.0
C132 C 0.47297 0.20823 0.6249 0.0
C133 C 0.39949 0.20078 0.82751 0.0
C134 C 0.48147 0.2943 0.73686 0.0
C135 C 0.37026 0.16783 0.56599 0.0
C136 C 0.43543 0.2698 0.48779 0.0
O137 O 0.36317 0.23142 0.68324 0.0
H138 H 0.38614 0.31052 0.7281 0.0
H139 H 0.35484 0.32677 0.76761 0.0
H140 H 0.28445 0.24355 0.74488 0.0
H141 H 0.31566 0.22701 0.70448 0.0
H142 H 0.27311 0.28242 0.69189 0.0
H143 H 0.30502 0.26665 0.9105 0.0
H144 H 0.33882 0.26802 -0.00229 0.0
H145 H 0.38229 0.35768 -0.00555 0.0
H146 H 0.34841 0.35681 0.90788 0.0
H147 H 0.1891 0.32393 0.90129 0.0
H148 H 0.2136 0.29898 0.86709 0.0
H149 H 0.2876 0.37748 0.82106 0.0
H150 H 0.26321 0.40249 0.8531 0.0
H151 H 0.29247 0.33525 0.91649 0.0
H152 H 0.2578 0.34765 0.68943 0.0
H153 H 0.22049 0.34246 0.60862 0.0
H154 H 0.17846 0.2534 0.63475 0.0
H155 H 0.21536 0.25813 0.71664 0.0
C156 C 0.36401 0.29563 0.73111 0.0
C157 C 0.35342 0.26745 0.71313 0.0
C158 C 0.34616 0.30493 0.75423 0.0
C159 C 0.31739 0.28627 0.7601 0.0
C160 C 0.30661 0.25823 0.74096 0.0
C161 C 0.3245 0.24885 0.71797 0.0
C162 C 0.29876 0.2964 0.78551 0.0
C163 C 0.27701 0.29352 0.74158 0.0
C164 C 0.30384 0.31085 0.85033 0.0
C165 C 0.32433 0.31166 0.90233 0.0
C166 C 0.32188 0.28666 0.92812 0.0
C167 C 0.34101 0.28734 0.97754 0.0
C168 C 0.36285 0.31292 0.00117 0.0
C169 C 0.3654 0.33788 0.97597 0.0
C170 C 0.34614 0.3373 0.92704 0.0
C171 C 0.21056 0.33581 0.88364 0.0
C172 C 0.22424 0.36512 0.87961 0.0
C173 C 0.22445 0.32157 0.86416 0.0
C174 C 0.25232 0.3365 0.84179 0.0
C175 C 0.26608 0.3657 0.83832 0.0
C176 C 0.25207 0.37989 0.85627 0.0
C177 C 0.26739 0.32183 0.82205 0.0
C178 C 0.28842 0.32385 0.86722 0.0
C179 C 0.26123 0.3061 0.75915 0.0
C180 C 0.23912 0.30327 0.70987 0.0
C181 C 0.24044 0.32699 0.67857 0.0
C182 C 0.21941 0.32413 0.63242 0.0
C183 C 0.19706 0.29763 0.61676 0.0
C184 C 0.19575 0.27392 0.64705 0.0
C185 C 0.21672 0.27668 0.6933 0.0
H186 H 0.1808 0.29545 0.581 0.0
H187 H 0.37773 0.31339 0.03918 0.0
H188 H 0.08412 0.31591 0.96454 0.0
H189 H 0.03606 0.28116 -0.00411 0.0
H190 H 0.02269 0.34666 0.07464 0.0
H191 H 0.07043 0.38142 0.04364 0.0
H192 H 0.00569 0.30324 0.16831 0.0
H193 H 0.99566 0.31754 0.92044 0.0
H194 H 0.00529 0.3185 0.79303 0.0
H195 H 0.98033 0.23145 0.79947 0.0
H196 H 0.97083 0.23006 0.92726 0.0
H197 H 0.85098 0.23547 0.09468 0.0
H198 H 0.89857 0.25762 0.05029 0.0
H199 H 0.91893 0.21325 0.20521 0.0
H200 H 0.87116 0.19097 0.2507 0.0
H201 H 0.93358 0.24154 -0.00441 0.0
H202 H 0.98439 0.26036 0.26952 0.0
H203 H 0.97326 0.2627 0.39473 0.0
H204 H 0.91539 0.28913 0.33249 0.0
H205 H 0.92648 0.28732 0.20709 0.0
C206 C 0.07088 0.32293 0.98812 0.0
C207 C 0.08112 0.35145 0.00164 0.0
C208 C 0.04345 0.30305 0.00587 0.0
C209 C 0.02592 0.31139 0.03764 0.0
C210 C 0.03598 0.33982 0.05043 0.0
C211 C 0.06324 0.35967 0.03231 0.0
C212 C 0.99719 0.29065 0.05923 0.0
C213 C 0.98999 0.28954 0.13066 0.0
C214 C 0.97676 0.27287 0.01003 0.0
C215 C 0.98287 0.27379 0.93353 0.0
C216 C 0.99252 0.29868 0.89485 0.0
C217 C 0.99789 0.29928 0.82252 0.0
C218 C 0.9935 0.27506 0.78819 0.0
C219 C 0.98376 0.2502 0.82616 0.0
C220 C 0.97836 0.24949 0.89851 0.0
C221 C 0.86536 0.22999 0.11877 0.0
C222 C 0.85731 0.21168 0.17691 0.0
C223 C 0.89257 0.24261 0.09299 0.0
C224 C 0.91233 0.23732 0.12497 0.0
C225 C 0.90402 0.21782 0.18031 0.0
C226 C 0.87672 0.20512 0.20619 0.0
C227 C 0.94203 0.25436 0.10454 0.0
C228 C 0.94945 0.25476 0.03346 0.0
C229 C 0.96263 0.27187 0.15384 0.0
C230 C 0.95599 0.27333 0.22902 0.0
C231 C 0.96933 0.26672 0.28266 0.0
C232 C 0.96304 0.26796 0.35362 0.0
C233 C 0.94354 0.27594 0.37154 0.0
C234 C 0.9304 0.28283 0.31854 0.0
C235 C 0.93666 0.28168 0.24752 0.0
H236 H 0.93868 0.27686 0.42649 0.0
H237 H 0.99751 0.27551 0.73213 0.0
H238 H 0.68939 0.06585 0.30508 0.0
H239 H 0.67237 0.01727 0.33753 0.0
H240 H 0.75435 0.03901 0.41358 0.0
H241 H 0.77181 0.08767 0.37885 0.0
H242 H 0.73113 0.98972 0.35048 0.0
H243 H 0.70335 0.03056 0.53154 0.0
H244 H 0.68284 0.05718 0.58265 0.0
H245 H 0.6033 -0.00056 0.49233 0.0
H246 H 0.62331 0.97232 0.44093 0.0
H247 H 0.6759 0.86887 0.58339 0.0
H248 H 0.69976 0.91616 0.53371 0.0
H249 H 0.62565 0.8976 0.41611 0.0
H250 H 0.6017 0.85043 0.46471 0.0
H251 H 0.64735 0.94574 0.50432 0.0
H252 H 0.67818 0.90228 0.33417 0.0
H253 H 0.70123 0.87614 0.29666 0.0
H254 H 0.77916 0.9407 0.37997 0.0
H255 H 0.75641 0.96687 0.41982 0.0
C256 C 0.70387 0.06027 0.32819 0.0
C257 C 0.73186 0.08059 0.34008 0.0
C258 C 0.6941 0.03252 0.34691 0.0
C259 C 0.71195 0.02465 0.37945 0.0
C260 C 0.7402 0.04467 0.38881 0.0
C261 C 0.75012 0.07244 0.36904 0.0
C262 C 0.70067 0.99579 0.40629 0.0
C263 C 0.71303 0.98018 0.38485 0.0
C264 C 0.67706 0.98338 0.45114 0.0
C265 C 0.66489 -0.00042 0.48186 0.0
C266 C 0.68152 0.02364 0.52221 0.0
C267 C 0.66998 0.0388 0.55129 0.0
C268 C 0.64184 0.03015 0.5403 0.0
C269 C 0.62511 0.00616 0.50065 0.0
C270 C 0.63651 0.99082 0.47175 0.0
C271 C 0.66479 0.87474 0.54627 0.0
C272 C 0.6368 0.85595 0.52853 0.0
C273 C 0.67849 0.9017 0.51785 0.0
C274 C 0.66437 0.91025 0.47155 0.0
C275 C 0.6368 0.89131 0.452 0.0
C276 C 0.62319 0.86436 0.47981 0.0
C277 C 0.67744 0.93951 0.44742 0.0
C278 C 0.66545 0.95527 0.4699 0.0
C279 C 0.70176 0.95211 0.40514 0.0
C280 C 0.71548 0.93642 0.38064 0.0
C281 C 0.70016 0.91079 0.34514 0.0
C282 C 0.71318 0.89598 0.32333 0.0
C283 C 0.74163 0.90676 0.33587 0.0
C284 C 0.75711 0.93236 0.3703 0.0
C285 C 0.74415 0.94718 0.39259 0.0
H286 H 0.75169 0.89528 0.31884 0.0
H287 H 0.63299 0.04198 0.56275 0.0
H288 H 0.62194 0.69614 0.75163 0.0
H289 H 0.65576 0.68165 0.77863 0.0
H290 H 0.72025 0.75528 0.67467 0.0
H291 H 0.68645 0.77052 0.6494 0.0
H292 H 0.68444 0.66763 0.70037 0.0
H293 H 0.78316 0.77362 0.75444 0.0
H294 H 0.79612 0.82106 0.79444 0.0
H295 H 0.71908 0.78799 0.90905 0.0
H296 H 0.70587 0.74036 0.87049 0.0
H297 H 0.78737 0.632 0.77791 0.0
H298 H 0.76642 0.65718 0.72232 0.0
H299 H 0.7613 0.68928 0.92615 0.0
H300 H 0.78343 0.66541 0.98109 0.0
H301 H 0.77152 0.72696 0.83437 0.0
H302 H 0.70787 0.62754 0.84753 0.0
H303 H 0.68964 0.57761 0.82254 0.0
H304 H 0.6872 0.59293 0.60076 0.0
H305 H 0.70667 0.64306 0.62405 0.0
C306 C 0.64329 0.7093 0.73432 0.0
C307 C 0.65153 0.7345 0.69842 0.0
C308 C 0.66262 0.70093 0.74966 0.0
C309 C 0.69057 0.7174 0.72891 0.0
C310 C 0.69887 0.74243 0.69206 0.0
C311 C 0.67953 0.75106 0.67748 0.0
C312 C 0.71068 0.70805 0.74679 0.0
C313 C 0.70363 0.68067 0.72917 0.0
C314 C 0.73557 0.72502 0.78476 0.0
C315 C 0.7434 0.75352 0.80877 0.0
C316 C 0.76904 0.7765 0.78828 0.0
C317 C 0.77642 0.80341 0.81071 0.0
C318 C 0.75839 0.80755 0.85402 0.0
C319 C 0.73298 0.78477 0.87526 0.0
C320 C 0.72553 0.75783 0.85307 0.0
C321 C 0.78213 0.64479 0.81056 0.0
C322 C 0.7867 0.6465 0.88395 0.0
C323 C 0.77014 0.65912 0.77879 0.0
C324 C 0.76172 0.67465 0.82025 0.0
C325 C 0.76759 0.67745 0.89297 0.0
C326 C 0.78014 0.66368 0.92445 0.0
C327 C 0.74483 0.68616 0.78986 0.0
C328 C 0.7526 0.71403 0.8045 0.0
C329 C 0.71995 0.66926 0.75146 0.0
C330 C 0.70923 0.63918 0.73744 0.0
C331 C 0.70396 0.62034 0.79331 0.0
C332 C 0.69345 0.59198 0.77941 0.0
C333 C 0.68758 0.58211 0.71 0.0
C334 C 0.69218 0.60059 0.65439 0.0
C335 C 0.70307 0.62901 0.66787 0.0
H336 H 0.67928 0.56013 0.69934 0.0
H337 H 0.76413 0.8284 0.87128 0.0
H338 H 0.11786 0.8005 0.39589 0.0
H339 H 0.06947 0.78299 0.35794 0.0
H340 H 0.08347 0.74477 0.17577 0.0
H341 H 0.13152 0.76272 0.21169 0.0
H342 H 0.05533 0.76828 0.13727 0.0
H343 H 0.04991 0.70799 0.33252 0.0
H344 H 0.05585 0.69739 0.45593 0.0
H345 H 0.00547 0.73139 0.52787 0.0
H346 H -0.0006 0.74236 0.40486 0.0
H347 H 0.93378 0.64267 0.05283 0.0
H348 H 0.97862 0.67821 0.10114 0.0
H349 H 0.93843 0.71837 0.20325 0.0
H350 H 0.89336 0.68312 0.15355 0.0
H351 H 0.97631 0.7041 0.29058 0.0
H352 H 0.9743 0.75379 0.08534 0.0
H353 H 0.96685 0.75908 0.95906 0.0
H354 H 0.03092 0.74046 0.9031 0.0
H355 H 0.03847 0.73462 0.02902 0.0
C356 C 0.11058 0.78847 0.34759 0.0
C357 C 0.12854 0.783 0.30685 0.0
C358 C 0.08293 0.77843 0.3261 0.0
C359 C 0.07278 0.76243 0.2642 0.0
C360 C 0.09084 0.75725 0.22342 0.0
C361 C 0.11837 0.76747 0.24426 0.0
C362 C 0.04332 0.75024 0.24141 0.0
C363 C 0.03807 0.75433 0.17097 0.0
C364 C 0.02063 0.73268 0.28586 0.0
C365 C 0.02459 0.72641 0.35972 0.0
C366 C 0.04033 0.71344 0.37476 0.0
C367 C 0.04366 0.7073 0.44459 0.0
C368 C 0.03116 0.71384 0.49974 0.0
C369 C 0.01523 0.72644 0.48514 0.0
C370 C 0.01182 0.7326 0.4154 0.0
C371 C 0.9345 0.65915 0.08521 0.0
C372 C 0.91016 0.6602 0.09942 0.0
C373 C 0.96007 0.67943 0.11254 0.0
C374 C 0.96167 0.70083 0.15536 0.0
C375 C 0.93747 0.70199 0.17001 0.0
C376 C 0.91187 0.68197 0.14142 0.0
C377 C 0.98879 0.72127 0.18607 0.0
C378 C 0.99354 0.71875 0.25776 0.0
C379 C 0.0111 0.73988 0.14255 0.0
C380 C 0.00684 0.74363 0.06669 0.0
C381 C 0.98666 0.75062 0.0461 0.0
C382 C 0.98244 0.75375 0.97457 0.0
C383 C 0.99838 0.75007 0.92308 0.0
C384 C 0.0186 0.74331 0.94304 0.0
C385 C 0.02289 0.74013 0.01451 0.0
H386 H 0.99507 0.7525 0.86773 0.0
H387 H 0.0337 0.70901 0.55376 0.0
H388 H 0.31444 0.13457 0.5923 0.0
H389 H 0.28449 0.08602 0.55606 0.0
H390 H 0.35266 0.08951 0.43744 0.0
H391 H 0.38244 0.13816 0.47167 0.0
H392 H 0.30458 0.05769 0.3708 0.0
H393 H 0.33929 0.06623 0.61119 0.0
H394 H 0.34546 0.08231 0.73486 0.0
H395 H 0.25656 0.0391 0.76303 0.0
H396 H 0.24989 0.02305 0.63915 0.0
H397 H 0.29469 0.92691 0.38931 0.0
H398 H 0.30672 0.97543 0.40256 0.0
H399 H 0.2266 0.94919 0.49781 0.0
H400 H 0.21423 0.9002 0.4849 0.0
H401 H 0.27055 0.99112 0.57216 0.0
H402 H 0.23749 0.97471 0.3352 0.0
H403 H 0.23316 0.95804 0.21258 0.0
H404 H 0.32027 0.01535 0.17787 0.0
H405 H 0.32525 0.03208 0.30063 0.0
C406 C 0.32291 0.12513 0.55756 0.0
C407 C 0.35097 0.14004 0.53591 0.0
C408 C 0.30577 0.09738 0.53696 0.0
C409 C 0.31654 0.08397 0.49541 0.0
C410 C 0.34395 0.0994 0.4698 0.0
C411 C 0.36099 0.12721 0.48969 0.0
C412 C 0.30046 0.05338 0.48393 0.0
C413 C 0.29713 0.04311 0.41474 0.0
C414 C 0.29008 0.03433 0.54125 0.0
C415 C 0.29409 0.04374 0.6158 0.0
C416 C 0.32107 0.06031 0.64368 0.0
C417 C 0.32466 0.0694 0.71378 0.0
C418 C 0.30141 0.06181 0.75671 0.0
C419 C 0.27454 0.04502 0.72967 0.0
C420 C 0.27084 0.03592 0.65954 0.0
C421 C 0.27952 0.93133 0.41301 0.0
C422 C 0.25345 0.90963 0.43595 0.0
C423 C 0.28638 0.95911 0.42003 0.0
C424 C 0.26736 0.96584 0.45005 0.0
C425 C 0.24144 0.94435 0.47391 0.0
C426 C 0.23445 0.91642 0.46652 0.0
C427 C 0.27544 0.99551 0.45918 0.0
C428 C 0.27732 0.00561 0.528 0.0
C429 C 0.28467 0.01437 0.40154 0.0
C430 C 0.28176 0.00456 0.32735 0.0
C431 C 0.25577 0.98364 0.30159 0.0
C432 C 0.2532 0.97419 0.23202 0.0
C433 C 0.27643 0.9856 0.18749 0.0
C434 C 0.30229 0.00653 0.21242 0.0
C435 C 0.30499 0.01604 0.28197 0.0
H436 H 0.2744 0.97826 0.13365 0.0
H437 H 0.30423 0.06887 0.81097 0.0
H438 H 0.11632 0.43651 0.75751 0.0
H439 H 0.09273 0.42262 0.6418 0.0
H440 H 0.15231 0.39886 0.57388 0.0
H441 H 0.17609 0.41308 0.68645 0.0
H442 H 0.12659 0.4454 0.50103 0.0
H443 H 0.10833 0.33084 0.52389 0.0
H444 H 0.08427 0.29143 0.60649 0.0
H445 H 0.03363 0.32486 0.68005 0.0
H446 H 0.05698 0.36426 0.59709 0.0
H447 H 0.20542 0.42376 0.27281 0.0
H448 H 0.17946 0.4216 0.37907 0.0
H449 H 0.10303 0.35876 0.28218 0.0
H450 H 0.129 0.35951 0.1777 0.0
H451 H 0.10107 0.35043 0.41868 0.0
H452 H 0.11952 0.4289 0.27572 0.0
H453 H 0.14877 0.47011 0.20124 0.0
H454 H 0.20343 0.51054 0.3769 0.0
H455 H 0.17476 0.46969 0.45218 0.0
C456 C 0.12437 0.42846 0.71744 0.0
C457 C 0.14818 0.42609 0.73059 0.0
C458 C 0.11072 0.42031 0.65213 0.0
C459 C 0.12043 0.40907 0.60079 0.0
C460 C 0.14419 0.4069 0.61391 0.0
C461 C 0.15804 0.41547 0.67788 0.0
C462 C 0.10871 0.40219 0.52936 0.0
C463 C 0.12003 0.42453 0.48182 0.0
C464 C 0.0988 0.37474 0.50466 0.0
C465 C 0.0843 0.3505 0.55348 0.0
C466 C 0.09178 0.32965 0.55678 0.0
C467 C 0.07834 0.30732 0.60403 0.0
C468 C 0.05739 0.30559 0.64842 0.0
C469 C 0.04984 0.32618 0.64566 0.0
C470 C 0.06319 0.34854 0.59854 0.0
C471 C 0.1833 0.40873 0.27533 0.0
C472 C 0.16922 0.39216 0.21676 0.0
C473 C 0.16838 0.40787 0.3353 0.0
C474 C 0.13914 0.39116 0.33639 0.0
C475 C 0.12548 0.37231 0.2814 0.0
C476 C 0.14049 0.3726 0.22209 0.0
C477 C 0.12317 0.39437 0.39422 0.0
C478 C 0.10616 0.37108 0.43633 0.0
C479 C 0.12815 0.42114 0.41438 0.0
C480 C 0.14481 0.44625 0.36974 0.0
C481 C 0.13774 0.44661 0.29845 0.0
C482 C 0.15429 0.46987 0.25604 0.0
C483 C 0.17795 0.49284 0.28441 0.0
C484 C 0.18511 0.49269 0.3551 0.0
C485 C 0.16861 0.46958 0.39774 0.0
H486 H 0.19066 0.51093 0.25211 0.0
H487 H 0.04708 0.28832 0.68507 0.0
H488 H 0.70193 0.10797 0.09479 0.0
H489 H 0.70166 0.09248 0.97355 0.0
H490 H 0.72473 0.17471 0.89668 0.0
H491 H 0.7256 0.19042 0.01733 0.0
H492 H 0.69143 0.12201 0.79666 0.0
H493 H 0.78925 0.18313 0.93034 0.0
H494 H 0.81191 0.18889 0.04635 0.0
H495 H 0.7737 0.09986 0.06719 0.0
H496 H 0.75089 0.09368 0.95089 0.0
H497 H 0.79088 0.21763 0.59 0.0
H498 H 0.77247 0.19507 0.70339 0.0
H499 H 0.78267 0.12575 0.64162 0.0
H500 H 0.80096 0.14797 0.52718 0.0
H501 H 0.79148 0.14852 0.80386 0.0
H502 H 0.72704 0.10647 0.61256 0.0
H503 H 0.70449 0.10625 0.49991 0.0
H504 H 0.67536 0.15798 0.59143 0.0
H505 H 0.69813 0.15892 0.70423 0.0
C506 C 0.70541 0.12226 0.05164 0.0
C507 C 0.71437 0.15052 0.06489 0.0
C508 C 0.7052 0.11335 0.98251 0.0
C509 C 0.71357 0.13262 0.92685 0.0
C510 C 0.71817 0.15958 0.93928 0.0
C511 C 0.71885 0.16861 0.00815 0.0
C512 C 0.72588 0.12853 0.86249 0.0
C513 C 0.71293 0.12665 0.79759 0.0
C514 C 0.75389 0.13447 0.86435 0.0
C515 C 0.76858 0.13798 0.9322 0.0
C516 C 0.78595 0.16484 0.9595 0.0
C517 C 0.79872 0.16817 0.02536 0.0
C518 C 0.79429 0.14477 0.06419 0.0
C519 C 0.77715 0.11797 0.03704 0.0
C520 C 0.76434 0.11454 0.97113 0.0
C521 C 0.79033 0.19815 0.60134 0.0
C522 C 0.79652 0.18419 0.54878 0.0
C523 C 0.77968 0.18523 0.66602 0.0
C524 C 0.77549 0.15847 0.67919 0.0
C525 C 0.78548 0.14628 0.63141 0.0
C526 C 0.79608 0.15916 0.56627 0.0
C527 C 0.75713 0.14229 0.73785 0.0
C528 C 0.76932 0.14139 0.80178 0.0
C529 C 0.72827 0.13326 0.73466 0.0
C530 C 0.71445 0.13285 0.66688 0.0
C531 C 0.71608 0.11805 0.60848 0.0
C532 C 0.70319 0.11774 0.54459 0.0
C533 C 0.68844 0.13204 0.53856 0.0
C534 C 0.68672 0.14684 0.59621 0.0
C535 C 0.69958 0.14722 0.66021 0.0
H536 H 0.67826 0.13155 0.48929 0.0
H537 H 0.80413 0.1474 0.11529 0.0
H538 H 0.53416 0.71805 0.37614 0.0
H539 H 0.5543 0.72655 0.25756 0.0
H540 H 0.62812 0.72944 0.3418 0.0
H541 H 0.60745 0.71944 0.45989 0.0
H542 H 0.62349 0.78357 0.28417 0.0
H543 H 0.61789 0.69599 0.23283 0.0
H544 H 0.59451 0.64478 0.22134 0.0
H545 H 0.539 0.64659 0.06533 0.0
H546 H 0.56159 0.69776 0.07713 0.0
H547 H 0.65323 0.79886 0.87476 0.0
H548 H 0.66106 0.78859 -0.0047 0.0
H549 H 0.59181 0.797 0.06754 0.0
H550 H 0.58319 0.80645 0.94669 0.0
H551 H 0.61126 0.73828 0.05085 0.0
H552 H 0.60857 0.81786 0.24619 0.0
H553 H 0.62756 0.86869 0.25387 0.0
H554 H 0.69577 0.88283 0.11925 0.0
H555 H 0.67758 0.83212 0.11196 0.0
C556 C 0.55385 0.71865 0.36849 0.0
C557 C 0.56932 0.71818 0.42669 0.0
C558 C 0.56539 0.72361 0.30097 0.0
C559 C 0.59269 0.72875 0.29156 0.0
C560 C 0.6069 0.72519 0.34827 0.0
C561 C 0.59498 0.71934 0.41553 0.0
C562 C 0.60812 0.74459 0.22881 0.0
C563 C 0.62141 0.77382 0.2331 0.0
C564 C 0.6053 0.73157 0.16304 0.0
C565 C 0.59133 0.70074 0.15637 0.0
C566 C 0.60046 0.68545 0.19679 0.0
C567 C 0.58737 0.65643 0.19009 0.0
C568 C 0.56521 0.64244 0.14282 0.0
C569 C 0.55611 0.65745 0.1021 0.0
C570 C 0.56906 0.68648 0.10875 0.0
C571 C 0.64038 0.79975 0.91665 0.0
C572 C 0.6172 0.80291 0.90125 0.0
C573 C 0.64489 0.79377 0.98542 0.0
C574 C 0.62684 0.79181 0.03964 0.0
C575 C 0.60597 0.79854 0.02602 0.0
C576 C 0.60106 0.80391 0.95705 0.0
C577 C 0.62562 0.77724 0.10582 0.0
C578 C 0.61452 0.74821 0.10212 0.0
C579 C 0.62992 0.79041 0.17206 0.0
C580 C 0.64154 0.82107 0.17805 0.0
C581 C 0.62774 0.83178 0.21861 0.0
C582 C 0.63832 0.86059 0.22274 0.0
C583 C 0.6627 0.87896 0.18649 0.0
C584 C 0.67674 0.86856 0.14675 0.0
C585 C 0.6663 0.83978 0.14263 0.0
H586 H 0.67083 0.90125 0.18967 0.0
H587 H 0.55515 0.61997 0.1376 0.0
H588 H 0.84498 0.54488 0.74483 0.0
H589 H 0.84824 0.55968 0.62195 0.0
H590 H 0.88899 0.64564 0.68892 0.0
H591 H 0.88769 0.63097 0.81078 0.0
H592 H 0.81725 0.59386 0.64057 0.0
H593 H 0.91556 0.66548 0.58499 0.0
H594 H 0.96526 0.68022 0.56905 0.0
H595 H 0.94308 0.61365 0.42082 0.0
H596 H 0.89315 0.59814 0.43733 0.0
H597 H 0.81878 0.64514 0.24913 0.0
H598 H 0.83476 0.65321 0.37146 0.0
H599 H 0.78586 0.56479 0.41328 0.0
H600 H 0.76964 0.55646 0.29148 0.0
H601 H 0.86671 0.63057 0.41331 0.0
H602 H 0.77391 0.55271 0.58496 0.0
H603 H 0.72323 0.53414 0.59407 0.0
H604 H 0.7329 0.61004 0.50558 0.0
H605 H 0.78377 0.62927 0.49665 0.0
C606 C 0.85685 0.56697 0.73247 0.0
C607 C 0.86604 0.58685 0.7866 0.0
C608 C 0.85862 0.57547 0.66231 0.0
C609 C 0.86875 0.60376 0.64646 0.0
C610 C 0.88174 0.62383 0.69956 0.0
C611 C 0.8809 0.61536 0.76946 0.0
C612 C 0.85641 0.61025 0.58554 0.0
C613 C 0.82805 0.60214 0.59084 0.0
C614 C 0.87082 0.62158 0.52188 0.0
C615 C 0.90066 0.63032 0.51358 0.0
C616 C 0.92126 0.65365 0.55017 0.0
C617 C 0.94948 0.66226 0.54065 0.0
C618 C 0.95734 0.64783 0.49412 0.0
C619 C 0.93697 0.62475 0.45704 0.0
C620 C 0.90871 0.61603 0.46655 0.0
C621 C 0.81049 0.62749 0.28496 0.0
C622 C 0.7935 0.60003 0.26008 0.0
C623 C 0.81981 0.63218 0.3548 0.0
C624 C 0.81183 0.60959 0.40088 0.0
C625 C 0.7922 0.58256 0.37852 0.0
C626 C 0.78294 0.57782 0.3087 0.0
C627 C 0.82716 0.6133 0.46755 0.0
C628 C 0.856 0.62311 0.46346 0.0
C629 C 0.81311 0.60324 0.53247 0.0
C630 C 0.78267 0.59237 0.53974 0.0
C631 C 0.76529 0.56556 0.56797 0.0
C632 C 0.73652 0.55488 0.57292 0.0
C633 C 0.72486 0.57082 0.54998 0.0
C634 C 0.74198 0.59765 0.52288 0.0
C635 C 0.77078 0.60844 0.51777 0.0
H636 H 0.70253 0.56231 0.55311 0.0
H637 H 0.97919 0.65458 0.48661 0.0
H638 H 0.19405 0.81089 0.66566 0.0
H639 H 0.22102 0.82426 0.77499 0.0
H640 H 0.25143 0.76791 0.7282 0.0
H641 H 0.22406 0.75386 0.61952 0.0
H642 H 0.24438 0.77236 0.87158 0.0
H643 H 0.29257 0.83241 0.6813 0.0
H644 H 0.2973 0.86011 0.57461 0.0
H645 H 0.27906 0.91446 0.69614 0.0
H646 H 0.27388 0.88693 0.80356 0.0
H647 H 0.31245 0.84566 0.17226 0.0
H648 H 0.32449 0.84544 0.04762 0.0
H649 H 0.25585 0.85693 0.9856 0.0
H650 H 0.24381 0.85707 0.10905 0.0
H651 H 0.30446 0.87561 0.88081 0.0
H652 H 0.22442 0.78198 0.01123 0.0
H653 H 0.21596 0.75522 0.12172 0.0
H654 H 0.2991 0.76798 0.11403 0.0
H655 H 0.30778 0.79442 0.00252 0.0
C656 C 0.20556 0.8005 0.67993 0.0
C657 C 0.20746 0.78187 0.63315 0.0
C658 C 0.22125 0.80842 0.74186 0.0
C659 C 0.23909 0.79793 0.75745 0.0
C660 C 0.2382 0.77661 0.71593 0.0
C661 C 0.22229 0.76846 0.65416 0.0
C662 C 0.25996 0.81098 0.81409 0.0
C663 C 0.25842 0.79478 0.87258 0.0
C664 C 0.2787 0.84017 0.81449 0.0
C665 C 0.28285 0.85757 0.75065 0.0
C666 C 0.28954 0.85026 0.68534 0.0
C667 C 0.29226 0.8659 0.62467 0.0
C668 C 0.28844 0.88899 0.62855 0.0
C669 C 0.28205 0.89659 0.69324 0.0
C670 C 0.27931 0.88102 0.75413 0.0
C671 C 0.30092 0.84961 0.13193 0.0
C672 C 0.2768 0.85063 0.14935 0.0
C673 C 0.30784 0.84953 0.06092 0.0
C674 C 0.29061 0.85049 0.00785 0.0
C675 C 0.26934 0.85608 0.02597 0.0
C676 C 0.26227 0.85585 0.09642 0.0
C677 C 0.2879 0.8371 0.93894 0.0
C678 C 0.29225 0.85302 0.87771 0.0
C679 C 0.2724 0.80757 0.93509 0.0
C680 C 0.26671 0.79007 -0.00107 0.0
C681 C 0.24073 0.77873 0.03277 0.0
C682 C 0.23593 0.76368 0.09561 0.0
C683 C 0.25698 0.75987 0.125 0.0
C684 C 0.28282 0.77097 0.09128 0.0
C685 C 0.28763 0.78581 0.02804 0.0
H686 H 0.2533 0.74831 0.17379 0.0
H687 H 0.29044 0.901 0.58143 0.0
H688 H 0.40229 0.29063 0.44736 0.0
H689 H 0.38623 0.28943 0.32595 0.0
H690 H 0.44824 0.27039 0.2501 0.0
H691 H 0.46397 0.27109 0.37079 0.0
H692 H 0.42657 0.30157 0.14937 0.0
H693 H 0.39181 0.20245 0.28391 0.0
H694 H 0.3736 0.17876 0.39833 0.0
H695 H 0.32269 0.21688 0.41614 0.0
H696 H 0.34048 0.24057 0.30134 0.0
H697 H 0.43219 0.20815 0.94274 0.0
H698 H 0.42601 0.22466 0.05661 0.0
H699 H 0.34296 0.20506 -0.00286 0.0
H700 H 0.34879 0.18847 0.88247 0.0
H701 H 0.35766 0.19994 0.15667 0.0
H702 H 0.37747 0.26165 0.96232 0.0
H703 H 0.39943 0.28396 0.84946 0.0
H704 H 0.48041 0.32036 0.94596 0.0
H705 H 0.45889 0.29803 0.05956 0.0
C706 C 0.41347 0.28774 0.40431 0.0
C707 C 0.43398 0.28043 0.41789 0.0
C708 C 0.40425 0.28705 0.33512 0.0
C709 C 0.41582 0.2794 0.27973 0.0
C710 C 0.43913 0.27637 0.29244 0.0
C711 C 0.44802 0.27662 0.36133 0.0
C712 C 0.39975 0.26651 0.2151 0.0
C713 C 0.41068 0.27965 0.15025 0.0
C714 C 0.37883 0.23798 0.2168 0.0
C715 C 0.36741 0.22318 0.28443 0.0
C716 C 0.37658 0.20558 0.31216 0.0
C717 C 0.3664 0.19223 0.37709 0.0
C718 C 0.34701 0.19633 0.41459 0.0
C719 C 0.3377 0.21372 0.38707 0.0
C720 C 0.34779 0.22708 0.32206 0.0
C721 C 0.41214 0.20617 0.9547 0.0
C722 C 0.39142 0.19805 0.90258 0.0
C723 C 0.40871 0.21574 0.01969 0.0
C724 C 0.38444 0.2169 0.03345 0.0
C725 C 0.36197 0.20464 0.98642 0.0
C726 C 0.36539 0.1951 0.92106 0.0
C727 C 0.38496 0.23485 0.09113 0.0
C728 C 0.37169 0.22235 0.15454 0.0
C729 C 0.40326 0.2641 0.08755 0.0
C730 C 0.41648 0.27816 0.01973 0.0
C731 C 0.39995 0.27437 0.95961 0.0
C732 C 0.41233 0.28702 0.89543 0.0
C733 C 0.4413 0.3036 0.89057 0.0
C734 C 0.45795 0.30757 0.94993 0.0
C735 C 0.44564 0.29499 0.01433 0.0
H736 H 0.45085 0.31339 0.84084 0.0
H737 H 0.33916 0.18601 0.46489 0.0
H738 H 0.21657 0.52351 0.13349 0.0
H739 H 0.21686 0.56546 0.17451 0.0
H740 H 0.14577 0.54583 0.04281 0.0
H741 H 0.14459 0.50309 0.00296 0.0
H742 H 0.19641 0.60461 0.03609 0.0
H743 H 0.12929 0.5362 0.1925 0.0
H744 H 0.10933 0.49743 0.2783 0.0
H745 H 0.17593 0.54596 0.42343 0.0
H746 H 0.19664 0.58487 0.33789 0.0
H747 H 0.1807 0.71437 0.18894 0.0
H748 H 0.17213 0.67009 0.13841 0.0
H749 H 0.22393 0.66371 0.29967 0.0
H750 H 0.23229 0.70771 0.35083 0.0
H751 H 0.17695 0.61574 0.28614 0.0
H752 H 0.24876 0.67916 0.12163 0.0
H753 H 0.27002 0.71844 0.0373 0.0
H754 H 0.19514 0.68053 0.91258 0.0
H755 H 0.1738 0.64048 -0.00498 0.0
C756 C 0.20085 0.52793 0.1134 0.0
C757 C 0.18036 0.50974 0.06552 0.0
C758 C 0.20107 0.55192 0.13697 0.0
C759 C 0.18121 0.5585 0.11199 0.0
C760 C 0.16114 0.5409 0.06285 0.0
C761 C 0.16053 0.51652 0.0403 0.0
C762 C 0.18202 0.58417 0.13682 0.0
C763 C 0.19164 0.60693 0.09039 0.0
C764 C 0.17635 0.58722 0.208 0.0
C765 C 0.16467 0.5634 0.2584 0.0
C766 C 0.13993 0.53849 0.24226 0.0
C767 C 0.12837 0.51654 0.29105 0.0
C768 C 0.14125 0.51931 0.35646 0.0
C769 C 0.16588 0.54393 0.37292 0.0
C770 C 0.17756 0.56591 0.32424 0.0
C771 C 0.19049 0.70367 0.21312 0.0
C772 C 0.20724 0.71457 0.2737 0.0
C773 C 0.18563 0.67839 0.18412 0.0
C774 C 0.19761 0.66371 0.21486 0.0
C775 C 0.21442 0.67465 0.27516 0.0
C776 C 0.21916 0.69979 0.30436 0.0
C777 C 0.19199 0.63647 0.18594 0.0
C778 C 0.18146 0.61337 0.23164 0.0
C779 C 0.19697 0.63315 0.11431 0.0
C780 C 0.20964 0.65705 0.06469 0.0
C781 C 0.23683 0.67928 0.0763 0.0
C782 C 0.2489 0.70164 0.0288 0.0
C783 C 0.23382 0.70222 0.97016 0.0
C784 C 0.20677 0.68014 0.9582 0.0
C785 C 0.19476 0.65748 0.00494 0.0
H786 H 0.24314 0.71969 0.93383 0.0
H787 H 0.13226 0.50229 0.39415 0.0
H788 H 0.70205 0.21013 0.50287 0.0
H789 H 0.66152 0.21076 0.55261 0.0
H790 H 0.60876 0.15249 0.39342 0.0
H791 H 0.64895 0.15117 0.34423 0.0
H792 H 0.60826 0.20644 0.4109 0.0
H793 H 0.59848 0.12596 0.53975 0.0
H794 H 0.6162 0.10213 0.61641 0.0
H795 H 0.63376 0.16237 0.7801 0.0
H796 H 0.61629 0.18669 0.70413 0.0
H797 H 0.477 0.1815 0.5088 0.0
H798 H 0.51494 0.17308 0.47814 0.0
H799 H 0.55589 0.20965 0.67574 0.0
H800 H 0.5173 0.2172 0.708 0.0
H801 H 0.56408 0.16768 0.64319 0.0
H802 H 0.57476 0.24818 0.52313 0.0
H803 H 0.5608 0.27602 0.4496 0.0
H804 H 0.54704 0.22196 0.27304 0.0
H805 H 0.56052 0.19353 0.34587 0.0
C806 C 0.6818 0.19735 0.47862 0.0
C807 C 0.6787 0.1807 0.41937 0.0
C808 C 0.6587 0.19762 0.50735 0.0
C809 C 0.63228 0.18162 0.4766 0.0
C810 C 0.62905 0.16489 0.41784 0.0
C811 C 0.65201 0.16417 0.38991 0.0
C812 C 0.60828 0.18363 0.50306 0.0
C813 C 0.59827 0.19762 0.46116 0.0
C814 C 0.59622 0.17312 0.56992 0.0
C815 C 0.60629 0.15827 0.61606 0.0
C816 C 0.60625 0.13421 0.59195 0.0
C817 C 0.61614 0.12054 0.63537 0.0
C818 C 0.62611 0.13074 0.70307 0.0
C819 C 0.62603 0.1545 0.72765 0.0
C820 C 0.61606 0.16819 0.68451 0.0
C821 C 0.49391 0.18745 0.54614 0.0
C822 C 0.49436 0.20034 0.6104 0.0
C823 C 0.51563 0.1827 0.52848 0.0
C824 C 0.53862 0.19139 0.57383 0.0
C825 C 0.53844 0.20292 0.63975 0.0
C826 C 0.51641 0.20726 0.65805 0.0
C827 C 0.56346 0.19 0.55014 0.0
C828 C 0.57388 0.17641 0.59274 0.0
C829 C 0.5764 0.20145 0.48434 0.0
C830 C 0.56839 0.21856 0.44018 0.0
C831 C 0.56856 0.24211 0.46878 0.0
C832 C 0.56076 0.25801 0.42721 0.0
C833 C 0.55297 0.25073 0.35675 0.0
C834 C 0.55304 0.22756 0.32766 0.0
C835 C 0.56078 0.21155 0.36905 0.0
H836 H 0.54693 0.26307 0.32465 0.0
H837 H 0.63394 0.12024 0.73643 0.0
H838 H 0.28032 0.51636 0.84911 0.0
H839 H 0.32896 0.55143 0.82978 0.0
H840 H 0.3521 0.52612 0.02236 0.0
H841 H 0.3029 0.49142 0.04353 0.0
H842 H 0.38126 0.58059 0.01042 0.0
H843 H 0.36348 0.50534 0.85983 0.0
H844 H 0.33797 0.46824 0.77187 0.0
H845 H 0.34969 0.52987 0.61642 0.0
H846 H 0.37491 0.56733 0.70372 0.0
H847 H 0.51213 0.64817 0.75308 0.0
H848 H 0.47215 0.60728 0.8052 0.0
H849 H 0.4407 0.6596 0.88282 0.0
H850 H 0.48095 0.70056 0.83302 0.0
H851 H 0.42089 0.58488 0.77267 0.0
H852 H 0.40085 0.63303 0.02623 0.0
H853 H 0.42843 0.66706 0.11892 0.0
H854 H 0.49746 0.65427 0.07785 0.0
H855 H 0.47018 0.6198 0.98571 0.0
C856 C 0.29571 0.51825 0.88752 0.0
C857 C 0.28784 0.50093 0.94747 0.0
C858 C 0.32356 0.53824 0.87623 0.0
C859 C 0.3443 0.54091 0.92363 0.0
C860 C 0.33646 0.52426 0.9848 0.0
C861 C 0.3084 0.50445 -0.0032 0.0
C862 C 0.37403 0.5611 0.9082 0.0
C863 C 0.39006 0.58147 0.95868 0.0
C864 C 0.38589 0.56158 0.84161 0.0
C865 C 0.371 0.53915 0.7885 0.0
C866 C 0.3605 0.51098 0.80699 0.0
C867 C 0.3461 0.48989 0.75723 0.0
C868 C 0.34219 0.4967 0.68862 0.0
C869 C 0.35274 0.52463 0.66958 0.0
C870 C 0.36714 0.54581 0.71916 0.0
C871 C 0.49685 0.65099 0.78192 0.0
C872 C 0.49968 0.67761 0.78867 0.0
C873 C 0.47402 0.62761 0.81178 0.0
C874 C 0.45352 0.63035 0.84863 0.0
C875 C 0.45653 0.65697 0.85618 0.0
C876 C 0.47949 0.68039 0.82708 0.0
C877 C 0.42775 0.60525 0.87368 0.0
C878 C 0.41241 0.58385 0.82493 0.0
C879 C 0.41699 0.6034 0.9426 0.0
C880 C 0.43347 0.62392 -0.0014 0.0
C881 C 0.42184 0.63732 0.03721 0.0
C882 C 0.43745 0.65672 0.08964 0.0
C883 C 0.4647 0.66285 0.10415 0.0
C884 C 0.47638 0.64954 0.0664 0.0
C885 C 0.46086 0.6301 0.01399 0.0
H886 H 0.47676 0.6779 0.1447 0.0
H887 H 0.33102 0.48034 0.65019 0.0
H888 H 0.81102 0.30338 0.37073 0.0
H889 H 0.82418 0.35214 0.34869 0.0
H890 H 0.79793 0.33199 0.13142 0.0
H891 H 0.78575 0.28381 0.15224 0.0
H892 H 0.84315 0.37985 0.13488 0.0
H893 H 0.75584 0.33673 0.26348 0.0
H894 H 0.72494 0.312 0.36419 0.0
H895 H 0.77956 0.37826 0.50349 0.0
H896 H 0.81096 0.40322 0.40364 0.0
H897 H 0.77841 0.47489 0.12655 0.0
H898 H 0.77926 0.43371 0.16814 0.0
H899 H 0.86918 0.47829 0.15518 0.0
H900 H 0.86843 0.51961 0.11089 0.0
H901 H 0.79879 0.42192 0.27849 0.0
H902 H 0.89087 0.43191 0.11497 0.0
H903 H 0.91584 0.45327 0.0038 0.0
H904 H 0.84153 0.44771 0.9166 0.0
H905 H 0.81608 0.42604 0.02689 0.0
C906 C 0.80822 0.30943 0.3182 0.0
C907 C 0.79719 0.28968 0.26335 0.0
C908 C 0.81571 0.33728 0.30571 0.0
C909 C 0.81178 0.34569 0.23854 0.0
C910 C 0.80131 0.32608 0.18358 0.0
C911 C 0.7942 0.29844 0.19571 0.0
C912 C 0.81727 0.37447 0.22527 0.0
C913 C 0.83367 0.38916 0.16673 0.0
C914 C 0.80476 0.38659 0.26638 0.0
C915 C 0.7859 0.37165 0.32635 0.0
C916 C 0.76134 0.34591 0.3157 0.0
C917 C 0.74373 0.33188 0.37258 0.0
C918 C 0.75033 0.34351 0.44024 0.0
C919 C 0.77451 0.36924 0.4511 0.0
C920 C 0.79222 0.38334 0.39439 0.0
C921 C 0.79843 0.47605 0.13259 0.0
C922 C 0.82337 0.5005 0.11497 0.0
C923 C 0.79888 0.45247 0.15678 0.0
C924 C 0.82425 0.4528 0.16451 0.0
C925 C 0.84931 0.47741 0.14865 0.0
C926 C 0.84886 0.50099 0.12341 0.0
C927 C 0.82395 0.4269 0.18682 0.0
C928 C 0.80873 0.41286 0.24743 0.0
C929 C 0.83673 0.41493 0.14618 0.0
C930 C 0.85173 0.42772 0.07946 0.0
C931 C 0.87989 0.43522 0.07199 0.0
C932 C 0.89411 0.44737 0.00916 0.0
C933 C 0.88031 0.45195 0.95329 0.0
C934 C 0.85223 0.44427 0.96001 0.0
C935 C 0.83791 0.43208 0.02268 0.0
H936 H 0.89137 0.46137 0.90472 0.0
H937 H 0.73667 0.33261 0.48421 0.0
H938 H 0.3454 0.85493 0.45345 0.0
H939 H 0.38583 0.8533 0.50003 0.0
H940 H 0.33112 0.77879 0.61767 0.0
H941 H 0.29062 0.78001 0.57081 0.0
H942 H 0.40855 0.85113 0.62962 0.0
H943 H 0.35269 0.73214 0.58822 0.0
H944 H 0.31347 0.69572 0.5193 0.0
H945 H 0.32627 0.75587 0.35837 0.0
H946 H 0.3658 0.7925 0.4258 0.0
H947 H 0.49507 0.79516 0.74694 0.0
H948 H 0.45654 0.80448 0.72991 0.0
H949 H 0.46058 0.7953 0.50464 0.0
H950 H 0.49866 0.78581 0.52086 0.0
H951 H 0.40825 0.7653 0.55195 0.0
H952 H 0.48522 0.85896 0.57659 0.0
H953 H 0.52601 0.89754 0.63571 0.0
H954 H 0.47484 0.89168 0.81253 0.0
H955 H 0.43379 0.8528 0.75481 0.0
C956 C 0.34199 0.8385 0.49025 0.0
C957 C 0.31483 0.81719 0.50701 0.0
C958 C 0.36512 0.83769 0.51712 0.0
C959 C 0.36138 0.81565 0.56122 0.0
C960 C 0.33438 0.79572 0.58279 0.0
C961 C 0.31128 0.79639 0.55566 0.0
C962 C 0.38522 0.81146 0.57709 0.0
C963 C 0.40847 0.8323 0.61323 0.0
C964 C 0.38524 0.78712 0.55437 0.0
C965 C 0.36197 0.76509 0.51247 0.0
C966 C 0.34719 0.73754 0.53798 0.0
C967 C 0.32491 0.71687 0.49919 0.0
C968 C 0.31732 0.7235 0.43463 0.0
C969 C 0.3321 0.75078 0.4085 0.0
C970 C 0.35444 0.7715 0.44699 0.0
C971 C 0.48783 0.79526 0.69373 0.0
C972 C 0.49988 0.7896 0.63528 0.0
C973 C 0.4659 0.80069 0.68416 0.0
C974 C 0.45577 0.80061 0.61601 0.0
C975 C 0.46802 0.79534 0.55771 0.0
C976 C 0.48985 0.78996 0.56713 0.0
C977 C 0.4317 0.80491 0.60483 0.0
C978 C 0.40829 0.784 0.56938 0.0
C979 C 0.43188 0.82943 0.62694 0.0
C980 C 0.45651 0.85276 0.66175 0.0
C981 C 0.48272 0.86573 0.62836 0.0
C982 C 0.50588 0.88769 0.66155 0.0
C983 C 0.50304 0.897 0.72793 0.0
C984 C 0.47702 0.88442 0.76117 0.0
C985 C 0.4538 0.86243 0.72823 0.0
H986 H 0.52099 0.91401 0.75354 0.0
H987 H 0.30002 0.70749 0.40477 0.0
H988 H 0.69524 0.5044 0.03477 0.0
H989 H 0.64917 0.46663 -0.00045 0.0
H990 H 0.68336 0.45886 0.80162 0.0
H991 H 0.72903 0.49751 0.83509 0.0
H992 H 0.63585 0.4528 0.77608 0.0
H993 H 0.66967 0.41334 0.9486 0.0
H994 H 0.68859 0.40973 0.06377 0.0
H995 H 0.61572 0.40072 0.16827 0.0
H996 H 0.59653 0.40464 0.05374 0.0
H997 H 0.52614 0.29478 0.79951 0.0
H998 H 0.56922 0.33516 0.84024 0.0
H999 H 0.53694 0.38924 0.78311 0.0
H1000 H 0.49402 0.34891 0.73993 0.0
H1001 H 0.58293 0.3723 0.93717 0.0
H1002 H 0.58952 0.45156 0.72578 0.0
H1003 H 0.57443 0.45161 0.60297 0.0
H1004 H 0.57313 0.37457 0.56288 0.0
H1005 H 0.58856 0.37427 0.68506 0.0
C1006 C 0.69286 0.49467 0.98366 0.0
C1007 C 0.71575 0.50379 0.93783 0.0
C1008 C 0.66655 0.473 0.96368 0.0
C1009 C 0.66282 0.45948 0.89841 0.0
C1010 C 0.68563 0.46892 0.85221 0.0
C1011 C 0.71177 0.49097 0.87149 0.0
C1012 C 0.63535 0.43528 0.87835 0.0
C1013 C 0.62428 0.43526 0.81148 0.0
C1014 C 0.62038 0.41207 0.92381 0.0
C1015 C 0.63181 0.40958 0.99271 0.0
C1016 C 0.65777 0.41078 -0.0038 0.0
C1017 C 0.66853 0.40865 0.06135 0.0
C1018 C 0.6534 0.40508 0.12332 0.0
C1019 C 0.62744 0.40354 0.12024 0.0
C1020 C 0.6166 0.40569 0.05523 0.0
C1021 C 0.52812 0.31524 0.7958 0.0
C1022 C 0.50678 0.31868 0.7657 0.0
C1023 C 0.55276 0.33833 0.81937 0.0
C1024 C 0.55652 0.36531 0.81387 0.0
C1025 C 0.53477 0.36869 0.78649 0.0
C1026 C 0.51023 0.34562 0.76199 0.0
C1027 C 0.58354 0.38984 0.83493 0.0
C1028 C 0.59446 0.38996 0.90204 0.0
C1029 C 0.59891 0.41262 0.7886 0.0
C1030 C 0.58986 0.41274 0.71482 0.0
C1031 C 0.58607 0.43468 0.69068 0.0
C1032 C 0.57746 0.43474 0.62118 0.0
C1033 C 0.57272 0.41305 0.57524 0.0
C1034 C 0.57669 0.3913 0.59859 0.0
C1035 C 0.58534 0.39116 0.66798 0.0
H1036 H 0.56603 0.41313 0.52149 0.0
H1037 H 0.66177 0.40343 0.17371 0.0
loop_
_geom_bond_atom_site_label_1
_geom_bond_atom_site_label_2
_geom_bond_distance
_geom_bond_site_symmetry_2
_ccdc_geom_bond_type
O0 Zn1 1.953 1_554 S
O0 C16 1.225 . S
Zn1 O0 1.953 1_556 S
Zn1 O2 1.949 1_556 S
Zn1 O8 1.919 1_556 S
Zn1 O13 1.924 . S
O2 Zn1 1.949 1_554 S
O2 Zn3 1.923 . S
O2 Zn4 1.950 . S
O2 Zn5 1.945 1_554 S
Zn3 O2 1.923 . S
Zn3 O6 1.933 . S
Zn3 O9 1.941 . S
Zn3 O10 1.965 . S
Zn4 O2 1.950 . S
Zn4 O11 1.938 . S
Zn4 O12 1.906 . S
Zn4 O22 1.953 . S
Zn5 O2 1.945 1_556 S
Zn5 O7 1.932 . S
Zn5 O14 1.977 . S
Zn5 O15 1.910 . S
O6 Zn3 1.933 . S
O6 C17 1.226 1_554 S
O7 Zn5 1.932 . S
O7 C17 1.307 . S
O8 Zn1 1.919 1_554 S
O8 C19 1.253 . S
O9 Zn3 1.941 . S
O9 C19 1.283 . S
O10 Zn3 1.965 . S
O10 C18 1.303 . S
O11 Zn4 1.938 . S
O11 C18 1.247 . S
O12 Zn4 1.906 . S
O12 C20 1.304 1_554 S
O13 Zn1 1.924 . S
O13 C21 1.311 . S
O14 Zn5 1.977 . S
O14 C20 1.272 . S
O15 Zn5 1.910 . S
O15 C21 1.231 . S
C16 O0 1.225 . S
C16 O22 1.298 . S
C17 O6 1.226 1_556 S
C17 O7 1.307 . S
C18 O10 1.303 . S
C18 O11 1.247 . S
C19 O8 1.253 . S
C19 O9 1.283 . S
C20 O12 1.304 1_556 S
C20 O14 1.272 . S
C21 O13 1.311 . S
C21 O15 1.231 . S
O22 Zn4 1.953 . S
O22 C16 1.298 . S
O23 Zn24 1.953 . S
O23 C39 1.225 . S
Zn24 O23 1.953 . S
Zn24 O25 1.949 . S
Zn24 O31 1.919 . S
Zn24 O36 1.924 . S
O25 Zn24 1.949 . S
O25 Zn26 1.923 . S
O25 Zn27 1.950 . S
O25 Zn28 1.945 . S
Zn26 O25 1.923 . S
Zn26 O29 1.933 . S
Zn26 O32 1.941 . S
Zn26 O33 1.965 . S
Zn27 O25 1.950 . S
Zn27 O34 1.938 . S
Zn27 O35 1.906 . S
Zn27 O45 1.953 . S
Zn28 O25 1.945 . S
Zn28 O30 1.932 . S
Zn28 O37 1.977 . S
Zn28 O38 1.910 . S
O29 Zn26 1.933 . S
O29 C40 1.226 . S
O30 Zn28 1.932 . S
O30 C40 1.307 . S
O31 Zn24 1.919 . S
O31 C42 1.253 . S
O32 Zn26 1.941 . S
O32 C42 1.283 . S
O33 Zn26 1.965 . S
O33 C41 1.303 . S
O34 Zn27 1.938 . S
O34 C41 1.247 . S
O35 Zn27 1.906 . S
O35 C43 1.304 . S
O36 Zn24 1.924 . S
O36 C44 1.311 . S
O37 Zn28 1.977 . S
O37 C43 1.272 . S
O38 Zn28 1.910 . S
O38 C44 1.231 . S
C39 O23 1.225 . S
C39 O45 1.298 . S
C40 O29 1.226 . S
C40 O30 1.307 . S
C41 O33 1.303 . S
C41 O34 1.247 . S
C42 O31 1.253 . S
C42 O32 1.283 . S
C43 O35 1.304 . S
C43 O37 1.272 . S
C44 O36 1.311 . S
C44 O38 1.231 . S
O45 Zn27 1.953 . S
O45 C39 1.298 . S
O46 Zn47 1.953 . S
O46 C62 1.225 . S
Zn47 O46 1.953 . S
Zn47 O48 1.949 . S
Zn47 O54 1.919 . S
Zn47 O59 1.924 . S
O48 Zn47 1.949 . S
O48 Zn49 1.923 . S
O48 Zn50 1.950 . S
O48 Zn51 1.945 . S
Zn49 O48 1.923 . S
Zn49 O52 1.933 . S
Zn49 O55 1.941 . S
Zn49 O56 1.965 . S
Zn50 O48 1.950 . S
Zn50 O57 1.938 . S
Zn50 O58 1.906 . S
Zn50 O68 1.953 . S
Zn51 O48 1.945 . S
Zn51 O53 1.932 . S
Zn51 O60 1.977 . S
Zn51 O61 1.910 . S
O52 Zn49 1.933 . S
O52 C63 1.226 . S
O53 Zn51 1.932 . S
O53 C63 1.307 . S
O54 Zn47 1.919 . S
O54 C65 1.253 . S
O55 Zn49 1.941 . S
O55 C65 1.283 . S
O56 Zn49 1.965 . S
O56 C64 1.303 . S
O57 Zn50 1.938 . S
O57 C64 1.247 . S
O58 Zn50 1.906 . S
O58 C66 1.304 . S
O59 Zn47 1.924 . S
O59 C67 1.311 . S
O60 Zn51 1.977 . S
O60 C66 1.272 . S
O61 Zn51 1.910 . S
O61 C67 1.231 . S
C62 O46 1.225 . S
C62 O68 1.298 . S
C63 O52 1.226 . S
C63 O53 1.307 . S
C64 O56 1.303 . S
C64 O57 1.247 . S
C65 O54 1.253 . S
C65 O55 1.283 . S
C66 O58 1.304 . S
C66 O60 1.272 . S
C67 O59 1.311 . S
C67 O61 1.231 . S
O68 Zn50 1.953 . S
O68 C62 1.298 . S
O69 Zn70 1.953 1_554 S
O69 C85 1.225 . S
Zn70 O69 1.953 1_556 S
Zn70 O71 1.949 1_556 S
Zn70 O77 1.919 1_556 S
Zn70 O82 1.924 . S
O71 Zn70 1.949 1_554 S
O71 Zn72 1.923 . S
O71 Zn73 1.950 . S
O71 Zn74 1.945 1_554 S
Zn72 O71 1.923 . S
Zn72 O75 1.933 . S
Zn72 O78 1.941 . S
Zn72 O79 1.965 . S
Zn73 O71 1.950 . S
Zn73 O80 1.938 . S
Zn73 O81 1.906 . S
Zn73 O91 1.953 . S
Zn74 O71 1.945 1_556 S
Zn74 O76 1.932 . S
Zn74 O83 1.977 . S
Zn74 O84 1.910 . S
O75 Zn72 1.933 . S
O75 C86 1.226 1_554 S
O76 Zn74 1.932 . S
O76 C86 1.307 . S
O77 Zn70 1.919 1_554 S
O77 C88 1.253 . S
O78 Zn72 1.941 . S
O78 C88 1.283 . S
O79 Zn72 1.965 . S
O79 C87 1.303 . S
O80 Zn73 1.938 . S
O80 C87 1.247 . S
O81 Zn73 1.906 . S
O81 C89 1.304 1_554 S
O82 Zn70 1.924 . S
O82 C90 1.311 . S
O83 Zn74 1.977 . S
O83 C89 1.272 . S
O84 Zn74 1.910 . S
O84 C90 1.231 . S
C85 O69 1.225 . S
C85 O91 1.298 . S
C86 O75 1.226 1_556 S
C86 O76 1.307 . S
C87 O79 1.303 . S
C87 O80 1.247 . S
C88 O77 1.253 . S
C88 O78 1.283 . S
C89 O81 1.304 1_556 S
C89 O83 1.272 . S
C90 O82 1.311 . S
C90 O84 1.231 . S
O91 Zn73 1.953 . S
O91 C85 1.298 . S
O92 Zn93 1.953 . S
O92 C108 1.225 . S
Zn93 O92 1.953 . S
Zn93 O94 1.949 . S
Zn93 O100 1.919 . S
Zn93 O105 1.924 . S
O94 Zn93 1.949 . S
O94 Zn95 1.923 . S
O94 Zn96 1.950 . S
O94 Zn97 1.945 . S
Zn95 O94 1.923 . S
Zn95 O98 1.933 . S
Zn95 O101 1.941 . S
Zn95 O102 1.965 . S
Zn96 O94 1.950 . S
Zn96 O103 1.938 . S
Zn96 O104 1.906 . S
Zn96 O114 1.953 . S
Zn97 O94 1.945 . S
Zn97 O99 1.932 . S
Zn97 O106 1.977 . S
Zn97 O107 1.910 . S
O98 Zn95 1.933 . S
O98 C109 1.226 . S
O99 Zn97 1.932 . S
O99 C109 1.307 . S
O100 Zn93 1.919 . S
O100 C111 1.253 . S
O101 Zn95 1.941 . S
O101 C111 1.283 . S
O102 Zn95 1.965 . S
O102 C110 1.303 . S
O103 Zn96 1.938 . S
O103 C110 1.247 . S
O104 Zn96 1.906 . S
O104 C112 1.304 . S
O105 Zn93 1.924 . S
O105 C113 1.311 . S
O106 Zn97 1.977 . S
O106 C112 1.272 . S
O107 Zn97 1.910 . S
O107 C113 1.231 . S
C108 O92 1.225 . S
C108 O114 1.298 . S
C109 O98 1.226 . S
C109 O99 1.307 . S
C110 O102 1.303 . S
C110 O103 1.247 . S
C111 O100 1.253 . S
C111 O101 1.283 . S
C112 O104 1.304 . S
C112 O106 1.272 . S
C113 O105 1.311 . S
C113 O107 1.231 . S
O114 Zn96 1.953 . S
O114 C108 1.298 . S
O115 Zn116 1.953 . S
O115 C131 1.225 . S
Zn116 O115 1.953 . S
Zn116 O117 1.949 . S
Zn116 O123 1.919 . S
Zn116 O128 1.924 . S
O117 Zn116 1.949 . S
O117 Zn118 1.923 . S
O117 Zn119 1.950 . S
O117 Zn120 1.945 . S
Zn118 O117 1.923 . S
Zn118 O121 1.933 . S
Zn118 O124 1.941 . S
Zn118 O125 1.965 . S
Zn119 O117 1.950 . S
Zn119 O126 1.938 . S
Zn119 O127 1.906 . S
Zn119 O137 1.953 . S
Zn120 O117 1.945 . S
Zn120 O122 1.932 . S
Zn120 O129 1.977 . S
Zn120 O130 1.910 . S
O121 Zn118 1.933 . S
O121 C132 1.226 . S
O122 Zn120 1.932 . S
O122 C132 1.307 . S
O123 Zn116 1.919 . S
O123 C134 1.253 . S
O124 Zn118 1.941 . S
O124 C134 1.283 . S
O125 Zn118 1.965 . S
O125 C133 1.303 . S
O126 Zn119 1.938 . S
O126 C133 1.247 . S
O127 Zn119 1.906 . S
O127 C135 1.304 . S
O128 Zn116 1.924 . S
O128 C136 1.311 . S
O129 Zn120 1.977 . S
O129 C135 1.272 . S
O130 Zn120 1.910 . S
O130 C136 1.231 . S
C131 O115 1.225 . S
C131 O137 1.298 . S
C132 O121 1.226 . S
C132 O122 1.307 . S
C133 O125 1.303 . S
C133 O126 1.247 . S
C134 O123 1.253 . S
C134 O124 1.283 . S
C135 O127 1.304 . S
C135 O129 1.272 . S
C136 O128 1.311 . S
C136 O130 1.231 . S
O137 Zn119 1.953 . S
O137 C131 1.298 . S
H138 C156 0.951 . S
H139 C158 0.951 . S
H140 C160 0.950 . S
H141 C161 0.950 . S
H142 C163 0.950 . S
H143 C166 0.950 . S
H144 C167 0.950 . S
H145 C169 0.950 . S
H146 C170 0.950 . S
H147 C171 0.951 . S
H148 C173 0.951 . S
H149 C175 0.950 . S
H150 C176 0.950 . S
H151 C178 0.950 . S
H152 C181 0.950 . S
H153 C182 0.950 . S
H154 C184 0.950 . S
H155 C185 0.950 . S
C156 H138 0.951 . S
C156 C157 1.366 . S
C156 C158 1.388 . S
C157 C156 1.366 . S
C157 C161 1.385 . S
C158 H139 0.951 . S
C158 C156 1.388 . S
C158 C159 1.366 . S
C159 C158 1.366 . S
C159 C160 1.414 . S
C159 C162 1.499 . S
C160 H140 0.950 . S
C160 C159 1.414 . S
C160 C161 1.374 . S
C161 H141 0.950 . S
C161 C157 1.385 . S
C161 C160 1.374 . S
C162 C159 1.499 . S
C162 C163 1.373 . S
C162 C164 1.389 . S
C163 H142 0.950 . S
C163 C162 1.373 . S
C163 C179 1.377 . S
C164 C162 1.389 . S
C164 C165 1.524 . S
C164 C178 1.377 . S
C165 C164 1.524 . S
C165 C166 1.397 . S
C165 C170 1.363 . S
C166 H143 0.950 . S
C166 C165 1.397 . S
C166 C167 1.334 . S
C167 H144 0.950 . S
C167 C166 1.334 . S
C167 C168 1.287 1_556 S
C168 C167 1.287 1_554 S
C168 C169 1.524 . S
C168 H187 0.913 . S
C169 H145 0.950 . S
C169 C168 1.524 . S
C169 C170 1.415 1_554 S
C170 H146 0.950 . S
C170 C165 1.363 . S
C170 C169 1.415 1_556 S
C171 H147 0.951 . S
C171 C172 1.366 . S
C171 C173 1.388 . S
C172 C171 1.366 . S
C172 C176 1.385 . S
C173 H148 0.951 . S
C173 C171 1.388 . S
C173 C174 1.366 . S
C174 C173 1.366 . S
C174 C175 1.414 . S
C174 C177 1.499 . S
C175 H149 0.950 . S
C175 C174 1.414 . S
C175 C176 1.374 . S
C176 H150 0.950 . S
C176 C172 1.385 . S
C176 C175 1.374 . S
C177 C174 1.499 . S
C177 C178 1.373 . S
C177 C179 1.389 . S
C178 H151 0.950 . S
C178 C164 1.377 . S
C178 C177 1.373 . S
C179 C163 1.377 . S
C179 C177 1.389 . S
C179 C180 1.524 . S
C180 C179 1.524 . S
C180 C181 1.397 . S
C180 C185 1.363 . S
C181 H152 0.950 . S
C181 C180 1.397 . S
C181 C182 1.334 . S
C182 H153 0.950 . S
C182 C181 1.334 . S
C182 C183 1.287 . S
C183 C182 1.287 . S
C183 C184 1.524 . S
C183 H186 0.999 . S
C184 H154 0.950 . S
C184 C183 1.524 . S
C184 C185 1.415 . S
C185 H155 0.950 . S
C185 C180 1.363 . S
C185 C184 1.415 . S
H186 C183 0.999 . S
H187 C168 0.913 . S
H188 C206 0.951 1_556 S
H189 C208 0.951 . S
H190 C210 0.950 . S
H191 C211 0.950 . S
H192 C213 0.950 . S
H193 C216 0.958 . S
H194 C217 0.950 . S
H195 C219 0.950 . S
H196 C220 0.950 . S
H197 C221 0.951 . S
H198 C223 0.951 . S
H199 C225 0.950 . S
H200 C226 0.950 . S
H201 C228 0.950 . S
H202 C231 0.950 . S
H203 C232 0.950 . S
H204 C234 0.950 1_455 S
H205 C235 0.950 1_455 S
C206 H188 0.951 1_554 S
C206 C207 1.366 . S
C206 C208 1.388 . S
C207 C206 1.366 . S
C207 C211 1.385 . S
C208 H189 0.951 . S
C208 C206 1.388 . S
C208 C209 1.366 . S
C209 C208 1.366 . S
C209 C210 1.414 . S
C209 C212 1.499 . S
C210 H190 0.950 . S
C210 C209 1.414 . S
C210 C211 1.374 . S
C211 H191 0.950 . S
C211 C207 1.385 . S
C211 C210 1.374 . S
C212 C209 1.499 . S
C212 C213 1.373 . S
C212 C214 1.389 1_455 S
C213 H192 0.950 . S
C213 C212 1.373 . S
C213 C229 1.377 1_455 S
C214 C212 1.389 1_655 S
C214 C215 1.524 . S
C214 C228 1.377 . S
C215 C214 1.524 . S
C215 C216 1.396 1_655 S
C215 C220 1.363 1_554 S
C216 H193 0.958 . S
C216 C215 1.396 1_455 S
C216 C217 1.329 1_554 S
C217 H194 0.950 . S
C217 C216 1.329 1_556 S
C217 C218 1.287 1_455 S
C218 C217 1.287 1_655 S
C218 C219 1.524 . S
C218 H237 0.913 . S
C219 H195 0.950 . S
C219 C218 1.524 . S
C219 C220 1.415 . S
C220 H196 0.950 . S
C220 C215 1.363 1_556 S
C220 C219 1.415 . S
C221 H197 0.951 . S
C221 C222 1.366 . S
C221 C223 1.388 . S
C222 C221 1.366 . S
C222 C226 1.385 . S
C223 H198 0.951 . S
C223 C221 1.388 . S
C223 C224 1.366 . S
C224 C223 1.366 . S
C224 C225 1.414 . S
C224 C227 1.499 . S
C225 H199 0.950 . S
C225 C224 1.414 . S
C225 C226 1.374 . S
C226 H200 0.950 . S
C226 C222 1.385 . S
C226 C225 1.374 . S
C227 C224 1.499 . S
C227 C228 1.373 . S
C227 C229 1.389 . S
C228 H201 0.950 . S
C228 C214 1.377 . S
C228 C227 1.373 . S
C229 C213 1.377 1_655 S
C229 C227 1.389 . S
C229 C230 1.524 . S
C230 C229 1.524 . S
C230 C231 1.397 . S
C230 C235 1.363 . S
C231 H202 0.950 . S
C231 C230 1.397 . S
C231 C232 1.334 . S
C232 H203 0.950 . S
C232 C231 1.334 . S
C232 C233 1.287 . S
C233 C232 1.287 . S
C233 C234 1.524 . S
C233 H236 0.999 . S
C234 H204 0.950 1_655 S
C234 C233 1.524 . S
C234 C235 1.415 . S
C235 H205 0.950 1_655 S
C235 C230 1.363 . S
C235 C234 1.415 . S
H236 C233 0.999 . S
H237 C218 0.913 . S
H238 C256 0.951 . S
H239 C258 0.951 . S
H240 C260 0.950 . S
H241 C261 0.950 . S
H242 C263 0.950 1_545 S
H243 C266 0.950 . S
H244 C267 0.950 . S
H245 C269 0.950 . S
H246 C270 0.926 1_565 S
H247 C271 0.951 . S
H248 C273 0.951 . S
H249 C275 0.950 . S
H250 C276 0.950 . S
H251 C278 0.950 . S
H252 C281 0.950 . S
H253 C282 0.950 . S
H254 C284 0.950 . S
H255 C285 0.950 . S
C256 H238 0.951 . S
C256 C257 1.366 . S
C256 C258 1.388 . S
C257 C256 1.366 . S
C257 C261 1.385 . S
C258 H239 0.951 . S
C258 C256 1.388 . S
C258 C259 1.366 . S
C259 C258 1.366 . S
C259 C260 1.414 . S
C259 C262 1.499 . S
C260 H240 0.950 . S
C260 C259 1.414 . S
C260 C261 1.374 . S
C261 H241 0.950 . S
C261 C257 1.385 . S
C261 C260 1.374 . S
C262 C259 1.499 . S
C262 C263 1.373 1_545 S
C262 C264 1.389 1_545 S
C263 H242 0.950 1_565 S
C263 C262 1.373 1_565 S
C263 C279 1.377 . S
C264 C262 1.389 1_565 S
C264 C265 1.524 1_565 S
C264 C278 1.377 . S
C265 C264 1.524 1_545 S
C265 C266 1.397 . S
C265 C270 1.360 . S
C266 H243 0.950 . S
C266 C265 1.397 . S
C266 C267 1.334 . S
C267 H244 0.950 . S
C267 C266 1.334 . S
C267 C268 1.287 . S
C268 C267 1.287 . S
C268 C269 1.524 . S
C268 H287 0.913 . S
C269 H245 0.950 . S
C269 C268 1.524 . S
C269 C270 1.442 . S
C270 H246 0.926 1_545 S
C270 C265 1.360 . S
C270 C269 1.442 . S
C271 H247 0.951 . S
C271 C272 1.366 . S
C271 C273 1.388 . S
C272 C271 1.366 . S
C272 C276 1.385 . S
C273 H248 0.951 . S
C273 C271 1.388 . S
C273 C274 1.366 . S
C274 C273 1.366 . S
C274 C275 1.414 . S
C274 C277 1.499 . S
C275 H249 0.950 . S
C275 C274 1.414 . S
C275 C276 1.374 . S
C276 H250 0.950 . S
C276 C272 1.385 . S
C276 C275 1.374 . S
C277 C274 1.499 . S
C277 C278 1.373 . S
C277 C279 1.389 . S
C278 H251 0.950 . S
C278 C264 1.377 . S
C278 C277 1.373 . S
C279 C263 1.377 . S
C279 C277 1.389 . S
C279 C280 1.524 . S
C280 C279 1.524 . S
C280 C281 1.397 . S
C280 C285 1.363 . S
C281 H252 0.950 . S
C281 C280 1.397 . S
C281 C282 1.334 . S
C282 H253 0.950 . S
C282 C281 1.334 . S
C282 C283 1.287 . S
C283 C282 1.287 . S
C283 C284 1.524 . S
C283 H286 0.999 . S
C284 H254 0.950 . S
C284 C283 1.524 . S
C284 C285 1.415 . S
C285 H255 0.950 . S
C285 C280 1.363 . S
C285 C284 1.415 . S
H286 C283 0.999 . S
H287 C268 0.913 . S
H288 C306 0.951 . S
H289 C308 0.951 . S
H290 C310 0.950 . S
H291 C311 0.950 . S
H292 C313 0.950 . S
H293 C316 0.950 . S
H294 C317 0.950 . S
H295 C319 0.950 . S
H296 C320 0.950 1_554 S
H297 C321 0.951 . S
H298 C323 0.951 . S
H299 C325 0.950 . S
H300 C326 0.950 1_554 S
H301 C328 0.950 . S
H302 C331 0.950 . S
H303 C332 0.950 . S
H304 C334 0.950 . S
H305 C335 0.950 . S
C306 H288 0.951 . S
C306 C307 1.366 . S
C306 C308 1.388 . S
C307 C306 1.366 . S
C307 C311 1.385 . S
C308 H289 0.951 . S
C308 C306 1.388 . S
C308 C309 1.366 . S
C309 C308 1.366 . S
C309 C310 1.414 . S
C309 C312 1.499 . S
C310 H290 0.950 . S
C310 C309 1.414 . S
C310 C311 1.374 . S
C311 H291 0.950 . S
C311 C307 1.385 . S
C311 C310 1.374 . S
C312 C309 1.499 . S
C312 C313 1.373 . S
C312 C314 1.389 . S
C313 H292 0.950 . S
C313 C312 1.373 . S
C313 C329 1.377 . S
C314 C312 1.389 . S
C314 C315 1.524 . S
C314 C328 1.377 . S
C315 C314 1.524 . S
C315 C316 1.397 . S
C315 C320 1.363 . S
C316 H293 0.950 . S
C316 C315 1.397 . S
C316 C317 1.334 . S
C317 H294 0.950 . S
C317 C316 1.334 . S
C317 C318 1.287 1_556 S
C318 C317 1.287 1_554 S
C318 C319 1.524 . S
C318 H337 0.913 . S
C319 H295 0.950 . S
C319 C318 1.524 . S
C319 C320 1.415 1_554 S
C320 H296 0.950 1_556 S
C320 C315 1.363 . S
C320 C319 1.415 1_556 S
C321 H297 0.951 . S
C321 C322 1.366 . S
C321 C323 1.388 . S
C322 C321 1.366 . S
C322 C326 1.385 . S
C323 H298 0.951 . S
C323 C321 1.388 . S
C323 C324 1.366 . S
C324 C323 1.366 . S
C324 C325 1.414 . S
C324 C327 1.499 . S
C325 H299 0.950 . S
C325 C324 1.414 . S
C325 C326 1.374 . S
C326 H300 0.950 1_556 S
C326 C322 1.385 . S
C326 C325 1.374 . S
C327 C324 1.499 . S
C327 C328 1.373 . S
C327 C329 1.389 . S
C328 H301 0.950 . S
C328 C314 1.377 . S
C328 C327 1.373 . S
C329 C313 1.377 . S
C329 C327 1.389 . S
C329 C330 1.524 . S
C330 C329 1.524 . S
C330 C331 1.397 . S
C330 C335 1.363 . S
C331 H302 0.950 . S
C331 C330 1.397 . S
C331 C332 1.334 . S
C332 H303 0.950 . S
C332 C331 1.334 . S
C332 C333 1.287 . S
C333 C332 1.287 . S
C333 C334 1.524 . S
C333 H336 0.999 . S
C334 H304 0.950 . S
C334 C333 1.524 . S
C334 C335 1.415 . S
C335 H305 0.950 . S
C335 C330 1.363 . S
C335 C334 1.415 . S
H336 C333 0.999 . S
H337 C318 0.913 . S
H338 C356 0.951 . S
H339 C358 0.951 . S
H340 C360 0.950 . S
H341 C361 0.950 . S
H342 C363 0.950 . S
H343 C366 0.950 . S
H344 C367 0.950 . S
H345 C369 0.921 1_655 S
H346 C370 0.950 1_655 S
H347 C371 0.951 1_556 S
H348 C373 0.951 . S
H349 C375 0.950 . S
H350 C376 0.950 . S
H351 C378 0.950 . S
H352 C381 0.950 . S
H353 C382 0.950 . S
H354 C384 0.950 . S
H355 C385 0.950 . S
C356 H338 0.951 . S
C356 C357 1.366 . S
C356 C358 1.388 . S
C357 C356 1.366 . S
C357 C361 1.385 . S
C358 H339 0.951 . S
C358 C356 1.388 . S
C358 C359 1.366 . S
C359 C358 1.366 . S
C359 C360 1.414 . S
C359 C362 1.499 . S
C360 H340 0.950 . S
C360 C359 1.414 . S
C360 C361 1.374 . S
C361 H341 0.950 . S
C361 C357 1.385 . S
C361 C360 1.374 . S
C362 C359 1.499 . S
C362 C363 1.373 . S
C362 C364 1.389 . S
C363 H342 0.950 . S
C363 C362 1.373 . S
C363 C379 1.377 . S
C364 C362 1.389 . S
C364 C365 1.524 . S
C364 C378 1.377 1_455 S
C365 C364 1.524 . S
C365 C366 1.397 . S
C365 C370 1.363 . S
C366 H343 0.950 . S
C366 C365 1.397 . S
C366 C367 1.334 . S
C367 H344 0.950 . S
C367 C366 1.334 . S
C367 C368 1.287 . S
C368 C367 1.287 . S
C368 C369 1.524 . S
C368 H387 0.913 . S
C369 H345 0.921 1_455 S
C369 C368 1.524 . S
C369 C370 1.415 . S
C370 H346 0.950 1_455 S
C370 C365 1.363 . S
C370 C369 1.415 . S
C371 H347 0.951 1_554 S
C371 C372 1.366 . S
C371 C373 1.388 . S
C372 C371 1.366 . S
C372 C376 1.385 . S
C373 H348 0.951 . S
C373 C371 1.388 . S
C373 C374 1.366 . S
C374 C373 1.366 . S
C374 C375 1.414 . S
C374 C377 1.499 . S
C375 H349 0.950 . S
C375 C374 1.414 . S
C375 C376 1.374 . S
C376 H350 0.950 . S
C376 C372 1.385 . S
C376 C375 1.374 . S
C377 C374 1.499 . S
C377 C378 1.373 . S
C377 C379 1.389 1_655 S
C378 H351 0.950 . S
C378 C364 1.377 1_655 S
C378 C377 1.373 . S
C379 C363 1.377 . S
C379 C377 1.389 1_455 S
C379 C380 1.524 . S
C380 C379 1.524 . S
C380 C381 1.397 1_455 S
C380 C385 1.363 1_554 S
C381 H352 0.950 . S
C381 C380 1.397 1_655 S
C381 C382 1.334 1_554 S
C382 H353 0.950 . S
C382 C381 1.334 1_556 S
C382 C383 1.287 1_655 S
C383 C382 1.287 1_455 S
C383 C384 1.524 . S
C383 H386 0.999 . S
C384 H354 0.950 . S
C384 C383 1.524 . S
C384 C385 1.415 . S
C385 H355 0.950 . S
C385 C380 1.363 1_556 S
C385 C384 1.415 . S
H386 C383 0.999 . S
H387 C368 0.913 . S
H388 C406 0.951 . S
H389 C408 0.951 . S
H390 C410 0.950 . S
H391 C411 0.950 . S
H392 C413 0.950 . S
H393 C416 0.950 . S
H394 C417 0.950 . S
H395 C419 0.950 . S
H396 C420 0.950 . S
H397 C421 0.951 . S
H398 C423 0.951 . S
H399 C425 0.950 . S
H400 C426 0.950 . S
H401 C428 0.950 . S
H402 C431 0.950 1_565 S
H403 C432 0.949 1_565 S
H404 C434 0.950 . S
H405 C435 0.950 . S
C406 H388 0.951 . S
C406 C407 1.366 . S
C406 C408 1.388 . S
C407 C406 1.366 . S
C407 C411 1.385 . S
C408 H389 0.951 . S
C408 C406 1.388 . S
C408 C409 1.366 . S
C409 C408 1.366 . S
C409 C410 1.414 . S
C409 C412 1.499 . S
C410 H390 0.950 . S
C410 C409 1.414 . S
C410 C411 1.374 . S
C411 H391 0.950 . S
C411 C407 1.385 . S
C411 C410 1.374 . S
C412 C409 1.499 . S
C412 C413 1.373 . S
C412 C414 1.389 . S
C413 H392 0.950 . S
C413 C412 1.373 . S
C413 C429 1.377 . S
C414 C412 1.389 . S
C414 C415 1.524 . S
C414 C428 1.377 1_545 S
C415 C414 1.524 . S
C415 C416 1.397 . S
C415 C420 1.363 . S
C416 H393 0.950 . S
C416 C415 1.397 . S
C416 C417 1.334 . S
C417 H394 0.950 . S
C417 C416 1.334 . S
C417 C418 1.287 . S
C418 C417 1.287 . S
C418 C419 1.524 . S
C418 H437 0.913 . S
C419 H395 0.950 . S
C419 C418 1.524 . S
C419 C420 1.415 . S
C420 H396 0.950 . S
C420 C415 1.363 . S
C420 C419 1.415 . S
C421 H397 0.951 . S
C421 C422 1.366 . S
C421 C423 1.388 . S
C422 C421 1.366 . S
C422 C426 1.385 . S
C423 H398 0.951 . S
C423 C421 1.388 . S
C423 C424 1.366 . S
C424 C423 1.366 . S
C424 C425 1.414 . S
C424 C427 1.499 . S
C425 H399 0.950 . S
C425 C424 1.414 . S
C425 C426 1.374 . S
C426 H400 0.950 . S
C426 C422 1.385 . S
C426 C425 1.374 . S
C427 C424 1.499 . S
C427 C428 1.373 . S
C427 C429 1.389 1_565 S
C428 H401 0.950 . S
C428 C414 1.377 1_565 S
C428 C427 1.373 . S
C429 C413 1.377 . S
C429 C427 1.389 1_545 S
C429 C430 1.524 . S
C430 C429 1.524 . S
C430 C431 1.397 . S
C430 C435 1.363 . S
C431 H402 0.950 1_545 S
C431 C430 1.397 . S
C431 C432 1.340 . S
C432 H403 0.949 1_545 S
C432 C431 1.340 . S
C432 C433 1.283 . S
C433 C432 1.283 . S
C433 C434 1.524 . S
C433 H436 0.999 . S
C434 H404 0.950 . S
C434 C433 1.524 . S
C434 C435 1.415 . S
C435 H405 0.950 . S
C435 C430 1.363 . S
C435 C434 1.415 . S
H436 C433 0.999 . S
H437 C418 0.913 . S
H438 C456 0.951 . S
H439 C458 0.951 . S
H440 C460 0.950 . S
H441 C461 0.950 . S
H442 C463 0.950 . S
H443 C466 0.950 . S
H444 C467 0.950 . S
H445 C469 0.950 . S
H446 C470 0.950 . S
H447 C471 0.951 . S
H448 C473 0.951 . S
H449 C475 0.950 . S
H450 C476 0.950 . S
H451 C478 0.950 . S
H452 C481 0.950 . S
H453 C482 0.950 . S
H454 C484 0.950 . S
H455 C485 0.950 . S
C456 H438 0.951 . S
C456 C457 1.366 . S
C456 C458 1.388 . S
C457 C456 1.366 . S
C457 C461 1.385 . S
C458 H439 0.951 . S
C458 C456 1.388 . S
C458 C459 1.366 . S
C459 C458 1.366 . S
C459 C460 1.414 . S
C459 C462 1.499 . S
C460 H440 0.950 . S
C460 C459 1.414 . S
C460 C461 1.374 . S
C461 H441 0.950 . S
C461 C457 1.385 . S
C461 C460 1.374 . S
C462 C459 1.499 . S
C462 C463 1.373 . S
C462 C464 1.389 . S
C463 H442 0.950 . S
C463 C462 1.373 . S
C463 C479 1.377 . S
C464 C462 1.389 . S
C464 C465 1.524 . S
C464 C478 1.377 . S
C465 C464 1.524 . S
C465 C466 1.397 . S
C465 C470 1.363 . S
C466 H443 0.950 . S
C466 C465 1.397 . S
C466 C467 1.334 . S
C467 H444 0.950 . S
C467 C466 1.334 . S
C467 C468 1.287 . S
C468 C467 1.287 . S
C468 C469 1.524 . S
C468 H487 0.913 . S
C469 H445 0.950 . S
C469 C468 1.524 . S
C469 C470 1.415 . S
C470 H446 0.950 . S
C470 C465 1.363 . S
C470 C469 1.415 . S
C471 H447 0.951 . S
C471 C472 1.366 . S
C471 C473 1.388 . S
C472 C471 1.366 . S
C472 C476 1.385 . S
C473 H448 0.951 . S
C473 C471 1.388 . S
C473 C474 1.366 . S
C474 C473 1.366 . S
C474 C475 1.414 . S
C474 C477 1.499 . S
C475 H449 0.950 . S
C475 C474 1.414 . S
C475 C476 1.374 . S
C476 H450 0.950 . S
C476 C472 1.385 . S
C476 C475 1.374 . S
C477 C474 1.499 . S
C477 C478 1.373 . S
C477 C479 1.389 . S
C478 H451 0.950 . S
C478 C464 1.377 . S
C478 C477 1.373 . S
C479 C463 1.377 . S
C479 C477 1.389 . S
C479 C480 1.524 . S
C480 C479 1.524 . S
C480 C481 1.397 . S
C480 C485 1.363 . S
C481 H452 0.950 . S
C481 C480 1.397 . S
C481 C482 1.334 . S
C482 H453 0.950 . S
C482 C481 1.334 . S
C482 C483 1.287 . S
C483 C482 1.287 . S
C483 C484 1.524 . S
C483 H486 0.999 . S
C484 H454 0.950 . S
C484 C483 1.524 . S
C484 C485 1.415 . S
C485 H455 0.950 . S
C485 C480 1.363 . S
C485 C484 1.415 . S
H486 C483 0.999 . S
H487 C468 0.913 . S
H488 C506 0.951 . S
H489 C508 0.951 1_556 S
H490 C510 0.950 . S
H491 C511 0.950 . S
H492 C513 0.950 . S
H493 C516 0.950 . S
H494 C517 0.950 1_554 S
H495 C519 0.950 . S
H496 C520 0.950 . S
H497 C521 0.951 . S
H498 C523 0.951 . S
H499 C525 0.950 . S
H500 C526 0.950 . S
H501 C528 0.950 . S
H502 C531 0.950 . S
H503 C532 0.950 . S
H504 C534 0.950 . S
H505 C535 0.950 . S
C506 H488 0.951 . S
C506 C507 1.366 . S
C506 C508 1.388 . S
C507 C506 1.366 . S
C507 C511 1.385 . S
C508 H489 0.951 1_554 S
C508 C506 1.388 . S
C508 C509 1.366 1_554 S
C509 C508 1.366 1_556 S
C509 C510 1.414 1_556 S
C509 C512 1.499 . S
C510 H490 0.950 . S
C510 C509 1.414 1_554 S
C510 C511 1.374 . S
C511 H491 0.950 . S
C511 C507 1.385 . S
C511 C510 1.374 . S
C512 C509 1.499 . S
C512 C513 1.373 . S
C512 C514 1.389 . S
C513 H492 0.950 . S
C513 C512 1.373 . S
C513 C529 1.377 . S
C514 C512 1.389 . S
C514 C515 1.524 . S
C514 C528 1.377 . S
C515 C514 1.524 . S
C515 C516 1.397 . S
C515 C520 1.363 . S
C516 H493 0.950 . S
C516 C515 1.397 . S
C516 C517 1.334 . S
C517 H494 0.950 1_556 S
C517 C516 1.334 . S
C517 C518 1.287 . S
C518 C517 1.287 . S
C518 C519 1.524 . S
C518 H537 0.913 . S
C519 H495 0.950 . S
C519 C518 1.524 . S
C519 C520 1.415 . S
C520 H496 0.950 . S
C520 C515 1.363 . S
C520 C519 1.415 . S
C521 H497 0.951 . S
C521 C522 1.366 . S
C521 C523 1.388 . S
C522 C521 1.366 . S
C522 C526 1.385 . S
C523 H498 0.951 . S
C523 C521 1.388 . S
C523 C524 1.366 . S
C524 C523 1.366 . S
C524 C525 1.414 . S
C524 C527 1.499 . S
C525 H499 0.950 . S
C525 C524 1.414 . S
C525 C526 1.374 . S
C526 H500 0.950 . S
C526 C522 1.385 . S
C526 C525 1.374 . S
C527 C524 1.499 . S
C527 C528 1.373 . S
C527 C529 1.389 . S
C528 H501 0.950 . S
C528 C514 1.377 . S
C528 C527 1.373 . S
C529 C513 1.377 . S
C529 C527 1.389 . S
C529 C530 1.524 . S
C530 C529 1.524 . S
C530 C531 1.397 . S
C530 C535 1.363 . S
C531 H502 0.950 . S
C531 C530 1.397 . S
C531 C532 1.334 . S
C532 H503 0.950 . S
C532 C531 1.334 . S
C532 C533 1.287 . S
C533 C532 1.287 . S
C533 C534 1.524 . S
C533 H536 0.999 . S
C534 H504 0.950 . S
C534 C533 1.524 . S
C534 C535 1.415 . S
C535 H505 0.950 . S
C535 C530 1.363 . S
C535 C534 1.415 . S
H536 C533 0.999 . S
H537 C518 0.913 . S
H538 C556 0.951 . S
H539 C558 0.951 . S
H540 C560 0.950 . S
H541 C561 0.950 . S
H542 C563 0.950 . S
H543 C566 0.950 . S
H544 C567 0.950 . S
H545 C569 0.950 . S
H546 C570 0.950 . S
H547 C571 0.951 . S
H548 C573 0.951 1_554 S
H549 C575 0.950 1_554 S
H550 C576 0.950 . S
H551 C578 0.950 . S
H552 C581 0.950 . S
H553 C582 0.950 . S
H554 C584 0.950 . S
H555 C585 0.950 . S
C556 H538 0.951 . S
C556 C557 1.366 . S
C556 C558 1.388 . S
C557 C556 1.366 . S
C557 C561 1.385 . S
C558 H539 0.951 . S
C558 C556 1.388 . S
C558 C559 1.366 . S
C559 C558 1.366 . S
C559 C560 1.414 . S
C559 C562 1.499 . S
C560 H540 0.950 . S
C560 C559 1.414 . S
C560 C561 1.374 . S
C561 H541 0.950 . S
C561 C557 1.385 . S
C561 C560 1.374 . S
C562 C559 1.499 . S
C562 C563 1.373 . S
C562 C564 1.389 . S
C563 H542 0.950 . S
C563 C562 1.373 . S
C563 C579 1.377 . S
C564 C562 1.389 . S
C564 C565 1.524 . S
C564 C578 1.377 . S
C565 C564 1.524 . S
C565 C566 1.397 . S
C565 C570 1.363 . S
C566 H543 0.950 . S
C566 C565 1.397 . S
C566 C567 1.334 . S
C567 H544 0.950 . S
C567 C566 1.334 . S
C567 C568 1.287 . S
C568 C567 1.287 . S
C568 C569 1.524 . S
C568 H587 0.913 . S
C569 H545 0.950 . S
C569 C568 1.524 . S
C569 C570 1.415 . S
C570 H546 0.950 . S
C570 C565 1.363 . S
C570 C569 1.415 . S
C571 H547 0.951 . S
C571 C572 1.366 . S
C571 C573 1.388 . S
C572 C571 1.366 . S
C572 C576 1.385 . S
C573 H548 0.951 1_556 S
C573 C571 1.388 . S
C573 C574 1.366 1_556 S
C574 C573 1.366 1_554 S
C574 C575 1.414 1_554 S
C574 C577 1.499 . S
C575 H549 0.950 1_556 S
C575 C574 1.414 1_556 S
C575 C576 1.374 . S
C576 H550 0.950 . S
C576 C572 1.385 . S
C576 C575 1.374 . S
C577 C574 1.499 . S
C577 C578 1.373 . S
C577 C579 1.389 . S
C578 H551 0.950 . S
C578 C564 1.377 . S
C578 C577 1.373 . S
C579 C563 1.377 . S
C579 C577 1.389 . S
C579 C580 1.524 . S
C580 C579 1.524 . S
C580 C581 1.397 . S
C580 C585 1.363 . S
C581 H552 0.950 . S
C581 C580 1.397 . S
C581 C582 1.334 . S
C582 H553 0.950 . S
C582 C581 1.334 . S
C582 C583 1.287 . S
C583 C582 1.287 . S
C583 C584 1.524 . S
C583 H586 0.999 . S
C584 H554 0.950 . S
C584 C583 1.524 . S
C584 C585 1.415 . S
C585 H555 0.950 . S
C585 C580 1.363 . S
C585 C584 1.415 . S
H586 C583 0.999 . S
H587 C568 0.913 . S
H588 C606 0.951 . S
H589 C608 0.951 . S
H590 C610 0.950 . S
H591 C611 0.950 . S
H592 C613 0.950 . S
H593 C616 0.950 . S
H594 C617 0.950 . S
H595 C619 0.950 . S
H596 C620 0.950 . S
H597 C621 0.951 . S
H598 C623 0.951 . S
H599 C625 0.950 . S
H600 C626 0.950 . S
H601 C628 0.950 . S
H602 C631 0.950 . S
H603 C632 0.950 . S
H604 C634 0.950 . S
H605 C635 0.950 . S
C606 H588 0.951 . S
C606 C607 1.366 . S
C606 C608 1.388 . S
C607 C606 1.366 . S
C607 C611 1.385 . S
C608 H589 0.951 . S
C608 C606 1.388 . S
C608 C609 1.366 . S
C609 C608 1.366 . S
C609 C610 1.414 . S
C609 C612 1.499 . S
C610 H590 0.950 . S
C610 C609 1.414 . S
C610 C611 1.374 . S
C611 H591 0.950 . S
C611 C607 1.385 . S
C611 C610 1.374 . S
C612 C609 1.499 . S
C612 C613 1.373 . S
C612 C614 1.389 . S
C613 H592 0.950 . S
C613 C612 1.373 . S
C613 C629 1.377 . S
C614 C612 1.389 . S
C614 C615 1.524 . S
C614 C628 1.377 . S
C615 C614 1.524 . S
C615 C616 1.397 . S
C615 C620 1.363 . S
C616 H593 0.950 . S
C616 C615 1.397 . S
C616 C617 1.334 . S
C617 H594 0.950 . S
C617 C616 1.334 . S
C617 C618 1.287 . S
C618 C617 1.287 . S
C618 C619 1.524 . S
C618 H637 0.913 . S
C619 H595 0.950 . S
C619 C618 1.524 . S
C619 C620 1.415 . S
C620 H596 0.950 . S
C620 C615 1.363 . S
C620 C619 1.415 . S
C621 H597 0.951 . S
C621 C622 1.366 . S
C621 C623 1.388 . S
C622 C621 1.366 . S
C622 C626 1.385 . S
C623 H598 0.951 . S
C623 C621 1.388 . S
C623 C624 1.366 . S
C624 C623 1.366 . S
C624 C625 1.414 . S
C624 C627 1.499 . S
C625 H599 0.950 . S
C625 C624 1.414 . S
C625 C626 1.374 . S
C626 H600 0.950 . S
C626 C622 1.385 . S
C626 C625 1.374 . S
C627 C624 1.499 . S
C627 C628 1.373 . S
C627 C629 1.389 . S
C628 H601 0.950 . S
C628 C614 1.377 . S
C628 C627 1.373 . S
C629 C613 1.377 . S
C629 C627 1.389 . S
C629 C630 1.524 . S
C630 C629 1.524 . S
C630 C631 1.397 . S
C630 C635 1.363 . S
C631 H602 0.950 . S
C631 C630 1.397 . S
C631 C632 1.334 . S
C632 H603 0.950 . S
C632 C631 1.334 . S
C632 C633 1.287 . S
C633 C632 1.287 . S
C633 C634 1.524 . S
C633 H636 0.999 . S
C634 H604 0.950 . S
C634 C633 1.524 . S
C634 C635 1.415 . S
C635 H605 0.950 . S
C635 C630 1.363 . S
C635 C634 1.415 . S
H636 C633 0.999 . S
H637 C618 0.913 . S
H638 C656 0.951 . S
H639 C658 0.951 . S
H640 C660 0.950 . S
H641 C661 0.950 . S
H642 C663 0.950 . S
H643 C666 0.950 . S
H644 C667 0.950 . S
H645 C669 0.950 . S
H646 C670 0.950 . S
H647 C671 0.951 . S
H648 C673 0.951 1_556 S
H649 C675 0.950 . S
H650 C676 0.950 . S
H651 C678 0.950 . S
H652 C681 0.950 . S
H653 C682 0.950 1_554 S
H654 C684 0.950 . S
H655 C685 0.950 . S
C656 H638 0.951 . S
C656 C657 1.366 . S
C656 C658 1.388 . S
C657 C656 1.366 . S
C657 C661 1.385 . S
C658 H639 0.951 . S
C658 C656 1.388 . S
C658 C659 1.366 . S
C659 C658 1.366 . S
C659 C660 1.414 . S
C659 C662 1.499 . S
C660 H640 0.950 . S
C660 C659 1.414 . S
C660 C661 1.374 . S
C661 H641 0.950 . S
C661 C657 1.385 . S
C661 C660 1.374 . S
C662 C659 1.499 . S
C662 C663 1.373 . S
C662 C664 1.389 . S
C663 H642 0.950 . S
C663 C662 1.373 . S
C663 C679 1.377 . S
C664 C662 1.389 . S
C664 C665 1.524 . S
C664 C678 1.377 . S
C665 C664 1.524 . S
C665 C666 1.397 . S
C665 C670 1.363 . S
C666 H643 0.950 . S
C666 C665 1.397 . S
C666 C667 1.334 . S
C667 H644 0.950 . S
C667 C666 1.334 . S
C667 C668 1.287 . S
C668 C667 1.287 . S
C668 C669 1.524 . S
C668 H687 0.913 . S
C669 H645 0.950 . S
C669 C668 1.524 . S
C669 C670 1.415 . S
C670 H646 0.950 . S
C670 C665 1.363 . S
C670 C669 1.415 . S
C671 H647 0.951 . S
C671 C672 1.366 . S
C671 C673 1.388 . S
C672 C671 1.366 . S
C672 C676 1.385 . S
C673 H648 0.951 1_554 S
C673 C671 1.388 . S
C673 C674 1.366 1_554 S
C674 C673 1.366 1_556 S
C674 C675 1.414 1_556 S
C674 C677 1.499 . S
C675 H649 0.950 . S
C675 C674 1.414 1_554 S
C675 C676 1.374 . S
C676 H650 0.950 . S
C676 C672 1.385 . S
C676 C675 1.374 . S
C677 C674 1.499 . S
C677 C678 1.373 . S
C677 C679 1.389 . S
C678 H651 0.950 . S
C678 C664 1.377 . S
C678 C677 1.373 . S
C679 C663 1.377 . S
C679 C677 1.389 . S
C679 C680 1.524 . S
C680 C679 1.524 . S
C680 C681 1.397 . S
C680 C685 1.363 . S
C681 H652 0.950 . S
C681 C680 1.397 . S
C681 C682 1.334 . S
C682 H653 0.950 1_556 S
C682 C681 1.334 . S
C682 C683 1.287 . S
C683 C682 1.287 . S
C683 C684 1.524 . S
C683 H686 0.999 . S
C684 H654 0.950 . S
C684 C683 1.524 . S
C684 C685 1.415 . S
C685 H655 0.950 . S
C685 C680 1.363 . S
C685 C684 1.415 . S
H686 C683 0.999 . S
H687 C668 0.913 . S
H688 C706 0.951 . S
H689 C708 0.951 . S
H690 C710 0.950 . S
H691 C711 0.950 . S
H692 C713 0.950 . S
H693 C716 0.950 . S
H694 C717 0.950 . S
H695 C719 0.950 . S
H696 C720 0.950 . S
H697 C721 0.951 . S
H698 C723 0.951 1_554 S
H699 C725 0.950 . S
H700 C726 0.950 . S
H701 C728 0.950 . S
H702 C731 0.950 . S
H703 C732 0.950 1_556 S
H704 C734 0.950 . S
H705 C735 0.950 . S
C706 H688 0.951 . S
C706 C707 1.366 . S
C706 C708 1.388 . S
C707 C706 1.366 . S
C707 C711 1.385 . S
C708 H689 0.951 . S
C708 C706 1.388 . S
C708 C709 1.366 . S
C709 C708 1.366 . S
C709 C710 1.414 . S
C709 C712 1.499 . S
C710 H690 0.950 . S
C710 C709 1.414 . S
C710 C711 1.374 . S
C711 H691 0.950 . S
C711 C707 1.385 . S
C711 C710 1.374 . S
C712 C709 1.499 . S
C712 C713 1.373 . S
C712 C714 1.389 . S
C713 H692 0.950 . S
C713 C712 1.373 . S
C713 C729 1.377 . S
C714 C712 1.389 . S
C714 C715 1.524 . S
C714 C728 1.377 . S
C715 C714 1.524 . S
C715 C716 1.397 . S
C715 C720 1.363 . S
C716 H693 0.950 . S
C716 C715 1.397 . S
C716 C717 1.334 . S
C717 H694 0.950 . S
C717 C716 1.334 . S
C717 C718 1.287 . S
C718 C717 1.287 . S
C718 C719 1.524 . S
C718 H737 0.913 . S
C719 H695 0.950 . S
C719 C718 1.524 . S
C719 C720 1.415 . S
C720 H696 0.950 . S
C720 C715 1.363 . S
C720 C719 1.415 . S
C721 H697 0.951 . S
C721 C722 1.366 . S
C721 C723 1.388 . S
C722 C721 1.366 . S
C722 C726 1.385 . S
C723 H698 0.951 1_556 S
C723 C721 1.388 . S
C723 C724 1.366 1_556 S
C724 C723 1.366 1_554 S
C724 C725 1.414 1_554 S
C724 C727 1.499 . S
C725 H699 0.950 . S
C725 C724 1.414 1_556 S
C725 C726 1.374 . S
C726 H700 0.950 . S
C726 C722 1.385 . S
C726 C725 1.374 . S
C727 C724 1.499 . S
C727 C728 1.373 . S
C727 C729 1.389 . S
C728 H701 0.950 . S
C728 C714 1.377 . S
C728 C727 1.373 . S
C729 C713 1.377 . S
C729 C727 1.389 . S
C729 C730 1.524 . S
C730 C729 1.524 . S
C730 C731 1.397 . S
C730 C735 1.363 . S
C731 H702 0.950 . S
C731 C730 1.397 . S
C731 C732 1.334 . S
C732 H703 0.950 1_554 S
C732 C731 1.334 . S
C732 C733 1.287 . S
C733 C732 1.287 . S
C733 C734 1.524 . S
C733 H736 0.999 . S
C734 H704 0.950 . S
C734 C733 1.524 . S
C734 C735 1.415 . S
C735 H705 0.950 . S
C735 C730 1.363 . S
C735 C734 1.415 . S
H736 C733 0.999 . S
H737 C718 0.913 . S
H738 C756 0.951 . S
H739 C758 0.951 . S
H740 C760 0.950 . S
H741 C761 0.950 . S
H742 C763 0.950 . S
H743 C766 0.950 . S
H744 C767 0.950 . S
H745 C769 0.950 . S
H746 C770 0.950 . S
H747 C771 0.951 . S
H748 C773 0.951 . S
H749 C775 0.950 . S
H750 C776 0.950 . S
H751 C778 0.950 . S
H752 C781 0.950 . S
H753 C782 0.950 . S
H754 C784 0.950 . S
H755 C785 0.950 . S
C756 H738 0.951 . S
C756 C757 1.366 . S
C756 C758 1.388 . S
C757 C756 1.366 . S
C757 C761 1.385 . S
C758 H739 0.951 . S
C758 C756 1.388 . S
C758 C759 1.366 . S
C759 C758 1.366 . S
C759 C760 1.414 . S
C759 C762 1.499 . S
C760 H740 0.950 . S
C760 C759 1.414 . S
C760 C761 1.374 . S
C761 H741 0.950 . S
C761 C757 1.385 . S
C761 C760 1.374 . S
C762 C759 1.499 . S
C762 C763 1.373 . S
C762 C764 1.389 . S
C763 H742 0.950 . S
C763 C762 1.373 . S
C763 C779 1.377 . S
C764 C762 1.389 . S
C764 C765 1.524 . S
C764 C778 1.377 . S
C765 C764 1.524 . S
C765 C766 1.397 . S
C765 C770 1.363 . S
C766 H743 0.950 . S
C766 C765 1.397 . S
C766 C767 1.334 . S
C767 H744 0.950 . S
C767 C766 1.334 . S
C767 C768 1.287 . S
C768 C767 1.287 . S
C768 C769 1.524 . S
C768 H787 0.913 . S
C769 H745 0.950 . S
C769 C768 1.524 . S
C769 C770 1.415 . S
C770 H746 0.950 . S
C770 C765 1.363 . S
C770 C769 1.415 . S
C771 H747 0.951 . S
C771 C772 1.366 . S
C771 C773 1.388 . S
C772 C771 1.366 . S
C772 C776 1.385 . S
C773 H748 0.951 . S
C773 C771 1.388 . S
C773 C774 1.366 . S
C774 C773 1.366 . S
C774 C775 1.414 . S
C774 C777 1.499 . S
C775 H749 0.950 . S
C775 C774 1.414 . S
C775 C776 1.374 . S
C776 H750 0.950 . S
C776 C772 1.385 . S
C776 C775 1.374 . S
C777 C774 1.499 . S
C777 C778 1.373 . S
C777 C779 1.389 . S
C778 H751 0.950 . S
C778 C764 1.377 . S
C778 C777 1.373 . S
C779 C763 1.377 . S
C779 C777 1.389 . S
C779 C780 1.524 . S
C780 C779 1.524 . S
C780 C781 1.397 . S
C780 C785 1.363 . S
C781 H752 0.950 . S
C781 C780 1.397 . S
C781 C782 1.334 . S
C782 H753 0.950 . S
C782 C781 1.334 . S
C782 C783 1.287 1_554 S
C783 C782 1.287 1_556 S
C783 C784 1.524 . S
C783 H786 0.999 . S
C784 H754 0.950 . S
C784 C783 1.524 . S
C784 C785 1.415 1_556 S
C785 H755 0.950 . S
C785 C780 1.363 . S
C785 C784 1.415 1_554 S
H786 C783 0.999 . S
H787 C768 0.913 . S
H788 C806 0.951 . S
H789 C808 0.951 . S
H790 C810 0.950 . S
H791 C811 0.950 . S
H792 C813 0.950 . S
H793 C816 0.950 . S
H794 C817 0.950 . S
H795 C819 0.950 . S
H796 C820 0.950 . S
H797 C821 0.951 . S
H798 C823 0.951 . S
H799 C825 0.950 . S
H800 C826 0.950 . S
H801 C828 0.950 . S
H802 C831 0.950 . S
H803 C832 0.950 . S
H804 C834 0.950 . S
H805 C835 0.950 . S
C806 H788 0.951 . S
C806 C807 1.366 . S
C806 C808 1.388 . S
C807 C806 1.366 . S
C807 C811 1.385 . S
C808 H789 0.951 . S
C808 C806 1.388 . S
C808 C809 1.366 . S
C809 C808 1.366 . S
C809 C810 1.414 . S
C809 C812 1.499 . S
C810 H790 0.950 . S
C810 C809 1.414 . S
C810 C811 1.374 . S
C811 H791 0.950 . S
C811 C807 1.385 . S
C811 C810 1.374 . S
C812 C809 1.499 . S
C812 C813 1.373 . S
C812 C814 1.389 . S
C813 H792 0.950 . S
C813 C812 1.373 . S
C813 C829 1.377 . S
C814 C812 1.389 . S
C814 C815 1.524 . S
C814 C828 1.377 . S
C815 C814 1.524 . S
C815 C816 1.397 . S
C815 C820 1.363 . S
C816 H793 0.950 . S
C816 C815 1.397 . S
C816 C817 1.334 . S
C817 H794 0.950 . S
C817 C816 1.334 . S
C817 C818 1.287 . S
C818 C817 1.287 . S
C818 C819 1.524 . S
C818 H837 0.913 . S
C819 H795 0.950 . S
C819 C818 1.524 . S
C819 C820 1.415 . S
C820 H796 0.950 . S
C820 C815 1.363 . S
C820 C819 1.415 . S
C821 H797 0.951 . S
C821 C822 1.366 . S
C821 C823 1.388 . S
C822 C821 1.366 . S
C822 C826 1.385 . S
C823 H798 0.951 . S
C823 C821 1.388 . S
C823 C824 1.366 . S
C824 C823 1.366 . S
C824 C825 1.414 . S
C824 C827 1.499 . S
C825 H799 0.950 . S
C825 C824 1.414 . S
C825 C826 1.374 . S
C826 H800 0.950 . S
C826 C822 1.385 . S
C826 C825 1.374 . S
C827 C824 1.499 . S
C827 C828 1.373 . S
C827 C829 1.389 . S
C828 H801 0.950 . S
C828 C814 1.377 . S
C828 C827 1.373 . S
C829 C813 1.377 . S
C829 C827 1.389 . S
C829 C830 1.524 . S
C830 C829 1.524 . S
C830 C831 1.397 . S
C830 C835 1.363 . S
C831 H802 0.950 . S
C831 C830 1.397 . S
C831 C832 1.334 . S
C832 H803 0.950 . S
C832 C831 1.334 . S
C832 C833 1.287 . S
C833 C832 1.287 . S
C833 C834 1.524 . S
C833 H836 0.999 . S
C834 H804 0.950 . S
C834 C833 1.524 . S
C834 C835 1.415 . S
C835 H805 0.950 . S
C835 C830 1.363 . S
C835 C834 1.415 . S
H836 C833 0.999 . S
H837 C818 0.913 . S
H838 C856 0.951 . S
H839 C858 0.951 . S
H840 C860 0.950 . S
H841 C861 0.950 . S
H842 C863 0.950 . S
H843 C866 0.950 . S
H844 C867 0.950 . S
H845 C869 0.950 . S
H846 C870 0.950 . S
H847 C871 0.951 . S
H848 C873 0.951 . S
H849 C875 0.950 . S
H850 C876 0.950 . S
H851 C878 0.950 . S
H852 C881 0.950 . S
H853 C882 0.951 . S
H854 C884 0.950 . S
H855 C885 0.950 . S
C856 H838 0.951 . S
C856 C857 1.366 . S
C856 C858 1.388 . S
C857 C856 1.366 . S
C857 C861 1.385 . S
C858 H839 0.951 . S
C858 C856 1.388 . S
C858 C859 1.366 . S
C859 C858 1.366 . S
C859 C860 1.414 . S
C859 C862 1.499 . S
C860 H840 0.950 . S
C860 C859 1.414 . S
C860 C861 1.374 . S
C861 H841 0.950 . S
C861 C857 1.385 . S
C861 C860 1.374 . S
C862 C859 1.499 . S
C862 C863 1.373 . S
C862 C864 1.389 . S
C863 H842 0.950 . S
C863 C862 1.373 . S
C863 C879 1.377 . S
C864 C862 1.389 . S
C864 C865 1.524 . S
C864 C878 1.377 . S
C865 C864 1.524 . S
C865 C866 1.397 . S
C865 C870 1.363 . S
C866 H843 0.950 . S
C866 C865 1.397 . S
C866 C867 1.334 . S
C867 H844 0.950 . S
C867 C866 1.334 . S
C867 C868 1.287 . S
C868 C867 1.287 . S
C868 C869 1.524 . S
C868 H887 0.913 . S
C869 H845 0.950 . S
C869 C868 1.524 . S
C869 C870 1.415 . S
C870 H846 0.950 . S
C870 C865 1.363 . S
C870 C869 1.415 . S
C871 H847 0.951 . S
C871 C872 1.366 . S
C871 C873 1.388 . S
C872 C871 1.366 . S
C872 C876 1.385 . S
C873 H848 0.951 . S
C873 C871 1.388 . S
C873 C874 1.366 . S
C874 C873 1.366 . S
C874 C875 1.414 . S
C874 C877 1.499 . S
C875 H849 0.950 . S
C875 C874 1.414 . S
C875 C876 1.374 . S
C876 H850 0.950 . S
C876 C872 1.385 . S
C876 C875 1.374 . S
C877 C874 1.499 . S
C877 C878 1.373 . S
C877 C879 1.389 . S
C878 H851 0.950 . S
C878 C864 1.377 . S
C878 C877 1.373 . S
C879 C863 1.377 . S
C879 C877 1.389 . S
C879 C880 1.524 . S
C880 C879 1.524 . S
C880 C881 1.397 . S
C880 C885 1.363 . S
C881 H852 0.950 . S
C881 C880 1.397 . S
C881 C882 1.334 . S
C882 H853 0.951 . S
C882 C881 1.334 . S
C882 C883 1.287 1_556 S
C883 C882 1.287 1_554 S
C883 C884 1.524 . S
C883 H886 0.999 . S
C884 H854 0.950 . S
C884 C883 1.524 . S
C884 C885 1.415 1_554 S
C885 H855 0.950 . S
C885 C880 1.363 . S
C885 C884 1.415 1_556 S
H886 C883 0.999 . S
H887 C868 0.913 . S
H888 C906 0.951 . S
H889 C908 0.951 . S
H890 C910 0.950 . S
H891 C911 0.950 . S
H892 C913 0.950 . S
H893 C916 0.950 . S
H894 C917 0.950 . S
H895 C919 0.950 . S
H896 C920 0.950 . S
H897 C921 0.951 1_556 S
H898 C923 0.951 . S
H899 C925 0.950 . S
H900 C926 0.950 . S
H901 C928 0.950 . S
H902 C931 0.950 . S
H903 C932 0.950 . S
H904 C934 0.950 . S
H905 C935 0.950 . S
C906 H888 0.951 . S
C906 C907 1.366 . S
C906 C908 1.388 . S
C907 C906 1.366 . S
C907 C911 1.385 . S
C908 H889 0.951 . S
C908 C906 1.388 . S
C908 C909 1.366 . S
C909 C908 1.366 . S
C909 C910 1.414 . S
C909 C912 1.499 . S
C910 H890 0.950 . S
C910 C909 1.414 . S
C910 C911 1.374 . S
C911 H891 0.950 . S
C911 C907 1.385 . S
C911 C910 1.374 . S
C912 C909 1.499 . S
C912 C913 1.373 . S
C912 C914 1.389 . S
C913 H892 0.950 . S
C913 C912 1.373 . S
C913 C929 1.377 . S
C914 C912 1.389 . S
C914 C915 1.524 . S
C914 C928 1.377 . S
C915 C914 1.524 . S
C915 C916 1.397 . S
C915 C920 1.363 . S
C916 H893 0.950 . S
C916 C915 1.397 . S
C916 C917 1.334 . S
C917 H894 0.950 . S
C917 C916 1.334 . S
C917 C918 1.287 . S
C918 C917 1.287 . S
C918 C919 1.524 . S
C918 H937 0.913 . S
C919 H895 0.950 . S
C919 C918 1.524 . S
C919 C920 1.415 . S
C920 H896 0.950 . S
C920 C915 1.363 . S
C920 C919 1.415 . S
C921 H897 0.951 1_554 S
C921 C922 1.366 . S
C921 C923 1.388 . S
C922 C921 1.366 . S
C922 C926 1.385 . S
C923 H898 0.951 . S
C923 C921 1.388 . S
C923 C924 1.366 . S
C924 C923 1.366 . S
C924 C925 1.414 . S
C924 C927 1.499 . S
C925 H899 0.950 . S
C925 C924 1.414 . S
C925 C926 1.374 . S
C926 H900 0.950 . S
C926 C922 1.385 . S
C926 C925 1.374 . S
C927 C924 1.499 . S
C927 C928 1.373 . S
C927 C929 1.389 . S
C928 H901 0.950 . S
C928 C914 1.377 . S
C928 C927 1.373 . S
C929 C913 1.377 . S
C929 C927 1.389 . S
C929 C930 1.524 . S
C930 C929 1.524 . S
C930 C931 1.397 . S
C930 C935 1.363 1_554 S
C931 H902 0.950 . S
C931 C930 1.397 . S
C931 C932 1.334 1_554 S
C932 H903 0.950 . S
C932 C931 1.334 1_556 S
C932 C933 1.287 . S
C933 C932 1.287 . S
C933 C934 1.524 . S
C933 H936 0.999 . S
C934 H904 0.950 . S
C934 C933 1.524 . S
C934 C935 1.415 . S
C935 H905 0.950 . S
C935 C930 1.363 1_556 S
C935 C934 1.415 . S
H936 C933 0.999 . S
H937 C918 0.913 . S
H938 C956 0.951 . S
H939 C958 0.951 . S
H940 C960 0.950 . S
H941 C961 0.950 . S
H942 C963 0.950 . S
H943 C966 0.950 . S
H944 C967 0.950 . S
H945 C969 0.950 . S
H946 C970 0.950 . S
H947 C971 0.951 . S
H948 C973 0.951 . S
H949 C975 0.950 . S
H950 C976 0.950 . S
H951 C978 0.950 . S
H952 C981 0.950 . S
H953 C982 0.950 . S
H954 C984 0.950 . S
H955 C985 0.950 . S
C956 H938 0.951 . S
C956 C957 1.366 . S
C956 C958 1.388 . S
C957 C956 1.366 . S
C957 C961 1.385 . S
C958 H939 0.951 . S
C958 C956 1.388 . S
C958 C959 1.366 . S
C959 C958 1.366 . S
C959 C960 1.414 . S
C959 C962 1.499 . S
C960 H940 0.950 . S
C960 C959 1.414 . S
C960 C961 1.374 . S
C961 H941 0.950 . S
C961 C957 1.385 . S
C961 C960 1.374 . S
C962 C959 1.499 . S
C962 C963 1.373 . S
C962 C964 1.389 . S
C963 H942 0.950 . S
C963 C962 1.373 . S
C963 C979 1.377 . S
C964 C962 1.389 . S
C964 C965 1.524 . S
C964 C978 1.377 . S
C965 C964 1.524 . S
C965 C966 1.397 . S
C965 C970 1.363 . S
C966 H943 0.950 . S
C966 C965 1.397 . S
C966 C967 1.334 . S
C967 H944 0.950 . S
C967 C966 1.334 . S
C967 C968 1.287 . S
C968 C967 1.287 . S
C968 C969 1.524 . S
C968 H987 0.913 . S
C969 H945 0.950 . S
C969 C968 1.524 . S
C969 C970 1.415 . S
C970 H946 0.950 . S
C970 C965 1.363 . S
C970 C969 1.415 . S
C971 H947 0.951 . S
C971 C972 1.366 . S
C971 C973 1.388 . S
C972 C971 1.366 . S
C972 C976 1.385 . S
C973 H948 0.951 . S
C973 C971 1.388 . S
C973 C974 1.366 . S
C974 C973 1.366 . S
C974 C975 1.414 . S
C974 C977 1.499 . S
C975 H949 0.950 . S
C975 C974 1.414 . S
C975 C976 1.374 . S
C976 H950 0.950 . S
C976 C972 1.385 . S
C976 C975 1.374 . S
C977 C974 1.499 . S
C977 C978 1.373 . S
C977 C979 1.389 . S
C978 H951 0.950 . S
C978 C964 1.377 . S
C978 C977 1.373 . S
C979 C963 1.377 . S
C979 C977 1.389 . S
C979 C980 1.524 . S
C980 C979 1.524 . S
C980 C981 1.397 . S
C980 C985 1.363 . S
C981 H952 0.950 . S
C981 C980 1.397 . S
C981 C982 1.334 . S
C982 H953 0.950 . S
C982 C981 1.334 . S
C982 C983 1.287 . S
C983 C982 1.287 . S
C983 C984 1.524 . S
C983 H986 0.999 . S
C984 H954 0.950 . S
C984 C983 1.524 . S
C984 C985 1.415 . S
C985 H955 0.950 . S
C985 C980 1.363 . S
C985 C984 1.415 . S
H986 C983 0.999 . S
H987 C968 0.913 . S
H988 C1006 0.951 . S
H989 C1008 0.951 . S
H990 C1010 0.950 . S
H991 C1011 0.950 . S
H992 C1013 0.950 . S
H993 C1016 0.950 . S
H994 C1017 0.950 . S
H995 C1019 0.950 . S
H996 C1020 0.950 1_556 S
H997 C1021 0.951 . S
H998 C1023 0.951 . S
H999 C1025 0.950 . S
H1000 C1026 0.950 . S
H1001 C1028 0.950 . S
H1002 C1031 0.950 . S
H1003 C1032 0.950 . S
H1004 C1034 0.950 . S
H1005 C1035 0.950 . S
C1006 H988 0.951 . S
C1006 C1007 1.366 . S
C1006 C1008 1.388 . S
C1007 C1006 1.366 . S
C1007 C1011 1.385 . S
C1008 H989 0.951 . S
C1008 C1006 1.388 . S
C1008 C1009 1.366 . S
C1009 C1008 1.366 . S
C1009 C1010 1.414 . S
C1009 C1012 1.499 . S
C1010 H990 0.950 . S
C1010 C1009 1.414 . S
C1010 C1011 1.374 . S
C1011 H991 0.950 . S
C1011 C1007 1.385 . S
C1011 C1010 1.374 . S
C1012 C1009 1.499 . S
C1012 C1013 1.373 . S
C1012 C1014 1.389 . S
C1013 H992 0.950 . S
C1013 C1012 1.373 . S
C1013 C1029 1.377 . S
C1014 C1012 1.389 . S
C1014 C1015 1.524 . S
C1014 C1028 1.377 . S
C1015 C1014 1.524 . S
C1015 C1016 1.397 1_556 S
C1015 C1020 1.363 1_556 S
C1016 H993 0.950 . S
C1016 C1015 1.397 1_554 S
C1016 C1017 1.334 . S
C1017 H994 0.950 . S
C1017 C1016 1.334 . S
C1017 C1018 1.287 . S
C1018 C1017 1.287 . S
C1018 C1019 1.524 . S
C1018 H1037 0.913 . S
C1019 H995 0.950 . S
C1019 C1018 1.524 . S
C1019 C1020 1.415 . S
C1020 H996 0.950 1_554 S
C1020 C1015 1.363 1_554 S
C1020 C1019 1.415 . S
C1021 H997 0.951 . S
C1021 C1022 1.366 . S
C1021 C1023 1.388 . S
C1022 C1021 1.366 . S
C1022 C1026 1.385 . S
C1023 H998 0.951 . S
C1023 C1021 1.388 . S
C1023 C1024 1.366 . S
C1024 C1023 1.366 . S
C1024 C1025 1.414 . S
C1024 C1027 1.499 . S
C1025 H999 0.950 . S
C1025 C1024 1.414 . S
C1025 C1026 1.374 . S
C1026 H1000 0.950 . S
C1026 C1022 1.385 . S
C1026 C1025 1.374 . S
C1027 C1024 1.499 . S
C1027 C1028 1.373 . S
C1027 C1029 1.389 . S
C1028 H1001 0.950 . S
C1028 C1014 1.377 . S
C1028 C1027 1.373 . S
C1029 C1013 1.377 . S
C1029 C1027 1.389 . S
C1029 C1030 1.524 . S
C1030 C1029 1.524 . S
C1030 C1031 1.397 . S
C1030 C1035 1.363 . S
C1031 H1002 0.950 . S
C1031 C1030 1.397 . S
C1031 C1032 1.334 . S
C1032 H1003 0.950 . S
C1032 C1031 1.334 . S
C1032 C1033 1.287 . S
C1033 C1032 1.287 . S
C1033 C1034 1.524 . S
C1033 H1036 0.999 . S
C1034 H1004 0.950 . S
C1034 C1033 1.524 . S
C1034 C1035 1.415 . S
C1035 H1005 0.950 . S
C1035 C1030 1.363 . S
C1035 C1034 1.415 . S
H1036 C1033 0.999 . S
H1037 C1018 0.913 . S
C157 C131 1.423 . S
C172 C20 1.418 . S
C207 C16 1.423 . S
C222 C43 1.418 . S
C257 C39 1.423 . S
C272 C66 1.418 . S
C307 C62 1.423 . S
C322 C89 1.418 . S
C357 C112 1.418 . S
C372 C85 1.422 . S
C407 C135 1.417 . S
C422 C108 1.423 . S
C457 C21 0.533 . S
C472 C18 0.418 . S
C507 C44 0.533 . S
C522 C41 0.418 . S
C557 C67 0.533 . S
C572 C64 0.418 . S
C607 C90 0.533 . S
C622 C87 0.418 . S
C657 C110 0.417 . S
C672 C113 0.536 . S
C707 C136 0.534 . S
C722 C133 0.417 . S
C757 C19 1.578 . S
C772 C109 1.609 . S
C807 C42 1.578 . S
C822 C132 1.609 . S
C857 C17 1.609 . S
C872 C65 1.578 . S
C907 C40 1.609 . S
C922 C88 1.577 . S
C957 C111 1.578 . S
C972 C63 1.609 . S
C1007 C86 1.609 . S
C1022 C134 1.577 . S
