# Generated by pormake.
# Topology fna, (5)-cn, num edge types: 1
# Building blocks:
#     Node 0, Type 0, BuildingBlock: XOMCOT_clean_sbu_1, # of connection points: 5
#     Node 1, Type 0, BuildingBlock: XOMCOT_clean_sbu_1, # of connection points: 5
#     Node 2, Type 0, BuildingBlock: XOMCOT_clean_sbu_1, # of connection points: 5
#     Node 3, Type 0, BuildingBlock: XOMCOT_clean_sbu_1, # of connection points: 5
#     Node 4, Type 0, BuildingBlock: XOMCOT_clean_sbu_1, # of connection points: 5
#     Node 5, Type 0, BuildingBlock: XOMCOT_clean_sbu_1, # of connection points: 5
#     Node 6, Type 0, BuildingBlock: XOMCOT_clean_sbu_1, # of connection points: 5
#     Node 7, Type 0, BuildingBlock: XOMCOT_clean_sbu_1, # of connection points: 5
#     Node 8, Type 0, BuildingBlock: XOMCOT_clean_sbu_1, # of connection points: 5
#     Node 9, Type 0, BuildingBlock: XOMCOT_clean_sbu_1, # of connection points: 5
#     Node 10, Type 0, BuildingBlock: XOMCOT_clean_sbu_1, # of connection points: 5
#     Node 11, Type 0, BuildingBlock: XOMCOT_clean_sbu_1, # of connection points: 5
#     Edge 12, Type (0, 0), BuildingBlock: AJUNOK_clean_linker_0, # of connection points: 2
#     Edge 13, Type (0, 0), BuildingBlock: AJUNOK_clean_linker_0, # of connection points: 2
#     Edge 14, Type (0, 0), BuildingBlock: AJUNOK_clean_linker_0, # of connection points: 2
#     Edge 15, Type (0, 0), BuildingBlock: AJUNOK_clean_linker_0, # of connection points: 2
#     Edge 16, Type (0, 0), BuildingBlock: AJUNOK_clean_linker_0, # of connection points: 2
#     Edge 17, Type (0, 0), BuildingBlock: AJUNOK_clean_linker_0, # of connection points: 2
#     Edge 18, Type (0, 0), BuildingBlock: AJUNOK_clean_linker_0, # of connection points: 2
#     Edge 19, Type (0, 0), BuildingBlock: AJUNOK_clean_linker_0, # of connection points: 2
#     Edge 20, Type (0, 0), BuildingBlock: AJUNOK_clean_linker_0, # of connection points: 2
#     Edge 21, Type (0, 0), BuildingBlock: AJUNOK_clean_linker_0, # of connection points: 2
#     Edge 22, Type (0, 0), BuildingBlock: AJUNOK_clean_linker_0, # of connection points: 2
#     Edge 23, Type (0, 0), BuildingBlock: AJUNOK_clean_linker_0, # of connection points: 2
#     Edge 24, Type (0, 0), BuildingBlock: AJUNOK_clean_linker_0, # of connection points: 2
#     Edge 25, Type (0, 0), BuildingBlock: AJUNOK_clean_linker_0, # of connection points: 2
#     Edge 26, Type (0, 0), BuildingBlock: AJUNOK_clean_linker_0, # of connection points: 2
#     Edge 27, Type (0, 0), BuildingBlock: AJUNOK_clean_linker_0, # of connection points: 2
#     Edge 28, Type (0, 0), BuildingBlock: AJUNOK_clean_linker_0, # of connection points: 2
#     Edge 29, Type (0, 0), BuildingBlock: AJUNOK_clean_linker_0, # of connection points: 2
#     Edge 30, Type (0, 0), BuildingBlock: AJUNOK_clean_linker_0, # of connection points: 2
#     Edge 31, Type (0, 0), BuildingBlock: AJUNOK_clean_linker_0, # of connection points: 2
#     Edge 32, Type (0, 0), BuildingBlock: AJUNOK_clean_linker_0, # of connection points: 2
#     Edge 33, Type (0, 0), BuildingBlock: AJUNOK_clean_linker_0, # of connection points: 2
#     Edge 34, Type (0, 0), BuildingBlock: AJUNOK_clean_linker_0, # of connection points: 2
#     Edge 35, Type (0, 0), BuildingBlock: AJUNOK_clean_linker_0, # of connection points: 2
#     Edge 36, Type (0, 0), BuildingBlock: AJUNOK_clean_linker_0, # of connection points: 2
#     Edge 37, Type (0, 0), BuildingBlock: AJUNOK_clean_linker_0, # of connection points: 2
#     Edge 38, Type (0, 0), BuildingBlock: AJUNOK_clean_linker_0, # of connection points: 2
#     Edge 39, Type (0, 0), BuildingBlock: AJUNOK_clean_linker_0, # of connection points: 2
#     Edge 40, Type (0, 0), BuildingBlock: AJUNOK_clean_linker_0, # of connection points: 2
#     Edge 41, Type (0, 0), BuildingBlock: AJUNOK_clean_linker_0, # of connection points: 2
# Relax obj value: 0.388
# Max RMSD: 0.210
# Mean RMSD: 0.210
data_MOF--net-fna--node1-XOMCOT_clean_sbu_1--edge1-AJUNOK_clean_linker_0
_symmetry_space_group_name_H-M    P1
_symmetry_Int_Tables_number       1
_symmetry_cell_setting            triclinic
loop_
_symmetry_equiv_pos_as_xyz
'x, y, z'
_cell_length_a     34.838227
_cell_length_b     34.910193
_cell_length_c     32.987875
_cell_angle_alpha  90.052371
_cell_angle_beta   89.963728
_cell_angle_gamma 120.15272
loop_
_atom_site_label
_atom_site_type_symbol
_atom_site_fract_x
_atom_site_fract_y
_atom_site_fract_z
_atom_type_partial_charge
C0 C 0.43106 0.3571 0.52609 0.0
C1 C 0.43884 0.37235 0.56531 0.0
N2 N 0.39943 0.3596 0.58327 0.0
N3 N 0.38698 0.3346 0.51937 0.0
C4 C 0.3685 0.33643 0.55474 0.0
H5 H 0.45578 0.36057 0.50425 0.0
Co6 Co 0.36083 0.30257 0.47264 0.0
C7 C 0.26698 0.27359 0.48437 0.0
O8 O 0.25813 0.23316 0.47602 0.0
N9 N 0.33571 0.26933 0.42545 0.0
C10 C 0.29975 0.24026 0.3677 0.0
C11 C 0.31172 0.27388 0.3957 0.0
C12 C 0.33844 0.23347 0.41459 0.0
N13 N 0.31696 0.21507 0.37962 0.0
O14 O 0.33833 0.24976 0.50409 0.0
H15 H 0.30297 0.29952 0.39477 0.0
H16 H 0.35476 0.22013 0.43272 0.0
O17 O 0.30718 0.30541 0.48345 0.0
C18 C 0.36838 0.24065 0.51284 0.0
O19 O 0.40725 0.26351 0.49505 0.0
N20 N 0.38652 0.35576 0.44323 0.0
C21 C 0.454 0.4411 0.4229 0.0
C22 C 0.41848 0.43466 0.44784 0.0
C23 C 0.38458 0.39165 0.45708 0.0
C24 C 0.41848 0.36114 0.4163 0.0
C25 C 0.45206 0.40351 0.40515 0.0
H26 H 0.36008 0.38745 0.47945 0.0
H27 H 0.42048 0.33265 0.40637 0.0
H28 H 0.33305 0.32013 0.55978 0.0
H29 H 0.47097 0.38949 0.57988 0.0
H30 H 0.27986 0.23469 0.34079 0.0
H31 H 0.41866 0.46215 0.46317 0.0
H32 H 0.47813 0.40664 0.38514 0.0
C33 C 0.09498 0.41302 0.69191 0.0
C34 C 0.0868 0.41907 0.73145 0.0
N35 N 0.06045 0.37897 0.7482 0.0
N36 N 0.07362 0.36932 0.68366 0.0
C37 C 0.05266 0.34938 0.71836 0.0
H38 H 0.11634 0.43866 0.67083 0.0
Co39 Co 0.0804 0.34478 0.63617 0.0
C40 C 0.98526 0.26846 0.62872 0.0
O41 O 0.97711 0.282 0.59442 0.0
N42 N 0.09002 0.32117 0.58817 0.0
C43 C 0.08961 0.29604 0.52586 0.0
C44 C 0.0672 0.30794 0.55293 0.0
C45 C 0.12659 0.31791 0.58119 0.0
N46 N 0.12698 0.30235 0.54387 0.0
O47 O 0.10808 0.31938 0.6675 0.0
H48 H 0.03755 0.3091 0.54614 0.0
H49 H 0.1531 0.3273 0.60281 0.0
O50 O 1.02334 0.29051 0.64555 0.0
C51 C 0.14668 0.34792 0.67964 0.0
O52 O 0.16492 0.3885 0.66546 0.0
N53 N 0.05506 0.3731 0.60733 0.0
C54 C 0.03802 0.44012 0.58477 0.0
C55 C 1.0087 0.40578 0.61026 0.0
C56 C 1.01795 0.37275 0.62143 0.0
C57 C 0.08265 0.40492 0.58066 0.0
C58 C 0.07454 0.43863 0.56868 0.0
H59 H 0.99771 0.34969 0.64474 0.0
H60 H 0.11326 0.40656 0.57149 0.0
H61 H 0.03255 0.31385 0.72159 0.0
H62 H 0.10054 0.45052 0.74708 0.0
H63 H 0.08009 0.28542 0.49483 0.0
H64 H 0.98047 0.40612 0.62364 0.0
H65 H 0.09858 0.46518 0.5497 0.0
C66 C 0.6979 0.08342 0.85206 0.0
C67 C 0.68153 0.07593 0.89098 0.0
N68 N 0.6991 0.055 0.91152 0.0
N69 N 0.72521 0.06677 0.84802 0.0
C70 C 0.72592 0.05048 0.88485 0.0
H71 H 0.69047 0.09993 0.82819 0.0
Co72 Co 0.75789 0.06944 0.80249 0.0
C73 C 0.73758 0.97524 0.80039 0.0
O74 O 0.72206 0.96975 0.76323 0.0
N75 N 0.7933 0.07516 0.75721 0.0
C76 C 0.84744 0.07728 0.71946 0.0
C77 C 0.81462 0.05305 0.74724 0.0
C78 C 0.81459 0.11312 0.73548 0.0
N79 N 0.84744 0.11513 0.71218 0.0
O80 O 0.81024 0.09898 0.83433 0.0
H81 H 0.81066 0.02378 0.76202 0.0
H82 H 0.80906 0.14071 0.7398 0.0
O83 O 0.75252 1.01277 0.81776 0.0
C84 C 0.82122 0.139 0.84115 0.0
O85 O 0.79994 0.15566 0.82185 0.0
N86 N 0.70442 0.04209 0.77175 0.0
C87 C 0.62102 0.02905 0.74993 0.0
C88 C 0.62474 1.00073 0.77772 0.0
C89 C 0.66667 1.00755 0.788 0.0
C90 C 0.70103 0.06672 0.74139 0.0
C91 C 0.65959 0.06008 0.72941 0.0
H92 H 0.66874 0.98889 0.81315 0.0
H93 H 0.73037 0.0947 0.72909 0.0
H94 H 0.74724 0.0373 0.89226 0.0
H95 H 0.65845 0.08516 0.90317 0.0
H96 H 0.87156 0.06918 0.70778 0.0
H97 H 0.59606 0.97621 0.79433 0.0
H98 H 0.65825 0.08145 0.70637 0.0
C99 C 0.63847 0.67632 0.02453 0.0
C100 C 0.63326 0.65949 0.06299 0.0
N101 N 0.67284 0.68077 0.08201 0.0
N102 N 0.68131 0.70762 0.01896 0.0
C103 C 0.7013 0.71015 0.05466 0.0
H104 H 0.61266 0.66634 0.00198 0.0
Co105 Co 0.70475 0.74057 0.97184 0.0
C106 C 0.78729 0.73355 0.96196 0.0
O107 O 0.77628 0.71769 0.92512 0.0
N108 N 0.72714 0.77473 0.92373 0.0
C109 C 0.74305 0.79531 0.85902 0.0
C110 C 0.73455 0.7627 0.88682 0.0
C111 C 0.7311 0.8149 0.91708 0.0
N112 N 0.74084 0.82815 0.87813 0.0
O113 O 0.72552 0.79339 0.00344 0.0
H114 H 0.73028 0.73072 0.87923 0.0
H115 H 0.72367 0.83282 0.93949 0.0
O116 O 0.76153 0.74271 0.98211 0.0
C117 C 0.69328 0.79854 0.01411 0.0
O118 O 0.65372 0.77167 -0.00098 0.0
N119 N 0.6802 0.68719 0.94255 0.0
C120 C 0.61433 0.60138 0.9231 0.0
C121 C 0.65169 0.60872 0.94533 0.0
C122 C 0.6845 0.65208 0.95473 0.0
C123 C 0.64562 0.68057 0.91839 0.0
C124 C 0.6126 0.63786 0.90777 0.0
H125 H 0.71008 0.65684 0.97601 0.0
H126 H 0.64119 0.70823 0.91074 0.0
H127 H 0.73561 0.73431 0.06074 0.0
H128 H 0.60261 0.6335 0.07588 0.0
H129 H 0.74812 0.79393 0.82679 0.0
H130 H 0.65382 0.58118 0.95786 0.0
H131 H 0.58392 0.63333 0.89093 0.0
C132 C 0.96962 0.63008 0.187 0.0
C133 C 0.97518 0.62236 0.22682 0.0
N134 N 0.9992 0.66179 0.24545 0.0
N135 N 0.99063 0.67415 0.18054 0.0
C136 C 1.0084 0.69261 0.21661 0.0
H137 H 0.95039 0.60529 0.16441 0.0
Co138 Co 0.98653 0.70115 0.13365 0.0
C139 C 0.08289 0.77611 0.13089 0.0
O140 O 0.09271 0.76057 0.09874 0.0
N141 N 0.97889 0.72698 0.08648 0.0
C142 C 0.98225 0.75887 0.02708 0.0
C143 C 1.00583 0.74988 0.05528 0.0
C144 C 0.93914 0.72229 0.07617 0.0
N145 N 0.94018 0.74128 0.0403 0.0
O146 O 0.95747 0.72537 0.16497 0.0
H147 H 0.0399 0.75842 0.05196 0.0
H148 H 0.90929 0.70384 0.09397 0.0
O149 O 0.04373 0.75512 0.14594 0.0
C150 C 0.91871 0.69632 0.17637 0.0
O151 O 0.90091 0.65625 0.16099 0.0
N152 N 1.01311 0.67372 0.10421 0.0
C153 C 1.025 0.60293 0.08198 0.0
C154 C 0.05266 0.63399 0.11096 0.0
C155 C 0.04648 0.66934 0.12136 0.0
C156 C 0.98887 0.64648 0.07315 0.0
C157 C 0.99517 0.61164 0.06081 0.0
H158 H 0.06499 0.68987 0.14679 0.0
H159 H 0.96172 0.64899 0.06021 0.0
H160 H 1.02702 0.72793 0.22164 0.0
H161 H 0.96138 0.5903 0.24128 0.0
H162 H 0.99509 0.77676 -0.00105 0.0
H163 H 0.07627 0.62903 0.12815 0.0
H164 H 0.97455 0.58998 0.03676 0.0
C165 C 0.37023 0.96769 0.35554 0.0
C166 C 0.38795 0.97722 0.39388 0.0
N167 N 0.37461 1.00299 0.41243 0.0
N168 N 0.34558 0.98708 0.34994 0.0
C169 C 0.34866 1.00817 0.38513 0.0
H170 H 0.37363 0.94653 0.33362 0.0
Co171 Co 0.31099 0.97896 0.30443 0.0
C172 C 0.28396 0.04564 0.31741 0.0
O173 O 0.24252 1.01499 0.31067 0.0
N174 N 0.27575 0.96883 0.25858 0.0
C175 C 0.2476 0.97292 0.19935 0.0
C176 C 0.27971 0.99643 0.2282 0.0
C177 C 0.2413 0.92902 0.24763 0.0
N178 N 0.22356 0.93049 0.21174 0.0
O179 O 0.25932 0.94968 0.33781 0.0
H180 H 0.30477 0.03114 0.22679 0.0
H181 H 0.23027 0.89899 0.26496 0.0
O182 O 0.31451 0.03575 0.31446 0.0
C183 C 0.25137 0.91143 0.34853 0.0
O184 O 0.27494 0.89546 0.33241 0.0
N185 N 0.36281 1.00545 0.27296 0.0
C186 C 0.44826 0.02568 0.25182 0.0
C187 C 0.44126 0.05663 0.27257 0.0
C188 C 0.39806 0.04601 0.28265 0.0
C189 C 0.36872 0.97666 0.24951 0.0
C190 C 0.4114 0.98631 0.2383 0.0
H191 H 0.3938 0.06824 0.3023 0.0
H192 H 0.34077 0.94412 0.2432 0.0
H193 H 0.33128 0.02602 0.39095 0.0
H194 H 0.40717 0.96412 0.40756 0.0
H195 H 0.24244 0.986 0.17145 0.0
H196 H 0.4691 0.08723 0.28363 0.0
H197 H 0.41574 0.9615 0.22253 0.0
C198 C 0.69641 0.62849 0.30906 0.0
C199 C 0.68081 0.61852 0.26988 0.0
N200 N 0.70288 0.65566 0.24773 0.0
N201 N 0.72685 0.67208 0.3115 0.0
C202 C 0.73068 0.68744 0.27338 0.0
H203 H 0.68586 0.60562 0.33427 0.0
Co204 Co 0.75914 0.70365 0.35664 0.0
C205 C 0.73949 0.77805 0.35765 0.0
O206 O 0.72645 0.76972 0.39563 0.0
N207 N 0.7944 0.73458 0.40161 0.0
C208 C 0.85045 0.78763 0.43704 0.0
C209 C 0.81729 0.77858 0.40955 0.0
C210 C 0.8151 0.71801 0.42429 0.0
N211 N 0.84932 0.74952 0.44587 0.0
O212 O 0.81162 0.72642 0.3249 0.0
H213 H 0.81438 0.80371 0.3932 0.0
H214 H 0.80845 0.68432 0.42149 0.0
O215 O 0.75312 0.75448 0.33989 0.0
C216 C 0.82631 0.69997 0.32029 0.0
O217 O 0.80794 0.66314 0.34152 0.0
N218 N 0.70555 0.67811 0.38732 0.0
C219 C 0.62097 0.61107 0.41166 0.0
C220 C 0.62591 0.64226 0.38227 0.0
C221 C 0.6683 0.67577 0.37095 0.0
C222 C 0.70139 0.65039 0.41827 0.0
C223 C 0.65947 0.61718 0.43133 0.0
H224 H 0.67088 0.69576 0.34499 0.0
H225 H 0.73031 0.65078 0.43036 0.0
H226 H 0.75351 0.7212 0.2645 0.0
H227 H 0.65552 0.58663 0.25846 0.0
H228 H 0.87571 0.82019 0.44713 0.0
H229 H 0.5978 0.63851 0.36506 0.0
H230 H 0.65748 0.59435 0.45456 0.0
C231 C 0.09449 0.69286 0.46595 0.0
C232 C 0.08555 0.67872 0.42644 0.0
N233 N 0.05735 0.69079 0.41097 0.0
N234 N 0.07197 0.71364 0.47542 0.0
C235 C 0.04943 0.71168 0.44155 0.0
H236 H 0.11694 0.6894 0.48624 0.0
Co237 Co 0.07844 0.74355 0.52358 0.0
C238 C 0.98321 0.72614 0.52773 0.0
O239 O 0.97122 0.69967 0.55926 0.0
N240 N 0.08783 0.77536 0.57225 0.0
C241 C 0.08585 0.80084 0.63377 0.0
C242 C 0.0617 0.76939 0.60469 0.0
C243 C 0.12766 0.8102 0.58275 0.0
N244 N 0.12745 0.8264 0.61977 0.0
O245 O 0.10899 0.79777 0.49384 0.0
H246 H 1.02784 0.74318 0.60808 0.0
H247 H 0.1571 0.82286 0.56427 0.0
O248 O 1.02266 0.74314 0.51365 0.0
C249 C 0.14835 0.80734 0.48485 0.0
O250 O 0.16387 0.78337 0.50094 0.0
N251 N 0.05093 0.68896 0.55106 0.0
C252 C 0.03471 0.60435 0.56998 0.0
C253 C 1.00607 0.60996 0.54416 0.0
C254 C 1.01489 0.65259 0.53486 0.0
C255 C 0.07711 0.68385 0.57873 0.0
C256 C 0.06926 0.64167 0.58899 0.0
H257 H 0.99562 0.65627 0.51114 0.0
H258 H 0.10687 0.71255 0.58983 0.0
H259 H 1.02779 0.7254 0.43959 0.0
H260 H 0.09992 0.66211 0.41001 0.0
H261 H 0.07367 0.80448 0.66286 0.0
H262 H 0.97903 0.58181 0.52897 0.0
H263 H 0.09232 0.63855 0.60882 0.0
C264 C 0.42882 0.09127 0.63774 0.0
C265 C 0.43904 0.0862 0.59856 0.0
N266 N 0.40112 0.05736 0.57944 0.0
N267 N 0.3847 0.06592 0.64327 0.0
C268 C 0.36867 0.04586 0.60727 0.0
H269 H 0.45173 0.11348 0.6603 0.0
Co270 Co 0.3544 0.06756 0.68895 0.0
C271 C 0.28134 0.97375 0.69479 0.0
O272 O 0.29263 0.97195 0.73244 0.0
N273 N 0.32439 0.07276 0.73448 0.0
C274 C 0.27133 0.07606 0.76955 0.0
C275 C 0.2802 0.05211 0.74185 0.0
C276 C 0.34122 0.10983 0.75761 0.0
N277 N 0.30974 0.11255 0.77927 0.0
O278 O 0.33075 0.09616 0.65714 0.0
H279 H 0.2549 0.02459 0.7249 0.0
H280 H 0.37508 0.13684 0.75503 0.0
O281 O 0.3033 1.00973 0.67471 0.0
C282 C 0.35937 0.13702 0.65353 0.0
O283 O 0.39534 0.15335 0.676 0.0
N284 N 0.38187 0.04154 0.71931 0.0
C285 C 0.4528 0.02919 0.74045 0.0
C286 C 0.42064 1.00094 0.71255 0.0
C287 C 0.38532 1.00744 0.70259 0.0
C288 C 0.41026 0.06635 0.74952 0.0
C289 C 0.44531 0.06003 0.76118 0.0
H290 H 0.36421 0.98855 0.67763 0.0
H291 H 0.40885 0.09408 0.76209 0.0
H292 H 0.33372 0.02425 0.60124 0.0
H293 H 0.47157 0.10432 0.58483 0.0
H294 H 0.23872 0.06908 0.77918 0.0
H295 H 0.42475 0.97657 0.69575 0.0
H296 H 0.46814 0.08138 0.78425 0.0
C297 C 0.35984 0.41268 0.80644 0.0
C298 C 0.37627 0.42191 0.76768 0.0
N299 N 0.36688 0.38354 0.74953 0.0
N300 N 0.33985 0.3687 0.81273 0.0
C301 C 0.34432 0.35166 0.77748 0.0
H302 H 0.36091 0.43629 0.82833 0.0
Co303 Co 0.30833 0.34216 0.85959 0.0
C304 C 0.32634 0.26557 0.86394 0.0
O305 O 0.34781 0.27836 0.89845 0.0
N306 N 0.27458 0.31693 0.90743 0.0
C307 C 0.24897 0.29058 0.96939 0.0
C308 C 0.28301 0.30166 0.94202 0.0
C309 C 0.23573 0.31561 0.91523 0.0
N310 N 0.21956 0.29995 0.95246 0.0
O311 O 0.25532 0.31841 0.82815 0.0
H312 H 0.31296 0.30093 0.94834 0.0
H313 H 0.21938 0.32639 0.89429 0.0
O314 O 0.31045 0.28796 0.84775 0.0
C315 C 0.24386 0.34672 0.81935 0.0
O316 O 0.26469 0.38573 0.83707 0.0
N317 N 0.36232 0.36908 0.88856 0.0
C318 C 0.44742 0.4353 0.91088 0.0
C319 C 0.44152 0.40165 0.88413 0.0
C320 C 0.39877 0.36906 0.87311 0.0
C321 C 0.36739 0.39999 0.91664 0.0
C322 C 0.40979 0.4333 0.92852 0.0
H323 H 0.39535 0.34677 0.84885 0.0
H324 H 0.33869 0.40144 0.92702 0.0
H325 H 0.33055 0.31657 0.77216 0.0
H326 H 0.39196 0.4542 0.75351 0.0
H327 H 0.24693 0.27836 -7e-05 0.0
H328 H 0.46975 0.40239 0.86954 0.0
H329 H 0.41298 0.45932 0.94859 0.0
C330 C 0.96843 0.35107 0.97075 0.0
C331 C 0.97603 0.36475 0.93101 0.0
N332 N 1.00168 0.35035 0.91392 0.0
N333 N 0.98952 0.32849 0.97874 0.0
C334 C 1.00962 0.32875 0.94374 0.0
H335 H 0.94765 0.35587 0.99211 0.0
Co336 Co 0.98356 0.29683 0.02571 0.0
C337 C 0.05127 0.27123 0.01424 0.0
O338 O 1.02083 0.23018 0.02254 0.0
N339 N 0.9754 0.2637 0.07289 0.0
C340 C 0.98244 0.23555 0.13102 0.0
C341 C 1.00391 0.26918 0.10301 0.0
C342 C 0.93694 0.22725 0.08356 0.0
N343 N 0.94027 0.20909 0.11848 0.0
O344 O 0.95455 0.24402 0.99404 0.0
H345 H 0.03809 0.29572 0.10437 0.0
H346 H 0.90698 0.2135 0.06565 0.0
O347 O 0.04121 0.30173 0.01579 0.0
C348 C 0.91515 0.2345 0.98542 0.0
O349 O 0.89892 0.25668 0.00391 0.0
N350 N 1.00953 0.34995 0.0553 0.0
C351 C 1.02245 0.43353 0.07427 0.0
C352 C 0.05319 0.42915 0.04999 0.0
C353 C 0.04647 0.38693 0.04131 0.0
C354 C 0.98222 0.35371 0.08255 0.0
C355 C 0.98884 0.39531 0.09332 0.0
H356 H 0.06765 0.38397 0.01912 0.0
H357 H 0.95268 0.32435 0.09303 0.0
H358 H 1.02913 0.31279 0.94028 0.0
H359 H 0.96237 0.38255 0.91552 0.0
H360 H 0.99672 0.23125 0.15855 0.0
H361 H 0.07994 0.45758 0.03491 0.0
H362 H 0.96571 0.3971 0.11407 0.0
C363 C 0.63632 0.98008 0.13703 0.0
C364 C 0.63114 0.99139 0.09831 0.0
N365 N 0.66997 1.00644 0.07883 0.0
N366 N 0.67851 0.98895 0.14183 0.0
C367 C 0.69809 1.00454 0.10559 0.0
H368 H 0.61082 0.96579 0.16005 0.0
Co369 Co 0.70267 0.97819 0.1875 0.0
C370 C 0.79768 0.0408 0.17718 0.0
O371 O 0.80472 1.00767 0.18341 0.0
N372 N 0.72599 0.96595 0.23346 0.0
C373 C 0.75817 0.96855 0.29241 0.0
C374 C 0.74926 0.99262 0.26462 0.0
C375 C 0.72092 0.92607 0.24303 0.0
N376 N 0.74061 0.92681 0.27843 0.0
O377 O 0.72305 0.94728 0.15388 0.0
H378 H 0.75884 0.0272 0.26708 0.0
H379 H 0.7021 0.89659 0.22494 0.0
O380 O 0.75804 0.0339 0.17878 0.0
C381 C 0.69166 0.90891 0.14435 0.0
O382 O 0.65246 0.89493 0.16084 0.0
N383 N 0.67909 1.00583 0.2194 0.0
C384 C 0.61519 0.02684 0.24309 0.0
C385 C 0.65291 0.05757 0.22152 0.0
C386 C 0.68501 0.04664 0.21031 0.0
C387 C 0.6447 0.97723 0.24338 0.0
C388 C 0.61245 0.98726 0.25588 0.0
H389 H 0.71146 0.06867 0.19023 0.0
H390 H 0.63963 0.94451 0.2492 0.0
H391 H 0.73202 1.01362 0.09872 0.0
H392 H 0.60101 0.9876 0.08505 0.0
H393 H 0.77633 0.98079 0.32053 0.0
H394 H 0.65594 0.08836 0.21101 0.0
H395 H 0.58352 0.96246 0.27205 0.0
C396 C 0.4 0.19242 0.6001 0.0
C397 C 0.35913 0.16234 0.61789 0.0
C398 C 0.40212 0.21625 0.56549 0.0
C399 C 0.36348 0.21165 0.54745 0.0
H400 H 0.43088 0.19729 0.61265 0.0
H401 H 0.43464 0.23919 0.55338 0.0
S402 S 0.24793 0.13682 0.58211 0.0
N403 N 0.27887 0.12825 0.61469 0.0
N404 N 0.28279 0.17436 0.54978 0.0
C405 C 0.32217 0.18156 0.56479 0.0
C406 C 0.32001 0.15651 0.59991 0.0
C407 C 0.16925 0.3664 0.75088 0.0
C408 C 0.16478 0.34035 0.71686 0.0
C409 C 0.19229 0.36565 0.78517 0.0
C410 C 0.21203 0.33908 0.78653 0.0
H411 H 0.15615 0.38874 0.75042 0.0
H412 H 0.19629 0.38756 0.81013 0.0
S413 S 0.20712 0.26267 0.7057 0.0
N414 N 0.17913 0.28528 0.68694 0.0
N415 N 0.2233 0.28401 0.7515 0.0
C416 C 0.20562 0.31091 0.75344 0.0
C417 C 0.1818 0.31158 0.71845 0.0
C418 C 0.82843 0.1808 0.90369 0.0
C419 C 0.84587 0.16111 0.87819 0.0
C420 C 0.85021 0.20241 0.9392 0.0
C421 C 0.89083 0.20594 0.95046 0.0
H422 H 0.79744 0.17937 0.89623 0.0
H423 H 0.83538 0.21744 0.95738 0.0
S424 S 0.94953 0.15822 0.89435 0.0
N425 N 0.90469 0.1443 0.86694 0.0
N426 N 0.94699 0.18642 0.93352 0.0
C427 C 0.90823 0.1854 0.9256 0.0
C428 C 0.88539 0.16259 0.88952 0.0
C429 C 0.6632 0.81038 0.07758 0.0
C430 C 0.69713 0.82724 0.04843 0.0
C431 C 0.66316 0.83673 0.10937 0.0
C432 C 0.69683 0.88128 0.11317 0.0
H433 H 0.63608 0.77646 0.07563 0.0
H434 H 0.63579 0.82211 0.13066 0.0
S435 S 0.79383 0.94109 0.04471 0.0
N436 N 0.76607 0.89056 0.02553 0.0
N437 N 0.76583 0.94095 0.08523 0.0
C438 C 0.73184 0.89835 0.0848 0.0
C439 C 0.73203 0.8711 0.05241 0.0
C440 C 0.88985 0.67126 0.24537 0.0
C441 C 0.90026 0.70236 0.21429 0.0
C442 C 0.8686 0.67278 0.28069 0.0
C443 C 0.85613 0.70505 0.28606 0.0
H444 H 0.89752 0.64492 0.24205 0.0
H445 H 0.86036 0.64725 0.30322 0.0
S446 S 0.87917 0.79618 0.2143 0.0
N447 N 0.9 0.76832 0.19177 0.0
N448 N 0.85855 0.77082 0.2579 0.0
C449 C 0.86834 0.73779 0.25585 0.0
C450 C 0.89077 0.73652 0.21998 0.0
C451 C 0.24417 0.87648 0.41505 0.0
C452 C 0.22516 0.89016 0.38505 0.0
C453 C 0.21957 0.85221 0.44855 0.0
C454 C 0.17471 0.84007 0.45314 0.0
H455 H 0.27824 0.8839 0.41223 0.0
H456 H 0.23558 0.84152 0.47027 0.0
S457 S 0.11056 0.87076 0.38381 0.0
N458 N 0.16027 0.89294 0.36281 0.0
N459 N 0.11299 0.84601 0.42564 0.0
C460 C 0.15584 0.85547 0.42422 0.0
C461 C 0.18135 0.88085 0.39015 0.0
C462 C 0.26967 0.14421 0.3438 0.0
C463 C 0.3107 0.1747 0.36123 0.0
C464 C 0.26168 0.10304 0.32905 0.0
C465 C 0.29452 0.09075 0.33084 0.0
H466 H 0.243 0.1516 0.34275 0.0
H467 H 0.22919 0.08045 0.31668 0.0
S468 S 0.40895 0.16045 0.37093 0.0
N469 N 0.38558 0.19111 0.37698 0.0
N470 N 0.37052 0.11378 0.35021 0.0
C471 C 0.3362 0.12164 0.34714 0.0
C472 C 0.34427 0.16351 0.36211 0.0
C473 C 0.24037 0.31969 0.51973 0.0
C474 C 0.23064 0.28161 0.49713 0.0
C475 C 0.2064 0.32639 0.5346 0.0
C476 C 0.16141 0.29572 0.52687 0.0
H477 H 0.27444 0.34404 0.52689 0.0
H478 H 0.21537 0.35586 0.55229 0.0
S479 S 0.11798 0.19135 0.4684 0.0
N480 N 0.17241 0.21322 0.46709 0.0
N481 N 0.10893 0.22621 0.49486 0.0
C482 C 0.15122 0.25807 0.50362 0.0
C483 C 0.18571 0.25091 0.48886 0.0
C484 C 0.9263 0.16649 0.6958 0.0
C485 C 0.88118 0.15326 0.69086 0.0
C486 C 0.95973 0.20396 0.67586 0.0
C487 C 0.94924 0.22907 0.64952 0.0
H488 H 0.93585 0.14812 0.7158 0.0
H489 H 0.99402 0.21304 0.68082 0.0
S490 S 0.83595 0.20832 0.6267 0.0
N491 N 0.82773 0.16832 0.65843 0.0
N492 N 0.89024 0.23827 0.62021 0.0
C493 C 0.90416 0.21606 0.64428 0.0
C494 C 0.87023 0.17834 0.66519 0.0
C495 C 0.7191 0.89609 0.80313 0.0
C496 C 0.73923 0.93831 0.8213 0.0
C497 C 0.72008 0.86051 0.82172 0.0
C498 C 0.74096 0.8655 0.85939 0.0
H499 H 0.7022 0.89023 0.77429 0.0
H500 H 0.70369 0.82858 0.80676 0.0
S501 S 0.80094 0.96926 0.91893 0.0
N502 N 0.78247 0.98324 0.87875 0.0
N503 N 0.78363 0.91597 0.91365 0.0
C504 C 0.76141 0.90738 0.87792 0.0
C505 C 0.76076 0.94385 0.85889 0.0
C506 C 0.83511 0.74501 0.0232 0.0
C507 C 0.82778 0.73724 0.98121 0.0
C508 C 0.87188 0.74641 0.04223 0.0
C509 C 0.9032 0.74078 0.02001 0.0
H510 H 0.81201 0.7495 0.04172 0.0
H511 H 0.87604 0.7522 0.0746 0.0
S512 S 0.89984 0.7194 0.90957 0.0
N513 N 0.85561 0.72397 0.91806 0.0
N514 N 0.92428 0.72656 0.95401 0.0
C515 C 0.89665 0.73346 0.97806 0.0
C516 C 0.85909 0.73168 0.95866 0.0
C517 C 0.1499 0.86221 0.21188 0.0
C518 C 0.18783 0.89351 0.19064 0.0
C519 C 0.1155 0.82505 0.1922 0.0
C520 C 0.11819 0.81718 0.15067 0.0
H521 H 0.14684 0.86659 0.24399 0.0
H522 H 0.08713 0.80187 0.20993 0.0
S523 S 0.21071 0.88951 0.08143 0.0
N524 N 0.2259 0.91456 0.12585 0.0
N525 N 0.16188 0.84474 0.08887 0.0
C526 C 0.15591 0.84855 0.12908 0.0
C527 C 0.19052 0.88668 0.14902 0.0
C528 C 0.90412 0.70628 0.51571 0.0
C529 C 0.94964 0.73349 0.50669 0.0
C530 C 0.87153 0.71156 0.49562 0.0
C531 C 0.8832 0.74474 0.46634 0.0
H532 H 0.89337 0.68024 0.53813 0.0
H533 H 0.83693 0.68982 0.50322 0.0
S534 S 0.99692 0.82374 0.4302 0.0
N535 N 1.00421 0.79431 0.4653 0.0
N536 N 0.94287 0.80414 0.42802 0.0
C537 C 0.92836 0.77208 0.45684 0.0
C538 C 0.96157 0.76647 0.47688 0.0
C539 C 0.23258 0.93556 0.63487 0.0
C540 C 0.24144 0.93541 0.67651 0.0
C541 C 0.19522 0.90003 0.61677 0.0
C542 C 0.16482 0.86306 0.63955 0.0
H543 H 0.25476 0.96323 0.6159 0.0
H544 H 0.18986 0.90165 0.58464 0.0
S545 S 0.17248 0.84562 0.74943 0.0
N546 N 0.21632 0.89454 0.74002 0.0
N547 N 0.14634 0.82794 0.70572 0.0
C548 C 0.17301 0.86241 0.68116 0.0
C549 C 0.21126 0.89846 0.69966 0.0
C550 C 0.28818 0.20266 0.81475 0.0
C551 C 0.32289 0.22652 0.84246 0.0
C552 C 0.28384 0.16526 0.79456 0.0
C553 C 0.31452 0.15075 0.8007 0.0
H554 H 0.26383 0.21263 0.80892 0.0
H555 H 0.25662 0.14793 0.77349 0.0
S556 S 0.41235 0.20237 0.86859 0.0
N557 N 0.38915 0.23329 0.87419 0.0
N558 N 0.38106 0.1634 0.83568 0.0
C559 C 0.34974 0.17464 0.8277 0.0
C560 C 0.35386 0.21234 0.84877 0.0
C561 C 0.10944 0.24931 0.00631 0.0
C562 C 0.09621 0.28109 0.00076 0.0
C563 C 0.15033 0.25626 0.9916 0.0
C564 C 0.17935 0.29494 0.97018 0.0
H565 H 0.08783 0.21847 0.0218 0.0
H566 H 0.15873 0.23059 0.99588 0.0
S567 S 0.16233 0.38982 0.94942 0.0
N568 N 0.11702 0.3539 0.97384 0.0
N569 N 0.19346 0.36661 0.94614 0.0
C570 C 0.1672 0.32747 0.96524 0.0
C571 C 0.12581 0.32067 0.98058 0.0
C572 C 0.82658 0.11723 0.14878 0.0
C573 C 0.8352 0.0852 0.16552 0.0
C574 C 0.86112 0.15794 0.13446 0.0
C575 C 0.9058 0.16862 0.13663 0.0
H576 H 0.79278 0.11045 0.14567 0.0
H577 H 0.85275 0.18117 0.12122 0.0
S578 S 0.94669 0.09729 0.17906 0.0
N579 N 0.8923 0.06788 0.18467 0.0
N580 N 0.95683 0.14412 0.15749 0.0
C581 C 0.91506 0.13752 0.1543 0.0
C582 C 0.87989 0.09591 0.16872 0.0
C583 C 0.73457 0.88335 0.33962 0.0
C584 C 0.74144 0.89014 0.29764 0.0
C585 C 0.73377 0.84695 0.35859 0.0
C586 C 0.74046 0.81622 0.33643 0.0
H587 H 0.72893 0.90591 0.35778 0.0
H588 H 0.72797 0.84307 0.39097 0.0
S589 S 0.76243 0.82096 0.22572 0.0
N590 N 0.75669 0.86437 0.23458 0.0
N591 N 0.7556 0.79633 0.26998 0.0
C592 C 0.74818 0.82327 0.29442 0.0
C593 C 0.74852 0.86007 0.2751 0.0
C594 C 0.53713 0.48788 0.42174 0.0
C595 C 0.49554 0.48543 0.41978 0.0
C596 C 0.57696 0.52846 0.42003 0.0
C597 C 0.57748 0.56896 0.41702 0.0
H598 H 0.53919 0.45809 0.42494 0.0
H599 H 0.60769 0.52776 0.4202 0.0
S600 S 0.47785 0.58166 0.41245 0.0
N601 N 0.45743 0.52758 0.41448 0.0
N602 N 0.53234 0.60409 0.41396 0.0
C603 C 0.53616 0.56727 0.41596 0.0
C604 C 0.49534 0.52563 0.41688 0.0
C605 C 1.03056 0.50204 0.61434 0.0
C606 C 0.03396 0.48018 0.57976 0.0
C607 C 1.03008 0.54184 0.61103 0.0
C608 C 0.03227 0.56083 0.57298 0.0
H609 H 1.0296 0.48895 0.64433 0.0
H610 H 1.02834 0.55808 0.6384 0.0
S611 S 0.04131 0.51676 0.4732 0.0
N612 N 0.03926 0.48034 0.50635 0.0
N613 N 0.03827 0.55513 0.50001 0.0
C614 C 0.03507 0.53904 0.53813 0.0
C615 C 0.03601 0.49877 0.54155 0.0
C616 C 0.53728 0.98977 0.74563 0.0
C617 C 0.57844 0.0296 0.74631 0.0
C618 C 0.49692 0.98981 0.74453 0.0
C619 C 0.4959 0.02967 0.74412 0.0
H620 H 0.53617 0.95821 0.74581 0.0
H621 H 0.46623 0.95827 0.74414 0.0
S622 S 0.59439 0.14321 0.74568 0.0
N623 N 0.61535 0.11013 0.74792 0.0
N624 N 0.54013 0.1102 0.74317 0.0
C625 C 0.53687 0.06974 0.74454 0.0
C626 C 0.57786 0.0697 0.74621 0.0
C627 C 0.55588 0.53828 0.88284 0.0
C628 C 0.57444 0.5567 0.92066 0.0
C629 C 0.51552 0.49819 0.88014 0.0
C630 C 0.49189 0.47549 0.91519 0.0
H631 H 0.57231 0.55539 0.85518 0.0
H632 H 0.50193 0.48564 0.85034 0.0
S633 S 0.52635 0.51026 0.02143 0.0
N634 N 0.56647 0.54944 0.99391 0.0
N635 N 0.49034 0.4742 0.98879 0.0
C636 C 0.51032 0.49342 0.95318 0.0
C637 C 0.55171 0.53395 0.95593 0.0
C638 C 0.0628 0.51717 0.07888 0.0
C639 C 1.02263 0.47652 0.0761 0.0
C640 C 0.06345 0.5578 0.07958 0.0
C641 C 1.02396 0.55964 0.07768 0.0
H642 H 0.09407 0.51768 0.08095 0.0
H643 H 0.09527 0.58803 0.08176 0.0
S644 S 0.9098 0.46267 0.06903 0.0
N645 N 0.94236 0.44104 0.06897 0.0
N646 N 0.9433 0.51657 0.07358 0.0
C647 C 0.98356 0.51917 0.07475 0.0
C648 C 0.98296 0.47794 0.07324 0.0
C649 C 0.51451 0.03528 0.21303 0.0
C650 C 0.49311 0.03087 0.25026 0.0
C651 C 0.5554 0.03646 0.21131 0.0
C652 C 0.57573 0.03233 0.24668 0.0
H653 H 0.49916 0.03706 0.18508 0.0
H654 H 0.57027 0.03866 0.18191 0.0
S655 S 0.53283 1.02012 0.35154 0.0
N656 N 0.4953 0.02309 0.32326 0.0
N657 N 0.57158 0.0243 0.31992 0.0
C658 C 0.55482 0.02846 0.28408 0.0
C659 C 0.51366 0.02801 0.28588 0.0
C660 C 0.34619 0.33949 0.68632 0.0
C661 C 0.3761 0.37767 0.70806 0.0
C662 C 0.35387 0.33391 0.64559 0.0
C663 C 0.39176 0.36629 0.625 0.0
H664 H 0.31628 0.31399 0.70068 0.0
H665 H 0.33016 0.30375 0.63029 0.0
S666 S 0.48054 0.47217 0.66831 0.0
N667 N 0.44586 0.44768 0.70627 0.0
N668 N 0.45901 0.43833 0.62931 0.0
C669 C 0.42186 0.40465 0.64638 0.0
C670 C 0.41432 0.41008 0.68795 0.0
C671 C 0.03767 0.40114 0.81056 0.0
C672 C 0.0453 0.37045 0.78968 0.0
C673 C 1.02363 0.39431 0.85097 0.0
C674 C 1.01635 0.35636 0.87228 0.0
H675 H 0.04229 0.43067 0.79544 0.0
H676 H 1.01886 0.41929 0.86577 0.0
S677 S 1.03136 0.26545 0.83149 0.0
N678 N 0.04577 0.30108 0.79377 0.0
N679 N 1.01659 0.28676 0.86889 0.0
C680 C 1.02348 0.32506 0.8517 0.0
C681 C 0.03849 0.3324 0.81061 0.0
C682 C 0.683 0.06697 0.9818 0.0
C683 C 0.69225 0.04229 0.95364 0.0
C684 C 0.67582 0.05512 0.02281 0.0
C685 C 0.67845 1.01875 0.0371 0.0
H686 H 0.68161 0.09587 0.97217 0.0
H687 H 0.66854 0.07463 0.04364 0.0
S688 S 0.69815 0.94111 0.97657 0.0
N689 N 0.7005 0.97757 0.94329 0.0
N690 N 0.68899 0.95701 0.02093 0.0
C691 C 0.68759 0.99373 0.00974 0.0
C692 C 0.69406 1.00512 0.96783 0.0
C693 C 0.64715 0.65976 0.15252 0.0
C694 C 0.68147 0.67458 0.12356 0.0
C695 C 0.65422 0.6529 0.19294 0.0
C696 C 0.69599 0.66135 0.20599 0.0
H697 H 0.61463 0.65392 0.14411 0.0
H698 H 0.62716 0.64176 0.21442 0.0
S699 S 0.79626 0.69771 0.143 0.0
N700 N 0.75837 0.69475 0.11103 0.0
N701 N 0.77177 0.68384 0.18777 0.0
C702 C 0.73064 0.67612 0.17785 0.0
C703 C 0.72337 0.6823 0.13641 0.0
C704 C 1.02234 0.63993 0.30752 0.0
C705 C 1.01195 0.66902 0.28747 0.0
C706 C 0.03633 0.64696 0.34792 0.0
C707 C 0.04076 0.68352 0.36994 0.0
H708 H 1.02043 0.61189 0.29161 0.0
H709 H 0.04377 0.62344 0.36197 0.0
S710 S 1.01482 0.76817 0.33174 0.0
N711 N 1.00375 0.73398 0.29325 0.0
N712 N 0.03267 0.74896 0.36844 0.0
C713 C 1.0297 0.71259 0.35037 0.0
C714 C 1.0148 0.70498 0.3093 0.0
C715 C 0.35636 0.03478 0.51663 0.0
C716 C 0.39554 0.04435 0.53732 0.0
C717 C 0.35001 0.02184 0.47585 0.0
C718 C 0.38263 1.01807 0.45395 0.0
H719 H 0.3304 0.03759 0.53194 0.0
H720 H 0.31891 1.01399 0.46161 0.0
S721 S 0.49172 0.04042 0.49352 0.0
N722 N 0.46735 0.04874 0.53272 0.0
N723 N 0.45641 0.02681 0.45554 0.0
C724 C 0.42229 0.02824 0.47402 0.0
C725 C 0.42854 0.04089 0.51574 0.0
loop_
_geom_bond_atom_site_label_1
_geom_bond_atom_site_label_2
_geom_bond_distance
_geom_bond_site_symmetry_2
_ccdc_geom_bond_type
C0 C1 1.351 . S
C0 N3 1.368 . S
C0 H5 0.931 . S
C1 C0 1.351 . S
C1 N2 1.373 . S
C1 H29 0.930 . S
N2 C1 1.373 . S
N2 C4 1.340 . S
N3 C0 1.368 . S
N3 C4 1.321 . S
N3 Co6 2.135 . S
C4 N2 1.340 . S
C4 N3 1.321 . S
C4 H28 0.930 . S
H5 C0 0.931 . S
Co6 N3 2.135 . S
Co6 N9 2.121 . S
Co6 O14 2.055 . S
Co6 O17 2.039 . S
Co6 N20 2.140 . S
C7 O8 1.227 . S
C7 O17 1.265 . S
O8 C7 1.227 . S
N9 Co6 2.121 . S
N9 C11 1.375 . S
N9 C12 1.313 . S
C10 C11 1.338 . S
C10 N13 1.377 . S
C10 H30 0.930 . S
C11 N9 1.375 . S
C11 C10 1.338 . S
C11 H15 0.931 . S
C12 N9 1.313 . S
C12 N13 1.344 . S
C12 H16 0.930 . S
N13 C10 1.377 . S
N13 C12 1.344 . S
O14 Co6 2.055 . S
O14 C18 1.253 . S
H15 C11 0.931 . S
H16 C12 0.930 . S
O17 Co6 2.039 . S
O17 C7 1.265 . S
C18 O14 1.253 . S
C18 O19 1.227 . S
O19 C18 1.227 . S
N20 Co6 2.140 . S
N20 C23 1.346 . S
N20 C24 1.345 . S
C21 C22 1.387 . S
C21 C25 1.391 . S
C22 C21 1.387 . S
C22 C23 1.369 . S
C22 H31 0.929 . S
C23 N20 1.346 . S
C23 C22 1.369 . S
C23 H26 0.928 . S
C24 N20 1.345 . S
C24 C25 1.371 . S
C24 H27 0.931 . S
C25 C21 1.391 . S
C25 C24 1.371 . S
C25 H32 0.930 . S
H26 C23 0.928 . S
H27 C24 0.931 . S
H28 C4 0.930 . S
H29 C1 0.930 . S
H30 C10 0.930 . S
H31 C22 0.929 . S
H32 C25 0.930 . S
C33 C34 1.351 . S
C33 N36 1.368 . S
C33 H38 0.931 . S
C34 C33 1.351 . S
C34 N35 1.373 . S
C34 H62 0.930 . S
N35 C34 1.373 . S
N35 C37 1.340 . S
N36 C33 1.368 . S
N36 C37 1.321 . S
N36 Co39 2.135 . S
C37 N35 1.340 . S
C37 N36 1.321 . S
C37 H61 0.930 1_455 S
H38 C33 0.931 . S
Co39 N36 2.135 . S
Co39 N42 2.121 . S
Co39 O47 2.055 . S
Co39 O50 2.039 . S
Co39 N53 2.140 . S
C40 O41 1.227 . S
C40 O50 1.265 1_655 S
O41 C40 1.227 . S
N42 Co39 2.121 . S
N42 C44 1.375 . S
N42 C45 1.313 . S
C43 C44 1.338 . S
C43 N46 1.377 . S
C43 H63 0.930 . S
C44 N42 1.375 . S
C44 C43 1.338 . S
C44 H48 0.931 . S
C45 N42 1.313 . S
C45 N46 1.344 . S
C45 H49 0.930 . S
N46 C43 1.377 . S
N46 C45 1.344 . S
O47 Co39 2.055 . S
O47 C51 1.253 . S
H48 C44 0.931 . S
H49 C45 0.930 . S
O50 Co39 2.039 . S
O50 C40 1.265 1_455 S
C51 O47 1.253 . S
C51 O52 1.227 . S
O52 C51 1.227 . S
N53 Co39 2.140 . S
N53 C56 1.346 . S
N53 C57 1.345 . S
C54 C55 1.387 . S
C54 C58 1.391 . S
C55 C54 1.387 . S
C55 C56 1.369 . S
C55 H64 0.912 1_455 S
C56 N53 1.346 . S
C56 C55 1.369 . S
C56 H59 0.928 . S
C57 N53 1.345 . S
C57 C58 1.371 . S
C57 H60 0.931 . S
C58 C54 1.391 . S
C58 C57 1.371 . S
C58 H65 0.930 . S
H59 C56 0.928 . S
H60 C57 0.931 . S
H61 C37 0.930 1_655 S
H62 C34 0.930 . S
H63 C43 0.930 . S
H64 C55 0.912 1_655 S
H65 C58 0.930 . S
C66 C67 1.351 . S
C66 N69 1.368 . S
C66 H71 0.931 . S
C67 C66 1.351 . S
C67 N68 1.373 . S
C67 H95 0.930 . S
N68 C67 1.373 . S
N68 C70 1.340 . S
N69 C66 1.368 . S
N69 C70 1.321 . S
N69 Co72 2.135 . S
C70 N68 1.340 . S
C70 N69 1.321 . S
C70 H94 0.930 1_545 S
H71 C66 0.931 . S
Co72 N69 2.135 . S
Co72 N75 2.121 . S
Co72 O80 2.055 . S
Co72 O83 2.039 . S
Co72 N86 2.140 . S
C73 O74 1.227 . S
C73 O83 1.265 1_565 S
O74 C73 1.227 . S
N75 Co72 2.121 . S
N75 C77 1.375 . S
N75 C78 1.313 . S
C76 C77 1.338 . S
C76 N79 1.377 . S
C76 H96 0.930 . S
C77 N75 1.375 . S
C77 C76 1.338 . S
C77 H81 0.931 . S
C78 N75 1.313 . S
C78 N79 1.344 . S
C78 H82 0.930 . S
N79 C76 1.377 . S
N79 C78 1.344 . S
O80 Co72 2.055 . S
O80 C84 1.253 . S
H81 C77 0.931 . S
H82 C78 0.930 . S
O83 Co72 2.039 . S
O83 C73 1.265 1_545 S
C84 O80 1.253 . S
C84 O85 1.227 . S
O85 C84 1.227 . S
N86 Co72 2.140 . S
N86 C89 1.346 . S
N86 C90 1.345 . S
C87 C88 1.387 . S
C87 C91 1.391 . S
C88 C87 1.387 . S
C88 C89 1.369 . S
C88 H97 0.924 1_545 S
C89 N86 1.346 . S
C89 C88 1.369 . S
C89 H92 0.928 . S
C90 N86 1.345 . S
C90 C91 1.371 . S
C90 H93 0.931 . S
C91 C87 1.391 . S
C91 C90 1.371 . S
C91 H98 0.930 . S
H92 C89 0.928 . S
H93 C90 0.931 . S
H94 C70 0.930 1_565 S
H95 C67 0.930 . S
H96 C76 0.930 . S
H97 C88 0.924 1_565 S
H98 C91 0.930 . S
C99 C100 1.351 . S
C99 N102 1.368 . S
C99 H104 0.931 . S
C100 C99 1.351 . S
C100 N101 1.373 . S
C100 H128 0.930 . S
N101 C100 1.373 . S
N101 C103 1.340 . S
N102 C99 1.368 . S
N102 C103 1.321 . S
N102 Co105 2.135 1_554 S
C103 N101 1.340 . S
C103 N102 1.321 . S
C103 H127 0.930 . S
H104 C99 0.931 . S
Co105 N102 2.135 1_556 S
Co105 N108 2.121 . S
Co105 O113 2.055 1_556 S
Co105 O116 2.039 . S
Co105 N119 2.140 . S
C106 O107 1.227 . S
C106 O116 1.265 . S
O107 C106 1.227 . S
N108 Co105 2.121 . S
N108 C110 1.375 . S
N108 C111 1.313 . S
C109 C110 1.338 . S
C109 N112 1.377 . S
C109 H129 0.930 . S
C110 N108 1.375 . S
C110 C109 1.338 . S
C110 H114 0.931 . S
C111 N108 1.313 . S
C111 N112 1.344 . S
C111 H115 0.930 . S
N112 C109 1.377 . S
N112 C111 1.344 . S
O113 Co105 2.055 1_554 S
O113 C117 1.253 . S
H114 C110 0.931 . S
H115 C111 0.930 . S
O116 Co105 2.039 . S
O116 C106 1.265 . S
C117 O113 1.253 . S
C117 O118 1.222 1_554 S
O118 C117 1.222 1_556 S
N119 Co105 2.140 . S
N119 C122 1.346 . S
N119 C123 1.345 . S
C120 C121 1.387 . S
C120 C124 1.391 . S
C121 C120 1.387 . S
C121 C122 1.369 . S
C121 H130 0.929 . S
C122 N119 1.346 . S
C122 C121 1.369 . S
C122 H125 0.928 . S
C123 N119 1.345 . S
C123 C124 1.371 . S
C123 H126 0.931 . S
C124 C120 1.391 . S
C124 C123 1.371 . S
C124 H131 0.930 . S
H125 C122 0.928 . S
H126 C123 0.931 . S
H127 C103 0.930 . S
H128 C100 0.930 . S
H129 C109 0.930 . S
H130 C121 0.929 . S
H131 C124 0.930 . S
C132 C133 1.351 . S
C132 N135 1.368 . S
C132 H137 0.931 . S
C133 C132 1.351 . S
C133 N134 1.373 . S
C133 H161 0.930 . S
N134 C133 1.373 . S
N134 C136 1.340 . S
N135 C132 1.368 . S
N135 C136 1.321 . S
N135 Co138 2.135 . S
C136 N134 1.340 . S
C136 N135 1.321 . S
C136 H160 0.930 1_655 S
H137 C132 0.931 . S
Co138 N135 2.135 . S
Co138 N141 2.121 . S
Co138 O146 2.055 . S
Co138 O149 2.039 . S
Co138 N152 2.140 . S
C139 O140 1.227 . S
C139 O149 1.265 1_455 S
O140 C139 1.227 . S
N141 Co138 2.121 . S
N141 C143 1.375 . S
N141 C144 1.313 . S
C142 C143 1.338 . S
C142 N145 1.377 . S
C142 H162 0.930 . S
C143 N141 1.375 . S
C143 C142 1.338 . S
C143 H147 0.931 . S
C144 N141 1.313 . S
C144 N145 1.344 . S
C144 H148 0.930 . S
N145 C142 1.377 . S
N145 C144 1.344 . S
O146 Co138 2.055 . S
O146 C150 1.253 . S
H147 C143 0.931 . S
H148 C144 0.930 . S
O149 Co138 2.039 . S
O149 C139 1.265 1_655 S
C150 O146 1.253 . S
C150 O151 1.227 . S
O151 C150 1.227 . S
N152 Co138 2.140 . S
N152 C155 1.346 . S
N152 C156 1.345 . S
C153 C154 1.387 . S
C153 C157 1.391 . S
C154 C153 1.387 . S
C154 C155 1.369 . S
C154 H163 0.912 1_655 S
C155 N152 1.346 . S
C155 C154 1.369 . S
C155 H158 0.928 . S
C156 N152 1.345 . S
C156 C157 1.371 . S
C156 H159 0.931 . S
C157 C153 1.391 . S
C157 C156 1.371 . S
C157 H164 0.930 . S
H158 C155 0.928 . S
H159 C156 0.931 . S
H160 C136 0.930 1_455 S
H161 C133 0.930 . S
H162 C142 0.930 . S
H163 C154 0.912 1_455 S
H164 C157 0.930 . S
C165 C166 1.351 . S
C165 N168 1.368 . S
C165 H170 0.931 . S
C166 C165 1.351 . S
C166 N167 1.373 . S
C166 H194 0.930 . S
N167 C166 1.373 . S
N167 C169 1.340 . S
N168 C165 1.368 . S
N168 C169 1.321 . S
N168 Co171 2.135 . S
C169 N167 1.340 . S
C169 N168 1.321 . S
C169 H193 0.930 1_565 S
H170 C165 0.931 . S
Co171 N168 2.135 . S
Co171 N174 2.121 . S
Co171 O179 2.055 . S
Co171 O182 2.039 . S
Co171 N185 2.140 . S
C172 O173 1.227 . S
C172 O182 1.265 1_545 S
O173 C172 1.227 . S
N174 Co171 2.121 . S
N174 C176 1.375 . S
N174 C177 1.313 . S
C175 C176 1.338 . S
C175 N178 1.377 . S
C175 H195 0.930 . S
C176 N174 1.375 . S
C176 C175 1.338 . S
C176 H180 0.931 . S
C177 N174 1.313 . S
C177 N178 1.344 . S
C177 H181 0.930 . S
N178 C175 1.377 . S
N178 C177 1.344 . S
O179 Co171 2.055 . S
O179 C183 1.253 . S
H180 C176 0.931 . S
H181 C177 0.930 . S
O182 Co171 2.039 . S
O182 C172 1.265 1_565 S
C183 O179 1.253 . S
C183 O184 1.227 . S
O184 C183 1.227 . S
N185 Co171 2.140 . S
N185 C188 1.346 . S
N185 C189 1.345 . S
C186 C187 1.387 . S
C186 C190 1.391 . S
C187 C186 1.387 . S
C187 C188 1.369 . S
C187 H196 0.924 1_565 S
C188 N185 1.346 . S
C188 C187 1.369 . S
C188 H191 0.928 . S
C189 N185 1.345 . S
C189 C190 1.371 . S
C189 H192 0.931 . S
C190 C186 1.391 . S
C190 C189 1.371 . S
C190 H197 0.930 . S
H191 C188 0.928 . S
H192 C189 0.931 . S
H193 C169 0.930 1_545 S
H194 C166 0.930 . S
H195 C175 0.930 . S
H196 C187 0.924 1_545 S
H197 C190 0.930 . S
C198 C199 1.351 . S
C198 N201 1.368 . S
C198 H203 0.931 . S
C199 C198 1.351 . S
C199 N200 1.373 . S
C199 H227 0.930 . S
N200 C199 1.373 . S
N200 C202 1.340 . S
N201 C198 1.368 . S
N201 C202 1.321 . S
N201 Co204 2.135 . S
C202 N200 1.340 . S
C202 N201 1.321 . S
C202 H226 0.930 . S
H203 C198 0.931 . S
Co204 N201 2.135 . S
Co204 N207 2.121 . S
Co204 O212 2.055 . S
Co204 O215 2.039 . S
Co204 N218 2.140 . S
C205 O206 1.227 . S
C205 O215 1.265 . S
O206 C205 1.227 . S
N207 Co204 2.121 . S
N207 C209 1.375 . S
N207 C210 1.313 . S
C208 C209 1.338 . S
C208 N211 1.377 . S
C208 H228 0.930 . S
C209 N207 1.375 . S
C209 C208 1.338 . S
C209 H213 0.931 . S
C210 N207 1.313 . S
C210 N211 1.344 . S
C210 H214 0.930 . S
N211 C208 1.377 . S
N211 C210 1.344 . S
O212 Co204 2.055 . S
O212 C216 1.253 . S
H213 C209 0.931 . S
H214 C210 0.930 . S
O215 Co204 2.039 . S
O215 C205 1.265 . S
C216 O212 1.253 . S
C216 O217 1.227 . S
O217 C216 1.227 . S
N218 Co204 2.140 . S
N218 C221 1.346 . S
N218 C222 1.345 . S
C219 C220 1.387 . S
C219 C223 1.391 . S
C220 C219 1.387 . S
C220 C221 1.369 . S
C220 H229 0.929 . S
C221 N218 1.346 . S
C221 C220 1.369 . S
C221 H224 0.928 . S
C222 N218 1.345 . S
C222 C223 1.371 . S
C222 H225 0.931 . S
C223 C219 1.391 . S
C223 C222 1.371 . S
C223 H230 0.930 . S
H224 C221 0.928 . S
H225 C222 0.931 . S
H226 C202 0.930 . S
H227 C199 0.930 . S
H228 C208 0.930 . S
H229 C220 0.929 . S
H230 C223 0.930 . S
C231 C232 1.351 . S
C231 N234 1.368 . S
C231 H236 0.931 . S
C232 C231 1.351 . S
C232 N233 1.373 . S
C232 H260 0.930 . S
N233 C232 1.373 . S
N233 C235 1.340 . S
N234 C231 1.368 . S
N234 C235 1.321 . S
N234 Co237 2.135 . S
C235 N233 1.340 . S
C235 N234 1.321 . S
C235 H259 0.930 1_455 S
H236 C231 0.931 . S
Co237 N234 2.135 . S
Co237 N240 2.121 . S
Co237 O245 2.055 . S
Co237 O248 2.039 . S
Co237 N251 2.140 . S
C238 O239 1.227 . S
C238 O248 1.265 1_655 S
O239 C238 1.227 . S
N240 Co237 2.121 . S
N240 C242 1.375 . S
N240 C243 1.313 . S
C241 C242 1.338 . S
C241 N244 1.377 . S
C241 H261 0.930 . S
C242 N240 1.375 . S
C242 C241 1.338 . S
C242 H246 0.931 . S
C243 N240 1.313 . S
C243 N244 1.344 . S
C243 H247 0.930 . S
N244 C241 1.377 . S
N244 C243 1.344 . S
O245 Co237 2.055 . S
O245 C249 1.253 . S
H246 C242 0.931 . S
H247 C243 0.930 . S
O248 Co237 2.039 . S
O248 C238 1.265 1_455 S
C249 O245 1.253 . S
C249 O250 1.227 . S
O250 C249 1.227 . S
N251 Co237 2.140 . S
N251 C254 1.346 . S
N251 C255 1.345 . S
C252 C253 1.387 . S
C252 C256 1.391 . S
C253 C252 1.387 . S
C253 C254 1.369 . S
C253 H262 0.924 1_455 S
C254 N251 1.346 . S
C254 C253 1.369 . S
C254 H257 0.928 . S
C255 N251 1.345 . S
C255 C256 1.371 . S
C255 H258 0.931 . S
C256 C252 1.391 . S
C256 C255 1.371 . S
C256 H263 0.930 . S
H257 C254 0.928 . S
H258 C255 0.931 . S
H259 C235 0.930 1_655 S
H260 C232 0.930 . S
H261 C241 0.930 . S
H262 C253 0.924 1_655 S
H263 C256 0.930 . S
C264 C265 1.351 . S
C264 N267 1.368 . S
C264 H269 0.931 . S
C265 C264 1.351 . S
C265 N266 1.373 . S
C265 H293 0.930 . S
N266 C265 1.373 . S
N266 C268 1.340 . S
N267 C264 1.368 . S
N267 C268 1.321 . S
N267 Co270 2.135 . S
C268 N266 1.340 . S
C268 N267 1.321 . S
C268 H292 0.930 1_545 S
H269 C264 0.931 . S
Co270 N267 2.135 . S
Co270 N273 2.121 . S
Co270 O278 2.055 . S
Co270 O281 2.039 . S
Co270 N284 2.140 . S
C271 O272 1.227 . S
C271 O281 1.265 1_565 S
O272 C271 1.227 . S
N273 Co270 2.121 . S
N273 C275 1.375 . S
N273 C276 1.313 . S
C274 C275 1.338 . S
C274 N277 1.377 . S
C274 H294 0.930 . S
C275 N273 1.375 . S
C275 C274 1.338 . S
C275 H279 0.931 . S
C276 N273 1.313 . S
C276 N277 1.344 . S
C276 H280 0.930 . S
N277 C274 1.377 . S
N277 C276 1.344 . S
O278 Co270 2.055 . S
O278 C282 1.253 . S
H279 C275 0.931 . S
H280 C276 0.930 . S
O281 Co270 2.039 . S
O281 C271 1.265 1_545 S
C282 O278 1.253 . S
C282 O283 1.227 . S
O283 C282 1.227 . S
N284 Co270 2.140 . S
N284 C287 1.346 . S
N284 C288 1.345 . S
C285 C286 1.387 . S
C285 C289 1.391 . S
C286 C285 1.387 . S
C286 C287 1.369 . S
C286 H295 0.912 1_545 S
C287 N284 1.346 . S
C287 C286 1.369 . S
C287 H290 0.928 . S
C288 N284 1.345 . S
C288 C289 1.371 . S
C288 H291 0.931 . S
C289 C285 1.391 . S
C289 C288 1.371 . S
C289 H296 0.930 . S
H290 C287 0.928 . S
H291 C288 0.931 . S
H292 C268 0.930 1_565 S
H293 C265 0.930 . S
H294 C274 0.930 . S
H295 C286 0.912 1_565 S
H296 C289 0.930 . S
C297 C298 1.351 . S
C297 N300 1.368 . S
C297 H302 0.931 . S
C298 C297 1.351 . S
C298 N299 1.373 . S
C298 H326 0.930 . S
N299 C298 1.373 . S
N299 C301 1.340 . S
N300 C297 1.368 . S
N300 C301 1.321 . S
N300 Co303 2.135 . S
C301 N299 1.340 . S
C301 N300 1.321 . S
C301 H325 0.930 . S
H302 C297 0.931 . S
Co303 N300 2.135 . S
Co303 N306 2.121 . S
Co303 O311 2.055 . S
Co303 O314 2.039 . S
Co303 N317 2.140 . S
C304 O305 1.227 . S
C304 O314 1.265 . S
O305 C304 1.227 . S
N306 Co303 2.121 . S
N306 C308 1.375 . S
N306 C309 1.313 . S
C307 C308 1.338 . S
C307 N310 1.377 . S
C307 H327 0.930 . S
C308 N306 1.375 . S
C308 C307 1.338 . S
C308 H312 0.931 . S
C309 N306 1.313 . S
C309 N310 1.344 . S
C309 H313 0.930 . S
N310 C307 1.377 . S
N310 C309 1.344 . S
O311 Co303 2.055 . S
O311 C315 1.253 . S
H312 C308 0.931 . S
H313 C309 0.930 . S
O314 Co303 2.039 . S
O314 C304 1.265 . S
C315 O311 1.253 . S
C315 O316 1.227 . S
O316 C315 1.227 . S
N317 Co303 2.140 . S
N317 C320 1.346 . S
N317 C321 1.345 . S
C318 C319 1.387 . S
C318 C322 1.391 . S
C319 C318 1.387 . S
C319 C320 1.369 . S
C319 H328 0.929 . S
C320 N317 1.346 . S
C320 C319 1.369 . S
C320 H323 0.928 . S
C321 N317 1.345 . S
C321 C322 1.371 . S
C321 H324 0.931 . S
C322 C318 1.391 . S
C322 C321 1.371 . S
C322 H329 0.930 . S
H323 C320 0.928 . S
H324 C321 0.931 . S
H325 C301 0.930 . S
H326 C298 0.930 . S
H327 C307 0.930 . S
H328 C319 0.929 . S
H329 C322 0.930 . S
C330 C331 1.351 . S
C330 N333 1.368 . S
C330 H335 0.931 . S
C331 C330 1.351 . S
C331 N332 1.373 . S
C331 H359 0.930 . S
N332 C331 1.373 . S
N332 C334 1.340 . S
N333 C330 1.368 . S
N333 C334 1.321 . S
N333 Co336 2.135 1_556 S
C334 N332 1.340 . S
C334 N333 1.321 . S
C334 H358 0.930 1_655 S
H335 C330 0.931 . S
Co336 N333 2.135 1_554 S
Co336 N339 2.121 . S
Co336 O344 2.055 1_554 S
Co336 O347 2.039 . S
Co336 N350 2.140 . S
C337 O338 1.227 . S
C337 O347 1.265 1_455 S
O338 C337 1.227 . S
N339 Co336 2.121 . S
N339 C341 1.375 . S
N339 C342 1.313 . S
C340 C341 1.338 . S
C340 N343 1.377 . S
C340 H360 0.930 . S
C341 N339 1.375 . S
C341 C340 1.338 . S
C341 H345 0.931 . S
C342 N339 1.313 . S
C342 N343 1.344 . S
C342 H346 0.930 . S
N343 C340 1.377 . S
N343 C342 1.344 . S
O344 Co336 2.055 1_556 S
O344 C348 1.253 . S
H345 C341 0.931 . S
H346 C342 0.930 . S
O347 Co336 2.039 . S
O347 C337 1.265 1_655 S
C348 O344 1.253 . S
C348 O349 1.222 1_556 S
O349 C348 1.222 1_554 S
N350 Co336 2.140 . S
N350 C353 1.346 . S
N350 C354 1.345 . S
C351 C352 1.387 . S
C351 C355 1.391 . S
C352 C351 1.387 . S
C352 C353 1.369 . S
C352 H361 0.924 1_655 S
C353 N350 1.346 . S
C353 C352 1.369 . S
C353 H356 0.928 . S
C354 N350 1.345 . S
C354 C355 1.371 . S
C354 H357 0.931 . S
C355 C351 1.391 . S
C355 C354 1.371 . S
C355 H362 0.930 . S
H356 C353 0.928 . S
H357 C354 0.931 . S
H358 C334 0.930 1_455 S
H359 C331 0.930 . S
H360 C340 0.930 . S
H361 C352 0.924 1_455 S
H362 C355 0.930 . S
C363 C364 1.351 . S
C363 N366 1.368 . S
C363 H368 0.931 . S
C364 C363 1.351 . S
C364 N365 1.373 . S
C364 H392 0.930 . S
N365 C364 1.373 . S
N365 C367 1.340 . S
N366 C363 1.368 . S
N366 C367 1.321 . S
N366 Co369 2.135 . S
C367 N365 1.340 . S
C367 N366 1.321 . S
C367 H391 0.930 1_565 S
H368 C363 0.931 . S
Co369 N366 2.135 . S
Co369 N372 2.121 . S
Co369 O377 2.055 . S
Co369 O380 2.039 . S
Co369 N383 2.140 . S
C370 O371 1.227 . S
C370 O380 1.265 1_545 S
O371 C370 1.227 . S
N372 Co369 2.121 . S
N372 C374 1.375 . S
N372 C375 1.313 . S
C373 C374 1.338 . S
C373 N376 1.377 . S
C373 H393 0.930 . S
C374 N372 1.375 . S
C374 C373 1.338 . S
C374 H378 0.931 . S
C375 N372 1.313 . S
C375 N376 1.344 . S
C375 H379 0.930 . S
N376 C373 1.377 . S
N376 C375 1.344 . S
O377 Co369 2.055 . S
O377 C381 1.253 . S
H378 C374 0.931 . S
H379 C375 0.930 . S
O380 Co369 2.039 . S
O380 C370 1.265 1_565 S
C381 O377 1.253 . S
C381 O382 1.227 . S
O382 C381 1.227 . S
N383 Co369 2.140 . S
N383 C386 1.346 . S
N383 C387 1.345 . S
C384 C385 1.387 . S
C384 C388 1.391 . S
C385 C384 1.387 . S
C385 C386 1.369 . S
C385 H394 0.912 1_565 S
C386 N383 1.346 . S
C386 C385 1.369 . S
C386 H389 0.928 . S
C387 N383 1.345 . S
C387 C388 1.371 . S
C387 H390 0.931 . S
C388 C384 1.391 . S
C388 C387 1.371 . S
C388 H395 0.930 . S
H389 C386 0.928 . S
H390 C387 0.931 . S
H391 C367 0.930 1_545 S
H392 C364 0.930 . S
H393 C373 0.930 . S
H394 C385 0.912 1_545 S
H395 C388 0.930 . S
C396 C397 1.369 . S
C396 C398 1.419 . S
C396 H400 0.930 . S
C397 C396 1.369 . S
C397 C406 1.429 . S
C398 C396 1.419 . S
C398 C399 1.363 . S
C398 H401 0.929 . S
C399 C398 1.363 . S
C399 C405 1.428 . S
H400 C396 0.930 . S
H401 C398 0.929 . S
S402 N403 1.613 . S
S402 N404 1.610 . S
N403 S402 1.613 . S
N403 C406 1.350 . S
N404 S402 1.610 . S
N404 C405 1.351 . S
C405 C399 1.428 . S
C405 N404 1.351 . S
C405 C406 1.434 . S
C406 C397 1.429 . S
C406 N403 1.350 . S
C406 C405 1.434 . S
C407 C408 1.369 . S
C407 C409 1.419 . S
C407 H411 0.930 . S
C408 C407 1.369 . S
C408 C417 1.429 . S
C409 C407 1.419 . S
C409 C410 1.363 . S
C409 H412 0.929 . S
C410 C409 1.363 . S
C410 C416 1.428 . S
H411 C407 0.930 . S
H412 C409 0.929 . S
S413 N414 1.613 . S
S413 N415 1.610 . S
N414 S413 1.613 . S
N414 C417 1.350 . S
N415 S413 1.610 . S
N415 C416 1.351 . S
C416 C410 1.428 . S
C416 N415 1.351 . S
C416 C417 1.434 . S
C417 C408 1.429 . S
C417 N414 1.350 . S
C417 C416 1.434 . S
C418 C419 1.369 . S
C418 C420 1.419 . S
C418 H422 0.930 . S
C419 C418 1.369 . S
C419 C428 1.429 . S
C420 C418 1.419 . S
C420 C421 1.363 . S
C420 H423 0.929 . S
C421 C420 1.363 . S
C421 C427 1.428 . S
H422 C418 0.930 . S
H423 C420 0.929 . S
S424 N425 1.613 . S
S424 N426 1.610 . S
N425 S424 1.613 . S
N425 C428 1.350 . S
N426 S424 1.610 . S
N426 C427 1.351 . S
C427 C421 1.428 . S
C427 N426 1.351 . S
C427 C428 1.434 . S
C428 C419 1.429 . S
C428 N425 1.350 . S
C428 C427 1.434 . S
C429 C430 1.369 . S
C429 C431 1.419 . S
C429 H433 0.930 . S
C430 C429 1.369 . S
C430 C439 1.429 . S
C431 C429 1.419 . S
C431 C432 1.363 . S
C431 H434 0.929 . S
C432 C431 1.363 . S
C432 C438 1.428 . S
H433 C429 0.930 . S
H434 C431 0.929 . S
S435 N436 1.613 . S
S435 N437 1.610 . S
N436 S435 1.613 . S
N436 C439 1.350 . S
N437 S435 1.610 . S
N437 C438 1.351 . S
C438 C432 1.428 . S
C438 N437 1.351 . S
C438 C439 1.434 . S
C439 C430 1.429 . S
C439 N436 1.350 . S
C439 C438 1.434 . S
C440 C441 1.369 . S
C440 C442 1.419 . S
C440 H444 0.930 . S
C441 C440 1.369 . S
C441 C450 1.429 . S
C442 C440 1.419 . S
C442 C443 1.363 . S
C442 H445 0.929 . S
C443 C442 1.363 . S
C443 C449 1.428 . S
H444 C440 0.930 . S
H445 C442 0.929 . S
S446 N447 1.613 . S
S446 N448 1.610 . S
N447 S446 1.613 . S
N447 C450 1.350 . S
N448 S446 1.610 . S
N448 C449 1.351 . S
C449 C443 1.428 . S
C449 N448 1.351 . S
C449 C450 1.434 . S
C450 C441 1.429 . S
C450 N447 1.350 . S
C450 C449 1.434 . S
C451 C452 1.369 . S
C451 C453 1.419 . S
C451 H455 0.930 . S
C452 C451 1.369 . S
C452 C461 1.429 . S
C453 C451 1.419 . S
C453 C454 1.363 . S
C453 H456 0.929 . S
C454 C453 1.363 . S
C454 C460 1.428 . S
H455 C451 0.930 . S
H456 C453 0.929 . S
S457 N458 1.613 . S
S457 N459 1.610 . S
N458 S457 1.613 . S
N458 C461 1.350 . S
N459 S457 1.610 . S
N459 C460 1.351 . S
C460 C454 1.428 . S
C460 N459 1.351 . S
C460 C461 1.434 . S
C461 C452 1.429 . S
C461 N458 1.350 . S
C461 C460 1.434 . S
C462 C463 1.369 . S
C462 C464 1.419 . S
C462 H466 0.930 . S
C463 C462 1.369 . S
C463 C472 1.429 . S
C464 C462 1.419 . S
C464 C465 1.363 . S
C464 H467 0.929 . S
C465 C464 1.363 . S
C465 C471 1.428 . S
H466 C462 0.930 . S
H467 C464 0.929 . S
S468 N469 1.613 . S
S468 N470 1.610 . S
N469 S468 1.613 . S
N469 C472 1.350 . S
N470 S468 1.610 . S
N470 C471 1.351 . S
C471 C465 1.428 . S
C471 N470 1.351 . S
C471 C472 1.434 . S
C472 C463 1.429 . S
C472 N469 1.350 . S
C472 C471 1.434 . S
C473 C474 1.369 . S
C473 C475 1.419 . S
C473 H477 0.930 . S
C474 C473 1.369 . S
C474 C483 1.429 . S
C475 C473 1.419 . S
C475 C476 1.363 . S
C475 H478 0.929 . S
C476 C475 1.363 . S
C476 C482 1.428 . S
H477 C473 0.930 . S
H478 C475 0.929 . S
S479 N480 1.613 . S
S479 N481 1.610 . S
N480 S479 1.613 . S
N480 C483 1.350 . S
N481 S479 1.610 . S
N481 C482 1.351 . S
C482 C476 1.428 . S
C482 N481 1.351 . S
C482 C483 1.434 . S
C483 C474 1.429 . S
C483 N480 1.350 . S
C483 C482 1.434 . S
C484 C485 1.369 . S
C484 C486 1.419 . S
C484 H488 0.930 . S
C485 C484 1.369 . S
C485 C494 1.429 . S
C486 C484 1.419 . S
C486 C487 1.363 . S
C486 H489 0.929 . S
C487 C486 1.363 . S
C487 C493 1.428 . S
H488 C484 0.930 . S
H489 C486 0.929 . S
S490 N491 1.613 . S
S490 N492 1.610 . S
N491 S490 1.613 . S
N491 C494 1.350 . S
N492 S490 1.610 . S
N492 C493 1.351 . S
C493 C487 1.428 . S
C493 N492 1.351 . S
C493 C494 1.434 . S
C494 C485 1.429 . S
C494 N491 1.350 . S
C494 C493 1.434 . S
C495 C496 1.369 . S
C495 C497 1.419 . S
C495 H499 0.930 . S
C496 C495 1.369 . S
C496 C505 1.429 . S
C497 C495 1.419 . S
C497 C498 1.363 . S
C497 H500 0.929 . S
C498 C497 1.363 . S
C498 C504 1.428 . S
H499 C495 0.930 . S
H500 C497 0.929 . S
S501 N502 1.613 . S
S501 N503 1.610 . S
N502 S501 1.613 . S
N502 C505 1.350 . S
N503 S501 1.610 . S
N503 C504 1.351 . S
C504 C498 1.428 . S
C504 N503 1.351 . S
C504 C505 1.434 . S
C505 C496 1.429 . S
C505 N502 1.350 . S
C505 C504 1.434 . S
C506 C507 1.369 1_554 S
C506 C508 1.419 . S
C506 H510 0.930 . S
C507 C506 1.369 1_556 S
C507 C516 1.429 . S
C508 C506 1.419 . S
C508 C509 1.363 . S
C508 H511 0.929 . S
C509 C508 1.363 . S
C509 C515 1.428 1_554 S
H510 C506 0.930 . S
H511 C508 0.929 . S
S512 N513 1.613 . S
S512 N514 1.610 . S
N513 S512 1.613 . S
N513 C516 1.350 . S
N514 S512 1.610 . S
N514 C515 1.351 . S
C515 C509 1.428 1_556 S
C515 N514 1.351 . S
C515 C516 1.434 . S
C516 C507 1.429 . S
C516 N513 1.350 . S
C516 C515 1.434 . S
C517 C518 1.369 . S
C517 C519 1.419 . S
C517 H521 0.930 . S
C518 C517 1.369 . S
C518 C527 1.429 . S
C519 C517 1.419 . S
C519 C520 1.363 . S
C519 H522 0.929 . S
C520 C519 1.363 . S
C520 C526 1.428 . S
H521 C517 0.930 . S
H522 C519 0.929 . S
S523 N524 1.613 . S
S523 N525 1.610 . S
N524 S523 1.613 . S
N524 C527 1.350 . S
N525 S523 1.610 . S
N525 C526 1.351 . S
C526 C520 1.428 . S
C526 N525 1.351 . S
C526 C527 1.434 . S
C527 C518 1.429 . S
C527 N524 1.350 . S
C527 C526 1.434 . S
C528 C529 1.369 . S
C528 C530 1.419 . S
C528 H532 0.930 . S
C529 C528 1.369 . S
C529 C538 1.429 . S
C530 C528 1.419 . S
C530 C531 1.363 . S
C530 H533 0.929 . S
C531 C530 1.363 . S
C531 C537 1.428 . S
H532 C528 0.930 . S
H533 C530 0.929 . S
S534 N535 1.613 . S
S534 N536 1.610 . S
N535 S534 1.613 . S
N535 C538 1.350 . S
N536 S534 1.610 . S
N536 C537 1.351 . S
C537 C531 1.428 . S
C537 N536 1.351 . S
C537 C538 1.434 . S
C538 C529 1.429 . S
C538 N535 1.350 . S
C538 C537 1.434 . S
C539 C540 1.369 . S
C539 C541 1.419 . S
C539 H543 0.930 . S
C540 C539 1.369 . S
C540 C549 1.429 . S
C541 C539 1.419 . S
C541 C542 1.363 . S
C541 H544 0.929 . S
C542 C541 1.363 . S
C542 C548 1.428 . S
H543 C539 0.930 . S
H544 C541 0.929 . S
S545 N546 1.613 . S
S545 N547 1.610 . S
N546 S545 1.613 . S
N546 C549 1.350 . S
N547 S545 1.610 . S
N547 C548 1.351 . S
C548 C542 1.428 . S
C548 N547 1.351 . S
C548 C549 1.434 . S
C549 C540 1.429 . S
C549 N546 1.350 . S
C549 C548 1.434 . S
C550 C551 1.369 . S
C550 C552 1.419 . S
C550 H554 0.930 . S
C551 C550 1.369 . S
C551 C560 1.429 . S
C552 C550 1.419 . S
C552 C553 1.363 . S
C552 H555 0.929 . S
C553 C552 1.363 . S
C553 C559 1.428 . S
H554 C550 0.930 . S
H555 C552 0.929 . S
S556 N557 1.613 . S
S556 N558 1.610 . S
N557 S556 1.613 . S
N557 C560 1.350 . S
N558 S556 1.610 . S
N558 C559 1.351 . S
C559 C553 1.428 . S
C559 N558 1.351 . S
C559 C560 1.434 . S
C560 C551 1.429 . S
C560 N557 1.350 . S
C560 C559 1.434 . S
C561 C562 1.369 . S
C561 C563 1.419 . S
C561 H565 0.930 . S
C562 C561 1.369 . S
C562 C571 1.429 1_554 S
C563 C561 1.419 . S
C563 C564 1.363 1_554 S
C563 H566 0.929 . S
C564 C563 1.363 1_556 S
C564 C570 1.428 . S
H565 C561 0.930 . S
H566 C563 0.929 . S
S567 N568 1.613 . S
S567 N569 1.610 . S
N568 S567 1.613 . S
N568 C571 1.350 . S
N569 S567 1.610 . S
N569 C570 1.351 . S
C570 C564 1.428 . S
C570 N569 1.351 . S
C570 C571 1.434 . S
C571 C562 1.429 1_556 S
C571 N568 1.350 . S
C571 C570 1.434 . S
C572 C573 1.369 . S
C572 C574 1.419 . S
C572 H576 0.930 . S
C573 C572 1.369 . S
C573 C582 1.429 . S
C574 C572 1.419 . S
C574 C575 1.363 . S
C574 H577 0.929 . S
C575 C574 1.363 . S
C575 C581 1.428 . S
H576 C572 0.930 . S
H577 C574 0.929 . S
S578 N579 1.613 . S
S578 N580 1.610 . S
N579 S578 1.613 . S
N579 C582 1.350 . S
N580 S578 1.610 . S
N580 C581 1.351 . S
C581 C575 1.428 . S
C581 N580 1.351 . S
C581 C582 1.434 . S
C582 C573 1.429 . S
C582 N579 1.350 . S
C582 C581 1.434 . S
C583 C584 1.369 . S
C583 C585 1.419 . S
C583 H587 0.930 . S
C584 C583 1.369 . S
C584 C593 1.429 . S
C585 C583 1.419 . S
C585 C586 1.363 . S
C585 H588 0.929 . S
C586 C585 1.363 . S
C586 C592 1.428 . S
H587 C583 0.930 . S
H588 C585 0.929 . S
S589 N590 1.613 . S
S589 N591 1.610 . S
N590 S589 1.613 . S
N590 C593 1.350 . S
N591 S589 1.610 . S
N591 C592 1.351 . S
C592 C586 1.428 . S
C592 N591 1.351 . S
C592 C593 1.434 . S
C593 C584 1.429 . S
C593 N590 1.350 . S
C593 C592 1.434 . S
C594 C595 1.369 . S
C594 C596 1.419 . S
C594 H598 0.930 . S
C595 C594 1.369 . S
C595 C604 1.429 . S
C596 C594 1.419 . S
C596 C597 1.363 . S
C596 H599 0.929 . S
C597 C596 1.363 . S
C597 C603 1.428 . S
H598 C594 0.930 . S
H599 C596 0.929 . S
S600 N601 1.613 . S
S600 N602 1.610 . S
N601 S600 1.613 . S
N601 C604 1.350 . S
N602 S600 1.610 . S
N602 C603 1.351 . S
C603 C597 1.428 . S
C603 N602 1.351 . S
C603 C604 1.434 . S
C604 C595 1.429 . S
C604 N601 1.350 . S
C604 C603 1.434 . S
C605 C606 1.369 . S
C605 C607 1.419 . S
C605 H609 0.930 . S
C606 C605 1.369 . S
C606 C615 1.429 . S
C607 C605 1.419 . S
C607 C608 1.363 . S
C607 H610 0.929 . S
C608 C607 1.363 . S
C608 C614 1.428 . S
H609 C605 0.930 . S
H610 C607 0.929 . S
S611 N612 1.613 . S
S611 N613 1.610 . S
N612 S611 1.613 . S
N612 C615 1.350 . S
N613 S611 1.610 . S
N613 C614 1.351 . S
C614 C608 1.428 . S
C614 N613 1.351 . S
C614 C615 1.434 . S
C615 C606 1.429 . S
C615 N612 1.350 . S
C615 C614 1.434 . S
C616 C617 1.369 . S
C616 C618 1.419 . S
C616 H620 0.930 1_545 S
C617 C616 1.369 . S
C617 C626 1.429 . S
C618 C616 1.419 . S
C618 C619 1.363 . S
C618 H621 0.929 1_545 S
C619 C618 1.363 . S
C619 C625 1.428 . S
H620 C616 0.930 1_565 S
H621 C618 0.929 1_565 S
S622 N623 1.613 . S
S622 N624 1.610 . S
N623 S622 1.613 . S
N623 C626 1.350 . S
N624 S622 1.610 . S
N624 C625 1.351 . S
C625 C619 1.428 . S
C625 N624 1.351 . S
C625 C626 1.434 . S
C626 C617 1.429 . S
C626 N623 1.350 . S
C626 C625 1.434 . S
C627 C628 1.369 . S
C627 C629 1.419 . S
C627 H631 0.930 . S
C628 C627 1.369 . S
C628 C637 1.429 . S
C629 C627 1.419 . S
C629 C630 1.363 . S
C629 H632 0.929 . S
C630 C629 1.363 . S
C630 C636 1.428 . S
H631 C627 0.930 . S
H632 C629 0.929 . S
S633 N634 1.613 1_554 S
S633 N635 1.610 1_554 S
N634 S633 1.613 1_556 S
N634 C637 1.350 . S
N635 S633 1.610 1_556 S
N635 C636 1.351 . S
C636 C630 1.428 . S
C636 N635 1.351 . S
C636 C637 1.434 . S
C637 C628 1.429 . S
C637 N634 1.350 . S
C637 C636 1.434 . S
C638 C639 1.369 . S
C638 C640 1.419 . S
C638 H642 0.930 1_655 S
C639 C638 1.369 . S
C639 C648 1.429 . S
C640 C638 1.419 . S
C640 C641 1.363 . S
C640 H643 0.929 1_655 S
C641 C640 1.363 . S
C641 C647 1.428 . S
H642 C638 0.930 1_455 S
H643 C640 0.929 1_455 S
S644 N645 1.613 . S
S644 N646 1.610 . S
N645 S644 1.613 . S
N645 C648 1.350 . S
N646 S644 1.610 . S
N646 C647 1.351 . S
C647 C641 1.428 . S
C647 N646 1.351 . S
C647 C648 1.434 . S
C648 C639 1.429 . S
C648 N645 1.350 . S
C648 C647 1.434 . S
C649 C650 1.369 . S
C649 C651 1.419 . S
C649 H653 0.930 . S
C650 C649 1.369 . S
C650 C659 1.429 . S
C651 C649 1.419 . S
C651 C652 1.363 . S
C651 H654 0.929 . S
C652 C651 1.363 . S
C652 C658 1.428 . S
H653 C649 0.930 . S
H654 C651 0.929 . S
S655 N656 1.613 . S
S655 N657 1.610 . S
N656 S655 1.613 . S
N656 C659 1.350 . S
N657 S655 1.610 . S
N657 C658 1.351 . S
C658 C652 1.428 . S
C658 N657 1.351 . S
C658 C659 1.434 . S
C659 C650 1.429 . S
C659 N656 1.350 . S
C659 C658 1.434 . S
C660 C661 1.369 . S
C660 C662 1.419 . S
C660 H664 0.930 . S
C661 C660 1.369 . S
C661 C670 1.429 . S
C662 C660 1.419 . S
C662 C663 1.363 . S
C662 H665 0.929 . S
C663 C662 1.363 . S
C663 C669 1.428 . S
H664 C660 0.930 . S
H665 C662 0.929 . S
S666 N667 1.613 . S
S666 N668 1.610 . S
N667 S666 1.613 . S
N667 C670 1.350 . S
N668 S666 1.610 . S
N668 C669 1.351 . S
C669 C663 1.428 . S
C669 N668 1.351 . S
C669 C670 1.434 . S
C670 C661 1.429 . S
C670 N667 1.350 . S
C670 C669 1.434 . S
C671 C672 1.369 . S
C671 C673 1.419 . S
C671 H675 0.930 . S
C672 C671 1.369 . S
C672 C681 1.429 1_655 S
C673 C671 1.419 . S
C673 C674 1.363 1_655 S
C673 H676 0.929 . S
C674 C673 1.363 1_455 S
C674 C680 1.428 . S
H675 C671 0.930 . S
H676 C673 0.929 . S
S677 N678 1.613 . S
S677 N679 1.610 . S
N678 S677 1.613 . S
N678 C681 1.350 . S
N679 S677 1.610 . S
N679 C680 1.351 . S
C680 C674 1.428 . S
C680 N679 1.351 . S
C680 C681 1.434 . S
C681 C672 1.429 1_455 S
C681 N678 1.350 . S
C681 C680 1.434 . S
C682 C683 1.369 1_545 S
C682 C684 1.419 1_556 S
C682 H686 0.930 . S
C683 C682 1.369 1_565 S
C683 C692 1.429 . S
C684 C682 1.419 1_554 S
C684 C685 1.363 . S
C684 H687 0.929 . S
C685 C684 1.363 . S
C685 C691 1.428 1_545 S
H686 C682 0.930 . S
H687 C684 0.929 . S
S688 N689 1.613 1_554 S
S688 N690 1.610 . S
N689 S688 1.613 1_556 S
N689 C692 1.350 . S
N690 S688 1.610 . S
N690 C691 1.351 . S
C691 C685 1.428 1_565 S
C691 N690 1.351 . S
C691 C692 1.434 1_554 S
C692 C683 1.429 . S
C692 N689 1.350 . S
C692 C691 1.434 1_556 S
C693 C694 1.369 . S
C693 C695 1.419 . S
C693 H697 0.930 . S
C694 C693 1.369 . S
C694 C703 1.429 . S
C695 C693 1.419 . S
C695 C696 1.363 . S
C695 H698 0.929 . S
C696 C695 1.363 . S
C696 C702 1.428 . S
H697 C693 0.930 . S
H698 C695 0.929 . S
S699 N700 1.613 . S
S699 N701 1.610 . S
N700 S699 1.613 . S
N700 C703 1.350 . S
N701 S699 1.610 . S
N701 C702 1.351 . S
C702 C696 1.428 . S
C702 N701 1.351 . S
C702 C703 1.434 . S
C703 C694 1.429 . S
C703 N700 1.350 . S
C703 C702 1.434 . S
C704 C705 1.371 1_655 S
C704 C706 1.420 . S
C704 H708 0.927 . S
C705 C704 1.371 1_455 S
C705 C714 1.429 . S
C706 C704 1.420 . S
C706 C707 1.363 . S
C706 H709 0.929 . S
C707 C706 1.363 . S
C707 C713 1.428 1_655 S
H708 C704 0.927 . S
H709 C706 0.929 . S
S710 N711 1.613 . S
S710 N712 1.610 . S
N711 S710 1.613 . S
N711 C714 1.350 . S
N712 S710 1.610 . S
N712 C713 1.351 . S
C713 C707 1.428 1_455 S
C713 N712 1.351 . S
C713 C714 1.434 . S
C714 C705 1.429 . S
C714 N711 1.350 . S
C714 C713 1.434 . S
C715 C716 1.369 . S
C715 C717 1.419 . S
C715 H719 0.930 . S
C716 C715 1.369 . S
C716 C725 1.429 1_565 S
C717 C715 1.419 . S
C717 C718 1.363 1_565 S
C717 H720 0.929 . S
C718 C717 1.363 1_545 S
C718 C724 1.428 . S
H719 C715 0.930 . S
H720 C717 0.929 . S
S721 N722 1.613 . S
S721 N723 1.610 . S
N722 S721 1.613 . S
N722 C725 1.350 . S
N723 S721 1.610 . S
N723 C724 1.351 . S
C724 C718 1.428 . S
C724 N723 1.351 . S
C724 C725 1.434 . S
C725 C716 1.429 1_545 S
C725 N722 1.350 . S
C725 C724 1.434 . S
C397 C282 1.221 . S
C399 C18 1.224 . S
C408 C51 1.225 . S
C410 C315 1.222 . S
C419 C84 1.229 . S
C421 C348 1.219 . S
C430 C117 1.228 . S
C432 C381 1.220 . S
C441 C150 1.223 . S
C443 C216 1.223 . S
C452 C183 1.229 . S
C454 C249 1.219 . S
C463 N13 1.821 . S
C465 C172 1.771 . S
C474 C7 1.777 . S
C476 N46 1.821 . S
C485 N79 1.822 . S
C487 C40 1.772 . S
C496 C73 1.769 . S
C498 N112 1.819 . S
C507 C106 1.774 . S
C509 N145 1.822 . S
C518 N178 1.821 . S
C520 C139 1.776 . S
C529 C238 1.776 . S
C531 N211 1.820 . S
C540 C271 1.775 . S
C542 N244 1.822 . S
C551 C304 1.770 . S
C553 N277 1.821 . S
C562 C337 1.769 . S
C564 N310 1.819 . S
C573 C370 1.777 . S
C575 N343 1.821 . S
C584 N376 1.818 . S
C586 C205 1.772 . S
C595 C21 1.398 . S
C597 C219 1.394 . S
C606 C54 1.398 . S
C608 C252 1.393 . S
C617 C87 1.393 . S
C619 C285 1.396 . S
C628 C120 1.392 . S
C630 C318 1.398 . S
C639 C351 1.395 . S
C641 C153 1.395 . S
C650 C186 1.392 . S
C652 C384 1.398 . S
C661 N299 0.914 . S
C663 N2 0.899 . S
C672 N35 0.894 1_655 S
C674 N332 0.903 1_455 S
C683 N68 0.914 1_565 S
C685 N365 0.893 1_545 S
C694 N101 0.916 . S
C696 N200 0.896 . S
C705 N134 0.904 1_455 S
C707 N233 0.895 1_655 S
C716 N266 0.897 1_565 S
C718 N167 0.912 1_545 S
