# Generated by pormake.
# Topology umm, (4)-cn, num edge types: 1
# Building blocks:
#     Node 0, Type 0, BuildingBlock: MUDLON_clean_sbu_0, # of connection points: 4
#     Node 1, Type 0, BuildingBlock: MUDLON_clean_sbu_0, # of connection points: 4
#     Node 2, Type 0, BuildingBlock: MUDLON_clean_sbu_0, # of connection points: 4
#     Node 3, Type 0, BuildingBlock: MUDLON_clean_sbu_0, # of connection points: 4
#     Node 4, Type 0, BuildingBlock: MUDLON_clean_sbu_0, # of connection points: 4
#     Node 5, Type 0, BuildingBlock: MUDLON_clean_sbu_0, # of connection points: 4
#     Node 6, Type 0, BuildingBlock: MUDLON_clean_sbu_0, # of connection points: 4
#     Node 7, Type 0, BuildingBlock: MUDLON_clean_sbu_0, # of connection points: 4
#     Node 8, Type 0, BuildingBlock: MUDLON_clean_sbu_0, # of connection points: 4
#     Node 9, Type 0, BuildingBlock: MUDLON_clean_sbu_0, # of connection points: 4
#     Node 10, Type 0, BuildingBlock: MUDLON_clean_sbu_0, # of connection points: 4
#     Node 11, Type 0, BuildingBlock: MUDLON_clean_sbu_0, # of connection points: 4
#     Edge 12, Type (0, 0), BuildingBlock: MIFKUJ_clean_linker_0, # of connection points: 2
#     Edge 13, Type (0, 0), BuildingBlock: MIFKUJ_clean_linker_0, # of connection points: 2
#     Edge 14, Type (0, 0), BuildingBlock: MIFKUJ_clean_linker_0, # of connection points: 2
#     Edge 15, Type (0, 0), BuildingBlock: MIFKUJ_clean_linker_0, # of connection points: 2
#     Edge 16, Type (0, 0), BuildingBlock: MIFKUJ_clean_linker_0, # of connection points: 2
#     Edge 17, Type (0, 0), BuildingBlock: MIFKUJ_clean_linker_0, # of connection points: 2
#     Edge 18, Type (0, 0), BuildingBlock: MIFKUJ_clean_linker_0, # of connection points: 2
#     Edge 19, Type (0, 0), BuildingBlock: MIFKUJ_clean_linker_0, # of connection points: 2
#     Edge 20, Type (0, 0), BuildingBlock: MIFKUJ_clean_linker_0, # of connection points: 2
#     Edge 21, Type (0, 0), BuildingBlock: MIFKUJ_clean_linker_0, # of connection points: 2
#     Edge 22, Type (0, 0), BuildingBlock: MIFKUJ_clean_linker_0, # of connection points: 2
#     Edge 23, Type (0, 0), BuildingBlock: MIFKUJ_clean_linker_0, # of connection points: 2
#     Edge 24, Type (0, 0), BuildingBlock: MIFKUJ_clean_linker_0, # of connection points: 2
#     Edge 25, Type (0, 0), BuildingBlock: MIFKUJ_clean_linker_0, # of connection points: 2
#     Edge 26, Type (0, 0), BuildingBlock: MIFKUJ_clean_linker_0, # of connection points: 2
#     Edge 27, Type (0, 0), BuildingBlock: MIFKUJ_clean_linker_0, # of connection points: 2
#     Edge 28, Type (0, 0), BuildingBlock: MIFKUJ_clean_linker_0, # of connection points: 2
#     Edge 29, Type (0, 0), BuildingBlock: MIFKUJ_clean_linker_0, # of connection points: 2
#     Edge 30, Type (0, 0), BuildingBlock: MIFKUJ_clean_linker_0, # of connection points: 2
#     Edge 31, Type (0, 0), BuildingBlock: MIFKUJ_clean_linker_0, # of connection points: 2
#     Edge 32, Type (0, 0), BuildingBlock: MIFKUJ_clean_linker_0, # of connection points: 2
#     Edge 33, Type (0, 0), BuildingBlock: MIFKUJ_clean_linker_0, # of connection points: 2
#     Edge 34, Type (0, 0), BuildingBlock: MIFKUJ_clean_linker_0, # of connection points: 2
#     Edge 35, Type (0, 0), BuildingBlock: MIFKUJ_clean_linker_0, # of connection points: 2
# Relax obj value: 0.066
# Max RMSD: 0.172
# Mean RMSD: 0.172
data_MOF--net-umm--node1-MUDLON_clean_sbu_0--edge1-MIFKUJ_clean_linker_0
_symmetry_space_group_name_H-M    P1
_symmetry_Int_Tables_number       1
_symmetry_cell_setting            triclinic
loop_
_symmetry_equiv_pos_as_xyz
'x, y, z'
_cell_length_a     76.064183
_cell_length_b     76.046276
_cell_length_c     38.249826
_cell_angle_alpha  90.186052
_cell_angle_beta   89.975313
_cell_angle_gamma 120.15328
loop_
_atom_site_label
_atom_site_type_symbol
_atom_site_fract_x
_atom_site_fract_y
_atom_site_fract_z
_atom_type_partial_charge
Mg0 Mg 0.39974 0.54538 0.09719 0.0
C1 C 0.4335 0.53811 0.11161 0.0
O2 O 0.43946 0.55623 0.12481 0.0
C3 C 0.36145 0.54231 0.08229 0.0
O4 O 0.37524 0.56169 0.085 0.0
C5 C 0.4007 0.54993 0.1735 0.0
O6 O 0.3927 0.53026 0.1685 0.0
O7 O 0.40554 0.56142 0.14687 0.0
O8 O 0.41579 0.52826 0.09819 0.0
O9 O 0.41038 0.56449 0.05095 0.0
C10 C 0.42727 0.57044 0.03564 0.0
O11 O 0.44116 0.56759 0.05064 0.0
O12 O 0.3669 0.52926 0.08826 0.0
Mg13 Mg 0.86047 0.40231 0.43026 0.0
C14 C 0.90237 0.43692 0.42212 0.0
O15 O 0.89084 0.44422 0.41179 0.0
C16 C 0.82691 0.3594 0.43079 0.0
O17 O 0.82016 0.36851 0.45153 0.0
C18 C 0.85922 0.42359 0.49783 0.0
O19 O 0.87428 0.43946 0.48257 0.0
O20 O 0.85014 0.40678 0.48128 0.0
O21 O 0.89381 0.41836 0.43158 0.0
O22 O 0.8533 0.41461 0.38445 0.0
C23 C 0.83729 0.40447 0.36616 0.0
O24 O 0.82262 0.38708 0.37808 0.0
O25 O 0.84501 0.36967 0.41923 0.0
Mg26 Mg 0.46761 0.85753 0.76178 0.0
C27 C 0.49339 0.90106 0.73421 0.0
O28 O 0.48967 0.89166 0.7039 0.0
C29 C 0.46976 0.82103 0.74949 0.0
O30 O 0.45053 0.81499 0.75548 0.0
C31 C 0.45039 0.861 0.83146 0.0
O32 O 0.4544 0.87838 0.81742 0.0
O33 O 0.45342 0.84868 0.81341 0.0
O34 O 0.48735 0.89058 0.76207 0.0
O35 O 0.44658 0.84917 0.71775 0.0
C36 C 0.44203 0.86134 0.70304 0.0
O37 O 0.44761 0.879 0.7178 0.0
O38 O 0.48259 0.83998 0.75138 0.0
Mg39 Mg 0.61965 0.47157 0.09877 0.0
C40 C 0.5835 0.47552 0.09363 0.0
O41 O 0.57696 0.45597 0.09067 0.0
C42 C 0.66025 0.47778 0.10355 0.0
O43 O 0.64778 0.45885 0.11277 0.0
C44 C 0.61351 0.46452 0.17401 0.0
O45 O 0.62048 0.48408 0.16985 0.0
O46 O 0.61089 0.4537 0.14689 0.0
O47 O 0.60251 0.4876 0.09767 0.0
O48 O 0.61402 0.45601 0.0487 0.0
C49 C 0.60032 0.43877 0.03745 0.0
O50 O 0.58595 0.4261 0.05863 0.0
O51 O 0.65279 0.48919 0.09769 0.0
Mg52 Mg 0.15997 0.60979 0.42238 0.0
C53 C 0.11877 0.57635 0.43533 0.0
O54 O 0.1307 0.56877 0.44082 0.0
C55 C 0.19554 0.64784 0.40353 0.0
O56 O 0.2008 0.63381 0.40283 0.0
C57 C 0.17609 0.61655 0.49547 0.0
O58 O 0.17684 0.63385 0.48882 0.0
O59 O 0.17045 0.60327 0.47124 0.0
O60 O 0.12693 0.59507 0.4272 0.0
O61 O 0.16537 0.59721 0.3749 0.0
C62 C 0.15385 0.5958 0.3496 0.0
O63 O 0.1395 0.60025 0.35541 0.0
O64 O 0.17744 0.64256 0.41264 0.0
Mg65 Mg 0.55533 0.15288 0.74807 0.0
C66 C 0.54725 0.1111 0.76297 0.0
O67 O 0.56436 0.1226 0.77978 0.0
C68 C 0.54483 0.18546 0.75065 0.0
O69 O 0.5606 0.19222 0.77163 0.0
C70 C 0.55862 0.15333 0.82567 0.0
O71 O 0.53987 0.13866 0.81992 0.0
O72 O 0.56975 0.1628 0.79959 0.0
O73 O 0.53878 0.11957 0.74701 0.0
O74 O 0.57568 0.16113 0.70334 0.0
C75 C 0.58403 0.17861 0.68921 0.0
O76 O 0.58291 0.19341 0.70487 0.0
O77 O 0.53758 0.16771 0.73764 0.0
Mg78 Mg 0.46953 0.61107 0.59934 0.0
C79 C 0.47779 0.57815 0.58243 0.0
O80 O 0.45975 0.57212 0.56894 0.0
C81 C 0.47183 0.64916 0.61378 0.0
O82 O 0.45255 0.63523 0.61031 0.0
C83 C 0.45648 0.61689 0.52746 0.0
O84 O 0.4712 0.63559 0.53335 0.0
O85 O 0.45178 0.60359 0.55122 0.0
O86 O 0.48716 0.59555 0.59715 0.0
O87 O 0.45138 0.6007 0.64664 0.0
C88 C 0.44685 0.58448 0.66311 0.0
O89 O 0.45085 0.57112 0.64902 0.0
O90 O 0.48508 0.64392 0.60822 0.0
Mg91 Mg 0.86191 0.46687 0.93906 0.0
C92 C 0.9062 0.49057 0.91632 0.0
O93 O 0.8976 0.48714 0.88537 0.0
C94 C 0.82674 0.4696 0.9616 0.0
O95 O 0.82013 0.45008 0.95766 0.0
C96 C 0.8461 0.43956 0.87134 0.0
O97 O 0.83848 0.42372 0.89215 0.0
O98 O 0.85526 0.45737 0.8844 0.0
O99 O 0.89501 0.48529 0.94343 0.0
O100 O 0.85218 0.44319 0.97888 0.0
C101 C 0.86548 0.44359 0.99959 0.0
O102 O 0.88478 0.45553 0.99212 0.0
O103 O 0.8452 0.48217 0.95403 0.0
Mg104 Mg 0.40412 0.86362 0.27006 0.0
C105 C 0.43831 0.90456 0.27041 0.0
O106 O 0.44571 0.89232 0.2668 0.0
C107 C 0.36208 0.82841 0.26866 0.0
O108 O 0.372 0.82267 0.24779 0.0
C109 C 0.41459 0.84535 0.20355 0.0
O110 O 0.41608 0.83242 0.22427 0.0
O111 O 0.41019 0.85812 0.21637 0.0
O112 O 0.4191 0.89669 0.27281 0.0
O113 O 0.41815 0.85687 0.31385 0.0
C114 C 0.40853 0.84095 0.33241 0.0
O115 O 0.39106 0.82604 0.32106 0.0
O116 O 0.37145 0.84645 0.28085 0.0
Mg117 Mg 0.55181 0.39744 0.60001 0.0
C118 C 0.54479 0.43152 0.60474 0.0
O119 O 0.56399 0.43868 0.6128 0.0
C120 C 0.5488 0.35904 0.61495 0.0
O121 O 0.56802 0.37319 0.61788 0.0
C122 C 0.56766 0.39473 0.52908 0.0
O123 O 0.55397 0.37554 0.53413 0.0
O124 O 0.57122 0.40747 0.5536 0.0
O125 O 0.53396 0.41267 0.59729 0.0
O126 O 0.56593 0.40566 0.65154 0.0
C127 C 0.58342 0.41842 0.6633 0.0
O128 O 0.59781 0.43066 0.64174 0.0
O129 O 0.5362 0.36428 0.6044 0.0
Mg130 Mg 0.15432 0.54339 0.92578 0.0
C131 C 0.11186 0.53065 0.90337 0.0
O132 O 0.1226 0.54301 0.87803 0.0
C133 C 0.18721 0.53319 0.92981 0.0
O134 O 0.19396 0.54755 0.90602 0.0
C135 C 0.17048 0.57258 0.86163 0.0
O136 O 0.17314 0.58683 0.88408 0.0
O137 O 0.16374 0.55451 0.87243 0.0
O138 O 0.12104 0.52655 0.92698 0.0
O139 O 0.16212 0.56601 0.96695 0.0
C140 C 0.17842 0.57259 0.98461 0.0
O141 O 0.19245 0.56868 0.97359 0.0
O142 O 0.16939 0.5266 0.94191 0.0
Mg143 Mg 0.61745 0.16039 0.25869 0.0
C144 C 0.58221 0.11987 0.26376 0.0
O145 O 0.57508 0.13237 0.26085 0.0
C146 C 0.66123 0.19343 0.2541 0.0
O147 O 0.65275 0.19975 0.23129 0.0
C148 C 0.61015 0.18016 0.19127 0.0
O149 O 0.61569 0.19676 0.20963 0.0
O150 O 0.60971 0.16486 0.20558 0.0
O151 O 0.60142 0.12737 0.26391 0.0
O152 O 0.60544 0.16957 0.30238 0.0
C153 C 0.61622 0.18605 0.31921 0.0
O154 O 0.6338 0.19976 0.30625 0.0
O155 O 0.65033 0.17604 0.26799 0.0
H156 H 0.41506 0.58948 0.19451 0.0
H157 H 0.42196 0.6028 0.25447 0.0
H158 H 0.40242 0.5426 0.2936 0.0
H159 H 0.39508 0.52917 0.23421 0.0
H160 H 0.3878 0.56067 0.33347 0.0
H161 H 0.45357 0.57937 0.28401 0.0
H162 H 0.48132 0.59586 0.241 0.0
H163 H 0.48752 0.6539 0.26517 0.0
H164 H 0.45963 0.6377 0.30804 0.0
H165 H 0.43383 0.57852 0.50042 0.0
H166 H 0.42192 0.56907 0.44033 0.0
H167 H 0.44603 0.63231 0.41463 0.0
H168 H 0.45862 0.6419 0.47448 0.0
H169 H 0.45688 0.61548 0.367 0.0
H170 H 0.39326 0.59717 0.42104 0.0
H171 H 0.3657 0.58059 0.46432 0.0
H172 H 0.35525 0.52198 0.43195 0.0
H173 H 0.38292 0.53821 0.38878 0.0
C174 C 0.41218 0.57909 0.21593 0.0
C175 C 0.40459 0.55827 0.20954 0.0
C176 C 0.41618 0.58673 0.25018 0.0
C177 C 0.41291 0.57373 0.27858 0.0
C178 C 0.40503 0.55293 0.27219 0.0
C179 C 0.40091 0.54528 0.23812 0.0
C180 C 0.41797 0.58164 0.315 0.0
C181 C 0.40294 0.57257 0.34087 0.0
C182 C 0.43756 0.59755 0.32455 0.0
C183 C 0.45438 0.60729 0.29892 0.0
C184 C 0.46076 0.59562 0.27996 0.0
C185 C 0.47653 0.60492 0.25565 0.0
C186 C 0.48614 0.6259 0.25028 0.0
C187 C 0.48004 0.63764 0.26931 0.0
C188 C 0.46427 0.62842 0.29363 0.0
C189 C 0.43634 0.5904 0.48213 0.0
C190 C 0.44719 0.61097 0.49223 0.0
C191 C 0.42944 0.58497 0.44774 0.0
C192 C 0.43285 0.59995 0.4229 0.0
C193 C 0.44321 0.62046 0.43324 0.0
C194 C 0.45034 0.62593 0.46751 0.0
C195 C 0.42678 0.59429 0.38571 0.0
C196 C 0.44164 0.60377 0.35966 0.0
C197 C 0.40702 0.57875 0.37601 0.0
C198 C 0.39027 0.56893 0.40182 0.0
C199 C 0.38517 0.58075 0.4233 0.0
C200 C 0.36951 0.57141 0.44779 0.0
C201 C 0.35875 0.55025 0.45093 0.0
C202 C 0.3636 0.53837 0.42951 0.0
C203 C 0.37925 0.54763 0.40498 0.0
H204 H 0.34664 0.54305 0.46992 0.0
H205 H 0.49834 0.63307 0.23144 0.0
H206 H 0.87447 0.45739 0.5395 0.0
H207 H 0.86982 0.45891 0.60236 0.0
H208 H 0.8295 0.39394 0.60434 0.0
H209 H 0.83374 0.39234 0.54115 0.0
H210 H 0.81584 0.41228 0.64733 0.0
H211 H 0.87933 0.41501 0.62904 0.0
H212 H 0.9134 0.42765 0.60367 0.0
H213 H 0.93362 0.48655 0.64879 0.0
H214 H 0.89958 0.47434 0.67403 0.0
H215 H 0.82619 0.40412 0.83307 0.0
H216 H 0.82608 0.40028 0.76936 0.0
H217 H 0.86387 0.46527 0.75862 0.0
H218 H 0.86412 0.46924 0.82193 0.0
H219 H 0.87821 0.44503 0.72039 0.0
H220 H 0.81388 0.44169 0.73817 0.0
H221 H 0.77975 0.42827 0.76377 0.0
H222 H 0.7612 0.36932 0.72041 0.0
H223 H 0.79532 0.38233 0.69493 0.0
C224 C 0.86444 0.44343 0.55318 0.0
C225 C 0.85462 0.42472 0.53526 0.0
C226 C 0.86187 0.44431 0.58922 0.0
C227 C 0.84965 0.42648 0.6083 0.0
C228 C 0.83909 0.40789 0.59026 0.0
C229 C 0.84156 0.407 0.5541 0.0
C230 C 0.84854 0.42722 0.64715 0.0
C231 C 0.82946 0.4192 0.66334 0.0
C232 C 0.86631 0.43642 0.66814 0.0
C233 C 0.88684 0.4438 0.65315 0.0
C234 C 0.891 0.4307 0.63334 0.0
C235 C 0.91031 0.43778 0.61902 0.0
C236 C 0.92565 0.4579 0.62454 0.0
C237 C 0.92172 0.47097 0.64449 0.0
C238 C 0.90242 0.46397 0.65884 0.0
C239 C 0.83438 0.4176 0.81713 0.0
C240 C 0.84516 0.43699 0.8327 0.0
C241 C 0.83425 0.41538 0.78069 0.0
C242 C 0.8449 0.4325 0.75916 0.0
C243 C 0.85556 0.45184 0.77466 0.0
C244 C 0.85562 0.45408 0.81094 0.0
C245 C 0.84554 0.43039 0.72053 0.0
C246 C 0.86458 0.43809 0.70439 0.0
C247 C 0.82774 0.42076 0.69972 0.0
C248 C 0.80722 0.41293 0.71498 0.0
C249 C 0.80258 0.42582 0.73436 0.0
C250 C 0.78322 0.4183 0.74879 0.0
C251 C 0.76834 0.39794 0.74381 0.0
C252 C 0.77276 0.38507 0.7243 0.0
C253 C 0.79209 0.39252 0.70983 0.0
H254 H 0.75336 0.39215 0.75499 0.0
H255 H 0.94059 0.46336 0.61343 0.0
H256 H 0.44649 0.8295 0.87216 0.0
H257 H 0.43981 0.82482 0.93505 0.0
H258 H 0.43419 0.8785 0.93841 0.0
H259 H 0.44124 0.88348 0.87586 0.0
H260 H 0.45788 0.87973 0.98944 0.0
H261 H 0.3924 0.82929 0.9452 0.0
H262 H 0.36849 0.79931 0.91053 0.0
H263 H 0.38705 0.76242 0.9663 0.0
H264 H 0.41127 0.79226 1.00102 0.0
H265 H 0.41397 0.87117 0.15473 0.0
H266 H 0.41966 0.87161 0.09199 0.0
H267 H 0.42854 0.82014 0.10204 0.0
H268 H 0.42266 0.81945 0.16528 0.0
H269 H 0.40463 0.81637 0.04509 0.0
H270 H 0.469 0.86673 0.09115 0.0
H271 H 0.49245 0.89673 0.12622 0.0
H272 H 0.47567 0.93388 0.06682 0.0
H273 H 0.4519 0.90403 0.0317 0.0
C274 C 0.44361 0.84018 0.88621 0.0
C275 C 0.44444 0.85689 0.86889 0.0
C276 C 0.43973 0.83746 0.92222 0.0
C277 C 0.43639 0.85125 0.9416 0.0
C278 C 0.43679 0.86768 0.92415 0.0
C279 C 0.44075 0.87046 0.88827 0.0
C280 C 0.43333 0.8492 0.98024 0.0
C281 C 0.44605 0.86594 1.00149 0.0
C282 C 0.41836 0.831 0.99627 0.0
C283 C 0.4038 0.81306 0.97544 0.0
C284 C 0.3915 0.81482 0.94987 0.0
C285 C 0.37787 0.79785 0.93025 0.0
C286 C 0.3763 0.77899 0.93614 0.0
C287 C 0.38831 0.77705 0.96173 0.0
C288 C 0.40198 0.79398 0.98141 0.0
C289 C 0.41712 0.85989 0.14376 0.0
C290 C 0.41795 0.84532 0.16522 0.0
C291 C 0.42044 0.86022 0.10778 0.0
C292 C 0.42478 0.84608 0.09228 0.0
C293 C 0.42527 0.83125 0.11343 0.0
C294 C 0.42198 0.83093 0.1496 0.0
C295 C 0.42892 0.84703 0.05404 0.0
C296 C 0.41649 0.8301 0.03295 0.0
C297 C 0.44414 0.86507 0.03806 0.0
C298 C 0.45854 0.8831 0.05897 0.0
C299 C 0.4702 0.88126 0.08572 0.0
C300 C 0.48357 0.89825 0.10559 0.0
C301 C 0.48552 0.91719 0.0988 0.0
C302 C 0.47414 0.9192 0.07206 0.0
C303 C 0.46073 0.90225 0.05214 0.0
H304 H 0.49587 0.93032 0.11422 0.0
H305 H 0.36573 0.76586 0.92092 0.0
H306 H 0.61657 0.48428 0.23515 0.0
H307 H 0.61079 0.47089 0.29432 0.0
H308 H 0.59563 0.41187 0.25411 0.0
H309 H 0.60118 0.4252 0.19419 0.0
H310 H 0.5693 0.40903 0.30484 0.0
H311 H 0.64161 0.44234 0.29303 0.0
H312 H 0.6758 0.47061 0.27859 0.0
H313 H 0.66984 0.50809 0.35644 0.0
H314 H 0.63548 0.48013 0.37102 0.0
H315 H 0.56715 0.37133 0.47434 0.0
H316 H 0.57727 0.38186 0.41391 0.0
H317 H 0.59696 0.44398 0.44248 0.0
H318 H 0.5874 0.43362 0.50326 0.0
H319 H 0.62226 0.44325 0.39619 0.0
H320 H 0.54939 0.41169 0.40442 0.0
H321 H 0.51473 0.38418 0.41852 0.0
H322 H 0.52139 0.34417 0.34723 0.0
H323 H 0.5562 0.37139 0.33304 0.0
C324 C 0.61202 0.46843 0.2387 0.0
C325 C 0.60945 0.45584 0.20982 0.0
C326 C 0.60882 0.46082 0.2727 0.0
C327 C 0.60313 0.44046 0.27881 0.0
C328 C 0.60014 0.42768 0.25005 0.0
C329 C 0.60333 0.43531 0.21583 0.0
C330 C 0.60005 0.43266 0.31529 0.0
C331 C 0.58102 0.41625 0.32467 0.0
C332 C 0.61516 0.44238 0.34142 0.0
C333 C 0.63591 0.45917 0.33295 0.0
C334 C 0.64754 0.45665 0.30692 0.0
C335 C 0.66696 0.47262 0.29873 0.0
C336 C 0.67497 0.49114 0.31655 0.0
C337 C 0.66361 0.49373 0.34266 0.0
C338 C 0.64417 0.47782 0.35093 0.0
C339 C 0.57388 0.38729 0.46788 0.0
C340 C 0.57631 0.40161 0.49362 0.0
C341 C 0.57955 0.39328 0.43322 0.0
C342 C 0.58743 0.41365 0.42335 0.0
C343 C 0.59081 0.42815 0.44933 0.0
C344 C 0.58535 0.4222 0.48413 0.0
C345 C 0.59142 0.41976 0.38586 0.0
C346 C 0.61061 0.43587 0.37631 0.0
C347 C 0.57642 0.40984 0.35959 0.0
C348 C 0.55546 0.3935 0.36796 0.0
C349 C 0.54351 0.39698 0.39194 0.0
C350 C 0.52383 0.38145 0.39992 0.0
C351 C 0.51588 0.36242 0.38386 0.0
C352 C 0.52757 0.35891 0.3597 0.0
C353 C 0.54727 0.37438 0.35166 0.0
H354 H 0.50065 0.35041 0.39007 0.0
H355 H 0.69001 0.50349 0.31016 0.0
H356 H 0.16856 0.57992 0.52232 0.0
H357 H 0.17052 0.57189 0.5837 0.0
H358 H 0.19269 0.63452 0.61205 0.0
H359 H 0.19096 0.64269 0.55093 0.0
H360 H 0.21234 0.61881 0.64845 0.0
H361 H 0.14322 0.59992 0.62169 0.0
H362 H 0.11138 0.58229 0.5877 0.0
H363 H 0.1053 0.52459 0.61354 0.0
H364 H 0.1373 0.54191 0.6473 0.0
H365 H 0.18569 0.60949 0.82899 0.0
H366 H 0.18935 0.61629 0.76611 0.0
H367 H 0.1663 0.55262 0.74527 0.0
H368 H 0.16251 0.54568 0.80798 0.0
H369 H 0.14795 0.56752 0.70432 0.0
H370 H 0.21633 0.58678 0.73481 0.0
H371 H 0.24842 0.60486 0.76796 0.0
H372 H 0.25596 0.66222 0.73533 0.0
H373 H 0.22374 0.64448 0.70236 0.0
C374 C 0.17414 0.59204 0.54154 0.0
C375 C 0.17945 0.61192 0.53172 0.0
C376 C 0.17516 0.58741 0.57665 0.0
C377 C 0.18149 0.60255 0.60258 0.0
C378 C 0.18772 0.62258 0.59257 0.0
C379 C 0.18664 0.6272 0.55756 0.0
C380 C 0.18055 0.59743 0.64032 0.0
C381 C 0.19824 0.60771 0.66075 0.0
C382 C 0.16223 0.5827 0.65629 0.0
C383 C 0.14277 0.57222 0.63667 0.0
C384 C 0.13516 0.58348 0.61995 0.0
C385 C 0.11709 0.57355 0.60075 0.0
C386 C 0.10638 0.55235 0.59835 0.0
C387 C 0.11365 0.54102 0.61536 0.0
C388 C 0.13175 0.55088 0.63454 0.0
C389 C 0.18154 0.59695 0.81106 0.0
C390 C 0.17382 0.57704 0.82361 0.0
C391 C 0.1837 0.60087 0.77508 0.0
C392 C 0.17822 0.58498 0.7509 0.0
C393 C 0.17063 0.56513 0.76338 0.0
C394 C 0.16855 0.5612 0.79931 0.0
C395 C 0.17975 0.58895 0.71259 0.0
C396 C 0.16212 0.57849 0.69205 0.0
C397 C 0.19812 0.60356 0.69659 0.0
C398 C 0.21751 0.61429 0.71638 0.0
C399 C 0.22473 0.60325 0.73494 0.0
C400 C 0.24297 0.61344 0.75365 0.0
C401 C 0.2542 0.63468 0.75382 0.0
C402 C 0.24723 0.64577 0.73521 0.0
C403 C 0.22899 0.63566 0.71648 0.0
H404 H 0.26832 0.64254 0.76832 0.0
H405 H 0.09246 0.54471 0.58333 0.0
H406 H 0.62024 0.21195 0.1464 0.0
H407 H 0.61405 0.21018 0.08331 0.0
H408 H 0.58254 0.14462 0.08792 0.0
H409 H 0.58941 0.14636 0.15048 0.0
H410 H 0.60569 0.15553 0.03481 0.0
H411 H 0.55791 0.17395 0.07857 0.0
H412 H 0.54664 0.19459 0.11107 0.0
H413 H 0.58511 0.24642 0.04771 0.0
H414 H 0.5968 0.22613 0.0151 0.0
H415 H 0.54431 0.12845 0.88208 0.0
H416 H 0.55613 0.13611 0.94258 0.0
H417 H 0.60182 0.19676 0.91273 0.0
H418 H 0.59032 0.18902 0.85152 0.0
H419 H 0.57506 0.19177 0.97584 0.0
H420 H 0.61989 0.17013 0.92881 0.0
H421 H 0.62794 0.1471 0.89599 0.0
H422 H 0.59108 0.09845 0.96639 0.0
H423 H 0.58254 0.12111 0.99932 0.0
C424 C 0.61187 0.19717 0.13396 0.0
C425 C 0.60532 0.1793 0.15348 0.0
C426 C 0.60828 0.19615 0.09785 0.0
C427 C 0.59764 0.17724 0.08066 0.0
C428 C 0.59087 0.15941 0.10035 0.0
C429 C 0.59474 0.16042 0.13623 0.0
C430 C 0.5939 0.17582 0.04214 0.0
C431 C 0.59884 0.16337 0.02212 0.0
C432 C 0.58538 0.18636 0.02509 0.0
C433 C 0.57841 0.19859 0.04469 0.0
C434 C 0.56409 0.18979 0.07177 0.0
C435 C 0.5576 0.20142 0.09017 0.0
C436 C 0.56521 0.22182 0.08154 0.0
C437 C 0.57927 0.23062 0.05442 0.0
C438 C 0.58582 0.21907 0.03595 0.0
C439 C 0.55692 0.14342 0.88829 0.0
C440 C 0.5664 0.15814 0.86202 0.0
C441 C 0.56366 0.14775 0.92288 0.0
C442 C 0.57982 0.16698 0.9321 0.0
C443 C 0.5893 0.18182 0.90608 0.0
C444 C 0.5828 0.17736 0.87118 0.0
C445 C 0.58658 0.1713 0.9691 0.0
C446 C 0.58215 0.18421 0.98871 0.0
C447 C 0.59521 0.16091 0.98595 0.0
C448 C 0.60044 0.14728 0.96635 0.0
C449 C 0.61335 0.15447 0.93712 0.0
C450 C 0.61803 0.14149 0.91852 0.0
C451 C 0.60999 0.12131 0.92905 0.0
C452 C 0.59728 0.11408 0.95824 0.0
C453 C 0.59254 0.12699 0.97691 0.0
H454 H 0.61363 0.11129 0.91462 0.0
H455 H 0.56016 0.23079 0.09581 0.0
H456 H 0.32596 0.50488 0.08503 0.0
H457 H 0.29194 0.49693 0.0651 0.0
H458 H 0.31687 0.55895 0.0306 0.0
H459 H 0.35016 0.567 0.05131 0.0
H460 H 0.28404 0.54888 0.06277 0.0
H461 H 0.30407 0.5168 0.97405 0.0
H462 H 0.31437 0.49279 0.95204 0.0
H463 H 0.25916 0.44259 0.99173 0.0
H464 H 0.24864 0.46636 0.01433 0.0
H465 H 0.22779 0.55039 0.91745 0.0
H466 H 0.25253 0.54537 0.94966 0.0
H467 H 0.20457 0.49921 1.01232 0.0
H468 H 0.17943 0.50448 0.98061 0.0
H469 H 0.24288 0.49492 0.97633 0.0
H470 H 0.22243 0.53201 0.05612 0.0
H471 H 0.21539 0.55947 0.07098 0.0
H472 H 0.27582 0.60421 0.04017 0.0
H473 H 0.28303 0.57708 0.02387 0.0
C474 C 0.32407 0.51675 0.07322 0.0
C475 C 0.34074 0.5366 0.07002 0.0
C476 C 0.30465 0.51219 0.06172 0.0
C477 C 0.30174 0.52735 0.04628 0.0
C478 C 0.31853 0.54702 0.04276 0.0
C479 C 0.33767 0.5516 0.05461 0.0
C480 C 0.28147 0.52334 0.03378 0.0
C481 C 0.27504 0.53697 0.044 0.0
C482 C 0.26938 0.50761 1.00974 0.0
C483 C 0.27571 0.49335 0.99629 0.0
C484 C 0.29421 0.50065 0.97833 0.0
C485 C 0.30007 0.48709 0.96571 0.0
C486 C 0.28746 0.46618 0.9706 0.0
C487 C 0.26893 0.45879 0.98804 0.0
C488 C 0.26301 0.47229 1.00076 0.0
C489 C 0.22233 0.53895 0.93774 0.0
C490 C 0.20157 0.52789 0.94651 0.0
C491 C 0.23656 0.53612 0.95613 0.0
C492 C 0.23037 0.52201 0.98339 0.0
C493 C 0.2096 0.51018 0.99129 0.0
C494 C 0.19529 0.51322 0.97317 0.0
C495 C 0.24607 0.52087 1.0046 0.0
C496 C 0.25162 0.50637 0.99593 0.0
C497 C 0.25778 0.5362 0.02931 0.0
C498 C 0.25321 0.55247 0.03849 0.0
C499 C 0.23412 0.54768 0.05201 0.0
C500 C 0.23013 0.56319 0.06085 0.0
C501 C 0.24518 0.58355 0.05675 0.0
C502 C 0.26419 0.58844 0.04342 0.0
C503 C 0.26822 0.57301 0.03431 0.0
H504 H 0.24214 0.59554 0.06391 0.0
H505 H 0.29202 0.4557 0.96079 0.0
H506 H 0.83439 0.33608 0.38445 0.0
H507 H 0.80917 0.30475 0.35507 0.0
H508 H 0.76125 0.30628 0.413 0.0
H509 H 0.78624 0.33684 0.44326 0.0
H510 H 0.75124 0.26949 0.40675 0.0
H511 H 0.77474 0.32491 0.32708 0.0
H512 H 0.79952 0.35424 0.2924 0.0
H513 H 0.81725 0.31608 0.23819 0.0
H514 H 0.79271 0.28652 0.27287 0.0
H515 H 0.68396 0.23398 0.24066 0.0
H516 H 0.7146 0.25912 0.27048 0.0
H517 H 0.71604 0.21148 0.32919 0.0
H518 H 0.68456 0.18616 0.30042 0.0
H519 H 0.75129 0.26944 0.2771 0.0
H520 H 0.73442 0.22797 0.41064 0.0
H521 H 0.7049 0.20311 0.44505 0.0
H522 H 0.66652 0.22066 0.39153 0.0
H523 H 0.69581 0.24575 0.35712 0.0
C524 C 0.81851 0.32951 0.39136 0.0
C525 C 0.81236 0.33908 0.41606 0.0
C526 C 0.80407 0.31166 0.37435 0.0
C527 C 0.78319 0.30327 0.38126 0.0
C528 C 0.7772 0.31235 0.4071 0.0
C529 C 0.79158 0.32995 0.42436 0.0
C530 C 0.76738 0.28578 0.36058 0.0
C531 C 0.75139 0.26941 0.37839 0.0
C532 C 0.76714 0.28581 0.32352 0.0
C533 C 0.78209 0.30357 0.3029 0.0
C534 C 0.78406 0.32281 0.30799 0.0
C535 C 0.79804 0.33947 0.2883 0.0
C536 C 0.81001 0.33705 0.26321 0.0
C537 C 0.80801 0.31794 0.25771 0.0
C538 C 0.79406 0.30123 0.27737 0.0
C539 C 0.69086 0.22874 0.25962 0.0
C540 C 0.68164 0.20802 0.26839 0.0
C541 C 0.70851 0.2432 0.27665 0.0
C542 C 0.71757 0.23735 0.30263 0.0
C543 C 0.70913 0.2165 0.30986 0.0
C544 C 0.6912 0.20199 0.29321 0.0
C545 C 0.73502 0.25326 0.32328 0.0
C546 C 0.75134 0.26931 0.30546 0.0
C547 C 0.73496 0.25354 0.36035 0.0
C548 C 0.71726 0.23852 0.38099 0.0
C549 C 0.71968 0.22652 0.40626 0.0
C550 C 0.70298 0.2124 0.42576 0.0
C551 C 0.68382 0.21024 0.42036 0.0
C552 C 0.68133 0.22226 0.39556 0.0
C553 C 0.69797 0.23642 0.37603 0.0
H554 H 0.67091 0.1993 0.43547 0.0
H555 H 0.82079 0.34997 0.24794 0.0
H556 H 0.44495 0.78018 0.74384 0.0
H557 H 0.45334 0.75492 0.72422 0.0
H558 H 0.51608 0.8016 0.71141 0.0
H559 H 0.50762 0.8274 0.73066 0.0
H560 H 0.50277 0.77554 0.65595 0.0
H561 H 0.50297 0.76823 0.77871 0.0
H562 H 0.49087 0.7652 0.8394 0.0
H563 H 0.43668 0.70924 0.81353 0.0
H564 H 0.44829 0.71206 0.75255 0.0
H565 H 0.50988 0.68345 0.62175 0.0
H566 H 0.51754 0.71641 0.64727 0.0
H567 H 0.45346 0.69347 0.66208 0.0
H568 H 0.44571 0.66111 0.63656 0.0
H569 H 0.478 0.71158 0.72279 0.0
H570 H 0.47572 0.724 0.59772 0.0
H571 H 0.48796 0.7273 0.53705 0.0
H572 H 0.54751 0.77396 0.56911 0.0
H573 H 0.53566 0.77073 0.63011 0.0
C574 C 0.4606 0.7852 0.73713 0.0
C575 C 0.47564 0.80586 0.73902 0.0
C576 C 0.4654 0.77064 0.72603 0.0
C577 C 0.48541 0.77625 0.7169 0.0
C578 C 0.50055 0.79689 0.71856 0.0
C579 C 0.49572 0.8116 0.72969 0.0
C580 C 0.4899 0.76031 0.70469 0.0
C581 C 0.49787 0.76177 0.67097 0.0
C582 C 0.48354 0.7423 0.72419 0.0
C583 C 0.47651 0.7404 0.76097 0.0
C584 C 0.48842 0.75533 0.7859 0.0
C585 C 0.48165 0.75364 0.82037 0.0
C586 C 0.46302 0.73705 0.83031 0.0
C587 C 0.45112 0.72208 0.8058 0.0
C588 C 0.45781 0.7237 0.77128 0.0
C589 C 0.49747 0.68555 0.63023 0.0
C590 C 0.47719 0.66961 0.62713 0.0
C591 C 0.50186 0.70434 0.64479 0.0
C592 C 0.48604 0.70729 0.65675 0.0
C593 C 0.46589 0.69148 0.65325 0.0
C594 C 0.46151 0.67296 0.63845 0.0
C595 C 0.48991 0.72652 0.67363 0.0
C596 C 0.48351 0.72562 0.70829 0.0
C597 C 0.49783 0.74502 0.6551 0.0
C598 C 0.50489 0.74692 0.61851 0.0
C599 C 0.49147 0.73481 0.59189 0.0
C600 C 0.49833 0.7367 0.55743 0.0
C601 C 0.51852 0.75077 0.54925 0.0
C602 C 0.53189 0.76303 0.5755 0.0
C603 C 0.52511 0.76118 0.61001 0.0
H604 H 0.52379 0.75223 0.52256 0.0
H605 H 0.4578 0.73578 0.857 0.0
H606 H 0.68927 0.51281 0.07093 0.0
H607 H 0.72281 0.52003 0.05013 0.0
H608 H 0.71251 0.46363 0.09502 0.0
H609 H 0.67966 0.45675 0.11659 0.0
H610 H 0.75022 0.49045 0.10348 0.0
H611 H 0.70283 0.46884 1.00647 0.0
H612 H 0.67887 0.4713 0.96608 0.0
H613 H 0.72599 0.53028 0.93305 0.0
H614 H 0.75016 0.52826 0.97362 0.0
H615 H 0.79105 0.44594 0.99508 0.0
H616 H 0.76832 0.45599 0.02157 0.0
H617 H 0.80798 0.51795 0.98935 0.0
H618 H 0.83132 0.50802 0.96295 0.0
H619 H 0.76176 0.49797 0.97537 0.0
H620 H 0.81065 0.51336 0.06725 0.0
H621 H 0.83239 0.50597 0.10504 0.0
H622 H 0.77958 0.45338 0.14561 0.0
H623 H 0.75753 0.46027 0.10768 0.0
C624 C 0.69438 0.5022 0.07694 0.0
C625 C 0.68168 0.48411 0.09515 0.0
C626 C 0.71349 0.50625 0.06482 0.0
C627 C 0.72011 0.49221 0.07045 0.0
C628 C 0.70784 0.47474 0.09024 0.0
C629 C 0.68893 0.47076 0.10247 0.0
C630 C 0.73905 0.49466 0.05426 0.0
C631 C 0.75277 0.49223 0.07549 0.0
C632 C 0.74269 0.4973 0.01775 0.0
C633 C 0.7282 0.49853 0.99339 0.0
C634 C 0.70802 0.4824 0.99078 0.0
C635 C 0.69442 0.4837 0.96784 0.0
C636 C 0.70089 0.50096 0.9471 0.0
C637 C 0.72099 0.51694 0.9492 0.0
C638 C 0.73464 0.51573 0.97217 0.0
C639 C 0.79503 0.46173 0.99344 0.0
C640 C 0.81304 0.47619 0.97686 0.0
C641 C 0.782 0.46744 1.00871 0.0
C642 C 0.78651 0.4877 1.00754 0.0
C643 C 0.80427 0.50223 0.99053 0.0
C644 C 0.81759 0.49655 0.97559 0.0
C645 C 0.77241 0.49321 0.02455 0.0
C646 C 0.75957 0.49696 1.00348 0.0
C647 C 0.76925 0.49128 0.0611 0.0
C648 C 0.78244 0.48731 0.0845 0.0
C649 C 0.80367 0.50016 0.08409 0.0
C650 C 0.81606 0.49606 0.10556 0.0
C651 C 0.80738 0.47921 0.12769 0.0
C652 C 0.78629 0.46644 0.12847 0.0
C653 C 0.77384 0.47046 0.10704 0.0
H654 H 0.81699 0.47604 0.14426 0.0
H655 H 0.69034 0.50194 0.92934 0.0
H656 H 0.19233 0.68252 0.4065 0.0
H657 H 0.21812 0.71711 0.38862 0.0
H658 H 0.258 0.69487 0.35751 0.0
H659 H 0.23288 0.66088 0.37583 0.0
H660 H 0.27872 0.72828 0.39281 0.0
H661 H 0.22942 0.70605 0.29787 0.0
H662 H 0.19557 0.69437 0.27208 0.0
H663 H 0.19645 0.74785 0.31072 0.0
H664 H 0.23026 0.75981 0.33697 0.0
H665 H 0.34232 0.78759 0.25697 0.0
H666 H 0.31166 0.76138 0.28532 0.0
H667 H 0.3051 0.80733 0.34017 0.0
H668 H 0.33637 0.83399 0.31236 0.0
H669 H 0.26647 0.7676 0.30251 0.0
H670 H 0.31942 0.79136 0.39045 0.0
H671 H 0.35388 0.80198 0.41223 0.0
H672 H 0.34619 0.7439 0.38344 0.0
H673 H 0.31187 0.73311 0.36079 0.0
C674 C 0.20663 0.68509 0.39587 0.0
C675 C 0.21054 0.66892 0.39275 0.0
C676 C 0.22132 0.70484 0.38554 0.0
C677 C 0.24006 0.70866 0.37161 0.0
C678 C 0.2438 0.69245 0.36841 0.0
C679 C 0.22931 0.67291 0.37887 0.0
C680 C 0.25611 0.72934 0.36035 0.0
C681 C 0.27595 0.73687 0.37317 0.0
C682 C 0.25256 0.74094 0.33535 0.0
C683 C 0.23222 0.73368 0.31977 0.0
C684 C 0.22231 0.71523 0.30112 0.0
C685 C 0.20316 0.70857 0.28637 0.0
C686 C 0.19383 0.7203 0.2899 0.0
C687 C 0.20367 0.73876 0.30809 0.0
C688 C 0.22283 0.74549 0.32288 0.0
C689 C 0.3343 0.79227 0.27466 0.0
C690 C 0.34191 0.81295 0.2825 0.0
C691 C 0.31675 0.77721 0.29086 0.0
C692 C 0.30621 0.78243 0.31489 0.0
C693 C 0.31307 0.80304 0.32162 0.0
C694 C 0.33091 0.81822 0.30574 0.0
C695 C 0.28893 0.766 0.33434 0.0
C696 C 0.26901 0.75925 0.32293 0.0
C697 C 0.29238 0.75494 0.3604 0.0
C698 C 0.31312 0.7615 0.37364 0.0
C699 C 0.32517 0.78095 0.38835 0.0
C700 C 0.34466 0.78698 0.40094 0.0
C701 C 0.3522 0.77361 0.39923 0.0
C702 C 0.34032 0.75424 0.38476 0.0
C703 C 0.32085 0.74816 0.37205 0.0
H704 H 0.36721 0.77822 0.40924 0.0
H705 H 0.17901 0.71512 0.27845 0.0
H706 H 0.56026 0.22498 0.76971 0.0
H707 H 0.55217 0.2496 0.74604 0.0
H708 H 0.5056 0.20309 0.68096 0.0
H709 H 0.51423 0.17822 0.70391 0.0
H710 H 0.52693 0.23575 0.64366 0.0
H711 H 0.4935 0.22453 0.75236 0.0
H712 H 0.4886 0.21986 0.81608 0.0
H713 H 0.53803 0.28059 0.83323 0.0
H714 H 0.54344 0.28556 0.76964 0.0
H715 H 0.51363 0.32287 0.59949 0.0
H716 H 0.50418 0.28867 0.62116 0.0
H717 H 0.55982 0.31454 0.68072 0.0
H718 H 0.56946 0.34818 0.65895 0.0
H719 H 0.52272 0.28685 0.71866 0.0
H720 H 0.55943 0.29339 0.60931 0.0
H721 H 0.56368 0.2975 0.54538 0.0
H722 H 0.50517 0.2442 0.53013 0.0
H723 H 0.50047 0.23996 0.59404 0.0
C724 C 0.54808 0.2198 0.75072 0.0
C725 C 0.53787 0.19955 0.73881 0.0
C726 C 0.54335 0.23395 0.73731 0.0
C727 C 0.52798 0.22822 0.71211 0.0
C728 C 0.51743 0.2079 0.70053 0.0
C729 C 0.52232 0.19367 0.71379 0.0
C730 C 0.52417 0.24398 0.69658 0.0
C731 C 0.52542 0.24657 0.66009 0.0
C732 C 0.52216 0.2582 0.71779 0.0
C733 C 0.5189 0.25539 0.75615 0.0
C734 C 0.5034 0.23686 0.76971 0.0
C735 C 0.50053 0.23416 0.80582 0.0
C736 C 0.513 0.24991 0.82869 0.0
C737 C 0.52836 0.26841 0.81548 0.0
C738 C 0.53131 0.27119 0.77939 0.0
C739 C 0.52378 0.32117 0.61718 0.0
C740 C 0.54233 0.33821 0.62735 0.0
C741 C 0.51839 0.30169 0.62949 0.0
C742 C 0.53131 0.29914 0.65262 0.0
C743 C 0.54962 0.31618 0.66302 0.0
C744 C 0.55514 0.33541 0.65033 0.0
C745 C 0.52635 0.27891 0.66623 0.0
C746 C 0.5235 0.27556 0.70234 0.0
C747 C 0.52663 0.26392 0.6447 0.0
C748 C 0.52947 0.26654 0.60639 0.0
C749 C 0.54738 0.28269 0.59232 0.0
C750 C 0.5499 0.28501 0.55609 0.0
C751 C 0.53467 0.27117 0.5337 0.0
C752 C 0.51692 0.25495 0.5475 0.0
C753 C 0.51433 0.25257 0.58371 0.0
H754 H 0.53665 0.27298 0.50567 0.0
H755 H 0.51076 0.24779 0.85664 0.0
H756 H 0.47362 0.55882 0.12906 0.0
H757 H 0.49847 0.54772 0.1236 0.0
H758 H 0.4519 0.48956 0.08434 0.0
H759 H 0.4267 0.50065 0.0895 0.0
H760 H 0.47733 0.48704 0.13581 0.0
H761 H 0.4838 0.52196 0.02865 0.0
H762 H 0.48799 0.55046 0.99212 0.0
H763 H 0.54632 0.58956 0.03878 0.0
H764 H 0.54229 0.56142 0.07622 0.0
H765 H 0.54321 0.45329 0.07803 0.0
H766 H 0.51797 0.46399 0.07942 0.0
H767 H 0.56428 0.52451 0.10954 0.0
H768 H 0.58994 0.51392 0.10764 0.0
H769 H 0.53848 0.52548 0.06148 0.0
H770 H 0.53166 0.49139 0.17006 0.0
H771 H 0.52741 0.46339 0.20806 0.0
H772 H 0.46991 0.4232 0.15967 0.0
H773 H 0.47395 0.4509 0.12102 0.0
C774 C 0.46854 0.54361 0.11935 0.0
C775 C 0.44812 0.53062 0.10964 0.0
C776 C 0.48284 0.53734 0.11611 0.0
C777 C 0.4771 0.51791 0.10321 0.0
C778 C 0.45665 0.50466 0.09424 0.0
C779 C 0.44229 0.51102 0.09717 0.0
C780 C 0.49259 0.51161 0.09929 0.0
C781 C 0.49053 0.49521 0.11911 0.0
C782 C 0.51009 0.52267 0.07822 0.0
C783 C 0.51265 0.5396 0.05551 0.0
C784 C 0.49745 0.53668 0.03137 0.0
C785 C 0.4998 0.55276 1.01044 0.0
C786 C 0.5174 0.57181 1.01314 0.0
C787 C 0.53269 0.5748 0.03674 0.0
C788 C 0.53037 0.55879 0.05783 0.0
C789 C 0.54814 0.46892 0.08491 0.0
C790 C 0.56862 0.48272 0.09305 0.0
C791 C 0.53361 0.47499 0.08578 0.0
C792 C 0.53911 0.49495 0.09521 0.0
C793 C 0.55966 0.50899 0.10235 0.0
C794 C 0.5743 0.50292 0.10133 0.0
C795 C 0.52326 0.5009 0.09808 0.0
C796 C 0.52526 0.51725 0.07809 0.0
C797 C 0.50572 0.48985 0.11911 0.0
C798 C 0.5032 0.47318 0.14242 0.0
C799 C 0.51818 0.47654 0.16734 0.0
C800 C 0.5158 0.46073 0.18902 0.0
C801 C 0.49843 0.44151 0.18622 0.0
C802 C 0.48337 0.43808 0.16178 0.0
C803 C 0.48569 0.45384 0.14 0.0
H804 H 0.49661 0.42929 0.20303 0.0
H805 H 0.5192 0.58423 0.9969 0.0
H806 H 0.92363 0.4773 0.40701 0.0
H807 H 0.96011 0.50047 0.41053 0.0
H808 H 0.96876 0.45126 0.44424 0.0
H809 H 0.93186 0.42783 0.44146 0.0
H810 H 0.99152 0.48495 0.48253 0.0
H811 H 0.98035 0.46986 0.3603 0.0
H812 H 0.96401 0.46618 0.30298 0.0
H813 H 0.98303 0.52975 0.30356 0.0
H814 H 0.99926 0.53376 0.36114 0.0
H815 H 0.098 0.5364 0.45382 0.0
H816 H 0.06143 0.51315 0.4532 0.0
H817 H 0.05187 0.56183 0.41979 0.0
H818 H 0.08876 0.5853 0.41977 0.0
H819 H 0.02959 0.52815 0.38153 0.0
H820 H 0.04123 0.54311 0.50405 0.0
H821 H 0.05727 0.54633 0.56153 0.0
H822 H 0.03747 0.48259 0.56026 0.0
H823 H 0.02158 0.47903 0.50251 0.0
C824 C 0.93321 0.47128 0.41507 0.0
C825 C 0.92477 0.45062 0.42378 0.0
C826 C 0.95415 0.4846 0.41693 0.0
C827 C 0.96728 0.4776 0.42711 0.0
C828 C 0.95894 0.45701 0.43616 0.0
C829 C 0.93787 0.44361 0.43445 0.0
C830 C 0.98962 0.49196 0.42868 0.0
C831 C 0.99992 0.49417 0.46028 0.0
C832 C 1.00051 0.5044 0.39993 0.0
C833 C 0.99087 0.50206 0.36519 0.0
C834 C 0.98092 0.48302 0.34833 0.0
C835 C 0.9717 0.48089 0.31577 0.0
C836 C 0.97244 0.49771 0.29968 0.0
C837 C 0.98245 0.51673 0.31607 0.0
C838 C 0.99169 0.51895 0.34865 0.0
C839 C 0.08818 0.54228 0.44654 0.0
C840 C 0.09636 0.56277 0.43684 0.0
C841 C 0.0672 0.52893 0.4464 0.0
C842 C 0.05382 0.53574 0.43685 0.0
C843 C 0.06189 0.55623 0.42736 0.0
C844 C 0.08297 0.56965 0.42747 0.0
C845 C 0.03151 0.52121 0.43544 0.0
C846 C 0.02121 0.51895 0.40381 0.0
C847 C 0.02066 0.50869 0.46414 0.0
C848 C 0.03035 0.51084 0.49879 0.0
C849 C 0.04045 0.52981 0.51587 0.0
C850 C 0.04948 0.53169 0.54854 0.0
C851 C 0.04839 0.51467 0.56452 0.0
C852 C 0.0383 0.49575 0.54785 0.0
C853 C 0.02926 0.49379 0.51516 0.0
H854 H 0.05533 0.51613 0.58987 0.0
H855 H 0.96529 0.49603 0.27447 0.0
H856 H 0.55298 0.08769 0.80978 0.0
H857 H 0.54319 0.05196 0.80413 0.0
H858 H 0.51463 0.04873 0.70498 0.0
H859 H 0.52363 0.08442 0.71144 0.0
H860 H 0.49299 0.0146 0.73709 0.0
H861 H 0.56373 0.05462 0.7119 0.0
H862 H 0.59949 0.08107 0.72159 0.0
H863 H 0.60141 0.05059 0.81457 0.0
H864 H 0.56557 0.02409 0.80569 0.0
H865 H 0.49494 0.92576 0.6811 0.0
H866 H 0.50395 0.96146 0.68509 0.0
H867 H 0.51815 0.96232 0.7944 0.0
H868 H 0.50884 0.92647 0.79082 0.0
H869 H 0.54733 0.99744 0.75411 0.0
H870 H 0.47503 0.95725 0.77672 0.0
H871 H 0.43998 0.93061 0.76242 0.0
H872 H 0.44226 0.96177 0.66762 0.0
H873 H 0.47747 0.98845 0.6811 0.0
C874 C 0.54442 0.07931 0.78693 0.0
C875 C 0.53922 0.08889 0.7609 0.0
C876 C 0.53895 0.05889 0.78358 0.0
C877 C 0.5287 0.04772 0.75359 0.0
C878 C 0.52268 0.05702 0.72823 0.0
C879 C 0.5278 0.07741 0.73195 0.0
C880 C 0.52476 0.02657 0.74852 0.0
C881 C 0.50497 0.01097 0.74034 0.0
C882 C 0.5403 0.02162 0.75294 0.0
C883 C 0.5619 0.03747 0.75829 0.0
C884 C 0.57174 0.05363 0.73454 0.0
C885 C 0.59203 0.06862 0.73987 0.0
C886 C 0.6027 0.06754 0.76872 0.0
C887 C 0.59312 0.05142 0.79225 0.0
C888 C 0.57282 0.0364 0.78707 0.0
C889 C 0.50026 0.9336 0.70589 0.0
C890 C 0.50118 0.92327 0.73567 0.0
C891 C 0.50528 0.95397 0.70815 0.0
C892 C 0.51155 0.96446 0.7401 0.0
C893 C 0.51331 0.95447 0.76952 0.0
C894 C 0.50798 0.934 0.76743 0.0
C895 C 0.51563 0.98566 0.74312 0.0
C896 C 0.53544 1.00121 0.75081 0.0
C897 C 0.50022 0.9906 0.7376 0.0
C898 C 0.47896 0.97473 0.72974 0.0
C899 C 0.46812 0.95834 0.75269 0.0
C900 C 0.44821 0.94324 0.74475 0.0
C901 C 0.43892 0.94446 0.71408 0.0
C902 C 0.44949 0.96083 0.69134 0.0
C903 C 0.46942 0.97595 0.69913 0.0
H904 H 0.42351 0.93276 0.70798 0.0
H905 H 0.61841 0.07917 0.7728 0.0
H906 H 0.51282 0.58331 0.61334 0.0
H907 H 0.52416 0.55832 0.61684 0.0
H908 H 0.47199 0.51577 0.55652 0.0
H909 H 0.46054 0.54042 0.5531 0.0
H910 H 0.47695 0.49762 0.61281 0.0
H911 H 0.51908 0.54086 0.51997 0.0
H912 H 0.54373 0.57345 0.49284 0.0
H913 H 0.58817 0.58229 0.57061 0.0
H914 H 0.56367 0.54986 0.5985 0.0
H915 H 0.50857 0.42507 0.57688 0.0
H916 H 0.49688 0.44979 0.5727 0.0
H917 H 0.55093 0.49435 0.62671 0.0
H918 H 0.56282 0.4701 0.63016 0.0
H919 H 0.54477 0.51143 0.57311 0.0
H920 H 0.50311 0.46883 0.66662 0.0
H921 H 0.47864 0.43659 0.69497 0.0
H922 H 0.43362 0.4269 0.61783 0.0
H923 H 0.45792 0.45897 0.58875 0.0
C924 C 0.50387 0.5687 0.60058 0.0
C925 C 0.48578 0.5639 0.58294 0.0
C926 C 0.51037 0.55442 0.60257 0.0
C927 C 0.49894 0.53515 0.58685 0.0
C928 C 0.48102 0.53047 0.56897 0.0
C929 C 0.47455 0.54467 0.56694 0.0
C930 C 0.50533 0.51964 0.58942 0.0
C931 C 0.49169 0.50055 0.60375 0.0
C932 C 0.52471 0.52357 0.57831 0.0
C933 C 0.53947 0.54304 0.56152 0.0
C934 C 0.53405 0.54983 0.53145 0.0
C935 C 0.54801 0.56826 0.5159 0.0
C936 C 0.56748 0.57996 0.53005 0.0
C937 C 0.57306 0.57323 0.55972 0.0
C938 C 0.55916 0.55482 0.57538 0.0
C939 C 0.51785 0.4401 0.58805 0.0
C940 C 0.53664 0.44561 0.60376 0.0
C941 C 0.51115 0.45421 0.58574 0.0
C942 C 0.52298 0.47397 0.59955 0.0
C943 C 0.54157 0.4793 0.61566 0.0
C944 C 0.54832 0.46533 0.6177 0.0
C945 C 0.51642 0.48938 0.59667 0.0
C946 C 0.53002 0.50846 0.58222 0.0
C947 C 0.49704 0.48547 0.60786 0.0
C948 C 0.48241 0.46619 0.6253 0.0
C949 C 0.48805 0.45974 0.65554 0.0
C950 C 0.4742 0.44151 0.67177 0.0
C951 C 0.45461 0.42967 0.65815 0.0
C952 C 0.44881 0.43607 0.62832 0.0
C953 C 0.46261 0.45427 0.61197 0.0
H954 H 0.44391 0.41557 0.67076 0.0
H955 H 0.57827 0.59422 0.51797 0.0
H956 H 0.08651 0.51347 0.95984 0.0
H957 H 0.0516 0.50679 0.96619 0.0
H958 H 0.05287 0.52628 0.85995 0.0
H959 H 0.0877 0.53332 0.8537 0.0
H960 H 0.03904 0.54412 0.90163 0.0
H961 H 0.02515 0.47547 0.885 0.0
H962 H 0.02793 0.44519 0.89778 0.0
H963 H 1.00465 0.44238 1.00117 0.0
H964 H 1.00197 0.47282 0.98913 0.0
H965 H 0.93477 0.50604 0.86464 0.0
H966 H 0.96996 0.51356 0.86739 0.0
H967 H 0.96264 0.49775 0.9767 0.0
H968 H 0.92732 0.49018 0.97421 0.0
H969 H 0.97979 0.47895 0.9397 0.0
H970 H 0.99138 0.54634 0.95417 0.0
H971 H 0.9882 0.57628 0.94044 0.0
H972 H 0.01562 0.58122 0.8401 0.0
H973 H 0.01871 0.55112 0.85303 0.0
C974 C 0.07922 0.51603 0.93769 0.0
C975 C 0.08993 0.52398 0.90629 0.0
C976 C 0.05926 0.51221 0.94134 0.0
C977 C 0.04955 0.51603 0.91353 0.0
C978 C 0.06004 0.52334 0.88187 0.0
C979 C 0.07996 0.52728 0.87829 0.0
C980 C 0.02884 0.5133 0.91753 0.0
C981 C 0.02606 0.52978 0.9096 0.0
C982 C 0.01197 0.49483 0.92902 0.0
C983 C 0.01358 0.47655 0.9363 0.0
C984 C 0.02079 0.4685 0.91056 0.0
C985 C 0.02231 0.45129 0.91765 0.0
C986 C 0.01653 0.44191 0.9503 0.0
C987 C 1.00916 0.44969 0.97591 0.0
C988 C 1.00762 0.46691 0.96896 0.0
C989 C 0.9407 0.50443 0.88942 0.0
C990 C 0.9282 0.49752 0.9192 0.0
C991 C 0.96085 0.50877 0.89096 0.0
C992 C 0.96897 0.50627 0.92228 0.0
C993 C 0.95669 0.49977 0.95226 0.0
C994 C 0.93654 0.49558 0.95083 0.0
C995 C 0.98999 0.50963 0.92308 0.0
C996 C 0.99282 0.49332 0.93199 0.0
C997 C 1.00692 0.52823 0.91235 0.0
C998 C 1.00512 0.54636 0.90447 0.0
C999 C 0.99658 0.5537 0.92906 0.0
C1000 C 0.99482 0.57072 0.92145 0.0
C1001 C 1.00166 0.58062 0.88939 0.0
C1002 C 1.01031 0.57353 0.86491 0.0
C1003 C 0.01209 0.5565 0.87239 0.0
H1004 H 1.00029 0.59379 0.88355 0.0
H1005 H 0.01772 0.42858 0.95574 0.0
H1006 H 0.47964 0.92434 0.26967 0.0
H1007 H 0.50339 0.96078 0.2705 0.0
H1008 H 0.4533 0.97216 0.2744 0.0
H1009 H 0.42917 0.93535 0.27329 0.0
H1010 H 0.48226 0.99641 0.2266 0.0
H1011 H 0.48129 0.97857 0.34679 0.0
H1012 H 0.48345 0.95893 0.39609 0.0
H1013 H 0.54488 0.97702 0.36785 0.0
H1014 H 0.543 0.99655 0.31806 0.0
H1015 H 0.54093 0.10077 0.26691 0.0
H1016 H 0.51674 0.06445 0.26937 0.0
H1017 H 0.56614 0.05198 0.26815 0.0
H1018 H 0.59069 0.08865 0.26617 0.0
H1019 H 0.53722 0.0283 0.31528 0.0
H1020 H 0.53821 0.04544 0.19474 0.0
H1021 H 0.53629 0.06484 0.14482 0.0
H1022 H 0.4751 0.04777 0.17293 0.0
H1023 H 0.47676 0.02849 0.22335 0.0
C1024 C 0.47357 0.93451 0.27081 0.0
C1025 C 0.45244 0.92688 0.2715 0.0
C1026 C 0.48723 0.9554 0.27145 0.0
C1027 C 0.48016 0.96923 0.27296 0.0
C1028 C 0.45908 0.96174 0.27338 0.0
C1029 C 0.44532 0.94072 0.27284 0.0
C1030 C 0.49492 0.99146 0.27331 0.0
C1031 C 0.49406 1.00346 0.24633 0.0
C1032 C 0.51072 1.00054 0.29845 0.0
C1033 C 0.51194 0.98889 0.3285 0.0
C1034 C 0.49521 0.97824 0.35092 0.0
C1035 C 0.49639 0.96714 0.37899 0.0
C1036 C 0.51427 0.96669 0.38505 0.0
C1037 C 0.53103 0.97737 0.36311 0.0
C1038 C 0.52992 0.98848 0.33498 0.0
C1039 C 0.54675 0.09038 0.26717 0.0
C1040 C 0.5678 0.09766 0.26611 0.0
C1041 C 0.53283 0.06955 0.26845 0.0
C1042 C 0.53957 0.05544 0.26837 0.0
C1043 C 0.56059 0.0626 0.26807 0.0
C1044 C 0.5746 0.08354 0.26687 0.0
C1045 C 0.52455 0.03326 0.26857 0.0
C1046 C 0.52538 0.02127 0.2956 0.0
C1047 C 0.50876 0.02416 0.24341 0.0
C1048 C 0.50768 0.03568 0.21303 0.0
C1049 C 0.5244 0.04595 0.19045 0.0
C1050 C 0.52335 0.0569 0.16203 0.0
C1051 C 0.50561 0.05758 0.15576 0.0
C1052 C 0.48885 0.04725 0.17785 0.0
C1053 C 0.48983 0.0363 0.20633 0.0
H1054 H 0.50482 0.06606 0.13374 0.0
H1055 H 0.51516 0.95809 0.40679 0.0
H1056 H 0.43012 0.55045 0.70415 0.0
H1057 H 0.42398 0.54865 0.76722 0.0
H1058 H 0.44563 0.61312 0.76942 0.0
H1059 H 0.4507 0.61474 0.70647 0.0
H1060 H 0.44868 0.56377 0.81728 0.0
H1061 H 0.42798 0.62715 0.83704 0.0
H1062 H 0.40933 0.64125 0.80626 0.0
H1063 H 0.37368 0.58459 0.75198 0.0
H1064 H 0.39194 0.57008 0.78274 0.0
H1065 H 0.46182 0.58792 0.99571 0.0
H1066 H 0.46397 0.59248 0.93225 0.0
H1067 H 0.39931 0.56946 0.9277 0.0
H1068 H 0.39726 0.56588 0.99102 0.0
H1069 H 0.41583 0.59653 0.88103 0.0
H1070 H 0.42128 0.53856 0.91258 0.0
H1071 H 0.43551 0.52007 0.94345 0.0
H1072 H 0.49336 0.55777 0.89454 0.0
H1073 H 0.47952 0.57665 0.86368 0.0
C1074 C 0.43314 0.56412 0.71803 0.0
C1075 C 0.4408 0.58269 0.70029 0.0
C1076 C 0.42974 0.56313 0.75411 0.0
C1077 C 0.43419 0.58072 0.77324 0.0
C1078 C 0.44156 0.59921 0.75535 0.0
C1079 C 0.44454 0.60013 0.71924 0.0
C1080 C 0.43239 0.58005 0.81205 0.0
C1081 C 0.4414 0.57087 0.83112 0.0
C1082 C 0.42269 0.58907 0.83036 0.0
C1083 C 0.41147 0.5976 0.81199 0.0
C1084 C 0.4161 0.61768 0.81865 0.0
C1085 C 0.40562 0.62575 0.80118 0.0
C1086 C 0.39037 0.61385 0.77711 0.0
C1087 C 0.38554 0.59382 0.77054 0.0
C1088 C 0.39598 0.58567 0.78795 0.0
C1089 C 0.44815 0.58424 0.98123 0.0
C1090 C 0.42936 0.57635 0.99837 0.0
C1091 C 0.44935 0.58669 0.94491 0.0
C1092 C 0.43169 0.58076 0.925 0.0
C1093 C 0.41314 0.57404 0.94235 0.0
C1094 C 0.412 0.57198 0.97867 0.0
C1095 C 0.43221 0.58037 0.88612 0.0
C1096 C 0.42305 0.58941 0.86708 0.0
C1097 C 0.44108 0.57055 0.86778 0.0
C1098 C 0.44941 0.55912 0.88605 0.0
C1099 C 0.43706 0.54297 0.90855 0.0
C1100 C 0.44505 0.53242 0.92603 0.0
C1101 C 0.46533 0.53776 0.92098 0.0
C1102 C 0.47766 0.55366 0.89842 0.0
C1103 C 0.46975 0.56428 0.8809 0.0
H1104 H 0.47148 0.52955 0.9345 0.0
H1105 H 0.38228 0.62013 0.76359 0.0
H1106 H 0.86929 0.43218 0.32719 0.0
H1107 H 0.8702 0.43743 0.2644 0.0
H1108 H 0.80576 0.39474 0.25791 0.0
H1109 H 0.80496 0.38876 0.32091 0.0
H1110 H 0.82309 0.38666 0.20843 0.0
H1111 H 0.82733 0.4483 0.24557 0.0
H1112 H 0.8396 0.48001 0.27941 0.0
H1113 H 0.89932 0.50341 0.23608 0.0
H1114 H 0.88748 0.47174 0.20231 0.0
H1115 H 0.82709 0.42126 0.02772 0.0
H1116 H 0.81855 0.41248 0.08955 0.0
H1117 H 0.88213 0.43822 0.11396 0.0
H1118 H 0.8908 0.44667 0.0526 0.0
H1119 H 0.8606 0.45455 0.1528 0.0
H1120 H 0.85468 0.39026 0.11815 0.0
H1121 H 0.84046 0.35855 0.08373 0.0
H1122 H 0.78063 0.34063 0.12157 0.0
H1123 H 0.79447 0.37241 0.15584 0.0
C1124 C 0.85521 0.42418 0.3126 0.0
C1125 C 0.83703 0.41008 0.32915 0.0
C1126 C 0.85573 0.42725 0.27655 0.0
C1127 C 0.83799 0.41671 0.25623 0.0
C1128 C 0.81966 0.40309 0.2729 0.0
C1129 C 0.81919 0.39977 0.30898 0.0
C1130 C 0.839 0.41907 0.21746 0.0
C1131 C 0.83093 0.40154 0.19631 0.0
C1132 C 0.84933 0.43844 0.20137 0.0
C1133 C 0.85653 0.45757 0.22158 0.0
C1134 C 0.84311 0.46015 0.24343 0.0
C1135 C 0.84999 0.47813 0.26257 0.0
C1136 C 0.87023 0.4937 0.25994 0.0
C1137 C 0.88364 0.49134 0.2381 0.0
C1138 C 0.87685 0.47339 0.2189 0.0
C1139 C 0.83921 0.4246 0.04612 0.0
C1140 C 0.85966 0.4348 0.03518 0.0
C1141 C 0.83429 0.41963 0.08143 0.0
C1142 C 0.84974 0.42488 0.10629 0.0
C1143 C 0.87001 0.43415 0.09518 0.0
C1144 C 0.87491 0.4389 0.06 0.0
C1145 C 0.84517 0.42222 0.14424 0.0
C1146 C 0.85252 0.43972 0.1651 0.0
C1147 C 0.83386 0.40288 0.15989 0.0
C1148 C 0.82557 0.38384 0.13917 0.0
C1149 C 0.83846 0.37968 0.11881 0.0
C1150 C 0.83048 0.36166 0.09941 0.0
C1151 C 0.80965 0.34762 0.10035 0.0
C1152 C 0.79676 0.35154 0.12079 0.0
C1153 C 0.80466 0.36955 0.14022 0.0
H1154 H 0.8035 0.33368 0.08533 0.0
H1155 H 0.87553 0.5076 0.2748 0.0
H1156 H 0.4457 0.88919 0.65452 0.0
H1157 H 0.43874 0.88375 0.59208 0.0
H1158 H 0.41474 0.81933 0.60573 0.0
H1159 H 0.42271 0.82491 0.6682 0.0
H1160 H 0.43778 0.83019 0.55289 0.0
H1161 H 0.38404 0.84173 0.58549 0.0
H1162 H 0.36769 0.85915 0.61336 0.0
H1163 H 0.40359 0.912 0.55044 0.0
H1164 H 0.42035 0.895 0.52249 0.0
H1165 H 0.39441 0.80897 0.37779 0.0
H1166 H 0.39942 0.81061 0.44135 0.0
H1167 H 0.43984 0.8754 0.43481 0.0
H1168 H 0.43515 0.87388 0.37142 0.0
H1169 H 0.40621 0.8621 0.48354 0.0
H1170 H 0.46015 0.84877 0.45256 0.0
H1171 H 0.47427 0.82933 0.42447 0.0
H1172 H 0.43403 0.77664 0.48457 0.0
H1173 H 0.41946 0.79571 0.51267 0.0
C1174 C 0.43857 0.87379 0.64439 0.0
C1175 C 0.43467 0.85746 0.66638 0.0
C1176 C 0.43452 0.87068 0.60855 0.0
C1177 C 0.42594 0.85106 0.59395 0.0
C1178 C 0.42139 0.83462 0.61617 0.0
C1179 C 0.42582 0.83779 0.65195 0.0
C1180 C 0.42287 0.84796 0.55537 0.0
C1181 C 0.43051 0.83688 0.53792 0.0
C1182 C 0.41365 0.85685 0.53543 0.0
C1183 C 0.40357 0.86714 0.5521 0.0
C1184 C 0.38855 0.85712 0.57777 0.0
C1185 C 0.37919 0.86691 0.59355 0.0
C1186 C 0.38463 0.88669 0.58373 0.0
C1187 C 0.39941 0.89669 0.55804 0.0
C1188 C 0.40882 0.88697 0.54218 0.0
C1189 C 0.40466 0.82349 0.38984 0.0
C1190 C 0.41432 0.84128 0.36954 0.0
C1191 C 0.40749 0.82441 0.42612 0.0
C1192 C 0.41989 0.84316 0.44276 0.0
C1193 C 0.43014 0.86081 0.42245 0.0
C1194 C 0.42756 0.85986 0.38617 0.0
C1195 C 0.4213 0.84461 0.48147 0.0
C1196 C 0.41331 0.85533 0.49878 0.0
C1197 C 0.4298 0.83506 0.50129 0.0
C1198 C 0.43856 0.8236 0.48442 0.0
C1199 C 0.45417 0.83298 0.45953 0.0
C1200 C 0.46229 0.82204 0.44367 0.0
C1201 C 0.45501 0.80174 0.45265 0.0
C1202 C 0.43963 0.79236 0.47759 0.0
C1203 C 0.43145 0.80323 0.49351 0.0
H1204 H 0.46132 0.7933 0.44035 0.0
H1205 H 0.37738 0.89424 0.59599 0.0
H1206 H 0.61663 0.44669 0.70091 0.0
H1207 H 0.62084 0.44874 0.76468 0.0
H1208 H 0.56232 0.39438 0.7758 0.0
H1209 H 0.55788 0.39238 0.71266 0.0
H1210 H 0.56547 0.42284 0.81946 0.0
H1211 H 0.60709 0.39418 0.78798 0.0
H1212 H 0.63467 0.39263 0.75678 0.0
H1213 H 0.67864 0.4495 0.803 0.0
H1214 H 0.65129 0.45153 0.83413 0.0
H1215 H 0.57052 0.40647 1.00037 0.0
H1216 H 0.56887 0.4012 0.93694 0.0
H1217 H 0.6273 0.45564 0.92558 0.0
H1218 H 0.62925 0.46081 0.98866 0.0
H1219 H 0.62444 0.4268 0.88215 0.0
H1220 H 0.58322 0.45621 0.91176 0.0
H1221 H 0.55595 0.45836 0.94286 0.0
H1222 H 0.51152 0.40074 0.8996 0.0
H1223 H 0.53859 0.39812 0.86861 0.0
C1224 C 0.60474 0.43512 0.71696 0.0
C1225 C 0.58689 0.41945 0.70163 0.0
C1226 C 0.60719 0.43626 0.7534 0.0
C1227 C 0.59191 0.42165 0.77507 0.0
C1228 C 0.57427 0.40587 0.7597 0.0
C1229 C 0.57179 0.40476 0.72348 0.0
C1230 C 0.59377 0.42306 0.81384 0.0
C1231 C 0.57824 0.42341 0.83315 0.0
C1232 C 0.61065 0.42431 0.83175 0.0
C1233 C 0.62712 0.4231 0.81309 0.0
C1234 C 0.62262 0.40644 0.79127 0.0
C1235 C 0.63822 0.40546 0.77364 0.0
C1236 C 0.65838 0.42099 0.77783 0.0
C1237 C 0.66301 0.4375 0.79974 0.0
C1238 C 0.64747 0.43856 0.8174 0.0
C1239 C 0.58312 0.41717 0.98441 0.0
C1240 C 0.59989 0.43417 0.99961 0.0
C1241 C 0.58212 0.4142 0.94813 0.0
C1242 C 0.59782 0.42822 0.92641 0.0
C1243 C 0.61498 0.44466 0.94172 0.0
C1244 C 0.61599 0.44763 0.97787 0.0
C1245 C 0.59606 0.42642 0.88767 0.0
C1246 C 0.61163 0.4261 0.8684 0.0
C1247 C 0.57925 0.42527 0.8697 0.0
C1248 C 0.56295 0.42687 0.88817 0.0
C1249 C 0.56765 0.44393 0.90909 0.0
C1250 C 0.55223 0.44524 0.92667 0.0
C1251 C 0.53202 0.42967 0.92329 0.0
C1252 C 0.52719 0.41277 0.90224 0.0
C1253 C 0.54256 0.41137 0.88465 0.0
H1254 H 0.5201 0.43071 0.93691 0.0
H1255 H 0.67044 0.4202 0.76416 0.0
H1256 H 0.20978 0.58549 0.03101 0.0
H1257 H 0.20906 0.59154 0.09379 0.0
H1258 H 0.14865 0.58253 0.08306 0.0
H1259 H 0.14924 0.57639 0.02043 0.0
H1260 H 0.172 0.61364 0.12812 0.0
H1261 H 0.15594 0.5442 0.1087 0.0
H1262 H 0.16218 0.51711 0.08777 0.0
H1263 H 0.21576 0.54089 0.1517 0.0
H1264 H 0.21004 0.56837 0.17254 0.0
H1265 H 0.12893 0.58696 0.29343 0.0
H1266 H 0.13661 0.5848 0.2323 0.0
H1267 H 0.19532 0.59381 0.26161 0.0
H1268 H 0.18762 0.59581 0.32342 0.0
H1269 H 0.17743 0.56544 0.20847 0.0
H1270 H 0.19261 0.63298 0.23164 0.0
H1271 H 0.1864 0.65964 0.25467 0.0
H1272 H 0.13588 0.64034 0.18449 0.0
H1273 H 0.14152 0.6132 0.16154 0.0
C1274 C 0.19646 0.58507 0.04196 0.0
C1275 C 0.17948 0.58016 0.0208 0.0
C1276 C 0.19605 0.58846 0.07785 0.0
C1277 C 0.17864 0.58706 0.09323 0.0
C1278 C 0.16219 0.58354 0.07179 0.0
C1279 C 0.16257 0.58007 0.03593 0.0
C1280 C 0.17706 0.58829 0.13179 0.0
C1281 C 0.17305 0.60302 0.14564 0.0
C1282 C 0.17909 0.57483 0.15481 0.0
C1283 C 0.18268 0.55847 0.14189 0.0
C1284 C 0.16917 0.54378 0.11803 0.0
C1285 C 0.17257 0.52832 0.10626 0.0
C1286 C 0.18933 0.52725 0.11846 0.0
C1287 C 0.20275 0.54169 0.14237 0.0
C1288 C 0.19945 0.55724 0.15411 0.0
C1289 C 0.14341 0.58828 0.28704 0.0
C1290 C 0.15775 0.59177 0.3133 0.0
C1291 C 0.1478 0.5871 0.252 0.0
C1292 C 0.16671 0.58959 0.24229 0.0
C1293 C 0.18069 0.59199 0.26852 0.0
C1294 C 0.17626 0.5931 0.30381 0.0
C1295 C 0.17193 0.5905 0.20463 0.0
C1296 C 0.17664 0.57622 0.19097 0.0
C1297 C 0.17072 0.60447 0.18176 0.0
C1298 C 0.16741 0.62095 0.19504 0.0
C1299 C 0.18009 0.63432 0.22126 0.0
C1300 C 0.17668 0.64954 0.23429 0.0
C1301 C 0.16076 0.6517 0.22106 0.0
C1302 C 0.14822 0.63865 0.19472 0.0
C1303 C 0.15152 0.62334 0.18168 0.0
H1304 H 0.15815 0.66351 0.23119 0.0
H1305 H 0.19195 0.51528 0.10929 0.0
H1306 H 0.57779 0.14884 0.64234 0.0
H1307 H 0.58539 0.15263 0.5801 0.0
H1308 H 0.61481 0.21789 0.59066 0.0
H1309 H 0.60636 0.2141 0.65297 0.0
H1310 H 0.59171 0.20748 0.53717 0.0
H1311 H 0.64167 0.1914 0.57388 0.0
H1312 H 0.65564 0.1725 0.60414 0.0
H1313 H 0.61689 0.11916 0.54359 0.0
H1314 H 0.60248 0.13766 0.51328 0.0
H1315 H 0.63353 0.21973 0.36158 0.0
H1316 H 0.6294 0.2208 0.42501 0.0
H1317 H 0.58465 0.15691 0.42429 0.0
H1318 H 0.5884 0.15572 0.36102 0.0
H1319 H 0.61867 0.16948 0.47239 0.0
H1320 H 0.56817 0.18707 0.43796 0.0
H1321 H 0.55613 0.20762 0.4076 0.0
H1322 H 0.59951 0.26075 0.46411 0.0
H1323 H 0.61201 0.24056 0.49444 0.0
C1324 C 0.5862 0.16404 0.63162 0.0
C1325 C 0.59149 0.18118 0.65269 0.0
C1326 C 0.59062 0.1662 0.5959 0.0
C1327 C 0.60092 0.18557 0.58051 0.0
C1328 C 0.60683 0.20277 0.60178 0.0
C1329 C 0.6021 0.20059 0.63747 0.0
C1330 C 0.60429 0.18771 0.54196 0.0
C1331 C 0.59799 0.19946 0.52318 0.0
C1332 C 0.61224 0.17709 0.52336 0.0
C1333 C 0.62088 0.16589 0.5415 0.0
C1334 C 0.63602 0.1756 0.56719 0.0
C1335 C 0.64403 0.16496 0.58432 0.0
C1336 C 0.63712 0.14463 0.57584 0.0
C1337 C 0.62222 0.13491 0.55015 0.0
C1338 C 0.61414 0.14547 0.53295 0.0
C1339 C 0.6225 0.206 0.37482 0.0
C1340 C 0.61133 0.18764 0.35621 0.0
C1341 C 0.62019 0.20665 0.41105 0.0
C1342 C 0.60681 0.1889 0.42929 0.0
C1343 C 0.59511 0.17074 0.41065 0.0
C1344 C 0.59718 0.17015 0.37443 0.0
C1345 C 0.60578 0.1889 0.468 0.0
C1346 C 0.61259 0.1776 0.48665 0.0
C1347 C 0.59866 0.20021 0.48647 0.0
C1348 C 0.5912 0.21235 0.46814 0.0
C1349 C 0.57529 0.20318 0.44363 0.0
C1350 C 0.56835 0.21475 0.42649 0.0
C1351 C 0.5771 0.2355 0.43383 0.0
C1352 C 0.59277 0.2447 0.45839 0.0
C1353 C 0.59979 0.23319 0.47557 0.0
H1354 H 0.57169 0.24443 0.42056 0.0
H1355 H 0.64335 0.13642 0.58914 0.0
loop_
_geom_bond_atom_site_label_1
_geom_bond_atom_site_label_2
_geom_bond_distance
_geom_bond_site_symmetry_2
_ccdc_geom_bond_type
Mg0 O7 2.141 . S
Mg0 O8 2.048 . S
Mg0 O9 2.048 . S
Mg0 O12 2.141 . S
C1 O2 1.313 . S
C1 O8 1.195 . S
O2 C1 1.313 . S
C3 O4 1.245 . S
C3 O12 1.289 . S
O4 C3 1.245 . S
C5 O6 1.245 . S
C5 O7 1.289 . S
O6 C5 1.245 . S
O7 Mg0 2.141 . S
O7 C5 1.289 . S
O8 Mg0 2.048 . S
O8 C1 1.195 . S
O9 Mg0 2.048 . S
O9 C10 1.195 1_554 S
C10 O9 1.195 1_556 S
C10 O11 1.309 1_556 S
O11 C10 1.309 1_554 S
O12 Mg0 2.141 . S
O12 C3 1.289 . S
Mg13 O20 2.141 . S
Mg13 O21 2.048 . S
Mg13 O22 2.048 . S
Mg13 O25 2.141 . S
C14 O15 1.313 . S
C14 O21 1.195 . S
O15 C14 1.313 . S
C16 O17 1.245 . S
C16 O25 1.289 . S
O17 C16 1.245 . S
C18 O19 1.245 . S
C18 O20 1.289 . S
O19 C18 1.245 . S
O20 Mg13 2.141 . S
O20 C18 1.289 . S
O21 Mg13 2.048 . S
O21 C14 1.195 . S
O22 Mg13 2.048 . S
O22 C23 1.195 . S
C23 O22 1.195 . S
C23 O24 1.313 . S
O24 C23 1.313 . S
O25 Mg13 2.141 . S
O25 C16 1.289 . S
Mg26 O33 2.141 . S
Mg26 O34 2.048 . S
Mg26 O35 2.048 . S
Mg26 O38 2.141 . S
C27 O28 1.313 . S
C27 O34 1.195 . S
O28 C27 1.313 . S
C29 O30 1.245 . S
C29 O38 1.289 . S
O30 C29 1.245 . S
C31 O32 1.245 . S
C31 O33 1.289 . S
O32 C31 1.245 . S
O33 Mg26 2.141 . S
O33 C31 1.289 . S
O34 Mg26 2.048 . S
O34 C27 1.195 . S
O35 Mg26 2.048 . S
O35 C36 1.195 . S
C36 O35 1.195 . S
C36 O37 1.313 . S
O37 C36 1.313 . S
O38 Mg26 2.141 . S
O38 C29 1.289 . S
Mg39 O46 2.141 . S
Mg39 O47 2.048 . S
Mg39 O48 2.048 . S
Mg39 O51 2.141 . S
C40 O41 1.313 . S
C40 O47 1.195 . S
O41 C40 1.313 . S
C42 O43 1.245 . S
C42 O51 1.289 . S
O43 C42 1.245 . S
C44 O45 1.245 . S
C44 O46 1.289 . S
O45 C44 1.245 . S
O46 Mg39 2.141 . S
O46 C44 1.289 . S
O47 Mg39 2.048 . S
O47 C40 1.195 . S
O48 Mg39 2.048 . S
O48 C49 1.195 1_554 S
C49 O48 1.195 1_556 S
C49 O50 1.309 1_556 S
O50 C49 1.309 1_554 S
O51 Mg39 2.141 . S
O51 C42 1.289 . S
Mg52 O59 2.141 . S
Mg52 O60 2.048 . S
Mg52 O61 2.048 . S
Mg52 O64 2.141 . S
C53 O54 1.313 . S
C53 O60 1.195 . S
O54 C53 1.313 . S
C55 O56 1.245 . S
C55 O64 1.289 . S
O56 C55 1.245 . S
C57 O58 1.245 . S
C57 O59 1.289 . S
O58 C57 1.245 . S
O59 Mg52 2.141 . S
O59 C57 1.289 . S
O60 Mg52 2.048 . S
O60 C53 1.195 . S
O61 Mg52 2.048 . S
O61 C62 1.195 . S
C62 O61 1.195 . S
C62 O63 1.313 . S
O63 C62 1.313 . S
O64 Mg52 2.141 . S
O64 C55 1.289 . S
Mg65 O72 2.141 . S
Mg65 O73 2.048 . S
Mg65 O74 2.048 . S
Mg65 O77 2.141 . S
C66 O67 1.313 . S
C66 O73 1.195 . S
O67 C66 1.313 . S
C68 O69 1.245 . S
C68 O77 1.289 . S
O69 C68 1.245 . S
C70 O71 1.245 . S
C70 O72 1.289 . S
O71 C70 1.245 . S
O72 Mg65 2.141 . S
O72 C70 1.289 . S
O73 Mg65 2.048 . S
O73 C66 1.195 . S
O74 Mg65 2.048 . S
O74 C75 1.195 . S
C75 O74 1.195 . S
C75 O76 1.313 . S
O76 C75 1.313 . S
O77 Mg65 2.141 . S
O77 C68 1.289 . S
Mg78 O85 2.141 . S
Mg78 O86 2.048 . S
Mg78 O87 2.048 . S
Mg78 O90 2.141 . S
C79 O80 1.313 . S
C79 O86 1.195 . S
O80 C79 1.313 . S
C81 O82 1.245 . S
C81 O90 1.289 . S
O82 C81 1.245 . S
C83 O84 1.245 . S
C83 O85 1.289 . S
O84 C83 1.245 . S
O85 Mg78 2.141 . S
O85 C83 1.289 . S
O86 Mg78 2.048 . S
O86 C79 1.195 . S
O87 Mg78 2.048 . S
O87 C88 1.195 . S
C88 O87 1.195 . S
C88 O89 1.313 . S
O89 C88 1.313 . S
O90 Mg78 2.141 . S
O90 C81 1.289 . S
Mg91 O98 2.141 . S
Mg91 O99 2.048 . S
Mg91 O100 2.048 . S
Mg91 O103 2.141 . S
C92 O93 1.313 . S
C92 O99 1.195 . S
O93 C92 1.313 . S
C94 O95 1.245 . S
C94 O103 1.289 . S
O95 C94 1.245 . S
C96 O97 1.245 . S
C96 O98 1.289 . S
O97 C96 1.245 . S
O98 Mg91 2.141 . S
O98 C96 1.289 . S
O99 Mg91 2.048 . S
O99 C92 1.195 . S
O100 Mg91 2.048 . S
O100 C101 1.195 1_556 S
C101 O100 1.195 1_554 S
C101 O102 1.309 1_554 S
O102 C101 1.309 1_556 S
O103 Mg91 2.141 . S
O103 C94 1.289 . S
Mg104 O111 2.141 . S
Mg104 O112 2.048 . S
Mg104 O113 2.048 . S
Mg104 O116 2.141 . S
C105 O106 1.313 . S
C105 O112 1.195 . S
O106 C105 1.313 . S
C107 O108 1.245 . S
C107 O116 1.289 . S
O108 C107 1.245 . S
C109 O110 1.245 . S
C109 O111 1.289 . S
O110 C109 1.245 . S
O111 Mg104 2.141 . S
O111 C109 1.289 . S
O112 Mg104 2.048 . S
O112 C105 1.195 . S
O113 Mg104 2.048 . S
O113 C114 1.195 . S
C114 O113 1.195 . S
C114 O115 1.313 . S
O115 C114 1.313 . S
O116 Mg104 2.141 . S
O116 C107 1.289 . S
Mg117 O124 2.141 . S
Mg117 O125 2.048 . S
Mg117 O126 2.048 . S
Mg117 O129 2.141 . S
C118 O119 1.313 . S
C118 O125 1.195 . S
O119 C118 1.313 . S
C120 O121 1.245 . S
C120 O129 1.289 . S
O121 C120 1.245 . S
C122 O123 1.245 . S
C122 O124 1.289 . S
O123 C122 1.245 . S
O124 Mg117 2.141 . S
O124 C122 1.289 . S
O125 Mg117 2.048 . S
O125 C118 1.195 . S
O126 Mg117 2.048 . S
O126 C127 1.195 . S
C127 O126 1.195 . S
C127 O128 1.313 . S
O128 C127 1.313 . S
O129 Mg117 2.141 . S
O129 C120 1.289 . S
Mg130 O137 2.141 . S
Mg130 O138 2.048 . S
Mg130 O139 2.048 . S
Mg130 O142 2.141 . S
C131 O132 1.313 . S
C131 O138 1.195 . S
O132 C131 1.313 . S
C133 O134 1.245 . S
C133 O142 1.289 . S
O134 C133 1.245 . S
C135 O136 1.245 . S
C135 O137 1.289 . S
O136 C135 1.245 . S
O137 Mg130 2.141 . S
O137 C135 1.289 . S
O138 Mg130 2.048 . S
O138 C131 1.195 . S
O139 Mg130 2.048 . S
O139 C140 1.195 1_556 S
C140 O139 1.195 1_554 S
C140 O141 1.309 1_554 S
O141 C140 1.309 1_556 S
O142 Mg130 2.141 . S
O142 C133 1.289 . S
Mg143 O150 2.141 . S
Mg143 O151 2.048 . S
Mg143 O152 2.048 . S
Mg143 O155 2.141 . S
C144 O145 1.313 . S
C144 O151 1.195 . S
O145 C144 1.313 . S
C146 O147 1.245 . S
C146 O155 1.289 . S
O147 C146 1.245 . S
C148 O149 1.245 . S
C148 O150 1.289 . S
O149 C148 1.245 . S
O150 Mg143 2.141 . S
O150 C148 1.289 . S
O151 Mg143 2.048 . S
O151 C144 1.195 . S
O152 Mg143 2.048 . S
O152 C153 1.195 . S
C153 O152 1.195 . S
C153 O154 1.313 . S
O154 C153 1.313 . S
O155 Mg143 2.141 . S
O155 C146 1.289 . S
H156 C174 0.951 . S
H157 C176 0.951 . S
H158 C178 0.950 . S
H159 C179 0.950 . S
H160 C181 0.950 . S
H161 C184 0.950 . S
H162 C185 0.950 . S
H163 C187 0.950 . S
H164 C188 0.950 . S
H165 C189 0.951 . S
H166 C191 0.951 . S
H167 C193 0.950 . S
H168 C194 0.950 . S
H169 C196 0.950 . S
H170 C199 0.950 . S
H171 C200 0.950 . S
H172 C202 0.950 . S
H173 C203 0.950 . S
C174 H156 0.951 . S
C174 C175 1.366 . S
C174 C176 1.388 . S
C175 C174 1.366 . S
C175 C179 1.385 . S
C176 H157 0.951 . S
C176 C174 1.388 . S
C176 C177 1.366 . S
C177 C176 1.366 . S
C177 C178 1.414 . S
C177 C180 1.499 . S
C178 H158 0.950 . S
C178 C177 1.414 . S
C178 C179 1.374 . S
C179 H159 0.950 . S
C179 C175 1.385 . S
C179 C178 1.374 . S
C180 C177 1.499 . S
C180 C181 1.373 . S
C180 C182 1.389 . S
C181 H160 0.950 . S
C181 C180 1.373 . S
C181 C197 1.377 . S
C182 C180 1.389 . S
C182 C183 1.524 . S
C182 C196 1.377 . S
C183 C182 1.524 . S
C183 C184 1.397 . S
C183 C188 1.363 . S
C184 H161 0.950 . S
C184 C183 1.397 . S
C184 C185 1.334 . S
C185 H162 0.950 . S
C185 C184 1.334 . S
C185 C186 1.287 . S
C186 C185 1.287 . S
C186 C187 1.524 . S
C186 H205 0.913 . S
C187 H163 0.950 . S
C187 C186 1.524 . S
C187 C188 1.415 . S
C188 H164 0.950 . S
C188 C183 1.363 . S
C188 C187 1.415 . S
C189 H165 0.951 . S
C189 C190 1.366 . S
C189 C191 1.388 . S
C190 C189 1.366 . S
C190 C194 1.385 . S
C191 H166 0.951 . S
C191 C189 1.388 . S
C191 C192 1.366 . S
C192 C191 1.366 . S
C192 C193 1.414 . S
C192 C195 1.499 . S
C193 H167 0.950 . S
C193 C192 1.414 . S
C193 C194 1.374 . S
C194 H168 0.950 . S
C194 C190 1.385 . S
C194 C193 1.374 . S
C195 C192 1.499 . S
C195 C196 1.373 . S
C195 C197 1.389 . S
C196 H169 0.950 . S
C196 C182 1.377 . S
C196 C195 1.373 . S
C197 C181 1.377 . S
C197 C195 1.389 . S
C197 C198 1.524 . S
C198 C197 1.524 . S
C198 C199 1.397 . S
C198 C203 1.363 . S
C199 H170 0.950 . S
C199 C198 1.397 . S
C199 C200 1.334 . S
C200 H171 0.950 . S
C200 C199 1.334 . S
C200 C201 1.287 . S
C201 C200 1.287 . S
C201 C202 1.524 . S
C201 H204 0.999 . S
C202 H172 0.950 . S
C202 C201 1.524 . S
C202 C203 1.415 . S
C203 H173 0.950 . S
C203 C198 1.363 . S
C203 C202 1.415 . S
H204 C201 0.999 . S
H205 C186 0.913 . S
H206 C224 0.951 . S
H207 C226 0.951 . S
H208 C228 0.950 . S
H209 C229 0.950 . S
H210 C231 0.950 . S
H211 C234 0.950 . S
H212 C235 0.950 . S
H213 C237 0.950 . S
H214 C238 0.950 . S
H215 C239 0.951 . S
H216 C241 0.951 . S
H217 C243 0.950 . S
H218 C244 0.950 . S
H219 C246 0.950 . S
H220 C249 0.950 . S
H221 C250 0.950 . S
H222 C252 0.950 . S
H223 C253 0.950 . S
C224 H206 0.951 . S
C224 C225 1.366 . S
C224 C226 1.388 . S
C225 C224 1.366 . S
C225 C229 1.385 . S
C226 H207 0.951 . S
C226 C224 1.388 . S
C226 C227 1.366 . S
C227 C226 1.366 . S
C227 C228 1.414 . S
C227 C230 1.499 . S
C228 H208 0.950 . S
C228 C227 1.414 . S
C228 C229 1.374 . S
C229 H209 0.950 . S
C229 C225 1.385 . S
C229 C228 1.374 . S
C230 C227 1.499 . S
C230 C231 1.373 . S
C230 C232 1.389 . S
C231 H210 0.950 . S
C231 C230 1.373 . S
C231 C247 1.377 . S
C232 C230 1.389 . S
C232 C233 1.524 . S
C232 C246 1.377 . S
C233 C232 1.524 . S
C233 C234 1.397 . S
C233 C238 1.363 . S
C234 H211 0.950 . S
C234 C233 1.397 . S
C234 C235 1.334 . S
C235 H212 0.950 . S
C235 C234 1.334 . S
C235 C236 1.287 . S
C236 C235 1.287 . S
C236 C237 1.524 . S
C236 H255 0.913 . S
C237 H213 0.950 . S
C237 C236 1.524 . S
C237 C238 1.415 . S
C238 H214 0.950 . S
C238 C233 1.363 . S
C238 C237 1.415 . S
C239 H215 0.951 . S
C239 C240 1.366 . S
C239 C241 1.388 . S
C240 C239 1.366 . S
C240 C244 1.385 . S
C241 H216 0.951 . S
C241 C239 1.388 . S
C241 C242 1.366 . S
C242 C241 1.366 . S
C242 C243 1.414 . S
C242 C245 1.499 . S
C243 H217 0.950 . S
C243 C242 1.414 . S
C243 C244 1.374 . S
C244 H218 0.950 . S
C244 C240 1.385 . S
C244 C243 1.374 . S
C245 C242 1.499 . S
C245 C246 1.373 . S
C245 C247 1.389 . S
C246 H219 0.950 . S
C246 C232 1.377 . S
C246 C245 1.373 . S
C247 C231 1.377 . S
C247 C245 1.389 . S
C247 C248 1.524 . S
C248 C247 1.524 . S
C248 C249 1.397 . S
C248 C253 1.363 . S
C249 H220 0.950 . S
C249 C248 1.397 . S
C249 C250 1.334 . S
C250 H221 0.950 . S
C250 C249 1.334 . S
C250 C251 1.287 . S
C251 C250 1.287 . S
C251 C252 1.524 . S
C251 H254 0.999 . S
C252 H222 0.950 . S
C252 C251 1.524 . S
C252 C253 1.415 . S
C253 H223 0.950 . S
C253 C248 1.363 . S
C253 C252 1.415 . S
H254 C251 0.999 . S
H255 C236 0.913 . S
H256 C274 0.951 . S
H257 C276 0.951 . S
H258 C278 0.950 . S
H259 C279 0.950 . S
H260 C281 0.950 . S
H261 C284 0.950 . S
H262 C285 0.950 . S
H263 C287 0.950 . S
H264 C288 0.950 . S
H265 C289 0.951 . S
H266 C291 0.951 . S
H267 C293 0.950 . S
H268 C294 0.950 . S
H269 C296 0.950 . S
H270 C299 0.950 . S
H271 C300 0.950 . S
H272 C302 0.950 . S
H273 C303 0.950 . S
C274 H256 0.951 . S
C274 C275 1.366 . S
C274 C276 1.388 . S
C275 C274 1.366 . S
C275 C279 1.385 . S
C276 H257 0.951 . S
C276 C274 1.388 . S
C276 C277 1.366 . S
C277 C276 1.366 . S
C277 C278 1.414 . S
C277 C280 1.499 . S
C278 H258 0.950 . S
C278 C277 1.414 . S
C278 C279 1.374 . S
C279 H259 0.950 . S
C279 C275 1.385 . S
C279 C278 1.374 . S
C280 C277 1.499 . S
C280 C281 1.373 . S
C280 C282 1.389 . S
C281 H260 0.950 . S
C281 C280 1.373 . S
C281 C297 1.377 1_556 S
C282 C280 1.389 . S
C282 C283 1.524 . S
C282 C296 1.377 1_556 S
C283 C282 1.524 . S
C283 C284 1.397 . S
C283 C288 1.363 . S
C284 H261 0.950 . S
C284 C283 1.397 . S
C284 C285 1.334 . S
C285 H262 0.950 . S
C285 C284 1.334 . S
C285 C286 1.287 . S
C286 C285 1.287 . S
C286 C287 1.524 . S
C286 H305 0.913 . S
C287 H263 0.950 . S
C287 C286 1.524 . S
C287 C288 1.415 . S
C288 H264 0.950 . S
C288 C283 1.363 . S
C288 C287 1.415 . S
C289 H265 0.951 . S
C289 C290 1.366 . S
C289 C291 1.388 . S
C290 C289 1.366 . S
C290 C294 1.385 . S
C291 H266 0.951 . S
C291 C289 1.388 . S
C291 C292 1.366 . S
C292 C291 1.366 . S
C292 C293 1.414 . S
C292 C295 1.499 . S
C293 H267 0.950 . S
C293 C292 1.414 . S
C293 C294 1.374 . S
C294 H268 0.950 . S
C294 C290 1.385 . S
C294 C293 1.374 . S
C295 C292 1.499 . S
C295 C296 1.373 . S
C295 C297 1.389 . S
C296 H269 0.950 . S
C296 C282 1.377 1_554 S
C296 C295 1.373 . S
C297 C281 1.377 1_554 S
C297 C295 1.389 . S
C297 C298 1.524 . S
C298 C297 1.524 . S
C298 C299 1.397 . S
C298 C303 1.363 . S
C299 H270 0.950 . S
C299 C298 1.397 . S
C299 C300 1.334 . S
C300 H271 0.950 . S
C300 C299 1.334 . S
C300 C301 1.287 . S
C301 C300 1.287 . S
C301 C302 1.524 . S
C301 H304 0.999 . S
C302 H272 0.950 . S
C302 C301 1.524 . S
C302 C303 1.415 . S
C303 H273 0.950 . S
C303 C298 1.363 . S
C303 C302 1.415 . S
H304 C301 0.999 . S
H305 C286 0.913 . S
H306 C324 0.951 . S
H307 C326 0.951 . S
H308 C328 0.950 . S
H309 C329 0.950 . S
H310 C331 0.950 . S
H311 C334 0.950 . S
H312 C335 0.950 . S
H313 C337 0.950 . S
H314 C338 0.950 . S
H315 C339 0.951 . S
H316 C341 0.951 . S
H317 C343 0.950 . S
H318 C344 0.950 . S
H319 C346 0.950 . S
H320 C349 0.950 . S
H321 C350 0.950 . S
H322 C352 0.950 . S
H323 C353 0.950 . S
C324 H306 0.951 . S
C324 C325 1.366 . S
C324 C326 1.388 . S
C325 C324 1.366 . S
C325 C329 1.385 . S
C326 H307 0.951 . S
C326 C324 1.388 . S
C326 C327 1.366 . S
C327 C326 1.366 . S
C327 C328 1.414 . S
C327 C330 1.499 . S
C328 H308 0.950 . S
C328 C327 1.414 . S
C328 C329 1.374 . S
C329 H309 0.950 . S
C329 C325 1.385 . S
C329 C328 1.374 . S
C330 C327 1.499 . S
C330 C331 1.373 . S
C330 C332 1.389 . S
C331 H310 0.950 . S
C331 C330 1.373 . S
C331 C347 1.377 . S
C332 C330 1.389 . S
C332 C333 1.524 . S
C332 C346 1.377 . S
C333 C332 1.524 . S
C333 C334 1.397 . S
C333 C338 1.363 . S
C334 H311 0.950 . S
C334 C333 1.397 . S
C334 C335 1.334 . S
C335 H312 0.950 . S
C335 C334 1.334 . S
C335 C336 1.287 . S
C336 C335 1.287 . S
C336 C337 1.524 . S
C336 H355 0.913 . S
C337 H313 0.950 . S
C337 C336 1.524 . S
C337 C338 1.415 . S
C338 H314 0.950 . S
C338 C333 1.363 . S
C338 C337 1.415 . S
C339 H315 0.951 . S
C339 C340 1.366 . S
C339 C341 1.388 . S
C340 C339 1.366 . S
C340 C344 1.385 . S
C341 H316 0.951 . S
C341 C339 1.388 . S
C341 C342 1.366 . S
C342 C341 1.366 . S
C342 C343 1.414 . S
C342 C345 1.499 . S
C343 H317 0.950 . S
C343 C342 1.414 . S
C343 C344 1.374 . S
C344 H318 0.950 . S
C344 C340 1.385 . S
C344 C343 1.374 . S
C345 C342 1.499 . S
C345 C346 1.373 . S
C345 C347 1.389 . S
C346 H319 0.950 . S
C346 C332 1.377 . S
C346 C345 1.373 . S
C347 C331 1.377 . S
C347 C345 1.389 . S
C347 C348 1.524 . S
C348 C347 1.524 . S
C348 C349 1.397 . S
C348 C353 1.363 . S
C349 H320 0.950 . S
C349 C348 1.397 . S
C349 C350 1.334 . S
C350 H321 0.950 . S
C350 C349 1.334 . S
C350 C351 1.287 . S
C351 C350 1.287 . S
C351 C352 1.524 . S
C351 H354 0.999 . S
C352 H322 0.950 . S
C352 C351 1.524 . S
C352 C353 1.415 . S
C353 H323 0.950 . S
C353 C348 1.363 . S
C353 C352 1.415 . S
H354 C351 0.999 . S
H355 C336 0.913 . S
H356 C374 0.951 . S
H357 C376 0.951 . S
H358 C378 0.950 . S
H359 C379 0.950 . S
H360 C381 0.950 . S
H361 C384 0.950 . S
H362 C385 0.950 . S
H363 C387 0.950 . S
H364 C388 0.950 . S
H365 C389 0.951 . S
H366 C391 0.951 . S
H367 C393 0.950 . S
H368 C394 0.950 . S
H369 C396 0.950 . S
H370 C399 0.950 . S
H371 C400 0.950 . S
H372 C402 0.950 . S
H373 C403 0.950 . S
C374 H356 0.951 . S
C374 C375 1.366 . S
C374 C376 1.388 . S
C375 C374 1.366 . S
C375 C379 1.385 . S
C376 H357 0.951 . S
C376 C374 1.388 . S
C376 C377 1.366 . S
C377 C376 1.366 . S
C377 C378 1.414 . S
C377 C380 1.499 . S
C378 H358 0.950 . S
C378 C377 1.414 . S
C378 C379 1.374 . S
C379 H359 0.950 . S
C379 C375 1.385 . S
C379 C378 1.374 . S
C380 C377 1.499 . S
C380 C381 1.373 . S
C380 C382 1.389 . S
C381 H360 0.950 . S
C381 C380 1.373 . S
C381 C397 1.377 . S
C382 C380 1.389 . S
C382 C383 1.524 . S
C382 C396 1.377 . S
C383 C382 1.524 . S
C383 C384 1.397 . S
C383 C388 1.363 . S
C384 H361 0.950 . S
C384 C383 1.397 . S
C384 C385 1.334 . S
C385 H362 0.950 . S
C385 C384 1.334 . S
C385 C386 1.287 . S
C386 C385 1.287 . S
C386 C387 1.524 . S
C386 H405 0.913 . S
C387 H363 0.950 . S
C387 C386 1.524 . S
C387 C388 1.415 . S
C388 H364 0.950 . S
C388 C383 1.363 . S
C388 C387 1.415 . S
C389 H365 0.951 . S
C389 C390 1.366 . S
C389 C391 1.388 . S
C390 C389 1.366 . S
C390 C394 1.385 . S
C391 H366 0.951 . S
C391 C389 1.388 . S
C391 C392 1.366 . S
C392 C391 1.366 . S
C392 C393 1.414 . S
C392 C395 1.499 . S
C393 H367 0.950 . S
C393 C392 1.414 . S
C393 C394 1.374 . S
C394 H368 0.950 . S
C394 C390 1.385 . S
C394 C393 1.374 . S
C395 C392 1.499 . S
C395 C396 1.373 . S
C395 C397 1.389 . S
C396 H369 0.950 . S
C396 C382 1.377 . S
C396 C395 1.373 . S
C397 C381 1.377 . S
C397 C395 1.389 . S
C397 C398 1.524 . S
C398 C397 1.524 . S
C398 C399 1.397 . S
C398 C403 1.363 . S
C399 H370 0.950 . S
C399 C398 1.397 . S
C399 C400 1.334 . S
C400 H371 0.950 . S
C400 C399 1.334 . S
C400 C401 1.287 . S
C401 C400 1.287 . S
C401 C402 1.524 . S
C401 H404 0.999 . S
C402 H372 0.950 . S
C402 C401 1.524 . S
C402 C403 1.415 . S
C403 H373 0.950 . S
C403 C398 1.363 . S
C403 C402 1.415 . S
H404 C401 0.999 . S
H405 C386 0.913 . S
H406 C424 0.951 . S
H407 C426 0.951 . S
H408 C428 0.950 . S
H409 C429 0.950 . S
H410 C431 0.950 . S
H411 C434 0.950 . S
H412 C435 0.950 . S
H413 C437 0.950 . S
H414 C438 0.950 . S
H415 C439 0.951 . S
H416 C441 0.951 . S
H417 C443 0.950 . S
H418 C444 0.950 . S
H419 C446 0.950 . S
H420 C449 0.950 . S
H421 C450 0.950 . S
H422 C452 0.950 . S
H423 C453 0.950 . S
C424 H406 0.951 . S
C424 C425 1.366 . S
C424 C426 1.388 . S
C425 C424 1.366 . S
C425 C429 1.385 . S
C426 H407 0.951 . S
C426 C424 1.388 . S
C426 C427 1.366 . S
C427 C426 1.366 . S
C427 C428 1.414 . S
C427 C430 1.499 . S
C428 H408 0.950 . S
C428 C427 1.414 . S
C428 C429 1.374 . S
C429 H409 0.950 . S
C429 C425 1.385 . S
C429 C428 1.374 . S
C430 C427 1.499 . S
C430 C431 1.373 . S
C430 C432 1.389 . S
C431 H410 0.950 . S
C431 C430 1.373 . S
C431 C447 1.377 1_554 S
C432 C430 1.389 . S
C432 C433 1.524 . S
C432 C446 1.377 1_554 S
C433 C432 1.524 . S
C433 C434 1.397 . S
C433 C438 1.363 . S
C434 H411 0.950 . S
C434 C433 1.397 . S
C434 C435 1.334 . S
C435 H412 0.950 . S
C435 C434 1.334 . S
C435 C436 1.287 . S
C436 C435 1.287 . S
C436 C437 1.524 . S
C436 H455 0.913 . S
C437 H413 0.950 . S
C437 C436 1.524 . S
C437 C438 1.415 . S
C438 H414 0.950 . S
C438 C433 1.363 . S
C438 C437 1.415 . S
C439 H415 0.951 . S
C439 C440 1.366 . S
C439 C441 1.388 . S
C440 C439 1.366 . S
C440 C444 1.385 . S
C441 H416 0.951 . S
C441 C439 1.388 . S
C441 C442 1.366 . S
C442 C441 1.366 . S
C442 C443 1.414 . S
C442 C445 1.499 . S
C443 H417 0.950 . S
C443 C442 1.414 . S
C443 C444 1.374 . S
C444 H418 0.950 . S
C444 C440 1.385 . S
C444 C443 1.374 . S
C445 C442 1.499 . S
C445 C446 1.373 . S
C445 C447 1.389 . S
C446 H419 0.950 . S
C446 C432 1.377 1_556 S
C446 C445 1.373 . S
C447 C431 1.377 1_556 S
C447 C445 1.389 . S
C447 C448 1.524 . S
C448 C447 1.524 . S
C448 C449 1.397 . S
C448 C453 1.363 . S
C449 H420 0.950 . S
C449 C448 1.397 . S
C449 C450 1.334 . S
C450 H421 0.950 . S
C450 C449 1.334 . S
C450 C451 1.287 . S
C451 C450 1.287 . S
C451 C452 1.524 . S
C451 H454 0.999 . S
C452 H422 0.950 . S
C452 C451 1.524 . S
C452 C453 1.415 . S
C453 H423 0.950 . S
C453 C448 1.363 . S
C453 C452 1.415 . S
H454 C451 0.999 . S
H455 C436 0.913 . S
H456 C474 0.951 . S
H457 C476 0.951 . S
H458 C478 0.950 . S
H459 C479 0.950 . S
H460 C481 0.950 . S
H461 C484 0.950 . S
H462 C485 0.950 . S
H463 C487 0.950 . S
H464 C488 0.950 1_554 S
H465 C489 0.951 . S
H466 C491 0.951 . S
H467 C493 0.950 . S
H468 C494 0.950 . S
H469 C496 0.950 . S
H470 C499 0.950 . S
H471 C500 0.950 . S
H472 C502 0.950 . S
H473 C503 0.950 1_556 S
C474 H456 0.951 . S
C474 C475 1.366 . S
C474 C476 1.388 . S
C475 C474 1.366 . S
C475 C479 1.385 . S
C476 H457 0.951 . S
C476 C474 1.388 . S
C476 C477 1.366 . S
C477 C476 1.366 . S
C477 C478 1.414 . S
C477 C480 1.499 . S
C478 H458 0.950 . S
C478 C477 1.414 . S
C478 C479 1.374 . S
C479 H459 0.950 . S
C479 C475 1.385 . S
C479 C478 1.374 . S
C480 C477 1.499 . S
C480 C481 1.373 . S
C480 C482 1.389 1_554 S
C481 H460 0.950 . S
C481 C480 1.373 . S
C481 C497 1.377 . S
C482 C480 1.389 1_556 S
C482 C483 1.524 . S
C482 C496 1.377 . S
C483 C482 1.524 . S
C483 C484 1.397 . S
C483 C488 1.363 . S
C484 H461 0.950 . S
C484 C483 1.397 . S
C484 C485 1.334 . S
C485 H462 0.950 . S
C485 C484 1.334 . S
C485 C486 1.287 . S
C486 C485 1.287 . S
C486 C487 1.524 . S
C486 H505 0.913 . S
C487 H463 0.950 . S
C487 C486 1.524 . S
C487 C488 1.415 . S
C488 H464 0.950 1_556 S
C488 C483 1.363 . S
C488 C487 1.415 . S
C489 H465 0.951 . S
C489 C490 1.366 . S
C489 C491 1.388 . S
C490 C489 1.366 . S
C490 C494 1.385 . S
C491 H466 0.951 . S
C491 C489 1.388 . S
C491 C492 1.366 . S
C492 C491 1.366 . S
C492 C493 1.414 . S
C492 C495 1.499 . S
C493 H467 0.950 . S
C493 C492 1.414 . S
C493 C494 1.374 . S
C494 H468 0.950 . S
C494 C490 1.385 . S
C494 C493 1.374 . S
C495 C492 1.499 . S
C495 C496 1.373 . S
C495 C497 1.389 1_556 S
C496 H469 0.950 . S
C496 C482 1.377 . S
C496 C495 1.373 . S
C497 C481 1.377 . S
C497 C495 1.389 1_554 S
C497 C498 1.524 . S
C498 C497 1.524 . S
C498 C499 1.397 . S
C498 C503 1.363 . S
C499 H470 0.950 . S
C499 C498 1.397 . S
C499 C500 1.334 . S
C500 H471 0.950 . S
C500 C499 1.334 . S
C500 C501 1.287 . S
C501 C500 1.287 . S
C501 C502 1.524 . S
C501 H504 0.999 . S
C502 H472 0.950 . S
C502 C501 1.524 . S
C502 C503 1.415 . S
C503 H473 0.950 1_554 S
C503 C498 1.363 . S
C503 C502 1.415 . S
H504 C501 0.999 . S
H505 C486 0.913 . S
H506 C524 0.951 . S
H507 C526 0.951 . S
H508 C528 0.950 . S
H509 C529 0.950 . S
H510 C531 0.950 . S
H511 C534 0.950 . S
H512 C535 0.950 . S
H513 C537 0.950 . S
H514 C538 0.950 . S
H515 C539 0.951 . S
H516 C541 0.951 . S
H517 C543 0.950 . S
H518 C544 0.950 . S
H519 C546 0.950 . S
H520 C549 0.950 . S
H521 C550 0.950 . S
H522 C552 0.950 . S
H523 C553 0.950 . S
C524 H506 0.951 . S
C524 C525 1.366 . S
C524 C526 1.388 . S
C525 C524 1.366 . S
C525 C529 1.385 . S
C526 H507 0.951 . S
C526 C524 1.388 . S
C526 C527 1.366 . S
C527 C526 1.366 . S
C527 C528 1.414 . S
C527 C530 1.499 . S
C528 H508 0.950 . S
C528 C527 1.414 . S
C528 C529 1.374 . S
C529 H509 0.950 . S
C529 C525 1.385 . S
C529 C528 1.374 . S
C530 C527 1.499 . S
C530 C531 1.373 . S
C530 C532 1.389 . S
C531 H510 0.950 . S
C531 C530 1.373 . S
C531 C547 1.377 . S
C532 C530 1.389 . S
C532 C533 1.524 . S
C532 C546 1.377 . S
C533 C532 1.524 . S
C533 C534 1.397 . S
C533 C538 1.363 . S
C534 H511 0.950 . S
C534 C533 1.397 . S
C534 C535 1.334 . S
C535 H512 0.950 . S
C535 C534 1.334 . S
C535 C536 1.287 . S
C536 C535 1.287 . S
C536 C537 1.524 . S
C536 H555 0.913 . S
C537 H513 0.950 . S
C537 C536 1.524 . S
C537 C538 1.415 . S
C538 H514 0.950 . S
C538 C533 1.363 . S
C538 C537 1.415 . S
C539 H515 0.951 . S
C539 C540 1.366 . S
C539 C541 1.388 . S
C540 C539 1.366 . S
C540 C544 1.385 . S
C541 H516 0.951 . S
C541 C539 1.388 . S
C541 C542 1.366 . S
C542 C541 1.366 . S
C542 C543 1.414 . S
C542 C545 1.499 . S
C543 H517 0.950 . S
C543 C542 1.414 . S
C543 C544 1.374 . S
C544 H518 0.950 . S
C544 C540 1.385 . S
C544 C543 1.374 . S
C545 C542 1.499 . S
C545 C546 1.373 . S
C545 C547 1.389 . S
C546 H519 0.950 . S
C546 C532 1.377 . S
C546 C545 1.373 . S
C547 C531 1.377 . S
C547 C545 1.389 . S
C547 C548 1.524 . S
C548 C547 1.524 . S
C548 C549 1.397 . S
C548 C553 1.363 . S
C549 H520 0.950 . S
C549 C548 1.397 . S
C549 C550 1.334 . S
C550 H521 0.950 . S
C550 C549 1.334 . S
C550 C551 1.287 . S
C551 C550 1.287 . S
C551 C552 1.524 . S
C551 H554 0.999 . S
C552 H522 0.950 . S
C552 C551 1.524 . S
C552 C553 1.415 . S
C553 H523 0.950 . S
C553 C548 1.363 . S
C553 C552 1.415 . S
H554 C551 0.999 . S
H555 C536 0.913 . S
H556 C574 0.951 . S
H557 C576 0.951 . S
H558 C578 0.950 . S
H559 C579 0.950 . S
H560 C581 0.950 . S
H561 C584 0.950 . S
H562 C585 0.950 . S
H563 C587 0.950 . S
H564 C588 0.950 . S
H565 C589 0.951 . S
H566 C591 0.951 . S
H567 C593 0.950 . S
H568 C594 0.950 . S
H569 C596 0.950 . S
H570 C599 0.950 . S
H571 C600 0.950 . S
H572 C602 0.950 . S
H573 C603 0.950 . S
C574 H556 0.951 . S
C574 C575 1.366 . S
C574 C576 1.388 . S
C575 C574 1.366 . S
C575 C579 1.385 . S
C576 H557 0.951 . S
C576 C574 1.388 . S
C576 C577 1.366 . S
C577 C576 1.366 . S
C577 C578 1.414 . S
C577 C580 1.499 . S
C578 H558 0.950 . S
C578 C577 1.414 . S
C578 C579 1.374 . S
C579 H559 0.950 . S
C579 C575 1.385 . S
C579 C578 1.374 . S
C580 C577 1.499 . S
C580 C581 1.373 . S
C580 C582 1.389 . S
C581 H560 0.950 . S
C581 C580 1.373 . S
C581 C597 1.377 . S
C582 C580 1.389 . S
C582 C583 1.524 . S
C582 C596 1.377 . S
C583 C582 1.524 . S
C583 C584 1.397 . S
C583 C588 1.363 . S
C584 H561 0.950 . S
C584 C583 1.397 . S
C584 C585 1.334 . S
C585 H562 0.950 . S
C585 C584 1.334 . S
C585 C586 1.287 . S
C586 C585 1.287 . S
C586 C587 1.524 . S
C586 H605 0.913 . S
C587 H563 0.950 . S
C587 C586 1.524 . S
C587 C588 1.415 . S
C588 H564 0.950 . S
C588 C583 1.363 . S
C588 C587 1.415 . S
C589 H565 0.951 . S
C589 C590 1.366 . S
C589 C591 1.388 . S
C590 C589 1.366 . S
C590 C594 1.385 . S
C591 H566 0.951 . S
C591 C589 1.388 . S
C591 C592 1.366 . S
C592 C591 1.366 . S
C592 C593 1.414 . S
C592 C595 1.499 . S
C593 H567 0.950 . S
C593 C592 1.414 . S
C593 C594 1.374 . S
C594 H568 0.950 . S
C594 C590 1.385 . S
C594 C593 1.374 . S
C595 C592 1.499 . S
C595 C596 1.373 . S
C595 C597 1.389 . S
C596 H569 0.950 . S
C596 C582 1.377 . S
C596 C595 1.373 . S
C597 C581 1.377 . S
C597 C595 1.389 . S
C597 C598 1.524 . S
C598 C597 1.524 . S
C598 C599 1.397 . S
C598 C603 1.363 . S
C599 H570 0.950 . S
C599 C598 1.397 . S
C599 C600 1.334 . S
C600 H571 0.950 . S
C600 C599 1.334 . S
C600 C601 1.287 . S
C601 C600 1.287 . S
C601 C602 1.524 . S
C601 H604 0.999 . S
C602 H572 0.950 . S
C602 C601 1.524 . S
C602 C603 1.415 . S
C603 H573 0.950 . S
C603 C598 1.363 . S
C603 C602 1.415 . S
H604 C601 0.999 . S
H605 C586 0.913 . S
H606 C624 0.951 . S
H607 C626 0.951 1_556 S
H608 C628 0.950 . S
H609 C629 0.950 . S
H610 C631 0.950 . S
H611 C634 0.950 . S
H612 C635 0.950 . S
H613 C637 0.950 . S
H614 C638 0.950 . S
H615 C639 0.951 . S
H616 C641 0.951 1_554 S
H617 C643 0.950 . S
H618 C644 0.950 . S
H619 C646 0.950 . S
H620 C649 0.950 . S
H621 C650 0.950 . S
H622 C652 0.950 . S
H623 C653 0.950 . S
C624 H606 0.951 . S
C624 C625 1.366 . S
C624 C626 1.388 . S
C625 C624 1.366 . S
C625 C629 1.385 . S
C626 H607 0.951 1_554 S
C626 C624 1.388 . S
C626 C627 1.366 . S
C627 C626 1.366 . S
C627 C628 1.414 . S
C627 C630 1.499 . S
C628 H608 0.950 . S
C628 C627 1.414 . S
C628 C629 1.374 . S
C629 H609 0.950 . S
C629 C625 1.385 . S
C629 C628 1.374 . S
C630 C627 1.499 . S
C630 C631 1.373 . S
C630 C632 1.389 1_554 S
C631 H610 0.950 . S
C631 C630 1.373 . S
C631 C647 1.377 . S
C632 C630 1.389 1_556 S
C632 C633 1.524 . S
C632 C646 1.377 . S
C633 C632 1.524 . S
C633 C634 1.397 . S
C633 C638 1.363 . S
C634 H611 0.950 . S
C634 C633 1.397 . S
C634 C635 1.334 . S
C635 H612 0.950 . S
C635 C634 1.334 . S
C635 C636 1.287 . S
C636 C635 1.287 . S
C636 C637 1.524 . S
C636 H655 0.913 . S
C637 H613 0.950 . S
C637 C636 1.524 . S
C637 C638 1.415 . S
C638 H614 0.950 . S
C638 C633 1.363 . S
C638 C637 1.415 . S
C639 H615 0.951 . S
C639 C640 1.366 . S
C639 C641 1.388 . S
C640 C639 1.366 . S
C640 C644 1.385 . S
C641 H616 0.951 1_556 S
C641 C639 1.388 . S
C641 C642 1.366 . S
C642 C641 1.366 . S
C642 C643 1.414 . S
C642 C645 1.499 . S
C643 H617 0.950 . S
C643 C642 1.414 . S
C643 C644 1.374 . S
C644 H618 0.950 . S
C644 C640 1.385 . S
C644 C643 1.374 . S
C645 C642 1.499 . S
C645 C646 1.373 . S
C645 C647 1.389 1_556 S
C646 H619 0.950 . S
C646 C632 1.377 . S
C646 C645 1.373 . S
C647 C631 1.377 . S
C647 C645 1.389 1_554 S
C647 C648 1.524 . S
C648 C647 1.524 . S
C648 C649 1.397 . S
C648 C653 1.363 . S
C649 H620 0.950 . S
C649 C648 1.397 . S
C649 C650 1.334 . S
C650 H621 0.950 . S
C650 C649 1.334 . S
C650 C651 1.287 . S
C651 C650 1.287 . S
C651 C652 1.524 . S
C651 H654 0.999 . S
C652 H622 0.950 . S
C652 C651 1.524 . S
C652 C653 1.415 . S
C653 H623 0.950 . S
C653 C648 1.363 . S
C653 C652 1.415 . S
H654 C651 0.999 . S
H655 C636 0.913 . S
H656 C674 0.951 . S
H657 C676 0.951 . S
H658 C678 0.950 . S
H659 C679 0.950 . S
H660 C681 0.950 . S
H661 C684 0.950 . S
H662 C685 0.950 . S
H663 C687 0.950 . S
H664 C688 0.950 . S
H665 C689 0.951 . S
H666 C691 0.951 . S
H667 C693 0.950 . S
H668 C694 0.950 . S
H669 C696 0.950 . S
H670 C699 0.950 . S
H671 C700 0.950 . S
H672 C702 0.950 . S
H673 C703 0.950 . S
C674 H656 0.951 . S
C674 C675 1.366 . S
C674 C676 1.388 . S
C675 C674 1.366 . S
C675 C679 1.385 . S
C676 H657 0.951 . S
C676 C674 1.388 . S
C676 C677 1.366 . S
C677 C676 1.366 . S
C677 C678 1.414 . S
C677 C680 1.499 . S
C678 H658 0.950 . S
C678 C677 1.414 . S
C678 C679 1.374 . S
C679 H659 0.950 . S
C679 C675 1.385 . S
C679 C678 1.374 . S
C680 C677 1.499 . S
C680 C681 1.373 . S
C680 C682 1.389 . S
C681 H660 0.950 . S
C681 C680 1.373 . S
C681 C697 1.377 . S
C682 C680 1.389 . S
C682 C683 1.524 . S
C682 C696 1.377 . S
C683 C682 1.524 . S
C683 C684 1.397 . S
C683 C688 1.363 . S
C684 H661 0.950 . S
C684 C683 1.397 . S
C684 C685 1.334 . S
C685 H662 0.950 . S
C685 C684 1.334 . S
C685 C686 1.287 . S
C686 C685 1.287 . S
C686 C687 1.524 . S
C686 H705 0.913 . S
C687 H663 0.950 . S
C687 C686 1.524 . S
C687 C688 1.415 . S
C688 H664 0.950 . S
C688 C683 1.363 . S
C688 C687 1.415 . S
C689 H665 0.951 . S
C689 C690 1.366 . S
C689 C691 1.388 . S
C690 C689 1.366 . S
C690 C694 1.385 . S
C691 H666 0.951 . S
C691 C689 1.388 . S
C691 C692 1.366 . S
C692 C691 1.366 . S
C692 C693 1.414 . S
C692 C695 1.499 . S
C693 H667 0.950 . S
C693 C692 1.414 . S
C693 C694 1.374 . S
C694 H668 0.950 . S
C694 C690 1.385 . S
C694 C693 1.374 . S
C695 C692 1.499 . S
C695 C696 1.373 . S
C695 C697 1.389 . S
C696 H669 0.950 . S
C696 C682 1.377 . S
C696 C695 1.373 . S
C697 C681 1.377 . S
C697 C695 1.389 . S
C697 C698 1.524 . S
C698 C697 1.524 . S
C698 C699 1.397 . S
C698 C703 1.363 . S
C699 H670 0.950 . S
C699 C698 1.397 . S
C699 C700 1.334 . S
C700 H671 0.950 . S
C700 C699 1.334 . S
C700 C701 1.287 . S
C701 C700 1.287 . S
C701 C702 1.524 . S
C701 H704 0.999 . S
C702 H672 0.950 . S
C702 C701 1.524 . S
C702 C703 1.415 . S
C703 H673 0.950 . S
C703 C698 1.363 . S
C703 C702 1.415 . S
H704 C701 0.999 . S
H705 C686 0.913 . S
H706 C724 0.951 . S
H707 C726 0.951 . S
H708 C728 0.950 . S
H709 C729 0.950 . S
H710 C731 0.950 . S
H711 C734 0.950 . S
H712 C735 0.950 . S
H713 C737 0.950 . S
H714 C738 0.950 . S
H715 C739 0.951 . S
H716 C741 0.951 . S
H717 C743 0.950 . S
H718 C744 0.950 . S
H719 C746 0.950 . S
H720 C749 0.950 . S
H721 C750 0.950 . S
H722 C752 0.950 . S
H723 C753 0.950 . S
C724 H706 0.951 . S
C724 C725 1.366 . S
C724 C726 1.388 . S
C725 C724 1.366 . S
C725 C729 1.385 . S
C726 H707 0.951 . S
C726 C724 1.388 . S
C726 C727 1.366 . S
C727 C726 1.366 . S
C727 C728 1.414 . S
C727 C730 1.499 . S
C728 H708 0.950 . S
C728 C727 1.414 . S
C728 C729 1.374 . S
C729 H709 0.950 . S
C729 C725 1.385 . S
C729 C728 1.374 . S
C730 C727 1.499 . S
C730 C731 1.373 . S
C730 C732 1.389 . S
C731 H710 0.950 . S
C731 C730 1.373 . S
C731 C747 1.377 . S
C732 C730 1.389 . S
C732 C733 1.524 . S
C732 C746 1.377 . S
C733 C732 1.524 . S
C733 C734 1.397 . S
C733 C738 1.363 . S
C734 H711 0.950 . S
C734 C733 1.397 . S
C734 C735 1.334 . S
C735 H712 0.950 . S
C735 C734 1.334 . S
C735 C736 1.287 . S
C736 C735 1.287 . S
C736 C737 1.524 . S
C736 H755 0.913 . S
C737 H713 0.950 . S
C737 C736 1.524 . S
C737 C738 1.415 . S
C738 H714 0.950 . S
C738 C733 1.363 . S
C738 C737 1.415 . S
C739 H715 0.951 . S
C739 C740 1.366 . S
C739 C741 1.388 . S
C740 C739 1.366 . S
C740 C744 1.385 . S
C741 H716 0.951 . S
C741 C739 1.388 . S
C741 C742 1.366 . S
C742 C741 1.366 . S
C742 C743 1.414 . S
C742 C745 1.499 . S
C743 H717 0.950 . S
C743 C742 1.414 . S
C743 C744 1.374 . S
C744 H718 0.950 . S
C744 C740 1.385 . S
C744 C743 1.374 . S
C745 C742 1.499 . S
C745 C746 1.373 . S
C745 C747 1.389 . S
C746 H719 0.950 . S
C746 C732 1.377 . S
C746 C745 1.373 . S
C747 C731 1.377 . S
C747 C745 1.389 . S
C747 C748 1.524 . S
C748 C747 1.524 . S
C748 C749 1.397 . S
C748 C753 1.363 . S
C749 H720 0.950 . S
C749 C748 1.397 . S
C749 C750 1.334 . S
C750 H721 0.950 . S
C750 C749 1.334 . S
C750 C751 1.287 . S
C751 C750 1.287 . S
C751 C752 1.524 . S
C751 H754 0.999 . S
C752 H722 0.950 . S
C752 C751 1.524 . S
C752 C753 1.415 . S
C753 H723 0.950 . S
C753 C748 1.363 . S
C753 C752 1.415 . S
H754 C751 0.999 . S
H755 C736 0.913 . S
H756 C774 0.951 . S
H757 C776 0.951 . S
H758 C778 0.950 . S
H759 C779 0.950 . S
H760 C781 0.950 . S
H761 C784 0.950 . S
H762 C785 0.950 . S
H763 C787 0.950 . S
H764 C788 0.950 . S
H765 C789 0.951 . S
H766 C791 0.951 . S
H767 C793 0.950 . S
H768 C794 0.950 . S
H769 C796 0.950 . S
H770 C799 0.950 . S
H771 C800 0.950 . S
H772 C802 0.950 . S
H773 C803 0.950 . S
C774 H756 0.951 . S
C774 C775 1.366 . S
C774 C776 1.388 . S
C775 C774 1.366 . S
C775 C779 1.385 . S
C776 H757 0.951 . S
C776 C774 1.388 . S
C776 C777 1.366 . S
C777 C776 1.366 . S
C777 C778 1.414 . S
C777 C780 1.499 . S
C778 H758 0.950 . S
C778 C777 1.414 . S
C778 C779 1.374 . S
C779 H759 0.950 . S
C779 C775 1.385 . S
C779 C778 1.374 . S
C780 C777 1.499 . S
C780 C781 1.373 . S
C780 C782 1.389 . S
C781 H760 0.950 . S
C781 C780 1.373 . S
C781 C797 1.377 . S
C782 C780 1.389 . S
C782 C783 1.524 . S
C782 C796 1.377 . S
C783 C782 1.524 . S
C783 C784 1.397 . S
C783 C788 1.363 . S
C784 H761 0.950 . S
C784 C783 1.397 . S
C784 C785 1.334 . S
C785 H762 0.950 . S
C785 C784 1.334 . S
C785 C786 1.287 . S
C786 C785 1.287 . S
C786 C787 1.524 . S
C786 H805 0.913 . S
C787 H763 0.950 . S
C787 C786 1.524 . S
C787 C788 1.415 . S
C788 H764 0.950 . S
C788 C783 1.363 . S
C788 C787 1.415 . S
C789 H765 0.951 . S
C789 C790 1.366 . S
C789 C791 1.388 . S
C790 C789 1.366 . S
C790 C794 1.385 . S
C791 H766 0.951 . S
C791 C789 1.388 . S
C791 C792 1.366 . S
C792 C791 1.366 . S
C792 C793 1.414 . S
C792 C795 1.499 . S
C793 H767 0.950 . S
C793 C792 1.414 . S
C793 C794 1.374 . S
C794 H768 0.950 . S
C794 C790 1.385 . S
C794 C793 1.374 . S
C795 C792 1.499 . S
C795 C796 1.373 . S
C795 C797 1.389 . S
C796 H769 0.950 . S
C796 C782 1.377 . S
C796 C795 1.373 . S
C797 C781 1.377 . S
C797 C795 1.389 . S
C797 C798 1.524 . S
C798 C797 1.524 . S
C798 C799 1.397 . S
C798 C803 1.363 . S
C799 H770 0.950 . S
C799 C798 1.397 . S
C799 C800 1.334 . S
C800 H771 0.950 . S
C800 C799 1.334 . S
C800 C801 1.287 . S
C801 C800 1.287 . S
C801 C802 1.524 . S
C801 H804 0.999 . S
C802 H772 0.950 . S
C802 C801 1.524 . S
C802 C803 1.415 . S
C803 H773 0.950 . S
C803 C798 1.363 . S
C803 C802 1.415 . S
H804 C801 0.999 . S
H805 C786 0.913 . S
H806 C824 0.951 . S
H807 C826 0.951 . S
H808 C828 0.950 . S
H809 C829 0.950 . S
H810 C831 0.950 . S
H811 C834 0.950 . S
H812 C835 0.950 . S
H813 C837 0.950 . S
H814 C838 0.950 . S
H815 C839 0.951 . S
H816 C841 0.951 . S
H817 C843 0.950 . S
H818 C844 0.950 . S
H819 C846 0.950 . S
H820 C849 0.950 . S
H821 C850 0.950 . S
H822 C852 0.950 . S
H823 C853 0.950 . S
C824 H806 0.951 . S
C824 C825 1.366 . S
C824 C826 1.388 . S
C825 C824 1.366 . S
C825 C829 1.385 . S
C826 H807 0.951 . S
C826 C824 1.388 . S
C826 C827 1.366 . S
C827 C826 1.366 . S
C827 C828 1.414 . S
C827 C830 1.499 . S
C828 H808 0.950 . S
C828 C827 1.414 . S
C828 C829 1.374 . S
C829 H809 0.950 . S
C829 C825 1.385 . S
C829 C828 1.374 . S
C830 C827 1.499 . S
C830 C831 1.373 . S
C830 C832 1.389 . S
C831 H810 0.950 . S
C831 C830 1.373 . S
C831 C847 1.377 1_655 S
C832 C830 1.389 . S
C832 C833 1.524 . S
C832 C846 1.377 1_655 S
C833 C832 1.524 . S
C833 C834 1.397 . S
C833 C838 1.363 . S
C834 H811 0.950 . S
C834 C833 1.397 . S
C834 C835 1.334 . S
C835 H812 0.950 . S
C835 C834 1.334 . S
C835 C836 1.287 . S
C836 C835 1.287 . S
C836 C837 1.524 . S
C836 H855 0.913 . S
C837 H813 0.950 . S
C837 C836 1.524 . S
C837 C838 1.415 . S
C838 H814 0.950 . S
C838 C833 1.363 . S
C838 C837 1.415 . S
C839 H815 0.951 . S
C839 C840 1.366 . S
C839 C841 1.388 . S
C840 C839 1.366 . S
C840 C844 1.385 . S
C841 H816 0.951 . S
C841 C839 1.388 . S
C841 C842 1.366 . S
C842 C841 1.366 . S
C842 C843 1.414 . S
C842 C845 1.499 . S
C843 H817 0.950 . S
C843 C842 1.414 . S
C843 C844 1.374 . S
C844 H818 0.950 . S
C844 C840 1.385 . S
C844 C843 1.374 . S
C845 C842 1.499 . S
C845 C846 1.373 . S
C845 C847 1.389 . S
C846 H819 0.950 . S
C846 C832 1.377 1_455 S
C846 C845 1.373 . S
C847 C831 1.377 1_455 S
C847 C845 1.389 . S
C847 C848 1.524 . S
C848 C847 1.524 . S
C848 C849 1.397 . S
C848 C853 1.363 . S
C849 H820 0.950 . S
C849 C848 1.397 . S
C849 C850 1.334 . S
C850 H821 0.950 . S
C850 C849 1.334 . S
C850 C851 1.287 . S
C851 C850 1.287 . S
C851 C852 1.524 . S
C851 H854 0.999 . S
C852 H822 0.950 . S
C852 C851 1.524 . S
C852 C853 1.415 . S
C853 H823 0.950 . S
C853 C848 1.363 . S
C853 C852 1.415 . S
H854 C851 0.999 . S
H855 C836 0.913 . S
H856 C874 0.951 . S
H857 C876 0.951 . S
H858 C878 0.950 . S
H859 C879 0.950 . S
H860 C881 0.950 . S
H861 C884 0.950 . S
H862 C885 0.950 . S
H863 C887 0.950 . S
H864 C888 0.950 . S
H865 C889 0.951 . S
H866 C891 0.951 . S
H867 C893 0.950 . S
H868 C894 0.950 . S
H869 C896 0.950 . S
H870 C899 0.950 . S
H871 C900 0.950 . S
H872 C902 0.950 . S
H873 C903 0.950 . S
C874 H856 0.951 . S
C874 C875 1.366 . S
C874 C876 1.388 . S
C875 C874 1.366 . S
C875 C879 1.385 . S
C876 H857 0.951 . S
C876 C874 1.388 . S
C876 C877 1.366 . S
C877 C876 1.366 . S
C877 C878 1.414 . S
C877 C880 1.499 . S
C878 H858 0.950 . S
C878 C877 1.414 . S
C878 C879 1.374 . S
C879 H859 0.950 . S
C879 C875 1.385 . S
C879 C878 1.374 . S
C880 C877 1.499 . S
C880 C881 1.373 . S
C880 C882 1.389 . S
C881 H860 0.950 . S
C881 C880 1.373 . S
C881 C897 1.377 1_545 S
C882 C880 1.389 . S
C882 C883 1.524 . S
C882 C896 1.377 1_545 S
C883 C882 1.524 . S
C883 C884 1.397 . S
C883 C888 1.363 . S
C884 H861 0.950 . S
C884 C883 1.397 . S
C884 C885 1.334 . S
C885 H862 0.950 . S
C885 C884 1.334 . S
C885 C886 1.287 . S
C886 C885 1.287 . S
C886 C887 1.524 . S
C886 H905 0.913 . S
C887 H863 0.950 . S
C887 C886 1.524 . S
C887 C888 1.415 . S
C888 H864 0.950 . S
C888 C883 1.363 . S
C888 C887 1.415 . S
C889 H865 0.951 . S
C889 C890 1.366 . S
C889 C891 1.388 . S
C890 C889 1.366 . S
C890 C894 1.385 . S
C891 H866 0.951 . S
C891 C889 1.388 . S
C891 C892 1.366 . S
C892 C891 1.366 . S
C892 C893 1.414 . S
C892 C895 1.499 . S
C893 H867 0.950 . S
C893 C892 1.414 . S
C893 C894 1.374 . S
C894 H868 0.950 . S
C894 C890 1.385 . S
C894 C893 1.374 . S
C895 C892 1.499 . S
C895 C896 1.373 . S
C895 C897 1.389 . S
C896 H869 0.950 . S
C896 C882 1.377 1_565 S
C896 C895 1.373 . S
C897 C881 1.377 1_565 S
C897 C895 1.389 . S
C897 C898 1.524 . S
C898 C897 1.524 . S
C898 C899 1.397 . S
C898 C903 1.363 . S
C899 H870 0.950 . S
C899 C898 1.397 . S
C899 C900 1.334 . S
C900 H871 0.950 . S
C900 C899 1.334 . S
C900 C901 1.287 . S
C901 C900 1.287 . S
C901 C902 1.524 . S
C901 H904 0.999 . S
C902 H872 0.950 . S
C902 C901 1.524 . S
C902 C903 1.415 . S
C903 H873 0.950 . S
C903 C898 1.363 . S
C903 C902 1.415 . S
H904 C901 0.999 . S
H905 C886 0.913 . S
H906 C924 0.951 . S
H907 C926 0.951 . S
H908 C928 0.950 . S
H909 C929 0.950 . S
H910 C931 0.950 . S
H911 C934 0.950 . S
H912 C935 0.950 . S
H913 C937 0.950 . S
H914 C938 0.950 . S
H915 C939 0.951 . S
H916 C941 0.951 . S
H917 C943 0.950 . S
H918 C944 0.950 . S
H919 C946 0.950 . S
H920 C949 0.950 . S
H921 C950 0.950 . S
H922 C952 0.950 . S
H923 C953 0.950 . S
C924 H906 0.951 . S
C924 C925 1.366 . S
C924 C926 1.388 . S
C925 C924 1.366 . S
C925 C929 1.385 . S
C926 H907 0.951 . S
C926 C924 1.388 . S
C926 C927 1.366 . S
C927 C926 1.366 . S
C927 C928 1.414 . S
C927 C930 1.499 . S
C928 H908 0.950 . S
C928 C927 1.414 . S
C928 C929 1.374 . S
C929 H909 0.950 . S
C929 C925 1.385 . S
C929 C928 1.374 . S
C930 C927 1.499 . S
C930 C931 1.373 . S
C930 C932 1.389 . S
C931 H910 0.950 . S
C931 C930 1.373 . S
C931 C947 1.377 . S
C932 C930 1.389 . S
C932 C933 1.524 . S
C932 C946 1.377 . S
C933 C932 1.524 . S
C933 C934 1.397 . S
C933 C938 1.363 . S
C934 H911 0.950 . S
C934 C933 1.397 . S
C934 C935 1.334 . S
C935 H912 0.950 . S
C935 C934 1.334 . S
C935 C936 1.287 . S
C936 C935 1.287 . S
C936 C937 1.524 . S
C936 H955 0.913 . S
C937 H913 0.950 . S
C937 C936 1.524 . S
C937 C938 1.415 . S
C938 H914 0.950 . S
C938 C933 1.363 . S
C938 C937 1.415 . S
C939 H915 0.951 . S
C939 C940 1.366 . S
C939 C941 1.388 . S
C940 C939 1.366 . S
C940 C944 1.385 . S
C941 H916 0.951 . S
C941 C939 1.388 . S
C941 C942 1.366 . S
C942 C941 1.366 . S
C942 C943 1.414 . S
C942 C945 1.499 . S
C943 H917 0.950 . S
C943 C942 1.414 . S
C943 C944 1.374 . S
C944 H918 0.950 . S
C944 C940 1.385 . S
C944 C943 1.374 . S
C945 C942 1.499 . S
C945 C946 1.373 . S
C945 C947 1.389 . S
C946 H919 0.950 . S
C946 C932 1.377 . S
C946 C945 1.373 . S
C947 C931 1.377 . S
C947 C945 1.389 . S
C947 C948 1.524 . S
C948 C947 1.524 . S
C948 C949 1.397 . S
C948 C953 1.363 . S
C949 H920 0.950 . S
C949 C948 1.397 . S
C949 C950 1.334 . S
C950 H921 0.950 . S
C950 C949 1.334 . S
C950 C951 1.287 . S
C951 C950 1.287 . S
C951 C952 1.524 . S
C951 H954 0.999 . S
C952 H922 0.950 . S
C952 C951 1.524 . S
C952 C953 1.415 . S
C953 H923 0.950 . S
C953 C948 1.363 . S
C953 C952 1.415 . S
H954 C951 0.999 . S
H955 C936 0.913 . S
H956 C974 0.951 . S
H957 C976 0.951 . S
H958 C978 0.950 . S
H959 C979 0.950 . S
H960 C981 0.950 . S
H961 C984 0.950 . S
H962 C985 0.950 . S
H963 C987 0.950 . S
H964 C988 0.950 . S
H965 C989 0.951 . S
H966 C991 0.951 . S
H967 C993 0.950 . S
H968 C994 0.950 . S
H969 C996 0.950 . S
H970 C999 0.950 . S
H971 C1000 0.950 . S
H972 C1002 0.950 . S
H973 C1003 0.950 . S
C974 H956 0.951 . S
C974 C975 1.366 . S
C974 C976 1.388 . S
C975 C974 1.366 . S
C975 C979 1.385 . S
C976 H957 0.951 . S
C976 C974 1.388 . S
C976 C977 1.366 . S
C977 C976 1.366 . S
C977 C978 1.414 . S
C977 C980 1.499 . S
C978 H958 0.950 . S
C978 C977 1.414 . S
C978 C979 1.374 . S
C979 H959 0.950 . S
C979 C975 1.385 . S
C979 C978 1.374 . S
C980 C977 1.499 . S
C980 C981 1.373 . S
C980 C982 1.389 . S
C981 H960 0.950 . S
C981 C980 1.373 . S
C981 C997 1.377 1_455 S
C982 C980 1.389 . S
C982 C983 1.524 . S
C982 C996 1.377 1_455 S
C983 C982 1.524 . S
C983 C984 1.397 . S
C983 C988 1.363 . S
C984 H961 0.950 . S
C984 C983 1.397 . S
C984 C985 1.334 . S
C985 H962 0.950 . S
C985 C984 1.334 . S
C985 C986 1.287 . S
C986 C985 1.287 . S
C986 C987 1.524 . S
C986 H1005 0.913 . S
C987 H963 0.950 . S
C987 C986 1.524 . S
C987 C988 1.415 . S
C988 H964 0.950 . S
C988 C983 1.363 . S
C988 C987 1.415 . S
C989 H965 0.951 . S
C989 C990 1.366 . S
C989 C991 1.388 . S
C990 C989 1.366 . S
C990 C994 1.385 . S
C991 H966 0.951 . S
C991 C989 1.388 . S
C991 C992 1.366 . S
C992 C991 1.366 . S
C992 C993 1.414 . S
C992 C995 1.499 . S
C993 H967 0.950 . S
C993 C992 1.414 . S
C993 C994 1.374 . S
C994 H968 0.950 . S
C994 C990 1.385 . S
C994 C993 1.374 . S
C995 C992 1.499 . S
C995 C996 1.373 . S
C995 C997 1.389 . S
C996 H969 0.950 . S
C996 C982 1.377 1_655 S
C996 C995 1.373 . S
C997 C981 1.377 1_655 S
C997 C995 1.389 . S
C997 C998 1.524 . S
C998 C997 1.524 . S
C998 C999 1.397 . S
C998 C1003 1.363 . S
C999 H970 0.950 . S
C999 C998 1.397 . S
C999 C1000 1.334 . S
C1000 H971 0.950 . S
C1000 C999 1.334 . S
C1000 C1001 1.287 . S
C1001 C1000 1.287 . S
C1001 C1002 1.524 . S
C1001 H1004 0.999 . S
C1002 H972 0.950 . S
C1002 C1001 1.524 . S
C1002 C1003 1.415 . S
C1003 H973 0.950 . S
C1003 C998 1.363 . S
C1003 C1002 1.415 . S
H1004 C1001 0.999 . S
H1005 C986 0.913 . S
H1006 C1024 0.951 . S
H1007 C1026 0.951 . S
H1008 C1028 0.950 . S
H1009 C1029 0.950 . S
H1010 C1031 0.950 . S
H1011 C1034 0.950 . S
H1012 C1035 0.950 . S
H1013 C1037 0.950 . S
H1014 C1038 0.950 . S
H1015 C1039 0.951 . S
H1016 C1041 0.951 . S
H1017 C1043 0.950 . S
H1018 C1044 0.950 . S
H1019 C1046 0.950 . S
H1020 C1049 0.950 . S
H1021 C1050 0.950 . S
H1022 C1052 0.950 . S
H1023 C1053 0.950 . S
C1024 H1006 0.951 . S
C1024 C1025 1.366 . S
C1024 C1026 1.388 . S
C1025 C1024 1.366 . S
C1025 C1029 1.385 . S
C1026 H1007 0.951 . S
C1026 C1024 1.388 . S
C1026 C1027 1.366 . S
C1027 C1026 1.366 . S
C1027 C1028 1.414 . S
C1027 C1030 1.499 . S
C1028 H1008 0.950 . S
C1028 C1027 1.414 . S
C1028 C1029 1.374 . S
C1029 H1009 0.950 . S
C1029 C1025 1.385 . S
C1029 C1028 1.374 . S
C1030 C1027 1.499 . S
C1030 C1031 1.373 . S
C1030 C1032 1.389 . S
C1031 H1010 0.950 . S
C1031 C1030 1.373 . S
C1031 C1047 1.377 1_565 S
C1032 C1030 1.389 . S
C1032 C1033 1.524 . S
C1032 C1046 1.377 1_565 S
C1033 C1032 1.524 . S
C1033 C1034 1.397 . S
C1033 C1038 1.363 . S
C1034 H1011 0.950 . S
C1034 C1033 1.397 . S
C1034 C1035 1.334 . S
C1035 H1012 0.950 . S
C1035 C1034 1.334 . S
C1035 C1036 1.287 . S
C1036 C1035 1.287 . S
C1036 C1037 1.524 . S
C1036 H1055 0.913 . S
C1037 H1013 0.950 . S
C1037 C1036 1.524 . S
C1037 C1038 1.415 . S
C1038 H1014 0.950 . S
C1038 C1033 1.363 . S
C1038 C1037 1.415 . S
C1039 H1015 0.951 . S
C1039 C1040 1.366 . S
C1039 C1041 1.388 . S
C1040 C1039 1.366 . S
C1040 C1044 1.385 . S
C1041 H1016 0.951 . S
C1041 C1039 1.388 . S
C1041 C1042 1.366 . S
C1042 C1041 1.366 . S
C1042 C1043 1.414 . S
C1042 C1045 1.499 . S
C1043 H1017 0.950 . S
C1043 C1042 1.414 . S
C1043 C1044 1.374 . S
C1044 H1018 0.950 . S
C1044 C1040 1.385 . S
C1044 C1043 1.374 . S
C1045 C1042 1.499 . S
C1045 C1046 1.373 . S
C1045 C1047 1.389 . S
C1046 H1019 0.950 . S
C1046 C1032 1.377 1_545 S
C1046 C1045 1.373 . S
C1047 C1031 1.377 1_545 S
C1047 C1045 1.389 . S
C1047 C1048 1.524 . S
C1048 C1047 1.524 . S
C1048 C1049 1.397 . S
C1048 C1053 1.363 . S
C1049 H1020 0.950 . S
C1049 C1048 1.397 . S
C1049 C1050 1.334 . S
C1050 H1021 0.950 . S
C1050 C1049 1.334 . S
C1050 C1051 1.287 . S
C1051 C1050 1.287 . S
C1051 C1052 1.524 . S
C1051 H1054 0.999 . S
C1052 H1022 0.950 . S
C1052 C1051 1.524 . S
C1052 C1053 1.415 . S
C1053 H1023 0.950 . S
C1053 C1048 1.363 . S
C1053 C1052 1.415 . S
H1054 C1051 0.999 . S
H1055 C1036 0.913 . S
H1056 C1074 0.951 . S
H1057 C1076 0.951 . S
H1058 C1078 0.950 . S
H1059 C1079 0.950 . S
H1060 C1081 0.950 . S
H1061 C1084 0.950 . S
H1062 C1085 0.950 . S
H1063 C1087 0.950 . S
H1064 C1088 0.950 . S
H1065 C1089 0.951 . S
H1066 C1091 0.951 . S
H1067 C1093 0.950 . S
H1068 C1094 0.950 . S
H1069 C1096 0.950 . S
H1070 C1099 0.950 . S
H1071 C1100 0.950 . S
H1072 C1102 0.950 . S
H1073 C1103 0.950 . S
C1074 H1056 0.951 . S
C1074 C1075 1.366 . S
C1074 C1076 1.388 . S
C1075 C1074 1.366 . S
C1075 C1079 1.385 . S
C1076 H1057 0.951 . S
C1076 C1074 1.388 . S
C1076 C1077 1.366 . S
C1077 C1076 1.366 . S
C1077 C1078 1.414 . S
C1077 C1080 1.499 . S
C1078 H1058 0.950 . S
C1078 C1077 1.414 . S
C1078 C1079 1.374 . S
C1079 H1059 0.950 . S
C1079 C1075 1.385 . S
C1079 C1078 1.374 . S
C1080 C1077 1.499 . S
C1080 C1081 1.373 . S
C1080 C1082 1.389 . S
C1081 H1060 0.950 . S
C1081 C1080 1.373 . S
C1081 C1097 1.377 . S
C1082 C1080 1.389 . S
C1082 C1083 1.524 . S
C1082 C1096 1.377 . S
C1083 C1082 1.524 . S
C1083 C1084 1.397 . S
C1083 C1088 1.363 . S
C1084 H1061 0.950 . S
C1084 C1083 1.397 . S
C1084 C1085 1.334 . S
C1085 H1062 0.950 . S
C1085 C1084 1.334 . S
C1085 C1086 1.287 . S
C1086 C1085 1.287 . S
C1086 C1087 1.524 . S
C1086 H1105 0.913 . S
C1087 H1063 0.950 . S
C1087 C1086 1.524 . S
C1087 C1088 1.415 . S
C1088 H1064 0.950 . S
C1088 C1083 1.363 . S
C1088 C1087 1.415 . S
C1089 H1065 0.951 . S
C1089 C1090 1.366 . S
C1089 C1091 1.388 . S
C1090 C1089 1.366 . S
C1090 C1094 1.385 . S
C1091 H1066 0.951 . S
C1091 C1089 1.388 . S
C1091 C1092 1.366 . S
C1092 C1091 1.366 . S
C1092 C1093 1.414 . S
C1092 C1095 1.499 . S
C1093 H1067 0.950 . S
C1093 C1092 1.414 . S
C1093 C1094 1.374 . S
C1094 H1068 0.950 . S
C1094 C1090 1.385 . S
C1094 C1093 1.374 . S
C1095 C1092 1.499 . S
C1095 C1096 1.373 . S
C1095 C1097 1.389 . S
C1096 H1069 0.950 . S
C1096 C1082 1.377 . S
C1096 C1095 1.373 . S
C1097 C1081 1.377 . S
C1097 C1095 1.389 . S
C1097 C1098 1.524 . S
C1098 C1097 1.524 . S
C1098 C1099 1.397 . S
C1098 C1103 1.363 . S
C1099 H1070 0.950 . S
C1099 C1098 1.397 . S
C1099 C1100 1.334 . S
C1100 H1071 0.950 . S
C1100 C1099 1.334 . S
C1100 C1101 1.287 . S
C1101 C1100 1.287 . S
C1101 C1102 1.524 . S
C1101 H1104 0.999 . S
C1102 H1072 0.950 . S
C1102 C1101 1.524 . S
C1102 C1103 1.415 . S
C1103 H1073 0.950 . S
C1103 C1098 1.363 . S
C1103 C1102 1.415 . S
H1104 C1101 0.999 . S
H1105 C1086 0.913 . S
H1106 C1124 0.951 . S
H1107 C1126 0.951 . S
H1108 C1128 0.950 . S
H1109 C1129 0.950 . S
H1110 C1131 0.950 . S
H1111 C1134 0.950 . S
H1112 C1135 0.950 . S
H1113 C1137 0.950 . S
H1114 C1138 0.950 . S
H1115 C1139 0.951 . S
H1116 C1141 0.951 . S
H1117 C1143 0.950 . S
H1118 C1144 0.950 . S
H1119 C1146 0.950 . S
H1120 C1149 0.950 . S
H1121 C1150 0.950 . S
H1122 C1152 0.950 . S
H1123 C1153 0.950 . S
C1124 H1106 0.951 . S
C1124 C1125 1.366 . S
C1124 C1126 1.388 . S
C1125 C1124 1.366 . S
C1125 C1129 1.385 . S
C1126 H1107 0.951 . S
C1126 C1124 1.388 . S
C1126 C1127 1.366 . S
C1127 C1126 1.366 . S
C1127 C1128 1.414 . S
C1127 C1130 1.499 . S
C1128 H1108 0.950 . S
C1128 C1127 1.414 . S
C1128 C1129 1.374 . S
C1129 H1109 0.950 . S
C1129 C1125 1.385 . S
C1129 C1128 1.374 . S
C1130 C1127 1.499 . S
C1130 C1131 1.373 . S
C1130 C1132 1.389 . S
C1131 H1110 0.950 . S
C1131 C1130 1.373 . S
C1131 C1147 1.377 . S
C1132 C1130 1.389 . S
C1132 C1133 1.524 . S
C1132 C1146 1.377 . S
C1133 C1132 1.524 . S
C1133 C1134 1.397 . S
C1133 C1138 1.363 . S
C1134 H1111 0.950 . S
C1134 C1133 1.397 . S
C1134 C1135 1.334 . S
C1135 H1112 0.950 . S
C1135 C1134 1.334 . S
C1135 C1136 1.287 . S
C1136 C1135 1.287 . S
C1136 C1137 1.524 . S
C1136 H1155 0.913 . S
C1137 H1113 0.950 . S
C1137 C1136 1.524 . S
C1137 C1138 1.415 . S
C1138 H1114 0.950 . S
C1138 C1133 1.363 . S
C1138 C1137 1.415 . S
C1139 H1115 0.951 . S
C1139 C1140 1.366 . S
C1139 C1141 1.388 . S
C1140 C1139 1.366 . S
C1140 C1144 1.385 . S
C1141 H1116 0.951 . S
C1141 C1139 1.388 . S
C1141 C1142 1.366 . S
C1142 C1141 1.366 . S
C1142 C1143 1.414 . S
C1142 C1145 1.499 . S
C1143 H1117 0.950 . S
C1143 C1142 1.414 . S
C1143 C1144 1.374 . S
C1144 H1118 0.950 . S
C1144 C1140 1.385 . S
C1144 C1143 1.374 . S
C1145 C1142 1.499 . S
C1145 C1146 1.373 . S
C1145 C1147 1.389 . S
C1146 H1119 0.950 . S
C1146 C1132 1.377 . S
C1146 C1145 1.373 . S
C1147 C1131 1.377 . S
C1147 C1145 1.389 . S
C1147 C1148 1.524 . S
C1148 C1147 1.524 . S
C1148 C1149 1.397 . S
C1148 C1153 1.363 . S
C1149 H1120 0.950 . S
C1149 C1148 1.397 . S
C1149 C1150 1.334 . S
C1150 H1121 0.950 . S
C1150 C1149 1.334 . S
C1150 C1151 1.287 . S
C1151 C1150 1.287 . S
C1151 C1152 1.524 . S
C1151 H1154 0.999 . S
C1152 H1122 0.950 . S
C1152 C1151 1.524 . S
C1152 C1153 1.415 . S
C1153 H1123 0.950 . S
C1153 C1148 1.363 . S
C1153 C1152 1.415 . S
H1154 C1151 0.999 . S
H1155 C1136 0.913 . S
H1156 C1174 0.951 . S
H1157 C1176 0.951 . S
H1158 C1178 0.950 . S
H1159 C1179 0.950 . S
H1160 C1181 0.950 . S
H1161 C1184 0.950 . S
H1162 C1185 0.950 . S
H1163 C1187 0.950 . S
H1164 C1188 0.950 . S
H1165 C1189 0.951 . S
H1166 C1191 0.951 . S
H1167 C1193 0.950 . S
H1168 C1194 0.950 . S
H1169 C1196 0.950 . S
H1170 C1199 0.950 . S
H1171 C1200 0.950 . S
H1172 C1202 0.950 . S
H1173 C1203 0.950 . S
C1174 H1156 0.951 . S
C1174 C1175 1.366 . S
C1174 C1176 1.388 . S
C1175 C1174 1.366 . S
C1175 C1179 1.385 . S
C1176 H1157 0.951 . S
C1176 C1174 1.388 . S
C1176 C1177 1.366 . S
C1177 C1176 1.366 . S
C1177 C1178 1.414 . S
C1177 C1180 1.499 . S
C1178 H1158 0.950 . S
C1178 C1177 1.414 . S
C1178 C1179 1.374 . S
C1179 H1159 0.950 . S
C1179 C1175 1.385 . S
C1179 C1178 1.374 . S
C1180 C1177 1.499 . S
C1180 C1181 1.373 . S
C1180 C1182 1.389 . S
C1181 H1160 0.950 . S
C1181 C1180 1.373 . S
C1181 C1197 1.377 . S
C1182 C1180 1.389 . S
C1182 C1183 1.524 . S
C1182 C1196 1.377 . S
C1183 C1182 1.524 . S
C1183 C1184 1.397 . S
C1183 C1188 1.363 . S
C1184 H1161 0.950 . S
C1184 C1183 1.397 . S
C1184 C1185 1.334 . S
C1185 H1162 0.950 . S
C1185 C1184 1.334 . S
C1185 C1186 1.287 . S
C1186 C1185 1.287 . S
C1186 C1187 1.524 . S
C1186 H1205 0.913 . S
C1187 H1163 0.950 . S
C1187 C1186 1.524 . S
C1187 C1188 1.415 . S
C1188 H1164 0.950 . S
C1188 C1183 1.363 . S
C1188 C1187 1.415 . S
C1189 H1165 0.951 . S
C1189 C1190 1.366 . S
C1189 C1191 1.388 . S
C1190 C1189 1.366 . S
C1190 C1194 1.385 . S
C1191 H1166 0.951 . S
C1191 C1189 1.388 . S
C1191 C1192 1.366 . S
C1192 C1191 1.366 . S
C1192 C1193 1.414 . S
C1192 C1195 1.499 . S
C1193 H1167 0.950 . S
C1193 C1192 1.414 . S
C1193 C1194 1.374 . S
C1194 H1168 0.950 . S
C1194 C1190 1.385 . S
C1194 C1193 1.374 . S
C1195 C1192 1.499 . S
C1195 C1196 1.373 . S
C1195 C1197 1.389 . S
C1196 H1169 0.950 . S
C1196 C1182 1.377 . S
C1196 C1195 1.373 . S
C1197 C1181 1.377 . S
C1197 C1195 1.389 . S
C1197 C1198 1.524 . S
C1198 C1197 1.524 . S
C1198 C1199 1.397 . S
C1198 C1203 1.363 . S
C1199 H1170 0.950 . S
C1199 C1198 1.397 . S
C1199 C1200 1.334 . S
C1200 H1171 0.950 . S
C1200 C1199 1.334 . S
C1200 C1201 1.287 . S
C1201 C1200 1.287 . S
C1201 C1202 1.524 . S
C1201 H1204 0.999 . S
C1202 H1172 0.950 . S
C1202 C1201 1.524 . S
C1202 C1203 1.415 . S
C1203 H1173 0.950 . S
C1203 C1198 1.363 . S
C1203 C1202 1.415 . S
H1204 C1201 0.999 . S
H1205 C1186 0.913 . S
H1206 C1224 0.951 . S
H1207 C1226 0.951 . S
H1208 C1228 0.950 . S
H1209 C1229 0.950 . S
H1210 C1231 0.950 . S
H1211 C1234 0.950 . S
H1212 C1235 0.950 . S
H1213 C1237 0.950 . S
H1214 C1238 0.950 . S
H1215 C1239 0.951 . S
H1216 C1241 0.951 . S
H1217 C1243 0.950 . S
H1218 C1244 0.950 . S
H1219 C1246 0.950 . S
H1220 C1249 0.950 . S
H1221 C1250 0.950 . S
H1222 C1252 0.950 . S
H1223 C1253 0.950 . S
C1224 H1206 0.951 . S
C1224 C1225 1.366 . S
C1224 C1226 1.388 . S
C1225 C1224 1.366 . S
C1225 C1229 1.385 . S
C1226 H1207 0.951 . S
C1226 C1224 1.388 . S
C1226 C1227 1.366 . S
C1227 C1226 1.366 . S
C1227 C1228 1.414 . S
C1227 C1230 1.499 . S
C1228 H1208 0.950 . S
C1228 C1227 1.414 . S
C1228 C1229 1.374 . S
C1229 H1209 0.950 . S
C1229 C1225 1.385 . S
C1229 C1228 1.374 . S
C1230 C1227 1.499 . S
C1230 C1231 1.373 . S
C1230 C1232 1.389 . S
C1231 H1210 0.950 . S
C1231 C1230 1.373 . S
C1231 C1247 1.377 . S
C1232 C1230 1.389 . S
C1232 C1233 1.524 . S
C1232 C1246 1.377 . S
C1233 C1232 1.524 . S
C1233 C1234 1.397 . S
C1233 C1238 1.363 . S
C1234 H1211 0.950 . S
C1234 C1233 1.397 . S
C1234 C1235 1.334 . S
C1235 H1212 0.950 . S
C1235 C1234 1.334 . S
C1235 C1236 1.287 . S
C1236 C1235 1.287 . S
C1236 C1237 1.524 . S
C1236 H1255 0.913 . S
C1237 H1213 0.950 . S
C1237 C1236 1.524 . S
C1237 C1238 1.415 . S
C1238 H1214 0.950 . S
C1238 C1233 1.363 . S
C1238 C1237 1.415 . S
C1239 H1215 0.951 . S
C1239 C1240 1.366 . S
C1239 C1241 1.388 . S
C1240 C1239 1.366 . S
C1240 C1244 1.385 . S
C1241 H1216 0.951 . S
C1241 C1239 1.388 . S
C1241 C1242 1.366 . S
C1242 C1241 1.366 . S
C1242 C1243 1.414 . S
C1242 C1245 1.499 . S
C1243 H1217 0.950 . S
C1243 C1242 1.414 . S
C1243 C1244 1.374 . S
C1244 H1218 0.950 . S
C1244 C1240 1.385 . S
C1244 C1243 1.374 . S
C1245 C1242 1.499 . S
C1245 C1246 1.373 . S
C1245 C1247 1.389 . S
C1246 H1219 0.950 . S
C1246 C1232 1.377 . S
C1246 C1245 1.373 . S
C1247 C1231 1.377 . S
C1247 C1245 1.389 . S
C1247 C1248 1.524 . S
C1248 C1247 1.524 . S
C1248 C1249 1.397 . S
C1248 C1253 1.363 . S
C1249 H1220 0.950 . S
C1249 C1248 1.397 . S
C1249 C1250 1.334 . S
C1250 H1221 0.950 . S
C1250 C1249 1.334 . S
C1250 C1251 1.287 . S
C1251 C1250 1.287 . S
C1251 C1252 1.524 . S
C1251 H1254 0.999 . S
C1252 H1222 0.950 . S
C1252 C1251 1.524 . S
C1252 C1253 1.415 . S
C1253 H1223 0.950 . S
C1253 C1248 1.363 . S
C1253 C1252 1.415 . S
H1254 C1251 0.999 . S
H1255 C1236 0.913 . S
H1256 C1274 0.951 . S
H1257 C1276 0.951 . S
H1258 C1278 0.950 . S
H1259 C1279 0.950 . S
H1260 C1281 0.950 . S
H1261 C1284 0.950 . S
H1262 C1285 0.950 . S
H1263 C1287 0.950 . S
H1264 C1288 0.950 . S
H1265 C1289 0.951 . S
H1266 C1291 0.951 . S
H1267 C1293 0.950 . S
H1268 C1294 0.950 . S
H1269 C1296 0.950 . S
H1270 C1299 0.950 . S
H1271 C1300 0.950 . S
H1272 C1302 0.950 . S
H1273 C1303 0.950 . S
C1274 H1256 0.951 . S
C1274 C1275 1.366 . S
C1274 C1276 1.388 . S
C1275 C1274 1.366 . S
C1275 C1279 1.385 . S
C1276 H1257 0.951 . S
C1276 C1274 1.388 . S
C1276 C1277 1.366 . S
C1277 C1276 1.366 . S
C1277 C1278 1.414 . S
C1277 C1280 1.499 . S
C1278 H1258 0.950 . S
C1278 C1277 1.414 . S
C1278 C1279 1.374 . S
C1279 H1259 0.950 . S
C1279 C1275 1.385 . S
C1279 C1278 1.374 . S
C1280 C1277 1.499 . S
C1280 C1281 1.373 . S
C1280 C1282 1.389 . S
C1281 H1260 0.950 . S
C1281 C1280 1.373 . S
C1281 C1297 1.377 . S
C1282 C1280 1.389 . S
C1282 C1283 1.524 . S
C1282 C1296 1.377 . S
C1283 C1282 1.524 . S
C1283 C1284 1.397 . S
C1283 C1288 1.363 . S
C1284 H1261 0.950 . S
C1284 C1283 1.397 . S
C1284 C1285 1.334 . S
C1285 H1262 0.950 . S
C1285 C1284 1.334 . S
C1285 C1286 1.287 . S
C1286 C1285 1.287 . S
C1286 C1287 1.524 . S
C1286 H1305 0.913 . S
C1287 H1263 0.950 . S
C1287 C1286 1.524 . S
C1287 C1288 1.415 . S
C1288 H1264 0.950 . S
C1288 C1283 1.363 . S
C1288 C1287 1.415 . S
C1289 H1265 0.951 . S
C1289 C1290 1.366 . S
C1289 C1291 1.388 . S
C1290 C1289 1.366 . S
C1290 C1294 1.385 . S
C1291 H1266 0.951 . S
C1291 C1289 1.388 . S
C1291 C1292 1.366 . S
C1292 C1291 1.366 . S
C1292 C1293 1.414 . S
C1292 C1295 1.499 . S
C1293 H1267 0.950 . S
C1293 C1292 1.414 . S
C1293 C1294 1.374 . S
C1294 H1268 0.950 . S
C1294 C1290 1.385 . S
C1294 C1293 1.374 . S
C1295 C1292 1.499 . S
C1295 C1296 1.373 . S
C1295 C1297 1.389 . S
C1296 H1269 0.950 . S
C1296 C1282 1.377 . S
C1296 C1295 1.373 . S
C1297 C1281 1.377 . S
C1297 C1295 1.389 . S
C1297 C1298 1.524 . S
C1298 C1297 1.524 . S
C1298 C1299 1.397 . S
C1298 C1303 1.363 . S
C1299 H1270 0.950 . S
C1299 C1298 1.397 . S
C1299 C1300 1.334 . S
C1300 H1271 0.950 . S
C1300 C1299 1.334 . S
C1300 C1301 1.287 . S
C1301 C1300 1.287 . S
C1301 C1302 1.524 . S
C1301 H1304 0.999 . S
C1302 H1272 0.950 . S
C1302 C1301 1.524 . S
C1302 C1303 1.415 . S
C1303 H1273 0.950 . S
C1303 C1298 1.363 . S
C1303 C1302 1.415 . S
H1304 C1301 0.999 . S
H1305 C1286 0.913 . S
H1306 C1324 0.951 . S
H1307 C1326 0.951 . S
H1308 C1328 0.950 . S
H1309 C1329 0.950 . S
H1310 C1331 0.950 . S
H1311 C1334 0.950 . S
H1312 C1335 0.950 . S
H1313 C1337 0.950 . S
H1314 C1338 0.950 . S
H1315 C1339 0.951 . S
H1316 C1341 0.951 . S
H1317 C1343 0.950 . S
H1318 C1344 0.950 . S
H1319 C1346 0.950 . S
H1320 C1349 0.950 . S
H1321 C1350 0.950 . S
H1322 C1352 0.950 . S
H1323 C1353 0.950 . S
C1324 H1306 0.951 . S
C1324 C1325 1.366 . S
C1324 C1326 1.388 . S
C1325 C1324 1.366 . S
C1325 C1329 1.385 . S
C1326 H1307 0.951 . S
C1326 C1324 1.388 . S
C1326 C1327 1.366 . S
C1327 C1326 1.366 . S
C1327 C1328 1.414 . S
C1327 C1330 1.499 . S
C1328 H1308 0.950 . S
C1328 C1327 1.414 . S
C1328 C1329 1.374 . S
C1329 H1309 0.950 . S
C1329 C1325 1.385 . S
C1329 C1328 1.374 . S
C1330 C1327 1.499 . S
C1330 C1331 1.373 . S
C1330 C1332 1.389 . S
C1331 H1310 0.950 . S
C1331 C1330 1.373 . S
C1331 C1347 1.377 . S
C1332 C1330 1.389 . S
C1332 C1333 1.524 . S
C1332 C1346 1.377 . S
C1333 C1332 1.524 . S
C1333 C1334 1.397 . S
C1333 C1338 1.363 . S
C1334 H1311 0.950 . S
C1334 C1333 1.397 . S
C1334 C1335 1.334 . S
C1335 H1312 0.950 . S
C1335 C1334 1.334 . S
C1335 C1336 1.287 . S
C1336 C1335 1.287 . S
C1336 C1337 1.524 . S
C1336 H1355 0.913 . S
C1337 H1313 0.950 . S
C1337 C1336 1.524 . S
C1337 C1338 1.415 . S
C1338 H1314 0.950 . S
C1338 C1333 1.363 . S
C1338 C1337 1.415 . S
C1339 H1315 0.951 . S
C1339 C1340 1.366 . S
C1339 C1341 1.388 . S
C1340 C1339 1.366 . S
C1340 C1344 1.385 . S
C1341 H1316 0.951 . S
C1341 C1339 1.388 . S
C1341 C1342 1.366 . S
C1342 C1341 1.366 . S
C1342 C1343 1.414 . S
C1342 C1345 1.499 . S
C1343 H1317 0.950 . S
C1343 C1342 1.414 . S
C1343 C1344 1.374 . S
C1344 H1318 0.950 . S
C1344 C1340 1.385 . S
C1344 C1343 1.374 . S
C1345 C1342 1.499 . S
C1345 C1346 1.373 . S
C1345 C1347 1.389 . S
C1346 H1319 0.950 . S
C1346 C1332 1.377 . S
C1346 C1345 1.373 . S
C1347 C1331 1.377 . S
C1347 C1345 1.389 . S
C1347 C1348 1.524 . S
C1348 C1347 1.524 . S
C1348 C1349 1.397 . S
C1348 C1353 1.363 . S
C1349 H1320 0.950 . S
C1349 C1348 1.397 . S
C1349 C1350 1.334 . S
C1350 H1321 0.950 . S
C1350 C1349 1.334 . S
C1350 C1351 1.287 . S
C1351 C1350 1.287 . S
C1351 C1352 1.524 . S
C1351 H1354 0.999 . S
C1352 H1322 0.950 . S
C1352 C1351 1.524 . S
C1352 C1353 1.415 . S
C1353 H1323 0.950 . S
C1353 C1348 1.363 . S
C1353 C1352 1.415 . S
H1354 C1351 0.999 . S
H1355 C1336 0.913 . S
C175 C5 1.837 . S
C190 C83 1.837 . S
C225 C18 1.836 . S
C240 C96 1.836 . S
C275 C31 1.837 . S
C290 C109 1.837 . S
C325 C44 1.836 . S
C340 C122 1.836 . S
C375 C57 1.836 . S
C390 C135 1.836 . S
C425 C148 1.837 . S
C440 C70 1.837 . S
C475 C3 1.844 . S
C490 C133 1.844 . S
C525 C16 1.844 . S
C540 C146 1.844 . S
C575 C29 1.844 . S
C590 C81 1.844 . S
C625 C42 1.844 . S
C640 C94 1.844 . S
C675 C55 1.844 . S
C690 C107 1.844 . S
C725 C68 1.844 . S
C740 C120 1.844 . S
C775 C1 1.814 . S
C790 C40 1.814 . S
C825 C14 1.813 . S
C840 C53 1.813 . S
C875 C66 1.813 . S
C890 C27 1.813 . S
C925 C79 1.813 . S
C940 C118 1.813 . S
C975 C131 1.813 . S
C990 C92 1.813 . S
C1025 C105 1.814 . S
C1040 C144 1.813 . S
C1075 C88 0.724 . S
C1090 C10 0.724 . S
C1125 C23 0.724 . S
C1140 C101 0.724 . S
C1175 C36 0.725 . S
C1190 C114 0.725 . S
C1225 C127 0.724 . S
C1240 C49 0.724 . S
C1275 C140 0.723 . S
C1290 C62 0.723 . S
C1325 C75 0.724 . S
C1340 C153 0.725 . S
