# Generated by pormake.
# Topology flu-e, (6)-cn, num edge types: 1
# Building blocks:
#     Node 0, Type 0, BuildingBlock: MAKGUD_clean_sbu_1, # of connection points: 6
#     Node 1, Type 0, BuildingBlock: MAKGUD_clean_sbu_1, # of connection points: 6
#     Node 2, Type 0, BuildingBlock: MAKGUD_clean_sbu_1, # of connection points: 6
#     Node 3, Type 0, BuildingBlock: MAKGUD_clean_sbu_1, # of connection points: 6
#     Node 4, Type 0, BuildingBlock: MAKGUD_clean_sbu_1, # of connection points: 6
#     Node 5, Type 0, BuildingBlock: MAKGUD_clean_sbu_1, # of connection points: 6
#     Node 6, Type 0, BuildingBlock: MAKGUD_clean_sbu_1, # of connection points: 6
#     Node 7, Type 0, BuildingBlock: MAKGUD_clean_sbu_1, # of connection points: 6
#     Node 8, Type 0, BuildingBlock: MAKGUD_clean_sbu_1, # of connection points: 6
#     Node 9, Type 0, BuildingBlock: MAKGUD_clean_sbu_1, # of connection points: 6
#     Node 10, Type 0, BuildingBlock: MAKGUD_clean_sbu_1, # of connection points: 6
#     Node 11, Type 0, BuildingBlock: MAKGUD_clean_sbu_1, # of connection points: 6
#     Node 12, Type 0, BuildingBlock: MAKGUD_clean_sbu_1, # of connection points: 6
#     Node 13, Type 0, BuildingBlock: MAKGUD_clean_sbu_1, # of connection points: 6
#     Node 14, Type 0, BuildingBlock: MAKGUD_clean_sbu_1, # of connection points: 6
#     Node 15, Type 0, BuildingBlock: MAKGUD_clean_sbu_1, # of connection points: 6
#     Node 16, Type 0, BuildingBlock: MAKGUD_clean_sbu_1, # of connection points: 6
#     Node 17, Type 0, BuildingBlock: MAKGUD_clean_sbu_1, # of connection points: 6
#     Node 18, Type 0, BuildingBlock: MAKGUD_clean_sbu_1, # of connection points: 6
#     Node 19, Type 0, BuildingBlock: MAKGUD_clean_sbu_1, # of connection points: 6
#     Node 20, Type 0, BuildingBlock: MAKGUD_clean_sbu_1, # of connection points: 6
#     Node 21, Type 0, BuildingBlock: MAKGUD_clean_sbu_1, # of connection points: 6
#     Node 22, Type 0, BuildingBlock: MAKGUD_clean_sbu_1, # of connection points: 6
#     Node 23, Type 0, BuildingBlock: MAKGUD_clean_sbu_1, # of connection points: 6
#     Node 24, Type 0, BuildingBlock: MAKGUD_clean_sbu_1, # of connection points: 6
#     Node 25, Type 0, BuildingBlock: MAKGUD_clean_sbu_1, # of connection points: 6
#     Node 26, Type 0, BuildingBlock: MAKGUD_clean_sbu_1, # of connection points: 6
#     Node 27, Type 0, BuildingBlock: MAKGUD_clean_sbu_1, # of connection points: 6
#     Node 28, Type 0, BuildingBlock: MAKGUD_clean_sbu_1, # of connection points: 6
#     Node 29, Type 0, BuildingBlock: MAKGUD_clean_sbu_1, # of connection points: 6
#     Node 30, Type 0, BuildingBlock: MAKGUD_clean_sbu_1, # of connection points: 6
#     Node 31, Type 0, BuildingBlock: MAKGUD_clean_sbu_1, # of connection points: 6
#     Edge 32, Type (0, 0), BuildingBlock: XUDNAN_clean_linker_2, # of connection points: 2
#     Edge 33, Type (0, 0), BuildingBlock: XUDNAN_clean_linker_2, # of connection points: 2
#     Edge 34, Type (0, 0), BuildingBlock: XUDNAN_clean_linker_2, # of connection points: 2
#     Edge 35, Type (0, 0), BuildingBlock: XUDNAN_clean_linker_2, # of connection points: 2
#     Edge 36, Type (0, 0), BuildingBlock: XUDNAN_clean_linker_2, # of connection points: 2
#     Edge 37, Type (0, 0), BuildingBlock: XUDNAN_clean_linker_2, # of connection points: 2
#     Edge 38, Type (0, 0), BuildingBlock: XUDNAN_clean_linker_2, # of connection points: 2
#     Edge 39, Type (0, 0), BuildingBlock: XUDNAN_clean_linker_2, # of connection points: 2
#     Edge 40, Type (0, 0), BuildingBlock: XUDNAN_clean_linker_2, # of connection points: 2
#     Edge 41, Type (0, 0), BuildingBlock: XUDNAN_clean_linker_2, # of connection points: 2
#     Edge 42, Type (0, 0), BuildingBlock: XUDNAN_clean_linker_2, # of connection points: 2
#     Edge 43, Type (0, 0), BuildingBlock: XUDNAN_clean_linker_2, # of connection points: 2
#     Edge 44, Type (0, 0), BuildingBlock: XUDNAN_clean_linker_2, # of connection points: 2
#     Edge 45, Type (0, 0), BuildingBlock: XUDNAN_clean_linker_2, # of connection points: 2
#     Edge 46, Type (0, 0), BuildingBlock: XUDNAN_clean_linker_2, # of connection points: 2
#     Edge 47, Type (0, 0), BuildingBlock: XUDNAN_clean_linker_2, # of connection points: 2
#     Edge 48, Type (0, 0), BuildingBlock: XUDNAN_clean_linker_2, # of connection points: 2
#     Edge 49, Type (0, 0), BuildingBlock: XUDNAN_clean_linker_2, # of connection points: 2
#     Edge 50, Type (0, 0), BuildingBlock: XUDNAN_clean_linker_2, # of connection points: 2
#     Edge 51, Type (0, 0), BuildingBlock: XUDNAN_clean_linker_2, # of connection points: 2
#     Edge 52, Type (0, 0), BuildingBlock: XUDNAN_clean_linker_2, # of connection points: 2
#     Edge 53, Type (0, 0), BuildingBlock: XUDNAN_clean_linker_2, # of connection points: 2
#     Edge 54, Type (0, 0), BuildingBlock: XUDNAN_clean_linker_2, # of connection points: 2
#     Edge 55, Type (0, 0), BuildingBlock: XUDNAN_clean_linker_2, # of connection points: 2
#     Edge 56, Type (0, 0), BuildingBlock: XUDNAN_clean_linker_2, # of connection points: 2
#     Edge 57, Type (0, 0), BuildingBlock: XUDNAN_clean_linker_2, # of connection points: 2
#     Edge 58, Type (0, 0), BuildingBlock: XUDNAN_clean_linker_2, # of connection points: 2
#     Edge 59, Type (0, 0), BuildingBlock: XUDNAN_clean_linker_2, # of connection points: 2
#     Edge 60, Type (0, 0), BuildingBlock: XUDNAN_clean_linker_2, # of connection points: 2
#     Edge 61, Type (0, 0), BuildingBlock: XUDNAN_clean_linker_2, # of connection points: 2
#     Edge 62, Type (0, 0), BuildingBlock: XUDNAN_clean_linker_2, # of connection points: 2
#     Edge 63, Type (0, 0), BuildingBlock: XUDNAN_clean_linker_2, # of connection points: 2
#     Edge 64, Type (0, 0), BuildingBlock: XUDNAN_clean_linker_2, # of connection points: 2
#     Edge 65, Type (0, 0), BuildingBlock: XUDNAN_clean_linker_2, # of connection points: 2
#     Edge 66, Type (0, 0), BuildingBlock: XUDNAN_clean_linker_2, # of connection points: 2
#     Edge 67, Type (0, 0), BuildingBlock: XUDNAN_clean_linker_2, # of connection points: 2
#     Edge 68, Type (0, 0), BuildingBlock: XUDNAN_clean_linker_2, # of connection points: 2
#     Edge 69, Type (0, 0), BuildingBlock: XUDNAN_clean_linker_2, # of connection points: 2
#     Edge 70, Type (0, 0), BuildingBlock: XUDNAN_clean_linker_2, # of connection points: 2
#     Edge 71, Type (0, 0), BuildingBlock: XUDNAN_clean_linker_2, # of connection points: 2
#     Edge 72, Type (0, 0), BuildingBlock: XUDNAN_clean_linker_2, # of connection points: 2
#     Edge 73, Type (0, 0), BuildingBlock: XUDNAN_clean_linker_2, # of connection points: 2
#     Edge 74, Type (0, 0), BuildingBlock: XUDNAN_clean_linker_2, # of connection points: 2
#     Edge 75, Type (0, 0), BuildingBlock: XUDNAN_clean_linker_2, # of connection points: 2
#     Edge 76, Type (0, 0), BuildingBlock: XUDNAN_clean_linker_2, # of connection points: 2
#     Edge 77, Type (0, 0), BuildingBlock: XUDNAN_clean_linker_2, # of connection points: 2
#     Edge 78, Type (0, 0), BuildingBlock: XUDNAN_clean_linker_2, # of connection points: 2
#     Edge 79, Type (0, 0), BuildingBlock: XUDNAN_clean_linker_2, # of connection points: 2
#     Edge 80, Type (0, 0), BuildingBlock: XUDNAN_clean_linker_2, # of connection points: 2
#     Edge 81, Type (0, 0), BuildingBlock: XUDNAN_clean_linker_2, # of connection points: 2
#     Edge 82, Type (0, 0), BuildingBlock: XUDNAN_clean_linker_2, # of connection points: 2
#     Edge 83, Type (0, 0), BuildingBlock: XUDNAN_clean_linker_2, # of connection points: 2
#     Edge 84, Type (0, 0), BuildingBlock: XUDNAN_clean_linker_2, # of connection points: 2
#     Edge 85, Type (0, 0), BuildingBlock: XUDNAN_clean_linker_2, # of connection points: 2
#     Edge 86, Type (0, 0), BuildingBlock: XUDNAN_clean_linker_2, # of connection points: 2
#     Edge 87, Type (0, 0), BuildingBlock: XUDNAN_clean_linker_2, # of connection points: 2
#     Edge 88, Type (0, 0), BuildingBlock: XUDNAN_clean_linker_2, # of connection points: 2
#     Edge 89, Type (0, 0), BuildingBlock: XUDNAN_clean_linker_2, # of connection points: 2
#     Edge 90, Type (0, 0), BuildingBlock: XUDNAN_clean_linker_2, # of connection points: 2
#     Edge 91, Type (0, 0), BuildingBlock: XUDNAN_clean_linker_2, # of connection points: 2
#     Edge 92, Type (0, 0), BuildingBlock: XUDNAN_clean_linker_2, # of connection points: 2
#     Edge 93, Type (0, 0), BuildingBlock: XUDNAN_clean_linker_2, # of connection points: 2
#     Edge 94, Type (0, 0), BuildingBlock: XUDNAN_clean_linker_2, # of connection points: 2
#     Edge 95, Type (0, 0), BuildingBlock: XUDNAN_clean_linker_2, # of connection points: 2
#     Edge 96, Type (0, 0), BuildingBlock: XUDNAN_clean_linker_2, # of connection points: 2
#     Edge 97, Type (0, 0), BuildingBlock: XUDNAN_clean_linker_2, # of connection points: 2
#     Edge 98, Type (0, 0), BuildingBlock: XUDNAN_clean_linker_2, # of connection points: 2
#     Edge 99, Type (0, 0), BuildingBlock: XUDNAN_clean_linker_2, # of connection points: 2
#     Edge 100, Type (0, 0), BuildingBlock: XUDNAN_clean_linker_2, # of connection points: 2
#     Edge 101, Type (0, 0), BuildingBlock: XUDNAN_clean_linker_2, # of connection points: 2
#     Edge 102, Type (0, 0), BuildingBlock: XUDNAN_clean_linker_2, # of connection points: 2
#     Edge 103, Type (0, 0), BuildingBlock: XUDNAN_clean_linker_2, # of connection points: 2
#     Edge 104, Type (0, 0), BuildingBlock: XUDNAN_clean_linker_2, # of connection points: 2
#     Edge 105, Type (0, 0), BuildingBlock: XUDNAN_clean_linker_2, # of connection points: 2
#     Edge 106, Type (0, 0), BuildingBlock: XUDNAN_clean_linker_2, # of connection points: 2
#     Edge 107, Type (0, 0), BuildingBlock: XUDNAN_clean_linker_2, # of connection points: 2
#     Edge 108, Type (0, 0), BuildingBlock: XUDNAN_clean_linker_2, # of connection points: 2
#     Edge 109, Type (0, 0), BuildingBlock: XUDNAN_clean_linker_2, # of connection points: 2
#     Edge 110, Type (0, 0), BuildingBlock: XUDNAN_clean_linker_2, # of connection points: 2
#     Edge 111, Type (0, 0), BuildingBlock: XUDNAN_clean_linker_2, # of connection points: 2
#     Edge 112, Type (0, 0), BuildingBlock: XUDNAN_clean_linker_2, # of connection points: 2
#     Edge 113, Type (0, 0), BuildingBlock: XUDNAN_clean_linker_2, # of connection points: 2
#     Edge 114, Type (0, 0), BuildingBlock: XUDNAN_clean_linker_2, # of connection points: 2
#     Edge 115, Type (0, 0), BuildingBlock: XUDNAN_clean_linker_2, # of connection points: 2
#     Edge 116, Type (0, 0), BuildingBlock: XUDNAN_clean_linker_2, # of connection points: 2
#     Edge 117, Type (0, 0), BuildingBlock: XUDNAN_clean_linker_2, # of connection points: 2
#     Edge 118, Type (0, 0), BuildingBlock: XUDNAN_clean_linker_2, # of connection points: 2
#     Edge 119, Type (0, 0), BuildingBlock: XUDNAN_clean_linker_2, # of connection points: 2
#     Edge 120, Type (0, 0), BuildingBlock: XUDNAN_clean_linker_2, # of connection points: 2
#     Edge 121, Type (0, 0), BuildingBlock: XUDNAN_clean_linker_2, # of connection points: 2
#     Edge 122, Type (0, 0), BuildingBlock: XUDNAN_clean_linker_2, # of connection points: 2
#     Edge 123, Type (0, 0), BuildingBlock: XUDNAN_clean_linker_2, # of connection points: 2
#     Edge 124, Type (0, 0), BuildingBlock: XUDNAN_clean_linker_2, # of connection points: 2
#     Edge 125, Type (0, 0), BuildingBlock: XUDNAN_clean_linker_2, # of connection points: 2
#     Edge 126, Type (0, 0), BuildingBlock: XUDNAN_clean_linker_2, # of connection points: 2
#     Edge 127, Type (0, 0), BuildingBlock: XUDNAN_clean_linker_2, # of connection points: 2
# Relax obj value: 0.234
# Max RMSD: 0.305
# Mean RMSD: 0.281
data_MOF--net-flu-e--node1-MAKGUD_clean_sbu_1--edge1-XUDNAN_clean_linker_2
_symmetry_space_group_name_H-M    P1
_symmetry_Int_Tables_number       1
_symmetry_cell_setting            triclinic
loop_
_symmetry_equiv_pos_as_xyz
'x, y, z'
_cell_length_a     56.394239
_cell_length_b     53.716561
_cell_length_c     58.923039
_cell_angle_alpha  92.376084
_cell_angle_beta   87.061639
_cell_angle_gamma 92.184396
loop_
_atom_site_label
_atom_site_type_symbol
_atom_site_fract_x
_atom_site_fract_y
_atom_site_fract_z
_atom_type_partial_charge
O0 O 0.21651 0.12701 0.37092 0.0
Tb1 Tb 0.21284 0.16379 0.38896 0.0
C2 C 0.16693 0.19714 0.38641 0.0
O3 O 0.22424 0.20018 0.34284 0.0
Tb4 Tb 0.21119 0.23007 0.36592 0.0
C5 C 0.19756 0.26721 0.34101 0.0
O6 O 0.24339 0.17605 0.36705 0.0
O7 O 0.2462 0.24625 0.37583 0.0
C8 C 0.25951 0.25512 0.35852 0.0
O9 O 0.25109 0.25119 0.33825 0.0
O10 O 0.17703 0.17545 0.38179 0.0
O11 O 0.17939 0.21868 0.38739 0.0
O12 O 0.22234 0.17857 0.42278 0.0
C13 C 0.24194 0.18598 0.34703 0.0
C14 C 0.21316 0.11312 0.38847 0.0
O15 O 0.19926 0.24401 0.33397 0.0
O16 O 0.20288 0.26922 0.36223 0.0
C17 C 0.20718 0.17512 0.44032 0.0
O18 O 0.18619 0.16485 0.43639 0.0
O19 O 0.20942 0.12784 0.40626 0.0
O20 O 0.92254 0.17201 0.45477 0.0
Tb21 Tb 0.93556 0.19284 0.4252 0.0
C22 C 0.98917 0.20738 0.40147 0.0
O23 O 0.92878 0.25041 0.40403 0.0
Tb24 Tb 0.94692 0.2314 0.37503 0.0
C25 C 0.95293 0.26584 0.34315 0.0
O26 O 0.9064 0.21861 0.41972 0.0
O27 O 0.92514 0.2037 0.3564 0.0
C28 C 0.90588 0.19177 0.36437 0.0
O29 O 0.90237 0.18908 0.38621 0.0
O30 O 0.97433 0.19542 0.41604 0.0
O31 O 0.98214 0.22222 0.38589 0.0
O32 O 0.92703 0.15476 0.41115 0.0
C33 C 0.90849 0.24191 0.41323 0.0
C34 C 0.93109 0.18704 0.47037 0.0
O35 O 0.93725 0.26625 0.36006 0.0
O36 O 0.9657 0.2464 0.34463 0.0
C37 C 0.94297 0.13718 0.40812 0.0
O38 O 0.96547 0.1433 0.41063 0.0
O39 O 0.94254 0.2055 0.46052 0.0
O40 O 0.92977 0.88623 0.45089 0.0
Tb41 Tb 0.94024 0.90072 0.41702 0.0
C42 C 0.93288 0.95195 0.39436 0.0
O43 O 0.88931 0.8939 0.38678 0.0
Tb44 Tb 0.91209 0.91288 0.36141 0.0
C45 C 0.8827 0.93341 0.33386 0.0
O46 O 0.91502 0.8705 0.40562 0.0
O47 O 0.92537 0.8792 0.34391 0.0
C48 C 0.91006 0.86565 0.33196 0.0
O49 O 0.88801 0.87275 0.33217 0.0
O50 O 0.92596 0.93754 0.41126 0.0
O51 O 0.93697 0.94184 0.3739 0.0
O52 O 0.97695 0.89283 0.40323 0.0
C53 C 0.8943 0.87308 0.3963 0.0
C54 C 0.94277 0.9021 0.46256 0.0
O55 O 0.87971 0.9326 0.35585 0.0
O56 O 0.90253 0.92306 0.32738 0.0
C57 C 0.99337 0.88542 0.41677 0.0
O58 O 0.98679 0.88066 0.43788 0.0
O59 O 0.95419 0.91682 0.44857 0.0
O60 O 0.2334 0.89952 0.45461 0.0
Tb61 Tb 0.21655 0.87685 0.42779 0.0
C62 C 0.16962 0.86693 0.40094 0.0
O63 O 0.24381 0.83034 0.39024 0.0
Tb64 Tb 0.21881 0.85291 0.37374 0.0
C65 C 0.21484 0.82531 0.33532 0.0
O66 O 0.24357 0.84745 0.4269 0.0
O67 O 0.23845 0.88748 0.36688 0.0
C68 C 0.25684 0.89504 0.37851 0.0
O69 O 0.26188 0.88305 0.39648 0.0
O70 O 0.17928 0.86648 0.42093 0.0
O71 O 0.18276 0.86587 0.38172 0.0
O72 O 0.21931 0.91213 0.40947 0.0
C73 C 0.25191 0.83162 0.41079 0.0
C74 C 0.2188 0.89285 0.47119 0.0
O75 O 0.20352 0.82093 0.35461 0.0
O76 O 0.22799 0.84561 0.33754 0.0
C77 C 0.20909 0.93216 0.41892 0.0
O78 O 0.19645 0.92959 0.43809 0.0
O79 O 0.20268 0.87729 0.46331 0.0
O80 O 0.15376 0.92989 0.70021 0.0
Tb81 Tb 0.18211 0.91205 0.67994 0.0
C82 C 0.21404 0.91366 0.63756 0.0
O83 O 0.21731 0.89387 0.71461 0.0
Tb84 Tb 0.23691 0.90203 0.68237 0.0
C85 C 0.25211 0.8589 0.66537 0.0
O86 O 0.18422 0.87872 0.69839 0.0
O87 O 0.26496 0.92114 0.70094 0.0
C88 C 0.27262 0.90943 0.71817 0.0
O89 O 0.26349 0.88715 0.72248 0.0
O90 O 0.19406 0.90333 0.64546 0.0
O91 O 0.23007 0.92212 0.65181 0.0
O92 O 0.20389 0.94577 0.68478 0.0
C93 C 0.19861 0.87854 0.71497 0.0
C94 C 0.13814 0.92714 0.68477 0.0
O95 O 0.22999 0.86336 0.67084 0.0
O96 O 0.26554 0.87854 0.66978 0.0
C97 C 0.1968 0.9646 0.67362 0.0
O98 O 0.1782 0.96087 0.6612 0.0
O99 O 0.14714 0.91549 0.6667 0.0
O100 O 0.30561 0.16764 0.70495 0.0
Tb101 Tb 0.27054 0.17817 0.69482 0.0
C102 C 0.22745 0.20813 0.70713 0.0
O103 O 0.22367 0.15322 0.66448 0.0
Tb104 Tb 0.21894 0.19248 0.65813 0.0
C105 C 0.17254 0.20023 0.6576 0.0
O106 O 0.26435 0.15304 0.66601 0.0
O107 O 0.23211 0.1941 0.62248 0.0
C108 C 0.21845 0.1826 0.60742 0.0
O109 O 0.19953 0.17003 0.61524 0.0
O110 O 0.23651 0.18676 0.71114 0.0
O111 O 0.22988 0.21697 0.6866 0.0
O112 O 0.28229 0.21605 0.68847 0.0
C113 C 0.24371 0.14123 0.66406 0.0
C114 C 0.29884 0.16154 0.7255 0.0
O115 O 0.18178 0.1808 0.66557 0.0
O116 O 0.18941 0.21514 0.64976 0.0
C117 C 0.28602 0.23039 0.70663 0.0
O118 O 0.28198 0.22096 0.72675 0.0
O119 O 0.27604 0.16412 0.72843 0.0
O120 O 0.98267 0.21922 0.66959 0.0
Tb121 Tb 0.95183 0.19503 0.67826 0.0
C122 C 0.92012 0.1911 0.63854 0.0
O123 O 0.90826 0.23201 0.69989 0.0
Tb124 Tb 0.88808 0.20503 0.67928 0.0
C125 C 0.86216 0.23292 0.65495 0.0
O126 O 0.93873 0.20913 0.71155 0.0
O127 O 0.86709 0.19053 0.70853 0.0
C128 C 0.8522 0.20578 0.71953 0.0
O129 O 0.85067 0.22833 0.71201 0.0
O130 O 0.93737 0.20528 0.64667 0.0
O131 O 0.90451 0.18071 0.65295 0.0
O132 O 0.94247 0.1558 0.6724 0.0
C133 C 0.92367 0.22715 0.71498 0.0
C134 C 0.99859 0.20339 0.6739 0.0
O135 O 0.88336 0.23891 0.6614 0.0
O136 O 0.85518 0.21135 0.66265 0.0
C137 C 0.92736 0.14353 0.68588 0.0
O138 O 0.9181 0.15489 0.70423 0.0
O139 O 0.98815 0.18285 0.68086 0.0
O140 O 0.96302 0.91538 0.66841 0.0
Tb141 Tb 0.92591 0.91217 0.67978 0.0
C142 C 0.90459 0.9641 0.689 0.0
O143 O 0.92712 0.90654 0.73507 0.0
Tb144 Tb 0.89792 0.92843 0.7267 0.0
C145 C 0.87072 0.94104 0.763 0.0
O146 O 0.92488 0.88086 0.70324 0.0
O147 O 0.88031 0.90014 0.70564 0.0
C148 C 0.87263 0.87971 0.71553 0.0
O149 O 0.8751 0.87817 0.73749 0.0
O150 O 0.9034 0.94409 0.67529 0.0
O151 O 0.90896 0.96179 0.71029 0.0
O152 O 0.92493 0.89981 0.64389 0.0
C153 C 0.93102 0.88498 0.72456 0.0
C154 C 0.96924 0.93177 0.68397 0.0
O155 O 0.89355 0.93843 0.76291 0.0
O156 O 0.86319 0.93606 0.74277 0.0
C157 C 0.93114 0.91709 0.6292 0.0
O158 O 0.93572 0.93982 0.63728 0.0
O159 O 0.95112 0.937 0.6976 0.0
O160 O 0.48743 0.17307 0.18564 0.0
Tb161 Tb 0.45333 0.17768 0.17055 0.0
C162 C 0.42274 0.18015 0.13066 0.0
O163 O 0.41524 0.20631 0.20484 0.0
Tb164 Tb 0.39526 0.18927 0.1768 0.0
C165 C 0.37236 0.22511 0.15925 0.0
O166 O 0.45172 0.21409 0.18731 0.0
O167 O 0.37045 0.17259 0.20245 0.0
C168 C 0.35793 0.18847 0.21558 0.0
O169 O 0.36113 0.21239 0.21204 0.0
O170 O 0.44252 0.18963 0.13855 0.0
O171 O 0.40677 0.16943 0.14474 0.0
O172 O 0.42836 0.14825 0.18105 0.0
C173 C 0.43515 0.21982 0.20283 0.0
C174 C 0.49733 0.16122 0.16814 0.0
O175 O 0.39466 0.22673 0.16403 0.0
O176 O 0.36295 0.20362 0.16481 0.0
C177 C 0.43578 0.13073 0.1935 0.0
O178 O 0.45627 0.13434 0.203 0.0
O179 O 0.48256 0.15896 0.15187 0.0
O180 O 0.96463 0.39128 0.15545 0.0
Tb181 Tb 0.93343 0.40487 0.17516 0.0
C182 C 0.90636 0.45475 0.18512 0.0
O183 O 0.90831 0.39546 0.22721 0.0
Tb184 Tb 0.88122 0.408 0.2057 0.0
C185 C 0.84318 0.41271 0.23389 0.0
O186 O 0.92812 0.37445 0.19839 0.0
O187 O 0.87854 0.37696 0.1812 0.0
C188 C 0.87698 0.35421 0.18855 0.0
O189 O 0.87718 0.35094 0.21052 0.0
O190 O 0.9268 0.44371 0.18496 0.0
O191 O 0.88605 0.44243 0.18823 0.0
O192 O 0.91626 0.40209 0.14287 0.0
C193 C 0.92283 0.37795 0.2202 0.0
C194 C 0.98003 0.40525 0.16623 0.0
O195 O 0.86468 0.42017 0.23824 0.0
O196 O 0.84296 0.40238 0.21352 0.0
C197 C 0.92542 0.41645 0.12684 0.0
O198 O 0.9425 0.43267 0.13212 0.0
O199 O 0.96919 0.41893 0.18186 0.0
O200 O 0.65071 0.92725 0.20011 0.0
Tb201 Tb 0.68185 0.91281 0.18159 0.0
C202 C 0.71613 0.91598 0.14067 0.0
O203 O 0.71893 0.89668 0.21799 0.0
Tb204 Tb 0.7387 0.90618 0.18619 0.0
C205 C 0.75615 0.86384 0.16944 0.0
O206 O 0.68627 0.88057 0.20109 0.0
O207 O 0.76631 0.92632 0.20479 0.0
C208 C 0.76097 0.94111 0.22252 0.0
O209 O 0.73866 0.94663 0.22694 0.0
O210 O 0.69647 0.9045 0.14793 0.0
O211 O 0.73106 0.9258 0.15547 0.0
O212 O 0.69899 0.94893 0.18836 0.0
C213 C 0.70022 0.88129 0.21813 0.0
C214 C 0.63608 0.92203 0.18415 0.0
O215 O 0.73368 0.86744 0.17394 0.0
O216 O 0.76864 0.88393 0.1746 0.0
C217 C 0.6951 0.96646 0.17417 0.0
O218 O 0.68325 0.96046 0.15598 0.0
O219 O 0.64716 0.91134 0.16665 0.0
O220 O 0.31486 0.68702 0.21877 0.0
Tb221 Tb 0.28503 0.69664 0.19933 0.0
C222 C 0.24165 0.72968 0.19196 0.0
O223 O 0.24518 0.67466 0.17167 0.0
Tb224 Tb 0.2168 0.6942 0.15701 0.0
C225 C 0.17141 0.68134 0.16616 0.0
O226 O 0.25978 0.66605 0.20517 0.0
O227 O 0.22441 0.69773 0.12044 0.0
C228 C 0.20866 0.68868 0.10616 0.0
O229 O 0.18906 0.67783 0.11456 0.0
O230 O 0.26219 0.7218 0.18335 0.0
O231 O 0.22289 0.72704 0.17946 0.0
O232 O 0.30592 0.68806 0.1681 0.0
C233 C 0.24321 0.66199 0.19043 0.0
C234 C 0.31254 0.70464 0.23446 0.0
O235 O 0.18877 0.66586 0.165 0.0
O236 O 0.17973 0.70367 0.162 0.0
C237 C 0.31589 0.70469 0.15444 0.0
O238 O 0.32545 0.69689 0.13475 0.0
O239 O 0.29465 0.7183 0.23021 0.0
O240 O 0.44559 0.87213 0.94553 0.0
Tb241 Tb 0.44421 0.89547 0.91591 0.0
C242 C 0.43953 0.9467 0.89236 0.0
O243 O 0.39373 0.89218 0.88457 0.0
Tb244 Tb 0.41876 0.90776 0.85925 0.0
C245 C 0.39253 0.92955 0.82994 0.0
O246 O 0.41804 0.86724 0.9029 0.0
O247 O 0.42983 0.87308 0.84235 0.0
C248 C 0.41385 0.86106 0.83005 0.0
O249 O 0.39257 0.87017 0.82987 0.0
O250 O 0.43391 0.93414 0.91079 0.0
O251 O 0.44459 0.93452 0.87306 0.0
O252 O 0.48199 0.89171 0.90415 0.0
C253 C 0.3973 0.87128 0.89443 0.0
C254 C 0.44081 0.88942 0.96093 0.0
O255 O 0.38564 0.9238 0.85049 0.0
O256 O 0.4145 0.92346 0.82599 0.0
C257 C 0.4993 0.89385 0.9187 0.0
O258 O 0.49363 0.89955 0.94013 0.0
O259 O 0.43834 0.91021 0.951 0.0
O260 O 0.22792 0.40405 0.95448 0.0
Tb261 Tb 0.2135 0.37785 0.92853 0.0
C262 C 0.16068 0.36695 0.91074 0.0
O263 O 0.22117 0.32018 0.90474 0.0
Tb264 Tb 0.20212 0.34217 0.8817 0.0
C265 C 0.1966 0.31309 0.84417 0.0
O266 O 0.24344 0.35263 0.91935 0.0
O267 O 0.2271 0.37232 0.87359 0.0
C268 C 0.24799 0.36617 0.86487 0.0
O269 O 0.25392 0.34279 0.86542 0.0
O270 O 0.17467 0.36886 0.92822 0.0
O271 O 0.16893 0.36048 0.89018 0.0
O272 O 0.21447 0.41229 0.90931 0.0
C273 C 0.24107 0.32861 0.91348 0.0
C274 C 0.21933 0.39236 0.9721 0.0
O275 O 0.18729 0.30863 0.86432 0.0
O276 O 0.20871 0.33409 0.84511 0.0
C277 C 0.2031 0.43184 0.91816 0.0
O278 O 0.19005 0.42907 0.93708 0.0
O279 O 0.20786 0.37224 0.96516 0.0
O280 O 0.71485 0.13368 0.90507 0.0
Tb281 Tb 0.70448 0.16853 0.89012 0.0
C282 C 0.65665 0.20067 0.88491 0.0
O283 O 0.71561 0.19983 0.84341 0.0
Tb284 Tb 0.70082 0.23204 0.86159 0.0
C285 C 0.69114 0.26021 0.82692 0.0
O286 O 0.73599 0.18023 0.8693 0.0
O287 O 0.73332 0.2485 0.87685 0.0
C288 C 0.74838 0.26248 0.86424 0.0
O289 O 0.74382 0.26505 0.84284 0.0
O290 O 0.66784 0.17918 0.88396 0.0
O291 O 0.66765 0.22276 0.8818 0.0
O292 O 0.70723 0.18368 0.92501 0.0
C293 C 0.73522 0.19018 0.84933 0.0
C294 C 0.70544 0.11811 0.8903 0.0
O295 O 0.69236 0.23613 0.82626 0.0
O296 O 0.69466 0.26867 0.84756 0.0
C297 C 0.69281 0.17482 0.94134 0.0
O298 O 0.67602 0.15841 0.93574 0.0
O299 O 0.69529 0.13102 0.87553 0.0
O300 O 0.9243 0.68185 0.96096 0.0
Tb301 Tb 0.93506 0.69517 0.92677 0.0
C302 C 0.98735 0.70736 0.90002 0.0
O303 O 0.92332 0.75442 0.90626 0.0
Tb304 Tb 0.94516 0.73735 0.87851 0.0
C305 C 0.9518 0.76922 0.84466 0.0
O306 O 0.90485 0.71803 0.9184 0.0
O307 O 0.91569 0.71317 0.86753 0.0
C308 C 0.89712 0.72562 0.86239 0.0
O309 O 0.89865 0.75006 0.86402 0.0
O310 O 0.97299 0.69564 0.91504 0.0
O311 O 0.98007 0.72321 0.88543 0.0
O312 O 0.92879 0.6563 0.91366 0.0
C313 C 0.90466 0.74247 0.91565 0.0
C314 C 0.9363 0.69886 0.97244 0.0
O315 O 0.95424 0.7748 0.86618 0.0
O316 O 0.94604 0.74565 0.84221 0.0
C317 C 0.93733 0.6369 0.92344 0.0
O318 O 0.94963 0.64098 0.94164 0.0
O319 O 0.94739 0.71364 0.95814 0.0
O320 O 0.15893 0.44022 0.18879 0.0
Tb321 Tb 0.19642 0.43146 0.18707 0.0
C322 C 0.21325 0.41742 0.13842 0.0
O323 O 0.20296 0.37179 0.1993 0.0
Tb324 Tb 0.22902 0.38491 0.17436 0.0
C325 C 0.2604 0.35327 0.15744 0.0
O326 O 0.20263 0.41013 0.21741 0.0
O327 O 0.24878 0.40851 0.19835 0.0
C328 C 0.25723 0.39636 0.21501 0.0
O329 O 0.25288 0.37216 0.21536 0.0
O330 O 0.21566 0.43563 0.15382 0.0
O331 O 0.21049 0.39481 0.14538 0.0
O332 O 0.20038 0.47082 0.19708 0.0
C333 C 0.19935 0.38555 0.21796 0.0
C334 C 0.15181 0.42041 0.17726 0.0
O335 O 0.24052 0.34686 0.16832 0.0
O336 O 0.26263 0.37735 0.15642 0.0
C337 C 0.19617 0.4876 0.18222 0.0
O338 O 0.19014 0.48002 0.16176 0.0
O339 O 0.16975 0.40668 0.17144 0.0
O340 O 0.20696 0.62706 0.90584 0.0
Tb341 Tb 0.2106 0.66275 0.88835 0.0
C342 C 0.1648 0.69553 0.88581 0.0
O343 O 0.22612 0.69974 0.84458 0.0
Tb344 Tb 0.20934 0.72778 0.8671 0.0
C345 C 0.19559 0.76069 0.83814 0.0
O346 O 0.24318 0.67436 0.86904 0.0
O347 O 0.24198 0.74403 0.88216 0.0
C348 C 0.25719 0.75731 0.86907 0.0
O349 O 0.25271 0.75887 0.84753 0.0
O350 O 0.1752 0.67435 0.87986 0.0
O351 O 0.17721 0.71693 0.88807 0.0
O352 O 0.21792 0.67827 0.9223 0.0
C353 C 0.24387 0.68628 0.84987 0.0
C354 C 0.21018 0.61232 0.88797 0.0
O355 O 0.19344 0.73662 0.83549 0.0
O356 O 0.20503 0.76641 0.85741 0.0
C357 C 0.2018 0.67544 0.93912 0.0
O358 O 0.18111 0.66488 0.93449 0.0
O359 O 0.21351 0.62604 0.87032 0.0
O360 O 0.41714 0.17225 0.95271 0.0
Tb361 Tb 0.425 0.18743 0.91892 0.0
C362 C 0.47825 0.20713 0.89899 0.0
O363 O 0.40799 0.24435 0.90022 0.0
Tb364 Tb 0.43509 0.23054 0.87546 0.0
C365 C 0.43926 0.26011 0.83985 0.0
O366 O 0.39248 0.20559 0.90848 0.0
O367 O 0.41523 0.19866 0.86092 0.0
C368 C 0.39452 0.20339 0.85291 0.0
O369 O 0.38635 0.22587 0.85654 0.0
O370 O 0.46352 0.19055 0.90902 0.0
O371 O 0.47058 0.22596 0.88799 0.0
O372 O 0.4248 0.14817 0.90536 0.0
C373 C 0.38975 0.23 0.90699 0.0
C374 C 0.42305 0.19225 0.96457 0.0
O375 O 0.43214 0.2671 0.86043 0.0
O376 O 0.44452 0.23679 0.83961 0.0
C377 C 0.41388 0.12868 0.91507 0.0
O378 O 0.39896 0.13231 0.93263 0.0
O379 O 0.4302 0.20956 0.95067 0.0
O380 O 0.90898 0.39496 0.94485 0.0
Tb381 Tb 0.9329 0.40227 0.91504 0.0
C382 C 0.92881 0.45367 0.88835 0.0
O383 O 0.88402 0.3968 0.88579 0.0
Tb384 Tb 0.90602 0.41073 0.85751 0.0
C385 C 0.87691 0.42566 0.82672 0.0
O386 O 0.90956 0.37159 0.90161 0.0
O387 O 0.92045 0.37625 0.84277 0.0
C388 C 0.90541 0.36172 0.83142 0.0
O389 O 0.88339 0.36868 0.83087 0.0
O390 O 0.92708 0.44156 0.90753 0.0
O391 O 0.92927 0.44202 0.86817 0.0
O392 O 0.96918 0.38759 0.91029 0.0
C393 C 0.88838 0.37516 0.89388 0.0
C394 C 0.92384 0.40202 0.96015 0.0
O395 O 0.87038 0.418 0.84677 0.0
O396 O 0.89992 0.42531 0.8241 0.0
C397 C 0.98857 0.40067 0.90366 0.0
O398 O 0.9864 0.42306 0.89605 0.0
O399 O 0.94379 0.40918 0.95005 0.0
O400 O 0.73437 0.90876 0.95727 0.0
Tb401 Tb 0.72078 0.88477 0.92953 0.0
C402 C 0.67423 0.86898 0.90304 0.0
O403 O 0.74712 0.83411 0.895 0.0
Tb404 Tb 0.72261 0.8536 0.87515 0.0
C405 C 0.71877 0.82171 0.83917 0.0
O406 O 0.75091 0.85906 0.9279 0.0
O407 O 0.73979 0.88833 0.86465 0.0
C408 C 0.75697 0.89946 0.8759 0.0
O409 O 0.76284 0.89049 0.89507 0.0
O410 O 0.68437 0.87077 0.92289 0.0
O411 O 0.68671 0.86644 0.88353 0.0
O412 O 0.71884 0.91915 0.91009 0.0
C413 C 0.75756 0.84027 0.91398 0.0
C414 C 0.72087 0.89969 0.97359 0.0
O415 O 0.70692 0.82005 0.85861 0.0
O416 O 0.73244 0.84176 0.83978 0.0
C417 C 0.73254 0.93952 0.91348 0.0
O418 O 0.75112 0.9383 0.92587 0.0
O419 O 0.70691 0.88225 0.96509 0.0
O420 O 0.98893 0.69879 0.18247 0.0
Tb421 Tb 0.95164 0.68667 0.1874 0.0
C422 C 0.93069 0.69369 0.14106 0.0
O423 O 0.91338 0.73215 0.19972 0.0
Tb424 Tb 0.89368 0.70346 0.18012 0.0
C425 C 0.86003 0.72784 0.16159 0.0
O426 O 0.93962 0.70842 0.21726 0.0
O427 O 0.87574 0.68698 0.21018 0.0
C428 C 0.86192 0.70229 0.22253 0.0
O429 O 0.86132 0.72542 0.2162 0.0
O430 O 0.94743 0.70195 0.1544 0.0
O431 O 0.91067 0.68436 0.15021 0.0
O432 O 0.93095 0.65196 0.18404 0.0
C433 C 0.92696 0.7284 0.21674 0.0
C434 C 0.99797 0.67879 0.1895 0.0
O435 O 0.88131 0.7367 0.16528 0.0
O436 O 0.85763 0.70513 0.16839 0.0
C437 C 0.93929 0.63389 0.17051 0.0
O438 O 0.95901 0.63804 0.15819 0.0
O439 O 0.98087 0.66322 0.19568 0.0
O440 O 0.45591 0.89808 0.16598 0.0
Tb441 Tb 0.41885 0.89703 0.17854 0.0
C442 C 0.40584 0.95071 0.19102 0.0
O443 O 0.4188 0.88583 0.23283 0.0
Tb444 Tb 0.39391 0.91385 0.22685 0.0
C445 C 0.37059 0.92888 0.26479 0.0
O446 O 0.41266 0.86404 0.19944 0.0
O447 O 0.37172 0.88962 0.20582 0.0
C448 C 0.36104 0.87065 0.21594 0.0
O449 O 0.36285 0.86917 0.238 0.0
O450 O 0.40038 0.93222 0.17662 0.0
O451 O 0.41048 0.94581 0.21175 0.0
O452 O 0.41452 0.88457 0.1433 0.0
C453 C 0.4185 0.86461 0.22095 0.0
C454 C 0.46399 0.91068 0.1834 0.0
O455 O 0.39231 0.92144 0.26353 0.0
O456 O 0.36188 0.9274 0.24474 0.0
C457 C 0.4185 0.90103 0.12744 0.0
O458 O 0.42367 0.92428 0.13372 0.0
O459 O 0.44675 0.91534 0.19821 0.0
O460 O 0.80848 0.17783 0.22067 0.0
Tb461 Tb 0.77865 0.18041 0.19923 0.0
C462 C 0.73007 0.20686 0.19744 0.0
O463 O 0.7422 0.15878 0.16763 0.0
Tb464 Tb 0.70895 0.17387 0.15833 0.0
C465 C 0.66705 0.15123 0.16699 0.0
O466 O 0.76446 0.14291 0.19353 0.0
O467 O 0.71216 0.187 0.12349 0.0
C468 C 0.69703 0.17796 0.10857 0.0
O469 O 0.67978 0.16263 0.11564 0.0
O470 O 0.7507 0.20247 0.18691 0.0
O471 O 0.71063 0.20217 0.18622 0.0
O472 O 0.80629 0.19301 0.1751 0.0
C473 C 0.74604 0.14029 0.1808 0.0
C474 C 0.79775 0.18588 0.23943 0.0
O475 O 0.68547 0.1402 0.15738 0.0
O476 O 0.67247 0.17454 0.17154 0.0
C477 C 0.80227 0.20298 0.15574 0.0
O478 O 0.78078 0.20143 0.14807 0.0
O479 O 0.77585 0.19099 0.2357 0.0
O480 O 0.47373 0.65885 0.69191 0.0
Tb481 Tb 0.44661 0.68396 0.68182 0.0
C482 C 0.42602 0.69248 0.63623 0.0
O483 O 0.40999 0.73032 0.69548 0.0
Tb484 Tb 0.39029 0.70101 0.67653 0.0
C485 C 0.3549 0.72383 0.65934 0.0
O486 O 0.43785 0.70722 0.71151 0.0
O487 O 0.37442 0.68434 0.70739 0.0
C488 C 0.36132 0.69972 0.72042 0.0
O489 O 0.36019 0.72275 0.71396 0.0
O490 O 0.44267 0.70084 0.64956 0.0
O491 O 0.40615 0.68298 0.64551 0.0
O492 O 0.42334 0.65147 0.67778 0.0
C493 C 0.4249 0.727 0.71155 0.0
C494 C 0.4916 0.67062 0.6818 0.0
O495 O 0.37612 0.73347 0.66195 0.0
O496 O 0.35345 0.7013 0.66666 0.0
C497 C 0.42943 0.63416 0.66243 0.0
O498 O 0.44857 0.63798 0.64916 0.0
O499 O 0.48409 0.68992 0.67212 0.0
O500 O 0.65014 0.43476 0.69261 0.0
Tb501 Tb 0.68503 0.41997 0.68284 0.0
C502 C 0.7023 0.41507 0.63165 0.0
O503 O 0.71706 0.37148 0.68137 0.0
Tb504 Tb 0.73935 0.39687 0.66098 0.0
C505 C 0.76539 0.36609 0.63464 0.0
O506 O 0.70386 0.40035 0.7076 0.0
O507 O 0.75929 0.41498 0.6882 0.0
C508 C 0.76757 0.401 0.70366 0.0
O509 O 0.76317 0.37681 0.70232 0.0
O510 O 0.68562 0.40849 0.64684 0.0
O511 O 0.72352 0.42155 0.63836 0.0
O512 O 0.69738 0.45857 0.68724 0.0
C513 C 0.70954 0.37733 0.70227 0.0
C514 C 0.63982 0.41325 0.69674 0.0
O515 O 0.74251 0.36421 0.63816 0.0
O516 O 0.77373 0.38549 0.64603 0.0
C517 C 0.69364 0.47494 0.67189 0.0
O518 O 0.68434 0.46732 0.65272 0.0
O519 O 0.65493 0.39578 0.69302 0.0
O520 O 0.44252 0.37045 0.44406 0.0
Tb521 Tb 0.44126 0.39084 0.4129 0.0
C522 C 0.43265 0.44086 0.38211 0.0
O523 O 0.41351 0.38457 0.37608 0.0
Tb524 Tb 0.41414 0.40171 0.3443 0.0
C525 C 0.3754 0.4196 0.32786 0.0
O526 O 0.41072 0.36459 0.40665 0.0
O527 O 0.43145 0.37722 0.31851 0.0
C528 C 0.43491 0.35359 0.32207 0.0
O529 O 0.43073 0.34507 0.3425 0.0
O530 O 0.4317 0.42846 0.40154 0.0
O531 O 0.43676 0.43037 0.36139 0.0
O532 O 0.47771 0.382 0.39968 0.0
C533 C 0.4017 0.36714 0.38709 0.0
C534 C 0.44158 0.38954 0.45821 0.0
O535 O 0.37564 0.40071 0.34104 0.0
O536 O 0.39693 0.42899 0.32475 0.0
C537 C 0.49671 0.39186 0.40969 0.0
O538 O 0.49336 0.4085 0.42641 0.0
O539 O 0.44091 0.40973 0.44683 0.0
O540 O 0.72735 0.63393 0.40535 0.0
Tb541 Tb 0.71046 0.66568 0.39109 0.0
C542 C 0.6625 0.69523 0.38751 0.0
O543 O 0.72304 0.7027 0.34473 0.0
Tb544 Tb 0.70646 0.72914 0.36907 0.0
C545 C 0.69296 0.76373 0.34158 0.0
O546 O 0.74059 0.67615 0.36795 0.0
O547 O 0.73932 0.74455 0.38451 0.0
C548 C 0.75489 0.75753 0.3715 0.0
O549 O 0.75059 0.75901 0.3499 0.0
O550 O 0.67406 0.67441 0.38275 0.0
O551 O 0.67392 0.7173 0.3892 0.0
O552 O 0.7114 0.68308 0.4252 0.0
C553 C 0.7403 0.68802 0.34883 0.0
C554 C 0.71452 0.61613 0.39599 0.0
O555 O 0.69024 0.73979 0.33817 0.0
O556 O 0.7028 0.76839 0.36084 0.0
C557 C 0.69872 0.67227 0.4417 0.0
O558 O 0.68474 0.65302 0.43632 0.0
O559 O 0.69907 0.62625 0.38387 0.0
O560 O 0.42218 0.66959 0.45687 0.0
Tb561 Tb 0.43076 0.68245 0.42218 0.0
C562 C 0.48359 0.69918 0.39956 0.0
O563 O 0.41323 0.73821 0.39752 0.0
Tb564 Tb 0.43991 0.71922 0.37601 0.0
C565 C 0.44043 0.74216 0.33652 0.0
O566 O 0.39824 0.70363 0.41604 0.0
O567 O 0.4237 0.68181 0.37541 0.0
C568 C 0.40862 0.67225 0.36069 0.0
O569 O 0.40214 0.6486 0.362 0.0
O570 O 0.46873 0.68242 0.40932 0.0
O571 O 0.47567 0.71799 0.3887 0.0
O572 O 0.42461 0.64311 0.40995 0.0
C573 C 0.39597 0.72681 0.40935 0.0
C574 C 0.4337 0.68763 0.46754 0.0
O575 O 0.43966 0.75298 0.35665 0.0
O576 O 0.44152 0.71819 0.33851 0.0
C577 C 0.43404 0.62393 0.41935 0.0
O578 O 0.44708 0.62832 0.43702 0.0
O579 O 0.44358 0.70249 0.4526 0.0
O580 O 0.72274 0.39635 0.45379 0.0
Tb581 Tb 0.71871 0.37722 0.42055 0.0
C582 C 0.66945 0.35509 0.4 0.0
O583 O 0.73965 0.3172 0.40705 0.0
Tb584 Tb 0.71484 0.32702 0.38218 0.0
C585 C 0.71653 0.29309 0.34741 0.0
O586 O 0.75282 0.35748 0.41421 0.0
O587 O 0.72356 0.36266 0.36723 0.0
C588 C 0.74595 0.36816 0.3617 0.0
O589 O 0.76225 0.35322 0.36765 0.0
O590 O 0.68311 0.37482 0.4057 0.0
O591 O 0.6785 0.33322 0.39462 0.0
O592 O 0.72677 0.41575 0.41004 0.0
C593 C 0.75654 0.3331 0.41339 0.0
C594 C 0.71077 0.37994 0.46575 0.0
O595 O 0.702 0.2921 0.36529 0.0
O596 O 0.73001 0.3131 0.34922 0.0
C597 C 0.71014 0.43256 0.40998 0.0
O598 O 0.68797 0.42566 0.415 0.0
O599 O 0.70324 0.36183 0.45223 0.0
O600 O 0.46055 0.3956 0.66717 0.0
Tb601 Tb 0.42429 0.40548 0.6763 0.0
C602 C 0.40323 0.4588 0.68758 0.0
O603 O 0.39873 0.39423 0.72897 0.0
Tb604 Tb 0.37614 0.41577 0.70944 0.0
C605 C 0.33523 0.42412 0.7327 0.0
O606 O 0.41318 0.37372 0.6971 0.0
O607 O 0.37421 0.40745 0.67285 0.0
C608 C 0.36418 0.38804 0.662 0.0
O609 O 0.36476 0.38813 0.63968 0.0
O610 O 0.41156 0.44302 0.67169 0.0
O611 O 0.39424 0.45122 0.70704 0.0
O612 O 0.4199 0.39399 0.6409 0.0
C613 C 0.41024 0.37556 0.71945 0.0
C614 C 0.47019 0.40895 0.68334 0.0
O615 O 0.33923 0.40521 0.71881 0.0
O616 O 0.35417 0.43859 0.73314 0.0
C617 C 0.42733 0.40927 0.62489 0.0
O618 O 0.43663 0.43122 0.63085 0.0
O619 O 0.45403 0.42093 0.69545 0.0
O620 O 0.79798 0.67615 0.72854 0.0
Tb621 Tb 0.77597 0.68883 0.70253 0.0
C622 C 0.72787 0.7169 0.69841 0.0
O623 O 0.74035 0.66717 0.66647 0.0
Tb624 Tb 0.70736 0.68474 0.65965 0.0
C625 C 0.66335 0.66594 0.66236 0.0
O626 O 0.76125 0.65182 0.69405 0.0
O627 O 0.71483 0.69331 0.62399 0.0
C628 C 0.70601 0.67761 0.60853 0.0
O629 O 0.6943 0.6575 0.61551 0.0
O630 O 0.74737 0.70828 0.68847 0.0
O631 O 0.70838 0.71346 0.68715 0.0
O632 O 0.80565 0.70569 0.68329 0.0
C633 C 0.74347 0.6492 0.68041 0.0
C634 C 0.78865 0.68969 0.74524 0.0
O635 O 0.68187 0.65397 0.66792 0.0
O636 O 0.66991 0.68789 0.65537 0.0
C637 C 0.80262 0.72066 0.66666 0.0
O638 O 0.78242 0.71949 0.65647 0.0
O639 O 0.77168 0.70279 0.73796 0.0
H640 H 0.19502 0.33525 0.22365 0.0
H641 H 0.19691 0.40612 0.26179 0.0
H642 H 0.19425 0.38355 0.29776 0.0
H643 H 0.15416 0.30171 0.26201 0.0
H644 H 0.16961 0.273 0.25777 0.0
H645 H 0.17017 0.29485 0.23535 0.0
H646 H 0.21622 0.29613 0.23366 0.0
H647 H 0.21583 0.2743 0.25605 0.0
H648 H 0.23168 0.30392 0.25917 0.0
H649 H 0.19328 0.35253 0.32965 0.0
H650 H 0.19481 0.31643 0.35426 0.0
H651 H 0.19385 0.26625 0.29474 0.0
C652 C 0.19457 0.34617 0.23952 0.0
C653 C 0.19599 0.37258 0.23982 0.0
C654 C 0.19563 0.38595 0.26106 0.0
C655 C 0.19415 0.37325 0.28158 0.0
C656 C 0.19301 0.34718 0.28058 0.0
C657 C 0.1932 0.33385 0.26003 0.0
C658 C 0.1929 0.306 0.26335 0.0
C659 C 0.17036 0.29314 0.25407 0.0
C660 C 0.2155 0.29442 0.25241 0.0
C661 C 0.19256 0.30559 0.28904 0.0
C662 C 0.19256 0.32951 0.29871 0.0
C663 C 0.19309 0.33377 0.3222 0.0
C664 C 0.1939 0.31314 0.33606 0.0
C665 C 0.19421 0.28853 0.32643 0.0
C666 C 0.19329 0.28481 0.30262 0.0
H667 H 0.84491 0.18816 0.24563 0.0
H668 H 0.77638 0.18725 0.28249 0.0
H669 H 0.79662 0.18616 0.31892 0.0
H670 H 0.87404 0.14729 0.27982 0.0
H671 H 0.90215 0.16442 0.27816 0.0
H672 H 0.88223 0.16531 0.2553 0.0
H673 H 0.88254 0.2136 0.25911 0.0
H674 H 0.9028 0.21288 0.2817 0.0
H675 H 0.87518 0.22856 0.28638 0.0
H676 H 0.82503 0.18327 0.35109 0.0
H677 H 0.85862 0.18448 0.37647 0.0
H678 H 0.9082 0.18879 0.31783 0.0
C679 C 0.83415 0.18783 0.26139 0.0
C680 C 0.80913 0.1876 0.2614 0.0
C681 C 0.7956 0.18744 0.28226 0.0
C682 C 0.80695 0.18668 0.30295 0.0
C683 C 0.83175 0.18635 0.3023 0.0
C684 C 0.84514 0.18739 0.28203 0.0
C685 C 0.87148 0.18771 0.28578 0.0
C686 C 0.88315 0.16481 0.27407 0.0
C687 C 0.88371 0.21214 0.27778 0.0
C688 C 0.87096 0.18638 0.31137 0.0
C689 C 0.84791 0.18538 0.32062 0.0
C690 C 0.84311 0.18408 0.34399 0.0
C691 C 0.86234 0.18455 0.35826 0.0
C692 C 0.88607 0.18658 0.34912 0.0
C693 C 0.8903 0.18708 0.32533 0.0
H694 H 0.88396 0.84108 0.29965 0.0
H695 H 0.95226 0.84118 0.33042 0.0
H696 H 0.96376 0.80539 0.30479 0.0
H697 H 0.87589 0.77424 0.29099 0.0
H698 H 0.86244 0.77659 0.26411 0.0
H699 H 0.85934 0.80125 0.28561 0.0
H700 H 0.87691 0.83322 0.25695 0.0
H701 H 0.88011 0.80867 0.23539 0.0
H702 H 0.90553 0.82811 0.24282 0.0
H703 H 0.96742 0.7692 0.27574 0.0
H704 H 0.96401 0.73727 0.24453 0.0
H705 H 0.89412 0.76283 0.23147 0.0
C706 C 0.90131 0.83352 0.30118 0.0
C707 C 0.91721 0.84388 0.31717 0.0
C708 C 0.9398 0.83354 0.31836 0.0
C709 C 0.94644 0.81319 0.30389 0.0
C710 C 0.93035 0.80356 0.28823 0.0
C711 C 0.90828 0.8135 0.28675 0.0
C712 C 0.89452 0.80041 0.26797 0.0
C713 C 0.8717 0.78735 0.27775 0.0
C714 C 0.88895 0.81869 0.24971 0.0
C715 C 0.91239 0.78165 0.2589 0.0
C716 C 0.9328 0.78351 0.27101 0.0
C717 C 0.95157 0.7677 0.2661 0.0
C718 C 0.94945 0.74958 0.24835 0.0
C719 C 0.92888 0.74765 0.23544 0.0
C720 C 0.91018 0.764 0.24084 0.0
H721 H 0.2544 0.91858 0.33877 0.0
H722 H 0.29903 0.91157 0.39574 0.0
H723 H 0.33261 0.93119 0.37403 0.0
H724 H 0.29088 0.89732 0.3002 0.0
H725 H 0.28531 0.91724 0.27731 0.0
H726 H 0.2628 0.91217 0.29932 0.0
H727 H 0.26088 0.95969 0.30822 0.0
H728 H 0.28319 0.96508 0.28573 0.0
H729 H 0.28767 0.97765 0.31409 0.0
H730 H 0.36309 0.93796 0.3435 0.0
H731 H 0.38719 0.93418 0.30744 0.0
H732 H 0.32348 0.93705 0.26973 0.0
C733 C 0.27092 0.92233 0.34706 0.0
C734 C 0.27421 0.91337 0.36879 0.0
C735 C 0.29612 0.91827 0.37906 0.0
C736 C 0.31531 0.92953 0.36687 0.0
C737 C 0.31212 0.93615 0.34462 0.0
C738 C 0.29025 0.9333 0.33498 0.0
C739 C 0.29236 0.93734 0.30967 0.0
C740 C 0.28227 0.91466 0.29585 0.0
C741 C 0.28032 0.96138 0.30411 0.0
C742 C 0.31906 0.94019 0.3062 0.0
C743 C 0.33011 0.94035 0.32665 0.0
C744 C 0.35469 0.93882 0.32747 0.0
C745 C 0.36822 0.93647 0.30693 0.0
C746 C 0.35706 0.93548 0.28597 0.0
C747 C 0.33238 0.93828 0.28561 0.0
H748 H 0.22325 0.87269 0.75404 0.0
H749 H 0.16241 0.84382 0.71747 0.0
H750 H 0.15399 0.81267 0.74631 0.0
H751 H 0.24219 0.81398 0.77093 0.0
H752 H 0.25066 0.82491 0.7988 0.0
H753 H 0.25165 0.84611 0.77586 0.0
H754 H 0.22422 0.87568 0.79983 0.0
H755 H 0.22309 0.85455 0.82288 0.0
H756 H 0.19594 0.86389 0.81134 0.0
H757 H 0.15367 0.7824 0.77658 0.0
H758 H 0.16064 0.75556 0.80844 0.0
H759 H 0.21987 0.8044 0.8277 0.0
C760 C 0.20805 0.85996 0.75225 0.0
C761 C 0.19351 0.8608 0.73341 0.0
C762 C 0.17384 0.8437 0.73168 0.0
C763 C 0.16884 0.82586 0.74802 0.0
C764 C 0.18351 0.82536 0.76622 0.0
C765 C 0.20262 0.84199 0.76863 0.0
C766 C 0.21573 0.83679 0.78975 0.0
C767 C 0.24159 0.83004 0.78345 0.0
C768 C 0.21467 0.85906 0.80697 0.0
C769 C 0.20116 0.81444 0.79848 0.0
C770 C 0.18272 0.80821 0.78451 0.0
C771 C 0.16776 0.78731 0.78792 0.0
C772 C 0.17183 0.77218 0.80601 0.0
C773 C 0.19041 0.77826 0.82066 0.0
C774 C 0.2051 0.79981 0.81705 0.0
H775 H 0.29098 0.17445 0.77018 0.0
H776 H 0.34371 0.14344 0.72218 0.0
H777 H 0.37247 0.14362 0.75267 0.0
H778 H 0.32965 0.21743 0.79439 0.0
H779 H 0.31626 0.2165 0.8228 0.0
H780 H 0.29861 0.20874 0.79881 0.0
H781 H 0.28671 0.16594 0.81564 0.0
H782 H 0.30446 0.1736 0.83973 0.0
H783 H 0.30954 0.14542 0.82277 0.0
H784 H 0.39669 0.15137 0.78768 0.0
H785 H 0.41532 0.17069 0.82163 0.0
H786 H 0.34741 0.19963 0.84539 0.0
C787 C 0.3083 0.16682 0.76633 0.0
C788 C 0.31501 0.1583 0.74403 0.0
C789 C 0.33816 0.1496 0.7393 0.0
C790 C 0.35454 0.14957 0.75654 0.0
C791 C 0.34756 0.15864 0.77833 0.0
C792 C 0.32499 0.16732 0.78317 0.0
C793 C 0.32291 0.17967 0.80673 0.0
C794 C 0.31649 0.2072 0.8056 0.0
C795 C 0.30483 0.16529 0.82213 0.0
C796 C 0.34797 0.17721 0.81423 0.0
C797 C 0.36179 0.16441 0.79793 0.0
C798 C 0.38593 0.16113 0.80065 0.0
C799 C 0.39636 0.17201 0.82007 0.0
C800 C 0.38274 0.18645 0.83618 0.0
C801 C 0.35815 0.18839 0.83346 0.0
H802 H 0.87826 0.33319 0.8028 0.0
H803 H 0.94907 0.33969 0.82851 0.0
H804 H 0.96092 0.30355 0.8034 0.0
H805 H 0.87408 0.26528 0.79582 0.0
H806 H 0.85838 0.26625 0.77001 0.0
H807 H 0.85513 0.2908 0.7916 0.0
H808 H 0.8681 0.32357 0.76198 0.0
H809 H 0.87146 0.2992 0.74031 0.0
H810 H 0.89605 0.3206 0.74599 0.0
H811 H 0.96511 0.26739 0.77382 0.0
H812 H 0.96202 0.23664 0.74148 0.0
H813 H 0.88885 0.25607 0.73462 0.0
C814 C 0.89621 0.32689 0.80349 0.0
C815 C 0.91274 0.33923 0.81775 0.0
C816 C 0.9361 0.33047 0.81781 0.0
C817 C 0.94294 0.30993 0.80363 0.0
C818 C 0.92621 0.29845 0.78952 0.0
C819 C 0.90332 0.30671 0.78939 0.0
C820 C 0.88904 0.29247 0.7717 0.0
C821 C 0.86791 0.27783 0.78296 0.0
C822 C 0.88069 0.31001 0.75395 0.0
C823 C 0.9076 0.27513 0.76149 0.0
C824 C 0.92881 0.27849 0.77219 0.0
C825 C 0.94856 0.26461 0.7654 0.0
C826 C 0.94663 0.24715 0.74704 0.0
C827 C 0.92524 0.24404 0.73545 0.0
C828 C 0.90549 0.2581 0.74303 0.0
H829 H 0.82268 0.9403 0.76558 0.0
H830 H 0.88433 0.95294 0.806 0.0
H831 H 0.85821 0.95535 0.8409 0.0
H832 H 0.77863 0.9772 0.80524 0.0
H833 H 0.7554 0.95414 0.79958 0.0
H834 H 0.7778 0.96143 0.77766 0.0
H835 H 0.78783 0.91471 0.77317 0.0
H836 H 0.76558 0.90736 0.79487 0.0
H837 H 0.79578 0.89859 0.79778 0.0
H838 H 0.8275 0.94642 0.87091 0.0
H839 H 0.79583 0.92418 0.89312 0.0
H840 H 0.75365 0.91695 0.83354 0.0
C841 C 0.83052 0.9446 0.78174 0.0
C842 C 0.85535 0.94658 0.78327 0.0
C843 C 0.86525 0.95154 0.8046 0.0
C844 C 0.85053 0.95316 0.82445 0.0
C845 C 0.82603 0.95001 0.82256 0.0
C846 C 0.81607 0.94602 0.80166 0.0
C847 C 0.78998 0.93854 0.80433 0.0
C848 C 0.77454 0.95906 0.79623 0.0
C849 C 0.78451 0.91331 0.79183 0.0
C850 C 0.78736 0.93666 0.82987 0.0
C851 C 0.80805 0.94436 0.84017 0.0
C852 C 0.811 0.94097 0.86317 0.0
C853 C 0.79293 0.92821 0.87564 0.0
C854 C 0.77241 0.91867 0.86494 0.0
C855 C 0.76906 0.92425 0.84219 0.0
H856 H 0.31956 0.21361 0.23271 0.0
H857 H 0.35818 0.14679 0.24178 0.0
H858 H 0.33243 0.13814 0.27632 0.0
H859 H 0.31145 0.23264 0.29066 0.0
H860 H 0.28197 0.24361 0.28787 0.0
H861 H 0.30298 0.24364 0.26384 0.0
H862 H 0.27299 0.21707 0.24017 0.0
H863 H 0.25202 0.21708 0.26428 0.0
H864 H 0.26104 0.18796 0.25083 0.0
H865 H 0.30403 0.13952 0.31241 0.0
H866 H 0.27364 0.14796 0.34339 0.0
H867 H 0.25234 0.21236 0.30847 0.0
C868 C 0.32248 0.19695 0.24178 0.0
C869 C 0.34096 0.18086 0.23452 0.0
C870 C 0.34405 0.15926 0.24687 0.0
C871 C 0.32958 0.15433 0.2666 0.0
C872 C 0.31184 0.17096 0.27355 0.0
C873 C 0.30803 0.19161 0.26118 0.0
C874 C 0.28785 0.20665 0.27193 0.0
C875 C 0.2966 0.23319 0.27899 0.0
C876 C 0.26726 0.20721 0.25584 0.0
C877 C 0.28097 0.19151 0.29255 0.0
C878 C 0.29511 0.17112 0.2934 0.0
C879 C 0.29272 0.15526 0.31165 0.0
C880 C 0.27543 0.16027 0.32926 0.0
C881 C 0.26044 0.1808 0.32847 0.0
C882 C 0.26333 0.19644 0.30968 0.0
H883 H 0.92415 0.30486 0.33638 0.0
H884 H 0.98315 0.26392 0.30555 0.0
H885 H 0.98256 0.28898 0.27133 0.0
H886 H 0.8927 0.3094 0.28603 0.0
H887 H 0.88282 0.34051 0.29266 0.0
H888 H 0.88862 0.32036 0.31525 0.0
H889 H 0.91823 0.35363 0.33164 0.0
H890 H 0.9124 0.37392 0.30914 0.0
H891 H 0.94244 0.3656 0.31358 0.0
H892 H 0.97396 0.31655 0.23952 0.0
H893 H 0.95931 0.34611 0.21298 0.0
H894 H 0.90632 0.37017 0.26447 0.0
C895 C 0.93717 0.30146 0.32254 0.0
C896 C 0.95382 0.28252 0.32365 0.0
C897 C 0.97036 0.27842 0.30512 0.0
C898 C 0.97012 0.29253 0.28559 0.0
C899 C 0.95328 0.3108 0.28486 0.0
C900 C 0.93721 0.31546 0.30291 0.0
C901 C 0.92063 0.33583 0.29751 0.0
C902 C 0.89466 0.32592 0.29788 0.0
C903 C 0.92361 0.3586 0.31395 0.0
C904 C 0.92974 0.34172 0.27356 0.0
C905 C 0.94855 0.327 0.2666 0.0
C906 C 0.9594 0.32833 0.24487 0.0
C907 C 0.95088 0.34516 0.22987 0.0
C908 C 0.93175 0.36062 0.23662 0.0
C909 C 0.92115 0.35886 0.25885 0.0
H910 H 0.80647 0.9244 0.22355 0.0
H911 H 0.75596 0.97204 0.26043 0.0
H912 H 0.78354 0.97837 0.29149 0.0
H913 H 0.82382 0.89362 0.27038 0.0
H914 H 0.85468 0.89161 0.26116 0.0
H915 H 0.83246 0.89325 0.24048 0.0
H916 H 0.85448 0.932 0.22363 0.0
H917 H 0.87691 0.93039 0.24419 0.0
H918 H 0.86121 0.95873 0.242 0.0
H919 H 0.81405 0.97517 0.32065 0.0
H920 H 0.8464 0.96436 0.34489 0.0
H921 H 0.87792 0.92 0.28891 0.0
C922 C 0.80146 0.93671 0.23786 0.0
C923 C 0.77903 0.94783 0.23945 0.0
C924 C 0.77303 0.9634 0.25873 0.0
C925 C 0.78861 0.96712 0.27649 0.0
C926 C 0.81025 0.95531 0.2747 0.0
C927 C 0.81682 0.94063 0.25577 0.0
C928 C 0.84042 0.92877 0.25875 0.0
C929 C 0.83767 0.90012 0.25763 0.0
C930 C 0.85938 0.93803 0.24109 0.0
C931 C 0.84578 0.93858 0.28253 0.0
C932 C 0.82817 0.95392 0.29139 0.0
C933 C 0.82819 0.96362 0.31372 0.0
C934 C 0.84659 0.95735 0.32738 0.0
C935 C 0.8648 0.94173 0.31863 0.0
C936 C 0.86452 0.93251 0.29582 0.0
H937 H 0.24843 0.82309 0.30022 0.0
H938 H 0.18219 0.78825 0.32542 0.0
H939 H 0.18379 0.75759 0.29286 0.0
H940 H 0.24124 0.81598 0.24035 0.0
H941 H 0.27165 0.80791 0.2339 0.0
H942 H 0.26426 0.82734 0.25866 0.0
H943 H 0.28461 0.79682 0.28306 0.0
H944 H 0.29052 0.77521 0.25954 0.0
H945 H 0.27372 0.76486 0.28419 0.0
H946 H 0.19184 0.73207 0.25694 0.0
H947 H 0.20496 0.71387 0.21952 0.0
H948 H 0.26758 0.76324 0.21849 0.0
C949 C 0.23407 0.80926 0.29863 0.0
C950 C 0.21499 0.80818 0.31508 0.0
C951 C 0.19686 0.78942 0.31286 0.0
C952 C 0.19767 0.77193 0.29449 0.0
C953 C 0.21695 0.77323 0.27872 0.0
C954 C 0.23479 0.79141 0.28059 0.0
C955 C 0.25417 0.78781 0.26211 0.0
C956 C 0.25804 0.81114 0.24791 0.0
C957 C 0.27712 0.7808 0.27286 0.0
C958 C 0.24361 0.76592 0.24838 0.0
C959 C 0.22234 0.75752 0.25865 0.0
C960 C 0.20856 0.73832 0.24886 0.0
C961 C 0.21618 0.72809 0.22761 0.0
C962 C 0.23739 0.73699 0.21627 0.0
C963 C 0.25164 0.7557 0.22708 0.0
H964 H 0.27706 0.90126 0.76269 0.0
H965 H 0.30985 0.94166 0.70641 0.0
H966 H 0.34331 0.95522 0.73039 0.0
H967 H 0.29483 0.94663 0.80816 0.0
H968 H 0.29927 0.92228 0.8275 0.0
H969 H 0.27728 0.91791 0.80643 0.0
H970 H 0.29706 0.87729 0.79141 0.0
H971 H 0.31916 0.88156 0.81229 0.0
H972 H 0.32816 0.87828 0.78257 0.0
H973 H 0.37597 0.95828 0.75893 0.0
H974 H 0.40278 0.95425 0.79064 0.0
H975 H 0.34623 0.91528 0.82883 0.0
C976 C 0.29108 0.91335 0.75553 0.0
C977 C 0.29105 0.92041 0.73275 0.0
C978 C 0.30959 0.93623 0.72392 0.0
C979 C 0.32863 0.94393 0.73739 0.0
C980 C 0.3284 0.9361 0.75972 0.0
C981 C 0.30982 0.92155 0.76882 0.0
C982 C 0.31399 0.91479 0.7929 0.0
C983 C 0.29523 0.92609 0.80974 0.0
C984 C 0.31464 0.88631 0.79489 0.0
C985 C 0.33819 0.92719 0.79581 0.0
C986 C 0.34637 0.93928 0.77649 0.0
C987 C 0.36947 0.94955 0.77438 0.0
C988 C 0.38455 0.94718 0.79239 0.0
C989 C 0.37625 0.9351 0.81228 0.0
C990 C 0.35269 0.92543 0.81411 0.0
H991 H 0.2196 0.31819 0.80223 0.0
H992 H 0.17137 0.26905 0.84072 0.0
H993 H 0.17134 0.23866 0.80811 0.0
H994 H 0.1947 0.30364 0.7459 0.0
H995 H 0.22353 0.30506 0.7312 0.0
H996 H 0.218 0.32391 0.75681 0.0
H997 H 0.25398 0.30453 0.77468 0.0
H998 H 0.25923 0.28586 0.74899 0.0
H999 H 0.25493 0.27111 0.77589 0.0
H1000 H 0.17953 0.21195 0.77344 0.0
H1001 H 0.19478 0.19064 0.73801 0.0
H1002 H 0.23655 0.25714 0.72055 0.0
C1003 C 0.20872 0.3012 0.80358 0.0
C1004 C 0.19534 0.29596 0.82393 0.0
C1005 C 0.18162 0.27344 0.82526 0.0
C1006 C 0.18148 0.2561 0.80681 0.0
C1007 C 0.19506 0.26162 0.7871 0.0
C1008 C 0.20836 0.28365 0.78525 0.0
C1009 C 0.22227 0.28433 0.76247 0.0
C1010 C 0.21414 0.30549 0.74826 0.0
C1011 C 0.24919 0.28659 0.76572 0.0
C1012 C 0.2151 0.25898 0.75207 0.0
C1013 C 0.19933 0.24629 0.76661 0.0
C1014 C 0.19149 0.22185 0.76171 0.0
C1015 C 0.20022 0.20991 0.74159 0.0
C1016 C 0.21635 0.22247 0.72645 0.0
C1017 C 0.22362 0.24745 0.73156 0.0
H1018 H 0.81468 0.2305 0.73981 0.0
H1019 H 0.85598 0.16483 0.7459 0.0
H1020 H 0.83161 0.15421 0.78069 0.0
H1021 H 0.80657 0.24624 0.79978 0.0
H1022 H 0.77667 0.25625 0.79754 0.0
H1023 H 0.79786 0.25892 0.77375 0.0
H1024 H 0.76927 0.23303 0.7481 0.0
H1025 H 0.74798 0.23043 0.77178 0.0
H1026 H 0.75832 0.20271 0.75669 0.0
H1027 H 0.80264 0.15172 0.81597 0.0
H1028 H 0.77005 0.1554 0.84571 0.0
H1029 H 0.74666 0.22129 0.8145 0.0
C1030 C 0.8187 0.21386 0.74842 0.0
C1031 C 0.83738 0.19852 0.74008 0.0
C1032 C 0.8418 0.17685 0.75188 0.0
C1033 C 0.82808 0.17075 0.77172 0.0
C1034 C 0.80986 0.1864 0.77949 0.0
C1035 C 0.80506 0.2074 0.76801 0.0
C1036 C 0.7841 0.22081 0.77928 0.0
C1037 C 0.79176 0.24711 0.78811 0.0
C1038 C 0.76371 0.22179 0.76299 0.0
C1039 C 0.77753 0.20392 0.79877 0.0
C1040 C 0.79282 0.18441 0.79893 0.0
C1041 C 0.79052 0.16685 0.81583 0.0
C1042 C 0.772 0.16912 0.83272 0.0
C1043 C 0.75569 0.18851 0.83237 0.0
C1044 C 0.75869 0.20612 0.81515 0.0
H1045 H 0.92836 0.76827 0.80469 0.0
H1046 H 0.98078 0.81076 0.84301 0.0
H1047 H 0.98515 0.84127 0.81265 0.0
H1048 H 0.95398 0.78061 0.74763 0.0
H1049 H 0.92615 0.78488 0.73501 0.0
H1050 H 0.9275 0.7641 0.75815 0.0
H1051 H 0.89568 0.78744 0.78221 0.0
H1052 H 0.89251 0.80828 0.75952 0.0
H1053 H 0.89918 0.82065 0.78741 0.0
H1054 H 0.98266 0.86806 0.77966 0.0
H1055 H 0.96952 0.89315 0.74896 0.0
H1056 H 0.91657 0.83565 0.73209 0.0
C1057 C 0.94104 0.7838 0.80642 0.0
C1058 C 0.95457 0.78701 0.82602 0.0
C1059 C 0.97043 0.8079 0.82807 0.0
C1060 C 0.97311 0.82522 0.81084 0.0
C1061 C 0.95953 0.82163 0.79175 0.0
C1062 C 0.94349 0.8017 0.78955 0.0
C1063 C 0.92935 0.80377 0.7684 0.0
C1064 C 0.93452 0.78204 0.7513 0.0
C1065 C 0.9026 0.80511 0.77476 0.0
C1066 C 0.93948 0.82834 0.7594 0.0
C1067 C 0.95732 0.83785 0.77291 0.0
C1068 C 0.96885 0.86072 0.76889 0.0
C1069 C 0.96133 0.87479 0.75131 0.0
C1070 C 0.94229 0.86623 0.73791 0.0
C1071 C 0.93162 0.84233 0.7416 0.0
H1072 H 0.32471 0.227 0.159 0.0
H1073 H 0.39002 0.26861 0.14159 0.0
H1074 H 0.36669 0.30448 0.13191 0.0
H1075 H 0.28588 0.25515 0.11717 0.0
H1076 H 0.26108 0.2554 0.13772 0.0
H1077 H 0.28243 0.23125 0.1378 0.0
H1078 H 0.28954 0.24246 0.1802 0.0
H1079 H 0.26844 0.26663 0.18024 0.0
H1080 H 0.29831 0.27404 0.18847 0.0
H1081 H 0.33718 0.33732 0.13027 0.0
H1082 H 0.30407 0.36556 0.13866 0.0
H1083 H 0.25827 0.30277 0.15875 0.0
C1084 C 0.33403 0.24338 0.15239 0.0
C1085 C 0.35899 0.24522 0.15079 0.0
C1086 C 0.37079 0.26702 0.14275 0.0
C1087 C 0.35771 0.28732 0.13707 0.0
C1088 C 0.33299 0.28526 0.13955 0.0
C1089 C 0.32126 0.26379 0.147 0.0
C1090 C 0.29503 0.26751 0.15169 0.0
C1091 C 0.28024 0.25137 0.13509 0.0
C1092 C 0.28741 0.26237 0.17662 0.0
C1093 C 0.294 0.29481 0.14692 0.0
C1094 C 0.31592 0.30454 0.13929 0.0
C1095 C 0.31983 0.32985 0.13576 0.0
C1096 C 0.30099 0.34572 0.14065 0.0
C1097 C 0.27879 0.33615 0.14931 0.0
C1098 C 0.27507 0.31038 0.1519 0.0
H1099 H 0.28137 0.79692 0.84967 0.0
H1100 H 0.28146 0.75047 0.90811 0.0
H1101 H 0.31768 0.77377 0.92084 0.0
H1102 H 0.34473 0.80332 0.83894 0.0
H1103 H 0.34398 0.83537 0.83118 0.0
H1104 H 0.31876 0.81452 0.82659 0.0
H1105 H 0.29167 0.84479 0.85019 0.0
H1106 H 0.31681 0.86568 0.85497 0.0
H1107 H 0.29894 0.8542 0.87881 0.0
H1108 H 0.35599 0.80183 0.92586 0.0
H1109 H 0.38899 0.83377 0.92486 0.0
H1110 H 0.36107 0.86378 0.86493 0.0
C1111 C 0.28896 0.79152 0.86517 0.0
C1112 C 0.27851 0.7716 0.8778 0.0
C1113 C 0.28901 0.76556 0.89811 0.0
C1114 C 0.30969 0.77868 0.9054 0.0
C1115 C 0.31958 0.79812 0.89241 0.0
C1116 C 0.30927 0.80467 0.87284 0.0
C1117 C 0.32265 0.82677 0.86222 0.0
C1118 C 0.33315 0.81955 0.83833 0.0
C1119 C 0.30655 0.84918 0.86152 0.0
C1120 C 0.34213 0.8318 0.87886 0.0
C1121 C 0.34041 0.81484 0.89596 0.0
C1122 C 0.35722 0.81529 0.91265 0.0
C1123 C 0.376 0.8335 0.91193 0.0
C1124 C 0.3777 0.85152 0.89494 0.0
C1125 C 0.36034 0.8505 0.87828 0.0
H1126 H 0.37692 0.28001 0.90638 0.0
H1127 H 0.34634 0.20524 0.91356 0.0
H1128 H 0.3062 0.22234 0.91675 0.0
H1129 H 0.33504 0.31115 0.94651 0.0
H1130 H 0.33373 0.33862 0.93012 0.0
H1131 H 0.36021 0.32073 0.92841 0.0
H1132 H 0.35775 0.31588 0.88474 0.0
H1133 H 0.33128 0.33377 0.88631 0.0
H1134 H 0.33088 0.303 0.8729 0.0
H1135 H 0.26858 0.24748 0.91774 0.0
H1136 H 0.23717 0.27819 0.91773 0.0
H1137 H 0.29085 0.33784 0.91157 0.0
C1138 C 0.36181 0.26717 0.90875 0.0
C1139 C 0.36522 0.24099 0.90976 0.0
C1140 C 0.34464 0.2252 0.91281 0.0
C1141 C 0.32159 0.23482 0.9146 0.0
C1142 C 0.31893 0.26053 0.91351 0.0
C1143 C 0.33851 0.27656 0.91076 0.0
C1144 C 0.33056 0.30349 0.91014 0.0
C1145 C 0.34048 0.31944 0.92998 0.0
C1146 C 0.33807 0.3147 0.88716 0.0
C1147 C 0.30349 0.30015 0.91294 0.0
C1148 C 0.29725 0.27511 0.91469 0.0
C1149 C 0.27341 0.26709 0.91657 0.0
C1150 C 0.25556 0.28482 0.91656 0.0
C1151 C 0.26115 0.31072 0.91497 0.0
C1152 C 0.2857 0.31836 0.91328 0.0
H1153 H 0.7721 0.30354 0.84692 0.0
H1154 H 0.77361 0.25263 0.90198 0.0
H1155 H 0.81028 0.27475 0.91512 0.0
H1156 H 0.83543 0.31041 0.83519 0.0
H1157 H 0.83462 0.34306 0.82954 0.0
H1158 H 0.80925 0.3227 0.82411 0.0
H1159 H 0.78245 0.35113 0.85005 0.0
H1160 H 0.8077 0.37168 0.85533 0.0
H1161 H 0.79043 0.35862 0.87885 0.0
H1162 H 0.84898 0.30228 0.92083 0.0
H1163 H 0.8817 0.33461 0.92128 0.0
H1164 H 0.85165 0.36953 0.86487 0.0
C1165 C 0.78009 0.29693 0.86177 0.0
C1166 C 0.76989 0.27611 0.87333 0.0
C1167 C 0.78093 0.26846 0.89282 0.0
C1168 C 0.80189 0.28089 0.90033 0.0
C1169 C 0.81153 0.30124 0.88839 0.0
C1170 C 0.80067 0.30937 0.86967 0.0
C1171 C 0.81379 0.33226 0.86022 0.0
C1172 C 0.82386 0.32676 0.83582 0.0
C1173 C 0.79763 0.35475 0.86119 0.0
C1174 C 0.83362 0.33604 0.87665 0.0
C1175 C 0.83247 0.31767 0.89247 0.0
C1176 C 0.84977 0.31683 0.90862 0.0
C1177 C 0.86839 0.33526 0.90873 0.0
C1178 C 0.8694 0.35475 0.89317 0.0
C1179 C 0.85157 0.35498 0.87704 0.0
H1180 H 0.80168 0.83798 0.89136 0.0
H1181 H 0.76035 0.80787 0.94849 0.0
H1182 H 0.79313 0.77995 0.95541 0.0
H1183 H 0.82937 0.78156 0.87134 0.0
H1184 H 0.85789 0.79619 0.86413 0.0
H1185 H 0.8313 0.81366 0.86344 0.0
H1186 H 0.84863 0.84733 0.89123 0.0
H1187 H 0.87544 0.8302 0.8918 0.0
H1188 H 0.85906 0.83824 0.91799 0.0
H1189 H 0.82977 0.75217 0.95363 0.0
H1190 H 0.86819 0.73158 0.94679 0.0
H1191 H 0.88836 0.78378 0.89443 0.0
C1192 C 0.79966 0.82567 0.90548 0.0
C1193 C 0.77833 0.82519 0.91945 0.0
C1194 C 0.77646 0.80876 0.93769 0.0
C1195 C 0.79502 0.79271 0.94165 0.0
C1196 C 0.81574 0.79349 0.9275 0.0
C1197 C 0.81834 0.80997 0.91004 0.0
C1198 C 0.8427 0.80767 0.89775 0.0
C1199 C 0.84016 0.79928 0.87268 0.0
C1200 C 0.85732 0.83233 0.89982 0.0
C1201 C 0.85342 0.78734 0.9109 0.0
C1202 C 0.83736 0.77899 0.92766 0.0
C1203 C 0.84255 0.75898 0.9408 0.0
C1204 C 0.86451 0.74731 0.93678 0.0
C1205 C 0.88165 0.7559 0.92014 0.0
C1206 C 0.87593 0.77658 0.90735 0.0
H1207 H 0.86336 0.77616 0.15053 0.0
H1208 H 0.81312 0.71373 0.15865 0.0
H1209 H 0.77991 0.74175 0.15449 0.0
H1210 H 0.83355 0.81638 0.18473 0.0
H1211 H 0.84054 0.84394 0.16889 0.0
H1212 H 0.86021 0.81838 0.16655 0.0
H1213 H 0.85684 0.81573 0.12279 0.0
H1214 H 0.83728 0.8416 0.12493 0.0
H1215 H 0.82795 0.81261 0.11102 0.0
H1216 H 0.75249 0.77763 0.15672 0.0
H1217 H 0.73347 0.81802 0.16519 0.0
H1218 H 0.80205 0.85656 0.15644 0.0
C1219 C 0.84541 0.76824 0.15055 0.0
C1220 C 0.84066 0.7429 0.15472 0.0
C1221 C 0.81701 0.73315 0.15521 0.0
C1222 C 0.79809 0.74891 0.15281 0.0
C1223 C 0.80329 0.77418 0.14972 0.0
C1224 C 0.82645 0.7837 0.14833 0.0
C1225 C 0.82742 0.81183 0.14824 0.0
C1226 C 0.84122 0.82328 0.1683 0.0
C1227 C 0.83799 0.82098 0.12538 0.0
C1228 C 0.80125 0.81677 0.15113 0.0
C1229 C 0.78752 0.79488 0.15139 0.0
C1230 C 0.763 0.79489 0.15601 0.0
C1231 C 0.75237 0.81783 0.16087 0.0
C1232 C 0.7664 0.84021 0.16138 0.0
C1233 C 0.79095 0.83966 0.15592 0.0
H1234 H 0.33087 0.72639 0.19402 0.0
H1235 H 0.30681 0.74317 0.12798 0.0
H1236 H 0.31514 0.78821 0.13617 0.0
H1237 H 0.3084 0.78162 0.2245 0.0
H1238 H 0.33354 0.78589 0.24225 0.0
H1239 H 0.32465 0.75522 0.23212 0.0
H1240 H 0.36622 0.74774 0.21339 0.0
H1241 H 0.37565 0.7781 0.22424 0.0
H1242 H 0.3793 0.77036 0.19422 0.0
H1243 H 0.32808 0.83177 0.15152 0.0
H1244 H 0.3432 0.86928 0.17318 0.0
H1245 H 0.35886 0.82276 0.22852 0.0
C1246 C 0.32653 0.73964 0.1817 0.0
C1247 C 0.3175 0.73152 0.16072 0.0
C1248 C 0.31333 0.74922 0.14436 0.0
C1249 C 0.31811 0.77477 0.14882 0.0
C1250 C 0.32744 0.78221 0.16958 0.0
C1251 C 0.33158 0.76511 0.18574 0.0
C1252 C 0.34266 0.77768 0.20624 0.0
C1253 C 0.32632 0.77494 0.22757 0.0
C1254 C 0.36744 0.76788 0.20969 0.0
C1255 C 0.34401 0.80438 0.19924 0.0
C1256 C 0.33521 0.80681 0.17805 0.0
C1257 C 0.3348 0.83002 0.16823 0.0
C1258 C 0.34335 0.85119 0.18062 0.0
C1259 C 0.35172 0.84891 0.20265 0.0
C1260 C 0.3521 0.82517 0.2119 0.0
H1261 H 0.84582 0.21406 0.1717 0.0
H1262 H 0.79769 0.23569 0.12158 0.0
H1263 H 0.82078 0.27525 0.11724 0.0
H1264 H 0.8438 0.2652 0.20134 0.0
H1265 H 0.87404 0.26776 0.20996 0.0
H1266 H 0.86116 0.2378 0.20246 0.0
H1267 H 0.89502 0.23017 0.1719 0.0
H1268 H 0.90846 0.26013 0.17963 0.0
H1269 H 0.90169 0.25277 0.15049 0.0
H1270 H 0.8412 0.31609 0.12615 0.0
H1271 H 0.85576 0.35351 0.14779 0.0
H1272 H 0.88792 0.30638 0.19462 0.0
C1273 C 0.84081 0.22655 0.15896 0.0
C1274 C 0.81989 0.22185 0.14708 0.0
C1275 C 0.81373 0.23881 0.1308 0.0
C1276 C 0.82682 0.26137 0.12821 0.0
C1277 C 0.84604 0.26654 0.14189 0.0
C1278 C 0.85323 0.24934 0.15677 0.0
C1279 C 0.87065 0.26099 0.17317 0.0
C1280 C 0.86185 0.25776 0.19817 0.0
C1281 C 0.89543 0.25039 0.16851 0.0
C1282 C 0.87044 0.28787 0.16666 0.0
C1283 C 0.85708 0.29059 0.14791 0.0
C1284 C 0.85219 0.3141 0.14044 0.0
C1285 C 0.86045 0.33526 0.15286 0.0
C1286 C 0.8728 0.33265 0.17287 0.0
C1287 C 0.87857 0.30875 0.17929 0.0
H1288 H 0.82949 0.67061 0.75808 0.0
H1289 H 0.77005 0.71439 0.78339 0.0
H1290 H 0.78907 0.72144 0.82024 0.0
H1291 H 0.84335 0.64323 0.81311 0.0
H1292 H 0.87488 0.64608 0.80651 0.0
H1293 H 0.85464 0.64068 0.78395 0.0
H1294 H 0.87209 0.68006 0.76422 0.0
H1295 H 0.8924 0.68544 0.78655 0.0
H1296 H 0.87276 0.70956 0.77998 0.0
H1297 H 0.81692 0.72858 0.85167 0.0
H1298 H 0.85214 0.73786 0.87409 0.0
H1299 H 0.89384 0.68954 0.82841 0.0
C1300 C 0.82014 0.68106 0.77163 0.0
C1301 C 0.79822 0.6918 0.76808 0.0
C1302 C 0.7868 0.70592 0.78591 0.0
C1303 C 0.79741 0.70984 0.80689 0.0
C1304 C 0.81933 0.69937 0.80971 0.0
C1305 C 0.83056 0.68526 0.79252 0.0
C1306 C 0.85532 0.67879 0.79864 0.0
C1307 C 0.85715 0.65051 0.80068 0.0
C1308 C 0.87424 0.68909 0.78133 0.0
C1309 C 0.85673 0.69228 0.82163 0.0
C1310 C 0.83556 0.70359 0.8279 0.0
C1311 C 0.83332 0.71932 0.84721 0.0
C1312 C 0.8534 0.72443 0.85987 0.0
C1313 C 0.87545 0.71392 0.85319 0.0
C1314 C 0.87693 0.69695 0.83434 0.0
H1315 H 0.25904 0.35038 0.8221 0.0
H1316 H 0.26008 0.41624 0.8671 0.0
H1317 H 0.27755 0.44124 0.83531 0.0
H1318 H 0.31235 0.36081 0.7919 0.0
H1319 H 0.30167 0.34915 0.76502 0.0
H1320 H 0.28814 0.33792 0.79106 0.0
H1321 H 0.24686 0.35125 0.77897 0.0
H1322 H 0.26066 0.36226 0.75281 0.0
H1323 H 0.24318 0.3829 0.77122 0.0
H1324 H 0.30001 0.45676 0.79979 0.0
H1325 H 0.32481 0.46152 0.7642 0.0
H1326 H 0.30415 0.38622 0.74209 0.0
C1327 C 0.26307 0.37007 0.82528 0.0
C1328 C 0.25896 0.38146 0.84697 0.0
C1329 C 0.2636 0.40731 0.85051 0.0
C1330 C 0.27327 0.42157 0.83257 0.0
C1331 C 0.27722 0.40966 0.81124 0.0
C1332 C 0.27194 0.38453 0.80755 0.0
C1333 C 0.2783 0.37575 0.78345 0.0
C1334 C 0.29619 0.3547 0.78284 0.0
C1335 C 0.25592 0.36757 0.77086 0.0
C1336 C 0.28939 0.39955 0.77436 0.0
C1337 C 0.28842 0.41904 0.79048 0.0
C1338 C 0.30029 0.44189 0.78682 0.0
C1339 C 0.31426 0.44447 0.76658 0.0
C1340 C 0.31602 0.42433 0.75042 0.0
C1341 C 0.30257 0.40211 0.75392 0.0
H1342 H 0.40742 0.65872 0.31611 0.0
H1343 H 0.3857 0.71647 0.36521 0.0
H1344 H 0.36174 0.73476 0.3365 0.0
H1345 H 0.40818 0.69858 0.26406 0.0
H1346 H 0.39759 0.67217 0.24714 0.0
H1347 H 0.41634 0.66758 0.27039 0.0
H1348 H 0.38402 0.63658 0.28696 0.0
H1349 H 0.36504 0.64203 0.26425 0.0
H1350 H 0.35436 0.64715 0.29336 0.0
H1351 H 0.33422 0.74156 0.30432 0.0
H1352 H 0.3091 0.7384 0.27089 0.0
H1353 H 0.3503 0.67709 0.24266 0.0
C1354 C 0.3983 0.67578 0.32051 0.0
C1355 C 0.39872 0.68654 0.34273 0.0
C1356 C 0.38613 0.70842 0.34814 0.0
C1357 C 0.37235 0.7188 0.33192 0.0
C1358 C 0.37164 0.7072 0.3103 0.0
C1359 C 0.38478 0.68646 0.30446 0.0
C1360 C 0.37963 0.67615 0.28086 0.0
C1361 C 0.40176 0.67878 0.26466 0.0
C1362 C 0.3702 0.64888 0.28142 0.0
C1363 C 0.36058 0.6934 0.27476 0.0
C1364 C 0.3563 0.7114 0.29179 0.0
C1365 C 0.33793 0.72797 0.29064 0.0
C1366 C 0.3237 0.72606 0.27164 0.0
C1367 C 0.32798 0.70781 0.25405 0.0
C1368 C 0.34681 0.69151 0.25566 0.0
H1369 H 0.7875 0.39447 0.35618 0.0
H1370 H 0.71978 0.37932 0.32602 0.0
H1371 H 0.73601 0.39671 0.29007 0.0
H1372 H 0.80508 0.4531 0.32229 0.0
H1373 H 0.83567 0.44428 0.32068 0.0
H1374 H 0.81682 0.43725 0.34541 0.0
H1375 H 0.82723 0.39077 0.33991 0.0
H1376 H 0.84554 0.39739 0.31496 0.0
H1377 H 0.8215 0.37441 0.31329 0.0
H1378 H 0.76254 0.40385 0.25532 0.0
H1379 H 0.79574 0.40644 0.22615 0.0
H1380 H 0.84547 0.41953 0.27938 0.0
C1381 C 0.77578 0.39609 0.34236 0.0
C1382 C 0.75244 0.38578 0.34379 0.0
C1383 C 0.73761 0.38757 0.32533 0.0
C1384 C 0.74674 0.3973 0.3048 0.0
C1385 C 0.77046 0.40574 0.30336 0.0
C1386 C 0.78456 0.40603 0.32193 0.0
C1387 C 0.81013 0.41315 0.3154 0.0
C1388 C 0.81734 0.43846 0.32661 0.0
C1389 C 0.82706 0.39271 0.32122 0.0
C1390 C 0.8086 0.41498 0.29 0.0
C1391 C 0.78557 0.41092 0.28332 0.0
C1392 C 0.78048 0.40804 0.26039 0.0
C1393 C 0.7994 0.40933 0.24396 0.0
C1394 C 0.82297 0.41357 0.25063 0.0
C1395 C 0.82748 0.41696 0.27386 0.0
H1396 H 0.25943 0.71902 0.81765 0.0
H1397 H 0.27441 0.64722 0.84352 0.0
H1398 H 0.30672 0.64223 0.81357 0.0
H1399 H 0.26923 0.70451 0.75922 0.0
H1400 H 0.28336 0.73424 0.75281 0.0
H1401 H 0.26197 0.73197 0.77644 0.0
H1402 H 0.2929 0.75159 0.8036 0.0
H1403 H 0.31436 0.75408 0.78001 0.0
H1404 H 0.32141 0.73774 0.80475 0.0
H1405 H 0.33638 0.64461 0.77809 0.0
H1406 H 0.36149 0.65564 0.74372 0.0
H1407 H 0.3277 0.72686 0.74388 0.0
C1408 C 0.26957 0.70228 0.81716 0.0
C1409 C 0.26426 0.68346 0.83291 0.0
C1410 C 0.27815 0.66194 0.83169 0.0
C1411 C 0.2965 0.65893 0.81468 0.0
C1412 C 0.30111 0.67783 0.79926 0.0
C1413 C 0.2882 0.69928 0.80071 0.0
C1414 C 0.29669 0.71717 0.78258 0.0
C1415 C 0.27662 0.72225 0.76683 0.0
C1416 C 0.30695 0.74158 0.79338 0.0
C1417 C 0.31598 0.70225 0.77021 0.0
C1418 C 0.31839 0.67957 0.77991 0.0
C1419 C 0.33472 0.66247 0.77059 0.0
C1420 C 0.3489 0.66883 0.75102 0.0
C1421 C 0.34677 0.69215 0.74107 0.0
C1422 C 0.33006 0.70892 0.75103 0.0
H1423 H 0.83711 0.39771 0.81785 0.0
H1424 H 0.88134 0.45965 0.79342 0.0
H1425 H 0.85549 0.46283 0.76088 0.0
H1426 H 0.8309 0.36905 0.76334 0.0
H1427 H 0.80099 0.35714 0.76921 0.0
H1428 H 0.82088 0.36216 0.79201 0.0
H1429 H 0.79051 0.39053 0.81365 0.0
H1430 H 0.77055 0.38564 0.79087 0.0
H1431 H 0.77966 0.41688 0.79983 0.0
H1432 H 0.82507 0.45835 0.7305 0.0
H1433 H 0.79595 0.44357 0.70239 0.0
H1434 H 0.7743 0.38198 0.74503 0.0
C1435 C 0.84094 0.41233 0.80592 0.0
C1436 C 0.86074 0.42891 0.8083 0.0
C1437 C 0.86595 0.4471 0.79195 0.0
C1438 C 0.85136 0.44903 0.7735 0.0
C1439 C 0.832 0.43223 0.77146 0.0
C1440 C 0.82703 0.41397 0.78707 0.0
C1441 C 0.80693 0.39643 0.7797 0.0
C1442 C 0.81545 0.36962 0.77583 0.0
C1443 C 0.78565 0.39746 0.79705 0.0
C1444 C 0.8013 0.40769 0.75753 0.0
C1445 C 0.81564 0.42859 0.75325 0.0
C1446 C 0.81376 0.44201 0.73367 0.0
C1447 C 0.79712 0.43356 0.71785 0.0
C1448 C 0.78297 0.41163 0.7215 0.0
C1449 C 0.78496 0.39878 0.74175 0.0
H1450 H 0.33445 0.39181 0.32277 0.0
H1451 H 0.37191 0.45907 0.30045 0.0
H1452 H 0.34185 0.464 0.27193 0.0
H1453 H 0.3235 0.36782 0.26981 0.0
H1454 H 0.29455 0.35404 0.27687 0.0
H1455 H 0.31585 0.35864 0.29844 0.0
H1456 H 0.28583 0.38431 0.32352 0.0
H1457 H 0.26426 0.37964 0.30205 0.0
H1458 H 0.27258 0.41077 0.31202 0.0
H1459 H 0.31053 0.45827 0.24233 0.0
H1460 H 0.28187 0.44177 0.21432 0.0
H1461 H 0.26612 0.37777 0.25573 0.0
C1462 C 0.33581 0.40809 0.31247 0.0
C1463 C 0.35527 0.42528 0.31401 0.0
C1464 C 0.35693 0.44588 0.29972 0.0
C1465 C 0.33992 0.44882 0.28348 0.0
C1466 C 0.32136 0.431 0.28178 0.0
C1467 C 0.31915 0.41111 0.29605 0.0
C1468 C 0.29938 0.39294 0.28914 0.0
C1469 C 0.3089 0.36684 0.28321 0.0
C1470 C 0.27932 0.39187 0.3078 0.0
C1471 C 0.29141 0.40517 0.26827 0.0
C1472 C 0.30389 0.42736 0.26448 0.0
C1473 C 0.30042 0.44109 0.24534 0.0
C1474 C 0.28411 0.43164 0.22952 0.0
C1475 C 0.27183 0.4085 0.23281 0.0
C1476 C 0.27524 0.39553 0.25272 0.0
H1477 H 0.75552 0.72048 0.3159 0.0
H1478 H 0.7703 0.64875 0.34211 0.0
H1479 H 0.80304 0.64383 0.31271 0.0
H1480 H 0.76741 0.70578 0.25692 0.0
H1481 H 0.7815 0.73569 0.25113 0.0
H1482 H 0.75915 0.73306 0.27393 0.0
H1483 H 0.78865 0.75304 0.30231 0.0
H1484 H 0.81111 0.75576 0.27959 0.0
H1485 H 0.81712 0.73947 0.30467 0.0
H1486 H 0.83399 0.6466 0.27862 0.0
H1487 H 0.86092 0.65812 0.24564 0.0
H1488 H 0.82665 0.72894 0.24417 0.0
C1489 C 0.76556 0.70367 0.31545 0.0
C1490 C 0.76013 0.68489 0.33125 0.0
C1491 C 0.77404 0.66339 0.3302 0.0
C1492 C 0.79268 0.66042 0.31351 0.0
C1493 C 0.79754 0.67931 0.29816 0.0
C1494 C 0.78449 0.70067 0.29926 0.0
C1495 C 0.79364 0.71869 0.28144 0.0
C1496 C 0.77427 0.72358 0.26488 0.0
C1497 C 0.8032 0.74318 0.29268 0.0
C1498 C 0.81357 0.70401 0.26981 0.0
C1499 C 0.81561 0.68128 0.27953 0.0
C1500 C 0.83258 0.66445 0.27104 0.0
C1501 C 0.8478 0.6711 0.25226 0.0
C1502 C 0.8461 0.69446 0.24229 0.0
C1503 C 0.82869 0.71098 0.25138 0.0
H1504 H 0.35719 0.77028 0.64361 0.0
H1505 H 0.30782 0.70932 0.66057 0.0
H1506 H 0.27412 0.73655 0.65592 0.0
H1507 H 0.33038 0.81359 0.67577 0.0
H1508 H 0.33585 0.83926 0.65722 0.0
H1509 H 0.35539 0.81363 0.65543 0.0
H1510 H 0.348 0.8065 0.61254 0.0
H1511 H 0.32851 0.83243 0.61411 0.0
H1512 H 0.31803 0.80227 0.60345 0.0
H1513 H 0.24682 0.77235 0.65745 0.0
H1514 H 0.22869 0.81331 0.66529 0.0
H1515 H 0.29632 0.85053 0.64799 0.0
C1516 C 0.33925 0.76243 0.64546 0.0
C1517 C 0.33493 0.73785 0.65232 0.0
C1518 C 0.31135 0.72815 0.65507 0.0
C1519 C 0.29215 0.74344 0.65239 0.0
C1520 C 0.297 0.76813 0.64665 0.0
C1521 C 0.32005 0.77744 0.64293 0.0
C1522 C 0.32091 0.80532 0.64046 0.0
C1523 C 0.33653 0.81871 0.65829 0.0
C1524 C 0.32935 0.81201 0.61619 0.0
C1525 C 0.29497 0.81055 0.645 0.0
C1526 C 0.28129 0.78887 0.64786 0.0
C1527 C 0.25723 0.78939 0.65465 0.0
C1528 C 0.2471 0.81266 0.65914 0.0
C1529 C 0.26123 0.83483 0.65717 0.0
C1530 C 0.28516 0.83374 0.64939 0.0
H1531 H 0.36777 0.33997 0.41261 0.0
H1532 H 0.38848 0.35751 0.34306 0.0
H1533 H 0.35572 0.33036 0.32945 0.0
H1534 H 0.34959 0.27526 0.40152 0.0
H1535 H 0.32425 0.27557 0.42145 0.0
H1536 H 0.3496 0.29626 0.4262 0.0
H1537 H 0.32249 0.33412 0.42825 0.0
H1538 H 0.29704 0.31356 0.42362 0.0
H1539 H 0.30377 0.33898 0.40504 0.0
H1540 H 0.32189 0.3005 0.32288 0.0
H1541 H 0.28683 0.27256 0.32318 0.0
H1542 H 0.28427 0.27405 0.39711 0.0
C1543 C 0.36537 0.33812 0.3945 0.0
C1544 C 0.38101 0.3512 0.3789 0.0
C1545 C 0.37699 0.34815 0.35543 0.0
C1546 C 0.35835 0.33254 0.3475 0.0
C1547 C 0.34342 0.31998 0.36322 0.0
C1548 C 0.34645 0.32274 0.38627 0.0
C1549 C 0.32719 0.30745 0.39938 0.0
C1550 C 0.33833 0.28745 0.41294 0.0
C1551 C 0.3117 0.32455 0.415 0.0
C1552 C 0.31299 0.29558 0.38005 0.0
C1553 C 0.32303 0.30308 0.35941 0.0
C1554 C 0.31381 0.29469 0.33895 0.0
C1555 C 0.29367 0.2786 0.33941 0.0
C1556 C 0.28225 0.27083 0.36017 0.0
C1557 C 0.29233 0.27943 0.3809 0.0
H1558 H 0.29088 0.81919 0.38243 0.0
H1559 H 0.25922 0.80603 0.44958 0.0
H1560 H 0.29135 0.7772 0.45625 0.0
H1561 H 0.31267 0.7576 0.36868 0.0
H1562 H 0.33994 0.76918 0.35493 0.0
H1563 H 0.31375 0.78735 0.3555 0.0
H1564 H 0.33753 0.82453 0.37392 0.0
H1565 H 0.36351 0.80599 0.37362 0.0
H1566 H 0.35208 0.82029 0.39995 0.0
H1567 H 0.32683 0.74688 0.4543 0.0
H1568 H 0.36381 0.72374 0.44631 0.0
H1569 H 0.375 0.76026 0.38225 0.0
C1570 C 0.29063 0.81019 0.39855 0.0
C1571 C 0.27207 0.81483 0.41538 0.0
C1572 C 0.27296 0.80292 0.43636 0.0
C1573 C 0.29121 0.78635 0.44024 0.0
C1574 C 0.3091 0.78208 0.42324 0.0
C1575 C 0.30917 0.79416 0.40296 0.0
C1576 C 0.33113 0.78759 0.38794 0.0
C1577 C 0.32392 0.77465 0.36544 0.0
C1578 C 0.347 0.81099 0.38361 0.0
C1579 C 0.34328 0.76963 0.40267 0.0
C1580 C 0.33011 0.76635 0.42285 0.0
C1581 C 0.33731 0.74971 0.43865 0.0
C1582 C 0.35841 0.73647 0.43393 0.0
C1583 C 0.37275 0.74011 0.41376 0.0
C1584 C 0.36481 0.75708 0.398 0.0
H1585 H 0.77944 0.7967 0.35188 0.0
H1586 H 0.77903 0.75112 0.4109 0.0
H1587 H 0.81532 0.77449 0.42353 0.0
H1588 H 0.84287 0.80274 0.34142 0.0
H1589 H 0.8422 0.83461 0.33318 0.0
H1590 H 0.817 0.81369 0.32872 0.0
H1591 H 0.78963 0.84418 0.35183 0.0
H1592 H 0.81471 0.86525 0.35624 0.0
H1593 H 0.79687 0.85424 0.3803 0.0
H1594 H 0.85403 0.80302 0.42838 0.0
H1595 H 0.8867 0.83543 0.42713 0.0
H1596 H 0.8585 0.86404 0.36676 0.0
C1597 C 0.78693 0.79146 0.36748 0.0
C1598 C 0.77629 0.77177 0.38029 0.0
C1599 C 0.7867 0.76601 0.40074 0.0
C1600 C 0.80744 0.77918 0.40797 0.0
C1601 C 0.81752 0.79839 0.39478 0.0
C1602 C 0.80727 0.80464 0.37508 0.0
C1603 C 0.82066 0.82657 0.36422 0.0
C1604 C 0.8313 0.81894 0.34048 0.0
C1605 C 0.8045 0.84888 0.36309 0.0
C1606 C 0.84004 0.83197 0.3809 0.0
C1607 C 0.83837 0.81528 0.3982 0.0
C1608 C 0.85518 0.81623 0.41496 0.0
C1609 C 0.87381 0.83471 0.4141 0.0
C1610 C 0.87534 0.85252 0.39691 0.0
C1611 C 0.85802 0.85089 0.3802 0.0
H1612 H 0.77145 0.28388 0.41213 0.0
H1613 H 0.79826 0.3604 0.41978 0.0
H1614 H 0.83899 0.34541 0.42153 0.0
H1615 H 0.81191 0.25726 0.45042 0.0
H1616 H 0.81549 0.2289 0.43334 0.0
H1617 H 0.78831 0.24545 0.43299 0.0
H1618 H 0.7935 0.24766 0.38923 0.0
H1619 H 0.82071 0.23117 0.38945 0.0
H1620 H 0.82063 0.26108 0.37669 0.0
H1621 H 0.8777 0.32212 0.42037 0.0
H1622 H 0.91045 0.29278 0.41832 0.0
H1623 H 0.85945 0.23058 0.41313 0.0
C1624 C 0.78582 0.29755 0.41437 0.0
C1625 C 0.78124 0.32356 0.41589 0.0
C1626 C 0.80089 0.34052 0.41868 0.0
C1627 C 0.82425 0.33211 0.41964 0.0
C1628 C 0.82809 0.30651 0.41793 0.0
C1629 C 0.80938 0.28943 0.41551 0.0
C1630 C 0.81848 0.26289 0.41398 0.0
C1631 C 0.80792 0.24773 0.43387 0.0
C1632 C 0.813 0.24994 0.39097 0.0
C1633 C 0.84521 0.26769 0.41589 0.0
C1634 C 0.85032 0.29305 0.41798 0.0
C1635 C 0.87376 0.30225 0.419 0.0
C1636 C 0.89236 0.28533 0.41781 0.0
C1637 C 0.88782 0.25917 0.41593 0.0
C1638 C 0.8637 0.25035 0.41509 0.0
H1639 H 0.87061 0.28195 0.6483 0.0
H1640 H 0.82118 0.22033 0.63382 0.0
H1641 H 0.79493 0.24912 0.61628 0.0
H1642 H 0.82996 0.32089 0.66873 0.0
H1643 H 0.84372 0.34922 0.65807 0.0
H1644 H 0.86163 0.32327 0.66275 0.0
H1645 H 0.87794 0.3237 0.62079 0.0
H1646 H 0.85981 0.34974 0.61596 0.0
H1647 H 0.85755 0.32174 0.59815 0.0
H1648 H 0.77092 0.28454 0.60788 0.0
H1649 H 0.74913 0.32335 0.61356 0.0
H1650 H 0.81328 0.36257 0.63486 0.0
C1651 C 0.85467 0.27445 0.64063 0.0
C1652 C 0.84787 0.24906 0.6421 0.0
C1653 C 0.82664 0.23981 0.63264 0.0
C1654 C 0.81181 0.25597 0.62245 0.0
C1655 C 0.81858 0.28122 0.62192 0.0
C1656 C 0.83955 0.29042 0.63082 0.0
C1657 C 0.84063 0.31862 0.63232 0.0
C1658 C 0.84416 0.32855 0.65692 0.0
C1659 C 0.86014 0.32906 0.61581 0.0
C1660 C 0.81621 0.32384 0.62462 0.0
C1661 C 0.80419 0.30208 0.61772 0.0
C1662 C 0.78031 0.30175 0.61269 0.0
C1663 C 0.76806 0.32387 0.61599 0.0
C1664 C 0.77966 0.34578 0.62464 0.0
C1665 C 0.80423 0.3461 0.62782 0.0
H1666 H 0.33518 0.35147 0.64321 0.0
H1667 H 0.36751 0.37424 0.70593 0.0
H1668 H 0.34819 0.33869 0.72493 0.0
H1669 H 0.27919 0.3261 0.66775 0.0
H1670 H 0.27801 0.29995 0.64761 0.0
H1671 H 0.29259 0.32891 0.63949 0.0
H1672 H 0.33116 0.30568 0.62814 0.0
H1673 H 0.31668 0.27669 0.63614 0.0
H1674 H 0.34405 0.28694 0.64866 0.0
H1675 H 0.32541 0.30072 0.73703 0.0
H1676 H 0.30523 0.25948 0.74038 0.0
H1677 H 0.29001 0.25874 0.66882 0.0
C1678 C 0.33802 0.34918 0.66103 0.0
C1679 C 0.35243 0.36645 0.67347 0.0
C1680 C 0.35616 0.36203 0.69638 0.0
C1681 C 0.34515 0.34174 0.70729 0.0
C1682 C 0.33076 0.32546 0.69471 0.0
C1683 C 0.32747 0.32863 0.67197 0.0
C1684 C 0.31283 0.30709 0.66187 0.0
C1685 C 0.28926 0.31606 0.6537 0.0
C1686 C 0.32704 0.29328 0.64256 0.0
C1687 C 0.30873 0.29125 0.68247 0.0
C1688 C 0.31882 0.30252 0.70133 0.0
C1689 C 0.3175 0.29161 0.72238 0.0
C1690 C 0.30597 0.26821 0.7241 0.0
C1691 C 0.29627 0.25587 0.7048 0.0
C1692 C 0.29742 0.2677 0.6838 0.0
H1693 H 0.87009 0.83172 0.72841 0.0
H1694 H 0.85616 0.87803 0.67236 0.0
H1695 H 0.84105 0.84065 0.65069 0.0
H1696 H 0.88929 0.77731 0.69353 0.0
H1697 H 0.87565 0.75578 0.71341 0.0
H1698 H 0.88665 0.78596 0.72338 0.0
H1699 H 0.84544 0.79516 0.74252 0.0
H1700 H 0.83419 0.7651 0.73267 0.0
H1701 H 0.81963 0.79286 0.72562 0.0
H1702 H 0.82301 0.7985 0.63749 0.0
H1703 H 0.80438 0.75607 0.63405 0.0
H1704 H 0.83389 0.73795 0.69767 0.0
C1705 C 0.86403 0.83404 0.71151 0.0
C1706 C 0.86409 0.85773 0.70209 0.0
C1707 C 0.85619 0.85996 0.67987 0.0
C1708 C 0.84768 0.83886 0.66743 0.0
C1709 C 0.84775 0.81571 0.67734 0.0
C1710 C 0.85597 0.81324 0.69881 0.0
C1711 C 0.85333 0.78668 0.7062 0.0
C1712 C 0.87769 0.77577 0.70929 0.0
C1713 C 0.83718 0.78485 0.72803 0.0
C1714 C 0.84166 0.7746 0.68586 0.0
C1715 C 0.83857 0.7915 0.66929 0.0
C1716 C 0.82583 0.78498 0.6501 0.0
C1717 C 0.81538 0.76083 0.64824 0.0
C1718 C 0.81793 0.74356 0.66541 0.0
C1719 C 0.83203 0.7504 0.68393 0.0
H1720 H 0.69675 0.31149 0.82301 0.0
H1721 H 0.68381 0.24225 0.78425 0.0
H1722 H 0.68596 0.26509 0.74882 0.0
H1723 H 0.66261 0.35089 0.78751 0.0
H1724 H 0.68327 0.37722 0.78977 0.0
H1725 H 0.67954 0.3558 0.81255 0.0
H1726 H 0.7248 0.34848 0.80985 0.0
H1727 H 0.72847 0.36987 0.78708 0.0
H1728 H 0.73875 0.33857 0.78293 0.0
H1729 H 0.6925 0.29403 0.71752 0.0
H1730 H 0.7004 0.32846 0.69163 0.0
H1731 H 0.70781 0.38038 0.74951 0.0
C1732 C 0.69392 0.30129 0.80708 0.0
C1733 C 0.68993 0.27508 0.8064 0.0
C1734 C 0.68673 0.26231 0.78522 0.0
C1735 C 0.68798 0.27511 0.76496 0.0
C1736 C 0.69233 0.3008 0.76608 0.0
C1737 C 0.69504 0.3139 0.78653 0.0
C1738 C 0.70006 0.34148 0.78259 0.0
C1739 C 0.68018 0.35728 0.79377 0.0
C1740 C 0.72448 0.35009 0.79113 0.0
C1741 C 0.69998 0.34165 0.75677 0.0
C1742 C 0.69558 0.31788 0.74773 0.0
C1743 C 0.69568 0.3128 0.72437 0.0
C1744 C 0.7003 0.3325 0.70979 0.0
C1745 C 0.70455 0.35716 0.7185 0.0
C1746 C 0.70427 0.36179 0.74236 0.0
H1747 H 0.3855 0.83699 0.79921 0.0
H1748 H 0.45557 0.83594 0.82639 0.0
H1749 H 0.46571 0.80098 0.79935 0.0
H1750 H 0.37734 0.76993 0.78886 0.0
H1751 H 0.36234 0.7733 0.76295 0.0
H1752 H 0.36021 0.79704 0.78541 0.0
H1753 H 0.37583 0.83032 0.75718 0.0
H1754 H 0.3782 0.8067 0.73468 0.0
H1755 H 0.40381 0.82613 0.74153 0.0
H1756 H 0.46831 0.76665 0.7689 0.0
H1757 H 0.46363 0.73594 0.73697 0.0
H1758 H 0.39246 0.76096 0.72847 0.0
C1759 C 0.40293 0.82929 0.79969 0.0
C1760 C 0.41977 0.83917 0.81498 0.0
C1761 C 0.4424 0.82864 0.81488 0.0
C1762 C 0.4483 0.80879 0.79958 0.0
C1763 C 0.43138 0.79978 0.78451 0.0
C1764 C 0.40915 0.80968 0.78447 0.0
C1765 C 0.39446 0.79725 0.76603 0.0
C1766 C 0.37228 0.78357 0.77644 0.0
C1767 C 0.38769 0.81624 0.74884 0.0
C1768 C 0.41207 0.77904 0.75541 0.0
C1769 C 0.43313 0.78058 0.76652 0.0
C1770 C 0.45192 0.76532 0.76007 0.0
C1771 C 0.44908 0.74794 0.7419 0.0
C1772 C 0.42774 0.74616 0.73013 0.0
C1773 C 0.40908 0.76207 0.73695 0.0
H1774 H 0.71947 0.80594 0.33073 0.0
H1775 H 0.65655 0.76172 0.31346 0.0
H1776 H 0.65026 0.78942 0.28205 0.0
H1777 H 0.69908 0.86755 0.3151 0.0
H1778 H 0.72776 0.87708 0.30281 0.0
H1779 H 0.72573 0.85597 0.32589 0.0
H1780 H 0.75031 0.82417 0.30139 0.0
H1781 H 0.75231 0.84506 0.27819 0.0
H1782 H 0.74034 0.81372 0.27389 0.0
H1783 H 0.6518 0.81957 0.25169 0.0
H1784 H 0.66167 0.84964 0.22226 0.0
H1785 H 0.72536 0.87397 0.25674 0.0
C1786 C 0.70402 0.80264 0.32068 0.0
C1787 C 0.68811 0.78211 0.32471 0.0
C1788 C 0.66866 0.7776 0.31075 0.0
C1789 C 0.66497 0.79322 0.29292 0.0
C1790 C 0.68114 0.81304 0.28905 0.0
C1791 C 0.70039 0.81779 0.30238 0.0
C1792 C 0.71624 0.83894 0.29303 0.0
C1793 C 0.71725 0.86121 0.31024 0.0
C1794 C 0.74128 0.82992 0.28622 0.0
C1795 C 0.70295 0.84512 0.27229 0.0
C1796 C 0.68263 0.83006 0.27063 0.0
C1797 C 0.66759 0.83156 0.25283 0.0
C1798 C 0.67346 0.84876 0.23613 0.0
C1799 C 0.69435 0.86428 0.23706 0.0
C1800 C 0.70922 0.86251 0.25556 0.0
H1801 H 0.41607 0.30645 0.31582 0.0
H1802 H 0.46356 0.36154 0.284 0.0
H1803 H 0.47005 0.33249 0.25062 0.0
H1804 H 0.44609 0.25081 0.2951 0.0
H1805 H 0.41886 0.23318 0.29022 0.0
H1806 H 0.41949 0.25749 0.31221 0.0
H1807 H 0.38499 0.2788 0.29415 0.0
H1808 H 0.38427 0.25459 0.27209 0.0
H1809 H 0.38802 0.28678 0.2647 0.0
H1810 H 0.4716 0.29712 0.22104 0.0
H1811 H 0.46546 0.25986 0.19577 0.0
H1812 H 0.41409 0.22923 0.24546 0.0
C1813 C 0.42816 0.31218 0.30197 0.0
C1814 C 0.43976 0.33599 0.30259 0.0
C1815 C 0.45477 0.34325 0.28388 0.0
C1816 C 0.45855 0.32688 0.26492 0.0
C1817 C 0.44675 0.30355 0.26477 0.0
C1818 C 0.43161 0.29634 0.28268 0.0
C1819 C 0.41978 0.27101 0.27762 0.0
C1820 C 0.42646 0.252 0.29481 0.0
C1821 C 0.39266 0.27292 0.27711 0.0
C1822 C 0.43079 0.26496 0.25411 0.0
C1823 C 0.44653 0.28384 0.24716 0.0
C1824 C 0.45924 0.28229 0.22628 0.0
C1825 C 0.45569 0.26099 0.21207 0.0
C1826 C 0.43927 0.24164 0.2186 0.0
C1827 C 0.42667 0.24376 0.23993 0.0
H1828 H 0.42047 0.3062 0.8361 0.0
H1829 H 0.45643 0.24732 0.79711 0.0
H1830 H 0.45341 0.27043 0.76201 0.0
H1831 H 0.37904 0.31808 0.7943 0.0
H1832 H 0.37938 0.35131 0.80002 0.0
H1833 H 0.38538 0.33075 0.82224 0.0
H1834 H 0.42561 0.35441 0.82836 0.0
H1835 H 0.41965 0.37514 0.80624 0.0
H1836 H 0.44667 0.35812 0.80455 0.0
H1837 H 0.44543 0.29963 0.7308 0.0
H1838 H 0.43363 0.33289 0.70626 0.0
H1839 H 0.40243 0.37231 0.76562 0.0
C1840 C 0.42798 0.29837 0.82021 0.0
C1841 C 0.43887 0.27507 0.81932 0.0
C1842 C 0.44815 0.26522 0.79817 0.0
C1843 C 0.44648 0.27819 0.77814 0.0
C1844 C 0.43538 0.30098 0.7795 0.0
C1845 C 0.42633 0.31102 0.8 0.0
C1846 C 0.4147 0.33551 0.79671 0.0
C1847 C 0.38804 0.33379 0.80373 0.0
C1848 C 0.42742 0.35707 0.80974 0.0
C1849 C 0.41865 0.33767 0.7712 0.0
C1850 C 0.4306 0.3176 0.76155 0.0
C1851 C 0.43609 0.31547 0.73819 0.0
C1852 C 0.42928 0.33443 0.72436 0.0
C1853 C 0.41707 0.35523 0.73392 0.0
C1854 C 0.41173 0.3567 0.75769 0.0
H1855 H 0.74789 0.81823 0.79999 0.0
H1856 H 0.68754 0.7822 0.83556 0.0
H1857 H 0.68561 0.7498 0.80472 0.0
H1858 H 0.72801 0.80741 0.74363 0.0
H1859 H 0.75703 0.80129 0.73082 0.0
H1860 H 0.75419 0.82128 0.75603 0.0
H1861 H 0.78246 0.7935 0.77582 0.0
H1862 H 0.7848 0.77256 0.75116 0.0
H1863 H 0.77511 0.76079 0.77841 0.0
H1864 H 0.68834 0.72291 0.76941 0.0
H1865 H 0.69556 0.70299 0.73129 0.0
H1866 H 0.75531 0.75449 0.71841 0.0
C1867 C 0.7343 0.80349 0.80123 0.0
C1868 C 0.71776 0.80277 0.82015 0.0
C1869 C 0.70033 0.78314 0.82124 0.0
C1870 C 0.69916 0.76459 0.80384 0.0
C1871 C 0.71571 0.76571 0.78549 0.0
C1872 C 0.73303 0.78457 0.78402 0.0
C1873 C 0.74831 0.78149 0.7621 0.0
C1874 C 0.74678 0.80422 0.74727 0.0
C1875 C 0.77421 0.77681 0.76718 0.0
C1876 C 0.73644 0.75836 0.75126 0.0
C1877 C 0.71777 0.74955 0.7652 0.0
C1878 C 0.70313 0.72939 0.7585 0.0
C1879 C 0.70735 0.71818 0.73684 0.0
C1880 C 0.72621 0.72691 0.72217 0.0
C1881 C 0.74116 0.74707 0.72959 0.0
H1882 H 0.74741 0.2931 0.3098 0.0
H1883 H 0.68652 0.25278 0.34017 0.0
H1884 H 0.68569 0.22417 0.3062 0.0
H1885 H 0.72893 0.29061 0.25365 0.0
H1886 H 0.75802 0.28613 0.24029 0.0
H1887 H 0.75507 0.30215 0.26767 0.0
H1888 H 0.7828 0.27092 0.28405 0.0
H1889 H 0.78563 0.25432 0.25687 0.0
H1890 H 0.77544 0.23801 0.28185 0.0
H1891 H 0.68917 0.20243 0.26786 0.0
H1892 H 0.69704 0.18839 0.22785 0.0
H1893 H 0.75653 0.24167 0.22212 0.0
C1894 C 0.73411 0.27803 0.30939 0.0
C1895 C 0.71701 0.2751 0.32763 0.0
C1896 C 0.6998 0.25529 0.32643 0.0
C1897 C 0.69924 0.23894 0.30722 0.0
C1898 C 0.71617 0.24246 0.28943 0.0
C1899 C 0.73342 0.26139 0.29037 0.0
C1900 C 0.74896 0.26163 0.26851 0.0
C1901 C 0.74765 0.28661 0.25684 0.0
C1902 C 0.77474 0.25588 0.27309 0.0
C1903 C 0.73722 0.24044 0.25481 0.0
C1904 C 0.71848 0.22952 0.26734 0.0
C1905 C 0.70402 0.21057 0.25803 0.0
C1906 C 0.70859 0.20275 0.23528 0.0
C1907 C 0.72758 0.21369 0.22204 0.0
C1908 C 0.74224 0.23261 0.23204 0.0
H1909 H 0.42914 0.86219 0.2652 0.0
H1910 H 0.41648 0.81501 0.20513 0.0
H1911 H 0.42202 0.77762 0.2276 0.0
H1912 H 0.47363 0.82649 0.28821 0.0
H1913 H 0.4629 0.83269 0.31716 0.0
H1914 H 0.45885 0.85503 0.29587 0.0
H1915 H 0.41344 0.85354 0.3056 0.0
H1916 H 0.41733 0.83121 0.32692 0.0
H1917 H 0.39722 0.82398 0.30457 0.0
H1918 H 0.42803 0.74509 0.25847 0.0
H1919 H 0.43383 0.72197 0.2934 0.0
H1920 H 0.4414 0.7921 0.33181 0.0
C1921 C 0.42762 0.84409 0.25651 0.0
C1922 C 0.42254 0.84163 0.23326 0.0
C1923 C 0.42058 0.81742 0.22286 0.0
C1924 C 0.42363 0.7961 0.23553 0.0
C1925 C 0.42842 0.79935 0.25856 0.0
C1926 C 0.43036 0.82288 0.26882 0.0
C1927 C 0.43496 0.82194 0.29378 0.0
C1928 C 0.45902 0.83479 0.29905 0.0
C1929 C 0.41452 0.83333 0.30858 0.0
C1930 C 0.43547 0.79413 0.29622 0.0
C1931 C 0.43169 0.78121 0.27583 0.0
C1932 C 0.43113 0.75515 0.2744 0.0
C1933 C 0.4345 0.74216 0.29426 0.0
C1934 C 0.43824 0.7553 0.31519 0.0
C1935 C 0.43874 0.78155 0.31602 0.0
H1936 H 0.19771 0.97691 0.4401 0.0
H1937 H 0.22762 0.94572 0.37635 0.0
H1938 H 0.23175 0.98832 0.36134 0.0
H1939 H 0.16427 1.0245 0.41712 0.0
H1940 H 0.17028 0.04709 0.43977 0.0
H1941 H 0.16967 1.01429 0.4451 0.0
H1942 H 0.21214 1.01888 0.45986 0.0
H1943 H 0.21287 0.0517 0.45463 0.0
H1944 H 0.23579 1.0323 0.44202 0.0
H1945 H 0.23118 1.03552 0.35314 0.0
H1946 H 0.22841 0.08149 0.35338 0.0
H1947 H 0.20041 0.08148 0.42323 0.0
C1948 C 0.20509 0.97889 0.42291 0.0
C1949 C 0.21219 0.95769 0.40937 0.0
C1950 C 0.22201 0.96147 0.3871 0.0
C1951 C 0.22436 0.98568 0.37842 0.0
C1952 C 0.21702 1.00611 0.39226 0.0
C1953 C 0.20777 1.00285 0.41414 0.0
C1954 C 0.20162 1.0277 0.42589 0.0
C1955 C 0.17487 1.02843 0.43234 0.0
C1956 C 0.21649 1.03295 0.44684 0.0
C1957 C 0.20866 1.04563 0.40724 0.0
C1958 C 0.21737 1.03285 0.38788 0.0
C1959 C 0.2245 1.04555 0.3683 0.0
C1960 C 0.22281 0.07174 0.36857 0.0
C1961 C 0.21427 0.08525 0.38832 0.0
C1962 C 0.20713 0.07182 0.40787 0.0
H1963 H 1.02837 0.23507 0.38279 0.0
H1964 H 1.01058 0.1697 0.42201 0.0
H1965 H 1.05311 0.161 0.42278 0.0
H1966 H 0.07768 0.2096 0.34897 0.0
H1967 H 0.0958 0.23797 0.34963 0.0
H1968 H 1.06389 0.23937 0.35196 0.0
H1969 H 1.06662 0.26535 0.38972 0.0
H1970 H 0.09855 0.26402 0.38751 0.0
H1971 H 0.08227 0.2534 0.41263 0.0
H1972 H 0.09783 0.15764 0.41768 0.0
H1973 H 0.1411 0.16147 0.40936 0.0
H1974 H 0.13206 0.23049 0.37566 0.0
C1975 C 1.03338 0.21893 0.3916 0.0
C1976 C 1.0156 0.20306 0.40231 0.0
C1977 C 1.02338 0.18229 0.4137 0.0
C1978 C 1.04769 0.17711 0.4142 0.0
C1979 C 1.06459 0.19297 0.40349 0.0
C1980 C 1.05783 0.21366 0.3926 0.0
C1981 C 0.07986 0.22785 0.3828 0.0
C1982 C 0.07927 0.22875 0.35679 0.0
C1983 C 0.08194 0.25423 0.39382 0.0
C1984 C 0.09997 0.21179 0.38965 0.0
C1985 C 0.0906 0.19165 0.40143 0.0
C1986 C 0.10528 0.17351 0.4087 0.0
C1987 C 0.12999 0.17585 0.40383 0.0
C1988 C 0.14038 0.19639 0.39206 0.0
C1989 C 0.12495 0.21475 0.38505 0.0
H1990 H 0.96965 0.09857 0.38926 0.0
H1991 H 0.90016 0.11406 0.42038 0.0
H1992 H 0.88992 0.0688 0.41975 0.0
H1993 H 0.94875 1.04645 0.35149 0.0
H1994 H 0.97518 1.02911 0.35397 0.0
H1995 H 0.97671 0.06269 0.35635 0.0
H1996 H 0.99511 0.0607 0.39554 0.0
H1997 H 0.99345 1.02714 0.39339 0.0
H1998 H 0.97957 1.04338 0.41764 0.0
H1999 H 0.88897 1.02112 0.41947 0.0
H2000 H 0.89512 0.97577 0.41482 0.0
H2001 H 0.96361 0.99067 0.3804 0.0
C2002 C 0.95213 0.09248 0.39564 0.0
C2003 C 0.9357 0.1101 0.40489 0.0
C2004 C 0.913 0.10116 0.41304 0.0
C2005 C 0.90709 0.07538 0.41288 0.0
C2006 C 0.92383 0.05854 0.40406 0.0
C2007 C 0.94572 0.06678 0.3951 0.0
C2008 C 0.96038 1.04479 0.38631 0.0
C2009 C 0.96556 1.04583 0.36049 0.0
C2010 C 0.9835 1.04397 0.39898 0.0
C2011 C 0.94357 1.02284 0.39213 0.0
C2012 C 0.92269 1.03121 0.40262 0.0
C2013 C 0.90509 1.01447 0.41091 0.0
C2014 C 0.90878 0.98868 0.40829 0.0
C2015 C 0.9297 0.97954 0.39703 0.0
C2016 C 0.94725 0.997 0.38874 0.0
H2017 H 1.03125 0.87941 0.44375 0.0
H2018 H 1.01477 0.8864 0.37324 0.0
H2019 H 1.05747 0.88213 0.36185 0.0
H2020 H 0.08719 0.9149 0.44056 0.0
H2021 H 0.10135 0.89572 0.45988 0.0
H2022 H 1.06964 0.89902 0.46233 0.0
H2023 H 1.06336 0.85108 0.45885 0.0
H2024 H 0.09505 0.84762 0.45634 0.0
H2025 H 0.07655 0.83412 0.43466 0.0
H2026 H 0.1025 0.87628 0.35824 0.0
H2027 H 0.14518 0.87114 0.36229 0.0
H2028 H 0.13322 0.86899 0.43558 0.0
C2029 C 1.0365 0.87998 0.42584 0.0
C2030 C 1.01928 0.88312 0.40936 0.0
C2031 C 1.02732 0.88401 0.38622 0.0
C2032 C 1.05164 0.88155 0.37961 0.0
C2033 C 1.068 0.87842 0.39631 0.0
C2034 C 1.06073 0.87781 0.41899 0.0
C2035 C 0.0819 0.8747 0.43367 0.0
C2036 C 0.08521 0.89744 0.45008 0.0
C2037 C 0.07904 0.85044 0.44665 0.0
C2038 C 0.10233 0.87339 0.41574 0.0
C2039 C 0.09385 0.87553 0.3943 0.0
C2040 C 0.10919 0.87468 0.37499 0.0
C2041 C 0.13362 0.87169 0.37754 0.0
C2042 C 0.14308 0.8696 0.39929 0.0
C2043 C 0.12691 0.87049 0.41866 0.0
H2044 H 0.20632 0.10971 0.65378 0.0
H2045 H 0.27831 0.1107 0.67669 0.0
H2046 H 0.27464 0.06523 0.6817 0.0
H2047 H 0.18147 0.06614 0.69206 0.0
H2048 H 0.16213 0.05091 0.67193 0.0
H2049 H 0.17094 0.08324 0.66911 0.0
H2050 H 0.18742 0.07377 0.62788 0.0
H2051 H 0.17842 1.04144 0.63048 0.0
H2052 H 0.20888 0.04991 0.62261 0.0
H2053 H 0.26172 1.01956 0.68662 0.0
H2054 H 0.24169 0.97758 0.68777 0.0
H2055 H 0.17904 1.00765 0.66084 0.0
C2056 C 0.22143 0.10037 0.65963 0.0
C2057 C 0.24257 0.11375 0.66485 0.0
C2058 C 0.26195 0.10079 0.67243 0.0
C2059 C 0.26001 0.07498 0.67544 0.0
C2060 C 0.23869 0.06243 0.67058 0.0
C2061 C 0.21987 0.07469 0.66255 0.0
C2062 C 0.19881 0.05714 0.65868 0.0
C2063 C 0.17706 0.06482 0.67386 0.0
C2064 C 0.19305 0.05546 0.63341 0.0
C2065 C 0.20855 1.03312 0.66605 0.0
C2066 C 0.23153 1.03641 0.67296 0.0
C2067 C 0.24379 1.01674 0.68106 0.0
C2068 C 0.23228 0.99304 0.68177 0.0
C2069 C 0.20892 0.98939 0.67429 0.0
C2070 C 0.19701 1.00978 0.66648 0.0
H2071 H 1.03379 0.17192 0.68272 0.0
H2072 H 1.02163 0.24459 0.65695 0.0
H2073 H 1.06489 0.25161 0.6498 0.0
H2074 H 0.08751 0.18995 0.7112 0.0
H2075 H 0.10157 0.16087 0.70413 0.0
H2076 H 1.06967 0.16167 0.70733 0.0
H2077 H 1.06628 0.14146 0.66687 0.0
H2078 H 0.09817 0.14068 0.66351 0.0
H2079 H 0.08171 0.15601 0.64305 0.0
H2080 H 0.1093 0.2504 0.64478 0.0
H2081 H 0.15207 0.24156 0.64338 0.0
H2082 H 0.13547 0.16989 0.67281 0.0
C2083 C 1.04029 0.18933 0.67565 0.0
C2084 C 1.02446 0.20775 0.67037 0.0
C2085 C 1.03352 0.23029 0.66113 0.0
C2086 C 1.05803 0.23441 0.65699 0.0
C2087 C 0.0732 0.21583 0.66225 0.0
C2088 C 1.06472 0.19378 0.67147 0.0
C2089 C 0.08484 0.17688 0.67562 0.0
C2090 C 0.08596 0.17207 0.70108 0.0
C2091 C 0.08261 0.15231 0.66141 0.0
C2092 C 0.10594 0.19285 0.66721 0.0
C2093 C 0.09882 0.21522 0.65952 0.0
C2094 C 0.11509 0.23298 0.65081 0.0
C2095 C 0.13931 0.22779 0.65004 0.0
C2096 C 0.14697 0.20509 0.658 0.0
C2097 C 0.13005 0.18741 0.66663 0.0
H2098 H 0.90673 0.10903 0.7143 0.0
H2099 H 0.93434 0.11815 0.64496 0.0
H2100 H 0.92597 0.07336 0.63622 0.0
H2101 H 0.93274 0.05245 0.72125 0.0
H2102 H 0.90851 1.03954 0.73871 0.0
H2103 H 0.91364 0.07274 0.73834 0.0
H2104 H 0.87034 0.07779 0.72685 0.0
H2105 H 0.86516 1.04448 0.72703 0.0
H2106 H 0.85991 0.06109 0.70191 0.0
H2107 H 0.9177 1.02639 0.63612 0.0
H2108 H 0.91331 0.98188 0.64581 0.0
H2109 H 0.89176 1.00435 0.71511 0.0
C2110 C 0.91055 0.10173 0.69715 0.0
C2111 C 0.92108 0.11707 0.68031 0.0
C2112 C 0.92629 0.10669 0.65817 0.0
C2113 C 0.92144 0.08131 0.65299 0.0
C2114 C 0.91135 0.06656 0.67011 0.0
C2115 C 0.90604 0.07644 0.69177 0.0
C2116 C 0.89754 0.05635 0.70777 0.0
C2117 C 0.9141 0.05521 0.72768 0.0
C2118 C 0.8717 0.06016 0.71639 0.0
C2119 C 0.89945 1.03356 0.69192 0.0
C2120 C 0.90704 1.03972 0.67015 0.0
C2121 C 0.9115 1.02138 0.65307 0.0
C2122 C 0.9089 0.99614 0.65866 0.0
C2123 C 0.90233 0.98967 0.6812 0.0
C2124 C 0.8968 1.00869 0.69769 0.0
H2125 H 1.00527 0.92705 0.65268 0.0
H2126 H 0.98805 0.95617 0.72098 0.0
H2127 H 1.03089 0.96465 0.7267 0.0
H2128 H 1.05108 0.89363 0.66552 0.0
H2129 H 1.06945 0.89899 0.64012 0.0
H2130 H 1.03779 0.9008 0.63948 0.0
H2131 H 1.04242 0.94572 0.62499 0.0
H2132 H 0.07427 0.94396 0.62524 0.0
H2133 H 1.05945 0.96908 0.64064 0.0
H2134 H 0.07512 0.96226 0.72719 0.0
H2135 H 0.11715 0.95065 0.72206 0.0
H2136 H 0.10471 0.92289 0.6534 0.0
C2137 C 1.01051 0.93597 0.66857 0.0
C2138 C 0.99368 0.94104 0.68642 0.0
C2139 C 1.00092 0.95241 0.70709 0.0
C2140 C 1.02512 0.9573 0.71043 0.0
C2141 C 1.0415 0.95105 0.69274 0.0
C2142 C 1.03443 0.94097 0.67208 0.0
C2143 C 1.05529 0.93298 0.6568 0.0
C2144 C 1.05327 0.90495 0.65012 0.0
C2145 C 1.05802 0.9489 0.63567 0.0
C2146 C 0.07515 0.93872 0.67257 0.0
C2147 C 1.06699 0.94961 0.69305 0.0
C2148 C 0.08182 0.95432 0.71105 0.0
C2149 C 0.10555 0.94753 0.70805 0.0
C2150 C 0.11392 0.93595 0.68734 0.0
C2151 C 0.09868 0.93195 0.66931 0.0
H2152 H 0.41364 0.14786 0.09378 0.0
H2153 H 0.42167 0.22598 0.11437 0.0
H2154 H 0.42049 0.23758 0.07438 0.0
H2155 H 0.45113 0.1509 0.04453 0.0
H2156 H 0.43396 0.12941 1.02706 0.0
H2157 H 0.43237 0.12695 0.05749 0.0
H2158 H 0.38669 0.13056 0.05839 0.0
H2159 H 0.38809 0.13271 1.0279 0.0
H2160 H 0.37415 0.15667 0.04564 0.0
H2161 H 0.42313 0.24076 1.03222 0.0
H2162 H 0.4263 0.23542 0.99033 0.0
H2163 H 0.41592 0.15544 0.99583 0.0
C2164 C 0.41431 0.16739 0.08983 0.0
C2165 C 0.41735 0.18611 0.10717 0.0
C2166 C 0.41906 0.21143 0.10134 0.0
C2167 C 0.41847 0.21819 0.07866 0.0
C2168 C 0.41622 0.1994 0.06183 0.0
C2169 C 0.41387 0.17451 0.06705 0.0
C2170 C 0.41307 0.15809 0.0454 0.0
C2171 C 0.43387 0.14029 0.04352 0.0
C2172 C 0.38907 0.14365 0.04427 0.0
C2173 C 0.41577 0.1776 1.02733 0.0
C2174 C 0.41755 0.2013 0.03726 0.0
C2175 C 0.4214 0.22232 1.02424 0.0
C2176 C 0.4233 0.21911 1.00044 0.0
C2177 C 0.42122 0.19509 0.9898 0.0
C2178 C 0.41733 0.17408 1.00349 0.0
H2179 H 0.95063 0.42429 0.99306 0.0
H2180 H 0.88603 0.37965 0.98331 0.0
H2181 H 0.87841 0.37894 1.02512 0.0
H2182 H 0.96858 0.39504 0.04229 0.0
H2183 H 0.97959 0.42361 0.05577 0.0
H2184 H 0.97962 0.42049 1.02524 0.0
H2185 H 0.95512 0.46028 1.02438 0.0
H2186 H 0.95498 0.46349 0.05494 0.0
H2187 H 0.92733 0.46201 0.04081 0.0
H2188 H 0.87923 0.38168 0.06863 0.0
H2189 H 0.88747 0.38936 0.10936 0.0
H2190 H 0.95028 0.43408 0.08965 0.0
C2191 C 0.93487 0.41439 0.99974 0.0
C2192 C 0.91895 0.40193 0.98504 0.0
C2193 C 0.89843 0.38932 0.99436 0.0
C2194 C 0.89399 0.38881 1.01805 0.0
C2195 C 0.91009 0.40127 1.03214 0.0
C2196 C 0.93001 0.41401 1.02326 0.0
C2197 C 0.94447 0.42612 0.04191 0.0
C2198 C 0.96954 0.41568 0.04126 0.0
C2199 C 0.94552 0.45467 0.04042 0.0
C2200 C 0.92978 0.41802 0.0627 0.0
C2201 C 0.91006 0.40359 0.05684 0.0
C2202 C 0.89449 0.39319 0.07338 0.0
C2203 C 0.89929 0.39763 0.09646 0.0
C2204 C 0.91934 0.41253 0.10273 0.0
C2205 C 0.93458 0.42292 0.08551 0.0
H2206 H 0.69388 0.88206 1.01006 0.0
H2207 H 0.75244 0.93333 0.9921 0.0
H2208 H 0.75753 0.94396 1.03283 0.0
H2209 H 0.6695 0.91973 0.05794 0.0
H2210 H 0.66137 0.89307 0.07462 0.0
H2211 H 0.66204 0.89015 0.04403 0.0
H2212 H 0.69109 0.85397 0.0448 0.0
H2213 H 0.69057 0.85685 0.07537 0.0
H2214 H 0.71849 0.85889 0.05911 0.0
H2215 H 0.75733 0.94749 0.0761 0.0
H2216 H 0.75058 0.94472 0.11787 0.0
H2217 H 0.69169 0.89188 0.10699 0.0
C2218 C 0.70762 0.89567 1.01473 0.0
C2219 C 0.72276 0.90689 0.99796 0.0
C2220 C 0.74061 0.92455 1.0047 0.0
C2221 C 0.74366 0.93069 1.0278 0.0
C2222 C 0.72861 0.91912 0.04398 0.0
C2223 C 0.71082 0.90212 0.03771 0.0
C2224 C 0.69717 0.89216 0.0584 0.0
C2225 C 0.67097 0.89921 0.05876 0.0
C2226 C 0.69948 0.86379 0.05947 0.0
C2227 C 0.71017 0.906 0.07724 0.0
C2228 C 0.72828 0.92145 0.06866 0.0
C2229 C 0.74307 0.93557 0.08299 0.0
C2230 C 0.73916 0.93385 0.10669 0.0
C2231 C 0.72055 0.91823 0.11577 0.0
C2232 C 0.70595 0.90422 0.1007 0.0
H2233 H 0.17775 0.67366 0.07358 0.0
H2234 H 0.24811 0.70733 0.08172 0.0
H2235 H 0.25396 0.70906 0.03978 0.0
H2236 H 0.19234 0.63523 1.02461 0.0
H2237 H 0.16448 0.63922 1.01176 0.0
H2238 H 0.16596 0.64137 0.04222 0.0
H2239 H 0.14835 0.68529 0.04306 0.0
H2240 H 0.14687 0.6833 1.01258 0.0
H2241 H 0.16271 0.70918 1.02606 0.0
H2242 H 0.25209 0.70569 0.99606 0.0
H2243 H 0.24272 0.6977 0.95568 0.0
H2244 H 0.17338 0.66689 0.97729 0.0
C2245 C 0.19442 0.68149 0.06665 0.0
C2246 C 0.21249 0.69036 0.08105 0.0
C2247 C 0.23398 0.70044 0.0711 0.0
C2248 C 0.23745 0.7015 0.04727 0.0
C2249 C 0.21922 0.6925 1.0336 0.0
C2250 C 0.19811 0.68275 0.04304 0.0
C2251 C 0.18132 0.67398 1.02486 0.0
C2252 C 0.17571 0.64578 1.02593 0.0
C2253 C 0.15847 0.68883 1.02676 0.0
C2254 C 0.19626 0.68011 1.00361 0.0
C2255 C 0.21808 0.69081 1.00888 0.0
C2256 C 0.235 0.69744 0.99183 0.0
C2257 C 0.22951 0.69285 0.96891 0.0
C2258 C 0.20728 0.68176 0.9632 0.0
C2259 C 0.19049 0.67556 0.98094 0.0
H2260 H 0.43508 0.92528 0.99484 0.0
H2261 H 0.43888 0.84536 0.98262 0.0
H2262 H 0.43185 0.83914 1.02388 0.0
H2263 H 0.46575 0.92807 0.04695 0.0
H2264 H 0.44779 0.95229 0.06002 0.0
H2265 H 0.45255 0.9501 1.02957 0.0
H2266 H 0.407 0.94782 1.02523 0.0
H2267 H 0.40211 0.94981 0.05568 0.0
H2268 H 0.3891 0.92408 0.03945 0.0
H2269 H 0.4239 0.84191 0.06681 0.0
H2270 H 0.41865 0.85361 0.10783 0.0
H2271 H 0.42112 0.93175 0.09152 0.0
C2272 C 0.43443 0.90648 1.00087 0.0
C2273 C 0.43745 0.88577 0.98562 0.0
C2274 C 0.43663 0.86146 0.9941 0.0
C2275 C 0.43256 0.85776 1.01747 0.0
C2276 C 0.42949 0.87859 1.0321 0.0
C2277 C 0.43059 0.90249 1.02413 0.0
C2278 C 0.42742 0.92178 0.0434 0.0
C2279 C 0.44971 0.93907 0.04508 0.0
C2280 C 0.40508 0.93675 0.04078 0.0
C2281 C 0.42437 0.90505 0.06348 0.0
C2282 C 0.42541 0.88018 0.05666 0.0
C2283 C 0.42309 0.86134 0.07233 0.0
C2284 C 0.42002 0.86814 0.09558 0.0
C2285 C 0.4195 0.89357 0.10291 0.0
C2286 C 0.42147 0.91213 0.08652 0.0
H2287 H 0.19808 0.38422 0.106 0.0
H2288 H 0.23118 0.45803 0.11435 0.0
H2289 H 0.23615 0.46029 0.07224 0.0
H2290 H 0.23532 0.36262 0.06045 0.0
H2291 H 0.21206 0.34508 0.04637 0.0
H2292 H 0.20996 0.35027 0.07677 0.0
H2293 H 0.16905 0.37011 0.07414 0.0
H2294 H 0.17087 0.36473 0.04374 0.0
H2295 H 0.16634 0.39571 0.05572 0.0
H2296 H 0.23946 0.45248 1.02849 0.0
H2297 H 0.23857 0.43688 0.9883 0.0
H2298 H 0.20297 0.36839 1.01009 0.0
C2299 C 0.20624 0.40104 0.09909 0.0
C2300 C 0.21436 0.42095 0.1135 0.0
C2301 C 0.22475 0.44261 0.10365 0.0
C2302 C 0.22771 0.44396 0.07976 0.0
C2303 C 0.21999 0.4236 0.0661 0.0
C2304 C 0.20921 0.40269 0.07554 0.0
C2305 C 0.2027 0.38303 0.05756 0.0
C2306 C 0.21579 0.35883 0.06047 0.0
C2307 C 0.17563 0.37812 0.05781 0.0
C2308 C 0.21171 0.39588 1.03631 0.0
C2309 C 0.22166 0.41926 0.04146 0.0
C2310 C 0.23157 0.43427 1.02439 0.0
C2311 C 0.23107 0.42523 1.00162 0.0
C2312 C 0.22072 0.40142 0.99612 0.0
C2313 C 0.21099 0.38666 1.01377 0.0
H2314 H 0.66905 0.15976 0.07468 0.0
H2315 H 0.73136 0.20757 0.08629 0.0
H2316 H 0.73633 0.21392 0.0448 0.0
H2317 H 0.69156 0.1294 1.02417 0.0
H2318 H 0.6634 0.12745 1.01094 0.0
H2319 H 0.66425 0.12809 0.04144 0.0
H2320 H 0.63748 0.16637 0.04435 0.0
H2321 H 0.63654 0.16585 1.01383 0.0
H2322 H 0.64645 0.19382 1.02904 0.0
H2323 H 0.73497 0.21332 1.00092 0.0
H2324 H 0.72776 0.20553 0.96003 0.0
H2325 H 0.66643 0.15798 0.97832 0.0
C2326 C 0.68366 0.17181 0.06864 0.0
C2327 C 0.69977 0.18326 0.08388 0.0
C2328 C 0.71871 0.19867 0.07504 0.0
C2329 C 0.72166 0.20238 0.05146 0.0
C2330 C 0.70552 0.19057 1.03692 0.0
C2331 C 0.68687 0.17562 0.0453 0.0
C2332 C 0.67235 0.16425 1.02631 0.0
C2333 C 0.67294 0.13561 1.02568 0.0
C2334 C 0.64669 0.17311 1.02852 0.0
C2335 C 0.68576 0.17492 1.0058 0.0
C2336 C 0.7048 0.19015 1.01215 0.0
C2337 C 0.72001 0.20153 0.99587 0.0
C2338 C 0.71576 0.19702 0.97265 0.0
C2339 C 0.69648 0.1812 0.96583 0.0
C2340 C 0.68126 0.17028 0.98281 0.0
H2341 H 0.9094 0.67406 1.00619 0.0
H2342 H 0.96748 0.72835 0.99572 0.0
H2343 H 0.97207 0.73225 1.03709 0.0
H2344 H 0.8841 0.70467 0.05781 0.0
H2345 H 0.87578 0.67603 0.07152 0.0
H2346 H 0.87706 0.67686 0.04094 0.0
H2347 H 0.90624 0.64069 0.0384 0.0
H2348 H 0.90507 0.63978 0.06897 0.0
H2349 H 0.93327 0.64376 0.05349 0.0
H2350 H 0.9715 0.72978 0.07906 0.0
H2351 H 0.9645 0.72306 0.11982 0.0
H2352 H 0.90532 0.67176 0.1052 0.0
C2353 C 0.92307 0.68673 1.01267 0.0
C2354 C 0.93818 0.70086 0.99762 0.0
C2355 C 0.95572 0.71735 1.00681 0.0
C2356 C 0.95849 0.71967 1.03034 0.0
C2357 C 0.94343 0.70556 0.0447 0.0
C2358 C 0.9259 0.68955 1.03635 0.0
C2359 C 0.91185 0.67707 0.05588 0.0
C2360 C 0.88564 0.68408 0.05657 0.0
C2361 C 0.91426 0.64863 0.05407 0.0
C2362 C 0.92436 0.68848 0.07639 0.0
C2363 C 0.94261 0.70472 0.06935 0.0
C2364 C 0.95718 0.71721 0.08478 0.0
C2365 C 0.95305 0.71317 0.10801 0.0
C2366 C 0.9343 0.6969 0.11597 0.0
C2367 C 0.9197 0.68442 0.0998 0.0
H2368 H 0.11271 0.4452 0.19252 0.0
H2369 H 0.13564 0.38271 0.14894 0.0
H2370 H 0.09393 0.37322 0.13927 0.0
H2371 H 1.06018 0.41537 0.21525 0.0
H2372 H 1.04308 0.4431 0.21638 0.0
H2373 H 0.07479 0.44565 0.21858 0.0
H2374 H 0.07815 0.47487 0.18452 0.0
H2375 H 1.04642 0.47233 0.18216 0.0
H2376 H 1.06592 0.46453 0.15792 0.0
H2377 H 1.04947 0.37022 0.13524 0.0
H2378 H 1.00561 0.37263 0.13878 0.0
H2379 H 1.01256 0.43652 0.18574 0.0
C2380 C 0.10894 0.42963 0.18083 0.0
C2381 C 0.1272 0.41469 0.17138 0.0
C2382 C 0.12173 0.39433 0.15631 0.0
C2383 C 0.09818 0.38888 0.15068 0.0
C2384 C 0.08049 0.40399 0.16034 0.0
C2385 C 0.08562 0.42387 0.17518 0.0
C2386 C 1.06338 0.43653 0.1841 0.0
C2387 C 1.06017 0.43506 0.21012 0.0
C2388 C 1.06348 0.46367 0.17672 0.0
C2389 C 1.04488 0.42053 0.17217 0.0
C2390 C 1.05504 0.40201 0.15835 0.0
C2391 C 1.04131 0.38469 0.14595 0.0
C2392 C 1.0165 0.3862 0.14802 0.0
C2393 C 1.00591 0.40473 0.16252 0.0
C2394 C 1.02029 0.4222 0.17451 0.0
H2395 H 0.13056 0.73059 0.87767 0.0
H2396 H 0.13821 0.65741 0.90429 0.0
H2397 H 0.09477 0.6531 0.91109 0.0
H2398 H 0.08024 0.74954 0.91556 0.0
H2399 H 1.06539 0.76469 0.89384 0.0
H2400 H 0.09729 0.76293 0.89208 0.0
H2401 H 0.09538 0.7418 0.85195 0.0
H2402 H 1.06348 0.74343 0.85362 0.0
H2403 H 0.07709 0.71385 0.84794 0.0
H2404 H 1.05014 0.65645 0.9156 0.0
H2405 H 1.00779 0.6662 0.91553 0.0
H2406 H 1.02695 0.73608 0.88372 0.0
C2407 C 0.12309 0.71381 0.88519 0.0
C2408 C 0.13817 0.69441 0.89064 0.0
C2409 C 0.12736 0.67258 0.89998 0.0
C2410 C 0.10256 0.66995 0.90396 0.0
C2411 C 0.08824 0.68914 0.89823 0.0
C2412 C 0.09803 0.71061 0.88887 0.0
C2413 C 0.07825 0.72782 0.88336 0.0
C2414 C 0.08043 0.75273 0.89703 0.0
C2415 C 0.07858 0.73197 0.85769 0.0
C2416 C 1.05594 0.71273 0.89119 0.0
C2417 C 1.06226 0.69058 0.89991 0.0
C2418 C 1.04506 0.67371 0.90869 0.0
C2419 C 1.02087 0.67948 0.90861 0.0
C2420 C 1.01358 0.70188 0.89954 0.0
C2421 C 1.03163 0.71866 0.89061 0.0
H2422 H 0.41867 0.97934 0.925 0.0
H2423 H 0.45819 0.9777 0.85982 0.0
H2424 H 0.45591 1.02334 0.85844 0.0
H2425 H 0.37876 1.02685 0.91136 0.0
H2426 H 0.37786 1.04168 0.93938 0.0
H2427 H 0.38326 1.00887 0.93585 0.0
H2428 H 0.4223 1.01549 0.95694 0.0
H2429 H 0.41695 0.0483 0.96063 0.0
H2430 H 0.44444 1.03813 0.94699 0.0
H2431 H 0.44952 0.06985 0.86403 0.0
H2432 H 0.43891 0.11288 0.87603 0.0
H2433 H 0.40222 0.08482 0.93681 0.0
C2434 C 0.42703 0.9886 0.91053 0.0
C2435 C 0.43875 0.97466 0.89256 0.0
C2436 C 0.44913 0.9877 0.87385 0.0
C2437 C 0.44794 1.01376 0.87288 0.0
C2438 C 0.43612 1.02687 0.89069 0.0
C2439 C 0.42579 1.01474 0.90916 0.0
C2440 C 0.41366 1.0333 0.92576 0.0
C2441 C 0.38679 1.02731 0.92822 0.0
C2442 C 0.42502 1.03383 0.94895 0.0
C2443 C 0.41884 0.05766 0.91377 0.0
C2444 C 0.43192 0.05354 0.89361 0.0
C2445 C 0.43919 0.07323 0.87977 0.0
C2446 C 0.43305 0.09769 0.88672 0.0
C2447 C 0.41955 0.10248 0.90728 0.0
C2448 C 0.41233 0.08197 0.92086 0.0
H2449 H 0.13085 0.38965 0.88277 0.0
H2450 H 0.13081 0.35217 0.94648 0.0
H2451 H 0.08699 0.35503 0.95074 0.0
H2452 H 0.08537 0.43348 0.90223 0.0
H2453 H 0.07251 0.43383 0.87487 0.0
H2454 H 0.10359 0.428 0.87661 0.0
H2455 H 0.09781 0.38666 0.85306 0.0
H2456 H 1.06666 0.39224 0.85145 0.0
H2457 H 0.07587 0.36367 0.86274 0.0
H2458 H 1.04209 0.35952 0.9464 0.0
H2459 H 1.00164 0.37115 0.93744 0.0
H2460 H 1.03102 0.41 0.8788 0.0
C2461 C 0.12161 0.3821 0.89767 0.0
C2462 C 0.1344 0.37046 0.91424 0.0
C2463 C 0.12157 0.36118 0.93359 0.0
C2464 C 0.09659 0.3626 0.93606 0.0
C2465 C 0.08451 0.37393 0.91931 0.0
C2466 C 0.09671 0.38406 0.90074 0.0
C2467 C 0.07969 0.3965 0.88581 0.0
C2468 C 0.08565 0.42462 0.88483 0.0
C2469 C 0.08004 0.38402 0.86185 0.0
C2470 C 1.05594 0.39152 0.89864 0.0
C2471 C 1.05906 0.37805 0.9177 0.0
C2472 C 1.0396 0.37031 0.93166 0.0
C2473 C 1.01657 0.37687 0.92633 0.0
C2474 C 1.01293 0.39156 0.90744 0.0
C2475 C 1.03307 0.39887 0.89343 0.0
H2476 H 0.74951 0.98593 0.92774 0.0
H2477 H 0.70056 0.94975 0.88131 0.0
H2478 H 0.68881 0.99125 0.86971 0.0
H2479 H 0.71189 1.03534 0.94668 0.0
H2480 H 0.73581 0.05838 0.949 0.0
H2481 H 0.74126 1.02599 0.95251 0.0
H2482 H 0.77463 1.02758 0.92068 0.0
H2483 H 0.76936 0.06002 0.91712 0.0
H2484 H 0.76814 1.03818 0.89311 0.0
H2485 H 0.68235 1.03772 0.8634 0.0
H2486 H 0.68085 0.08379 0.86395 0.0
H2487 H 0.73259 0.08935 0.91598 0.0
C2488 C 0.7365 0.98662 0.91491 0.0
C2489 C 0.72613 0.96436 0.9053 0.0
C2490 C 0.70887 0.96638 0.88887 0.0
C2491 C 0.70209 0.98994 0.88218 0.0
C2492 C 0.71252 1.01148 0.8922 0.0
C2493 C 0.72932 1.00995 0.90829 0.0
C2494 C 0.73725 1.03576 0.91719 0.0
C2495 C 0.73119 1.03905 0.94287 0.0
C2496 C 0.76393 1.04067 0.91169 0.0
C2497 C 0.72231 0.05219 0.90366 0.0
C2498 C 0.70829 1.03787 0.88917 0.0
C2499 C 0.69324 0.04899 0.87476 0.0
C2500 C 0.69249 0.07523 0.87518 0.0
C2501 C 0.70648 0.09029 0.89007 0.0
C2502 C 0.72154 0.07844 0.9045 0.0
H2503 H 1.03449 0.71155 0.17914 0.0
H2504 H 1.01921 0.63522 0.19793 0.0
H2505 H 1.06227 0.62701 0.19445 0.0
H2506 H 0.08069 0.69898 0.13763 0.0
H2507 H 0.09828 0.72664 0.14483 0.0
H2508 H 1.06648 0.7264 0.14955 0.0
H2509 H 0.07124 0.73919 0.19204 0.0
H2510 H 0.10306 0.7396 0.18742 0.0
H2511 H 0.08887 0.72065 0.20909 0.0
H2512 H 0.1076 0.62717 0.18716 0.0
H2513 H 0.15057 0.63632 0.17841 0.0
H2514 H 0.13499 0.71266 0.16524 0.0
C2515 C 1.04021 0.69315 0.18269 0.0
C2516 C 1.02362 0.67401 0.18883 0.0
C2517 C 1.03173 0.65016 0.1933 0.0
C2518 C 1.05612 0.64534 0.19131 0.0
C2519 C 0.07208 0.66462 0.18497 0.0
C2520 C 1.06438 0.6881 0.18091 0.0
C2521 C 0.08489 0.70567 0.17422 0.0
C2522 C 0.08243 0.71495 0.15013 0.0
C2523 C 0.08714 0.72756 0.19174 0.0
C2524 C 0.10537 0.68842 0.17493 0.0
C2525 C 0.09777 0.66478 0.18112 0.0
C2526 C 0.11372 0.64567 0.18244 0.0
C2527 C 0.13804 0.65097 0.17741 0.0
C2528 C 0.14601 0.67518 0.17124 0.0
C2529 C 0.12941 0.694 0.17001 0.0
H2530 H 0.43511 0.98564 0.20915 0.0
H2531 H 0.38056 0.97536 0.16004 0.0
H2532 H 0.38067 1.02141 0.15606 0.0
H2533 H 0.41249 1.03858 0.23787 0.0
H2534 H 0.44125 0.05303 0.24272 0.0
H2535 H 0.43788 1.0196 0.24014 0.0
H2536 H 0.47033 1.01826 0.20732 0.0
H2537 H 0.47425 0.05163 0.21017 0.0
H2538 H 0.46755 1.03707 0.18302 0.0
H2539 H 0.38603 0.06963 0.15983 0.0
H2540 H 0.39885 0.11369 0.1674 0.0
H2541 H 0.44881 0.08998 0.21506 0.0
C2542 C 0.42329 0.99297 0.19733 0.0
C2543 C 0.40772 0.97708 0.18496 0.0
C2544 C 0.39274 0.98732 0.16953 0.0
C2545 C 0.39256 1.0134 0.16737 0.0
C2546 C 0.40756 1.02862 0.18068 0.0
C2547 C 0.42287 1.01856 0.19509 0.0
C2548 C 0.43717 1.03835 0.20783 0.0
C2549 C 0.43186 1.03732 0.23366 0.0
C2550 C 0.4639 1.0362 0.20171 0.0
C2551 C 0.42756 0.06141 0.19852 0.0
C2552 C 0.41045 0.05563 0.18293 0.0
C2553 C 0.39943 0.07425 0.17197 0.0
C2554 C 0.4067 0.09924 0.17653 0.0
C2555 C 0.42484 0.10529 0.19186 0.0
C2556 C 0.43485 0.08606 0.20333 0.0
H2557 H 0.70114 1.00432 0.14459 0.0
H2558 H 0.70212 0.98827 0.2161 0.0
H2559 H 0.70843 1.03321 0.22559 0.0
H2560 H 0.74806 0.04985 0.14538 0.0
H2561 H 0.73564 0.06926 0.1251 0.0
H2562 H 0.72873 1.03629 0.1244 0.0
H2563 H 0.6838 1.04543 0.12782 0.0
H2564 H 0.6907 0.0785 0.12906 0.0
H2565 H 0.67239 0.0646 0.15144 0.0
H2566 H 0.71552 0.07906 0.22732 0.0
H2567 H 0.73086 0.12187 0.22091 0.0
H2568 H 0.72747 0.10849 0.14811 0.0
C2569 C 0.70255 1.01033 0.16226 0.0
C2570 C 0.70097 0.99292 0.17968 0.0
C2571 C 0.70333 1.00133 0.20254 0.0
C2572 C 0.7066 1.02682 0.20809 0.0
C2573 C 0.70762 1.04356 0.19056 0.0
C2574 C 0.70616 1.03566 0.16806 0.0
C2575 C 0.71032 0.05723 0.15233 0.0
C2576 C 0.73198 0.0529 0.13585 0.0
C2577 C 0.68797 0.06169 0.1394 0.0
C2578 C 0.71509 0.0784 0.16948 0.0
C2579 C 0.71266 0.07016 0.19146 0.0
C2580 C 0.71729 0.08579 0.21023 0.0
C2581 C 0.72586 0.11009 0.20643 0.0
C2582 C 0.72996 0.11844 0.18405 0.0
C2583 C 0.72375 0.10273 0.16536 0.0
H2584 H 0.19665 0.58107 0.92267 0.0
H2585 H 0.22479 0.58059 0.85283 0.0
H2586 H 0.22647 0.53453 0.85251 0.0
H2587 H 0.23076 0.53117 0.94137 0.0
H2588 H 0.20683 0.51831 0.95922 0.0
H2589 H 0.20823 0.55112 0.9539 0.0
H2590 H 0.16575 0.54762 0.93902 0.0
H2591 H 0.16422 0.5148 0.94432 0.0
H2592 H 0.15922 0.52523 0.91634 0.0
H2593 H 0.22618 0.48759 0.86063 0.0
H2594 H 0.22156 0.44504 0.87563 0.0
H2595 H 0.19175 0.47653 0.93932 0.0
C2596 C 0.20317 0.57127 0.90731 0.0
C2597 C 0.21069 0.58451 0.88778 0.0
C2598 C 0.21894 0.5709 0.86799 0.0
C2599 C 0.22 0.54469 0.86768 0.0
C2600 C 0.2125 0.53216 0.88723 0.0
C2601 C 0.20405 0.54506 0.90661 0.0
C2602 C 0.19656 0.52724 0.92522 0.0
C2603 C 0.21149 0.53227 0.94616 0.0
C2604 C 0.16985 0.52882 0.93159 0.0
C2605 C 0.20219 0.50234 0.91339 0.0
C2606 C 0.21156 0.50547 0.89153 0.0
C2607 C 0.21867 0.48501 0.87767 0.0
C2608 C 0.21602 0.46086 0.88633 0.0
C2609 C 0.20608 0.45723 0.90858 0.0
C2610 C 0.19913 0.47844 0.92213 0.0
H2611 H 0.94373 0.5929 0.9447 0.0
H2612 H 0.92324 0.62103 0.88087 0.0
H2613 H 0.91956 0.57769 0.86497 0.0
H2614 H 0.97808 0.54209 0.9215 0.0
H2615 H 0.96824 0.52092 0.94328 0.0
H2616 H 0.96934 0.55403 0.94961 0.0
H2617 H 0.92491 0.55207 0.96307 0.0
H2618 H 0.92371 0.51893 0.9569 0.0
H2619 H 0.90326 0.5386 0.94424 0.0
H2620 H 0.91976 0.53076 0.8555 0.0
H2621 H 0.92042 0.48484 0.85414 0.0
H2622 H 0.93883 0.48663 0.92483 0.0
C2623 C 0.93842 0.59001 0.92736 0.0
C2624 C 0.93388 0.61063 0.91403 0.0
C2625 C 0.92679 0.60576 0.8915 0.0
C2626 C 0.92474 0.58112 0.88228 0.0
C2627 C 0.92954 0.56131 0.89584 0.0
C2628 C 0.93596 0.5655 0.91801 0.0
C2629 C 0.93961 0.54092 0.92918 0.0
C2630 C 0.96535 0.53941 0.93631 0.0
C2631 C 0.92181 0.53743 0.94955 0.0
C2632 C 0.93442 0.52219 0.90981 0.0
C2633 C 0.92886 0.53438 0.89066 0.0
C2634 C 0.92396 0.52112 0.87047 0.0
C2635 C 0.9245 0.4949 0.86985 0.0
C2636 C 0.92967 0.48177 0.88934 0.0
C2637 C 0.93471 0.49586 0.9096 0.0
H2638 H 0.20097 0.52595 0.153 0.0
H2639 H 0.19626 0.51031 0.22476 0.0
H2640 H 0.20035 0.55548 0.23439 0.0
H2641 H 0.24608 0.57126 0.15655 0.0
H2642 H 0.23541 0.5907 0.13533 0.0
H2643 H 0.22825 0.5578 0.13432 0.0
H2644 H 0.18341 0.56712 0.13485 0.0
H2645 H 0.19054 0.60015 0.13619 0.0
H2646 H 0.1706 0.58662 0.15756 0.0
H2647 H 0.20848 0.60154 0.23621 0.0
H2648 H 0.2253 0.64396 0.23027 0.0
H2649 H 0.22625 0.62974 0.15731 0.0
C2650 C 0.20031 0.53207 0.17076 0.0
C2651 C 0.19808 0.51464 0.18817 0.0
C2652 C 0.1979 0.52333 0.21117 0.0
C2653 C 0.19997 0.54896 0.21679 0.0
C2654 C 0.20225 0.56566 0.1992 0.0
C2655 C 0.20264 0.55754 0.17663 0.0
C2656 C 0.20815 0.57897 0.16099 0.0
C2657 C 0.23082 0.57441 0.14593 0.0
C2658 C 0.1869 0.58347 0.14654 0.0
C2659 C 0.21184 0.60025 0.17829 0.0
C2660 C 0.20762 0.59229 0.20022 0.0
C2661 C 0.2115 0.60805 0.21913 0.0
C2662 C 0.22098 0.63216 0.21559 0.0
C2663 C 0.22671 0.64022 0.19334 0.0
C2664 C 0.22132 0.62433 0.17447 0.0
H2665 H 0.94233 0.48583 0.16835 0.0
H2666 H 0.86969 0.48541 0.19666 0.0
H2667 H 0.86932 0.53107 0.19388 0.0
H2668 H 0.96235 0.5417 0.19631 0.0
H2669 H 0.98079 0.55229 0.17247 0.0
H2670 H 0.97498 0.51944 0.17582 0.0
H2671 H 0.95881 0.51536 0.13539 0.0
H2672 H 0.96453 0.54826 0.13193 0.0
H2673 H 0.93515 0.5348 0.12824 0.0
H2674 H 0.87784 0.5771 0.19077 0.0
H2675 H 0.89435 0.62004 0.18611 0.0
H2676 H 0.96053 0.59023 0.15804 0.0
C2677 C 0.92632 0.49533 0.17388 0.0
C2678 C 0.90608 0.48205 0.18278 0.0
C2679 C 0.88541 0.49516 0.1897 0.0
C2680 C 0.88501 0.52111 0.18821 0.0
C2681 C 0.90529 0.53366 0.17946 0.0
C2682 C 0.92549 0.52121 0.17223 0.0
C2683 C 0.945 0.53916 0.16376 0.0
C2684 C 0.96708 0.53808 0.17794 0.0
C2685 C 0.95123 0.53409 0.13832 0.0
C2686 C 0.93279 0.56368 0.16787 0.0
C2687 C 0.90989 0.56013 0.17692 0.0
C2688 C 0.89563 0.58012 0.18339 0.0
C2689 C 0.90514 0.60441 0.18071 0.0
C2690 C 0.92858 0.60843 0.1715 0.0
C2691 C 0.94238 0.58774 0.16473 0.0
H2692 H 0.40167 0.66806 0.60112 0.0
H2693 H 0.45953 0.72154 0.61425 0.0
H2694 H 0.46722 0.72584 0.57314 0.0
H2695 H 0.43098 0.63759 0.55175 0.0
H2696 H 0.40429 0.63278 0.53632 0.0
H2697 H 0.40258 0.63409 0.56697 0.0
H2698 H 0.37275 0.66954 0.56698 0.0
H2699 H 0.37436 0.66833 0.53634 0.0
H2700 H 0.38073 0.6973 0.55175 0.0
H2701 H 0.46852 0.72552 0.53089 0.0
H2702 H 0.46447 0.71893 0.48957 0.0
H2703 H 0.40727 0.66416 0.50217 0.0
C2704 C 0.41588 0.68073 0.59531 0.0
C2705 C 0.42993 0.69452 0.61109 0.0
C2706 C 0.44851 0.7107 0.60268 0.0
C2707 C 0.45303 0.71334 0.57927 0.0
C2708 C 0.439 0.69952 0.56421 0.0
C2709 C 0.4209 0.68338 0.57177 0.0
C2710 C 0.40898 0.67036 0.55166 0.0
C2711 C 0.41189 0.64202 0.55168 0.0
C2712 C 0.38264 0.67677 0.55169 0.0
C2713 C 0.42317 0.68182 0.53174 0.0
C2714 C 0.44027 0.69873 0.5395 0.0
C2715 C 0.45528 0.71222 0.52459 0.0
C2716 C 0.45283 0.70837 0.50112 0.0
C2717 C 0.43569 0.69097 0.49259 0.0
C2718 C 0.42069 0.67745 0.50817 0.0
H2719 H 0.91306 0.88213 0.49694 0.0
H2720 H 0.97915 0.92448 0.48432 0.0
H2721 H 0.98486 0.92824 0.52544 0.0
H2722 H 0.89371 0.9186 0.54554 0.0
H2723 H 0.88048 0.89302 0.56117 0.0
H2724 H 0.88251 0.89101 0.53056 0.0
H2725 H 0.90503 0.85001 0.53163 0.0
H2726 H 0.90314 0.85196 0.56229 0.0
H2727 H 0.93166 0.84953 0.54725 0.0
H2728 H 0.98275 0.93017 0.56701 0.0
H2729 H 0.97174 0.93257 0.6079 0.0
H2730 H 0.90641 0.88987 0.59592 0.0
C2731 C 0.92887 0.89181 0.50292 0.0
C2732 C 0.94579 0.90288 0.48742 0.0
C2733 C 0.96602 0.91584 0.49585 0.0
C2734 C 0.96948 0.91796 0.5192 0.0
C2735 C 0.9525 0.90713 0.53407 0.0
C2736 C 0.9325 0.89442 0.52644 0.0
C2737 C 0.91625 0.88632 0.54649 0.0
C2738 C 0.89179 0.89794 0.5459 0.0
C2739 C 0.91388 0.85775 0.54693 0.0
C2740 C 0.93003 0.89705 0.56645 0.0
C2741 C 0.95106 0.90859 0.55867 0.0
C2742 C 0.96647 0.921 0.57335 0.0
C2743 C 0.96004 0.92227 0.59657 0.0
C2744 C 0.93836 0.91124 0.6051 0.0
C2745 C 0.92333 0.89797 0.5899 0.0
H2746 H 0.73066 0.42896 0.59414 0.0
H2747 H 0.66592 0.38709 0.61355 0.0
H2748 H 0.66133 0.3735 0.57356 0.0
H2749 H 0.70947 0.44986 0.54062 0.0
H2750 H 0.73809 0.44752 0.52576 0.0
H2751 H 0.73624 0.45426 0.55599 0.0
H2752 H 0.76187 0.41632 0.56206 0.0
H2753 H 0.76363 0.40932 0.53187 0.0
H2754 H 0.75246 0.3859 0.55111 0.0
H2755 H 0.66521 0.36168 0.53183 0.0
H2756 H 0.67488 0.35664 0.49046 0.0
H2757 H 0.73526 0.40837 0.49718 0.0
C2758 C 0.71541 0.41713 0.58994 0.0
C2759 C 0.69871 0.40907 0.60713 0.0
C2760 C 0.67896 0.39363 0.60082 0.0
C2761 C 0.67622 0.38568 0.5781 0.0
C2762 C 0.69316 0.39358 0.56167 0.0
C2763 C 0.71215 0.40931 0.56719 0.0
C2764 C 0.72757 0.41535 0.54609 0.0
C2765 C 0.72785 0.44342 0.54187 0.0
C2766 C 0.75288 0.40617 0.5479 0.0
C2767 C 0.71439 0.40035 0.52795 0.0
C2768 C 0.69475 0.38769 0.53737 0.0
C2769 C 0.68038 0.37175 0.52421 0.0
C2770 C 0.68605 0.3689 0.50077 0.0
C2771 C 0.70567 0.38223 0.49065 0.0
C2772 C 0.71999 0.39815 0.50446 0.0
H2773 H 0.18852 0.1661 0.57471 0.0
H2774 H 0.25706 0.20389 0.5829 0.0
H2775 H 0.26213 0.20693 0.54088 0.0
H2776 H 0.20385 0.13018 0.52413 0.0
H2777 H 0.17529 0.13323 0.51233 0.0
H2778 H 0.17773 0.13414 0.54269 0.0
H2779 H 0.15787 0.17696 0.54581 0.0
H2780 H 0.15545 0.17623 0.51544 0.0
H2781 H 0.17048 0.20231 0.52947 0.0
H2782 H 0.25914 0.20469 0.49653 0.0
H2783 H 0.24833 0.19819 0.45629 0.0
H2784 H 0.18124 0.16316 0.47908 0.0
C2785 C 0.20473 0.17498 0.56782 0.0
C2786 C 0.22248 0.18464 0.58226 0.0
C2787 C 0.24323 0.19627 0.57228 0.0
C2788 C 0.24622 0.19808 0.54839 0.0
C2789 C 0.22823 0.18833 0.5347 0.0
C2790 C 0.20785 0.17709 0.54425 0.0
C2791 C 0.19086 0.16824 0.52628 0.0
C2792 C 0.1867 0.13977 0.52637 0.0
C2793 C 0.16728 0.18175 0.52944 0.0
C2794 C 0.20477 0.17606 0.50494 0.0
C2795 C 0.22633 0.18757 0.50995 0.0
C2796 C 0.24222 0.1958 0.49259 0.0
C2797 C 0.23593 0.19206 0.46973 0.0
C2798 C 0.21386 0.1803 0.46436 0.0
C2799 C 0.19818 0.17241 0.4824 0.0
H2800 H 0.43447 0.43885 0.58821 0.0
H2801 H 0.41937 0.36218 0.60646 0.0
H2802 H 0.42156 0.34896 0.56573 0.0
H2803 H 0.39998 0.4359 0.53753 0.0
H2804 H 0.42072 0.45601 0.52199 0.0
H2805 H 0.41749 0.45939 0.55253 0.0
H2806 H 0.46269 0.4539 0.55515 0.0
H2807 H 0.46604 0.45029 0.52464 0.0
H2808 H 0.47605 0.42648 0.5422 0.0
H2809 H 0.42778 0.34384 0.52331 0.0
H2810 H 0.434 0.34742 0.48179 0.0
H2811 H 0.44337 0.42769 0.49086 0.0
C2812 C 0.43148 0.41928 0.58365 0.0
C2813 C 0.42686 0.40149 0.60052 0.0
C2814 C 0.42291 0.37612 0.59384 0.0
C2815 C 0.4242 0.36844 0.57076 0.0
C2816 C 0.42918 0.38641 0.55459 0.0
C2817 C 0.43244 0.41135 0.56071 0.0
C2818 C 0.43736 0.42692 0.53998 0.0
C2819 C 0.41771 0.44566 0.53789 0.0
C2820 C 0.462 0.44017 0.54054 0.0
C2821 C 0.43666 0.40679 0.52122 0.0
C2822 C 0.43205 0.38355 0.53006 0.0
C2823 C 0.43119 0.36195 0.51619 0.0
C2824 C 0.43484 0.36418 0.49265 0.0
C2825 C 0.4391 0.38783 0.48317 0.0
C2826 C 0.44006 0.4094 0.49767 0.0
H2827 H 0.18936 0.88021 0.50763 0.0
H2828 H 0.25355 0.9232 0.48905 0.0
H2829 H 0.25876 0.93487 0.5296 0.0
H2830 H 0.16849 0.92247 0.55395 0.0
H2831 H 0.15711 0.89743 0.57132 0.0
H2832 H 0.15798 0.89351 0.54077 0.0
H2833 H 0.18252 0.85392 0.54305 0.0
H2834 H 0.18176 0.85775 0.57356 0.0
H2835 H 0.20986 0.85588 0.5577 0.0
H2836 H 0.25806 0.93982 0.57264 0.0
H2837 H 0.25085 0.93841 0.6144 0.0
H2838 H 0.18672 0.89285 0.6043 0.0
C2839 C 0.20437 0.89227 0.51211 0.0
C2840 C 0.22106 0.90083 0.49528 0.0
C2841 C 0.24054 0.91649 0.50174 0.0
C2842 C 0.24364 0.92322 0.52471 0.0
C2843 C 0.227 0.91425 0.54097 0.0
C2844 C 0.20766 0.89925 0.53493 0.0
C2845 C 0.19264 0.89161 0.55568 0.0
C2846 C 0.16757 0.90187 0.55541 0.0
C2847 C 0.19165 0.8631 0.5576 0.0
C2848 C 0.20671 0.90434 0.57434 0.0
C2849 C 0.22645 0.91736 0.56557 0.0
C2850 C 0.24253 0.92986 0.57968 0.0
C2851 C 0.23832 0.92894 0.60337 0.0
C2852 C 0.21817 0.91565 0.61265 0.0
C2853 C 0.20217 0.90339 0.59782 0.0
H2854 H 0.67814 0.64947 0.47872 0.0
H2855 H 0.7267 0.71067 0.46006 0.0
H2856 H 0.73344 0.71995 0.50089 0.0
H2857 H 0.65221 0.67853 0.53033 0.0
H2858 H 0.65028 0.64971 0.54504 0.0
H2859 H 0.6485 0.64925 0.5146 0.0
H2860 H 0.68349 0.61921 0.51023 0.0
H2861 H 0.68548 0.61969 0.54063 0.0
H2862 H 0.71121 0.62808 0.52278 0.0
H2863 H 0.73545 0.72133 0.5448 0.0
H2864 H 0.73266 0.71441 0.58629 0.0
H2865 H 0.68359 0.65157 0.57462 0.0
C2866 C 0.69001 0.66505 0.48311 0.0
C2867 C 0.7018 0.67942 0.4661 0.0
C2868 C 0.71736 0.69945 0.47276 0.0
C2869 C 0.72131 0.70483 0.49593 0.0
C2870 C 0.7096 0.68999 0.51224 0.0
C2871 C 0.69423 0.67053 0.50601 0.0
C2872 C 0.68438 0.6567 0.52647 0.0
C2873 C 0.65723 0.65868 0.52927 0.0
C2874 C 0.69158 0.62931 0.52493 0.0
C2875 C 0.6967 0.67121 0.5453 0.0
C2876 C 0.71108 0.69048 0.53693 0.0
C2877 C 0.72419 0.70628 0.55144 0.0
C2878 C 0.72252 0.70222 0.57499 0.0
C2879 C 0.708 0.6824 0.58378 0.0
C2880 C 0.69498 0.66683 0.56857 0.0
H2881 H 0.94407 0.21656 0.60418 0.0
H2882 H 0.89274 0.15567 0.6162 0.0
H2883 H 0.89051 0.14792 0.5747 0.0
H2884 H 0.91664 0.23936 0.55539 0.0
H2885 H 0.94445 0.24756 0.54063 0.0
H2886 H 0.94238 0.24804 0.57126 0.0
H2887 H 0.97714 0.21789 0.57114 0.0
H2888 H 0.97931 0.21727 0.54051 0.0
H2889 H 0.97516 0.18855 0.55522 0.0
H2890 H 0.89442 0.14621 0.5319 0.0
H2891 H 0.90258 0.15186 0.49085 0.0
H2892 H 0.95035 0.21487 0.50608 0.0
C2893 C 0.93239 0.20154 0.5981 0.0
C2894 C 0.91863 0.18663 0.61353 0.0
C2895 C 0.90343 0.16735 0.60479 0.0
C2896 C 0.90209 0.16277 0.58122 0.0
C2897 C 0.91591 0.17777 0.56651 0.0
C2898 C 0.93065 0.19689 0.57459 0.0
C2899 C 0.94323 0.21059 0.55509 0.0
C2900 C 0.93625 0.23801 0.55563 0.0
C2901 C 0.97032 0.20843 0.55552 0.0
C2902 C 0.93337 0.19612 0.53475 0.0
C2903 C 0.91773 0.17718 0.54179 0.0
C2904 C 0.90656 0.16104 0.52623 0.0
C2905 C 0.91134 0.16438 0.50292 0.0
C2906 C 0.92705 0.18382 0.49523 0.0
C2907 C 0.93821 0.19988 0.51143 0.0
H2908 H 0.44227 0.57995 0.44012 0.0
H2909 H 0.41914 0.60771 0.37716 0.0
H2910 H 0.41607 0.56446 0.36109 0.0
H2911 H 0.47754 0.53067 0.41554 0.0
H2912 H 0.46915 0.50897 0.43731 0.0
H2913 H 0.46923 0.54201 0.44395 0.0
H2914 H 0.42523 0.53815 0.45857 0.0
H2915 H 0.42505 0.50507 0.45205 0.0
H2916 H 0.40344 0.52404 0.44023 0.0
H2917 H 0.41754 0.51764 0.35113 0.0
H2918 H 0.42062 0.47187 0.349 0.0
H2919 H 0.44104 0.47377 0.41908 0.0
C2920 C 0.43644 0.57699 0.42296 0.0
C2921 C 0.43091 0.59755 0.40994 0.0
C2922 C 0.4233 0.59254 0.3876 0.0
C2923 C 0.42162 0.56792 0.37828 0.0
C2924 C 0.42736 0.54819 0.39151 0.0
C2925 C 0.43437 0.55245 0.41349 0.0
C2926 C 0.43929 0.52793 0.42424 0.0
C2927 C 0.46535 0.52737 0.43064 0.0
C2928 C 0.42223 0.52354 0.445 0.0
C2929 C 0.43417 0.50918 0.40483 0.0
C2930 C 0.42748 0.5213 0.38605 0.0
C2931 C 0.4226 0.50805 0.36583 0.0
C2932 C 0.4245 0.48192 0.36476 0.0
C2933 C 0.43101 0.46886 0.38383 0.0
C2934 C 0.4358 0.48292 0.40418 0.0
H2935 H 0.6826 0.576 0.38963 0.0
H2936 H 0.75504 0.59473 0.40706 0.0
H2937 H 0.76254 0.55 0.41026 0.0
H2938 H 0.67356 0.52696 0.42962 0.0
H2939 H 0.65526 0.5074 0.41148 0.0
H2940 H 0.65601 0.54074 0.40904 0.0
H2941 H 0.66808 0.53533 0.36618 0.0
H2942 H 0.66747 0.50197 0.36853 0.0
H2943 H 0.69396 0.51798 0.35743 0.0
H2944 H 0.76248 0.50268 0.41098 0.0
H2945 H 0.75348 0.45736 0.41344 0.0
H2946 H 0.6803 0.46913 0.39853 0.0
C2947 C 0.70007 0.57062 0.39395 0.0
C2948 C 0.71833 0.58893 0.39787 0.0
C2949 C 0.7408 0.58111 0.40391 0.0
C2950 C 0.74526 0.55569 0.40569 0.0
C2951 C 0.72696 0.53808 0.40175 0.0
C2952 C 0.70468 0.54521 0.39633 0.0
C2953 C 0.68773 0.52258 0.39438 0.0
C2954 C 0.66691 0.52454 0.41219 0.0
C2955 C 0.67879 0.51928 0.37019 0.0
C2956 C 0.70394 0.50169 0.39949 0.0
C2957 C 0.7266 0.51099 0.40334 0.0
C2958 C 0.74473 0.49525 0.4081 0.0
C2959 C 0.7395 0.46945 0.40936 0.0
C2960 C 0.7162 0.45953 0.40626 0.0
C2961 C 0.6983 0.47602 0.40108 0.0
H2962 H 0.44497 0.5908 0.64187 0.0
H2963 H 0.38767 0.6214 0.68511 0.0
H2964 H 0.37179 0.57889 0.69204 0.0
H2965 H 0.41001 0.5343 0.61894 0.0
H2966 H 0.43546 0.51509 0.61959 0.0
H2967 H 0.4395 0.5478 0.61414 0.0
H2968 H 0.46752 0.55313 0.64763 0.0
H2969 H 0.4633 0.52064 0.65344 0.0
H2970 H 0.4569 0.54397 0.67555 0.0
H2971 H 0.36658 0.53446 0.70003 0.0
H2972 H 0.37035 0.48993 0.70658 0.0
H2973 H 0.43068 0.48716 0.65783 0.0
C2974 C 0.42859 0.58857 0.65211 0.0
C2975 C 0.41749 0.60934 0.66293 0.0
C2976 C 0.3964 0.60571 0.67663 0.0
C2977 C 0.38721 0.58165 0.6806 0.0
C2978 C 0.39921 0.56151 0.67056 0.0
C2979 C 0.41923 0.56465 0.6563 0.0
C2980 C 0.43019 0.53988 0.6497 0.0
C2981 C 0.42869 0.53392 0.62407 0.0
C2982 C 0.45599 0.5394 0.65703 0.0
C2983 C 0.41392 0.52251 0.66344 0.0
C2984 C 0.39601 0.53541 0.67509 0.0
C2985 C 0.38014 0.52402 0.69061 0.0
C2986 C 0.38262 0.49878 0.69438 0.0
C2987 C 0.40081 0.48517 0.68265 0.0
C2988 C 0.41642 0.4971 0.66673 0.0
H2989 H 0.7003 0.51293 0.64197 0.0
H2990 H 0.69556 0.49782 0.71389 0.0
H2991 H 0.70075 0.54276 0.72331 0.0
H2992 H 0.74658 0.55826 0.64561 0.0
H2993 H 0.73608 0.57783 0.6244 0.0
H2994 H 0.72875 0.54494 0.62331 0.0
H2995 H 0.68401 0.55455 0.6237 0.0
H2996 H 0.6913 0.58755 0.62515 0.0
H2997 H 0.67122 0.57404 0.64642 0.0
H2998 H 0.70916 0.58808 0.72527 0.0
H2999 H 0.72606 0.63048 0.71974 0.0
H3000 H 0.72672 0.61739 0.64665 0.0
C3001 C 0.70006 0.51918 0.65969 0.0
C3002 C 0.6974 0.50191 0.67723 0.0
C3003 C 0.69763 0.51069 0.70019 0.0
C3004 C 0.70028 0.53622 0.70571 0.0
C3005 C 0.7028 0.55277 0.68809 0.0
C3006 C 0.70304 0.54466 0.66552 0.0
C3007 C 0.7087 0.56618 0.64995 0.0
C3008 C 0.73138 0.56152 0.63494 0.0
C3009 C 0.68754 0.57085 0.63544 0.0
C3010 C 0.71248 0.58743 0.66733 0.0
C3011 C 0.70829 0.57929 0.6892 0.0
C3012 C 0.71219 0.59478 0.70826 0.0
C3013 C 0.72171 0.61884 0.70495 0.0
C3014 C 0.72732 0.62719 0.6828 0.0
C3015 C 0.72188 0.61164 0.66372 0.0
H3016 H 0.51715 0.23676 0.8817 0.0
H3017 H 0.50047 0.16884 0.91768 0.0
H3018 H 0.54308 0.16099 0.91837 0.0
H3019 H 0.56693 0.21318 0.84692 0.0
H3020 H 0.58472 0.24174 0.84852 0.0
H3021 H 0.55277 0.24268 0.85089 0.0
H3022 H 0.55517 0.26721 0.88944 0.0
H3023 H 0.58713 0.26635 0.88717 0.0
H3024 H 0.57098 0.25455 0.91189 0.0
H3025 H 0.58769 0.15906 0.91428 0.0
H3026 H 0.63089 0.1639 0.90674 0.0
H3027 H 0.62114 0.23364 0.87432 0.0
C3028 C 0.52241 0.22028 0.88983 0.0
C3029 C 0.50486 0.20347 0.89967 0.0
C3030 C 0.51302 0.18217 0.91003 0.0
C3031 C 0.53741 0.17747 0.9105 0.0
C3032 C 0.55406 0.1942 0.90066 0.0
C3033 C 0.54699 0.21529 0.8906 0.0
C3034 C 0.56888 0.23013 0.88128 0.0
C3035 C 0.56828 0.23204 0.85536 0.0
C3036 C 0.57064 0.2561 0.89316 0.0
C3037 C 0.58923 0.21402 0.88758 0.0
C3038 C 0.58009 0.19334 0.89868 0.0
C3039 C 0.59497 0.17528 0.90569 0.0
C3040 C 0.61969 0.17821 0.90124 0.0
C3041 C 0.62993 0.19918 0.88996 0.0
C3042 C 0.61422 0.21747 0.8832 0.0
H3043 H 0.63973 0.88175 0.93734 0.0
H3044 H 0.6478 0.85978 0.86568 0.0
H3045 H 0.60495 0.8638 0.8619 0.0
H3046 H 0.58208 0.84973 0.94782 0.0
H3047 H 0.57074 0.87398 0.96699 0.0
H3048 H 0.60219 0.86899 0.9644 0.0
H3049 H 0.61008 0.91517 0.95458 0.0
H3050 H 0.57865 0.92027 0.95704 0.0
H3051 H 0.59549 0.92751 0.93117 0.0
H3052 H 0.56054 0.87094 0.86528 0.0
H3053 H 0.51859 0.87971 0.87623 0.0
H3054 H 0.5384 0.89705 0.94547 0.0
C3055 C 0.63249 0.87758 0.92089 0.0
C3056 C 0.64759 0.8704 0.90184 0.0
C3057 C 0.63704 0.86536 0.88064 0.0
C3058 C 0.61252 0.86759 0.87825 0.0
C3059 C 0.59826 0.87493 0.89717 0.0
C3060 C 0.60782 0.87977 0.91814 0.0
C3061 C 0.58839 0.88755 0.93567 0.0
C3062 C 0.58569 0.86895 0.95486 0.0
C3063 C 0.59346 0.91421 0.94517 0.0
C3064 C 0.56658 0.88633 0.92129 0.0
C3065 C 0.57268 0.87902 0.89911 0.0
C3066 C 0.5556 0.87665 0.88266 0.0
C3067 C 0.53173 0.88172 0.88902 0.0
C3068 C 0.52488 0.88913 0.9117 0.0
C3069 C 0.5428 0.89146 0.92794 0.0
H3070 H 0.53263 0.17409 0.19656 0.0
H3071 H 0.51685 0.12804 0.13672 0.0
H3072 H 0.55831 0.11404 0.134 0.0
H3073 H 0.5874 0.1963 0.17564 0.0
H3074 H 0.60126 0.1974 0.20258 0.0
H3075 H 0.56967 0.20011 0.20181 0.0
H3076 H 0.56331 0.16278 0.22829 0.0
H3077 H 0.595 0.1598 0.22887 0.0
H3078 H 0.57642 0.13345 0.22011 0.0
H3079 H 0.60262 0.10817 0.13594 0.0
H3080 H 0.64605 0.1153 0.13944 0.0
H3081 H 0.63245 0.16659 0.19687 0.0
C3082 C 0.5378 0.16063 0.18319 0.0
C3083 C 0.52163 0.15192 0.16698 0.0
C3084 C 0.52907 0.13482 0.14937 0.0
C3085 C 0.55249 0.12663 0.14781 0.0
C3086 C 0.56818 0.13579 0.16397 0.0
C3087 C 0.56113 0.15259 0.18123 0.0
C3088 C 0.5819 0.16212 0.19473 0.0
C3089 C 0.58525 0.19066 0.1936 0.0
C3090 C 0.57897 0.15405 0.21947 0.0
C3091 C 0.60191 0.14877 0.18193 0.0
C3092 C 0.59367 0.1331 0.16463 0.0
C3093 C 0.60923 0.12011 0.14963 0.0
C3094 C 0.63383 0.12411 0.1518 0.0
C3095 C 0.64239 0.14133 0.16851 0.0
C3096 C 0.62625 0.15306 0.18416 0.0
H3097 H 0.60251 0.90709 0.15432 0.0
H3098 H 0.61245 0.94663 0.21903 0.0
H3099 H 0.56912 0.95145 0.22428 0.0
H3100 H 0.55162 0.94278 0.13757 0.0
H3101 H 0.53712 0.91544 0.12505 0.0
H3102 H 0.56909 0.91784 0.12511 0.0
H3103 H 0.56934 0.87587 0.14529 0.0
H3104 H 0.53745 0.87341 0.14541 0.0
H3105 H 0.55224 0.87225 0.17173 0.0
H3106 H 0.52494 0.94844 0.22424 0.0
H3107 H 0.48251 0.9378 0.21876 0.0
H3108 H 0.50147 0.90003 0.15424 0.0
C3109 C 0.59555 0.91718 0.16935 0.0
C3110 C 0.61062 0.92658 0.18625 0.0
C3111 C 0.60104 0.93936 0.20589 0.0
C3112 C 0.57652 0.94227 0.20897 0.0
C3113 C 0.56201 0.93235 0.1922 0.0
C3114 C 0.57113 0.92017 0.17272 0.0
C3115 C 0.55158 0.90964 0.15813 0.0
C3116 C 0.5524 0.92218 0.1351 0.0
C3117 C 0.55273 0.88111 0.15497 0.0
C3118 C 0.53006 0.91711 0.17281 0.0
C3119 C 0.53644 0.93048 0.19224 0.0
C3120 C 0.51967 0.93828 0.20896 0.0
C3121 C 0.4957 0.93209 0.20577 0.0
C3122 C 0.48894 0.91816 0.18611 0.0
C3123 C 0.50627 0.91085 0.16935 0.0
H3124 H 0.50403 0.44504 0.69351 0.0
H3125 H 0.49042 0.36515 0.68762 0.0
H3126 H 0.53162 0.35807 0.69726 0.0
H3127 H 0.55929 0.44381 0.66505 0.0
H3128 H 0.57315 0.46864 0.68176 0.0
H3129 H 0.54152 0.46767 0.67903 0.0
H3130 H 0.53506 0.46855 0.72293 0.0
H3131 H 0.56677 0.46943 0.72578 0.0
H3132 H 0.54838 0.44535 0.73895 0.0
H3133 H 0.57419 0.35923 0.70369 0.0
H3134 H 0.61734 0.36834 0.70212 0.0
H3135 H 0.60497 0.44752 0.70121 0.0
C3136 C 0.50975 0.42615 0.69485 0.0
C3137 C 0.49433 0.40557 0.69016 0.0
C3138 C 0.50222 0.38105 0.69128 0.0
C3139 C 0.52543 0.37687 0.69695 0.0
C3140 C 0.5405 0.39748 0.70116 0.0
C3141 C 0.53315 0.42166 0.69993 0.0
C3142 C 0.55388 0.44028 0.70195 0.0
C3143 C 0.55715 0.45601 0.68068 0.0
C3144 C 0.55084 0.45688 0.7237 0.0
C3145 C 0.57405 0.4227 0.70355 0.0
C3146 C 0.56575 0.39816 0.70379 0.0
C3147 C 0.58095 0.37836 0.7038 0.0
C3148 C 0.6054 0.38371 0.70287 0.0
C3149 C 0.61431 0.40859 0.70155 0.0
C3150 C 0.59849 0.42837 0.70247 0.0
H3151 H 0.52258 0.73124 0.38646 0.0
H3152 H 0.50584 0.65814 0.41312 0.0
H3153 H 0.5485 0.65019 0.41325 0.0
H3154 H 0.57363 0.71344 0.35 0.0
H3155 H 0.59097 0.74167 0.35571 0.0
H3156 H 0.55899 0.7421 0.3575 0.0
H3157 H 0.56003 0.76038 0.39872 0.0
H3158 H 0.59202 0.76001 0.39705 0.0
H3159 H 0.57538 0.74427 0.41949 0.0
H3160 H 0.59331 0.64886 0.40934 0.0
H3161 H 0.63664 0.65504 0.40335 0.0
H3162 H 0.62685 0.7297 0.38091 0.0
C3163 C 0.52784 0.71355 0.39237 0.0
C3164 C 0.51025 0.69533 0.39976 0.0
C3165 C 0.51842 0.67256 0.40738 0.0
C3166 C 0.54284 0.66779 0.4075 0.0
C3167 C 0.55955 0.68596 0.40014 0.0
C3168 C 0.55247 0.70851 0.39285 0.0
C3169 C 0.57443 0.72484 0.3861 0.0
C3170 C 0.5745 0.73087 0.36082 0.0
C3171 C 0.57552 0.7488 0.40125 0.0
C3172 C 0.59483 0.70789 0.39059 0.0
C3173 C 0.58565 0.68549 0.39855 0.0
C3174 C 0.6006 0.66642 0.40326 0.0
C3175 C 0.62539 0.67013 0.39973 0.0
C3176 C 0.63566 0.6929 0.39176 0.0
C3177 C 0.61989 0.71215 0.3873 0.0
H3178 H 0.6396 0.39198 0.41888 0.0
H3179 H 0.63881 0.3236 0.377 0.0
H3180 H 0.59563 0.32636 0.37361 0.0
H3181 H 0.58382 0.3786 0.44973 0.0
H3182 H 0.57471 0.41045 0.4512 0.0
H3183 H 0.60583 0.40383 0.44957 0.0
H3184 H 0.61209 0.43043 0.41398 0.0
H3185 H 0.58095 0.43708 0.41548 0.0
H3186 H 0.5944 0.42338 0.38975 0.0
H3187 H 0.5516 0.33648 0.37456 0.0
H3188 H 0.51092 0.3518 0.38192 0.0
H3189 H 0.5393 0.41264 0.42432 0.0
C3190 C 0.6304 0.37766 0.40887 0.0
C3191 C 0.64301 0.35757 0.39815 0.0
C3192 C 0.62991 0.33917 0.38547 0.0
C3193 C 0.60522 0.3406 0.38336 0.0
C3194 C 0.59336 0.36048 0.39415 0.0
C3195 C 0.60549 0.37862 0.40682 0.0
C3196 C 0.58824 0.3975 0.41742 0.0
C3197 C 0.58815 0.39759 0.44353 0.0
C3198 C 0.59428 0.42365 0.40863 0.0
C3199 C 0.56462 0.38716 0.40877 0.0
C3200 C 0.568 0.36591 0.39519 0.0
C3201 C 0.54883 0.35311 0.38522 0.0
C3202 C 0.52568 0.36201 0.38944 0.0
C3203 C 0.52158 0.38347 0.4037 0.0
C3204 C 0.54157 0.39618 0.41331 0.0
H3205 H 0.52781 0.69193 0.65698 0.0
H3206 H 0.51137 0.63252 0.70344 0.0
H3207 H 0.55384 0.62134 0.70105 0.0
H3208 H 0.57226 0.65947 0.62114 0.0
H3209 H 0.5903 0.68753 0.61719 0.0
H3210 H 0.55855 0.68928 0.62165 0.0
H3211 H 0.56425 0.72042 0.65597 0.0
H3212 H 0.59593 0.7189 0.6515 0.0
H3213 H 0.582 0.71189 0.67882 0.0
H3214 H 0.59956 0.61912 0.69502 0.0
H3215 H 0.64292 0.62711 0.68695 0.0
H3216 H 0.62708 0.6873 0.64402 0.0
C3217 C 0.53308 0.67643 0.66654 0.0
C3218 C 0.51648 0.6631 0.68043 0.0
C3219 C 0.52397 0.64294 0.69269 0.0
C3220 C 0.54798 0.63644 0.69136 0.0
C3221 C 0.56402 0.65014 0.67749 0.0
C3222 C 0.55671 0.66967 0.66526 0.0
C3223 C 0.5772 0.68237 0.65237 0.0
C3224 C 0.5744 0.67947 0.62656 0.0
C3225 C 0.58001 0.71001 0.66014 0.0
C3226 C 0.5974 0.66743 0.65963 0.0
C3227 C 0.58967 0.64872 0.67394 0.0
C3228 C 0.60572 0.63354 0.68362 0.0
C3229 C 0.63025 0.6381 0.67892 0.0
C3230 C 0.63819 0.65777 0.66488 0.0
C3231 C 0.62149 0.67206 0.65477 0.0
loop_
_geom_bond_atom_site_label_1
_geom_bond_atom_site_label_2
_geom_bond_distance
_geom_bond_site_symmetry_2
_ccdc_geom_bond_type
O0 Tb1 2.506 . S
O0 C14 1.265 . S
Tb1 O0 2.506 . S
Tb1 O6 2.312 . S
Tb1 O10 2.271 . S
Tb1 O12 2.338 . S
Tb1 O19 2.441 . S
C2 O10 1.252 . S
C2 O11 1.253 . S
O3 Tb4 2.271 . S
O3 C13 1.252 . S
Tb4 O3 2.271 . S
Tb4 O7 2.338 . S
Tb4 O11 2.312 . S
Tb4 O15 2.441 . S
Tb4 O16 2.506 . S
C5 O15 1.244 . S
C5 O16 1.265 . S
O6 Tb1 2.312 . S
O6 C13 1.253 . S
O7 Tb4 2.338 . S
O7 C8 1.258 . S
C8 O7 1.258 . S
C8 O9 1.251 . S
O9 C8 1.251 . S
O10 Tb1 2.271 . S
O10 C2 1.252 . S
O11 C2 1.253 . S
O11 Tb4 2.312 . S
O12 Tb1 2.338 . S
O12 C17 1.258 . S
C13 O3 1.252 . S
C13 O6 1.253 . S
C14 O0 1.265 . S
C14 O19 1.244 . S
O15 Tb4 2.441 . S
O15 C5 1.244 . S
O16 Tb4 2.506 . S
O16 C5 1.265 . S
C17 O12 1.258 . S
C17 O18 1.251 . S
O18 C17 1.251 . S
O19 Tb1 2.441 . S
O19 C14 1.244 . S
O20 Tb21 2.506 . S
O20 C34 1.265 . S
Tb21 O20 2.506 . S
Tb21 O26 2.312 . S
Tb21 O30 2.271 . S
Tb21 O32 2.338 . S
Tb21 O39 2.441 . S
C22 O30 1.252 . S
C22 O31 1.253 . S
O23 Tb24 2.271 . S
O23 C33 1.252 . S
Tb24 O23 2.271 . S
Tb24 O27 2.338 . S
Tb24 O31 2.312 . S
Tb24 O35 2.441 . S
Tb24 O36 2.506 . S
C25 O35 1.244 . S
C25 O36 1.265 . S
O26 Tb21 2.312 . S
O26 C33 1.253 . S
O27 Tb24 2.338 . S
O27 C28 1.258 . S
C28 O27 1.258 . S
C28 O29 1.251 . S
O29 C28 1.251 . S
O30 Tb21 2.271 . S
O30 C22 1.252 . S
O31 C22 1.253 . S
O31 Tb24 2.312 . S
O32 Tb21 2.338 . S
O32 C37 1.258 . S
C33 O23 1.252 . S
C33 O26 1.253 . S
C34 O20 1.265 . S
C34 O39 1.244 . S
O35 Tb24 2.441 . S
O35 C25 1.244 . S
O36 Tb24 2.506 . S
O36 C25 1.265 . S
C37 O32 1.258 . S
C37 O38 1.251 . S
O38 C37 1.251 . S
O39 Tb21 2.441 . S
O39 C34 1.244 . S
O40 Tb41 2.506 . S
O40 C54 1.265 . S
Tb41 O40 2.506 . S
Tb41 O46 2.312 . S
Tb41 O50 2.271 . S
Tb41 O52 2.338 . S
Tb41 O59 2.441 . S
C42 O50 1.252 . S
C42 O51 1.253 . S
O43 Tb44 2.271 . S
O43 C53 1.252 . S
Tb44 O43 2.271 . S
Tb44 O47 2.338 . S
Tb44 O51 2.312 . S
Tb44 O55 2.441 . S
Tb44 O56 2.506 . S
C45 O55 1.244 . S
C45 O56 1.265 . S
O46 Tb41 2.312 . S
O46 C53 1.253 . S
O47 Tb44 2.338 . S
O47 C48 1.258 . S
C48 O47 1.258 . S
C48 O49 1.251 . S
O49 C48 1.251 . S
O50 Tb41 2.271 . S
O50 C42 1.252 . S
O51 C42 1.253 . S
O51 Tb44 2.312 . S
O52 Tb41 2.338 . S
O52 C57 1.258 . S
C53 O43 1.252 . S
C53 O46 1.253 . S
C54 O40 1.265 . S
C54 O59 1.244 . S
O55 Tb44 2.441 . S
O55 C45 1.244 . S
O56 Tb44 2.506 . S
O56 C45 1.265 . S
C57 O52 1.258 . S
C57 O58 1.251 . S
O58 C57 1.251 . S
O59 Tb41 2.441 . S
O59 C54 1.244 . S
O60 Tb61 2.506 . S
O60 C74 1.265 . S
Tb61 O60 2.506 . S
Tb61 O66 2.312 . S
Tb61 O70 2.271 . S
Tb61 O72 2.338 . S
Tb61 O79 2.441 . S
C62 O70 1.252 . S
C62 O71 1.253 . S
O63 Tb64 2.271 . S
O63 C73 1.252 . S
Tb64 O63 2.271 . S
Tb64 O67 2.338 . S
Tb64 O71 2.312 . S
Tb64 O75 2.441 . S
Tb64 O76 2.506 . S
C65 O75 1.244 . S
C65 O76 1.265 . S
O66 Tb61 2.312 . S
O66 C73 1.253 . S
O67 Tb64 2.338 . S
O67 C68 1.258 . S
C68 O67 1.258 . S
C68 O69 1.251 . S
O69 C68 1.251 . S
O70 Tb61 2.271 . S
O70 C62 1.252 . S
O71 C62 1.253 . S
O71 Tb64 2.312 . S
O72 Tb61 2.338 . S
O72 C77 1.258 . S
C73 O63 1.252 . S
C73 O66 1.253 . S
C74 O60 1.265 . S
C74 O79 1.244 . S
O75 Tb64 2.441 . S
O75 C65 1.244 . S
O76 Tb64 2.506 . S
O76 C65 1.265 . S
C77 O72 1.258 . S
C77 O78 1.251 . S
O78 C77 1.251 . S
O79 Tb61 2.441 . S
O79 C74 1.244 . S
O80 Tb81 2.506 . S
O80 C94 1.265 . S
Tb81 O80 2.506 . S
Tb81 O86 2.312 . S
Tb81 O90 2.271 . S
Tb81 O92 2.338 . S
Tb81 O99 2.441 . S
C82 O90 1.252 . S
C82 O91 1.253 . S
O83 Tb84 2.271 . S
O83 C93 1.252 . S
Tb84 O83 2.271 . S
Tb84 O87 2.338 . S
Tb84 O91 2.312 . S
Tb84 O95 2.441 . S
Tb84 O96 2.506 . S
C85 O95 1.244 . S
C85 O96 1.265 . S
O86 Tb81 2.312 . S
O86 C93 1.253 . S
O87 Tb84 2.338 . S
O87 C88 1.258 . S
C88 O87 1.258 . S
C88 O89 1.251 . S
O89 C88 1.251 . S
O90 Tb81 2.271 . S
O90 C82 1.252 . S
O91 C82 1.253 . S
O91 Tb84 2.312 . S
O92 Tb81 2.338 . S
O92 C97 1.258 . S
C93 O83 1.252 . S
C93 O86 1.253 . S
C94 O80 1.265 . S
C94 O99 1.244 . S
O95 Tb84 2.441 . S
O95 C85 1.244 . S
O96 Tb84 2.506 . S
O96 C85 1.265 . S
C97 O92 1.258 . S
C97 O98 1.251 . S
O98 C97 1.251 . S
O99 Tb81 2.441 . S
O99 C94 1.244 . S
O100 Tb101 2.506 . S
O100 C114 1.265 . S
Tb101 O100 2.506 . S
Tb101 O106 2.312 . S
Tb101 O110 2.271 . S
Tb101 O112 2.338 . S
Tb101 O119 2.441 . S
C102 O110 1.252 . S
C102 O111 1.253 . S
O103 Tb104 2.271 . S
O103 C113 1.252 . S
Tb104 O103 2.271 . S
Tb104 O107 2.338 . S
Tb104 O111 2.312 . S
Tb104 O115 2.441 . S
Tb104 O116 2.506 . S
C105 O115 1.244 . S
C105 O116 1.265 . S
O106 Tb101 2.312 . S
O106 C113 1.253 . S
O107 Tb104 2.338 . S
O107 C108 1.258 . S
C108 O107 1.258 . S
C108 O109 1.251 . S
O109 C108 1.251 . S
O110 Tb101 2.271 . S
O110 C102 1.252 . S
O111 C102 1.253 . S
O111 Tb104 2.312 . S
O112 Tb101 2.338 . S
O112 C117 1.258 . S
C113 O103 1.252 . S
C113 O106 1.253 . S
C114 O100 1.265 . S
C114 O119 1.244 . S
O115 Tb104 2.441 . S
O115 C105 1.244 . S
O116 Tb104 2.506 . S
O116 C105 1.265 . S
C117 O112 1.258 . S
C117 O118 1.251 . S
O118 C117 1.251 . S
O119 Tb101 2.441 . S
O119 C114 1.244 . S
O120 Tb121 2.506 . S
O120 C134 1.265 . S
Tb121 O120 2.506 . S
Tb121 O126 2.312 . S
Tb121 O130 2.271 . S
Tb121 O132 2.338 . S
Tb121 O139 2.441 . S
C122 O130 1.252 . S
C122 O131 1.253 . S
O123 Tb124 2.271 . S
O123 C133 1.252 . S
Tb124 O123 2.271 . S
Tb124 O127 2.338 . S
Tb124 O131 2.312 . S
Tb124 O135 2.441 . S
Tb124 O136 2.506 . S
C125 O135 1.244 . S
C125 O136 1.265 . S
O126 Tb121 2.312 . S
O126 C133 1.253 . S
O127 Tb124 2.338 . S
O127 C128 1.258 . S
C128 O127 1.258 . S
C128 O129 1.251 . S
O129 C128 1.251 . S
O130 Tb121 2.271 . S
O130 C122 1.252 . S
O131 C122 1.253 . S
O131 Tb124 2.312 . S
O132 Tb121 2.338 . S
O132 C137 1.258 . S
C133 O123 1.252 . S
C133 O126 1.253 . S
C134 O120 1.265 . S
C134 O139 1.244 . S
O135 Tb124 2.441 . S
O135 C125 1.244 . S
O136 Tb124 2.506 . S
O136 C125 1.265 . S
C137 O132 1.258 . S
C137 O138 1.251 . S
O138 C137 1.251 . S
O139 Tb121 2.441 . S
O139 C134 1.244 . S
O140 Tb141 2.506 . S
O140 C154 1.265 . S
Tb141 O140 2.506 . S
Tb141 O146 2.312 . S
Tb141 O150 2.271 . S
Tb141 O152 2.338 . S
Tb141 O159 2.441 . S
C142 O150 1.252 . S
C142 O151 1.253 . S
O143 Tb144 2.271 . S
O143 C153 1.252 . S
Tb144 O143 2.271 . S
Tb144 O147 2.338 . S
Tb144 O151 2.312 . S
Tb144 O155 2.441 . S
Tb144 O156 2.506 . S
C145 O155 1.244 . S
C145 O156 1.265 . S
O146 Tb141 2.312 . S
O146 C153 1.253 . S
O147 Tb144 2.338 . S
O147 C148 1.258 . S
C148 O147 1.258 . S
C148 O149 1.251 . S
O149 C148 1.251 . S
O150 Tb141 2.271 . S
O150 C142 1.252 . S
O151 C142 1.253 . S
O151 Tb144 2.312 . S
O152 Tb141 2.338 . S
O152 C157 1.258 . S
C153 O143 1.252 . S
C153 O146 1.253 . S
C154 O140 1.265 . S
C154 O159 1.244 . S
O155 Tb144 2.441 . S
O155 C145 1.244 . S
O156 Tb144 2.506 . S
O156 C145 1.265 . S
C157 O152 1.258 . S
C157 O158 1.251 . S
O158 C157 1.251 . S
O159 Tb141 2.441 . S
O159 C154 1.244 . S
O160 Tb161 2.506 . S
O160 C174 1.265 . S
Tb161 O160 2.506 . S
Tb161 O166 2.312 . S
Tb161 O170 2.271 . S
Tb161 O172 2.338 . S
Tb161 O179 2.441 . S
C162 O170 1.252 . S
C162 O171 1.253 . S
O163 Tb164 2.271 . S
O163 C173 1.252 . S
Tb164 O163 2.271 . S
Tb164 O167 2.338 . S
Tb164 O171 2.312 . S
Tb164 O175 2.441 . S
Tb164 O176 2.506 . S
C165 O175 1.244 . S
C165 O176 1.265 . S
O166 Tb161 2.312 . S
O166 C173 1.253 . S
O167 Tb164 2.338 . S
O167 C168 1.258 . S
C168 O167 1.258 . S
C168 O169 1.251 . S
O169 C168 1.251 . S
O170 Tb161 2.271 . S
O170 C162 1.252 . S
O171 C162 1.253 . S
O171 Tb164 2.312 . S
O172 Tb161 2.338 . S
O172 C177 1.258 . S
C173 O163 1.252 . S
C173 O166 1.253 . S
C174 O160 1.265 . S
C174 O179 1.244 . S
O175 Tb164 2.441 . S
O175 C165 1.244 . S
O176 Tb164 2.506 . S
O176 C165 1.265 . S
C177 O172 1.258 . S
C177 O178 1.251 . S
O178 C177 1.251 . S
O179 Tb161 2.441 . S
O179 C174 1.244 . S
O180 Tb181 2.506 . S
O180 C194 1.265 . S
Tb181 O180 2.506 . S
Tb181 O186 2.312 . S
Tb181 O190 2.271 . S
Tb181 O192 2.338 . S
Tb181 O199 2.441 . S
C182 O190 1.252 . S
C182 O191 1.253 . S
O183 Tb184 2.271 . S
O183 C193 1.252 . S
Tb184 O183 2.271 . S
Tb184 O187 2.338 . S
Tb184 O191 2.312 . S
Tb184 O195 2.441 . S
Tb184 O196 2.506 . S
C185 O195 1.244 . S
C185 O196 1.265 . S
O186 Tb181 2.312 . S
O186 C193 1.253 . S
O187 Tb184 2.338 . S
O187 C188 1.258 . S
C188 O187 1.258 . S
C188 O189 1.251 . S
O189 C188 1.251 . S
O190 Tb181 2.271 . S
O190 C182 1.252 . S
O191 C182 1.253 . S
O191 Tb184 2.312 . S
O192 Tb181 2.338 . S
O192 C197 1.258 . S
C193 O183 1.252 . S
C193 O186 1.253 . S
C194 O180 1.265 . S
C194 O199 1.244 . S
O195 Tb184 2.441 . S
O195 C185 1.244 . S
O196 Tb184 2.506 . S
O196 C185 1.265 . S
C197 O192 1.258 . S
C197 O198 1.251 . S
O198 C197 1.251 . S
O199 Tb181 2.441 . S
O199 C194 1.244 . S
O200 Tb201 2.506 . S
O200 C214 1.265 . S
Tb201 O200 2.506 . S
Tb201 O206 2.312 . S
Tb201 O210 2.271 . S
Tb201 O212 2.338 . S
Tb201 O219 2.441 . S
C202 O210 1.252 . S
C202 O211 1.253 . S
O203 Tb204 2.271 . S
O203 C213 1.252 . S
Tb204 O203 2.271 . S
Tb204 O207 2.338 . S
Tb204 O211 2.312 . S
Tb204 O215 2.441 . S
Tb204 O216 2.506 . S
C205 O215 1.244 . S
C205 O216 1.265 . S
O206 Tb201 2.312 . S
O206 C213 1.253 . S
O207 Tb204 2.338 . S
O207 C208 1.258 . S
C208 O207 1.258 . S
C208 O209 1.251 . S
O209 C208 1.251 . S
O210 Tb201 2.271 . S
O210 C202 1.252 . S
O211 C202 1.253 . S
O211 Tb204 2.312 . S
O212 Tb201 2.338 . S
O212 C217 1.258 . S
C213 O203 1.252 . S
C213 O206 1.253 . S
C214 O200 1.265 . S
C214 O219 1.244 . S
O215 Tb204 2.441 . S
O215 C205 1.244 . S
O216 Tb204 2.506 . S
O216 C205 1.265 . S
C217 O212 1.258 . S
C217 O218 1.251 . S
O218 C217 1.251 . S
O219 Tb201 2.441 . S
O219 C214 1.244 . S
O220 Tb221 2.506 . S
O220 C234 1.265 . S
Tb221 O220 2.506 . S
Tb221 O226 2.312 . S
Tb221 O230 2.271 . S
Tb221 O232 2.338 . S
Tb221 O239 2.441 . S
C222 O230 1.252 . S
C222 O231 1.253 . S
O223 Tb224 2.271 . S
O223 C233 1.252 . S
Tb224 O223 2.271 . S
Tb224 O227 2.338 . S
Tb224 O231 2.312 . S
Tb224 O235 2.441 . S
Tb224 O236 2.506 . S
C225 O235 1.244 . S
C225 O236 1.265 . S
O226 Tb221 2.312 . S
O226 C233 1.253 . S
O227 Tb224 2.338 . S
O227 C228 1.258 . S
C228 O227 1.258 . S
C228 O229 1.251 . S
O229 C228 1.251 . S
O230 Tb221 2.271 . S
O230 C222 1.252 . S
O231 C222 1.253 . S
O231 Tb224 2.312 . S
O232 Tb221 2.338 . S
O232 C237 1.258 . S
C233 O223 1.252 . S
C233 O226 1.253 . S
C234 O220 1.265 . S
C234 O239 1.244 . S
O235 Tb224 2.441 . S
O235 C225 1.244 . S
O236 Tb224 2.506 . S
O236 C225 1.265 . S
C237 O232 1.258 . S
C237 O238 1.251 . S
O238 C237 1.251 . S
O239 Tb221 2.441 . S
O239 C234 1.244 . S
O240 Tb241 2.506 . S
O240 C254 1.265 . S
Tb241 O240 2.506 . S
Tb241 O246 2.312 . S
Tb241 O250 2.271 . S
Tb241 O252 2.338 . S
Tb241 O259 2.441 . S
C242 O250 1.252 . S
C242 O251 1.253 . S
O243 Tb244 2.271 . S
O243 C253 1.252 . S
Tb244 O243 2.271 . S
Tb244 O247 2.338 . S
Tb244 O251 2.312 . S
Tb244 O255 2.441 . S
Tb244 O256 2.506 . S
C245 O255 1.244 . S
C245 O256 1.265 . S
O246 Tb241 2.312 . S
O246 C253 1.253 . S
O247 Tb244 2.338 . S
O247 C248 1.258 . S
C248 O247 1.258 . S
C248 O249 1.251 . S
O249 C248 1.251 . S
O250 Tb241 2.271 . S
O250 C242 1.252 . S
O251 C242 1.253 . S
O251 Tb244 2.312 . S
O252 Tb241 2.338 . S
O252 C257 1.258 . S
C253 O243 1.252 . S
C253 O246 1.253 . S
C254 O240 1.265 . S
C254 O259 1.244 . S
O255 Tb244 2.441 . S
O255 C245 1.244 . S
O256 Tb244 2.506 . S
O256 C245 1.265 . S
C257 O252 1.258 . S
C257 O258 1.251 . S
O258 C257 1.251 . S
O259 Tb241 2.441 . S
O259 C254 1.244 . S
O260 Tb261 2.506 . S
O260 C274 1.265 . S
Tb261 O260 2.506 . S
Tb261 O266 2.312 . S
Tb261 O270 2.271 . S
Tb261 O272 2.338 . S
Tb261 O279 2.441 . S
C262 O270 1.252 . S
C262 O271 1.253 . S
O263 Tb264 2.271 . S
O263 C273 1.252 . S
Tb264 O263 2.271 . S
Tb264 O267 2.338 . S
Tb264 O271 2.312 . S
Tb264 O275 2.441 . S
Tb264 O276 2.506 . S
C265 O275 1.244 . S
C265 O276 1.265 . S
O266 Tb261 2.312 . S
O266 C273 1.253 . S
O267 Tb264 2.338 . S
O267 C268 1.258 . S
C268 O267 1.258 . S
C268 O269 1.251 . S
O269 C268 1.251 . S
O270 Tb261 2.271 . S
O270 C262 1.252 . S
O271 C262 1.253 . S
O271 Tb264 2.312 . S
O272 Tb261 2.338 . S
O272 C277 1.258 . S
C273 O263 1.252 . S
C273 O266 1.253 . S
C274 O260 1.265 . S
C274 O279 1.244 . S
O275 Tb264 2.441 . S
O275 C265 1.244 . S
O276 Tb264 2.506 . S
O276 C265 1.265 . S
C277 O272 1.258 . S
C277 O278 1.251 . S
O278 C277 1.251 . S
O279 Tb261 2.441 . S
O279 C274 1.244 . S
O280 Tb281 2.506 . S
O280 C294 1.265 . S
Tb281 O280 2.506 . S
Tb281 O286 2.312 . S
Tb281 O290 2.271 . S
Tb281 O292 2.338 . S
Tb281 O299 2.441 . S
C282 O290 1.252 . S
C282 O291 1.253 . S
O283 Tb284 2.271 . S
O283 C293 1.252 . S
Tb284 O283 2.271 . S
Tb284 O287 2.338 . S
Tb284 O291 2.312 . S
Tb284 O295 2.441 . S
Tb284 O296 2.506 . S
C285 O295 1.244 . S
C285 O296 1.265 . S
O286 Tb281 2.312 . S
O286 C293 1.253 . S
O287 Tb284 2.338 . S
O287 C288 1.258 . S
C288 O287 1.258 . S
C288 O289 1.251 . S
O289 C288 1.251 . S
O290 Tb281 2.271 . S
O290 C282 1.252 . S
O291 C282 1.253 . S
O291 Tb284 2.312 . S
O292 Tb281 2.338 . S
O292 C297 1.258 . S
C293 O283 1.252 . S
C293 O286 1.253 . S
C294 O280 1.265 . S
C294 O299 1.244 . S
O295 Tb284 2.441 . S
O295 C285 1.244 . S
O296 Tb284 2.506 . S
O296 C285 1.265 . S
C297 O292 1.258 . S
C297 O298 1.251 . S
O298 C297 1.251 . S
O299 Tb281 2.441 . S
O299 C294 1.244 . S
O300 Tb301 2.506 . S
O300 C314 1.265 . S
Tb301 O300 2.506 . S
Tb301 O306 2.312 . S
Tb301 O310 2.271 . S
Tb301 O312 2.338 . S
Tb301 O319 2.441 . S
C302 O310 1.252 . S
C302 O311 1.253 . S
O303 Tb304 2.271 . S
O303 C313 1.252 . S
Tb304 O303 2.271 . S
Tb304 O307 2.338 . S
Tb304 O311 2.312 . S
Tb304 O315 2.441 . S
Tb304 O316 2.506 . S
C305 O315 1.244 . S
C305 O316 1.265 . S
O306 Tb301 2.312 . S
O306 C313 1.253 . S
O307 Tb304 2.338 . S
O307 C308 1.258 . S
C308 O307 1.258 . S
C308 O309 1.251 . S
O309 C308 1.251 . S
O310 Tb301 2.271 . S
O310 C302 1.252 . S
O311 C302 1.253 . S
O311 Tb304 2.312 . S
O312 Tb301 2.338 . S
O312 C317 1.258 . S
C313 O303 1.252 . S
C313 O306 1.253 . S
C314 O300 1.265 . S
C314 O319 1.244 . S
O315 Tb304 2.441 . S
O315 C305 1.244 . S
O316 Tb304 2.506 . S
O316 C305 1.265 . S
C317 O312 1.258 . S
C317 O318 1.251 . S
O318 C317 1.251 . S
O319 Tb301 2.441 . S
O319 C314 1.244 . S
O320 Tb321 2.506 . S
O320 C334 1.265 . S
Tb321 O320 2.506 . S
Tb321 O326 2.312 . S
Tb321 O330 2.271 . S
Tb321 O332 2.338 . S
Tb321 O339 2.441 . S
C322 O330 1.252 . S
C322 O331 1.253 . S
O323 Tb324 2.271 . S
O323 C333 1.252 . S
Tb324 O323 2.271 . S
Tb324 O327 2.338 . S
Tb324 O331 2.312 . S
Tb324 O335 2.441 . S
Tb324 O336 2.506 . S
C325 O335 1.244 . S
C325 O336 1.265 . S
O326 Tb321 2.312 . S
O326 C333 1.253 . S
O327 Tb324 2.338 . S
O327 C328 1.258 . S
C328 O327 1.258 . S
C328 O329 1.251 . S
O329 C328 1.251 . S
O330 Tb321 2.271 . S
O330 C322 1.252 . S
O331 C322 1.253 . S
O331 Tb324 2.312 . S
O332 Tb321 2.338 . S
O332 C337 1.258 . S
C333 O323 1.252 . S
C333 O326 1.253 . S
C334 O320 1.265 . S
C334 O339 1.244 . S
O335 Tb324 2.441 . S
O335 C325 1.244 . S
O336 Tb324 2.506 . S
O336 C325 1.265 . S
C337 O332 1.258 . S
C337 O338 1.251 . S
O338 C337 1.251 . S
O339 Tb321 2.441 . S
O339 C334 1.244 . S
O340 Tb341 2.506 . S
O340 C354 1.265 . S
Tb341 O340 2.506 . S
Tb341 O346 2.312 . S
Tb341 O350 2.271 . S
Tb341 O352 2.338 . S
Tb341 O359 2.441 . S
C342 O350 1.252 . S
C342 O351 1.253 . S
O343 Tb344 2.271 . S
O343 C353 1.252 . S
Tb344 O343 2.271 . S
Tb344 O347 2.338 . S
Tb344 O351 2.312 . S
Tb344 O355 2.441 . S
Tb344 O356 2.506 . S
C345 O355 1.244 . S
C345 O356 1.265 . S
O346 Tb341 2.312 . S
O346 C353 1.253 . S
O347 Tb344 2.338 . S
O347 C348 1.258 . S
C348 O347 1.258 . S
C348 O349 1.251 . S
O349 C348 1.251 . S
O350 Tb341 2.271 . S
O350 C342 1.252 . S
O351 C342 1.253 . S
O351 Tb344 2.312 . S
O352 Tb341 2.338 . S
O352 C357 1.258 . S
C353 O343 1.252 . S
C353 O346 1.253 . S
C354 O340 1.265 . S
C354 O359 1.244 . S
O355 Tb344 2.441 . S
O355 C345 1.244 . S
O356 Tb344 2.506 . S
O356 C345 1.265 . S
C357 O352 1.258 . S
C357 O358 1.251 . S
O358 C357 1.251 . S
O359 Tb341 2.441 . S
O359 C354 1.244 . S
O360 Tb361 2.506 . S
O360 C374 1.265 . S
Tb361 O360 2.506 . S
Tb361 O366 2.312 . S
Tb361 O370 2.271 . S
Tb361 O372 2.338 . S
Tb361 O379 2.441 . S
C362 O370 1.252 . S
C362 O371 1.253 . S
O363 Tb364 2.271 . S
O363 C373 1.252 . S
Tb364 O363 2.271 . S
Tb364 O367 2.338 . S
Tb364 O371 2.312 . S
Tb364 O375 2.441 . S
Tb364 O376 2.506 . S
C365 O375 1.244 . S
C365 O376 1.265 . S
O366 Tb361 2.312 . S
O366 C373 1.253 . S
O367 Tb364 2.338 . S
O367 C368 1.258 . S
C368 O367 1.258 . S
C368 O369 1.251 . S
O369 C368 1.251 . S
O370 Tb361 2.271 . S
O370 C362 1.252 . S
O371 C362 1.253 . S
O371 Tb364 2.312 . S
O372 Tb361 2.338 . S
O372 C377 1.258 . S
C373 O363 1.252 . S
C373 O366 1.253 . S
C374 O360 1.265 . S
C374 O379 1.244 . S
O375 Tb364 2.441 . S
O375 C365 1.244 . S
O376 Tb364 2.506 . S
O376 C365 1.265 . S
C377 O372 1.258 . S
C377 O378 1.251 . S
O378 C377 1.251 . S
O379 Tb361 2.441 . S
O379 C374 1.244 . S
O380 Tb381 2.506 . S
O380 C394 1.265 . S
Tb381 O380 2.506 . S
Tb381 O386 2.312 . S
Tb381 O390 2.271 . S
Tb381 O392 2.338 . S
Tb381 O399 2.441 . S
C382 O390 1.252 . S
C382 O391 1.253 . S
O383 Tb384 2.271 . S
O383 C393 1.252 . S
Tb384 O383 2.271 . S
Tb384 O387 2.338 . S
Tb384 O391 2.312 . S
Tb384 O395 2.441 . S
Tb384 O396 2.506 . S
C385 O395 1.244 . S
C385 O396 1.265 . S
O386 Tb381 2.312 . S
O386 C393 1.253 . S
O387 Tb384 2.338 . S
O387 C388 1.258 . S
C388 O387 1.258 . S
C388 O389 1.251 . S
O389 C388 1.251 . S
O390 Tb381 2.271 . S
O390 C382 1.252 . S
O391 C382 1.253 . S
O391 Tb384 2.312 . S
O392 Tb381 2.338 . S
O392 C397 1.258 . S
C393 O383 1.252 . S
C393 O386 1.253 . S
C394 O380 1.265 . S
C394 O399 1.244 . S
O395 Tb384 2.441 . S
O395 C385 1.244 . S
O396 Tb384 2.506 . S
O396 C385 1.265 . S
C397 O392 1.258 . S
C397 O398 1.251 . S
O398 C397 1.251 . S
O399 Tb381 2.441 . S
O399 C394 1.244 . S
O400 Tb401 2.506 . S
O400 C414 1.265 . S
Tb401 O400 2.506 . S
Tb401 O406 2.312 . S
Tb401 O410 2.271 . S
Tb401 O412 2.338 . S
Tb401 O419 2.441 . S
C402 O410 1.252 . S
C402 O411 1.253 . S
O403 Tb404 2.271 . S
O403 C413 1.252 . S
Tb404 O403 2.271 . S
Tb404 O407 2.338 . S
Tb404 O411 2.312 . S
Tb404 O415 2.441 . S
Tb404 O416 2.506 . S
C405 O415 1.244 . S
C405 O416 1.265 . S
O406 Tb401 2.312 . S
O406 C413 1.253 . S
O407 Tb404 2.338 . S
O407 C408 1.258 . S
C408 O407 1.258 . S
C408 O409 1.251 . S
O409 C408 1.251 . S
O410 Tb401 2.271 . S
O410 C402 1.252 . S
O411 C402 1.253 . S
O411 Tb404 2.312 . S
O412 Tb401 2.338 . S
O412 C417 1.258 . S
C413 O403 1.252 . S
C413 O406 1.253 . S
C414 O400 1.265 . S
C414 O419 1.244 . S
O415 Tb404 2.441 . S
O415 C405 1.244 . S
O416 Tb404 2.506 . S
O416 C405 1.265 . S
C417 O412 1.258 . S
C417 O418 1.251 . S
O418 C417 1.251 . S
O419 Tb401 2.441 . S
O419 C414 1.244 . S
O420 Tb421 2.506 . S
O420 C434 1.265 . S
Tb421 O420 2.506 . S
Tb421 O426 2.312 . S
Tb421 O430 2.271 . S
Tb421 O432 2.338 . S
Tb421 O439 2.441 . S
C422 O430 1.252 . S
C422 O431 1.253 . S
O423 Tb424 2.271 . S
O423 C433 1.252 . S
Tb424 O423 2.271 . S
Tb424 O427 2.338 . S
Tb424 O431 2.312 . S
Tb424 O435 2.441 . S
Tb424 O436 2.506 . S
C425 O435 1.244 . S
C425 O436 1.265 . S
O426 Tb421 2.312 . S
O426 C433 1.253 . S
O427 Tb424 2.338 . S
O427 C428 1.258 . S
C428 O427 1.258 . S
C428 O429 1.251 . S
O429 C428 1.251 . S
O430 Tb421 2.271 . S
O430 C422 1.252 . S
O431 C422 1.253 . S
O431 Tb424 2.312 . S
O432 Tb421 2.338 . S
O432 C437 1.258 . S
C433 O423 1.252 . S
C433 O426 1.253 . S
C434 O420 1.265 . S
C434 O439 1.244 . S
O435 Tb424 2.441 . S
O435 C425 1.244 . S
O436 Tb424 2.506 . S
O436 C425 1.265 . S
C437 O432 1.258 . S
C437 O438 1.251 . S
O438 C437 1.251 . S
O439 Tb421 2.441 . S
O439 C434 1.244 . S
O440 Tb441 2.506 . S
O440 C454 1.265 . S
Tb441 O440 2.506 . S
Tb441 O446 2.312 . S
Tb441 O450 2.271 . S
Tb441 O452 2.338 . S
Tb441 O459 2.441 . S
C442 O450 1.252 . S
C442 O451 1.253 . S
O443 Tb444 2.271 . S
O443 C453 1.252 . S
Tb444 O443 2.271 . S
Tb444 O447 2.338 . S
Tb444 O451 2.312 . S
Tb444 O455 2.441 . S
Tb444 O456 2.506 . S
C445 O455 1.244 . S
C445 O456 1.265 . S
O446 Tb441 2.312 . S
O446 C453 1.253 . S
O447 Tb444 2.338 . S
O447 C448 1.258 . S
C448 O447 1.258 . S
C448 O449 1.251 . S
O449 C448 1.251 . S
O450 Tb441 2.271 . S
O450 C442 1.252 . S
O451 C442 1.253 . S
O451 Tb444 2.312 . S
O452 Tb441 2.338 . S
O452 C457 1.258 . S
C453 O443 1.252 . S
C453 O446 1.253 . S
C454 O440 1.265 . S
C454 O459 1.244 . S
O455 Tb444 2.441 . S
O455 C445 1.244 . S
O456 Tb444 2.506 . S
O456 C445 1.265 . S
C457 O452 1.258 . S
C457 O458 1.251 . S
O458 C457 1.251 . S
O459 Tb441 2.441 . S
O459 C454 1.244 . S
O460 Tb461 2.506 . S
O460 C474 1.265 . S
Tb461 O460 2.506 . S
Tb461 O466 2.312 . S
Tb461 O470 2.271 . S
Tb461 O472 2.338 . S
Tb461 O479 2.441 . S
C462 O470 1.252 . S
C462 O471 1.253 . S
O463 Tb464 2.271 . S
O463 C473 1.252 . S
Tb464 O463 2.271 . S
Tb464 O467 2.338 . S
Tb464 O471 2.312 . S
Tb464 O475 2.441 . S
Tb464 O476 2.506 . S
C465 O475 1.244 . S
C465 O476 1.265 . S
O466 Tb461 2.312 . S
O466 C473 1.253 . S
O467 Tb464 2.338 . S
O467 C468 1.258 . S
C468 O467 1.258 . S
C468 O469 1.251 . S
O469 C468 1.251 . S
O470 Tb461 2.271 . S
O470 C462 1.252 . S
O471 C462 1.253 . S
O471 Tb464 2.312 . S
O472 Tb461 2.338 . S
O472 C477 1.258 . S
C473 O463 1.252 . S
C473 O466 1.253 . S
C474 O460 1.265 . S
C474 O479 1.244 . S
O475 Tb464 2.441 . S
O475 C465 1.244 . S
O476 Tb464 2.506 . S
O476 C465 1.265 . S
C477 O472 1.258 . S
C477 O478 1.251 . S
O478 C477 1.251 . S
O479 Tb461 2.441 . S
O479 C474 1.244 . S
O480 Tb481 2.506 . S
O480 C494 1.265 . S
Tb481 O480 2.506 . S
Tb481 O486 2.312 . S
Tb481 O490 2.271 . S
Tb481 O492 2.338 . S
Tb481 O499 2.441 . S
C482 O490 1.252 . S
C482 O491 1.253 . S
O483 Tb484 2.271 . S
O483 C493 1.252 . S
Tb484 O483 2.271 . S
Tb484 O487 2.338 . S
Tb484 O491 2.312 . S
Tb484 O495 2.441 . S
Tb484 O496 2.506 . S
C485 O495 1.244 . S
C485 O496 1.265 . S
O486 Tb481 2.312 . S
O486 C493 1.253 . S
O487 Tb484 2.338 . S
O487 C488 1.258 . S
C488 O487 1.258 . S
C488 O489 1.251 . S
O489 C488 1.251 . S
O490 Tb481 2.271 . S
O490 C482 1.252 . S
O491 C482 1.253 . S
O491 Tb484 2.312 . S
O492 Tb481 2.338 . S
O492 C497 1.258 . S
C493 O483 1.252 . S
C493 O486 1.253 . S
C494 O480 1.265 . S
C494 O499 1.244 . S
O495 Tb484 2.441 . S
O495 C485 1.244 . S
O496 Tb484 2.506 . S
O496 C485 1.265 . S
C497 O492 1.258 . S
C497 O498 1.251 . S
O498 C497 1.251 . S
O499 Tb481 2.441 . S
O499 C494 1.244 . S
O500 Tb501 2.506 . S
O500 C514 1.265 . S
Tb501 O500 2.506 . S
Tb501 O506 2.312 . S
Tb501 O510 2.271 . S
Tb501 O512 2.338 . S
Tb501 O519 2.441 . S
C502 O510 1.252 . S
C502 O511 1.253 . S
O503 Tb504 2.271 . S
O503 C513 1.252 . S
Tb504 O503 2.271 . S
Tb504 O507 2.338 . S
Tb504 O511 2.312 . S
Tb504 O515 2.441 . S
Tb504 O516 2.506 . S
C505 O515 1.244 . S
C505 O516 1.265 . S
O506 Tb501 2.312 . S
O506 C513 1.253 . S
O507 Tb504 2.338 . S
O507 C508 1.258 . S
C508 O507 1.258 . S
C508 O509 1.251 . S
O509 C508 1.251 . S
O510 Tb501 2.271 . S
O510 C502 1.252 . S
O511 C502 1.253 . S
O511 Tb504 2.312 . S
O512 Tb501 2.338 . S
O512 C517 1.258 . S
C513 O503 1.252 . S
C513 O506 1.253 . S
C514 O500 1.265 . S
C514 O519 1.244 . S
O515 Tb504 2.441 . S
O515 C505 1.244 . S
O516 Tb504 2.506 . S
O516 C505 1.265 . S
C517 O512 1.258 . S
C517 O518 1.251 . S
O518 C517 1.251 . S
O519 Tb501 2.441 . S
O519 C514 1.244 . S
O520 Tb521 2.506 . S
O520 C534 1.265 . S
Tb521 O520 2.506 . S
Tb521 O526 2.312 . S
Tb521 O530 2.271 . S
Tb521 O532 2.338 . S
Tb521 O539 2.441 . S
C522 O530 1.252 . S
C522 O531 1.253 . S
O523 Tb524 2.271 . S
O523 C533 1.252 . S
Tb524 O523 2.271 . S
Tb524 O527 2.338 . S
Tb524 O531 2.312 . S
Tb524 O535 2.441 . S
Tb524 O536 2.506 . S
C525 O535 1.244 . S
C525 O536 1.265 . S
O526 Tb521 2.312 . S
O526 C533 1.253 . S
O527 Tb524 2.338 . S
O527 C528 1.258 . S
C528 O527 1.258 . S
C528 O529 1.251 . S
O529 C528 1.251 . S
O530 Tb521 2.271 . S
O530 C522 1.252 . S
O531 C522 1.253 . S
O531 Tb524 2.312 . S
O532 Tb521 2.338 . S
O532 C537 1.258 . S
C533 O523 1.252 . S
C533 O526 1.253 . S
C534 O520 1.265 . S
C534 O539 1.244 . S
O535 Tb524 2.441 . S
O535 C525 1.244 . S
O536 Tb524 2.506 . S
O536 C525 1.265 . S
C537 O532 1.258 . S
C537 O538 1.251 . S
O538 C537 1.251 . S
O539 Tb521 2.441 . S
O539 C534 1.244 . S
O540 Tb541 2.506 . S
O540 C554 1.265 . S
Tb541 O540 2.506 . S
Tb541 O546 2.312 . S
Tb541 O550 2.271 . S
Tb541 O552 2.338 . S
Tb541 O559 2.441 . S
C542 O550 1.252 . S
C542 O551 1.253 . S
O543 Tb544 2.271 . S
O543 C553 1.252 . S
Tb544 O543 2.271 . S
Tb544 O547 2.338 . S
Tb544 O551 2.312 . S
Tb544 O555 2.441 . S
Tb544 O556 2.506 . S
C545 O555 1.244 . S
C545 O556 1.265 . S
O546 Tb541 2.312 . S
O546 C553 1.253 . S
O547 Tb544 2.338 . S
O547 C548 1.258 . S
C548 O547 1.258 . S
C548 O549 1.251 . S
O549 C548 1.251 . S
O550 Tb541 2.271 . S
O550 C542 1.252 . S
O551 C542 1.253 . S
O551 Tb544 2.312 . S
O552 Tb541 2.338 . S
O552 C557 1.258 . S
C553 O543 1.252 . S
C553 O546 1.253 . S
C554 O540 1.265 . S
C554 O559 1.244 . S
O555 Tb544 2.441 . S
O555 C545 1.244 . S
O556 Tb544 2.506 . S
O556 C545 1.265 . S
C557 O552 1.258 . S
C557 O558 1.251 . S
O558 C557 1.251 . S
O559 Tb541 2.441 . S
O559 C554 1.244 . S
O560 Tb561 2.506 . S
O560 C574 1.265 . S
Tb561 O560 2.506 . S
Tb561 O566 2.312 . S
Tb561 O570 2.271 . S
Tb561 O572 2.338 . S
Tb561 O579 2.441 . S
C562 O570 1.252 . S
C562 O571 1.253 . S
O563 Tb564 2.271 . S
O563 C573 1.252 . S
Tb564 O563 2.271 . S
Tb564 O567 2.338 . S
Tb564 O571 2.312 . S
Tb564 O575 2.441 . S
Tb564 O576 2.506 . S
C565 O575 1.244 . S
C565 O576 1.265 . S
O566 Tb561 2.312 . S
O566 C573 1.253 . S
O567 Tb564 2.338 . S
O567 C568 1.258 . S
C568 O567 1.258 . S
C568 O569 1.251 . S
O569 C568 1.251 . S
O570 Tb561 2.271 . S
O570 C562 1.252 . S
O571 C562 1.253 . S
O571 Tb564 2.312 . S
O572 Tb561 2.338 . S
O572 C577 1.258 . S
C573 O563 1.252 . S
C573 O566 1.253 . S
C574 O560 1.265 . S
C574 O579 1.244 . S
O575 Tb564 2.441 . S
O575 C565 1.244 . S
O576 Tb564 2.506 . S
O576 C565 1.265 . S
C577 O572 1.258 . S
C577 O578 1.251 . S
O578 C577 1.251 . S
O579 Tb561 2.441 . S
O579 C574 1.244 . S
O580 Tb581 2.506 . S
O580 C594 1.265 . S
Tb581 O580 2.506 . S
Tb581 O586 2.312 . S
Tb581 O590 2.271 . S
Tb581 O592 2.338 . S
Tb581 O599 2.441 . S
C582 O590 1.252 . S
C582 O591 1.253 . S
O583 Tb584 2.271 . S
O583 C593 1.252 . S
Tb584 O583 2.271 . S
Tb584 O587 2.338 . S
Tb584 O591 2.312 . S
Tb584 O595 2.441 . S
Tb584 O596 2.506 . S
C585 O595 1.244 . S
C585 O596 1.265 . S
O586 Tb581 2.312 . S
O586 C593 1.253 . S
O587 Tb584 2.338 . S
O587 C588 1.258 . S
C588 O587 1.258 . S
C588 O589 1.251 . S
O589 C588 1.251 . S
O590 Tb581 2.271 . S
O590 C582 1.252 . S
O591 C582 1.253 . S
O591 Tb584 2.312 . S
O592 Tb581 2.338 . S
O592 C597 1.258 . S
C593 O583 1.252 . S
C593 O586 1.253 . S
C594 O580 1.265 . S
C594 O599 1.244 . S
O595 Tb584 2.441 . S
O595 C585 1.244 . S
O596 Tb584 2.506 . S
O596 C585 1.265 . S
C597 O592 1.258 . S
C597 O598 1.251 . S
O598 C597 1.251 . S
O599 Tb581 2.441 . S
O599 C594 1.244 . S
O600 Tb601 2.506 . S
O600 C614 1.265 . S
Tb601 O600 2.506 . S
Tb601 O606 2.312 . S
Tb601 O610 2.271 . S
Tb601 O612 2.338 . S
Tb601 O619 2.441 . S
C602 O610 1.252 . S
C602 O611 1.253 . S
O603 Tb604 2.271 . S
O603 C613 1.252 . S
Tb604 O603 2.271 . S
Tb604 O607 2.338 . S
Tb604 O611 2.312 . S
Tb604 O615 2.441 . S
Tb604 O616 2.506 . S
C605 O615 1.244 . S
C605 O616 1.265 . S
O606 Tb601 2.312 . S
O606 C613 1.253 . S
O607 Tb604 2.338 . S
O607 C608 1.258 . S
C608 O607 1.258 . S
C608 O609 1.251 . S
O609 C608 1.251 . S
O610 Tb601 2.271 . S
O610 C602 1.252 . S
O611 C602 1.253 . S
O611 Tb604 2.312 . S
O612 Tb601 2.338 . S
O612 C617 1.258 . S
C613 O603 1.252 . S
C613 O606 1.253 . S
C614 O600 1.265 . S
C614 O619 1.244 . S
O615 Tb604 2.441 . S
O615 C605 1.244 . S
O616 Tb604 2.506 . S
O616 C605 1.265 . S
C617 O612 1.258 . S
C617 O618 1.251 . S
O618 C617 1.251 . S
O619 Tb601 2.441 . S
O619 C614 1.244 . S
O620 Tb621 2.506 . S
O620 C634 1.265 . S
Tb621 O620 2.506 . S
Tb621 O626 2.312 . S
Tb621 O630 2.271 . S
Tb621 O632 2.338 . S
Tb621 O639 2.441 . S
C622 O630 1.252 . S
C622 O631 1.253 . S
O623 Tb624 2.271 . S
O623 C633 1.252 . S
Tb624 O623 2.271 . S
Tb624 O627 2.338 . S
Tb624 O631 2.312 . S
Tb624 O635 2.441 . S
Tb624 O636 2.506 . S
C625 O635 1.244 . S
C625 O636 1.265 . S
O626 Tb621 2.312 . S
O626 C633 1.253 . S
O627 Tb624 2.338 . S
O627 C628 1.258 . S
C628 O627 1.258 . S
C628 O629 1.251 . S
O629 C628 1.251 . S
O630 Tb621 2.271 . S
O630 C622 1.252 . S
O631 C622 1.253 . S
O631 Tb624 2.312 . S
O632 Tb621 2.338 . S
O632 C637 1.258 . S
C633 O623 1.252 . S
C633 O626 1.253 . S
C634 O620 1.265 . S
C634 O639 1.244 . S
O635 Tb624 2.441 . S
O635 C625 1.244 . S
O636 Tb624 2.506 . S
O636 C625 1.265 . S
C637 O632 1.258 . S
C637 O638 1.251 . S
O638 C637 1.251 . S
O639 Tb621 2.441 . S
O639 C634 1.244 . S
H640 C652 0.930 . S
H641 C654 0.930 . S
H642 C655 0.930 . S
H643 C659 0.959 . S
H644 C659 0.959 . S
H645 C659 0.961 . S
H646 C660 0.960 . S
H647 C660 0.961 . S
H648 C660 0.959 . S
H649 C663 0.929 . S
H650 C664 0.931 . S
H651 C666 0.930 . S
C652 H640 0.930 . S
C652 C653 1.399 . S
C652 C657 1.399 . S
C653 C652 1.399 . S
C653 C654 1.376 . S
C654 H641 0.930 . S
C654 C653 1.376 . S
C654 C655 1.388 . S
C655 H642 0.930 . S
C655 C654 1.388 . S
C655 C656 1.390 . S
C656 C655 1.390 . S
C656 C657 1.394 . S
C656 C662 1.465 . S
C657 C652 1.399 . S
C657 C656 1.394 . S
C657 C658 1.516 . S
C658 C657 1.516 . S
C658 C659 1.502 . S
C658 C660 1.561 . S
C658 C661 1.526 . S
C659 H643 0.959 . S
C659 H644 0.959 . S
C659 H645 0.961 . S
C659 C658 1.502 . S
C660 H646 0.960 . S
C660 H647 0.961 . S
C660 H648 0.959 . S
C660 C658 1.561 . S
C661 C658 1.526 . S
C661 C662 1.396 . S
C661 C666 1.390 . S
C662 C656 1.465 . S
C662 C661 1.396 . S
C662 C663 1.399 . S
C663 H649 0.929 . S
C663 C662 1.399 . S
C663 C664 1.385 . S
C664 H650 0.931 . S
C664 C663 1.385 . S
C664 C665 1.389 . S
C665 C664 1.389 . S
C665 C666 1.387 . S
C666 H651 0.930 . S
C666 C661 1.390 . S
C666 C665 1.387 . S
H667 C679 0.930 . S
H668 C681 0.930 . S
H669 C682 0.930 . S
H670 C686 0.959 . S
H671 C686 0.959 . S
H672 C686 0.961 . S
H673 C687 0.960 . S
H674 C687 0.961 . S
H675 C687 0.959 . S
H676 C690 0.929 . S
H677 C691 0.931 . S
H678 C693 0.930 . S
C679 H667 0.930 . S
C679 C680 1.399 . S
C679 C684 1.399 . S
C680 C679 1.399 . S
C680 C681 1.376 . S
C681 H668 0.930 . S
C681 C680 1.376 . S
C681 C682 1.388 . S
C682 H669 0.930 . S
C682 C681 1.388 . S
C682 C683 1.390 . S
C683 C682 1.390 . S
C683 C684 1.394 . S
C683 C689 1.465 . S
C684 C679 1.399 . S
C684 C683 1.394 . S
C684 C685 1.516 . S
C685 C684 1.516 . S
C685 C686 1.502 . S
C685 C687 1.561 . S
C685 C688 1.526 . S
C686 H670 0.959 . S
C686 H671 0.959 . S
C686 H672 0.961 . S
C686 C685 1.502 . S
C687 H673 0.960 . S
C687 H674 0.961 . S
C687 H675 0.959 . S
C687 C685 1.561 . S
C688 C685 1.526 . S
C688 C689 1.396 . S
C688 C693 1.390 . S
C689 C683 1.465 . S
C689 C688 1.396 . S
C689 C690 1.399 . S
C690 H676 0.929 . S
C690 C689 1.399 . S
C690 C691 1.385 . S
C691 H677 0.931 . S
C691 C690 1.385 . S
C691 C692 1.389 . S
C692 C691 1.389 . S
C692 C693 1.387 . S
C693 H678 0.930 . S
C693 C688 1.390 . S
C693 C692 1.387 . S
H694 C706 0.930 . S
H695 C708 0.930 . S
H696 C709 0.930 . S
H697 C713 0.959 . S
H698 C713 0.959 . S
H699 C713 0.961 . S
H700 C714 0.960 . S
H701 C714 0.961 . S
H702 C714 0.959 . S
H703 C717 0.929 . S
H704 C718 0.931 . S
H705 C720 0.930 . S
C706 H694 0.930 . S
C706 C707 1.399 . S
C706 C711 1.399 . S
C707 C706 1.399 . S
C707 C708 1.376 . S
C708 H695 0.930 . S
C708 C707 1.376 . S
C708 C709 1.388 . S
C709 H696 0.930 . S
C709 C708 1.388 . S
C709 C710 1.390 . S
C710 C709 1.390 . S
C710 C711 1.394 . S
C710 C716 1.465 . S
C711 C706 1.399 . S
C711 C710 1.394 . S
C711 C712 1.516 . S
C712 C711 1.516 . S
C712 C713 1.502 . S
C712 C714 1.561 . S
C712 C715 1.526 . S
C713 H697 0.959 . S
C713 H698 0.959 . S
C713 H699 0.961 . S
C713 C712 1.502 . S
C714 H700 0.960 . S
C714 H701 0.961 . S
C714 H702 0.959 . S
C714 C712 1.561 . S
C715 C712 1.526 . S
C715 C716 1.396 . S
C715 C720 1.390 . S
C716 C710 1.465 . S
C716 C715 1.396 . S
C716 C717 1.399 . S
C717 H703 0.929 . S
C717 C716 1.399 . S
C717 C718 1.385 . S
C718 H704 0.931 . S
C718 C717 1.385 . S
C718 C719 1.389 . S
C719 C718 1.389 . S
C719 C720 1.387 . S
C720 H705 0.930 . S
C720 C715 1.390 . S
C720 C719 1.387 . S
H721 C733 0.930 . S
H722 C735 0.930 . S
H723 C736 0.930 . S
H724 C740 0.959 . S
H725 C740 0.959 . S
H726 C740 0.961 . S
H727 C741 0.960 . S
H728 C741 0.961 . S
H729 C741 0.959 . S
H730 C744 0.929 . S
H731 C745 0.931 . S
H732 C747 0.930 . S
C733 H721 0.930 . S
C733 C734 1.399 . S
C733 C738 1.399 . S
C734 C733 1.399 . S
C734 C735 1.376 . S
C735 H722 0.930 . S
C735 C734 1.376 . S
C735 C736 1.388 . S
C736 H723 0.930 . S
C736 C735 1.388 . S
C736 C737 1.390 . S
C737 C736 1.390 . S
C737 C738 1.394 . S
C737 C743 1.465 . S
C738 C733 1.399 . S
C738 C737 1.394 . S
C738 C739 1.516 . S
C739 C738 1.516 . S
C739 C740 1.502 . S
C739 C741 1.561 . S
C739 C742 1.526 . S
C740 H724 0.959 . S
C740 H725 0.959 . S
C740 H726 0.961 . S
C740 C739 1.502 . S
C741 H727 0.960 . S
C741 H728 0.961 . S
C741 H729 0.959 . S
C741 C739 1.561 . S
C742 C739 1.526 . S
C742 C743 1.396 . S
C742 C747 1.390 . S
C743 C737 1.465 . S
C743 C742 1.396 . S
C743 C744 1.399 . S
C744 H730 0.929 . S
C744 C743 1.399 . S
C744 C745 1.385 . S
C745 H731 0.931 . S
C745 C744 1.385 . S
C745 C746 1.389 . S
C746 C745 1.389 . S
C746 C747 1.387 . S
C747 H732 0.930 . S
C747 C742 1.390 . S
C747 C746 1.387 . S
H748 C760 0.930 . S
H749 C762 0.930 . S
H750 C763 0.930 . S
H751 C767 0.959 . S
H752 C767 0.959 . S
H753 C767 0.961 . S
H754 C768 0.960 . S
H755 C768 0.961 . S
H756 C768 0.959 . S
H757 C771 0.929 . S
H758 C772 0.931 . S
H759 C774 0.930 . S
C760 H748 0.930 . S
C760 C761 1.399 . S
C760 C765 1.399 . S
C761 C760 1.399 . S
C761 C762 1.376 . S
C762 H749 0.930 . S
C762 C761 1.376 . S
C762 C763 1.388 . S
C763 H750 0.930 . S
C763 C762 1.388 . S
C763 C764 1.390 . S
C764 C763 1.390 . S
C764 C765 1.394 . S
C764 C770 1.465 . S
C765 C760 1.399 . S
C765 C764 1.394 . S
C765 C766 1.516 . S
C766 C765 1.516 . S
C766 C767 1.502 . S
C766 C768 1.561 . S
C766 C769 1.526 . S
C767 H751 0.959 . S
C767 H752 0.959 . S
C767 H753 0.961 . S
C767 C766 1.502 . S
C768 H754 0.960 . S
C768 H755 0.961 . S
C768 H756 0.959 . S
C768 C766 1.561 . S
C769 C766 1.526 . S
C769 C770 1.396 . S
C769 C774 1.390 . S
C770 C764 1.465 . S
C770 C769 1.396 . S
C770 C771 1.399 . S
C771 H757 0.929 . S
C771 C770 1.399 . S
C771 C772 1.385 . S
C772 H758 0.931 . S
C772 C771 1.385 . S
C772 C773 1.389 . S
C773 C772 1.389 . S
C773 C774 1.387 . S
C774 H759 0.930 . S
C774 C769 1.390 . S
C774 C773 1.387 . S
H775 C787 0.930 . S
H776 C789 0.930 . S
H777 C790 0.930 . S
H778 C794 0.959 . S
H779 C794 0.959 . S
H780 C794 0.961 . S
H781 C795 0.960 . S
H782 C795 0.961 . S
H783 C795 0.959 . S
H784 C798 0.929 . S
H785 C799 0.931 . S
H786 C801 0.930 . S
C787 H775 0.930 . S
C787 C788 1.399 . S
C787 C792 1.399 . S
C788 C787 1.399 . S
C788 C789 1.376 . S
C789 H776 0.930 . S
C789 C788 1.376 . S
C789 C790 1.388 . S
C790 H777 0.930 . S
C790 C789 1.388 . S
C790 C791 1.390 . S
C791 C790 1.390 . S
C791 C792 1.394 . S
C791 C797 1.465 . S
C792 C787 1.399 . S
C792 C791 1.394 . S
C792 C793 1.516 . S
C793 C792 1.516 . S
C793 C794 1.502 . S
C793 C795 1.561 . S
C793 C796 1.526 . S
C794 H778 0.959 . S
C794 H779 0.959 . S
C794 H780 0.961 . S
C794 C793 1.502 . S
C795 H781 0.960 . S
C795 H782 0.961 . S
C795 H783 0.959 . S
C795 C793 1.561 . S
C796 C793 1.526 . S
C796 C797 1.396 . S
C796 C801 1.390 . S
C797 C791 1.465 . S
C797 C796 1.396 . S
C797 C798 1.399 . S
C798 H784 0.929 . S
C798 C797 1.399 . S
C798 C799 1.385 . S
C799 H785 0.931 . S
C799 C798 1.385 . S
C799 C800 1.389 . S
C800 C799 1.389 . S
C800 C801 1.387 . S
C801 H786 0.930 . S
C801 C796 1.390 . S
C801 C800 1.387 . S
H802 C814 0.930 . S
H803 C816 0.930 . S
H804 C817 0.930 . S
H805 C821 0.959 . S
H806 C821 0.959 . S
H807 C821 0.961 . S
H808 C822 0.960 . S
H809 C822 0.961 . S
H810 C822 0.959 . S
H811 C825 0.929 . S
H812 C826 0.931 . S
H813 C828 0.930 . S
C814 H802 0.930 . S
C814 C815 1.399 . S
C814 C819 1.399 . S
C815 C814 1.399 . S
C815 C816 1.376 . S
C816 H803 0.930 . S
C816 C815 1.376 . S
C816 C817 1.388 . S
C817 H804 0.930 . S
C817 C816 1.388 . S
C817 C818 1.390 . S
C818 C817 1.390 . S
C818 C819 1.394 . S
C818 C824 1.465 . S
C819 C814 1.399 . S
C819 C818 1.394 . S
C819 C820 1.516 . S
C820 C819 1.516 . S
C820 C821 1.502 . S
C820 C822 1.561 . S
C820 C823 1.526 . S
C821 H805 0.959 . S
C821 H806 0.959 . S
C821 H807 0.961 . S
C821 C820 1.502 . S
C822 H808 0.960 . S
C822 H809 0.961 . S
C822 H810 0.959 . S
C822 C820 1.561 . S
C823 C820 1.526 . S
C823 C824 1.396 . S
C823 C828 1.390 . S
C824 C818 1.465 . S
C824 C823 1.396 . S
C824 C825 1.399 . S
C825 H811 0.929 . S
C825 C824 1.399 . S
C825 C826 1.385 . S
C826 H812 0.931 . S
C826 C825 1.385 . S
C826 C827 1.389 . S
C827 C826 1.389 . S
C827 C828 1.387 . S
C828 H813 0.930 . S
C828 C823 1.390 . S
C828 C827 1.387 . S
H829 C841 0.930 . S
H830 C843 0.930 . S
H831 C844 0.930 . S
H832 C848 0.959 . S
H833 C848 0.959 . S
H834 C848 0.961 . S
H835 C849 0.960 . S
H836 C849 0.961 . S
H837 C849 0.959 . S
H838 C852 0.929 . S
H839 C853 0.931 . S
H840 C855 0.930 . S
C841 H829 0.930 . S
C841 C842 1.399 . S
C841 C846 1.399 . S
C842 C841 1.399 . S
C842 C843 1.376 . S
C843 H830 0.930 . S
C843 C842 1.376 . S
C843 C844 1.388 . S
C844 H831 0.930 . S
C844 C843 1.388 . S
C844 C845 1.390 . S
C845 C844 1.390 . S
C845 C846 1.394 . S
C845 C851 1.465 . S
C846 C841 1.399 . S
C846 C845 1.394 . S
C846 C847 1.516 . S
C847 C846 1.516 . S
C847 C848 1.502 . S
C847 C849 1.561 . S
C847 C850 1.526 . S
C848 H832 0.959 . S
C848 H833 0.959 . S
C848 H834 0.961 . S
C848 C847 1.502 . S
C849 H835 0.960 . S
C849 H836 0.961 . S
C849 H837 0.959 . S
C849 C847 1.561 . S
C850 C847 1.526 . S
C850 C851 1.396 . S
C850 C855 1.390 . S
C851 C845 1.465 . S
C851 C850 1.396 . S
C851 C852 1.399 . S
C852 H838 0.929 . S
C852 C851 1.399 . S
C852 C853 1.385 . S
C853 H839 0.931 . S
C853 C852 1.385 . S
C853 C854 1.389 . S
C854 C853 1.389 . S
C854 C855 1.387 . S
C855 H840 0.930 . S
C855 C850 1.390 . S
C855 C854 1.387 . S
H856 C868 0.930 . S
H857 C870 0.930 . S
H858 C871 0.930 . S
H859 C875 0.959 . S
H860 C875 0.959 . S
H861 C875 0.961 . S
H862 C876 0.960 . S
H863 C876 0.961 . S
H864 C876 0.959 . S
H865 C879 0.929 . S
H866 C880 0.931 . S
H867 C882 0.930 . S
C868 H856 0.930 . S
C868 C869 1.399 . S
C868 C873 1.399 . S
C869 C868 1.399 . S
C869 C870 1.376 . S
C870 H857 0.930 . S
C870 C869 1.376 . S
C870 C871 1.388 . S
C871 H858 0.930 . S
C871 C870 1.388 . S
C871 C872 1.390 . S
C872 C871 1.390 . S
C872 C873 1.394 . S
C872 C878 1.465 . S
C873 C868 1.399 . S
C873 C872 1.394 . S
C873 C874 1.516 . S
C874 C873 1.516 . S
C874 C875 1.502 . S
C874 C876 1.561 . S
C874 C877 1.526 . S
C875 H859 0.959 . S
C875 H860 0.959 . S
C875 H861 0.961 . S
C875 C874 1.502 . S
C876 H862 0.960 . S
C876 H863 0.961 . S
C876 H864 0.959 . S
C876 C874 1.561 . S
C877 C874 1.526 . S
C877 C878 1.396 . S
C877 C882 1.390 . S
C878 C872 1.465 . S
C878 C877 1.396 . S
C878 C879 1.399 . S
C879 H865 0.929 . S
C879 C878 1.399 . S
C879 C880 1.385 . S
C880 H866 0.931 . S
C880 C879 1.385 . S
C880 C881 1.389 . S
C881 C880 1.389 . S
C881 C882 1.387 . S
C882 H867 0.930 . S
C882 C877 1.390 . S
C882 C881 1.387 . S
H883 C895 0.930 . S
H884 C897 0.930 . S
H885 C898 0.930 . S
H886 C902 0.959 . S
H887 C902 0.959 . S
H888 C902 0.961 . S
H889 C903 0.960 . S
H890 C903 0.961 . S
H891 C903 0.959 . S
H892 C906 0.929 . S
H893 C907 0.931 . S
H894 C909 0.930 . S
C895 H883 0.930 . S
C895 C896 1.399 . S
C895 C900 1.399 . S
C896 C895 1.399 . S
C896 C897 1.376 . S
C897 H884 0.930 . S
C897 C896 1.376 . S
C897 C898 1.388 . S
C898 H885 0.930 . S
C898 C897 1.388 . S
C898 C899 1.390 . S
C899 C898 1.390 . S
C899 C900 1.394 . S
C899 C905 1.465 . S
C900 C895 1.399 . S
C900 C899 1.394 . S
C900 C901 1.516 . S
C901 C900 1.516 . S
C901 C902 1.502 . S
C901 C903 1.561 . S
C901 C904 1.526 . S
C902 H886 0.959 . S
C902 H887 0.959 . S
C902 H888 0.961 . S
C902 C901 1.502 . S
C903 H889 0.960 . S
C903 H890 0.961 . S
C903 H891 0.959 . S
C903 C901 1.561 . S
C904 C901 1.526 . S
C904 C905 1.396 . S
C904 C909 1.390 . S
C905 C899 1.465 . S
C905 C904 1.396 . S
C905 C906 1.399 . S
C906 H892 0.929 . S
C906 C905 1.399 . S
C906 C907 1.385 . S
C907 H893 0.931 . S
C907 C906 1.385 . S
C907 C908 1.389 . S
C908 C907 1.389 . S
C908 C909 1.387 . S
C909 H894 0.930 . S
C909 C904 1.390 . S
C909 C908 1.387 . S
H910 C922 0.930 . S
H911 C924 0.930 . S
H912 C925 0.930 . S
H913 C929 0.959 . S
H914 C929 0.959 . S
H915 C929 0.961 . S
H916 C930 0.960 . S
H917 C930 0.961 . S
H918 C930 0.959 . S
H919 C933 0.929 . S
H920 C934 0.931 . S
H921 C936 0.930 . S
C922 H910 0.930 . S
C922 C923 1.399 . S
C922 C927 1.399 . S
C923 C922 1.399 . S
C923 C924 1.376 . S
C924 H911 0.930 . S
C924 C923 1.376 . S
C924 C925 1.388 . S
C925 H912 0.930 . S
C925 C924 1.388 . S
C925 C926 1.390 . S
C926 C925 1.390 . S
C926 C927 1.394 . S
C926 C932 1.465 . S
C927 C922 1.399 . S
C927 C926 1.394 . S
C927 C928 1.516 . S
C928 C927 1.516 . S
C928 C929 1.502 . S
C928 C930 1.561 . S
C928 C931 1.526 . S
C929 H913 0.959 . S
C929 H914 0.959 . S
C929 H915 0.961 . S
C929 C928 1.502 . S
C930 H916 0.960 . S
C930 H917 0.961 . S
C930 H918 0.959 . S
C930 C928 1.561 . S
C931 C928 1.526 . S
C931 C932 1.396 . S
C931 C936 1.390 . S
C932 C926 1.465 . S
C932 C931 1.396 . S
C932 C933 1.399 . S
C933 H919 0.929 . S
C933 C932 1.399 . S
C933 C934 1.385 . S
C934 H920 0.931 . S
C934 C933 1.385 . S
C934 C935 1.389 . S
C935 C934 1.389 . S
C935 C936 1.387 . S
C936 H921 0.930 . S
C936 C931 1.390 . S
C936 C935 1.387 . S
H937 C949 0.930 . S
H938 C951 0.930 . S
H939 C952 0.930 . S
H940 C956 0.959 . S
H941 C956 0.959 . S
H942 C956 0.961 . S
H943 C957 0.960 . S
H944 C957 0.961 . S
H945 C957 0.959 . S
H946 C960 0.929 . S
H947 C961 0.931 . S
H948 C963 0.930 . S
C949 H937 0.930 . S
C949 C950 1.399 . S
C949 C954 1.399 . S
C950 C949 1.399 . S
C950 C951 1.376 . S
C951 H938 0.930 . S
C951 C950 1.376 . S
C951 C952 1.388 . S
C952 H939 0.930 . S
C952 C951 1.388 . S
C952 C953 1.390 . S
C953 C952 1.390 . S
C953 C954 1.394 . S
C953 C959 1.465 . S
C954 C949 1.399 . S
C954 C953 1.394 . S
C954 C955 1.516 . S
C955 C954 1.516 . S
C955 C956 1.502 . S
C955 C957 1.561 . S
C955 C958 1.526 . S
C956 H940 0.959 . S
C956 H941 0.959 . S
C956 H942 0.961 . S
C956 C955 1.502 . S
C957 H943 0.960 . S
C957 H944 0.961 . S
C957 H945 0.959 . S
C957 C955 1.561 . S
C958 C955 1.526 . S
C958 C959 1.396 . S
C958 C963 1.390 . S
C959 C953 1.465 . S
C959 C958 1.396 . S
C959 C960 1.399 . S
C960 H946 0.929 . S
C960 C959 1.399 . S
C960 C961 1.385 . S
C961 H947 0.931 . S
C961 C960 1.385 . S
C961 C962 1.389 . S
C962 C961 1.389 . S
C962 C963 1.387 . S
C963 H948 0.930 . S
C963 C958 1.390 . S
C963 C962 1.387 . S
H964 C976 0.930 . S
H965 C978 0.930 . S
H966 C979 0.930 . S
H967 C983 0.959 . S
H968 C983 0.959 . S
H969 C983 0.961 . S
H970 C984 0.960 . S
H971 C984 0.961 . S
H972 C984 0.959 . S
H973 C987 0.929 . S
H974 C988 0.931 . S
H975 C990 0.930 . S
C976 H964 0.930 . S
C976 C977 1.399 . S
C976 C981 1.399 . S
C977 C976 1.399 . S
C977 C978 1.376 . S
C978 H965 0.930 . S
C978 C977 1.376 . S
C978 C979 1.388 . S
C979 H966 0.930 . S
C979 C978 1.388 . S
C979 C980 1.390 . S
C980 C979 1.390 . S
C980 C981 1.394 . S
C980 C986 1.465 . S
C981 C976 1.399 . S
C981 C980 1.394 . S
C981 C982 1.516 . S
C982 C981 1.516 . S
C982 C983 1.502 . S
C982 C984 1.561 . S
C982 C985 1.526 . S
C983 H967 0.959 . S
C983 H968 0.959 . S
C983 H969 0.961 . S
C983 C982 1.502 . S
C984 H970 0.960 . S
C984 H971 0.961 . S
C984 H972 0.959 . S
C984 C982 1.561 . S
C985 C982 1.526 . S
C985 C986 1.396 . S
C985 C990 1.390 . S
C986 C980 1.465 . S
C986 C985 1.396 . S
C986 C987 1.399 . S
C987 H973 0.929 . S
C987 C986 1.399 . S
C987 C988 1.385 . S
C988 H974 0.931 . S
C988 C987 1.385 . S
C988 C989 1.389 . S
C989 C988 1.389 . S
C989 C990 1.387 . S
C990 H975 0.930 . S
C990 C985 1.390 . S
C990 C989 1.387 . S
H991 C1003 0.930 . S
H992 C1005 0.930 . S
H993 C1006 0.930 . S
H994 C1010 0.959 . S
H995 C1010 0.959 . S
H996 C1010 0.961 . S
H997 C1011 0.960 . S
H998 C1011 0.961 . S
H999 C1011 0.959 . S
H1000 C1014 0.929 . S
H1001 C1015 0.931 . S
H1002 C1017 0.930 . S
C1003 H991 0.930 . S
C1003 C1004 1.399 . S
C1003 C1008 1.399 . S
C1004 C1003 1.399 . S
C1004 C1005 1.376 . S
C1005 H992 0.930 . S
C1005 C1004 1.376 . S
C1005 C1006 1.388 . S
C1006 H993 0.930 . S
C1006 C1005 1.388 . S
C1006 C1007 1.390 . S
C1007 C1006 1.390 . S
C1007 C1008 1.394 . S
C1007 C1013 1.465 . S
C1008 C1003 1.399 . S
C1008 C1007 1.394 . S
C1008 C1009 1.516 . S
C1009 C1008 1.516 . S
C1009 C1010 1.502 . S
C1009 C1011 1.561 . S
C1009 C1012 1.526 . S
C1010 H994 0.959 . S
C1010 H995 0.959 . S
C1010 H996 0.961 . S
C1010 C1009 1.502 . S
C1011 H997 0.960 . S
C1011 H998 0.961 . S
C1011 H999 0.959 . S
C1011 C1009 1.561 . S
C1012 C1009 1.526 . S
C1012 C1013 1.396 . S
C1012 C1017 1.390 . S
C1013 C1007 1.465 . S
C1013 C1012 1.396 . S
C1013 C1014 1.399 . S
C1014 H1000 0.929 . S
C1014 C1013 1.399 . S
C1014 C1015 1.385 . S
C1015 H1001 0.931 . S
C1015 C1014 1.385 . S
C1015 C1016 1.389 . S
C1016 C1015 1.389 . S
C1016 C1017 1.387 . S
C1017 H1002 0.930 . S
C1017 C1012 1.390 . S
C1017 C1016 1.387 . S
H1018 C1030 0.930 . S
H1019 C1032 0.930 . S
H1020 C1033 0.930 . S
H1021 C1037 0.959 . S
H1022 C1037 0.959 . S
H1023 C1037 0.961 . S
H1024 C1038 0.960 . S
H1025 C1038 0.961 . S
H1026 C1038 0.959 . S
H1027 C1041 0.929 . S
H1028 C1042 0.931 . S
H1029 C1044 0.930 . S
C1030 H1018 0.930 . S
C1030 C1031 1.399 . S
C1030 C1035 1.399 . S
C1031 C1030 1.399 . S
C1031 C1032 1.376 . S
C1032 H1019 0.930 . S
C1032 C1031 1.376 . S
C1032 C1033 1.388 . S
C1033 H1020 0.930 . S
C1033 C1032 1.388 . S
C1033 C1034 1.390 . S
C1034 C1033 1.390 . S
C1034 C1035 1.394 . S
C1034 C1040 1.465 . S
C1035 C1030 1.399 . S
C1035 C1034 1.394 . S
C1035 C1036 1.516 . S
C1036 C1035 1.516 . S
C1036 C1037 1.502 . S
C1036 C1038 1.561 . S
C1036 C1039 1.526 . S
C1037 H1021 0.959 . S
C1037 H1022 0.959 . S
C1037 H1023 0.961 . S
C1037 C1036 1.502 . S
C1038 H1024 0.960 . S
C1038 H1025 0.961 . S
C1038 H1026 0.959 . S
C1038 C1036 1.561 . S
C1039 C1036 1.526 . S
C1039 C1040 1.396 . S
C1039 C1044 1.390 . S
C1040 C1034 1.465 . S
C1040 C1039 1.396 . S
C1040 C1041 1.399 . S
C1041 H1027 0.929 . S
C1041 C1040 1.399 . S
C1041 C1042 1.385 . S
C1042 H1028 0.931 . S
C1042 C1041 1.385 . S
C1042 C1043 1.389 . S
C1043 C1042 1.389 . S
C1043 C1044 1.387 . S
C1044 H1029 0.930 . S
C1044 C1039 1.390 . S
C1044 C1043 1.387 . S
H1045 C1057 0.930 . S
H1046 C1059 0.930 . S
H1047 C1060 0.930 . S
H1048 C1064 0.959 . S
H1049 C1064 0.959 . S
H1050 C1064 0.961 . S
H1051 C1065 0.960 . S
H1052 C1065 0.961 . S
H1053 C1065 0.959 . S
H1054 C1068 0.929 . S
H1055 C1069 0.931 . S
H1056 C1071 0.930 . S
C1057 H1045 0.930 . S
C1057 C1058 1.399 . S
C1057 C1062 1.399 . S
C1058 C1057 1.399 . S
C1058 C1059 1.376 . S
C1059 H1046 0.930 . S
C1059 C1058 1.376 . S
C1059 C1060 1.388 . S
C1060 H1047 0.930 . S
C1060 C1059 1.388 . S
C1060 C1061 1.390 . S
C1061 C1060 1.390 . S
C1061 C1062 1.394 . S
C1061 C1067 1.465 . S
C1062 C1057 1.399 . S
C1062 C1061 1.394 . S
C1062 C1063 1.516 . S
C1063 C1062 1.516 . S
C1063 C1064 1.502 . S
C1063 C1065 1.561 . S
C1063 C1066 1.526 . S
C1064 H1048 0.959 . S
C1064 H1049 0.959 . S
C1064 H1050 0.961 . S
C1064 C1063 1.502 . S
C1065 H1051 0.960 . S
C1065 H1052 0.961 . S
C1065 H1053 0.959 . S
C1065 C1063 1.561 . S
C1066 C1063 1.526 . S
C1066 C1067 1.396 . S
C1066 C1071 1.390 . S
C1067 C1061 1.465 . S
C1067 C1066 1.396 . S
C1067 C1068 1.399 . S
C1068 H1054 0.929 . S
C1068 C1067 1.399 . S
C1068 C1069 1.385 . S
C1069 H1055 0.931 . S
C1069 C1068 1.385 . S
C1069 C1070 1.389 . S
C1070 C1069 1.389 . S
C1070 C1071 1.387 . S
C1071 H1056 0.930 . S
C1071 C1066 1.390 . S
C1071 C1070 1.387 . S
H1072 C1084 0.930 . S
H1073 C1086 0.930 . S
H1074 C1087 0.930 . S
H1075 C1091 0.959 . S
H1076 C1091 0.959 . S
H1077 C1091 0.961 . S
H1078 C1092 0.960 . S
H1079 C1092 0.961 . S
H1080 C1092 0.959 . S
H1081 C1095 0.929 . S
H1082 C1096 0.931 . S
H1083 C1098 0.930 . S
C1084 H1072 0.930 . S
C1084 C1085 1.399 . S
C1084 C1089 1.399 . S
C1085 C1084 1.399 . S
C1085 C1086 1.376 . S
C1086 H1073 0.930 . S
C1086 C1085 1.376 . S
C1086 C1087 1.388 . S
C1087 H1074 0.930 . S
C1087 C1086 1.388 . S
C1087 C1088 1.390 . S
C1088 C1087 1.390 . S
C1088 C1089 1.394 . S
C1088 C1094 1.465 . S
C1089 C1084 1.399 . S
C1089 C1088 1.394 . S
C1089 C1090 1.516 . S
C1090 C1089 1.516 . S
C1090 C1091 1.502 . S
C1090 C1092 1.561 . S
C1090 C1093 1.526 . S
C1091 H1075 0.959 . S
C1091 H1076 0.959 . S
C1091 H1077 0.961 . S
C1091 C1090 1.502 . S
C1092 H1078 0.960 . S
C1092 H1079 0.961 . S
C1092 H1080 0.959 . S
C1092 C1090 1.561 . S
C1093 C1090 1.526 . S
C1093 C1094 1.396 . S
C1093 C1098 1.390 . S
C1094 C1088 1.465 . S
C1094 C1093 1.396 . S
C1094 C1095 1.399 . S
C1095 H1081 0.929 . S
C1095 C1094 1.399 . S
C1095 C1096 1.385 . S
C1096 H1082 0.931 . S
C1096 C1095 1.385 . S
C1096 C1097 1.389 . S
C1097 C1096 1.389 . S
C1097 C1098 1.387 . S
C1098 H1083 0.930 . S
C1098 C1093 1.390 . S
C1098 C1097 1.387 . S
H1099 C1111 0.930 . S
H1100 C1113 0.930 . S
H1101 C1114 0.930 . S
H1102 C1118 0.959 . S
H1103 C1118 0.959 . S
H1104 C1118 0.961 . S
H1105 C1119 0.960 . S
H1106 C1119 0.961 . S
H1107 C1119 0.959 . S
H1108 C1122 0.929 . S
H1109 C1123 0.931 . S
H1110 C1125 0.930 . S
C1111 H1099 0.930 . S
C1111 C1112 1.399 . S
C1111 C1116 1.399 . S
C1112 C1111 1.399 . S
C1112 C1113 1.376 . S
C1113 H1100 0.930 . S
C1113 C1112 1.376 . S
C1113 C1114 1.388 . S
C1114 H1101 0.930 . S
C1114 C1113 1.388 . S
C1114 C1115 1.390 . S
C1115 C1114 1.390 . S
C1115 C1116 1.394 . S
C1115 C1121 1.465 . S
C1116 C1111 1.399 . S
C1116 C1115 1.394 . S
C1116 C1117 1.516 . S
C1117 C1116 1.516 . S
C1117 C1118 1.502 . S
C1117 C1119 1.561 . S
C1117 C1120 1.526 . S
C1118 H1102 0.959 . S
C1118 H1103 0.959 . S
C1118 H1104 0.961 . S
C1118 C1117 1.502 . S
C1119 H1105 0.960 . S
C1119 H1106 0.961 . S
C1119 H1107 0.959 . S
C1119 C1117 1.561 . S
C1120 C1117 1.526 . S
C1120 C1121 1.396 . S
C1120 C1125 1.390 . S
C1121 C1115 1.465 . S
C1121 C1120 1.396 . S
C1121 C1122 1.399 . S
C1122 H1108 0.929 . S
C1122 C1121 1.399 . S
C1122 C1123 1.385 . S
C1123 H1109 0.931 . S
C1123 C1122 1.385 . S
C1123 C1124 1.389 . S
C1124 C1123 1.389 . S
C1124 C1125 1.387 . S
C1125 H1110 0.930 . S
C1125 C1120 1.390 . S
C1125 C1124 1.387 . S
H1126 C1138 0.930 . S
H1127 C1140 0.930 . S
H1128 C1141 0.930 . S
H1129 C1145 0.959 . S
H1130 C1145 0.959 . S
H1131 C1145 0.961 . S
H1132 C1146 0.960 . S
H1133 C1146 0.961 . S
H1134 C1146 0.959 . S
H1135 C1149 0.929 . S
H1136 C1150 0.931 . S
H1137 C1152 0.930 . S
C1138 H1126 0.930 . S
C1138 C1139 1.399 . S
C1138 C1143 1.399 . S
C1139 C1138 1.399 . S
C1139 C1140 1.376 . S
C1140 H1127 0.930 . S
C1140 C1139 1.376 . S
C1140 C1141 1.388 . S
C1141 H1128 0.930 . S
C1141 C1140 1.388 . S
C1141 C1142 1.390 . S
C1142 C1141 1.390 . S
C1142 C1143 1.394 . S
C1142 C1148 1.465 . S
C1143 C1138 1.399 . S
C1143 C1142 1.394 . S
C1143 C1144 1.516 . S
C1144 C1143 1.516 . S
C1144 C1145 1.502 . S
C1144 C1146 1.561 . S
C1144 C1147 1.526 . S
C1145 H1129 0.959 . S
C1145 H1130 0.959 . S
C1145 H1131 0.961 . S
C1145 C1144 1.502 . S
C1146 H1132 0.960 . S
C1146 H1133 0.961 . S
C1146 H1134 0.959 . S
C1146 C1144 1.561 . S
C1147 C1144 1.526 . S
C1147 C1148 1.396 . S
C1147 C1152 1.390 . S
C1148 C1142 1.465 . S
C1148 C1147 1.396 . S
C1148 C1149 1.399 . S
C1149 H1135 0.929 . S
C1149 C1148 1.399 . S
C1149 C1150 1.385 . S
C1150 H1136 0.931 . S
C1150 C1149 1.385 . S
C1150 C1151 1.389 . S
C1151 C1150 1.389 . S
C1151 C1152 1.387 . S
C1152 H1137 0.930 . S
C1152 C1147 1.390 . S
C1152 C1151 1.387 . S
H1153 C1165 0.930 . S
H1154 C1167 0.930 . S
H1155 C1168 0.930 . S
H1156 C1172 0.959 . S
H1157 C1172 0.959 . S
H1158 C1172 0.961 . S
H1159 C1173 0.960 . S
H1160 C1173 0.961 . S
H1161 C1173 0.959 . S
H1162 C1176 0.929 . S
H1163 C1177 0.931 . S
H1164 C1179 0.930 . S
C1165 H1153 0.930 . S
C1165 C1166 1.399 . S
C1165 C1170 1.399 . S
C1166 C1165 1.399 . S
C1166 C1167 1.376 . S
C1167 H1154 0.930 . S
C1167 C1166 1.376 . S
C1167 C1168 1.388 . S
C1168 H1155 0.930 . S
C1168 C1167 1.388 . S
C1168 C1169 1.390 . S
C1169 C1168 1.390 . S
C1169 C1170 1.394 . S
C1169 C1175 1.465 . S
C1170 C1165 1.399 . S
C1170 C1169 1.394 . S
C1170 C1171 1.516 . S
C1171 C1170 1.516 . S
C1171 C1172 1.502 . S
C1171 C1173 1.561 . S
C1171 C1174 1.526 . S
C1172 H1156 0.959 . S
C1172 H1157 0.959 . S
C1172 H1158 0.961 . S
C1172 C1171 1.502 . S
C1173 H1159 0.960 . S
C1173 H1160 0.961 . S
C1173 H1161 0.959 . S
C1173 C1171 1.561 . S
C1174 C1171 1.526 . S
C1174 C1175 1.396 . S
C1174 C1179 1.390 . S
C1175 C1169 1.465 . S
C1175 C1174 1.396 . S
C1175 C1176 1.399 . S
C1176 H1162 0.929 . S
C1176 C1175 1.399 . S
C1176 C1177 1.385 . S
C1177 H1163 0.931 . S
C1177 C1176 1.385 . S
C1177 C1178 1.389 . S
C1178 C1177 1.389 . S
C1178 C1179 1.387 . S
C1179 H1164 0.930 . S
C1179 C1174 1.390 . S
C1179 C1178 1.387 . S
H1180 C1192 0.930 . S
H1181 C1194 0.930 . S
H1182 C1195 0.930 . S
H1183 C1199 0.959 . S
H1184 C1199 0.959 . S
H1185 C1199 0.961 . S
H1186 C1200 0.960 . S
H1187 C1200 0.961 . S
H1188 C1200 0.959 . S
H1189 C1203 0.929 . S
H1190 C1204 0.931 . S
H1191 C1206 0.930 . S
C1192 H1180 0.930 . S
C1192 C1193 1.399 . S
C1192 C1197 1.399 . S
C1193 C1192 1.399 . S
C1193 C1194 1.376 . S
C1194 H1181 0.930 . S
C1194 C1193 1.376 . S
C1194 C1195 1.388 . S
C1195 H1182 0.930 . S
C1195 C1194 1.388 . S
C1195 C1196 1.390 . S
C1196 C1195 1.390 . S
C1196 C1197 1.394 . S
C1196 C1202 1.465 . S
C1197 C1192 1.399 . S
C1197 C1196 1.394 . S
C1197 C1198 1.516 . S
C1198 C1197 1.516 . S
C1198 C1199 1.502 . S
C1198 C1200 1.561 . S
C1198 C1201 1.526 . S
C1199 H1183 0.959 . S
C1199 H1184 0.959 . S
C1199 H1185 0.961 . S
C1199 C1198 1.502 . S
C1200 H1186 0.960 . S
C1200 H1187 0.961 . S
C1200 H1188 0.959 . S
C1200 C1198 1.561 . S
C1201 C1198 1.526 . S
C1201 C1202 1.396 . S
C1201 C1206 1.390 . S
C1202 C1196 1.465 . S
C1202 C1201 1.396 . S
C1202 C1203 1.399 . S
C1203 H1189 0.929 . S
C1203 C1202 1.399 . S
C1203 C1204 1.385 . S
C1204 H1190 0.931 . S
C1204 C1203 1.385 . S
C1204 C1205 1.389 . S
C1205 C1204 1.389 . S
C1205 C1206 1.387 . S
C1206 H1191 0.930 . S
C1206 C1201 1.390 . S
C1206 C1205 1.387 . S
H1207 C1219 0.930 . S
H1208 C1221 0.930 . S
H1209 C1222 0.930 . S
H1210 C1226 0.959 . S
H1211 C1226 0.959 . S
H1212 C1226 0.961 . S
H1213 C1227 0.960 . S
H1214 C1227 0.961 . S
H1215 C1227 0.959 . S
H1216 C1230 0.929 . S
H1217 C1231 0.931 . S
H1218 C1233 0.930 . S
C1219 H1207 0.930 . S
C1219 C1220 1.399 . S
C1219 C1224 1.399 . S
C1220 C1219 1.399 . S
C1220 C1221 1.376 . S
C1221 H1208 0.930 . S
C1221 C1220 1.376 . S
C1221 C1222 1.388 . S
C1222 H1209 0.930 . S
C1222 C1221 1.388 . S
C1222 C1223 1.390 . S
C1223 C1222 1.390 . S
C1223 C1224 1.394 . S
C1223 C1229 1.465 . S
C1224 C1219 1.399 . S
C1224 C1223 1.394 . S
C1224 C1225 1.516 . S
C1225 C1224 1.516 . S
C1225 C1226 1.502 . S
C1225 C1227 1.561 . S
C1225 C1228 1.526 . S
C1226 H1210 0.959 . S
C1226 H1211 0.959 . S
C1226 H1212 0.961 . S
C1226 C1225 1.502 . S
C1227 H1213 0.960 . S
C1227 H1214 0.961 . S
C1227 H1215 0.959 . S
C1227 C1225 1.561 . S
C1228 C1225 1.526 . S
C1228 C1229 1.396 . S
C1228 C1233 1.390 . S
C1229 C1223 1.465 . S
C1229 C1228 1.396 . S
C1229 C1230 1.399 . S
C1230 H1216 0.929 . S
C1230 C1229 1.399 . S
C1230 C1231 1.385 . S
C1231 H1217 0.931 . S
C1231 C1230 1.385 . S
C1231 C1232 1.389 . S
C1232 C1231 1.389 . S
C1232 C1233 1.387 . S
C1233 H1218 0.930 . S
C1233 C1228 1.390 . S
C1233 C1232 1.387 . S
H1234 C1246 0.930 . S
H1235 C1248 0.930 . S
H1236 C1249 0.930 . S
H1237 C1253 0.959 . S
H1238 C1253 0.959 . S
H1239 C1253 0.961 . S
H1240 C1254 0.960 . S
H1241 C1254 0.961 . S
H1242 C1254 0.959 . S
H1243 C1257 0.929 . S
H1244 C1258 0.931 . S
H1245 C1260 0.930 . S
C1246 H1234 0.930 . S
C1246 C1247 1.399 . S
C1246 C1251 1.399 . S
C1247 C1246 1.399 . S
C1247 C1248 1.376 . S
C1248 H1235 0.930 . S
C1248 C1247 1.376 . S
C1248 C1249 1.388 . S
C1249 H1236 0.930 . S
C1249 C1248 1.388 . S
C1249 C1250 1.390 . S
C1250 C1249 1.390 . S
C1250 C1251 1.394 . S
C1250 C1256 1.465 . S
C1251 C1246 1.399 . S
C1251 C1250 1.394 . S
C1251 C1252 1.516 . S
C1252 C1251 1.516 . S
C1252 C1253 1.502 . S
C1252 C1254 1.561 . S
C1252 C1255 1.526 . S
C1253 H1237 0.959 . S
C1253 H1238 0.959 . S
C1253 H1239 0.961 . S
C1253 C1252 1.502 . S
C1254 H1240 0.960 . S
C1254 H1241 0.961 . S
C1254 H1242 0.959 . S
C1254 C1252 1.561 . S
C1255 C1252 1.526 . S
C1255 C1256 1.396 . S
C1255 C1260 1.390 . S
C1256 C1250 1.465 . S
C1256 C1255 1.396 . S
C1256 C1257 1.399 . S
C1257 H1243 0.929 . S
C1257 C1256 1.399 . S
C1257 C1258 1.385 . S
C1258 H1244 0.931 . S
C1258 C1257 1.385 . S
C1258 C1259 1.389 . S
C1259 C1258 1.389 . S
C1259 C1260 1.387 . S
C1260 H1245 0.930 . S
C1260 C1255 1.390 . S
C1260 C1259 1.387 . S
H1261 C1273 0.930 . S
H1262 C1275 0.930 . S
H1263 C1276 0.930 . S
H1264 C1280 0.959 . S
H1265 C1280 0.959 . S
H1266 C1280 0.961 . S
H1267 C1281 0.960 . S
H1268 C1281 0.961 . S
H1269 C1281 0.959 . S
H1270 C1284 0.929 . S
H1271 C1285 0.931 . S
H1272 C1287 0.930 . S
C1273 H1261 0.930 . S
C1273 C1274 1.399 . S
C1273 C1278 1.399 . S
C1274 C1273 1.399 . S
C1274 C1275 1.376 . S
C1275 H1262 0.930 . S
C1275 C1274 1.376 . S
C1275 C1276 1.388 . S
C1276 H1263 0.930 . S
C1276 C1275 1.388 . S
C1276 C1277 1.390 . S
C1277 C1276 1.390 . S
C1277 C1278 1.394 . S
C1277 C1283 1.465 . S
C1278 C1273 1.399 . S
C1278 C1277 1.394 . S
C1278 C1279 1.516 . S
C1279 C1278 1.516 . S
C1279 C1280 1.502 . S
C1279 C1281 1.561 . S
C1279 C1282 1.526 . S
C1280 H1264 0.959 . S
C1280 H1265 0.959 . S
C1280 H1266 0.961 . S
C1280 C1279 1.502 . S
C1281 H1267 0.960 . S
C1281 H1268 0.961 . S
C1281 H1269 0.959 . S
C1281 C1279 1.561 . S
C1282 C1279 1.526 . S
C1282 C1283 1.396 . S
C1282 C1287 1.390 . S
C1283 C1277 1.465 . S
C1283 C1282 1.396 . S
C1283 C1284 1.399 . S
C1284 H1270 0.929 . S
C1284 C1283 1.399 . S
C1284 C1285 1.385 . S
C1285 H1271 0.931 . S
C1285 C1284 1.385 . S
C1285 C1286 1.389 . S
C1286 C1285 1.389 . S
C1286 C1287 1.387 . S
C1287 H1272 0.930 . S
C1287 C1282 1.390 . S
C1287 C1286 1.387 . S
H1288 C1300 0.930 . S
H1289 C1302 0.930 . S
H1290 C1303 0.930 . S
H1291 C1307 0.959 . S
H1292 C1307 0.959 . S
H1293 C1307 0.961 . S
H1294 C1308 0.960 . S
H1295 C1308 0.961 . S
H1296 C1308 0.959 . S
H1297 C1311 0.929 . S
H1298 C1312 0.931 . S
H1299 C1314 0.930 . S
C1300 H1288 0.930 . S
C1300 C1301 1.399 . S
C1300 C1305 1.399 . S
C1301 C1300 1.399 . S
C1301 C1302 1.376 . S
C1302 H1289 0.930 . S
C1302 C1301 1.376 . S
C1302 C1303 1.388 . S
C1303 H1290 0.930 . S
C1303 C1302 1.388 . S
C1303 C1304 1.390 . S
C1304 C1303 1.390 . S
C1304 C1305 1.394 . S
C1304 C1310 1.465 . S
C1305 C1300 1.399 . S
C1305 C1304 1.394 . S
C1305 C1306 1.516 . S
C1306 C1305 1.516 . S
C1306 C1307 1.502 . S
C1306 C1308 1.561 . S
C1306 C1309 1.526 . S
C1307 H1291 0.959 . S
C1307 H1292 0.959 . S
C1307 H1293 0.961 . S
C1307 C1306 1.502 . S
C1308 H1294 0.960 . S
C1308 H1295 0.961 . S
C1308 H1296 0.959 . S
C1308 C1306 1.561 . S
C1309 C1306 1.526 . S
C1309 C1310 1.396 . S
C1309 C1314 1.390 . S
C1310 C1304 1.465 . S
C1310 C1309 1.396 . S
C1310 C1311 1.399 . S
C1311 H1297 0.929 . S
C1311 C1310 1.399 . S
C1311 C1312 1.385 . S
C1312 H1298 0.931 . S
C1312 C1311 1.385 . S
C1312 C1313 1.389 . S
C1313 C1312 1.389 . S
C1313 C1314 1.387 . S
C1314 H1299 0.930 . S
C1314 C1309 1.390 . S
C1314 C1313 1.387 . S
H1315 C1327 0.930 . S
H1316 C1329 0.930 . S
H1317 C1330 0.930 . S
H1318 C1334 0.959 . S
H1319 C1334 0.959 . S
H1320 C1334 0.961 . S
H1321 C1335 0.960 . S
H1322 C1335 0.961 . S
H1323 C1335 0.959 . S
H1324 C1338 0.929 . S
H1325 C1339 0.931 . S
H1326 C1341 0.930 . S
C1327 H1315 0.930 . S
C1327 C1328 1.399 . S
C1327 C1332 1.399 . S
C1328 C1327 1.399 . S
C1328 C1329 1.376 . S
C1329 H1316 0.930 . S
C1329 C1328 1.376 . S
C1329 C1330 1.388 . S
C1330 H1317 0.930 . S
C1330 C1329 1.388 . S
C1330 C1331 1.390 . S
C1331 C1330 1.390 . S
C1331 C1332 1.394 . S
C1331 C1337 1.465 . S
C1332 C1327 1.399 . S
C1332 C1331 1.394 . S
C1332 C1333 1.516 . S
C1333 C1332 1.516 . S
C1333 C1334 1.502 . S
C1333 C1335 1.561 . S
C1333 C1336 1.526 . S
C1334 H1318 0.959 . S
C1334 H1319 0.959 . S
C1334 H1320 0.961 . S
C1334 C1333 1.502 . S
C1335 H1321 0.960 . S
C1335 H1322 0.961 . S
C1335 H1323 0.959 . S
C1335 C1333 1.561 . S
C1336 C1333 1.526 . S
C1336 C1337 1.396 . S
C1336 C1341 1.390 . S
C1337 C1331 1.465 . S
C1337 C1336 1.396 . S
C1337 C1338 1.399 . S
C1338 H1324 0.929 . S
C1338 C1337 1.399 . S
C1338 C1339 1.385 . S
C1339 H1325 0.931 . S
C1339 C1338 1.385 . S
C1339 C1340 1.389 . S
C1340 C1339 1.389 . S
C1340 C1341 1.387 . S
C1341 H1326 0.930 . S
C1341 C1336 1.390 . S
C1341 C1340 1.387 . S
H1342 C1354 0.930 . S
H1343 C1356 0.930 . S
H1344 C1357 0.930 . S
H1345 C1361 0.959 . S
H1346 C1361 0.959 . S
H1347 C1361 0.961 . S
H1348 C1362 0.960 . S
H1349 C1362 0.961 . S
H1350 C1362 0.959 . S
H1351 C1365 0.929 . S
H1352 C1366 0.931 . S
H1353 C1368 0.930 . S
C1354 H1342 0.930 . S
C1354 C1355 1.399 . S
C1354 C1359 1.399 . S
C1355 C1354 1.399 . S
C1355 C1356 1.376 . S
C1356 H1343 0.930 . S
C1356 C1355 1.376 . S
C1356 C1357 1.388 . S
C1357 H1344 0.930 . S
C1357 C1356 1.388 . S
C1357 C1358 1.390 . S
C1358 C1357 1.390 . S
C1358 C1359 1.394 . S
C1358 C1364 1.465 . S
C1359 C1354 1.399 . S
C1359 C1358 1.394 . S
C1359 C1360 1.516 . S
C1360 C1359 1.516 . S
C1360 C1361 1.502 . S
C1360 C1362 1.561 . S
C1360 C1363 1.526 . S
C1361 H1345 0.959 . S
C1361 H1346 0.959 . S
C1361 H1347 0.961 . S
C1361 C1360 1.502 . S
C1362 H1348 0.960 . S
C1362 H1349 0.961 . S
C1362 H1350 0.959 . S
C1362 C1360 1.561 . S
C1363 C1360 1.526 . S
C1363 C1364 1.396 . S
C1363 C1368 1.390 . S
C1364 C1358 1.465 . S
C1364 C1363 1.396 . S
C1364 C1365 1.399 . S
C1365 H1351 0.929 . S
C1365 C1364 1.399 . S
C1365 C1366 1.385 . S
C1366 H1352 0.931 . S
C1366 C1365 1.385 . S
C1366 C1367 1.389 . S
C1367 C1366 1.389 . S
C1367 C1368 1.387 . S
C1368 H1353 0.930 . S
C1368 C1363 1.390 . S
C1368 C1367 1.387 . S
H1369 C1381 0.930 . S
H1370 C1383 0.930 . S
H1371 C1384 0.930 . S
H1372 C1388 0.959 . S
H1373 C1388 0.959 . S
H1374 C1388 0.961 . S
H1375 C1389 0.960 . S
H1376 C1389 0.961 . S
H1377 C1389 0.959 . S
H1378 C1392 0.929 . S
H1379 C1393 0.931 . S
H1380 C1395 0.930 . S
C1381 H1369 0.930 . S
C1381 C1382 1.399 . S
C1381 C1386 1.399 . S
C1382 C1381 1.399 . S
C1382 C1383 1.376 . S
C1383 H1370 0.930 . S
C1383 C1382 1.376 . S
C1383 C1384 1.388 . S
C1384 H1371 0.930 . S
C1384 C1383 1.388 . S
C1384 C1385 1.390 . S
C1385 C1384 1.390 . S
C1385 C1386 1.394 . S
C1385 C1391 1.465 . S
C1386 C1381 1.399 . S
C1386 C1385 1.394 . S
C1386 C1387 1.516 . S
C1387 C1386 1.516 . S
C1387 C1388 1.502 . S
C1387 C1389 1.561 . S
C1387 C1390 1.526 . S
C1388 H1372 0.959 . S
C1388 H1373 0.959 . S
C1388 H1374 0.961 . S
C1388 C1387 1.502 . S
C1389 H1375 0.960 . S
C1389 H1376 0.961 . S
C1389 H1377 0.959 . S
C1389 C1387 1.561 . S
C1390 C1387 1.526 . S
C1390 C1391 1.396 . S
C1390 C1395 1.390 . S
C1391 C1385 1.465 . S
C1391 C1390 1.396 . S
C1391 C1392 1.399 . S
C1392 H1378 0.929 . S
C1392 C1391 1.399 . S
C1392 C1393 1.385 . S
C1393 H1379 0.931 . S
C1393 C1392 1.385 . S
C1393 C1394 1.389 . S
C1394 C1393 1.389 . S
C1394 C1395 1.387 . S
C1395 H1380 0.930 . S
C1395 C1390 1.390 . S
C1395 C1394 1.387 . S
H1396 C1408 0.930 . S
H1397 C1410 0.930 . S
H1398 C1411 0.930 . S
H1399 C1415 0.959 . S
H1400 C1415 0.959 . S
H1401 C1415 0.961 . S
H1402 C1416 0.960 . S
H1403 C1416 0.961 . S
H1404 C1416 0.959 . S
H1405 C1419 0.929 . S
H1406 C1420 0.931 . S
H1407 C1422 0.930 . S
C1408 H1396 0.930 . S
C1408 C1409 1.399 . S
C1408 C1413 1.399 . S
C1409 C1408 1.399 . S
C1409 C1410 1.376 . S
C1410 H1397 0.930 . S
C1410 C1409 1.376 . S
C1410 C1411 1.388 . S
C1411 H1398 0.930 . S
C1411 C1410 1.388 . S
C1411 C1412 1.390 . S
C1412 C1411 1.390 . S
C1412 C1413 1.394 . S
C1412 C1418 1.465 . S
C1413 C1408 1.399 . S
C1413 C1412 1.394 . S
C1413 C1414 1.516 . S
C1414 C1413 1.516 . S
C1414 C1415 1.502 . S
C1414 C1416 1.561 . S
C1414 C1417 1.526 . S
C1415 H1399 0.959 . S
C1415 H1400 0.959 . S
C1415 H1401 0.961 . S
C1415 C1414 1.502 . S
C1416 H1402 0.960 . S
C1416 H1403 0.961 . S
C1416 H1404 0.959 . S
C1416 C1414 1.561 . S
C1417 C1414 1.526 . S
C1417 C1418 1.396 . S
C1417 C1422 1.390 . S
C1418 C1412 1.465 . S
C1418 C1417 1.396 . S
C1418 C1419 1.399 . S
C1419 H1405 0.929 . S
C1419 C1418 1.399 . S
C1419 C1420 1.385 . S
C1420 H1406 0.931 . S
C1420 C1419 1.385 . S
C1420 C1421 1.389 . S
C1421 C1420 1.389 . S
C1421 C1422 1.387 . S
C1422 H1407 0.930 . S
C1422 C1417 1.390 . S
C1422 C1421 1.387 . S
H1423 C1435 0.930 . S
H1424 C1437 0.930 . S
H1425 C1438 0.930 . S
H1426 C1442 0.959 . S
H1427 C1442 0.959 . S
H1428 C1442 0.961 . S
H1429 C1443 0.960 . S
H1430 C1443 0.961 . S
H1431 C1443 0.959 . S
H1432 C1446 0.929 . S
H1433 C1447 0.931 . S
H1434 C1449 0.930 . S
C1435 H1423 0.930 . S
C1435 C1436 1.399 . S
C1435 C1440 1.399 . S
C1436 C1435 1.399 . S
C1436 C1437 1.376 . S
C1437 H1424 0.930 . S
C1437 C1436 1.376 . S
C1437 C1438 1.388 . S
C1438 H1425 0.930 . S
C1438 C1437 1.388 . S
C1438 C1439 1.390 . S
C1439 C1438 1.390 . S
C1439 C1440 1.394 . S
C1439 C1445 1.465 . S
C1440 C1435 1.399 . S
C1440 C1439 1.394 . S
C1440 C1441 1.516 . S
C1441 C1440 1.516 . S
C1441 C1442 1.502 . S
C1441 C1443 1.561 . S
C1441 C1444 1.526 . S
C1442 H1426 0.959 . S
C1442 H1427 0.959 . S
C1442 H1428 0.961 . S
C1442 C1441 1.502 . S
C1443 H1429 0.960 . S
C1443 H1430 0.961 . S
C1443 H1431 0.959 . S
C1443 C1441 1.561 . S
C1444 C1441 1.526 . S
C1444 C1445 1.396 . S
C1444 C1449 1.390 . S
C1445 C1439 1.465 . S
C1445 C1444 1.396 . S
C1445 C1446 1.399 . S
C1446 H1432 0.929 . S
C1446 C1445 1.399 . S
C1446 C1447 1.385 . S
C1447 H1433 0.931 . S
C1447 C1446 1.385 . S
C1447 C1448 1.389 . S
C1448 C1447 1.389 . S
C1448 C1449 1.387 . S
C1449 H1434 0.930 . S
C1449 C1444 1.390 . S
C1449 C1448 1.387 . S
H1450 C1462 0.930 . S
H1451 C1464 0.930 . S
H1452 C1465 0.930 . S
H1453 C1469 0.959 . S
H1454 C1469 0.959 . S
H1455 C1469 0.961 . S
H1456 C1470 0.960 . S
H1457 C1470 0.961 . S
H1458 C1470 0.959 . S
H1459 C1473 0.929 . S
H1460 C1474 0.931 . S
H1461 C1476 0.930 . S
C1462 H1450 0.930 . S
C1462 C1463 1.399 . S
C1462 C1467 1.399 . S
C1463 C1462 1.399 . S
C1463 C1464 1.376 . S
C1464 H1451 0.930 . S
C1464 C1463 1.376 . S
C1464 C1465 1.388 . S
C1465 H1452 0.930 . S
C1465 C1464 1.388 . S
C1465 C1466 1.390 . S
C1466 C1465 1.390 . S
C1466 C1467 1.394 . S
C1466 C1472 1.465 . S
C1467 C1462 1.399 . S
C1467 C1466 1.394 . S
C1467 C1468 1.516 . S
C1468 C1467 1.516 . S
C1468 C1469 1.502 . S
C1468 C1470 1.561 . S
C1468 C1471 1.526 . S
C1469 H1453 0.959 . S
C1469 H1454 0.959 . S
C1469 H1455 0.961 . S
C1469 C1468 1.502 . S
C1470 H1456 0.960 . S
C1470 H1457 0.961 . S
C1470 H1458 0.959 . S
C1470 C1468 1.561 . S
C1471 C1468 1.526 . S
C1471 C1472 1.396 . S
C1471 C1476 1.390 . S
C1472 C1466 1.465 . S
C1472 C1471 1.396 . S
C1472 C1473 1.399 . S
C1473 H1459 0.929 . S
C1473 C1472 1.399 . S
C1473 C1474 1.385 . S
C1474 H1460 0.931 . S
C1474 C1473 1.385 . S
C1474 C1475 1.389 . S
C1475 C1474 1.389 . S
C1475 C1476 1.387 . S
C1476 H1461 0.930 . S
C1476 C1471 1.390 . S
C1476 C1475 1.387 . S
H1477 C1489 0.930 . S
H1478 C1491 0.930 . S
H1479 C1492 0.930 . S
H1480 C1496 0.959 . S
H1481 C1496 0.959 . S
H1482 C1496 0.961 . S
H1483 C1497 0.960 . S
H1484 C1497 0.961 . S
H1485 C1497 0.959 . S
H1486 C1500 0.929 . S
H1487 C1501 0.931 . S
H1488 C1503 0.930 . S
C1489 H1477 0.930 . S
C1489 C1490 1.399 . S
C1489 C1494 1.399 . S
C1490 C1489 1.399 . S
C1490 C1491 1.376 . S
C1491 H1478 0.930 . S
C1491 C1490 1.376 . S
C1491 C1492 1.388 . S
C1492 H1479 0.930 . S
C1492 C1491 1.388 . S
C1492 C1493 1.390 . S
C1493 C1492 1.390 . S
C1493 C1494 1.394 . S
C1493 C1499 1.465 . S
C1494 C1489 1.399 . S
C1494 C1493 1.394 . S
C1494 C1495 1.516 . S
C1495 C1494 1.516 . S
C1495 C1496 1.502 . S
C1495 C1497 1.561 . S
C1495 C1498 1.526 . S
C1496 H1480 0.959 . S
C1496 H1481 0.959 . S
C1496 H1482 0.961 . S
C1496 C1495 1.502 . S
C1497 H1483 0.960 . S
C1497 H1484 0.961 . S
C1497 H1485 0.959 . S
C1497 C1495 1.561 . S
C1498 C1495 1.526 . S
C1498 C1499 1.396 . S
C1498 C1503 1.390 . S
C1499 C1493 1.465 . S
C1499 C1498 1.396 . S
C1499 C1500 1.399 . S
C1500 H1486 0.929 . S
C1500 C1499 1.399 . S
C1500 C1501 1.385 . S
C1501 H1487 0.931 . S
C1501 C1500 1.385 . S
C1501 C1502 1.389 . S
C1502 C1501 1.389 . S
C1502 C1503 1.387 . S
C1503 H1488 0.930 . S
C1503 C1498 1.390 . S
C1503 C1502 1.387 . S
H1504 C1516 0.930 . S
H1505 C1518 0.930 . S
H1506 C1519 0.930 . S
H1507 C1523 0.959 . S
H1508 C1523 0.959 . S
H1509 C1523 0.961 . S
H1510 C1524 0.960 . S
H1511 C1524 0.961 . S
H1512 C1524 0.959 . S
H1513 C1527 0.929 . S
H1514 C1528 0.931 . S
H1515 C1530 0.930 . S
C1516 H1504 0.930 . S
C1516 C1517 1.399 . S
C1516 C1521 1.399 . S
C1517 C1516 1.399 . S
C1517 C1518 1.376 . S
C1518 H1505 0.930 . S
C1518 C1517 1.376 . S
C1518 C1519 1.388 . S
C1519 H1506 0.930 . S
C1519 C1518 1.388 . S
C1519 C1520 1.390 . S
C1520 C1519 1.390 . S
C1520 C1521 1.394 . S
C1520 C1526 1.465 . S
C1521 C1516 1.399 . S
C1521 C1520 1.394 . S
C1521 C1522 1.516 . S
C1522 C1521 1.516 . S
C1522 C1523 1.502 . S
C1522 C1524 1.561 . S
C1522 C1525 1.526 . S
C1523 H1507 0.959 . S
C1523 H1508 0.959 . S
C1523 H1509 0.961 . S
C1523 C1522 1.502 . S
C1524 H1510 0.960 . S
C1524 H1511 0.961 . S
C1524 H1512 0.959 . S
C1524 C1522 1.561 . S
C1525 C1522 1.526 . S
C1525 C1526 1.396 . S
C1525 C1530 1.390 . S
C1526 C1520 1.465 . S
C1526 C1525 1.396 . S
C1526 C1527 1.399 . S
C1527 H1513 0.929 . S
C1527 C1526 1.399 . S
C1527 C1528 1.385 . S
C1528 H1514 0.931 . S
C1528 C1527 1.385 . S
C1528 C1529 1.389 . S
C1529 C1528 1.389 . S
C1529 C1530 1.387 . S
C1530 H1515 0.930 . S
C1530 C1525 1.390 . S
C1530 C1529 1.387 . S
H1531 C1543 0.930 . S
H1532 C1545 0.930 . S
H1533 C1546 0.930 . S
H1534 C1550 0.959 . S
H1535 C1550 0.959 . S
H1536 C1550 0.961 . S
H1537 C1551 0.960 . S
H1538 C1551 0.961 . S
H1539 C1551 0.959 . S
H1540 C1554 0.929 . S
H1541 C1555 0.931 . S
H1542 C1557 0.930 . S
C1543 H1531 0.930 . S
C1543 C1544 1.399 . S
C1543 C1548 1.399 . S
C1544 C1543 1.399 . S
C1544 C1545 1.376 . S
C1545 H1532 0.930 . S
C1545 C1544 1.376 . S
C1545 C1546 1.388 . S
C1546 H1533 0.930 . S
C1546 C1545 1.388 . S
C1546 C1547 1.390 . S
C1547 C1546 1.390 . S
C1547 C1548 1.394 . S
C1547 C1553 1.465 . S
C1548 C1543 1.399 . S
C1548 C1547 1.394 . S
C1548 C1549 1.516 . S
C1549 C1548 1.516 . S
C1549 C1550 1.502 . S
C1549 C1551 1.561 . S
C1549 C1552 1.526 . S
C1550 H1534 0.959 . S
C1550 H1535 0.959 . S
C1550 H1536 0.961 . S
C1550 C1549 1.502 . S
C1551 H1537 0.960 . S
C1551 H1538 0.961 . S
C1551 H1539 0.959 . S
C1551 C1549 1.561 . S
C1552 C1549 1.526 . S
C1552 C1553 1.396 . S
C1552 C1557 1.390 . S
C1553 C1547 1.465 . S
C1553 C1552 1.396 . S
C1553 C1554 1.399 . S
C1554 H1540 0.929 . S
C1554 C1553 1.399 . S
C1554 C1555 1.385 . S
C1555 H1541 0.931 . S
C1555 C1554 1.385 . S
C1555 C1556 1.389 . S
C1556 C1555 1.389 . S
C1556 C1557 1.387 . S
C1557 H1542 0.930 . S
C1557 C1552 1.390 . S
C1557 C1556 1.387 . S
H1558 C1570 0.930 . S
H1559 C1572 0.930 . S
H1560 C1573 0.930 . S
H1561 C1577 0.959 . S
H1562 C1577 0.959 . S
H1563 C1577 0.961 . S
H1564 C1578 0.960 . S
H1565 C1578 0.961 . S
H1566 C1578 0.959 . S
H1567 C1581 0.929 . S
H1568 C1582 0.931 . S
H1569 C1584 0.930 . S
C1570 H1558 0.930 . S
C1570 C1571 1.399 . S
C1570 C1575 1.399 . S
C1571 C1570 1.399 . S
C1571 C1572 1.376 . S
C1572 H1559 0.930 . S
C1572 C1571 1.376 . S
C1572 C1573 1.388 . S
C1573 H1560 0.930 . S
C1573 C1572 1.388 . S
C1573 C1574 1.390 . S
C1574 C1573 1.390 . S
C1574 C1575 1.394 . S
C1574 C1580 1.465 . S
C1575 C1570 1.399 . S
C1575 C1574 1.394 . S
C1575 C1576 1.516 . S
C1576 C1575 1.516 . S
C1576 C1577 1.502 . S
C1576 C1578 1.561 . S
C1576 C1579 1.526 . S
C1577 H1561 0.959 . S
C1577 H1562 0.959 . S
C1577 H1563 0.961 . S
C1577 C1576 1.502 . S
C1578 H1564 0.960 . S
C1578 H1565 0.961 . S
C1578 H1566 0.959 . S
C1578 C1576 1.561 . S
C1579 C1576 1.526 . S
C1579 C1580 1.396 . S
C1579 C1584 1.390 . S
C1580 C1574 1.465 . S
C1580 C1579 1.396 . S
C1580 C1581 1.399 . S
C1581 H1567 0.929 . S
C1581 C1580 1.399 . S
C1581 C1582 1.385 . S
C1582 H1568 0.931 . S
C1582 C1581 1.385 . S
C1582 C1583 1.389 . S
C1583 C1582 1.389 . S
C1583 C1584 1.387 . S
C1584 H1569 0.930 . S
C1584 C1579 1.390 . S
C1584 C1583 1.387 . S
H1585 C1597 0.930 . S
H1586 C1599 0.930 . S
H1587 C1600 0.930 . S
H1588 C1604 0.959 . S
H1589 C1604 0.959 . S
H1590 C1604 0.961 . S
H1591 C1605 0.960 . S
H1592 C1605 0.961 . S
H1593 C1605 0.959 . S
H1594 C1608 0.929 . S
H1595 C1609 0.931 . S
H1596 C1611 0.930 . S
C1597 H1585 0.930 . S
C1597 C1598 1.399 . S
C1597 C1602 1.399 . S
C1598 C1597 1.399 . S
C1598 C1599 1.376 . S
C1599 H1586 0.930 . S
C1599 C1598 1.376 . S
C1599 C1600 1.388 . S
C1600 H1587 0.930 . S
C1600 C1599 1.388 . S
C1600 C1601 1.390 . S
C1601 C1600 1.390 . S
C1601 C1602 1.394 . S
C1601 C1607 1.465 . S
C1602 C1597 1.399 . S
C1602 C1601 1.394 . S
C1602 C1603 1.516 . S
C1603 C1602 1.516 . S
C1603 C1604 1.502 . S
C1603 C1605 1.561 . S
C1603 C1606 1.526 . S
C1604 H1588 0.959 . S
C1604 H1589 0.959 . S
C1604 H1590 0.961 . S
C1604 C1603 1.502 . S
C1605 H1591 0.960 . S
C1605 H1592 0.961 . S
C1605 H1593 0.959 . S
C1605 C1603 1.561 . S
C1606 C1603 1.526 . S
C1606 C1607 1.396 . S
C1606 C1611 1.390 . S
C1607 C1601 1.465 . S
C1607 C1606 1.396 . S
C1607 C1608 1.399 . S
C1608 H1594 0.929 . S
C1608 C1607 1.399 . S
C1608 C1609 1.385 . S
C1609 H1595 0.931 . S
C1609 C1608 1.385 . S
C1609 C1610 1.389 . S
C1610 C1609 1.389 . S
C1610 C1611 1.387 . S
C1611 H1596 0.930 . S
C1611 C1606 1.390 . S
C1611 C1610 1.387 . S
H1612 C1624 0.930 . S
H1613 C1626 0.930 . S
H1614 C1627 0.930 . S
H1615 C1631 0.959 . S
H1616 C1631 0.959 . S
H1617 C1631 0.961 . S
H1618 C1632 0.960 . S
H1619 C1632 0.961 . S
H1620 C1632 0.959 . S
H1621 C1635 0.929 . S
H1622 C1636 0.931 . S
H1623 C1638 0.930 . S
C1624 H1612 0.930 . S
C1624 C1625 1.399 . S
C1624 C1629 1.399 . S
C1625 C1624 1.399 . S
C1625 C1626 1.376 . S
C1626 H1613 0.930 . S
C1626 C1625 1.376 . S
C1626 C1627 1.388 . S
C1627 H1614 0.930 . S
C1627 C1626 1.388 . S
C1627 C1628 1.390 . S
C1628 C1627 1.390 . S
C1628 C1629 1.394 . S
C1628 C1634 1.465 . S
C1629 C1624 1.399 . S
C1629 C1628 1.394 . S
C1629 C1630 1.516 . S
C1630 C1629 1.516 . S
C1630 C1631 1.502 . S
C1630 C1632 1.561 . S
C1630 C1633 1.526 . S
C1631 H1615 0.959 . S
C1631 H1616 0.959 . S
C1631 H1617 0.961 . S
C1631 C1630 1.502 . S
C1632 H1618 0.960 . S
C1632 H1619 0.961 . S
C1632 H1620 0.959 . S
C1632 C1630 1.561 . S
C1633 C1630 1.526 . S
C1633 C1634 1.396 . S
C1633 C1638 1.390 . S
C1634 C1628 1.465 . S
C1634 C1633 1.396 . S
C1634 C1635 1.399 . S
C1635 H1621 0.929 . S
C1635 C1634 1.399 . S
C1635 C1636 1.385 . S
C1636 H1622 0.931 . S
C1636 C1635 1.385 . S
C1636 C1637 1.389 . S
C1637 C1636 1.389 . S
C1637 C1638 1.387 . S
C1638 H1623 0.930 . S
C1638 C1633 1.390 . S
C1638 C1637 1.387 . S
H1639 C1651 0.930 . S
H1640 C1653 0.930 . S
H1641 C1654 0.930 . S
H1642 C1658 0.959 . S
H1643 C1658 0.959 . S
H1644 C1658 0.961 . S
H1645 C1659 0.960 . S
H1646 C1659 0.961 . S
H1647 C1659 0.959 . S
H1648 C1662 0.929 . S
H1649 C1663 0.931 . S
H1650 C1665 0.930 . S
C1651 H1639 0.930 . S
C1651 C1652 1.399 . S
C1651 C1656 1.399 . S
C1652 C1651 1.399 . S
C1652 C1653 1.376 . S
C1653 H1640 0.930 . S
C1653 C1652 1.376 . S
C1653 C1654 1.388 . S
C1654 H1641 0.930 . S
C1654 C1653 1.388 . S
C1654 C1655 1.390 . S
C1655 C1654 1.390 . S
C1655 C1656 1.394 . S
C1655 C1661 1.465 . S
C1656 C1651 1.399 . S
C1656 C1655 1.394 . S
C1656 C1657 1.516 . S
C1657 C1656 1.516 . S
C1657 C1658 1.502 . S
C1657 C1659 1.561 . S
C1657 C1660 1.526 . S
C1658 H1642 0.959 . S
C1658 H1643 0.959 . S
C1658 H1644 0.961 . S
C1658 C1657 1.502 . S
C1659 H1645 0.960 . S
C1659 H1646 0.961 . S
C1659 H1647 0.959 . S
C1659 C1657 1.561 . S
C1660 C1657 1.526 . S
C1660 C1661 1.396 . S
C1660 C1665 1.390 . S
C1661 C1655 1.465 . S
C1661 C1660 1.396 . S
C1661 C1662 1.399 . S
C1662 H1648 0.929 . S
C1662 C1661 1.399 . S
C1662 C1663 1.385 . S
C1663 H1649 0.931 . S
C1663 C1662 1.385 . S
C1663 C1664 1.389 . S
C1664 C1663 1.389 . S
C1664 C1665 1.387 . S
C1665 H1650 0.930 . S
C1665 C1660 1.390 . S
C1665 C1664 1.387 . S
H1666 C1678 0.930 . S
H1667 C1680 0.930 . S
H1668 C1681 0.930 . S
H1669 C1685 0.959 . S
H1670 C1685 0.959 . S
H1671 C1685 0.961 . S
H1672 C1686 0.960 . S
H1673 C1686 0.961 . S
H1674 C1686 0.959 . S
H1675 C1689 0.929 . S
H1676 C1690 0.931 . S
H1677 C1692 0.930 . S
C1678 H1666 0.930 . S
C1678 C1679 1.399 . S
C1678 C1683 1.399 . S
C1679 C1678 1.399 . S
C1679 C1680 1.376 . S
C1680 H1667 0.930 . S
C1680 C1679 1.376 . S
C1680 C1681 1.388 . S
C1681 H1668 0.930 . S
C1681 C1680 1.388 . S
C1681 C1682 1.390 . S
C1682 C1681 1.390 . S
C1682 C1683 1.394 . S
C1682 C1688 1.465 . S
C1683 C1678 1.399 . S
C1683 C1682 1.394 . S
C1683 C1684 1.516 . S
C1684 C1683 1.516 . S
C1684 C1685 1.502 . S
C1684 C1686 1.561 . S
C1684 C1687 1.526 . S
C1685 H1669 0.959 . S
C1685 H1670 0.959 . S
C1685 H1671 0.961 . S
C1685 C1684 1.502 . S
C1686 H1672 0.960 . S
C1686 H1673 0.961 . S
C1686 H1674 0.959 . S
C1686 C1684 1.561 . S
C1687 C1684 1.526 . S
C1687 C1688 1.396 . S
C1687 C1692 1.390 . S
C1688 C1682 1.465 . S
C1688 C1687 1.396 . S
C1688 C1689 1.399 . S
C1689 H1675 0.929 . S
C1689 C1688 1.399 . S
C1689 C1690 1.385 . S
C1690 H1676 0.931 . S
C1690 C1689 1.385 . S
C1690 C1691 1.389 . S
C1691 C1690 1.389 . S
C1691 C1692 1.387 . S
C1692 H1677 0.930 . S
C1692 C1687 1.390 . S
C1692 C1691 1.387 . S
H1693 C1705 0.930 . S
H1694 C1707 0.930 . S
H1695 C1708 0.930 . S
H1696 C1712 0.959 . S
H1697 C1712 0.959 . S
H1698 C1712 0.961 . S
H1699 C1713 0.960 . S
H1700 C1713 0.961 . S
H1701 C1713 0.959 . S
H1702 C1716 0.929 . S
H1703 C1717 0.931 . S
H1704 C1719 0.930 . S
C1705 H1693 0.930 . S
C1705 C1706 1.399 . S
C1705 C1710 1.399 . S
C1706 C1705 1.399 . S
C1706 C1707 1.376 . S
C1707 H1694 0.930 . S
C1707 C1706 1.376 . S
C1707 C1708 1.388 . S
C1708 H1695 0.930 . S
C1708 C1707 1.388 . S
C1708 C1709 1.390 . S
C1709 C1708 1.390 . S
C1709 C1710 1.394 . S
C1709 C1715 1.465 . S
C1710 C1705 1.399 . S
C1710 C1709 1.394 . S
C1710 C1711 1.516 . S
C1711 C1710 1.516 . S
C1711 C1712 1.502 . S
C1711 C1713 1.561 . S
C1711 C1714 1.526 . S
C1712 H1696 0.959 . S
C1712 H1697 0.959 . S
C1712 H1698 0.961 . S
C1712 C1711 1.502 . S
C1713 H1699 0.960 . S
C1713 H1700 0.961 . S
C1713 H1701 0.959 . S
C1713 C1711 1.561 . S
C1714 C1711 1.526 . S
C1714 C1715 1.396 . S
C1714 C1719 1.390 . S
C1715 C1709 1.465 . S
C1715 C1714 1.396 . S
C1715 C1716 1.399 . S
C1716 H1702 0.929 . S
C1716 C1715 1.399 . S
C1716 C1717 1.385 . S
C1717 H1703 0.931 . S
C1717 C1716 1.385 . S
C1717 C1718 1.389 . S
C1718 C1717 1.389 . S
C1718 C1719 1.387 . S
C1719 H1704 0.930 . S
C1719 C1714 1.390 . S
C1719 C1718 1.387 . S
H1720 C1732 0.930 . S
H1721 C1734 0.930 . S
H1722 C1735 0.930 . S
H1723 C1739 0.959 . S
H1724 C1739 0.959 . S
H1725 C1739 0.961 . S
H1726 C1740 0.960 . S
H1727 C1740 0.961 . S
H1728 C1740 0.959 . S
H1729 C1743 0.929 . S
H1730 C1744 0.931 . S
H1731 C1746 0.930 . S
C1732 H1720 0.930 . S
C1732 C1733 1.399 . S
C1732 C1737 1.399 . S
C1733 C1732 1.399 . S
C1733 C1734 1.376 . S
C1734 H1721 0.930 . S
C1734 C1733 1.376 . S
C1734 C1735 1.388 . S
C1735 H1722 0.930 . S
C1735 C1734 1.388 . S
C1735 C1736 1.390 . S
C1736 C1735 1.390 . S
C1736 C1737 1.394 . S
C1736 C1742 1.465 . S
C1737 C1732 1.399 . S
C1737 C1736 1.394 . S
C1737 C1738 1.516 . S
C1738 C1737 1.516 . S
C1738 C1739 1.502 . S
C1738 C1740 1.561 . S
C1738 C1741 1.526 . S
C1739 H1723 0.959 . S
C1739 H1724 0.959 . S
C1739 H1725 0.961 . S
C1739 C1738 1.502 . S
C1740 H1726 0.960 . S
C1740 H1727 0.961 . S
C1740 H1728 0.959 . S
C1740 C1738 1.561 . S
C1741 C1738 1.526 . S
C1741 C1742 1.396 . S
C1741 C1746 1.390 . S
C1742 C1736 1.465 . S
C1742 C1741 1.396 . S
C1742 C1743 1.399 . S
C1743 H1729 0.929 . S
C1743 C1742 1.399 . S
C1743 C1744 1.385 . S
C1744 H1730 0.931 . S
C1744 C1743 1.385 . S
C1744 C1745 1.389 . S
C1745 C1744 1.389 . S
C1745 C1746 1.387 . S
C1746 H1731 0.930 . S
C1746 C1741 1.390 . S
C1746 C1745 1.387 . S
H1747 C1759 0.930 . S
H1748 C1761 0.930 . S
H1749 C1762 0.930 . S
H1750 C1766 0.959 . S
H1751 C1766 0.959 . S
H1752 C1766 0.961 . S
H1753 C1767 0.960 . S
H1754 C1767 0.961 . S
H1755 C1767 0.959 . S
H1756 C1770 0.929 . S
H1757 C1771 0.931 . S
H1758 C1773 0.930 . S
C1759 H1747 0.930 . S
C1759 C1760 1.399 . S
C1759 C1764 1.399 . S
C1760 C1759 1.399 . S
C1760 C1761 1.376 . S
C1761 H1748 0.930 . S
C1761 C1760 1.376 . S
C1761 C1762 1.388 . S
C1762 H1749 0.930 . S
C1762 C1761 1.388 . S
C1762 C1763 1.390 . S
C1763 C1762 1.390 . S
C1763 C1764 1.394 . S
C1763 C1769 1.465 . S
C1764 C1759 1.399 . S
C1764 C1763 1.394 . S
C1764 C1765 1.516 . S
C1765 C1764 1.516 . S
C1765 C1766 1.502 . S
C1765 C1767 1.561 . S
C1765 C1768 1.526 . S
C1766 H1750 0.959 . S
C1766 H1751 0.959 . S
C1766 H1752 0.961 . S
C1766 C1765 1.502 . S
C1767 H1753 0.960 . S
C1767 H1754 0.961 . S
C1767 H1755 0.959 . S
C1767 C1765 1.561 . S
C1768 C1765 1.526 . S
C1768 C1769 1.396 . S
C1768 C1773 1.390 . S
C1769 C1763 1.465 . S
C1769 C1768 1.396 . S
C1769 C1770 1.399 . S
C1770 H1756 0.929 . S
C1770 C1769 1.399 . S
C1770 C1771 1.385 . S
C1771 H1757 0.931 . S
C1771 C1770 1.385 . S
C1771 C1772 1.389 . S
C1772 C1771 1.389 . S
C1772 C1773 1.387 . S
C1773 H1758 0.930 . S
C1773 C1768 1.390 . S
C1773 C1772 1.387 . S
H1774 C1786 0.930 . S
H1775 C1788 0.930 . S
H1776 C1789 0.930 . S
H1777 C1793 0.959 . S
H1778 C1793 0.959 . S
H1779 C1793 0.961 . S
H1780 C1794 0.960 . S
H1781 C1794 0.961 . S
H1782 C1794 0.959 . S
H1783 C1797 0.929 . S
H1784 C1798 0.931 . S
H1785 C1800 0.930 . S
C1786 H1774 0.930 . S
C1786 C1787 1.399 . S
C1786 C1791 1.399 . S
C1787 C1786 1.399 . S
C1787 C1788 1.376 . S
C1788 H1775 0.930 . S
C1788 C1787 1.376 . S
C1788 C1789 1.388 . S
C1789 H1776 0.930 . S
C1789 C1788 1.388 . S
C1789 C1790 1.390 . S
C1790 C1789 1.390 . S
C1790 C1791 1.394 . S
C1790 C1796 1.465 . S
C1791 C1786 1.399 . S
C1791 C1790 1.394 . S
C1791 C1792 1.516 . S
C1792 C1791 1.516 . S
C1792 C1793 1.502 . S
C1792 C1794 1.561 . S
C1792 C1795 1.526 . S
C1793 H1777 0.959 . S
C1793 H1778 0.959 . S
C1793 H1779 0.961 . S
C1793 C1792 1.502 . S
C1794 H1780 0.960 . S
C1794 H1781 0.961 . S
C1794 H1782 0.959 . S
C1794 C1792 1.561 . S
C1795 C1792 1.526 . S
C1795 C1796 1.396 . S
C1795 C1800 1.390 . S
C1796 C1790 1.465 . S
C1796 C1795 1.396 . S
C1796 C1797 1.399 . S
C1797 H1783 0.929 . S
C1797 C1796 1.399 . S
C1797 C1798 1.385 . S
C1798 H1784 0.931 . S
C1798 C1797 1.385 . S
C1798 C1799 1.389 . S
C1799 C1798 1.389 . S
C1799 C1800 1.387 . S
C1800 H1785 0.930 . S
C1800 C1795 1.390 . S
C1800 C1799 1.387 . S
H1801 C1813 0.930 . S
H1802 C1815 0.930 . S
H1803 C1816 0.930 . S
H1804 C1820 0.959 . S
H1805 C1820 0.959 . S
H1806 C1820 0.961 . S
H1807 C1821 0.960 . S
H1808 C1821 0.961 . S
H1809 C1821 0.959 . S
H1810 C1824 0.929 . S
H1811 C1825 0.931 . S
H1812 C1827 0.930 . S
C1813 H1801 0.930 . S
C1813 C1814 1.399 . S
C1813 C1818 1.399 . S
C1814 C1813 1.399 . S
C1814 C1815 1.376 . S
C1815 H1802 0.930 . S
C1815 C1814 1.376 . S
C1815 C1816 1.388 . S
C1816 H1803 0.930 . S
C1816 C1815 1.388 . S
C1816 C1817 1.390 . S
C1817 C1816 1.390 . S
C1817 C1818 1.394 . S
C1817 C1823 1.465 . S
C1818 C1813 1.399 . S
C1818 C1817 1.394 . S
C1818 C1819 1.516 . S
C1819 C1818 1.516 . S
C1819 C1820 1.502 . S
C1819 C1821 1.561 . S
C1819 C1822 1.526 . S
C1820 H1804 0.959 . S
C1820 H1805 0.959 . S
C1820 H1806 0.961 . S
C1820 C1819 1.502 . S
C1821 H1807 0.960 . S
C1821 H1808 0.961 . S
C1821 H1809 0.959 . S
C1821 C1819 1.561 . S
C1822 C1819 1.526 . S
C1822 C1823 1.396 . S
C1822 C1827 1.390 . S
C1823 C1817 1.465 . S
C1823 C1822 1.396 . S
C1823 C1824 1.399 . S
C1824 H1810 0.929 . S
C1824 C1823 1.399 . S
C1824 C1825 1.385 . S
C1825 H1811 0.931 . S
C1825 C1824 1.385 . S
C1825 C1826 1.389 . S
C1826 C1825 1.389 . S
C1826 C1827 1.387 . S
C1827 H1812 0.930 . S
C1827 C1822 1.390 . S
C1827 C1826 1.387 . S
H1828 C1840 0.930 . S
H1829 C1842 0.930 . S
H1830 C1843 0.930 . S
H1831 C1847 0.959 . S
H1832 C1847 0.959 . S
H1833 C1847 0.961 . S
H1834 C1848 0.960 . S
H1835 C1848 0.961 . S
H1836 C1848 0.959 . S
H1837 C1851 0.929 . S
H1838 C1852 0.931 . S
H1839 C1854 0.930 . S
C1840 H1828 0.930 . S
C1840 C1841 1.399 . S
C1840 C1845 1.399 . S
C1841 C1840 1.399 . S
C1841 C1842 1.376 . S
C1842 H1829 0.930 . S
C1842 C1841 1.376 . S
C1842 C1843 1.388 . S
C1843 H1830 0.930 . S
C1843 C1842 1.388 . S
C1843 C1844 1.390 . S
C1844 C1843 1.390 . S
C1844 C1845 1.394 . S
C1844 C1850 1.465 . S
C1845 C1840 1.399 . S
C1845 C1844 1.394 . S
C1845 C1846 1.516 . S
C1846 C1845 1.516 . S
C1846 C1847 1.502 . S
C1846 C1848 1.561 . S
C1846 C1849 1.526 . S
C1847 H1831 0.959 . S
C1847 H1832 0.959 . S
C1847 H1833 0.961 . S
C1847 C1846 1.502 . S
C1848 H1834 0.960 . S
C1848 H1835 0.961 . S
C1848 H1836 0.959 . S
C1848 C1846 1.561 . S
C1849 C1846 1.526 . S
C1849 C1850 1.396 . S
C1849 C1854 1.390 . S
C1850 C1844 1.465 . S
C1850 C1849 1.396 . S
C1850 C1851 1.399 . S
C1851 H1837 0.929 . S
C1851 C1850 1.399 . S
C1851 C1852 1.385 . S
C1852 H1838 0.931 . S
C1852 C1851 1.385 . S
C1852 C1853 1.389 . S
C1853 C1852 1.389 . S
C1853 C1854 1.387 . S
C1854 H1839 0.930 . S
C1854 C1849 1.390 . S
C1854 C1853 1.387 . S
H1855 C1867 0.930 . S
H1856 C1869 0.930 . S
H1857 C1870 0.930 . S
H1858 C1874 0.959 . S
H1859 C1874 0.959 . S
H1860 C1874 0.961 . S
H1861 C1875 0.960 . S
H1862 C1875 0.961 . S
H1863 C1875 0.959 . S
H1864 C1878 0.929 . S
H1865 C1879 0.931 . S
H1866 C1881 0.930 . S
C1867 H1855 0.930 . S
C1867 C1868 1.399 . S
C1867 C1872 1.399 . S
C1868 C1867 1.399 . S
C1868 C1869 1.376 . S
C1869 H1856 0.930 . S
C1869 C1868 1.376 . S
C1869 C1870 1.388 . S
C1870 H1857 0.930 . S
C1870 C1869 1.388 . S
C1870 C1871 1.390 . S
C1871 C1870 1.390 . S
C1871 C1872 1.394 . S
C1871 C1877 1.465 . S
C1872 C1867 1.399 . S
C1872 C1871 1.394 . S
C1872 C1873 1.516 . S
C1873 C1872 1.516 . S
C1873 C1874 1.502 . S
C1873 C1875 1.561 . S
C1873 C1876 1.526 . S
C1874 H1858 0.959 . S
C1874 H1859 0.959 . S
C1874 H1860 0.961 . S
C1874 C1873 1.502 . S
C1875 H1861 0.960 . S
C1875 H1862 0.961 . S
C1875 H1863 0.959 . S
C1875 C1873 1.561 . S
C1876 C1873 1.526 . S
C1876 C1877 1.396 . S
C1876 C1881 1.390 . S
C1877 C1871 1.465 . S
C1877 C1876 1.396 . S
C1877 C1878 1.399 . S
C1878 H1864 0.929 . S
C1878 C1877 1.399 . S
C1878 C1879 1.385 . S
C1879 H1865 0.931 . S
C1879 C1878 1.385 . S
C1879 C1880 1.389 . S
C1880 C1879 1.389 . S
C1880 C1881 1.387 . S
C1881 H1866 0.930 . S
C1881 C1876 1.390 . S
C1881 C1880 1.387 . S
H1882 C1894 0.930 . S
H1883 C1896 0.930 . S
H1884 C1897 0.930 . S
H1885 C1901 0.959 . S
H1886 C1901 0.959 . S
H1887 C1901 0.961 . S
H1888 C1902 0.960 . S
H1889 C1902 0.961 . S
H1890 C1902 0.959 . S
H1891 C1905 0.929 . S
H1892 C1906 0.931 . S
H1893 C1908 0.930 . S
C1894 H1882 0.930 . S
C1894 C1895 1.399 . S
C1894 C1899 1.399 . S
C1895 C1894 1.399 . S
C1895 C1896 1.376 . S
C1896 H1883 0.930 . S
C1896 C1895 1.376 . S
C1896 C1897 1.388 . S
C1897 H1884 0.930 . S
C1897 C1896 1.388 . S
C1897 C1898 1.390 . S
C1898 C1897 1.390 . S
C1898 C1899 1.394 . S
C1898 C1904 1.465 . S
C1899 C1894 1.399 . S
C1899 C1898 1.394 . S
C1899 C1900 1.516 . S
C1900 C1899 1.516 . S
C1900 C1901 1.502 . S
C1900 C1902 1.561 . S
C1900 C1903 1.526 . S
C1901 H1885 0.959 . S
C1901 H1886 0.959 . S
C1901 H1887 0.961 . S
C1901 C1900 1.502 . S
C1902 H1888 0.960 . S
C1902 H1889 0.961 . S
C1902 H1890 0.959 . S
C1902 C1900 1.561 . S
C1903 C1900 1.526 . S
C1903 C1904 1.396 . S
C1903 C1908 1.390 . S
C1904 C1898 1.465 . S
C1904 C1903 1.396 . S
C1904 C1905 1.399 . S
C1905 H1891 0.929 . S
C1905 C1904 1.399 . S
C1905 C1906 1.385 . S
C1906 H1892 0.931 . S
C1906 C1905 1.385 . S
C1906 C1907 1.389 . S
C1907 C1906 1.389 . S
C1907 C1908 1.387 . S
C1908 H1893 0.930 . S
C1908 C1903 1.390 . S
C1908 C1907 1.387 . S
H1909 C1921 0.930 . S
H1910 C1923 0.930 . S
H1911 C1924 0.930 . S
H1912 C1928 0.959 . S
H1913 C1928 0.959 . S
H1914 C1928 0.961 . S
H1915 C1929 0.960 . S
H1916 C1929 0.961 . S
H1917 C1929 0.959 . S
H1918 C1932 0.929 . S
H1919 C1933 0.931 . S
H1920 C1935 0.930 . S
C1921 H1909 0.930 . S
C1921 C1922 1.399 . S
C1921 C1926 1.399 . S
C1922 C1921 1.399 . S
C1922 C1923 1.376 . S
C1923 H1910 0.930 . S
C1923 C1922 1.376 . S
C1923 C1924 1.388 . S
C1924 H1911 0.930 . S
C1924 C1923 1.388 . S
C1924 C1925 1.390 . S
C1925 C1924 1.390 . S
C1925 C1926 1.394 . S
C1925 C1931 1.465 . S
C1926 C1921 1.399 . S
C1926 C1925 1.394 . S
C1926 C1927 1.516 . S
C1927 C1926 1.516 . S
C1927 C1928 1.502 . S
C1927 C1929 1.561 . S
C1927 C1930 1.526 . S
C1928 H1912 0.959 . S
C1928 H1913 0.959 . S
C1928 H1914 0.961 . S
C1928 C1927 1.502 . S
C1929 H1915 0.960 . S
C1929 H1916 0.961 . S
C1929 H1917 0.959 . S
C1929 C1927 1.561 . S
C1930 C1927 1.526 . S
C1930 C1931 1.396 . S
C1930 C1935 1.390 . S
C1931 C1925 1.465 . S
C1931 C1930 1.396 . S
C1931 C1932 1.399 . S
C1932 H1918 0.929 . S
C1932 C1931 1.399 . S
C1932 C1933 1.385 . S
C1933 H1919 0.931 . S
C1933 C1932 1.385 . S
C1933 C1934 1.389 . S
C1934 C1933 1.389 . S
C1934 C1935 1.387 . S
C1935 H1920 0.930 . S
C1935 C1930 1.390 . S
C1935 C1934 1.387 . S
H1936 C1948 0.930 . S
H1937 C1950 0.930 . S
H1938 C1951 0.930 . S
H1939 C1955 0.959 . S
H1940 C1955 0.959 1_545 S
H1941 C1955 0.961 . S
H1942 C1956 0.963 . S
H1943 C1956 0.957 1_545 S
H1944 C1956 0.958 1_545 S
H1945 C1959 0.929 . S
H1946 C1960 0.931 . S
H1947 C1962 0.930 . S
C1948 H1936 0.930 . S
C1948 C1949 1.399 . S
C1948 C1953 1.399 . S
C1949 C1948 1.399 . S
C1949 C1950 1.376 . S
C1950 H1937 0.930 . S
C1950 C1949 1.376 . S
C1950 C1951 1.388 . S
C1951 H1938 0.930 . S
C1951 C1950 1.388 . S
C1951 C1952 1.390 . S
C1952 C1951 1.390 . S
C1952 C1953 1.394 . S
C1952 C1958 1.479 . S
C1953 C1948 1.399 . S
C1953 C1952 1.394 . S
C1953 C1954 1.516 . S
C1954 C1953 1.516 . S
C1954 C1955 1.502 . S
C1954 C1956 1.562 . S
C1954 C1957 1.526 1_565 S
C1955 H1939 0.959 . S
C1955 H1940 0.959 1_565 S
C1955 H1941 0.961 . S
C1955 C1954 1.502 . S
C1956 H1942 0.963 . S
C1956 H1943 0.957 1_565 S
C1956 H1944 0.958 1_565 S
C1956 C1954 1.562 . S
C1957 C1954 1.526 1_545 S
C1957 C1958 1.390 1_545 S
C1957 C1962 1.390 . S
C1958 C1952 1.479 . S
C1958 C1957 1.390 1_565 S
C1958 C1959 1.391 1_565 S
C1959 H1945 0.929 . S
C1959 C1958 1.391 1_545 S
C1959 C1960 1.385 . S
C1960 H1946 0.931 . S
C1960 C1959 1.385 . S
C1960 C1961 1.389 . S
C1961 C1960 1.389 . S
C1961 C1962 1.387 . S
C1962 H1947 0.930 . S
C1962 C1957 1.390 . S
C1962 C1961 1.387 . S
H1963 C1975 0.930 . S
H1964 C1977 0.930 . S
H1965 C1978 0.930 . S
H1966 C1982 0.967 . S
H1967 C1982 0.990 . S
H1968 C1982 0.929 1_655 S
H1969 C1983 0.960 . S
H1970 C1983 0.961 1_455 S
H1971 C1983 0.959 . S
H1972 C1986 0.929 . S
H1973 C1987 0.931 . S
H1974 C1989 0.930 . S
C1975 H1963 0.930 . S
C1975 C1976 1.399 . S
C1975 C1980 1.399 . S
C1976 C1975 1.399 . S
C1976 C1977 1.376 . S
C1977 H1964 0.930 . S
C1977 C1976 1.376 . S
C1977 C1978 1.388 . S
C1978 H1965 0.930 . S
C1978 C1977 1.388 . S
C1978 C1979 1.390 . S
C1979 C1978 1.390 . S
C1979 C1980 1.394 . S
C1979 C1985 1.465 1_655 S
C1980 C1975 1.399 . S
C1980 C1979 1.394 . S
C1980 C1981 1.516 . S
C1981 C1980 1.516 . S
C1981 C1982 1.497 1_655 S
C1981 C1983 1.561 . S
C1981 C1984 1.526 1_655 S
C1982 H1966 0.967 . S
C1982 H1967 0.990 . S
C1982 H1968 0.929 1_455 S
C1982 C1981 1.497 1_455 S
C1983 H1969 0.960 . S
C1983 H1970 0.961 1_655 S
C1983 H1971 0.959 . S
C1983 C1981 1.561 . S
C1984 C1981 1.526 1_455 S
C1984 C1985 1.396 . S
C1984 C1989 1.390 . S
C1985 C1979 1.465 1_455 S
C1985 C1984 1.396 . S
C1985 C1986 1.399 . S
C1986 H1972 0.929 . S
C1986 C1985 1.399 . S
C1986 C1987 1.385 . S
C1987 H1973 0.931 . S
C1987 C1986 1.385 . S
C1987 C1988 1.389 . S
C1988 C1987 1.389 . S
C1988 C1989 1.387 . S
C1989 H1974 0.930 . S
C1989 C1984 1.390 . S
C1989 C1988 1.387 . S
H1990 C2002 0.930 . S
H1991 C2004 0.930 . S
H1992 C2005 0.930 . S
H1993 C2009 0.959 1_565 S
H1994 C2009 0.959 1_565 S
H1995 C2009 0.961 . S
H1996 C2010 0.960 . S
H1997 C2010 0.961 1_565 S
H1998 C2010 0.952 1_565 S
H1999 C2013 0.929 . S
H2000 C2014 0.931 . S
H2001 C2016 0.930 . S
C2002 H1990 0.930 . S
C2002 C2003 1.399 . S
C2002 C2007 1.399 . S
C2003 C2002 1.399 . S
C2003 C2004 1.376 . S
C2004 H1991 0.930 . S
C2004 C2003 1.376 . S
C2004 C2005 1.388 . S
C2005 H1992 0.930 . S
C2005 C2004 1.388 . S
C2005 C2006 1.411 . S
C2006 C2005 1.411 . S
C2006 C2007 1.420 . S
C2006 C2012 1.420 1_545 S
C2007 C2002 1.399 . S
C2007 C2006 1.420 . S
C2007 C2008 1.490 1_545 S
C2008 C2007 1.490 1_565 S
C2008 C2009 1.493 1_565 S
C2008 C2010 1.558 1_565 S
C2008 C2011 1.568 . S
C2009 H1993 0.959 1_545 S
C2009 H1994 0.959 1_545 S
C2009 H1995 0.961 . S
C2009 C2008 1.493 1_545 S
C2010 H1996 0.960 . S
C2010 H1997 0.961 1_545 S
C2010 H1998 0.952 1_545 S
C2010 C2008 1.558 1_545 S
C2011 C2008 1.568 . S
C2011 C2012 1.396 . S
C2011 C2016 1.390 . S
C2012 C2006 1.420 1_565 S
C2012 C2011 1.396 . S
C2012 C2013 1.399 . S
C2013 H1999 0.929 . S
C2013 C2012 1.399 . S
C2013 C2014 1.385 . S
C2014 H2000 0.931 . S
C2014 C2013 1.385 . S
C2014 C2015 1.389 . S
C2015 C2014 1.389 . S
C2015 C2016 1.387 . S
C2016 H2001 0.930 . S
C2016 C2011 1.390 . S
C2016 C2015 1.387 . S
H2017 C2029 0.930 . S
H2018 C2031 0.930 . S
H2019 C2032 0.930 . S
H2020 C2036 0.959 . S
H2021 C2036 0.959 . S
H2022 C2036 0.961 . S
H2023 C2037 0.960 . S
H2024 C2037 0.961 . S
H2025 C2037 0.959 . S
H2026 C2040 0.929 . S
H2027 C2041 0.931 . S
H2028 C2043 0.930 . S
C2029 H2017 0.930 . S
C2029 C2030 1.399 . S
C2029 C2034 1.399 1_655 S
C2030 C2029 1.399 . S
C2030 C2031 1.376 . S
C2031 H2018 0.930 . S
C2031 C2030 1.376 . S
C2031 C2032 1.388 . S
C2032 H2019 0.930 . S
C2032 C2031 1.388 . S
C2032 C2033 1.390 1_655 S
C2033 C2032 1.390 1_455 S
C2033 C2034 1.394 . S
C2033 C2039 1.465 . S
C2034 C2029 1.399 1_455 S
C2034 C2033 1.394 . S
C2034 C2035 1.516 . S
C2035 C2034 1.516 . S
C2035 C2036 1.502 . S
C2035 C2037 1.561 . S
C2035 C2038 1.526 . S
C2036 H2020 0.959 . S
C2036 H2021 0.959 . S
C2036 H2022 0.961 . S
C2036 C2035 1.502 . S
C2037 H2023 0.960 . S
C2037 H2024 0.961 . S
C2037 H2025 0.959 . S
C2037 C2035 1.561 . S
C2038 C2035 1.526 . S
C2038 C2039 1.396 . S
C2038 C2043 1.390 . S
C2039 C2033 1.465 . S
C2039 C2038 1.396 . S
C2039 C2040 1.399 . S
C2040 H2026 0.929 . S
C2040 C2039 1.399 . S
C2040 C2041 1.385 . S
C2041 H2027 0.931 . S
C2041 C2040 1.385 . S
C2041 C2042 1.389 . S
C2042 C2041 1.389 . S
C2042 C2043 1.387 . S
C2043 H2028 0.930 . S
C2043 C2038 1.390 . S
C2043 C2042 1.387 . S
H2044 C2056 0.930 . S
H2045 C2058 0.930 . S
H2046 C2059 0.930 . S
H2047 C2063 0.959 . S
H2048 C2063 0.959 . S
H2049 C2063 0.961 . S
H2050 C2064 0.960 . S
H2051 C2064 0.961 . S
H2052 C2064 0.959 . S
H2053 C2067 0.929 . S
H2054 C2068 0.931 . S
H2055 C2070 0.930 . S
C2056 H2044 0.930 . S
C2056 C2057 1.399 . S
C2056 C2061 1.399 . S
C2057 C2056 1.399 . S
C2057 C2058 1.376 . S
C2058 H2045 0.930 . S
C2058 C2057 1.376 . S
C2058 C2059 1.388 . S
C2059 H2046 0.930 . S
C2059 C2058 1.388 . S
C2059 C2060 1.390 . S
C2060 C2059 1.390 . S
C2060 C2061 1.394 . S
C2060 C2066 1.474 . S
C2061 C2056 1.399 . S
C2061 C2060 1.394 . S
C2061 C2062 1.516 . S
C2062 C2061 1.516 . S
C2062 C2063 1.502 . S
C2062 C2064 1.561 . S
C2062 C2065 1.526 1_545 S
C2063 H2047 0.959 . S
C2063 H2048 0.959 . S
C2063 H2049 0.961 . S
C2063 C2062 1.502 . S
C2064 H2050 0.960 . S
C2064 H2051 0.961 . S
C2064 H2052 0.959 . S
C2064 C2062 1.561 . S
C2065 C2062 1.526 1_565 S
C2065 C2066 1.395 1_565 S
C2065 C2070 1.390 . S
C2066 C2060 1.474 . S
C2066 C2065 1.395 1_545 S
C2066 C2067 1.392 1_545 S
C2067 H2053 0.929 . S
C2067 C2066 1.392 1_565 S
C2067 C2068 1.385 . S
C2068 H2054 0.931 . S
C2068 C2067 1.385 . S
C2068 C2069 1.389 . S
C2069 C2068 1.389 . S
C2069 C2070 1.387 . S
C2070 H2055 0.930 . S
C2070 C2065 1.390 . S
C2070 C2069 1.387 . S
H2071 C2083 0.930 . S
H2072 C2085 0.930 . S
H2073 C2086 0.930 . S
H2074 C2090 0.959 . S
H2075 C2090 0.959 . S
H2076 C2090 0.961 . S
H2077 C2091 0.960 . S
H2078 C2091 0.961 1_455 S
H2079 C2091 0.959 . S
H2080 C2094 0.929 . S
H2081 C2095 0.931 . S
H2082 C2097 0.930 . S
C2083 H2071 0.930 . S
C2083 C2084 1.399 . S
C2083 C2088 1.399 . S
C2084 C2083 1.399 . S
C2084 C2085 1.376 . S
C2085 H2072 0.930 . S
C2085 C2084 1.376 . S
C2085 C2086 1.388 . S
C2086 H2073 0.930 . S
C2086 C2085 1.388 . S
C2086 C2087 1.390 . S
C2087 C2086 1.390 . S
C2087 C2088 1.394 . S
C2087 C2093 1.465 1_655 S
C2088 C2083 1.399 . S
C2088 C2087 1.394 . S
C2088 C2089 1.516 . S
C2089 C2088 1.516 . S
C2089 C2090 1.502 . S
C2089 C2091 1.561 . S
C2089 C2092 1.526 1_655 S
C2090 H2074 0.959 . S
C2090 H2075 0.959 . S
C2090 H2076 0.961 . S
C2090 C2089 1.502 . S
C2091 H2077 0.960 . S
C2091 H2078 0.961 1_655 S
C2091 H2079 0.959 . S
C2091 C2089 1.561 . S
C2092 C2089 1.526 1_455 S
C2092 C2093 1.396 . S
C2092 C2097 1.390 . S
C2093 C2087 1.465 1_455 S
C2093 C2092 1.396 . S
C2093 C2094 1.399 . S
C2094 H2080 0.929 . S
C2094 C2093 1.399 . S
C2094 C2095 1.385 . S
C2095 H2081 0.931 . S
C2095 C2094 1.385 . S
C2095 C2096 1.389 . S
C2096 C2095 1.389 . S
C2096 C2097 1.387 . S
C2097 H2082 0.930 . S
C2097 C2092 1.390 . S
C2097 C2096 1.387 . S
H2098 C2110 0.930 . S
H2099 C2112 0.930 . S
H2100 C2113 0.920 1_565 S
H2101 C2117 0.959 . S
H2102 C2117 0.959 . S
H2103 C2117 0.924 1_545 S
H2104 C2118 0.960 1_545 S
H2105 C2118 0.961 . S
H2106 C2118 0.959 . S
H2107 C2121 0.929 . S
H2108 C2122 0.931 . S
H2109 C2124 0.930 . S
C2110 H2098 0.930 . S
C2110 C2111 1.399 . S
C2110 C2115 1.399 . S
C2111 C2110 1.399 . S
C2111 C2112 1.376 . S
C2112 H2099 0.930 . S
C2112 C2111 1.376 . S
C2112 C2113 1.388 . S
C2113 H2100 0.920 1_545 S
C2113 C2112 1.388 . S
C2113 C2114 1.390 1_545 S
C2114 C2113 1.390 1_565 S
C2114 C2115 1.394 1_565 S
C2114 C2120 1.465 . S
C2115 C2110 1.399 . S
C2115 C2114 1.394 1_545 S
C2115 C2116 1.516 1_545 S
C2116 C2115 1.516 1_565 S
C2116 C2117 1.502 . S
C2116 C2118 1.561 . S
C2116 C2119 1.526 . S
C2117 H2101 0.959 . S
C2117 H2102 0.959 . S
C2117 H2103 0.924 1_565 S
C2117 C2116 1.502 . S
C2118 H2104 0.960 1_565 S
C2118 H2105 0.961 . S
C2118 H2106 0.959 . S
C2118 C2116 1.561 . S
C2119 C2116 1.526 . S
C2119 C2120 1.396 . S
C2119 C2124 1.390 . S
C2120 C2114 1.465 . S
C2120 C2119 1.396 . S
C2120 C2121 1.399 . S
C2121 H2107 0.929 . S
C2121 C2120 1.399 . S
C2121 C2122 1.385 . S
C2122 H2108 0.931 . S
C2122 C2121 1.385 . S
C2122 C2123 1.389 . S
C2123 C2122 1.389 . S
C2123 C2124 1.387 . S
C2124 H2109 0.930 . S
C2124 C2119 1.390 . S
C2124 C2123 1.387 . S
H2125 C2137 0.930 . S
H2126 C2139 0.930 . S
H2127 C2140 0.930 . S
H2128 C2144 0.959 . S
H2129 C2144 0.959 . S
H2130 C2144 0.961 1_655 S
H2131 C2145 0.960 1_655 S
H2132 C2145 0.961 . S
H2133 C2145 0.959 . S
H2134 C2148 0.929 . S
H2135 C2149 0.931 . S
H2136 C2151 0.930 . S
C2137 H2125 0.930 . S
C2137 C2138 1.399 . S
C2137 C2142 1.399 . S
C2138 C2137 1.399 . S
C2138 C2139 1.376 . S
C2139 H2126 0.930 . S
C2139 C2138 1.376 . S
C2139 C2140 1.388 . S
C2140 H2127 0.930 . S
C2140 C2139 1.388 . S
C2140 C2141 1.390 . S
C2141 C2140 1.390 . S
C2141 C2142 1.394 . S
C2141 C2147 1.465 1_655 S
C2142 C2137 1.399 . S
C2142 C2141 1.394 . S
C2142 C2143 1.516 1_655 S
C2143 C2142 1.516 1_455 S
C2143 C2144 1.502 . S
C2143 C2145 1.561 . S
C2143 C2146 1.526 . S
C2144 H2128 0.959 . S
C2144 H2129 0.959 . S
C2144 H2130 0.961 1_455 S
C2144 C2143 1.502 . S
C2145 H2131 0.960 1_455 S
C2145 H2132 0.961 . S
C2145 H2133 0.959 . S
C2145 C2143 1.561 . S
C2146 C2143 1.526 . S
C2146 C2147 1.396 . S
C2146 C2151 1.390 . S
C2147 C2141 1.465 1_455 S
C2147 C2146 1.396 . S
C2147 C2148 1.399 . S
C2148 H2134 0.929 . S
C2148 C2147 1.399 . S
C2148 C2149 1.385 . S
C2149 H2135 0.931 . S
C2149 C2148 1.385 . S
C2149 C2150 1.389 . S
C2150 C2149 1.389 . S
C2150 C2151 1.387 . S
C2151 H2136 0.930 . S
C2151 C2146 1.390 . S
C2151 C2150 1.387 . S
H2152 C2164 0.930 . S
H2153 C2166 0.930 . S
H2154 C2167 0.930 . S
H2155 C2171 0.959 . S
H2156 C2171 0.959 . S
H2157 C2171 0.961 . S
H2158 C2172 0.960 . S
H2159 C2172 0.961 . S
H2160 C2172 0.959 . S
H2161 C2175 0.929 1_554 S
H2162 C2176 0.931 . S
H2163 C2178 0.930 . S
C2164 H2152 0.930 . S
C2164 C2165 1.399 . S
C2164 C2169 1.399 . S
C2165 C2164 1.399 . S
C2165 C2166 1.376 . S
C2166 H2153 0.930 . S
C2166 C2165 1.376 . S
C2166 C2167 1.388 . S
C2167 H2154 0.930 . S
C2167 C2166 1.388 . S
C2167 C2168 1.390 . S
C2168 C2167 1.390 . S
C2168 C2169 1.394 . S
C2168 C2174 1.465 . S
C2169 C2164 1.399 . S
C2169 C2168 1.394 . S
C2169 C2170 1.516 . S
C2170 C2169 1.516 . S
C2170 C2171 1.502 . S
C2170 C2172 1.561 . S
C2170 C2173 1.526 . S
C2171 H2155 0.959 . S
C2171 H2156 0.959 . S
C2171 H2157 0.961 . S
C2171 C2170 1.502 . S
C2172 H2158 0.960 . S
C2172 H2159 0.961 . S
C2172 H2160 0.959 . S
C2172 C2170 1.561 . S
C2173 C2170 1.526 . S
C2173 C2174 1.396 . S
C2173 C2178 1.390 1_554 S
C2174 C2168 1.465 . S
C2174 C2173 1.396 . S
C2174 C2175 1.399 1_554 S
C2175 H2161 0.929 1_556 S
C2175 C2174 1.399 1_556 S
C2175 C2176 1.385 . S
C2176 H2162 0.931 . S
C2176 C2175 1.385 . S
C2176 C2177 1.389 . S
C2177 C2176 1.389 . S
C2177 C2178 1.387 . S
C2178 H2163 0.930 . S
C2178 C2173 1.390 1_556 S
C2178 C2177 1.387 . S
H2179 C2191 0.930 . S
H2180 C2193 0.930 . S
H2181 C2194 0.930 . S
H2182 C2198 0.959 . S
H2183 C2198 0.959 . S
H2184 C2198 0.961 1_556 S
H2185 C2199 0.927 1_556 S
H2186 C2199 0.961 . S
H2187 C2199 0.959 . S
H2188 C2202 0.929 . S
H2189 C2203 0.931 . S
H2190 C2205 0.930 . S
C2191 H2179 0.930 . S
C2191 C2192 1.399 . S
C2191 C2196 1.399 . S
C2192 C2191 1.399 . S
C2192 C2193 1.376 . S
C2193 H2180 0.930 . S
C2193 C2192 1.376 . S
C2193 C2194 1.388 . S
C2194 H2181 0.930 . S
C2194 C2193 1.388 . S
C2194 C2195 1.390 . S
C2195 C2194 1.390 . S
C2195 C2196 1.394 . S
C2195 C2201 1.465 1_556 S
C2196 C2191 1.399 . S
C2196 C2195 1.394 . S
C2196 C2197 1.516 1_556 S
C2197 C2196 1.516 1_554 S
C2197 C2198 1.502 . S
C2197 C2199 1.561 . S
C2197 C2200 1.526 . S
C2198 H2182 0.959 . S
C2198 H2183 0.959 . S
C2198 H2184 0.961 1_554 S
C2198 C2197 1.502 . S
C2199 H2185 0.927 1_554 S
C2199 H2186 0.961 . S
C2199 H2187 0.959 . S
C2199 C2197 1.561 . S
C2200 C2197 1.526 . S
C2200 C2201 1.396 . S
C2200 C2205 1.390 . S
C2201 C2195 1.465 1_554 S
C2201 C2200 1.396 . S
C2201 C2202 1.399 . S
C2202 H2188 0.929 . S
C2202 C2201 1.399 . S
C2202 C2203 1.385 . S
C2203 H2189 0.931 . S
C2203 C2202 1.385 . S
C2203 C2204 1.389 . S
C2204 C2203 1.389 . S
C2204 C2205 1.387 . S
C2205 H2190 0.930 . S
C2205 C2200 1.390 . S
C2205 C2204 1.387 . S
H2206 C2218 0.930 . S
H2207 C2220 0.930 . S
H2208 C2221 0.930 . S
H2209 C2225 0.959 . S
H2210 C2225 0.959 . S
H2211 C2225 0.961 . S
H2212 C2226 0.960 . S
H2213 C2226 0.961 . S
H2214 C2226 0.959 . S
H2215 C2229 0.929 . S
H2216 C2230 0.931 . S
H2217 C2232 0.930 . S
C2218 H2206 0.930 . S
C2218 C2219 1.399 . S
C2218 C2223 1.399 1_556 S
C2219 C2218 1.399 . S
C2219 C2220 1.376 . S
C2220 H2207 0.930 . S
C2220 C2219 1.376 . S
C2220 C2221 1.388 . S
C2221 H2208 0.930 . S
C2221 C2220 1.388 . S
C2221 C2222 1.390 1_556 S
C2222 C2221 1.390 1_554 S
C2222 C2223 1.394 . S
C2222 C2228 1.465 . S
C2223 C2218 1.399 1_554 S
C2223 C2222 1.394 . S
C2223 C2224 1.516 . S
C2224 C2223 1.516 . S
C2224 C2225 1.502 . S
C2224 C2226 1.561 . S
C2224 C2227 1.526 . S
C2225 H2209 0.959 . S
C2225 H2210 0.959 . S
C2225 H2211 0.961 . S
C2225 C2224 1.502 . S
C2226 H2212 0.960 . S
C2226 H2213 0.961 . S
C2226 H2214 0.959 . S
C2226 C2224 1.561 . S
C2227 C2224 1.526 . S
C2227 C2228 1.396 . S
C2227 C2232 1.390 . S
C2228 C2222 1.465 . S
C2228 C2227 1.396 . S
C2228 C2229 1.399 . S
C2229 H2215 0.929 . S
C2229 C2228 1.399 . S
C2229 C2230 1.385 . S
C2230 H2216 0.931 . S
C2230 C2229 1.385 . S
C2230 C2231 1.389 . S
C2231 C2230 1.389 . S
C2231 C2232 1.387 . S
C2232 H2217 0.930 . S
C2232 C2227 1.390 . S
C2232 C2231 1.387 . S
H2233 C2245 0.930 . S
H2234 C2247 0.930 . S
H2235 C2248 0.930 . S
H2236 C2252 0.959 . S
H2237 C2252 0.959 . S
H2238 C2252 0.961 1_554 S
H2239 C2253 0.960 1_554 S
H2240 C2253 0.961 . S
H2241 C2253 0.959 . S
H2242 C2256 0.929 . S
H2243 C2257 0.931 . S
H2244 C2259 0.930 . S
C2245 H2233 0.930 . S
C2245 C2246 1.399 . S
C2245 C2250 1.399 . S
C2246 C2245 1.399 . S
C2246 C2247 1.376 . S
C2247 H2234 0.930 . S
C2247 C2246 1.376 . S
C2247 C2248 1.388 . S
C2248 H2235 0.930 . S
C2248 C2247 1.388 . S
C2248 C2249 1.390 . S
C2249 C2248 1.390 . S
C2249 C2250 1.394 . S
C2249 C2255 1.465 1_554 S
C2250 C2245 1.399 . S
C2250 C2249 1.394 . S
C2250 C2251 1.516 1_554 S
C2251 C2250 1.516 1_556 S
C2251 C2252 1.502 . S
C2251 C2253 1.561 . S
C2251 C2254 1.526 . S
C2252 H2236 0.959 . S
C2252 H2237 0.959 . S
C2252 H2238 0.961 1_556 S
C2252 C2251 1.502 . S
C2253 H2239 0.960 1_556 S
C2253 H2240 0.961 . S
C2253 H2241 0.959 . S
C2253 C2251 1.561 . S
C2254 C2251 1.526 . S
C2254 C2255 1.396 . S
C2254 C2259 1.390 . S
C2255 C2249 1.465 1_556 S
C2255 C2254 1.396 . S
C2255 C2256 1.399 . S
C2256 H2242 0.929 . S
C2256 C2255 1.399 . S
C2256 C2257 1.385 . S
C2257 H2243 0.931 . S
C2257 C2256 1.385 . S
C2257 C2258 1.389 . S
C2258 C2257 1.389 . S
C2258 C2259 1.387 . S
C2259 H2244 0.930 . S
C2259 C2254 1.390 . S
C2259 C2258 1.387 . S
H2260 C2272 0.930 . S
H2261 C2274 0.930 . S
H2262 C2275 0.930 . S
H2263 C2279 0.959 . S
H2264 C2279 0.959 . S
H2265 C2279 0.961 1_556 S
H2266 C2280 0.936 1_556 S
H2267 C2280 0.961 . S
H2268 C2280 0.959 . S
H2269 C2283 0.929 . S
H2270 C2284 0.931 . S
H2271 C2286 0.930 . S
C2272 H2260 0.930 . S
C2272 C2273 1.399 . S
C2272 C2277 1.399 . S
C2273 C2272 1.399 . S
C2273 C2274 1.376 . S
C2274 H2261 0.930 . S
C2274 C2273 1.376 . S
C2274 C2275 1.388 . S
C2275 H2262 0.930 . S
C2275 C2274 1.388 . S
C2275 C2276 1.390 . S
C2276 C2275 1.390 . S
C2276 C2277 1.394 . S
C2276 C2282 1.465 1_556 S
C2277 C2272 1.399 . S
C2277 C2276 1.394 . S
C2277 C2278 1.516 1_556 S
C2278 C2277 1.516 1_554 S
C2278 C2279 1.502 . S
C2278 C2280 1.561 . S
C2278 C2281 1.526 . S
C2279 H2263 0.959 . S
C2279 H2264 0.959 . S
C2279 H2265 0.961 1_554 S
C2279 C2278 1.502 . S
C2280 H2266 0.936 1_554 S
C2280 H2267 0.961 . S
C2280 H2268 0.959 . S
C2280 C2278 1.561 . S
C2281 C2278 1.526 . S
C2281 C2282 1.396 . S
C2281 C2286 1.390 . S
C2282 C2276 1.465 1_554 S
C2282 C2281 1.396 . S
C2282 C2283 1.399 . S
C2283 H2269 0.929 . S
C2283 C2282 1.399 . S
C2283 C2284 1.385 . S
C2284 H2270 0.931 . S
C2284 C2283 1.385 . S
C2284 C2285 1.389 . S
C2285 C2284 1.389 . S
C2285 C2286 1.387 . S
C2286 H2271 0.930 . S
C2286 C2281 1.390 . S
C2286 C2285 1.387 . S
H2287 C2299 0.930 . S
H2288 C2301 0.930 . S
H2289 C2302 0.930 . S
H2290 C2306 0.959 . S
H2291 C2306 0.959 . S
H2292 C2306 0.961 . S
H2293 C2307 0.960 . S
H2294 C2307 0.961 . S
H2295 C2307 0.959 . S
H2296 C2310 0.926 1_554 S
H2297 C2311 0.931 . S
H2298 C2313 0.930 . S
C2299 H2287 0.930 . S
C2299 C2300 1.399 . S
C2299 C2304 1.399 . S
C2300 C2299 1.399 . S
C2300 C2301 1.376 . S
C2301 H2288 0.930 . S
C2301 C2300 1.376 . S
C2301 C2302 1.388 . S
C2302 H2289 0.930 . S
C2302 C2301 1.388 . S
C2302 C2303 1.390 . S
C2303 C2302 1.390 . S
C2303 C2304 1.394 . S
C2303 C2309 1.465 . S
C2304 C2299 1.399 . S
C2304 C2303 1.394 . S
C2304 C2305 1.516 . S
C2305 C2304 1.516 . S
C2305 C2306 1.502 . S
C2305 C2307 1.561 . S
C2305 C2308 1.526 . S
C2306 H2290 0.959 . S
C2306 H2291 0.959 . S
C2306 H2292 0.961 . S
C2306 C2305 1.502 . S
C2307 H2293 0.960 . S
C2307 H2294 0.961 . S
C2307 H2295 0.959 . S
C2307 C2305 1.561 . S
C2308 C2305 1.526 . S
C2308 C2309 1.396 . S
C2308 C2313 1.390 1_554 S
C2309 C2303 1.465 . S
C2309 C2308 1.396 . S
C2309 C2310 1.391 1_554 S
C2310 H2296 0.926 1_556 S
C2310 C2309 1.391 1_556 S
C2310 C2311 1.396 . S
C2311 H2297 0.931 . S
C2311 C2310 1.396 . S
C2311 C2312 1.389 . S
C2312 C2311 1.389 . S
C2312 C2313 1.387 . S
C2313 H2298 0.930 . S
C2313 C2308 1.390 1_556 S
C2313 C2312 1.387 . S
H2314 C2326 0.930 . S
H2315 C2328 0.930 . S
H2316 C2329 0.930 . S
H2317 C2333 0.959 . S
H2318 C2333 0.959 . S
H2319 C2333 0.961 1_554 S
H2320 C2334 0.960 1_554 S
H2321 C2334 0.961 . S
H2322 C2334 0.959 . S
H2323 C2337 0.929 . S
H2324 C2338 0.931 . S
H2325 C2340 0.930 . S
C2326 H2314 0.930 . S
C2326 C2327 1.399 . S
C2326 C2331 1.399 . S
C2327 C2326 1.399 . S
C2327 C2328 1.376 . S
C2328 H2315 0.930 . S
C2328 C2327 1.376 . S
C2328 C2329 1.388 . S
C2329 H2316 0.930 . S
C2329 C2328 1.388 . S
C2329 C2330 1.390 . S
C2330 C2329 1.390 . S
C2330 C2331 1.394 . S
C2330 C2336 1.465 1_554 S
C2331 C2326 1.399 . S
C2331 C2330 1.394 . S
C2331 C2332 1.516 1_554 S
C2332 C2331 1.516 1_556 S
C2332 C2333 1.502 . S
C2332 C2334 1.561 . S
C2332 C2335 1.526 . S
C2333 H2317 0.959 . S
C2333 H2318 0.959 . S
C2333 H2319 0.961 1_556 S
C2333 C2332 1.502 . S
C2334 H2320 0.960 1_556 S
C2334 H2321 0.961 . S
C2334 H2322 0.959 . S
C2334 C2332 1.561 . S
C2335 C2332 1.526 . S
C2335 C2336 1.396 . S
C2335 C2340 1.390 . S
C2336 C2330 1.465 1_556 S
C2336 C2335 1.396 . S
C2336 C2337 1.399 . S
C2337 H2323 0.929 . S
C2337 C2336 1.399 . S
C2337 C2338 1.385 . S
C2338 H2324 0.931 . S
C2338 C2337 1.385 . S
C2338 C2339 1.389 . S
C2339 C2338 1.389 . S
C2339 C2340 1.387 . S
C2340 H2325 0.930 . S
C2340 C2335 1.390 . S
C2340 C2339 1.387 . S
H2341 C2353 0.930 . S
H2342 C2355 0.930 . S
H2343 C2356 0.930 . S
H2344 C2360 0.959 . S
H2345 C2360 0.959 . S
H2346 C2360 0.961 . S
H2347 C2361 0.960 . S
H2348 C2361 0.961 . S
H2349 C2361 0.959 . S
H2350 C2364 0.929 . S
H2351 C2365 0.931 . S
H2352 C2367 0.930 . S
C2353 H2341 0.930 . S
C2353 C2354 1.399 . S
C2353 C2358 1.399 1_556 S
C2354 C2353 1.399 . S
C2354 C2355 1.376 . S
C2355 H2342 0.930 . S
C2355 C2354 1.376 . S
C2355 C2356 1.388 1_556 S
C2356 H2343 0.930 . S
C2356 C2355 1.388 1_554 S
C2356 C2357 1.390 . S
C2357 C2356 1.390 . S
C2357 C2358 1.394 . S
C2357 C2363 1.465 . S
C2358 C2353 1.399 1_554 S
C2358 C2357 1.394 . S
C2358 C2359 1.516 . S
C2359 C2358 1.516 . S
C2359 C2360 1.502 . S
C2359 C2361 1.561 . S
C2359 C2362 1.526 . S
C2360 H2344 0.959 . S
C2360 H2345 0.959 . S
C2360 H2346 0.961 . S
C2360 C2359 1.502 . S
C2361 H2347 0.960 . S
C2361 H2348 0.961 . S
C2361 H2349 0.959 . S
C2361 C2359 1.561 . S
C2362 C2359 1.526 . S
C2362 C2363 1.396 . S
C2362 C2367 1.390 . S
C2363 C2357 1.465 . S
C2363 C2362 1.396 . S
C2363 C2364 1.399 . S
C2364 H2350 0.929 . S
C2364 C2363 1.399 . S
C2364 C2365 1.385 . S
C2365 H2351 0.931 . S
C2365 C2364 1.385 . S
C2365 C2366 1.389 . S
C2366 C2365 1.389 . S
C2366 C2367 1.387 . S
C2367 H2352 0.930 . S
C2367 C2362 1.390 . S
C2367 C2366 1.387 . S
H2368 C2380 0.930 . S
H2369 C2382 0.930 . S
H2370 C2383 0.930 . S
H2371 C2387 0.959 . S
H2372 C2387 0.959 1_655 S
H2373 C2387 0.961 . S
H2374 C2388 0.960 . S
H2375 C2388 0.961 1_655 S
H2376 C2388 0.959 . S
H2377 C2391 0.929 . S
H2378 C2392 0.931 . S
H2379 C2394 0.930 . S
C2380 H2368 0.930 . S
C2380 C2381 1.399 . S
C2380 C2385 1.399 . S
C2381 C2380 1.399 . S
C2381 C2382 1.376 . S
C2382 H2369 0.930 . S
C2382 C2381 1.376 . S
C2382 C2383 1.388 . S
C2383 H2370 0.930 . S
C2383 C2382 1.388 . S
C2383 C2384 1.390 . S
C2384 C2383 1.390 . S
C2384 C2385 1.394 . S
C2384 C2390 1.465 1_455 S
C2385 C2380 1.399 . S
C2385 C2384 1.394 . S
C2385 C2386 1.516 . S
C2386 C2385 1.516 . S
C2386 C2387 1.502 . S
C2386 C2388 1.561 . S
C2386 C2389 1.526 1_455 S
C2387 H2371 0.959 . S
C2387 H2372 0.959 1_455 S
C2387 H2373 0.961 . S
C2387 C2386 1.502 . S
C2388 H2374 0.960 . S
C2388 H2375 0.961 1_455 S
C2388 H2376 0.959 . S
C2388 C2386 1.561 . S
C2389 C2386 1.526 1_655 S
C2389 C2390 1.396 . S
C2389 C2394 1.390 . S
C2390 C2384 1.465 1_655 S
C2390 C2389 1.396 . S
C2390 C2391 1.399 . S
C2391 H2377 0.929 . S
C2391 C2390 1.399 . S
C2391 C2392 1.385 . S
C2392 H2378 0.931 . S
C2392 C2391 1.385 . S
C2392 C2393 1.389 . S
C2393 C2392 1.389 . S
C2393 C2394 1.387 . S
C2394 H2379 0.930 . S
C2394 C2389 1.390 . S
C2394 C2393 1.387 . S
H2395 C2407 0.930 . S
H2396 C2409 0.930 . S
H2397 C2410 0.930 . S
H2398 C2414 0.959 . S
H2399 C2414 0.959 . S
H2400 C2414 0.961 1_455 S
H2401 C2415 0.937 1_455 S
H2402 C2415 0.984 . S
H2403 C2415 0.958 . S
H2404 C2418 0.929 . S
H2405 C2419 0.931 . S
H2406 C2421 0.930 . S
C2407 H2395 0.930 . S
C2407 C2408 1.399 . S
C2407 C2412 1.399 . S
C2408 C2407 1.399 . S
C2408 C2409 1.376 . S
C2409 H2396 0.930 . S
C2409 C2408 1.376 . S
C2409 C2410 1.388 . S
C2410 H2397 0.930 . S
C2410 C2409 1.388 . S
C2410 C2411 1.390 . S
C2411 C2410 1.390 . S
C2411 C2412 1.394 . S
C2411 C2417 1.465 1_455 S
C2412 C2407 1.399 . S
C2412 C2411 1.394 . S
C2412 C2413 1.516 1_455 S
C2413 C2412 1.516 1_655 S
C2413 C2414 1.502 . S
C2413 C2415 1.563 . S
C2413 C2416 1.526 . S
C2414 H2398 0.959 . S
C2414 H2399 0.959 . S
C2414 H2400 0.961 1_655 S
C2414 C2413 1.502 . S
C2415 H2401 0.937 1_655 S
C2415 H2402 0.984 . S
C2415 H2403 0.958 . S
C2415 C2413 1.563 . S
C2416 C2413 1.526 . S
C2416 C2417 1.396 . S
C2416 C2421 1.390 . S
C2417 C2411 1.465 1_655 S
C2417 C2416 1.396 . S
C2417 C2418 1.399 . S
C2418 H2404 0.929 . S
C2418 C2417 1.399 . S
C2418 C2419 1.385 . S
C2419 H2405 0.931 . S
C2419 C2418 1.385 . S
C2419 C2420 1.389 . S
C2420 C2419 1.389 . S
C2420 C2421 1.387 . S
C2421 H2406 0.930 . S
C2421 C2416 1.390 . S
C2421 C2420 1.387 . S
H2422 C2434 0.930 . S
H2423 C2436 0.930 . S
H2424 C2437 0.930 . S
H2425 C2441 0.959 . S
H2426 C2441 0.959 1_545 S
H2427 C2441 0.961 . S
H2428 C2442 0.960 . S
H2429 C2442 0.961 . S
H2430 C2442 0.959 . S
H2431 C2445 0.929 . S
H2432 C2446 0.931 . S
H2433 C2448 0.930 . S
C2434 H2422 0.930 . S
C2434 C2435 1.399 . S
C2434 C2439 1.399 . S
C2435 C2434 1.399 . S
C2435 C2436 1.376 . S
C2436 H2423 0.930 . S
C2436 C2435 1.376 . S
C2436 C2437 1.388 . S
C2437 H2424 0.930 . S
C2437 C2436 1.388 . S
C2437 C2438 1.390 . S
C2438 C2437 1.390 . S
C2438 C2439 1.394 . S
C2438 C2444 1.465 1_565 S
C2439 C2434 1.399 . S
C2439 C2438 1.394 . S
C2439 C2440 1.516 . S
C2440 C2439 1.516 . S
C2440 C2441 1.502 . S
C2440 C2442 1.561 . S
C2440 C2443 1.526 1_565 S
C2441 H2425 0.959 . S
C2441 H2426 0.959 1_565 S
C2441 H2427 0.961 . S
C2441 C2440 1.502 . S
C2442 H2428 0.960 . S
C2442 H2429 0.961 . S
C2442 H2430 0.959 . S
C2442 C2440 1.561 . S
C2443 C2440 1.526 1_545 S
C2443 C2444 1.396 . S
C2443 C2448 1.390 . S
C2444 C2438 1.465 1_545 S
C2444 C2443 1.396 . S
C2444 C2445 1.399 . S
C2445 H2431 0.929 . S
C2445 C2444 1.399 . S
C2445 C2446 1.385 . S
C2446 H2432 0.931 . S
C2446 C2445 1.385 . S
C2446 C2447 1.389 . S
C2447 C2446 1.389 . S
C2447 C2448 1.387 . S
C2448 H2433 0.930 . S
C2448 C2443 1.390 . S
C2448 C2447 1.387 . S
H2449 C2461 0.930 . S
H2450 C2463 0.930 . S
H2451 C2464 0.930 . S
H2452 C2468 0.959 . S
H2453 C2468 0.959 . S
H2454 C2468 0.961 . S
H2455 C2469 0.960 . S
H2456 C2469 0.961 . S
H2457 C2469 0.959 . S
H2458 C2472 0.929 . S
H2459 C2473 0.931 . S
H2460 C2475 0.930 . S
C2461 H2449 0.930 . S
C2461 C2462 1.399 . S
C2461 C2466 1.399 . S
C2462 C2461 1.399 . S
C2462 C2463 1.376 . S
C2463 H2450 0.930 . S
C2463 C2462 1.376 . S
C2463 C2464 1.388 . S
C2464 H2451 0.930 . S
C2464 C2463 1.388 . S
C2464 C2465 1.390 . S
C2465 C2464 1.390 . S
C2465 C2466 1.394 . S
C2465 C2471 1.465 . S
C2466 C2461 1.399 . S
C2466 C2465 1.394 . S
C2466 C2467 1.516 . S
C2467 C2466 1.516 . S
C2467 C2468 1.502 . S
C2467 C2469 1.561 . S
C2467 C2470 1.526 . S
C2468 H2452 0.959 . S
C2468 H2453 0.959 . S
C2468 H2454 0.961 . S
C2468 C2467 1.502 . S
C2469 H2455 0.960 . S
C2469 H2456 0.961 . S
C2469 H2457 0.959 . S
C2469 C2467 1.561 . S
C2470 C2467 1.526 . S
C2470 C2471 1.396 . S
C2470 C2475 1.390 1_455 S
C2471 C2465 1.465 . S
C2471 C2470 1.396 . S
C2471 C2472 1.399 1_455 S
C2472 H2458 0.929 . S
C2472 C2471 1.399 1_655 S
C2472 C2473 1.385 . S
C2473 H2459 0.931 . S
C2473 C2472 1.385 . S
C2473 C2474 1.389 . S
C2474 C2473 1.389 . S
C2474 C2475 1.387 . S
C2475 H2460 0.930 . S
C2475 C2470 1.390 1_655 S
C2475 C2474 1.387 . S
H2476 C2488 0.930 . S
H2477 C2490 0.930 . S
H2478 C2491 0.930 . S
H2479 C2495 0.967 . S
H2480 C2495 0.987 . S
H2481 C2495 0.934 1_565 S
H2482 C2496 0.960 . S
H2483 C2496 0.961 1_545 S
H2484 C2496 0.959 . S
H2485 C2499 0.929 . S
H2486 C2500 0.931 . S
H2487 C2502 0.930 . S
C2488 H2476 0.930 . S
C2488 C2489 1.399 . S
C2488 C2493 1.399 . S
C2489 C2488 1.399 . S
C2489 C2490 1.376 . S
C2490 H2477 0.930 . S
C2490 C2489 1.376 . S
C2490 C2491 1.388 . S
C2491 H2478 0.930 . S
C2491 C2490 1.388 . S
C2491 C2492 1.390 . S
C2492 C2491 1.390 . S
C2492 C2493 1.394 . S
C2492 C2498 1.465 . S
C2493 C2488 1.399 . S
C2493 C2492 1.394 . S
C2493 C2494 1.516 . S
C2494 C2493 1.516 . S
C2494 C2495 1.494 1_565 S
C2494 C2496 1.561 . S
C2494 C2497 1.526 1_565 S
C2495 H2479 0.967 . S
C2495 H2480 0.987 . S
C2495 H2481 0.934 1_545 S
C2495 C2494 1.494 1_545 S
C2496 H2482 0.960 . S
C2496 H2483 0.961 1_565 S
C2496 H2484 0.959 . S
C2496 C2494 1.561 . S
C2497 C2494 1.526 1_545 S
C2497 C2498 1.396 1_545 S
C2497 C2502 1.390 . S
C2498 C2492 1.465 . S
C2498 C2497 1.396 1_565 S
C2498 C2499 1.399 1_565 S
C2499 H2485 0.929 . S
C2499 C2498 1.399 1_545 S
C2499 C2500 1.385 . S
C2500 H2486 0.931 . S
C2500 C2499 1.385 . S
C2500 C2501 1.389 . S
C2501 C2500 1.389 . S
C2501 C2502 1.387 . S
C2502 H2487 0.930 . S
C2502 C2497 1.390 . S
C2502 C2501 1.387 . S
H2503 C2515 0.930 . S
H2504 C2517 0.930 . S
H2505 C2518 0.930 . S
H2506 C2522 0.959 . S
H2507 C2522 0.959 . S
H2508 C2522 0.961 . S
H2509 C2523 0.960 . S
H2510 C2523 0.961 . S
H2511 C2523 0.959 . S
H2512 C2526 0.929 . S
H2513 C2527 0.931 . S
H2514 C2529 0.930 . S
C2515 H2503 0.930 . S
C2515 C2516 1.399 . S
C2515 C2520 1.399 . S
C2516 C2515 1.399 . S
C2516 C2517 1.376 . S
C2517 H2504 0.930 . S
C2517 C2516 1.376 . S
C2517 C2518 1.388 . S
C2518 H2505 0.930 . S
C2518 C2517 1.388 . S
C2518 C2519 1.390 . S
C2519 C2518 1.390 . S
C2519 C2520 1.394 . S
C2519 C2525 1.465 1_655 S
C2520 C2515 1.399 . S
C2520 C2519 1.394 . S
C2520 C2521 1.516 . S
C2521 C2520 1.516 . S
C2521 C2522 1.502 . S
C2521 C2523 1.561 . S
C2521 C2524 1.526 1_655 S
C2522 H2506 0.959 . S
C2522 H2507 0.959 . S
C2522 H2508 0.961 . S
C2522 C2521 1.502 . S
C2523 H2509 0.960 . S
C2523 H2510 0.961 . S
C2523 H2511 0.959 . S
C2523 C2521 1.561 . S
C2524 C2521 1.526 1_455 S
C2524 C2525 1.396 . S
C2524 C2529 1.390 . S
C2525 C2519 1.465 1_455 S
C2525 C2524 1.396 . S
C2525 C2526 1.399 . S
C2526 H2512 0.929 . S
C2526 C2525 1.399 . S
C2526 C2527 1.385 . S
C2527 H2513 0.931 . S
C2527 C2526 1.385 . S
C2527 C2528 1.389 . S
C2528 C2527 1.389 . S
C2528 C2529 1.387 . S
C2529 H2514 0.930 . S
C2529 C2524 1.390 . S
C2529 C2528 1.387 . S
H2530 C2542 0.930 . S
H2531 C2544 0.930 . S
H2532 C2545 0.930 . S
H2533 C2549 0.959 . S
H2534 C2549 0.959 1_545 S
H2535 C2549 0.961 . S
H2536 C2550 0.960 . S
H2537 C2550 0.961 . S
H2538 C2550 0.959 . S
H2539 C2553 0.915 1_565 S
H2540 C2554 0.931 . S
H2541 C2556 0.930 . S
C2542 H2530 0.930 . S
C2542 C2543 1.399 . S
C2542 C2547 1.399 . S
C2543 C2542 1.399 . S
C2543 C2544 1.376 . S
C2544 H2531 0.930 . S
C2544 C2543 1.376 . S
C2544 C2545 1.388 . S
C2545 H2532 0.930 . S
C2545 C2544 1.388 . S
C2545 C2546 1.390 . S
C2546 C2545 1.390 . S
C2546 C2547 1.394 . S
C2546 C2552 1.465 . S
C2547 C2542 1.399 . S
C2547 C2546 1.394 . S
C2547 C2548 1.516 . S
C2548 C2547 1.516 . S
C2548 C2549 1.502 . S
C2548 C2550 1.561 . S
C2548 C2551 1.526 1_565 S
C2549 H2533 0.959 . S
C2549 H2534 0.959 1_565 S
C2549 H2535 0.961 . S
C2549 C2548 1.502 . S
C2550 H2536 0.960 . S
C2550 H2537 0.961 . S
C2550 H2538 0.959 . S
C2550 C2548 1.561 . S
C2551 C2548 1.526 1_545 S
C2551 C2552 1.396 1_545 S
C2551 C2556 1.390 . S
C2552 C2546 1.465 . S
C2552 C2551 1.396 1_565 S
C2552 C2553 1.399 1_565 S
C2553 H2539 0.915 1_545 S
C2553 C2552 1.399 1_545 S
C2553 C2554 1.385 . S
C2554 H2540 0.931 . S
C2554 C2553 1.385 . S
C2554 C2555 1.389 . S
C2555 C2554 1.389 . S
C2555 C2556 1.387 . S
C2556 H2541 0.930 . S
C2556 C2551 1.390 . S
C2556 C2555 1.387 . S
H2557 C2569 0.930 . S
H2558 C2571 0.930 . S
H2559 C2572 0.930 . S
H2560 C2576 0.959 . S
H2561 C2576 0.959 . S
H2562 C2576 0.961 . S
H2563 C2577 0.960 . S
H2564 C2577 0.961 . S
H2565 C2577 0.959 . S
H2566 C2580 0.929 . S
H2567 C2581 0.931 . S
H2568 C2583 0.930 . S
C2569 H2557 0.930 . S
C2569 C2570 1.399 . S
C2569 C2574 1.399 . S
C2570 C2569 1.399 . S
C2570 C2571 1.376 . S
C2571 H2558 0.930 . S
C2571 C2570 1.376 . S
C2571 C2572 1.388 . S
C2572 H2559 0.930 . S
C2572 C2571 1.388 . S
C2572 C2573 1.365 1_565 S
C2573 C2572 1.365 1_545 S
C2573 C2574 1.387 1_545 S
C2573 C2579 1.499 . S
C2574 C2569 1.399 . S
C2574 C2573 1.387 1_565 S
C2574 C2575 1.516 1_565 S
C2575 C2574 1.516 1_545 S
C2575 C2576 1.502 . S
C2575 C2577 1.561 . S
C2575 C2578 1.526 . S
C2576 H2560 0.959 . S
C2576 H2561 0.959 . S
C2576 H2562 0.961 . S
C2576 C2575 1.502 . S
C2577 H2563 0.960 . S
C2577 H2564 0.961 . S
C2577 H2565 0.959 . S
C2577 C2575 1.561 . S
C2578 C2575 1.526 . S
C2578 C2579 1.396 . S
C2578 C2583 1.390 . S
C2579 C2573 1.499 . S
C2579 C2578 1.396 . S
C2579 C2580 1.399 . S
C2580 H2566 0.929 . S
C2580 C2579 1.399 . S
C2580 C2581 1.385 . S
C2581 H2567 0.931 . S
C2581 C2580 1.385 . S
C2581 C2582 1.389 . S
C2582 C2581 1.389 . S
C2582 C2583 1.387 . S
C2583 H2568 0.930 . S
C2583 C2578 1.390 . S
C2583 C2582 1.387 . S
H2584 C2596 0.930 . S
H2585 C2598 0.930 . S
H2586 C2599 0.930 . S
H2587 C2603 0.959 . S
H2588 C2603 0.959 . S
H2589 C2603 0.961 . S
H2590 C2604 0.960 . S
H2591 C2604 0.961 . S
H2592 C2604 0.959 . S
H2593 C2607 0.929 . S
H2594 C2608 0.931 . S
H2595 C2610 0.930 . S
C2596 H2584 0.930 . S
C2596 C2597 1.399 . S
C2596 C2601 1.399 . S
C2597 C2596 1.399 . S
C2597 C2598 1.376 . S
C2598 H2585 0.930 . S
C2598 C2597 1.376 . S
C2598 C2599 1.388 . S
C2599 H2586 0.930 . S
C2599 C2598 1.388 . S
C2599 C2600 1.390 . S
C2600 C2599 1.390 . S
C2600 C2601 1.394 . S
C2600 C2606 1.465 . S
C2601 C2596 1.399 . S
C2601 C2600 1.394 . S
C2601 C2602 1.516 . S
C2602 C2601 1.516 . S
C2602 C2603 1.502 . S
C2602 C2604 1.561 . S
C2602 C2605 1.526 . S
C2603 H2587 0.959 . S
C2603 H2588 0.959 . S
C2603 H2589 0.961 . S
C2603 C2602 1.502 . S
C2604 H2590 0.960 . S
C2604 H2591 0.961 . S
C2604 H2592 0.959 . S
C2604 C2602 1.561 . S
C2605 C2602 1.526 . S
C2605 C2606 1.396 . S
C2605 C2610 1.390 . S
C2606 C2600 1.465 . S
C2606 C2605 1.396 . S
C2606 C2607 1.399 . S
C2607 H2593 0.929 . S
C2607 C2606 1.399 . S
C2607 C2608 1.385 . S
C2608 H2594 0.931 . S
C2608 C2607 1.385 . S
C2608 C2609 1.389 . S
C2609 C2608 1.389 . S
C2609 C2610 1.387 . S
C2610 H2595 0.930 . S
C2610 C2605 1.390 . S
C2610 C2609 1.387 . S
H2611 C2623 0.930 . S
H2612 C2625 0.930 . S
H2613 C2626 0.930 . S
H2614 C2630 0.959 . S
H2615 C2630 0.959 . S
H2616 C2630 0.961 . S
H2617 C2631 0.960 . S
H2618 C2631 0.961 . S
H2619 C2631 0.959 . S
H2620 C2634 0.929 . S
H2621 C2635 0.931 . S
H2622 C2637 0.930 . S
C2623 H2611 0.930 . S
C2623 C2624 1.399 . S
C2623 C2628 1.399 . S
C2624 C2623 1.399 . S
C2624 C2625 1.376 . S
C2625 H2612 0.930 . S
C2625 C2624 1.376 . S
C2625 C2626 1.388 . S
C2626 H2613 0.930 . S
C2626 C2625 1.388 . S
C2626 C2627 1.390 . S
C2627 C2626 1.390 . S
C2627 C2628 1.394 . S
C2627 C2633 1.465 . S
C2628 C2623 1.399 . S
C2628 C2627 1.394 . S
C2628 C2629 1.516 . S
C2629 C2628 1.516 . S
C2629 C2630 1.502 . S
C2629 C2631 1.561 . S
C2629 C2632 1.526 . S
C2630 H2614 0.959 . S
C2630 H2615 0.959 . S
C2630 H2616 0.961 . S
C2630 C2629 1.502 . S
C2631 H2617 0.960 . S
C2631 H2618 0.961 . S
C2631 H2619 0.959 . S
C2631 C2629 1.561 . S
C2632 C2629 1.526 . S
C2632 C2633 1.396 . S
C2632 C2637 1.390 . S
C2633 C2627 1.465 . S
C2633 C2632 1.396 . S
C2633 C2634 1.399 . S
C2634 H2620 0.929 . S
C2634 C2633 1.399 . S
C2634 C2635 1.385 . S
C2635 H2621 0.931 . S
C2635 C2634 1.385 . S
C2635 C2636 1.389 . S
C2636 C2635 1.389 . S
C2636 C2637 1.387 . S
C2637 H2622 0.930 . S
C2637 C2632 1.390 . S
C2637 C2636 1.387 . S
H2638 C2650 0.930 . S
H2639 C2652 0.930 . S
H2640 C2653 0.930 . S
H2641 C2657 0.959 . S
H2642 C2657 0.959 . S
H2643 C2657 0.961 . S
H2644 C2658 0.960 . S
H2645 C2658 0.961 . S
H2646 C2658 0.959 . S
H2647 C2661 0.929 . S
H2648 C2662 0.931 . S
H2649 C2664 0.930 . S
C2650 H2638 0.930 . S
C2650 C2651 1.399 . S
C2650 C2655 1.399 . S
C2651 C2650 1.399 . S
C2651 C2652 1.376 . S
C2652 H2639 0.930 . S
C2652 C2651 1.376 . S
C2652 C2653 1.388 . S
C2653 H2640 0.930 . S
C2653 C2652 1.388 . S
C2653 C2654 1.390 . S
C2654 C2653 1.390 . S
C2654 C2655 1.394 . S
C2654 C2660 1.465 . S
C2655 C2650 1.399 . S
C2655 C2654 1.394 . S
C2655 C2656 1.516 . S
C2656 C2655 1.516 . S
C2656 C2657 1.502 . S
C2656 C2658 1.561 . S
C2656 C2659 1.526 . S
C2657 H2641 0.959 . S
C2657 H2642 0.959 . S
C2657 H2643 0.961 . S
C2657 C2656 1.502 . S
C2658 H2644 0.960 . S
C2658 H2645 0.961 . S
C2658 H2646 0.959 . S
C2658 C2656 1.561 . S
C2659 C2656 1.526 . S
C2659 C2660 1.396 . S
C2659 C2664 1.390 . S
C2660 C2654 1.465 . S
C2660 C2659 1.396 . S
C2660 C2661 1.399 . S
C2661 H2647 0.929 . S
C2661 C2660 1.399 . S
C2661 C2662 1.385 . S
C2662 H2648 0.931 . S
C2662 C2661 1.385 . S
C2662 C2663 1.389 . S
C2663 C2662 1.389 . S
C2663 C2664 1.387 . S
C2664 H2649 0.930 . S
C2664 C2659 1.390 . S
C2664 C2663 1.387 . S
H2665 C2677 0.930 . S
H2666 C2679 0.930 . S
H2667 C2680 0.930 . S
H2668 C2684 0.959 . S
H2669 C2684 0.959 . S
H2670 C2684 0.961 . S
H2671 C2685 0.960 . S
H2672 C2685 0.961 . S
H2673 C2685 0.959 . S
H2674 C2688 0.929 . S
H2675 C2689 0.931 . S
H2676 C2691 0.930 . S
C2677 H2665 0.930 . S
C2677 C2678 1.399 . S
C2677 C2682 1.399 . S
C2678 C2677 1.399 . S
C2678 C2679 1.376 . S
C2679 H2666 0.930 . S
C2679 C2678 1.376 . S
C2679 C2680 1.388 . S
C2680 H2667 0.930 . S
C2680 C2679 1.388 . S
C2680 C2681 1.390 . S
C2681 C2680 1.390 . S
C2681 C2682 1.394 . S
C2681 C2687 1.465 . S
C2682 C2677 1.399 . S
C2682 C2681 1.394 . S
C2682 C2683 1.516 . S
C2683 C2682 1.516 . S
C2683 C2684 1.502 . S
C2683 C2685 1.561 . S
C2683 C2686 1.526 . S
C2684 H2668 0.959 . S
C2684 H2669 0.959 . S
C2684 H2670 0.961 . S
C2684 C2683 1.502 . S
C2685 H2671 0.960 . S
C2685 H2672 0.961 . S
C2685 H2673 0.959 . S
C2685 C2683 1.561 . S
C2686 C2683 1.526 . S
C2686 C2687 1.396 . S
C2686 C2691 1.390 . S
C2687 C2681 1.465 . S
C2687 C2686 1.396 . S
C2687 C2688 1.399 . S
C2688 H2674 0.929 . S
C2688 C2687 1.399 . S
C2688 C2689 1.385 . S
C2689 H2675 0.931 . S
C2689 C2688 1.385 . S
C2689 C2690 1.389 . S
C2690 C2689 1.389 . S
C2690 C2691 1.387 . S
C2691 H2676 0.930 . S
C2691 C2686 1.390 . S
C2691 C2690 1.387 . S
H2692 C2704 0.930 . S
H2693 C2706 0.930 . S
H2694 C2707 0.930 . S
H2695 C2711 0.959 . S
H2696 C2711 0.959 . S
H2697 C2711 0.961 . S
H2698 C2712 0.960 . S
H2699 C2712 0.961 . S
H2700 C2712 0.959 . S
H2701 C2715 0.929 . S
H2702 C2716 0.931 . S
H2703 C2718 0.930 . S
C2704 H2692 0.930 . S
C2704 C2705 1.399 . S
C2704 C2709 1.399 . S
C2705 C2704 1.399 . S
C2705 C2706 1.376 . S
C2706 H2693 0.930 . S
C2706 C2705 1.376 . S
C2706 C2707 1.388 . S
C2707 H2694 0.930 . S
C2707 C2706 1.388 . S
C2707 C2708 1.390 . S
C2708 C2707 1.390 . S
C2708 C2709 1.394 . S
C2708 C2714 1.465 . S
C2709 C2704 1.399 . S
C2709 C2708 1.394 . S
C2709 C2710 1.516 . S
C2710 C2709 1.516 . S
C2710 C2711 1.502 . S
C2710 C2712 1.561 . S
C2710 C2713 1.526 . S
C2711 H2695 0.959 . S
C2711 H2696 0.959 . S
C2711 H2697 0.961 . S
C2711 C2710 1.502 . S
C2712 H2698 0.960 . S
C2712 H2699 0.961 . S
C2712 H2700 0.959 . S
C2712 C2710 1.561 . S
C2713 C2710 1.526 . S
C2713 C2714 1.396 . S
C2713 C2718 1.390 . S
C2714 C2708 1.465 . S
C2714 C2713 1.396 . S
C2714 C2715 1.399 . S
C2715 H2701 0.929 . S
C2715 C2714 1.399 . S
C2715 C2716 1.385 . S
C2716 H2702 0.931 . S
C2716 C2715 1.385 . S
C2716 C2717 1.389 . S
C2717 C2716 1.389 . S
C2717 C2718 1.387 . S
C2718 H2703 0.930 . S
C2718 C2713 1.390 . S
C2718 C2717 1.387 . S
H2719 C2731 0.930 . S
H2720 C2733 0.930 . S
H2721 C2734 0.930 . S
H2722 C2738 0.959 . S
H2723 C2738 0.959 . S
H2724 C2738 0.961 . S
H2725 C2739 0.960 . S
H2726 C2739 0.961 . S
H2727 C2739 0.959 . S
H2728 C2742 0.929 . S
H2729 C2743 0.931 . S
H2730 C2745 0.930 . S
C2731 H2719 0.930 . S
C2731 C2732 1.399 . S
C2731 C2736 1.399 . S
C2732 C2731 1.399 . S
C2732 C2733 1.376 . S
C2733 H2720 0.930 . S
C2733 C2732 1.376 . S
C2733 C2734 1.388 . S
C2734 H2721 0.930 . S
C2734 C2733 1.388 . S
C2734 C2735 1.390 . S
C2735 C2734 1.390 . S
C2735 C2736 1.394 . S
C2735 C2741 1.465 . S
C2736 C2731 1.399 . S
C2736 C2735 1.394 . S
C2736 C2737 1.516 . S
C2737 C2736 1.516 . S
C2737 C2738 1.502 . S
C2737 C2739 1.561 . S
C2737 C2740 1.526 . S
C2738 H2722 0.959 . S
C2738 H2723 0.959 . S
C2738 H2724 0.961 . S
C2738 C2737 1.502 . S
C2739 H2725 0.960 . S
C2739 H2726 0.961 . S
C2739 H2727 0.959 . S
C2739 C2737 1.561 . S
C2740 C2737 1.526 . S
C2740 C2741 1.396 . S
C2740 C2745 1.390 . S
C2741 C2735 1.465 . S
C2741 C2740 1.396 . S
C2741 C2742 1.399 . S
C2742 H2728 0.929 . S
C2742 C2741 1.399 . S
C2742 C2743 1.385 . S
C2743 H2729 0.931 . S
C2743 C2742 1.385 . S
C2743 C2744 1.389 . S
C2744 C2743 1.389 . S
C2744 C2745 1.387 . S
C2745 H2730 0.930 . S
C2745 C2740 1.390 . S
C2745 C2744 1.387 . S
H2746 C2758 0.930 . S
H2747 C2760 0.930 . S
H2748 C2761 0.930 . S
H2749 C2765 0.959 . S
H2750 C2765 0.959 . S
H2751 C2765 0.961 . S
H2752 C2766 0.960 . S
H2753 C2766 0.961 . S
H2754 C2766 0.959 . S
H2755 C2769 0.929 . S
H2756 C2770 0.931 . S
H2757 C2772 0.930 . S
C2758 H2746 0.930 . S
C2758 C2759 1.399 . S
C2758 C2763 1.399 . S
C2759 C2758 1.399 . S
C2759 C2760 1.376 . S
C2760 H2747 0.930 . S
C2760 C2759 1.376 . S
C2760 C2761 1.388 . S
C2761 H2748 0.930 . S
C2761 C2760 1.388 . S
C2761 C2762 1.390 . S
C2762 C2761 1.390 . S
C2762 C2763 1.394 . S
C2762 C2768 1.465 . S
C2763 C2758 1.399 . S
C2763 C2762 1.394 . S
C2763 C2764 1.516 . S
C2764 C2763 1.516 . S
C2764 C2765 1.502 . S
C2764 C2766 1.561 . S
C2764 C2767 1.526 . S
C2765 H2749 0.959 . S
C2765 H2750 0.959 . S
C2765 H2751 0.961 . S
C2765 C2764 1.502 . S
C2766 H2752 0.960 . S
C2766 H2753 0.961 . S
C2766 H2754 0.959 . S
C2766 C2764 1.561 . S
C2767 C2764 1.526 . S
C2767 C2768 1.396 . S
C2767 C2772 1.390 . S
C2768 C2762 1.465 . S
C2768 C2767 1.396 . S
C2768 C2769 1.399 . S
C2769 H2755 0.929 . S
C2769 C2768 1.399 . S
C2769 C2770 1.385 . S
C2770 H2756 0.931 . S
C2770 C2769 1.385 . S
C2770 C2771 1.389 . S
C2771 C2770 1.389 . S
C2771 C2772 1.387 . S
C2772 H2757 0.930 . S
C2772 C2767 1.390 . S
C2772 C2771 1.387 . S
H2773 C2785 0.930 . S
H2774 C2787 0.930 . S
H2775 C2788 0.930 . S
H2776 C2792 0.959 . S
H2777 C2792 0.959 . S
H2778 C2792 0.961 . S
H2779 C2793 0.960 . S
H2780 C2793 0.961 . S
H2781 C2793 0.959 . S
H2782 C2796 0.929 . S
H2783 C2797 0.931 . S
H2784 C2799 0.930 . S
C2785 H2773 0.930 . S
C2785 C2786 1.399 . S
C2785 C2790 1.399 . S
C2786 C2785 1.399 . S
C2786 C2787 1.376 . S
C2787 H2774 0.930 . S
C2787 C2786 1.376 . S
C2787 C2788 1.388 . S
C2788 H2775 0.930 . S
C2788 C2787 1.388 . S
C2788 C2789 1.390 . S
C2789 C2788 1.390 . S
C2789 C2790 1.394 . S
C2789 C2795 1.465 . S
C2790 C2785 1.399 . S
C2790 C2789 1.394 . S
C2790 C2791 1.516 . S
C2791 C2790 1.516 . S
C2791 C2792 1.502 . S
C2791 C2793 1.561 . S
C2791 C2794 1.526 . S
C2792 H2776 0.959 . S
C2792 H2777 0.959 . S
C2792 H2778 0.961 . S
C2792 C2791 1.502 . S
C2793 H2779 0.960 . S
C2793 H2780 0.961 . S
C2793 H2781 0.959 . S
C2793 C2791 1.561 . S
C2794 C2791 1.526 . S
C2794 C2795 1.396 . S
C2794 C2799 1.390 . S
C2795 C2789 1.465 . S
C2795 C2794 1.396 . S
C2795 C2796 1.399 . S
C2796 H2782 0.929 . S
C2796 C2795 1.399 . S
C2796 C2797 1.385 . S
C2797 H2783 0.931 . S
C2797 C2796 1.385 . S
C2797 C2798 1.389 . S
C2798 C2797 1.389 . S
C2798 C2799 1.387 . S
C2799 H2784 0.930 . S
C2799 C2794 1.390 . S
C2799 C2798 1.387 . S
H2800 C2812 0.930 . S
H2801 C2814 0.930 . S
H2802 C2815 0.930 . S
H2803 C2819 0.959 . S
H2804 C2819 0.959 . S
H2805 C2819 0.961 . S
H2806 C2820 0.960 . S
H2807 C2820 0.961 . S
H2808 C2820 0.959 . S
H2809 C2823 0.929 . S
H2810 C2824 0.931 . S
H2811 C2826 0.930 . S
C2812 H2800 0.930 . S
C2812 C2813 1.399 . S
C2812 C2817 1.399 . S
C2813 C2812 1.399 . S
C2813 C2814 1.376 . S
C2814 H2801 0.930 . S
C2814 C2813 1.376 . S
C2814 C2815 1.388 . S
C2815 H2802 0.930 . S
C2815 C2814 1.388 . S
C2815 C2816 1.390 . S
C2816 C2815 1.390 . S
C2816 C2817 1.394 . S
C2816 C2822 1.465 . S
C2817 C2812 1.399 . S
C2817 C2816 1.394 . S
C2817 C2818 1.516 . S
C2818 C2817 1.516 . S
C2818 C2819 1.502 . S
C2818 C2820 1.561 . S
C2818 C2821 1.526 . S
C2819 H2803 0.959 . S
C2819 H2804 0.959 . S
C2819 H2805 0.961 . S
C2819 C2818 1.502 . S
C2820 H2806 0.960 . S
C2820 H2807 0.961 . S
C2820 H2808 0.959 . S
C2820 C2818 1.561 . S
C2821 C2818 1.526 . S
C2821 C2822 1.396 . S
C2821 C2826 1.390 . S
C2822 C2816 1.465 . S
C2822 C2821 1.396 . S
C2822 C2823 1.399 . S
C2823 H2809 0.929 . S
C2823 C2822 1.399 . S
C2823 C2824 1.385 . S
C2824 H2810 0.931 . S
C2824 C2823 1.385 . S
C2824 C2825 1.389 . S
C2825 C2824 1.389 . S
C2825 C2826 1.387 . S
C2826 H2811 0.930 . S
C2826 C2821 1.390 . S
C2826 C2825 1.387 . S
H2827 C2839 0.930 . S
H2828 C2841 0.930 . S
H2829 C2842 0.930 . S
H2830 C2846 0.959 . S
H2831 C2846 0.959 . S
H2832 C2846 0.961 . S
H2833 C2847 0.960 . S
H2834 C2847 0.961 . S
H2835 C2847 0.959 . S
H2836 C2850 0.929 . S
H2837 C2851 0.931 . S
H2838 C2853 0.930 . S
C2839 H2827 0.930 . S
C2839 C2840 1.399 . S
C2839 C2844 1.399 . S
C2840 C2839 1.399 . S
C2840 C2841 1.376 . S
C2841 H2828 0.930 . S
C2841 C2840 1.376 . S
C2841 C2842 1.388 . S
C2842 H2829 0.930 . S
C2842 C2841 1.388 . S
C2842 C2843 1.390 . S
C2843 C2842 1.390 . S
C2843 C2844 1.394 . S
C2843 C2849 1.465 . S
C2844 C2839 1.399 . S
C2844 C2843 1.394 . S
C2844 C2845 1.516 . S
C2845 C2844 1.516 . S
C2845 C2846 1.502 . S
C2845 C2847 1.561 . S
C2845 C2848 1.526 . S
C2846 H2830 0.959 . S
C2846 H2831 0.959 . S
C2846 H2832 0.961 . S
C2846 C2845 1.502 . S
C2847 H2833 0.960 . S
C2847 H2834 0.961 . S
C2847 H2835 0.959 . S
C2847 C2845 1.561 . S
C2848 C2845 1.526 . S
C2848 C2849 1.396 . S
C2848 C2853 1.390 . S
C2849 C2843 1.465 . S
C2849 C2848 1.396 . S
C2849 C2850 1.399 . S
C2850 H2836 0.929 . S
C2850 C2849 1.399 . S
C2850 C2851 1.385 . S
C2851 H2837 0.931 . S
C2851 C2850 1.385 . S
C2851 C2852 1.389 . S
C2852 C2851 1.389 . S
C2852 C2853 1.387 . S
C2853 H2838 0.930 . S
C2853 C2848 1.390 . S
C2853 C2852 1.387 . S
H2854 C2866 0.930 . S
H2855 C2868 0.930 . S
H2856 C2869 0.930 . S
H2857 C2873 0.959 . S
H2858 C2873 0.959 . S
H2859 C2873 0.961 . S
H2860 C2874 0.960 . S
H2861 C2874 0.961 . S
H2862 C2874 0.959 . S
H2863 C2877 0.929 . S
H2864 C2878 0.931 . S
H2865 C2880 0.930 . S
C2866 H2854 0.930 . S
C2866 C2867 1.399 . S
C2866 C2871 1.399 . S
C2867 C2866 1.399 . S
C2867 C2868 1.376 . S
C2868 H2855 0.930 . S
C2868 C2867 1.376 . S
C2868 C2869 1.388 . S
C2869 H2856 0.930 . S
C2869 C2868 1.388 . S
C2869 C2870 1.390 . S
C2870 C2869 1.390 . S
C2870 C2871 1.394 . S
C2870 C2876 1.465 . S
C2871 C2866 1.399 . S
C2871 C2870 1.394 . S
C2871 C2872 1.516 . S
C2872 C2871 1.516 . S
C2872 C2873 1.502 . S
C2872 C2874 1.561 . S
C2872 C2875 1.526 . S
C2873 H2857 0.959 . S
C2873 H2858 0.959 . S
C2873 H2859 0.961 . S
C2873 C2872 1.502 . S
C2874 H2860 0.960 . S
C2874 H2861 0.961 . S
C2874 H2862 0.959 . S
C2874 C2872 1.561 . S
C2875 C2872 1.526 . S
C2875 C2876 1.396 . S
C2875 C2880 1.390 . S
C2876 C2870 1.465 . S
C2876 C2875 1.396 . S
C2876 C2877 1.399 . S
C2877 H2863 0.929 . S
C2877 C2876 1.399 . S
C2877 C2878 1.385 . S
C2878 H2864 0.931 . S
C2878 C2877 1.385 . S
C2878 C2879 1.389 . S
C2879 C2878 1.389 . S
C2879 C2880 1.387 . S
C2880 H2865 0.930 . S
C2880 C2875 1.390 . S
C2880 C2879 1.387 . S
H2881 C2893 0.930 . S
H2882 C2895 0.930 . S
H2883 C2896 0.930 . S
H2884 C2900 0.959 . S
H2885 C2900 0.959 . S
H2886 C2900 0.961 . S
H2887 C2901 0.960 . S
H2888 C2901 0.961 . S
H2889 C2901 0.959 . S
H2890 C2904 0.929 . S
H2891 C2905 0.931 . S
H2892 C2907 0.930 . S
C2893 H2881 0.930 . S
C2893 C2894 1.399 . S
C2893 C2898 1.399 . S
C2894 C2893 1.399 . S
C2894 C2895 1.376 . S
C2895 H2882 0.930 . S
C2895 C2894 1.376 . S
C2895 C2896 1.388 . S
C2896 H2883 0.930 . S
C2896 C2895 1.388 . S
C2896 C2897 1.390 . S
C2897 C2896 1.390 . S
C2897 C2898 1.394 . S
C2897 C2903 1.465 . S
C2898 C2893 1.399 . S
C2898 C2897 1.394 . S
C2898 C2899 1.516 . S
C2899 C2898 1.516 . S
C2899 C2900 1.502 . S
C2899 C2901 1.561 . S
C2899 C2902 1.526 . S
C2900 H2884 0.959 . S
C2900 H2885 0.959 . S
C2900 H2886 0.961 . S
C2900 C2899 1.502 . S
C2901 H2887 0.960 . S
C2901 H2888 0.961 . S
C2901 H2889 0.959 . S
C2901 C2899 1.561 . S
C2902 C2899 1.526 . S
C2902 C2903 1.396 . S
C2902 C2907 1.390 . S
C2903 C2897 1.465 . S
C2903 C2902 1.396 . S
C2903 C2904 1.399 . S
C2904 H2890 0.929 . S
C2904 C2903 1.399 . S
C2904 C2905 1.385 . S
C2905 H2891 0.931 . S
C2905 C2904 1.385 . S
C2905 C2906 1.389 . S
C2906 C2905 1.389 . S
C2906 C2907 1.387 . S
C2907 H2892 0.930 . S
C2907 C2902 1.390 . S
C2907 C2906 1.387 . S
H2908 C2920 0.930 . S
H2909 C2922 0.930 . S
H2910 C2923 0.930 . S
H2911 C2927 0.959 . S
H2912 C2927 0.959 . S
H2913 C2927 0.961 . S
H2914 C2928 0.960 . S
H2915 C2928 0.961 . S
H2916 C2928 0.959 . S
H2917 C2931 0.929 . S
H2918 C2932 0.931 . S
H2919 C2934 0.930 . S
C2920 H2908 0.930 . S
C2920 C2921 1.399 . S
C2920 C2925 1.399 . S
C2921 C2920 1.399 . S
C2921 C2922 1.376 . S
C2922 H2909 0.930 . S
C2922 C2921 1.376 . S
C2922 C2923 1.388 . S
C2923 H2910 0.930 . S
C2923 C2922 1.388 . S
C2923 C2924 1.390 . S
C2924 C2923 1.390 . S
C2924 C2925 1.394 . S
C2924 C2930 1.465 . S
C2925 C2920 1.399 . S
C2925 C2924 1.394 . S
C2925 C2926 1.516 . S
C2926 C2925 1.516 . S
C2926 C2927 1.502 . S
C2926 C2928 1.561 . S
C2926 C2929 1.526 . S
C2927 H2911 0.959 . S
C2927 H2912 0.959 . S
C2927 H2913 0.961 . S
C2927 C2926 1.502 . S
C2928 H2914 0.960 . S
C2928 H2915 0.961 . S
C2928 H2916 0.959 . S
C2928 C2926 1.561 . S
C2929 C2926 1.526 . S
C2929 C2930 1.396 . S
C2929 C2934 1.390 . S
C2930 C2924 1.465 . S
C2930 C2929 1.396 . S
C2930 C2931 1.399 . S
C2931 H2917 0.929 . S
C2931 C2930 1.399 . S
C2931 C2932 1.385 . S
C2932 H2918 0.931 . S
C2932 C2931 1.385 . S
C2932 C2933 1.389 . S
C2933 C2932 1.389 . S
C2933 C2934 1.387 . S
C2934 H2919 0.930 . S
C2934 C2929 1.390 . S
C2934 C2933 1.387 . S
H2935 C2947 0.930 . S
H2936 C2949 0.930 . S
H2937 C2950 0.930 . S
H2938 C2954 0.959 . S
H2939 C2954 0.959 . S
H2940 C2954 0.961 . S
H2941 C2955 0.960 . S
H2942 C2955 0.961 . S
H2943 C2955 0.959 . S
H2944 C2958 0.929 . S
H2945 C2959 0.931 . S
H2946 C2961 0.930 . S
C2947 H2935 0.930 . S
C2947 C2948 1.399 . S
C2947 C2952 1.399 . S
C2948 C2947 1.399 . S
C2948 C2949 1.376 . S
C2949 H2936 0.930 . S
C2949 C2948 1.376 . S
C2949 C2950 1.388 . S
C2950 H2937 0.930 . S
C2950 C2949 1.388 . S
C2950 C2951 1.390 . S
C2951 C2950 1.390 . S
C2951 C2952 1.394 . S
C2951 C2957 1.465 . S
C2952 C2947 1.399 . S
C2952 C2951 1.394 . S
C2952 C2953 1.516 . S
C2953 C2952 1.516 . S
C2953 C2954 1.502 . S
C2953 C2955 1.561 . S
C2953 C2956 1.526 . S
C2954 H2938 0.959 . S
C2954 H2939 0.959 . S
C2954 H2940 0.961 . S
C2954 C2953 1.502 . S
C2955 H2941 0.960 . S
C2955 H2942 0.961 . S
C2955 H2943 0.959 . S
C2955 C2953 1.561 . S
C2956 C2953 1.526 . S
C2956 C2957 1.396 . S
C2956 C2961 1.390 . S
C2957 C2951 1.465 . S
C2957 C2956 1.396 . S
C2957 C2958 1.399 . S
C2958 H2944 0.929 . S
C2958 C2957 1.399 . S
C2958 C2959 1.385 . S
C2959 H2945 0.931 . S
C2959 C2958 1.385 . S
C2959 C2960 1.389 . S
C2960 C2959 1.389 . S
C2960 C2961 1.387 . S
C2961 H2946 0.930 . S
C2961 C2956 1.390 . S
C2961 C2960 1.387 . S
H2962 C2974 0.930 . S
H2963 C2976 0.930 . S
H2964 C2977 0.930 . S
H2965 C2981 0.959 . S
H2966 C2981 0.959 . S
H2967 C2981 0.961 . S
H2968 C2982 0.960 . S
H2969 C2982 0.961 . S
H2970 C2982 0.959 . S
H2971 C2985 0.929 . S
H2972 C2986 0.931 . S
H2973 C2988 0.930 . S
C2974 H2962 0.930 . S
C2974 C2975 1.399 . S
C2974 C2979 1.399 . S
C2975 C2974 1.399 . S
C2975 C2976 1.376 . S
C2976 H2963 0.930 . S
C2976 C2975 1.376 . S
C2976 C2977 1.388 . S
C2977 H2964 0.930 . S
C2977 C2976 1.388 . S
C2977 C2978 1.390 . S
C2978 C2977 1.390 . S
C2978 C2979 1.394 . S
C2978 C2984 1.465 . S
C2979 C2974 1.399 . S
C2979 C2978 1.394 . S
C2979 C2980 1.516 . S
C2980 C2979 1.516 . S
C2980 C2981 1.502 . S
C2980 C2982 1.561 . S
C2980 C2983 1.526 . S
C2981 H2965 0.959 . S
C2981 H2966 0.959 . S
C2981 H2967 0.961 . S
C2981 C2980 1.502 . S
C2982 H2968 0.960 . S
C2982 H2969 0.961 . S
C2982 H2970 0.959 . S
C2982 C2980 1.561 . S
C2983 C2980 1.526 . S
C2983 C2984 1.396 . S
C2983 C2988 1.390 . S
C2984 C2978 1.465 . S
C2984 C2983 1.396 . S
C2984 C2985 1.399 . S
C2985 H2971 0.929 . S
C2985 C2984 1.399 . S
C2985 C2986 1.385 . S
C2986 H2972 0.931 . S
C2986 C2985 1.385 . S
C2986 C2987 1.389 . S
C2987 C2986 1.389 . S
C2987 C2988 1.387 . S
C2988 H2973 0.930 . S
C2988 C2983 1.390 . S
C2988 C2987 1.387 . S
H2989 C3001 0.930 . S
H2990 C3003 0.930 . S
H2991 C3004 0.930 . S
H2992 C3008 0.959 . S
H2993 C3008 0.959 . S
H2994 C3008 0.961 . S
H2995 C3009 0.960 . S
H2996 C3009 0.961 . S
H2997 C3009 0.959 . S
H2998 C3012 0.929 . S
H2999 C3013 0.931 . S
H3000 C3015 0.930 . S
C3001 H2989 0.930 . S
C3001 C3002 1.399 . S
C3001 C3006 1.399 . S
C3002 C3001 1.399 . S
C3002 C3003 1.376 . S
C3003 H2990 0.930 . S
C3003 C3002 1.376 . S
C3003 C3004 1.388 . S
C3004 H2991 0.930 . S
C3004 C3003 1.388 . S
C3004 C3005 1.390 . S
C3005 C3004 1.390 . S
C3005 C3006 1.394 . S
C3005 C3011 1.465 . S
C3006 C3001 1.399 . S
C3006 C3005 1.394 . S
C3006 C3007 1.516 . S
C3007 C3006 1.516 . S
C3007 C3008 1.502 . S
C3007 C3009 1.561 . S
C3007 C3010 1.526 . S
C3008 H2992 0.959 . S
C3008 H2993 0.959 . S
C3008 H2994 0.961 . S
C3008 C3007 1.502 . S
C3009 H2995 0.960 . S
C3009 H2996 0.961 . S
C3009 H2997 0.959 . S
C3009 C3007 1.561 . S
C3010 C3007 1.526 . S
C3010 C3011 1.396 . S
C3010 C3015 1.390 . S
C3011 C3005 1.465 . S
C3011 C3010 1.396 . S
C3011 C3012 1.399 . S
C3012 H2998 0.929 . S
C3012 C3011 1.399 . S
C3012 C3013 1.385 . S
C3013 H2999 0.931 . S
C3013 C3012 1.385 . S
C3013 C3014 1.389 . S
C3014 C3013 1.389 . S
C3014 C3015 1.387 . S
C3015 H3000 0.930 . S
C3015 C3010 1.390 . S
C3015 C3014 1.387 . S
H3016 C3028 0.930 . S
H3017 C3030 0.930 . S
H3018 C3031 0.930 . S
H3019 C3035 0.959 . S
H3020 C3035 0.959 . S
H3021 C3035 0.961 . S
H3022 C3036 0.960 . S
H3023 C3036 0.961 . S
H3024 C3036 0.959 . S
H3025 C3039 0.929 . S
H3026 C3040 0.931 . S
H3027 C3042 0.930 . S
C3028 H3016 0.930 . S
C3028 C3029 1.399 . S
C3028 C3033 1.399 . S
C3029 C3028 1.399 . S
C3029 C3030 1.376 . S
C3030 H3017 0.930 . S
C3030 C3029 1.376 . S
C3030 C3031 1.388 . S
C3031 H3018 0.930 . S
C3031 C3030 1.388 . S
C3031 C3032 1.390 . S
C3032 C3031 1.390 . S
C3032 C3033 1.394 . S
C3032 C3038 1.465 . S
C3033 C3028 1.399 . S
C3033 C3032 1.394 . S
C3033 C3034 1.516 . S
C3034 C3033 1.516 . S
C3034 C3035 1.502 . S
C3034 C3036 1.561 . S
C3034 C3037 1.526 . S
C3035 H3019 0.959 . S
C3035 H3020 0.959 . S
C3035 H3021 0.961 . S
C3035 C3034 1.502 . S
C3036 H3022 0.960 . S
C3036 H3023 0.961 . S
C3036 H3024 0.959 . S
C3036 C3034 1.561 . S
C3037 C3034 1.526 . S
C3037 C3038 1.396 . S
C3037 C3042 1.390 . S
C3038 C3032 1.465 . S
C3038 C3037 1.396 . S
C3038 C3039 1.399 . S
C3039 H3025 0.929 . S
C3039 C3038 1.399 . S
C3039 C3040 1.385 . S
C3040 H3026 0.931 . S
C3040 C3039 1.385 . S
C3040 C3041 1.389 . S
C3041 C3040 1.389 . S
C3041 C3042 1.387 . S
C3042 H3027 0.930 . S
C3042 C3037 1.390 . S
C3042 C3041 1.387 . S
H3043 C3055 0.930 . S
H3044 C3057 0.930 . S
H3045 C3058 0.930 . S
H3046 C3062 0.959 . S
H3047 C3062 0.959 . S
H3048 C3062 0.961 . S
H3049 C3063 0.960 . S
H3050 C3063 0.961 . S
H3051 C3063 0.959 . S
H3052 C3066 0.929 . S
H3053 C3067 0.931 . S
H3054 C3069 0.930 . S
C3055 H3043 0.930 . S
C3055 C3056 1.399 . S
C3055 C3060 1.399 . S
C3056 C3055 1.399 . S
C3056 C3057 1.376 . S
C3057 H3044 0.930 . S
C3057 C3056 1.376 . S
C3057 C3058 1.388 . S
C3058 H3045 0.930 . S
C3058 C3057 1.388 . S
C3058 C3059 1.390 . S
C3059 C3058 1.390 . S
C3059 C3060 1.394 . S
C3059 C3065 1.465 . S
C3060 C3055 1.399 . S
C3060 C3059 1.394 . S
C3060 C3061 1.516 . S
C3061 C3060 1.516 . S
C3061 C3062 1.502 . S
C3061 C3063 1.561 . S
C3061 C3064 1.526 . S
C3062 H3046 0.959 . S
C3062 H3047 0.959 . S
C3062 H3048 0.961 . S
C3062 C3061 1.502 . S
C3063 H3049 0.960 . S
C3063 H3050 0.961 . S
C3063 H3051 0.959 . S
C3063 C3061 1.561 . S
C3064 C3061 1.526 . S
C3064 C3065 1.396 . S
C3064 C3069 1.390 . S
C3065 C3059 1.465 . S
C3065 C3064 1.396 . S
C3065 C3066 1.399 . S
C3066 H3052 0.929 . S
C3066 C3065 1.399 . S
C3066 C3067 1.385 . S
C3067 H3053 0.931 . S
C3067 C3066 1.385 . S
C3067 C3068 1.389 . S
C3068 C3067 1.389 . S
C3068 C3069 1.387 . S
C3069 H3054 0.930 . S
C3069 C3064 1.390 . S
C3069 C3068 1.387 . S
H3070 C3082 0.930 . S
H3071 C3084 0.930 . S
H3072 C3085 0.930 . S
H3073 C3089 0.959 . S
H3074 C3089 0.959 . S
H3075 C3089 0.961 . S
H3076 C3090 0.960 . S
H3077 C3090 0.961 . S
H3078 C3090 0.959 . S
H3079 C3093 0.929 . S
H3080 C3094 0.931 . S
H3081 C3096 0.930 . S
C3082 H3070 0.930 . S
C3082 C3083 1.399 . S
C3082 C3087 1.399 . S
C3083 C3082 1.399 . S
C3083 C3084 1.376 . S
C3084 H3071 0.930 . S
C3084 C3083 1.376 . S
C3084 C3085 1.388 . S
C3085 H3072 0.930 . S
C3085 C3084 1.388 . S
C3085 C3086 1.390 . S
C3086 C3085 1.390 . S
C3086 C3087 1.394 . S
C3086 C3092 1.465 . S
C3087 C3082 1.399 . S
C3087 C3086 1.394 . S
C3087 C3088 1.516 . S
C3088 C3087 1.516 . S
C3088 C3089 1.502 . S
C3088 C3090 1.561 . S
C3088 C3091 1.526 . S
C3089 H3073 0.959 . S
C3089 H3074 0.959 . S
C3089 H3075 0.961 . S
C3089 C3088 1.502 . S
C3090 H3076 0.960 . S
C3090 H3077 0.961 . S
C3090 H3078 0.959 . S
C3090 C3088 1.561 . S
C3091 C3088 1.526 . S
C3091 C3092 1.396 . S
C3091 C3096 1.390 . S
C3092 C3086 1.465 . S
C3092 C3091 1.396 . S
C3092 C3093 1.399 . S
C3093 H3079 0.929 . S
C3093 C3092 1.399 . S
C3093 C3094 1.385 . S
C3094 H3080 0.931 . S
C3094 C3093 1.385 . S
C3094 C3095 1.389 . S
C3095 C3094 1.389 . S
C3095 C3096 1.387 . S
C3096 H3081 0.930 . S
C3096 C3091 1.390 . S
C3096 C3095 1.387 . S
H3097 C3109 0.930 . S
H3098 C3111 0.930 . S
H3099 C3112 0.930 . S
H3100 C3116 0.959 . S
H3101 C3116 0.959 . S
H3102 C3116 0.961 . S
H3103 C3117 0.960 . S
H3104 C3117 0.961 . S
H3105 C3117 0.959 . S
H3106 C3120 0.929 . S
H3107 C3121 0.931 . S
H3108 C3123 0.930 . S
C3109 H3097 0.930 . S
C3109 C3110 1.399 . S
C3109 C3114 1.399 . S
C3110 C3109 1.399 . S
C3110 C3111 1.376 . S
C3111 H3098 0.930 . S
C3111 C3110 1.376 . S
C3111 C3112 1.388 . S
C3112 H3099 0.930 . S
C3112 C3111 1.388 . S
C3112 C3113 1.390 . S
C3113 C3112 1.390 . S
C3113 C3114 1.394 . S
C3113 C3119 1.465 . S
C3114 C3109 1.399 . S
C3114 C3113 1.394 . S
C3114 C3115 1.516 . S
C3115 C3114 1.516 . S
C3115 C3116 1.502 . S
C3115 C3117 1.561 . S
C3115 C3118 1.526 . S
C3116 H3100 0.959 . S
C3116 H3101 0.959 . S
C3116 H3102 0.961 . S
C3116 C3115 1.502 . S
C3117 H3103 0.960 . S
C3117 H3104 0.961 . S
C3117 H3105 0.959 . S
C3117 C3115 1.561 . S
C3118 C3115 1.526 . S
C3118 C3119 1.396 . S
C3118 C3123 1.390 . S
C3119 C3113 1.465 . S
C3119 C3118 1.396 . S
C3119 C3120 1.399 . S
C3120 H3106 0.929 . S
C3120 C3119 1.399 . S
C3120 C3121 1.385 . S
C3121 H3107 0.931 . S
C3121 C3120 1.385 . S
C3121 C3122 1.389 . S
C3122 C3121 1.389 . S
C3122 C3123 1.387 . S
C3123 H3108 0.930 . S
C3123 C3118 1.390 . S
C3123 C3122 1.387 . S
H3124 C3136 0.930 . S
H3125 C3138 0.930 . S
H3126 C3139 0.930 . S
H3127 C3143 0.959 . S
H3128 C3143 0.959 . S
H3129 C3143 0.961 . S
H3130 C3144 0.960 . S
H3131 C3144 0.961 . S
H3132 C3144 0.959 . S
H3133 C3147 0.929 . S
H3134 C3148 0.931 . S
H3135 C3150 0.930 . S
C3136 H3124 0.930 . S
C3136 C3137 1.399 . S
C3136 C3141 1.399 . S
C3137 C3136 1.399 . S
C3137 C3138 1.376 . S
C3138 H3125 0.930 . S
C3138 C3137 1.376 . S
C3138 C3139 1.388 . S
C3139 H3126 0.930 . S
C3139 C3138 1.388 . S
C3139 C3140 1.390 . S
C3140 C3139 1.390 . S
C3140 C3141 1.394 . S
C3140 C3146 1.465 . S
C3141 C3136 1.399 . S
C3141 C3140 1.394 . S
C3141 C3142 1.516 . S
C3142 C3141 1.516 . S
C3142 C3143 1.502 . S
C3142 C3144 1.561 . S
C3142 C3145 1.526 . S
C3143 H3127 0.959 . S
C3143 H3128 0.959 . S
C3143 H3129 0.961 . S
C3143 C3142 1.502 . S
C3144 H3130 0.960 . S
C3144 H3131 0.961 . S
C3144 H3132 0.959 . S
C3144 C3142 1.561 . S
C3145 C3142 1.526 . S
C3145 C3146 1.396 . S
C3145 C3150 1.390 . S
C3146 C3140 1.465 . S
C3146 C3145 1.396 . S
C3146 C3147 1.399 . S
C3147 H3133 0.929 . S
C3147 C3146 1.399 . S
C3147 C3148 1.385 . S
C3148 H3134 0.931 . S
C3148 C3147 1.385 . S
C3148 C3149 1.389 . S
C3149 C3148 1.389 . S
C3149 C3150 1.387 . S
C3150 H3135 0.930 . S
C3150 C3145 1.390 . S
C3150 C3149 1.387 . S
H3151 C3163 0.930 . S
H3152 C3165 0.930 . S
H3153 C3166 0.930 . S
H3154 C3170 0.959 . S
H3155 C3170 0.959 . S
H3156 C3170 0.961 . S
H3157 C3171 0.960 . S
H3158 C3171 0.961 . S
H3159 C3171 0.959 . S
H3160 C3174 0.929 . S
H3161 C3175 0.931 . S
H3162 C3177 0.930 . S
C3163 H3151 0.930 . S
C3163 C3164 1.399 . S
C3163 C3168 1.399 . S
C3164 C3163 1.399 . S
C3164 C3165 1.376 . S
C3165 H3152 0.930 . S
C3165 C3164 1.376 . S
C3165 C3166 1.388 . S
C3166 H3153 0.930 . S
C3166 C3165 1.388 . S
C3166 C3167 1.390 . S
C3167 C3166 1.390 . S
C3167 C3168 1.394 . S
C3167 C3173 1.465 . S
C3168 C3163 1.399 . S
C3168 C3167 1.394 . S
C3168 C3169 1.516 . S
C3169 C3168 1.516 . S
C3169 C3170 1.502 . S
C3169 C3171 1.561 . S
C3169 C3172 1.526 . S
C3170 H3154 0.959 . S
C3170 H3155 0.959 . S
C3170 H3156 0.961 . S
C3170 C3169 1.502 . S
C3171 H3157 0.960 . S
C3171 H3158 0.961 . S
C3171 H3159 0.959 . S
C3171 C3169 1.561 . S
C3172 C3169 1.526 . S
C3172 C3173 1.396 . S
C3172 C3177 1.390 . S
C3173 C3167 1.465 . S
C3173 C3172 1.396 . S
C3173 C3174 1.399 . S
C3174 H3160 0.929 . S
C3174 C3173 1.399 . S
C3174 C3175 1.385 . S
C3175 H3161 0.931 . S
C3175 C3174 1.385 . S
C3175 C3176 1.389 . S
C3176 C3175 1.389 . S
C3176 C3177 1.387 . S
C3177 H3162 0.930 . S
C3177 C3172 1.390 . S
C3177 C3176 1.387 . S
H3178 C3190 0.930 . S
H3179 C3192 0.930 . S
H3180 C3193 0.930 . S
H3181 C3197 0.959 . S
H3182 C3197 0.959 . S
H3183 C3197 0.961 . S
H3184 C3198 0.960 . S
H3185 C3198 0.961 . S
H3186 C3198 0.959 . S
H3187 C3201 0.929 . S
H3188 C3202 0.931 . S
H3189 C3204 0.930 . S
C3190 H3178 0.930 . S
C3190 C3191 1.399 . S
C3190 C3195 1.399 . S
C3191 C3190 1.399 . S
C3191 C3192 1.376 . S
C3192 H3179 0.930 . S
C3192 C3191 1.376 . S
C3192 C3193 1.388 . S
C3193 H3180 0.930 . S
C3193 C3192 1.388 . S
C3193 C3194 1.390 . S
C3194 C3193 1.390 . S
C3194 C3195 1.394 . S
C3194 C3200 1.465 . S
C3195 C3190 1.399 . S
C3195 C3194 1.394 . S
C3195 C3196 1.516 . S
C3196 C3195 1.516 . S
C3196 C3197 1.502 . S
C3196 C3198 1.561 . S
C3196 C3199 1.526 . S
C3197 H3181 0.959 . S
C3197 H3182 0.959 . S
C3197 H3183 0.961 . S
C3197 C3196 1.502 . S
C3198 H3184 0.960 . S
C3198 H3185 0.961 . S
C3198 H3186 0.959 . S
C3198 C3196 1.561 . S
C3199 C3196 1.526 . S
C3199 C3200 1.396 . S
C3199 C3204 1.390 . S
C3200 C3194 1.465 . S
C3200 C3199 1.396 . S
C3200 C3201 1.399 . S
C3201 H3187 0.929 . S
C3201 C3200 1.399 . S
C3201 C3202 1.385 . S
C3202 H3188 0.931 . S
C3202 C3201 1.385 . S
C3202 C3203 1.389 . S
C3203 C3202 1.389 . S
C3203 C3204 1.387 . S
C3204 H3189 0.930 . S
C3204 C3199 1.390 . S
C3204 C3203 1.387 . S
H3205 C3217 0.930 . S
H3206 C3219 0.930 . S
H3207 C3220 0.930 . S
H3208 C3224 0.959 . S
H3209 C3224 0.959 . S
H3210 C3224 0.961 . S
H3211 C3225 0.960 . S
H3212 C3225 0.961 . S
H3213 C3225 0.959 . S
H3214 C3228 0.929 . S
H3215 C3229 0.931 . S
H3216 C3231 0.930 . S
C3217 H3205 0.930 . S
C3217 C3218 1.399 . S
C3217 C3222 1.399 . S
C3218 C3217 1.399 . S
C3218 C3219 1.376 . S
C3219 H3206 0.930 . S
C3219 C3218 1.376 . S
C3219 C3220 1.388 . S
C3220 H3207 0.930 . S
C3220 C3219 1.388 . S
C3220 C3221 1.390 . S
C3221 C3220 1.390 . S
C3221 C3222 1.394 . S
C3221 C3227 1.465 . S
C3222 C3217 1.399 . S
C3222 C3221 1.394 . S
C3222 C3223 1.516 . S
C3223 C3222 1.516 . S
C3223 C3224 1.502 . S
C3223 C3225 1.561 . S
C3223 C3226 1.526 . S
C3224 H3208 0.959 . S
C3224 H3209 0.959 . S
C3224 H3210 0.961 . S
C3224 C3223 1.502 . S
C3225 H3211 0.960 . S
C3225 H3212 0.961 . S
C3225 H3213 0.959 . S
C3225 C3223 1.561 . S
C3226 C3223 1.526 . S
C3226 C3227 1.396 . S
C3226 C3231 1.390 . S
C3227 C3221 1.465 . S
C3227 C3226 1.396 . S
C3227 C3228 1.399 . S
C3228 H3214 0.929 . S
C3228 C3227 1.399 . S
C3228 C3229 1.385 . S
C3229 H3215 0.931 . S
C3229 C3228 1.385 . S
C3229 C3230 1.389 . S
C3230 C3229 1.389 . S
C3230 C3231 1.387 . S
C3231 H3216 0.930 . S
C3231 C3226 1.390 . S
C3231 C3230 1.387 . S
C653 C333 1.937 . S
C665 C5 1.951 . S
C680 C474 1.740 . S
C692 C28 1.680 . S
C707 C48 2.096 . S
C719 C433 2.137 . S
C734 C68 1.285 . S
C746 C445 1.329 . S
C761 C93 1.920 . S
C773 C345 1.976 . S
C788 C114 1.750 . S
C800 C368 1.608 . S
C815 C388 2.097 . S
C827 C133 2.138 . S
C842 C145 1.340 . S
C854 C408 1.254 . S
C869 C168 2.475 . S
C881 C13 2.494 . S
C896 C25 1.668 . S
C908 C193 1.680 . S
C923 C208 1.619 . S
C935 C45 1.655 . S
C950 C65 1.713 . S
C962 C222 1.642 . S
C977 C88 1.555 . S
C989 C245 1.623 . S
C1004 C265 1.712 . S
C1016 C102 1.636 . S
C1031 C128 2.471 . S
C1043 C293 2.497 . S
C1058 C305 1.716 . S
C1070 C153 1.621 . S
C1085 C165 0.682 . S
C1097 C325 0.691 . S
C1112 C348 2.620 . S
C1124 C253 2.643 . S
C1139 C373 3.413 . S
C1151 C273 3.405 . S
C1166 C288 2.632 . S
C1178 C393 2.625 . S
C1193 C413 3.417 . S
C1205 C313 3.394 . S
C1220 C425 0.751 . S
C1232 C205 0.732 . S
C1247 C237 1.416 . S
C1259 C448 1.409 . S
C1274 C477 1.338 . S
C1286 C188 1.331 . S
C1301 C634 1.753 . S
C1313 C308 1.644 . S
C1328 C268 1.286 . S
C1340 C605 1.327 . S
C1355 C568 1.673 . S
C1367 C234 1.745 . S
C1382 C588 1.221 . S
C1394 C185 1.301 . S
C1409 C353 2.490 . S
C1421 C488 2.481 . S
C1436 C385 1.631 . S
C1448 C508 1.561 . S
C1463 C525 1.637 . S
C1475 C328 1.571 . S
C1490 C553 2.522 . S
C1502 C428 2.512 . S
C1517 C485 0.742 . S
C1529 C85 0.730 . S
C1544 C533 2.627 . S
C1556 C8 2.672 . S
C1571 C73 3.419 . S
C1583 C573 3.393 . S
C1598 C548 2.623 . S
C1610 C53 2.637 . S
C1625 C593 3.413 . S
C1637 C33 3.406 . S
C1652 C125 0.669 . S
C1664 C505 0.699 . S
C1679 C608 1.414 . S
C1691 C117 1.418 . S
C1706 C148 1.419 . S
C1718 C637 1.424 . S
C1733 C285 1.976 . S
C1745 C513 1.912 . S
C1760 C248 2.095 . S
C1772 C493 2.135 . S
C1787 C545 1.966 . S
C1799 C213 1.902 . S
C1814 C528 2.136 . S
C1826 C173 2.097 . S
C1841 C365 1.679 . S
C1853 C613 1.689 . S
C1868 C405 1.712 . S
C1880 C622 1.635 . S
C1895 C585 1.712 . S
C1907 C462 1.643 . S
C1922 C453 1.690 . S
C1934 C565 1.679 . S
C1949 C77 2.250 . S
C1961 C14 2.339 . S
C1976 C22 3.028 . S
C1988 C2 3.035 . S
C2003 C37 2.541 . S
C2015 C42 2.631 . S
C2030 C57 2.452 . S
C2042 C62 2.737 . S
C2057 C113 1.457 . S
C2069 C97 1.238 . S
C2084 C134 1.431 . S
C2096 C105 1.410 . S
C2111 C137 2.120 . S
C2123 C142 2.319 . S
C2138 C154 1.034 . S
C2150 C94 1.003 . S
C2165 C162 2.154 . S
C2177 C374 2.099 . S
C2192 C394 2.113 . S
C2204 C197 1.987 . S
C2219 C414 1.548 . S
C2231 C202 1.637 . S
C2246 C228 2.398 . S
C2258 C357 2.456 . S
C2273 C254 2.112 . S
C2285 C457 1.988 . S
C2300 C322 1.615 . S
C2312 C274 1.612 . S
C2327 C468 2.387 . S
C2339 C297 2.447 . S
C2354 C314 2.143 . S
C2366 C422 2.144 . S
C2381 C334 1.122 . S
C2393 C194 1.106 . S
C2408 C342 3.017 . S
C2420 C302 3.054 . S
C2435 C242 2.662 . S
C2447 C377 2.550 . S
C2462 C262 2.726 . S
C2474 C397 2.491 . S
C2489 C417 2.311 . S
C2501 C294 2.392 . S
C2516 C434 1.499 . S
C2528 C225 1.461 . S
C2543 C442 2.324 . S
C2555 C177 2.139 . S
C2570 C217 1.281 . S
C2582 C473 1.442 . S
C2597 C354 2.376 . S
C2609 C277 2.279 . S
C2624 C317 2.522 . S
C2636 C382 2.670 . S
C2651 C337 1.309 . S
C2663 C233 1.448 . S
C2678 C182 2.284 . S
C2690 C437 2.076 . S
C2705 C482 2.156 . S
C2717 C574 2.098 . S
C2732 C54 2.154 . S
C2744 C157 2.056 . S
C2759 C502 1.575 . S
C2771 C594 1.533 . S
C2786 C108 2.396 . S
C2798 C17 2.438 . S
C2813 C617 2.025 . S
C2825 C534 2.132 . S
C2840 C74 1.548 . S
C2852 C82 1.636 . S
C2867 C557 2.472 . S
C2879 C628 2.426 . S
C2894 C122 2.189 . S
C2906 C34 2.155 . S
C2921 C577 2.477 . S
C2933 C522 2.635 . S
C2948 C554 2.344 . S
C2960 C597 2.291 . S
C2975 C497 2.107 . S
C2987 C602 2.279 . S
C3002 C517 1.324 . S
C3014 C633 1.453 . S
C3029 C362 3.032 . S
C3041 C282 3.035 . S
C3056 C402 2.723 . S
C3068 C257 2.457 . S
C3083 C174 1.483 . S
C3095 C465 1.439 . S
C3110 C214 1.101 . S
C3122 C454 1.131 . S
C3137 C614 1.040 . S
C3149 C514 1.053 . S
C3164 C562 3.034 . S
C3176 C542 3.034 . S
C3191 C582 2.749 . S
C3203 C537 2.483 . S
C3218 C494 1.435 . S
C3230 C625 1.409 . S
