# Generated by pormake.
# Topology wmz, (6)-cn, num edge types: 1
# Building blocks:
#     Node 0, Type 0, BuildingBlock: IZENUY_clean_sbu_0, # of connection points: 6
#     Node 1, Type 0, BuildingBlock: IZENUY_clean_sbu_0, # of connection points: 6
#     Node 2, Type 0, BuildingBlock: IZENUY_clean_sbu_0, # of connection points: 6
#     Node 3, Type 0, BuildingBlock: IZENUY_clean_sbu_0, # of connection points: 6
#     Node 4, Type 0, BuildingBlock: IZENUY_clean_sbu_0, # of connection points: 6
#     Node 5, Type 0, BuildingBlock: IZENUY_clean_sbu_0, # of connection points: 6
#     Node 6, Type 0, BuildingBlock: IZENUY_clean_sbu_0, # of connection points: 6
#     Node 7, Type 0, BuildingBlock: IZENUY_clean_sbu_0, # of connection points: 6
#     Node 8, Type 0, BuildingBlock: IZENUY_clean_sbu_0, # of connection points: 6
#     Node 9, Type 0, BuildingBlock: IZENUY_clean_sbu_0, # of connection points: 6
#     Node 10, Type 0, BuildingBlock: IZENUY_clean_sbu_0, # of connection points: 6
#     Node 11, Type 0, BuildingBlock: IZENUY_clean_sbu_0, # of connection points: 6
#     Node 12, Type 0, BuildingBlock: IZENUY_clean_sbu_0, # of connection points: 6
#     Node 13, Type 0, BuildingBlock: IZENUY_clean_sbu_0, # of connection points: 6
#     Node 14, Type 0, BuildingBlock: IZENUY_clean_sbu_0, # of connection points: 6
#     Node 15, Type 0, BuildingBlock: IZENUY_clean_sbu_0, # of connection points: 6
#     Node 16, Type 0, BuildingBlock: IZENUY_clean_sbu_0, # of connection points: 6
#     Node 17, Type 0, BuildingBlock: IZENUY_clean_sbu_0, # of connection points: 6
#     Node 18, Type 0, BuildingBlock: IZENUY_clean_sbu_0, # of connection points: 6
#     Node 19, Type 0, BuildingBlock: IZENUY_clean_sbu_0, # of connection points: 6
#     Node 20, Type 0, BuildingBlock: IZENUY_clean_sbu_0, # of connection points: 6
#     Node 21, Type 0, BuildingBlock: IZENUY_clean_sbu_0, # of connection points: 6
#     Node 22, Type 0, BuildingBlock: IZENUY_clean_sbu_0, # of connection points: 6
#     Node 23, Type 0, BuildingBlock: IZENUY_clean_sbu_0, # of connection points: 6
#     Node 24, Type 0, BuildingBlock: IZENUY_clean_sbu_0, # of connection points: 6
#     Node 25, Type 0, BuildingBlock: IZENUY_clean_sbu_0, # of connection points: 6
#     Node 26, Type 0, BuildingBlock: IZENUY_clean_sbu_0, # of connection points: 6
#     Node 27, Type 0, BuildingBlock: IZENUY_clean_sbu_0, # of connection points: 6
#     Node 28, Type 0, BuildingBlock: IZENUY_clean_sbu_0, # of connection points: 6
#     Node 29, Type 0, BuildingBlock: IZENUY_clean_sbu_0, # of connection points: 6
#     Node 30, Type 0, BuildingBlock: IZENUY_clean_sbu_0, # of connection points: 6
#     Node 31, Type 0, BuildingBlock: IZENUY_clean_sbu_0, # of connection points: 6
#     Node 32, Type 0, BuildingBlock: IZENUY_clean_sbu_0, # of connection points: 6
#     Node 33, Type 0, BuildingBlock: IZENUY_clean_sbu_0, # of connection points: 6
#     Node 34, Type 0, BuildingBlock: IZENUY_clean_sbu_0, # of connection points: 6
#     Node 35, Type 0, BuildingBlock: IZENUY_clean_sbu_0, # of connection points: 6
#     Edge 36, Type (0, 0), BuildingBlock: XIVTED_clean_linker_0, # of connection points: 2
#     Edge 37, Type (0, 0), BuildingBlock: XIVTED_clean_linker_0, # of connection points: 2
#     Edge 38, Type (0, 0), BuildingBlock: XIVTED_clean_linker_0, # of connection points: 2
#     Edge 39, Type (0, 0), BuildingBlock: XIVTED_clean_linker_0, # of connection points: 2
#     Edge 40, Type (0, 0), BuildingBlock: XIVTED_clean_linker_0, # of connection points: 2
#     Edge 41, Type (0, 0), BuildingBlock: XIVTED_clean_linker_0, # of connection points: 2
#     Edge 42, Type (0, 0), BuildingBlock: XIVTED_clean_linker_0, # of connection points: 2
#     Edge 43, Type (0, 0), BuildingBlock: XIVTED_clean_linker_0, # of connection points: 2
#     Edge 44, Type (0, 0), BuildingBlock: XIVTED_clean_linker_0, # of connection points: 2
#     Edge 45, Type (0, 0), BuildingBlock: XIVTED_clean_linker_0, # of connection points: 2
#     Edge 46, Type (0, 0), BuildingBlock: XIVTED_clean_linker_0, # of connection points: 2
#     Edge 47, Type (0, 0), BuildingBlock: XIVTED_clean_linker_0, # of connection points: 2
#     Edge 48, Type (0, 0), BuildingBlock: XIVTED_clean_linker_0, # of connection points: 2
#     Edge 49, Type (0, 0), BuildingBlock: XIVTED_clean_linker_0, # of connection points: 2
#     Edge 50, Type (0, 0), BuildingBlock: XIVTED_clean_linker_0, # of connection points: 2
#     Edge 51, Type (0, 0), BuildingBlock: XIVTED_clean_linker_0, # of connection points: 2
#     Edge 52, Type (0, 0), BuildingBlock: XIVTED_clean_linker_0, # of connection points: 2
#     Edge 53, Type (0, 0), BuildingBlock: XIVTED_clean_linker_0, # of connection points: 2
#     Edge 54, Type (0, 0), BuildingBlock: XIVTED_clean_linker_0, # of connection points: 2
#     Edge 55, Type (0, 0), BuildingBlock: XIVTED_clean_linker_0, # of connection points: 2
#     Edge 56, Type (0, 0), BuildingBlock: XIVTED_clean_linker_0, # of connection points: 2
#     Edge 57, Type (0, 0), BuildingBlock: XIVTED_clean_linker_0, # of connection points: 2
#     Edge 58, Type (0, 0), BuildingBlock: XIVTED_clean_linker_0, # of connection points: 2
#     Edge 59, Type (0, 0), BuildingBlock: XIVTED_clean_linker_0, # of connection points: 2
#     Edge 60, Type (0, 0), BuildingBlock: XIVTED_clean_linker_0, # of connection points: 2
#     Edge 61, Type (0, 0), BuildingBlock: XIVTED_clean_linker_0, # of connection points: 2
#     Edge 62, Type (0, 0), BuildingBlock: XIVTED_clean_linker_0, # of connection points: 2
#     Edge 63, Type (0, 0), BuildingBlock: XIVTED_clean_linker_0, # of connection points: 2
#     Edge 64, Type (0, 0), BuildingBlock: XIVTED_clean_linker_0, # of connection points: 2
#     Edge 65, Type (0, 0), BuildingBlock: XIVTED_clean_linker_0, # of connection points: 2
#     Edge 66, Type (0, 0), BuildingBlock: XIVTED_clean_linker_0, # of connection points: 2
#     Edge 67, Type (0, 0), BuildingBlock: XIVTED_clean_linker_0, # of connection points: 2
#     Edge 68, Type (0, 0), BuildingBlock: XIVTED_clean_linker_0, # of connection points: 2
#     Edge 69, Type (0, 0), BuildingBlock: XIVTED_clean_linker_0, # of connection points: 2
#     Edge 70, Type (0, 0), BuildingBlock: XIVTED_clean_linker_0, # of connection points: 2
#     Edge 71, Type (0, 0), BuildingBlock: XIVTED_clean_linker_0, # of connection points: 2
#     Edge 72, Type (0, 0), BuildingBlock: XIVTED_clean_linker_0, # of connection points: 2
#     Edge 73, Type (0, 0), BuildingBlock: XIVTED_clean_linker_0, # of connection points: 2
#     Edge 74, Type (0, 0), BuildingBlock: XIVTED_clean_linker_0, # of connection points: 2
#     Edge 75, Type (0, 0), BuildingBlock: XIVTED_clean_linker_0, # of connection points: 2
#     Edge 76, Type (0, 0), BuildingBlock: XIVTED_clean_linker_0, # of connection points: 2
#     Edge 77, Type (0, 0), BuildingBlock: XIVTED_clean_linker_0, # of connection points: 2
#     Edge 78, Type (0, 0), BuildingBlock: XIVTED_clean_linker_0, # of connection points: 2
#     Edge 79, Type (0, 0), BuildingBlock: XIVTED_clean_linker_0, # of connection points: 2
#     Edge 80, Type (0, 0), BuildingBlock: XIVTED_clean_linker_0, # of connection points: 2
#     Edge 81, Type (0, 0), BuildingBlock: XIVTED_clean_linker_0, # of connection points: 2
#     Edge 82, Type (0, 0), BuildingBlock: XIVTED_clean_linker_0, # of connection points: 2
#     Edge 83, Type (0, 0), BuildingBlock: XIVTED_clean_linker_0, # of connection points: 2
#     Edge 84, Type (0, 0), BuildingBlock: XIVTED_clean_linker_0, # of connection points: 2
#     Edge 85, Type (0, 0), BuildingBlock: XIVTED_clean_linker_0, # of connection points: 2
#     Edge 86, Type (0, 0), BuildingBlock: XIVTED_clean_linker_0, # of connection points: 2
#     Edge 87, Type (0, 0), BuildingBlock: XIVTED_clean_linker_0, # of connection points: 2
#     Edge 88, Type (0, 0), BuildingBlock: XIVTED_clean_linker_0, # of connection points: 2
#     Edge 89, Type (0, 0), BuildingBlock: XIVTED_clean_linker_0, # of connection points: 2
#     Edge 90, Type (0, 0), BuildingBlock: XIVTED_clean_linker_0, # of connection points: 2
#     Edge 91, Type (0, 0), BuildingBlock: XIVTED_clean_linker_0, # of connection points: 2
#     Edge 92, Type (0, 0), BuildingBlock: XIVTED_clean_linker_0, # of connection points: 2
#     Edge 93, Type (0, 0), BuildingBlock: XIVTED_clean_linker_0, # of connection points: 2
#     Edge 94, Type (0, 0), BuildingBlock: XIVTED_clean_linker_0, # of connection points: 2
#     Edge 95, Type (0, 0), BuildingBlock: XIVTED_clean_linker_0, # of connection points: 2
#     Edge 96, Type (0, 0), BuildingBlock: XIVTED_clean_linker_0, # of connection points: 2
#     Edge 97, Type (0, 0), BuildingBlock: XIVTED_clean_linker_0, # of connection points: 2
#     Edge 98, Type (0, 0), BuildingBlock: XIVTED_clean_linker_0, # of connection points: 2
#     Edge 99, Type (0, 0), BuildingBlock: XIVTED_clean_linker_0, # of connection points: 2
#     Edge 100, Type (0, 0), BuildingBlock: XIVTED_clean_linker_0, # of connection points: 2
#     Edge 101, Type (0, 0), BuildingBlock: XIVTED_clean_linker_0, # of connection points: 2
#     Edge 102, Type (0, 0), BuildingBlock: XIVTED_clean_linker_0, # of connection points: 2
#     Edge 103, Type (0, 0), BuildingBlock: XIVTED_clean_linker_0, # of connection points: 2
#     Edge 104, Type (0, 0), BuildingBlock: XIVTED_clean_linker_0, # of connection points: 2
#     Edge 105, Type (0, 0), BuildingBlock: XIVTED_clean_linker_0, # of connection points: 2
#     Edge 106, Type (0, 0), BuildingBlock: XIVTED_clean_linker_0, # of connection points: 2
#     Edge 107, Type (0, 0), BuildingBlock: XIVTED_clean_linker_0, # of connection points: 2
#     Edge 108, Type (0, 0), BuildingBlock: XIVTED_clean_linker_0, # of connection points: 2
#     Edge 109, Type (0, 0), BuildingBlock: XIVTED_clean_linker_0, # of connection points: 2
#     Edge 110, Type (0, 0), BuildingBlock: XIVTED_clean_linker_0, # of connection points: 2
#     Edge 111, Type (0, 0), BuildingBlock: XIVTED_clean_linker_0, # of connection points: 2
#     Edge 112, Type (0, 0), BuildingBlock: XIVTED_clean_linker_0, # of connection points: 2
#     Edge 113, Type (0, 0), BuildingBlock: XIVTED_clean_linker_0, # of connection points: 2
#     Edge 114, Type (0, 0), BuildingBlock: XIVTED_clean_linker_0, # of connection points: 2
#     Edge 115, Type (0, 0), BuildingBlock: XIVTED_clean_linker_0, # of connection points: 2
#     Edge 116, Type (0, 0), BuildingBlock: XIVTED_clean_linker_0, # of connection points: 2
#     Edge 117, Type (0, 0), BuildingBlock: XIVTED_clean_linker_0, # of connection points: 2
#     Edge 118, Type (0, 0), BuildingBlock: XIVTED_clean_linker_0, # of connection points: 2
#     Edge 119, Type (0, 0), BuildingBlock: XIVTED_clean_linker_0, # of connection points: 2
#     Edge 120, Type (0, 0), BuildingBlock: XIVTED_clean_linker_0, # of connection points: 2
#     Edge 121, Type (0, 0), BuildingBlock: XIVTED_clean_linker_0, # of connection points: 2
#     Edge 122, Type (0, 0), BuildingBlock: XIVTED_clean_linker_0, # of connection points: 2
#     Edge 123, Type (0, 0), BuildingBlock: XIVTED_clean_linker_0, # of connection points: 2
#     Edge 124, Type (0, 0), BuildingBlock: XIVTED_clean_linker_0, # of connection points: 2
#     Edge 125, Type (0, 0), BuildingBlock: XIVTED_clean_linker_0, # of connection points: 2
#     Edge 126, Type (0, 0), BuildingBlock: XIVTED_clean_linker_0, # of connection points: 2
#     Edge 127, Type (0, 0), BuildingBlock: XIVTED_clean_linker_0, # of connection points: 2
#     Edge 128, Type (0, 0), BuildingBlock: XIVTED_clean_linker_0, # of connection points: 2
#     Edge 129, Type (0, 0), BuildingBlock: XIVTED_clean_linker_0, # of connection points: 2
#     Edge 130, Type (0, 0), BuildingBlock: XIVTED_clean_linker_0, # of connection points: 2
#     Edge 131, Type (0, 0), BuildingBlock: XIVTED_clean_linker_0, # of connection points: 2
#     Edge 132, Type (0, 0), BuildingBlock: XIVTED_clean_linker_0, # of connection points: 2
#     Edge 133, Type (0, 0), BuildingBlock: XIVTED_clean_linker_0, # of connection points: 2
#     Edge 134, Type (0, 0), BuildingBlock: XIVTED_clean_linker_0, # of connection points: 2
#     Edge 135, Type (0, 0), BuildingBlock: XIVTED_clean_linker_0, # of connection points: 2
#     Edge 136, Type (0, 0), BuildingBlock: XIVTED_clean_linker_0, # of connection points: 2
#     Edge 137, Type (0, 0), BuildingBlock: XIVTED_clean_linker_0, # of connection points: 2
#     Edge 138, Type (0, 0), BuildingBlock: XIVTED_clean_linker_0, # of connection points: 2
#     Edge 139, Type (0, 0), BuildingBlock: XIVTED_clean_linker_0, # of connection points: 2
#     Edge 140, Type (0, 0), BuildingBlock: XIVTED_clean_linker_0, # of connection points: 2
#     Edge 141, Type (0, 0), BuildingBlock: XIVTED_clean_linker_0, # of connection points: 2
#     Edge 142, Type (0, 0), BuildingBlock: XIVTED_clean_linker_0, # of connection points: 2
#     Edge 143, Type (0, 0), BuildingBlock: XIVTED_clean_linker_0, # of connection points: 2
# Relax obj value: 0.490
# Max RMSD: 0.222
# Mean RMSD: 0.222
data_MOF--net-wmz--node1-IZENUY_clean_sbu_0--edge1-XIVTED_clean_linker_0
_symmetry_space_group_name_H-M    P1
_symmetry_Int_Tables_number       1
_symmetry_cell_setting            triclinic
loop_
_symmetry_equiv_pos_as_xyz
'x, y, z'
_cell_length_a     48.919608
_cell_length_b     48.9949
_cell_length_c     57.782108
_cell_angle_alpha  90.030533
_cell_angle_beta   89.981649
_cell_angle_gamma 120.05905
loop_
_atom_site_label
_atom_site_type_symbol
_atom_site_fract_x
_atom_site_fract_y
_atom_site_fract_z
_atom_type_partial_charge
Fe0 Fe 0.19756 0.17734 0.12589 0.0
Fe1 Fe 0.15821 0.13175 0.08725 0.0
O2 O 0.19442 0.16305 0.09732 0.0
Fe3 Fe 0.22778 0.17994 0.07909 0.0
O4 O 0.24421 0.21913 0.09177 0.0
O5 O 0.20724 0.21661 0.11464 0.0
O6 O 0.15562 0.16716 0.12791 0.0
C7 C 0.13507 0.16204 0.11245 0.0
C8 C 0.25507 0.17795 0.11942 0.0
O9 O 0.13846 0.15421 0.09232 0.0
C10 C 0.19941 0.11515 0.06913 0.0
O11 O 0.18825 0.13859 0.13739 0.0
O12 O 0.14615 0.11243 0.11552 0.0
O13 O 0.24907 0.16894 0.09874 0.0
O14 O 0.23976 0.1892 0.1295 0.0
C15 C 0.18281 0.1722 0.04826 0.0
O16 O 0.17552 0.10719 0.08169 0.0
O17 O 0.21715 0.14364 0.06344 0.0
C18 C 0.16369 0.11302 0.13178 0.0
O19 O 0.16433 0.14558 0.0572 0.0
O20 O 0.2082 0.19158 0.05808 0.0
C21 C 0.22926 0.23174 0.10003 0.0
Fe22 Fe 0.83997 0.01947 0.1298 0.0
Fe23 Fe 0.87394 0.01704 0.0861 0.0
O24 O 0.84714 0.02588 0.09981 0.0
Fe25 Fe 0.82716 0.04134 0.08384 0.0
O26 O 0.79202 0.02284 0.10212 0.0
O27 O 0.79833 0.98963 0.12369 0.0
O28 O 0.84893 0.98722 0.13169 0.0
C29 C 0.84969 0.96874 0.1167 0.0
C30 C 0.84081 0.07684 0.12256 0.0
O31 O 0.85244 0.9761 0.09557 0.0
C32 C 0.88786 0.07191 0.06399 0.0
O33 O 0.88128 0.04896 0.13589 0.0
O34 O 0.90089 0.02902 0.11099 0.0
O35 O 0.84506 0.0769 0.10107 0.0
O36 O 0.83079 0.05148 0.13403 0.0
C37 C 0.82314 0.99663 0.05401 0.0
O38 O 0.89773 0.05713 0.07592 0.0
O39 O 0.85871 0.0625 0.06273 0.0
C40 C 0.90469 0.04826 0.12704 0.0
O41 O 0.85143 1.00433 0.05888 0.0
O42 O 0.80827 1.0067 0.06566 0.0
C43 C 0.7805 0.9963 0.1119 0.0
Fe44 Fe 0.96715 0.80077 0.08261 0.0
Fe45 Fe 0.9968 0.82595 0.12993 0.0
O46 O 0.98659 0.83255 0.10196 0.0
Fe47 Fe 0.99542 0.87086 0.09394 0.0
O48 O 1.00171 0.86618 0.06334 0.0
O49 O 0.99807 0.81962 0.0612 0.0
O50 O 0.98783 0.78072 0.09308 0.0
C51 C 0.01494 0.79215 0.10226 0.0
C52 C 0.93648 0.83615 0.07538 0.0
O53 O 0.02397 0.81401 0.11733 0.0
C54 C 0.97059 0.86315 0.13816 0.0
O55 O 0.93471 0.77989 0.10246 0.0
O56 O 0.96443 0.78453 0.13215 0.0
O57 O 0.95435 0.85834 0.08871 0.0
O58 O 0.94345 0.81566 0.06901 0.0
C59 C 0.04803 0.8872 0.11861 0.0
O60 O 0.96917 0.83707 0.14242 0.0
O61 O 0.98992 0.88164 0.12327 0.0
C62 C 0.93762 0.77137 0.12237 0.0
O63 O 0.03092 0.86651 0.13348 0.0
O64 O 0.03726 0.88598 0.0986 0.0
C65 C 1.00631 0.84628 0.05266 0.0
Fe66 Fe 0.13458 0.15487 0.3948 0.0
Fe67 Fe 0.18231 0.22443 0.40317 0.0
O68 O 0.16584 0.19119 0.3849 0.0
Fe69 Fe 0.18056 0.19459 0.35642 0.0
O70 O 0.17063 0.15277 0.35433 0.0
O71 O 0.15743 0.13548 0.38985 0.0
O72 O 0.14816 0.16095 0.42493 0.0
C73 C 0.17462 0.17966 0.43406 0.0
C74 C 0.11626 0.16054 0.35014 0.0
O75 O 0.19399 0.20504 0.42427 0.0
C76 C 0.18059 0.25175 0.36287 0.0
O77 O 0.1096 0.17177 0.40031 0.0
O78 O 0.14578 0.2135 0.41864 0.0
O79 O 0.14186 0.18515 0.3447 0.0
O80 O 0.11556 0.14293 0.36638 0.0
C81 C 0.23462 0.2264 0.38264 0.0
O82 O 0.17119 0.24546 0.38344 0.0
O83 O 0.19219 0.23671 0.35287 0.0
C84 C 0.11729 0.1955 0.41297 0.0
O85 O 0.22169 0.24116 0.39068 0.0
O86 O 0.21982 0.20442 0.36795 0.0
C87 C 0.16557 0.13229 0.36978 0.0
Fe88 Fe 0.82895 0.99411 0.3508 0.0
Fe89 Fe 0.87419 0.99361 0.38697 0.0
O90 O 0.83574 0.98456 0.37893 0.0
Fe91 Fe 0.804 0.96562 0.39842 0.0
O92 O 0.78389 0.98604 0.38757 0.0
O93 O 0.81717 0.02158 0.36299 0.0
O94 O 0.86951 0.02798 0.34684 0.0
C95 C 0.89037 0.04545 0.36148 0.0
C96 C 0.7743 0.93527 0.35891 0.0
O97 O 0.88934 0.03526 0.38166 0.0
C98 C 0.83963 0.93535 0.40645 0.0
O99 O 0.83994 0.96619 0.33874 0.0
O100 O 0.88471 0.98721 0.35778 0.0
O101 O 0.78286 0.93273 0.37892 0.0
O102 O 0.78746 0.96185 0.34887 0.0
C103 C 0.84986 1.00552 0.42803 0.0
O104 O 0.86172 0.95278 0.39289 0.0
O105 O 0.81898 0.9423 0.41244 0.0
C106 C 0.86603 0.96762 0.34308 0.0
O107 O 0.86977 1.00082 0.41742 0.0
O108 O 0.82304 0.99696 0.41953 0.0
C109 C 0.79532 0.01287 0.37804 0.0
Fe110 Fe 0.02404 0.83807 0.35099 0.0
Fe111 Fe 0.01928 0.87189 0.39391 0.0
O112 O 0.02928 0.84546 0.381 0.0
Fe113 Fe 0.04472 0.82619 0.3978 0.0
O114 O 0.02719 0.79078 0.3798 0.0
O115 O 0.99452 0.79631 0.35692 0.0
O116 O 0.99125 0.84625 0.34808 0.0
C117 C 0.972 0.84666 0.36258 0.0
C118 C 0.08171 0.83989 0.35985 0.0
O119 O 0.97864 0.84946 0.38385 0.0
C120 C 0.07388 0.88717 0.41709 0.0
O121 O 0.05329 0.87951 0.34507 0.0
O122 O 0.03139 0.89839 0.36877 0.0
O123 O 0.08093 0.84427 0.38125 0.0
O124 O 0.0567 0.82959 0.34783 0.0
C125 C 0.99869 0.82177 0.42646 0.0
O126 O 0.05905 0.89645 0.40461 0.0
O127 O 0.06488 0.85817 0.41876 0.0
C128 C 0.05152 0.90261 0.35332 0.0
O129 O 1.00622 0.84986 0.42128 0.0
O130 O 1.00946 0.80711 0.41537 0.0
C131 C 1.0011 0.77886 0.36924 0.0
Fe132 Fe 0.84946 0.89507 0.89932 0.0
Fe133 Fe 0.78725 0.83367 0.9052 0.0
O134 O 0.82114 0.85813 0.8883 0.0
Fe135 Fe 0.82631 0.84628 0.86036 0.0
O136 O 0.86451 0.85022 0.86779 0.0
O137 O 0.88297 0.89686 0.88364 0.0
O138 O 0.85811 0.87689 0.92321 0.0
C139 C 0.83736 0.85933 0.93768 0.0
C140 C 0.84512 0.91146 0.85529 0.0
O141 O 0.80815 0.8465 0.93301 0.0
C142 C 0.76295 0.82767 0.86039 0.0
O143 O 0.82166 0.90087 0.91667 0.0
O144 O 0.77488 0.86295 0.90638 0.0
O145 O 0.84581 0.8872 0.84796 0.0
O146 O 0.84148 0.91466 0.87642 0.0
C147 C 0.80161 0.79026 0.88839 0.0
O148 O 0.76044 0.81613 0.88037 0.0
O149 O 0.78947 0.84278 0.85069 0.0
C150 C 0.79238 0.89024 0.91427 0.0
O151 O 0.79731 0.80331 0.90559 0.0
O152 O 0.80743 0.80335 0.86842 0.0
C153 C 0.88768 0.87631 0.87406 0.0
Fe154 Fe 0.17859 0.99583 0.85078 0.0
Fe155 Fe 0.1386 0.9962 0.89126 0.0
O156 O 0.16623 0.98669 0.87987 0.0
Fe157 Fe 0.1814 0.96769 0.89715 0.0
O158 O 0.22001 0.98708 0.883 0.0
O159 O 0.2195 0.02303 0.86058 0.0
O160 O 0.17248 0.03005 0.84905 0.0
C161 C 0.17086 0.04769 0.86443 0.0
C162 C 0.17401 0.9365 0.85686 0.0
O163 O 0.16429 0.03791 0.88502 0.0
C164 C 0.1172 0.93777 0.91013 0.0
O165 O 0.1378 0.96871 0.84094 0.0
O166 O 0.11743 0.98974 0.86394 0.0
O167 O 0.1659 0.93453 0.8777 0.0
O168 O 0.18647 0.96291 0.84658 0.0
C169 C 0.1808 0.00816 0.92878 0.0
O170 O 0.11089 0.95531 0.89804 0.0
O171 O 0.14548 0.94514 0.91412 0.0
C172 C 0.11432 0.97096 0.84783 0.0
O173 O 0.15482 1.00354 0.92059 0.0
O174 O 0.19754 0.99948 0.91805 0.0
C175 C 0.23429 0.01425 0.87397 0.0
Fe176 Fe 0.02918 0.15394 0.88757 0.0
Fe177 Fe 0.05133 0.2233 0.89764 0.0
O178 O 0.03636 0.19122 0.87823 0.0
Fe179 Fe 0.02894 0.19658 0.84916 0.0
O180 O 0.99702 0.15532 0.84473 0.0
O181 O 0.98772 0.13572 0.87978 0.0
O182 O 0.01822 0.15827 0.91704 0.0
C183 C 1.00965 0.17653 0.92569 0.0
C184 C 0.05909 0.16227 0.84506 0.0
O185 O 0.01753 0.20285 0.91665 0.0
C186 C 0.08542 0.2528 0.85931 0.0
O187 O 0.07008 0.16968 0.89583 0.0
O188 O 0.07455 0.2107 0.91458 0.0
O189 O 0.05933 0.18744 0.83958 0.0
O190 O 0.03943 0.14358 0.85969 0.0
C191 C 1.00473 0.22817 0.87318 0.0
O192 O 0.08608 0.24557 0.8801 0.0
O193 O 0.06004 0.23852 0.84771 0.0
C194 C 0.08499 0.1925 0.9095 0.0
O195 O 0.03079 0.24142 0.88386 0.0
O196 O 0.99864 0.20628 0.85868 0.0
C197 C 0.97908 0.1343 0.85905 0.0
Fe198 Fe 0.83557 0.78642 0.57835 0.0
Fe199 Fe 0.85112 0.82352 0.62428 0.0
O200 O 0.86124 0.81947 0.59546 0.0
Fe201 Fe 0.89749 0.84823 0.58368 0.0
O202 O 0.87789 0.85762 0.56116 0.0
O203 O 0.84676 0.80811 0.55091 0.0
O204 O 0.80523 0.7967 0.58026 0.0
C205 C 0.79335 0.79974 0.59863 0.0
C206 C 0.89164 0.79173 0.5666 0.0
O207 O 0.80777 0.80442 0.61794 0.0
C208 C 0.9168 0.84278 0.62652 0.0
O209 O 0.81968 0.75883 0.60276 0.0
O210 O 0.84798 0.78642 0.63252 0.0
O211 O 0.90228 0.82104 0.56487 0.0
O212 O 0.86461 0.77398 0.57488 0.0
C213 C 0.8798 0.88508 0.61151 0.0
O214 O 0.89286 0.84292 0.63522 0.0
O215 O 0.91863 0.83974 0.60509 0.0
C216 C 0.83176 0.76034 0.62243 0.0
O217 O 0.85427 0.86163 0.61828 0.0
O218 O 0.90002 0.88103 0.60072 0.0
C219 C 0.85943 0.83735 0.54677 0.0
Fe220 Fe 0.2031 0.02814 0.63143 0.0
Fe221 Fe 0.1588 0.0287 0.59442 0.0
O222 O 0.1966 0.03614 0.60274 0.0
Fe223 Fe 0.22801 0.05179 0.58271 0.0
O224 O 0.24667 0.03106 0.59523 0.0
O225 O 0.21288 0.99834 0.62072 0.0
O226 O 0.16197 0.99576 0.63619 0.0
C227 C 0.14066 0.978 0.62193 0.0
C228 C 0.25898 0.08499 0.621 0.0
O229 O 0.14141 0.98718 0.60144 0.0
C230 C 0.19623 0.08519 0.57311 0.0
O231 O 0.19384 0.05803 0.64211 0.0
O232 O 0.14915 0.03783 0.62297 0.0
O233 O 0.25088 0.08607 0.60053 0.0
O234 O 0.24507 0.05946 0.63242 0.0
C235 C 0.18033 0.0106 0.55496 0.0
O236 O 0.17377 0.06967 0.58695 0.0
O237 O 0.21454 0.07523 0.56706 0.0
C238 C 0.16823 0.05747 0.63742 0.0
O239 O 0.1622 0.01874 0.56445 0.0
O240 O 0.20705 0.01855 0.56334 0.0
C241 C 0.2333 1.00434 0.60491 0.0
Fe242 Fe 0.9987 0.17414 0.63249 0.0
Fe243 Fe 0.9988 0.13364 0.59223 0.0
O244 O 0.98927 0.1613 0.60348 0.0
Fe245 Fe 0.97006 0.17617 0.58606 0.0
O246 O 0.98913 0.21475 0.60014 0.0
O247 O 0.02555 0.21493 0.62238 0.0
O248 O 0.03325 0.16845 0.6342 0.0
C249 C 0.05065 0.16634 0.61882 0.0
C250 C 0.93869 0.16816 0.6265 0.0
O251 O 0.0406 0.15935 0.59833 0.0
C252 C 0.94044 0.11202 0.57303 0.0
O253 O 0.97211 0.1337 0.64279 0.0
O254 O 0.99248 0.11275 0.61966 0.0
O255 O 0.93689 0.16061 0.60553 0.0
O256 O 0.96524 0.18128 0.63673 0.0
C257 C 1.01052 0.1754 0.55447 0.0
O258 O 0.9578 0.10581 0.58547 0.0
O259 O 0.94767 0.14022 0.56913 0.0
C260 C 0.97432 0.1102 0.63612 0.0
O261 O 1.00601 0.14959 0.56285 0.0
O262 O 1.00192 0.19227 0.56512 0.0
C263 C 0.01645 0.22937 0.60893 0.0
Fe264 Fe 0.86489 0.51015 0.46394 0.0
Fe265 Fe 0.82476 0.46647 0.42477 0.0
O266 O 0.86139 0.49701 0.43503 0.0
Fe267 Fe 0.89474 0.51415 0.41675 0.0
O268 O 0.91168 0.55312 0.43003 0.0
O269 O 0.87502 0.54993 0.4538 0.0
O270 O 0.82332 0.5006 0.46649 0.0
C271 C 0.80289 0.49681 0.45135 0.0
C272 C 0.92233 0.51091 0.45661 0.0
O273 O 0.80562 0.48932 0.43094 0.0
C274 C 0.86496 0.44951 0.40516 0.0
O275 O 0.85517 0.47077 0.47433 0.0
O276 O 0.81267 0.44616 0.45269 0.0
O277 O 0.91607 0.50234 0.43585 0.0
O278 O 0.90691 0.52156 0.46721 0.0
C279 C 0.84989 0.50777 0.3862 0.0
O280 O 0.8413 0.44151 0.41802 0.0
O281 O 0.88359 0.47819 0.40043 0.0
C282 C 0.83029 0.44567 0.46846 0.0
O283 O 0.83087 0.4813 0.39508 0.0
O284 O 0.87538 0.52672 0.39614 0.0
C285 C 0.89774 0.56581 0.43991 0.0
Fe286 Fe 0.50412 0.37843 0.41811 0.0
Fe287 Fe 0.51154 0.35621 0.46613 0.0
O288 O 0.52306 0.36446 0.43672 0.0
Fe289 Fe 0.55409 0.35928 0.42628 0.0
O290 O 0.53882 0.34935 0.3968 0.0
O291 O 0.49237 0.34597 0.39811 0.0
O292 O 0.46547 0.35516 0.43184 0.0
C293 C 0.45456 0.32965 0.44309 0.0
C294 C 0.56864 0.41512 0.40566 0.0
O295 O 0.47161 0.32537 0.45756 0.0
C296 C 0.57618 0.38762 0.46918 0.0
O297 O 0.51497 0.41211 0.43638 0.0
O298 O 0.49935 0.38611 0.46904 0.0
O299 O 0.57776 0.40066 0.41877 0.0
O300 O 0.53959 0.40399 0.40132 0.0
C301 C 0.52528 0.30787 0.45379 0.0
O302 O 0.55109 0.38715 0.47527 0.0
O303 O 0.57535 0.36888 0.45385 0.0
C304 C 0.50868 0.41125 0.45753 0.0
O305 O 0.52211 0.32494 0.46892 0.0
O306 O 0.53222 0.31754 0.4332 0.0
C307 C 0.51204 0.34067 0.38802 0.0
Fe308 Fe 0.64088 0.12574 0.41859 0.0
Fe309 Fe 0.66391 0.15603 0.46625 0.0
O310 O 0.65538 0.15902 0.43691 0.0
Fe311 Fe 0.66094 0.19516 0.42615 0.0
O312 O 0.67119 0.1893 0.39687 0.0
O313 O 0.67379 0.14584 0.39876 0.0
O314 O 0.66309 0.10969 0.43288 0.0
C315 C 0.68895 0.12406 0.44374 0.0
C316 C 0.60504 0.15392 0.40538 0.0
O317 O 0.69442 0.14649 0.45748 0.0
C318 C 0.63304 0.18967 0.46936 0.0
O319 O 0.6069 0.10365 0.43684 0.0
O320 O 0.63341 0.11396 0.46934 0.0
O321 O 0.61955 0.17754 0.41847 0.0
O322 O 0.61607 0.13595 0.40125 0.0
C323 C 0.71233 0.21832 0.45385 0.0
O324 O 0.63349 0.16513 0.47561 0.0
O325 O 0.65111 0.20711 0.45351 0.0
C326 C 0.60803 0.09808 0.45794 0.0
O327 O 0.69548 0.19785 0.46892 0.0
O328 O 0.70274 0.21526 0.43323 0.0
C329 C 0.67988 0.17097 0.38854 0.0
Fe330 Fe 0.80934 0.48195 0.7217 0.0
Fe331 Fe 0.85087 0.55261 0.73153 0.0
O332 O 0.8364 0.5204 0.71222 0.0
Fe333 Fe 0.84902 0.52671 0.68305 0.0
O334 O 0.84384 0.48695 0.67861 0.0
O335 O 0.8361 0.46795 0.71372 0.0
O336 O 0.82516 0.48795 0.75103 0.0
C337 C 0.85118 0.50839 0.7597 0.0
C338 C 0.7851 0.48672 0.6792 0.0
O339 O 0.86738 0.53526 0.75072 0.0
C340 C 0.84269 0.57961 0.69307 0.0
O341 O 0.78083 0.49327 0.73027 0.0
O342 O 0.8145 0.53666 0.74854 0.0
O343 O 0.80828 0.51331 0.67353 0.0
O344 O 0.78853 0.46969 0.694 0.0
C345 C 0.90445 0.56281 0.70694 0.0
O346 O 0.83517 0.57199 0.71388 0.0
O347 O 0.85577 0.56727 0.68151 0.0
C348 C 0.78645 0.51541 0.74406 0.0
O349 O 0.88963 0.57394 0.71767 0.0
O350 O 0.89007 0.54047 0.69245 0.0
C351 C 0.84299 0.46684 0.69286 0.0
Fe352 Fe 0.49953 0.32763 0.69283 0.0
Fe353 Fe 0.52237 0.31202 0.73765 0.0
O354 O 0.49302 0.31483 0.72206 0.0
Fe355 Fe 0.457 0.30448 0.73625 0.0
O356 O 0.46368 0.34351 0.73261 0.0
O357 O 0.4775 0.34964 0.69573 0.0
O358 O 0.53562 0.36466 0.69957 0.0
C359 C 0.55937 0.3653 0.70872 0.0
C360 C 0.43731 0.27983 0.69172 0.0
O361 O 0.55581 0.34291 0.72159 0.0
C362 C 0.46636 0.25849 0.7528 0.0
O363 O 0.52249 0.30756 0.68588 0.0
O364 O 0.5198 0.28217 0.71818 0.0
O365 O 0.43258 0.29037 0.71028 0.0
O366 O 0.46472 0.29153 0.68341 0.0
C367 C 0.50255 0.33869 0.76971 0.0
O368 O 0.49467 0.27978 0.75634 0.0
O369 O 0.44824 0.26439 0.74113 0.0
C370 C 0.52446 0.28584 0.69666 0.0
O371 O 0.52577 0.34207 0.75785 0.0
O372 O 0.47481 0.31724 0.76489 0.0
C373 C 0.4691 0.35839 0.71395 0.0
Fe374 Fe 0.70519 0.17936 0.69364 0.0
Fe375 Fe 0.72913 0.22839 0.73239 0.0
O376 O 0.71959 0.19077 0.72226 0.0
Fe377 Fe 0.72498 0.16507 0.74068 0.0
O378 O 0.68394 0.13595 0.73873 0.0
O379 O 0.67964 0.13652 0.70092 0.0
O380 O 0.67126 0.18432 0.69923 0.0
C381 C 0.67442 0.21063 0.70497 0.0
C382 C 0.74734 0.15814 0.69729 0.0
O383 O 0.69977 0.2315 0.71436 0.0
C384 C 0.77718 0.21997 0.7522 0.0
O385 O 0.72873 0.22033 0.68153 0.0
O386 O 0.7593 0.24653 0.71081 0.0
O387 O 0.73658 0.14741 0.71726 0.0
O388 O 0.73819 0.17428 0.68625 0.0
C389 C 0.69889 0.19266 0.76985 0.0
O390 O 0.76021 0.2327 0.75219 0.0
O391 O 0.76665 0.19265 0.74431 0.0
C392 C 0.75382 0.24396 0.68945 0.0
O393 O 0.6996 0.21163 0.75479 0.0
O394 O 0.71426 0.17832 0.76721 0.0
C395 C 0.66918 0.12327 0.72048 0.0
Fe396 Fe 0.53511 0.21579 0.22537 0.0
Fe397 Fe 0.46529 0.16831 0.23397 0.0
O398 O 0.49826 0.18542 0.21533 0.0
Fe399 Fe 0.49416 0.17244 0.18633 0.0
O400 O 0.53557 0.1816 0.18332 0.0
O401 O 0.55389 0.19276 0.21875 0.0
O402 O 0.52942 0.20082 0.25501 0.0
C403 C 0.51067 0.1742 0.26379 0.0
C404 C 0.52909 0.23686 0.1819 0.0
O405 O 0.48497 0.15534 0.25403 0.0
C406 C 0.43732 0.1725 0.19462 0.0
O407 O 0.51882 0.24085 0.23251 0.0
O408 O 0.47701 0.20416 0.25053 0.0
O409 O 0.50404 0.2119 0.17616 0.0
O410 O 0.54686 0.23624 0.19749 0.0
C411 C 0.46111 0.11661 0.21001 0.0
O412 O 0.44378 0.18056 0.21545 0.0
O413 O 0.45223 0.16157 0.18365 0.0
C414 C 0.49527 0.23279 0.24548 0.0
O415 O 0.44777 0.12949 0.22044 0.0
O416 O 0.48377 0.13249 0.1961 0.0
C417 C 0.55615 0.18517 0.19827 0.0
Fe418 Fe 0.84698 0.32388 0.18559 0.0
Fe419 Fe 0.80398 0.32023 0.22532 0.0
O420 O 0.83474 0.31477 0.21474 0.0
Fe421 Fe 0.85301 0.29972 0.23295 0.0
O422 O 0.89156 0.32209 0.21902 0.0
O423 O 0.88684 0.35433 0.19498 0.0
O424 O 0.8366 0.35523 0.18295 0.0
C425 C 0.83289 0.37194 0.19805 0.0
C426 C 0.84913 0.26809 0.19336 0.0
O427 O 0.82596 0.3621 0.21859 0.0
C428 C 0.78872 0.26393 0.24559 0.0
O429 O 0.80757 0.29344 0.17583 0.0
O430 O 0.78278 0.31086 0.19772 0.0
O431 O 0.84123 0.26619 0.21426 0.0
O432 O 0.85904 0.2938 0.18243 0.0
C433 C 0.84656 0.33832 0.26328 0.0
O434 O 0.77987 0.2788 0.23267 0.0
O435 O 0.81767 0.27475 0.2499 0.0
C436 C 0.78236 0.29277 0.18196 0.0
O437 O 0.81967 0.33001 0.25477 0.0
O438 O 0.86564 0.33214 0.25314 0.0
C439 C 0.90347 0.34832 0.20868 0.0
Fe440 Fe 0.69524 0.52522 0.18615 0.0
Fe441 Fe 0.69786 0.48451 0.22521 0.0
O442 O 0.70448 0.5213 0.21509 0.0
Fe443 Fe 0.72084 0.55441 0.23352 0.0
O444 O 0.69946 0.57191 0.22009 0.0
O445 O 0.66577 0.53566 0.19621 0.0
O446 O 0.66287 0.48384 0.18331 0.0
C447 C 0.64598 0.46329 0.1983 0.0
C448 C 0.75242 0.58207 0.19392 0.0
O449 O 0.65594 0.46586 0.21878 0.0
C450 C 0.75504 0.52407 0.24511 0.0
O451 O 0.72476 0.51527 0.17586 0.0
O452 O 0.70628 0.47259 0.19728 0.0
O453 O 0.75442 0.57552 0.21466 0.0
O454 O 0.72634 0.56712 0.18322 0.0
C455 C 0.68126 0.50949 0.26364 0.0
O456 O 0.73928 0.50055 0.23219 0.0
O457 O 0.74506 0.54269 0.25001 0.0
C458 C 0.72468 0.49026 0.18165 0.0
O459 O 0.6888 0.49047 0.25489 0.0
O460 O 0.68842 0.5352 0.25384 0.0
C461 C 0.67288 0.55841 0.2101 0.0
Fe462 Fe 0.50519 0.15997 0.96795 0.0
Fe463 Fe 0.53868 0.20396 0.92731 0.0
O464 O 0.51446 0.16545 0.93806 0.0
Fe465 Fe 0.49908 0.13195 0.9198 0.0
O466 O 0.46189 0.11117 0.93599 0.0
O467 O 0.46343 0.1462 0.96079 0.0
O468 O 0.51156 0.19979 0.97365 0.0
C469 C 0.51044 0.21971 0.96045 0.0
C470 C 0.51096 0.10713 0.95766 0.0
O471 O 0.51307 0.21746 0.93904 0.0
C472 C 0.56058 0.17122 0.90181 0.0
O473 O 0.54672 0.17352 0.97443 0.0
O474 O 0.56465 0.21657 0.95295 0.0
O475 O 0.5178 0.11475 0.93679 0.0
O476 O 0.49799 0.11937 0.96935 0.0
C477 C 0.49101 0.17364 0.89291 0.0
O478 O 0.56642 0.1943 0.91457 0.0
O479 O 0.53319 0.14745 0.90052 0.0
C480 C 0.56942 0.19954 0.96714 0.0
O481 O 0.51669 0.19671 0.90015 0.0
O482 O 0.47952 0.14642 0.90135 0.0
C483 C 0.44799 0.12323 0.9469 0.0
Fe484 Fe 0.89749 0.37466 0.91996 0.0
Fe485 Fe 0.86071 0.35299 0.96532 0.0
O486 O 0.86103 0.35828 0.935 0.0
Fe487 Fe 0.8255 0.34704 0.92021 0.0
O488 O 0.83659 0.33244 0.89469 0.0
O489 O 0.88424 0.34004 0.90226 0.0
O490 O 0.91408 0.35761 0.93973 0.0
C491 C 0.89891 0.331 0.94943 0.0
C492 C 0.86607 0.40165 0.89703 0.0
O493 O 0.87376 0.32391 0.96053 0.0
C494 C 0.82305 0.37934 0.96014 0.0
O495 O 0.91299 0.41056 0.93663 0.0
O496 O 0.90148 0.38605 0.96995 0.0
O497 O 0.84074 0.38604 0.90812 0.0
O498 O 0.88724 0.39417 0.89753 0.0
C499 C 0.80078 0.30094 0.95237 0.0
O500 O 0.84719 0.38137 0.97006 0.0
O501 O 0.80938 0.36027 0.94355 0.0
C502 C 0.91667 0.41123 0.95822 0.0
O503 O 0.8196 0.32014 0.9672 0.0
O504 O 0.80676 0.30693 0.93121 0.0
C505 C 0.8587 0.32651 0.89116 0.0
Fe506 Fe 0.66011 0.50758 0.9582 0.0
Fe507 Fe 0.63364 0.45752 0.92014 0.0
O508 O 0.64304 0.49505 0.93031 0.0
Fe509 Fe 0.6344 0.51931 0.91268 0.0
O510 O 0.67497 0.54958 0.9125 0.0
O511 O 0.68458 0.5503 0.94976 0.0
O512 O 0.69401 0.50293 0.95098 0.0
C513 C 0.69049 0.47646 0.9452 0.0
C514 C 0.61535 0.52611 0.95715 0.0
O515 O 0.66468 0.45555 0.9365 0.0
C516 C 0.58259 0.46308 0.90346 0.0
O517 O 0.63799 0.46696 0.97114 0.0
O518 O 0.60555 0.43927 0.94301 0.0
O519 O 0.62446 0.53703 0.93698 0.0
O520 O 0.62723 0.51193 0.96752 0.0
C521 C 0.65909 0.4923 0.88152 0.0
O522 O 0.60071 0.4518 0.90204 0.0
O523 O 0.59269 0.49043 0.91118 0.0
C524 C 0.61242 0.44299 0.96415 0.0
O525 O 0.66102 0.47449 0.89642 0.0
O526 O 0.64319 0.50586 0.88537 0.0
C527 C 0.69195 0.56316 0.92974 0.0
Fe528 Fe 0.52804 0.84776 0.80092 0.0
Fe529 Fe 0.48633 0.81339 0.75921 0.0
O530 O 0.52418 0.83699 0.77125 0.0
Fe531 Fe 0.55885 0.85059 0.75447 0.0
O532 O 0.57951 0.88783 0.77039 0.0
O533 O 0.54353 0.88931 0.79215 0.0
O534 O 0.48825 0.84288 0.80435 0.0
C535 C 0.46905 0.84322 0.78989 0.0
C536 C 0.5795 0.83836 0.79442 0.0
O537 O 0.47303 0.8401 0.76881 0.0
C538 C 0.51938 0.7893 0.73667 0.0
O539 O 0.51254 0.80641 0.80898 0.0
O540 O 0.4714 0.78847 0.78524 0.0
O541 O 0.57304 0.83087 0.77349 0.0
O542 O 0.56818 0.85346 0.80453 0.0
C543 C 0.5204 0.85971 0.72461 0.0
O544 O 0.49563 0.78438 0.74833 0.0
O545 O 0.54371 0.81624 0.73571 0.0
C546 C 0.48667 0.78397 0.80117 0.0
O547 O 0.49625 0.8347 0.73159 0.0
O548 O 0.547 0.87061 0.73414 0.0
C549 C 0.567 0.9031 0.77841 0.0
Fe550 Fe 0.17702 0.71678 0.75178 0.0
Fe551 Fe 0.17624 0.69234 0.80054 0.0
O552 O 0.19118 0.69992 0.772 0.0
Fe553 Fe 0.22063 0.69095 0.76413 0.0
O554 O 0.20787 0.68158 0.73399 0.0
O555 O 0.16407 0.68369 0.73219 0.0
O556 O 0.13688 0.69678 0.76357 0.0
C557 C 0.12228 0.67092 0.77447 0.0
C558 C 0.24275 0.74769 0.74279 0.0
O559 O 0.1364 0.6637 0.78972 0.0
C560 C 0.24028 0.71974 0.80707 0.0
O561 O 0.18918 0.75111 0.76981 0.0
O562 O 0.1667 0.72432 0.80125 0.0
O563 O 0.24824 0.73148 0.75692 0.0
O564 O 0.21479 0.73946 0.73672 0.0
C565 C 0.18599 0.64069 0.79135 0.0
O566 O 0.21572 0.72139 0.81139 0.0
O567 O 0.23889 0.69939 0.79293 0.0
C568 C 0.17905 0.74996 0.78999 0.0
O569 O 0.18344 0.65905 0.80559 0.0
O570 O 0.19463 0.6497 0.77088 0.0
C571 C 0.18218 0.67476 0.72407 0.0
Fe572 Fe 0.33105 0.49497 0.79536 0.0
Fe573 Fe 0.32032 0.524 0.75168 0.0
O574 O 0.32046 0.49212 0.76572 0.0
Fe575 Fe 0.30975 0.45748 0.7494 0.0
O576 O 0.34771 0.46156 0.75397 0.0
O577 O 0.35278 0.47288 0.79138 0.0
O578 O 0.36891 0.53116 0.79124 0.0
C579 C 0.37147 0.55607 0.7829 0.0
C580 C 0.28218 0.43329 0.79277 0.0
O581 O 0.35013 0.5549 0.77004 0.0
C582 C 0.26662 0.47166 0.73332 0.0
O583 O 0.31034 0.51705 0.80338 0.0
O584 O 0.28931 0.52028 0.77025 0.0
O585 O 0.29242 0.43003 0.77356 0.0
O586 O 0.29431 0.45973 0.80257 0.0
C587 C 0.34851 0.50634 0.71935 0.0
O588 O 0.28936 0.49953 0.73097 0.0
O589 O 0.27064 0.45128 0.74353 0.0
C590 C 0.28966 0.52026 0.79206 0.0
O591 O 0.35168 0.52847 0.7324 0.0
O592 O 0.32569 0.47859 0.72217 0.0
C593 C 0.36171 0.46523 0.7729 0.0
Fe594 Fe 0.51381 0.8638 0.0155 0.0
Fe595 Fe 0.47227 0.823 0.05525 0.0
O596 O 0.50267 0.8596 0.04497 0.0
Fe597 Fe 0.5218 0.89219 0.06381 0.0
O598 O 0.55974 0.90873 0.04897 0.0
O599 O 0.55386 0.87246 0.02378 0.0
O600 O 0.50297 0.8222 0.01139 0.0
C601 C 0.49998 0.80132 0.02575 0.0
C602 C 0.51675 0.92154 0.02554 0.0
O603 O 0.49386 0.80337 0.04668 0.0
C604 C 0.45804 0.86338 0.07784 0.0
O605 O 0.47407 0.8554 0.00697 0.0
O606 O 0.45 0.81238 0.02812 0.0
O607 O 0.50951 0.91482 0.04649 0.0
O608 O 0.52617 0.90605 0.01367 0.0
C609 C 0.51647 0.84561 0.09221 0.0
O610 O 0.44863 0.8401 0.06439 0.0
O611 O 0.48714 0.88127 0.08179 0.0
C612 C 0.44902 0.83067 0.01317 0.0
O613 O 0.4891 0.82762 0.0842 0.0
O614 O 0.53508 0.87149 0.08261 0.0
C615 C 0.57103 0.89442 0.03785 0.0
Fe616 Fe 0.19768 0.65769 0.05966 0.0
Fe617 Fe 0.12791 0.63778 0.06528 0.0
O618 O 0.16197 0.65195 0.04775 0.0
Fe619 Fe 0.16016 0.66004 0.01813 0.0
O620 O 0.20198 0.69163 0.01618 0.0
O621 O 0.21826 0.69938 0.05222 0.0
O622 O 0.19054 0.66827 0.08845 0.0
C623 C 0.1719 0.67712 0.09589 0.0
C624 C 0.19446 0.62956 0.01687 0.0
O625 O 0.1472 0.67096 0.08495 0.0
C626 C 0.10147 0.60451 0.02593 0.0
O627 O 0.1796 0.61643 0.06766 0.0
O628 O 0.13738 0.61329 0.08358 0.0
O629 O 0.17013 0.62981 0.00956 0.0
O630 O 0.21084 0.64755 0.03313 0.0
C631 C 0.12725 0.68536 0.03902 0.0
O632 O 0.10656 0.6036 0.04715 0.0
O633 O 0.11812 0.62953 0.01438 0.0
C634 C 0.15528 0.60201 0.08012 0.0
O635 O 0.11235 0.65967 0.04994 0.0
O636 O 0.15019 0.69056 0.02588 0.0
C637 C 0.22191 0.70869 0.03147 0.0
Fe638 Fe 0.39 0.5007 0.06699 0.0
Fe639 Fe 0.36446 0.51213 0.02118 0.0
O640 O 0.37881 0.52351 0.04982 0.0
Fe641 Fe 0.38255 0.55828 0.06163 0.0
O642 O 0.35358 0.53588 0.08363 0.0
O643 O 0.37797 0.51046 0.09448 0.0
O644 O 0.35078 0.46752 0.06554 0.0
C645 C 0.33488 0.45476 0.04765 0.0
C646 C 0.43672 0.55892 0.0787 0.0
O647 O 0.34264 0.46886 0.02808 0.0
C648 C 0.40752 0.57853 0.01889 0.0
O649 O 0.40371 0.48668 0.04261 0.0
O650 O 0.4001 0.51215 0.0127 0.0
O651 O 0.41545 0.56621 0.08075 0.0
O652 O 0.43036 0.53287 0.06997 0.0
C653 C 0.32751 0.53663 0.03381 0.0
O654 O 0.38449 0.5537 0.01008 0.0
O655 O 0.41162 0.58142 0.04043 0.0
C656 C 0.41317 0.49901 0.02288 0.0
O657 O 0.32768 0.51218 0.02713 0.0
O658 O 0.35106 0.5581 0.0444 0.0
C659 C 0.35773 0.51892 0.09803 0.0
Fe660 Fe 0.20113 0.53675 0.5616 0.0
Fe661 Fe 0.1297 0.49154 0.56568 0.0
O662 O 0.16454 0.51026 0.54885 0.0
Fe663 Fe 0.16247 0.50233 0.51888 0.0
O664 O 0.20337 0.5103 0.51614 0.0
O665 O 0.21879 0.51362 0.55204 0.0
O666 O 0.19202 0.51569 0.58926 0.0
C667 C 0.17118 0.48806 0.59511 0.0
C668 C 0.20007 0.56681 0.5207 0.0
O669 O 0.14562 0.47304 0.58417 0.0
C670 C 0.10647 0.50399 0.52706 0.0
O671 O 0.18644 0.56191 0.57182 0.0
O672 O 0.14161 0.52433 0.58591 0.0
O673 O 0.17502 0.54378 0.51248 0.0
O674 O 0.21582 0.56252 0.53618 0.0
C675 C 0.12603 0.44347 0.53785 0.0
O676 O 0.11153 0.50895 0.54842 0.0
O677 O 0.12137 0.49365 0.51543 0.0
C678 C 0.16229 0.55317 0.58423 0.0
O679 O 0.11188 0.45543 0.54838 0.0
O680 O 0.14994 0.46069 0.52527 0.0
C681 C 0.22251 0.51021 0.53084 0.0
Fe682 Fe 0.46717 0.63649 0.56153 0.0
Fe683 Fe 0.52846 0.63578 0.56846 0.0
O684 O 0.50318 0.6424 0.55033 0.0
Fe685 Fe 0.51314 0.65421 0.52106 0.0
O686 O 0.51081 0.68994 0.5253 0.0
O687 O 0.46465 0.66503 0.54239 0.0
O688 O 0.48738 0.66768 0.58235 0.0
C689 C 0.50589 0.66724 0.59737 0.0
C690 C 0.44749 0.60772 0.52005 0.0
O691 O 0.51845 0.65017 0.59479 0.0
C692 C 0.53078 0.60927 0.52557 0.0
O693 O 0.46212 0.60664 0.5826 0.0
O694 O 0.49871 0.59523 0.57403 0.0
O695 O 0.47113 0.63133 0.51057 0.0
O696 O 0.44579 0.60479 0.54166 0.0
C697 C 0.57194 0.68842 0.54571 0.0
O698 O 0.54271 0.6203 0.54523 0.0
O699 O 0.51549 0.61948 0.51464 0.0
C700 C 0.47228 0.58754 0.58264 0.0
O701 O 0.55988 0.67551 0.56462 0.0
O702 O 0.55667 0.67817 0.52678 0.0
C703 C 0.48537 0.68864 0.53133 0.0
Fe704 Fe 0.36505 0.85617 0.5265 0.0
Fe705 Fe 0.38705 0.82969 0.56575 0.0
O706 O 0.38099 0.85973 0.55468 0.0
Fe707 Fe 0.39163 0.8936 0.57174 0.0
O708 O 0.35174 0.88579 0.57151 0.0
O709 O 0.34338 0.87758 0.53407 0.0
O710 O 0.32911 0.81955 0.5337 0.0
C711 C 0.32923 0.7953 0.54095 0.0
C712 C 0.41242 0.91829 0.52725 0.0
O713 O 0.35391 0.79746 0.54986 0.0
C714 C 0.4407 0.88514 0.58228 0.0
O715 O 0.38403 0.83417 0.51448 0.0
O716 O 0.41466 0.83619 0.54304 0.0
O717 O 0.40322 0.92086 0.54717 0.0
O718 O 0.40006 0.89194 0.51719 0.0
C719 C 0.3639 0.84345 0.60377 0.0
O720 O 0.4212 0.8559 0.58357 0.0
O721 O 0.43254 0.90351 0.57358 0.0
C722 C 0.40794 0.83287 0.52188 0.0
O723 O 0.36016 0.82236 0.58948 0.0
O724 O 0.38172 0.87242 0.59932 0.0
C725 C 0.33553 0.88299 0.55392 0.0
Fe726 Fe 0.17552 0.49153 0.29804 0.0
Fe727 Fe 0.21642 0.53112 0.2576 0.0
O728 O 0.18654 0.49475 0.26862 0.0
Fe729 Fe 0.16789 0.46139 0.25049 0.0
O730 O 0.13008 0.44437 0.26554 0.0
O731 O 0.13502 0.48129 0.28969 0.0
O732 O 0.18516 0.53304 0.30092 0.0
C733 C 0.18764 0.55306 0.28588 0.0
C734 C 0.17472 0.43442 0.2894 0.0
O735 O 0.19407 0.55028 0.26517 0.0
C736 C 0.23152 0.49085 0.23611 0.0
O737 O 0.21556 0.50131 0.30674 0.0
O738 O 0.23879 0.54347 0.28472 0.0
O739 O 0.18138 0.4403 0.26831 0.0
O740 O 0.16456 0.44965 0.30086 0.0
C741 C 0.17206 0.50595 0.22079 0.0
O742 O 0.24076 0.51436 0.24932 0.0
O743 O 0.20242 0.47256 0.23246 0.0
C744 C 0.24028 0.52602 0.30016 0.0
O745 O 0.19937 0.5247 0.2286 0.0
O746 O 0.15363 0.4807 0.23119 0.0
C747 C 0.11812 0.45836 0.27627 0.0
Fe748 Fe 0.52988 0.6891 0.29639 0.0
Fe749 Fe 0.49336 0.68925 0.25351 0.0
O750 O 0.52888 0.69624 0.26651 0.0
Fe751 Fe 0.56376 0.71064 0.24991 0.0
O752 O 0.57938 0.69019 0.26704 0.0
O753 O 0.54014 0.65846 0.28971 0.0
O754 O 0.48811 0.65765 0.29832 0.0
C755 C 0.46851 0.63986 0.28316 0.0
C756 C 0.58795 0.74516 0.289 0.0
O757 O 0.47289 0.64801 0.26217 0.0
C758 C 0.53537 0.74398 0.23174 0.0
O759 O 0.51967 0.71945 0.30339 0.0
O760 O 0.47951 0.70096 0.27912 0.0
O761 O 0.58348 0.74571 0.26759 0.0
O762 O 0.57171 0.71991 0.30042 0.0
C763 C 0.52114 0.6683 0.21971 0.0
O764 O 0.511 0.72986 0.24412 0.0
O765 O 0.55425 0.73356 0.22982 0.0
C766 C 0.49562 0.71953 0.29527 0.0
O767 O 0.50173 0.67702 0.22562 0.0
O768 O 0.54603 0.6765 0.23107 0.0
C769 C 0.56395 0.66412 0.27744 0.0
Fe770 Fe 0.32785 0.84314 0.29694 0.0
Fe771 Fe 0.32244 0.79993 0.25684 0.0
O772 O 0.31848 0.83142 0.2677 0.0
Fe773 Fe 0.30468 0.85086 0.24953 0.0
O774 O 0.32794 0.88906 0.26365 0.0
O775 O 0.35902 0.88277 0.28794 0.0
O776 O 0.35866 0.83173 0.29912 0.0
C777 C 0.37472 0.8275 0.28369 0.0
C778 C 0.27294 0.84729 0.28908 0.0
O779 O 0.36439 0.82068 0.26326 0.0
C780 C 0.26658 0.78696 0.23697 0.0
O781 O 0.29684 0.80406 0.30665 0.0
O782 O 0.31286 0.77852 0.28431 0.0
O783 O 0.27125 0.84004 0.26805 0.0
O784 O 0.2983 0.85602 0.30034 0.0
C785 C 0.34221 0.84285 0.21918 0.0
O786 O 0.28071 0.7772 0.24984 0.0
O787 O 0.27882 0.81598 0.23239 0.0
C788 C 0.29548 0.77863 0.30041 0.0
O789 O 0.3323 0.81554 0.22739 0.0
O790 O 0.33721 0.8626 0.22949 0.0
C791 C 0.35385 0.90008 0.27438 0.0
H792 H 0.23871 0.04229 0.94964 0.0
H793 H 0.15631 0.05203 0.06538 0.0
H794 H 0.13851 0.99352 0.96327 0.0
H795 H 0.24999 0.12296 0.04399 0.0
H796 H 0.15624 0.01717 0.03514 0.0
H797 H 0.24838 0.05972 0.99029 0.0
C798 C 0.21887 0.03508 0.96126 0.0
C799 C 0.18781 0.01746 0.95311 0.0
C800 C 0.1771 0.04012 0.03745 0.0
C801 C 0.19854 0.03617 -0.00077 0.0
C802 C 0.17718 0.05998 0.05473 0.0
C803 C 0.20261 0.0909 0.05641 0.0
C804 C 0.20254 0.05144 0.02188 0.0
C805 C 0.22938 0.09967 0.04261 0.0
C806 C 0.22435 0.04477 0.98436 0.0
C807 C 0.16281 0.00806 0.96877 0.0
N808 N 0.22836 0.0803 0.02547 0.0
N809 N 0.16872 0.01775 0.99105 0.0
H810 H 0.96591 0.1902 0.94363 0.0
H811 H 0.95159 0.09603 0.05999 0.0
H812 H 0.02135 0.14663 0.96014 0.0
H813 H 0.87455 0.10533 0.03241 0.0
H814 H 0.98561 0.13042 0.0293 0.0
H815 H 0.93988 0.17344 0.98166 0.0
C816 C 0.97277 0.17743 0.95537 0.0
C817 C 0.99516 0.16908 0.94873 0.0
C818 C 0.96134 0.12522 0.03018 0.0
C819 C 0.96647 0.15078 0.9919 0.0
C820 C 0.94191 0.1056 0.04767 0.0
C821 C 0.90993 0.097 0.04829 0.0
C822 C 0.94871 0.13631 0.01327 0.0
C823 C 0.8989 0.11077 0.03223 0.0
C824 C 0.95804 0.16797 0.97694 0.0
C825 C 1.0036 0.15283 0.96446 0.0
N826 N 0.91817 0.12941 0.01508 0.0
N827 N 0.98916 0.14411 0.9853 0.0
H828 H 0.88946 0.90285 0.96101 0.0
H829 H 0.88479 0.78861 0.05422 0.0
H830 H 0.80652 0.81085 0.96809 0.0
H831 H 0.93275 0.88896 0.06664 0.0
H832 H 0.85353 0.79506 0.024 0.0
H833 H 0.90553 0.89797 0.00011 0.0
C834 C 0.87465 0.88165 0.97085 0.0
C835 C 0.8469 0.85701 0.96133 0.0
C836 C 0.8703 0.81553 0.03378 0.0
C837 C 0.86501 0.85132 0.00587 0.0
C838 C 0.88812 0.81187 0.05098 0.0
C839 C 0.91182 0.8384 0.06248 0.0
C840 C 0.8769 0.84597 0.02778 0.0
C841 C 0.91499 0.86796 0.05791 0.0
C842 C 0.88357 0.87905 -0.00677 0.0
C843 C 0.82821 0.83025 0.97487 0.0
N844 N 0.89833 0.87111 0.04039 0.0
N845 N 0.83791 0.82782 -0.00361 0.0
H846 H 0.12395 0.24662 0.43659 0.0
H847 H 0.992 0.13219 0.52037 0.0
H848 H 0.0551 0.15058 0.41906 0.0
H849 H 0.04659 0.23237 0.5328 0.0
H850 H 1.00819 0.14101 0.48006 0.0
H851 H 0.08931 0.24552 0.46731 0.0
C852 C 0.10116 0.22552 0.43886 0.0
C853 C 0.09288 0.19818 0.42595 0.0
C854 C 0.01644 0.16121 0.49142 0.0
C855 C 0.05345 0.19666 0.46118 0.0
C856 C 1.00752 0.15613 0.51451 0.0
C857 C 0.01892 0.18157 0.52994 0.0
C858 C 0.03761 0.1919 0.4838 0.0
C859 C 0.03793 0.21216 0.52141 0.0
C860 C 0.08137 0.22493 0.4564 0.0
C861 C 0.06278 0.17188 0.42907 0.0
N862 N 0.04734 0.21647 0.49891 0.0
N863 N 0.04446 0.17147 0.44684 0.0
H864 H 0.81011 0.80665 0.51704 0.0
H865 H 0.89323 0.93383 0.41697 0.0
H866 H 0.90208 0.88995 0.52335 0.0
H867 H 0.79233 0.88373 0.42776 0.0
H868 H 0.89875 0.90405 0.44881 0.0
H869 H 0.80568 0.82312 0.47779 0.0
C870 C 0.82938 0.82832 0.5101 0.0
C871 C 0.8563 0.84729 0.52345 0.0
C872 C 0.87539 0.89913 0.44378 0.0
C873 C 0.85176 0.86551 0.4787 0.0
C874 C 0.87216 0.91584 0.42552 0.0
C875 C 0.84232 0.91161 0.42016 0.0
C876 C 0.84856 0.87788 0.45636 0.0
C877 C 0.81579 0.88801 0.43173 0.0
C878 C 0.82688 0.83754 0.48777 0.0
C879 C 0.88071 0.875 0.51372 0.0
N880 N 0.81955 0.87224 0.44958 0.0
N881 N 0.87787 0.88331 0.49185 0.0
H882 H 0.09473 0.95013 0.422 0.0
H883 H 0.19616 0.96938 0.53538 0.0
H884 H 0.10955 0.87579 0.44787 0.0
H885 H 0.14597 0.01938 0.52228 0.0
H886 H 0.17826 0.94314 0.49755 0.0
H887 H 0.12882 0.98464 0.45264 0.0
C888 C 0.10544 0.94116 0.43393 0.0
C889 C 0.09853 0.90974 0.43284 0.0
C890 C 0.17156 0.96014 0.50297 0.0
C891 C 0.13753 0.94911 0.46775 0.0
C892 C 0.18167 0.975 0.52444 0.0
C893 C 0.1719 0.99596 0.53199 0.0
C894 C 0.15227 0.96701 0.48901 0.0
C895 C 0.15339 1.00279 0.51725 0.0
C896 C 0.12488 0.96087 0.45138 0.0
C897 C 0.11368 0.89964 0.44844 0.0
N898 N 0.1441 0.98828 0.49647 0.0
N899 N 0.13218 0.91918 0.46552 0.0
H900 H 0.76245 0.95066 0.04402 0.0
H901 H 0.81034 0.95191 0.91247 0.0
H902 H 0.85384 0.01013 0.01319 0.0
H903 H 0.74636 0.86521 0.94725 0.0
H904 H 0.80828 0.98148 0.9458 0.0
H905 H 0.74207 0.92643 0.00573 0.0
C906 C 0.77805 0.95866 0.02916 0.0
C907 C 0.80998 0.98173 0.03164 0.0
C908 C 0.7937 0.95601 0.94577 0.0
C909 C 0.7867 0.95571 0.98826 0.0
C910 C 0.79458 0.93919 0.92669 0.0
C911 C 0.77896 0.90623 0.92746 0.0
C912 C 0.77748 0.93961 0.96573 0.0
C913 C 0.7589 0.89071 0.9462 0.0
C914 C 0.76641 0.9451 0.00746 0.0
C915 C 0.82928 0.99181 0.01201 0.0
N916 N 0.75948 0.90758 0.96509 0.0
N917 N 0.81732 0.97874 0.99114 0.0
H918 H 0.99773 0.88383 0.02269 0.0
H919 H 0.1196 0.8904 0.93302 0.0
H920 H 0.0365 0.82191 0.02731 0.0
H921 H 0.05811 0.92811 0.91945 0.0
H922 H 0.0848 0.8589 0.96442 0.0
H923 H 0.01562 0.89564 0.98281 0.0
C924 C 1.01013 0.87277 0.01526 0.0
C925 C 0.0164 0.85249 0.02839 0.0
C926 C 0.0785 0.87348 0.95423 0.0
C927 C 0.0368 0.86576 0.98269 0.0
C928 C 0.09837 0.8915 0.93633 0.0
C929 C 0.09223 0.91266 0.92419 0.0
C930 C 0.05271 0.87711 0.96017 0.0
C931 C 0.06409 0.91263 0.92875 0.0
C932 C 0.01996 0.87918 -0.00761 0.0
C933 C 0.03168 0.83807 0.01778 0.0
N934 N 0.04572 0.89572 0.94682 0.0
N935 N 0.04194 0.84545 -0.00442 0.0
H936 H 0.20348 0.22938 0.02733 0.0
H937 H 0.10307 0.14804 0.91365 0.0
H938 H 0.14944 0.12903 0.01507 0.0
H939 H 0.12616 0.24093 0.93705 0.0
H940 H 0.13701 0.14638 0.94397 0.0
H941 H 0.19037 0.23834 0.98806 0.0
C942 C 0.18912 0.20932 0.0163 0.0
C943 C 0.17683 0.17844 0.02452 0.0
C944 C 0.13505 0.16734 0.94213 0.0
C945 C 0.16256 0.18844 0.97983 0.0
C946 C 0.11578 0.16834 0.92482 0.0
C947 C 0.11093 0.19418 0.92345 0.0
C948 C 0.14954 0.19237 0.95796 0.0
C949 C 0.12852 0.22013 0.93803 0.0
C950 C 0.18181 0.21442 -0.00604 0.0
C951 C 0.15869 0.1532 0.00956 0.0
N952 N 0.14665 0.21835 0.95502 0.0
N953 N 0.15195 0.15877 0.98795 0.0
H954 H 0.95338 0.80972 0.56786 0.0
H955 H 0.95235 0.76133 0.43647 0.0
H956 H 0.86629 0.74653 0.53305 0.0
H957 H 1.01174 0.85281 0.46705 0.0
H958 H 0.92764 0.74135 0.47471 0.0
H959 H 0.98279 0.8075 0.53446 0.0
C960 C 0.94054 0.79416 0.55359 0.0
C961 C 0.90754 0.77873 0.55285 0.0
C962 C 0.94639 0.76562 0.47293 0.0
C963 C 0.94072 0.77703 0.51454 0.0
C964 C 0.96021 0.77703 0.45127 0.0
C965 C 0.98342 0.80886 0.44875 0.0
C966 C 0.95689 0.78604 0.49204 0.0
C967 C 0.99333 0.82832 0.46828 0.0
C968 C 0.95726 0.79315 0.53449 0.0
C969 C 0.89182 0.75889 0.53406 0.0
N970 N 0.98003 0.81658 0.48912 0.0
N971 N 0.90862 0.75933 0.51516 0.0
H972 H 0.14959 0.10027 0.56858 0.0
H973 H 0.23151 0.20298 0.45614 0.0
H974 H 0.24504 0.1294 0.54747 0.0
H975 H 0.13094 0.14478 0.46663 0.0
H976 H 0.24013 0.19131 0.4959 0.0
H977 H 0.14698 0.13374 0.53833 0.0
C978 C 0.17025 0.11429 0.55797 0.0
C979 C 0.19715 0.11121 0.55985 0.0
C980 C 0.21621 0.1815 0.4895 0.0
C981 C 0.19425 0.14918 0.52542 0.0
C982 C 0.2113 0.18796 0.46687 0.0
C983 C 0.18053 0.17412 0.45802 0.0
C984 C 0.19012 0.16146 0.50328 0.0
C985 C 0.15509 0.15522 0.47263 0.0
C986 C 0.1687 0.13326 0.54069 0.0
C987 C 0.22348 0.13037 0.54602 0.0
N988 N 0.16047 0.14927 0.49452 0.0
N989 N 0.22117 0.14813 0.52901 0.0
H990 H 0.8237 0.03387 0.45366 0.0
H991 H 0.93271 0.05402 0.5625 0.0
H992 H 0.88978 0.99996 0.45765 0.0
H993 H 0.89302 0.11395 0.54975 0.0
H994 H 0.90218 0.02084 0.53 0.0
H995 H 0.83619 0.05175 0.49402 0.0
C996 C 0.84068 0.0301 0.46306 0.0
C997 C 0.8563 0.01614 0.45223 0.0
C998 C 0.89971 0.04093 0.53464 0.0
C999 C 0.86993 0.03556 0.49819 0.0
C1000 C 0.91695 0.05973 0.55328 0.0
C1001 C 0.91607 0.08726 0.55833 0.0
C1002 C 0.88153 0.04976 0.52114 0.0
C1003 C 0.89496 0.09333 0.54598 0.0
C1004 C 0.84765 0.04011 0.48603 0.0
C1005 C 0.87779 0.01136 0.46518 0.0
N1006 N 0.87892 0.07504 0.52763 0.0
N1007 N 0.88405 0.02116 0.48745 0.0
H1008 H 0.81993 0.38735 0.39921 0.0
H1009 H 0.90384 0.37492 0.28457 0.0
H1010 H 0.91471 0.45704 0.37904 0.0
H1011 H 0.80325 0.3265 0.29672 0.0
H1012 H 0.91235 0.39486 0.32454 0.0
H1013 H 0.81883 0.35337 0.36786 0.0
C1014 C 0.84078 0.3952 0.38856 0.0
C1015 C 0.867 0.42551 0.39113 0.0
C1016 C 0.88849 0.37955 0.31843 0.0
C1017 C 0.86577 0.38702 0.35528 0.0
C1018 C 0.88365 0.36837 0.29569 0.0
C1019 C 0.85283 0.34981 0.28726 0.0
C1020 C 0.86229 0.37157 0.33273 0.0
C1021 C 0.8274 0.34152 0.30236 0.0
C1022 C 0.84008 0.37587 0.37061 0.0
C1023 C 0.89361 0.4342 0.37714 0.0
N1024 N 0.8327 0.3526 0.32432 0.0
N1025 N 0.89209 0.4153 0.35945 0.0
H1026 H 0.64337 0.52897 0.28428 0.0
H1027 H 0.63158 0.43507 0.40019 0.0
H1028 H 0.69273 0.47812 0.29727 0.0
H1029 H 0.55857 0.45408 0.3776 0.0
H1030 H 0.66506 0.46778 0.36856 0.0
H1031 H 0.62198 0.51649 0.32388 0.0
C1032 C 0.64985 0.51545 0.29553 0.0
C1033 C 0.66914 0.50387 0.28745 0.0
C1034 C 0.6419 0.46522 0.37083 0.0
C1035 C 0.64576 0.49042 0.33249 0.0
C1036 C 0.62284 0.44667 0.38892 0.0
C1037 C 0.59185 0.44098 0.391 0.0
C1038 C 0.62988 0.47816 0.35487 0.0
C1039 C 0.58202 0.45714 0.37618 0.0
C1040 C 0.63782 0.50847 0.31804 0.0
C1041 C 0.67725 0.48678 0.30267 0.0
N1042 N 0.60077 0.47456 0.35841 0.0
N1043 N 0.66541 0.48047 0.32443 0.0
H1044 H 0.56545 0.10435 0.37791 0.0
H1045 H 0.54013 0.21758 0.29742 0.0
H1046 H 0.58606 0.19736 0.39892 0.0
H1047 H 0.49341 0.11741 0.2846 0.0
H1048 H 0.55238 0.20881 0.33648 0.0
H1049 H 0.533 0.10574 0.34642 0.0
C1050 C 0.56263 0.12482 0.37619 0.0
C1051 C 0.5793 0.15123 0.39057 0.0
C1052 C 0.53915 0.18862 0.32531 0.0
C1053 C 0.54252 0.15304 0.3545 0.0
C1054 C 0.53248 0.19366 0.3029 0.0
C1055 C 0.51641 0.1682 0.28768 0.0
C1056 C 0.53033 0.15794 0.33245 0.0
C1057 C 0.50624 0.13765 0.2958 0.0
C1058 C 0.54404 0.12555 0.35822 0.0
C1059 C 0.57421 0.17677 0.38791 0.0
N1060 N 0.51393 0.13337 0.31759 0.0
N1061 N 0.55683 0.17734 0.36983 0.0
H1062 H 0.78424 0.56279 0.76712 0.0
H1063 H 0.66824 0.4484 0.85948 0.0
H1064 H 0.73105 0.46234 0.75515 0.0
H1065 H 0.68034 0.54137 0.85119 0.0
H1066 H 0.6927 0.45354 0.82165 0.0
H1067 H 0.74713 0.55663 0.79784 0.0
C1068 C 0.76439 0.53954 0.77068 0.0
C1069 C 0.7609 0.51296 0.75888 0.0
C1070 C 0.68962 0.47264 0.82799 0.0
C1071 C 0.71901 0.50576 0.79409 0.0
C1072 C 0.67601 0.46986 0.84963 0.0
C1073 C 0.67263 0.49465 0.85844 0.0
C1074 C 0.70058 0.50068 0.81539 0.0
C1075 C 0.68265 0.52179 0.84493 0.0
C1076 C 0.74324 0.53608 0.78813 0.0
C1077 C 0.73469 0.48341 0.76396 0.0
N1078 N 0.69673 0.52434 0.82415 0.0
N1079 N 0.71509 0.48048 0.7816 0.0
H1080 H 0.42536 0.24922 0.78717 0.0
H1081 H 0.46533 0.13359 0.85649 0.0
H1082 H 0.47954 0.21113 0.75665 0.0
H1083 H 0.4823 0.22305 0.88306 0.0
H1084 H 0.4457 0.14391 0.82026 0.0
H1085 H 0.41997 0.21943 0.82266 0.0
C1086 C 0.43461 0.23323 0.78754 0.0
C1087 C 0.45281 0.23233 0.76917 0.0
C1088 C 0.45301 0.16078 0.83432 0.0
C1089 C 0.44689 0.19875 0.80927 0.0
C1090 C 0.46422 0.15504 0.85485 0.0
C1091 C 0.47578 0.17781 0.87246 0.0
C1092 C 0.45253 0.18897 0.83187 0.0
C1093 C 0.47398 0.20523 0.86964 0.0
C1094 C 0.43181 0.21659 0.80779 0.0
C1095 C 0.4652 0.21211 0.77056 0.0
N1096 N 0.46262 0.21013 0.8496 0.0
N1097 N 0.46233 0.19626 0.7905 0.0
H1098 H 0.81049 0.26779 0.882 0.0
H1099 H 0.82398 0.28092 0.75619 0.0
H1100 H 0.90078 0.33999 0.85628 0.0
H1101 H 0.78963 0.18828 0.78512 0.0
H1102 H 0.85586 0.30403 0.79102 0.0
H1103 H 0.80299 0.23742 0.8465 0.0
C1104 C 0.8289 0.27687 0.86897 0.0
C1105 C 0.85605 0.30632 0.87168 0.0
C1106 C 0.84236 0.27859 0.78931 0.0
C1107 C 0.84754 0.27241 0.83127 0.0
C1108 C 0.82423 0.26548 0.7695 0.0
C1109 C 0.80409 0.23282 0.76806 0.0
C1110 C 0.83909 0.25886 0.80795 0.0
C1111 C 0.80491 0.21363 0.78572 0.0
C1112 C 0.82483 0.2595 0.84892 0.0
C1113 C 0.87946 0.31729 0.85454 0.0
N1114 N 0.82123 0.22702 0.80544 0.0
N1115 N 0.87426 0.30071 0.8346 0.0
H1116 H 0.55694 0.35644 0.35522 0.0
H1117 H 0.44412 0.22573 0.26932 0.0
H1118 H 0.45594 0.30384 0.36523 0.0
H1119 H 0.54096 0.29417 0.25326 0.0
H1120 H 0.44507 0.25948 0.30066 0.0
H1121 H 0.54964 0.33903 0.31525 0.0
C1122 C 0.53314 0.34103 0.34898 0.0
C1123 C 0.507 0.3307 0.36369 0.0
C1124 C 0.46588 0.26751 0.28996 0.0
C1125 C 0.49845 0.31078 0.3178 0.0
C1126 C 0.46538 0.24824 0.27208 0.0
C1127 C 0.4929 0.25671 0.2593 0.0
C1128 C 0.49424 0.2951 0.29521 0.0
C1129 C 0.51948 0.28641 0.2631 0.0
C1130 C 0.52896 0.33145 0.32604 0.0
C1131 C 0.4767 0.31174 0.35452 0.0
N1132 N 0.51975 0.30423 0.28116 0.0
N1133 N 0.47325 0.30182 0.33218 0.0
H1134 H 0.71806 0.15203 0.36751 0.0
H1135 H 0.72613 0.24497 0.25202 0.0
H1136 H 0.66629 0.20053 0.35479 0.0
H1137 H 0.79834 0.22358 0.27225 0.0
H1138 H 0.69311 0.21204 0.28374 0.0
H1139 H 0.73788 0.16359 0.32748 0.0
C1140 C 0.71075 0.16488 0.35625 0.0
C1141 C 0.69129 0.17612 0.36453 0.0
C1142 C 0.71597 0.21412 0.28094 0.0
C1143 C 0.7129 0.18854 0.31901 0.0
C1144 C 0.73476 0.23279 0.26278 0.0
C1145 C 0.76545 0.2379 0.26007 0.0
C1146 C 0.72804 0.20059 0.29636 0.0
C1147 C 0.77516 0.22102 0.27423 0.0
C1148 C 0.72187 0.17131 0.33348 0.0
C1149 C 0.68202 0.19224 0.34926 0.0
N1150 N 0.75675 0.20359 0.29212 0.0
N1151 N 0.69305 0.1981 0.32729 0.0
H1152 H 0.87107 0.56457 0.36427 0.0
H1153 H 0.77191 0.47892 0.25105 0.0
H1154 H 0.81795 0.46392 0.35322 0.0
H1155 H 0.79809 0.57405 0.27056 0.0
H1156 H 0.80564 0.47824 0.28195 0.0
H1157 H 0.85928 0.57239 0.32424 0.0
C1158 C 0.85717 0.54422 0.35336 0.0
C1159 C 0.84469 0.51359 0.36212 0.0
C1160 C 0.80444 0.49947 0.27913 0.0
C1161 C 0.83196 0.52226 0.3166 0.0
C1162 C 0.78531 0.49992 0.26146 0.0
C1163 C 0.78132 0.52615 0.25888 0.0
C1164 C 0.81954 0.52541 0.29417 0.0
C1165 C 0.79975 0.55295 0.27252 0.0
C1166 C 0.85062 0.54866 0.33059 0.0
C1167 C 0.82724 0.48794 0.3473 0.0
N1168 N 0.81761 0.55169 0.28995 0.0
N1169 N 0.82123 0.49286 0.32531 0.0
H1170 H 0.61629 0.22409 0.891 0.0
H1171 H 0.67099 0.14111 0.79802 0.0
H1172 H 0.56148 0.12422 0.8767 0.0
H1173 H 0.68881 0.23638 0.79115 0.0
H1174 H 0.64069 0.13518 0.83346 0.0
H1175 H 0.65387 0.22917 0.86114 0.0
C1176 C 0.61236 0.20315 0.88181 0.0
C1177 C 0.58542 0.17375 0.88604 0.0
C1178 C 0.65151 0.1574 0.82422 0.0
C1179 C 0.6284 0.1795 0.85209 0.0
C1180 C 0.66878 0.16083 0.80414 0.0
C1181 C 0.6821 0.18918 0.79168 0.0
C1182 C 0.64828 0.18275 0.83201 0.0
C1183 C 0.67856 0.21402 0.80017 0.0
C1184 C 0.63375 0.20613 0.86475 0.0
C1185 C 0.58169 0.1474 0.87371 0.0
N1186 N 0.66201 0.21026 0.81989 0.0
N1187 N 0.60291 0.15091 0.85714 0.0
H1188 H 0.82694 0.42611 0.89279 0.0
H1189 H 0.90844 0.51969 0.77647 0.0
H1190 H 0.91292 0.43443 0.86524 0.0
H1191 H 0.81105 0.48376 0.79547 0.0
H1192 H 0.91747 0.50223 0.81431 0.0
H1193 H 0.82865 0.46184 0.86278 0.0
C1194 C 0.84633 0.43564 0.88055 0.0
C1195 C 0.86932 0.42656 0.88108 0.0
C1196 C 0.89431 0.49869 0.81024 0.0
C1197 C 0.87137 0.46741 0.84674 0.0
C1198 C 0.88923 0.50864 0.78879 0.0
C1199 C 0.85888 0.50244 0.78292 0.0
C1200 C 0.86892 0.48311 0.82575 0.0
C1201 C 0.83464 0.48828 0.7993 0.0
C1202 C 0.84733 0.45609 0.86347 0.0
C1203 C 0.89434 0.44031 0.86515 0.0
N1204 N 0.84014 0.47892 0.81992 0.0
N1205 N 0.89445 0.45972 0.84833 0.0
H1206 H 0.46656 0.32211 0.80863 0.0
H1207 H 0.57222 0.49029 0.86649 0.0
H1208 H 0.5481 0.39996 0.77667 0.0
H1209 H 0.53319 0.40339 0.90492 0.0
H1210 H 0.5434 0.46046 0.83214 0.0
H1211 H 0.47392 0.35532 0.84244 0.0
C1212 C 0.48591 0.34627 0.80871 0.0
C1213 C 0.50723 0.35829 0.79015 0.0
C1214 C 0.54012 0.44815 0.84839 0.0
C1215 C 0.51483 0.39634 0.82812 0.0
C1216 C 0.55608 0.46514 0.86803 0.0
C1217 C 0.55508 0.44902 0.88831 0.0
C1218 C 0.52294 0.41513 0.84941 0.0
C1219 C 0.53446 0.41644 0.88944 0.0
C1220 C 0.48985 0.36514 0.82785 0.0
C1221 C 0.53166 0.38972 0.79092 0.0
N1222 N 0.51955 0.40033 0.87002 0.0
N1223 N 0.53487 0.40774 0.80971 0.0
H1224 H 0.46582 0.73712 0.72144 0.0
H1225 H 0.55405 0.68792 0.6287 0.0
H1226 H 0.56751 0.78563 0.71578 0.0
H1227 H 0.463 0.67972 0.61737 0.0
H1228 H 0.55698 0.71225 0.66652 0.0
H1229 H 0.4622 0.70265 0.68956 0.0
C1230 C 0.48739 0.7401 0.71383 0.0
C1231 C 0.51701 0.76463 0.72091 0.0
C1232 C 0.53637 0.70492 0.65571 0.0
C1233 C 0.51295 0.72544 0.68463 0.0
C1234 C 0.53471 0.69119 0.63422 0.0
C1235 C 0.50846 0.68228 0.61987 0.0
C1236 C 0.51126 0.70898 0.66295 0.0
C1237 C 0.4839 0.68677 0.62777 0.0
C1238 C 0.48528 0.72058 0.69558 0.0
C1239 C 0.5442 0.76733 0.71052 0.0
N1240 N 0.48586 0.69976 0.64885 0.0
N1241 N 0.54153 0.74811 0.69269 0.0
H1242 H 0.30036 0.75313 0.73529 0.0
H1243 H 0.3445 0.87499 0.63173 0.0
H1244 H 0.24437 0.79609 0.71848 0.0
H1245 H 0.35473 0.79252 0.62885 0.0
H1246 H 0.32251 0.85977 0.67089 0.0
H1247 H 0.33689 0.78333 0.70412 0.0
C1248 C 0.29626 0.7696 0.72551 0.0
C1249 C 0.26893 0.7716 0.72895 0.0
C1250 C 0.32996 0.84533 0.6617 0.0
C1251 C 0.31044 0.80596 0.69368 0.0
C1252 C 0.3423 0.85382 0.63946 0.0
C1253 C 0.35086 0.83461 0.62712 0.0
C1254 C 0.327 0.81792 0.67166 0.0
C1255 C 0.3478 0.80756 0.63775 0.0
C1256 C 0.31698 0.78661 0.7077 0.0
C1257 C 0.26486 0.79345 0.71595 0.0
N1258 N 0.33608 0.79997 0.65953 0.0
N1259 N 0.28523 0.80957 0.69857 0.0
H1260 H 0.23619 0.42082 0.70445 0.0
H1261 H 0.17435 0.51735 0.63498 0.0
H1262 H 0.23399 0.50229 0.73015 0.0
H1263 H 0.17195 0.43444 0.60745 0.0
H1264 H 0.18372 0.5036 0.67347 0.0
H1265 H 0.20027 0.41625 0.67308 0.0
C1266 C 0.22714 0.43697 0.70394 0.0
C1267 C 0.23827 0.4623 0.71947 0.0
C1268 C 0.18083 0.48807 0.65917 0.0
C1269 C 0.19802 0.45764 0.6838 0.0
C1270 C 0.17565 0.49606 0.63723 0.0
C1271 C 0.1732 0.4773 0.61824 0.0
C1272 C 0.18455 0.46163 0.66201 0.0
C1273 C 0.17428 0.44962 0.62184 0.0
C1274 C 0.20688 0.43453 0.68599 0.0
C1275 C 0.22621 0.48276 0.71817 0.0
N1276 N 0.18063 0.44291 0.64335 0.0
N1277 N 0.20711 0.48029 0.70039 0.0
H1278 H 0.32676 0.80005 0.18486 0.0
H1279 H 0.46875 0.9126 0.10589 0.0
H1280 H 0.38403 0.89957 0.19924 0.0
H1281 H 0.39534 0.82026 0.08424 0.0
H1282 H 0.43488 0.91137 0.1373 0.0
H1283 H 0.34842 0.80908 0.14597 0.0
C1284 C 0.34399 0.82388 0.17977 0.0
C1285 C 0.35427 0.84905 0.19537 0.0
C1286 C 0.42592 0.89166 0.12541 0.0
C1287 C 0.37918 0.85958 0.15081 0.0
C1288 C 0.44526 0.89229 0.10749 0.0
C1289 C 0.4352 0.86602 0.09292 0.0
C1290 C 0.39655 0.86441 0.12889 0.0
C1291 C 0.40432 0.84071 0.0954 0.0
C1292 C 0.35609 0.82908 0.15746 0.0
C1293 C 0.3759 0.87953 0.18773 0.0
N1294 N 0.38632 0.84023 0.11343 0.0
N1295 N 0.38817 0.88391 0.16603 0.0
H1296 H 0.10486 0.56399 0.10751 0.0
H1297 H 0.21328 0.52726 0.1853 0.0
H1298 H 0.19635 0.5799 0.08622 0.0
H1299 H 0.1155 0.49361 0.20184 0.0
H1300 H 0.20412 0.5389 0.14618 0.0
H1301 H 0.10406 0.52982 0.13844 0.0
C1302 C 0.12454 0.55983 0.10907 0.0
C1303 C 0.15125 0.5757 0.09481 0.0
C1304 C 0.18448 0.52867 0.15817 0.0
C1305 C 0.1505 0.53683 0.13021 0.0
C1306 C 0.18979 0.52234 0.18059 0.0
C1307 C 0.16526 0.51036 0.19685 0.0
C1308 C 0.15457 0.52371 0.15209 0.0
C1309 C 0.13508 0.50339 0.18977 0.0
C1310 C 0.12401 0.54024 0.12672 0.0
C1311 C 0.17564 0.5688 0.0972 0.0
N1312 N 0.13068 0.51083 0.16794 0.0
N1313 N 0.17499 0.55039 0.11495 0.0
H1314 H 0.462 0.53656 0.11047 0.0
H1315 H 0.50496 0.68667 0.18073 0.0
H1316 H 0.47434 0.62203 0.07956 0.0
H1317 H 0.53188 0.62072 0.2061 0.0
H1318 H 0.49826 0.66424 0.14224 0.0
H1319 H 0.49424 0.5674 0.14347 0.0
C1320 C 0.47282 0.56201 0.11014 0.0
C1321 C 0.46527 0.57692 0.09262 0.0
C1322 C 0.50599 0.65475 0.15606 0.0
C1323 C 0.50104 0.61189 0.13025 0.0
C1324 C 0.50938 0.66731 0.17809 0.0
C1325 C 0.51826 0.65496 0.19653 0.0
C1326 C 0.51064 0.62901 0.15251 0.0
C1327 C 0.52455 0.63047 0.19221 0.0
C1328 C 0.49095 0.57956 0.12904 0.0
C1329 C 0.4794 0.60977 0.09299 0.0
N1330 N 0.51992 0.6177 0.17062 0.0
N1331 N 0.49605 0.62612 0.1118 0.0
H1332 H 0.12502 0.63607 0.70345 0.0
H1333 H 0.20674 0.61533 0.59033 0.0
H1334 H 0.22564 0.68169 0.69212 0.0
H1335 H 0.115 0.54321 0.61441 0.0
H1336 H 0.20854 0.64953 0.62171 0.0
H1337 H 0.11653 0.61068 0.66527 0.0
C1338 C 0.14521 0.6409 0.69283 0.0
C1339 C 0.17604 0.66042 0.70097 0.0
C1340 C 0.18786 0.62634 0.61989 0.0
C1341 C 0.16659 0.63243 0.65756 0.0
C1342 C 0.18676 0.60682 0.60199 0.0
C1343 C 0.16107 0.57603 0.60017 0.0
C1344 C 0.16304 0.61505 0.63595 0.0
C1345 C 0.13558 0.56655 0.6155 0.0
C1346 C 0.14038 0.62653 0.67116 0.0
C1347 C 0.2015 0.66623 0.68663 0.0
N1348 N 0.13739 0.58587 0.63301 0.0
N1349 N 0.1962 0.65224 0.66562 0.0
H1350 H 0.40886 0.55516 0.71368 0.0
H1351 H 0.4127 0.53808 0.58262 0.0
H1352 H 0.33614 0.4712 0.68023 0.0
H1353 H 0.49945 0.58195 0.62158 0.0
H1354 H 0.38419 0.50996 0.6175 0.0
H1355 H 0.44298 0.56495 0.67995 0.0
C1356 C 0.40014 0.53885 0.69924 0.0
C1357 C 0.36955 0.51271 0.69947 0.0
C1358 C 0.40964 0.5248 0.61825 0.0
C1359 C 0.40823 0.52348 0.66123 0.0
C1360 C 0.42585 0.54056 0.59834 0.0
C1361 C 0.45825 0.56205 0.59945 0.0
C1362 C 0.42596 0.53177 0.63937 0.0
C1363 C 0.4744 0.56523 0.62018 0.0
C1364 C 0.41971 0.54413 0.68022 0.0
C1365 C 0.35951 0.49185 0.68059 0.0
N1366 N 0.45788 0.55099 0.63965 0.0
N1367 N 0.37862 0.49799 0.66201 0.0
H1368 H 0.56095 0.8803 0.6881 0.0
H1369 H 0.45561 0.93023 0.61482 0.0
H1370 H 0.47457 0.87315 0.7132 0.0
H1371 H 0.48417 0.86649 0.58734 0.0
H1372 H 0.48506 0.93503 0.65036 0.0
H1373 H 0.55296 0.8995 0.65074 0.0
C1374 C 0.54074 0.8835 0.68587 0.0
C1375 C 0.51807 0.87484 0.70342 0.0
C1376 C 0.48593 0.92112 0.6361 0.0
C1377 C 0.50967 0.89766 0.66159 0.0
C1378 C 0.46948 0.91861 0.61578 0.0
C1379 C 0.46746 0.89779 0.59833 0.0
C1380 C 0.50085 0.90323 0.63856 0.0
C1381 C 0.48522 0.88269 0.60055 0.0
C1382 C 0.53631 0.89446 0.66471 0.0
C1383 C 0.49226 0.87924 0.69986 0.0
N1384 N 0.50093 0.88535 0.62055 0.0
N1385 N 0.48869 0.89035 0.67925 0.0
H1386 H 0.2184 0.44562 0.20378 0.0
H1387 H 0.38352 0.52439 0.14069 0.0
H1388 H 0.29586 0.53083 0.23253 0.0
H1389 H 0.29579 0.49758 0.10562 0.0
H1390 H 0.3556 0.51303 0.17811 0.0
H1391 H 0.25211 0.44905 0.17165 0.0
C1392 C 0.24269 0.46472 0.20364 0.0
C1393 C 0.25406 0.48864 0.22045 0.0
C1394 C 0.34265 0.50949 0.16214 0.0
C1395 C 0.29255 0.49214 0.18395 0.0
C1396 C 0.35836 0.51588 0.14096 0.0
C1397 C 0.34169 0.51201 0.12033 0.0
C1398 C 0.31011 0.49819 0.16231 0.0
C1399 C 0.30931 0.50107 0.12129 0.0
C1400 C 0.26178 0.46657 0.18529 0.0
C1401 C 0.28598 0.51233 0.21962 0.0
N1402 N 0.29442 0.49426 0.14202 0.0
N1403 N 0.30416 0.51381 0.20133 0.0
H1404 H 0.49636 0.76877 0.22773 0.0
H1405 H 0.57415 0.85845 0.1093 0.0
H1406 H 0.58178 0.77638 0.19962 0.0
H1407 H 0.47573 0.81732 0.12748 0.0
H1408 H 0.58405 0.84243 0.14741 0.0
H1409 H 0.49642 0.8022 0.19644 0.0
C1410 C 0.51539 0.77782 0.21519 0.0
C1411 C 0.53857 0.76899 0.21587 0.0
C1412 C 0.56042 0.83732 0.14303 0.0
C1413 C 0.5387 0.80717 0.18011 0.0
C1414 C 0.5548 0.84637 0.1214 0.0
C1415 C 0.52401 0.83852 0.11522 0.0
C1416 C 0.53515 0.82105 0.15851 0.0
C1417 C 0.4997 0.82313 0.13144 0.0
C1418 C 0.51538 0.79687 0.19734 0.0
C1419 C 0.56304 0.78204 0.19944 0.0
N1420 N 0.50577 0.81482 0.1523 0.0
N1421 N 0.5622 0.80011 0.18196 0.0
H1422 H 0.24261 0.72318 0.23267 0.0
H1423 H 0.1556 0.71844 0.11491 0.0
H1424 H 0.22889 0.79916 0.20916 0.0
H1425 H 0.1961 0.66025 0.13141 0.0
H1426 H 0.16659 0.739 0.15479 0.0
H1427 H 0.20784 0.68997 0.20174 0.0
C1428 C 0.23177 0.73267 0.22134 0.0
C1429 C 0.23961 0.76433 0.22286 0.0
C1430 C 0.1726 0.72139 0.14966 0.0
C1431 C 0.20019 0.72667 0.18749 0.0
C1432 C 0.16649 0.70984 0.127 0.0
C1433 C 0.17588 0.68846 0.11984 0.0
C1434 C 0.18761 0.71091 0.16512 0.0
C1435 C 0.18942 0.67752 0.1361 0.0
C1436 C 0.212 0.71375 0.20366 0.0
C1437 C 0.22427 0.77515 0.20807 0.0
N1438 N 0.19508 0.68904 0.15792 0.0
N1439 N 0.2058 0.75655 0.19062 0.0
H1440 H 0.29157 0.15549 0.10164 0.0
H1441 H 0.40073 0.19445 0.21361 0.0
H1442 H 0.2797 0.19872 0.16311 0.0
H1443 H 0.41248 0.15302 0.15111 0.0
H1444 H 0.35634 0.196 0.19578 0.0
H1445 H 0.33558 0.15423 0.11989 0.0
C1446 C 0.29824 0.16483 0.11901 0.0
C1447 C 0.2819 0.17741 0.13081 0.0
C1448 C 0.3686 0.18655 0.18597 0.0
C1449 C 0.33259 0.17586 0.15193 0.0
C1450 C 0.39397 0.1856 0.19613 0.0
C1451 C 0.41036 0.17345 0.18386 0.0
C1452 C 0.35947 0.17529 0.16334 0.0
C1453 C 0.40055 0.16251 0.16125 0.0
C1454 C 0.32346 0.16405 0.12944 0.0
C1455 C 0.29165 0.18892 0.15334 0.0
N1456 N 0.37574 0.16367 0.15175 0.0
N1457 N 0.31641 0.18788 0.16317 0.0
H1458 H 0.86665 0.26268 0.14906 0.0
H1459 H 0.8277 0.08446 0.16749 0.0
H1460 H 0.83156 0.21091 0.21296 0.0
H1461 H 0.86014 0.13442 0.10268 0.0
H1462 H 0.83074 0.13143 0.18475 0.0
H1463 H 0.86593 0.21659 0.1319 0.0
C1464 C 0.85886 0.2417 0.15949 0.0
C1465 C 0.84921 0.24074 0.1825 0.0
C1466 C 0.83723 0.13214 0.16675 0.0
C1467 C 0.8483 0.18794 0.163 0.0
C1468 C 0.83552 0.1053 0.1569 0.0
C1469 C 0.84348 0.10538 0.13356 0.0
C1470 C 0.84702 0.15931 0.15321 0.0
C1471 C 0.85358 0.13317 0.1207 0.0
C1472 C 0.85845 0.21539 0.14969 0.0
C1473 C 0.83928 0.21285 0.19517 0.0
N1474 N 0.85498 0.15897 0.13068 0.0
N1475 N 0.83908 0.18764 0.18526 0.0
H1476 H 0.8778 0.7369 0.10491 0.0
H1477 H 0.81172 0.61761 0.21195 0.0
H1478 H 0.93457 0.74256 0.16392 0.0
H1479 H 0.75614 0.60932 0.15152 0.0
H1480 H 0.85669 0.66357 0.19477 0.0
H1481 H 0.83291 0.69073 0.12196 0.0
C1482 C 0.88088 0.72846 0.12148 0.0
C1483 C 0.91015 0.74365 0.13296 0.0
C1484 C 0.8347 0.65173 0.18524 0.0
C1485 C 0.85855 0.69058 0.15262 0.0
C1486 C 0.80892 0.62544 0.19504 0.0
C1487 C 0.77996 0.60958 0.18321 0.0
C1488 C 0.83164 0.66242 0.1634 0.0
C1489 C 0.77794 0.62079 0.1613 0.0
C1490 C 0.85516 0.70202 0.13119 0.0
C1491 C 0.91254 0.73161 0.15442 0.0
N1492 N 0.80341 0.64656 0.15213 0.0
N1493 N 0.88709 0.70578 0.16354 0.0
H1494 H 0.1962 0.39787 0.26967 0.0
H1495 H 0.15812 0.288 0.38095 0.0
H1496 H 0.15676 0.40995 0.33312 0.0
H1497 H 0.20169 0.27697 0.31932 0.0
H1498 H 0.1571 0.33226 0.36315 0.0
H1499 H 0.19811 0.35347 0.28706 0.0
C1500 C 0.18788 0.39118 0.28727 0.0
C1501 C 0.17614 0.40763 0.29993 0.0
C1502 C 0.16696 0.32029 0.35347 0.0
C1503 C 0.17837 0.35676 0.31993 0.0
C1504 C 0.16759 0.2949 0.36363 0.0
C1505 C 0.18018 0.27871 0.35166 0.0
C1506 C 0.17891 0.32975 0.33105 0.0
C1507 C 0.19186 0.28879 0.32922 0.0
C1508 C 0.18904 0.36582 0.29717 0.0
C1509 C 0.16591 0.39796 0.32268 0.0
N1510 N 0.19095 0.31371 0.31962 0.0
N1511 N 0.16722 0.37314 0.33191 0.0
H1512 H 0.74766 0.93108 0.31624 0.0
H1513 H 0.61103 0.75108 0.33322 0.0
H1514 H 0.73798 0.87632 0.3774 0.0
H1515 H 0.62588 0.80326 0.26979 0.0
H1516 H 0.65612 0.79746 0.35035 0.0
H1517 H 0.70184 0.88508 0.29944 0.0
C1518 C 0.73592 0.90943 0.32615 0.0
C1519 C 0.74671 0.90765 0.34829 0.0
C1520 C 0.6495 0.79874 0.33268 0.0
C1521 C 0.69417 0.85486 0.32917 0.0
C1522 C 0.6237 0.77226 0.3229 0.0
C1523 C 0.6147 0.77316 0.29998 0.0
C1524 C 0.66635 0.82639 0.31949 0.0
C1525 C 0.63202 0.80135 0.28747 0.0
C1526 C 0.70975 0.88315 0.31654 0.0
C1527 C 0.73054 0.87888 0.36029 0.0
N1528 N 0.65698 0.82678 0.29738 0.0
N1529 N 0.70511 0.85369 0.3506 0.0
H1530 H 0.21682 0.83162 0.26851 0.0
H1531 H 0.13862 0.85906 0.38113 0.0
H1532 H 0.26605 0.86328 0.33371 0.0
H1533 H 0.09136 0.8275 0.31524 0.0
H1534 H 0.18586 0.86208 0.36424 0.0
H1535 H 0.17129 0.8312 0.28554 0.0
C1536 C 0.21816 0.83859 0.28645 0.0
C1537 C 0.24548 0.84756 0.29968 0.0
C1538 C 0.16518 0.85454 0.35348 0.0
C1539 C 0.19289 0.84701 0.31941 0.0
C1540 C 0.13815 0.8528 0.36309 0.0
C1541 C 0.11083 0.84282 0.34961 0.0
C1542 C 0.16496 0.84628 0.3302 0.0
C1543 C 0.11175 0.83519 0.32633 0.0
C1544 C 0.19201 0.83832 0.29618 0.0
C1545 C 0.24555 0.85624 0.32286 0.0
N1546 N 0.13832 0.83701 0.31741 0.0
N1547 N 0.21961 0.85571 0.33201 0.0
H1548 H 0.58747 0.78715 0.79248 0.0
H1549 H 0.76252 0.87357 0.83453 0.0
H1550 H 0.62862 0.88092 0.82091 0.0
H1551 H 0.70047 0.78072 0.86208 0.0
H1552 H 0.71644 0.87508 0.81955 0.0
H1553 H 0.63136 0.7824 0.80905 0.0
C1554 C 0.60569 0.80663 0.80228 0.0
C1555 C 0.60451 0.83443 0.80546 0.0
C1556 C 0.71303 0.85432 0.82872 0.0
C1557 C 0.65477 0.82949 0.82363 0.0
C1558 C 0.73922 0.85325 0.83706 0.0
C1559 C 0.73525 0.82686 0.84943 0.0
C1560 C 0.68271 0.82848 0.83218 0.0
C1561 C 0.70447 0.80144 0.85258 0.0
C1562 C 0.63052 0.80386 0.81173 0.0
C1563 C 0.62861 0.85904 0.81826 0.0
N1564 N 0.67927 0.8027 0.84377 0.0
N1565 N 0.6531 0.85621 0.82656 0.0
H1566 H 0.14637 0.87664 0.87393 0.0
H1567 H 0.20313 0.80847 0.77033 0.0
H1568 H 0.19902 0.93259 0.81505 0.0
H1569 H 0.15345 0.75494 0.8309 0.0
H1570 H 0.20082 0.85375 0.78566 0.0
H1571 H 0.14718 0.83142 0.85741 0.0
C1572 C 0.15808 0.87944 0.85746 0.0
C1573 C 0.17287 0.90861 0.84594 0.0
C1574 C 0.19042 0.83209 0.79558 0.0
C1575 C 0.1739 0.8566 0.82689 0.0
C1576 C 0.19172 0.8062 0.78686 0.0
C1577 C 0.17839 0.77776 0.79933 0.0
C1578 C 0.17566 0.8296 0.81693 0.0
C1579 C 0.16403 0.77632 0.82067 0.0
C1580 C 0.15853 0.85352 0.84804 0.0
C1581 C 0.18739 0.91061 0.82456 0.0
N1582 N 0.16303 0.80184 0.82876 0.0
N1583 N 0.18765 0.88496 0.81575 0.0
H1584 H 0.09918 0.26782 0.81346 0.0
H1585 H 0.26113 0.42682 0.83749 0.0
H1586 H 0.13695 0.29853 0.88214 0.0
H1587 H 0.24006 0.37768 0.7721 0.0
H1588 H 0.21304 0.38276 0.85373 0.0
H1589 H 0.14796 0.31134 0.7973 0.0
C1590 C 0.11762 0.28381 0.82512 0.0
C1591 C 0.114 0.27958 0.84916 0.0
C1592 C 0.2191 0.38157 0.83587 0.0
C1593 C 0.16964 0.32924 0.83086 0.0
C1594 C 0.24653 0.40668 0.8266 0.0
C1595 C 0.2547 0.40586 0.80344 0.0
C1596 C 0.19944 0.35572 0.82177 0.0
C1597 C 0.23481 0.37919 0.7901 0.0
C1598 C 0.14548 0.30847 0.8159 0.0
C1599 C 0.13875 0.30085 0.86349 0.0
N1600 N 0.20796 0.35528 0.7994 0.0
N1601 N 0.16545 0.32484 0.85413 0.0
H1602 H 0.83227 0.62248 0.71591 0.0
H1603 H 0.81522 0.70403 0.6015 0.0
H1604 H 0.84386 0.59488 0.64728 0.0
H1605 H 0.841 0.75092 0.66781 0.0
H1606 H 0.8157 0.65862 0.61874 0.0
H1607 H 0.82612 0.66482 0.69904 0.0
C1608 C 0.83346 0.62526 0.69728 0.0
C1609 C 0.83882 0.60523 0.68297 0.0
C1610 C 0.82101 0.67878 0.62951 0.0
C1611 C 0.8314 0.65343 0.66359 0.0
C1612 C 0.82048 0.70459 0.61976 0.0
C1613 C 0.82812 0.73134 0.63324 0.0
C1614 C 0.8288 0.67955 0.65297 0.0
C1615 C 0.83507 0.73085 0.65676 0.0
C1616 C 0.82999 0.64947 0.68769 0.0
C1617 C 0.84007 0.60996 0.65895 0.0
N1618 N 0.83523 0.70537 0.66588 0.0
N1619 N 0.83628 0.63353 0.64999 0.0
H1620 H 0.30587 0.13531 0.59784 0.0
H1621 H 0.37971 0.23977 0.7105 0.0
H1622 H 0.27388 0.09954 0.66675 0.0
H1623 H 0.4337 0.2568 0.64766 0.0
H1624 H 0.33679 0.19204 0.69324 0.0
H1625 H 0.34945 0.18333 0.61454 0.0
C1626 C 0.30806 0.13752 0.6165 0.0
C1627 C 0.28625 0.11336 0.63096 0.0
C1628 C 0.35799 0.20628 0.68322 0.0
C1629 C 0.33574 0.16843 0.65008 0.0
C1630 C 0.38243 0.2337 0.69296 0.0
C1631 C 0.41037 0.25242 0.68047 0.0
C1632 C 0.36122 0.19764 0.6607 0.0
C1633 C 0.4126 0.2431 0.6579 0.0
C1634 C 0.33297 0.16489 0.62597 0.0
C1635 C 0.29028 0.11749 0.65499 0.0
N1636 N 0.38826 0.21639 0.64867 0.0
N1637 N 0.3144 0.14465 0.66381 0.0
H1638 H 0.76077 0.15801 0.65155 0.0
H1639 H 0.92926 0.17488 0.67278 0.0
H1640 H 0.79137 0.14873 0.71964 0.0
H1641 H 0.88215 0.15205 0.60649 0.0
H1642 H 0.88065 0.16812 0.69073 0.0
H1643 H 0.80653 0.15791 0.63493 0.0
C1644 C 0.77694 0.15552 0.66298 0.0
C1645 C 0.77223 0.15329 0.68699 0.0
C1646 C 0.88105 0.16446 0.67228 0.0
C1647 C 0.82517 0.15388 0.66812 0.0
C1648 C 0.9088 0.1685 0.66202 0.0
C1649 C 0.90991 0.16426 0.63807 0.0
C1650 C 0.85447 0.15651 0.65842 0.0
C1651 C 0.88256 0.15572 0.62499 0.0
C1652 C 0.8031 0.15551 0.65349 0.0
C1653 C 0.794 0.1502 0.701 0.0
N1654 N 0.85615 0.15236 0.63529 0.0
N1655 N 0.81981 0.15101 0.69138 0.0
H1656 H 0.9458 0.52956 0.50072 0.0
H1657 H 0.08495 0.49017 0.48242 0.0
H1658 H 0.9614 0.49228 0.43748 0.0
H1659 H 0.06819 0.52332 0.54722 0.0
H1660 H 0.04065 0.49273 0.46543 0.0
H1661 H 0.99134 0.52907 0.51797 0.0
C1662 C 0.95877 0.52133 0.49046 0.0
C1663 C 0.94974 0.51101 0.4676 0.0
C1664 C 0.04665 0.49947 0.48337 0.0
C1665 C 1.00181 0.5104 0.48719 0.0
C1666 C 0.072 0.49804 0.49308 0.0
C1667 C 0.08025 0.50637 0.51633 0.0
C1668 C 0.02935 0.50936 0.49694 0.0
C1669 C 0.06261 0.51651 0.52925 0.0
C1670 C 0.98476 0.52105 0.50031 0.0
C1671 C 0.96744 0.50053 0.45514 0.0
N1672 N 0.03797 0.51766 0.5194 0.0
N1673 N 0.99254 0.50051 0.46509 0.0
H1674 H 0.52593 0.59284 0.48014 0.0
H1675 H 0.50899 0.42444 0.50397 0.0
H1676 H 0.53945 0.56474 0.54799 0.0
H1677 H 0.51666 0.46416 0.43595 0.0
H1678 H 0.5179 0.47422 0.52104 0.0
H1679 H 0.5215 0.54489 0.46405 0.0
C1680 C 0.52838 0.57672 0.49163 0.0
C1681 C 0.53309 0.5828 0.51544 0.0
C1682 C 0.51762 0.47192 0.50239 0.0
C1683 C 0.52739 0.52732 0.49716 0.0
C1684 C 0.51228 0.44347 0.49265 0.0
C1685 C 0.51192 0.44004 0.4685 0.0
C1686 C 0.52237 0.49692 0.48784 0.0
C1687 C 0.51668 0.46561 0.45465 0.0
C1688 C 0.52576 0.54925 0.48243 0.0
C1689 C 0.53606 0.56105 0.52949 0.0
N1690 N 0.5216 0.49282 0.46451 0.0
N1691 N 0.53281 0.53403 0.52018 0.0
H1692 H 0.59448 0.08522 0.50426 0.0
H1693 H 0.43182 0.92535 0.48205 0.0
H1694 H 0.55669 0.05068 0.43614 0.0
H1695 H 0.45486 0.97425 0.54758 0.0
H1696 H 0.47951 0.96927 0.46537 0.0
H1697 H 0.54578 0.0423 0.52116 0.0
C1698 C 0.57609 0.06853 0.49288 0.0
C1699 C 0.57971 0.07155 0.46876 0.0
C1700 C 0.47399 0.97051 0.48335 0.0
C1701 C 0.52407 0.02257 0.48791 0.0
C1702 C 0.44672 0.94546 0.49287 0.0
C1703 C 0.43921 0.94615 0.51622 0.0
C1704 C 0.49423 0.99627 0.49734 0.0
C1705 C 0.45955 0.97281 0.52945 0.0
C1706 C 0.54824 0.0442 0.50252 0.0
C1707 C 0.55497 0.04937 0.45483 0.0
N1708 N 0.48627 0.99668 0.51988 0.0
N1709 N 0.52832 0.02582 0.46459 0.0
H1710 H 0.53289 0.07161 0.93642 0.0
H1711 H 0.49892 0.96011 0.04663 0.0
H1712 H 0.4956 0.08256 0.00131 0.0
H1713 H 0.53463 0.94659 0.98185 0.0
H1714 H 0.49893 1.00586 0.03029 0.0
H1715 H 0.53534 0.02684 0.95281 0.0
C1716 C 0.52529 0.06468 0.95412 0.0
C1717 C 0.51384 0.08079 0.96747 0.0
C1718 C 0.50682 0.99297 0.01962 0.0
C1719 C 0.51659 0.02957 0.98629 0.0
C1720 C 0.50684 0.96677 0.02895 0.0
C1721 C 0.51686 0.94944 0.01561 0.0
C1722 C 0.51685 1.00203 -0.00328 0.0
C1723 C 0.52674 0.95925 -0.00722 0.0
C1724 C 0.52668 0.03909 0.96345 0.0
C1725 C 0.50445 0.0708 0.99032 0.0
N1726 N 0.52648 0.9849 0.98404 0.0
N1727 N 0.50596 0.04583 -0.00104 0.0
H1728 H 0.07881 0.59728 0.98132 0.0
H1729 H 0.93743 0.42054 0.00325 0.0
H1730 H 0.06115 0.54836 0.04662 0.0
H1731 H 0.95476 0.46822 0.93746 0.0
H1732 H 0.98185 0.46804 0.01971 0.0
H1733 H 0.03279 0.55079 0.96498 0.0
C1734 C 0.0653 0.57684 -0.00778 0.0
C1735 C 0.0739 0.57682 0.01538 0.0
C1736 C 0.97589 0.46813 0.00168 0.0
C1737 C 0.02123 0.52359 -0.00316 0.0
C1738 C 0.95046 0.441 -0.00772 0.0
C1739 C 0.94242 0.44026 0.9689 0.0
C1740 C 0.99343 0.49476 0.9876 0.0
C1741 C 0.96018 0.46759 0.95555 0.0
C1742 C 0.03901 0.55032 0.9829 0.0
C1743 C 0.05547 0.54959 0.02868 0.0
N1744 N 0.98487 0.49365 0.96506 0.0
N1745 N 0.0301 0.52417 0.01923 0.0
H1746 H 0.57821 0.54799 0.93842 0.0
H1747 H 0.45081 0.4775 0.04099 0.0
H1748 H 0.58913 0.5041 -0.0002 0.0
H1749 H 0.44117 0.52499 0.98128 0.0
H1750 H 0.50109 0.4862 0.02566 0.0
H1751 H 0.52847 0.5407 0.95399 0.0
C1752 C 0.57048 0.53731 0.95532 0.0
C1753 C 0.58801 0.52669 0.96779 0.0
C1754 C 0.48791 0.49459 0.01584 0.0
C1755 C 0.53066 0.51767 0.98552 0.0
C1756 C 0.45902 0.48939 0.02451 0.0
C1757 C 0.44158 0.50043 0.01241 0.0
C1758 C 0.49958 0.51098 -0.0051 0.0
C1759 C 0.45367 0.51594 0.99121 0.0
C1760 C 0.5419 0.53291 0.96412 0.0
C1761 C 0.57653 0.51272 0.98953 0.0
N1762 N 0.48192 0.52083 0.98319 0.0
N1763 N 0.54856 0.50846 -0.0024 0.0
H1764 H 0.21968 0.27854 0.11966 0.0
H1765 H 0.31988 0.40362 0.01935 0.0
H1766 H 0.25921 0.25819 0.0598 0.0
H1767 H 0.29399 0.42963 0.08348 0.0
H1768 H 0.28838 0.34788 0.03071 0.0
H1769 H 0.23861 0.33204 0.10411 0.0
C1770 C 0.2321 0.28516 0.10329 0.0
C1771 C 0.23835 0.26392 0.09134 0.0
C1772 C 0.2891 0.36576 0.04212 0.0
C1773 C 0.2596 0.32476 0.07322 0.0
C1774 C 0.30676 0.39757 0.03543 0.0
C1775 C 0.30961 0.4213 0.05047 0.0
C1776 C 0.27419 0.35767 0.06399 0.0
C1777 C 0.29251 0.41204 0.07139 0.0
C1778 C 0.2429 0.31567 0.09438 0.0
C1779 C 0.25436 0.27383 0.06999 0.0
N1780 N 0.27589 0.38111 0.07763 0.0
N1781 N 0.26443 0.30331 0.06175 0.0
H1782 H 0.61959 0.95403 0.0358 0.0
H1783 H 0.75281 0.93404 0.09791 0.0
H1784 H 0.59802 0.85959 0.05238 0.0
H1785 H 0.73267 0.00859 0.11186 0.0
H1786 H 0.70208 0.90525 0.07677 0.0
H1787 H 0.66991 0.97473 0.05597 0.0
C1788 C 0.62603 0.93758 0.04297 0.0
C1789 C 0.60476 0.90505 0.04215 0.0
C1790 C 0.70854 0.92754 0.08501 0.0
C1791 C 0.66202 0.92871 0.06622 0.0
C1792 C 0.73716 0.9437 0.0974 0.0
C1793 C 0.74681 0.97363 0.1069 0.0
C1794 C 0.69007 0.94187 0.08181 0.0
C1795 C 0.72613 0.98555 0.10496 0.0
C1796 C 0.65451 0.94942 0.05486 0.0
C1797 C 0.61408 0.88482 0.05222 0.0
N1798 N 0.69919 0.96998 0.09238 0.0
N1799 N 0.64199 0.89698 0.0641 0.0
H1800 H 0.07012 0.67648 0.02687 0.0
H1801 H 0.0802 0.81687 0.1055 0.0
H1802 H 0.15684 0.7432 0.0603 0.0
H1803 H 0.9947 0.73609 0.08069 0.0
H1804 H 0.11092 0.7951 0.08709 0.0
H1805 H 0.04477 0.70465 0.04225 0.0
C1806 C 0.08412 0.69782 0.03681 0.0
C1807 C 0.11578 0.70796 0.04183 0.0
C1808 C 0.08541 0.78223 0.08584 0.0
C1809 C 0.08644 0.73964 0.0608 0.0
C1810 C 0.06786 0.79447 0.09655 0.0
C1811 C 0.03472 0.7784 0.0947 0.0
C1812 C 0.06964 0.75391 0.07311 0.0
C1813 C 0.02012 0.74962 0.08257 0.0
C1814 C 0.06953 0.71366 0.04598 0.0
C1815 C 0.13259 0.73518 0.05551 0.0
N1816 N 0.03756 0.73857 0.07226 0.0
N1817 N 0.11764 0.74995 0.06474 0.0
H1818 H 0.40136 0.3133 0.4687 0.0
H1819 H 0.28291 0.21847 0.36353 0.0
H1820 H 0.43297 0.29265 0.40501 0.0
H1821 H 0.25905 0.25463 0.42365 0.0
H1822 H 0.33599 0.23745 0.38028 0.0
H1823 H 0.34664 0.28268 0.45487 0.0
C1824 C 0.39663 0.30147 0.45211 0.0
C1825 C 0.42157 0.30512 0.43809 0.0
C1826 C 0.31892 0.24098 0.38978 0.0
C1827 C 0.35918 0.27098 0.42163 0.0
C1828 C 0.28866 0.23014 0.3802 0.0
C1829 C 0.26656 0.23541 0.39192 0.0
C1830 C 0.32681 0.25666 0.41135 0.0
C1831 C 0.27535 0.2505 0.41363 0.0
C1832 C 0.36545 0.28431 0.44402 0.0
C1833 C 0.41426 0.2901 0.41639 0.0
N1834 N 0.30453 0.26055 0.4225 0.0
N1835 N 0.38383 0.27391 0.40873 0.0
H1836 H 0.82203 0.07834 0.37749 0.0
H1837 H 0.67851 0.06583 0.45352 0.0
H1838 H 0.73719 0.99237 0.39612 0.0
H1839 H 0.74776 0.15426 0.42365 0.0
H1840 H 0.70642 0.04079 0.43715 0.0
H1841 H 0.80014 0.10864 0.39641 0.0
C1842 C 0.79868 0.06587 0.38511 0.0
C1843 C 0.7815 0.03269 0.38519 0.0
C1844 C 0.71601 0.06582 0.43441 0.0
C1845 C 0.75688 0.067 0.40741 0.0
C1846 C 0.70031 0.0802 0.44414 0.0
C1847 C 0.71121 0.11226 0.44038 0.0
C1848 C 0.74268 0.08338 0.42032 0.0
C1849 C 0.73908 0.12962 0.42745 0.0
C1850 C 0.78638 0.08313 0.39614 0.0
C1851 C 0.75154 0.01783 0.39569 0.0
N1852 N 0.75375 0.11491 0.41765 0.0
N1853 N 0.74045 0.03496 0.4064 0.0
H1854 H 0.95879 0.61144 0.43743 0.0
H1855 H 0.93859 0.74937 0.38292 0.0
H1856 H 0.8648 0.59635 0.42829 0.0
H1857 H 0.01482 0.73205 0.36786 0.0
H1858 H 0.91021 0.69755 0.40252 0.0
H1859 H 0.98016 0.66201 0.41789 0.0
C1860 C 0.94265 0.61922 0.43183 0.0
C1861 C 0.90997 0.59966 0.43465 0.0
C1862 C 0.93278 0.70485 0.39438 0.0
C1863 C 0.93436 0.65757 0.41134 0.0
C1864 C 0.94872 0.73414 0.38285 0.0
C1865 C 0.97895 0.74484 0.37343 0.0
C1866 C 0.94755 0.68666 0.39677 0.0
C1867 C 0.99149 0.72466 0.37465 0.0
C1868 C 0.95485 0.64795 0.42033 0.0
C1869 C 0.89019 0.61093 0.4268 0.0
N1870 N 0.97603 0.69695 0.38633 0.0
N1871 N 0.90267 0.63913 0.41529 0.0
H1872 H 0.78065 0.73967 0.85775 0.0
H1873 H 0.71985 0.61389 0.96033 0.0
H1874 H 0.80667 0.76563 0.92911 0.0
H1875 H 0.72165 0.5885 0.88906 0.0
H1876 H 0.75312 0.66978 0.94956 0.0
H1877 H 0.76019 0.68407 0.86849 0.0
C1878 C 0.78273 0.73385 0.87549 0.0
C1879 C 0.79513 0.75744 0.89252 0.0
C1880 C 0.74658 0.65186 0.93636 0.0
C1881 C 0.77108 0.69387 0.90512 0.0
C1882 C 0.72779 0.61992 0.9426 0.0
C1883 C 0.7176 0.59635 0.92562 0.0
C1884 C 0.75492 0.66025 0.91296 0.0
C1885 C 0.72849 0.6058 0.90277 0.0
C1886 C 0.77083 0.70208 0.88171 0.0
C1887 C 0.79689 0.74828 0.91538 0.0
N1888 N 0.746 0.63682 0.89708 0.0
N1889 N 0.78462 0.7174 0.92103 0.0
H1890 H 0.40368 0.06154 0.94687 0.0
H1891 H 0.26787 0.07883 0.88227 0.0
H1892 H 0.41558 0.15335 0.93361 0.0
H1893 H 0.27678 0.99565 0.88267 0.0
H1894 H 0.31905 0.10766 0.90282 0.0
H1895 H 0.35243 0.03737 0.92784 0.0
C1896 C 0.39498 0.0766 0.94055 0.0
C1897 C 0.41375 0.10947 0.94219 0.0
C1898 C 0.3099 0.08322 0.89807 0.0
C1899 C 0.35522 0.08191 0.91917 0.0
C1900 C 0.28096 0.06691 0.88604 0.0
C1901 C 0.26804 0.03477 0.8806 0.0
C1902 C 0.3257 0.0671 0.90484 0.0
C1903 C 0.28569 0.02034 0.88647 0.0
C1904 C 0.36587 0.06282 0.9293 0.0
C1905 C 0.40151 0.12787 0.93319 0.0
N1906 N 0.31321 0.03641 0.89835 0.0
N1907 N 0.3731 0.11387 0.92185 0.0
H1908 H 0.94078 0.19398 0.8834 0.0
H1909 H 0.95848 0.34202 0.95312 0.0
H1910 H 0.01957 0.2887 0.87822 0.0
H1911 H 0.86527 0.27051 0.93199 0.0
H1912 H 0.98068 0.31418 0.93252 0.0
H1913 H 0.91114 0.21471 0.90485 0.0
C1914 C 0.95136 0.21917 0.88597 0.0
C1915 C 0.98262 0.23971 0.87882 0.0
C1916 C 0.95529 0.30414 0.93269 0.0
C1917 C 0.94972 0.26315 0.90424 0.0
C1918 C 0.94256 0.31975 0.94483 0.0
C1919 C 0.90997 0.30839 0.94456 0.0
C1920 C 0.93542 0.27687 0.91991 0.0
C1921 C 0.89049 0.2797 0.93305 0.0
C1922 C 0.93467 0.23089 0.89853 0.0
C1923 C 0.99554 0.27202 0.8833 0.0
N1924 N 0.90354 0.265 0.92093 0.0
N1925 N 0.97932 0.28257 0.89593 0.0
H1926 H 0.6064 0.75329 0.54734 0.0
H1927 H 0.74385 0.74534 0.61465 0.0
H1928 H 0.61496 0.67007 0.54984 0.0
H1929 H 0.76647 0.82903 0.57583 0.0
H1930 H 0.68992 0.71999 0.59905 0.0
H1931 H 0.66056 0.78429 0.56302 0.0
C1932 C 0.62016 0.74185 0.55025 0.0
C1933 C 0.60661 0.70927 0.54655 0.0
C1934 C 0.70647 0.74422 0.59442 0.0
C1935 C 0.66717 0.74385 0.56615 0.0
C1936 C 0.737 0.7589 0.60374 0.0
C1937 C 0.7594 0.78959 0.59699 0.0
C1938 C 0.69813 0.76043 0.5784 0.0
C1939 C 0.74962 0.8056 0.5819 0.0
C1940 C 0.65074 0.75937 0.55961 0.0
C1941 C 0.62487 0.69528 0.55178 0.0
N1942 N 0.71973 0.79086 0.57306 0.0
N1943 N 0.65388 0.71246 0.56163 0.0
H1944 H 0.25815 1.0046 0.56303 0.0
H1945 H 0.29607 0.86786 0.59061 0.0
H1946 H 0.22817 0.95058 0.62626 0.0
H1947 H 0.31969 0.91904 0.52622 0.0
H1948 H 0.26566 0.89282 0.6021 0.0
H1949 H 0.2757 0.96973 0.54818 0.0
C1950 C 0.25527 0.98536 0.57394 0.0
C1951 C 0.2421 0.98103 0.59625 0.0
C1952 C 0.2769 0.89819 0.58527 0.0
C1953 C 0.26245 0.94039 0.57893 0.0
C1954 C 0.29412 0.88376 0.57858 0.0
C1955 C 0.31049 0.89135 0.55736 0.0
C1956 C 0.27622 0.92079 0.5708 0.0
C1957 C 0.30726 0.91224 0.54259 0.0
C1958 C 0.26522 0.96525 0.56526 0.0
C1959 C 0.23843 0.95509 0.60911 0.0
N1960 N 0.29092 0.92657 0.54974 0.0
N1961 N 0.24893 0.93598 0.60038 0.0
H1962 H 0.06606 0.39629 0.53206 0.0
H1963 H 0.08188 0.26478 0.60403 0.0
H1964 H 0.15723 0.41419 0.55522 0.0
H1965 H 0.99694 0.26998 0.59622 0.0
H1966 H 0.11154 0.316 0.5837 0.0
H1967 H 0.04171 0.34451 0.55026 0.0
C1968 C 0.08109 0.38878 0.54032 0.0
C1969 C 0.11376 0.40936 0.54172 0.0
C1970 C 0.08647 0.30596 0.58673 0.0
C1971 C 0.08578 0.35032 0.56384 0.0
C1972 C 0.06963 0.27697 0.5986 0.0
C1973 C 0.03681 0.26299 0.60192 0.0
C1974 C 0.07022 0.3207 0.57795 0.0
C1975 C 0.02211 0.27962 0.59404 0.0
C1976 C 0.06713 0.35939 0.55111 0.0
C1977 C 0.13203 0.39869 0.55323 0.0
N1978 N 0.03875 0.30717 0.58235 0.0
N1979 N 0.11777 0.36999 0.56409 0.0
H1980 H 0.07957 0.69024 0.77219 0.0
H1981 H 0.94025 0.53374 0.71284 0.0
H1982 H 0.08804 0.60756 0.76295 0.0
H1983 H 0.94578 0.62427 0.7155 0.0
H1984 H 0.99279 0.55752 0.7315 0.0
H1985 H 0.0277 0.66296 0.75418 0.0
C1986 C 0.07006 0.66592 0.76686 0.0
C1987 C 0.08801 0.65105 0.76941 0.0
C1988 C 0.98261 0.57218 0.72766 0.0
C1989 C 0.02855 0.61963 0.74764 0.0
C1990 C 0.95287 0.55874 0.71668 0.0
C1991 C 0.93867 0.5771 0.71241 0.0
C1992 C 0.99802 0.60411 0.73447 0.0
C1993 C 0.95575 0.60918 0.71837 0.0
C1994 C 0.04052 0.6504 0.75624 0.0
C1995 C 0.07467 0.61965 0.76177 0.0
N1996 N 0.98416 0.62145 0.72914 0.0
N1997 N 0.04581 0.60501 0.75104 0.0
H1998 H 0.34995 0.40618 0.78082 0.0
H1999 H 0.50364 0.42092 0.72451 0.0
H2000 H 0.42367 0.49854 0.76044 0.0
H2001 H 0.40983 0.34682 0.70747 0.0
H2002 H 0.4809 0.45062 0.7427 0.0
H2003 H 0.37896 0.38325 0.76241 0.0
C2004 C 0.37311 0.42177 0.7736 0.0
C2005 C 0.38483 0.45436 0.77271 0.0
C2006 C 0.46543 0.42829 0.73434 0.0
C2007 C 0.41746 0.42823 0.75064 0.0
C2008 C 0.4784 0.4117 0.72349 0.0
C2009 C 0.45862 0.38179 0.71382 0.0
C2010 C 0.43249 0.41421 0.73624 0.0
C2011 C 0.42594 0.37018 0.71408 0.0
C2012 C 0.38923 0.40863 0.76254 0.0
C2013 C 0.41431 0.47338 0.76208 0.0
N2014 N 0.41388 0.38602 0.72558 0.0
N2015 N 0.42962 0.46006 0.75132 0.0
H2016 H 0.61067 0.93241 0.74452 0.0
H2017 H 0.62212 0.0991 0.75232 0.0
H2018 H 0.54998 0.948 0.79027 0.0
H2019 H 0.66116 0.07156 0.69622 0.0
H2020 H 0.59291 0.04419 0.7654 0.0
H2021 H 0.62827 0.98328 0.72689 0.0
C2022 C 0.60112 0.94661 0.75112 0.0
C2023 C 0.57889 0.9357 0.76928 0.0
C2024 C 0.60715 0.04992 0.74988 0.0
C2025 C 0.59928 0.9949 0.74857 0.0
C2026 C 0.62358 0.08122 0.74222 0.0
C2027 C 0.64391 0.08989 0.72298 0.0
C2028 C 0.61155 0.0271 0.73852 0.0
C2029 C 0.64543 0.06591 0.71087 0.0
C2030 C 0.61108 0.97574 0.74074 0.0
C2031 C 0.56734 0.95542 0.77656 0.0
N2032 N 0.62997 0.03575 0.71909 0.0
N2033 N 0.57788 0.98419 0.76632 0.0
H2034 H 0.34243 0.94771 0.28139 0.0
H2035 H 0.49321 0.08375 0.21634 0.0
H2036 H 0.41469 0.92879 0.25748 0.0
H2037 H 0.40004 0.07266 0.21645 0.0
H2038 H 0.47107 0.03127 0.23486 0.0
H2039 H 0.37116 1.00012 0.26426 0.0
C2040 C 0.365 0.95509 0.27319 0.0
C2041 C 0.37641 0.93408 0.27115 0.0
C2042 C 0.45555 0.04027 0.23043 0.0
C2043 C 0.40894 0.99379 0.25039 0.0
C2044 C 0.46805 0.06994 0.21957 0.0
C2045 C 0.44841 0.08257 0.21479 0.0
C2046 C 0.42344 0.02367 0.23677 0.0
C2047 C 0.41611 0.06398 0.21987 0.0
C2048 C 0.38116 0.98482 0.26302 0.0
C2049 C 0.40547 0.94461 0.25983 0.0
N2050 N 0.40483 0.03587 0.23077 0.0
N2051 N 0.42069 0.97372 0.24962 0.0
H2052 H 0.95025 0.33461 0.20772 0.0
H2053 H 0.08774 0.49122 0.26465 0.0
H2054 H 0.933 0.41105 0.22175 0.0
H2055 H 0.0719 0.39754 0.27634 0.0
H2056 H 0.03542 0.46791 0.24564 0.0
H2057 H 1.00159 0.36406 0.22639 0.0
C2058 C 0.95776 0.35812 0.21415 0.0
C2059 C 0.93743 0.37048 0.21299 0.0
C2060 C 0.04323 0.45258 0.25288 0.0
C2061 C 0.99603 0.4041 0.23537 0.0
C2062 C 0.07278 0.46582 0.26405 0.0
C2063 C 0.08402 0.44623 0.27228 0.0
C2064 C 0.02537 0.41971 0.24966 0.0
C2065 C 0.06413 0.41351 0.27036 0.0
C2066 C 0.98688 0.37474 0.22517 0.0
C2067 C 0.94824 0.40093 0.22194 0.0
N2068 N 0.03617 0.4014 0.25903 0.0
N2069 N 0.9768 0.4167 0.23299 0.0
H2070 H 0.62269 0.6745 0.28501 0.0
H2071 H 0.60782 0.52601 0.21671 0.0
H2072 H 0.53146 0.60388 0.25978 0.0
H2073 H 0.68986 0.61915 0.21769 0.0
H2074 H 0.57742 0.54746 0.23617 0.0
H2075 H 0.64619 0.64595 0.26726 0.0
C2076 C 0.60742 0.65227 0.27642 0.0
C2077 C 0.57505 0.64131 0.27418 0.0
C2078 C 0.60195 0.56313 0.23174 0.0
C2079 C 0.60206 0.60906 0.2527 0.0
C2080 C 0.61915 0.55103 0.22035 0.0
C2081 C 0.65144 0.57084 0.21553 0.0
C2082 C 0.61746 0.59501 0.23857 0.0
C2083 C 0.66511 0.60294 0.22113 0.0
C2084 C 0.62091 0.63624 0.2659 0.0
C2085 C 0.55644 0.61271 0.26233 0.0
N2086 N 0.64826 0.61382 0.23254 0.0
N2087 N 0.57026 0.59765 0.25176 0.0
H2088 H 0.93689 0.10744 0.11005 0.0
H2089 H 0.1054 0.13874 0.15393 0.0
H2090 H 0.94741 0.04243 0.15409 0.0
H2091 H 0.09072 0.16681 0.08646 0.0
H2092 H 0.04891 0.11606 0.16214 0.0
H2093 H 0.99457 0.14185 0.10963 0.0
C2094 C 0.95134 0.1011 0.12041 0.0
C2095 C 0.93748 0.07247 0.13254 0.0
C2096 C 0.05824 0.12778 0.14575 0.0
C2097 C 1.0033 0.11135 0.13186 0.0
C2098 C 0.09052 0.14103 0.1411 0.0
C2099 C 0.10286 0.15477 0.11944 0.0
C2100 C 0.03821 0.12883 0.12883 0.0
C2101 C 0.08223 0.15646 0.10336 0.0
C2102 C 0.9842 0.12051 0.11992 0.0
C2103 C 0.95724 0.06468 0.14497 0.0
N2104 N 0.05094 0.14359 0.10835 0.0
N2105 N 0.9892 0.084 0.1443 0.0
H2106 H 0.84689 0.91937 0.09171 0.0
H2107 H 0.9765 0.91318 0.16272 0.0
H2108 H 0.87161 0.96346 0.15902 0.0
H2109 H 0.90861 0.82955 0.1266 0.0
H2110 H 0.93924 0.93286 0.16164 0.0
H2111 H 0.86971 0.88656 0.10287 0.0
C2112 C 0.85646 0.9217 0.10897 0.0
C2113 C 0.85738 0.94434 0.12438 0.0
C2114 C 0.93208 0.90975 0.15459 0.0
C2115 C 0.88416 0.90748 0.137 0.0
C2116 C 0.95319 0.89839 0.15545 0.0
C2117 C 0.9453 0.86944 0.1452 0.0
C2118 C 0.90348 0.89266 0.14247 0.0
C2119 C 0.91524 0.85168 0.13516 0.0
C2120 C 0.86943 0.90295 0.11533 0.0
C2121 C 0.87027 0.94636 0.14653 0.0
N2122 N 0.89573 0.86395 0.13345 0.0
N2123 N 0.88377 0.92875 0.15196 0.0
H2124 H 0.11525 0.07321 0.1598 0.0
H2125 H 0.10007 0.92951 0.09408 0.0
H2126 H 0.19434 0.0816 0.12116 0.0
H2127 H 0.05453 0.91625 0.16034 0.0
H2128 H 0.13584 0.98505 0.10395 0.0
H2129 H 0.09332 0.01592 0.16179 0.0
C2130 C 0.1287 0.06308 0.15269 0.0
C2131 C 0.157 0.08215 0.14081 0.0
C2132 C 0.11856 0.96978 0.11658 0.0
C2133 C 0.13113 0.01658 0.14164 0.0
C2134 C 0.09818 0.93808 0.11096 0.0
C2135 C 0.07436 0.91816 0.12643 0.0
C2136 C 0.11446 0.98193 0.13751 0.0
C2137 C 0.07273 0.93065 0.14797 0.0
C2138 C 0.11604 0.03037 0.15358 0.0
C2139 C 0.17285 0.06774 0.13098 0.0
N2140 N 0.09197 0.96188 0.15265 0.0
N2141 N 0.15933 0.03574 0.13108 0.0
H2142 H 0.17411 0.08975 0.39501 0.0
H2143 H 0.11487 0.93321 0.36077 0.0
H2144 H 0.1389 0.10109 0.32946 0.0
H2145 H 0.04027 0.94729 0.33496 0.0
H2146 H 0.15015 0.9908 0.36192 0.0
H2147 H 0.15242 0.03354 0.38628 0.0
C2148 C 0.16259 0.08058 0.37852 0.0
C2149 C 0.15867 0.10024 0.36283 0.0
C2150 C 0.12628 0.98121 0.3555 0.0
C2151 C 0.13306 0.03584 0.353 0.0
C2152 C 0.10635 0.94843 0.35446 0.0
C2153 C 0.07482 0.93559 0.3474 0.0
C2154 C 0.11463 1.00119 0.34914 0.0
C2155 C 0.06457 0.95632 0.34018 0.0
C2156 C 0.15026 0.04854 0.37352 0.0
C2157 C 0.14294 0.08695 0.34188 0.0
N2158 N 0.0844 0.9881 0.34122 0.0
N2159 N 0.13005 0.05546 0.33784 0.0
H2160 H 0.08613 0.1927 0.35982 0.0
H2161 H 0.91851 0.05059 0.31957 0.0
H2162 H 0.07538 0.11153 0.32292 0.0
H2163 H 0.93347 0.09806 0.38518 0.0
H2164 H 0.97437 0.08568 0.3101 0.0
H2165 H 0.02866 0.17074 0.35799 0.0
C2166 C 0.07182 0.17107 0.35026 0.0
C2167 C 0.08546 0.15413 0.3411 0.0
C2168 C 0.96515 0.08891 0.32628 0.0
C2169 C 0.01994 0.12875 0.33927 0.0
C2170 C 0.93323 0.06911 0.33164 0.0
C2171 C 0.9213 0.07137 0.35325 0.0
C2172 C 0.98514 0.11157 0.3424 0.0
C2173 C 0.94171 0.09548 0.36836 0.0
C2174 C 0.03905 0.15836 0.34954 0.0
C2175 C 0.06577 0.12556 0.32975 0.0
N2176 N 0.97267 0.11454 0.36272 0.0
N2177 N 0.03395 0.11365 0.32924 0.0
H2178 H 0.83157 0.9057 0.35436 0.0
H2179 H 0.96936 0.87066 0.32044 0.0
H2180 H 0.91647 0.97298 0.31915 0.0
H2181 H 0.92074 0.84218 0.38601 0.0
H2182 H 0.93731 0.89426 0.30999 0.0
H2183 H 0.85177 0.86873 0.35573 0.0
C2184 C 0.85374 0.91204 0.34589 0.0
C2185 C 0.87221 0.94219 0.33626 0.0
C2186 C 0.93322 0.88221 0.32643 0.0
C2187 C 0.89542 0.9003 0.33793 0.0
C2188 C 0.95134 0.86851 0.33242 0.0
C2189 C 0.94794 0.85452 0.35428 0.0
C2190 C 0.911 0.8814 0.34215 0.0
C2191 C 0.9243 0.85284 0.36906 0.0
C2192 C 0.86542 0.89117 0.34701 0.0
C2193 C 0.90132 0.94975 0.32633 0.0
N2194 N 0.90683 0.86628 0.36278 0.0
N2195 N 0.91208 0.92899 0.32746 0.0
H2196 H 0.07687 0.90729 0.85288 0.0
H2197 H 0.93299 0.93585 0.86345 0.0
H2198 H 0.07717 0.98973 0.82685 0.0
H2199 H 0.91656 0.84074 0.8648 0.0
H2200 H 0.98624 0.95445 0.84975 0.0
H2201 H 0.01882 0.88002 0.85529 0.0
C2202 C 0.06461 0.91902 0.84643 0.0
C2203 C 0.0818 0.95065 0.83927 0.0
C2204 C 0.97112 0.92945 0.85286 0.0
C2205 C 0.01575 0.92029 0.8431 0.0
C2206 C 0.94063 0.91876 0.86095 0.0
C2207 C 0.9202 0.88663 0.86558 0.0
C2208 C 0.98204 0.90812 0.84967 0.0
C2209 C 0.93154 0.86572 0.86157 0.0
C2210 C 0.03151 0.90363 0.84821 0.0
C2211 C 0.06482 0.96521 0.83211 0.0
N2212 N 0.96192 0.87688 0.85417 0.0
N2213 N 0.03292 0.95016 0.83459 0.0
H2214 H 0.15389 0.05743 0.82145 0.0
H2215 H 0.11898 0.19318 0.86124 0.0
H2216 H 0.17387 0.09632 0.8905 0.0
H2217 H 0.05625 0.11591 0.81735 0.0
H2218 H 0.15446 0.17124 0.86316 0.0
H2219 H 0.13363 0.09251 0.81146 0.0
C2220 C 0.15492 0.07396 0.83436 0.0
C2221 C 0.16546 0.0737 0.85698 0.0
C2222 C 0.13349 0.15976 0.85245 0.0
C2223 C 0.14241 0.1141 0.8454 0.0
C2224 C 0.11351 0.17247 0.85106 0.0
C2225 C 0.08498 0.15658 0.83875 0.0
C2226 C 0.12512 0.13132 0.84107 0.0
C2227 C 0.07835 0.12917 0.8266 0.0
C2228 C 0.14312 0.09381 0.82862 0.0
C2229 C 0.16584 0.09556 0.87293 0.0
N2230 N 0.09821 0.11733 0.8281 0.0
N2231 N 0.1543 0.11477 0.86689 0.0
H2232 H 0.81843 0.94789 0.85281 0.0
H2233 H 0.98041 0.1027 0.82057 0.0
H2234 H 0.89929 0.94272 0.82932 0.0
H2235 H 0.92148 0.09506 0.87852 0.0
H2236 H 0.94312 0.04733 0.81067 0.0
H2237 H 0.84794 1.00503 0.84733 0.0
C2238 C 0.84188 0.95863 0.84533 0.0
C2239 C 0.85649 0.94057 0.84157 0.0
C2240 C 0.93806 0.0581 0.82518 0.0
C2241 C 0.89058 1.00601 0.83579 0.0
C2242 C 0.9591 0.08968 0.83075 0.0
C2243 C 0.95385 0.10346 0.85035 0.0
C2244 C 0.91121 0.04053 0.83894 0.0
C2245 C 0.9263 0.08534 0.86326 0.0
C2246 C 0.85884 0.99128 0.84258 0.0
C2247 C 0.8871 0.95574 0.83224 0.0
N2248 N 0.906 0.05482 0.85732 0.0
N2249 N 0.90346 0.9878 0.8301 0.0
H2250 H 0.91044 0.07276 0.63299 0.0
H2251 H 0.93921 0.92936 0.6232 0.0
H2252 H 0.99433 0.07423 0.65729 0.0
H2253 H 0.84426 0.9137 0.62122 0.0
H2254 H 0.95799 0.98236 0.63738 0.0
H2255 H 0.88308 0.01479 0.63189 0.0
C2256 C 0.92252 0.0608 0.63933 0.0
C2257 C 0.95456 0.07821 0.64552 0.0
C2258 C 0.93297 0.96746 0.63407 0.0
C2259 C 0.92405 0.01227 0.64328 0.0
C2260 C 0.92222 0.93714 0.62572 0.0
C2261 C 0.89012 0.91711 0.6207 0.0
C2262 C 0.91173 0.97854 0.63706 0.0
C2263 C 0.86923 0.92846 0.62474 0.0
C2264 C 0.90707 0.02774 0.63833 0.0
C2265 C 0.96952 0.06165 0.65269 0.0
N2266 N 0.88048 0.95869 0.63233 0.0
N2267 N 0.95436 0.02973 0.65098 0.0
H2268 H 0.95431 0.81718 0.62494 0.0
H2269 H 0.10903 0.97735 0.6611 0.0
H2270 H 0.94884 0.89516 0.65428 0.0
H2271 H 0.10196 0.92101 0.60164 0.0
H2272 H 0.05364 0.93934 0.67069 0.0
H2273 H 1.01157 0.84646 0.63009 0.0
C2274 C 0.96505 0.83991 0.63352 0.0
C2275 C 0.9468 0.8538 0.63914 0.0
C2276 C 0.06454 0.93498 0.6559 0.0
C2277 C 0.01248 0.88775 0.64452 0.0
C2278 C 0.09615 0.95644 0.65052 0.0
C2279 C 0.1101 0.95215 0.63059 0.0
C2280 C 0.04709 0.90873 0.64158 0.0
C2281 C 0.09214 0.92509 0.61718 0.0
C2282 C 0.99777 0.85677 0.63612 0.0
C2283 C 0.962 0.88351 0.64988 0.0
N2284 N 0.06159 0.90443 0.6229 0.0
N2285 N 0.99415 0.89985 0.65182 0.0
H2286 H 0.19877 0.11771 0.62197 0.0
H2287 H 0.06033 0.14899 0.66168 0.0
H2288 H 0.12163 0.05363 0.66542 0.0
H2289 H 0.09978 0.17021 0.59282 0.0
H2290 H 0.09606 0.12943 0.67162 0.0
H2291 H 0.1758 0.15228 0.62021 0.0
C2292 C 0.1779 0.11176 0.63213 0.0
C2293 C 0.16233 0.08308 0.64422 0.0
C2294 C 0.09734 0.13904 0.65452 0.0
C2295 C 0.13586 0.12221 0.64208 0.0
C2296 C 0.07712 0.15046 0.64881 0.0
C2297 C 0.07687 0.16119 0.62627 0.0
C2298 C 0.11803 0.13893 0.63778 0.0
C2299 C 0.09903 0.16206 0.61034 0.0
C2300 C 0.16457 0.13122 0.6308 0.0
C2301 C 0.13467 0.07586 0.65634 0.0
N2302 N 0.11862 0.15092 0.61636 0.0
N2303 N 0.12224 0.09522 0.65491 0.0
H2304 H 0.60642 0.44792 0.45411 0.0
H2305 H 0.77571 0.47793 0.49407 0.0
H2306 H 0.61842 0.3831 0.4973 0.0
H2307 H 0.75781 0.50123 0.42584 0.0
H2308 H 0.72025 0.45816 0.50412 0.0
H2309 H 0.66406 0.48256 0.45303 0.0
C2310 C 0.62114 0.4418 0.46434 0.0
C2311 C 0.60774 0.41295 0.47618 0.0
C2312 C 0.72871 0.46827 0.48714 0.0
C2313 C 0.67342 0.45207 0.47475 0.0
C2314 C 0.7604 0.47977 0.48139 0.0
C2315 C 0.77145 0.49116 0.45899 0.0
C2316 C 0.70802 0.46875 0.47057 0.0
C2317 C 0.75029 0.49253 0.44325 0.0
C2318 C 0.65398 0.46131 0.46342 0.0
C2319 C 0.62788 0.40548 0.48841 0.0
N2320 N 0.71955 0.48133 0.4493 0.0
N2321 N 0.65976 0.42485 0.48731 0.0
H2322 H 0.5169 0.2568 0.42865 0.0
H2323 H 0.64084 0.23725 0.49787 0.0
H2324 H 0.54714 0.30073 0.49563 0.0
H2325 H 0.57186 0.16074 0.45632 0.0
H2326 H 0.60618 0.26005 0.49892 0.0
H2327 H 0.5357 0.22041 0.43878 0.0
C2328 C 0.52686 0.25833 0.44566 0.0
C2329 C 0.53049 0.28187 0.46128 0.0
C2330 C 0.59809 0.23769 0.49026 0.0
C2331 C 0.55282 0.2409 0.47275 0.0
C2332 C 0.61773 0.22455 0.48989 0.0
C2333 C 0.60878 0.19675 0.47747 0.0
C2334 C 0.56999 0.22358 0.4773 0.0
C2335 C 0.57919 0.18183 0.46655 0.0
C2336 C 0.53755 0.23754 0.45146 0.0
C2337 C 0.54372 0.28287 0.48309 0.0
N2338 N 0.56116 0.19581 0.46622 0.0
N2339 N 0.55507 0.26319 0.48797 0.0
H2340 H 0.71804 0.24691 0.49569 0.0
H2341 H 0.86044 0.41451 0.45569 0.0
H2342 H 0.76333 0.26253 0.42908 0.0
H2343 H 0.78192 0.40446 0.49604 0.0
H2344 H 0.83694 0.35689 0.45572 0.0
H2345 H 0.75329 0.30266 0.50519 0.0
C2346 C 0.736 0.26179 0.48332 0.0
C2347 C 0.73767 0.24999 0.46149 0.0
C2348 C 0.82546 0.3674 0.46527 0.0
C2349 C 0.77816 0.31376 0.47242 0.0
C2350 C 0.83909 0.40025 0.46558 0.0
C2351 C 0.82338 0.41422 0.47631 0.0
C2352 C 0.79617 0.34847 0.47606 0.0
C2353 C 0.79508 0.3946 0.48804 0.0
C2354 C 0.75592 0.29365 0.48872 0.0
C2355 C 0.76115 0.27063 0.44605 0.0
N2356 N 0.78228 0.36269 0.48753 0.0
N2357 N 0.78041 0.30151 0.45177 0.0
H2358 H 0.81709 0.43761 0.65166 0.0
H2359 H 0.73242 0.27347 0.66029 0.0
H2360 H 0.85762 0.42623 0.71464 0.0
H2361 H 0.81693 0.28303 0.69119 0.0
H2362 H 0.76017 0.33064 0.65379 0.0
H2363 H 0.79945 0.38258 0.64152 0.0
C2364 C 0.82307 0.42382 0.66305 0.0
C2365 C 0.8388 0.4365 0.68412 0.0
C2366 C 0.7731 0.32008 0.66104 0.0
C2367 C 0.81831 0.37351 0.67272 0.0
C2368 C 0.7573 0.28732 0.66452 0.0
C2369 C 0.77242 0.27351 0.67627 0.0
C2370 C 0.80399 0.33892 0.66967 0.0
C2371 C 0.80444 0.2928 0.68206 0.0
C2372 C 0.8126 0.3923 0.65737 0.0
C2373 C 0.84549 0.41739 0.69832 0.0
N2374 N 0.81883 0.32455 0.67936 0.0
N2375 N 0.83515 0.38687 0.69238 0.0
H2376 H 0.58563 0.42701 0.69241 0.0
H2377 H 0.74613 0.43048 0.6594 0.0
H2378 H 0.60693 0.35271 0.70445 0.0
H2379 H 0.74953 0.51536 0.68338 0.0
H2380 H 0.68857 0.40291 0.66174 0.0
H2381 H 0.64029 0.4607 0.67784 0.0
C2382 C 0.60163 0.41778 0.69192 0.0
C2383 C 0.59175 0.3871 0.69993 0.0
C2384 C 0.7018 0.42784 0.66582 0.0
C2385 C 0.65326 0.42472 0.68256 0.0
C2386 C 0.73462 0.44369 0.66412 0.0
C2387 C 0.75256 0.47526 0.67101 0.0
C2388 C 0.68666 0.44349 0.67478 0.0
C2389 C 0.73645 0.49111 0.67755 0.0
C2390 C 0.63265 0.43691 0.68359 0.0
C2391 C 0.61342 0.37625 0.69879 0.0
N2392 N 0.70431 0.47487 0.67976 0.0
N2393 N 0.64284 0.39486 0.69019 0.0
H2394 H 0.68485 0.26939 0.69502 0.0
H2395 H 0.50753 0.22424 0.70088 0.0
H2396 H 0.61055 0.17207 0.69767 0.0
H2397 H 0.57897 0.31196 0.67135 0.0
H2398 H 0.54307 0.20293 0.69687 0.0
H2399 H 0.646 0.28465 0.68474 0.0
C2400 C 0.6603 0.25118 0.69341 0.0
C2401 C 0.65084 0.21941 0.69756 0.0
C2402 C 0.5507 0.22651 0.69061 0.0
C2403 C 0.6061 0.23684 0.68574 0.0
C2404 C 0.53031 0.23858 0.6927 0.0
C2405 C 0.54037 0.26988 0.68642 0.0
C2406 C 0.5817 0.24621 0.68279 0.0
C2407 C 0.57026 0.28766 0.67627 0.0
C2408 C 0.63816 0.25991 0.68729 0.0
C2409 C 0.61879 0.19682 0.69478 0.0
N2410 N 0.59021 0.27585 0.67532 0.0
N2411 N 0.59746 0.20602 0.68943 0.0
H2412 H 0.75165 0.23191 0.1956 0.0
H2413 H 0.58354 0.20524 0.15574 0.0
H2414 H 0.74096 0.29871 0.15382 0.0
H2415 H 0.60042 0.17865 0.2231 0.0
H2416 H 0.63894 0.22464 0.14566 0.0
H2417 H 0.69399 0.19742 0.19582 0.0
C2418 C 0.73723 0.23851 0.18546 0.0
C2419 C 0.75099 0.26786 0.17429 0.0
C2420 C 0.63025 0.21387 0.16243 0.0
C2421 C 0.68527 0.22894 0.1748 0.0
C2422 C 0.5986 0.20258 0.16818 0.0
C2423 C 0.58732 0.19041 0.19039 0.0
C2424 C 0.65065 0.21239 0.17878 0.0
C2425 C 0.60815 0.18798 0.20586 0.0
C2426 C 0.70437 0.21908 0.1859 0.0
C2427 C 0.73122 0.27595 0.1622 0.0
N2428 N 0.63885 0.19902 0.19981 0.0
N2429 N 0.6993 0.25667 0.16287 0.0
H2430 H 0.78579 0.52046 0.19501 0.0
H2431 H 0.8122 0.37893 0.1557 0.0
H2432 H 0.7181 0.44221 0.15408 0.0
H2433 H 0.83855 0.42218 0.22319 0.0
H2434 H 0.79238 0.41453 0.14578 0.0
H2435 H 0.81996 0.49701 0.19556 0.0
C2436 C 0.77892 0.49919 0.18512 0.0
C2437 C 0.74941 0.48349 0.17409 0.0
C2438 C 0.80316 0.41663 0.16255 0.0
C2439 C 0.78801 0.45642 0.17494 0.0
C2440 C 0.81468 0.3965 0.16822 0.0
C2441 C 0.82697 0.39747 0.19039 0.0
C2442 C 0.80454 0.43839 0.17895 0.0
C2443 C 0.82915 0.42052 0.20596 0.0
C2444 C 0.79816 0.48561 0.18575 0.0
C2445 C 0.74099 0.45532 0.16233 0.0
N2446 N 0.81793 0.44 0.19998 0.0
N2447 N 0.76012 0.44258 0.16313 0.0
H2448 H 0.57628 0.27651 0.15299 0.0
H2449 H 0.63525 0.43813 0.15458 0.0
H2450 H 0.50094 0.2695 0.19572 0.0
H2451 H 0.59873 0.41631 0.22425 0.0
H2452 H 0.6004 0.38287 0.14385 0.0
H2453 H 0.59939 0.33393 0.15188 0.0
C2454 C 0.56381 0.28701 0.16117 0.0
C2455 C 0.53623 0.26828 0.17389 0.0
C2456 C 0.59977 0.39031 0.16139 0.0
C2457 C 0.56327 0.33398 0.17378 0.0
C2458 C 0.6194 0.42194 0.16752 0.0
C2459 C 0.62024 0.43189 0.19048 0.0
C2460 C 0.58053 0.36848 0.17826 0.0
C2461 C 0.59914 0.40966 0.20643 0.0
C2462 C 0.57709 0.31981 0.1607 0.0
C2463 C 0.52177 0.28313 0.18519 0.0
N2464 N 0.58029 0.37899 0.20006 0.0
N2465 N 0.5359 0.31518 0.18539 0.0
H2466 H 0.54189 0.2481 0.0005 0.0
H2467 H 0.63393 0.41161 0.99115 0.0
H2468 H 0.49686 0.26278 0.94145 0.0
H2469 H 0.549 0.40785 0.96658 0.0
H2470 H 0.60376 0.35453 -0.00203 0.0
H2471 H 0.56374 0.30362 0.01127 0.0
C2472 C 0.53588 0.26275 0.99013 0.0
C2473 C 0.51761 0.25079 0.96992 0.0
C2474 C 0.59138 0.36638 -0.0079 0.0
C2475 C 0.54289 0.31438 0.98206 0.0
C2476 C 0.60861 0.3991 0.98847 0.0
C2477 C 0.5939 0.41444 0.97834 0.0
C2478 C 0.55947 0.34912 0.98525 0.0
C2479 C 0.56117 0.39686 0.97447 0.0
C2480 C 0.54872 0.29454 -0.00383 0.0
C2481 C 0.51093 0.27102 0.95707 0.0
N2482 N 0.54529 0.36506 0.97723 0.0
N2483 N 0.52364 0.3018 0.96331 0.0
H2484 H 0.75538 0.24883 0.92895 0.0
H2485 H 0.61468 0.25539 0.98546 0.0
H2486 H 0.76991 0.30335 0.99108 0.0
H2487 H 0.59976 0.16681 0.95888 0.0
H2488 H 0.67187 0.2754 0.9859 0.0
H2489 H 0.6984 0.21948 0.93731 0.0
C2490 C 0.74673 0.25415 0.94459 0.0
C2491 C 0.76758 0.27855 0.95935 0.0
C2492 C 0.65604 0.25133 0.98049 0.0
C2493 C 0.70241 0.24583 0.96855 0.0
C2494 C 0.62347 0.2399 0.98036 0.0
C2495 C 0.60256 0.20921 0.97264 0.0
C2496 C 0.66785 0.2324 0.97191 0.0
C2497 C 0.61515 0.19035 0.9655 0.0
C2498 C 0.71424 0.23744 0.94932 0.0
C2499 C 0.75489 0.28461 0.97927 0.0
N2500 N 0.64704 0.20244 0.96484 0.0
N2501 N 0.72315 0.26889 0.983 0.0
H2502 H 0.75586 0.51189 0.94966 0.0
H2503 H 0.7651 0.35658 0.9788 0.0
H2504 H 0.67647 0.41796 0.95834 0.0
H2505 H 0.84675 0.44298 0.95695 0.0
H2506 H 0.73476 0.38369 0.98044 0.0
H2507 H 0.79156 0.49157 0.95975 0.0
C2508 C 0.74597 0.48719 0.9539 0.0
C2509 C 0.71319 0.46651 0.95279 0.0
C2510 C 0.75949 0.39707 0.97574 0.0
C2511 C 0.75353 0.44334 0.96467 0.0
C2512 C 0.77689 0.38163 0.97513 0.0
C2513 C 0.8085 0.39772 0.96809 0.0
C2514 C 0.77353 0.42875 0.96868 0.0
C2515 C 0.82253 0.42998 0.9629 0.0
C2516 C 0.76628 0.47561 0.95962 0.0
C2517 C 0.70158 0.43472 0.95852 0.0
N2518 N 0.8048 0.44441 0.96293 0.0
N2519 N 0.72162 0.42422 0.96413 0.0
H2520 H 0.28394 0.71318 0.83188 0.0
H2521 H 0.42407 0.85031 0.76636 0.0
H2522 H 0.26996 0.78173 0.79528 0.0
H2523 H 0.43974 0.81571 0.83074 0.0
H2524 H 0.36781 0.82606 0.77619 0.0
H2525 H 0.34104 0.75034 0.83218 0.0
C2526 C 0.29285 0.73657 0.82473 0.0
C2527 C 0.27219 0.74473 0.81408 0.0
C2528 C 0.38374 0.82444 0.7884 0.0
C2529 C 0.33761 0.78664 0.81303 0.0
C2530 C 0.41587 0.83832 0.78281 0.0
C2531 C 0.43681 0.83517 0.79773 0.0
C2532 C 0.37223 0.80652 0.80875 0.0
C2533 C 0.42466 0.81902 0.81874 0.0
C2534 C 0.32545 0.75767 0.82469 0.0
C2535 C 0.28506 0.7749 0.80422 0.0
N2536 N 0.39316 0.80476 0.82337 0.0
N2537 N 0.31699 0.79449 0.80345 0.0
H2538 H 0.21594 0.63924 0.83087 0.0
H2539 H 0.22742 0.49237 0.78353 0.0
H2540 H 0.16827 0.58443 0.77041 0.0
H2541 H 0.30086 0.56627 0.82439 0.0
H2542 H 0.19391 0.51532 0.79031 0.0
H2543 H 0.23559 0.60285 0.83904 0.0
C2544 C 0.20861 0.61886 0.81983 0.0
C2545 C 0.1904 0.61473 0.79993 0.0
C2546 C 0.21702 0.52612 0.79833 0.0
C2547 C 0.21286 0.57331 0.80912 0.0
C2548 C 0.23604 0.51285 0.79467 0.0
C2549 C 0.26701 0.5276 0.80329 0.0
C2550 C 0.2291 0.55459 0.81053 0.0
C2551 C 0.27712 0.5542 0.81747 0.0
C2552 C 0.22011 0.59835 0.82438 0.0
C2553 C 0.1822 0.58839 0.78592 0.0
N2554 N 0.25841 0.5673 0.82028 0.0
N2555 N 0.19364 0.56882 0.79069 0.0
H2556 H 0.42792 0.74357 0.81726 0.0
H2557 H 0.43572 0.59378 0.77626 0.0
H2558 H 0.51643 0.74953 0.80016 0.0
H2559 H 0.35623 0.58895 0.81206 0.0
H2560 H 0.4678 0.64968 0.78772 0.0
H2561 H 0.403 0.68621 0.81904 0.0
C2562 C 0.4423 0.73272 0.81464 0.0
C2563 C 0.47429 0.75119 0.80892 0.0
C2564 C 0.44356 0.63614 0.79355 0.0
C2565 C 0.44568 0.68535 0.80969 0.0
C2566 C 0.42537 0.60427 0.7871 0.0
C2567 C 0.39342 0.58691 0.79335 0.0
C2568 C 0.4294 0.65055 0.80605 0.0
C2569 C 0.38083 0.60163 0.80698 0.0
C2570 C 0.42806 0.69993 0.81545 0.0
C2571 C 0.49179 0.73601 0.80508 0.0
N2572 N 0.39867 0.63257 0.81263 0.0
N2573 N 0.47711 0.70388 0.80505 0.0
H2574 H 0.47492 0.77361 0.98401 0.0
H2575 H 0.38708 0.60881 0.98967 0.0
H2576 H 0.51056 0.75818 0.048 0.0
H2577 H 0.47054 0.61633 0.02088 0.0
H2578 H 0.41549 0.66626 0.98428 0.0
H2579 H 0.45653 0.71873 0.97289 0.0
C2580 C 0.47955 0.75891 -0.00452 0.0
C2581 C 0.49416 0.77041 0.01706 0.0
C2582 C 0.42804 0.65518 0.99135 0.0
C2583 C 0.47309 0.70776 0.00444 0.0
C2584 C 0.41188 0.62232 -0.00582 0.0
C2585 C 0.42652 0.60791 0.00575 0.0
C2586 C 0.45873 0.67341 0.00045 0.0
C2587 C 0.45847 0.62664 0.01187 0.0
C2588 C 0.46874 0.72754 0.98919 0.0
C2589 C 0.49925 0.75023 0.0313 0.0
N2590 N 0.47317 0.65848 0.00984 0.0
N2591 N 0.48871 0.7199 0.02474 0.0
H2592 H 0.24983 0.71712 0.989 0.0
H2593 H 0.41754 0.85857 0.02999 0.0
H2594 H 0.26656 0.75842 0.05718 0.0
H2595 H 0.40759 0.7851 0.98387 0.0
H2596 H 0.35978 0.83404 0.03143 0.0
H2597 H 0.30509 0.75376 0.97906 0.0
C2598 C 0.26485 0.73441 0.00171 0.0
C2599 C 0.25349 0.73455 0.02405 0.0
C2600 C 0.37029 0.82394 0.02035 0.0
C2601 C 0.31678 0.7767 0.01259 0.0
C2602 C 0.40321 0.8382 0.0192 0.0
C2603 C 0.41729 0.82417 0.00638 0.0
C2604 C 0.35137 0.79567 0.00835 0.0
C2605 C 0.39762 0.79702 -0.0065 0.0
C2606 C 0.29644 0.75517 -0.00398 0.0
C2607 C 0.27431 0.75734 0.03982 0.0
N2608 N 0.36564 0.78353 -0.0051 0.0
N2609 N 0.30496 0.77742 0.03382 0.0
H2610 H 0.24615 0.64707 0.99039 0.0
H2611 H 0.26221 0.49896 0.03066 0.0
H2612 H 0.17028 0.56676 0.0245 0.0
H2613 H 0.33918 0.59262 0.01665 0.0
H2614 H 0.2247 0.51651 0.0191 0.0
H2615 H 0.27607 0.61941 0.98873 0.0
C2616 C 0.23519 0.62295 -0.00349 0.0
C2617 C 0.20548 0.60892 0.00715 0.0
C2618 C 0.24985 0.53297 0.01828 0.0
C2619 C 0.24032 0.57766 0.0066 0.0
C2620 C 0.27118 0.52296 0.02482 0.0
C2621 C 0.30381 0.54447 0.02486 0.0
C2622 C 0.26142 0.56442 0.01125 0.0
C2623 C 0.31423 0.57534 0.01718 0.0
C2624 C 0.25249 0.60734 -0.00402 0.0
C2625 C 0.19283 0.57804 0.01565 0.0
N2626 N 0.29322 0.58431 0.01076 0.0
N2627 N 0.21053 0.56359 0.01558 0.0
H2628 H 0.41344 0.62541 0.49237 0.0
H2629 H 0.26343 0.49558 0.55252 0.0
H2630 H 0.4118 0.54454 0.52312 0.0
H2631 H 0.25364 0.54031 0.4913 0.0
H2632 H 0.31833 0.51356 0.54158 0.0
H2633 H 0.35552 0.59499 0.48937 0.0
C2634 C 0.40107 0.60076 0.49731 0.0
C2635 C 0.41739 0.58742 0.50796 0.0
C2636 C 0.30395 0.51889 0.5303 0.0
C2637 C 0.35137 0.5532 0.50578 0.0
C2638 C 0.27266 0.50867 0.53658 0.0
C2639 C 0.25388 0.5163 0.52278 0.0
C2640 C 0.3169 0.53775 0.51047 0.0
C2641 C 0.26718 0.53361 0.50235 0.0
C2642 C 0.36797 0.58355 0.49596 0.0
C2643 C 0.40005 0.55563 0.51474 0.0
N2644 N 0.29804 0.54432 0.49706 0.0
N2645 N 0.36798 0.53992 0.51418 0.0
H2646 H 0.47048 0.85341 0.51788 0.0
H2647 H 0.42659 0.67649 0.51987 0.0
H2648 H 0.37898 0.77717 0.49825 0.0
H2649 H 0.52353 0.75196 0.52107 0.0
H2650 H 0.4103 0.71353 0.50727 0.0
H2651 H 0.49251 0.81869 0.51279 0.0
C2652 C 0.45533 0.82973 0.51137 0.0
C2653 C 0.42281 0.8181 0.50852 0.0
C2654 C 0.4352 0.7221 0.50998 0.0
C2655 C 0.44751 0.77776 0.50377 0.0
C2656 C 0.44453 0.70096 0.51741 0.0
C2657 C 0.47646 0.71127 0.52195 0.0
C2658 C 0.4578 0.75414 0.50748 0.0
C2659 C 0.49866 0.74311 0.51796 0.0
C2660 C 0.46784 0.80977 0.50878 0.0
C2661 C 0.40415 0.78714 0.5005 0.0
N2662 N 0.48885 0.76359 0.51138 0.0
N2663 N 0.41657 0.76777 0.49903 0.0
H2664 H 0.24919 0.60644 0.49305 0.0
H2665 H 0.27648 0.75425 0.56536 0.0
H2666 H 0.17715 0.60266 0.53793 0.0
H2667 H 0.32507 0.76433 0.50106 0.0
H2668 H 0.23912 0.69882 0.5555 0.0
H2669 H 0.27661 0.66429 0.49454 0.0
C2670 C 0.23849 0.61789 0.5024 0.0
C2671 C 0.21043 0.59987 0.51481 0.0
C2672 C 0.25762 0.7133 0.54335 0.0
C2673 C 0.24258 0.6659 0.51787 0.0
C2674 C 0.27885 0.74487 0.54898 0.0
C2675 C 0.3037 0.76371 0.53393 0.0
C2676 C 0.26183 0.70038 0.52279 0.0
C2677 C 0.30619 0.75043 0.51309 0.0
C2678 C 0.2543 0.65088 0.50351 0.0
C2679 C 0.19827 0.61579 0.52758 0.0
N2680 N 0.28582 0.7195 0.50826 0.0
N2681 N 0.21468 0.64786 0.52914 0.0
H2682 H 0.17833 0.59531 0.261 0.0
H2683 H 0.30299 0.73933 0.32959 0.0
H2684 H 0.20989 0.58228 0.32763 0.0
H2685 H 0.23418 0.74658 0.28767 0.0
H2686 H 0.26812 0.68192 0.33106 0.0
H2687 H 0.197 0.6505 0.27107 0.0
C2688 C 0.18854 0.60388 0.27794 0.0
C2689 C 0.19261 0.58416 0.29346 0.0
C2690 C 0.26011 0.69613 0.32223 0.0
C2691 C 0.21479 0.64748 0.30485 0.0
C2692 C 0.27985 0.72889 0.32163 0.0
C2693 C 0.27104 0.74763 0.30896 0.0
C2694 C 0.23201 0.68203 0.30926 0.0
C2695 C 0.24142 0.73291 0.29808 0.0
C2696 C 0.19916 0.63536 0.2837 0.0
C2697 C 0.20614 0.59658 0.31516 0.0
N2698 N 0.22328 0.7009 0.29798 0.0
N2699 N 0.21741 0.62761 0.32001 0.0
H2700 H 0.44017 0.63439 0.32508 0.0
H2701 H 0.27033 0.49557 0.28551 0.0
H2702 H 0.42315 0.58978 0.25808 0.0
H2703 H 0.28326 0.57414 0.32707 0.0
H2704 H 0.32791 0.51795 0.28458 0.0
H2705 H 0.38431 0.60028 0.33462 0.0
C2706 C 0.42493 0.61687 0.31257 0.0
C2707 C 0.43643 0.61511 0.29063 0.0
C2708 C 0.31804 0.5297 0.29455 0.0
C2709 C 0.37243 0.57586 0.30166 0.0
C2710 C 0.28525 0.51673 0.29539 0.0
C2711 C 0.27212 0.53276 0.3068 0.0
C2712 C 0.33774 0.55864 0.3055 0.0
C2713 C 0.29249 0.56077 0.31853 0.0
C2714 C 0.393 0.59757 0.31803 0.0
C2715 C 0.41532 0.59208 0.27512 0.0
N2716 N 0.32433 0.5729 0.31753 0.0
N2717 N 0.38431 0.57344 0.28089 0.0
H2718 H 0.52227 0.77931 0.27963 0.0
H2719 H 0.38137 0.80385 0.32489 0.0
H2720 H 0.44792 0.71242 0.32377 0.0
H2721 H 0.42505 0.83495 0.25792 0.0
H2722 H 0.41693 0.78324 0.333 0.0
H2723 H 0.4981 0.81279 0.28044 0.0
C2724 C 0.50162 0.77241 0.29034 0.0
C2725 C 0.48738 0.74348 0.30208 0.0
C2726 C 0.41911 0.79517 0.31675 0.0
C2727 C 0.45931 0.78119 0.30269 0.0
C2728 C 0.39905 0.80719 0.31216 0.0
C2729 C 0.40021 0.82112 0.29065 0.0
C2730 C 0.44094 0.79765 0.29992 0.0
C2731 C 0.42329 0.82431 0.27468 0.0
C2732 C 0.48763 0.79128 0.29053 0.0
C2733 C 0.45994 0.73493 0.31494 0.0
N2734 N 0.44266 0.81259 0.2796 0.0
N2735 N 0.44669 0.75366 0.31486 0.0
loop_
_geom_bond_atom_site_label_1
_geom_bond_atom_site_label_2
_geom_bond_distance
_geom_bond_site_symmetry_2
_ccdc_geom_bond_type
Fe0 O2 1.918 . S
Fe0 O5 1.997 . S
Fe0 O6 2.002 . S
Fe0 O11 1.976 . S
Fe0 O14 1.996 . S
Fe1 O2 1.918 . S
Fe1 O9 1.997 . S
Fe1 O12 1.996 . S
Fe1 O16 1.976 . S
Fe1 O19 2.002 . S
O2 Fe0 1.918 . S
O2 Fe1 1.918 . S
O2 Fe3 1.918 . S
Fe3 O2 1.918 . S
Fe3 O4 2.002 . S
Fe3 O13 1.976 . S
Fe3 O17 1.996 . S
Fe3 O20 1.997 . S
O4 Fe3 2.002 . S
O4 C21 1.295 . S
O5 Fe0 1.997 . S
O5 C21 1.235 . S
O6 Fe0 2.002 . S
O6 C7 1.295 . S
C7 O6 1.295 . S
C7 O9 1.235 . S
C8 O13 1.287 . S
C8 O14 1.255 . S
O9 Fe1 1.997 . S
O9 C7 1.235 . S
C10 O16 1.287 . S
C10 O17 1.255 . S
O11 Fe0 1.976 . S
O11 C18 1.287 . S
O12 Fe1 1.996 . S
O12 C18 1.255 . S
O13 Fe3 1.976 . S
O13 C8 1.287 . S
O14 Fe0 1.996 . S
O14 C8 1.255 . S
C15 O19 1.295 . S
C15 O20 1.235 . S
O16 Fe1 1.976 . S
O16 C10 1.287 . S
O17 Fe3 1.996 . S
O17 C10 1.255 . S
C18 O11 1.287 . S
C18 O12 1.255 . S
O19 Fe1 2.002 . S
O19 C15 1.295 . S
O20 Fe3 1.997 . S
O20 C15 1.235 . S
C21 O4 1.295 . S
C21 O5 1.235 . S
Fe22 O24 1.918 . S
Fe22 O27 1.997 . S
Fe22 O28 2.002 1_545 S
Fe22 O33 1.976 . S
Fe22 O36 1.996 . S
Fe23 O24 1.918 . S
Fe23 O31 1.997 1_545 S
Fe23 O34 1.996 . S
Fe23 O38 1.976 . S
Fe23 O41 2.002 1_545 S
O24 Fe22 1.918 . S
O24 Fe23 1.918 . S
O24 Fe25 1.918 . S
Fe25 O24 1.918 . S
Fe25 O26 2.002 . S
Fe25 O35 1.976 . S
Fe25 O39 1.996 . S
Fe25 O42 1.997 . S
O26 Fe25 2.002 . S
O26 C43 1.295 1_545 S
O27 Fe22 1.997 . S
O27 C43 1.235 1_545 S
O28 Fe22 2.002 1_565 S
O28 C29 1.295 . S
C29 O28 1.295 . S
C29 O31 1.235 . S
C30 O35 1.287 . S
C30 O36 1.255 . S
O31 Fe23 1.997 1_565 S
O31 C29 1.235 . S
C32 O38 1.287 . S
C32 O39 1.255 . S
O33 Fe22 1.976 . S
O33 C40 1.287 . S
O34 Fe23 1.996 . S
O34 C40 1.255 . S
O35 Fe25 1.976 . S
O35 C30 1.287 . S
O36 Fe22 1.996 . S
O36 C30 1.255 . S
C37 O41 1.295 . S
C37 O42 1.235 1_565 S
O38 Fe23 1.976 . S
O38 C32 1.287 . S
O39 Fe25 1.996 . S
O39 C32 1.255 . S
C40 O33 1.287 . S
C40 O34 1.255 . S
O41 Fe23 2.002 1_565 S
O41 C37 1.295 . S
O42 Fe25 1.997 . S
O42 C37 1.235 1_545 S
C43 O26 1.295 1_565 S
C43 O27 1.235 1_565 S
Fe44 O46 1.918 . S
Fe44 O49 1.997 . S
Fe44 O50 2.002 . S
Fe44 O55 1.976 . S
Fe44 O58 1.996 . S
Fe45 O46 1.918 . S
Fe45 O53 1.997 . S
Fe45 O56 1.996 . S
Fe45 O60 1.976 . S
Fe45 O63 2.002 1_655 S
O46 Fe44 1.918 . S
O46 Fe45 1.918 . S
O46 Fe47 1.918 . S
Fe47 O46 1.918 . S
Fe47 O48 2.002 1_655 S
Fe47 O57 1.976 . S
Fe47 O61 1.996 . S
Fe47 O64 1.997 1_655 S
O48 Fe47 2.002 1_455 S
O48 C65 1.295 . S
O49 Fe44 1.997 . S
O49 C65 1.235 1_655 S
O50 Fe44 2.002 . S
O50 C51 1.295 1_655 S
C51 O50 1.295 1_455 S
C51 O53 1.235 1_455 S
C52 O57 1.287 . S
C52 O58 1.255 . S
O53 Fe45 1.997 . S
O53 C51 1.235 1_655 S
C54 O60 1.287 . S
C54 O61 1.255 . S
O55 Fe44 1.976 . S
O55 C62 1.287 . S
O56 Fe45 1.996 . S
O56 C62 1.255 . S
O57 Fe47 1.976 . S
O57 C52 1.287 . S
O58 Fe44 1.996 . S
O58 C52 1.255 . S
C59 O63 1.295 . S
C59 O64 1.235 . S
O60 Fe45 1.976 . S
O60 C54 1.287 . S
O61 Fe47 1.996 . S
O61 C54 1.255 . S
C62 O55 1.287 . S
C62 O56 1.255 . S
O63 Fe45 2.002 1_455 S
O63 C59 1.295 . S
O64 Fe47 1.997 1_455 S
O64 C59 1.235 . S
C65 O48 1.295 . S
C65 O49 1.235 1_455 S
Fe66 O68 1.918 . S
Fe66 O71 1.997 . S
Fe66 O72 2.002 . S
Fe66 O77 1.976 . S
Fe66 O80 1.996 . S
Fe67 O68 1.918 . S
Fe67 O75 1.997 . S
Fe67 O78 1.996 . S
Fe67 O82 1.976 . S
Fe67 O85 2.002 . S
O68 Fe66 1.918 . S
O68 Fe67 1.918 . S
O68 Fe69 1.918 . S
Fe69 O68 1.918 . S
Fe69 O70 2.002 . S
Fe69 O79 1.976 . S
Fe69 O83 1.996 . S
Fe69 O86 1.997 . S
O70 Fe69 2.002 . S
O70 C87 1.295 . S
O71 Fe66 1.997 . S
O71 C87 1.235 . S
O72 Fe66 2.002 . S
O72 C73 1.295 . S
C73 O72 1.295 . S
C73 O75 1.235 . S
C74 O79 1.287 . S
C74 O80 1.255 . S
O75 Fe67 1.997 . S
O75 C73 1.235 . S
C76 O82 1.287 . S
C76 O83 1.255 . S
O77 Fe66 1.976 . S
O77 C84 1.287 . S
O78 Fe67 1.996 . S
O78 C84 1.255 . S
O79 Fe69 1.976 . S
O79 C74 1.287 . S
O80 Fe66 1.996 . S
O80 C74 1.255 . S
C81 O85 1.295 . S
C81 O86 1.235 . S
O82 Fe67 1.976 . S
O82 C76 1.287 . S
O83 Fe69 1.996 . S
O83 C76 1.255 . S
C84 O77 1.287 . S
C84 O78 1.255 . S
O85 Fe67 2.002 . S
O85 C81 1.295 . S
O86 Fe69 1.997 . S
O86 C81 1.235 . S
C87 O70 1.295 . S
C87 O71 1.235 . S
Fe88 O90 1.918 . S
Fe88 O93 1.997 . S
Fe88 O94 2.002 1_565 S
Fe88 O99 1.976 . S
Fe88 O102 1.996 . S
Fe89 O90 1.918 . S
Fe89 O97 1.997 1_565 S
Fe89 O100 1.996 . S
Fe89 O104 1.976 . S
Fe89 O107 2.002 1_565 S
O90 Fe88 1.918 . S
O90 Fe89 1.918 . S
O90 Fe91 1.918 . S
Fe91 O90 1.918 . S
Fe91 O92 2.002 . S
Fe91 O101 1.976 . S
Fe91 O105 1.996 . S
Fe91 O108 1.997 . S
O92 Fe91 2.002 . S
O92 C109 1.295 1_565 S
O93 Fe88 1.997 . S
O93 C109 1.235 1_565 S
O94 Fe88 2.002 1_545 S
O94 C95 1.295 . S
C95 O94 1.295 . S
C95 O97 1.235 . S
C96 O101 1.287 . S
C96 O102 1.255 . S
O97 Fe89 1.997 1_545 S
O97 C95 1.235 . S
C98 O104 1.287 . S
C98 O105 1.255 . S
O99 Fe88 1.976 . S
O99 C106 1.287 . S
O100 Fe89 1.996 . S
O100 C106 1.255 . S
O101 Fe91 1.976 . S
O101 C96 1.287 . S
O102 Fe88 1.996 . S
O102 C96 1.255 . S
C103 O107 1.295 . S
C103 O108 1.235 1_545 S
O104 Fe89 1.976 . S
O104 C98 1.287 . S
O105 Fe91 1.996 . S
O105 C98 1.255 . S
C106 O99 1.287 . S
C106 O100 1.255 . S
O107 Fe89 2.002 1_545 S
O107 C103 1.295 . S
O108 Fe91 1.997 . S
O108 C103 1.235 1_565 S
C109 O92 1.295 1_545 S
C109 O93 1.235 1_545 S
Fe110 O112 1.918 . S
Fe110 O115 1.997 . S
Fe110 O116 2.002 1_455 S
Fe110 O121 1.976 . S
Fe110 O124 1.996 . S
Fe111 O112 1.918 . S
Fe111 O119 1.997 1_455 S
Fe111 O122 1.996 . S
Fe111 O126 1.976 . S
Fe111 O129 2.002 1_455 S
O112 Fe110 1.918 . S
O112 Fe111 1.918 . S
O112 Fe113 1.918 . S
Fe113 O112 1.918 . S
Fe113 O114 2.002 . S
Fe113 O123 1.976 . S
Fe113 O127 1.996 . S
Fe113 O130 1.997 . S
O114 Fe113 2.002 . S
O114 C131 1.295 1_455 S
O115 Fe110 1.997 . S
O115 C131 1.235 1_455 S
O116 Fe110 2.002 1_655 S
O116 C117 1.295 . S
C117 O116 1.295 . S
C117 O119 1.235 . S
C118 O123 1.287 . S
C118 O124 1.255 . S
O119 Fe111 1.997 1_655 S
O119 C117 1.235 . S
C120 O126 1.287 . S
C120 O127 1.255 . S
O121 Fe110 1.976 . S
O121 C128 1.287 . S
O122 Fe111 1.996 . S
O122 C128 1.255 . S
O123 Fe113 1.976 . S
O123 C118 1.287 . S
O124 Fe110 1.996 . S
O124 C118 1.255 . S
C125 O129 1.295 . S
C125 O130 1.235 1_655 S
O126 Fe111 1.976 . S
O126 C120 1.287 . S
O127 Fe113 1.996 . S
O127 C120 1.255 . S
C128 O121 1.287 . S
C128 O122 1.255 . S
O129 Fe111 2.002 1_655 S
O129 C125 1.295 . S
O130 Fe113 1.997 . S
O130 C125 1.235 1_455 S
C131 O114 1.295 1_655 S
C131 O115 1.235 1_655 S
Fe132 O134 1.918 . S
Fe132 O137 1.997 . S
Fe132 O138 2.002 . S
Fe132 O143 1.976 . S
Fe132 O146 1.996 . S
Fe133 O134 1.918 . S
Fe133 O141 1.997 . S
Fe133 O144 1.996 . S
Fe133 O148 1.976 . S
Fe133 O151 2.002 . S
O134 Fe132 1.918 . S
O134 Fe133 1.918 . S
O134 Fe135 1.918 . S
Fe135 O134 1.918 . S
Fe135 O136 2.002 . S
Fe135 O145 1.976 . S
Fe135 O149 1.996 . S
Fe135 O152 1.997 . S
O136 Fe135 2.002 . S
O136 C153 1.295 . S
O137 Fe132 1.997 . S
O137 C153 1.235 . S
O138 Fe132 2.002 . S
O138 C139 1.295 . S
C139 O138 1.295 . S
C139 O141 1.235 . S
C140 O145 1.287 . S
C140 O146 1.255 . S
O141 Fe133 1.997 . S
O141 C139 1.235 . S
C142 O148 1.287 . S
C142 O149 1.255 . S
O143 Fe132 1.976 . S
O143 C150 1.287 . S
O144 Fe133 1.996 . S
O144 C150 1.255 . S
O145 Fe135 1.976 . S
O145 C140 1.287 . S
O146 Fe132 1.996 . S
O146 C140 1.255 . S
C147 O151 1.295 . S
C147 O152 1.235 . S
O148 Fe133 1.976 . S
O148 C142 1.287 . S
O149 Fe135 1.996 . S
O149 C142 1.255 . S
C150 O143 1.287 . S
C150 O144 1.255 . S
O151 Fe133 2.002 . S
O151 C147 1.295 . S
O152 Fe135 1.997 . S
O152 C147 1.235 . S
C153 O136 1.295 . S
C153 O137 1.235 . S
Fe154 O156 1.918 . S
Fe154 O159 1.997 . S
Fe154 O160 2.002 1_565 S
Fe154 O165 1.976 . S
Fe154 O168 1.996 . S
Fe155 O156 1.918 . S
Fe155 O163 1.997 1_565 S
Fe155 O166 1.996 . S
Fe155 O170 1.976 . S
Fe155 O173 2.002 1_565 S
O156 Fe154 1.918 . S
O156 Fe155 1.918 . S
O156 Fe157 1.918 . S
Fe157 O156 1.918 . S
Fe157 O158 2.002 . S
Fe157 O167 1.976 . S
Fe157 O171 1.996 . S
Fe157 O174 1.997 . S
O158 Fe157 2.002 . S
O158 C175 1.295 1_565 S
O159 Fe154 1.997 . S
O159 C175 1.235 1_565 S
O160 Fe154 2.002 1_545 S
O160 C161 1.295 . S
C161 O160 1.295 . S
C161 O163 1.235 . S
C162 O167 1.287 . S
C162 O168 1.255 . S
O163 Fe155 1.997 1_545 S
O163 C161 1.235 . S
C164 O170 1.287 . S
C164 O171 1.255 . S
O165 Fe154 1.976 . S
O165 C172 1.287 . S
O166 Fe155 1.996 . S
O166 C172 1.255 . S
O167 Fe157 1.976 . S
O167 C162 1.287 . S
O168 Fe154 1.996 . S
O168 C162 1.255 . S
C169 O173 1.295 . S
C169 O174 1.235 1_545 S
O170 Fe155 1.976 . S
O170 C164 1.287 . S
O171 Fe157 1.996 . S
O171 C164 1.255 . S
C172 O165 1.287 . S
C172 O166 1.255 . S
O173 Fe155 2.002 1_545 S
O173 C169 1.295 . S
O174 Fe157 1.997 . S
O174 C169 1.235 1_565 S
C175 O158 1.295 1_545 S
C175 O159 1.235 1_545 S
Fe176 O178 1.918 . S
Fe176 O181 1.997 1_455 S
Fe176 O182 2.002 1_455 S
Fe176 O187 1.976 . S
Fe176 O190 1.996 . S
Fe177 O178 1.918 . S
Fe177 O185 1.997 . S
Fe177 O188 1.996 . S
Fe177 O192 1.976 . S
Fe177 O195 2.002 . S
O178 Fe176 1.918 . S
O178 Fe177 1.918 . S
O178 Fe179 1.918 . S
Fe179 O178 1.918 . S
Fe179 O180 2.002 1_455 S
Fe179 O189 1.976 . S
Fe179 O193 1.996 . S
Fe179 O196 1.997 . S
O180 Fe179 2.002 1_655 S
O180 C197 1.295 . S
O181 Fe176 1.997 1_655 S
O181 C197 1.235 . S
O182 Fe176 2.002 1_655 S
O182 C183 1.295 . S
C183 O182 1.295 . S
C183 O185 1.235 1_655 S
C184 O189 1.287 . S
C184 O190 1.255 . S
O185 Fe177 1.997 . S
O185 C183 1.235 1_455 S
C186 O192 1.287 . S
C186 O193 1.255 . S
O187 Fe176 1.976 . S
O187 C194 1.287 . S
O188 Fe177 1.996 . S
O188 C194 1.255 . S
O189 Fe179 1.976 . S
O189 C184 1.287 . S
O190 Fe176 1.996 . S
O190 C184 1.255 . S
C191 O195 1.295 1_655 S
C191 O196 1.235 1_655 S
O192 Fe177 1.976 . S
O192 C186 1.287 . S
O193 Fe179 1.996 . S
O193 C186 1.255 . S
C194 O187 1.287 . S
C194 O188 1.255 . S
O195 Fe177 2.002 . S
O195 C191 1.295 1_455 S
O196 Fe179 1.997 . S
O196 C191 1.235 1_455 S
C197 O180 1.295 . S
C197 O181 1.235 . S
Fe198 O200 1.918 . S
Fe198 O203 1.997 . S
Fe198 O204 2.002 . S
Fe198 O209 1.976 . S
Fe198 O212 1.996 . S
Fe199 O200 1.918 . S
Fe199 O207 1.997 . S
Fe199 O210 1.996 . S
Fe199 O214 1.976 . S
Fe199 O217 2.002 . S
O200 Fe198 1.918 . S
O200 Fe199 1.918 . S
O200 Fe201 1.918 . S
Fe201 O200 1.918 . S
Fe201 O202 2.002 . S
Fe201 O211 1.976 . S
Fe201 O215 1.996 . S
Fe201 O218 1.997 . S
O202 Fe201 2.002 . S
O202 C219 1.295 . S
O203 Fe198 1.997 . S
O203 C219 1.235 . S
O204 Fe198 2.002 . S
O204 C205 1.295 . S
C205 O204 1.295 . S
C205 O207 1.235 . S
C206 O211 1.287 . S
C206 O212 1.255 . S
O207 Fe199 1.997 . S
O207 C205 1.235 . S
C208 O214 1.287 . S
C208 O215 1.255 . S
O209 Fe198 1.976 . S
O209 C216 1.287 . S
O210 Fe199 1.996 . S
O210 C216 1.255 . S
O211 Fe201 1.976 . S
O211 C206 1.287 . S
O212 Fe198 1.996 . S
O212 C206 1.255 . S
C213 O217 1.295 . S
C213 O218 1.235 . S
O214 Fe199 1.976 . S
O214 C208 1.287 . S
O215 Fe201 1.996 . S
O215 C208 1.255 . S
C216 O209 1.287 . S
C216 O210 1.255 . S
O217 Fe199 2.002 . S
O217 C213 1.295 . S
O218 Fe201 1.997 . S
O218 C213 1.235 . S
C219 O202 1.295 . S
C219 O203 1.235 . S
Fe220 O222 1.918 . S
Fe220 O225 1.997 . S
Fe220 O226 2.002 1_545 S
Fe220 O231 1.976 . S
Fe220 O234 1.996 . S
Fe221 O222 1.918 . S
Fe221 O229 1.997 1_545 S
Fe221 O232 1.996 . S
Fe221 O236 1.976 . S
Fe221 O239 2.002 1_545 S
O222 Fe220 1.918 . S
O222 Fe221 1.918 . S
O222 Fe223 1.918 . S
Fe223 O222 1.918 . S
Fe223 O224 2.002 . S
Fe223 O233 1.976 . S
Fe223 O237 1.996 . S
Fe223 O240 1.997 . S
O224 Fe223 2.002 . S
O224 C241 1.295 1_545 S
O225 Fe220 1.997 . S
O225 C241 1.235 1_545 S
O226 Fe220 2.002 1_565 S
O226 C227 1.295 . S
C227 O226 1.295 . S
C227 O229 1.235 . S
C228 O233 1.287 . S
C228 O234 1.255 . S
O229 Fe221 1.997 1_565 S
O229 C227 1.235 . S
C230 O236 1.287 . S
C230 O237 1.255 . S
O231 Fe220 1.976 . S
O231 C238 1.287 . S
O232 Fe221 1.996 . S
O232 C238 1.255 . S
O233 Fe223 1.976 . S
O233 C228 1.287 . S
O234 Fe220 1.996 . S
O234 C228 1.255 . S
C235 O239 1.295 . S
C235 O240 1.235 1_565 S
O236 Fe221 1.976 . S
O236 C230 1.287 . S
O237 Fe223 1.996 . S
O237 C230 1.255 . S
C238 O231 1.287 . S
C238 O232 1.255 . S
O239 Fe221 2.002 1_565 S
O239 C235 1.295 . S
O240 Fe223 1.997 . S
O240 C235 1.235 1_545 S
C241 O224 1.295 1_565 S
C241 O225 1.235 1_565 S
Fe242 O244 1.918 . S
Fe242 O247 1.997 . S
Fe242 O248 2.002 1_655 S
Fe242 O253 1.976 . S
Fe242 O256 1.996 . S
Fe243 O244 1.918 . S
Fe243 O251 1.997 1_655 S
Fe243 O254 1.996 . S
Fe243 O258 1.976 . S
Fe243 O261 2.002 1_655 S
O244 Fe242 1.918 . S
O244 Fe243 1.918 . S
O244 Fe245 1.918 . S
Fe245 O244 1.918 . S
Fe245 O246 2.002 . S
Fe245 O255 1.976 . S
Fe245 O259 1.996 . S
Fe245 O262 1.997 . S
O246 Fe245 2.002 . S
O246 C263 1.295 1_655 S
O247 Fe242 1.997 . S
O247 C263 1.235 1_655 S
O248 Fe242 2.002 1_455 S
O248 C249 1.295 . S
C249 O248 1.295 . S
C249 O251 1.235 . S
C250 O255 1.287 . S
C250 O256 1.255 . S
O251 Fe243 1.997 1_455 S
O251 C249 1.235 . S
C252 O258 1.287 . S
C252 O259 1.255 . S
O253 Fe242 1.976 . S
O253 C260 1.287 . S
O254 Fe243 1.996 . S
O254 C260 1.255 . S
O255 Fe245 1.976 . S
O255 C250 1.287 . S
O256 Fe242 1.996 . S
O256 C250 1.255 . S
C257 O261 1.295 . S
C257 O262 1.235 1_455 S
O258 Fe243 1.976 . S
O258 C252 1.287 . S
O259 Fe245 1.996 . S
O259 C252 1.255 . S
C260 O253 1.287 . S
C260 O254 1.255 . S
O261 Fe243 2.002 1_455 S
O261 C257 1.295 . S
O262 Fe245 1.997 . S
O262 C257 1.235 1_655 S
C263 O246 1.295 1_455 S
C263 O247 1.235 1_455 S
Fe264 O266 1.918 . S
Fe264 O269 1.997 . S
Fe264 O270 2.002 . S
Fe264 O275 1.976 . S
Fe264 O278 1.996 . S
Fe265 O266 1.918 . S
Fe265 O273 1.997 . S
Fe265 O276 1.996 . S
Fe265 O280 1.976 . S
Fe265 O283 2.002 . S
O266 Fe264 1.918 . S
O266 Fe265 1.918 . S
O266 Fe267 1.918 . S
Fe267 O266 1.918 . S
Fe267 O268 2.002 . S
Fe267 O277 1.976 . S
Fe267 O281 1.996 . S
Fe267 O284 1.997 . S
O268 Fe267 2.002 . S
O268 C285 1.295 . S
O269 Fe264 1.997 . S
O269 C285 1.235 . S
O270 Fe264 2.002 . S
O270 C271 1.295 . S
C271 O270 1.295 . S
C271 O273 1.235 . S
C272 O277 1.287 . S
C272 O278 1.255 . S
O273 Fe265 1.997 . S
O273 C271 1.235 . S
C274 O280 1.287 . S
C274 O281 1.255 . S
O275 Fe264 1.976 . S
O275 C282 1.287 . S
O276 Fe265 1.996 . S
O276 C282 1.255 . S
O277 Fe267 1.976 . S
O277 C272 1.287 . S
O278 Fe264 1.996 . S
O278 C272 1.255 . S
C279 O283 1.295 . S
C279 O284 1.235 . S
O280 Fe265 1.976 . S
O280 C274 1.287 . S
O281 Fe267 1.996 . S
O281 C274 1.255 . S
C282 O275 1.287 . S
C282 O276 1.255 . S
O283 Fe265 2.002 . S
O283 C279 1.295 . S
O284 Fe267 1.997 . S
O284 C279 1.235 . S
C285 O268 1.295 . S
C285 O269 1.235 . S
Fe286 O288 1.918 . S
Fe286 O291 1.997 . S
Fe286 O292 2.002 . S
Fe286 O297 1.976 . S
Fe286 O300 1.996 . S
Fe287 O288 1.918 . S
Fe287 O295 1.997 . S
Fe287 O298 1.996 . S
Fe287 O302 1.976 . S
Fe287 O305 2.002 . S
O288 Fe286 1.918 . S
O288 Fe287 1.918 . S
O288 Fe289 1.918 . S
Fe289 O288 1.918 . S
Fe289 O290 2.002 . S
Fe289 O299 1.976 . S
Fe289 O303 1.996 . S
Fe289 O306 1.997 . S
O290 Fe289 2.002 . S
O290 C307 1.295 . S
O291 Fe286 1.997 . S
O291 C307 1.235 . S
O292 Fe286 2.002 . S
O292 C293 1.295 . S
C293 O292 1.295 . S
C293 O295 1.235 . S
C294 O299 1.287 . S
C294 O300 1.255 . S
O295 Fe287 1.997 . S
O295 C293 1.235 . S
C296 O302 1.287 . S
C296 O303 1.255 . S
O297 Fe286 1.976 . S
O297 C304 1.287 . S
O298 Fe287 1.996 . S
O298 C304 1.255 . S
O299 Fe289 1.976 . S
O299 C294 1.287 . S
O300 Fe286 1.996 . S
O300 C294 1.255 . S
C301 O305 1.295 . S
C301 O306 1.235 . S
O302 Fe287 1.976 . S
O302 C296 1.287 . S
O303 Fe289 1.996 . S
O303 C296 1.255 . S
C304 O297 1.287 . S
C304 O298 1.255 . S
O305 Fe287 2.002 . S
O305 C301 1.295 . S
O306 Fe289 1.997 . S
O306 C301 1.235 . S
C307 O290 1.295 . S
C307 O291 1.235 . S
Fe308 O310 1.918 . S
Fe308 O313 1.997 . S
Fe308 O314 2.002 . S
Fe308 O319 1.976 . S
Fe308 O322 1.996 . S
Fe309 O310 1.918 . S
Fe309 O317 1.997 . S
Fe309 O320 1.996 . S
Fe309 O324 1.976 . S
Fe309 O327 2.002 . S
O310 Fe308 1.918 . S
O310 Fe309 1.918 . S
O310 Fe311 1.918 . S
Fe311 O310 1.918 . S
Fe311 O312 2.002 . S
Fe311 O321 1.976 . S
Fe311 O325 1.996 . S
Fe311 O328 1.997 . S
O312 Fe311 2.002 . S
O312 C329 1.295 . S
O313 Fe308 1.997 . S
O313 C329 1.235 . S
O314 Fe308 2.002 . S
O314 C315 1.295 . S
C315 O314 1.295 . S
C315 O317 1.235 . S
C316 O321 1.287 . S
C316 O322 1.255 . S
O317 Fe309 1.997 . S
O317 C315 1.235 . S
C318 O324 1.287 . S
C318 O325 1.255 . S
O319 Fe308 1.976 . S
O319 C326 1.287 . S
O320 Fe309 1.996 . S
O320 C326 1.255 . S
O321 Fe311 1.976 . S
O321 C316 1.287 . S
O322 Fe308 1.996 . S
O322 C316 1.255 . S
C323 O327 1.295 . S
C323 O328 1.235 . S
O324 Fe309 1.976 . S
O324 C318 1.287 . S
O325 Fe311 1.996 . S
O325 C318 1.255 . S
C326 O319 1.287 . S
C326 O320 1.255 . S
O327 Fe309 2.002 . S
O327 C323 1.295 . S
O328 Fe311 1.997 . S
O328 C323 1.235 . S
C329 O312 1.295 . S
C329 O313 1.235 . S
Fe330 O332 1.918 . S
Fe330 O335 1.997 . S
Fe330 O336 2.002 . S
Fe330 O341 1.976 . S
Fe330 O344 1.996 . S
Fe331 O332 1.918 . S
Fe331 O339 1.997 . S
Fe331 O342 1.996 . S
Fe331 O346 1.976 . S
Fe331 O349 2.002 . S
O332 Fe330 1.918 . S
O332 Fe331 1.918 . S
O332 Fe333 1.918 . S
Fe333 O332 1.918 . S
Fe333 O334 2.002 . S
Fe333 O343 1.976 . S
Fe333 O347 1.996 . S
Fe333 O350 1.997 . S
O334 Fe333 2.002 . S
O334 C351 1.295 . S
O335 Fe330 1.997 . S
O335 C351 1.235 . S
O336 Fe330 2.002 . S
O336 C337 1.295 . S
C337 O336 1.295 . S
C337 O339 1.235 . S
C338 O343 1.287 . S
C338 O344 1.255 . S
O339 Fe331 1.997 . S
O339 C337 1.235 . S
C340 O346 1.287 . S
C340 O347 1.255 . S
O341 Fe330 1.976 . S
O341 C348 1.287 . S
O342 Fe331 1.996 . S
O342 C348 1.255 . S
O343 Fe333 1.976 . S
O343 C338 1.287 . S
O344 Fe330 1.996 . S
O344 C338 1.255 . S
C345 O349 1.295 . S
C345 O350 1.235 . S
O346 Fe331 1.976 . S
O346 C340 1.287 . S
O347 Fe333 1.996 . S
O347 C340 1.255 . S
C348 O341 1.287 . S
C348 O342 1.255 . S
O349 Fe331 2.002 . S
O349 C345 1.295 . S
O350 Fe333 1.997 . S
O350 C345 1.235 . S
C351 O334 1.295 . S
C351 O335 1.235 . S
Fe352 O354 1.918 . S
Fe352 O357 1.997 . S
Fe352 O358 2.002 . S
Fe352 O363 1.976 . S
Fe352 O366 1.996 . S
Fe353 O354 1.918 . S
Fe353 O361 1.997 . S
Fe353 O364 1.996 . S
Fe353 O368 1.976 . S
Fe353 O371 2.002 . S
O354 Fe352 1.918 . S
O354 Fe353 1.918 . S
O354 Fe355 1.918 . S
Fe355 O354 1.918 . S
Fe355 O356 2.002 . S
Fe355 O365 1.976 . S
Fe355 O369 1.996 . S
Fe355 O372 1.997 . S
O356 Fe355 2.002 . S
O356 C373 1.295 . S
O357 Fe352 1.997 . S
O357 C373 1.235 . S
O358 Fe352 2.002 . S
O358 C359 1.295 . S
C359 O358 1.295 . S
C359 O361 1.235 . S
C360 O365 1.287 . S
C360 O366 1.255 . S
O361 Fe353 1.997 . S
O361 C359 1.235 . S
C362 O368 1.287 . S
C362 O369 1.255 . S
O363 Fe352 1.976 . S
O363 C370 1.287 . S
O364 Fe353 1.996 . S
O364 C370 1.255 . S
O365 Fe355 1.976 . S
O365 C360 1.287 . S
O366 Fe352 1.996 . S
O366 C360 1.255 . S
C367 O371 1.295 . S
C367 O372 1.235 . S
O368 Fe353 1.976 . S
O368 C362 1.287 . S
O369 Fe355 1.996 . S
O369 C362 1.255 . S
C370 O363 1.287 . S
C370 O364 1.255 . S
O371 Fe353 2.002 . S
O371 C367 1.295 . S
O372 Fe355 1.997 . S
O372 C367 1.235 . S
C373 O356 1.295 . S
C373 O357 1.235 . S
Fe374 O376 1.918 . S
Fe374 O379 1.997 . S
Fe374 O380 2.002 . S
Fe374 O385 1.976 . S
Fe374 O388 1.996 . S
Fe375 O376 1.918 . S
Fe375 O383 1.997 . S
Fe375 O386 1.996 . S
Fe375 O390 1.976 . S
Fe375 O393 2.002 . S
O376 Fe374 1.918 . S
O376 Fe375 1.918 . S
O376 Fe377 1.918 . S
Fe377 O376 1.918 . S
Fe377 O378 2.002 . S
Fe377 O387 1.976 . S
Fe377 O391 1.996 . S
Fe377 O394 1.997 . S
O378 Fe377 2.002 . S
O378 C395 1.295 . S
O379 Fe374 1.997 . S
O379 C395 1.235 . S
O380 Fe374 2.002 . S
O380 C381 1.295 . S
C381 O380 1.295 . S
C381 O383 1.235 . S
C382 O387 1.287 . S
C382 O388 1.255 . S
O383 Fe375 1.997 . S
O383 C381 1.235 . S
C384 O390 1.287 . S
C384 O391 1.255 . S
O385 Fe374 1.976 . S
O385 C392 1.287 . S
O386 Fe375 1.996 . S
O386 C392 1.255 . S
O387 Fe377 1.976 . S
O387 C382 1.287 . S
O388 Fe374 1.996 . S
O388 C382 1.255 . S
C389 O393 1.295 . S
C389 O394 1.235 . S
O390 Fe375 1.976 . S
O390 C384 1.287 . S
O391 Fe377 1.996 . S
O391 C384 1.255 . S
C392 O385 1.287 . S
C392 O386 1.255 . S
O393 Fe375 2.002 . S
O393 C389 1.295 . S
O394 Fe377 1.997 . S
O394 C389 1.235 . S
C395 O378 1.295 . S
C395 O379 1.235 . S
Fe396 O398 1.918 . S
Fe396 O401 1.997 . S
Fe396 O402 2.002 . S
Fe396 O407 1.976 . S
Fe396 O410 1.996 . S
Fe397 O398 1.918 . S
Fe397 O405 1.997 . S
Fe397 O408 1.996 . S
Fe397 O412 1.976 . S
Fe397 O415 2.002 . S
O398 Fe396 1.918 . S
O398 Fe397 1.918 . S
O398 Fe399 1.918 . S
Fe399 O398 1.918 . S
Fe399 O400 2.002 . S
Fe399 O409 1.976 . S
Fe399 O413 1.996 . S
Fe399 O416 1.997 . S
O400 Fe399 2.002 . S
O400 C417 1.295 . S
O401 Fe396 1.997 . S
O401 C417 1.235 . S
O402 Fe396 2.002 . S
O402 C403 1.295 . S
C403 O402 1.295 . S
C403 O405 1.235 . S
C404 O409 1.287 . S
C404 O410 1.255 . S
O405 Fe397 1.997 . S
O405 C403 1.235 . S
C406 O412 1.287 . S
C406 O413 1.255 . S
O407 Fe396 1.976 . S
O407 C414 1.287 . S
O408 Fe397 1.996 . S
O408 C414 1.255 . S
O409 Fe399 1.976 . S
O409 C404 1.287 . S
O410 Fe396 1.996 . S
O410 C404 1.255 . S
C411 O415 1.295 . S
C411 O416 1.235 . S
O412 Fe397 1.976 . S
O412 C406 1.287 . S
O413 Fe399 1.996 . S
O413 C406 1.255 . S
C414 O407 1.287 . S
C414 O408 1.255 . S
O415 Fe397 2.002 . S
O415 C411 1.295 . S
O416 Fe399 1.997 . S
O416 C411 1.235 . S
C417 O400 1.295 . S
C417 O401 1.235 . S
Fe418 O420 1.918 . S
Fe418 O423 1.997 . S
Fe418 O424 2.002 . S
Fe418 O429 1.976 . S
Fe418 O432 1.996 . S
Fe419 O420 1.918 . S
Fe419 O427 1.997 . S
Fe419 O430 1.996 . S
Fe419 O434 1.976 . S
Fe419 O437 2.002 . S
O420 Fe418 1.918 . S
O420 Fe419 1.918 . S
O420 Fe421 1.918 . S
Fe421 O420 1.918 . S
Fe421 O422 2.002 . S
Fe421 O431 1.976 . S
Fe421 O435 1.996 . S
Fe421 O438 1.997 . S
O422 Fe421 2.002 . S
O422 C439 1.295 . S
O423 Fe418 1.997 . S
O423 C439 1.235 . S
O424 Fe418 2.002 . S
O424 C425 1.295 . S
C425 O424 1.295 . S
C425 O427 1.235 . S
C426 O431 1.287 . S
C426 O432 1.255 . S
O427 Fe419 1.997 . S
O427 C425 1.235 . S
C428 O434 1.287 . S
C428 O435 1.255 . S
O429 Fe418 1.976 . S
O429 C436 1.287 . S
O430 Fe419 1.996 . S
O430 C436 1.255 . S
O431 Fe421 1.976 . S
O431 C426 1.287 . S
O432 Fe418 1.996 . S
O432 C426 1.255 . S
C433 O437 1.295 . S
C433 O438 1.235 . S
O434 Fe419 1.976 . S
O434 C428 1.287 . S
O435 Fe421 1.996 . S
O435 C428 1.255 . S
C436 O429 1.287 . S
C436 O430 1.255 . S
O437 Fe419 2.002 . S
O437 C433 1.295 . S
O438 Fe421 1.997 . S
O438 C433 1.235 . S
C439 O422 1.295 . S
C439 O423 1.235 . S
Fe440 O442 1.918 . S
Fe440 O445 1.997 . S
Fe440 O446 2.002 . S
Fe440 O451 1.976 . S
Fe440 O454 1.996 . S
Fe441 O442 1.918 . S
Fe441 O449 1.997 . S
Fe441 O452 1.996 . S
Fe441 O456 1.976 . S
Fe441 O459 2.002 . S
O442 Fe440 1.918 . S
O442 Fe441 1.918 . S
O442 Fe443 1.918 . S
Fe443 O442 1.918 . S
Fe443 O444 2.002 . S
Fe443 O453 1.976 . S
Fe443 O457 1.996 . S
Fe443 O460 1.997 . S
O444 Fe443 2.002 . S
O444 C461 1.295 . S
O445 Fe440 1.997 . S
O445 C461 1.235 . S
O446 Fe440 2.002 . S
O446 C447 1.295 . S
C447 O446 1.295 . S
C447 O449 1.235 . S
C448 O453 1.287 . S
C448 O454 1.255 . S
O449 Fe441 1.997 . S
O449 C447 1.235 . S
C450 O456 1.287 . S
C450 O457 1.255 . S
O451 Fe440 1.976 . S
O451 C458 1.287 . S
O452 Fe441 1.996 . S
O452 C458 1.255 . S
O453 Fe443 1.976 . S
O453 C448 1.287 . S
O454 Fe440 1.996 . S
O454 C448 1.255 . S
C455 O459 1.295 . S
C455 O460 1.235 . S
O456 Fe441 1.976 . S
O456 C450 1.287 . S
O457 Fe443 1.996 . S
O457 C450 1.255 . S
C458 O451 1.287 . S
C458 O452 1.255 . S
O459 Fe441 2.002 . S
O459 C455 1.295 . S
O460 Fe443 1.997 . S
O460 C455 1.235 . S
C461 O444 1.295 . S
C461 O445 1.235 . S
Fe462 O464 1.918 . S
Fe462 O467 1.997 . S
Fe462 O468 2.002 . S
Fe462 O473 1.976 . S
Fe462 O476 1.996 . S
Fe463 O464 1.918 . S
Fe463 O471 1.997 . S
Fe463 O474 1.996 . S
Fe463 O478 1.976 . S
Fe463 O481 2.002 . S
O464 Fe462 1.918 . S
O464 Fe463 1.918 . S
O464 Fe465 1.918 . S
Fe465 O464 1.918 . S
Fe465 O466 2.002 . S
Fe465 O475 1.976 . S
Fe465 O479 1.996 . S
Fe465 O482 1.997 . S
O466 Fe465 2.002 . S
O466 C483 1.295 . S
O467 Fe462 1.997 . S
O467 C483 1.235 . S
O468 Fe462 2.002 . S
O468 C469 1.295 . S
C469 O468 1.295 . S
C469 O471 1.235 . S
C470 O475 1.287 . S
C470 O476 1.255 . S
O471 Fe463 1.997 . S
O471 C469 1.235 . S
C472 O478 1.287 . S
C472 O479 1.255 . S
O473 Fe462 1.976 . S
O473 C480 1.287 . S
O474 Fe463 1.996 . S
O474 C480 1.255 . S
O475 Fe465 1.976 . S
O475 C470 1.287 . S
O476 Fe462 1.996 . S
O476 C470 1.255 . S
C477 O481 1.295 . S
C477 O482 1.235 . S
O478 Fe463 1.976 . S
O478 C472 1.287 . S
O479 Fe465 1.996 . S
O479 C472 1.255 . S
C480 O473 1.287 . S
C480 O474 1.255 . S
O481 Fe463 2.002 . S
O481 C477 1.295 . S
O482 Fe465 1.997 . S
O482 C477 1.235 . S
C483 O466 1.295 . S
C483 O467 1.235 . S
Fe484 O486 1.918 . S
Fe484 O489 1.997 . S
Fe484 O490 2.002 . S
Fe484 O495 1.976 . S
Fe484 O498 1.996 . S
Fe485 O486 1.918 . S
Fe485 O493 1.997 . S
Fe485 O496 1.996 . S
Fe485 O500 1.976 . S
Fe485 O503 2.002 . S
O486 Fe484 1.918 . S
O486 Fe485 1.918 . S
O486 Fe487 1.918 . S
Fe487 O486 1.918 . S
Fe487 O488 2.002 . S
Fe487 O497 1.976 . S
Fe487 O501 1.996 . S
Fe487 O504 1.997 . S
O488 Fe487 2.002 . S
O488 C505 1.295 . S
O489 Fe484 1.997 . S
O489 C505 1.235 . S
O490 Fe484 2.002 . S
O490 C491 1.295 . S
C491 O490 1.295 . S
C491 O493 1.235 . S
C492 O497 1.287 . S
C492 O498 1.255 . S
O493 Fe485 1.997 . S
O493 C491 1.235 . S
C494 O500 1.287 . S
C494 O501 1.255 . S
O495 Fe484 1.976 . S
O495 C502 1.287 . S
O496 Fe485 1.996 . S
O496 C502 1.255 . S
O497 Fe487 1.976 . S
O497 C492 1.287 . S
O498 Fe484 1.996 . S
O498 C492 1.255 . S
C499 O503 1.295 . S
C499 O504 1.235 . S
O500 Fe485 1.976 . S
O500 C494 1.287 . S
O501 Fe487 1.996 . S
O501 C494 1.255 . S
C502 O495 1.287 . S
C502 O496 1.255 . S
O503 Fe485 2.002 . S
O503 C499 1.295 . S
O504 Fe487 1.997 . S
O504 C499 1.235 . S
C505 O488 1.295 . S
C505 O489 1.235 . S
Fe506 O508 1.918 . S
Fe506 O511 1.997 . S
Fe506 O512 2.002 . S
Fe506 O517 1.976 . S
Fe506 O520 1.996 . S
Fe507 O508 1.918 . S
Fe507 O515 1.997 . S
Fe507 O518 1.996 . S
Fe507 O522 1.976 . S
Fe507 O525 2.002 . S
O508 Fe506 1.918 . S
O508 Fe507 1.918 . S
O508 Fe509 1.918 . S
Fe509 O508 1.918 . S
Fe509 O510 2.002 . S
Fe509 O519 1.976 . S
Fe509 O523 1.996 . S
Fe509 O526 1.997 . S
O510 Fe509 2.002 . S
O510 C527 1.295 . S
O511 Fe506 1.997 . S
O511 C527 1.235 . S
O512 Fe506 2.002 . S
O512 C513 1.295 . S
C513 O512 1.295 . S
C513 O515 1.235 . S
C514 O519 1.287 . S
C514 O520 1.255 . S
O515 Fe507 1.997 . S
O515 C513 1.235 . S
C516 O522 1.287 . S
C516 O523 1.255 . S
O517 Fe506 1.976 . S
O517 C524 1.287 . S
O518 Fe507 1.996 . S
O518 C524 1.255 . S
O519 Fe509 1.976 . S
O519 C514 1.287 . S
O520 Fe506 1.996 . S
O520 C514 1.255 . S
C521 O525 1.295 . S
C521 O526 1.235 . S
O522 Fe507 1.976 . S
O522 C516 1.287 . S
O523 Fe509 1.996 . S
O523 C516 1.255 . S
C524 O517 1.287 . S
C524 O518 1.255 . S
O525 Fe507 2.002 . S
O525 C521 1.295 . S
O526 Fe509 1.997 . S
O526 C521 1.235 . S
C527 O510 1.295 . S
C527 O511 1.235 . S
Fe528 O530 1.918 . S
Fe528 O533 1.997 . S
Fe528 O534 2.002 . S
Fe528 O539 1.976 . S
Fe528 O542 1.996 . S
Fe529 O530 1.918 . S
Fe529 O537 1.997 . S
Fe529 O540 1.996 . S
Fe529 O544 1.976 . S
Fe529 O547 2.002 . S
O530 Fe528 1.918 . S
O530 Fe529 1.918 . S
O530 Fe531 1.918 . S
Fe531 O530 1.918 . S
Fe531 O532 2.002 . S
Fe531 O541 1.976 . S
Fe531 O545 1.996 . S
Fe531 O548 1.997 . S
O532 Fe531 2.002 . S
O532 C549 1.295 . S
O533 Fe528 1.997 . S
O533 C549 1.235 . S
O534 Fe528 2.002 . S
O534 C535 1.295 . S
C535 O534 1.295 . S
C535 O537 1.235 . S
C536 O541 1.287 . S
C536 O542 1.255 . S
O537 Fe529 1.997 . S
O537 C535 1.235 . S
C538 O544 1.287 . S
C538 O545 1.255 . S
O539 Fe528 1.976 . S
O539 C546 1.287 . S
O540 Fe529 1.996 . S
O540 C546 1.255 . S
O541 Fe531 1.976 . S
O541 C536 1.287 . S
O542 Fe528 1.996 . S
O542 C536 1.255 . S
C543 O547 1.295 . S
C543 O548 1.235 . S
O544 Fe529 1.976 . S
O544 C538 1.287 . S
O545 Fe531 1.996 . S
O545 C538 1.255 . S
C546 O539 1.287 . S
C546 O540 1.255 . S
O547 Fe529 2.002 . S
O547 C543 1.295 . S
O548 Fe531 1.997 . S
O548 C543 1.235 . S
C549 O532 1.295 . S
C549 O533 1.235 . S
Fe550 O552 1.918 . S
Fe550 O555 1.997 . S
Fe550 O556 2.002 . S
Fe550 O561 1.976 . S
Fe550 O564 1.996 . S
Fe551 O552 1.918 . S
Fe551 O559 1.997 . S
Fe551 O562 1.996 . S
Fe551 O566 1.976 . S
Fe551 O569 2.002 . S
O552 Fe550 1.918 . S
O552 Fe551 1.918 . S
O552 Fe553 1.918 . S
Fe553 O552 1.918 . S
Fe553 O554 2.002 . S
Fe553 O563 1.976 . S
Fe553 O567 1.996 . S
Fe553 O570 1.997 . S
O554 Fe553 2.002 . S
O554 C571 1.295 . S
O555 Fe550 1.997 . S
O555 C571 1.235 . S
O556 Fe550 2.002 . S
O556 C557 1.295 . S
C557 O556 1.295 . S
C557 O559 1.235 . S
C558 O563 1.287 . S
C558 O564 1.255 . S
O559 Fe551 1.997 . S
O559 C557 1.235 . S
C560 O566 1.287 . S
C560 O567 1.255 . S
O561 Fe550 1.976 . S
O561 C568 1.287 . S
O562 Fe551 1.996 . S
O562 C568 1.255 . S
O563 Fe553 1.976 . S
O563 C558 1.287 . S
O564 Fe550 1.996 . S
O564 C558 1.255 . S
C565 O569 1.295 . S
C565 O570 1.235 . S
O566 Fe551 1.976 . S
O566 C560 1.287 . S
O567 Fe553 1.996 . S
O567 C560 1.255 . S
C568 O561 1.287 . S
C568 O562 1.255 . S
O569 Fe551 2.002 . S
O569 C565 1.295 . S
O570 Fe553 1.997 . S
O570 C565 1.235 . S
C571 O554 1.295 . S
C571 O555 1.235 . S
Fe572 O574 1.918 . S
Fe572 O577 1.997 . S
Fe572 O578 2.002 . S
Fe572 O583 1.976 . S
Fe572 O586 1.996 . S
Fe573 O574 1.918 . S
Fe573 O581 1.997 . S
Fe573 O584 1.996 . S
Fe573 O588 1.976 . S
Fe573 O591 2.002 . S
O574 Fe572 1.918 . S
O574 Fe573 1.918 . S
O574 Fe575 1.918 . S
Fe575 O574 1.918 . S
Fe575 O576 2.002 . S
Fe575 O585 1.976 . S
Fe575 O589 1.996 . S
Fe575 O592 1.997 . S
O576 Fe575 2.002 . S
O576 C593 1.295 . S
O577 Fe572 1.997 . S
O577 C593 1.235 . S
O578 Fe572 2.002 . S
O578 C579 1.295 . S
C579 O578 1.295 . S
C579 O581 1.235 . S
C580 O585 1.287 . S
C580 O586 1.255 . S
O581 Fe573 1.997 . S
O581 C579 1.235 . S
C582 O588 1.287 . S
C582 O589 1.255 . S
O583 Fe572 1.976 . S
O583 C590 1.287 . S
O584 Fe573 1.996 . S
O584 C590 1.255 . S
O585 Fe575 1.976 . S
O585 C580 1.287 . S
O586 Fe572 1.996 . S
O586 C580 1.255 . S
C587 O591 1.295 . S
C587 O592 1.235 . S
O588 Fe573 1.976 . S
O588 C582 1.287 . S
O589 Fe575 1.996 . S
O589 C582 1.255 . S
C590 O583 1.287 . S
C590 O584 1.255 . S
O591 Fe573 2.002 . S
O591 C587 1.295 . S
O592 Fe575 1.997 . S
O592 C587 1.235 . S
C593 O576 1.295 . S
C593 O577 1.235 . S
Fe594 O596 1.918 . S
Fe594 O599 1.997 . S
Fe594 O600 2.002 . S
Fe594 O605 1.976 . S
Fe594 O608 1.996 . S
Fe595 O596 1.918 . S
Fe595 O603 1.997 . S
Fe595 O606 1.996 . S
Fe595 O610 1.976 . S
Fe595 O613 2.002 . S
O596 Fe594 1.918 . S
O596 Fe595 1.918 . S
O596 Fe597 1.918 . S
Fe597 O596 1.918 . S
Fe597 O598 2.002 . S
Fe597 O607 1.976 . S
Fe597 O611 1.996 . S
Fe597 O614 1.997 . S
O598 Fe597 2.002 . S
O598 C615 1.295 . S
O599 Fe594 1.997 . S
O599 C615 1.235 . S
O600 Fe594 2.002 . S
O600 C601 1.295 . S
C601 O600 1.295 . S
C601 O603 1.235 . S
C602 O607 1.287 . S
C602 O608 1.255 . S
O603 Fe595 1.997 . S
O603 C601 1.235 . S
C604 O610 1.287 . S
C604 O611 1.255 . S
O605 Fe594 1.976 . S
O605 C612 1.287 . S
O606 Fe595 1.996 . S
O606 C612 1.255 . S
O607 Fe597 1.976 . S
O607 C602 1.287 . S
O608 Fe594 1.996 . S
O608 C602 1.255 . S
C609 O613 1.295 . S
C609 O614 1.235 . S
O610 Fe595 1.976 . S
O610 C604 1.287 . S
O611 Fe597 1.996 . S
O611 C604 1.255 . S
C612 O605 1.287 . S
C612 O606 1.255 . S
O613 Fe595 2.002 . S
O613 C609 1.295 . S
O614 Fe597 1.997 . S
O614 C609 1.235 . S
C615 O598 1.295 . S
C615 O599 1.235 . S
Fe616 O618 1.918 . S
Fe616 O621 1.997 . S
Fe616 O622 2.002 . S
Fe616 O627 1.976 . S
Fe616 O630 1.996 . S
Fe617 O618 1.918 . S
Fe617 O625 1.997 . S
Fe617 O628 1.996 . S
Fe617 O632 1.976 . S
Fe617 O635 2.002 . S
O618 Fe616 1.918 . S
O618 Fe617 1.918 . S
O618 Fe619 1.918 . S
Fe619 O618 1.918 . S
Fe619 O620 2.002 . S
Fe619 O629 1.976 . S
Fe619 O633 1.996 . S
Fe619 O636 1.997 . S
O620 Fe619 2.002 . S
O620 C637 1.295 . S
O621 Fe616 1.997 . S
O621 C637 1.235 . S
O622 Fe616 2.002 . S
O622 C623 1.295 . S
C623 O622 1.295 . S
C623 O625 1.235 . S
C624 O629 1.287 . S
C624 O630 1.255 . S
O625 Fe617 1.997 . S
O625 C623 1.235 . S
C626 O632 1.287 . S
C626 O633 1.255 . S
O627 Fe616 1.976 . S
O627 C634 1.287 . S
O628 Fe617 1.996 . S
O628 C634 1.255 . S
O629 Fe619 1.976 . S
O629 C624 1.287 . S
O630 Fe616 1.996 . S
O630 C624 1.255 . S
C631 O635 1.295 . S
C631 O636 1.235 . S
O632 Fe617 1.976 . S
O632 C626 1.287 . S
O633 Fe619 1.996 . S
O633 C626 1.255 . S
C634 O627 1.287 . S
C634 O628 1.255 . S
O635 Fe617 2.002 . S
O635 C631 1.295 . S
O636 Fe619 1.997 . S
O636 C631 1.235 . S
C637 O620 1.295 . S
C637 O621 1.235 . S
Fe638 O640 1.918 . S
Fe638 O643 1.997 . S
Fe638 O644 2.002 . S
Fe638 O649 1.976 . S
Fe638 O652 1.996 . S
Fe639 O640 1.918 . S
Fe639 O647 1.997 . S
Fe639 O650 1.996 . S
Fe639 O654 1.976 . S
Fe639 O657 2.002 . S
O640 Fe638 1.918 . S
O640 Fe639 1.918 . S
O640 Fe641 1.918 . S
Fe641 O640 1.918 . S
Fe641 O642 2.002 . S
Fe641 O651 1.976 . S
Fe641 O655 1.996 . S
Fe641 O658 1.997 . S
O642 Fe641 2.002 . S
O642 C659 1.295 . S
O643 Fe638 1.997 . S
O643 C659 1.235 . S
O644 Fe638 2.002 . S
O644 C645 1.295 . S
C645 O644 1.295 . S
C645 O647 1.235 . S
C646 O651 1.287 . S
C646 O652 1.255 . S
O647 Fe639 1.997 . S
O647 C645 1.235 . S
C648 O654 1.287 . S
C648 O655 1.255 . S
O649 Fe638 1.976 . S
O649 C656 1.287 . S
O650 Fe639 1.996 . S
O650 C656 1.255 . S
O651 Fe641 1.976 . S
O651 C646 1.287 . S
O652 Fe638 1.996 . S
O652 C646 1.255 . S
C653 O657 1.295 . S
C653 O658 1.235 . S
O654 Fe639 1.976 . S
O654 C648 1.287 . S
O655 Fe641 1.996 . S
O655 C648 1.255 . S
C656 O649 1.287 . S
C656 O650 1.255 . S
O657 Fe639 2.002 . S
O657 C653 1.295 . S
O658 Fe641 1.997 . S
O658 C653 1.235 . S
C659 O642 1.295 . S
C659 O643 1.235 . S
Fe660 O662 1.918 . S
Fe660 O665 1.997 . S
Fe660 O666 2.002 . S
Fe660 O671 1.976 . S
Fe660 O674 1.996 . S
Fe661 O662 1.918 . S
Fe661 O669 1.997 . S
Fe661 O672 1.996 . S
Fe661 O676 1.976 . S
Fe661 O679 2.002 . S
O662 Fe660 1.918 . S
O662 Fe661 1.918 . S
O662 Fe663 1.918 . S
Fe663 O662 1.918 . S
Fe663 O664 2.002 . S
Fe663 O673 1.976 . S
Fe663 O677 1.996 . S
Fe663 O680 1.997 . S
O664 Fe663 2.002 . S
O664 C681 1.295 . S
O665 Fe660 1.997 . S
O665 C681 1.235 . S
O666 Fe660 2.002 . S
O666 C667 1.295 . S
C667 O666 1.295 . S
C667 O669 1.235 . S
C668 O673 1.287 . S
C668 O674 1.255 . S
O669 Fe661 1.997 . S
O669 C667 1.235 . S
C670 O676 1.287 . S
C670 O677 1.255 . S
O671 Fe660 1.976 . S
O671 C678 1.287 . S
O672 Fe661 1.996 . S
O672 C678 1.255 . S
O673 Fe663 1.976 . S
O673 C668 1.287 . S
O674 Fe660 1.996 . S
O674 C668 1.255 . S
C675 O679 1.295 . S
C675 O680 1.235 . S
O676 Fe661 1.976 . S
O676 C670 1.287 . S
O677 Fe663 1.996 . S
O677 C670 1.255 . S
C678 O671 1.287 . S
C678 O672 1.255 . S
O679 Fe661 2.002 . S
O679 C675 1.295 . S
O680 Fe663 1.997 . S
O680 C675 1.235 . S
C681 O664 1.295 . S
C681 O665 1.235 . S
Fe682 O684 1.918 . S
Fe682 O687 1.997 . S
Fe682 O688 2.002 . S
Fe682 O693 1.976 . S
Fe682 O696 1.996 . S
Fe683 O684 1.918 . S
Fe683 O691 1.997 . S
Fe683 O694 1.996 . S
Fe683 O698 1.976 . S
Fe683 O701 2.002 . S
O684 Fe682 1.918 . S
O684 Fe683 1.918 . S
O684 Fe685 1.918 . S
Fe685 O684 1.918 . S
Fe685 O686 2.002 . S
Fe685 O695 1.976 . S
Fe685 O699 1.996 . S
Fe685 O702 1.997 . S
O686 Fe685 2.002 . S
O686 C703 1.295 . S
O687 Fe682 1.997 . S
O687 C703 1.235 . S
O688 Fe682 2.002 . S
O688 C689 1.295 . S
C689 O688 1.295 . S
C689 O691 1.235 . S
C690 O695 1.287 . S
C690 O696 1.255 . S
O691 Fe683 1.997 . S
O691 C689 1.235 . S
C692 O698 1.287 . S
C692 O699 1.255 . S
O693 Fe682 1.976 . S
O693 C700 1.287 . S
O694 Fe683 1.996 . S
O694 C700 1.255 . S
O695 Fe685 1.976 . S
O695 C690 1.287 . S
O696 Fe682 1.996 . S
O696 C690 1.255 . S
C697 O701 1.295 . S
C697 O702 1.235 . S
O698 Fe683 1.976 . S
O698 C692 1.287 . S
O699 Fe685 1.996 . S
O699 C692 1.255 . S
C700 O693 1.287 . S
C700 O694 1.255 . S
O701 Fe683 2.002 . S
O701 C697 1.295 . S
O702 Fe685 1.997 . S
O702 C697 1.235 . S
C703 O686 1.295 . S
C703 O687 1.235 . S
Fe704 O706 1.918 . S
Fe704 O709 1.997 . S
Fe704 O710 2.002 . S
Fe704 O715 1.976 . S
Fe704 O718 1.996 . S
Fe705 O706 1.918 . S
Fe705 O713 1.997 . S
Fe705 O716 1.996 . S
Fe705 O720 1.976 . S
Fe705 O723 2.002 . S
O706 Fe704 1.918 . S
O706 Fe705 1.918 . S
O706 Fe707 1.918 . S
Fe707 O706 1.918 . S
Fe707 O708 2.002 . S
Fe707 O717 1.976 . S
Fe707 O721 1.996 . S
Fe707 O724 1.997 . S
O708 Fe707 2.002 . S
O708 C725 1.295 . S
O709 Fe704 1.997 . S
O709 C725 1.235 . S
O710 Fe704 2.002 . S
O710 C711 1.295 . S
C711 O710 1.295 . S
C711 O713 1.235 . S
C712 O717 1.287 . S
C712 O718 1.255 . S
O713 Fe705 1.997 . S
O713 C711 1.235 . S
C714 O720 1.287 . S
C714 O721 1.255 . S
O715 Fe704 1.976 . S
O715 C722 1.287 . S
O716 Fe705 1.996 . S
O716 C722 1.255 . S
O717 Fe707 1.976 . S
O717 C712 1.287 . S
O718 Fe704 1.996 . S
O718 C712 1.255 . S
C719 O723 1.295 . S
C719 O724 1.235 . S
O720 Fe705 1.976 . S
O720 C714 1.287 . S
O721 Fe707 1.996 . S
O721 C714 1.255 . S
C722 O715 1.287 . S
C722 O716 1.255 . S
O723 Fe705 2.002 . S
O723 C719 1.295 . S
O724 Fe707 1.997 . S
O724 C719 1.235 . S
C725 O708 1.295 . S
C725 O709 1.235 . S
Fe726 O728 1.918 . S
Fe726 O731 1.997 . S
Fe726 O732 2.002 . S
Fe726 O737 1.976 . S
Fe726 O740 1.996 . S
Fe727 O728 1.918 . S
Fe727 O735 1.997 . S
Fe727 O738 1.996 . S
Fe727 O742 1.976 . S
Fe727 O745 2.002 . S
O728 Fe726 1.918 . S
O728 Fe727 1.918 . S
O728 Fe729 1.918 . S
Fe729 O728 1.918 . S
Fe729 O730 2.002 . S
Fe729 O739 1.976 . S
Fe729 O743 1.996 . S
Fe729 O746 1.997 . S
O730 Fe729 2.002 . S
O730 C747 1.295 . S
O731 Fe726 1.997 . S
O731 C747 1.235 . S
O732 Fe726 2.002 . S
O732 C733 1.295 . S
C733 O732 1.295 . S
C733 O735 1.235 . S
C734 O739 1.287 . S
C734 O740 1.255 . S
O735 Fe727 1.997 . S
O735 C733 1.235 . S
C736 O742 1.287 . S
C736 O743 1.255 . S
O737 Fe726 1.976 . S
O737 C744 1.287 . S
O738 Fe727 1.996 . S
O738 C744 1.255 . S
O739 Fe729 1.976 . S
O739 C734 1.287 . S
O740 Fe726 1.996 . S
O740 C734 1.255 . S
C741 O745 1.295 . S
C741 O746 1.235 . S
O742 Fe727 1.976 . S
O742 C736 1.287 . S
O743 Fe729 1.996 . S
O743 C736 1.255 . S
C744 O737 1.287 . S
C744 O738 1.255 . S
O745 Fe727 2.002 . S
O745 C741 1.295 . S
O746 Fe729 1.997 . S
O746 C741 1.235 . S
C747 O730 1.295 . S
C747 O731 1.235 . S
Fe748 O750 1.918 . S
Fe748 O753 1.997 . S
Fe748 O754 2.002 . S
Fe748 O759 1.976 . S
Fe748 O762 1.996 . S
Fe749 O750 1.918 . S
Fe749 O757 1.997 . S
Fe749 O760 1.996 . S
Fe749 O764 1.976 . S
Fe749 O767 2.002 . S
O750 Fe748 1.918 . S
O750 Fe749 1.918 . S
O750 Fe751 1.918 . S
Fe751 O750 1.918 . S
Fe751 O752 2.002 . S
Fe751 O761 1.976 . S
Fe751 O765 1.996 . S
Fe751 O768 1.997 . S
O752 Fe751 2.002 . S
O752 C769 1.295 . S
O753 Fe748 1.997 . S
O753 C769 1.235 . S
O754 Fe748 2.002 . S
O754 C755 1.295 . S
C755 O754 1.295 . S
C755 O757 1.235 . S
C756 O761 1.287 . S
C756 O762 1.255 . S
O757 Fe749 1.997 . S
O757 C755 1.235 . S
C758 O764 1.287 . S
C758 O765 1.255 . S
O759 Fe748 1.976 . S
O759 C766 1.287 . S
O760 Fe749 1.996 . S
O760 C766 1.255 . S
O761 Fe751 1.976 . S
O761 C756 1.287 . S
O762 Fe748 1.996 . S
O762 C756 1.255 . S
C763 O767 1.295 . S
C763 O768 1.235 . S
O764 Fe749 1.976 . S
O764 C758 1.287 . S
O765 Fe751 1.996 . S
O765 C758 1.255 . S
C766 O759 1.287 . S
C766 O760 1.255 . S
O767 Fe749 2.002 . S
O767 C763 1.295 . S
O768 Fe751 1.997 . S
O768 C763 1.235 . S
C769 O752 1.295 . S
C769 O753 1.235 . S
Fe770 O772 1.918 . S
Fe770 O775 1.997 . S
Fe770 O776 2.002 . S
Fe770 O781 1.976 . S
Fe770 O784 1.996 . S
Fe771 O772 1.918 . S
Fe771 O779 1.997 . S
Fe771 O782 1.996 . S
Fe771 O786 1.976 . S
Fe771 O789 2.002 . S
O772 Fe770 1.918 . S
O772 Fe771 1.918 . S
O772 Fe773 1.918 . S
Fe773 O772 1.918 . S
Fe773 O774 2.002 . S
Fe773 O783 1.976 . S
Fe773 O787 1.996 . S
Fe773 O790 1.997 . S
O774 Fe773 2.002 . S
O774 C791 1.295 . S
O775 Fe770 1.997 . S
O775 C791 1.235 . S
O776 Fe770 2.002 . S
O776 C777 1.295 . S
C777 O776 1.295 . S
C777 O779 1.235 . S
C778 O783 1.287 . S
C778 O784 1.255 . S
O779 Fe771 1.997 . S
O779 C777 1.235 . S
C780 O786 1.287 . S
C780 O787 1.255 . S
O781 Fe770 1.976 . S
O781 C788 1.287 . S
O782 Fe771 1.996 . S
O782 C788 1.255 . S
O783 Fe773 1.976 . S
O783 C778 1.287 . S
O784 Fe770 1.996 . S
O784 C778 1.255 . S
C785 O789 1.295 . S
C785 O790 1.235 . S
O786 Fe771 1.976 . S
O786 C780 1.287 . S
O787 Fe773 1.996 . S
O787 C780 1.255 . S
C788 O781 1.287 . S
C788 O782 1.255 . S
O789 Fe771 2.002 . S
O789 C785 1.295 . S
O790 Fe773 1.997 . S
O790 C785 1.235 . S
C791 O774 1.295 . S
C791 O775 1.235 . S
H792 C798 0.930 . S
H793 C802 0.930 . S
H794 C807 0.929 1_565 S
H795 C805 0.929 . S
H796 C800 0.929 . S
H797 C806 0.929 . S
C798 H792 0.930 . S
C798 C799 1.367 . S
C798 C806 1.378 . S
C799 C798 1.367 . S
C799 C807 1.433 . S
C800 H796 0.929 . S
C800 C802 1.378 . S
C800 C804 1.350 . S
C801 C804 1.463 1_556 S
C801 C806 1.350 . S
C801 N809 1.427 . S
C802 H793 0.930 . S
C802 C800 1.378 . S
C802 C803 1.367 . S
C803 C802 1.367 . S
C803 C805 1.433 . S
C804 C800 1.350 . S
C804 C801 1.463 1_554 S
C804 N808 1.427 . S
C805 H795 0.929 . S
C805 C803 1.433 . S
C805 N808 1.384 . S
C806 H797 0.929 . S
C806 C798 1.378 . S
C806 C801 1.350 . S
C807 H794 0.929 1_545 S
C807 C799 1.433 . S
C807 N809 1.384 . S
N808 C804 1.427 . S
N808 C805 1.384 . S
N809 C801 1.427 . S
N809 C807 1.384 . S
H810 C816 0.930 . S
H811 C820 0.930 . S
H812 C825 0.929 . S
H813 C823 0.929 . S
H814 C818 0.929 . S
H815 C824 0.929 . S
C816 H810 0.930 . S
C816 C817 1.367 . S
C816 C824 1.378 . S
C817 C816 1.367 . S
C817 C825 1.433 . S
C818 H814 0.929 . S
C818 C820 1.378 . S
C818 C822 1.350 . S
C819 C822 1.463 1_556 S
C819 C824 1.350 . S
C819 N827 1.427 . S
C820 H811 0.930 . S
C820 C818 1.378 . S
C820 C821 1.367 . S
C821 C820 1.367 . S
C821 C823 1.433 . S
C822 C818 1.350 . S
C822 C819 1.463 1_554 S
C822 N826 1.427 . S
C823 H813 0.929 . S
C823 C821 1.433 . S
C823 N826 1.384 . S
C824 H815 0.929 . S
C824 C816 1.378 . S
C824 C819 1.350 . S
C825 H812 0.929 . S
C825 C817 1.433 . S
C825 N827 1.384 . S
N826 C822 1.427 . S
N826 C823 1.384 . S
N827 C819 1.427 . S
N827 C825 1.384 . S
H828 C834 0.930 . S
H829 C838 0.930 . S
H830 C843 0.929 . S
H831 C841 0.929 . S
H832 C836 0.929 . S
H833 C842 0.929 . S
C834 H828 0.930 . S
C834 C835 1.367 . S
C834 C842 1.378 . S
C835 C834 1.367 . S
C835 C843 1.433 . S
C836 H832 0.929 . S
C836 C838 1.378 . S
C836 C840 1.350 . S
C837 C840 1.463 1_556 S
C837 C842 1.350 . S
C837 N845 1.427 . S
C838 H829 0.930 . S
C838 C836 1.378 . S
C838 C839 1.367 . S
C839 C838 1.367 . S
C839 C841 1.433 . S
C840 C836 1.350 . S
C840 C837 1.463 1_554 S
C840 N844 1.427 . S
C841 H831 0.929 . S
C841 C839 1.433 . S
C841 N844 1.384 . S
C842 H833 0.929 . S
C842 C834 1.378 . S
C842 C837 1.350 . S
C843 H830 0.929 . S
C843 C835 1.433 . S
C843 N845 1.384 . S
N844 C840 1.427 . S
N844 C841 1.384 . S
N845 C837 1.427 . S
N845 C843 1.384 . S
H846 C852 0.930 . S
H847 C856 0.930 . S
H848 C861 0.929 . S
H849 C859 0.929 . S
H850 C854 0.929 . S
H851 C860 0.929 . S
C852 H846 0.930 . S
C852 C853 1.367 . S
C852 C860 1.378 . S
C853 C852 1.367 . S
C853 C861 1.433 . S
C854 H850 0.929 . S
C854 C856 1.378 . S
C854 C858 1.350 . S
C855 C858 1.463 . S
C855 C860 1.350 . S
C855 N863 1.427 . S
C856 H847 0.930 . S
C856 C854 1.378 . S
C856 C857 1.367 . S
C857 C856 1.367 . S
C857 C859 1.433 . S
C858 C854 1.350 . S
C858 C855 1.463 . S
C858 N862 1.427 . S
C859 H849 0.929 . S
C859 C857 1.433 . S
C859 N862 1.384 . S
C860 H851 0.929 . S
C860 C852 1.378 . S
C860 C855 1.350 . S
C861 H848 0.929 . S
C861 C853 1.433 . S
C861 N863 1.384 . S
N862 C858 1.427 . S
N862 C859 1.384 . S
N863 C855 1.427 . S
N863 C861 1.384 . S
H864 C870 0.930 . S
H865 C874 0.930 . S
H866 C879 0.929 . S
H867 C877 0.929 . S
H868 C872 0.929 . S
H869 C878 0.929 . S
C870 H864 0.930 . S
C870 C871 1.367 . S
C870 C878 1.378 . S
C871 C870 1.367 . S
C871 C879 1.433 . S
C872 H868 0.929 . S
C872 C874 1.378 . S
C872 C876 1.350 . S
C873 C876 1.463 . S
C873 C878 1.350 . S
C873 N881 1.427 . S
C874 H865 0.930 . S
C874 C872 1.378 . S
C874 C875 1.367 . S
C875 C874 1.367 . S
C875 C877 1.433 . S
C876 C872 1.350 . S
C876 C873 1.463 . S
C876 N880 1.427 . S
C877 H867 0.929 . S
C877 C875 1.433 . S
C877 N880 1.384 . S
C878 H869 0.929 . S
C878 C870 1.378 . S
C878 C873 1.350 . S
C879 H866 0.929 . S
C879 C871 1.433 . S
C879 N881 1.384 . S
N880 C876 1.427 . S
N880 C877 1.384 . S
N881 C873 1.427 . S
N881 C879 1.384 . S
H882 C888 0.930 . S
H883 C892 0.930 . S
H884 C897 0.929 . S
H885 C895 0.929 . S
H886 C890 0.929 . S
H887 C896 0.929 . S
C888 H882 0.930 . S
C888 C889 1.367 . S
C888 C896 1.378 . S
C889 C888 1.367 . S
C889 C897 1.433 . S
C890 H886 0.929 . S
C890 C892 1.378 . S
C890 C894 1.350 . S
C891 C894 1.463 . S
C891 C896 1.350 . S
C891 N899 1.427 . S
C892 H883 0.930 . S
C892 C890 1.378 . S
C892 C893 1.367 . S
C893 C892 1.367 . S
C893 C895 1.433 . S
C894 C890 1.350 . S
C894 C891 1.463 . S
C894 N898 1.427 . S
C895 H885 0.929 . S
C895 C893 1.433 . S
C895 N898 1.384 . S
C896 H887 0.929 . S
C896 C888 1.378 . S
C896 C891 1.350 . S
C897 H884 0.929 . S
C897 C889 1.433 . S
C897 N899 1.384 . S
N898 C894 1.427 . S
N898 C895 1.384 . S
N899 C891 1.427 . S
N899 C897 1.384 . S
H900 C906 0.930 . S
H901 C910 0.930 . S
H902 C915 0.929 1_545 S
H903 C913 0.929 . S
H904 C908 0.929 . S
H905 C914 0.929 . S
C906 H900 0.930 . S
C906 C907 1.367 . S
C906 C914 1.378 . S
C907 C906 1.367 . S
C907 C915 1.433 . S
C908 H904 0.929 . S
C908 C910 1.378 . S
C908 C912 1.350 . S
C909 C912 1.463 1_554 S
C909 C914 1.350 . S
C909 N917 1.427 . S
C910 H901 0.930 . S
C910 C908 1.378 . S
C910 C911 1.367 . S
C911 C910 1.367 . S
C911 C913 1.433 . S
C912 C908 1.350 . S
C912 C909 1.463 1_556 S
C912 N916 1.427 . S
C913 H903 0.929 . S
C913 C911 1.433 . S
C913 N916 1.384 . S
C914 H905 0.929 . S
C914 C906 1.378 . S
C914 C909 1.350 . S
C915 H902 0.929 1_565 S
C915 C907 1.433 . S
C915 N917 1.384 . S
N916 C912 1.427 . S
N916 C913 1.384 . S
N917 C909 1.427 . S
N917 C915 1.384 . S
H918 C924 0.930 1_655 S
H919 C928 0.930 . S
H920 C933 0.929 . S
H921 C931 0.929 . S
H922 C926 0.929 . S
H923 C932 0.929 . S
C924 H918 0.930 1_455 S
C924 C925 1.367 . S
C924 C932 1.378 . S
C925 C924 1.367 . S
C925 C933 1.433 . S
C926 H922 0.929 . S
C926 C928 1.378 . S
C926 C930 1.350 . S
C927 C930 1.463 1_554 S
C927 C932 1.350 . S
C927 N935 1.427 . S
C928 H919 0.930 . S
C928 C926 1.378 . S
C928 C929 1.367 . S
C929 C928 1.367 . S
C929 C931 1.433 . S
C930 C926 1.350 . S
C930 C927 1.463 1_556 S
C930 N934 1.427 . S
C931 H921 0.929 . S
C931 C929 1.433 . S
C931 N934 1.384 . S
C932 H923 0.929 . S
C932 C924 1.378 . S
C932 C927 1.350 . S
C933 H920 0.929 . S
C933 C925 1.433 . S
C933 N935 1.384 . S
N934 C930 1.427 . S
N934 C931 1.384 . S
N935 C927 1.427 . S
N935 C933 1.384 . S
H936 C942 0.930 . S
H937 C946 0.930 . S
H938 C951 0.929 . S
H939 C949 0.929 . S
H940 C944 0.929 . S
H941 C950 0.929 . S
C942 H936 0.930 . S
C942 C943 1.367 . S
C942 C950 1.378 . S
C943 C942 1.367 . S
C943 C951 1.433 . S
C944 H940 0.929 . S
C944 C946 1.378 . S
C944 C948 1.350 . S
C945 C948 1.463 1_554 S
C945 C950 1.350 . S
C945 N953 1.427 . S
C946 H937 0.930 . S
C946 C944 1.378 . S
C946 C947 1.367 . S
C947 C946 1.367 . S
C947 C949 1.433 . S
C948 C944 1.350 . S
C948 C945 1.463 1_556 S
C948 N952 1.427 . S
C949 H939 0.929 . S
C949 C947 1.433 . S
C949 N952 1.384 . S
C950 H941 0.929 . S
C950 C942 1.378 . S
C950 C945 1.350 . S
C951 H938 0.929 . S
C951 C943 1.433 . S
C951 N953 1.384 . S
N952 C948 1.427 . S
N952 C949 1.384 . S
N953 C945 1.427 . S
N953 C951 1.384 . S
H954 C960 0.930 . S
H955 C964 0.930 . S
H956 C969 0.929 . S
H957 C967 0.929 1_455 S
H958 C962 0.929 . S
H959 C968 0.929 . S
C960 H954 0.930 . S
C960 C961 1.367 . S
C960 C968 1.378 . S
C961 C960 1.367 . S
C961 C969 1.433 . S
C962 H958 0.929 . S
C962 C964 1.378 . S
C962 C966 1.350 . S
C963 C966 1.463 . S
C963 C968 1.350 . S
C963 N971 1.427 . S
C964 H955 0.930 . S
C964 C962 1.378 . S
C964 C965 1.367 . S
C965 C964 1.367 . S
C965 C967 1.433 . S
C966 C962 1.350 . S
C966 C963 1.463 . S
C966 N970 1.427 . S
C967 H957 0.929 1_655 S
C967 C965 1.433 . S
C967 N970 1.384 . S
C968 H959 0.929 . S
C968 C960 1.378 . S
C968 C963 1.350 . S
C969 H956 0.929 . S
C969 C961 1.433 . S
C969 N971 1.384 . S
N970 C966 1.427 . S
N970 C967 1.384 . S
N971 C963 1.427 . S
N971 C969 1.384 . S
H972 C978 0.930 . S
H973 C982 0.930 . S
H974 C987 0.929 . S
H975 C985 0.929 . S
H976 C980 0.929 . S
H977 C986 0.929 . S
C978 H972 0.930 . S
C978 C979 1.367 . S
C978 C986 1.378 . S
C979 C978 1.367 . S
C979 C987 1.433 . S
C980 H976 0.929 . S
C980 C982 1.378 . S
C980 C984 1.350 . S
C981 C984 1.463 . S
C981 C986 1.350 . S
C981 N989 1.427 . S
C982 H973 0.930 . S
C982 C980 1.378 . S
C982 C983 1.367 . S
C983 C982 1.367 . S
C983 C985 1.433 . S
C984 C980 1.350 . S
C984 C981 1.463 . S
C984 N988 1.427 . S
C985 H975 0.929 . S
C985 C983 1.433 . S
C985 N988 1.384 . S
C986 H977 0.929 . S
C986 C978 1.378 . S
C986 C981 1.350 . S
C987 H974 0.929 . S
C987 C979 1.433 . S
C987 N989 1.384 . S
N988 C984 1.427 . S
N988 C985 1.384 . S
N989 C981 1.427 . S
N989 C987 1.384 . S
H990 C996 0.930 . S
H991 C1000 0.930 . S
H992 C1005 0.929 1_565 S
H993 C1003 0.929 . S
H994 C998 0.929 . S
H995 C1004 0.929 . S
C996 H990 0.930 . S
C996 C997 1.367 . S
C996 C1004 1.378 . S
C997 C996 1.367 . S
C997 C1005 1.433 . S
C998 H994 0.929 . S
C998 C1000 1.378 . S
C998 C1002 1.350 . S
C999 C1002 1.463 . S
C999 C1004 1.350 . S
C999 N1007 1.427 . S
C1000 H991 0.930 . S
C1000 C998 1.378 . S
C1000 C1001 1.367 . S
C1001 C1000 1.367 . S
C1001 C1003 1.433 . S
C1002 C998 1.350 . S
C1002 C999 1.463 . S
C1002 N1006 1.427 . S
C1003 H993 0.929 . S
C1003 C1001 1.433 . S
C1003 N1006 1.384 . S
C1004 H995 0.929 . S
C1004 C996 1.378 . S
C1004 C999 1.350 . S
C1005 H992 0.929 1_545 S
C1005 C997 1.433 . S
C1005 N1007 1.384 . S
N1006 C1002 1.427 . S
N1006 C1003 1.384 . S
N1007 C999 1.427 . S
N1007 C1005 1.384 . S
H1008 C1014 0.930 . S
H1009 C1018 0.930 . S
H1010 C1023 0.929 . S
H1011 C1021 0.929 . S
H1012 C1016 0.929 . S
H1013 C1022 0.929 . S
C1014 H1008 0.930 . S
C1014 C1015 1.367 . S
C1014 C1022 1.378 . S
C1015 C1014 1.367 . S
C1015 C1023 1.433 . S
C1016 H1012 0.929 . S
C1016 C1018 1.378 . S
C1016 C1020 1.350 . S
C1017 C1020 1.463 . S
C1017 C1022 1.350 . S
C1017 N1025 1.427 . S
C1018 H1009 0.930 . S
C1018 C1016 1.378 . S
C1018 C1019 1.367 . S
C1019 C1018 1.367 . S
C1019 C1021 1.433 . S
C1020 C1016 1.350 . S
C1020 C1017 1.463 . S
C1020 N1024 1.427 . S
C1021 H1011 0.929 . S
C1021 C1019 1.433 . S
C1021 N1024 1.384 . S
C1022 H1013 0.929 . S
C1022 C1014 1.378 . S
C1022 C1017 1.350 . S
C1023 H1010 0.929 . S
C1023 C1015 1.433 . S
C1023 N1025 1.384 . S
N1024 C1020 1.427 . S
N1024 C1021 1.384 . S
N1025 C1017 1.427 . S
N1025 C1023 1.384 . S
H1026 C1032 0.930 . S
H1027 C1036 0.930 . S
H1028 C1041 0.929 . S
H1029 C1039 0.929 . S
H1030 C1034 0.929 . S
H1031 C1040 0.929 . S
C1032 H1026 0.930 . S
C1032 C1033 1.367 . S
C1032 C1040 1.378 . S
C1033 C1032 1.367 . S
C1033 C1041 1.433 . S
C1034 H1030 0.929 . S
C1034 C1036 1.378 . S
C1034 C1038 1.350 . S
C1035 C1038 1.463 . S
C1035 C1040 1.350 . S
C1035 N1043 1.427 . S
C1036 H1027 0.930 . S
C1036 C1034 1.378 . S
C1036 C1037 1.367 . S
C1037 C1036 1.367 . S
C1037 C1039 1.433 . S
C1038 C1034 1.350 . S
C1038 C1035 1.463 . S
C1038 N1042 1.427 . S
C1039 H1029 0.929 . S
C1039 C1037 1.433 . S
C1039 N1042 1.384 . S
C1040 H1031 0.929 . S
C1040 C1032 1.378 . S
C1040 C1035 1.350 . S
C1041 H1028 0.929 . S
C1041 C1033 1.433 . S
C1041 N1043 1.384 . S
N1042 C1038 1.427 . S
N1042 C1039 1.384 . S
N1043 C1035 1.427 . S
N1043 C1041 1.384 . S
H1044 C1050 0.930 . S
H1045 C1054 0.930 . S
H1046 C1059 0.929 . S
H1047 C1057 0.929 . S
H1048 C1052 0.929 . S
H1049 C1058 0.929 . S
C1050 H1044 0.930 . S
C1050 C1051 1.367 . S
C1050 C1058 1.378 . S
C1051 C1050 1.367 . S
C1051 C1059 1.433 . S
C1052 H1048 0.929 . S
C1052 C1054 1.378 . S
C1052 C1056 1.350 . S
C1053 C1056 1.463 . S
C1053 C1058 1.350 . S
C1053 N1061 1.427 . S
C1054 H1045 0.930 . S
C1054 C1052 1.378 . S
C1054 C1055 1.367 . S
C1055 C1054 1.367 . S
C1055 C1057 1.433 . S
C1056 C1052 1.350 . S
C1056 C1053 1.463 . S
C1056 N1060 1.427 . S
C1057 H1047 0.929 . S
C1057 C1055 1.433 . S
C1057 N1060 1.384 . S
C1058 H1049 0.929 . S
C1058 C1050 1.378 . S
C1058 C1053 1.350 . S
C1059 H1046 0.929 . S
C1059 C1051 1.433 . S
C1059 N1061 1.384 . S
N1060 C1056 1.427 . S
N1060 C1057 1.384 . S
N1061 C1053 1.427 . S
N1061 C1059 1.384 . S
H1062 C1068 0.930 . S
H1063 C1072 0.930 . S
H1064 C1077 0.929 . S
H1065 C1075 0.929 . S
H1066 C1070 0.929 . S
H1067 C1076 0.929 . S
C1068 H1062 0.930 . S
C1068 C1069 1.367 . S
C1068 C1076 1.378 . S
C1069 C1068 1.367 . S
C1069 C1077 1.433 . S
C1070 H1066 0.929 . S
C1070 C1072 1.378 . S
C1070 C1074 1.350 . S
C1071 C1074 1.463 . S
C1071 C1076 1.350 . S
C1071 N1079 1.427 . S
C1072 H1063 0.930 . S
C1072 C1070 1.378 . S
C1072 C1073 1.367 . S
C1073 C1072 1.367 . S
C1073 C1075 1.433 . S
C1074 C1070 1.350 . S
C1074 C1071 1.463 . S
C1074 N1078 1.427 . S
C1075 H1065 0.929 . S
C1075 C1073 1.433 . S
C1075 N1078 1.384 . S
C1076 H1067 0.929 . S
C1076 C1068 1.378 . S
C1076 C1071 1.350 . S
C1077 H1064 0.929 . S
C1077 C1069 1.433 . S
C1077 N1079 1.384 . S
N1078 C1074 1.427 . S
N1078 C1075 1.384 . S
N1079 C1071 1.427 . S
N1079 C1077 1.384 . S
H1080 C1086 0.930 . S
H1081 C1090 0.930 . S
H1082 C1095 0.929 . S
H1083 C1093 0.929 . S
H1084 C1088 0.929 . S
H1085 C1094 0.929 . S
C1086 H1080 0.930 . S
C1086 C1087 1.367 . S
C1086 C1094 1.378 . S
C1087 C1086 1.367 . S
C1087 C1095 1.433 . S
C1088 H1084 0.929 . S
C1088 C1090 1.378 . S
C1088 C1092 1.350 . S
C1089 C1092 1.463 . S
C1089 C1094 1.350 . S
C1089 N1097 1.427 . S
C1090 H1081 0.930 . S
C1090 C1088 1.378 . S
C1090 C1091 1.367 . S
C1091 C1090 1.367 . S
C1091 C1093 1.433 . S
C1092 C1088 1.350 . S
C1092 C1089 1.463 . S
C1092 N1096 1.427 . S
C1093 H1083 0.929 . S
C1093 C1091 1.433 . S
C1093 N1096 1.384 . S
C1094 H1085 0.929 . S
C1094 C1086 1.378 . S
C1094 C1089 1.350 . S
C1095 H1082 0.929 . S
C1095 C1087 1.433 . S
C1095 N1097 1.384 . S
N1096 C1092 1.427 . S
N1096 C1093 1.384 . S
N1097 C1089 1.427 . S
N1097 C1095 1.384 . S
H1098 C1104 0.930 . S
H1099 C1108 0.930 . S
H1100 C1113 0.929 . S
H1101 C1111 0.929 . S
H1102 C1106 0.929 . S
H1103 C1112 0.929 . S
C1104 H1098 0.930 . S
C1104 C1105 1.367 . S
C1104 C1112 1.378 . S
C1105 C1104 1.367 . S
C1105 C1113 1.433 . S
C1106 H1102 0.929 . S
C1106 C1108 1.378 . S
C1106 C1110 1.350 . S
C1107 C1110 1.463 . S
C1107 C1112 1.350 . S
C1107 N1115 1.427 . S
C1108 H1099 0.930 . S
C1108 C1106 1.378 . S
C1108 C1109 1.367 . S
C1109 C1108 1.367 . S
C1109 C1111 1.433 . S
C1110 C1106 1.350 . S
C1110 C1107 1.463 . S
C1110 N1114 1.427 . S
C1111 H1101 0.929 . S
C1111 C1109 1.433 . S
C1111 N1114 1.384 . S
C1112 H1103 0.929 . S
C1112 C1104 1.378 . S
C1112 C1107 1.350 . S
C1113 H1100 0.929 . S
C1113 C1105 1.433 . S
C1113 N1115 1.384 . S
N1114 C1110 1.427 . S
N1114 C1111 1.384 . S
N1115 C1107 1.427 . S
N1115 C1113 1.384 . S
H1116 C1122 0.930 . S
H1117 C1126 0.930 . S
H1118 C1131 0.929 . S
H1119 C1129 0.929 . S
H1120 C1124 0.929 . S
H1121 C1130 0.929 . S
C1122 H1116 0.930 . S
C1122 C1123 1.367 . S
C1122 C1130 1.378 . S
C1123 C1122 1.367 . S
C1123 C1131 1.433 . S
C1124 H1120 0.929 . S
C1124 C1126 1.378 . S
C1124 C1128 1.350 . S
C1125 C1128 1.463 . S
C1125 C1130 1.350 . S
C1125 N1133 1.427 . S
C1126 H1117 0.930 . S
C1126 C1124 1.378 . S
C1126 C1127 1.367 . S
C1127 C1126 1.367 . S
C1127 C1129 1.433 . S
C1128 C1124 1.350 . S
C1128 C1125 1.463 . S
C1128 N1132 1.427 . S
C1129 H1119 0.929 . S
C1129 C1127 1.433 . S
C1129 N1132 1.384 . S
C1130 H1121 0.929 . S
C1130 C1122 1.378 . S
C1130 C1125 1.350 . S
C1131 H1118 0.929 . S
C1131 C1123 1.433 . S
C1131 N1133 1.384 . S
N1132 C1128 1.427 . S
N1132 C1129 1.384 . S
N1133 C1125 1.427 . S
N1133 C1131 1.384 . S
H1134 C1140 0.930 . S
H1135 C1144 0.930 . S
H1136 C1149 0.929 . S
H1137 C1147 0.929 . S
H1138 C1142 0.929 . S
H1139 C1148 0.929 . S
C1140 H1134 0.930 . S
C1140 C1141 1.367 . S
C1140 C1148 1.378 . S
C1141 C1140 1.367 . S
C1141 C1149 1.433 . S
C1142 H1138 0.929 . S
C1142 C1144 1.378 . S
C1142 C1146 1.350 . S
C1143 C1146 1.463 . S
C1143 C1148 1.350 . S
C1143 N1151 1.427 . S
C1144 H1135 0.930 . S
C1144 C1142 1.378 . S
C1144 C1145 1.367 . S
C1145 C1144 1.367 . S
C1145 C1147 1.433 . S
C1146 C1142 1.350 . S
C1146 C1143 1.463 . S
C1146 N1150 1.427 . S
C1147 H1137 0.929 . S
C1147 C1145 1.433 . S
C1147 N1150 1.384 . S
C1148 H1139 0.929 . S
C1148 C1140 1.378 . S
C1148 C1143 1.350 . S
C1149 H1136 0.929 . S
C1149 C1141 1.433 . S
C1149 N1151 1.384 . S
N1150 C1146 1.427 . S
N1150 C1147 1.384 . S
N1151 C1143 1.427 . S
N1151 C1149 1.384 . S
H1152 C1158 0.930 . S
H1153 C1162 0.930 . S
H1154 C1167 0.929 . S
H1155 C1165 0.929 . S
H1156 C1160 0.929 . S
H1157 C1166 0.929 . S
C1158 H1152 0.930 . S
C1158 C1159 1.367 . S
C1158 C1166 1.378 . S
C1159 C1158 1.367 . S
C1159 C1167 1.433 . S
C1160 H1156 0.929 . S
C1160 C1162 1.378 . S
C1160 C1164 1.350 . S
C1161 C1164 1.463 . S
C1161 C1166 1.350 . S
C1161 N1169 1.427 . S
C1162 H1153 0.930 . S
C1162 C1160 1.378 . S
C1162 C1163 1.367 . S
C1163 C1162 1.367 . S
C1163 C1165 1.433 . S
C1164 C1160 1.350 . S
C1164 C1161 1.463 . S
C1164 N1168 1.427 . S
C1165 H1155 0.929 . S
C1165 C1163 1.433 . S
C1165 N1168 1.384 . S
C1166 H1157 0.929 . S
C1166 C1158 1.378 . S
C1166 C1161 1.350 . S
C1167 H1154 0.929 . S
C1167 C1159 1.433 . S
C1167 N1169 1.384 . S
N1168 C1164 1.427 . S
N1168 C1165 1.384 . S
N1169 C1161 1.427 . S
N1169 C1167 1.384 . S
H1170 C1176 0.930 . S
H1171 C1180 0.930 . S
H1172 C1185 0.929 . S
H1173 C1183 0.929 . S
H1174 C1178 0.929 . S
H1175 C1184 0.929 . S
C1176 H1170 0.930 . S
C1176 C1177 1.367 . S
C1176 C1184 1.378 . S
C1177 C1176 1.367 . S
C1177 C1185 1.433 . S
C1178 H1174 0.929 . S
C1178 C1180 1.378 . S
C1178 C1182 1.350 . S
C1179 C1182 1.463 . S
C1179 C1184 1.350 . S
C1179 N1187 1.427 . S
C1180 H1171 0.930 . S
C1180 C1178 1.378 . S
C1180 C1181 1.367 . S
C1181 C1180 1.367 . S
C1181 C1183 1.433 . S
C1182 C1178 1.350 . S
C1182 C1179 1.463 . S
C1182 N1186 1.427 . S
C1183 H1173 0.929 . S
C1183 C1181 1.433 . S
C1183 N1186 1.384 . S
C1184 H1175 0.929 . S
C1184 C1176 1.378 . S
C1184 C1179 1.350 . S
C1185 H1172 0.929 . S
C1185 C1177 1.433 . S
C1185 N1187 1.384 . S
N1186 C1182 1.427 . S
N1186 C1183 1.384 . S
N1187 C1179 1.427 . S
N1187 C1185 1.384 . S
H1188 C1194 0.930 . S
H1189 C1198 0.930 . S
H1190 C1203 0.929 . S
H1191 C1201 0.929 . S
H1192 C1196 0.929 . S
H1193 C1202 0.929 . S
C1194 H1188 0.930 . S
C1194 C1195 1.367 . S
C1194 C1202 1.378 . S
C1195 C1194 1.367 . S
C1195 C1203 1.433 . S
C1196 H1192 0.929 . S
C1196 C1198 1.378 . S
C1196 C1200 1.350 . S
C1197 C1200 1.463 . S
C1197 C1202 1.350 . S
C1197 N1205 1.427 . S
C1198 H1189 0.930 . S
C1198 C1196 1.378 . S
C1198 C1199 1.367 . S
C1199 C1198 1.367 . S
C1199 C1201 1.433 . S
C1200 C1196 1.350 . S
C1200 C1197 1.463 . S
C1200 N1204 1.427 . S
C1201 H1191 0.929 . S
C1201 C1199 1.433 . S
C1201 N1204 1.384 . S
C1202 H1193 0.929 . S
C1202 C1194 1.378 . S
C1202 C1197 1.350 . S
C1203 H1190 0.929 . S
C1203 C1195 1.433 . S
C1203 N1205 1.384 . S
N1204 C1200 1.427 . S
N1204 C1201 1.384 . S
N1205 C1197 1.427 . S
N1205 C1203 1.384 . S
H1206 C1212 0.930 . S
H1207 C1216 0.930 . S
H1208 C1221 0.929 . S
H1209 C1219 0.929 . S
H1210 C1214 0.929 . S
H1211 C1220 0.929 . S
C1212 H1206 0.930 . S
C1212 C1213 1.367 . S
C1212 C1220 1.378 . S
C1213 C1212 1.367 . S
C1213 C1221 1.433 . S
C1214 H1210 0.929 . S
C1214 C1216 1.378 . S
C1214 C1218 1.350 . S
C1215 C1218 1.463 . S
C1215 C1220 1.350 . S
C1215 N1223 1.427 . S
C1216 H1207 0.930 . S
C1216 C1214 1.378 . S
C1216 C1217 1.367 . S
C1217 C1216 1.367 . S
C1217 C1219 1.433 . S
C1218 C1214 1.350 . S
C1218 C1215 1.463 . S
C1218 N1222 1.427 . S
C1219 H1209 0.929 . S
C1219 C1217 1.433 . S
C1219 N1222 1.384 . S
C1220 H1211 0.929 . S
C1220 C1212 1.378 . S
C1220 C1215 1.350 . S
C1221 H1208 0.929 . S
C1221 C1213 1.433 . S
C1221 N1223 1.384 . S
N1222 C1218 1.427 . S
N1222 C1219 1.384 . S
N1223 C1215 1.427 . S
N1223 C1221 1.384 . S
H1224 C1230 0.930 . S
H1225 C1234 0.930 . S
H1226 C1239 0.929 . S
H1227 C1237 0.929 . S
H1228 C1232 0.929 . S
H1229 C1238 0.929 . S
C1230 H1224 0.930 . S
C1230 C1231 1.367 . S
C1230 C1238 1.378 . S
C1231 C1230 1.367 . S
C1231 C1239 1.433 . S
C1232 H1228 0.929 . S
C1232 C1234 1.378 . S
C1232 C1236 1.350 . S
C1233 C1236 1.463 . S
C1233 C1238 1.350 . S
C1233 N1241 1.427 . S
C1234 H1225 0.930 . S
C1234 C1232 1.378 . S
C1234 C1235 1.367 . S
C1235 C1234 1.367 . S
C1235 C1237 1.433 . S
C1236 C1232 1.350 . S
C1236 C1233 1.463 . S
C1236 N1240 1.427 . S
C1237 H1227 0.929 . S
C1237 C1235 1.433 . S
C1237 N1240 1.384 . S
C1238 H1229 0.929 . S
C1238 C1230 1.378 . S
C1238 C1233 1.350 . S
C1239 H1226 0.929 . S
C1239 C1231 1.433 . S
C1239 N1241 1.384 . S
N1240 C1236 1.427 . S
N1240 C1237 1.384 . S
N1241 C1233 1.427 . S
N1241 C1239 1.384 . S
H1242 C1248 0.930 . S
H1243 C1252 0.930 . S
H1244 C1257 0.929 . S
H1245 C1255 0.929 . S
H1246 C1250 0.929 . S
H1247 C1256 0.929 . S
C1248 H1242 0.930 . S
C1248 C1249 1.367 . S
C1248 C1256 1.378 . S
C1249 C1248 1.367 . S
C1249 C1257 1.433 . S
C1250 H1246 0.929 . S
C1250 C1252 1.378 . S
C1250 C1254 1.350 . S
C1251 C1254 1.463 . S
C1251 C1256 1.350 . S
C1251 N1259 1.427 . S
C1252 H1243 0.930 . S
C1252 C1250 1.378 . S
C1252 C1253 1.367 . S
C1253 C1252 1.367 . S
C1253 C1255 1.433 . S
C1254 C1250 1.350 . S
C1254 C1251 1.463 . S
C1254 N1258 1.427 . S
C1255 H1245 0.929 . S
C1255 C1253 1.433 . S
C1255 N1258 1.384 . S
C1256 H1247 0.929 . S
C1256 C1248 1.378 . S
C1256 C1251 1.350 . S
C1257 H1244 0.929 . S
C1257 C1249 1.433 . S
C1257 N1259 1.384 . S
N1258 C1254 1.427 . S
N1258 C1255 1.384 . S
N1259 C1251 1.427 . S
N1259 C1257 1.384 . S
H1260 C1266 0.930 . S
H1261 C1270 0.930 . S
H1262 C1275 0.929 . S
H1263 C1273 0.929 . S
H1264 C1268 0.929 . S
H1265 C1274 0.929 . S
C1266 H1260 0.930 . S
C1266 C1267 1.367 . S
C1266 C1274 1.378 . S
C1267 C1266 1.367 . S
C1267 C1275 1.433 . S
C1268 H1264 0.929 . S
C1268 C1270 1.378 . S
C1268 C1272 1.350 . S
C1269 C1272 1.463 . S
C1269 C1274 1.350 . S
C1269 N1277 1.427 . S
C1270 H1261 0.930 . S
C1270 C1268 1.378 . S
C1270 C1271 1.367 . S
C1271 C1270 1.367 . S
C1271 C1273 1.433 . S
C1272 C1268 1.350 . S
C1272 C1269 1.463 . S
C1272 N1276 1.427 . S
C1273 H1263 0.929 . S
C1273 C1271 1.433 . S
C1273 N1276 1.384 . S
C1274 H1265 0.929 . S
C1274 C1266 1.378 . S
C1274 C1269 1.350 . S
C1275 H1262 0.929 . S
C1275 C1267 1.433 . S
C1275 N1277 1.384 . S
N1276 C1272 1.427 . S
N1276 C1273 1.384 . S
N1277 C1269 1.427 . S
N1277 C1275 1.384 . S
H1278 C1284 0.930 . S
H1279 C1288 0.930 . S
H1280 C1293 0.929 . S
H1281 C1291 0.929 . S
H1282 C1286 0.929 . S
H1283 C1292 0.929 . S
C1284 H1278 0.930 . S
C1284 C1285 1.367 . S
C1284 C1292 1.378 . S
C1285 C1284 1.367 . S
C1285 C1293 1.433 . S
C1286 H1282 0.929 . S
C1286 C1288 1.378 . S
C1286 C1290 1.350 . S
C1287 C1290 1.463 . S
C1287 C1292 1.350 . S
C1287 N1295 1.427 . S
C1288 H1279 0.930 . S
C1288 C1286 1.378 . S
C1288 C1289 1.367 . S
C1289 C1288 1.367 . S
C1289 C1291 1.433 . S
C1290 C1286 1.350 . S
C1290 C1287 1.463 . S
C1290 N1294 1.427 . S
C1291 H1281 0.929 . S
C1291 C1289 1.433 . S
C1291 N1294 1.384 . S
C1292 H1283 0.929 . S
C1292 C1284 1.378 . S
C1292 C1287 1.350 . S
C1293 H1280 0.929 . S
C1293 C1285 1.433 . S
C1293 N1295 1.384 . S
N1294 C1290 1.427 . S
N1294 C1291 1.384 . S
N1295 C1287 1.427 . S
N1295 C1293 1.384 . S
H1296 C1302 0.930 . S
H1297 C1306 0.930 . S
H1298 C1311 0.929 . S
H1299 C1309 0.929 . S
H1300 C1304 0.929 . S
H1301 C1310 0.929 . S
C1302 H1296 0.930 . S
C1302 C1303 1.367 . S
C1302 C1310 1.378 . S
C1303 C1302 1.367 . S
C1303 C1311 1.433 . S
C1304 H1300 0.929 . S
C1304 C1306 1.378 . S
C1304 C1308 1.350 . S
C1305 C1308 1.463 . S
C1305 C1310 1.350 . S
C1305 N1313 1.427 . S
C1306 H1297 0.930 . S
C1306 C1304 1.378 . S
C1306 C1307 1.367 . S
C1307 C1306 1.367 . S
C1307 C1309 1.433 . S
C1308 C1304 1.350 . S
C1308 C1305 1.463 . S
C1308 N1312 1.427 . S
C1309 H1299 0.929 . S
C1309 C1307 1.433 . S
C1309 N1312 1.384 . S
C1310 H1301 0.929 . S
C1310 C1302 1.378 . S
C1310 C1305 1.350 . S
C1311 H1298 0.929 . S
C1311 C1303 1.433 . S
C1311 N1313 1.384 . S
N1312 C1308 1.427 . S
N1312 C1309 1.384 . S
N1313 C1305 1.427 . S
N1313 C1311 1.384 . S
H1314 C1320 0.930 . S
H1315 C1324 0.930 . S
H1316 C1329 0.929 . S
H1317 C1327 0.929 . S
H1318 C1322 0.929 . S
H1319 C1328 0.929 . S
C1320 H1314 0.930 . S
C1320 C1321 1.367 . S
C1320 C1328 1.378 . S
C1321 C1320 1.367 . S
C1321 C1329 1.433 . S
C1322 H1318 0.929 . S
C1322 C1324 1.378 . S
C1322 C1326 1.350 . S
C1323 C1326 1.463 . S
C1323 C1328 1.350 . S
C1323 N1331 1.427 . S
C1324 H1315 0.930 . S
C1324 C1322 1.378 . S
C1324 C1325 1.367 . S
C1325 C1324 1.367 . S
C1325 C1327 1.433 . S
C1326 C1322 1.350 . S
C1326 C1323 1.463 . S
C1326 N1330 1.427 . S
C1327 H1317 0.929 . S
C1327 C1325 1.433 . S
C1327 N1330 1.384 . S
C1328 H1319 0.929 . S
C1328 C1320 1.378 . S
C1328 C1323 1.350 . S
C1329 H1316 0.929 . S
C1329 C1321 1.433 . S
C1329 N1331 1.384 . S
N1330 C1326 1.427 . S
N1330 C1327 1.384 . S
N1331 C1323 1.427 . S
N1331 C1329 1.384 . S
H1332 C1338 0.930 . S
H1333 C1342 0.930 . S
H1334 C1347 0.929 . S
H1335 C1345 0.929 . S
H1336 C1340 0.929 . S
H1337 C1346 0.929 . S
C1338 H1332 0.930 . S
C1338 C1339 1.367 . S
C1338 C1346 1.378 . S
C1339 C1338 1.367 . S
C1339 C1347 1.433 . S
C1340 H1336 0.929 . S
C1340 C1342 1.378 . S
C1340 C1344 1.350 . S
C1341 C1344 1.463 . S
C1341 C1346 1.350 . S
C1341 N1349 1.427 . S
C1342 H1333 0.930 . S
C1342 C1340 1.378 . S
C1342 C1343 1.367 . S
C1343 C1342 1.367 . S
C1343 C1345 1.433 . S
C1344 C1340 1.350 . S
C1344 C1341 1.463 . S
C1344 N1348 1.427 . S
C1345 H1335 0.929 . S
C1345 C1343 1.433 . S
C1345 N1348 1.384 . S
C1346 H1337 0.929 . S
C1346 C1338 1.378 . S
C1346 C1341 1.350 . S
C1347 H1334 0.929 . S
C1347 C1339 1.433 . S
C1347 N1349 1.384 . S
N1348 C1344 1.427 . S
N1348 C1345 1.384 . S
N1349 C1341 1.427 . S
N1349 C1347 1.384 . S
H1350 C1356 0.930 . S
H1351 C1360 0.930 . S
H1352 C1365 0.929 . S
H1353 C1363 0.929 . S
H1354 C1358 0.929 . S
H1355 C1364 0.929 . S
C1356 H1350 0.930 . S
C1356 C1357 1.367 . S
C1356 C1364 1.378 . S
C1357 C1356 1.367 . S
C1357 C1365 1.433 . S
C1358 H1354 0.929 . S
C1358 C1360 1.378 . S
C1358 C1362 1.350 . S
C1359 C1362 1.463 . S
C1359 C1364 1.350 . S
C1359 N1367 1.427 . S
C1360 H1351 0.930 . S
C1360 C1358 1.378 . S
C1360 C1361 1.367 . S
C1361 C1360 1.367 . S
C1361 C1363 1.433 . S
C1362 C1358 1.350 . S
C1362 C1359 1.463 . S
C1362 N1366 1.427 . S
C1363 H1353 0.929 . S
C1363 C1361 1.433 . S
C1363 N1366 1.384 . S
C1364 H1355 0.929 . S
C1364 C1356 1.378 . S
C1364 C1359 1.350 . S
C1365 H1352 0.929 . S
C1365 C1357 1.433 . S
C1365 N1367 1.384 . S
N1366 C1362 1.427 . S
N1366 C1363 1.384 . S
N1367 C1359 1.427 . S
N1367 C1365 1.384 . S
H1368 C1374 0.930 . S
H1369 C1378 0.930 . S
H1370 C1383 0.929 . S
H1371 C1381 0.929 . S
H1372 C1376 0.929 . S
H1373 C1382 0.929 . S
C1374 H1368 0.930 . S
C1374 C1375 1.367 . S
C1374 C1382 1.378 . S
C1375 C1374 1.367 . S
C1375 C1383 1.433 . S
C1376 H1372 0.929 . S
C1376 C1378 1.378 . S
C1376 C1380 1.350 . S
C1377 C1380 1.463 . S
C1377 C1382 1.350 . S
C1377 N1385 1.427 . S
C1378 H1369 0.930 . S
C1378 C1376 1.378 . S
C1378 C1379 1.367 . S
C1379 C1378 1.367 . S
C1379 C1381 1.433 . S
C1380 C1376 1.350 . S
C1380 C1377 1.463 . S
C1380 N1384 1.427 . S
C1381 H1371 0.929 . S
C1381 C1379 1.433 . S
C1381 N1384 1.384 . S
C1382 H1373 0.929 . S
C1382 C1374 1.378 . S
C1382 C1377 1.350 . S
C1383 H1370 0.929 . S
C1383 C1375 1.433 . S
C1383 N1385 1.384 . S
N1384 C1380 1.427 . S
N1384 C1381 1.384 . S
N1385 C1377 1.427 . S
N1385 C1383 1.384 . S
H1386 C1392 0.930 . S
H1387 C1396 0.930 . S
H1388 C1401 0.929 . S
H1389 C1399 0.929 . S
H1390 C1394 0.929 . S
H1391 C1400 0.929 . S
C1392 H1386 0.930 . S
C1392 C1393 1.367 . S
C1392 C1400 1.378 . S
C1393 C1392 1.367 . S
C1393 C1401 1.433 . S
C1394 H1390 0.929 . S
C1394 C1396 1.378 . S
C1394 C1398 1.350 . S
C1395 C1398 1.463 . S
C1395 C1400 1.350 . S
C1395 N1403 1.427 . S
C1396 H1387 0.930 . S
C1396 C1394 1.378 . S
C1396 C1397 1.367 . S
C1397 C1396 1.367 . S
C1397 C1399 1.433 . S
C1398 C1394 1.350 . S
C1398 C1395 1.463 . S
C1398 N1402 1.427 . S
C1399 H1389 0.929 . S
C1399 C1397 1.433 . S
C1399 N1402 1.384 . S
C1400 H1391 0.929 . S
C1400 C1392 1.378 . S
C1400 C1395 1.350 . S
C1401 H1388 0.929 . S
C1401 C1393 1.433 . S
C1401 N1403 1.384 . S
N1402 C1398 1.427 . S
N1402 C1399 1.384 . S
N1403 C1395 1.427 . S
N1403 C1401 1.384 . S
H1404 C1410 0.930 . S
H1405 C1414 0.930 . S
H1406 C1419 0.929 . S
H1407 C1417 0.929 . S
H1408 C1412 0.929 . S
H1409 C1418 0.929 . S
C1410 H1404 0.930 . S
C1410 C1411 1.367 . S
C1410 C1418 1.378 . S
C1411 C1410 1.367 . S
C1411 C1419 1.433 . S
C1412 H1408 0.929 . S
C1412 C1414 1.378 . S
C1412 C1416 1.350 . S
C1413 C1416 1.463 . S
C1413 C1418 1.350 . S
C1413 N1421 1.427 . S
C1414 H1405 0.930 . S
C1414 C1412 1.378 . S
C1414 C1415 1.367 . S
C1415 C1414 1.367 . S
C1415 C1417 1.433 . S
C1416 C1412 1.350 . S
C1416 C1413 1.463 . S
C1416 N1420 1.427 . S
C1417 H1407 0.929 . S
C1417 C1415 1.433 . S
C1417 N1420 1.384 . S
C1418 H1409 0.929 . S
C1418 C1410 1.378 . S
C1418 C1413 1.350 . S
C1419 H1406 0.929 . S
C1419 C1411 1.433 . S
C1419 N1421 1.384 . S
N1420 C1416 1.427 . S
N1420 C1417 1.384 . S
N1421 C1413 1.427 . S
N1421 C1419 1.384 . S
H1422 C1428 0.930 . S
H1423 C1432 0.930 . S
H1424 C1437 0.929 . S
H1425 C1435 0.929 . S
H1426 C1430 0.929 . S
H1427 C1436 0.929 . S
C1428 H1422 0.930 . S
C1428 C1429 1.367 . S
C1428 C1436 1.378 . S
C1429 C1428 1.367 . S
C1429 C1437 1.433 . S
C1430 H1426 0.929 . S
C1430 C1432 1.378 . S
C1430 C1434 1.350 . S
C1431 C1434 1.463 . S
C1431 C1436 1.350 . S
C1431 N1439 1.427 . S
C1432 H1423 0.930 . S
C1432 C1430 1.378 . S
C1432 C1433 1.367 . S
C1433 C1432 1.367 . S
C1433 C1435 1.433 . S
C1434 C1430 1.350 . S
C1434 C1431 1.463 . S
C1434 N1438 1.427 . S
C1435 H1425 0.929 . S
C1435 C1433 1.433 . S
C1435 N1438 1.384 . S
C1436 H1427 0.929 . S
C1436 C1428 1.378 . S
C1436 C1431 1.350 . S
C1437 H1424 0.929 . S
C1437 C1429 1.433 . S
C1437 N1439 1.384 . S
N1438 C1434 1.427 . S
N1438 C1435 1.384 . S
N1439 C1431 1.427 . S
N1439 C1437 1.384 . S
H1440 C1446 0.930 . S
H1441 C1450 0.930 . S
H1442 C1455 0.929 . S
H1443 C1453 0.929 . S
H1444 C1448 0.929 . S
H1445 C1454 0.929 . S
C1446 H1440 0.930 . S
C1446 C1447 1.367 . S
C1446 C1454 1.378 . S
C1447 C1446 1.367 . S
C1447 C1455 1.433 . S
C1448 H1444 0.929 . S
C1448 C1450 1.378 . S
C1448 C1452 1.350 . S
C1449 C1452 1.463 . S
C1449 C1454 1.350 . S
C1449 N1457 1.427 . S
C1450 H1441 0.930 . S
C1450 C1448 1.378 . S
C1450 C1451 1.367 . S
C1451 C1450 1.367 . S
C1451 C1453 1.433 . S
C1452 C1448 1.350 . S
C1452 C1449 1.463 . S
C1452 N1456 1.427 . S
C1453 H1443 0.929 . S
C1453 C1451 1.433 . S
C1453 N1456 1.384 . S
C1454 H1445 0.929 . S
C1454 C1446 1.378 . S
C1454 C1449 1.350 . S
C1455 H1442 0.929 . S
C1455 C1447 1.433 . S
C1455 N1457 1.384 . S
N1456 C1452 1.427 . S
N1456 C1453 1.384 . S
N1457 C1449 1.427 . S
N1457 C1455 1.384 . S
H1458 C1464 0.930 . S
H1459 C1468 0.930 . S
H1460 C1473 0.929 . S
H1461 C1471 0.929 . S
H1462 C1466 0.929 . S
H1463 C1472 0.929 . S
C1464 H1458 0.930 . S
C1464 C1465 1.367 . S
C1464 C1472 1.378 . S
C1465 C1464 1.367 . S
C1465 C1473 1.433 . S
C1466 H1462 0.929 . S
C1466 C1468 1.378 . S
C1466 C1470 1.350 . S
C1467 C1470 1.463 . S
C1467 C1472 1.350 . S
C1467 N1475 1.427 . S
C1468 H1459 0.930 . S
C1468 C1466 1.378 . S
C1468 C1469 1.367 . S
C1469 C1468 1.367 . S
C1469 C1471 1.433 . S
C1470 C1466 1.350 . S
C1470 C1467 1.463 . S
C1470 N1474 1.427 . S
C1471 H1461 0.929 . S
C1471 C1469 1.433 . S
C1471 N1474 1.384 . S
C1472 H1463 0.929 . S
C1472 C1464 1.378 . S
C1472 C1467 1.350 . S
C1473 H1460 0.929 . S
C1473 C1465 1.433 . S
C1473 N1475 1.384 . S
N1474 C1470 1.427 . S
N1474 C1471 1.384 . S
N1475 C1467 1.427 . S
N1475 C1473 1.384 . S
H1476 C1482 0.930 . S
H1477 C1486 0.930 . S
H1478 C1491 0.929 . S
H1479 C1489 0.929 . S
H1480 C1484 0.929 . S
H1481 C1490 0.929 . S
C1482 H1476 0.930 . S
C1482 C1483 1.367 . S
C1482 C1490 1.378 . S
C1483 C1482 1.367 . S
C1483 C1491 1.433 . S
C1484 H1480 0.929 . S
C1484 C1486 1.378 . S
C1484 C1488 1.350 . S
C1485 C1488 1.463 . S
C1485 C1490 1.350 . S
C1485 N1493 1.427 . S
C1486 H1477 0.930 . S
C1486 C1484 1.378 . S
C1486 C1487 1.367 . S
C1487 C1486 1.367 . S
C1487 C1489 1.433 . S
C1488 C1484 1.350 . S
C1488 C1485 1.463 . S
C1488 N1492 1.427 . S
C1489 H1479 0.929 . S
C1489 C1487 1.433 . S
C1489 N1492 1.384 . S
C1490 H1481 0.929 . S
C1490 C1482 1.378 . S
C1490 C1485 1.350 . S
C1491 H1478 0.929 . S
C1491 C1483 1.433 . S
C1491 N1493 1.384 . S
N1492 C1488 1.427 . S
N1492 C1489 1.384 . S
N1493 C1485 1.427 . S
N1493 C1491 1.384 . S
H1494 C1500 0.930 . S
H1495 C1504 0.930 . S
H1496 C1509 0.929 . S
H1497 C1507 0.929 . S
H1498 C1502 0.929 . S
H1499 C1508 0.929 . S
C1500 H1494 0.930 . S
C1500 C1501 1.367 . S
C1500 C1508 1.378 . S
C1501 C1500 1.367 . S
C1501 C1509 1.433 . S
C1502 H1498 0.929 . S
C1502 C1504 1.378 . S
C1502 C1506 1.350 . S
C1503 C1506 1.463 . S
C1503 C1508 1.350 . S
C1503 N1511 1.427 . S
C1504 H1495 0.930 . S
C1504 C1502 1.378 . S
C1504 C1505 1.367 . S
C1505 C1504 1.367 . S
C1505 C1507 1.433 . S
C1506 C1502 1.350 . S
C1506 C1503 1.463 . S
C1506 N1510 1.427 . S
C1507 H1497 0.929 . S
C1507 C1505 1.433 . S
C1507 N1510 1.384 . S
C1508 H1499 0.929 . S
C1508 C1500 1.378 . S
C1508 C1503 1.350 . S
C1509 H1496 0.929 . S
C1509 C1501 1.433 . S
C1509 N1511 1.384 . S
N1510 C1506 1.427 . S
N1510 C1507 1.384 . S
N1511 C1503 1.427 . S
N1511 C1509 1.384 . S
H1512 C1518 0.930 . S
H1513 C1522 0.930 . S
H1514 C1527 0.929 . S
H1515 C1525 0.929 . S
H1516 C1520 0.929 . S
H1517 C1526 0.929 . S
C1518 H1512 0.930 . S
C1518 C1519 1.367 . S
C1518 C1526 1.378 . S
C1519 C1518 1.367 . S
C1519 C1527 1.433 . S
C1520 H1516 0.929 . S
C1520 C1522 1.378 . S
C1520 C1524 1.350 . S
C1521 C1524 1.463 . S
C1521 C1526 1.350 . S
C1521 N1529 1.427 . S
C1522 H1513 0.930 . S
C1522 C1520 1.378 . S
C1522 C1523 1.367 . S
C1523 C1522 1.367 . S
C1523 C1525 1.433 . S
C1524 C1520 1.350 . S
C1524 C1521 1.463 . S
C1524 N1528 1.427 . S
C1525 H1515 0.929 . S
C1525 C1523 1.433 . S
C1525 N1528 1.384 . S
C1526 H1517 0.929 . S
C1526 C1518 1.378 . S
C1526 C1521 1.350 . S
C1527 H1514 0.929 . S
C1527 C1519 1.433 . S
C1527 N1529 1.384 . S
N1528 C1524 1.427 . S
N1528 C1525 1.384 . S
N1529 C1521 1.427 . S
N1529 C1527 1.384 . S
H1530 C1536 0.930 . S
H1531 C1540 0.930 . S
H1532 C1545 0.929 . S
H1533 C1543 0.929 . S
H1534 C1538 0.929 . S
H1535 C1544 0.929 . S
C1536 H1530 0.930 . S
C1536 C1537 1.367 . S
C1536 C1544 1.378 . S
C1537 C1536 1.367 . S
C1537 C1545 1.433 . S
C1538 H1534 0.929 . S
C1538 C1540 1.378 . S
C1538 C1542 1.350 . S
C1539 C1542 1.463 . S
C1539 C1544 1.350 . S
C1539 N1547 1.427 . S
C1540 H1531 0.930 . S
C1540 C1538 1.378 . S
C1540 C1541 1.367 . S
C1541 C1540 1.367 . S
C1541 C1543 1.433 . S
C1542 C1538 1.350 . S
C1542 C1539 1.463 . S
C1542 N1546 1.427 . S
C1543 H1533 0.929 . S
C1543 C1541 1.433 . S
C1543 N1546 1.384 . S
C1544 H1535 0.929 . S
C1544 C1536 1.378 . S
C1544 C1539 1.350 . S
C1545 H1532 0.929 . S
C1545 C1537 1.433 . S
C1545 N1547 1.384 . S
N1546 C1542 1.427 . S
N1546 C1543 1.384 . S
N1547 C1539 1.427 . S
N1547 C1545 1.384 . S
H1548 C1554 0.930 . S
H1549 C1558 0.930 . S
H1550 C1563 0.929 . S
H1551 C1561 0.929 . S
H1552 C1556 0.929 . S
H1553 C1562 0.929 . S
C1554 H1548 0.930 . S
C1554 C1555 1.367 . S
C1554 C1562 1.378 . S
C1555 C1554 1.367 . S
C1555 C1563 1.433 . S
C1556 H1552 0.929 . S
C1556 C1558 1.378 . S
C1556 C1560 1.350 . S
C1557 C1560 1.463 . S
C1557 C1562 1.350 . S
C1557 N1565 1.427 . S
C1558 H1549 0.930 . S
C1558 C1556 1.378 . S
C1558 C1559 1.367 . S
C1559 C1558 1.367 . S
C1559 C1561 1.433 . S
C1560 C1556 1.350 . S
C1560 C1557 1.463 . S
C1560 N1564 1.427 . S
C1561 H1551 0.929 . S
C1561 C1559 1.433 . S
C1561 N1564 1.384 . S
C1562 H1553 0.929 . S
C1562 C1554 1.378 . S
C1562 C1557 1.350 . S
C1563 H1550 0.929 . S
C1563 C1555 1.433 . S
C1563 N1565 1.384 . S
N1564 C1560 1.427 . S
N1564 C1561 1.384 . S
N1565 C1557 1.427 . S
N1565 C1563 1.384 . S
H1566 C1572 0.930 . S
H1567 C1576 0.930 . S
H1568 C1581 0.929 . S
H1569 C1579 0.929 . S
H1570 C1574 0.929 . S
H1571 C1580 0.929 . S
C1572 H1566 0.930 . S
C1572 C1573 1.367 . S
C1572 C1580 1.378 . S
C1573 C1572 1.367 . S
C1573 C1581 1.433 . S
C1574 H1570 0.929 . S
C1574 C1576 1.378 . S
C1574 C1578 1.350 . S
C1575 C1578 1.463 . S
C1575 C1580 1.350 . S
C1575 N1583 1.427 . S
C1576 H1567 0.930 . S
C1576 C1574 1.378 . S
C1576 C1577 1.367 . S
C1577 C1576 1.367 . S
C1577 C1579 1.433 . S
C1578 C1574 1.350 . S
C1578 C1575 1.463 . S
C1578 N1582 1.427 . S
C1579 H1569 0.929 . S
C1579 C1577 1.433 . S
C1579 N1582 1.384 . S
C1580 H1571 0.929 . S
C1580 C1572 1.378 . S
C1580 C1575 1.350 . S
C1581 H1568 0.929 . S
C1581 C1573 1.433 . S
C1581 N1583 1.384 . S
N1582 C1578 1.427 . S
N1582 C1579 1.384 . S
N1583 C1575 1.427 . S
N1583 C1581 1.384 . S
H1584 C1590 0.930 . S
H1585 C1594 0.930 . S
H1586 C1599 0.929 . S
H1587 C1597 0.929 . S
H1588 C1592 0.929 . S
H1589 C1598 0.929 . S
C1590 H1584 0.930 . S
C1590 C1591 1.367 . S
C1590 C1598 1.378 . S
C1591 C1590 1.367 . S
C1591 C1599 1.433 . S
C1592 H1588 0.929 . S
C1592 C1594 1.378 . S
C1592 C1596 1.350 . S
C1593 C1596 1.463 . S
C1593 C1598 1.350 . S
C1593 N1601 1.427 . S
C1594 H1585 0.930 . S
C1594 C1592 1.378 . S
C1594 C1595 1.367 . S
C1595 C1594 1.367 . S
C1595 C1597 1.433 . S
C1596 C1592 1.350 . S
C1596 C1593 1.463 . S
C1596 N1600 1.427 . S
C1597 H1587 0.929 . S
C1597 C1595 1.433 . S
C1597 N1600 1.384 . S
C1598 H1589 0.929 . S
C1598 C1590 1.378 . S
C1598 C1593 1.350 . S
C1599 H1586 0.929 . S
C1599 C1591 1.433 . S
C1599 N1601 1.384 . S
N1600 C1596 1.427 . S
N1600 C1597 1.384 . S
N1601 C1593 1.427 . S
N1601 C1599 1.384 . S
H1602 C1608 0.930 . S
H1603 C1612 0.930 . S
H1604 C1617 0.929 . S
H1605 C1615 0.929 . S
H1606 C1610 0.929 . S
H1607 C1616 0.929 . S
C1608 H1602 0.930 . S
C1608 C1609 1.367 . S
C1608 C1616 1.378 . S
C1609 C1608 1.367 . S
C1609 C1617 1.433 . S
C1610 H1606 0.929 . S
C1610 C1612 1.378 . S
C1610 C1614 1.350 . S
C1611 C1614 1.463 . S
C1611 C1616 1.350 . S
C1611 N1619 1.427 . S
C1612 H1603 0.930 . S
C1612 C1610 1.378 . S
C1612 C1613 1.367 . S
C1613 C1612 1.367 . S
C1613 C1615 1.433 . S
C1614 C1610 1.350 . S
C1614 C1611 1.463 . S
C1614 N1618 1.427 . S
C1615 H1605 0.929 . S
C1615 C1613 1.433 . S
C1615 N1618 1.384 . S
C1616 H1607 0.929 . S
C1616 C1608 1.378 . S
C1616 C1611 1.350 . S
C1617 H1604 0.929 . S
C1617 C1609 1.433 . S
C1617 N1619 1.384 . S
N1618 C1614 1.427 . S
N1618 C1615 1.384 . S
N1619 C1611 1.427 . S
N1619 C1617 1.384 . S
H1620 C1626 0.930 . S
H1621 C1630 0.930 . S
H1622 C1635 0.929 . S
H1623 C1633 0.929 . S
H1624 C1628 0.929 . S
H1625 C1634 0.929 . S
C1626 H1620 0.930 . S
C1626 C1627 1.367 . S
C1626 C1634 1.378 . S
C1627 C1626 1.367 . S
C1627 C1635 1.433 . S
C1628 H1624 0.929 . S
C1628 C1630 1.378 . S
C1628 C1632 1.350 . S
C1629 C1632 1.463 . S
C1629 C1634 1.350 . S
C1629 N1637 1.427 . S
C1630 H1621 0.930 . S
C1630 C1628 1.378 . S
C1630 C1631 1.367 . S
C1631 C1630 1.367 . S
C1631 C1633 1.433 . S
C1632 C1628 1.350 . S
C1632 C1629 1.463 . S
C1632 N1636 1.427 . S
C1633 H1623 0.929 . S
C1633 C1631 1.433 . S
C1633 N1636 1.384 . S
C1634 H1625 0.929 . S
C1634 C1626 1.378 . S
C1634 C1629 1.350 . S
C1635 H1622 0.929 . S
C1635 C1627 1.433 . S
C1635 N1637 1.384 . S
N1636 C1632 1.427 . S
N1636 C1633 1.384 . S
N1637 C1629 1.427 . S
N1637 C1635 1.384 . S
H1638 C1644 0.930 . S
H1639 C1648 0.930 . S
H1640 C1653 0.929 . S
H1641 C1651 0.929 . S
H1642 C1646 0.929 . S
H1643 C1652 0.929 . S
C1644 H1638 0.930 . S
C1644 C1645 1.367 . S
C1644 C1652 1.378 . S
C1645 C1644 1.367 . S
C1645 C1653 1.433 . S
C1646 H1642 0.929 . S
C1646 C1648 1.378 . S
C1646 C1650 1.350 . S
C1647 C1650 1.463 . S
C1647 C1652 1.350 . S
C1647 N1655 1.427 . S
C1648 H1639 0.930 . S
C1648 C1646 1.378 . S
C1648 C1649 1.367 . S
C1649 C1648 1.367 . S
C1649 C1651 1.433 . S
C1650 C1646 1.350 . S
C1650 C1647 1.463 . S
C1650 N1654 1.427 . S
C1651 H1641 0.929 . S
C1651 C1649 1.433 . S
C1651 N1654 1.384 . S
C1652 H1643 0.929 . S
C1652 C1644 1.378 . S
C1652 C1647 1.350 . S
C1653 H1640 0.929 . S
C1653 C1645 1.433 . S
C1653 N1655 1.384 . S
N1654 C1650 1.427 . S
N1654 C1651 1.384 . S
N1655 C1647 1.427 . S
N1655 C1653 1.384 . S
H1656 C1662 0.930 . S
H1657 C1666 0.930 . S
H1658 C1671 0.929 . S
H1659 C1669 0.929 . S
H1660 C1664 0.929 . S
H1661 C1670 0.929 . S
C1662 H1656 0.930 . S
C1662 C1663 1.367 . S
C1662 C1670 1.378 . S
C1663 C1662 1.367 . S
C1663 C1671 1.433 . S
C1664 H1660 0.929 . S
C1664 C1666 1.378 . S
C1664 C1668 1.350 . S
C1665 C1668 1.463 1_655 S
C1665 C1670 1.350 . S
C1665 N1673 1.427 . S
C1666 H1657 0.930 . S
C1666 C1664 1.378 . S
C1666 C1667 1.367 . S
C1667 C1666 1.367 . S
C1667 C1669 1.433 . S
C1668 C1664 1.350 . S
C1668 C1665 1.463 1_455 S
C1668 N1672 1.427 . S
C1669 H1659 0.929 . S
C1669 C1667 1.433 . S
C1669 N1672 1.384 . S
C1670 H1661 0.929 . S
C1670 C1662 1.378 . S
C1670 C1665 1.350 . S
C1671 H1658 0.929 . S
C1671 C1663 1.433 . S
C1671 N1673 1.384 . S
N1672 C1668 1.427 . S
N1672 C1669 1.384 . S
N1673 C1665 1.427 . S
N1673 C1671 1.384 . S
H1674 C1680 0.930 . S
H1675 C1684 0.930 . S
H1676 C1689 0.929 . S
H1677 C1687 0.929 . S
H1678 C1682 0.929 . S
H1679 C1688 0.929 . S
C1680 H1674 0.930 . S
C1680 C1681 1.367 . S
C1680 C1688 1.378 . S
C1681 C1680 1.367 . S
C1681 C1689 1.433 . S
C1682 H1678 0.929 . S
C1682 C1684 1.378 . S
C1682 C1686 1.350 . S
C1683 C1686 1.463 . S
C1683 C1688 1.350 . S
C1683 N1691 1.427 . S
C1684 H1675 0.930 . S
C1684 C1682 1.378 . S
C1684 C1685 1.367 . S
C1685 C1684 1.367 . S
C1685 C1687 1.433 . S
C1686 C1682 1.350 . S
C1686 C1683 1.463 . S
C1686 N1690 1.427 . S
C1687 H1677 0.929 . S
C1687 C1685 1.433 . S
C1687 N1690 1.384 . S
C1688 H1679 0.929 . S
C1688 C1680 1.378 . S
C1688 C1683 1.350 . S
C1689 H1676 0.929 . S
C1689 C1681 1.433 . S
C1689 N1691 1.384 . S
N1690 C1686 1.427 . S
N1690 C1687 1.384 . S
N1691 C1683 1.427 . S
N1691 C1689 1.384 . S
H1692 C1698 0.930 . S
H1693 C1702 0.930 . S
H1694 C1707 0.929 . S
H1695 C1705 0.929 . S
H1696 C1700 0.929 . S
H1697 C1706 0.929 . S
C1698 H1692 0.930 . S
C1698 C1699 1.367 . S
C1698 C1706 1.378 . S
C1699 C1698 1.367 . S
C1699 C1707 1.433 . S
C1700 H1696 0.929 . S
C1700 C1702 1.378 . S
C1700 C1704 1.350 . S
C1701 C1704 1.463 1_545 S
C1701 C1706 1.350 . S
C1701 N1709 1.427 . S
C1702 H1693 0.930 . S
C1702 C1700 1.378 . S
C1702 C1703 1.367 . S
C1703 C1702 1.367 . S
C1703 C1705 1.433 . S
C1704 C1700 1.350 . S
C1704 C1701 1.463 1_565 S
C1704 N1708 1.427 . S
C1705 H1695 0.929 . S
C1705 C1703 1.433 . S
C1705 N1708 1.384 . S
C1706 H1697 0.929 . S
C1706 C1698 1.378 . S
C1706 C1701 1.350 . S
C1707 H1694 0.929 . S
C1707 C1699 1.433 . S
C1707 N1709 1.384 . S
N1708 C1704 1.427 . S
N1708 C1705 1.384 . S
N1709 C1701 1.427 . S
N1709 C1707 1.384 . S
H1710 C1716 0.930 . S
H1711 C1720 0.930 . S
H1712 C1725 0.929 . S
H1713 C1723 0.929 . S
H1714 C1718 0.929 1_545 S
H1715 C1724 0.929 1_565 S
C1716 H1710 0.930 . S
C1716 C1717 1.367 . S
C1716 C1724 1.378 . S
C1717 C1716 1.367 . S
C1717 C1725 1.433 . S
C1718 H1714 0.929 1_565 S
C1718 C1720 1.378 . S
C1718 C1722 1.350 . S
C1719 C1722 1.463 1_546 S
C1719 C1724 1.350 . S
C1719 N1727 1.413 1_556 S
C1720 H1711 0.930 . S
C1720 C1718 1.378 . S
C1720 C1721 1.367 . S
C1721 C1720 1.367 . S
C1721 C1723 1.433 . S
C1722 C1718 1.350 . S
C1722 C1719 1.463 1_564 S
C1722 N1726 1.413 1_554 S
C1723 H1713 0.929 . S
C1723 C1721 1.433 . S
C1723 N1726 1.361 1_554 S
C1724 H1715 0.929 1_545 S
C1724 C1716 1.378 . S
C1724 C1719 1.350 . S
C1725 H1712 0.929 . S
C1725 C1717 1.433 . S
C1725 N1727 1.361 1_556 S
N1726 C1722 1.413 1_556 S
N1726 C1723 1.361 1_556 S
N1727 C1719 1.413 1_554 S
N1727 C1725 1.361 1_554 S
H1728 C1734 0.930 1_556 S
H1729 C1738 0.930 1_554 S
H1730 C1743 0.929 . S
H1731 C1741 0.929 . S
H1732 C1736 0.929 . S
H1733 C1742 0.929 . S
C1734 H1728 0.930 1_554 S
C1734 C1735 1.367 . S
C1734 C1742 1.378 1_554 S
C1735 C1734 1.367 . S
C1735 C1743 1.433 . S
C1736 H1732 0.929 . S
C1736 C1738 1.378 1_554 S
C1736 C1740 1.350 1_554 S
C1737 C1740 1.463 1_454 S
C1737 C1742 1.350 1_554 S
C1737 N1745 1.427 . S
C1738 H1729 0.930 1_556 S
C1738 C1736 1.378 1_556 S
C1738 C1739 1.367 . S
C1739 C1738 1.367 . S
C1739 C1741 1.433 . S
C1740 C1736 1.350 1_556 S
C1740 C1737 1.463 1_656 S
C1740 N1744 1.427 . S
C1741 H1731 0.929 . S
C1741 C1739 1.433 . S
C1741 N1744 1.384 . S
C1742 H1733 0.929 . S
C1742 C1734 1.378 1_556 S
C1742 C1737 1.350 1_556 S
C1743 H1730 0.929 . S
C1743 C1735 1.433 . S
C1743 N1745 1.384 . S
N1744 C1740 1.427 . S
N1744 C1741 1.384 . S
N1745 C1737 1.427 . S
N1745 C1743 1.384 . S
H1746 C1752 0.930 . S
H1747 C1756 0.930 . S
H1748 C1761 0.929 . S
H1749 C1759 0.929 . S
H1750 C1754 0.929 . S
H1751 C1760 0.929 . S
C1752 H1746 0.930 . S
C1752 C1753 1.367 . S
C1752 C1760 1.378 . S
C1753 C1752 1.367 . S
C1753 C1761 1.433 . S
C1754 H1750 0.929 . S
C1754 C1756 1.378 . S
C1754 C1758 1.350 . S
C1755 C1758 1.463 1_556 S
C1755 C1760 1.350 . S
C1755 N1763 1.427 . S
C1756 H1747 0.930 . S
C1756 C1754 1.378 . S
C1756 C1757 1.367 . S
C1757 C1756 1.367 . S
C1757 C1759 1.433 . S
C1758 C1754 1.350 . S
C1758 C1755 1.463 1_554 S
C1758 N1762 1.427 . S
C1759 H1749 0.929 . S
C1759 C1757 1.433 . S
C1759 N1762 1.384 . S
C1760 H1751 0.929 . S
C1760 C1752 1.378 . S
C1760 C1755 1.350 . S
C1761 H1748 0.929 . S
C1761 C1753 1.433 . S
C1761 N1763 1.384 . S
N1762 C1758 1.427 . S
N1762 C1759 1.384 . S
N1763 C1755 1.427 . S
N1763 C1761 1.384 . S
H1764 C1770 0.930 . S
H1765 C1774 0.930 . S
H1766 C1779 0.929 . S
H1767 C1777 0.929 . S
H1768 C1772 0.929 . S
H1769 C1778 0.929 . S
C1770 H1764 0.930 . S
C1770 C1771 1.367 . S
C1770 C1778 1.378 . S
C1771 C1770 1.367 . S
C1771 C1779 1.433 . S
C1772 H1768 0.929 . S
C1772 C1774 1.378 . S
C1772 C1776 1.350 . S
C1773 C1776 1.463 . S
C1773 C1778 1.350 . S
C1773 N1781 1.427 . S
C1774 H1765 0.930 . S
C1774 C1772 1.378 . S
C1774 C1775 1.367 . S
C1775 C1774 1.367 . S
C1775 C1777 1.433 . S
C1776 C1772 1.350 . S
C1776 C1773 1.463 . S
C1776 N1780 1.427 . S
C1777 H1767 0.929 . S
C1777 C1775 1.433 . S
C1777 N1780 1.384 . S
C1778 H1769 0.929 . S
C1778 C1770 1.378 . S
C1778 C1773 1.350 . S
C1779 H1766 0.929 . S
C1779 C1771 1.433 . S
C1779 N1781 1.384 . S
N1780 C1776 1.427 . S
N1780 C1777 1.384 . S
N1781 C1773 1.427 . S
N1781 C1779 1.384 . S
H1782 C1788 0.930 . S
H1783 C1792 0.930 . S
H1784 C1797 0.929 . S
H1785 C1795 0.931 1_545 S
H1786 C1790 0.929 . S
H1787 C1796 0.929 . S
C1788 H1782 0.930 . S
C1788 C1789 1.367 . S
C1788 C1796 1.378 . S
C1789 C1788 1.367 . S
C1789 C1797 1.433 . S
C1790 H1786 0.929 . S
C1790 C1792 1.378 . S
C1790 C1794 1.350 . S
C1791 C1794 1.463 . S
C1791 C1796 1.350 . S
C1791 N1799 1.427 . S
C1792 H1783 0.930 . S
C1792 C1790 1.378 . S
C1792 C1793 1.367 . S
C1793 C1792 1.367 . S
C1793 C1795 1.433 . S
C1794 C1790 1.350 . S
C1794 C1791 1.463 . S
C1794 N1798 1.427 . S
C1795 H1785 0.931 1_565 S
C1795 C1793 1.433 . S
C1795 N1798 1.384 . S
C1796 H1787 0.929 . S
C1796 C1788 1.378 . S
C1796 C1791 1.350 . S
C1797 H1784 0.929 . S
C1797 C1789 1.433 . S
C1797 N1799 1.384 . S
N1798 C1794 1.427 . S
N1798 C1795 1.384 . S
N1799 C1791 1.427 . S
N1799 C1797 1.384 . S
H1800 C1806 0.930 . S
H1801 C1810 0.930 . S
H1802 C1815 0.929 . S
H1803 C1813 0.929 . S
H1804 C1808 0.929 . S
H1805 C1814 0.929 . S
C1806 H1800 0.930 . S
C1806 C1807 1.367 . S
C1806 C1814 1.378 . S
C1807 C1806 1.367 . S
C1807 C1815 1.433 . S
C1808 H1804 0.929 . S
C1808 C1810 1.378 . S
C1808 C1812 1.350 . S
C1809 C1812 1.463 . S
C1809 C1814 1.350 . S
C1809 N1817 1.427 . S
C1810 H1801 0.930 . S
C1810 C1808 1.378 . S
C1810 C1811 1.367 . S
C1811 C1810 1.367 . S
C1811 C1813 1.433 . S
C1812 C1808 1.350 . S
C1812 C1809 1.463 . S
C1812 N1816 1.427 . S
C1813 H1803 0.929 . S
C1813 C1811 1.433 . S
C1813 N1816 1.384 . S
C1814 H1805 0.929 . S
C1814 C1806 1.378 . S
C1814 C1809 1.350 . S
C1815 H1802 0.929 . S
C1815 C1807 1.433 . S
C1815 N1817 1.384 . S
N1816 C1812 1.427 . S
N1816 C1813 1.384 . S
N1817 C1809 1.427 . S
N1817 C1815 1.384 . S
H1818 C1824 0.930 . S
H1819 C1828 0.930 . S
H1820 C1833 0.929 . S
H1821 C1831 0.929 . S
H1822 C1826 0.929 . S
H1823 C1832 0.929 . S
C1824 H1818 0.930 . S
C1824 C1825 1.367 . S
C1824 C1832 1.378 . S
C1825 C1824 1.367 . S
C1825 C1833 1.433 . S
C1826 H1822 0.929 . S
C1826 C1828 1.378 . S
C1826 C1830 1.350 . S
C1827 C1830 1.463 . S
C1827 C1832 1.350 . S
C1827 N1835 1.427 . S
C1828 H1819 0.930 . S
C1828 C1826 1.378 . S
C1828 C1829 1.367 . S
C1829 C1828 1.367 . S
C1829 C1831 1.433 . S
C1830 C1826 1.350 . S
C1830 C1827 1.463 . S
C1830 N1834 1.427 . S
C1831 H1821 0.929 . S
C1831 C1829 1.433 . S
C1831 N1834 1.384 . S
C1832 H1823 0.929 . S
C1832 C1824 1.378 . S
C1832 C1827 1.350 . S
C1833 H1820 0.929 . S
C1833 C1825 1.433 . S
C1833 N1835 1.384 . S
N1834 C1830 1.427 . S
N1834 C1831 1.384 . S
N1835 C1827 1.427 . S
N1835 C1833 1.384 . S
H1836 C1842 0.930 . S
H1837 C1846 0.930 . S
H1838 C1851 0.929 . S
H1839 C1849 0.929 . S
H1840 C1844 0.929 . S
H1841 C1850 0.929 . S
C1842 H1836 0.930 . S
C1842 C1843 1.367 . S
C1842 C1850 1.378 . S
C1843 C1842 1.367 . S
C1843 C1851 1.433 . S
C1844 H1840 0.929 . S
C1844 C1846 1.378 . S
C1844 C1848 1.350 . S
C1845 C1848 1.463 . S
C1845 C1850 1.350 . S
C1845 N1853 1.427 . S
C1846 H1837 0.930 . S
C1846 C1844 1.378 . S
C1846 C1847 1.367 . S
C1847 C1846 1.367 . S
C1847 C1849 1.433 . S
C1848 C1844 1.350 . S
C1848 C1845 1.463 . S
C1848 N1852 1.427 . S
C1849 H1839 0.929 . S
C1849 C1847 1.433 . S
C1849 N1852 1.384 . S
C1850 H1841 0.929 . S
C1850 C1842 1.378 . S
C1850 C1845 1.350 . S
C1851 H1838 0.929 . S
C1851 C1843 1.433 . S
C1851 N1853 1.384 . S
N1852 C1848 1.427 . S
N1852 C1849 1.384 . S
N1853 C1845 1.427 . S
N1853 C1851 1.384 . S
H1854 C1860 0.930 . S
H1855 C1864 0.930 . S
H1856 C1869 0.929 . S
H1857 C1867 0.929 . S
H1858 C1862 0.929 . S
H1859 C1868 0.929 . S
C1860 H1854 0.930 . S
C1860 C1861 1.367 . S
C1860 C1868 1.378 . S
C1861 C1860 1.367 . S
C1861 C1869 1.433 . S
C1862 H1858 0.929 . S
C1862 C1864 1.378 . S
C1862 C1866 1.350 . S
C1863 C1866 1.463 . S
C1863 C1868 1.350 . S
C1863 N1871 1.427 . S
C1864 H1855 0.930 . S
C1864 C1862 1.378 . S
C1864 C1865 1.367 . S
C1865 C1864 1.367 . S
C1865 C1867 1.433 . S
C1866 C1862 1.350 . S
C1866 C1863 1.463 . S
C1866 N1870 1.427 . S
C1867 H1857 0.929 . S
C1867 C1865 1.433 . S
C1867 N1870 1.384 . S
C1868 H1859 0.929 . S
C1868 C1860 1.378 . S
C1868 C1863 1.350 . S
C1869 H1856 0.929 . S
C1869 C1861 1.433 . S
C1869 N1871 1.384 . S
N1870 C1866 1.427 . S
N1870 C1867 1.384 . S
N1871 C1863 1.427 . S
N1871 C1869 1.384 . S
H1872 C1878 0.930 . S
H1873 C1882 0.930 . S
H1874 C1887 0.929 . S
H1875 C1885 0.929 . S
H1876 C1880 0.929 . S
H1877 C1886 0.929 . S
C1878 H1872 0.930 . S
C1878 C1879 1.367 . S
C1878 C1886 1.378 . S
C1879 C1878 1.367 . S
C1879 C1887 1.433 . S
C1880 H1876 0.929 . S
C1880 C1882 1.378 . S
C1880 C1884 1.350 . S
C1881 C1884 1.463 . S
C1881 C1886 1.350 . S
C1881 N1889 1.427 . S
C1882 H1873 0.930 . S
C1882 C1880 1.378 . S
C1882 C1883 1.367 . S
C1883 C1882 1.367 . S
C1883 C1885 1.433 . S
C1884 C1880 1.350 . S
C1884 C1881 1.463 . S
C1884 N1888 1.427 . S
C1885 H1875 0.929 . S
C1885 C1883 1.433 . S
C1885 N1888 1.384 . S
C1886 H1877 0.929 . S
C1886 C1878 1.378 . S
C1886 C1881 1.350 . S
C1887 H1874 0.929 . S
C1887 C1879 1.433 . S
C1887 N1889 1.384 . S
N1888 C1884 1.427 . S
N1888 C1885 1.384 . S
N1889 C1881 1.427 . S
N1889 C1887 1.384 . S
H1890 C1896 0.930 . S
H1891 C1900 0.930 . S
H1892 C1905 0.929 . S
H1893 C1903 0.929 . S
H1894 C1898 0.929 . S
H1895 C1904 0.929 . S
C1896 H1890 0.930 . S
C1896 C1897 1.367 . S
C1896 C1904 1.378 . S
C1897 C1896 1.367 . S
C1897 C1905 1.433 . S
C1898 H1894 0.929 . S
C1898 C1900 1.378 . S
C1898 C1902 1.350 . S
C1899 C1902 1.463 . S
C1899 C1904 1.350 . S
C1899 N1907 1.427 . S
C1900 H1891 0.930 . S
C1900 C1898 1.378 . S
C1900 C1901 1.367 . S
C1901 C1900 1.367 . S
C1901 C1903 1.433 . S
C1902 C1898 1.350 . S
C1902 C1899 1.463 . S
C1902 N1906 1.427 . S
C1903 H1893 0.929 . S
C1903 C1901 1.433 . S
C1903 N1906 1.384 . S
C1904 H1895 0.929 . S
C1904 C1896 1.378 . S
C1904 C1899 1.350 . S
C1905 H1892 0.929 . S
C1905 C1897 1.433 . S
C1905 N1907 1.384 . S
N1906 C1902 1.427 . S
N1906 C1903 1.384 . S
N1907 C1899 1.427 . S
N1907 C1905 1.384 . S
H1908 C1914 0.930 . S
H1909 C1918 0.930 . S
H1910 C1923 0.929 . S
H1911 C1921 0.929 . S
H1912 C1916 0.929 . S
H1913 C1922 0.929 . S
C1914 H1908 0.930 . S
C1914 C1915 1.367 . S
C1914 C1922 1.378 . S
C1915 C1914 1.367 . S
C1915 C1923 1.433 . S
C1916 H1912 0.929 . S
C1916 C1918 1.378 . S
C1916 C1920 1.350 . S
C1917 C1920 1.463 . S
C1917 C1922 1.350 . S
C1917 N1925 1.427 . S
C1918 H1909 0.930 . S
C1918 C1916 1.378 . S
C1918 C1919 1.367 . S
C1919 C1918 1.367 . S
C1919 C1921 1.433 . S
C1920 C1916 1.350 . S
C1920 C1917 1.463 . S
C1920 N1924 1.427 . S
C1921 H1911 0.929 . S
C1921 C1919 1.433 . S
C1921 N1924 1.384 . S
C1922 H1913 0.929 . S
C1922 C1914 1.378 . S
C1922 C1917 1.350 . S
C1923 H1910 0.929 . S
C1923 C1915 1.433 . S
C1923 N1925 1.384 . S
N1924 C1920 1.427 . S
N1924 C1921 1.384 . S
N1925 C1917 1.427 . S
N1925 C1923 1.384 . S
H1926 C1932 0.930 . S
H1927 C1936 0.930 . S
H1928 C1941 0.929 . S
H1929 C1939 0.929 . S
H1930 C1934 0.929 . S
H1931 C1940 0.929 . S
C1932 H1926 0.930 . S
C1932 C1933 1.367 . S
C1932 C1940 1.378 . S
C1933 C1932 1.367 . S
C1933 C1941 1.433 . S
C1934 H1930 0.929 . S
C1934 C1936 1.378 . S
C1934 C1938 1.350 . S
C1935 C1938 1.463 . S
C1935 C1940 1.350 . S
C1935 N1943 1.427 . S
C1936 H1927 0.930 . S
C1936 C1934 1.378 . S
C1936 C1937 1.367 . S
C1937 C1936 1.367 . S
C1937 C1939 1.433 . S
C1938 C1934 1.350 . S
C1938 C1935 1.463 . S
C1938 N1942 1.427 . S
C1939 H1929 0.929 . S
C1939 C1937 1.433 . S
C1939 N1942 1.384 . S
C1940 H1931 0.929 . S
C1940 C1932 1.378 . S
C1940 C1935 1.350 . S
C1941 H1928 0.929 . S
C1941 C1933 1.433 . S
C1941 N1943 1.384 . S
N1942 C1938 1.427 . S
N1942 C1939 1.384 . S
N1943 C1935 1.427 . S
N1943 C1941 1.384 . S
H1944 C1950 0.930 . S
H1945 C1954 0.930 . S
H1946 C1959 0.929 . S
H1947 C1957 0.929 . S
H1948 C1952 0.929 . S
H1949 C1958 0.929 . S
C1950 H1944 0.930 . S
C1950 C1951 1.367 . S
C1950 C1958 1.378 . S
C1951 C1950 1.367 . S
C1951 C1959 1.433 . S
C1952 H1948 0.929 . S
C1952 C1954 1.378 . S
C1952 C1956 1.350 . S
C1953 C1956 1.463 . S
C1953 C1958 1.350 . S
C1953 N1961 1.427 . S
C1954 H1945 0.930 . S
C1954 C1952 1.378 . S
C1954 C1955 1.367 . S
C1955 C1954 1.367 . S
C1955 C1957 1.433 . S
C1956 C1952 1.350 . S
C1956 C1953 1.463 . S
C1956 N1960 1.427 . S
C1957 H1947 0.929 . S
C1957 C1955 1.433 . S
C1957 N1960 1.384 . S
C1958 H1949 0.929 . S
C1958 C1950 1.378 . S
C1958 C1953 1.350 . S
C1959 H1946 0.929 . S
C1959 C1951 1.433 . S
C1959 N1961 1.384 . S
N1960 C1956 1.427 . S
N1960 C1957 1.384 . S
N1961 C1953 1.427 . S
N1961 C1959 1.384 . S
H1962 C1968 0.930 . S
H1963 C1972 0.930 . S
H1964 C1977 0.929 . S
H1965 C1975 0.929 . S
H1966 C1970 0.929 . S
H1967 C1976 0.929 . S
C1968 H1962 0.930 . S
C1968 C1969 1.367 . S
C1968 C1976 1.378 . S
C1969 C1968 1.367 . S
C1969 C1977 1.433 . S
C1970 H1966 0.929 . S
C1970 C1972 1.378 . S
C1970 C1974 1.350 . S
C1971 C1974 1.463 . S
C1971 C1976 1.350 . S
C1971 N1979 1.427 . S
C1972 H1963 0.930 . S
C1972 C1970 1.378 . S
C1972 C1973 1.367 . S
C1973 C1972 1.367 . S
C1973 C1975 1.433 . S
C1974 C1970 1.350 . S
C1974 C1971 1.463 . S
C1974 N1978 1.427 . S
C1975 H1965 0.929 . S
C1975 C1973 1.433 . S
C1975 N1978 1.384 . S
C1976 H1967 0.929 . S
C1976 C1968 1.378 . S
C1976 C1971 1.350 . S
C1977 H1964 0.929 . S
C1977 C1969 1.433 . S
C1977 N1979 1.384 . S
N1978 C1974 1.427 . S
N1978 C1975 1.384 . S
N1979 C1971 1.427 . S
N1979 C1977 1.384 . S
H1980 C1986 0.930 . S
H1981 C1990 0.930 . S
H1982 C1995 0.929 . S
H1983 C1993 0.929 . S
H1984 C1988 0.929 . S
H1985 C1994 0.929 . S
C1986 H1980 0.930 . S
C1986 C1987 1.367 . S
C1986 C1994 1.378 . S
C1987 C1986 1.367 . S
C1987 C1995 1.433 . S
C1988 H1984 0.929 . S
C1988 C1990 1.378 . S
C1988 C1992 1.350 . S
C1989 C1992 1.463 1_455 S
C1989 C1994 1.350 . S
C1989 N1997 1.427 . S
C1990 H1981 0.930 . S
C1990 C1988 1.378 . S
C1990 C1991 1.367 . S
C1991 C1990 1.367 . S
C1991 C1993 1.433 . S
C1992 C1988 1.350 . S
C1992 C1989 1.463 1_655 S
C1992 N1996 1.427 . S
C1993 H1983 0.929 . S
C1993 C1991 1.433 . S
C1993 N1996 1.384 . S
C1994 H1985 0.929 . S
C1994 C1986 1.378 . S
C1994 C1989 1.350 . S
C1995 H1982 0.929 . S
C1995 C1987 1.433 . S
C1995 N1997 1.384 . S
N1996 C1992 1.427 . S
N1996 C1993 1.384 . S
N1997 C1989 1.427 . S
N1997 C1995 1.384 . S
H1998 C2004 0.930 . S
H1999 C2008 0.930 . S
H2000 C2013 0.929 . S
H2001 C2011 0.929 . S
H2002 C2006 0.929 . S
H2003 C2012 0.929 . S
C2004 H1998 0.930 . S
C2004 C2005 1.367 . S
C2004 C2012 1.378 . S
C2005 C2004 1.367 . S
C2005 C2013 1.433 . S
C2006 H2002 0.929 . S
C2006 C2008 1.378 . S
C2006 C2010 1.350 . S
C2007 C2010 1.463 . S
C2007 C2012 1.350 . S
C2007 N2015 1.427 . S
C2008 H1999 0.930 . S
C2008 C2006 1.378 . S
C2008 C2009 1.367 . S
C2009 C2008 1.367 . S
C2009 C2011 1.433 . S
C2010 C2006 1.350 . S
C2010 C2007 1.463 . S
C2010 N2014 1.427 . S
C2011 H2001 0.929 . S
C2011 C2009 1.433 . S
C2011 N2014 1.384 . S
C2012 H2003 0.929 . S
C2012 C2004 1.378 . S
C2012 C2007 1.350 . S
C2013 H2000 0.929 . S
C2013 C2005 1.433 . S
C2013 N2015 1.384 . S
N2014 C2010 1.427 . S
N2014 C2011 1.384 . S
N2015 C2007 1.427 . S
N2015 C2013 1.384 . S
H2016 C2022 0.930 . S
H2017 C2026 0.930 . S
H2018 C2031 0.929 . S
H2019 C2029 0.929 . S
H2020 C2024 0.929 . S
H2021 C2030 0.929 . S
C2022 H2016 0.930 . S
C2022 C2023 1.367 . S
C2022 C2030 1.378 . S
C2023 C2022 1.367 . S
C2023 C2031 1.433 . S
C2024 H2020 0.929 . S
C2024 C2026 1.378 . S
C2024 C2028 1.350 . S
C2025 C2028 1.463 1_565 S
C2025 C2030 1.350 . S
C2025 N2033 1.427 . S
C2026 H2017 0.930 . S
C2026 C2024 1.378 . S
C2026 C2027 1.367 . S
C2027 C2026 1.367 . S
C2027 C2029 1.433 . S
C2028 C2024 1.350 . S
C2028 C2025 1.463 1_545 S
C2028 N2032 1.427 . S
C2029 H2019 0.929 . S
C2029 C2027 1.433 . S
C2029 N2032 1.384 . S
C2030 H2021 0.929 . S
C2030 C2022 1.378 . S
C2030 C2025 1.350 . S
C2031 H2018 0.929 . S
C2031 C2023 1.433 . S
C2031 N2033 1.384 . S
N2032 C2028 1.427 . S
N2032 C2029 1.384 . S
N2033 C2025 1.427 . S
N2033 C2031 1.384 . S
H2034 C2040 0.930 . S
H2035 C2044 0.930 . S
H2036 C2049 0.929 . S
H2037 C2047 0.929 . S
H2038 C2042 0.929 . S
H2039 C2048 0.929 . S
C2040 H2034 0.930 . S
C2040 C2041 1.367 . S
C2040 C2048 1.378 . S
C2041 C2040 1.367 . S
C2041 C2049 1.433 . S
C2042 H2038 0.929 . S
C2042 C2044 1.378 . S
C2042 C2046 1.350 . S
C2043 C2046 1.463 1_565 S
C2043 C2048 1.350 . S
C2043 N2051 1.427 . S
C2044 H2035 0.930 . S
C2044 C2042 1.378 . S
C2044 C2045 1.367 . S
C2045 C2044 1.367 . S
C2045 C2047 1.433 . S
C2046 C2042 1.350 . S
C2046 C2043 1.463 1_545 S
C2046 N2050 1.427 . S
C2047 H2037 0.929 . S
C2047 C2045 1.433 . S
C2047 N2050 1.384 . S
C2048 H2039 0.929 . S
C2048 C2040 1.378 . S
C2048 C2043 1.350 . S
C2049 H2036 0.929 . S
C2049 C2041 1.433 . S
C2049 N2051 1.384 . S
N2050 C2046 1.427 . S
N2050 C2047 1.384 . S
N2051 C2043 1.427 . S
N2051 C2049 1.384 . S
H2052 C2058 0.930 . S
H2053 C2062 0.930 . S
H2054 C2067 0.929 . S
H2055 C2065 0.929 . S
H2056 C2060 0.929 . S
H2057 C2066 0.929 . S
C2058 H2052 0.930 . S
C2058 C2059 1.367 . S
C2058 C2066 1.378 . S
C2059 C2058 1.367 . S
C2059 C2067 1.433 . S
C2060 H2056 0.929 . S
C2060 C2062 1.378 . S
C2060 C2064 1.350 . S
C2061 C2064 1.463 1_655 S
C2061 C2066 1.350 . S
C2061 N2069 1.427 . S
C2062 H2053 0.930 . S
C2062 C2060 1.378 . S
C2062 C2063 1.367 . S
C2063 C2062 1.367 . S
C2063 C2065 1.433 . S
C2064 C2060 1.350 . S
C2064 C2061 1.463 1_455 S
C2064 N2068 1.427 . S
C2065 H2055 0.929 . S
C2065 C2063 1.433 . S
C2065 N2068 1.384 . S
C2066 H2057 0.929 . S
C2066 C2058 1.378 . S
C2066 C2061 1.350 . S
C2067 H2054 0.929 . S
C2067 C2059 1.433 . S
C2067 N2069 1.384 . S
N2068 C2064 1.427 . S
N2068 C2065 1.384 . S
N2069 C2061 1.427 . S
N2069 C2067 1.384 . S
H2070 C2076 0.930 . S
H2071 C2080 0.930 . S
H2072 C2085 0.929 . S
H2073 C2083 0.929 . S
H2074 C2078 0.929 . S
H2075 C2084 0.929 . S
C2076 H2070 0.930 . S
C2076 C2077 1.367 . S
C2076 C2084 1.378 . S
C2077 C2076 1.367 . S
C2077 C2085 1.433 . S
C2078 H2074 0.929 . S
C2078 C2080 1.378 . S
C2078 C2082 1.350 . S
C2079 C2082 1.463 . S
C2079 C2084 1.350 . S
C2079 N2087 1.427 . S
C2080 H2071 0.930 . S
C2080 C2078 1.378 . S
C2080 C2081 1.367 . S
C2081 C2080 1.367 . S
C2081 C2083 1.433 . S
C2082 C2078 1.350 . S
C2082 C2079 1.463 . S
C2082 N2086 1.427 . S
C2083 H2073 0.929 . S
C2083 C2081 1.433 . S
C2083 N2086 1.384 . S
C2084 H2075 0.929 . S
C2084 C2076 1.378 . S
C2084 C2079 1.350 . S
C2085 H2072 0.929 . S
C2085 C2077 1.433 . S
C2085 N2087 1.384 . S
N2086 C2082 1.427 . S
N2086 C2083 1.384 . S
N2087 C2079 1.427 . S
N2087 C2085 1.384 . S
H2088 C2094 0.930 . S
H2089 C2098 0.930 . S
H2090 C2103 0.929 . S
H2091 C2101 0.929 . S
H2092 C2096 0.929 . S
H2093 C2102 0.929 . S
C2094 H2088 0.930 . S
C2094 C2095 1.367 . S
C2094 C2102 1.378 . S
C2095 C2094 1.367 . S
C2095 C2103 1.433 . S
C2096 H2092 0.929 . S
C2096 C2098 1.378 . S
C2096 C2100 1.350 . S
C2097 C2100 1.463 . S
C2097 C2102 1.350 1_455 S
C2097 N2105 1.427 1_455 S
C2098 H2089 0.930 . S
C2098 C2096 1.378 . S
C2098 C2099 1.367 . S
C2099 C2098 1.367 . S
C2099 C2101 1.433 . S
C2100 C2096 1.350 . S
C2100 C2097 1.463 . S
C2100 N2104 1.427 . S
C2101 H2091 0.929 . S
C2101 C2099 1.433 . S
C2101 N2104 1.384 . S
C2102 H2093 0.929 . S
C2102 C2094 1.378 . S
C2102 C2097 1.350 1_655 S
C2103 H2090 0.929 . S
C2103 C2095 1.433 . S
C2103 N2105 1.384 . S
N2104 C2100 1.427 . S
N2104 C2101 1.384 . S
N2105 C2097 1.427 1_655 S
N2105 C2103 1.384 . S
H2106 C2112 0.930 . S
H2107 C2116 0.930 . S
H2108 C2121 0.929 . S
H2109 C2119 0.929 . S
H2110 C2114 0.929 . S
H2111 C2120 0.929 . S
C2112 H2106 0.930 . S
C2112 C2113 1.367 . S
C2112 C2120 1.378 . S
C2113 C2112 1.367 . S
C2113 C2121 1.433 . S
C2114 H2110 0.929 . S
C2114 C2116 1.378 . S
C2114 C2118 1.350 . S
C2115 C2118 1.463 . S
C2115 C2120 1.350 . S
C2115 N2123 1.427 . S
C2116 H2107 0.930 . S
C2116 C2114 1.378 . S
C2116 C2117 1.367 . S
C2117 C2116 1.367 . S
C2117 C2119 1.433 . S
C2118 C2114 1.350 . S
C2118 C2115 1.463 . S
C2118 N2122 1.427 . S
C2119 H2109 0.929 . S
C2119 C2117 1.433 . S
C2119 N2122 1.384 . S
C2120 H2111 0.929 . S
C2120 C2112 1.378 . S
C2120 C2115 1.350 . S
C2121 H2108 0.929 . S
C2121 C2113 1.433 . S
C2121 N2123 1.384 . S
N2122 C2118 1.427 . S
N2122 C2119 1.384 . S
N2123 C2115 1.427 . S
N2123 C2121 1.384 . S
H2124 C2130 0.930 . S
H2125 C2134 0.930 . S
H2126 C2139 0.929 . S
H2127 C2137 0.929 . S
H2128 C2132 0.929 . S
H2129 C2138 0.929 . S
C2130 H2124 0.930 . S
C2130 C2131 1.367 . S
C2130 C2138 1.378 . S
C2131 C2130 1.367 . S
C2131 C2139 1.433 . S
C2132 H2128 0.929 . S
C2132 C2134 1.378 . S
C2132 C2136 1.350 . S
C2133 C2136 1.463 . S
C2133 C2138 1.350 1_565 S
C2133 N2141 1.427 1_565 S
C2134 H2125 0.930 . S
C2134 C2132 1.378 . S
C2134 C2135 1.367 . S
C2135 C2134 1.367 . S
C2135 C2137 1.433 . S
C2136 C2132 1.350 . S
C2136 C2133 1.463 . S
C2136 N2140 1.427 . S
C2137 H2127 0.929 . S
C2137 C2135 1.433 . S
C2137 N2140 1.384 . S
C2138 H2129 0.929 . S
C2138 C2130 1.378 . S
C2138 C2133 1.350 1_545 S
C2139 H2126 0.929 . S
C2139 C2131 1.433 . S
C2139 N2141 1.384 . S
N2140 C2136 1.427 . S
N2140 C2137 1.384 . S
N2141 C2133 1.427 1_545 S
N2141 C2139 1.384 . S
H2142 C2148 0.930 . S
H2143 C2152 0.930 . S
H2144 C2157 0.929 . S
H2145 C2155 0.929 . S
H2146 C2150 0.929 1_545 S
H2147 C2156 0.929 . S
C2148 H2142 0.930 . S
C2148 C2149 1.367 . S
C2148 C2156 1.378 . S
C2149 C2148 1.367 . S
C2149 C2157 1.433 . S
C2150 H2146 0.929 1_565 S
C2150 C2152 1.378 . S
C2150 C2154 1.350 1_565 S
C2151 C2154 1.463 . S
C2151 C2156 1.350 . S
C2151 N2159 1.427 . S
C2152 H2143 0.930 . S
C2152 C2150 1.378 . S
C2152 C2153 1.367 . S
C2153 C2152 1.367 . S
C2153 C2155 1.433 . S
C2154 C2150 1.350 1_545 S
C2154 C2151 1.463 . S
C2154 N2158 1.427 1_545 S
C2155 H2145 0.929 . S
C2155 C2153 1.433 . S
C2155 N2158 1.384 . S
C2156 H2147 0.929 . S
C2156 C2148 1.378 . S
C2156 C2151 1.350 . S
C2157 H2144 0.929 . S
C2157 C2149 1.433 . S
C2157 N2159 1.384 . S
N2158 C2154 1.427 1_565 S
N2158 C2155 1.384 . S
N2159 C2151 1.427 . S
N2159 C2157 1.384 . S
H2160 C2166 0.930 . S
H2161 C2170 0.930 . S
H2162 C2175 0.929 . S
H2163 C2173 0.929 . S
H2164 C2168 0.929 . S
H2165 C2174 0.900 1_655 S
C2166 H2160 0.930 . S
C2166 C2167 1.367 . S
C2166 C2174 1.378 . S
C2167 C2166 1.367 . S
C2167 C2175 1.433 . S
C2168 H2164 0.929 . S
C2168 C2170 1.378 . S
C2168 C2172 1.350 . S
C2169 C2172 1.463 . S
C2169 C2174 1.350 1_655 S
C2169 N2177 1.427 1_655 S
C2170 H2161 0.930 . S
C2170 C2168 1.378 . S
C2170 C2171 1.367 . S
C2171 C2170 1.367 . S
C2171 C2173 1.433 . S
C2172 C2168 1.350 . S
C2172 C2169 1.463 . S
C2172 N2176 1.427 . S
C2173 H2163 0.929 . S
C2173 C2171 1.433 . S
C2173 N2176 1.384 . S
C2174 H2165 0.900 1_455 S
C2174 C2166 1.378 . S
C2174 C2169 1.350 1_455 S
C2175 H2162 0.929 . S
C2175 C2167 1.433 . S
C2175 N2177 1.384 . S
N2176 C2172 1.427 . S
N2176 C2173 1.384 . S
N2177 C2169 1.427 1_455 S
N2177 C2175 1.384 . S
H2178 C2184 0.930 . S
H2179 C2188 0.930 . S
H2180 C2193 0.929 . S
H2181 C2191 0.929 . S
H2182 C2186 0.929 . S
H2183 C2192 0.929 . S
C2184 H2178 0.930 . S
C2184 C2185 1.367 . S
C2184 C2192 1.378 . S
C2185 C2184 1.367 . S
C2185 C2193 1.433 . S
C2186 H2182 0.929 . S
C2186 C2188 1.378 . S
C2186 C2190 1.350 . S
C2187 C2190 1.463 . S
C2187 C2192 1.350 . S
C2187 N2195 1.427 . S
C2188 H2179 0.930 . S
C2188 C2186 1.378 . S
C2188 C2189 1.367 . S
C2189 C2188 1.367 . S
C2189 C2191 1.433 . S
C2190 C2186 1.350 . S
C2190 C2187 1.463 . S
C2190 N2194 1.427 . S
C2191 H2181 0.929 . S
C2191 C2189 1.433 . S
C2191 N2194 1.384 . S
C2192 H2183 0.929 . S
C2192 C2184 1.378 . S
C2192 C2187 1.350 . S
C2193 H2180 0.929 . S
C2193 C2185 1.433 . S
C2193 N2195 1.384 . S
N2194 C2190 1.427 . S
N2194 C2191 1.384 . S
N2195 C2187 1.427 . S
N2195 C2193 1.384 . S
H2196 C2202 0.930 . S
H2197 C2206 0.930 . S
H2198 C2211 0.929 . S
H2199 C2209 0.929 . S
H2200 C2204 0.929 . S
H2201 C2210 0.929 1_655 S
C2202 H2196 0.930 . S
C2202 C2203 1.367 . S
C2202 C2210 1.378 . S
C2203 C2202 1.367 . S
C2203 C2211 1.433 . S
C2204 H2200 0.929 . S
C2204 C2206 1.378 . S
C2204 C2208 1.350 . S
C2205 C2208 1.463 . S
C2205 C2210 1.350 1_655 S
C2205 N2213 1.427 1_655 S
C2206 H2197 0.930 . S
C2206 C2204 1.378 . S
C2206 C2207 1.367 . S
C2207 C2206 1.367 . S
C2207 C2209 1.433 . S
C2208 C2204 1.350 . S
C2208 C2205 1.463 . S
C2208 N2212 1.427 . S
C2209 H2199 0.929 . S
C2209 C2207 1.433 . S
C2209 N2212 1.384 . S
C2210 H2201 0.929 1_455 S
C2210 C2202 1.378 . S
C2210 C2205 1.350 1_455 S
C2211 H2198 0.929 . S
C2211 C2203 1.433 . S
C2211 N2213 1.384 . S
N2212 C2208 1.427 . S
N2212 C2209 1.384 . S
N2213 C2205 1.427 1_455 S
N2213 C2211 1.384 . S
H2214 C2220 0.930 . S
H2215 C2224 0.930 . S
H2216 C2229 0.929 . S
H2217 C2227 0.929 . S
H2218 C2222 0.929 . S
H2219 C2228 0.929 . S
C2220 H2214 0.930 . S
C2220 C2221 1.367 . S
C2220 C2228 1.378 . S
C2221 C2220 1.367 . S
C2221 C2229 1.433 . S
C2222 H2218 0.929 . S
C2222 C2224 1.378 . S
C2222 C2226 1.350 . S
C2223 C2226 1.463 . S
C2223 C2228 1.350 . S
C2223 N2231 1.427 . S
C2224 H2215 0.930 . S
C2224 C2222 1.378 . S
C2224 C2225 1.367 . S
C2225 C2224 1.367 . S
C2225 C2227 1.433 . S
C2226 C2222 1.350 . S
C2226 C2223 1.463 . S
C2226 N2230 1.427 . S
C2227 H2217 0.929 . S
C2227 C2225 1.433 . S
C2227 N2230 1.384 . S
C2228 H2219 0.929 . S
C2228 C2220 1.378 . S
C2228 C2223 1.350 . S
C2229 H2216 0.929 . S
C2229 C2221 1.433 . S
C2229 N2231 1.384 . S
N2230 C2226 1.427 . S
N2230 C2227 1.384 . S
N2231 C2223 1.427 . S
N2231 C2229 1.384 . S
H2232 C2238 0.930 . S
H2233 C2242 0.930 . S
H2234 C2247 0.929 . S
H2235 C2245 0.929 . S
H2236 C2240 0.929 . S
H2237 C2246 0.929 1_545 S
C2238 H2232 0.930 . S
C2238 C2239 1.367 . S
C2238 C2246 1.378 . S
C2239 C2238 1.367 . S
C2239 C2247 1.433 . S
C2240 H2236 0.929 . S
C2240 C2242 1.378 . S
C2240 C2244 1.350 . S
C2241 C2244 1.463 . S
C2241 C2246 1.350 1_545 S
C2241 N2249 1.427 1_545 S
C2242 H2233 0.930 . S
C2242 C2240 1.378 . S
C2242 C2243 1.367 . S
C2243 C2242 1.367 . S
C2243 C2245 1.433 . S
C2244 C2240 1.350 . S
C2244 C2241 1.463 . S
C2244 N2248 1.427 . S
C2245 H2235 0.929 . S
C2245 C2243 1.433 . S
C2245 N2248 1.384 . S
C2246 H2237 0.929 1_565 S
C2246 C2238 1.378 . S
C2246 C2241 1.350 1_565 S
C2247 H2234 0.929 . S
C2247 C2239 1.433 . S
C2247 N2249 1.384 . S
N2248 C2244 1.427 . S
N2248 C2245 1.384 . S
N2249 C2241 1.427 1_565 S
N2249 C2247 1.384 . S
H2250 C2256 0.930 . S
H2251 C2260 0.930 . S
H2252 C2265 0.929 . S
H2253 C2263 0.929 . S
H2254 C2258 0.929 . S
H2255 C2264 0.929 . S
C2256 H2250 0.930 . S
C2256 C2257 1.367 . S
C2256 C2264 1.378 . S
C2257 C2256 1.367 . S
C2257 C2265 1.433 . S
C2258 H2254 0.929 . S
C2258 C2260 1.378 . S
C2258 C2262 1.350 . S
C2259 C2262 1.503 . S
C2259 C2264 1.332 1_565 S
C2259 N2267 1.408 1_565 S
C2260 H2251 0.930 . S
C2260 C2258 1.378 . S
C2260 C2261 1.367 . S
C2261 C2260 1.367 . S
C2261 C2263 1.433 . S
C2262 C2258 1.350 . S
C2262 C2259 1.503 . S
C2262 N2266 1.427 . S
C2263 H2253 0.929 . S
C2263 C2261 1.433 . S
C2263 N2266 1.384 . S
C2264 H2255 0.929 . S
C2264 C2256 1.378 . S
C2264 C2259 1.332 1_545 S
C2265 H2252 0.929 . S
C2265 C2257 1.433 . S
C2265 N2267 1.384 . S
N2266 C2262 1.427 . S
N2266 C2263 1.384 . S
N2267 C2259 1.408 1_545 S
N2267 C2265 1.384 . S
H2268 C2274 0.930 . S
H2269 C2278 0.930 . S
H2270 C2283 0.929 . S
H2271 C2281 0.929 . S
H2272 C2276 0.929 . S
H2273 C2282 0.942 . S
C2274 H2268 0.930 . S
C2274 C2275 1.367 . S
C2274 C2282 1.378 . S
C2275 C2274 1.367 . S
C2275 C2283 1.433 . S
C2276 H2272 0.929 . S
C2276 C2278 1.378 . S
C2276 C2280 1.350 . S
C2277 C2280 1.463 . S
C2277 C2282 1.350 1_455 S
C2277 N2285 1.427 1_455 S
C2278 H2269 0.930 . S
C2278 C2276 1.378 . S
C2278 C2279 1.367 . S
C2279 C2278 1.367 . S
C2279 C2281 1.433 . S
C2280 C2276 1.350 . S
C2280 C2277 1.463 . S
C2280 N2284 1.427 . S
C2281 H2271 0.929 . S
C2281 C2279 1.433 . S
C2281 N2284 1.384 . S
C2282 H2273 0.942 . S
C2282 C2274 1.378 . S
C2282 C2277 1.350 1_655 S
C2283 H2270 0.929 . S
C2283 C2275 1.433 . S
C2283 N2285 1.384 . S
N2284 C2280 1.427 . S
N2284 C2281 1.384 . S
N2285 C2277 1.427 1_655 S
N2285 C2283 1.384 . S
H2286 C2292 0.930 . S
H2287 C2296 0.930 . S
H2288 C2301 0.929 . S
H2289 C2299 0.929 . S
H2290 C2294 0.929 . S
H2291 C2300 0.929 . S
C2292 H2286 0.930 . S
C2292 C2293 1.367 . S
C2292 C2300 1.378 . S
C2293 C2292 1.367 . S
C2293 C2301 1.433 . S
C2294 H2290 0.929 . S
C2294 C2296 1.378 . S
C2294 C2298 1.350 . S
C2295 C2298 1.463 . S
C2295 C2300 1.350 . S
C2295 N2303 1.427 . S
C2296 H2287 0.930 . S
C2296 C2294 1.378 . S
C2296 C2297 1.367 . S
C2297 C2296 1.367 . S
C2297 C2299 1.433 . S
C2298 C2294 1.350 . S
C2298 C2295 1.463 . S
C2298 N2302 1.427 . S
C2299 H2289 0.929 . S
C2299 C2297 1.433 . S
C2299 N2302 1.384 . S
C2300 H2291 0.929 . S
C2300 C2292 1.378 . S
C2300 C2295 1.350 . S
C2301 H2288 0.929 . S
C2301 C2293 1.433 . S
C2301 N2303 1.384 . S
N2302 C2298 1.427 . S
N2302 C2299 1.384 . S
N2303 C2295 1.427 . S
N2303 C2301 1.384 . S
H2304 C2310 0.930 . S
H2305 C2314 0.930 . S
H2306 C2319 0.929 . S
H2307 C2317 0.929 . S
H2308 C2312 0.929 . S
H2309 C2318 0.929 . S
C2310 H2304 0.930 . S
C2310 C2311 1.367 . S
C2310 C2318 1.378 . S
C2311 C2310 1.367 . S
C2311 C2319 1.433 . S
C2312 H2308 0.929 . S
C2312 C2314 1.378 . S
C2312 C2316 1.350 . S
C2313 C2316 1.463 . S
C2313 C2318 1.350 . S
C2313 N2321 1.427 . S
C2314 H2305 0.930 . S
C2314 C2312 1.378 . S
C2314 C2315 1.367 . S
C2315 C2314 1.367 . S
C2315 C2317 1.433 . S
C2316 C2312 1.350 . S
C2316 C2313 1.463 . S
C2316 N2320 1.427 . S
C2317 H2307 0.929 . S
C2317 C2315 1.433 . S
C2317 N2320 1.384 . S
C2318 H2309 0.929 . S
C2318 C2310 1.378 . S
C2318 C2313 1.350 . S
C2319 H2306 0.929 . S
C2319 C2311 1.433 . S
C2319 N2321 1.384 . S
N2320 C2316 1.427 . S
N2320 C2317 1.384 . S
N2321 C2313 1.427 . S
N2321 C2319 1.384 . S
H2322 C2328 0.930 . S
H2323 C2332 0.930 . S
H2324 C2337 0.929 . S
H2325 C2335 0.929 . S
H2326 C2330 0.929 . S
H2327 C2336 0.929 . S
C2328 H2322 0.930 . S
C2328 C2329 1.367 . S
C2328 C2336 1.378 . S
C2329 C2328 1.367 . S
C2329 C2337 1.433 . S
C2330 H2326 0.929 . S
C2330 C2332 1.378 . S
C2330 C2334 1.350 . S
C2331 C2334 1.463 . S
C2331 C2336 1.350 . S
C2331 N2339 1.427 . S
C2332 H2323 0.930 . S
C2332 C2330 1.378 . S
C2332 C2333 1.367 . S
C2333 C2332 1.367 . S
C2333 C2335 1.433 . S
C2334 C2330 1.350 . S
C2334 C2331 1.463 . S
C2334 N2338 1.427 . S
C2335 H2325 0.929 . S
C2335 C2333 1.433 . S
C2335 N2338 1.384 . S
C2336 H2327 0.929 . S
C2336 C2328 1.378 . S
C2336 C2331 1.350 . S
C2337 H2324 0.929 . S
C2337 C2329 1.433 . S
C2337 N2339 1.384 . S
N2338 C2334 1.427 . S
N2338 C2335 1.384 . S
N2339 C2331 1.427 . S
N2339 C2337 1.384 . S
H2340 C2346 0.930 . S
H2341 C2350 0.930 . S
H2342 C2355 0.929 . S
H2343 C2353 0.929 . S
H2344 C2348 0.929 . S
H2345 C2354 0.929 . S
C2346 H2340 0.930 . S
C2346 C2347 1.367 . S
C2346 C2354 1.378 . S
C2347 C2346 1.367 . S
C2347 C2355 1.433 . S
C2348 H2344 0.929 . S
C2348 C2350 1.378 . S
C2348 C2352 1.350 . S
C2349 C2352 1.463 . S
C2349 C2354 1.350 . S
C2349 N2357 1.427 . S
C2350 H2341 0.930 . S
C2350 C2348 1.378 . S
C2350 C2351 1.367 . S
C2351 C2350 1.367 . S
C2351 C2353 1.433 . S
C2352 C2348 1.350 . S
C2352 C2349 1.463 . S
C2352 N2356 1.427 . S
C2353 H2343 0.929 . S
C2353 C2351 1.433 . S
C2353 N2356 1.384 . S
C2354 H2345 0.929 . S
C2354 C2346 1.378 . S
C2354 C2349 1.350 . S
C2355 H2342 0.929 . S
C2355 C2347 1.433 . S
C2355 N2357 1.384 . S
N2356 C2352 1.427 . S
N2356 C2353 1.384 . S
N2357 C2349 1.427 . S
N2357 C2355 1.384 . S
H2358 C2364 0.930 . S
H2359 C2368 0.930 . S
H2360 C2373 0.929 . S
H2361 C2371 0.929 . S
H2362 C2366 0.929 . S
H2363 C2372 0.929 . S
C2364 H2358 0.930 . S
C2364 C2365 1.367 . S
C2364 C2372 1.378 . S
C2365 C2364 1.367 . S
C2365 C2373 1.433 . S
C2366 H2362 0.929 . S
C2366 C2368 1.378 . S
C2366 C2370 1.350 . S
C2367 C2370 1.463 . S
C2367 C2372 1.350 . S
C2367 N2375 1.427 . S
C2368 H2359 0.930 . S
C2368 C2366 1.378 . S
C2368 C2369 1.367 . S
C2369 C2368 1.367 . S
C2369 C2371 1.433 . S
C2370 C2366 1.350 . S
C2370 C2367 1.463 . S
C2370 N2374 1.427 . S
C2371 H2361 0.929 . S
C2371 C2369 1.433 . S
C2371 N2374 1.384 . S
C2372 H2363 0.929 . S
C2372 C2364 1.378 . S
C2372 C2367 1.350 . S
C2373 H2360 0.929 . S
C2373 C2365 1.433 . S
C2373 N2375 1.384 . S
N2374 C2370 1.427 . S
N2374 C2371 1.384 . S
N2375 C2367 1.427 . S
N2375 C2373 1.384 . S
H2376 C2382 0.930 . S
H2377 C2386 0.930 . S
H2378 C2391 0.929 . S
H2379 C2389 0.929 . S
H2380 C2384 0.929 . S
H2381 C2390 0.929 . S
C2382 H2376 0.930 . S
C2382 C2383 1.367 . S
C2382 C2390 1.378 . S
C2383 C2382 1.367 . S
C2383 C2391 1.433 . S
C2384 H2380 0.929 . S
C2384 C2386 1.378 . S
C2384 C2388 1.350 . S
C2385 C2388 1.463 . S
C2385 C2390 1.350 . S
C2385 N2393 1.427 . S
C2386 H2377 0.930 . S
C2386 C2384 1.378 . S
C2386 C2387 1.367 . S
C2387 C2386 1.367 . S
C2387 C2389 1.433 . S
C2388 C2384 1.350 . S
C2388 C2385 1.463 . S
C2388 N2392 1.427 . S
C2389 H2379 0.929 . S
C2389 C2387 1.433 . S
C2389 N2392 1.384 . S
C2390 H2381 0.929 . S
C2390 C2382 1.378 . S
C2390 C2385 1.350 . S
C2391 H2378 0.929 . S
C2391 C2383 1.433 . S
C2391 N2393 1.384 . S
N2392 C2388 1.427 . S
N2392 C2389 1.384 . S
N2393 C2385 1.427 . S
N2393 C2391 1.384 . S
H2394 C2400 0.930 . S
H2395 C2404 0.930 . S
H2396 C2409 0.929 . S
H2397 C2407 0.929 . S
H2398 C2402 0.929 . S
H2399 C2408 0.929 . S
C2400 H2394 0.930 . S
C2400 C2401 1.367 . S
C2400 C2408 1.378 . S
C2401 C2400 1.367 . S
C2401 C2409 1.433 . S
C2402 H2398 0.929 . S
C2402 C2404 1.378 . S
C2402 C2406 1.350 . S
C2403 C2406 1.463 . S
C2403 C2408 1.350 . S
C2403 N2411 1.427 . S
C2404 H2395 0.930 . S
C2404 C2402 1.378 . S
C2404 C2405 1.367 . S
C2405 C2404 1.367 . S
C2405 C2407 1.433 . S
C2406 C2402 1.350 . S
C2406 C2403 1.463 . S
C2406 N2410 1.427 . S
C2407 H2397 0.929 . S
C2407 C2405 1.433 . S
C2407 N2410 1.384 . S
C2408 H2399 0.929 . S
C2408 C2400 1.378 . S
C2408 C2403 1.350 . S
C2409 H2396 0.929 . S
C2409 C2401 1.433 . S
C2409 N2411 1.384 . S
N2410 C2406 1.427 . S
N2410 C2407 1.384 . S
N2411 C2403 1.427 . S
N2411 C2409 1.384 . S
H2412 C2418 0.930 . S
H2413 C2422 0.930 . S
H2414 C2427 0.929 . S
H2415 C2425 0.929 . S
H2416 C2420 0.929 . S
H2417 C2426 0.929 . S
C2418 H2412 0.930 . S
C2418 C2419 1.367 . S
C2418 C2426 1.378 . S
C2419 C2418 1.367 . S
C2419 C2427 1.433 . S
C2420 H2416 0.929 . S
C2420 C2422 1.378 . S
C2420 C2424 1.350 . S
C2421 C2424 1.463 . S
C2421 C2426 1.350 . S
C2421 N2429 1.427 . S
C2422 H2413 0.930 . S
C2422 C2420 1.378 . S
C2422 C2423 1.367 . S
C2423 C2422 1.367 . S
C2423 C2425 1.433 . S
C2424 C2420 1.350 . S
C2424 C2421 1.463 . S
C2424 N2428 1.427 . S
C2425 H2415 0.929 . S
C2425 C2423 1.433 . S
C2425 N2428 1.384 . S
C2426 H2417 0.929 . S
C2426 C2418 1.378 . S
C2426 C2421 1.350 . S
C2427 H2414 0.929 . S
C2427 C2419 1.433 . S
C2427 N2429 1.384 . S
N2428 C2424 1.427 . S
N2428 C2425 1.384 . S
N2429 C2421 1.427 . S
N2429 C2427 1.384 . S
H2430 C2436 0.930 . S
H2431 C2440 0.930 . S
H2432 C2445 0.929 . S
H2433 C2443 0.929 . S
H2434 C2438 0.929 . S
H2435 C2444 0.929 . S
C2436 H2430 0.930 . S
C2436 C2437 1.367 . S
C2436 C2444 1.378 . S
C2437 C2436 1.367 . S
C2437 C2445 1.433 . S
C2438 H2434 0.929 . S
C2438 C2440 1.378 . S
C2438 C2442 1.350 . S
C2439 C2442 1.463 . S
C2439 C2444 1.350 . S
C2439 N2447 1.427 . S
C2440 H2431 0.930 . S
C2440 C2438 1.378 . S
C2440 C2441 1.367 . S
C2441 C2440 1.367 . S
C2441 C2443 1.433 . S
C2442 C2438 1.350 . S
C2442 C2439 1.463 . S
C2442 N2446 1.427 . S
C2443 H2433 0.929 . S
C2443 C2441 1.433 . S
C2443 N2446 1.384 . S
C2444 H2435 0.929 . S
C2444 C2436 1.378 . S
C2444 C2439 1.350 . S
C2445 H2432 0.929 . S
C2445 C2437 1.433 . S
C2445 N2447 1.384 . S
N2446 C2442 1.427 . S
N2446 C2443 1.384 . S
N2447 C2439 1.427 . S
N2447 C2445 1.384 . S
H2448 C2454 0.930 . S
H2449 C2458 0.930 . S
H2450 C2463 0.929 . S
H2451 C2461 0.929 . S
H2452 C2456 0.929 . S
H2453 C2462 0.929 . S
C2454 H2448 0.930 . S
C2454 C2455 1.367 . S
C2454 C2462 1.378 . S
C2455 C2454 1.367 . S
C2455 C2463 1.433 . S
C2456 H2452 0.929 . S
C2456 C2458 1.378 . S
C2456 C2460 1.350 . S
C2457 C2460 1.463 . S
C2457 C2462 1.350 . S
C2457 N2465 1.427 . S
C2458 H2449 0.930 . S
C2458 C2456 1.378 . S
C2458 C2459 1.367 . S
C2459 C2458 1.367 . S
C2459 C2461 1.433 . S
C2460 C2456 1.350 . S
C2460 C2457 1.463 . S
C2460 N2464 1.427 . S
C2461 H2451 0.929 . S
C2461 C2459 1.433 . S
C2461 N2464 1.384 . S
C2462 H2453 0.929 . S
C2462 C2454 1.378 . S
C2462 C2457 1.350 . S
C2463 H2450 0.929 . S
C2463 C2455 1.433 . S
C2463 N2465 1.384 . S
N2464 C2460 1.427 . S
N2464 C2461 1.384 . S
N2465 C2457 1.427 . S
N2465 C2463 1.384 . S
H2466 C2472 0.930 . S
H2467 C2476 0.930 . S
H2468 C2481 0.929 . S
H2469 C2479 0.929 1_554 S
H2470 C2474 0.929 . S
H2471 C2480 0.929 . S
C2472 H2466 0.930 . S
C2472 C2473 1.367 . S
C2472 C2480 1.378 . S
C2473 C2472 1.367 . S
C2473 C2481 1.433 . S
C2474 H2470 0.929 . S
C2474 C2476 1.378 . S
C2474 C2478 1.350 . S
C2475 C2478 1.463 . S
C2475 C2480 1.350 . S
C2475 N2483 1.427 . S
C2476 H2467 0.930 . S
C2476 C2474 1.378 . S
C2476 C2477 1.367 . S
C2477 C2476 1.367 . S
C2477 C2479 1.433 . S
C2478 C2474 1.350 . S
C2478 C2475 1.463 . S
C2478 N2482 1.427 . S
C2479 H2469 0.929 1_556 S
C2479 C2477 1.433 . S
C2479 N2482 1.384 . S
C2480 H2471 0.929 . S
C2480 C2472 1.378 . S
C2480 C2475 1.350 . S
C2481 H2468 0.929 . S
C2481 C2473 1.433 . S
C2481 N2483 1.384 . S
N2482 C2478 1.427 . S
N2482 C2479 1.384 . S
N2483 C2475 1.427 . S
N2483 C2481 1.384 . S
H2484 C2490 0.930 . S
H2485 C2494 0.930 1_554 S
H2486 C2499 0.929 . S
H2487 C2497 0.929 . S
H2488 C2492 0.958 . S
H2489 C2498 0.929 . S
C2490 H2484 0.930 . S
C2490 C2491 1.367 . S
C2490 C2498 1.378 . S
C2491 C2490 1.367 . S
C2491 C2499 1.433 . S
C2492 H2488 0.958 . S
C2492 C2494 1.378 . S
C2492 C2496 1.350 . S
C2493 C2496 1.463 . S
C2493 C2498 1.350 . S
C2493 N2501 1.427 . S
C2494 H2485 0.930 1_556 S
C2494 C2492 1.378 . S
C2494 C2495 1.367 . S
C2495 C2494 1.367 . S
C2495 C2497 1.433 . S
C2496 C2492 1.350 . S
C2496 C2493 1.463 . S
C2496 N2500 1.427 . S
C2497 H2487 0.929 . S
C2497 C2495 1.433 . S
C2497 N2500 1.384 . S
C2498 H2489 0.929 . S
C2498 C2490 1.378 . S
C2498 C2493 1.350 . S
C2499 H2486 0.929 . S
C2499 C2491 1.433 . S
C2499 N2501 1.384 . S
N2500 C2496 1.427 . S
N2500 C2497 1.384 . S
N2501 C2493 1.427 . S
N2501 C2499 1.384 . S
H2502 C2508 0.930 . S
H2503 C2512 0.930 . S
H2504 C2517 0.929 . S
H2505 C2515 0.929 . S
H2506 C2510 0.929 . S
H2507 C2516 0.929 . S
C2508 H2502 0.930 . S
C2508 C2509 1.367 . S
C2508 C2516 1.378 . S
C2509 C2508 1.367 . S
C2509 C2517 1.433 . S
C2510 H2506 0.929 . S
C2510 C2512 1.378 . S
C2510 C2514 1.350 . S
C2511 C2514 1.463 . S
C2511 C2516 1.350 . S
C2511 N2519 1.427 . S
C2512 H2503 0.930 . S
C2512 C2510 1.378 . S
C2512 C2513 1.367 . S
C2513 C2512 1.367 . S
C2513 C2515 1.433 . S
C2514 C2510 1.350 . S
C2514 C2511 1.463 . S
C2514 N2518 1.427 . S
C2515 H2505 0.929 . S
C2515 C2513 1.433 . S
C2515 N2518 1.384 . S
C2516 H2507 0.929 . S
C2516 C2508 1.378 . S
C2516 C2511 1.350 . S
C2517 H2504 0.929 . S
C2517 C2509 1.433 . S
C2517 N2519 1.384 . S
N2518 C2514 1.427 . S
N2518 C2515 1.384 . S
N2519 C2511 1.427 . S
N2519 C2517 1.384 . S
H2520 C2526 0.930 . S
H2521 C2530 0.930 . S
H2522 C2535 0.929 . S
H2523 C2533 0.929 . S
H2524 C2528 0.929 . S
H2525 C2534 0.929 . S
C2526 H2520 0.930 . S
C2526 C2527 1.367 . S
C2526 C2534 1.378 . S
C2527 C2526 1.367 . S
C2527 C2535 1.433 . S
C2528 H2524 0.929 . S
C2528 C2530 1.378 . S
C2528 C2532 1.350 . S
C2529 C2532 1.463 . S
C2529 C2534 1.350 . S
C2529 N2537 1.427 . S
C2530 H2521 0.930 . S
C2530 C2528 1.378 . S
C2530 C2531 1.367 . S
C2531 C2530 1.367 . S
C2531 C2533 1.433 . S
C2532 C2528 1.350 . S
C2532 C2529 1.463 . S
C2532 N2536 1.427 . S
C2533 H2523 0.929 . S
C2533 C2531 1.433 . S
C2533 N2536 1.384 . S
C2534 H2525 0.929 . S
C2534 C2526 1.378 . S
C2534 C2529 1.350 . S
C2535 H2522 0.929 . S
C2535 C2527 1.433 . S
C2535 N2537 1.384 . S
N2536 C2532 1.427 . S
N2536 C2533 1.384 . S
N2537 C2529 1.427 . S
N2537 C2535 1.384 . S
H2538 C2544 0.930 . S
H2539 C2548 0.930 . S
H2540 C2553 0.929 . S
H2541 C2551 0.929 . S
H2542 C2546 0.929 . S
H2543 C2552 0.929 . S
C2544 H2538 0.930 . S
C2544 C2545 1.367 . S
C2544 C2552 1.378 . S
C2545 C2544 1.367 . S
C2545 C2553 1.433 . S
C2546 H2542 0.929 . S
C2546 C2548 1.378 . S
C2546 C2550 1.350 . S
C2547 C2550 1.463 . S
C2547 C2552 1.350 . S
C2547 N2555 1.427 . S
C2548 H2539 0.930 . S
C2548 C2546 1.378 . S
C2548 C2549 1.367 . S
C2549 C2548 1.367 . S
C2549 C2551 1.433 . S
C2550 C2546 1.350 . S
C2550 C2547 1.463 . S
C2550 N2554 1.427 . S
C2551 H2541 0.929 . S
C2551 C2549 1.433 . S
C2551 N2554 1.384 . S
C2552 H2543 0.929 . S
C2552 C2544 1.378 . S
C2552 C2547 1.350 . S
C2553 H2540 0.929 . S
C2553 C2545 1.433 . S
C2553 N2555 1.384 . S
N2554 C2550 1.427 . S
N2554 C2551 1.384 . S
N2555 C2547 1.427 . S
N2555 C2553 1.384 . S
H2556 C2562 0.930 . S
H2557 C2566 0.930 . S
H2558 C2571 0.929 . S
H2559 C2569 0.929 . S
H2560 C2564 0.929 . S
H2561 C2570 0.929 . S
C2562 H2556 0.930 . S
C2562 C2563 1.367 . S
C2562 C2570 1.378 . S
C2563 C2562 1.367 . S
C2563 C2571 1.433 . S
C2564 H2560 0.929 . S
C2564 C2566 1.378 . S
C2564 C2568 1.350 . S
C2565 C2568 1.463 . S
C2565 C2570 1.350 . S
C2565 N2573 1.427 . S
C2566 H2557 0.930 . S
C2566 C2564 1.378 . S
C2566 C2567 1.367 . S
C2567 C2566 1.367 . S
C2567 C2569 1.433 . S
C2568 C2564 1.350 . S
C2568 C2565 1.463 . S
C2568 N2572 1.427 . S
C2569 H2559 0.929 . S
C2569 C2567 1.433 . S
C2569 N2572 1.384 . S
C2570 H2561 0.929 . S
C2570 C2562 1.378 . S
C2570 C2565 1.350 . S
C2571 H2558 0.929 . S
C2571 C2563 1.433 . S
C2571 N2573 1.384 . S
N2572 C2568 1.427 . S
N2572 C2569 1.384 . S
N2573 C2565 1.427 . S
N2573 C2571 1.384 . S
H2574 C2580 0.930 . S
H2575 C2584 0.930 . S
H2576 C2589 0.929 . S
H2577 C2587 0.958 . S
H2578 C2582 0.929 . S
H2579 C2588 0.929 . S
C2580 H2574 0.930 . S
C2580 C2581 1.367 . S
C2580 C2588 1.378 . S
C2581 C2580 1.367 . S
C2581 C2589 1.433 . S
C2582 H2578 0.929 . S
C2582 C2584 1.378 . S
C2582 C2586 1.350 . S
C2583 C2586 1.463 . S
C2583 C2588 1.350 . S
C2583 N2591 1.427 . S
C2584 H2575 0.930 . S
C2584 C2582 1.378 . S
C2584 C2585 1.367 . S
C2585 C2584 1.367 . S
C2585 C2587 1.433 . S
C2586 C2582 1.350 . S
C2586 C2583 1.463 . S
C2586 N2590 1.427 . S
C2587 H2577 0.958 . S
C2587 C2585 1.433 . S
C2587 N2590 1.384 . S
C2588 H2579 0.929 . S
C2588 C2580 1.378 . S
C2588 C2583 1.350 . S
C2589 H2576 0.929 . S
C2589 C2581 1.433 . S
C2589 N2591 1.384 . S
N2590 C2586 1.427 . S
N2590 C2587 1.384 . S
N2591 C2583 1.427 . S
N2591 C2589 1.384 . S
H2592 C2598 0.930 . S
H2593 C2602 0.930 . S
H2594 C2607 0.929 . S
H2595 C2605 0.929 . S
H2596 C2600 0.929 . S
H2597 C2606 0.929 . S
C2598 H2592 0.930 . S
C2598 C2599 1.367 . S
C2598 C2606 1.378 . S
C2599 C2598 1.367 . S
C2599 C2607 1.433 . S
C2600 H2596 0.929 . S
C2600 C2602 1.378 . S
C2600 C2604 1.350 . S
C2601 C2604 1.463 . S
C2601 C2606 1.350 . S
C2601 N2609 1.427 . S
C2602 H2593 0.930 . S
C2602 C2600 1.378 . S
C2602 C2603 1.367 . S
C2603 C2602 1.367 . S
C2603 C2605 1.433 . S
C2604 C2600 1.350 . S
C2604 C2601 1.463 . S
C2604 N2608 1.427 . S
C2605 H2595 0.929 . S
C2605 C2603 1.433 . S
C2605 N2608 1.384 . S
C2606 H2597 0.929 . S
C2606 C2598 1.378 . S
C2606 C2601 1.350 . S
C2607 H2594 0.929 . S
C2607 C2599 1.433 . S
C2607 N2609 1.384 . S
N2608 C2604 1.427 . S
N2608 C2605 1.384 . S
N2609 C2601 1.427 . S
N2609 C2607 1.384 . S
H2610 C2616 0.930 . S
H2611 C2620 0.930 . S
H2612 C2625 0.929 . S
H2613 C2623 0.929 . S
H2614 C2618 0.929 . S
H2615 C2624 0.929 . S
C2616 H2610 0.930 . S
C2616 C2617 1.367 . S
C2616 C2624 1.378 . S
C2617 C2616 1.367 . S
C2617 C2625 1.433 . S
C2618 H2614 0.929 . S
C2618 C2620 1.378 . S
C2618 C2622 1.350 . S
C2619 C2622 1.463 . S
C2619 C2624 1.350 . S
C2619 N2627 1.427 . S
C2620 H2611 0.930 . S
C2620 C2618 1.378 . S
C2620 C2621 1.367 . S
C2621 C2620 1.367 . S
C2621 C2623 1.433 . S
C2622 C2618 1.350 . S
C2622 C2619 1.463 . S
C2622 N2626 1.427 . S
C2623 H2613 0.929 . S
C2623 C2621 1.433 . S
C2623 N2626 1.384 . S
C2624 H2615 0.929 . S
C2624 C2616 1.378 . S
C2624 C2619 1.350 . S
C2625 H2612 0.929 . S
C2625 C2617 1.433 . S
C2625 N2627 1.384 . S
N2626 C2622 1.427 . S
N2626 C2623 1.384 . S
N2627 C2619 1.427 . S
N2627 C2625 1.384 . S
H2628 C2634 0.930 . S
H2629 C2638 0.930 . S
H2630 C2643 0.929 . S
H2631 C2641 0.929 . S
H2632 C2636 0.929 . S
H2633 C2642 0.929 . S
C2634 H2628 0.930 . S
C2634 C2635 1.367 . S
C2634 C2642 1.378 . S
C2635 C2634 1.367 . S
C2635 C2643 1.433 . S
C2636 H2632 0.929 . S
C2636 C2638 1.378 . S
C2636 C2640 1.350 . S
C2637 C2640 1.463 . S
C2637 C2642 1.350 . S
C2637 N2645 1.427 . S
C2638 H2629 0.930 . S
C2638 C2636 1.378 . S
C2638 C2639 1.367 . S
C2639 C2638 1.367 . S
C2639 C2641 1.433 . S
C2640 C2636 1.350 . S
C2640 C2637 1.463 . S
C2640 N2644 1.427 . S
C2641 H2631 0.929 . S
C2641 C2639 1.433 . S
C2641 N2644 1.384 . S
C2642 H2633 0.929 . S
C2642 C2634 1.378 . S
C2642 C2637 1.350 . S
C2643 H2630 0.929 . S
C2643 C2635 1.433 . S
C2643 N2645 1.384 . S
N2644 C2640 1.427 . S
N2644 C2641 1.384 . S
N2645 C2637 1.427 . S
N2645 C2643 1.384 . S
H2646 C2652 0.930 . S
H2647 C2656 0.930 . S
H2648 C2661 0.929 . S
H2649 C2659 0.929 . S
H2650 C2654 0.929 . S
H2651 C2660 0.929 . S
C2652 H2646 0.930 . S
C2652 C2653 1.367 . S
C2652 C2660 1.378 . S
C2653 C2652 1.367 . S
C2653 C2661 1.433 . S
C2654 H2650 0.929 . S
C2654 C2656 1.378 . S
C2654 C2658 1.350 . S
C2655 C2658 1.463 . S
C2655 C2660 1.350 . S
C2655 N2663 1.427 . S
C2656 H2647 0.930 . S
C2656 C2654 1.378 . S
C2656 C2657 1.367 . S
C2657 C2656 1.367 . S
C2657 C2659 1.433 . S
C2658 C2654 1.350 . S
C2658 C2655 1.463 . S
C2658 N2662 1.427 . S
C2659 H2649 0.929 . S
C2659 C2657 1.433 . S
C2659 N2662 1.384 . S
C2660 H2651 0.929 . S
C2660 C2652 1.378 . S
C2660 C2655 1.350 . S
C2661 H2648 0.929 . S
C2661 C2653 1.433 . S
C2661 N2663 1.384 . S
N2662 C2658 1.427 . S
N2662 C2659 1.384 . S
N2663 C2655 1.427 . S
N2663 C2661 1.384 . S
H2664 C2670 0.930 . S
H2665 C2674 0.930 . S
H2666 C2679 0.929 . S
H2667 C2677 0.929 . S
H2668 C2672 0.929 . S
H2669 C2678 0.929 . S
C2670 H2664 0.930 . S
C2670 C2671 1.367 . S
C2670 C2678 1.378 . S
C2671 C2670 1.367 . S
C2671 C2679 1.433 . S
C2672 H2668 0.929 . S
C2672 C2674 1.378 . S
C2672 C2676 1.350 . S
C2673 C2676 1.463 . S
C2673 C2678 1.350 . S
C2673 N2681 1.427 . S
C2674 H2665 0.930 . S
C2674 C2672 1.378 . S
C2674 C2675 1.367 . S
C2675 C2674 1.367 . S
C2675 C2677 1.433 . S
C2676 C2672 1.350 . S
C2676 C2673 1.463 . S
C2676 N2680 1.427 . S
C2677 H2667 0.929 . S
C2677 C2675 1.433 . S
C2677 N2680 1.384 . S
C2678 H2669 0.929 . S
C2678 C2670 1.378 . S
C2678 C2673 1.350 . S
C2679 H2666 0.929 . S
C2679 C2671 1.433 . S
C2679 N2681 1.384 . S
N2680 C2676 1.427 . S
N2680 C2677 1.384 . S
N2681 C2673 1.427 . S
N2681 C2679 1.384 . S
H2682 C2688 0.930 . S
H2683 C2692 0.930 . S
H2684 C2697 0.929 . S
H2685 C2695 0.929 . S
H2686 C2690 0.929 . S
H2687 C2696 0.929 . S
C2688 H2682 0.930 . S
C2688 C2689 1.367 . S
C2688 C2696 1.378 . S
C2689 C2688 1.367 . S
C2689 C2697 1.433 . S
C2690 H2686 0.929 . S
C2690 C2692 1.378 . S
C2690 C2694 1.350 . S
C2691 C2694 1.463 . S
C2691 C2696 1.350 . S
C2691 N2699 1.427 . S
C2692 H2683 0.930 . S
C2692 C2690 1.378 . S
C2692 C2693 1.367 . S
C2693 C2692 1.367 . S
C2693 C2695 1.433 . S
C2694 C2690 1.350 . S
C2694 C2691 1.463 . S
C2694 N2698 1.427 . S
C2695 H2685 0.929 . S
C2695 C2693 1.433 . S
C2695 N2698 1.384 . S
C2696 H2687 0.929 . S
C2696 C2688 1.378 . S
C2696 C2691 1.350 . S
C2697 H2684 0.929 . S
C2697 C2689 1.433 . S
C2697 N2699 1.384 . S
N2698 C2694 1.427 . S
N2698 C2695 1.384 . S
N2699 C2691 1.427 . S
N2699 C2697 1.384 . S
H2700 C2706 0.930 . S
H2701 C2710 0.930 . S
H2702 C2715 0.929 . S
H2703 C2713 0.929 . S
H2704 C2708 0.929 . S
H2705 C2714 0.929 . S
C2706 H2700 0.930 . S
C2706 C2707 1.367 . S
C2706 C2714 1.378 . S
C2707 C2706 1.367 . S
C2707 C2715 1.433 . S
C2708 H2704 0.929 . S
C2708 C2710 1.378 . S
C2708 C2712 1.350 . S
C2709 C2712 1.463 . S
C2709 C2714 1.350 . S
C2709 N2717 1.427 . S
C2710 H2701 0.930 . S
C2710 C2708 1.378 . S
C2710 C2711 1.367 . S
C2711 C2710 1.367 . S
C2711 C2713 1.433 . S
C2712 C2708 1.350 . S
C2712 C2709 1.463 . S
C2712 N2716 1.427 . S
C2713 H2703 0.929 . S
C2713 C2711 1.433 . S
C2713 N2716 1.384 . S
C2714 H2705 0.929 . S
C2714 C2706 1.378 . S
C2714 C2709 1.350 . S
C2715 H2702 0.929 . S
C2715 C2707 1.433 . S
C2715 N2717 1.384 . S
N2716 C2712 1.427 . S
N2716 C2713 1.384 . S
N2717 C2709 1.427 . S
N2717 C2715 1.384 . S
H2718 C2724 0.930 . S
H2719 C2728 0.930 . S
H2720 C2733 0.929 . S
H2721 C2731 0.929 . S
H2722 C2726 0.929 . S
H2723 C2732 0.929 . S
C2724 H2718 0.930 . S
C2724 C2725 1.367 . S
C2724 C2732 1.378 . S
C2725 C2724 1.367 . S
C2725 C2733 1.433 . S
C2726 H2722 0.929 . S
C2726 C2728 1.378 . S
C2726 C2730 1.350 . S
C2727 C2730 1.463 . S
C2727 C2732 1.350 . S
C2727 N2735 1.427 . S
C2728 H2719 0.930 . S
C2728 C2726 1.378 . S
C2728 C2729 1.367 . S
C2729 C2728 1.367 . S
C2729 C2731 1.433 . S
C2730 C2726 1.350 . S
C2730 C2727 1.463 . S
C2730 N2734 1.427 . S
C2731 H2721 0.929 . S
C2731 C2729 1.433 . S
C2731 N2734 1.384 . S
C2732 H2723 0.929 . S
C2732 C2724 1.378 . S
C2732 C2727 1.350 . S
C2733 H2720 0.929 . S
C2733 C2725 1.433 . S
C2733 N2735 1.384 . S
N2734 C2730 1.427 . S
N2734 C2731 1.384 . S
N2735 C2727 1.427 . S
N2735 C2733 1.384 . S
C799 C169 0.792 . S
C803 C10 0.797 . S
C817 C183 0.787 . S
C821 C32 0.800 . S
C835 C139 0.781 . S
C839 C52 0.799 . S
C853 C84 0.801 . S
C857 C257 0.784 . S
C871 C219 0.797 . S
C875 C98 0.783 . S
C889 C120 0.783 . S
C893 C235 0.801 . S
C907 C37 0.801 . S
C911 C150 0.787 . S
C925 C65 0.781 . S
C929 C164 0.798 . S
C943 C15 0.800 . S
C947 C194 0.787 . S
C961 C206 0.788 . S
C965 C125 0.800 . S
C979 C230 0.784 . S
C983 C73 0.801 . S
C997 C103 0.799 . S
C1001 C252 0.790 . S
C1015 C274 0.783 . S
C1019 C433 0.797 . S
C1033 C455 0.798 . S
C1037 C294 0.783 . S
C1051 C316 0.797 . S
C1055 C403 0.782 . S
C1069 C348 0.801 . S
C1073 C521 0.783 . S
C1087 C362 0.786 . S
C1091 C477 0.791 . S
C1105 C505 0.793 . S
C1109 C384 0.796 . S
C1123 C307 0.782 . S
C1127 C414 0.801 . S
C1141 C329 0.796 . S
C1145 C428 0.783 . S
C1159 C279 0.786 . S
C1163 C450 0.800 . S
C1177 C472 0.783 . S
C1181 C389 0.801 . S
C1195 C492 0.796 . S
C1199 C337 0.793 . S
C1213 C367 0.782 . S
C1217 C516 0.795 . S
C1231 C538 0.784 . S
C1235 C689 0.801 . S
C1249 C558 0.783 . S
C1253 C719 0.798 . S
C1267 C582 0.789 . S
C1271 C667 0.787 . S
C1285 C785 0.782 . S
C1289 C604 0.796 . S
C1303 C634 0.784 . S
C1307 C741 0.794 . S
C1321 C646 0.794 . S
C1325 C763 0.784 . S
C1339 C571 0.801 . S
C1343 C678 0.787 . S
C1357 C587 0.791 . S
C1361 C700 0.798 . S
C1375 C543 0.797 . S
C1379 C714 0.783 . S
C1393 C736 0.797 . S
C1397 C659 0.781 . S
C1411 C758 0.784 . S
C1415 C609 0.795 . S
C1429 C780 0.796 . S
C1433 C623 0.793 . S
C1447 C8 1.305 . S
C1451 C406 1.305 . S
C1465 C426 1.306 . S
C1469 C30 1.306 . S
C1483 C62 1.307 . S
C1487 C448 1.307 . S
C1501 C734 1.303 . S
C1505 C76 1.303 . S
C1519 C96 1.303 . S
C1523 C756 1.303 . S
C1537 C778 1.305 . S
C1541 C118 1.305 . S
C1555 C536 1.303 . S
C1559 C142 1.303 . S
C1573 C162 1.305 . S
C1577 C568 1.305 . S
C1591 C186 1.302 . S
C1595 C580 1.302 . S
C1609 C340 1.305 . S
C1613 C216 1.305 . S
C1627 C228 1.305 . S
C1631 C360 1.305 . S
C1645 C382 1.304 . S
C1649 C250 1.304 . S
C1663 C272 1.302 . S
C1667 C670 1.302 . S
C1681 C692 1.302 . S
C1685 C304 1.302 . S
C1699 C326 1.302 . S
C1703 C712 1.302 . S
C1717 C470 1.307 . S
C1721 C602 1.307 . S
C1735 C626 1.302 . S
C1739 C502 1.302 . S
C1753 C514 1.306 . S
C1757 C656 1.306 . S
C1771 C21 1.816 . S
C1775 C645 1.812 . S
C1789 C615 1.825 . S
C1793 C43 1.828 . S
C1807 C631 1.826 . S
C1811 C51 1.828 . S
C1825 C293 1.827 . S
C1829 C81 1.827 . S
C1843 C109 1.828 . S
C1847 C315 1.826 . S
C1861 C285 1.826 . S
C1865 C131 1.828 . S
C1879 C147 1.812 . S
C1883 C527 1.817 . S
C1897 C483 1.827 . S
C1901 C175 1.828 . S
C1915 C191 1.814 . S
C1919 C491 1.811 . S
C1933 C697 1.824 . S
C1937 C205 1.818 . S
C1951 C241 1.821 . S
C1955 C725 1.826 . S
C1969 C675 1.811 . S
C1973 C263 1.816 . S
C1987 C557 1.811 . S
C1991 C345 1.813 . S
C2005 C593 1.817 . S
C2009 C373 1.823 . S
C2023 C549 1.812 . S
C2027 C395 1.811 . S
C2041 C791 1.811 . S
C2045 C411 1.813 . S
C2059 C439 1.814 . S
C2063 C747 1.821 . S
C2077 C769 1.817 . S
C2081 C461 1.823 . S
C2095 C40 1.131 . S
C2099 C7 1.138 . S
C2113 C29 1.141 . S
C2117 C54 1.146 . S
C2131 C18 1.148 . S
C2135 C59 1.137 . S
C2149 C87 1.131 . S
C2153 C128 1.149 . S
C2167 C74 1.143 . S
C2171 C95 1.130 . S
C2185 C106 1.130 . S
C2189 C117 1.141 . S
C2203 C172 1.147 . S
C2207 C153 1.130 . S
C2221 C161 1.136 . S
C2225 C184 1.133 . S
C2239 C140 1.149 . S
C2243 C197 1.131 . S
C2257 C260 1.129 . S
C2261 C213 1.145 . S
C2275 C208 1.139 . S
C2279 C227 1.131 . S
C2293 C238 1.129 . S
C2297 C249 1.144 . S
C2311 C296 1.139 . S
C2315 C271 1.132 . S
C2329 C301 1.135 . S
C2333 C318 1.149 . S
C2347 C323 1.145 . S
C2351 C282 1.129 . S
C2365 C351 1.147 . S
C2369 C392 1.129 . S
C2383 C359 1.147 . S
C2387 C338 1.129 . S
C2401 C381 1.131 . S
C2405 C370 1.149 . S
C2419 C436 1.130 . S
C2423 C417 1.141 . S
C2437 C458 1.132 . S
C2441 C425 1.138 . S
C2455 C404 1.130 . S
C2459 C447 1.149 . S
C2473 C469 1.146 . S
C2477 C524 1.128 . S
C2491 C499 1.141 . S
C2495 C480 1.146 . S
C2509 C513 1.144 . S
C2513 C494 1.143 . S
C2527 C560 1.149 . S
C2531 C535 1.136 . S
C2545 C565 1.132 . S
C2549 C590 1.138 . S
C2563 C546 1.145 . S
C2567 C579 1.142 . S
C2581 C601 1.148 . S
C2585 C648 1.129 . S
C2599 C637 1.135 . S
C2603 C612 1.135 . S
C2617 C624 1.132 . S
C2621 C653 1.150 . S
C2635 C690 1.140 . S
C2639 C681 1.147 . S
C2653 C722 1.146 . S
C2657 C703 1.129 . S
C2671 C668 1.149 . S
C2675 C711 1.135 . S
C2689 C733 1.145 . S
C2693 C788 1.142 . S
C2707 C755 1.140 . S
C2711 C744 1.130 . S
C2725 C766 1.129 . S
C2729 C777 1.142 . S
