# Generated by pormake.
# Topology wfa, (4)-cn, num edge types: 1
# Building blocks:
#     Node 0, Type 0, BuildingBlock: NAWXER_clean_sbu_0, # of connection points: 4
#     Node 1, Type 0, BuildingBlock: NAWXER_clean_sbu_0, # of connection points: 4
#     Node 2, Type 0, BuildingBlock: NAWXER_clean_sbu_0, # of connection points: 4
#     Node 3, Type 0, BuildingBlock: NAWXER_clean_sbu_0, # of connection points: 4
#     Node 4, Type 0, BuildingBlock: NAWXER_clean_sbu_0, # of connection points: 4
#     Node 5, Type 0, BuildingBlock: NAWXER_clean_sbu_0, # of connection points: 4
#     Node 6, Type 0, BuildingBlock: NAWXER_clean_sbu_0, # of connection points: 4
#     Node 7, Type 0, BuildingBlock: NAWXER_clean_sbu_0, # of connection points: 4
#     Node 8, Type 0, BuildingBlock: NAWXER_clean_sbu_0, # of connection points: 4
#     Node 9, Type 0, BuildingBlock: NAWXER_clean_sbu_0, # of connection points: 4
#     Node 10, Type 0, BuildingBlock: NAWXER_clean_sbu_0, # of connection points: 4
#     Node 11, Type 0, BuildingBlock: NAWXER_clean_sbu_0, # of connection points: 4
#     Node 12, Type 0, BuildingBlock: NAWXER_clean_sbu_0, # of connection points: 4
#     Node 13, Type 0, BuildingBlock: NAWXER_clean_sbu_0, # of connection points: 4
#     Node 14, Type 0, BuildingBlock: NAWXER_clean_sbu_0, # of connection points: 4
#     Node 15, Type 0, BuildingBlock: NAWXER_clean_sbu_0, # of connection points: 4
#     Edge 16, Type (0, 0), BuildingBlock: XUDNAN_clean_linker_2, # of connection points: 2
#     Edge 17, Type (0, 0), BuildingBlock: XUDNAN_clean_linker_2, # of connection points: 2
#     Edge 18, Type (0, 0), BuildingBlock: XUDNAN_clean_linker_2, # of connection points: 2
#     Edge 19, Type (0, 0), BuildingBlock: XUDNAN_clean_linker_2, # of connection points: 2
#     Edge 20, Type (0, 0), BuildingBlock: XUDNAN_clean_linker_2, # of connection points: 2
#     Edge 21, Type (0, 0), BuildingBlock: XUDNAN_clean_linker_2, # of connection points: 2
#     Edge 22, Type (0, 0), BuildingBlock: XUDNAN_clean_linker_2, # of connection points: 2
#     Edge 23, Type (0, 0), BuildingBlock: XUDNAN_clean_linker_2, # of connection points: 2
#     Edge 24, Type (0, 0), BuildingBlock: XUDNAN_clean_linker_2, # of connection points: 2
#     Edge 25, Type (0, 0), BuildingBlock: XUDNAN_clean_linker_2, # of connection points: 2
#     Edge 26, Type (0, 0), BuildingBlock: XUDNAN_clean_linker_2, # of connection points: 2
#     Edge 27, Type (0, 0), BuildingBlock: XUDNAN_clean_linker_2, # of connection points: 2
#     Edge 28, Type (0, 0), BuildingBlock: XUDNAN_clean_linker_2, # of connection points: 2
#     Edge 29, Type (0, 0), BuildingBlock: XUDNAN_clean_linker_2, # of connection points: 2
#     Edge 30, Type (0, 0), BuildingBlock: XUDNAN_clean_linker_2, # of connection points: 2
#     Edge 31, Type (0, 0), BuildingBlock: XUDNAN_clean_linker_2, # of connection points: 2
#     Edge 32, Type (0, 0), BuildingBlock: XUDNAN_clean_linker_2, # of connection points: 2
#     Edge 33, Type (0, 0), BuildingBlock: XUDNAN_clean_linker_2, # of connection points: 2
#     Edge 34, Type (0, 0), BuildingBlock: XUDNAN_clean_linker_2, # of connection points: 2
#     Edge 35, Type (0, 0), BuildingBlock: XUDNAN_clean_linker_2, # of connection points: 2
#     Edge 36, Type (0, 0), BuildingBlock: XUDNAN_clean_linker_2, # of connection points: 2
#     Edge 37, Type (0, 0), BuildingBlock: XUDNAN_clean_linker_2, # of connection points: 2
#     Edge 38, Type (0, 0), BuildingBlock: XUDNAN_clean_linker_2, # of connection points: 2
#     Edge 39, Type (0, 0), BuildingBlock: XUDNAN_clean_linker_2, # of connection points: 2
#     Edge 40, Type (0, 0), BuildingBlock: XUDNAN_clean_linker_2, # of connection points: 2
#     Edge 41, Type (0, 0), BuildingBlock: XUDNAN_clean_linker_2, # of connection points: 2
#     Edge 42, Type (0, 0), BuildingBlock: XUDNAN_clean_linker_2, # of connection points: 2
#     Edge 43, Type (0, 0), BuildingBlock: XUDNAN_clean_linker_2, # of connection points: 2
#     Edge 44, Type (0, 0), BuildingBlock: XUDNAN_clean_linker_2, # of connection points: 2
#     Edge 45, Type (0, 0), BuildingBlock: XUDNAN_clean_linker_2, # of connection points: 2
#     Edge 46, Type (0, 0), BuildingBlock: XUDNAN_clean_linker_2, # of connection points: 2
#     Edge 47, Type (0, 0), BuildingBlock: XUDNAN_clean_linker_2, # of connection points: 2
# Relax obj value: 0.153
# Max RMSD: 0.233
# Mean RMSD: 0.220
data_MOF--net-wfa--node1-NAWXER_clean_sbu_0--edge1-XUDNAN_clean_linker_2
_symmetry_space_group_name_H-M    P1
_symmetry_Int_Tables_number       1
_symmetry_cell_setting            triclinic
loop_
_symmetry_equiv_pos_as_xyz
'x, y, z'
_cell_length_a     48.080949
_cell_length_b     47.923243
_cell_length_c     22.334043
_cell_angle_alpha  89.802858
_cell_angle_beta   89.511267
_cell_angle_gamma 89.040904
loop_
_atom_site_label
_atom_site_type_symbol
_atom_site_fract_x
_atom_site_fract_y
_atom_site_fract_z
_atom_type_partial_charge
C0 C 0.65879 0.06436 0.19494 0.0
C1 C 0.70581 0.03172 0.01541 0.0
O2 O 0.67018 0.07712 0.15171 0.0
Zn3 Zn 0.68088 0.04511 0.10836 0.0
O4 O 0.65938 0.03743 0.19628 0.0
Zn5 Zn 0.67749 1.00439 0.13458 0.0
O6 O 0.70484 0.9866 0.18874 0.0
O7 O 0.7149 0.02979 0.16462 0.0
O8 O 0.70116 1.00992 0.04793 0.0
O9 O 0.69646 0.05496 0.03358 0.0
O10 O 0.64004 0.02744 0.09193 0.0
O11 O 0.64348 0.98305 0.11548 0.0
C12 C 0.72097 1.00721 0.19332 0.0
C13 C 0.62863 1.0035 0.09733 0.0
C14 C 0.49276 0.74086 0.14124 0.0
C15 C 0.4896 0.65835 1.01419 0.0
O16 O 0.51241 0.72796 0.11429 0.0
Zn17 Zn 0.49052 0.70298 0.06718 0.0
O18 O 0.46753 0.73478 0.12889 0.0
Zn19 Zn 0.4474 0.70506 0.07055 0.0
O20 O 0.42462 0.68604 0.12806 0.0
O21 O 0.46989 0.67768 0.13567 0.0
O22 O 0.46501 0.66801 0.0254 0.0
O23 O 0.51042 0.67327 0.0263 0.0
O24 O 0.47306 0.72855 0.99631 0.0
O25 O 0.42793 0.72645 1.01055 0.0
C26 C 0.44477 0.67285 0.15232 0.0
C27 C 0.44831 0.73555 0.98045 0.0
C28 C 0.8195 0.42702 1.01313 0.0
C29 C 0.91228 0.45109 0.94063 0.0
O30 O 0.82177 0.45277 0.99851 0.0
Zn31 Zn 0.85162 0.47974 0.9579 0.0
O32 O 0.83888 0.40972 0.99935 0.0
Zn33 Zn 0.86464 0.43667 0.96583 0.0
O34 O 0.86962 0.4624 0.04282 0.0
O35 O 0.85592 0.50599 0.0242 0.0
O36 O 0.90357 0.42654 0.95035 0.0
O37 O 0.89483 0.47162 0.9403 0.0
O38 O 0.83508 0.49136 0.8821 0.0
O39 O 0.84775 0.44699 0.88096 0.0
C40 C 0.86567 0.4876 0.06009 0.0
C41 C 0.83702 0.46828 0.85444 0.0
C42 C 1.00021 0.91075 0.18995 0.0
C43 C 0.9917 0.85477 1.00177 0.0
O44 O 0.02148 0.90583 0.1573 0.0
Zn45 Zn 0.03638 0.88807 0.07918 0.0
O46 O 0.97655 0.90127 0.17481 0.0
Zn47 Zn 0.99075 0.88246 0.09907 0.0
O48 O 0.01701 0.85164 0.13576 0.0
O49 O 0.06148 0.85964 0.11852 0.0
O50 O 0.97137 0.86069 0.03702 0.0
O51 O 0.01583 0.86415 1.0136 0.0
O52 O 0.04464 0.92515 0.04037 0.0
O53 O 0.99976 0.91927 0.05441 0.0
C54 C 0.04255 0.84464 0.14222 0.0
C55 C 0.01964 0.93456 0.03666 0.0
C56 C 0.13669 1.0109 0.40717 0.0
C57 C 0.20335 0.01947 0.57979 0.0
O58 O 0.14911 0.98972 0.42942 0.0
Zn59 Zn 0.17564 0.97437 0.49366 0.0
O60 O 0.14266 0.03513 0.42691 0.0
Zn61 Zn 0.17056 0.02142 0.48968 0.0
O62 O 0.20353 1.0051 0.43737 0.0
O63 O 0.206 0.95909 0.43965 0.0
O64 O 0.19167 0.04046 0.55408 0.0
O65 O 0.19841 0.99493 0.56058 0.0
O66 O 0.14421 0.95602 0.5393 0.0
O67 O 0.14076 1.00191 0.54179 0.0
C68 C 0.21535 0.98232 0.42047 0.0
C69 C 0.13124 0.97821 0.55633 0.0
C70 C 0.46309 0.23718 0.40769 0.0
C71 C 0.46707 0.14606 0.50065 0.0
O72 O 0.44579 0.21753 0.40791 0.0
Zn73 Zn 0.46436 0.1936 0.46387 0.0
O74 O 0.48477 0.23514 0.44084 0.0
Zn75 Zn 0.50114 0.20366 0.50307 0.0
O76 O 0.53705 0.19751 0.47069 0.0
O77 O 0.50355 0.18062 0.41502 0.0
O78 O 0.48841 0.16033 0.51491 0.0
O79 O 0.44656 0.15826 0.47601 0.0
O80 O 0.45909 0.21624 0.54844 0.0
O81 O 0.50177 0.22062 0.58042 0.0
C82 C 0.52968 0.18381 0.42516 0.0
C83 C 0.47601 0.225 0.58822 0.0
C84 C 0.41706 0.4616 0.47679 0.0
C85 C 0.32337 0.45283 0.39708 0.0
O86 O 0.40663 0.44042 0.45195 0.0
Zn87 Zn 0.36903 0.45546 0.44385 0.0
O88 O 0.40102 0.48214 0.49178 0.0
Zn89 Zn 0.35754 0.49374 0.48256 0.0
O90 O 0.34272 0.49534 0.56197 0.0
O91 O 0.34996 0.45205 0.53232 0.0
O92 O 0.32563 0.47456 0.43 0.0
O93 O 0.34388 0.43595 0.39177 0.0
O94 O 0.37742 0.49277 0.39103 0.0
O95 O 0.36099 0.5289 0.44237 0.0
C96 C 0.34106 0.46941 0.57218 0.0
C97 C 0.37341 0.51922 0.39632 0.0
C98 C 0.96698 0.40672 0.3696 0.0
C99 C 1.00233 0.34922 0.53415 0.0
O100 O 0.95332 0.39136 0.4054 0.0
Zn101 Zn 0.98511 0.37678 0.44868 0.0
O102 O 0.99366 0.40594 0.37064 0.0
Zn103 Zn 0.0263 0.38612 0.42256 0.0
O104 O 0.04502 0.36191 0.3619 0.0
O105 O 1.00343 0.34709 0.38665 0.0
O106 O 0.02236 0.35958 0.50285 0.0
O107 O 0.97745 0.35459 0.51898 0.0
O108 O 1.00101 0.41568 0.48304 0.0
O109 O 0.04398 0.4209 0.45079 0.0
C110 C 0.02606 0.34392 0.35633 0.0
C111 C 0.02291 0.43062 0.4793 0.0
C112 C 0.41112 0.0423 0.92316 0.0
C113 C 0.34938 0.01746 0.09291 0.0
O114 O 0.40077 0.06034 0.95928 0.0
Zn115 Zn 0.379 0.03289 1.00585 0.0
O116 O 0.4043 0.01671 0.92737 0.0
Zn117 Zn 0.38072 0.98865 0.9797 0.0
O118 O 0.35236 0.97823 0.91715 0.0
O119 O 0.34864 0.02238 0.94247 0.0
O120 O 0.35619 0.9964 0.0601 0.0
O121 O 0.35796 0.04156 0.07828 0.0
O122 O 0.41321 1.01006 0.03976 0.0
O123 O 0.41499 0.96663 1.0088 0.0
C124 C 0.34026 1.00201 0.91089 0.0
C125 C 0.42599 0.98649 0.03801 0.0
C126 C 0.46326 0.36078 0.91415 0.0
C127 C 0.48502 0.45293 0.99196 0.0
O128 O 0.48531 0.36 0.94643 0.0
Zn129 Zn 0.50776 0.38984 1.00251 0.0
O130 O 0.44833 0.38293 0.91323 0.0
Zn131 Zn 0.47199 0.40486 0.96345 0.0
O132 O 0.51048 0.40363 0.90712 0.0
O133 O 0.54292 0.38567 0.96645 0.0
O134 O 0.4624 0.44452 0.97024 0.0
O135 O 0.50385 0.43484 1.00599 0.0
O136 O 0.50715 0.37599 0.08234 0.0
O137 O 0.46495 0.3856 0.05095 0.0
C138 C 0.53565 0.39486 0.91549 0.0
C139 C 0.48121 0.37568 0.09147 0.0
C140 C 0.18981 0.4651 0.08134 0.0
C141 C 0.16257 0.52126 0.91181 0.0
O142 O 0.18214 0.44857 0.03974 0.0
Zn143 Zn 0.16422 0.45549 0.95124 0.0
O144 O 0.18808 0.49113 0.07315 0.0
Zn145 Zn 0.17493 0.49169 0.99324 0.0
O146 O 0.13079 0.48229 0.99749 0.0
O147 O 0.12706 0.44093 0.95606 0.0
O148 O 0.17338 0.52789 0.96123 0.0
O149 O 0.1576 0.49544 0.90053 0.0
O150 O 0.1892 0.43508 0.89989 0.0
O151 O 0.20731 0.47351 0.93548 0.0
C152 C 0.1156 0.46201 0.98066 0.0
C153 C 0.2094 0.4517 0.90226 0.0
C154 C 0.04081 0.20246 0.03715 0.0
C155 C 0.02799 0.12904 0.87896 0.0
O156 O 0.06111 0.18941 1.01197 0.0
Zn157 Zn 0.0402 0.16814 0.95 0.0
O158 O 0.01617 0.19899 0.01773 0.0
Zn159 Zn 0.99477 0.17738 0.95018 0.0
O160 O 0.97149 0.15148 0.9992 0.0
O161 O 0.01645 0.14277 1.00629 0.0
O162 O 1.00755 0.14502 0.89325 0.0
O163 O 0.05222 0.135 0.89808 0.0
O164 O 0.02784 0.19934 0.88788 0.0
O165 O 0.98255 0.20676 0.89204 0.0
C166 C 0.99153 0.1364 0.01968 0.0
C167 C 1.00618 0.21255 0.86921 0.0
C168 C 0.84608 0.03006 0.68706 0.0
C169 C 0.93466 0.0297 0.5706 0.0
O170 O 0.8574 0.05132 0.66331 0.0
Zn171 Zn 0.88722 0.03326 0.61633 0.0
O172 O 0.85527 1.00563 0.67307 0.0
Zn173 Zn 0.88714 0.9878 0.61515 0.0
O174 O 0.91159 0.9677 0.67545 0.0
O175 O 0.90938 0.01353 0.68432 0.0
O176 O 0.92289 1.00598 0.5738 0.0
O177 O 0.92101 0.05161 0.58648 0.0
O178 O 0.86754 0.01783 0.53965 0.0
O179 O 0.8659 0.97209 0.54569 0.0
C180 C 0.91885 0.99002 0.70213 0.0
C181 C 0.85992 0.99461 0.51761 0.0
C182 C 0.45027 0.86873 0.64218 0.0
C183 C 0.45833 0.94448 0.49398 0.0
O184 O 0.43078 0.88075 0.61327 0.0
Zn185 Zn 0.45287 0.90495 0.562 0.0
O186 O 0.47554 0.87505 0.63037 0.0
Zn187 Zn 0.49724 0.90245 0.57142 0.0
O188 O 0.51608 0.92779 0.62688 0.0
O189 O 0.47044 0.93376 0.62348 0.0
O190 O 0.48145 0.93376 0.51164 0.0
O191 O 0.4355 0.9336 0.51078 0.0
O192 O 0.47307 0.87756 0.49862 0.0
O193 O 0.51799 0.87795 0.51725 0.0
C194 C 0.49415 0.94118 0.64289 0.0
C195 C 0.49792 0.86915 0.48612 0.0
C196 C 0.64952 0.40534 0.55156 0.0
C197 C 0.691 0.41453 0.35413 0.0
O198 O 0.65309 0.43102 0.53743 0.0
Zn199 Zn 0.67002 0.45404 0.46156 0.0
O200 O 0.65708 0.38603 0.51577 0.0
Zn201 Zn 0.66911 0.41074 0.45365 0.0
O202 O 0.70587 0.42709 0.49621 0.0
O203 O 0.70022 0.47284 0.49991 0.0
O204 O 0.68201 0.39326 0.38137 0.0
O205 O 0.68798 0.43863 0.37858 0.0
O206 O 0.63818 0.47662 0.44026 0.0
O207 O 0.62974 0.43173 0.434 0.0
C208 C 0.71461 0.45112 0.51209 0.0
C209 C 0.62099 0.45718 0.43232 0.0
C210 C 0.04516 0.71599 0.48388 0.0
C211 C 0.07546 0.66555 0.661 0.0
O212 O 0.02388 0.70506 0.5094 0.0
Zn213 Zn 0.01764 0.68238 0.59353 0.0
O214 O 0.06858 0.71319 0.5085 0.0
Zn215 Zn 0.05808 0.69115 0.57776 0.0
O216 O 0.04461 0.64817 0.54803 0.0
O217 O 0.99993 0.64927 0.56959 0.0
O218 O 0.08905 0.6804 0.62424 0.0
O219 O 0.04881 0.66419 0.65671 0.0
O220 O 0.99432 0.70603 0.64314 0.0
O221 O 0.03734 0.72027 0.64172 0.0
C222 C 0.02104 0.63563 0.5507 0.0
C223 C 0.01226 0.72286 0.66182 0.0
H224 H 0.52688 0.13458 0.36059 0.0
H225 H 0.58252 0.20106 0.40931 0.0
H226 H 0.62171 0.17555 0.36224 0.0
H227 H 0.57455 0.07824 0.388 0.0
H228 H 0.56462 0.05734 0.32495 0.0
H229 H 0.53971 0.08099 0.35906 0.0
H230 H 0.53107 0.10555 0.25789 0.0
H231 H 0.55527 0.08155 0.22256 0.0
H232 H 0.56017 0.11862 0.21545 0.0
H233 H 0.65493 0.14366 0.31203 0.0
H234 H 0.68024 0.10816 0.25225 0.0
H235 H 0.60487 0.06033 0.23767 0.0
C236 C 0.54721 0.14396 0.36008 0.0
C237 C 0.55162 0.16994 0.38833 0.0
C238 C 0.57864 0.18126 0.3879 0.0
C239 C 0.60109 0.16687 0.36152 0.0
C240 C 0.59633 0.141 0.33584 0.0
C241 C 0.5701 0.12967 0.33408 0.0
C242 C 0.57113 0.10135 0.30338 0.0
C243 C 0.56197 0.0781 0.34645 0.0
C244 C 0.55336 0.10181 0.24643 0.0
C245 C 0.60198 0.09872 0.28827 0.0
C246 C 0.61599 0.12191 0.30772 0.0
C247 C 0.64429 0.12528 0.29691 0.0
C248 C 0.65853 0.10495 0.26331 0.0
C249 C 0.64463 0.08136 0.24138 0.0
C250 C 0.61612 0.07782 0.25527 0.0
H251 H 0.35774 0.57318 0.3691 0.0
H252 H 0.41902 0.50843 0.32722 0.0
H253 H 0.44453 0.5415 0.2633 0.0
H254 H 0.35755 0.60408 0.2187 0.0
H255 H 0.35286 0.63916 0.24628 0.0
H256 H 0.33921 0.61023 0.28828 0.0
H257 H 0.36658 0.62612 0.38127 0.0
H258 H 0.38067 0.65484 0.33929 0.0
H259 H 0.40372 0.63018 0.37564 0.0
H260 H 0.46527 0.58194 0.21093 0.0
H261 H 0.47654 0.62584 0.15935 0.0
H262 H 0.4003 0.66404 0.22826 0.0
C263 C 0.37636 0.56596 0.3459 0.0
C264 C 0.38645 0.5383 0.35299 0.0
C265 C 0.41081 0.52947 0.32189 0.0
C266 C 0.42557 0.54815 0.28591 0.0
C267 C 0.41542 0.5754 0.28079 0.0
C268 C 0.39107 0.58419 0.30872 0.0
C269 C 0.3844 0.61447 0.29406 0.0
C270 C 0.35687 0.61713 0.25977 0.0
C271 C 0.38382 0.63246 0.35096 0.0
C272 C 0.40905 0.62138 0.25433 0.0
C273 C 0.42683 0.5986 0.24807 0.0
C274 C 0.45145 0.5999 0.21511 0.0
C275 C 0.45779 0.62502 0.18653 0.0
C276 C 0.43937 0.64835 0.19031 0.0
C277 C 0.41475 0.64652 0.2249 0.0
H278 H 0.84765 0.46356 0.161 0.0
H279 H 0.90721 0.52214 0.09128 0.0
H280 H 0.93743 0.51296 0.17818 0.0
H281 H 0.86514 0.47282 0.33144 0.0
H282 H 0.86019 0.43596 0.34255 0.0
H283 H 0.83915 0.45493 0.28917 0.0
H284 H 0.85428 0.4194 0.20805 0.0
H285 H 0.87644 0.40105 0.25956 0.0
H286 H 0.89077 0.41461 0.19074 0.0
H287 H 0.96662 0.48695 0.2508 0.0
H288 H 0.98989 0.45182 0.31451 0.0
H289 H 0.91179 0.40883 0.3377 0.0
C290 C 0.86604 0.476 0.16683 0.0
C291 C 0.87494 0.49401 0.12068 0.0
C292 C 0.8997 0.50903 0.12738 0.0
C293 C 0.91714 0.5036 0.17629 0.0
C294 C 0.90912 0.48348 0.21817 0.0
C295 C 0.88365 0.47055 0.2151 0.0
C296 C 0.88189 0.44644 0.25913 0.0
C297 C 0.86032 0.45294 0.30852 0.0
C298 C 0.87549 0.41877 0.22742 0.0
C299 C 0.91112 0.44626 0.2837 0.0
C300 C 0.9263 0.46812 0.26042 0.0
C301 C 0.95469 0.47034 0.27082 0.0
C302 C 0.96781 0.45 0.30641 0.0
C303 C 0.95263 0.42755 0.33112 0.0
C304 C 0.92384 0.42593 0.32004 0.0
H305 H 0.03679 0.8992 0.27442 0.0
H306 H 0.98028 0.96405 0.21349 0.0
H307 H 1.00878 0.99959 0.26431 0.0
H308 H 0.06354 0.92781 0.41223 0.0
H309 H 0.09877 0.9176 0.3938 0.0
H310 H 0.0702 0.89741 0.36726 0.0
H311 H 0.0875 0.90231 0.259 0.0
H312 H 0.11634 0.92274 0.28306 0.0
H313 H 0.09283 0.93649 0.22746 0.0
H314 H 0.04895 0.02867 0.31793 0.0
H315 H 0.09246 0.04528 0.36566 0.0
H316 H 0.12487 0.96022 0.3629 0.0
C317 C 0.0293 0.92067 0.27537 0.0
C318 C 1.00562 0.92864 0.24224 0.0
C319 C 0.99755 0.95724 0.24102 0.0
C320 C 0.01412 0.97765 0.26859 0.0
C321 C 0.03905 0.96915 0.29569 0.0
C322 C 0.04639 0.94111 0.29886 0.0
C323 C 0.07598 0.93687 0.31923 0.0
C324 C 0.07718 0.91894 0.37655 0.0
C325 C 0.09421 0.92384 0.26921 0.0
C326 C 0.08393 0.96674 0.33031 0.0
C327 C 0.06269 0.9854 0.31698 0.0
C328 C 0.06577 0.01409 0.32744 0.0
C329 C 0.09069 0.02348 0.35402 0.0
C330 C 0.11247 1.00431 0.36806 0.0
C331 C 0.10896 0.97582 0.3533 0.0
H332 H 0.46233 0.02141 0.93077 0.0
H333 H 0.40895 0.07173 0.8179 0.0
H334 H 0.43871 0.06013 0.73049 0.0
H335 H 0.53136 0.0254 0.82643 0.0
H336 H 0.53831 0.98989 0.84925 0.0
H337 H 0.52259 0.01455 0.90119 0.0
H338 H 0.48307 0.97784 0.9164 0.0
H339 H 0.49786 0.95539 0.8604 0.0
H340 H 0.46257 0.96817 0.85276 0.0
H341 H 0.46399 0.03257 0.65436 0.0
H342 H 0.4769 0.99026 0.59758 0.0
H343 H 0.51094 0.95255 0.75786 0.0
C344 C 0.45835 0.03163 0.88827 0.0
C345 C 0.43399 0.04813 0.88108 0.0
C346 C 0.42814 0.06002 0.82466 0.0
C347 C 0.44492 0.05325 0.77468 0.0
C348 C 0.46732 0.03451 0.78209 0.0
C349 C 0.47429 0.02413 0.83796 0.0
C350 C 0.49433 0.99938 0.83289 0.0
C351 C 0.52339 1.00774 0.85369 0.0
C352 C 0.48379 0.9737 0.86759 0.0
C353 C 0.49434 0.99477 0.7659 0.0
C354 C 0.48034 0.01647 0.73726 0.0
C355 C 0.47515 0.0157 0.67614 0.0
C356 C 0.48265 0.99159 0.64429 0.0
C357 C 0.49509 0.96835 0.67356 0.0
C358 C 0.50215 0.97039 0.73445 0.0
H359 H 0.60668 0.43417 0.60312 0.0
H360 H 0.66026 0.36126 0.62592 0.0
H361 H 0.63684 0.35097 0.7226 0.0
H362 H 0.60249 0.4554 0.75567 0.0
H363 H 0.56619 0.46531 0.75286 0.0
H364 H 0.5874 0.46712 0.68616 0.0
H365 H 0.55315 0.43526 0.63072 0.0
H366 H 0.53173 0.43335 0.69713 0.0
H367 H 0.54468 0.40178 0.66235 0.0
H368 H 0.60976 0.35049 0.81829 0.0
H369 H 0.57725 0.35646 0.90331 0.0
H370 H 0.53847 0.42758 0.81432 0.0
C371 C 0.61351 0.41611 0.62874 0.0
C372 C 0.63541 0.39862 0.60805 0.0
C373 C 0.64351 0.37485 0.64159 0.0
C374 C 0.63042 0.36893 0.69636 0.0
C375 C 0.60897 0.38672 0.7158 0.0
C376 C 0.60023 0.40955 0.6826 0.0
C377 C 0.57599 0.4247 0.71248 0.0
C378 C 0.58348 0.45492 0.7277 0.0
C379 C 0.54984 0.4237 0.67334 0.0
C380 C 0.5728 0.40713 0.76844 0.0
C381 C 0.59223 0.38551 0.76959 0.0
C382 C 0.59429 0.36715 0.81772 0.0
C383 C 0.57587 0.37085 0.86589 0.0
C384 C 0.55543 0.39249 0.86515 0.0
C385 C 0.5538 0.41077 0.81568 0.0
H386 H 0.06205 0.61361 0.70396 0.0
H387 H 0.12449 0.67779 0.71285 0.0
H388 H 0.1541 0.64671 0.77436 0.0
H389 H 0.07169 0.58568 0.85515 0.0
H390 H 0.06709 0.55001 0.8325 0.0
H391 H 0.04999 0.57791 0.79211 0.0
H392 H 0.07276 0.56016 0.69351 0.0
H393 H 0.09029 0.53246 0.73371 0.0
H394 H 0.11007 0.55641 0.68861 0.0
H395 H 0.17709 0.60939 0.83285 0.0
H396 H 0.19179 0.56786 0.89055 0.0
H397 H 0.11603 0.52609 0.84108 0.0
C398 C 0.08168 0.62126 0.72011 0.0
C399 C 0.09093 0.64819 0.7044 0.0
C400 C 0.11703 0.65729 0.72479 0.0
C401 C 0.13401 0.63976 0.75949 0.0
C402 C 0.12471 0.61309 0.77283 0.0
C403 C 0.09915 0.60381 0.7542 0.0
C404 C 0.0947 0.5738 0.77366 0.0
C405 C 0.06937 0.57174 0.81588 0.0
C406 C 0.09179 0.55458 0.71912 0.0
C407 C 0.12167 0.56785 0.80655 0.0
C408 C 0.1386 0.5909 0.80527 0.0
C409 C 0.16413 0.59114 0.83403 0.0
C410 C 0.17232 0.56747 0.86652 0.0
C411 C 0.15518 0.54379 0.86958 0.0
C412 C 0.12976 0.54374 0.83824 0.0
H413 H 0.97701 0.10654 0.88306 0.0
H414 H 0.06056 0.08767 0.81857 0.0
H415 H 0.04354 0.04235 0.77858 0.0
H416 H 0.95693 0.03964 0.92961 0.0
H417 H 0.92178 0.04392 0.90365 0.0
H418 H 0.94073 0.07404 0.92644 0.0
H419 H 0.93338 0.09795 0.82421 0.0
H420 H 0.91313 0.06868 0.80174 0.0
H421 H 0.94247 0.07918 0.75683 0.0
H422 H 0.01245 1.00078 0.73338 0.0
H423 H 0.97404 0.97308 0.69112 0.0
H424 H 0.91518 0.01734 0.80442 0.0
C425 C 0.99216 0.09319 0.86056 0.0
C426 C 0.02024 0.10125 0.8533 0.0
C427 C 0.03892 0.08233 0.82436 0.0
C428 C 0.02935 0.05645 0.80175 0.0
C429 C 1.00123 0.04953 0.80972 0.0
C430 C 0.98319 0.06767 0.83899 0.0
C431 C 0.95374 0.05724 0.83999 0.0
C432 C 0.94266 0.0535 0.90389 0.0
C433 C 0.93457 0.07691 0.80352 0.0
C434 C 0.95771 0.02954 0.80943 0.0
C435 C 0.98488 0.02546 0.78988 0.0
C436 C 0.99146 1.00355 0.75051 0.0
C437 C 0.96956 0.98721 0.72783 0.0
C438 C 0.94157 0.99221 0.74628 0.0
C439 C 0.93642 1.01202 0.79161 0.0
H440 H 0.74791 0.99455 0.97347 0.0
H441 H 0.7009 0.06952 0.92629 0.0
H442 H 0.73065 0.07615 0.83808 0.0
H443 H 0.81435 0.01943 0.93038 0.0
H444 H 0.82725 0.98725 0.89817 0.0
H445 H 0.80124 0.98651 0.95665 0.0
H446 H 0.7689 0.95819 0.88856 0.0
H447 H 0.79496 0.95861 0.83005 0.0
H448 H 0.76024 0.97149 0.81532 0.0
H449 H 0.76792 0.07849 0.76117 0.0
H450 H 0.80786 0.07272 0.69188 0.0
H451 H 0.83059 0.99499 0.78041 0.0
C452 C 0.74351 1.01192 0.94373 0.0
C453 C 0.72191 0.03154 0.95754 0.0
C454 C 0.71727 0.05423 0.91753 0.0
C455 C 0.73412 0.05827 0.86696 0.0
C456 C 0.75569 0.03933 0.85566 0.0
C457 C 0.76026 0.01628 0.89199 0.0
C458 C 0.78544 0.99956 0.86898 0.0
C459 C 0.80843 0.99811 0.91638 0.0
C460 C 0.77687 0.97022 0.84957 0.0
C461 C 0.79432 0.01714 0.81513 0.0
C462 C 0.77687 0.04009 0.80884 0.0
C463 C 0.78149 0.06034 0.76496 0.0
C464 C 0.80435 0.05698 0.72591 0.0
C465 C 0.82226 0.03333 0.73005 0.0
C466 C 0.81703 0.01311 0.7754 0.0
H467 H 0.48769 0.84037 0.71345 0.0
H468 H 0.39923 0.85017 0.67993 0.0
H469 H 0.38932 0.81653 0.76115 0.0
H470 H 0.48704 0.76639 0.74725 0.0
H471 H 0.5128 0.76876 0.80509 0.0
H472 H 0.51294 0.79312 0.74348 0.0
H473 H 0.51031 0.83436 0.81812 0.0
H474 H 0.51013 0.81015 0.87995 0.0
H475 H 0.48256 0.83586 0.87287 0.0
H476 H 0.38902 0.78262 0.84769 0.0
H477 H 0.3981 0.75088 0.93263 0.0
H478 H 0.4869 0.76289 0.90999 0.0
C479 C 0.46618 0.83538 0.72288 0.0
C480 C 0.4442 0.84797 0.69004 0.0
C481 C 0.41642 0.84085 0.70421 0.0
C482 C 0.4106 0.82173 0.75033 0.0
C483 C 0.43276 0.80985 0.78191 0.0
C484 C 0.46001 0.81635 0.76873 0.0
C485 C 0.48 0.80095 0.81 0.0
C486 C 0.49933 0.78113 0.77431 0.0
C487 C 0.49673 0.82156 0.84745 0.0
C488 C 0.45973 0.78485 0.84876 0.0
C489 C 0.4326 0.79027 0.83169 0.0
C490 C 0.41019 0.77817 0.86128 0.0
C491 C 0.41561 0.76016 0.90961 0.0
C492 C 0.44325 0.75427 0.92818 0.0
C493 C 0.46556 0.7668 0.89693 0.0
H494 H 0.79872 0.50185 0.79575 0.0
H495 H 0.84938 0.4266 0.77559 0.0
H496 H 0.82735 0.41742 0.6787 0.0
H497 H 0.73779 0.47384 0.74194 0.0
H498 H 0.72578 0.50471 0.70305 0.0
H499 H 0.74828 0.50785 0.7665 0.0
H500 H 0.78324 0.53574 0.70194 0.0
H501 H 0.76076 0.53273 0.63816 0.0
H502 H 0.7965 0.52095 0.63308 0.0
H503 H 0.7961 0.41282 0.59144 0.0
H504 H 0.75768 0.4135 0.51881 0.0
H505 H 0.7273 0.49194 0.5929 0.0
C506 C 0.8057 0.48388 0.7701 0.0
C507 C 0.82591 0.46503 0.79317 0.0
C508 C 0.83398 0.44137 0.75891 0.0
C509 C 0.82167 0.43601 0.70361 0.0
C510 C 0.80132 0.45455 0.68281 0.0
C511 C 0.79346 0.47812 0.71471 0.0
C512 C 0.76935 0.49327 0.68461 0.0
C513 C 0.7438 0.495 0.72652 0.0
C514 C 0.77799 0.5224 0.66317 0.0
C515 C 0.76437 0.47404 0.63205 0.0
C516 C 0.78327 0.452 0.63159 0.0
C517 C 0.78151 0.43026 0.59056 0.0
C518 C 0.75959 0.43078 0.54956 0.0
C519 C 0.73974 0.45293 0.54966 0.0
C520 C 0.74257 0.4751 0.59073 0.0
H521 H 0.03297 0.83394 0.92719 0.0
H522 H 0.9436 0.83275 0.95582 0.0
H523 H 0.93926 0.80073 0.86968 0.0
H524 H 0.03213 0.83161 0.76446 0.0
H525 H 0.06249 0.80914 0.75926 0.0
H526 H 0.05843 0.83278 0.82142 0.0
H527 H 0.06386 0.79143 0.89555 0.0
H528 H 0.06796 0.76768 0.83369 0.0
H529 H 0.04127 0.76196 0.88934 0.0
H530 H 0.94491 0.76772 0.78168 0.0
H531 H 0.95966 0.73575 0.70102 0.0
H532 H 0.04577 0.75771 0.72929 0.0
C533 C 0.01238 0.82721 0.9152 0.0
C534 C 0.98854 0.83616 0.94852 0.0
C535 C 0.96214 0.82641 0.93124 0.0
C536 C 0.9595 0.8082 0.88222 0.0
C537 C 0.98344 0.79976 0.85071 0.0
C538 C 1.00939 0.80894 0.86659 0.0
C539 C 0.03195 0.79607 0.82656 0.0
C540 C 0.04714 0.81875 0.79081 0.0
C541 C 0.05246 0.77823 0.86349 0.0
C542 C 0.01469 0.77803 0.7857 0.0
C543 C 0.98674 0.78061 0.80035 0.0
C544 C 0.96673 0.76567 0.76988 0.0
C545 C 0.9754 0.74747 0.7239 0.0
C546 C 1.00395 0.74407 0.7082 0.0
C547 C 0.02379 0.75989 0.73952 0.0
H548 H 0.23885 0.97952 0.6275 0.0
H549 H 0.21205 0.06581 0.64998 0.0
H550 H 0.24303 0.0696 0.73753 0.0
H551 H 0.24422 0.96167 0.78379 0.0
H552 H 0.27502 0.94009 0.77449 0.0
H553 H 0.25075 0.94394 0.71386 0.0
H554 H 0.2903 0.96081 0.64402 0.0
H555 H 0.31473 0.95687 0.70431 0.0
H556 H 0.31102 0.98995 0.66632 0.0
H557 H 0.27596 0.06372 0.82381 0.0
H558 H 0.31062 0.05047 0.89882 0.0
H559 H 0.31828 0.96777 0.82056 0.0
C560 C 0.23942 0.99927 0.65079 0.0
C561 C 0.22271 0.02242 0.63166 0.0
C562 C 0.22449 0.04784 0.66337 0.0
C563 C 0.24201 0.05012 0.71336 0.0
C564 C 0.25794 0.02687 0.73111 0.0
C565 C 0.25703 1.00199 0.70047 0.0
C566 C 0.2768 0.98036 0.72815 0.0
C567 C 0.26073 0.95501 0.75145 0.0
C568 C 0.29956 0.97148 0.68301 0.0
C569 C 0.28891 0.9969 0.77959 0.0
C570 C 0.27752 0.02363 0.78033 0.0
C571 C 0.28505 0.04291 0.82334 0.0
C572 C 0.30491 0.03501 0.86607 0.0
C573 C 0.31757 1.00795 0.86626 0.0
C574 C 0.30913 0.98855 0.82226 0.0
H575 H 0.50712 0.24217 0.68288 0.0
H576 H 0.42352 0.24677 0.6115 0.0
H577 H 0.40961 0.27899 0.69343 0.0
H578 H 0.48754 0.24572 0.84239 0.0
H579 H 0.51703 0.26676 0.86049 0.0
H580 H 0.5194 0.24215 0.79975 0.0
H581 H 0.53403 0.28184 0.72752 0.0
H582 H 0.53166 0.30653 0.78789 0.0
H583 H 0.51204 0.3125 0.72053 0.0
H584 H 0.40656 0.31494 0.77756 0.0
H585 H 0.41424 0.34986 0.85691 0.0
H586 H 0.49953 0.3202 0.87407 0.0
C587 C 0.48571 0.2495 0.68489 0.0
C588 C 0.46637 0.2418 0.64065 0.0
C589 C 0.43866 0.25215 0.64497 0.0
C590 C 0.43059 0.27051 0.69137 0.0
C591 C 0.4504 0.2781 0.73349 0.0
C592 C 0.47734 0.26766 0.73085 0.0
C593 C 0.49514 0.28004 0.77942 0.0
C594 C 0.50537 0.25731 0.8231 0.0
C595 C 0.51965 0.29618 0.7522 0.0
C596 C 0.47422 0.29956 0.80925 0.0
C597 C 0.44848 0.29815 0.78232 0.0
C598 C 0.42649 0.31582 0.79955 0.0
C599 C 0.43105 0.33561 0.8447 0.0
C600 C 0.45735 0.33753 0.87247 0.0
C601 C 0.47897 0.31885 0.85493 0.0
H602 H 0.32202 0.50124 0.66603 0.0
H603 H 0.32707 0.41577 0.60264 0.0
H604 H 0.29824 0.40085 0.68878 0.0
H605 H 0.32204 0.48458 0.82916 0.0
H606 H 0.2977 0.51258 0.84562 0.0
H607 H 0.32183 0.51579 0.78385 0.0
H608 H 0.28072 0.52561 0.71205 0.0
H609 H 0.25653 0.52235 0.77338 0.0
H610 H 0.25293 0.50091 0.70785 0.0
H611 H 0.26364 0.39647 0.77343 0.0
H612 H 0.22716 0.40275 0.85102 0.0
H613 H 0.24572 0.49087 0.86078 0.0
C614 C 0.31764 0.47925 0.67089 0.0
C615 C 0.32691 0.45965 0.62755 0.0
C616 C 0.32039 0.43115 0.63538 0.0
C617 C 0.30403 0.42248 0.68424 0.0
C618 C 0.29464 0.44249 0.72525 0.0
C619 C 0.30147 0.47026 0.71941 0.0
C620 C 0.2871 0.48799 0.76689 0.0
C621 C 0.30844 0.50099 0.80887 0.0
C622 C 0.2682 0.51053 0.73832 0.0
C623 C 0.27026 0.46604 0.79907 0.0
C624 C 0.27509 0.43988 0.77476 0.0
C625 C 0.26013 0.41674 0.7936 0.0
C626 C 0.2394 0.42053 0.8376 0.0
C627 C 0.23384 0.44723 0.86246 0.0
C628 C 0.24995 0.47009 0.84372 0.0
H629 H 0.96452 0.32109 0.60555 0.0
H630 H 0.05302 0.33431 0.58104 0.0
H631 H 0.06279 0.30211 0.66503 0.0
H632 H 0.96526 0.31644 0.76865 0.0
H633 H 0.93959 0.28949 0.77219 0.0
H634 H 0.93924 0.31425 0.71127 0.0
H635 H 0.94182 0.27367 0.63513 0.0
H636 H 0.9422 0.24879 0.69577 0.0
H637 H 0.96965 0.24811 0.64028 0.0
H638 H 0.06333 0.26773 0.74918 0.0
H639 H 0.05513 0.23332 0.82859 0.0
H640 H 0.96598 0.24132 0.80131 0.0
C641 C 0.98597 0.31739 0.61806 0.0
C642 C 1.00804 0.33044 0.58641 0.0
C643 C 0.03575 0.32475 0.6043 0.0
C644 C 0.04151 0.30645 0.65209 0.0
C645 C 0.01935 0.29388 0.68192 0.0
C646 C 0.99212 0.29909 0.6658 0.0
C647 C 0.97226 0.28231 0.70485 0.0
C648 C 0.95294 0.30179 0.74141 0.0
C649 C 0.95549 0.26202 0.66672 0.0
C650 C 0.99263 0.26669 0.74518 0.0
C651 C 0.01965 0.27384 0.73097 0.0
C652 C 0.04226 0.26205 0.76075 0.0
C653 C 0.03729 0.24237 0.80596 0.0
C654 C 1.00986 0.23436 0.82171 0.0
C655 C 0.98718 0.24696 0.79084 0.0
H656 H 0.2307 0.95539 0.31323 0.0
H657 H 0.25715 0.01702 0.44163 0.0
H658 H 0.29515 0.03073 0.37397 0.0
H659 H 0.303 0.93652 0.25728 0.0
H660 H 0.2917 0.93271 0.18104 0.0
H661 H 0.26821 0.92518 0.24211 0.0
H662 H 0.23227 0.96026 0.1982 0.0
H663 H 0.25577 0.96818 0.1375 0.0
H664 H 0.24228 0.99582 0.18455 0.0
H665 H 0.32596 0.04271 0.28893 0.0
H666 H 0.3521 0.04842 0.19437 0.0
H667 H 0.30911 0.978 0.11897 0.0
C668 C 0.24516 0.971 0.32778 0.0
C669 C 0.24109 0.98492 0.38327 0.0
C670 C 0.25993 1.00594 0.39973 0.0
C671 C 0.28159 0.01397 0.36145 0.0
C672 C 0.2845 1.00075 0.30636 0.0
C673 C 0.26725 0.97936 0.28964 0.0
C674 C 0.27464 0.96972 0.22631 0.0
C675 C 0.28501 0.93922 0.22672 0.0
C676 C 0.24976 0.97374 0.18416 0.0
C677 C 0.29811 0.98951 0.21001 0.0
C678 C 0.30326 1.00725 0.25706 0.0
C679 C 0.3225 0.02861 0.25211 0.0
C680 C 0.33715 0.03182 0.19797 0.0
C681 C 0.33291 0.0136 0.14926 0.0
C682 C 0.31314 0.99202 0.15567 0.0
H683 H 0.50104 0.27637 0.3724 0.0
H684 H 0.41512 0.25242 0.35037 0.0
H685 H 0.40847 0.29011 0.27609 0.0
H686 H 0.48974 0.35266 0.35032 0.0
H687 H 0.52184 0.35629 0.3089 0.0
H688 H 0.51906 0.33006 0.36658 0.0
H689 H 0.53371 0.29165 0.29087 0.0
H690 H 0.53695 0.31764 0.23314 0.0
H691 H 0.51465 0.28826 0.22216 0.0
H692 H 0.41249 0.32721 0.19621 0.0
H693 H 0.42771 0.35882 0.11484 0.0
H694 H 0.51091 0.35822 0.18871 0.0
C695 C 0.48065 0.2795 0.35306 0.0
C696 C 0.45857 0.26154 0.36754 0.0
C697 C 0.43236 0.26595 0.34014 0.0
C698 C 0.42831 0.28742 0.29806 0.0
C699 C 0.45065 0.30441 0.28382 0.0
C700 C 0.4763 0.30072 0.31059 0.0
C701 C 0.4976 0.32004 0.28343 0.0
C702 C 0.50765 0.34102 0.3301 0.0
C703 C 0.52216 0.3034 0.25575 0.0
C704 C 0.48021 0.33441 0.23578 0.0
C705 C 0.45304 0.32555 0.23737 0.0
C706 C 0.43362 0.33463 0.19508 0.0
C707 C 0.44242 0.35264 0.14907 0.0
C708 C 0.47046 0.36108 0.14538 0.0
C709 C 0.48926 0.35235 0.19041 0.0
H710 H 0.31769 0.42858 0.28674 0.0
H711 H 0.27103 0.46942 0.42944 0.0
H712 H 0.22863 0.46843 0.36807 0.0
H713 H 0.28906 0.46748 0.17305 0.0
H714 H 0.28822 0.43999 0.11824 0.0
H715 H 0.31335 0.43848 0.17731 0.0
H716 H 0.29557 0.38983 0.20901 0.0
H717 H 0.27026 0.39124 0.14989 0.0
H718 H 0.25919 0.3855 0.22619 0.0
H719 H 0.19377 0.47003 0.28756 0.0
H720 H 0.16928 0.47599 0.19155 0.0
H721 H 0.23757 0.43443 0.09874 0.0
C722 C 0.29828 0.43637 0.30572 0.0
C723 C 0.29748 0.4487 0.36317 0.0
C724 C 0.272 0.45969 0.38574 0.0
C725 C 0.24779 0.45907 0.35132 0.0
C726 C 0.24936 0.44746 0.29422 0.0
C727 C 0.27393 0.43629 0.27142 0.0
C728 C 0.27084 0.42857 0.20593 0.0
C729 C 0.29159 0.44459 0.16633 0.0
C730 C 0.27416 0.3969 0.19726 0.0
C731 C 0.24108 0.4382 0.19487 0.0
C732 C 0.22894 0.44849 0.24687 0.0
C733 C 0.20273 0.46135 0.24696 0.0
C734 C 0.18892 0.46458 0.19234 0.0
C735 C 0.20122 0.45488 0.13844 0.0
C736 C 0.22728 0.44089 0.13987 0.0
H737 H 0.06374 0.25476 0.05801 0.0
H738 H 0.02139 0.18616 0.14417 0.0
H739 H 0.01588 0.21396 0.23635 0.0
H740 H 0.0998 0.28009 0.19644 0.0
H741 H 0.09533 0.3163 0.17599 0.0
H742 H 0.09891 0.29009 0.11858 0.0
H743 H 0.05249 0.30716 0.07221 0.0
H744 H 0.04862 0.3332 0.12974 0.0
H745 H 0.02146 0.30837 0.11809 0.0
H746 H 1.0094 0.2504 0.31418 0.0
H747 H 1.00585 0.29236 0.37741 0.0
H748 H 0.054 0.33851 0.24643 0.0
C749 C 0.05431 0.24534 0.09717 0.0
C750 C 0.04364 0.21791 0.09448 0.0
C751 C 0.03028 0.20678 0.14573 0.0
C752 C 0.02691 0.22251 0.19823 0.0
C753 C 0.037 0.2496 0.1993 0.0
C754 C 0.0508 0.26092 0.15061 0.0
C755 C 0.05824 0.29118 0.16344 0.0
C756 C 0.08996 0.29461 0.16362 0.0
C757 C 0.04438 0.31115 0.11817 0.0
C758 C 0.04592 0.29513 0.22614 0.0
C759 C 0.03373 0.27077 0.24558 0.0
C760 C 0.01932 0.26943 0.29991 0.0
C761 C 0.0173 0.29348 0.3355 0.0
C762 C 0.02988 0.31872 0.31753 0.0
C763 C 0.04463 0.31941 0.2621 0.0
H764 H 0.73286 0.97121 0.28879 0.0
H765 H 0.76598 0.04096 0.18802 0.0
H766 H 0.80647 0.04183 0.25474 0.0
H767 H 0.75226 0.99628 0.43247 0.0
H768 H 0.7612 0.96254 0.46333 0.0
H769 H 0.7358 0.96542 0.40476 0.0
H770 H 0.76443 0.9303 0.34047 0.0
H771 H 0.78998 0.92735 0.39888 0.0
H772 H 0.80047 0.93709 0.3241 0.0
H773 H 0.84188 0.03761 0.33466 0.0
H774 H 0.86955 0.0297 0.42544 0.0
H775 H 0.81502 0.96268 0.47888 0.0
C776 C 0.74889 0.98634 0.28019 0.0
C777 C 0.74618 1.00592 0.23244 0.0
C778 C 0.76743 0.02572 0.22383 0.0
C779 C 0.79064 0.02633 0.26153 0.0
C780 C 0.79255 1.00707 0.30833 0.0
C781 C 0.77228 0.98744 0.31811 0.0
C782 C 0.77889 0.97032 0.37424 0.0
C783 C 0.75565 0.97386 0.42149 0.0
C784 C 0.78373 0.93943 0.35847 0.0
C785 C 0.80578 0.98368 0.39475 0.0
C786 C 0.81323 1.00468 0.35543 0.0
C787 C 0.83637 0.02106 0.3654 0.0
C788 C 0.85201 0.01637 0.41729 0.0
C789 C 0.8448 0.99538 0.45926 0.0
C790 C 0.82152 0.97845 0.44714 0.0
H791 H 0.45907 0.84392 0.41544 0.0
H792 H 0.54816 0.85105 0.43969 0.0
H793 H 0.55643 0.82031 0.35247 0.0
H794 H 0.46013 0.77151 0.37316 0.0
H795 H 0.43272 0.77565 0.31913 0.0
H796 H 0.4339 0.79847 0.38291 0.0
H797 H 0.4337 0.8414 0.31207 0.0
H798 H 0.43267 0.81869 0.24804 0.0
H799 H 0.4599 0.84389 0.25417 0.0
H800 H 0.55497 0.78882 0.26204 0.0
H801 H 0.54407 0.75743 0.17844 0.0
H802 H 0.45583 0.77036 0.21345 0.0
C803 C 0.48036 0.83904 0.40253 0.0
C804 C 0.50299 0.85001 0.43462 0.0
C805 C 0.53047 0.84294 0.41608 0.0
C806 C 0.53538 0.82554 0.36641 0.0
C807 C 0.5126 0.81525 0.33567 0.0
C808 C 0.48563 0.82162 0.3532 0.0
C809 C 0.46481 0.80747 0.31311 0.0
C810 C 0.44683 0.78706 0.34924 0.0
C811 C 0.4467 0.82916 0.27988 0.0
C812 C 0.48428 0.79208 0.2703 0.0
C813 C 0.51176 0.79696 0.28394 0.0
C814 C 0.53353 0.78487 0.25101 0.0
C815 C 0.52708 0.76707 0.20343 0.0
C816 C 0.49907 0.76136 0.18905 0.0
C817 C 0.47745 0.77432 0.22291 0.0
H818 H 0.7166 0.45503 0.28687 0.0
H819 H 0.70083 0.36611 0.29195 0.0
H820 H 0.72954 0.35961 0.20083 0.0
H821 H 0.71609 0.46296 0.12427 0.0
H822 H 0.74392 0.4877 0.12407 0.0
H823 H 0.72076 0.48553 0.18769 0.0
H824 H 0.76301 0.47724 0.25747 0.0
H825 H 0.78625 0.47938 0.19409 0.0
H826 H 0.78712 0.44895 0.24165 0.0
H827 H 0.7638 0.36225 0.11386 0.0
H828 H 0.79882 0.37462 0.0363 0.0
H829 H 0.79001 0.46172 0.08648 0.0
C830 C 0.7188 0.43425 0.26836 0.0
C831 C 0.70634 0.41112 0.2966 0.0
C832 C 0.71007 0.38421 0.27114 0.0
C833 C 0.72636 0.38027 0.21931 0.0
C834 C 0.73869 0.40345 0.19311 0.0
C835 C 0.73493 0.42994 0.21659 0.0
C836 C 0.7513 0.45122 0.18138 0.0
C837 C 0.73185 0.47314 0.15264 0.0
C838 C 0.77321 0.465 0.22101 0.0
C839 C 0.76487 0.43258 0.1346 0.0
C840 C 0.75756 0.40505 0.14215 0.0
C841 C 0.76928 0.38383 0.1068 0.0
C842 C 0.78912 0.391 0.0629 0.0
C843 C 0.79669 0.41915 0.05442 0.0
C844 C 0.78408 0.44009 0.0905 0.0
H845 H 0.07501 0.83784 0.2438 0.0
H846 H 0.01961 0.79473 0.12479 0.0
H847 H 0.01556 0.75633 0.19778 0.0
H848 H 0.10996 0.77237 0.30613 0.0
H849 H 0.11213 0.78721 0.37997 0.0
H850 H 0.11381 0.80949 0.31488 0.0
H851 H 0.07279 0.83916 0.35726 0.0
H852 H 0.07051 0.81667 0.42177 0.0
H853 H 0.04043 0.82253 0.3755 0.0
H854 H 1.01068 0.72683 0.28975 0.0
H855 H 0.01223 0.7035 0.38882 0.0
H856 H 0.0732 0.76287 0.4478 0.0
C857 C 0.06324 0.81963 0.232 0.0
C858 C 0.04813 0.81897 0.17786 0.0
C859 C 0.0318 0.79538 0.16535 0.0
C860 C 0.02916 0.77355 0.20682 0.0
C861 C 0.04317 0.77532 0.26091 0.0
C862 C 0.06052 0.79732 0.27314 0.0
C863 C 0.0721 0.7945 0.33615 0.0
C864 C 0.10389 0.79066 0.33415 0.0
C865 C 0.06343 0.81971 0.37494 0.0
C866 C 0.05798 0.768 0.35757 0.0
C867 C 0.04116 0.75747 0.31355 0.0
C868 C 0.02429 0.73448 0.32413 0.0
C869 C 0.02509 0.72148 0.38067 0.0
C870 C 0.04299 0.73113 0.42575 0.0
C871 C 0.05962 0.75474 0.41382 0.0
H872 H 0.47312 0.95061 0.01562 0.0
H873 H 0.4445 0.02155 0.12176 0.0
H874 H 0.49228 0.03168 0.14818 0.0
H875 H 0.53117 0.93305 0.13052 0.0
H876 H 0.5548 0.92039 0.07334 0.0
H877 H 0.51781 0.91634 0.06481 0.0
H878 H 0.5201 0.94191 0.96267 0.0
H879 H 0.55705 0.94561 0.97148 0.0
H880 H 0.53543 0.97598 0.95909 0.0
H881 H 0.54182 0.04111 0.14631 0.0
H882 H 0.59273 0.04213 0.13987 0.0
H883 H 0.5939 0.96154 0.05165 0.0
C884 C 0.47689 0.96766 0.04596 0.0
C885 C 0.4546 0.98565 0.06512 0.0
C886 C 0.46079 1.00769 0.10501 0.0
C887 C 0.48808 0.01377 0.12049 0.0
C888 C 0.50952 0.99701 0.09816 0.0
C889 C 0.50452 0.97359 0.0642 0.0
C890 C 0.53229 0.95884 0.04929 0.0
C891 C 0.53413 0.93047 0.0814 0.0
C892 C 0.53642 0.95537 0.98153 0.0
C893 C 0.55327 0.9792 0.07527 0.0
C894 C 0.53925 1.00097 0.10322 0.0
C895 C 0.55314 0.02378 0.12622 0.0
C896 C 0.58216 0.02428 0.12185 0.0
C897 C 0.59755 1.00189 0.09593 0.0
C898 C 0.58281 0.97884 0.07248 0.0
H899 H 0.44749 0.49719 1.00058 0.0
H900 H 0.53579 0.4774 0.99007 0.0
H901 H 0.54614 0.52766 0.98726 0.0
H902 H 0.4469 0.55736 0.90514 0.0
H903 H 0.42241 0.57718 0.95016 0.0
H904 H 0.42155 0.53961 0.95067 0.0
H905 H 0.42674 0.53921 0.06608 0.0
H906 H 0.42732 0.57678 0.06608 0.0
H907 H 0.45541 0.55705 0.09949 0.0
H908 H 0.54703 0.58009 0.98255 0.0
H909 H 0.53885 0.63093 0.98956 0.0
H910 H 0.45012 0.61731 1.00762 0.0
C911 C 0.46899 0.50347 0.9979 0.0
C912 C 0.49084 0.48329 0.99533 0.0
C913 C 0.51871 0.49239 0.99242 0.0
C914 C 0.5248 0.52094 0.99036 0.0
C915 C 0.50283 0.54028 0.99213 0.0
C916 C 0.4755 0.53199 0.99706 0.0
C917 C 0.45593 0.55716 1.00121 0.0
C918 C 0.43549 0.55786 0.94865 0.0
C919 C 0.44044 0.55757 0.0618 0.0
C920 C 0.47649 0.58083 0.99671 0.0
C921 C 0.50341 0.57059 0.99111 0.0
C922 C 0.52603 0.58834 0.98704 0.0
C923 C 0.52114 0.61727 0.9907 0.0
C924 C 0.49383 0.62833 0.99869 0.0
C925 C 0.47122 0.6097 1.00058 0.0
H926 H 0.95739 0.41406 0.94435 0.0
H927 H 0.93567 0.5024 0.93642 0.0
H928 H 0.98467 0.51412 0.95006 0.0
H929 H 1.00957 0.41863 0.05558 0.0
H930 H 0.033 0.3933 0.02208 0.0
H931 H 0.99612 0.39109 1.00987 0.0
H932 H 1.00416 0.39245 0.89506 0.0
H933 H 0.04111 0.39416 0.90692 0.0
H934 H 0.02375 0.42052 0.86244 0.0
H935 H 0.03496 0.51692 0.97247 0.0
H936 H 0.08545 0.5105 0.98618 0.0
H937 H 0.07637 0.4207 0.97378 0.0
C938 C 0.96302 0.43584 0.94444 0.0
C939 C 0.94248 0.45724 0.93936 0.0
C940 C 0.95083 0.48552 0.94002 0.0
C941 C 0.97867 0.49248 0.94817 0.0
C942 C 0.99819 0.471 0.95484 0.0
C943 C 0.99096 0.44325 0.95174 0.0
C944 C 0.01643 0.42439 0.95914 0.0
C945 C 0.0136 0.40575 0.01499 0.0
C946 C 0.02167 0.40685 0.90251 0.0
C947 C 0.0389 0.44594 0.96729 0.0
C948 C 0.02774 0.47266 0.96552 0.0
C949 C 0.04403 0.49611 0.97347 0.0
C950 C 0.07268 0.49222 0.9818 0.0
C951 C 0.08489 0.46511 0.98122 0.0
C952 C 0.06764 0.44167 0.97448 0.0
H953 H 0.03246 0.1004 0.0573 0.0
H954 H 0.94318 0.10576 0.03081 0.0
H955 H 0.94125 0.05417 0.03635 0.0
H956 H 0.04525 0.04801 0.95969 0.0
H957 H 0.07212 0.0301 1.00138 0.0
H958 H 0.06631 0.06697 1.01154 0.0
H959 H 0.05854 0.06021 0.12568 0.0
H960 H 0.06566 0.02342 0.11653 0.0
H961 H 0.03369 0.03506 0.15179 0.0
H962 H 0.9511 1.00293 0.01511 0.0
H963 H 0.96889 0.95487 1.005 0.0
H964 H 0.05222 0.98222 0.0458 0.0
C965 C 0.01223 0.09094 0.05421 0.0
C966 C 0.98789 0.1074 0.04286 0.0
C967 C 0.96206 0.09388 0.03964 0.0
C968 C 0.9609 0.0645 0.04185 0.0
C969 C 0.98578 0.04902 0.04561 0.0
C970 C 1.01086 0.0618 0.05416 0.0
C971 C 0.03485 0.04067 0.05427 0.0
C972 C 0.05586 0.04682 1.00372 0.0
C973 C 0.04902 0.03978 0.11572 0.0
C974 C 0.01953 0.01391 0.04223 0.0
C975 C 0.99127 0.01933 0.03676 0.0
C976 C 0.97303 0.99843 0.02125 0.0
C977 C 0.98352 0.97114 0.01485 0.0
C978 C 0.01204 0.96445 0.02517 0.0
C979 C 0.03042 0.98644 0.0373 0.0
H980 H 0.08345 0.95708 0.50824 0.0
H981 H 0.11438 1.00581 0.65553 0.0
H982 H 0.06755 0.02644 0.67156 0.0
H983 H 0.03974 1.00821 0.44904 0.0
H984 H 0.01228 0.98504 0.4282 0.0
H985 H 0.04745 0.97205 0.43431 0.0
H986 H 0.03072 0.93417 0.50963 0.0
H987 H 0.99569 0.94774 0.5034 0.0
H988 H 0.0118 0.94506 0.57583 0.0
H989 H 0.01955 0.04867 0.65843 0.0
H990 H 0.97022 0.06023 0.63793 0.0
H991 H 0.9689 0.9951 0.5038 0.0
C992 C 0.07994 0.97065 0.54634 0.0
C993 C 0.10258 0.97912 0.58187 0.0
C994 C 0.09729 0.9983 0.62903 0.0
C995 C 0.0708 1.01058 0.63773 0.0
C996 C 0.04943 1.00327 0.59939 0.0
C997 C 0.05335 0.98291 0.5562 0.0
C998 C 0.02692 0.97948 0.52015 0.0
C999 C 0.03186 0.98663 0.45395 0.0
C1000 C 0.0156 0.94985 0.52772 0.0
C1001 C 1.00781 1.00116 0.54919 0.0
C1002 C 0.02141 0.01519 0.5938 0.0
C1003 C 1.0086 0.03745 0.62416 0.0
C1004 C 0.98066 0.04432 0.61127 0.0
C1005 C 0.96566 0.02894 0.56852 0.0
C1006 C 0.97981 1.0075 0.53624 0.0
H1007 H 0.41824 0.98688 0.49612 0.0
H1008 H 0.50231 0.96672 0.43606 0.0
H1009 H 0.51279 0.01654 0.43064 0.0
H1010 H 0.41427 0.05403 0.39597 0.0
H1011 H 0.39247 0.07148 0.4507 0.0
H1012 H 0.38991 0.03433 0.44015 0.0
H1013 H 0.39847 0.02712 0.55301 0.0
H1014 H 0.40224 0.06405 0.56384 0.0
H1015 H 0.42966 0.04027 0.58583 0.0
H1016 H 0.51816 0.0657 0.45781 0.0
H1017 H 0.51411 0.11569 0.48132 0.0
H1018 H 0.42525 0.10712 0.51076 0.0
C1019 C 0.43831 0.993 0.47868 0.0
C1020 C 0.4596 0.97282 0.46748 0.0
C1021 C 0.48575 0.98173 0.44551 0.0
C1022 C 0.49202 1.01003 0.44264 0.0
C1023 C 0.47152 0.02931 0.45923 0.0
C1024 C 0.44471 0.02149 0.47345 0.0
C1025 C 0.42685 0.04702 0.48909 0.0
C1026 C 0.40456 0.05202 0.44111 0.0
C1027 C 0.41354 0.04444 0.55166 0.0
C1028 C 0.44858 0.06973 0.48701 0.0
C1029 C 0.47416 0.05884 0.46971 0.0
C1030 C 0.49808 0.07479 0.46928 0.0
C1031 C 0.49564 0.10307 0.4839 0.0
C1032 C 0.46939 0.11529 0.49802 0.0
C1033 C 0.44556 0.0983 0.50005 0.0
H1034 H 0.57762 0.42057 0.42017 0.0
H1035 H 0.59553 0.5081 0.44802 0.0
H1036 H 0.54576 0.5178 0.46675 0.0
H1037 H 0.51132 0.43306 0.34364 0.0
H1038 H 0.49499 0.40317 0.37697 0.0
H1039 H 0.53205 0.40285 0.3639 0.0
H1040 H 0.54043 0.39162 0.4757 0.0
H1041 H 0.50348 0.39195 0.48961 0.0
H1042 H 0.52563 0.41428 0.53228 0.0
H1043 H 0.49499 0.5176 0.49055 0.0
H1044 H 0.44492 0.50917 0.50196 0.0
H1045 H 0.45867 0.42217 0.45432 0.0
C1046 C 0.57103 0.44188 0.42903 0.0
C1047 C 0.59063 0.46357 0.43253 0.0
C1048 C 0.58104 0.49113 0.44471 0.0
C1049 C 0.55279 0.49684 0.45592 0.0
C1050 C 0.53423 0.47486 0.4542 0.0
C1051 C 0.54278 0.44805 0.43978 0.0
C1052 C 0.51833 0.42838 0.4401 0.0
C1053 C 0.51392 0.41614 0.37742 0.0
C1054 C 0.52221 0.40519 0.48724 0.0
C1055 C 0.49478 0.4483 0.45752 0.0
C1056 C 0.50456 0.47492 0.46612 0.0
C1057 C 0.48703 0.49689 0.48343 0.0
C1058 C 0.45857 0.49179 0.49026 0.0
C1059 C 0.4477 0.46498 0.47912 0.0
C1060 C 0.46625 0.44287 0.46337 0.0
H1061 H 0.05969 0.59554 0.50493 0.0
H1062 H 0.97551 0.60507 0.57569 0.0
H1063 H 0.9696 0.55469 0.57137 0.0
H1064 H 0.0424 0.53971 0.40009 0.0
H1065 H 0.07468 0.52063 0.40977 0.0
H1066 H 0.07351 0.55793 0.41975 0.0
H1067 H 0.0938 0.55176 0.52604 0.0
H1068 H 0.09473 0.5144 0.51662 0.0
H1069 H 0.07634 0.52968 0.57941 0.0
H1070 H 0.97207 0.50392 0.56496 0.0
H1071 H 0.98012 0.45465 0.54126 0.0
H1072 H 0.06122 0.47429 0.46612 0.0
C1073 C 0.03998 0.587 0.51902 0.0
C1074 C 0.01814 0.60478 0.54086 0.0
C1075 C 0.9927 0.59244 0.55869 0.0
C1076 C 0.98908 0.56358 0.55684 0.0
C1077 C 1.01088 0.54675 0.5362 0.0
C1078 C 0.03567 0.55778 0.51634 0.0
C1079 C 0.05492 0.5343 0.49359 0.0
C1080 C 0.06178 0.53839 0.42683 0.0
C1081 C 0.08153 0.53243 0.53115 0.0
C1082 C 0.03685 0.50867 0.50365 0.0
C1083 C 0.01179 0.51665 0.52946 0.0
C1084 C 0.99152 0.49738 0.54422 0.0
C1085 C 0.99641 0.46924 0.53061 0.0
C1086 C 0.02127 0.46018 0.50141 0.0
C1087 C 0.04204 0.4803 0.48867 0.0
loop_
_geom_bond_atom_site_label_1
_geom_bond_atom_site_label_2
_geom_bond_distance
_geom_bond_site_symmetry_2
_ccdc_geom_bond_type
C0 O2 1.247 . S
C0 O4 1.258 1_545 S
C1 O8 1.247 . S
C1 O9 1.258 1_565 S
O2 C0 1.247 . S
O2 Zn3 2.028 . S
Zn3 O2 2.028 . S
Zn3 O7 2.035 . S
Zn3 O9 2.035 . S
Zn3 O10 2.028 . S
O4 C0 1.258 1_565 S
O4 Zn5 2.035 . S
Zn5 O4 2.035 . S
Zn5 O6 2.028 . S
Zn5 O8 2.028 . S
Zn5 O11 2.035 . S
O6 Zn5 2.028 . S
O6 C12 1.247 1_565 S
O7 Zn3 2.035 . S
O7 C12 1.258 . S
O8 C1 1.247 . S
O8 Zn5 2.028 . S
O9 C1 1.258 1_545 S
O9 Zn3 2.035 . S
O10 Zn3 2.028 . S
O10 C13 1.247 1_545 S
O11 Zn5 2.035 . S
O11 C13 1.258 . S
C12 O6 1.247 1_545 S
C12 O7 1.258 . S
C13 O10 1.247 1_565 S
C13 O11 1.258 . S
C14 O16 1.247 . S
C14 O18 1.258 . S
C15 O22 1.247 . S
C15 O23 1.258 . S
O16 C14 1.247 . S
O16 Zn17 2.028 . S
Zn17 O16 2.028 . S
Zn17 O21 2.035 . S
Zn17 O23 2.035 . S
Zn17 O24 2.028 . S
O18 C14 1.258 . S
O18 Zn19 2.035 . S
Zn19 O18 2.035 . S
Zn19 O20 2.028 . S
Zn19 O22 2.028 . S
Zn19 O25 2.035 . S
O20 Zn19 2.028 . S
O20 C26 1.247 . S
O21 Zn17 2.035 . S
O21 C26 1.258 . S
O22 C15 1.247 . S
O22 Zn19 2.028 . S
O23 C15 1.258 . S
O23 Zn17 2.035 . S
O24 Zn17 2.028 . S
O24 C27 1.247 . S
O25 Zn19 2.035 . S
O25 C27 1.258 . S
C26 O20 1.247 . S
C26 O21 1.258 . S
C27 O24 1.247 . S
C27 O25 1.258 . S
C28 O30 1.247 . S
C28 O32 1.258 . S
C29 O36 1.247 . S
C29 O37 1.258 . S
O30 C28 1.247 . S
O30 Zn31 2.028 . S
Zn31 O30 2.028 . S
Zn31 O35 2.035 . S
Zn31 O37 2.035 . S
Zn31 O38 2.028 . S
O32 C28 1.258 . S
O32 Zn33 2.035 . S
Zn33 O32 2.035 . S
Zn33 O34 2.028 . S
Zn33 O36 2.028 . S
Zn33 O39 2.035 . S
O34 Zn33 2.028 . S
O34 C40 1.247 . S
O35 Zn31 2.035 . S
O35 C40 1.258 . S
O36 C29 1.247 . S
O36 Zn33 2.028 . S
O37 C29 1.258 . S
O37 Zn31 2.035 . S
O38 Zn31 2.028 . S
O38 C41 1.247 . S
O39 Zn33 2.035 . S
O39 C41 1.258 . S
C40 O34 1.247 . S
C40 O35 1.258 . S
C41 O38 1.247 . S
C41 O39 1.258 . S
C42 O44 1.247 . S
C42 O46 1.258 1_455 S
C43 O50 1.247 . S
C43 O51 1.258 1_655 S
O44 C42 1.247 . S
O44 Zn45 2.028 . S
Zn45 O44 2.028 . S
Zn45 O49 2.035 . S
Zn45 O51 2.035 . S
Zn45 O52 2.028 . S
O46 C42 1.258 1_655 S
O46 Zn47 2.035 . S
Zn47 O46 2.035 . S
Zn47 O48 2.028 . S
Zn47 O50 2.028 . S
Zn47 O53 2.035 . S
O48 Zn47 2.028 . S
O48 C54 1.211 1_655 S
O49 Zn45 2.035 . S
O49 C54 1.295 . S
O50 C43 1.247 . S
O50 Zn47 2.028 . S
O51 C43 1.258 1_455 S
O51 Zn45 2.035 . S
O52 Zn45 2.028 . S
O52 C55 1.219 1_455 S
O53 Zn47 2.035 . S
O53 C55 1.287 . S
C54 O48 1.211 1_455 S
C54 O49 1.295 . S
C55 O52 1.219 1_655 S
C55 O53 1.287 . S
C56 O58 1.247 . S
C56 O60 1.258 1_565 S
C57 O64 1.247 . S
C57 O65 1.258 1_545 S
O58 C56 1.247 . S
O58 Zn59 2.028 . S
Zn59 O58 2.028 . S
Zn59 O63 2.035 . S
Zn59 O65 2.035 . S
Zn59 O66 2.028 . S
O60 C56 1.258 1_545 S
O60 Zn61 2.035 . S
Zn61 O60 2.035 . S
Zn61 O62 2.028 . S
Zn61 O64 2.028 . S
Zn61 O67 2.035 . S
O62 Zn61 2.028 . S
O62 C68 1.211 1_545 S
O63 Zn59 2.035 . S
O63 C68 1.295 . S
O64 C57 1.247 . S
O64 Zn61 2.028 . S
O65 C57 1.258 1_565 S
O65 Zn59 2.035 . S
O66 Zn59 2.028 . S
O66 C69 1.219 1_565 S
O67 Zn61 2.035 . S
O67 C69 1.287 . S
C68 O62 1.211 1_565 S
C68 O63 1.295 . S
C69 O66 1.219 1_545 S
C69 O67 1.287 . S
C70 O72 1.247 . S
C70 O74 1.258 . S
C71 O78 1.247 . S
C71 O79 1.258 . S
O72 C70 1.247 . S
O72 Zn73 2.028 . S
Zn73 O72 2.028 . S
Zn73 O77 2.035 . S
Zn73 O79 2.035 . S
Zn73 O80 2.028 . S
O74 C70 1.258 . S
O74 Zn75 2.035 . S
Zn75 O74 2.035 . S
Zn75 O76 2.028 . S
Zn75 O78 2.028 . S
Zn75 O81 2.035 . S
O76 Zn75 2.028 . S
O76 C82 1.247 . S
O77 Zn73 2.035 . S
O77 C82 1.258 . S
O78 C71 1.247 . S
O78 Zn75 2.028 . S
O79 C71 1.258 . S
O79 Zn73 2.035 . S
O80 Zn73 2.028 . S
O80 C83 1.247 . S
O81 Zn75 2.035 . S
O81 C83 1.258 . S
C82 O76 1.247 . S
C82 O77 1.258 . S
C83 O80 1.247 . S
C83 O81 1.258 . S
C84 O86 1.247 . S
C84 O88 1.258 . S
C85 O92 1.247 . S
C85 O93 1.258 . S
O86 C84 1.247 . S
O86 Zn87 2.028 . S
Zn87 O86 2.028 . S
Zn87 O91 2.035 . S
Zn87 O93 2.035 . S
Zn87 O94 2.028 . S
O88 C84 1.258 . S
O88 Zn89 2.035 . S
Zn89 O88 2.035 . S
Zn89 O90 2.028 . S
Zn89 O92 2.028 . S
Zn89 O95 2.035 . S
O90 Zn89 2.028 . S
O90 C96 1.247 . S
O91 Zn87 2.035 . S
O91 C96 1.258 . S
O92 C85 1.247 . S
O92 Zn89 2.028 . S
O93 C85 1.258 . S
O93 Zn87 2.035 . S
O94 Zn87 2.028 . S
O94 C97 1.247 . S
O95 Zn89 2.035 . S
O95 C97 1.258 . S
C96 O90 1.247 . S
C96 O91 1.258 . S
C97 O94 1.247 . S
C97 O95 1.258 . S
C98 O100 1.247 . S
C98 O102 1.258 1_655 S
C99 O106 1.247 . S
C99 O107 1.258 1_455 S
O100 C98 1.247 . S
O100 Zn101 2.028 . S
Zn101 O100 2.028 . S
Zn101 O105 2.035 . S
Zn101 O107 2.035 . S
Zn101 O108 2.028 . S
O102 C98 1.258 1_455 S
O102 Zn103 2.035 . S
Zn103 O102 2.035 . S
Zn103 O104 2.028 . S
Zn103 O106 2.028 . S
Zn103 O109 2.035 . S
O104 Zn103 2.028 . S
O104 C110 1.247 1_455 S
O105 Zn101 2.035 . S
O105 C110 1.258 . S
O106 C99 1.247 . S
O106 Zn103 2.028 . S
O107 C99 1.258 1_655 S
O107 Zn101 2.035 . S
O108 Zn101 2.028 . S
O108 C111 1.247 1_655 S
O109 Zn103 2.035 . S
O109 C111 1.258 . S
C110 O104 1.247 1_655 S
C110 O105 1.258 . S
C111 O108 1.247 1_455 S
C111 O109 1.258 . S
C112 O114 1.247 1_565 S
C112 O116 1.258 . S
C113 O120 1.247 1_545 S
C113 O121 1.258 . S
O114 C112 1.247 1_545 S
O114 Zn115 2.028 . S
Zn115 O114 2.028 . S
Zn115 O119 2.035 . S
Zn115 O121 2.035 . S
Zn115 O122 2.028 . S
O116 C112 1.258 . S
O116 Zn117 2.035 . S
Zn117 O116 2.035 . S
Zn117 O118 2.028 . S
Zn117 O120 2.028 . S
Zn117 O123 2.035 . S
O118 Zn117 2.028 . S
O118 C124 1.247 . S
O119 Zn115 2.035 . S
O119 C124 1.258 1_545 S
O120 C113 1.247 1_565 S
O120 Zn117 2.028 . S
O121 C113 1.258 . S
O121 Zn115 2.035 . S
O122 Zn115 2.028 . S
O122 C125 1.247 . S
O123 Zn117 2.035 . S
O123 C125 1.258 1_565 S
C124 O118 1.247 . S
C124 O119 1.258 1_565 S
C125 O122 1.247 . S
C125 O123 1.258 1_545 S
C126 O128 1.247 . S
C126 O130 1.258 . S
C127 O134 1.247 . S
C127 O135 1.258 . S
O128 C126 1.247 . S
O128 Zn129 2.028 . S
Zn129 O128 2.028 . S
Zn129 O133 2.035 . S
Zn129 O135 2.035 . S
Zn129 O136 2.028 . S
O130 C126 1.258 . S
O130 Zn131 2.035 . S
Zn131 O130 2.035 . S
Zn131 O132 2.028 . S
Zn131 O134 2.028 . S
Zn131 O137 2.035 . S
O132 Zn131 2.028 . S
O132 C138 1.247 . S
O133 Zn129 2.035 . S
O133 C138 1.258 . S
O134 C127 1.247 . S
O134 Zn131 2.028 . S
O135 C127 1.258 . S
O135 Zn129 2.035 . S
O136 Zn129 2.028 . S
O136 C139 1.247 . S
O137 Zn131 2.035 . S
O137 C139 1.258 . S
C138 O132 1.247 . S
C138 O133 1.258 . S
C139 O136 1.247 . S
C139 O137 1.258 . S
C140 O142 1.247 . S
C140 O144 1.258 . S
C141 O148 1.247 . S
C141 O149 1.258 . S
O142 C140 1.247 . S
O142 Zn143 2.028 . S
Zn143 O142 2.028 . S
Zn143 O147 2.035 . S
Zn143 O149 2.035 . S
Zn143 O150 2.028 . S
O144 C140 1.258 . S
O144 Zn145 2.035 . S
Zn145 O144 2.035 . S
Zn145 O146 2.028 . S
Zn145 O148 2.028 . S
Zn145 O151 2.035 . S
O146 Zn145 2.028 . S
O146 C152 1.247 . S
O147 Zn143 2.035 . S
O147 C152 1.258 . S
O148 C141 1.247 . S
O148 Zn145 2.028 . S
O149 C141 1.258 . S
O149 Zn143 2.035 . S
O150 Zn143 2.028 . S
O150 C153 1.247 . S
O151 Zn145 2.035 . S
O151 C153 1.258 . S
C152 O146 1.247 . S
C152 O147 1.258 . S
C153 O150 1.247 . S
C153 O151 1.258 . S
C154 O156 1.247 . S
C154 O158 1.258 1_455 S
C155 O162 1.247 . S
C155 O163 1.258 1_655 S
O156 C154 1.247 . S
O156 Zn157 2.028 . S
Zn157 O156 2.028 . S
Zn157 O161 2.035 . S
Zn157 O163 2.035 . S
Zn157 O164 2.028 . S
O158 C154 1.258 1_655 S
O158 Zn159 2.035 . S
Zn159 O158 2.035 . S
Zn159 O160 2.028 . S
Zn159 O162 2.028 . S
Zn159 O165 2.035 . S
O160 Zn159 2.028 . S
O160 C166 1.219 1_655 S
O161 Zn157 2.035 . S
O161 C166 1.287 . S
O162 C155 1.247 . S
O162 Zn159 2.028 . S
O163 C155 1.258 1_455 S
O163 Zn157 2.035 . S
O164 Zn157 2.028 . S
O164 C167 1.211 1_455 S
O165 Zn159 2.035 . S
O165 C167 1.295 . S
C166 O160 1.219 1_455 S
C166 O161 1.287 . S
C167 O164 1.211 1_655 S
C167 O165 1.295 . S
C168 O170 1.247 . S
C168 O172 1.258 1_545 S
C169 O176 1.283 . S
C169 O177 1.223 1_565 S
O170 C168 1.247 . S
O170 Zn171 2.028 . S
Zn171 O170 2.028 . S
Zn171 O175 2.035 . S
Zn171 O177 2.035 . S
Zn171 O178 2.028 . S
O172 C168 1.258 1_565 S
O172 Zn173 2.035 . S
Zn173 O172 2.035 . S
Zn173 O174 2.028 . S
Zn173 O176 2.028 . S
Zn173 O179 2.035 . S
O174 Zn173 2.028 . S
O174 C180 1.247 1_565 S
O175 Zn171 2.035 . S
O175 C180 1.258 . S
O176 C169 1.283 . S
O176 Zn173 2.028 . S
O177 C169 1.223 1_545 S
O177 Zn171 2.035 . S
O178 Zn171 2.028 . S
O178 C181 1.247 1_545 S
O179 Zn173 2.035 . S
O179 C181 1.258 . S
C180 O174 1.247 1_545 S
C180 O175 1.258 . S
C181 O178 1.247 1_565 S
C181 O179 1.258 . S
C182 O184 1.247 . S
C182 O186 1.258 . S
C183 O190 1.247 . S
C183 O191 1.258 . S
O184 C182 1.247 . S
O184 Zn185 2.028 . S
Zn185 O184 2.028 . S
Zn185 O189 2.035 . S
Zn185 O191 2.035 . S
Zn185 O192 2.028 . S
O186 C182 1.258 . S
O186 Zn187 2.035 . S
Zn187 O186 2.035 . S
Zn187 O188 2.028 . S
Zn187 O190 2.028 . S
Zn187 O193 2.035 . S
O188 Zn187 2.028 . S
O188 C194 1.247 . S
O189 Zn185 2.035 . S
O189 C194 1.258 . S
O190 C183 1.247 . S
O190 Zn187 2.028 . S
O191 C183 1.258 . S
O191 Zn185 2.035 . S
O192 Zn185 2.028 . S
O192 C195 1.247 . S
O193 Zn187 2.035 . S
O193 C195 1.258 . S
C194 O188 1.247 . S
C194 O189 1.258 . S
C195 O192 1.247 . S
C195 O193 1.258 . S
C196 O198 1.247 . S
C196 O200 1.258 . S
C197 O204 1.247 . S
C197 O205 1.258 . S
O198 C196 1.247 . S
O198 Zn199 2.028 . S
Zn199 O198 2.028 . S
Zn199 O203 2.035 . S
Zn199 O205 2.035 . S
Zn199 O206 2.028 . S
O200 C196 1.258 . S
O200 Zn201 2.035 . S
Zn201 O200 2.035 . S
Zn201 O202 2.028 . S
Zn201 O204 2.028 . S
Zn201 O207 2.035 . S
O202 Zn201 2.028 . S
O202 C208 1.247 . S
O203 Zn199 2.035 . S
O203 C208 1.258 . S
O204 C197 1.247 . S
O204 Zn201 2.028 . S
O205 C197 1.258 . S
O205 Zn199 2.035 . S
O206 Zn199 2.028 . S
O206 C209 1.247 . S
O207 Zn201 2.035 . S
O207 C209 1.258 . S
C208 O202 1.247 . S
C208 O203 1.258 . S
C209 O206 1.247 . S
C209 O207 1.258 . S
C210 O212 1.247 . S
C210 O214 1.258 1_655 S
C211 O218 1.247 . S
C211 O219 1.258 1_455 S
O212 C210 1.247 . S
O212 Zn213 2.028 . S
Zn213 O212 2.028 . S
Zn213 O217 2.035 . S
Zn213 O219 2.035 . S
Zn213 O220 2.028 . S
O214 C210 1.258 1_455 S
O214 Zn215 2.035 . S
Zn215 O214 2.035 . S
Zn215 O216 2.028 . S
Zn215 O218 2.028 . S
Zn215 O221 2.035 . S
O216 Zn215 2.028 . S
O216 C222 1.247 1_455 S
O217 Zn213 2.035 . S
O217 C222 1.258 . S
O218 C211 1.247 . S
O218 Zn215 2.028 . S
O219 C211 1.258 1_655 S
O219 Zn213 2.035 . S
O220 Zn213 2.028 . S
O220 C223 1.247 1_655 S
O221 Zn215 2.035 . S
O221 C223 1.258 . S
C222 O216 1.247 1_655 S
C222 O217 1.258 . S
C223 O220 1.247 1_455 S
C223 O221 1.258 . S
H224 C236 0.930 . S
H225 C238 0.930 . S
H226 C239 0.930 . S
H227 C243 0.959 . S
H228 C243 0.959 . S
H229 C243 0.961 . S
H230 C244 0.960 . S
H231 C244 0.961 1_565 S
H232 C244 0.959 . S
H233 C247 0.929 . S
H234 C248 0.931 . S
H235 C250 0.930 . S
C236 H224 0.930 . S
C236 C237 1.399 . S
C236 C241 1.399 . S
C237 C236 1.399 . S
C237 C238 1.376 . S
C238 H225 0.930 . S
C238 C237 1.376 . S
C238 C239 1.388 . S
C239 H226 0.930 . S
C239 C238 1.388 . S
C239 C240 1.390 . S
C240 C239 1.390 . S
C240 C241 1.394 . S
C240 C246 1.465 . S
C241 C236 1.399 . S
C241 C240 1.394 . S
C241 C242 1.516 . S
C242 C241 1.516 . S
C242 C243 1.502 . S
C242 C244 1.561 . S
C242 C245 1.526 . S
C243 H227 0.959 . S
C243 H228 0.959 . S
C243 H229 0.961 . S
C243 C242 1.502 . S
C244 H230 0.960 . S
C244 H231 0.961 1_545 S
C244 H232 0.959 . S
C244 C242 1.561 . S
C245 C242 1.526 . S
C245 C246 1.396 . S
C245 C250 1.390 . S
C246 C240 1.465 . S
C246 C245 1.396 . S
C246 C247 1.399 . S
C247 H233 0.929 . S
C247 C246 1.399 . S
C247 C248 1.385 . S
C248 H234 0.931 . S
C248 C247 1.385 . S
C248 C249 1.389 . S
C249 C248 1.389 . S
C249 C250 1.387 . S
C250 H235 0.930 . S
C250 C245 1.390 . S
C250 C249 1.387 . S
H251 C263 0.930 . S
H252 C265 0.930 . S
H253 C266 0.930 . S
H254 C270 0.959 . S
H255 C270 0.959 . S
H256 C270 0.961 . S
H257 C271 0.960 . S
H258 C271 0.961 . S
H259 C271 0.959 . S
H260 C274 0.929 . S
H261 C275 0.931 . S
H262 C277 0.930 . S
C263 H251 0.930 . S
C263 C264 1.399 . S
C263 C268 1.399 . S
C264 C263 1.399 . S
C264 C265 1.376 . S
C265 H252 0.930 . S
C265 C264 1.376 . S
C265 C266 1.388 . S
C266 H253 0.930 . S
C266 C265 1.388 . S
C266 C267 1.390 . S
C267 C266 1.390 . S
C267 C268 1.394 . S
C267 C273 1.465 . S
C268 C263 1.399 . S
C268 C267 1.394 . S
C268 C269 1.516 . S
C269 C268 1.516 . S
C269 C270 1.502 . S
C269 C271 1.561 . S
C269 C272 1.526 . S
C270 H254 0.959 . S
C270 H255 0.959 . S
C270 H256 0.961 . S
C270 C269 1.502 . S
C271 H257 0.960 . S
C271 H258 0.961 . S
C271 H259 0.959 . S
C271 C269 1.561 . S
C272 C269 1.526 . S
C272 C273 1.396 . S
C272 C277 1.390 . S
C273 C267 1.465 . S
C273 C272 1.396 . S
C273 C274 1.399 . S
C274 H260 0.929 . S
C274 C273 1.399 . S
C274 C275 1.385 . S
C275 H261 0.931 . S
C275 C274 1.385 . S
C275 C276 1.389 . S
C276 C275 1.389 . S
C276 C277 1.387 . S
C277 H262 0.930 . S
C277 C272 1.390 . S
C277 C276 1.387 . S
H278 C290 0.930 . S
H279 C292 0.930 . S
H280 C293 0.930 . S
H281 C297 0.959 . S
H282 C297 0.959 . S
H283 C297 0.961 . S
H284 C298 0.960 . S
H285 C298 0.961 . S
H286 C298 0.959 . S
H287 C301 0.929 . S
H288 C302 0.931 . S
H289 C304 0.930 . S
C290 H278 0.930 . S
C290 C291 1.399 . S
C290 C295 1.399 . S
C291 C290 1.399 . S
C291 C292 1.376 . S
C292 H279 0.930 . S
C292 C291 1.376 . S
C292 C293 1.388 . S
C293 H280 0.930 . S
C293 C292 1.388 . S
C293 C294 1.390 . S
C294 C293 1.390 . S
C294 C295 1.394 . S
C294 C300 1.465 . S
C295 C290 1.399 . S
C295 C294 1.394 . S
C295 C296 1.516 . S
C296 C295 1.516 . S
C296 C297 1.502 . S
C296 C298 1.561 . S
C296 C299 1.526 . S
C297 H281 0.959 . S
C297 H282 0.959 . S
C297 H283 0.961 . S
C297 C296 1.502 . S
C298 H284 0.960 . S
C298 H285 0.961 . S
C298 H286 0.959 . S
C298 C296 1.561 . S
C299 C296 1.526 . S
C299 C300 1.396 . S
C299 C304 1.390 . S
C300 C294 1.465 . S
C300 C299 1.396 . S
C300 C301 1.399 . S
C301 H287 0.929 . S
C301 C300 1.399 . S
C301 C302 1.385 . S
C302 H288 0.931 . S
C302 C301 1.385 . S
C302 C303 1.389 . S
C303 C302 1.389 . S
C303 C304 1.387 . S
C304 H289 0.930 . S
C304 C299 1.390 . S
C304 C303 1.387 . S
H305 C317 0.930 . S
H306 C319 0.902 1_655 S
H307 C320 0.930 . S
H308 C324 0.959 . S
H309 C324 0.959 . S
H310 C324 0.961 . S
H311 C325 0.960 . S
H312 C325 0.961 . S
H313 C325 0.959 . S
H314 C328 0.929 . S
H315 C329 0.931 1_545 S
H316 C331 0.930 . S
C317 H305 0.930 . S
C317 C318 1.399 . S
C317 C322 1.399 . S
C318 C317 1.399 . S
C318 C319 1.391 . S
C319 H306 0.902 1_455 S
C319 C318 1.391 . S
C319 C320 1.403 . S
C320 H307 0.930 . S
C320 C319 1.403 . S
C320 C321 1.390 . S
C321 C320 1.390 . S
C321 C322 1.394 . S
C321 C327 1.465 . S
C322 C317 1.399 . S
C322 C321 1.394 . S
C322 C323 1.516 . S
C323 C322 1.516 . S
C323 C324 1.502 . S
C323 C325 1.561 . S
C323 C326 1.526 . S
C324 H308 0.959 . S
C324 H309 0.959 . S
C324 H310 0.961 . S
C324 C323 1.502 . S
C325 H311 0.960 . S
C325 H312 0.961 . S
C325 H313 0.959 . S
C325 C323 1.561 . S
C326 C323 1.526 . S
C326 C327 1.396 . S
C326 C331 1.390 . S
C327 C321 1.465 . S
C327 C326 1.396 . S
C327 C328 1.399 . S
C328 H314 0.929 . S
C328 C327 1.399 . S
C328 C329 1.385 . S
C329 H315 0.931 1_565 S
C329 C328 1.385 . S
C329 C330 1.389 . S
C330 C329 1.389 . S
C330 C331 1.387 . S
C331 H316 0.930 . S
C331 C326 1.390 . S
C331 C330 1.387 . S
H332 C344 0.930 1_545 S
H333 C346 0.930 . S
H334 C347 0.930 . S
H335 C351 0.959 . S
H336 C351 0.959 . S
H337 C351 0.961 1_545 S
H338 C352 0.960 . S
H339 C352 0.961 . S
H340 C352 0.959 . S
H341 C355 0.929 . S
H342 C356 0.931 . S
H343 C358 0.930 . S
C344 H332 0.930 1_565 S
C344 C345 1.399 . S
C344 C349 1.399 . S
C345 C344 1.399 . S
C345 C346 1.376 . S
C346 H333 0.930 . S
C346 C345 1.376 . S
C346 C347 1.388 . S
C347 H334 0.930 . S
C347 C346 1.388 . S
C347 C348 1.390 . S
C348 C347 1.390 . S
C348 C349 1.394 . S
C348 C354 1.465 . S
C349 C344 1.399 . S
C349 C348 1.394 . S
C349 C350 1.516 . S
C350 C349 1.516 . S
C350 C351 1.502 . S
C350 C352 1.561 . S
C350 C353 1.526 . S
C351 H335 0.959 . S
C351 H336 0.959 . S
C351 H337 0.961 1_565 S
C351 C350 1.502 . S
C352 H338 0.960 . S
C352 H339 0.961 . S
C352 H340 0.959 . S
C352 C350 1.561 . S
C353 C350 1.526 . S
C353 C354 1.396 . S
C353 C358 1.390 . S
C354 C348 1.465 . S
C354 C353 1.396 . S
C354 C355 1.399 . S
C355 H341 0.929 . S
C355 C354 1.399 . S
C355 C356 1.385 . S
C356 H342 0.931 . S
C356 C355 1.385 . S
C356 C357 1.389 . S
C357 C356 1.389 . S
C357 C358 1.387 . S
C358 H343 0.930 . S
C358 C353 1.390 . S
C358 C357 1.387 . S
H359 C371 0.930 . S
H360 C373 0.930 . S
H361 C374 0.930 . S
H362 C378 0.959 . S
H363 C378 0.959 . S
H364 C378 0.961 . S
H365 C379 0.960 . S
H366 C379 0.961 . S
H367 C379 0.959 . S
H368 C382 0.929 . S
H369 C383 0.931 . S
H370 C385 0.930 . S
C371 H359 0.930 . S
C371 C372 1.399 . S
C371 C376 1.399 . S
C372 C371 1.399 . S
C372 C373 1.376 . S
C373 H360 0.930 . S
C373 C372 1.376 . S
C373 C374 1.388 . S
C374 H361 0.930 . S
C374 C373 1.388 . S
C374 C375 1.390 . S
C375 C374 1.390 . S
C375 C376 1.394 . S
C375 C381 1.465 . S
C376 C371 1.399 . S
C376 C375 1.394 . S
C376 C377 1.516 . S
C377 C376 1.516 . S
C377 C378 1.502 . S
C377 C379 1.561 . S
C377 C380 1.526 . S
C378 H362 0.959 . S
C378 H363 0.959 . S
C378 H364 0.961 . S
C378 C377 1.502 . S
C379 H365 0.960 . S
C379 H366 0.961 . S
C379 H367 0.959 . S
C379 C377 1.561 . S
C380 C377 1.526 . S
C380 C381 1.396 . S
C380 C385 1.390 . S
C381 C375 1.465 . S
C381 C380 1.396 . S
C381 C382 1.399 . S
C382 H368 0.929 . S
C382 C381 1.399 . S
C382 C383 1.385 . S
C383 H369 0.931 . S
C383 C382 1.385 . S
C383 C384 1.389 . S
C384 C383 1.389 . S
C384 C385 1.387 . S
C385 H370 0.930 . S
C385 C380 1.390 . S
C385 C384 1.387 . S
H386 C398 0.930 . S
H387 C400 0.930 . S
H388 C401 0.930 . S
H389 C405 0.959 . S
H390 C405 0.959 . S
H391 C405 0.961 . S
H392 C406 0.960 . S
H393 C406 0.961 . S
H394 C406 0.959 . S
H395 C409 0.929 . S
H396 C410 0.931 . S
H397 C412 0.930 . S
C398 H386 0.930 . S
C398 C399 1.399 . S
C398 C403 1.399 . S
C399 C398 1.399 . S
C399 C400 1.376 . S
C400 H387 0.930 . S
C400 C399 1.376 . S
C400 C401 1.388 . S
C401 H388 0.930 . S
C401 C400 1.388 . S
C401 C402 1.390 . S
C402 C401 1.390 . S
C402 C403 1.394 . S
C402 C408 1.465 . S
C403 C398 1.399 . S
C403 C402 1.394 . S
C403 C404 1.516 . S
C404 C403 1.516 . S
C404 C405 1.502 . S
C404 C406 1.561 . S
C404 C407 1.526 . S
C405 H389 0.959 . S
C405 H390 0.959 . S
C405 H391 0.961 . S
C405 C404 1.502 . S
C406 H392 0.960 . S
C406 H393 0.961 . S
C406 H394 0.959 . S
C406 C404 1.561 . S
C407 C404 1.526 . S
C407 C408 1.396 . S
C407 C412 1.390 . S
C408 C402 1.465 . S
C408 C407 1.396 . S
C408 C409 1.399 . S
C409 H395 0.929 . S
C409 C408 1.399 . S
C409 C410 1.385 . S
C410 H396 0.931 . S
C410 C409 1.385 . S
C410 C411 1.389 . S
C411 C410 1.389 . S
C411 C412 1.387 . S
C412 H397 0.930 . S
C412 C407 1.390 . S
C412 C411 1.387 . S
H413 C425 0.930 . S
H414 C427 0.930 1_455 S
H415 C428 0.930 . S
H416 C432 0.959 . S
H417 C432 0.959 . S
H418 C432 0.961 . S
H419 C433 0.960 . S
H420 C433 0.961 . S
H421 C433 0.959 . S
H422 C436 0.929 . S
H423 C437 0.931 . S
H424 C439 0.930 . S
C425 H413 0.930 . S
C425 C426 1.399 . S
C425 C430 1.399 . S
C426 C425 1.399 . S
C426 C427 1.376 . S
C427 H414 0.930 1_655 S
C427 C426 1.376 . S
C427 C428 1.388 . S
C428 H415 0.930 . S
C428 C427 1.388 . S
C428 C429 1.390 . S
C429 C428 1.390 . S
C429 C430 1.394 . S
C429 C435 1.465 . S
C430 C425 1.399 . S
C430 C429 1.394 . S
C430 C431 1.516 . S
C431 C430 1.516 . S
C431 C432 1.502 . S
C431 C433 1.561 . S
C431 C434 1.526 . S
C432 H416 0.959 . S
C432 H417 0.959 . S
C432 H418 0.961 . S
C432 C431 1.502 . S
C433 H419 0.960 . S
C433 H420 0.961 . S
C433 H421 0.959 . S
C433 C431 1.561 . S
C434 C431 1.526 . S
C434 C435 1.396 . S
C434 C439 1.390 . S
C435 C429 1.465 . S
C435 C434 1.396 . S
C435 C436 1.399 . S
C436 H422 0.929 . S
C436 C435 1.399 . S
C436 C437 1.385 . S
C437 H423 0.931 . S
C437 C436 1.385 . S
C437 C438 1.389 . S
C438 C437 1.389 . S
C438 C439 1.387 . S
C439 H424 0.930 . S
C439 C434 1.390 . S
C439 C438 1.387 . S
H440 C452 0.930 . S
H441 C454 0.930 . S
H442 C455 0.930 . S
H443 C459 0.959 . S
H444 C459 0.959 . S
H445 C459 0.961 . S
H446 C460 0.960 . S
H447 C460 0.961 . S
H448 C460 0.959 . S
H449 C463 0.929 . S
H450 C464 0.931 . S
H451 C466 0.930 . S
C452 H440 0.930 . S
C452 C453 1.399 . S
C452 C457 1.399 . S
C453 C452 1.399 . S
C453 C454 1.376 1_565 S
C454 H441 0.930 . S
C454 C453 1.376 1_545 S
C454 C455 1.388 . S
C455 H442 0.930 . S
C455 C454 1.388 . S
C455 C456 1.382 1_545 S
C456 C455 1.382 1_565 S
C456 C457 1.405 . S
C456 C462 1.464 1_565 S
C457 C452 1.399 . S
C457 C456 1.405 . S
C457 C458 1.516 . S
C458 C457 1.516 . S
C458 C459 1.502 . S
C458 C460 1.561 . S
C458 C461 1.526 . S
C459 H443 0.959 . S
C459 H444 0.959 . S
C459 H445 0.961 . S
C459 C458 1.502 . S
C460 H446 0.960 . S
C460 H447 0.961 . S
C460 H448 0.959 . S
C460 C458 1.561 . S
C461 C458 1.526 . S
C461 C462 1.396 1_565 S
C461 C466 1.390 . S
C462 C456 1.464 1_545 S
C462 C461 1.396 1_545 S
C462 C463 1.399 . S
C463 H449 0.929 . S
C463 C462 1.399 . S
C463 C464 1.385 . S
C464 H450 0.931 . S
C464 C463 1.385 . S
C464 C465 1.408 . S
C465 C464 1.408 . S
C465 C466 1.369 1_545 S
C466 H451 0.930 . S
C466 C461 1.390 . S
C466 C465 1.369 1_565 S
H467 C479 0.930 . S
H468 C481 0.930 . S
H469 C482 0.930 . S
H470 C486 0.959 . S
H471 C486 0.959 . S
H472 C486 0.961 . S
H473 C487 0.960 . S
H474 C487 0.961 . S
H475 C487 0.959 . S
H476 C490 0.929 . S
H477 C491 0.931 . S
H478 C493 0.930 . S
C479 H467 0.930 . S
C479 C480 1.399 . S
C479 C484 1.399 . S
C480 C479 1.399 . S
C480 C481 1.376 . S
C481 H468 0.930 . S
C481 C480 1.376 . S
C481 C482 1.388 . S
C482 H469 0.930 . S
C482 C481 1.388 . S
C482 C483 1.390 . S
C483 C482 1.390 . S
C483 C484 1.394 . S
C483 C489 1.465 . S
C484 C479 1.399 . S
C484 C483 1.394 . S
C484 C485 1.516 . S
C485 C484 1.516 . S
C485 C486 1.502 . S
C485 C487 1.561 . S
C485 C488 1.526 . S
C486 H470 0.959 . S
C486 H471 0.959 . S
C486 H472 0.961 . S
C486 C485 1.502 . S
C487 H473 0.960 . S
C487 H474 0.961 . S
C487 H475 0.959 . S
C487 C485 1.561 . S
C488 C485 1.526 . S
C488 C489 1.396 . S
C488 C493 1.390 . S
C489 C483 1.465 . S
C489 C488 1.396 . S
C489 C490 1.399 . S
C490 H476 0.929 . S
C490 C489 1.399 . S
C490 C491 1.385 . S
C491 H477 0.931 . S
C491 C490 1.385 . S
C491 C492 1.389 . S
C492 C491 1.389 . S
C492 C493 1.387 . S
C493 H478 0.930 . S
C493 C488 1.390 . S
C493 C492 1.387 . S
H494 C506 0.930 . S
H495 C508 0.930 . S
H496 C509 0.930 . S
H497 C513 0.959 . S
H498 C513 0.959 . S
H499 C513 0.961 . S
H500 C514 0.960 . S
H501 C514 0.961 . S
H502 C514 0.959 . S
H503 C517 0.929 . S
H504 C518 0.931 . S
H505 C520 0.930 . S
C506 H494 0.930 . S
C506 C507 1.399 . S
C506 C511 1.399 . S
C507 C506 1.399 . S
C507 C508 1.376 . S
C508 H495 0.930 . S
C508 C507 1.376 . S
C508 C509 1.388 . S
C509 H496 0.930 . S
C509 C508 1.388 . S
C509 C510 1.390 . S
C510 C509 1.390 . S
C510 C511 1.394 . S
C510 C516 1.465 . S
C511 C506 1.399 . S
C511 C510 1.394 . S
C511 C512 1.516 . S
C512 C511 1.516 . S
C512 C513 1.502 . S
C512 C514 1.561 . S
C512 C515 1.526 . S
C513 H497 0.959 . S
C513 H498 0.959 . S
C513 H499 0.961 . S
C513 C512 1.502 . S
C514 H500 0.960 . S
C514 H501 0.961 . S
C514 H502 0.959 . S
C514 C512 1.561 . S
C515 C512 1.526 . S
C515 C516 1.396 . S
C515 C520 1.390 . S
C516 C510 1.465 . S
C516 C515 1.396 . S
C516 C517 1.399 . S
C517 H503 0.929 . S
C517 C516 1.399 . S
C517 C518 1.385 . S
C518 H504 0.931 . S
C518 C517 1.385 . S
C518 C519 1.389 . S
C519 C518 1.389 . S
C519 C520 1.387 . S
C520 H505 0.930 . S
C520 C515 1.390 . S
C520 C519 1.387 . S
H521 C533 0.930 . S
H522 C535 0.930 1_454 S
H523 C536 0.930 . S
H524 C540 0.959 . S
H525 C540 0.959 . S
H526 C540 0.961 . S
H527 C541 0.960 1_655 S
H528 C541 0.961 1_655 S
H529 C541 0.959 . S
H530 C544 0.929 . S
H531 C545 0.931 . S
H532 C547 0.930 . S
C533 H521 0.930 . S
C533 C534 1.399 . S
C533 C538 1.399 . S
C534 C533 1.399 . S
C534 C535 1.376 . S
C535 H522 0.930 1_656 S
C535 C534 1.376 . S
C535 C536 1.388 1_655 S
C536 H523 0.930 . S
C536 C535 1.388 1_455 S
C536 C537 1.390 1_455 S
C537 C536 1.390 1_655 S
C537 C538 1.394 . S
C537 C543 1.466 . S
C538 C533 1.399 . S
C538 C537 1.394 . S
C538 C539 1.516 . S
C539 C538 1.516 . S
C539 C540 1.502 . S
C539 C541 1.561 1_655 S
C539 C542 1.526 . S
C540 H524 0.959 . S
C540 H525 0.959 . S
C540 H526 0.961 . S
C540 C539 1.502 . S
C541 H527 0.960 1_455 S
C541 H528 0.961 1_455 S
C541 H529 0.959 . S
C541 C539 1.561 1_455 S
C542 C539 1.526 . S
C542 C543 1.399 . S
C542 C547 1.390 . S
C543 C537 1.466 . S
C543 C542 1.399 . S
C543 C544 1.396 1_655 S
C544 H530 0.929 . S
C544 C543 1.396 1_455 S
C544 C545 1.385 . S
C545 H531 0.931 . S
C545 C544 1.385 . S
C545 C546 1.389 1_455 S
C546 C545 1.389 1_655 S
C546 C547 1.387 . S
C547 H532 0.930 . S
C547 C542 1.390 . S
C547 C546 1.387 . S
H548 C560 0.930 . S
H549 C562 0.930 . S
H550 C563 0.930 . S
H551 C567 0.959 . S
H552 C567 0.959 . S
H553 C567 0.961 . S
H554 C568 0.960 . S
H555 C568 0.961 . S
H556 C568 0.959 . S
H557 C571 0.929 . S
H558 C572 0.931 . S
H559 C574 0.930 . S
C560 H548 0.930 . S
C560 C561 1.399 1_565 S
C560 C565 1.403 . S
C561 C560 1.399 1_545 S
C561 C562 1.376 . S
C562 H549 0.930 . S
C562 C561 1.376 . S
C562 C563 1.388 . S
C563 H550 0.930 . S
C563 C562 1.388 . S
C563 C564 1.390 . S
C564 C563 1.390 . S
C564 C565 1.362 1_545 S
C564 C570 1.465 . S
C565 C560 1.403 . S
C565 C564 1.362 1_565 S
C565 C566 1.541 . S
C566 C565 1.541 . S
C566 C567 1.502 . S
C566 C568 1.561 . S
C566 C569 1.526 . S
C567 H551 0.959 . S
C567 H552 0.959 . S
C567 H553 0.961 . S
C567 C566 1.502 . S
C568 H554 0.960 . S
C568 H555 0.961 . S
C568 H556 0.959 . S
C568 C566 1.561 . S
C569 C566 1.526 . S
C569 C570 1.396 1_565 S
C569 C574 1.390 . S
C570 C564 1.465 . S
C570 C569 1.396 1_545 S
C570 C571 1.399 . S
C571 H557 0.929 . S
C571 C570 1.399 . S
C571 C572 1.385 . S
C572 H558 0.931 . S
C572 C571 1.385 . S
C572 C573 1.389 . S
C573 C572 1.389 . S
C573 C574 1.387 1_545 S
C574 H559 0.930 . S
C574 C569 1.390 . S
C574 C573 1.387 1_565 S
H575 C587 0.930 . S
H576 C589 0.930 . S
H577 C590 0.930 . S
H578 C594 0.959 . S
H579 C594 0.959 . S
H580 C594 0.961 . S
H581 C595 0.960 . S
H582 C595 0.961 . S
H583 C595 0.959 . S
H584 C598 0.929 . S
H585 C599 0.931 . S
H586 C601 0.930 . S
C587 H575 0.930 . S
C587 C588 1.399 . S
C587 C592 1.399 . S
C588 C587 1.399 . S
C588 C589 1.376 . S
C589 H576 0.930 . S
C589 C588 1.376 . S
C589 C590 1.388 . S
C590 H577 0.930 . S
C590 C589 1.388 . S
C590 C591 1.390 . S
C591 C590 1.390 . S
C591 C592 1.394 . S
C591 C597 1.465 . S
C592 C587 1.399 . S
C592 C591 1.394 . S
C592 C593 1.516 . S
C593 C592 1.516 . S
C593 C594 1.502 . S
C593 C595 1.561 . S
C593 C596 1.526 . S
C594 H578 0.959 . S
C594 H579 0.959 . S
C594 H580 0.961 . S
C594 C593 1.502 . S
C595 H581 0.960 . S
C595 H582 0.961 . S
C595 H583 0.959 . S
C595 C593 1.561 . S
C596 C593 1.526 . S
C596 C597 1.396 . S
C596 C601 1.390 . S
C597 C591 1.465 . S
C597 C596 1.396 . S
C597 C598 1.399 . S
C598 H584 0.929 . S
C598 C597 1.399 . S
C598 C599 1.385 . S
C599 H585 0.931 . S
C599 C598 1.385 . S
C599 C600 1.389 . S
C600 C599 1.389 . S
C600 C601 1.387 . S
C601 H586 0.930 . S
C601 C596 1.390 . S
C601 C600 1.387 . S
H602 C614 0.930 . S
H603 C616 0.930 . S
H604 C617 0.930 . S
H605 C621 0.959 . S
H606 C621 0.959 . S
H607 C621 0.961 . S
H608 C622 0.960 . S
H609 C622 0.961 . S
H610 C622 0.959 . S
H611 C625 0.929 . S
H612 C626 0.931 . S
H613 C628 0.930 . S
C614 H602 0.930 . S
C614 C615 1.399 . S
C614 C619 1.399 . S
C615 C614 1.399 . S
C615 C616 1.376 . S
C616 H603 0.930 . S
C616 C615 1.376 . S
C616 C617 1.388 . S
C617 H604 0.930 . S
C617 C616 1.388 . S
C617 C618 1.390 . S
C618 C617 1.390 . S
C618 C619 1.394 . S
C618 C624 1.465 . S
C619 C614 1.399 . S
C619 C618 1.394 . S
C619 C620 1.516 . S
C620 C619 1.516 . S
C620 C621 1.502 . S
C620 C622 1.561 . S
C620 C623 1.526 . S
C621 H605 0.959 . S
C621 H606 0.959 . S
C621 H607 0.961 . S
C621 C620 1.502 . S
C622 H608 0.960 . S
C622 H609 0.961 . S
C622 H610 0.959 . S
C622 C620 1.561 . S
C623 C620 1.526 . S
C623 C624 1.396 . S
C623 C628 1.390 . S
C624 C618 1.465 . S
C624 C623 1.396 . S
C624 C625 1.399 . S
C625 H611 0.929 . S
C625 C624 1.399 . S
C625 C626 1.385 . S
C626 H612 0.931 . S
C626 C625 1.385 . S
C626 C627 1.389 . S
C627 C626 1.389 . S
C627 C628 1.387 . S
C628 H613 0.930 . S
C628 C623 1.390 . S
C628 C627 1.387 . S
H629 C641 0.930 . S
H630 C643 0.930 . S
H631 C644 0.930 . S
H632 C648 0.959 . S
H633 C648 0.959 . S
H634 C648 0.961 . S
H635 C649 0.960 . S
H636 C649 0.961 . S
H637 C649 0.959 . S
H638 C652 0.929 . S
H639 C653 0.931 . S
H640 C655 0.929 1_655 S
C641 H629 0.930 . S
C641 C642 1.399 . S
C641 C646 1.399 . S
C642 C641 1.399 . S
C642 C643 1.376 . S
C643 H630 0.930 . S
C643 C642 1.376 . S
C643 C644 1.388 . S
C644 H631 0.930 . S
C644 C643 1.388 . S
C644 C645 1.390 . S
C645 C644 1.390 . S
C645 C646 1.394 . S
C645 C651 1.465 . S
C646 C641 1.399 . S
C646 C645 1.394 . S
C646 C647 1.516 . S
C647 C646 1.516 . S
C647 C648 1.502 . S
C647 C649 1.561 1_455 S
C647 C650 1.526 . S
C648 H632 0.959 . S
C648 H633 0.959 . S
C648 H634 0.961 . S
C648 C647 1.502 . S
C649 H635 0.960 . S
C649 H636 0.961 . S
C649 H637 0.959 . S
C649 C647 1.561 1_655 S
C650 C647 1.526 . S
C650 C651 1.396 . S
C650 C655 1.390 . S
C651 C645 1.465 . S
C651 C650 1.396 . S
C651 C652 1.399 . S
C652 H638 0.929 . S
C652 C651 1.399 . S
C652 C653 1.385 . S
C653 H639 0.931 . S
C653 C652 1.385 . S
C653 C654 1.389 . S
C654 C653 1.389 . S
C654 C655 1.387 . S
C655 H640 0.929 1_455 S
C655 C650 1.390 . S
C655 C654 1.387 . S
H656 C668 0.930 . S
H657 C670 0.930 . S
H658 C671 0.930 . S
H659 C675 0.959 . S
H660 C675 0.959 . S
H661 C675 0.961 . S
H662 C676 0.960 . S
H663 C676 0.961 . S
H664 C676 0.959 . S
H665 C679 0.929 . S
H666 C680 0.931 . S
H667 C682 0.930 . S
C668 H656 0.930 . S
C668 C669 1.399 1_565 S
C668 C673 1.399 . S
C669 C668 1.399 1_545 S
C669 C670 1.376 . S
C670 H657 0.930 . S
C670 C669 1.376 . S
C670 C671 1.388 . S
C671 H658 0.930 . S
C671 C670 1.388 . S
C671 C672 1.390 . S
C672 C671 1.390 . S
C672 C673 1.394 1_545 S
C672 C678 1.465 . S
C673 C668 1.399 . S
C673 C672 1.394 1_565 S
C673 C674 1.516 . S
C674 C673 1.516 . S
C674 C675 1.502 . S
C674 C676 1.561 . S
C674 C677 1.556 . S
C675 H659 0.959 . S
C675 H660 0.959 . S
C675 H661 0.961 . S
C675 C674 1.502 . S
C676 H662 0.960 . S
C676 H663 0.961 . S
C676 H664 0.959 . S
C676 C674 1.561 . S
C677 C674 1.556 . S
C677 C678 1.357 1_565 S
C677 C682 1.394 . S
C678 C672 1.465 . S
C678 C677 1.357 1_545 S
C678 C679 1.399 . S
C679 H665 0.929 . S
C679 C678 1.399 . S
C679 C680 1.385 . S
C680 H666 0.931 . S
C680 C679 1.385 . S
C680 C681 1.389 . S
C681 C680 1.389 . S
C681 C682 1.387 1_545 S
C682 H667 0.930 . S
C682 C677 1.394 . S
C682 C681 1.387 1_565 S
H683 C695 0.930 . S
H684 C697 0.930 . S
H685 C698 0.930 . S
H686 C702 0.959 . S
H687 C702 0.959 . S
H688 C702 0.961 . S
H689 C703 0.960 . S
H690 C703 0.961 . S
H691 C703 0.959 . S
H692 C706 0.929 . S
H693 C707 0.931 1_556 S
H694 C709 0.930 . S
C695 H683 0.930 . S
C695 C696 1.399 . S
C695 C700 1.399 . S
C696 C695 1.399 . S
C696 C697 1.376 . S
C697 H684 0.930 . S
C697 C696 1.376 . S
C697 C698 1.388 . S
C698 H685 0.930 . S
C698 C697 1.388 . S
C698 C699 1.390 . S
C699 C698 1.390 . S
C699 C700 1.394 . S
C699 C705 1.465 . S
C700 C695 1.399 . S
C700 C699 1.394 . S
C700 C701 1.516 . S
C701 C700 1.516 . S
C701 C702 1.502 . S
C701 C703 1.561 . S
C701 C704 1.526 . S
C702 H686 0.959 . S
C702 H687 0.959 . S
C702 H688 0.961 . S
C702 C701 1.502 . S
C703 H689 0.960 . S
C703 H690 0.961 . S
C703 H691 0.959 . S
C703 C701 1.561 . S
C704 C701 1.526 . S
C704 C705 1.396 . S
C704 C709 1.390 . S
C705 C699 1.465 . S
C705 C704 1.396 . S
C705 C706 1.399 . S
C706 H692 0.929 . S
C706 C705 1.399 . S
C706 C707 1.385 . S
C707 H693 0.931 1_554 S
C707 C706 1.385 . S
C707 C708 1.389 . S
C708 C707 1.389 . S
C708 C709 1.387 . S
C709 H694 0.930 . S
C709 C704 1.390 . S
C709 C708 1.387 . S
H710 C722 0.930 . S
H711 C724 0.930 . S
H712 C725 0.930 . S
H713 C729 0.959 . S
H714 C729 0.959 . S
H715 C729 0.961 . S
H716 C730 0.960 . S
H717 C730 0.961 . S
H718 C730 0.959 . S
H719 C733 0.929 . S
H720 C734 0.931 . S
H721 C736 0.930 . S
C722 H710 0.930 . S
C722 C723 1.399 . S
C722 C727 1.399 . S
C723 C722 1.399 . S
C723 C724 1.376 . S
C724 H711 0.930 . S
C724 C723 1.376 . S
C724 C725 1.388 . S
C725 H712 0.930 . S
C725 C724 1.388 . S
C725 C726 1.390 . S
C726 C725 1.390 . S
C726 C727 1.394 . S
C726 C732 1.465 . S
C727 C722 1.399 . S
C727 C726 1.394 . S
C727 C728 1.516 . S
C728 C727 1.516 . S
C728 C729 1.502 . S
C728 C730 1.561 . S
C728 C731 1.526 . S
C729 H713 0.959 . S
C729 H714 0.959 . S
C729 H715 0.961 . S
C729 C728 1.502 . S
C730 H716 0.960 . S
C730 H717 0.961 . S
C730 H718 0.959 . S
C730 C728 1.561 . S
C731 C728 1.526 . S
C731 C732 1.396 . S
C731 C736 1.390 . S
C732 C726 1.465 . S
C732 C731 1.396 . S
C732 C733 1.399 . S
C733 H719 0.929 . S
C733 C732 1.399 . S
C733 C734 1.385 . S
C734 H720 0.931 . S
C734 C733 1.385 . S
C734 C735 1.389 . S
C735 C734 1.389 . S
C735 C736 1.387 . S
C736 H721 0.930 . S
C736 C731 1.390 . S
C736 C735 1.387 . S
H737 C749 0.930 . S
H738 C751 0.930 1_656 S
H739 C752 0.930 . S
H740 C756 0.959 . S
H741 C756 0.959 . S
H742 C756 0.961 . S
H743 C757 0.960 . S
H744 C757 0.961 . S
H745 C757 0.959 . S
H746 C760 0.929 . S
H747 C761 0.931 . S
H748 C763 0.930 . S
C749 H737 0.930 . S
C749 C750 1.399 . S
C749 C754 1.399 . S
C750 C749 1.399 . S
C750 C751 1.376 . S
C751 H738 0.930 1_454 S
C751 C750 1.376 . S
C751 C752 1.388 1_455 S
C752 H739 0.930 . S
C752 C751 1.388 1_655 S
C752 C753 1.390 1_655 S
C753 C752 1.390 1_455 S
C753 C754 1.394 . S
C753 C759 1.465 . S
C754 C749 1.399 . S
C754 C753 1.394 . S
C754 C755 1.516 . S
C755 C754 1.516 . S
C755 C756 1.502 . S
C755 C757 1.561 . S
C755 C758 1.526 . S
C756 H740 0.959 . S
C756 H741 0.959 . S
C756 H742 0.961 . S
C756 C755 1.502 . S
C757 H743 0.960 . S
C757 H744 0.961 . S
C757 H745 0.959 . S
C757 C755 1.561 . S
C758 C755 1.526 . S
C758 C759 1.396 . S
C758 C763 1.390 . S
C759 C753 1.465 . S
C759 C758 1.396 . S
C759 C760 1.399 1_455 S
C760 H746 0.929 . S
C760 C759 1.399 1_655 S
C760 C761 1.385 . S
C761 H747 0.931 . S
C761 C760 1.385 . S
C761 C762 1.384 1_655 S
C762 C761 1.384 1_455 S
C762 C763 1.393 . S
C763 H748 0.930 . S
C763 C758 1.390 . S
C763 C762 1.393 . S
H764 C776 0.930 . S
H765 C778 0.930 . S
H766 C779 0.930 . S
H767 C783 0.959 . S
H768 C783 0.959 . S
H769 C783 0.961 . S
H770 C784 0.960 . S
H771 C784 0.961 . S
H772 C784 0.959 . S
H773 C787 0.929 . S
H774 C788 0.931 . S
H775 C790 0.930 . S
C776 H764 0.930 . S
C776 C777 1.374 1_565 S
C776 C781 1.399 . S
C777 C776 1.374 1_545 S
C777 C778 1.405 . S
C778 H765 0.930 . S
C778 C777 1.405 . S
C778 C779 1.388 . S
C779 H766 0.930 . S
C779 C778 1.388 . S
C779 C780 1.390 . S
C780 C779 1.390 . S
C780 C781 1.394 1_545 S
C780 C786 1.465 . S
C781 C776 1.399 . S
C781 C780 1.394 1_565 S
C781 C782 1.516 . S
C782 C781 1.516 . S
C782 C783 1.502 . S
C782 C784 1.561 . S
C782 C785 1.526 . S
C783 H767 0.959 . S
C783 H768 0.959 . S
C783 H769 0.961 . S
C783 C782 1.502 . S
C784 H770 0.960 . S
C784 H771 0.961 . S
C784 H772 0.959 . S
C784 C782 1.561 . S
C785 C782 1.526 . S
C785 C786 1.396 1_565 S
C785 C790 1.390 . S
C786 C780 1.465 . S
C786 C785 1.396 1_545 S
C786 C787 1.399 . S
C787 H773 0.929 . S
C787 C786 1.399 . S
C787 C788 1.385 . S
C788 H774 0.931 . S
C788 C787 1.385 . S
C788 C789 1.389 1_545 S
C789 C788 1.389 1_565 S
C789 C790 1.387 . S
C790 H775 0.930 . S
C790 C785 1.390 . S
C790 C789 1.387 . S
H791 C803 0.930 . S
H792 C805 0.930 . S
H793 C806 0.930 . S
H794 C810 0.959 . S
H795 C810 0.959 . S
H796 C810 0.961 . S
H797 C811 0.960 . S
H798 C811 0.961 . S
H799 C811 0.959 . S
H800 C814 0.929 . S
H801 C815 0.931 . S
H802 C817 0.930 . S
C803 H791 0.930 . S
C803 C804 1.399 . S
C803 C808 1.399 . S
C804 C803 1.399 . S
C804 C805 1.376 . S
C805 H792 0.930 . S
C805 C804 1.376 . S
C805 C806 1.388 . S
C806 H793 0.930 . S
C806 C805 1.388 . S
C806 C807 1.390 . S
C807 C806 1.390 . S
C807 C808 1.394 . S
C807 C813 1.465 . S
C808 C803 1.399 . S
C808 C807 1.394 . S
C808 C809 1.516 . S
C809 C808 1.516 . S
C809 C810 1.502 . S
C809 C811 1.561 . S
C809 C812 1.526 . S
C810 H794 0.959 . S
C810 H795 0.959 . S
C810 H796 0.961 . S
C810 C809 1.502 . S
C811 H797 0.960 . S
C811 H798 0.961 . S
C811 H799 0.959 . S
C811 C809 1.561 . S
C812 C809 1.526 . S
C812 C813 1.396 . S
C812 C817 1.390 . S
C813 C807 1.465 . S
C813 C812 1.396 . S
C813 C814 1.399 . S
C814 H800 0.929 . S
C814 C813 1.399 . S
C814 C815 1.385 . S
C815 H801 0.931 . S
C815 C814 1.385 . S
C815 C816 1.389 . S
C816 C815 1.389 . S
C816 C817 1.387 . S
C817 H802 0.930 . S
C817 C812 1.390 . S
C817 C816 1.387 . S
H818 C830 0.930 . S
H819 C832 0.930 . S
H820 C833 0.930 . S
H821 C837 0.959 . S
H822 C837 0.959 . S
H823 C837 0.961 . S
H824 C838 0.960 . S
H825 C838 0.961 . S
H826 C838 0.959 . S
H827 C841 0.929 . S
H828 C842 0.931 . S
H829 C844 0.930 . S
C830 H818 0.930 . S
C830 C831 1.399 . S
C830 C835 1.399 . S
C831 C830 1.399 . S
C831 C832 1.376 . S
C832 H819 0.930 . S
C832 C831 1.376 . S
C832 C833 1.388 . S
C833 H820 0.930 . S
C833 C832 1.388 . S
C833 C834 1.390 . S
C834 C833 1.390 . S
C834 C835 1.394 . S
C834 C840 1.465 . S
C835 C830 1.399 . S
C835 C834 1.394 . S
C835 C836 1.516 . S
C836 C835 1.516 . S
C836 C837 1.502 . S
C836 C838 1.561 . S
C836 C839 1.526 . S
C837 H821 0.959 . S
C837 H822 0.959 . S
C837 H823 0.961 . S
C837 C836 1.502 . S
C838 H824 0.960 . S
C838 H825 0.961 . S
C838 H826 0.959 . S
C838 C836 1.561 . S
C839 C836 1.526 . S
C839 C840 1.396 . S
C839 C844 1.390 . S
C840 C834 1.465 . S
C840 C839 1.396 . S
C840 C841 1.399 . S
C841 H827 0.929 . S
C841 C840 1.399 . S
C841 C842 1.385 . S
C842 H828 0.931 . S
C842 C841 1.385 . S
C842 C843 1.389 . S
C843 C842 1.389 . S
C843 C844 1.387 . S
C844 H829 0.930 . S
C844 C839 1.390 . S
C844 C843 1.387 . S
H845 C857 0.930 . S
H846 C859 0.930 . S
H847 C860 0.930 . S
H848 C864 0.959 . S
H849 C864 0.959 . S
H850 C864 0.961 . S
H851 C865 0.960 . S
H852 C865 0.961 . S
H853 C865 0.959 . S
H854 C868 0.929 . S
H855 C869 0.931 . S
H856 C871 0.930 . S
C857 H845 0.930 . S
C857 C858 1.399 1_455 S
C857 C862 1.399 1_455 S
C858 C857 1.399 1_655 S
C858 C859 1.376 . S
C859 H846 0.930 . S
C859 C858 1.376 . S
C859 C860 1.388 . S
C860 H847 0.930 . S
C860 C859 1.388 . S
C860 C861 1.390 . S
C861 C860 1.390 . S
C861 C862 1.394 . S
C861 C867 1.465 . S
C862 C857 1.399 1_655 S
C862 C861 1.394 . S
C862 C863 1.516 . S
C863 C862 1.516 . S
C863 C864 1.502 1_655 S
C863 C865 1.561 . S
C863 C866 1.526 . S
C864 H848 0.959 . S
C864 H849 0.959 . S
C864 H850 0.961 . S
C864 C863 1.502 1_455 S
C865 H851 0.960 . S
C865 H852 0.961 . S
C865 H853 0.959 . S
C865 C863 1.561 . S
C866 C863 1.526 . S
C866 C867 1.396 . S
C866 C871 1.390 . S
C867 C861 1.465 . S
C867 C866 1.396 . S
C867 C868 1.399 . S
C868 H854 0.929 . S
C868 C867 1.399 . S
C868 C869 1.385 . S
C869 H855 0.931 . S
C869 C868 1.385 . S
C869 C870 1.389 . S
C870 C869 1.389 . S
C870 C871 1.387 . S
C871 H856 0.930 . S
C871 C866 1.390 . S
C871 C870 1.387 . S
H872 C884 0.930 . S
H873 C886 0.930 . S
H874 C887 0.930 . S
H875 C891 0.959 . S
H876 C891 0.959 . S
H877 C891 0.961 . S
H878 C892 0.960 . S
H879 C892 0.961 . S
H880 C892 0.959 . S
H881 C895 0.929 1_556 S
H882 C896 0.931 . S
H883 C898 0.930 . S
C884 H872 0.930 . S
C884 C885 1.399 1_565 S
C884 C889 1.399 . S
C885 C884 1.399 1_545 S
C885 C886 1.376 . S
C886 H873 0.930 . S
C886 C885 1.376 . S
C886 C887 1.388 . S
C887 H874 0.930 . S
C887 C886 1.388 . S
C887 C888 1.390 . S
C888 C887 1.390 . S
C888 C889 1.394 1_545 S
C888 C894 1.465 . S
C889 C884 1.399 . S
C889 C888 1.394 1_565 S
C889 C890 1.516 . S
C890 C889 1.516 . S
C890 C891 1.502 1_556 S
C890 C892 1.561 . S
C890 C893 1.526 1_556 S
C891 H875 0.959 . S
C891 H876 0.959 . S
C891 H877 0.961 . S
C891 C890 1.502 1_554 S
C892 H878 0.960 . S
C892 H879 0.961 . S
C892 H880 0.959 . S
C892 C890 1.561 . S
C893 C890 1.526 1_554 S
C893 C894 1.396 1_564 S
C893 C898 1.389 . S
C894 C888 1.465 . S
C894 C893 1.396 1_546 S
C894 C895 1.399 1_556 S
C895 H881 0.929 1_554 S
C895 C894 1.399 1_554 S
C895 C896 1.385 . S
C896 H882 0.931 . S
C896 C895 1.385 . S
C896 C897 1.389 . S
C897 C896 1.389 . S
C897 C898 1.387 1_545 S
C898 H883 0.930 . S
C898 C893 1.389 . S
C898 C897 1.387 1_565 S
H899 C911 0.930 . S
H900 C913 0.930 . S
H901 C914 0.930 . S
H902 C918 0.959 . S
H903 C918 0.959 . S
H904 C918 0.961 . S
H905 C919 0.960 . S
H906 C919 0.961 . S
H907 C919 0.959 . S
H908 C922 0.929 . S
H909 C923 0.931 . S
H910 C925 0.930 . S
C911 H899 0.930 . S
C911 C912 1.399 1_554 S
C911 C916 1.399 . S
C912 C911 1.399 1_556 S
C912 C913 1.376 . S
C913 H900 0.930 . S
C913 C912 1.376 . S
C913 C914 1.388 . S
C914 H901 0.930 . S
C914 C913 1.388 . S
C914 C915 1.390 . S
C915 C914 1.390 . S
C915 C916 1.394 1_556 S
C915 C921 1.465 . S
C916 C911 1.399 . S
C916 C915 1.394 1_554 S
C916 C917 1.516 . S
C917 C916 1.516 . S
C917 C918 1.502 . S
C917 C919 1.561 . S
C917 C920 1.526 . S
C918 H902 0.959 . S
C918 H903 0.959 . S
C918 H904 0.961 . S
C918 C917 1.502 . S
C919 H905 0.960 . S
C919 H906 0.961 . S
C919 H907 0.959 . S
C919 C917 1.561 . S
C920 C917 1.526 . S
C920 C921 1.396 1_554 S
C920 C925 1.390 . S
C921 C915 1.465 . S
C921 C920 1.396 1_556 S
C921 C922 1.399 . S
C922 H908 0.929 . S
C922 C921 1.399 . S
C922 C923 1.385 . S
C923 H909 0.931 . S
C923 C922 1.385 . S
C923 C924 1.389 1_556 S
C924 C923 1.389 1_554 S
C924 C925 1.387 . S
C925 H910 0.930 . S
C925 C920 1.390 . S
C925 C924 1.387 . S
H926 C938 0.930 . S
H927 C940 0.930 . S
H928 C941 0.930 . S
H929 C945 0.959 . S
H930 C945 0.943 1_455 S
H931 C945 0.961 . S
H932 C946 0.960 . S
H933 C946 0.961 . S
H934 C946 0.959 . S
H935 C949 0.929 . S
H936 C950 0.931 . S
H937 C952 0.930 . S
C938 H926 0.930 . S
C938 C939 1.399 . S
C938 C943 1.399 . S
C939 C938 1.399 . S
C939 C940 1.376 1_554 S
C940 H927 0.930 . S
C940 C939 1.376 1_556 S
C940 C941 1.388 . S
C941 H928 0.930 . S
C941 C940 1.388 . S
C941 C942 1.390 . S
C942 C941 1.390 . S
C942 C943 1.394 1_556 S
C942 C948 1.465 1_655 S
C943 C938 1.399 . S
C943 C942 1.394 1_554 S
C943 C944 1.516 . S
C944 C943 1.516 . S
C944 C945 1.502 . S
C944 C946 1.561 1_554 S
C944 C947 1.526 1_655 S
C945 H929 0.959 . S
C945 H930 0.943 1_655 S
C945 H931 0.961 . S
C945 C944 1.502 . S
C946 H932 0.960 . S
C946 H933 0.961 . S
C946 H934 0.959 . S
C946 C944 1.561 1_556 S
C947 C944 1.526 1_455 S
C947 C948 1.396 1_554 S
C947 C952 1.390 . S
C948 C942 1.465 1_455 S
C948 C947 1.396 1_556 S
C948 C949 1.399 . S
C949 H935 0.929 . S
C949 C948 1.399 . S
C949 C950 1.385 . S
C950 H936 0.931 . S
C950 C949 1.385 . S
C950 C951 1.389 . S
C951 C950 1.389 . S
C951 C952 1.387 1_556 S
C952 H937 0.930 . S
C952 C947 1.390 . S
C952 C951 1.387 1_554 S
H953 C965 0.930 . S
H954 C967 0.930 . S
H955 C968 0.930 . S
H956 C972 0.959 1_556 S
H957 C972 0.959 . S
H958 C972 0.961 1_545 S
H959 C973 0.960 . S
H960 C973 0.961 1_565 S
H961 C973 0.959 . S
H962 C976 0.929 . S
H963 C977 0.931 . S
H964 C979 0.930 . S
C965 H953 0.930 . S
C965 C966 1.399 1_454 S
C965 C970 1.399 . S
C966 C965 1.399 1_656 S
C966 C967 1.376 . S
C967 H954 0.930 . S
C967 C966 1.376 . S
C967 C968 1.388 . S
C968 H955 0.930 . S
C968 C967 1.388 . S
C968 C969 1.390 . S
C969 C968 1.390 . S
C969 C970 1.394 1_656 S
C969 C975 1.465 1_545 S
C970 C965 1.399 . S
C970 C969 1.394 1_454 S
C970 C971 1.530 . S
C971 C970 1.530 . S
C971 C972 1.501 1_545 S
C971 C973 1.563 . S
C971 C974 1.511 1_545 S
C972 H956 0.959 1_554 S
C972 H957 0.959 . S
C972 H958 0.961 1_565 S
C972 C971 1.501 1_565 S
C973 H959 0.960 . S
C973 H960 0.961 1_545 S
C973 H961 0.959 . S
C973 C971 1.563 . S
C974 C971 1.511 1_565 S
C974 C975 1.396 1_454 S
C974 C979 1.390 . S
C975 C969 1.465 1_565 S
C975 C974 1.396 1_656 S
C975 C976 1.399 . S
C976 H962 0.929 . S
C976 C975 1.399 . S
C976 C977 1.385 . S
C977 H963 0.931 . S
C977 C976 1.385 . S
C977 C978 1.389 1_556 S
C978 C977 1.389 1_554 S
C978 C979 1.387 1_655 S
C979 H964 0.930 . S
C979 C974 1.390 . S
C979 C978 1.387 1_455 S
H980 C992 0.930 . S
H981 C994 0.930 . S
H982 C995 0.930 . S
H983 C999 0.959 1_545 S
H984 C999 0.959 . S
H985 C999 0.961 1_455 S
H986 C1000 0.951 1_455 S
H987 C1000 0.970 . S
H988 C1000 0.959 . S
H989 C1003 0.929 . S
H990 C1004 0.931 . S
H991 C1006 0.930 . S
C992 H980 0.930 . S
C992 C993 1.387 1_565 S
C992 C997 1.399 . S
C993 C992 1.387 1_545 S
C993 C994 1.390 . S
C994 H981 0.930 . S
C994 C993 1.390 . S
C994 C995 1.388 . S
C995 H982 0.930 . S
C995 C994 1.388 . S
C995 C996 1.390 . S
C996 C995 1.390 . S
C996 C997 1.394 1_545 S
C996 C1002 1.465 1_455 S
C997 C992 1.399 . S
C997 C996 1.394 1_565 S
C997 C998 1.516 1_455 S
C998 C997 1.516 1_655 S
C998 C999 1.502 . S
C998 C1000 1.561 . S
C998 C1001 1.526 . S
C999 H983 0.959 1_565 S
C999 H984 0.959 . S
C999 H985 0.961 1_655 S
C999 C998 1.502 . S
C1000 H986 0.951 1_655 S
C1000 H987 0.970 . S
C1000 H988 0.959 . S
C1000 C998 1.561 . S
C1001 C998 1.526 . S
C1001 C1002 1.396 1_565 S
C1001 C1006 1.390 . S
C1002 C996 1.465 1_655 S
C1002 C1001 1.396 1_545 S
C1002 C1003 1.399 . S
C1003 H989 0.929 . S
C1003 C1002 1.399 . S
C1003 C1004 1.385 . S
C1004 H990 0.931 . S
C1004 C1003 1.385 . S
C1004 C1005 1.399 . S
C1005 C1004 1.399 . S
C1005 C1006 1.379 1_545 S
C1006 H991 0.930 . S
C1006 C1001 1.390 . S
C1006 C1005 1.379 1_565 S
H1007 C1019 0.930 . S
H1008 C1021 0.930 . S
H1009 C1022 0.930 . S
H1010 C1026 0.959 1_545 S
H1011 C1026 0.959 1_545 S
H1012 C1026 0.961 . S
H1013 C1027 0.960 . S
H1014 C1027 0.961 . S
H1015 C1027 0.959 . S
H1016 C1030 0.929 . S
H1017 C1031 0.931 . S
H1018 C1033 0.930 . S
C1019 H1007 0.930 . S
C1019 C1020 1.399 . S
C1019 C1024 1.399 . S
C1020 C1019 1.399 . S
C1020 C1021 1.376 . S
C1021 H1008 0.930 . S
C1021 C1020 1.376 . S
C1021 C1022 1.388 . S
C1022 H1009 0.930 . S
C1022 C1021 1.388 . S
C1022 C1023 1.390 . S
C1023 C1022 1.390 . S
C1023 C1024 1.394 . S
C1023 C1029 1.465 1_565 S
C1024 C1019 1.399 . S
C1024 C1023 1.394 . S
C1024 C1025 1.516 . S
C1025 C1024 1.516 . S
C1025 C1026 1.502 . S
C1025 C1027 1.561 . S
C1025 C1028 1.526 1_565 S
C1026 H1010 0.959 1_565 S
C1026 H1011 0.959 1_565 S
C1026 H1012 0.961 . S
C1026 C1025 1.502 . S
C1027 H1013 0.960 . S
C1027 H1014 0.961 . S
C1027 H1015 0.959 . S
C1027 C1025 1.561 . S
C1028 C1025 1.526 1_545 S
C1028 C1029 1.396 . S
C1028 C1033 1.390 . S
C1029 C1023 1.465 1_545 S
C1029 C1028 1.396 . S
C1029 C1030 1.399 . S
C1030 H1016 0.929 . S
C1030 C1029 1.399 . S
C1030 C1031 1.385 . S
C1031 H1017 0.931 . S
C1031 C1030 1.385 . S
C1031 C1032 1.389 . S
C1032 C1031 1.389 . S
C1032 C1033 1.387 . S
C1033 H1018 0.930 . S
C1033 C1028 1.390 . S
C1033 C1032 1.387 . S
H1034 C1046 0.930 . S
H1035 C1048 0.930 . S
H1036 C1049 0.930 . S
H1037 C1053 0.959 . S
H1038 C1053 0.959 . S
H1039 C1053 0.961 . S
H1040 C1054 0.960 . S
H1041 C1054 0.961 . S
H1042 C1054 0.959 . S
H1043 C1057 0.929 . S
H1044 C1058 0.931 . S
H1045 C1060 0.930 . S
C1046 H1034 0.930 . S
C1046 C1047 1.399 . S
C1046 C1051 1.399 . S
C1047 C1046 1.399 . S
C1047 C1048 1.376 . S
C1048 H1035 0.930 . S
C1048 C1047 1.376 . S
C1048 C1049 1.388 . S
C1049 H1036 0.930 . S
C1049 C1048 1.388 . S
C1049 C1050 1.390 . S
C1050 C1049 1.390 . S
C1050 C1051 1.394 . S
C1050 C1056 1.465 . S
C1051 C1046 1.399 . S
C1051 C1050 1.394 . S
C1051 C1052 1.516 . S
C1052 C1051 1.516 . S
C1052 C1053 1.502 . S
C1052 C1054 1.561 . S
C1052 C1055 1.526 . S
C1053 H1037 0.959 . S
C1053 H1038 0.959 . S
C1053 H1039 0.961 . S
C1053 C1052 1.502 . S
C1054 H1040 0.960 . S
C1054 H1041 0.961 . S
C1054 H1042 0.959 . S
C1054 C1052 1.561 . S
C1055 C1052 1.526 . S
C1055 C1056 1.396 . S
C1055 C1060 1.390 . S
C1056 C1050 1.465 . S
C1056 C1055 1.396 . S
C1056 C1057 1.399 . S
C1057 H1043 0.929 . S
C1057 C1056 1.399 . S
C1057 C1058 1.385 . S
C1058 H1044 0.931 . S
C1058 C1057 1.385 . S
C1058 C1059 1.389 . S
C1059 C1058 1.389 . S
C1059 C1060 1.387 . S
C1060 H1045 0.930 . S
C1060 C1055 1.390 . S
C1060 C1059 1.387 . S
H1061 C1073 0.930 . S
H1062 C1075 0.930 . S
H1063 C1076 0.930 . S
H1064 C1080 0.959 . S
H1065 C1080 0.959 . S
H1066 C1080 0.961 . S
H1067 C1081 0.960 . S
H1068 C1081 0.961 . S
H1069 C1081 0.959 . S
H1070 C1084 0.929 . S
H1071 C1085 0.931 . S
H1072 C1087 0.930 . S
C1073 H1061 0.930 . S
C1073 C1074 1.399 1_455 S
C1073 C1078 1.399 . S
C1074 C1073 1.399 1_655 S
C1074 C1075 1.376 . S
C1075 H1062 0.930 . S
C1075 C1074 1.376 . S
C1075 C1076 1.388 . S
C1076 H1063 0.930 . S
C1076 C1075 1.388 . S
C1076 C1077 1.390 . S
C1077 C1076 1.390 . S
C1077 C1078 1.394 1_655 S
C1077 C1083 1.465 . S
C1078 C1073 1.399 . S
C1078 C1077 1.394 1_455 S
C1078 C1079 1.516 . S
C1079 C1078 1.516 . S
C1079 C1080 1.502 . S
C1079 C1081 1.561 . S
C1079 C1082 1.526 . S
C1080 H1064 0.959 . S
C1080 H1065 0.959 . S
C1080 H1066 0.961 . S
C1080 C1079 1.502 . S
C1081 H1067 0.960 . S
C1081 H1068 0.961 . S
C1081 H1069 0.959 . S
C1081 C1079 1.561 . S
C1082 C1079 1.526 . S
C1082 C1083 1.396 1_455 S
C1082 C1087 1.390 . S
C1083 C1077 1.465 . S
C1083 C1082 1.396 1_655 S
C1083 C1084 1.399 . S
C1084 H1070 0.929 . S
C1084 C1083 1.399 . S
C1084 C1085 1.385 . S
C1085 H1071 0.931 . S
C1085 C1084 1.385 . S
C1085 C1086 1.389 . S
C1086 C1085 1.389 . S
C1086 C1087 1.387 1_655 S
C1087 H1072 0.930 . S
C1087 C1082 1.390 . S
C1087 C1086 1.387 1_455 S
C237 C82 0.857 . S
C249 C0 0.761 . S
C264 C97 1.087 . S
C276 C26 1.010 . S
C291 C40 0.752 . S
C303 C98 0.819 . S
C318 C42 0.609 . S
C330 C56 0.569 . S
C345 C112 0.777 . S
C357 C194 0.767 . S
C372 C196 1.023 . S
C384 C138 1.086 . S
C399 C211 0.794 . S
C411 C141 0.871 . S
C426 C155 0.616 . S
C438 C180 0.520 . S
C453 C1 1.851 1_556 S
C465 C168 1.896 . S
C480 C182 2.024 . S
C492 C27 1.988 1_556 S
C507 C41 2.095 1_556 S
C519 C208 2.152 . S
C534 C43 1.943 1_556 S
C546 C223 1.953 1_655 S
C561 C57 1.976 . S
C573 C124 1.956 1_545 S
C588 C83 2.104 . S
C600 C126 2.141 . S
C615 C96 2.026 . S
C627 C153 2.017 . S
C642 C99 1.879 . S
C654 C167 1.852 1_455 S
C669 C68 1.857 1_545 S
C681 C113 1.895 1_554 S
C696 C70 2.012 . S
C708 C139 1.998 1_554 S
C723 C85 2.161 . S
C735 C140 2.096 1_554 S
C750 C154 1.959 1_554 S
C762 C110 1.952 1_455 S
C777 C12 1.983 . S
C789 C181 1.927 . S
C804 C195 2.098 . S
C816 C14 2.166 . S
C831 C197 2.016 . S
C843 C28 2.006 . S
C858 C54 1.885 1_655 S
C870 C210 1.873 . S
C885 C125 1.443 . S
C897 C13 1.459 1_545 S
C912 C127 1.519 . S
C924 C15 1.581 . S
C939 C29 1.876 . S
C951 C152 1.826 . S
C966 C166 1.702 1_655 S
C978 C55 1.723 . S
C993 C69 1.736 . S
C1005 C169 1.680 1_545 S
C1020 C183 1.822 . S
C1032 C71 1.872 . S
C1047 C209 1.522 . S
C1059 C84 1.570 . S
C1074 C222 1.443 . S
C1086 C111 1.461 1_655 S
