# Generated by pormake.
# Topology wls, (5)-cn, num edge types: 1
# Building blocks:
#     Node 0, Type 0, BuildingBlock: XOMCOT_clean_sbu_0, # of connection points: 5
#     Node 1, Type 0, BuildingBlock: XOMCOT_clean_sbu_0, # of connection points: 5
#     Node 2, Type 0, BuildingBlock: XOMCOT_clean_sbu_0, # of connection points: 5
#     Node 3, Type 0, BuildingBlock: XOMCOT_clean_sbu_0, # of connection points: 5
#     Node 4, Type 0, BuildingBlock: XOMCOT_clean_sbu_0, # of connection points: 5
#     Node 5, Type 0, BuildingBlock: XOMCOT_clean_sbu_0, # of connection points: 5
#     Node 6, Type 0, BuildingBlock: XOMCOT_clean_sbu_0, # of connection points: 5
#     Node 7, Type 0, BuildingBlock: XOMCOT_clean_sbu_0, # of connection points: 5
#     Node 8, Type 0, BuildingBlock: XOMCOT_clean_sbu_0, # of connection points: 5
#     Node 9, Type 0, BuildingBlock: XOMCOT_clean_sbu_0, # of connection points: 5
#     Node 10, Type 0, BuildingBlock: XOMCOT_clean_sbu_0, # of connection points: 5
#     Node 11, Type 0, BuildingBlock: XOMCOT_clean_sbu_0, # of connection points: 5
#     Node 12, Type 0, BuildingBlock: XOMCOT_clean_sbu_0, # of connection points: 5
#     Node 13, Type 0, BuildingBlock: XOMCOT_clean_sbu_0, # of connection points: 5
#     Node 14, Type 0, BuildingBlock: XOMCOT_clean_sbu_0, # of connection points: 5
#     Node 15, Type 0, BuildingBlock: XOMCOT_clean_sbu_0, # of connection points: 5
#     Node 16, Type 0, BuildingBlock: XOMCOT_clean_sbu_0, # of connection points: 5
#     Node 17, Type 0, BuildingBlock: XOMCOT_clean_sbu_0, # of connection points: 5
#     Node 18, Type 0, BuildingBlock: XOMCOT_clean_sbu_0, # of connection points: 5
#     Node 19, Type 0, BuildingBlock: XOMCOT_clean_sbu_0, # of connection points: 5
#     Node 20, Type 0, BuildingBlock: XOMCOT_clean_sbu_0, # of connection points: 5
#     Node 21, Type 0, BuildingBlock: XOMCOT_clean_sbu_0, # of connection points: 5
#     Node 22, Type 0, BuildingBlock: XOMCOT_clean_sbu_0, # of connection points: 5
#     Node 23, Type 0, BuildingBlock: XOMCOT_clean_sbu_0, # of connection points: 5
#     Node 24, Type 0, BuildingBlock: XOMCOT_clean_sbu_0, # of connection points: 5
#     Node 25, Type 0, BuildingBlock: XOMCOT_clean_sbu_0, # of connection points: 5
#     Node 26, Type 0, BuildingBlock: XOMCOT_clean_sbu_0, # of connection points: 5
#     Node 27, Type 0, BuildingBlock: XOMCOT_clean_sbu_0, # of connection points: 5
#     Node 28, Type 0, BuildingBlock: XOMCOT_clean_sbu_0, # of connection points: 5
#     Node 29, Type 0, BuildingBlock: XOMCOT_clean_sbu_0, # of connection points: 5
#     Node 30, Type 0, BuildingBlock: XOMCOT_clean_sbu_0, # of connection points: 5
#     Node 31, Type 0, BuildingBlock: XOMCOT_clean_sbu_0, # of connection points: 5
#     Node 32, Type 0, BuildingBlock: XOMCOT_clean_sbu_0, # of connection points: 5
#     Node 33, Type 0, BuildingBlock: XOMCOT_clean_sbu_0, # of connection points: 5
#     Node 34, Type 0, BuildingBlock: XOMCOT_clean_sbu_0, # of connection points: 5
#     Node 35, Type 0, BuildingBlock: XOMCOT_clean_sbu_0, # of connection points: 5
#     Edge 36, Type (0, 0), BuildingBlock: EZIPEK_clean_linker_0, # of connection points: 2
#     Edge 37, Type (0, 0), BuildingBlock: EZIPEK_clean_linker_0, # of connection points: 2
#     Edge 38, Type (0, 0), BuildingBlock: EZIPEK_clean_linker_0, # of connection points: 2
#     Edge 39, Type (0, 0), BuildingBlock: EZIPEK_clean_linker_0, # of connection points: 2
#     Edge 40, Type (0, 0), BuildingBlock: EZIPEK_clean_linker_0, # of connection points: 2
#     Edge 41, Type (0, 0), BuildingBlock: EZIPEK_clean_linker_0, # of connection points: 2
#     Edge 42, Type (0, 0), BuildingBlock: EZIPEK_clean_linker_0, # of connection points: 2
#     Edge 43, Type (0, 0), BuildingBlock: EZIPEK_clean_linker_0, # of connection points: 2
#     Edge 44, Type (0, 0), BuildingBlock: EZIPEK_clean_linker_0, # of connection points: 2
#     Edge 45, Type (0, 0), BuildingBlock: EZIPEK_clean_linker_0, # of connection points: 2
#     Edge 46, Type (0, 0), BuildingBlock: EZIPEK_clean_linker_0, # of connection points: 2
#     Edge 47, Type (0, 0), BuildingBlock: EZIPEK_clean_linker_0, # of connection points: 2
#     Edge 48, Type (0, 0), BuildingBlock: EZIPEK_clean_linker_0, # of connection points: 2
#     Edge 49, Type (0, 0), BuildingBlock: EZIPEK_clean_linker_0, # of connection points: 2
#     Edge 50, Type (0, 0), BuildingBlock: EZIPEK_clean_linker_0, # of connection points: 2
#     Edge 51, Type (0, 0), BuildingBlock: EZIPEK_clean_linker_0, # of connection points: 2
#     Edge 52, Type (0, 0), BuildingBlock: EZIPEK_clean_linker_0, # of connection points: 2
#     Edge 53, Type (0, 0), BuildingBlock: EZIPEK_clean_linker_0, # of connection points: 2
#     Edge 54, Type (0, 0), BuildingBlock: EZIPEK_clean_linker_0, # of connection points: 2
#     Edge 55, Type (0, 0), BuildingBlock: EZIPEK_clean_linker_0, # of connection points: 2
#     Edge 56, Type (0, 0), BuildingBlock: EZIPEK_clean_linker_0, # of connection points: 2
#     Edge 57, Type (0, 0), BuildingBlock: EZIPEK_clean_linker_0, # of connection points: 2
#     Edge 58, Type (0, 0), BuildingBlock: EZIPEK_clean_linker_0, # of connection points: 2
#     Edge 59, Type (0, 0), BuildingBlock: EZIPEK_clean_linker_0, # of connection points: 2
#     Edge 60, Type (0, 0), BuildingBlock: EZIPEK_clean_linker_0, # of connection points: 2
#     Edge 61, Type (0, 0), BuildingBlock: EZIPEK_clean_linker_0, # of connection points: 2
#     Edge 62, Type (0, 0), BuildingBlock: EZIPEK_clean_linker_0, # of connection points: 2
#     Edge 63, Type (0, 0), BuildingBlock: EZIPEK_clean_linker_0, # of connection points: 2
#     Edge 64, Type (0, 0), BuildingBlock: EZIPEK_clean_linker_0, # of connection points: 2
#     Edge 65, Type (0, 0), BuildingBlock: EZIPEK_clean_linker_0, # of connection points: 2
#     Edge 66, Type (0, 0), BuildingBlock: EZIPEK_clean_linker_0, # of connection points: 2
#     Edge 67, Type (0, 0), BuildingBlock: EZIPEK_clean_linker_0, # of connection points: 2
#     Edge 68, Type (0, 0), BuildingBlock: EZIPEK_clean_linker_0, # of connection points: 2
#     Edge 69, Type (0, 0), BuildingBlock: EZIPEK_clean_linker_0, # of connection points: 2
#     Edge 70, Type (0, 0), BuildingBlock: EZIPEK_clean_linker_0, # of connection points: 2
#     Edge 71, Type (0, 0), BuildingBlock: EZIPEK_clean_linker_0, # of connection points: 2
#     Edge 72, Type (0, 0), BuildingBlock: EZIPEK_clean_linker_0, # of connection points: 2
#     Edge 73, Type (0, 0), BuildingBlock: EZIPEK_clean_linker_0, # of connection points: 2
#     Edge 74, Type (0, 0), BuildingBlock: EZIPEK_clean_linker_0, # of connection points: 2
#     Edge 75, Type (0, 0), BuildingBlock: EZIPEK_clean_linker_0, # of connection points: 2
#     Edge 76, Type (0, 0), BuildingBlock: EZIPEK_clean_linker_0, # of connection points: 2
#     Edge 77, Type (0, 0), BuildingBlock: EZIPEK_clean_linker_0, # of connection points: 2
#     Edge 78, Type (0, 0), BuildingBlock: EZIPEK_clean_linker_0, # of connection points: 2
#     Edge 79, Type (0, 0), BuildingBlock: EZIPEK_clean_linker_0, # of connection points: 2
#     Edge 80, Type (0, 0), BuildingBlock: EZIPEK_clean_linker_0, # of connection points: 2
#     Edge 81, Type (0, 0), BuildingBlock: EZIPEK_clean_linker_0, # of connection points: 2
#     Edge 82, Type (0, 0), BuildingBlock: EZIPEK_clean_linker_0, # of connection points: 2
#     Edge 83, Type (0, 0), BuildingBlock: EZIPEK_clean_linker_0, # of connection points: 2
#     Edge 84, Type (0, 0), BuildingBlock: EZIPEK_clean_linker_0, # of connection points: 2
#     Edge 85, Type (0, 0), BuildingBlock: EZIPEK_clean_linker_0, # of connection points: 2
#     Edge 86, Type (0, 0), BuildingBlock: EZIPEK_clean_linker_0, # of connection points: 2
#     Edge 87, Type (0, 0), BuildingBlock: EZIPEK_clean_linker_0, # of connection points: 2
#     Edge 88, Type (0, 0), BuildingBlock: EZIPEK_clean_linker_0, # of connection points: 2
#     Edge 89, Type (0, 0), BuildingBlock: EZIPEK_clean_linker_0, # of connection points: 2
#     Edge 90, Type (0, 0), BuildingBlock: EZIPEK_clean_linker_0, # of connection points: 2
#     Edge 91, Type (0, 0), BuildingBlock: EZIPEK_clean_linker_0, # of connection points: 2
#     Edge 92, Type (0, 0), BuildingBlock: EZIPEK_clean_linker_0, # of connection points: 2
#     Edge 93, Type (0, 0), BuildingBlock: EZIPEK_clean_linker_0, # of connection points: 2
#     Edge 94, Type (0, 0), BuildingBlock: EZIPEK_clean_linker_0, # of connection points: 2
#     Edge 95, Type (0, 0), BuildingBlock: EZIPEK_clean_linker_0, # of connection points: 2
#     Edge 96, Type (0, 0), BuildingBlock: EZIPEK_clean_linker_0, # of connection points: 2
#     Edge 97, Type (0, 0), BuildingBlock: EZIPEK_clean_linker_0, # of connection points: 2
#     Edge 98, Type (0, 0), BuildingBlock: EZIPEK_clean_linker_0, # of connection points: 2
#     Edge 99, Type (0, 0), BuildingBlock: EZIPEK_clean_linker_0, # of connection points: 2
#     Edge 100, Type (0, 0), BuildingBlock: EZIPEK_clean_linker_0, # of connection points: 2
#     Edge 101, Type (0, 0), BuildingBlock: EZIPEK_clean_linker_0, # of connection points: 2
#     Edge 102, Type (0, 0), BuildingBlock: EZIPEK_clean_linker_0, # of connection points: 2
#     Edge 103, Type (0, 0), BuildingBlock: EZIPEK_clean_linker_0, # of connection points: 2
#     Edge 104, Type (0, 0), BuildingBlock: EZIPEK_clean_linker_0, # of connection points: 2
#     Edge 105, Type (0, 0), BuildingBlock: EZIPEK_clean_linker_0, # of connection points: 2
#     Edge 106, Type (0, 0), BuildingBlock: EZIPEK_clean_linker_0, # of connection points: 2
#     Edge 107, Type (0, 0), BuildingBlock: EZIPEK_clean_linker_0, # of connection points: 2
#     Edge 108, Type (0, 0), BuildingBlock: EZIPEK_clean_linker_0, # of connection points: 2
#     Edge 109, Type (0, 0), BuildingBlock: EZIPEK_clean_linker_0, # of connection points: 2
#     Edge 110, Type (0, 0), BuildingBlock: EZIPEK_clean_linker_0, # of connection points: 2
#     Edge 111, Type (0, 0), BuildingBlock: EZIPEK_clean_linker_0, # of connection points: 2
#     Edge 112, Type (0, 0), BuildingBlock: EZIPEK_clean_linker_0, # of connection points: 2
#     Edge 113, Type (0, 0), BuildingBlock: EZIPEK_clean_linker_0, # of connection points: 2
#     Edge 114, Type (0, 0), BuildingBlock: EZIPEK_clean_linker_0, # of connection points: 2
#     Edge 115, Type (0, 0), BuildingBlock: EZIPEK_clean_linker_0, # of connection points: 2
#     Edge 116, Type (0, 0), BuildingBlock: EZIPEK_clean_linker_0, # of connection points: 2
#     Edge 117, Type (0, 0), BuildingBlock: EZIPEK_clean_linker_0, # of connection points: 2
#     Edge 118, Type (0, 0), BuildingBlock: EZIPEK_clean_linker_0, # of connection points: 2
#     Edge 119, Type (0, 0), BuildingBlock: EZIPEK_clean_linker_0, # of connection points: 2
#     Edge 120, Type (0, 0), BuildingBlock: EZIPEK_clean_linker_0, # of connection points: 2
#     Edge 121, Type (0, 0), BuildingBlock: EZIPEK_clean_linker_0, # of connection points: 2
#     Edge 122, Type (0, 0), BuildingBlock: EZIPEK_clean_linker_0, # of connection points: 2
#     Edge 123, Type (0, 0), BuildingBlock: EZIPEK_clean_linker_0, # of connection points: 2
#     Edge 124, Type (0, 0), BuildingBlock: EZIPEK_clean_linker_0, # of connection points: 2
#     Edge 125, Type (0, 0), BuildingBlock: EZIPEK_clean_linker_0, # of connection points: 2
# Relax obj value: 0.266
# Max RMSD: 0.191
# Mean RMSD: 0.190
data_MOF--net-wls--node1-XOMCOT_clean_sbu_0--edge1-EZIPEK_clean_linker_0
_symmetry_space_group_name_H-M    P1
_symmetry_Int_Tables_number       1
_symmetry_cell_setting            triclinic
loop_
_symmetry_equiv_pos_as_xyz
'x, y, z'
_cell_length_a     59.976077
_cell_length_b     60.092018
_cell_length_c     27.043589
_cell_angle_alpha  90.107664
_cell_angle_beta   89.783134
_cell_angle_gamma 119.89607
loop_
_atom_site_label
_atom_site_type_symbol
_atom_site_fract_x
_atom_site_fract_y
_atom_site_fract_z
_atom_type_partial_charge
Co0 Co 0.26416 0.21839 0.07118 0.0
C1 C 0.24453 0.16239 0.05015 0.0
C2 C 0.26631 0.17551 0.11738 0.0
C3 C 0.25848 0.14988 0.11123 0.0
N4 N 0.25759 0.18343 0.07931 0.0
N5 N 0.24476 0.14159 0.06919 0.0
H6 H 0.2354 0.16236 1.0157 0.0
H7 H 0.27786 0.18767 0.14737 0.0
C8 C 0.2463 0.22967 0.17395 0.0
O9 O 0.23436 0.23941 0.14918 0.0
N10 N 0.27115 0.25324 0.06297 0.0
C11 C 0.26785 0.26455 1.02293 0.0
C12 C 0.27171 0.28822 0.03648 0.0
C13 C 0.27931 0.27116 0.09847 0.0
N14 N 0.27726 0.29172 0.08527 0.0
C15 C 0.22076 0.21059 1.01229 0.0
C16 C 0.1851 0.19438 0.08792 0.0
C17 C 0.18039 0.20453 0.04501 0.0
C18 C 0.19779 0.21103 1.00568 0.0
C19 C 0.20851 0.19431 0.09279 0.0
N20 N 0.2273 0.20548 0.05751 0.0
H21 H 0.23407 0.21612 0.98178 0.0
H22 H 0.2122 0.1871 0.12648 0.0
H23 H 0.26353 0.25668 0.98608 0.0
H24 H 0.28694 0.26899 0.13287 0.0
O25 O 0.27697 0.21966 1.00264 0.0
O26 O 0.302 0.23169 0.06708 0.0
O27 O 0.25857 0.22037 0.14897 0.0
C28 C 0.3004 0.22967 1.0189 0.0
H29 H 0.26282 0.13822 0.13544 0.0
H30 H 0.27103 0.30197 1.01167 0.0
H31 H 0.17146 0.18783 0.11824 0.0
H32 H 0.19431 0.2177 0.97093 0.0
Co33 Co 0.79394 0.04336 0.0744 0.0
C34 C 0.85088 0.07934 0.0647 0.0
C35 C 0.83489 0.08693 0.12933 0.0
C36 C 0.86068 0.10511 0.12641 0.0
N37 N 0.82871 0.07047 0.09113 0.0
N38 N 0.87074 0.10033 0.08588 0.0
H39 H 0.85236 0.07143 1.02977 0.0
H40 H 0.82136 0.08627 0.15667 0.0
C41 C 0.7991 0.03041 0.18406 0.0
O42 O 0.82183 0.03419 0.17071 0.0
N43 N 0.76055 0.01687 0.05438 0.0
C44 C 0.75627 1.00466 1.01046 0.0
C45 C 0.73191 0.98404 1.01024 0.0
C46 C 0.73861 1.00387 0.08018 0.0
N47 N 0.72094 0.9838 0.05374 0.0
C48 C 0.81659 0.01563 1.02419 0.0
C49 C 0.79191 0.97263 0.08393 0.0
C50 C 0.80289 0.97043 0.04011 0.0
C51 C 0.81597 0.99253 1.01033 0.0
C52 C 0.7919 0.99525 0.09494 0.0
N53 N 0.80429 0.01686 0.06609 0.0
H54 H 0.82466 0.03154 0.99861 0.0
H55 H 0.77897 0.99372 0.12371 0.0
H56 H 0.77042 0.00964 0.98144 0.0
H57 H 0.73581 0.00838 0.11759 0.0
O58 O 0.7979 0.05772 1.00595 0.0
O59 O 0.78242 0.06905 0.06774 0.0
O60 O 0.78533 0.03364 0.15065 0.0
C61 C 0.78713 0.0709 1.02041 0.0
H62 H 0.8711 0.12117 0.15124 0.0
H63 H 0.72305 0.96991 0.98116 0.0
H64 H 0.78086 0.95595 0.10715 0.0
H65 H 0.82421 0.99152 0.97529 0.0
Co66 Co 0.97431 0.75476 0.0647 0.0
C67 C 0.9382 0.77558 0.05092 0.0
C68 C 0.92639 0.74754 0.10891 0.0
C69 C 0.90813 0.75495 0.10427 0.0
N70 N 0.94544 0.76062 0.07601 0.0
N71 N 0.91548 0.77258 0.06796 0.0
H72 H 0.94886 0.78782 1.02016 0.0
H73 H 0.92563 0.73321 0.13408 0.0
C74 C 0.98291 0.77209 0.17984 0.0
O75 O 0.96605 0.77996 0.18035 0.0
N76 N 1.00292 0.74882 0.05377 0.0
C77 C 0.01414 0.7478 1.01128 0.0
C78 C 0.03616 0.74705 1.02256 0.0
C79 C 0.0177 0.7476 0.08964 0.0
N80 N 0.03915 0.74824 0.0723 0.0
C81 C 1.00772 0.79572 1.0002 0.0
C82 C 0.03081 0.83287 0.07213 0.0
C83 C 0.04392 0.83584 1.02742 0.0
C84 C 0.03132 0.81776 0.99007 0.0
C85 C 1.0071 0.81044 0.08056 0.0
N86 N 0.99731 0.79097 0.0467 0.0
H87 H 0.99913 0.78135 0.97171 0.0
H88 H 0.99772 0.8083 0.11547 0.0
H89 H 1.00684 0.74732 0.9746 0.0
H90 H 1.01193 0.74456 0.12774 0.0
O91 O 0.96062 0.74064 0.99819 0.0
O92 O 0.95063 0.71678 0.06419 0.0
O93 O 0.98622 0.76221 0.13965 0.0
C94 C 0.94851 0.71755 1.01617 0.0
H95 H 0.8904 0.74751 0.12518 0.0
H96 H 0.04817 0.74463 0.99572 0.0
H97 H 0.0395 0.84699 0.10129 0.0
H98 H 0.04043 0.81979 0.95441 0.0
Co99 Co 0.22664 0.25799 0.49576 0.0
C100 C 0.17212 0.24609 0.50864 0.0
C101 C 0.18878 0.26559 0.4403 0.0
C102 C 0.16351 0.25997 0.44227 0.0
N103 N 0.19423 0.25683 0.48171 0.0
N104 N 0.15299 0.24774 0.48516 0.0
H105 H 0.17 0.23718 0.54439 0.0
H106 H 0.20221 0.2753 0.41045 0.0
C107 C 0.24229 0.24398 0.39273 0.0
O108 O 0.25106 0.23098 0.41646 0.0
N109 N 0.25849 0.25873 0.51127 0.0
C110 C 0.2632 0.24786 0.55072 0.0
C111 C 0.28757 0.25156 0.54725 0.0
C112 C 0.28075 0.27022 0.48584 0.0
N113 N 0.29842 0.26559 0.50657 0.0
C114 C 0.20512 0.21102 0.55218 0.0
C115 C 0.20314 0.1803 0.47454 0.0
C116 C 0.20675 0.17376 0.52242 0.0
C117 C 0.20548 0.18824 0.56189 0.0
C118 C 0.20295 0.20336 0.46689 0.0
N119 N 0.20807 0.22021 0.50497 0.0
H120 H 0.20642 0.22302 0.58307 0.0
H121 H 0.20065 0.20825 0.42992 0.0
H122 H 0.25049 0.23864 0.58146 0.0
H123 H 0.28393 0.28154 0.45285 0.0
O124 O 0.22614 0.26944 0.56489 0.0
O125 O 0.24469 0.29615 0.50418 0.0
O126 O 0.23207 0.25515 0.41826 0.0
C127 C 0.24002 0.29335 0.55165 0.0
H128 H 0.1536 0.2647 0.41447 0.0
H129 H 0.29683 0.24488 0.57278 0.0
H130 H 0.20244 0.16879 0.44309 0.0
H131 H 0.20703 0.18324 0.59967 0.0
Co132 Co 0.75948 0.9641 0.4947 0.0
C133 C 0.78053 0.92897 0.51848 0.0
C134 C 0.76421 0.92311 0.44579 0.0
C135 C 0.77223 0.90552 0.45336 0.0
N136 N 0.76941 0.93792 0.48636 0.0
N137 N 0.78246 0.90911 0.49892 0.0
H138 H 0.78649 0.93636 0.55552 0.0
H139 H 0.75463 0.92458 0.41321 0.0
C140 C 0.77833 0.99592 0.39584 0.0
O141 O 0.78808 0.01644 0.42411 0.0
N142 N 0.74873 0.98936 0.50285 0.0
C143 C 0.74967 1.00312 0.54294 0.0
C144 C 0.74394 0.0216 0.5286 0.0
C145 C 0.73977 0.99792 0.46654 0.0
N146 N 0.73944 0.01946 0.47939 0.0
C147 C 0.80038 1.00198 0.5557 0.0
C148 C 0.83845 0.02108 0.48455 0.0
C149 C 0.84166 0.03607 0.52672 0.0
C150 C 0.82295 0.02542 0.56389 0.0
C151 C 0.81531 0.99762 0.47788 0.0
N152 N 0.79542 0.99005 0.51071 0.0
H153 H 0.78639 0.99405 0.58502 0.0
H154 H 0.81273 0.98655 0.44471 0.0
H155 H 0.75385 1.00003 0.5802 0.0
H156 H 0.73366 0.98814 0.43175 0.0
O157 O 0.74679 0.9516 0.56218 0.0
O158 O 0.72228 0.93683 0.49836 0.0
O159 O 0.76624 0.97336 0.41733 0.0
C160 C 0.72374 0.93597 0.54655 0.0
H161 H 0.77027 0.89081 0.42769 0.0
H162 H 0.74325 0.03561 0.55277 0.0
H163 H 0.85319 0.02799 0.45619 0.0
H164 H 0.82528 0.03564 0.59824 0.0
Co165 Co 0.05185 0.79295 0.48422 0.0
C166 C 0.08648 0.84973 0.50435 0.0
C167 C 0.09169 0.83803 0.43224 0.0
C168 C 0.10909 0.86376 0.43785 0.0
N169 N 0.07714 0.82913 0.47344 0.0
N170 N 0.10584 0.87118 0.48299 0.0
H171 H 0.08012 0.84896 0.54206 0.0
H172 H 0.09042 0.82638 0.40073 0.0
C173 C 0.03614 0.79908 0.37488 0.0
O174 O 0.03731 0.82068 0.38817 0.0
N175 N 0.02771 0.75757 0.49436 0.0
C176 C 1.00917 0.74671 0.52877 0.0
C177 C 0.99147 0.7227 0.51204 0.0
C178 C 0.02203 0.73995 0.45928 0.0
N179 N 0.9988 0.7191 0.46656 0.0
C180 C 0.0221 0.81134 0.54037 0.0
C181 C 0.97891 0.78725 0.48115 0.0
C182 C 0.97665 0.79721 0.52617 0.0
C183 C 0.9988 0.80993 0.55582 0.0
C184 C 1.00187 0.78825 0.46833 0.0
N185 N 0.02349 0.80027 0.49696 0.0
H186 H 0.03828 0.81946 0.56528 0.0
H187 H 1.00093 0.77674 0.43784 0.0
H188 H 1.00755 0.75626 0.56138 0.0
H189 H 0.03463 0.74362 0.42848 0.0
O190 O 0.06438 0.79401 0.55288 0.0
O191 O 0.07977 0.7842 0.48864 0.0
O192 O 0.04281 0.78731 0.40702 0.0
C193 C 0.07958 0.78589 0.53681 0.0
H194 H 0.12368 0.87598 0.41142 0.0
H195 H 0.97379 0.70952 0.53087 0.0
H196 H 0.9622 0.77655 0.45785 0.0
H197 H 0.99775 0.81743 0.59165 0.0
Co198 Co 0.7599 0.79042 0.99799 0.0
C199 C 0.77445 0.84593 1.01302 0.0
C200 C 0.75474 0.82978 0.94475 0.0
C201 C 0.76112 0.85515 0.94653 0.0
N202 N 0.76314 0.82389 0.98611 0.0
N203 N 0.77348 0.8654 0.9893 0.0
H204 H 0.7831 0.84771 0.04892 0.0
H205 H 0.74457 0.81646 0.91511 0.0
C206 C 0.78117 0.78202 0.89562 0.0
O207 O 0.79644 0.77618 0.91994 0.0
N208 N 0.75689 0.757 1.00917 0.0
C209 C 0.76146 0.7477 0.05087 0.0
C210 C 0.76107 0.72516 0.04037 0.0
C211 C 0.75282 0.73927 0.97464 0.0
N212 N 0.757 0.72044 0.99142 0.0
C213 C 0.80364 0.80279 0.06002 0.0
C214 C 0.83943 0.81843 0.98486 0.0
C215 C 0.84392 0.80832 1.02818 0.0
C216 C 0.82663 0.80249 0.06751 0.0
C217 C 0.816 0.81849 0.97951 0.0
N218 N 0.79698 0.80675 1.01396 0.0
H219 H 0.79015 0.79737 0.09022 0.0
H220 H 0.81213 0.82557 0.94596 0.0
H221 H 0.76399 0.75598 0.08724 0.0
H222 H 0.74613 0.73977 0.93807 0.0
O223 O 0.74591 0.78904 0.06569 0.0
O224 O 0.72141 0.77425 1.00096 0.0
O225 O 0.76616 0.78798 0.92058 0.0
C226 C 0.72254 0.77767 0.04884 0.0
H227 H 0.75663 0.8653 0.91884 0.0
H228 H 0.76244 0.71295 0.0679 0.0
H229 H 0.85303 0.82463 0.95448 0.0
H230 H 0.82997 0.79603 0.10262 0.0
Co231 Co 0.22462 0.96789 0.98882 0.0
C232 C 0.16921 0.92903 1.00117 0.0
C233 C 0.18632 0.9208 0.93892 0.0
C234 C 0.16089 0.90173 0.94255 0.0
N235 N 0.19151 0.93792 0.97552 0.0
N236 N 0.1502 0.90698 0.98153 0.0
H237 H 0.16699 0.93824 0.03375 0.0
H238 H 0.20016 0.92194 0.91185 0.0
C239 C 0.24333 0.99632 0.88472 0.0
O240 O 0.2553 0.01847 0.90766 0.0
N241 N 0.25711 0.99744 1.00405 0.0
C242 C 0.26258 0.01358 0.04288 0.0
C243 C 0.28808 0.0316 0.04171 0.0
C244 C 0.27965 1.0051 0.98121 0.0
N245 N 0.29843 0.02619 1.00283 0.0
C246 C 0.20437 0.99531 0.04425 0.0
C247 C 0.20691 0.02659 0.96736 0.0
C248 C 0.20877 0.0357 1.01575 0.0
C249 C 0.20543 0.01883 0.05456 0.0
C250 C 0.20592 1.00303 0.95907 0.0
N251 N 0.20823 0.98943 0.99721 0.0
H252 H 0.20415 0.98376 0.07499 0.0
H253 H 0.20487 0.99684 0.92181 0.0
H254 H 0.24964 0.01191 0.07209 0.0
H255 H 0.28226 0.99555 0.94969 0.0
O256 O 0.22341 0.9561 0.05829 0.0
O257 O 0.24073 0.94592 0.99816 0.0
O258 O 0.23037 0.97536 0.91088 0.0
C259 C 0.23616 0.94467 0.04562 0.0
H260 H 0.15101 0.88512 0.91877 0.0
H261 H 0.2984 0.04723 0.06749 0.0
H262 H 0.20793 0.03834 0.93615 0.0
H263 H 0.20577 0.02463 0.09261 0.0
Co264 Co 0.04694 0.25359 1.0003 0.0
C265 C 0.08423 0.23482 1.02281 0.0
C266 C 0.09244 0.25628 0.95522 0.0
C267 C 0.11076 0.2491 0.96153 0.0
N268 N 0.07576 0.24739 0.99338 0.0
N269 N 0.10567 0.23561 1.00383 0.0
H270 H 0.07515 0.22555 0.05728 0.0
H271 H 0.09146 0.26748 0.92491 0.0
C272 C 0.01583 0.23159 0.90082 0.0
O273 O 0.99486 0.22106 0.92809 0.0
N274 N 0.01891 0.26043 1.00639 0.0
C275 C 1.00337 0.25748 0.04488 0.0
C276 C 0.98437 0.26209 1.02873 0.0
C277 C 1.01047 0.26893 0.96928 0.0
N278 N 0.98791 0.26769 0.97991 0.0
C279 C 0.01312 0.21287 0.0662 0.0
C280 C 0.99127 0.1747 0.99593 0.0
C281 C 0.97737 0.17214 0.03958 0.0
C282 C 0.98955 0.19073 0.07638 0.0
C283 C 0.01503 0.19732 0.98756 0.0
N284 N 0.02369 0.21744 1.01987 0.0
H285 H 0.02166 0.22736 0.09451 0.0
H286 H 0.02525 0.19945 0.95338 0.0
H287 H 1.00581 0.25307 0.0824 0.0
H288 H 0.02114 0.27609 0.93538 0.0
O289 O 0.05903 0.269 0.06699 0.0
O290 O 0.07099 0.29164 0.99947 0.0
O291 O 0.03807 0.24476 0.92321 0.0
C292 C 0.07183 0.2918 0.04784 0.0
H293 H 0.12679 0.25358 0.93706 0.0
H294 H 0.96965 0.26209 0.05193 0.0
H295 H 0.98318 0.16005 0.96762 0.0
H296 H 0.98014 0.18896 0.1116 0.0
Co297 Co 0.79541 0.74945 0.57352 0.0
C298 C 0.85162 0.76653 0.55757 0.0
C299 C 0.83664 0.74778 0.62726 0.0
C300 C 0.86226 0.755 0.62472 0.0
N301 N 0.82985 0.75508 0.58551 0.0
N302 N 0.87175 0.76675 0.58106 0.0
H303 H 0.85267 0.77423 0.52095 0.0
H304 H 0.82372 0.73756 0.6575 0.0
C305 C 0.78929 0.77134 0.67768 0.0
O306 O 0.78533 0.78832 0.65507 0.0
N307 N 0.76075 0.74363 0.56219 0.0
C308 C 0.74822 0.74033 0.5191 0.0
C309 C 0.7263 0.74172 0.52766 0.0
C310 C 0.74533 0.74544 0.5961 0.0
N311 N 0.72509 0.7462 0.5763 0.0
C312 C 0.80073 0.79155 0.51495 0.0
C313 C 0.82466 0.82981 0.5844 0.0
C314 C 0.81154 0.83368 0.54516 0.0
C315 C 0.80111 0.81483 0.50848 0.0
C316 C 0.82404 0.80602 0.58882 0.0
N317 N 0.80908 0.78616 0.55786 0.0
H318 H 0.79202 0.77716 0.4866 0.0
H319 H 0.83344 0.80272 0.61947 0.0
H320 H 0.75451 0.73744 0.4835 0.0
H321 H 0.74768 0.74413 0.63481 0.0
O322 O 0.79616 0.73727 0.5058 0.0
O323 O 0.78134 0.71132 0.56774 0.0
O324 O 0.7925 0.75484 0.65132 0.0
C325 C 0.78525 0.71354 0.51985 0.0
H326 H 0.87306 0.75134 0.65235 0.0
H327 H 0.71204 0.73849 0.50005 0.0
H328 H 0.83407 0.84439 0.61252 0.0
H329 H 0.79197 0.81747 0.47629 0.0
Co330 Co 0.26085 0.04572 0.56473 0.0
C331 C 0.24444 0.08456 0.55047 0.0
C332 C 0.26035 0.08713 0.62271 0.0
C333 C 0.25235 0.105 0.61943 0.0
N334 N 0.25533 0.07425 0.5796 0.0
N335 N 0.24234 0.10335 0.57412 0.0
H336 H 0.23809 0.07842 0.51297 0.0
H337 H 0.26919 0.08381 0.65449 0.0
C338 C 0.25161 0.0158 0.66704 0.0
O339 O 0.24285 0.99409 0.64283 0.0
N340 N 0.2658 0.01755 0.5478 0.0
C341 C 0.25656 1.00149 0.50848 0.0
C342 C 0.26675 0.98553 0.50863 0.0
C343 C 0.2822 0.01193 0.56994 0.0
N344 N 0.28245 0.99215 0.54769 0.0
C345 C 0.21407 0.01675 0.50775 0.0
C346 C 0.18495 0.98537 0.58452 0.0
C347 C 0.17792 0.97638 0.53612 0.0
C348 C 0.19176 0.99318 0.49732 0.0
C349 C 0.20733 0.009 0.59296 0.0
N350 N 0.22333 0.02282 0.55496 0.0
H351 H 0.22559 0.02841 0.47718 0.0
H352 H 0.21226 0.01516 0.63023 0.0
H353 H 0.24455 1.00197 0.47958 0.0
H354 H 0.29396 0.02228 0.60128 0.0
O355 O 0.27243 0.05904 0.49618 0.0
O356 O 0.29881 0.06926 0.55787 0.0
O357 O 0.25863 0.03694 0.64212 0.0
C358 C 0.29638 0.07099 0.51034 0.0
H359 H 0.254 0.11843 0.6479 0.0
H360 H 0.26335 0.97064 0.48215 0.0
H361 H 0.17409 0.97358 0.61565 0.0
H362 H 0.1865 0.98736 0.45926 0.0
Co363 Co 0.97085 0.21874 0.57843 0.0
C364 C 0.93662 0.16201 0.55534 0.0
C365 C 0.9294 0.17332 0.62615 0.0
C366 C 0.91186 0.14776 0.61913 0.0
N367 N 0.9453 0.18239 0.58674 0.0
N368 N 0.91632 0.14058 0.57477 0.0
H369 H 0.94408 0.16293 0.51852 0.0
H370 H 0.92982 0.1848 0.65733 0.0
C371 C 0.98384 0.21065 0.68767 0.0
O372 O 0.98421 0.19017 0.67165 0.0
N373 N 0.99502 0.25436 0.57113 0.0
C374 C 0.01423 0.2661 0.53817 0.0
C375 C 0.03073 0.2903 0.55568 0.0
C376 C 0.99952 0.27142 0.60687 0.0
N377 N 0.02204 0.29318 0.60024 0.0
C378 C 1.00212 0.20096 0.52671 0.0
C379 C 0.0449 0.22728 0.58629 0.0
C380 C 0.04788 0.21713 0.54196 0.0
C381 C 0.02591 0.20326 0.51233 0.0
C382 C 0.02128 0.22518 0.59839 0.0
N383 N 0.99989 0.21209 0.56931 0.0
H384 H 0.98618 0.19212 0.50137 0.0
H385 H 0.02134 0.23665 0.62866 0.0
H386 H 0.01728 0.25699 0.50638 0.0
H387 H 0.9873 0.26642 0.63857 0.0
O388 O 0.9606 0.21798 0.50833 0.0
O389 O 0.943 0.22758 0.56868 0.0
O390 O 0.97731 0.22296 0.65657 0.0
C391 C 0.94496 0.22617 0.52069 0.0
H392 H 0.89641 0.13549 0.64404 0.0
H393 H 0.04888 0.30396 0.53886 0.0
H394 H 0.0614 0.23874 0.6096 0.0
H395 H 0.02745 0.19552 0.47711 0.0
Co396 Co 0.92978 0.54776 0.4052 0.0
C397 C 0.91517 0.49264 0.39388 0.0
C398 C 0.93333 0.50837 0.4636 0.0
C399 C 0.92667 0.48284 0.46194 0.0
N400 N 0.92608 0.51453 0.42109 0.0
N401 N 0.91525 0.47294 0.41822 0.0
H402 H 0.90746 0.49116 0.35712 0.0
H403 H 0.94288 0.52153 0.49378 0.0
C404 C 0.91477 0.56524 0.50423 0.0
O405 O 0.90323 0.57484 0.47781 0.0
N406 N 0.93316 0.5803 0.38755 0.0
C407 C 0.926 0.58626 0.34439 0.0
C408 C 0.93258 0.61153 0.34501 0.0
C409 C 0.9455 0.60251 0.41251 0.0
N410 N 0.94466 0.62143 0.38781 0.0
C411 C 0.88353 0.53027 0.34676 0.0
C412 C 0.85198 0.52549 0.42535 0.0
C413 C 0.84573 0.53056 0.37841 0.0
C414 C 0.86077 0.53099 0.33819 0.0
C415 C 0.87502 0.52508 0.43189 0.0
N416 N 0.8922 0.53131 0.39383 0.0
H417 H 0.89552 0.53176 0.31563 0.0
H418 H 0.8797 0.52169 0.46832 0.0
H419 H 0.91826 0.57395 0.31268 0.0
H420 H 0.95562 0.60501 0.44691 0.0
O421 O 0.94295 0.54707 0.33745 0.0
O422 O 0.96779 0.56353 0.40117 0.0
O423 O 0.92569 0.55399 0.48139 0.0
C424 C 0.96657 0.55998 0.35346 0.0
H425 H 0.93027 0.47238 0.49037 0.0
H426 H 0.93024 0.62227 0.31535 0.0
H427 H 0.84011 0.52357 0.45712 0.0
H428 H 0.85593 0.53356 0.30091 0.0
Co429 Co 0.45935 0.38076 0.40566 0.0
C430 C 0.51684 0.41493 0.39288 0.0
C431 C 0.50124 0.42603 0.45341 0.0
C432 C 0.52726 0.44319 0.45034 0.0
N433 N 0.4946 0.40812 0.41777 0.0
N434 N 0.53706 0.43619 0.41247 0.0
H435 H 0.51829 0.40519 0.36052 0.0
H436 H 0.48791 0.4268 0.47945 0.0
C437 C 0.4675 0.37096 0.51575 0.0
O438 O 0.48908 0.37274 0.50014 0.0
N439 N 0.42477 0.35376 0.39323 0.0
C440 C 0.4168 0.33935 0.35199 0.0
C441 C 0.39529 0.31637 0.36309 0.0
C442 C 0.40776 0.33955 0.42831 0.0
N443 N 0.39056 0.3158 0.41215 0.0
C444 C 0.48005 0.35254 0.35342 0.0
C445 C 0.45782 0.31006 0.41475 0.0
C446 C 0.46768 0.30785 0.3694 0.0
C447 C 0.47952 0.32967 0.3389 0.0
C448 C 0.45846 0.33292 0.42749 0.0
N449 N 0.46937 0.35411 0.39727 0.0
H450 H 0.48691 0.36809 0.32714 0.0
H451 H 0.44748 0.33211 0.45949 0.0
H452 H 0.4272 0.34401 0.31743 0.0
H453 H 0.4087 0.34621 0.46564 0.0
O454 O 0.46165 0.39256 0.33639 0.0
O455 O 0.44781 0.40645 0.39638 0.0
O456 O 0.45354 0.37372 0.48245 0.0
C457 C 0.45161 0.40661 0.34876 0.0
H458 H 0.53812 0.45989 0.47349 0.0
H459 H 0.38471 0.30135 0.33657 0.0
H460 H 0.44778 0.29348 0.43866 0.0
H461 H 0.48675 0.32853 0.30279 0.0
Co462 Co 0.6397 0.09223 0.40624 0.0
C463 C 0.60195 0.11062 0.39089 0.0
C464 C 0.59576 0.09033 0.45946 0.0
C465 C 0.57742 0.09772 0.45506 0.0
N466 N 0.6112 0.09841 0.41938 0.0
N467 N 0.5813 0.11051 0.41212 0.0
H468 H 0.60984 0.11904 0.35521 0.0
H469 H 0.59747 0.07947 0.48958 0.0
C470 C 0.6699 0.10378 0.50874 0.0
O471 O 0.69168 0.11304 0.48447 0.0
N472 N 0.66776 0.08641 0.39056 0.0
C473 C 0.68201 0.09363 0.34857 0.0
C474 C 0.69978 0.08571 0.35053 0.0
C475 C 0.67603 0.07278 0.41599 0.0
N476 N 0.69587 0.07273 0.39291 0.0
C477 C 0.66847 0.13697 0.34441 0.0
C478 C 0.70208 0.1675 0.41695 0.0
C479 C 0.71027 0.17254 0.36756 0.0
C480 C 0.69235 0.1581 0.33089 0.0
C481 C 0.67801 0.14618 0.42853 0.0
N482 N 0.66305 0.12929 0.39271 0.0
H483 H 0.65587 0.12495 0.31542 0.0
H484 H 0.67237 0.14274 0.4665 0.0
H485 H 0.67918 0.10291 0.31718 0.0
H486 H 0.66732 0.06254 0.44964 0.0
O487 O 0.62629 0.07942 0.3384 0.0
O488 O 0.61561 0.05448 0.40272 0.0
O489 O 0.64859 0.09599 0.48381 0.0
C490 C 0.61395 0.05594 0.35485 0.0
H491 H 0.56213 0.09372 0.48113 0.0
H492 H 0.714 0.08857 0.3227 0.0
H493 H 0.71475 0.17905 0.44647 0.0
H494 H 0.69747 0.16192 0.29215 0.0
Co495 Co 0.89079 0.59048 0.82513 0.0
C496 C 0.83475 0.57297 0.84583 0.0
C497 C 0.84856 0.59206 0.77602 0.0
C498 C 0.82296 0.58468 0.78036 0.0
N499 N 0.85608 0.5847 0.81672 0.0
N500 N 0.81417 0.57266 0.82404 0.0
H501 H 0.83433 0.56515 0.88207 0.0
H502 H 0.86099 0.6024 0.74526 0.0
C503 C 0.90281 0.57299 0.72299 0.0
O504 O 0.91464 0.56317 0.74788 0.0
N505 N 0.92553 0.59685 0.83166 0.0
C506 C 0.93607 0.58759 0.86363 0.0
C507 C 0.95957 0.59284 0.84544 0.0
C508 C 0.94357 0.60914 0.79695 0.0
N509 N 0.96348 0.60475 0.80124 0.0
C510 C 0.87985 0.54762 0.88813 0.0
C511 C 0.86932 0.51218 0.81408 0.0
C512 C 0.87776 0.50834 0.86001 0.0
C513 C 0.88107 0.52539 0.89831 0.0
C514 C 0.86839 0.53487 0.80566 0.0
N515 N 0.87711 0.55376 0.84072 0.0
H516 H 0.88437 0.56134 0.91757 0.0
H517 H 0.86234 0.53784 0.77 0.0
H518 H 0.92782 0.57792 0.898 0.0
H519 H 0.94105 0.61999 0.76807 0.0
O520 O 0.89263 0.60363 0.89325 0.0
O521 O 0.90503 0.62857 0.82879 0.0
O522 O 0.89225 0.58409 0.74773 0.0
C523 C 0.90328 0.62703 0.87706 0.0
H524 H 0.81169 0.5884 0.75394 0.0
H525 H 0.97266 0.58816 0.86388 0.0
H526 H 0.86501 0.49858 0.78431 0.0
H527 H 0.88648 0.52258 0.93495 0.0
Co528 Co 0.42451 0.30127 0.82097 0.0
C529 C 0.44657 0.26669 0.8429 0.0
C530 C 0.42794 0.25944 0.77229 0.0
C531 C 0.43642 0.24214 0.77906 0.0
N532 N 0.43427 0.27494 0.81206 0.0
N533 N 0.44812 0.2466 0.82331 0.0
H534 H 0.45371 0.27477 0.87909 0.0
H535 H 0.41734 0.26027 0.74078 0.0
C536 C 0.43289 0.32976 0.71976 0.0
O537 O 0.43587 0.34966 0.74508 0.0
N538 N 0.41404 0.32666 0.82973 0.0
C539 C 0.42771 0.35046 0.849 0.0
C540 C 0.41275 0.36157 0.84953 0.0
C541 C 0.39066 0.32367 0.81903 0.0
N542 N 0.38942 0.34467 0.83141 0.0
C543 C 0.46857 0.33404 0.88223 0.0
C544 C 0.49983 0.36604 0.80808 0.0
C545 C 0.50539 0.37484 0.85706 0.0
C546 C 0.49032 0.35773 0.89452 0.0
C547 C 0.47793 0.34219 0.79746 0.0
N548 N 0.46106 0.32762 0.83398 0.0
H549 H 0.45632 0.32234 0.91196 0.0
H550 H 0.47436 0.3363 0.75958 0.0
H551 H 0.44723 0.35979 0.86146 0.0
H552 H 0.37479 0.30649 0.80353 0.0
O553 O 0.41316 0.28971 0.88993 0.0
O554 O 0.3873 0.27412 0.82734 0.0
O555 O 0.42857 0.30905 0.7436 0.0
C556 C 0.38966 0.27496 0.87547 0.0
H557 H 0.43384 0.22708 0.7537 0.0
H558 H 0.41844 0.38064 0.86308 0.0
H559 H 0.51165 0.37804 0.778 0.0
H560 H 0.49432 0.36332 0.93299 0.0
Co561 Co 0.72223 0.13314 0.82753 0.0
C562 C 0.759 0.18927 0.83979 0.0
C563 C 0.76855 0.17307 0.77788 0.0
C564 C 0.78645 0.19889 0.7807 0.0
N565 N 0.75137 0.16702 0.81483 0.0
N566 N 0.78038 0.20904 0.81941 0.0
H567 H 0.7494 0.19091 0.87238 0.0
H568 H 0.7682 0.15956 0.75097 0.0
C569 C 0.69228 0.1154 0.72546 0.0
O570 O 0.67063 0.10331 0.7504 0.0
N571 N 0.69363 0.09984 0.84122 0.0
C572 C 0.67662 0.09155 0.87927 0.0
C573 C 0.66139 0.06539 0.87613 0.0
C574 C 0.6891 0.07872 0.81673 0.0
N575 N 0.66927 0.05776 0.8364 0.0
C576 C 0.69234 0.14917 0.88638 0.0
C577 C 0.66421 0.15212 0.80872 0.0
C578 C 0.65352 0.14765 0.85629 0.0
C579 C 0.66876 0.14812 0.8959 0.0
C580 C 0.68785 0.15306 0.80122 0.0
N581 N 0.6998 0.14812 0.83898 0.0
H582 H 0.70279 0.14742 0.91715 0.0
H583 H 0.69547 0.15612 0.76462 0.0
H584 H 0.67589 0.10296 0.90921 0.0
H585 H 0.70057 0.07862 0.78596 0.0
O586 O 0.73462 0.13354 0.89609 0.0
O587 O 0.74524 0.11794 0.83377 0.0
O588 O 0.71388 0.12816 0.74987 0.0
C589 C 0.74626 0.12125 0.88161 0.0
H590 H 0.80288 0.2094 0.75659 0.0
H591 H 0.64599 0.05292 0.90094 0.0
H592 H 0.65366 0.15321 0.77729 0.0
H593 H 0.66163 0.14566 0.9335 0.0
Co594 Co 0.42672 0.12975 0.32464 0.0
C595 C 0.44025 0.18464 0.33612 0.0
C596 C 0.42477 0.16948 0.26442 0.0
C597 C 0.43093 0.19485 0.2661 0.0
N598 N 0.43071 0.16305 0.30811 0.0
N599 N 0.44063 0.2044 0.3111 0.0
H600 H 0.44662 0.18584 0.37393 0.0
H601 H 0.41635 0.1566 0.23341 0.0
C602 C 0.4426 0.11283 0.22478 0.0
O603 O 0.45435 0.10326 0.25049 0.0
N604 N 0.42303 0.09718 0.3429 0.0
C605 C 0.42944 0.09117 0.38681 0.0
C606 C 0.42443 0.06636 0.38529 0.0
C607 C 0.41257 0.0754 0.31651 0.0
N608 N 0.41387 0.05672 0.34119 0.0
C609 C 0.47191 0.14711 0.38624 0.0
C610 C 0.50437 0.14965 0.31123 0.0
C611 C 0.50964 0.14507 0.35948 0.0
C612 C 0.49412 0.14577 0.39771 0.0
C613 C 0.48195 0.15093 0.30176 0.0
N614 N 0.4642 0.14588 0.33827 0.0
H615 H 0.45944 0.14612 0.41607 0.0
H616 H 0.47824 0.15417 0.26445 0.0
H617 H 0.43616 0.1033 0.41899 0.0
H618 H 0.4037 0.07304 0.28075 0.0
O619 O 0.41294 0.13078 0.39165 0.0
O620 O 0.38854 0.11391 0.32735 0.0
O621 O 0.43152 0.12375 0.24832 0.0
C622 C 0.38949 0.11806 0.37487 0.0
H623 H 0.42808 0.20542 0.23681 0.0
H624 H 0.42727 0.05583 0.41469 0.0
H625 H 0.51665 0.15075 0.28075 0.0
H626 H 0.4981 0.14353 0.43584 0.0
Co627 Co 0.89295 0.29635 0.31878 0.0
C628 C 0.83625 0.26062 0.32808 0.0
C629 C 0.85196 0.2528 0.26329 0.0
C630 C 0.8261 0.23475 0.26649 0.0
N631 N 0.85834 0.26926 0.30154 0.0
N632 N 0.81626 0.23972 0.30715 0.0
H633 H 0.8349 0.26864 0.36295 0.0
H634 H 0.86537 0.25339 0.23575 0.0
C635 C 0.88929 0.3099 0.20772 0.0
O636 O 0.86621 0.30581 0.21905 0.0
N637 N 0.92599 0.32279 0.33929 0.0
C638 C 0.93036 0.33445 0.38382 0.0
C639 C 0.95435 0.35558 0.38362 0.0
C640 C 0.94744 0.33657 0.31271 0.0
N641 N 0.96479 0.35672 0.33906 0.0
C642 C 0.87067 0.32341 0.37104 0.0
C643 C 0.89429 0.36685 0.31235 0.0
C644 C 0.88437 0.36874 0.35781 0.0
C645 C 0.8717 0.3464 0.38691 0.0
C646 C 0.89378 0.34417 0.29902 0.0
N647 N 0.88217 0.32246 0.32776 0.0
H648 H 0.86316 0.30739 0.39631 0.0
H649 H 0.90588 0.34583 0.2686 0.0
H650 H 0.91648 0.32881 0.41353 0.0
H651 H 0.95013 0.33248 0.27495 0.0
O652 O 0.8887 0.28193 0.38721 0.0
O653 O 0.90484 0.27091 0.32615 0.0
O654 O 0.90238 0.30658 0.24256 0.0
C655 C 0.90003 0.2692 0.37348 0.0
H656 H 0.81548 0.21872 0.24171 0.0
H657 H 0.96322 0.36952 0.41299 0.0
H658 H 0.90492 0.38374 0.28943 0.0
H659 H 0.86423 0.34715 0.423 0.0
Co660 Co 0.71571 0.58376 0.333 0.0
C661 C 0.75357 0.56591 0.35473 0.0
C662 C 0.75556 0.57876 0.27992 0.0
C663 C 0.77326 0.57072 0.28539 0.0
N664 N 0.74308 0.57569 0.32312 0.0
N665 N 0.77205 0.56263 0.33223 0.0
H666 H 0.74796 0.56141 0.39311 0.0
H667 H 0.75219 0.58653 0.24658 0.0
C668 C 0.6826 0.56665 0.23651 0.0
O669 O 0.66264 0.55843 0.26617 0.0
N670 N 0.68923 0.59238 0.34138 0.0
C671 C 0.66947 0.58453 0.37368 0.0
C672 C 0.65567 0.59632 0.36168 0.0
C673 C 0.68777 0.60948 0.31192 0.0
N674 N 0.6674 0.61195 0.32301 0.0
C675 C 0.68241 0.54187 0.39764 0.0
C676 C 0.65778 0.50587 0.3245 0.0
C677 C 0.64507 0.50266 0.36984 0.0
C678 C 0.65862 0.51996 0.40791 0.0
C679 C 0.68151 0.52836 0.31581 0.0
N680 N 0.69153 0.54755 0.35025 0.0
H681 H 0.69171 0.55585 0.42667 0.0
H682 H 0.6907 0.53111 0.28019 0.0
H683 H 0.6653 0.57197 0.40477 0.0
H684 H 0.70145 0.61996 0.2828 0.0
O685 O 0.72863 0.59801 0.40028 0.0
O686 O 0.74127 0.62148 0.33406 0.0
O687 O 0.7055 0.57685 0.25641 0.0
C688 C 0.74199 0.62107 0.38237 0.0
H689 H 0.78639 0.57115 0.25732 0.0
H690 H 0.63885 0.59429 0.38078 0.0
H691 H 0.64865 0.49193 0.29524 0.0
H692 H 0.65004 0.51762 0.44422 0.0
Co693 Co 0.47008 0.09167 0.9032 0.0
C694 C 0.52643 0.11195 0.88429 0.0
C695 C 0.51247 0.08943 0.95064 0.0
C696 C 0.53822 0.09735 0.9455 0.0
N697 N 0.50503 0.09856 0.91251 0.0
N698 N 0.54701 0.11152 0.90402 0.0
H699 H 0.52689 0.12141 0.84998 0.0
H700 H 0.49988 0.07747 0.97991 0.0
C701 C 0.45586 0.10717 1.00557 0.0
O702 O 0.44394 0.11685 0.98056 0.0
N703 N 0.43513 0.08409 0.89471 0.0
C704 C 0.42449 0.09206 0.86034 0.0
C705 C 0.40048 0.08612 0.87631 0.0
C706 C 0.4167 0.07169 0.92861 0.0
N707 N 0.3963 0.075 0.92137 0.0
C708 C 0.47987 0.13538 0.84278 0.0
C709 C 0.48992 0.16968 0.91887 0.0
C710 C 0.48174 0.17434 0.87338 0.0
C711 C 0.47846 0.15772 0.83415 0.0
C712 C 0.49096 0.1469 0.92577 0.0
N713 N 0.48266 0.12856 0.8896 0.0
H714 H 0.47602 0.12229 0.8124 0.0
H715 H 0.49698 0.14348 0.9611 0.0
H716 H 0.43309 0.10146 0.82596 0.0
H717 H 0.41922 0.06152 0.95875 0.0
O718 O 0.46975 0.07939 0.83477 0.0
O719 O 0.45713 0.0538 0.89811 0.0
O720 O 0.46727 0.09685 0.98087 0.0
C721 C 0.45954 0.0558 0.84998 0.0
H722 H 0.54961 0.09274 0.96993 0.0
H723 H 0.38728 0.09006 0.85617 0.0
H724 H 0.49427 0.18289 0.94936 0.0
H725 H 0.47335 0.16116 0.79773 0.0
Co726 Co 0.93426 0.3821 0.90086 0.0
C727 C 0.91534 0.41907 0.88889 0.0
C728 C 0.93746 0.42622 0.95532 0.0
C729 C 0.92954 0.44418 0.95188 0.0
N730 N 0.92856 0.4105 0.91588 0.0
N731 N 0.91562 0.43963 0.91023 0.0
H732 H 0.90597 0.41067 0.85417 0.0
H733 H 0.94908 0.42485 0.98433 0.0
C734 C 0.91437 0.34695 0.99656 0.0
O735 O 0.9035 0.32744 0.96617 0.0
N736 N 0.93989 0.35417 0.88343 0.0
C737 C 0.93708 0.34365 0.83796 0.0
C738 C 0.94232 0.32403 0.84031 0.0
C739 C 0.94876 0.34203 0.91198 0.0
N740 N 0.94964 0.32322 0.88673 0.0
C741 C 0.89102 0.35212 0.83612 0.0
C742 C 0.85483 0.32819 0.9094 0.0
C743 C 0.85083 0.3158 0.86353 0.0
C744 C 0.86832 0.32914 0.82546 0.0
C745 C 0.87827 0.35096 0.91857 0.0
N746 N 0.89741 0.36042 0.88381 0.0
H747 H 0.90433 0.3621 0.80647 0.0
H748 H 0.88172 0.35972 0.95469 0.0
H749 H 0.93263 0.3502 0.80441 0.0
H750 H 0.95451 0.34673 0.95016 0.0
O751 O 0.94876 0.39745 0.8348 0.0
O752 O 0.97246 0.40536 0.90026 0.0
O753 O 0.92719 0.36999 0.97717 0.0
C754 C 0.97198 0.40861 0.85255 0.0
H755 H 0.93382 0.45957 0.97774 0.0
H756 H 0.94157 0.31175 0.81025 0.0
H757 H 0.84074 0.31939 0.93863 0.0
H758 H 0.86524 0.32114 0.78855 0.0
Co759 Co 0.63857 0.55518 0.91368 0.0
C760 C 0.60039 0.49901 0.89888 0.0
C761 C 0.59199 0.51459 0.96309 0.0
C762 C 0.57293 0.48925 0.9578 0.0
N763 N 0.60946 0.52076 0.92655 0.0
N764 N 0.5782 0.47942 0.91755 0.0
H765 H 0.60912 0.49765 0.86489 0.0
H766 H 0.59267 0.52782 0.991 0.0
C767 C 0.64798 0.54724 1.02456 0.0
O768 O 0.64289 0.52413 1.01127 0.0
N769 N 0.66715 0.58813 0.89793 0.0
C770 C 0.68143 0.59266 0.85647 0.0
C771 C 0.70267 0.61651 0.8596 0.0
C772 C 0.67967 0.60935 0.9257 0.0
N773 N 0.70142 0.62679 0.90291 0.0
C774 C 0.66503 0.53147 0.86332 0.0
C775 C 0.70691 0.55237 0.9262 0.0
C776 C 0.7096 0.543 0.88077 0.0
C777 C 0.68797 0.53165 0.84952 0.0
C778 C 0.68447 0.55288 0.93734 0.0
N779 N 0.66352 0.54266 0.90652 0.0
H780 H 0.64974 0.52505 0.83656 0.0
H781 H 0.68597 0.56484 0.96783 0.0
H782 H 0.67707 0.57919 0.82651 0.0
H783 H 0.67345 0.61184 0.96183 0.0
O784 O 0.62666 0.55392 0.84398 0.0
O785 O 0.61465 0.56908 0.90521 0.0
O786 O 0.64649 0.56189 0.99079 0.0
C787 C 0.61389 0.56525 0.85768 0.0
H788 H 0.55606 0.47898 0.98101 0.0
H789 H 0.71813 0.62551 0.83285 0.0
H790 H 0.72326 0.56203 0.95075 0.0
H791 H 0.68937 0.52467 0.81336 0.0
Co792 Co 0.60142 0.88715 0.7456 0.0
C793 C 0.57943 0.83014 0.72994 0.0
C794 C 0.59188 0.84212 0.80432 0.0
C795 C 0.58373 0.81634 0.80054 0.0
N796 N 0.58867 0.85087 0.76055 0.0
N797 N 0.57587 0.80874 0.75389 0.0
H798 H 0.57679 0.83093 0.69057 0.0
H799 H 0.60112 0.85395 0.8362 0.0
C800 C 0.57948 0.88532 0.85161 0.0
O801 O 0.55805 0.86564 0.83548 0.0
N802 N 0.61453 0.92225 0.72948 0.0
C803 C 0.61028 0.9317 0.68758 0.0
C804 C 0.62169 0.95787 0.69235 0.0
C805 C 0.62884 0.94234 0.75843 0.0
N806 N 0.63291 0.96412 0.73713 0.0
C807 C 0.54981 0.8657 0.70154 0.0
C808 C 0.53885 0.90019 0.74857 0.0
C809 C 0.52164 0.88385 0.71315 0.0
C810 C 0.52708 0.86615 0.68967 0.0
C811 C 0.56125 0.89953 0.75831 0.0
N812 N 0.56664 0.88225 0.73584 0.0
H813 H 0.55443 0.85305 0.68126 0.0
H814 H 0.57497 0.91407 0.78261 0.0
H815 H 0.59863 0.92023 0.65699 0.0
H816 H 0.63521 0.94102 0.79512 0.0
O817 O 0.61096 0.88328 0.67692 0.0
O818 O 0.63705 0.89321 0.73915 0.0
O819 O 0.59935 0.89528 0.8219 0.0
C820 C 0.63444 0.89094 0.69115 0.0
H821 H 0.58493 0.80438 0.82909 0.0
H822 H 0.62036 0.97103 0.66687 0.0
H823 H 0.53575 0.91455 0.76658 0.0
H824 H 0.51448 0.85359 0.66108 0.0
Co825 Co 0.13219 0.716 0.73769 0.0
C826 C 0.18857 0.75364 0.73229 0.0
C827 C 0.17038 0.76137 0.79318 0.0
C828 C 0.19579 0.7807 0.79068 0.0
N829 N 0.16584 0.74419 0.75696 0.0
N830 N 0.2072 0.77582 0.75245 0.0
H831 H 0.19121 0.7453 0.69895 0.0
H832 H 0.15593 0.76046 0.81846 0.0
C833 C 0.1331 0.70388 0.85116 0.0
O834 O 0.15775 0.71182 0.84651 0.0
N835 N 0.09994 0.68868 0.71604 0.0
C836 C 0.09608 0.67476 0.67443 0.0
C837 C 0.07092 0.65562 0.67314 0.0
C838 C 0.07724 0.67826 0.7393 0.0
N839 N 0.05952 0.65796 0.71402 0.0
C840 C 0.15656 0.69006 0.68898 0.0
C841 C 0.13464 0.64749 0.75001 0.0
C842 C 0.14411 0.64519 0.70435 0.0
C843 C 0.1561 0.66719 0.67418 0.0
C844 C 0.13447 0.66997 0.76221 0.0
N845 N 0.14483 0.69111 0.73189 0.0
H846 H 0.16361 0.70576 0.66298 0.0
H847 H 0.12278 0.66829 0.79317 0.0
H848 H 0.11067 0.67785 0.64749 0.0
H849 H 0.07381 0.68497 0.77411 0.0
O850 O 0.13765 0.73011 0.66921 0.0
O851 O 0.1189 0.74016 0.72662 0.0
O852 O 0.12088 0.70538 0.81268 0.0
C853 C 0.12511 0.74205 0.67992 0.0
H854 H 0.20498 0.79756 0.814 0.0
H855 H 0.06181 0.64076 0.64541 0.0
H856 H 0.12477 0.63093 0.77404 0.0
H857 H 0.16341 0.66619 0.63807 0.0
Co858 Co 0.31086 0.42282 0.73636 0.0
C859 C 0.27563 0.44377 0.70489 0.0
C860 C 0.26311 0.41908 0.76845 0.0
C861 C 0.24571 0.42718 0.7601 0.0
N862 N 0.28195 0.42929 0.73419 0.0
N863 N 0.25344 0.44274 0.72041 0.0
H864 H 0.28687 0.45475 0.67337 0.0
H865 H 0.26221 0.40656 0.79803 0.0
C866 C 0.33685 0.45036 0.83672 0.0
O867 O 0.35832 0.46318 0.81163 0.0
N868 N 0.33904 0.4151 0.74268 0.0
C869 C 0.3679 0.42726 0.70379 0.0
C870 C 0.3963 0.43122 0.75248 0.0
C871 C 0.34491 0.41042 0.80642 0.0
N872 N 0.37881 0.41992 0.81185 0.0
C873 C 0.34766 0.46089 0.67041 0.0
C874 C 0.36347 0.50316 0.73056 0.0
C875 C 0.37981 0.50432 0.69191 0.0
C876 C 0.37063 0.48345 0.65954 0.0
C877 C 0.34028 0.47999 0.73957 0.0
N878 N 0.33491 0.45823 0.71387 0.0
H879 H 0.34149 0.44472 0.64588 0.0
H880 H 0.32825 0.47895 0.77034 0.0
H881 H 0.3696 0.43134 0.66466 0.0
H882 H 0.33015 0.39945 0.8333 0.0
O883 O 0.3018 0.40632 0.6704 0.0
O884 O 0.28594 0.3849 0.73852 0.0
O885 O 0.31608 0.43398 0.81282 0.0
C886 C 0.28692 0.38412 0.69018 0.0
H887 H 0.22853 0.42201 0.78158 0.0
H888 H 0.4152 0.4341 0.74394 0.0
H889 H 0.36924 0.51935 0.75515 0.0
H890 H 0.38194 0.48396 0.62778 0.0
Co891 Co 0.56076 0.93095 0.15842 0.0
C892 C 0.50401 0.91132 0.17534 0.0
C893 C 0.51872 0.93438 0.11 0.0
C894 C 0.49305 0.92706 0.115 0.0
N895 N 0.52564 0.92417 0.14718 0.0
N896 N 0.48377 0.91255 0.15599 0.0
H897 H 0.50305 0.90192 0.20986 0.0
H898 H 0.53163 0.94671 0.08145 0.0
C899 C 0.55179 0.91138 0.04775 0.0
O900 O 0.5273 0.89623 0.0578 0.0
N901 N 0.59511 0.93758 0.1704 0.0
C902 C 0.60234 0.928 0.20807 0.0
C903 C 0.62371 0.92678 0.19382 0.0
C904 C 0.61256 0.94276 0.13473 0.0
N905 N 0.62916 0.93453 0.14622 0.0
C906 C 0.53798 0.88159 0.21031 0.0
C907 C 0.56093 0.86145 0.15001 0.0
C908 C 0.5498 0.8488 0.19403 0.0
C909 C 0.53766 0.85874 0.22417 0.0
C910 C 0.56129 0.88415 0.13825 0.0
N911 N 0.54978 0.89424 0.16753 0.0
H912 H 0.53097 0.89028 0.23641 0.0
H913 H 0.57355 0.89476 0.10794 0.0
H914 H 0.59126 0.91969 0.24135 0.0
H915 H 0.61206 0.95116 0.09982 0.0
O916 O 0.55937 0.94145 0.2276 0.0
O917 O 0.57345 0.96848 0.16646 0.0
O918 O 0.56633 0.92764 0.08147 0.0
C919 C 0.57007 0.96541 0.21428 0.0
H920 H 0.48213 0.93248 0.09104 0.0
H921 H 0.63354 0.91983 0.21693 0.0
H922 H 0.57136 0.85502 0.12667 0.0
H923 H 0.5296 0.84996 0.25956 0.0
Co924 Co 0.09322 0.6373 0.15914 0.0
C925 C 0.11273 0.60034 0.16413 0.0
C926 C 0.08268 0.58884 0.11046 0.0
C927 C 0.08927 0.56987 0.11394 0.0
N928 N 0.09764 0.60819 0.14132 0.0
N929 N 0.10815 0.57707 0.14767 0.0
H930 H 0.12591 0.61083 0.19378 0.0
H931 H 0.06735 0.58812 0.08833 0.0
C932 C 0.10348 0.64678 0.0417 0.0
O933 O 0.10997 0.629 0.03703 0.0
N934 N 0.089 0.666 0.17838 0.0
C935 C 0.09685 0.68006 0.22036 0.0
C936 C 0.09357 0.70097 0.21559 0.0
C937 C 0.08001 0.67802 0.14959 0.0
N938 N 0.0828 0.69942 0.17131 0.0
C939 C 0.13946 0.66641 0.21705 0.0
C940 C 0.17031 0.69495 0.13929 0.0
C941 C 0.17669 0.70534 0.18697 0.0
C942 C 0.16197 0.68989 0.22655 0.0
C943 C 0.1476 0.67143 0.13173 0.0
N944 N 0.13079 0.65922 0.16976 0.0
H945 H 0.12757 0.65552 0.24792 0.0
H946 H 0.14315 0.66417 0.09479 0.0
H947 H 0.10476 0.67595 0.25238 0.0
H948 H 0.07216 0.67175 0.11296 0.0
O949 O 0.08182 0.6221 0.2262 0.0
O950 O 0.05508 0.61454 0.16624 0.0
O951 O 0.09663 0.65078 0.08508 0.0
C952 C 0.0578 0.61111 0.21306 0.0
H953 H 0.08016 0.55167 0.09464 0.0
H954 H 0.09869 0.71617 0.24235 0.0
H955 H 0.18191 0.70563 0.10781 0.0
H956 H 0.16679 0.69669 0.26425 0.0
Co957 Co 0.38326 0.46336 0.15463 0.0
C958 C 0.41953 0.51999 0.16843 0.0
C959 C 0.42715 0.50518 0.10216 0.0
C960 C 0.44528 0.53085 0.10616 0.0
N961 N 0.41071 0.49832 0.14073 0.0
N962 N 0.44048 0.54017 0.14768 0.0
H963 H 0.41159 0.5209 0.20377 0.0
H964 H 0.42642 0.4922 0.07363 0.0
C965 C 0.37123 0.47079 0.0464 0.0
O966 O 0.37445 0.49299 0.06166 0.0
N967 N 0.3565 0.42959 0.17083 0.0
C968 C 0.34261 0.42367 0.21307 0.0
C969 C 0.32357 0.39855 0.21102 0.0
C970 C 0.34615 0.40806 0.14376 0.0
N971 N 0.32603 0.38902 0.16769 0.0
C972 C 0.35525 0.48539 0.20562 0.0
C973 C 0.31256 0.4613 0.14501 0.0
C974 C 0.3101 0.47175 0.18921 0.0
C975 C 0.33201 0.48455 0.21947 0.0
C976 C 0.33524 0.46138 0.13413 0.0
N977 N 0.35671 0.47353 0.16336 0.0
H978 H 0.37102 0.49317 0.23146 0.0
H979 H 0.33387 0.44865 0.10517 0.0
H980 H 0.34578 0.43694 0.24286 0.0
H981 H 0.35312 0.40626 0.10788 0.0
O982 O 0.3961 0.46535 0.22354 0.0
O983 O 0.40876 0.45165 0.16073 0.0
O984 O 0.37473 0.45663 0.07825 0.0
C985 C 0.40939 0.45479 0.20849 0.0
H986 H 0.46127 0.54172 0.08126 0.0
H987 H 0.30905 0.38801 0.23882 0.0
H988 H 0.29597 0.45042 0.12152 0.0
H989 H 0.3307 0.49229 0.25485 0.0
Co990 Co 0.09938 0.46566 0.6582 0.0
C991 C 0.11487 0.52119 0.67029 0.0
C992 C 0.09483 0.50507 0.60227 0.0
C993 C 0.10146 0.53056 0.60414 0.0
N994 N 0.10328 0.49913 0.64352 0.0
N995 N 0.11405 0.54074 0.64678 0.0
H996 H 0.12343 0.52286 0.70624 0.0
H997 H 0.08431 0.49172 0.57291 0.0
C998 C 0.10963 0.44684 0.55534 0.0
O999 O 0.12 0.43511 0.57872 0.0
N1000 N 0.09574 0.43285 0.67397 0.0
C1001 C 0.10486 0.4267 0.71428 0.0
C1002 C 0.09582 0.40087 0.71453 0.0
C1003 C 0.08054 0.41049 0.65113 0.0
N1004 N 0.08082 0.39099 0.67472 0.0
C1005 C 0.1473 0.48329 0.7117 0.0
C1006 C 0.17576 0.48376 0.63095 0.0
C1007 C 0.18325 0.47998 0.67782 0.0
C1008 C 0.16977 0.48172 0.71885 0.0
C1009 C 0.15315 0.48516 0.62581 0.0
N1010 N 0.13733 0.48127 0.6654 0.0
H1011 H 0.13626 0.48284 0.74374 0.0
H1012 H 0.14785 0.48775 0.58945 0.0
H1013 H 0.1156 0.43932 0.74408 0.0
H1014 H 0.06879 0.40835 0.61924 0.0
O1015 O 0.0885 0.46726 0.72765 0.0
O1016 O 0.06137 0.45032 0.66734 0.0
O1017 O 0.10095 0.45931 0.58112 0.0
C1018 C 0.06435 0.45476 0.71477 0.0
H1019 H 0.09689 0.54078 0.57674 0.0
H1020 H 0.09894 0.38993 0.7427 0.0
H1021 H 0.18642 0.48406 0.59829 0.0
H1022 H 0.17547 0.48005 0.75599 0.0
Co1023 Co 0.56218 0.63515 0.65588 0.0
C1024 C 0.50559 0.59818 0.66716 0.0
C1025 C 0.52147 0.59074 0.6022 0.0
C1026 C 0.49571 0.57249 0.60527 0.0
N1027 N 0.52767 0.60718 0.64045 0.0
N1028 N 0.48574 0.57719 0.64603 0.0
H1029 H 0.50409 0.60609 0.70205 0.0
H1030 H 0.53494 0.59155 0.57457 0.0
C1031 C 0.55612 0.64644 0.54537 0.0
O1032 O 0.53325 0.64243 0.55822 0.0
N1033 N 0.5954 0.66261 0.67414 0.0
C1034 C 0.59979 0.67582 0.71686 0.0
C1035 C 0.62331 0.69761 0.71416 0.0
C1036 C 0.61654 0.67613 0.64639 0.0
N1037 N 0.63375 0.69756 0.67017 0.0
C1038 C 0.53856 0.66154 0.70636 0.0
C1039 C 0.56173 0.70473 0.64688 0.0
C1040 C 0.55092 0.70642 0.69143 0.0
C1041 C 0.53854 0.68419 0.72093 0.0
C1042 C 0.56201 0.6823 0.63461 0.0
N1043 N 0.55062 0.66073 0.66377 0.0
H1044 H 0.53128 0.64571 0.73206 0.0
H1045 H 0.57435 0.68396 0.60452 0.0
H1046 H 0.58609 0.6708 0.74674 0.0
H1047 H 0.61907 0.6709 0.6094 0.0
O1048 O 0.55906 0.62186 0.72484 0.0
O1049 O 0.57482 0.61036 0.66366 0.0
O1050 O 0.57015 0.64406 0.57936 0.0
C1051 C 0.57026 0.60901 0.71104 0.0
H1052 H 0.48524 0.55649 0.58037 0.0
H1053 H 0.63188 0.71269 0.74162 0.0
H1054 H 0.57219 0.72157 0.62377 0.0
H1055 H 0.53047 0.68484 0.75642 0.0
Co1056 Co 0.38704 0.92907 0.65974 0.0
C1057 C 0.42465 0.91068 0.68064 0.0
C1058 C 0.42101 0.9164 0.60344 0.0
C1059 C 0.43871 0.90844 0.60846 0.0
N1060 N 0.41183 0.91757 0.6484 0.0
N1061 N 0.44116 0.90494 0.65681 0.0
H1062 H 0.42261 0.91063 0.72041 0.0
H1063 H 0.4162 0.92204 0.56905 0.0
C1064 C 0.35445 0.91282 0.56002 0.0
O1065 O 0.33344 0.90452 0.58674 0.0
N1066 N 0.36331 0.94114 0.6702 0.0
C1067 C 0.35107 0.94186 0.71175 0.0
C1068 C 0.33681 0.95337 0.70072 0.0
C1069 C 0.35776 0.9536 0.63591 0.0
N1070 N 0.34104 0.96034 0.65285 0.0
C1071 C 0.35031 0.88933 0.72449 0.0
C1072 C 0.32455 0.85238 0.65331 0.0
C1073 C 0.31251 0.84971 0.6993 0.0
C1074 C 0.3264 0.86783 0.73595 0.0
C1075 C 0.34867 0.87423 0.64363 0.0
N1076 N 0.35994 0.89374 0.67734 0.0
H1077 H 0.36043 0.90313 0.75325 0.0
H1078 H 0.35745 0.87593 0.6081 0.0
H1079 H 0.35246 0.93499 0.74772 0.0
H1080 H 0.36595 0.95795 0.5992 0.0
O1081 O 0.40113 0.94231 0.72694 0.0
O1082 O 0.41519 0.96584 0.66086 0.0
O1083 O 0.37664 0.92281 0.58282 0.0
C1084 C 0.41593 0.96516 0.7092 0.0
H1085 H 0.44997 0.90661 0.57902 0.0
H1086 H 0.32364 0.95555 0.72502 0.0
H1087 H 0.31499 0.83822 0.62455 0.0
H1088 H 0.31836 0.86596 0.77265 0.0
Co1089 Co 0.12824 0.42279 0.23189 0.0
C1090 C 0.18431 0.4393 0.21498 0.0
C1091 C 0.16816 0.41768 0.28164 0.0
C1092 C 0.19379 0.42504 0.27994 0.0
N1093 N 0.16209 0.42667 0.24132 0.0
N1094 N 0.20403 0.43857 0.23817 0.0
H1095 H 0.18604 0.44878 0.18002 0.0
H1096 H 0.15477 0.40656 0.31065 0.0
C1097 C 0.11971 0.4427 0.33512 0.0
O1098 O 0.11115 0.45599 0.31135 0.0
N1099 N 0.09428 0.4187 0.22438 0.0
C1100 C 0.08423 0.42542 0.18668 0.0
C1101 C 0.0615 0.42354 0.20199 0.0
C1102 C 0.07674 0.41148 0.2607 0.0
N1103 N 0.05752 0.41624 0.24995 0.0
C1104 C 0.14014 0.46574 0.16812 0.0
C1105 C 0.15261 0.50187 0.24153 0.0
C1106 C 0.14351 0.50569 0.19624 0.0
C1107 C 0.13918 0.48818 0.15816 0.0
C1108 C 0.15346 0.47904 0.24952 0.0
N1109 N 0.14355 0.45976 0.21523 0.0
H1110 H 0.13525 0.45189 0.13879 0.0
H1111 H 0.16006 0.47611 0.28463 0.0
H1112 H 0.09237 0.43112 0.15021 0.0
H1113 H 0.07831 0.40304 0.29473 0.0
O1114 O 0.12584 0.40862 0.16406 0.0
O1115 O 0.1124 0.3844 0.22927 0.0
O1116 O 0.12733 0.42933 0.30927 0.0
C1117 C 0.11459 0.38531 0.18107 0.0
H1118 H 0.20416 0.42043 0.30695 0.0
H1119 H 0.04882 0.42662 0.17841 0.0
H1120 H 0.15761 0.51564 0.27123 0.0
H1121 H 0.13332 0.4909 0.12188 0.0
Co1122 Co 0.59452 0.71364 0.23786 0.0
C1123 C 0.57839 0.75327 0.22197 0.0
C1124 C 0.59043 0.75228 0.29627 0.0
C1125 C 0.58315 0.7706 0.29383 0.0
N1126 N 0.58737 0.74125 0.2515 0.0
N1127 N 0.5756 0.77129 0.24731 0.0
H1128 H 0.57432 0.74921 0.183 0.0
H1129 H 0.59782 0.74762 0.32863 0.0
C1130 C 0.57705 0.67914 0.33254 0.0
O1131 O 0.56889 0.6595 0.30229 0.0
N1132 N 0.60237 0.68684 0.22603 0.0
C1133 C 0.59238 0.66638 0.19527 0.0
C1134 C 0.60398 0.65215 0.20483 0.0
C1135 C 0.62056 0.68532 0.25193 0.0
N1136 N 0.62158 0.6642 0.24045 0.0
C1137 C 0.55197 0.68296 0.17239 0.0
C1138 C 0.51581 0.65729 0.24519 0.0
C1139 C 0.51194 0.64586 0.19841 0.0
C1140 C 0.52938 0.66001 0.16076 0.0
C1141 C 0.53889 0.68021 0.25518 0.0
N1142 N 0.55803 0.69064 0.22047 0.0
H1143 H 0.5661 0.69248 0.14357 0.0
H1144 H 0.54198 0.68844 0.29173 0.0
H1145 H 0.57793 0.66155 0.16759 0.0
H1146 H 0.63215 0.69894 0.28018 0.0
O1147 O 0.60897 0.72768 0.1712 0.0
O1148 O 0.63234 0.73844 0.23739 0.0
O1149 O 0.5875 0.70216 0.31351 0.0
C1150 C 0.63211 0.74002 0.18924 0.0
H1151 H 0.58394 0.78303 0.32364 0.0
H1152 H 0.59991 0.63437 0.18701 0.0
H1153 H 0.50185 0.64775 0.27439 0.0
H1154 H 0.52663 0.6524 0.12355 0.0
Co1155 Co 0.30581 0.88794 0.23812 0.0
C1156 C 0.26933 0.83192 0.21615 0.0
C1157 C 0.26133 0.84485 0.28456 0.0
C1158 C 0.24339 0.81931 0.27843 0.0
N1159 N 0.27766 0.85285 0.2458 0.0
N1160 N 0.24839 0.81112 0.23565 0.0
H1161 H 0.27809 0.83195 0.18107 0.0
H1162 H 0.2622 0.85693 0.31504 0.0
C1163 C 0.33486 0.89787 0.34098 0.0
O1164 O 0.35674 0.90798 0.31656 0.0
N1165 N 0.33335 0.92295 0.23087 0.0
C1166 C 0.34785 0.93491 0.19092 0.0
C1167 C 0.36779 0.95826 0.20547 0.0
C1168 C 0.34329 0.94018 0.26748 0.0
N1169 N 0.36588 0.96085 0.25474 0.0
C1170 C 0.34118 0.88147 0.17563 0.0
C1171 C 0.36318 0.86663 0.24827 0.0
C1172 C 0.37729 0.87758 0.20465 0.0
C1173 C 0.36513 0.88337 0.16687 0.0
C1174 C 0.3391 0.86515 0.25536 0.0
N1175 N 0.33015 0.87572 0.2216 0.0
H1176 H 0.33257 0.8867 0.14629 0.0
H1177 H 0.32876 0.85738 0.28953 0.0
H1178 H 0.34424 0.92762 0.15361 0.0
H1179 H 0.33366 0.93745 0.3024 0.0
O1180 O 0.29405 0.88973 0.17029 0.0
O1181 O 0.28097 0.901 0.23593 0.0
O1182 O 0.31349 0.88905 0.31576 0.0
C1183 C 0.28055 0.89946 0.18764 0.0
H1184 H 0.22759 0.80763 0.30316 0.0
H1185 H 0.38224 0.97238 0.18111 0.0
H1186 H 0.37128 0.8606 0.27751 0.0
H1187 H 0.37468 0.89061 0.13164 0.0
C1188 C 0.24335 0.08264 1.0175 0.0
C1189 C 0.21717 0.0635 1.02552 0.0
C1190 C 0.20859 0.09687 0.05858 0.0
C1191 C 0.23444 0.11593 0.04889 0.0
N1192 N 0.27511 0.12808 1.01124 0.0
N1193 N 0.17392 0.05293 0.04622 0.0
C1194 C 0.25134 0.10906 1.02568 0.0
C1195 C 0.19948 0.07082 0.04382 0.0
N1196 N 0.26092 0.07546 1.0045 0.0
N1197 N 0.19308 0.10366 0.08363 0.0
H1198 H 0.16679 0.03381 0.03602 0.0
H1199 H 0.15961 0.05732 0.05473 0.0
H1200 H 0.19917 0.12263 0.09356 0.0
H1201 H 0.17488 0.09052 0.09694 0.0
H1202 H 0.28068 0.08805 1.00356 0.0
H1203 H 0.25605 0.05644 0.99838 0.0
H1204 H 0.28768 0.12492 0.98965 0.0
H1205 H 0.28134 0.14746 1.01733 0.0
C1206 C 0.90356 0.14002 0.0441 0.0
C1207 C 0.89682 0.11641 0.06749 0.0
C1208 C 0.94226 0.12707 0.06357 0.0
C1209 C 0.94942 0.15194 0.04532 0.0
N1210 N 0.93706 0.18261 1.01904 0.0
N1211 N 0.90916 0.08735 0.10139 0.0
C1212 C 0.93004 0.15846 0.03545 0.0
C1213 C 0.91603 0.10979 0.0772 0.0
N1214 N 0.88436 0.14448 1.02947 0.0
N1215 N 0.96059 0.12001 0.06767 0.0
H1216 H 0.89011 0.07433 0.11073 0.0
H1217 H 0.92222 0.08215 0.11444 0.0
H1218 H 0.9799 0.13239 0.0591 0.0
H1219 H 0.95655 0.10149 0.07623 0.0
H1220 H 0.88729 0.1601 1.00809 0.0
H1221 H 0.86497 0.13127 0.0356 0.0
H1222 H 0.92447 0.18975 1.01675 0.0
H1223 H 0.95595 0.19617 1.00982 0.0
C1224 C 0.85869 0.77578 1.01668 0.0
C1225 C 0.86452 0.80092 1.03122 0.0
C1226 C 0.90603 0.80857 0.06485 0.0
C1227 C 0.90024 0.7836 0.04989 0.0
N1228 N 0.87388 0.74544 1.00337 0.0
N1229 N 0.8954 0.84277 0.06137 0.0
C1230 C 0.87741 0.76791 1.02307 0.0
C1231 C 0.88882 0.81784 0.05272 0.0
N1232 N 0.83477 0.75899 0.99873 0.0
N1233 N 0.92745 0.82288 0.09278 0.0
H1234 H 0.88307 0.84987 0.05347 0.0
H1235 H 0.91359 0.85685 0.07279 0.0
H1236 H 0.94041 0.81666 0.10132 0.0
H1237 H 0.93168 0.84011 0.1097 0.0
H1238 H 0.82813 0.73956 0.99294 0.0
H1239 H 0.82077 0.76409 0.9924 0.0
H1240 H 0.85897 0.73396 0.97941 0.0
H1241 H 0.88732 0.7394 1.00779 0.0
C1242 C 0.08271 0.20563 0.52244 0.0
C1243 C 0.07464 0.22423 0.52494 0.0
C1244 C 0.11937 0.25827 0.50923 0.0
C1245 C 0.12695 0.23961 0.50196 0.0
N1246 N 0.11501 0.19521 0.49406 0.0
N1247 N 0.08464 0.26788 0.5104 0.0
C1248 C 0.10837 0.21316 0.50662 0.0
C1249 C 0.09284 0.25046 0.51535 0.0
N1250 N 0.06616 0.18094 0.53666 0.0
N1251 N 0.13781 0.28358 0.51194 0.0
H1252 H 0.06533 0.26286 0.51305 0.0
H1253 H 0.09655 0.28672 0.49874 0.0
H1254 H 0.1574 0.28975 0.50916 0.0
H1255 H 0.13391 0.29804 0.52199 0.0
H1256 H 0.07167 0.16714 0.54081 0.0
H1257 H 0.04732 0.17475 0.54798 0.0
H1258 H 0.10181 0.17566 0.49165 0.0
H1259 H 0.13346 0.20014 0.48213 0.0
C1260 C 0.78158 0.85162 0.55734 0.0
C1261 C 0.80634 0.85581 0.54333 0.0
C1262 C 0.81693 0.89797 0.50862 0.0
C1263 C 0.79194 0.89332 0.52087 0.0
N1264 N 0.75189 0.86824 0.56322 0.0
N1265 N 0.84908 0.88448 0.51352 0.0
C1266 C 0.7748 0.87095 0.54763 0.0
C1267 C 0.82456 0.8796 0.52172 0.0
N1268 N 0.76424 0.82868 0.5783 0.0
N1269 N 0.83292 0.91964 0.48259 0.0
H1270 H 0.85495 0.87125 0.52192 0.0
H1271 H 0.86407 0.90204 0.50146 0.0
H1272 H 0.82801 0.93364 0.47452 0.0
H1273 H 0.85047 0.92349 0.46756 0.0
H1274 H 0.74499 0.82287 0.58461 0.0
H1275 H 0.76894 0.81475 0.5882 0.0
H1276 H 0.73895 0.85357 0.58617 0.0
H1277 H 0.74646 0.88188 0.5555 0.0
C1278 C 0.11465 0.91543 0.50132 0.0
C1279 C 0.12216 0.89651 0.50392 0.0
C1280 C 0.16585 0.9297 0.52818 0.0
C1281 C 0.15827 0.94871 0.52644 0.0
N1282 N 0.12454 0.95914 0.51949 0.0
N1283 N 0.15291 0.88429 0.52808 0.0
C1284 C 0.13232 0.94137 0.51553 0.0
C1285 C 0.1472 0.90333 0.52007 0.0
N1286 N 0.09085 0.90862 0.48336 0.0
N1287 N 0.19112 0.937 0.5358 0.0
H1288 H 0.13953 0.86496 0.52224 0.0
H1289 H 0.1699 0.88725 0.54425 0.0
H1290 H 0.20526 0.95593 0.5428 0.0
H1291 H 0.19855 0.9247 0.53204 0.0
H1292 H 0.08479 0.92169 0.47526 0.0
H1293 H 0.07749 0.88971 0.4741 0.0
H1294 H 0.10546 0.9547 0.51683 0.0
H1295 H 0.13709 0.97825 0.52897 0.0
C1296 C 0.76267 0.89877 1.01201 0.0
C1297 C 0.78152 0.89136 1.00585 0.0
C1298 C 0.81533 0.93612 1.02233 0.0
C1299 C 0.79645 0.94388 1.02349 0.0
N1300 N 0.75251 0.93301 1.00847 0.0
N1301 N 0.82608 0.90352 0.998 0.0
C1302 C 0.77021 0.92526 1.01507 0.0
C1303 C 0.80798 0.91021 1.00918 0.0
N1304 N 0.73742 0.88024 1.01633 0.0
N1305 N 0.84009 0.95323 0.03521 0.0
H1306 H 0.82124 0.88482 0.98847 0.0
H1307 H 0.84561 0.91677 0.99466 0.0
H1308 H 0.84612 0.97229 0.04422 0.0
H1309 H 0.85414 0.94811 0.04028 0.0
H1310 H 0.72286 0.88416 1.02564 0.0
H1311 H 0.73149 0.8607 1.0158 0.0
H1312 H 0.73359 0.92063 0.99779 0.0
H1313 H 0.75741 0.95227 1.00858 0.0
C1314 C 0.11759 0.86935 1.02826 0.0
C1315 C 0.124 0.8912 0.99883 0.0
C1316 C 0.07832 0.87929 0.99606 0.0
C1317 C 0.07162 0.856 1.02107 0.0
N1318 N 0.0845 0.82779 0.05878 0.0
N1319 N 0.11119 0.91681 0.9522 0.0
C1320 C 0.09121 0.85084 0.03702 0.0
C1321 C 0.10453 0.89624 0.98242 0.0
N1322 N 0.13698 0.86656 0.04809 0.0
N1323 N 0.05959 0.88523 0.98588 0.0
H1324 H 0.13026 0.92971 0.9428 0.0
H1325 H 0.09796 0.92039 0.93433 0.0
H1326 H 0.0403 0.87308 0.99499 0.0
H1327 H 0.06326 0.90284 0.97177 0.0
H1328 H 0.13411 0.85249 0.07374 0.0
H1329 H 0.15634 0.87974 0.04154 0.0
H1330 H 0.09747 0.82151 0.06627 0.0
H1331 H 0.06553 0.81404 0.067 0.0
C1332 C 0.14315 0.24128 0.05218 0.0
C1333 C 0.12125 0.22533 1.02326 0.0
C1334 C 0.13536 0.19316 1.01804 0.0
C1335 C 0.15878 0.21045 0.04199 0.0
N1336 N 0.1857 0.25155 0.08049 0.0
N1337 N 0.09633 0.1866 0.97726 0.0
C1338 C 0.16271 0.23456 0.05931 0.0
C1339 C 0.11719 0.20123 1.00632 0.0
N1340 N 0.14516 0.26303 0.07249 0.0
N1341 N 0.13052 0.16897 1.00683 0.0
H1342 H 0.08243 0.19176 0.96989 0.0
H1343 H 0.0933 0.17013 0.95877 0.0
H1344 H 0.14355 0.16272 1.01458 0.0
H1345 H 0.11304 0.15454 0.99322 0.0
H1346 H 0.15927 0.27465 0.0977 0.0
H1347 H 0.1313 0.26842 0.06675 0.0
H1348 H 0.19113 0.27047 0.08902 0.0
H1349 H 0.20021 0.24719 0.08727 0.0
C1350 C 0.93175 0.76409 0.55202 0.0
C1351 C 0.95011 0.79039 0.54365 0.0
C1352 C 0.91619 0.80143 0.55959 0.0
C1353 C 0.8976 0.77496 0.56331 0.0
N1354 N 0.88673 0.73105 0.55294 0.0
N1355 N 0.95903 0.83386 0.53279 0.0
C1356 C 0.90519 0.75632 0.55648 0.0
C1357 C 0.94212 0.80905 0.54565 0.0
N1358 N 0.93982 0.74658 0.5572 0.0
N1359 N 0.90922 0.81925 0.57109 0.0
H1360 H 0.97812 0.8401 0.52327 0.0
H1361 H 0.95372 0.8478 0.52831 0.0
H1362 H 0.89044 0.81417 0.58092 0.0
H1363 H 0.92229 0.8388 0.57423 0.0
H1364 H 0.9277 0.72761 0.56786 0.0
H1365 H 0.95915 0.7516 0.55571 0.0
H1366 H 0.89067 0.71658 0.54317 0.0
H1367 H 0.86712 0.72496 0.55475 0.0
C1368 C 0.19736 0.12867 0.54385 0.0
C1369 C 0.21537 0.15446 0.53087 0.0
C1370 C 0.25095 0.14542 0.54179 0.0
C1371 C 0.23303 0.11978 0.55512 0.0
N1372 N 0.18946 0.08574 0.56413 0.0
N1373 N 0.25893 0.18675 0.51106 0.0
C1374 C 0.20625 0.11102 0.55441 0.0
C1375 C 0.24208 0.1626 0.52785 0.0
N1376 N 0.17186 0.12137 0.54718 0.0
N1377 N 0.27662 0.15332 0.54362 0.0
H1378 H 0.25331 0.20002 0.50155 0.0
H1379 H 0.27827 0.19342 0.50375 0.0
H1380 H 0.28346 0.1407 0.55047 0.0
H1381 H 0.29123 0.17231 0.54026 0.0
H1382 H 0.15767 0.10364 0.5603 0.0
H1383 H 0.16484 0.13362 0.5382 0.0
H1384 H 0.1696 0.07709 0.5608 0.0
H1385 H 0.19563 0.07284 0.57341 0.0
C1386 C 0.87814 0.10991 0.52658 0.0
C1387 C 0.90058 0.11529 0.5532 0.0
C1388 C 0.88703 0.06915 0.55269 0.0
C1389 C 0.8632 0.06346 0.53108 0.0
N1390 N 0.83569 0.07812 0.49695 0.0
N1391 N 0.92678 0.10083 0.59248 0.0
C1392 C 0.8588 0.08384 0.51731 0.0
C1393 C 0.90525 0.09508 0.56589 0.0
N1394 N 0.87543 0.12999 0.51059 0.0
N1395 N 0.89217 0.04969 0.56047 0.0
H1396 H 0.94069 0.1197 0.60078 0.0
H1397 H 0.93047 0.08716 0.60797 0.0
H1398 H 0.87905 0.03059 0.552 0.0
H1399 H 0.90989 0.05247 0.57212 0.0
H1400 H 0.86075 0.12811 0.48755 0.0
H1401 H 0.88913 0.14905 0.51791 0.0
H1402 H 0.82986 0.09153 0.49075 0.0
H1403 H 0.82159 0.05947 0.48783 0.0
C1404 C 0.87277 0.40308 0.38049 0.0
C1405 C 0.89139 0.39507 0.37675 0.0
C1406 C 0.92565 0.43954 0.39294 0.0
C1407 C 0.90701 0.44707 0.40096 0.0
N1408 N 0.86266 0.43548 0.40938 0.0
N1409 N 0.93516 0.40484 0.38961 0.0
C1410 C 0.88047 0.42867 0.39657 0.0
C1411 C 0.91774 0.41312 0.38597 0.0
N1412 N 0.84791 0.38654 0.36722 0.0
N1413 N 0.95102 0.45792 0.39041 0.0
H1414 H 0.92997 0.38558 0.38632 0.0
H1415 H 0.95413 0.41656 0.40079 0.0
H1416 H 0.95726 0.47744 0.39418 0.0
H1417 H 0.9655 0.45413 0.37972 0.0
H1418 H 0.83399 0.39197 0.36398 0.0
H1419 H 0.84163 0.3677 0.3561 0.0
H1420 H 0.84303 0.42247 0.412 0.0
H1421 H 0.8678 0.45399 0.421 0.0
C1422 C 0.59834 0.49012 0.35879 0.0
C1423 C 0.61684 0.48361 0.37575 0.0
C1424 C 0.58189 0.44402 0.41303 0.0
C1425 C 0.56353 0.45038 0.39534 0.0
N1426 N 0.55326 0.47654 0.34434 0.0
N1427 N 0.62612 0.45259 0.41187 0.0
C1428 C 0.57154 0.47253 0.36582 0.0
C1429 C 0.60853 0.45993 0.40065 0.0
N1430 N 0.60644 0.51368 0.33804 0.0
N1431 N 0.57378 0.4232 0.44325 0.0
H1432 H 0.64565 0.46394 0.40365 0.0
H1433 H 0.62125 0.43462 0.42596 0.0
H1434 H 0.55438 0.41104 0.45159 0.0
H1435 H 0.58613 0.4187 0.462 0.0
H1436 H 0.59425 0.52084 0.32992 0.0
H1437 H 0.62576 0.52704 0.33191 0.0
H1438 H 0.55733 0.49083 0.31837 0.0
H1439 H 0.53361 0.46406 0.34961 0.0
C1440 C 0.55401 0.15472 0.38881 0.0
C1441 C 0.52941 0.137 0.36937 0.0
C1442 C 0.54174 0.10337 0.36929 0.0
C1443 C 0.56519 0.12033 0.39308 0.0
N1444 N 0.59327 0.16145 0.42896 0.0
N1445 N 0.49866 0.09353 0.34611 0.0
C1446 C 0.57127 0.1459 0.40348 0.0
C1447 C 0.52304 0.11109 0.3606 0.0
N1448 N 0.56099 0.18005 0.39244 0.0
N1449 N 0.53755 0.07983 0.35468 0.0
H1450 H 0.48447 0.09833 0.33931 0.0
H1451 H 0.49181 0.07387 0.3443 0.0
H1452 H 0.55081 0.07374 0.36129 0.0
H1453 H 0.52216 0.06726 0.33271 0.0
H1454 H 0.5794 0.19449 0.40184 0.0
H1455 H 0.54873 0.18693 0.38257 0.0
H1456 H 0.59786 0.17942 0.44274 0.0
H1457 H 0.60639 0.15562 0.4387 0.0
C1458 C 0.75522 0.57604 0.85805 0.0
C1459 C 0.7363 0.54969 0.8641 0.0
C1460 C 0.7696 0.5381 0.84524 0.0
C1461 C 0.78864 0.56449 0.84354 0.0
N1462 N 0.8005 0.60834 0.85859 0.0
N1463 N 0.72632 0.50568 0.87006 0.0
C1464 C 0.78163 0.58333 0.85323 0.0
C1465 C 0.74373 0.53068 0.85952 0.0
N1466 N 0.74778 0.59409 0.85484 0.0
N1467 N 0.77611 0.52021 0.8315 0.0
H1468 H 0.7073 0.49965 0.87979 0.0
H1469 H 0.73113 0.49129 0.87242 0.0
H1470 H 0.79487 0.52518 0.82172 0.0
H1471 H 0.76276 0.50084 0.82676 0.0
H1472 H 0.76029 0.61324 0.84586 0.0
H1473 H 0.72856 0.58935 0.85596 0.0
H1474 H 0.79699 0.62282 0.8704 0.0
H1475 H 0.82 0.61405 0.85608 0.0
C1476 C 0.45013 0.1907 0.88282 0.0
C1477 C 0.47477 0.19516 0.8672 0.0
C1478 C 0.48317 0.23594 0.82869 0.0
C1479 C 0.45861 0.23141 0.84416 0.0
N1480 N 0.42033 0.20701 0.8921 0.0
N1481 N 0.51646 0.22398 0.83297 0.0
C1482 C 0.44272 0.20961 0.87353 0.0
C1483 C 0.49183 0.21846 0.84252 0.0
N1484 N 0.43329 0.16776 0.9044 0.0
N1485 N 0.49781 0.25667 0.79926 0.0
H1486 H 0.52321 0.21157 0.84246 0.0
H1487 H 0.53074 0.24149 0.81907 0.0
H1488 H 0.49232 0.27018 0.79066 0.0
H1489 H 0.51466 0.25996 0.78171 0.0
H1490 H 0.41416 0.16198 0.91202 0.0
H1491 H 0.43799 0.15362 0.91231 0.0
H1492 H 0.4087 0.19307 0.91765 0.0
H1493 H 0.41428 0.22018 0.88452 0.0
C1494 C 0.83498 0.26844 0.87605 0.0
C1495 C 0.83059 0.28802 0.85688 0.0
C1496 C 0.79122 0.25471 0.8162 0.0
C1497 C 0.79541 0.23535 0.83644 0.0
N1498 N 0.8182 0.223 0.89233 0.0
N1499 N 0.80254 0.29971 0.81531 0.0
C1500 C 0.81628 0.24207 0.86877 0.0
C1501 C 0.80803 0.28108 0.82895 0.0
N1502 N 0.85777 0.27505 0.89868 0.0
N1503 N 0.77152 0.24776 0.78357 0.0
H1504 H 0.81452 0.31904 0.82401 0.0
H1505 H 0.78539 0.29593 0.79868 0.0
H1506 H 0.75859 0.22858 0.77521 0.0
H1507 H 0.7687 0.26078 0.76307 0.0
H1508 H 0.86342 0.26188 0.90864 0.0
H1509 H 0.87212 0.29402 0.90391 0.0
H1510 H 0.83128 0.2263 0.92048 0.0
H1511 H 0.80514 0.20359 0.88644 0.0
C1512 C 0.47384 0.2484 0.33821 0.0
C1513 C 0.44775 0.23 0.32846 0.0
C1514 C 0.4362 0.26375 0.3372 0.0
C1515 C 0.46173 0.28166 0.35185 0.0
N1516 N 0.5044 0.29031 0.37184 0.0
N1517 N 0.4034 0.21901 0.32872 0.0
C1518 C 0.48047 0.27377 0.35392 0.0
C1519 C 0.42876 0.23742 0.33081 0.0
N1520 N 0.49238 0.2419 0.33051 0.0
N1521 N 0.41919 0.27206 0.32773 0.0
H1522 H 0.39738 0.1995 0.32577 0.0
H1523 H 0.38846 0.22279 0.33508 0.0
H1524 H 0.42397 0.29121 0.33138 0.0
H1525 H 0.40133 0.2605 0.31145 0.0
H1526 H 0.512 0.25502 0.33197 0.0
H1527 H 0.48806 0.22362 0.31888 0.0
H1528 H 0.5181 0.28495 0.37929 0.0
H1529 H 0.50998 0.30908 0.38234 0.0
C1530 C 0.77146 0.23144 0.31728 0.0
C1531 C 0.79024 0.22413 0.32607 0.0
C1532 C 0.75676 0.18315 0.36139 0.0
C1533 C 0.73802 0.19086 0.35461 0.0
N1534 N 0.72819 0.22384 0.33293 0.0
N1535 N 0.80206 0.19549 0.36389 0.0
C1536 C 0.7456 0.2155 0.33451 0.0
C1537 C 0.7832 0.20069 0.35044 0.0
N1538 N 0.77832 0.25329 0.29096 0.0
N1539 N 0.74913 0.15864 0.37637 0.0
H1540 H 0.82145 0.20796 0.35599 0.0
H1541 H 0.79889 0.18011 0.38628 0.0
H1542 H 0.7301 0.14524 0.3849 0.0
H1543 H 0.76124 0.15087 0.37685 0.0
H1544 H 0.76528 0.25865 0.27847 0.0
H1545 H 0.79714 0.26539 0.2789 0.0
H1546 H 0.73291 0.24244 0.32329 0.0
H1547 H 0.7092 0.2126 0.34488 0.0
C1548 C 0.83285 0.56469 0.37595 0.0
C1549 C 0.82557 0.53828 0.37208 0.0
C1550 C 0.78105 0.52766 0.3533 0.0
C1551 C 0.78895 0.55418 0.35267 0.0
N1552 N 0.82175 0.5981 0.36245 0.0
N1553 N 0.79309 0.49442 0.35743 0.0
C1554 C 0.81467 0.57269 0.36431 0.0
C1555 C 0.79964 0.51965 0.36131 0.0
N1556 N 0.85715 0.5821 0.39121 0.0
N1557 N 0.75567 0.51028 0.34582 0.0
H1558 H 0.8061 0.48805 0.36424 0.0
H1559 H 0.77521 0.47984 0.34584 0.0
H1560 H 0.74207 0.5159 0.33913 0.0
H1561 H 0.74769 0.49051 0.34891 0.0
H1562 H 0.86314 0.60115 0.3996 0.0
H1563 H 0.87124 0.57721 0.39842 0.0
H1564 H 0.84065 0.61309 0.36453 0.0
H1565 H 0.80847 0.60426 0.35683 0.0
C1566 C 0.57999 0.10548 0.86093 0.0
C1567 C 0.57291 0.12204 0.88473 0.0
C1568 C 0.61817 0.15681 0.8828 0.0
C1569 C 0.62561 0.13936 0.86391 0.0
N1570 N 0.61386 0.09622 0.83935 0.0
N1571 N 0.58474 0.16274 0.92155 0.0
C1572 C 0.60653 0.11348 0.8537 0.0
C1573 C 0.59188 0.14762 0.89614 0.0
N1574 N 0.56106 0.08202 0.84511 0.0
N1575 N 0.63621 0.18218 0.88731 0.0
H1576 H 0.56558 0.15659 0.93047 0.0
H1577 H 0.5977 0.18064 0.93605 0.0
H1578 H 0.65554 0.18933 0.87833 0.0
H1579 H 0.63185 0.19641 0.89643 0.0
H1580 H 0.56441 0.06971 0.82324 0.0
H1581 H 0.54158 0.0758 0.85049 0.0
H1582 H 0.60125 0.07655 0.83667 0.0
H1583 H 0.63299 0.10119 0.83343 0.0
C1584 C 0.91878 0.47548 0.85969 0.0
C1585 C 0.90446 0.45467 0.89225 0.0
C1586 C 0.87024 0.46607 0.89574 0.0
C1587 C 0.88578 0.48847 0.86727 0.0
N1588 N 0.92594 0.51585 0.82537 0.0
N1589 N 0.8673 0.4302 0.94312 0.0
C1590 C 0.91023 0.49337 0.84955 0.0
C1591 C 0.88028 0.44991 0.91052 0.0
N1592 N 0.94071 0.4781 0.8387 0.0
N1593 N 0.84574 0.46011 0.90785 0.0
H1594 H 0.87382 0.41762 0.95276 0.0
H1595 H 0.85091 0.427 0.96235 0.0
H1596 H 0.83798 0.47156 0.89746 0.0
H1597 H 0.83246 0.44306 0.92487 0.0
H1598 H 0.9508 0.49099 0.81043 0.0
H1599 H 0.94787 0.46594 0.84731 0.0
H1600 H 0.94498 0.52193 0.81623 0.0
H1601 H 0.92058 0.52946 0.8171 0.0
C1602 C 0.53999 0.44872 0.86899 0.0
C1603 C 0.56182 0.4538 0.89743 0.0
C1604 C 0.54885 0.40781 0.89305 0.0
C1605 C 0.52556 0.40227 0.86897 0.0
N1606 N 0.49768 0.41748 0.83871 0.0
N1607 N 0.58639 0.43839 0.94007 0.0
C1608 C 0.5209 0.42281 0.85782 0.0
C1609 C 0.56612 0.43336 0.91017 0.0
N1610 N 0.53777 0.46894 0.85219 0.0
N1611 N 0.55475 0.38873 0.89839 0.0
H1612 H 0.59954 0.45694 0.9518 0.0
H1613 H 0.58935 0.42423 0.95555 0.0
H1614 H 0.54265 0.37 0.88618 0.0
H1615 H 0.5724 0.39179 0.91124 0.0
H1616 H 0.52389 0.46716 0.82701 0.0
H1617 H 0.55134 0.48791 0.86041 0.0
H1618 H 0.49186 0.43106 0.8351 0.0
H1619 H 0.48326 0.39899 0.82966 0.0
C1620 C 0.58233 0.75123 0.72119 0.0
C1621 C 0.55653 0.73252 0.70928 0.0
C1622 C 0.54337 0.76482 0.72573 0.0
C1623 C 0.56941 0.78379 0.73383 0.0
N1624 N 0.61411 0.79641 0.73026 0.0
N1625 N 0.51294 0.72241 0.69393 0.0
C1626 C 0.58899 0.77732 0.72876 0.0
C1627 C 0.53713 0.73958 0.70986 0.0
N1628 N 0.60032 0.74384 0.72717 0.0
N1629 N 0.5246 0.77084 0.73475 0.0
H1630 H 0.5077 0.70379 0.68293 0.0
H1631 H 0.49859 0.72709 0.6885 0.0
H1632 H 0.5288 0.78925 0.74527 0.0
H1633 H 0.50504 0.7574 0.73481 0.0
H1634 H 0.6188 0.75595 0.74041 0.0
H1635 H 0.59601 0.72484 0.72354 0.0
H1636 H 0.62948 0.79358 0.72193 0.0
H1637 H 0.61942 0.81565 0.7352 0.0
C1638 C 0.27952 0.80649 0.73524 0.0
C1639 C 0.28503 0.82909 0.70866 0.0
C1640 C 0.23844 0.81385 0.70404 0.0
C1641 C 0.23322 0.79263 0.73454 0.0
N1642 N 0.24826 0.76917 0.78208 0.0
N1643 N 0.26996 0.85547 0.67084 0.0
C1644 C 0.25366 0.789 0.75064 0.0
C1645 C 0.26448 0.83298 0.69355 0.0
N1646 N 0.29901 0.80161 0.74501 0.0
N1647 N 0.21826 0.81542 0.68472 0.0
H1648 H 0.28861 0.86964 0.66161 0.0
H1649 H 0.25632 0.86093 0.66378 0.0
H1650 H 0.19915 0.80187 0.69252 0.0
H1651 H 0.22022 0.82885 0.65829 0.0
H1652 H 0.29622 0.78449 0.76011 0.0
H1653 H 0.31803 0.8141 0.7346 0.0
H1654 H 0.26221 0.76664 0.79978 0.0
H1655 H 0.22949 0.75588 0.7927 0.0
C1656 C 0.24532 0.4795 0.71398 0.0
C1657 C 0.23904 0.45423 0.70023 0.0
C1658 C 0.1967 0.4461 0.67092 0.0
C1659 C 0.20315 0.47168 0.68345 0.0
N1660 N 0.23534 0.5141 0.70878 0.0
N1661 N 0.21129 0.4153 0.65721 0.0
C1662 C 0.22807 0.48882 0.70244 0.0
C1663 C 0.21552 0.43824 0.67573 0.0
N1664 N 0.26731 0.49413 0.74015 0.0
N1665 N 0.1721 0.42882 0.65707 0.0
H1666 H 0.22481 0.40928 0.66068 0.0
H1667 H 0.19574 0.40347 0.63483 0.0
H1668 H 0.15764 0.43354 0.65369 0.0
H1669 H 0.16537 0.40927 0.65276 0.0
H1670 H 0.2719 0.5116 0.75646 0.0
H1671 H 0.28041 0.48796 0.74776 0.0
H1672 H 0.25395 0.52817 0.71802 0.0
H1673 H 0.22315 0.52136 0.70103 0.0
C1674 C 0.451 0.9188 0.20063 0.0
C1675 C 0.45782 0.9023 0.17554 0.0
C1676 C 0.41212 0.86822 0.17459 0.0
C1677 C 0.40519 0.88491 0.19904 0.0
N1678 N 0.41814 0.92467 0.24199 0.0
N1679 N 0.44616 0.86057 0.14437 0.0
C1680 C 0.42475 0.90976 0.21426 0.0
C1681 C 0.43869 0.87668 0.16461 0.0
N1682 N 0.46976 0.94349 0.20995 0.0
N1683 N 0.39312 0.84458 0.15958 0.0
H1684 H 0.46531 0.86662 0.1357 0.0
H1685 H 0.43393 0.84103 0.13877 0.0
H1686 H 0.37375 0.8376 0.16796 0.0
H1687 H 0.39617 0.83219 0.13743 0.0
H1688 H 0.46627 0.95778 0.22292 0.0
H1689 H 0.48916 0.95003 0.2027 0.0
H1690 H 0.43135 0.94193 0.25838 0.0
H1691 H 0.39918 0.91905 0.25142 0.0
C1692 C 0.10296 0.53923 0.19468 0.0
C1693 C 0.11861 0.56128 0.16567 0.0
C1694 C 0.15278 0.54962 0.16553 0.0
C1695 C 0.13593 0.52602 0.18954 0.0
N1696 N 0.09406 0.49735 0.22404 0.0
N1697 N 0.15778 0.58707 0.12082 0.0
C1698 C 0.11081 0.52066 0.20367 0.0
C1699 C 0.1435 0.5665 0.15084 0.0
N1700 N 0.08071 0.53641 0.21445 0.0
N1701 N 0.17774 0.55596 0.15728 0.0
H1702 H 0.15152 0.59973 0.11016 0.0
H1703 H 0.17495 0.59079 0.10414 0.0
H1704 H 0.18489 0.54393 0.16718 0.0
H1705 H 0.19182 0.5738 0.14424 0.0
H1706 H 0.06935 0.52219 0.23982 0.0
H1707 H 0.07476 0.54983 0.20869 0.0
H1708 H 0.07464 0.49098 0.22991 0.0
H1709 H 0.09915 0.48353 0.23239 0.0
C1710 C 0.48015 0.57242 0.18983 0.0
C1711 C 0.45647 0.56593 0.16697 0.0
C1712 C 0.46712 0.61119 0.17257 0.0
C1713 C 0.49202 0.61813 0.19037 0.0
N1714 N 0.52299 0.60561 0.21401 0.0
N1715 N 0.4274 0.57858 0.1342 0.0
C1716 C 0.49866 0.59874 0.19883 0.0
C1717 C 0.44985 0.58518 0.15816 0.0
N1718 N 0.48462 0.55312 0.20353 0.0
N1719 N 0.45996 0.62947 0.16996 0.0
H1720 H 0.41435 0.55966 0.12438 0.0
H1721 H 0.42227 0.59179 0.12176 0.0
H1722 H 0.47231 0.64861 0.17945 0.0
H1723 H 0.44138 0.62548 0.16181 0.0
H1724 H 0.50031 0.55589 0.22452 0.0
H1725 H 0.47134 0.53381 0.19714 0.0
H1726 H 0.53014 0.59301 0.21532 0.0
H1727 H 0.53676 0.62443 0.22279 0.0
C1728 C 0.11084 0.60004 0.67978 0.0
C1729 C 0.13726 0.61869 0.68653 0.0
C1730 C 0.14868 0.58548 0.6661 0.0
C1731 C 0.1222 0.56658 0.66416 0.0
N1732 N 0.07825 0.55492 0.67903 0.0
N1733 N 0.18124 0.62829 0.69236 0.0
C1734 C 0.10337 0.57367 0.67393 0.0
C1735 C 0.15621 0.61117 0.68132 0.0
N1736 N 0.09289 0.60768 0.67722 0.0
N1737 N 0.16656 0.57904 0.65175 0.0
H1738 H 0.18738 0.64717 0.7029 0.0
H1739 H 0.19554 0.62331 0.6944 0.0
H1740 H 0.16155 0.56046 0.64084 0.0
H1741 H 0.18601 0.59235 0.64726 0.0
H1742 H 0.07375 0.59542 0.66775 0.0
H1743 H 0.09767 0.62686 0.67959 0.0
H1744 H 0.0638 0.55848 0.69104 0.0
H1745 H 0.07237 0.53544 0.67615 0.0
C1746 C 0.42725 0.52126 0.7049 0.0
C1747 C 0.40734 0.52558 0.68745 0.0
C1748 C 0.44025 0.56704 0.65228 0.0
C1749 C 0.45973 0.56119 0.6646 0.0
N1750 N 0.47238 0.53292 0.7013 0.0
N1751 N 0.39447 0.55227 0.6442 0.0
C1752 C 0.45336 0.53842 0.69098 0.0
C1753 C 0.41377 0.5486 0.66155 0.0
N1754 N 0.4211 0.50085 0.73538 0.0
N1755 N 0.44729 0.59033 0.63151 0.0
H1756 H 0.3751 0.5395 0.65158 0.0
H1757 H 0.39738 0.56722 0.62085 0.0
H1758 H 0.46643 0.60369 0.62348 0.0
H1759 H 0.43468 0.59717 0.62519 0.0
H1760 H 0.43461 0.49764 0.75307 0.0
H1761 H 0.40226 0.48797 0.74624 0.0
H1762 H 0.46909 0.51543 0.71531 0.0
H1763 H 0.49169 0.54568 0.69341 0.0
C1764 C 0.45424 0.87593 0.69702 0.0
C1765 C 0.46082 0.90019 0.6767 0.0
C1766 C 0.50622 0.91159 0.67367 0.0
C1767 C 0.50008 0.88814 0.69751 0.0
N1768 N 0.46869 0.84963 0.73901 0.0
N1769 N 0.49332 0.94314 0.65617 0.0
C1770 C 0.47416 0.87072 0.71124 0.0
C1771 C 0.48695 0.91862 0.66832 0.0
N1772 N 0.42892 0.8576 0.70102 0.0
N1773 N 0.53033 0.92681 0.65461 0.0
H1774 H 0.47956 0.94888 0.65339 0.0
H1775 H 0.5122 0.95823 0.65398 0.0
H1776 H 0.54481 0.92203 0.65658 0.0
H1777 H 0.53523 0.94282 0.63265 0.0
H1778 H 0.42268 0.83861 0.71062 0.0
H1779 H 0.41412 0.86112 0.69155 0.0
H1780 H 0.4507 0.83766 0.75463 0.0
H1781 H 0.4827 0.8451 0.74937 0.0
C1782 C 0.27474 0.48266 0.20711 0.0
C1783 C 0.28336 0.46449 0.20597 0.0
C1784 C 0.23863 0.42961 0.2155 0.0
C1785 C 0.23027 0.44769 0.22185 0.0
N1786 N 0.24084 0.49167 0.23101 0.0
N1787 N 0.27389 0.42101 0.2206 0.0
C1788 C 0.24847 0.47435 0.21952 0.0
C1789 C 0.26536 0.43804 0.21368 0.0
N1790 N 0.29139 0.50765 0.19503 0.0
N1791 N 0.22079 0.40426 0.20979 0.0
H1792 H 0.29338 0.4266 0.22138 0.0
H1793 H 0.26186 0.40193 0.23076 0.0
H1794 H 0.20108 0.3977 0.20911 0.0
H1795 H 0.22555 0.39031 0.20043 0.0
H1796 H 0.28567 0.52124 0.19 0.0
H1797 H 0.31072 0.51436 0.18679 0.0
H1798 H 0.25358 0.51126 0.23497 0.0
H1799 H 0.22187 0.48613 0.24015 0.0
C1800 C 0.58068 0.83532 0.22538 0.0
C1801 C 0.55522 0.82817 0.21081 0.0
C1802 C 0.54299 0.7826 0.219 0.0
C1803 C 0.56893 0.78994 0.22948 0.0
N1804 N 0.61327 0.82284 0.23289 0.0
N1805 N 0.51279 0.79501 0.18741 0.0
C1806 C 0.58798 0.81623 0.22971 0.0
C1807 C 0.5365 0.80175 0.20583 0.0
N1808 N 0.59772 0.86038 0.23647 0.0
N1809 N 0.52448 0.75741 0.2234 0.0
H1810 H 0.5073 0.80851 0.17877 0.0
H1811 H 0.4992 0.77629 0.17784 0.0
H1812 H 0.52882 0.74312 0.23237 0.0
H1813 H 0.50486 0.75094 0.22136 0.0
H1814 H 0.6158 0.86651 0.25164 0.0
H1815 H 0.5928 0.87474 0.23511 0.0
H1816 H 0.62842 0.84154 0.2285 0.0
H1817 H 0.61908 0.80913 0.23496 0.0
C1818 C 0.23922 0.76621 0.22496 0.0
C1819 C 0.23273 0.7855 0.2155 0.0
C1820 C 0.18998 0.75248 0.18642 0.0
C1821 C 0.19661 0.73309 0.19481 0.0
N1822 N 0.22882 0.72179 0.21433 0.0
N1823 N 0.20429 0.79807 0.17949 0.0
C1824 C 0.2217 0.74009 0.21167 0.0
C1825 C 0.20881 0.77887 0.19356 0.0
N1826 N 0.26177 0.77288 0.24856 0.0
N1827 N 0.16529 0.74558 0.17386 0.0
H1828 H 0.21775 0.81741 0.18492 0.0
H1829 H 0.18839 0.7951 0.15897 0.0
H1830 H 0.15096 0.72657 0.16832 0.0
H1831 H 0.15837 0.75837 0.17235 0.0
H1832 H 0.26674 0.75967 0.26171 0.0
H1833 H 0.27507 0.79189 0.25731 0.0
H1834 H 0.24748 0.72583 0.22182 0.0
H1835 H 0.21635 0.70258 0.20548 0.0
C1836 C 0.26805 0.24306 0.26062 0.0
C1837 C 0.24529 0.23108 0.23119 0.0
C1838 C 0.22032 0.23042 0.30687 0.0
C1839 C 0.2432 0.24312 0.33562 0.0
N1840 N 0.28938 0.26589 0.33624 0.0
N1841 N 0.19927 0.21282 0.22802 0.0
C1842 C 0.26712 0.25039 0.31133 0.0
C1843 C 0.22138 0.22471 0.25511 0.0
N1844 N 0.29083 0.2476 0.24033 0.0
N1845 N 0.19724 0.2229 0.32953 0.0
H1846 H 0.19836 0.2046 0.19366 0.0
H1847 H 0.18185 0.21113 0.23892 0.0
H1848 H 0.19578 0.22903 0.36476 0.0
H1849 H 0.17943 0.21032 0.31424 0.0
H1850 H 0.30746 0.25313 0.26075 0.0
H1851 H 0.2929 0.24405 0.20344 0.0
H1852 H 0.30762 0.27443 0.32039 0.0
H1853 H 0.28945 0.27241 0.37197 0.0
C1854 C 0.80952 0.0338 0.27602 0.0
C1855 C 0.79074 0.02173 0.23832 0.0
C1856 C 0.7623 0.99044 0.30357 0.0
C1857 C 0.78253 1.00111 0.33934 0.0
N1858 N 0.82808 0.0287 0.35124 0.0
N1859 N 0.74904 0.98627 0.21721 0.0
C1860 C 0.80682 0.02155 0.32287 0.0
C1861 C 0.76702 0.99943 0.2525 0.0
N1862 N 0.82993 0.05781 0.26791 0.0
N1863 N 0.73822 0.97235 0.31849 0.0
H1864 H 0.75091 0.99277 0.18109 0.0
H1865 H 0.7329 0.96837 0.22323 0.0
H1866 H 0.73423 0.96489 0.35419 0.0
H1867 H 0.7219 0.96609 0.29669 0.0
H1868 H 0.84291 0.06868 0.29554 0.0
H1869 H 0.83203 0.0681 0.23554 0.0
H1870 H 0.84667 0.04176 0.3395 0.0
H1871 H 0.82742 0.01896 0.38338 0.0
C1872 C 0.98649 0.76091 0.27033 0.0
C1873 C 0.99863 0.77572 0.2273 0.0
C1874 C 0.03692 0.80355 0.27976 0.0
C1875 C 0.02502 0.78837 0.32282 0.0
N1876 N 0.99025 0.74842 0.35375 0.0
N1877 N 0.03791 0.80813 0.19005 0.0
C1878 C 1.00038 0.7658 0.31632 0.0
C1879 C 0.02463 0.79609 0.23187 0.0
N1880 N 0.96122 0.74218 0.26763 0.0
N1881 N 0.06014 0.8255 0.28468 0.0
H1882 H 0.03016 0.80202 0.15505 0.0
H1883 H 0.05741 0.82172 0.18928 0.0
H1884 H 0.07072 0.83039 0.31737 0.0
H1885 H 0.06844 0.83946 0.2573 0.0
H1886 H 0.94991 0.73305 0.29848 0.0
H1887 H 0.95102 0.7368 0.23449 0.0
H1888 H 0.97369 0.73056 0.35062 0.0
H1889 H 1.00035 0.7504 0.38584 0.0
C1890 C 0.76649 0.75452 0.76182 0.0
C1891 C 0.78881 0.77199 0.73461 0.0
C1892 C 0.80591 0.79668 0.81296 0.0
C1893 C 0.78225 0.78098 0.83866 0.0
N1894 N 0.73808 0.74755 0.832 0.0
N1895 N 0.82879 0.8121 0.73515 0.0
C1896 C 0.76196 0.76077 0.81123 0.0
C1897 C 0.80812 0.79374 0.7606 0.0
N1898 N 0.74987 0.73139 0.74119 0.0
N1899 N 0.82683 0.81441 0.83862 0.0
H1900 H 0.83252 0.80975 0.69857 0.0
H1901 H 0.8415 0.83013 0.74961 0.0
H1902 H 0.82594 0.81874 0.87545 0.0
H1903 H 0.84542 0.82376 0.82411 0.0
H1904 H 0.73495 0.71656 0.76097 0.0
H1905 H 0.75296 0.72605 0.70627 0.0
H1906 H 0.722 0.73394 0.81287 0.0
H1907 H 0.73392 0.75205 0.86678 0.0
C1908 C 0.2699 0.00934 0.74903 0.0
C1909 C 0.25169 0.0141 0.72413 0.0
C1910 C 0.22477 0.9989 0.8005 0.0
C1911 C 0.2443 0.99741 0.8276 0.0
N1912 N 0.28759 1.00476 0.82693 0.0
N1913 N 0.2153 0.02023 0.73441 0.0
C1914 C 0.2675 1.00375 0.8015 0.0
C1915 C 0.23015 0.01085 0.75239 0.0
N1916 N 0.28955 0.00987 0.72249 0.0
N1917 N 0.20057 0.98801 0.81977 0.0
H1918 H 0.22072 0.03185 0.70311 0.0
H1919 H 0.20027 0.01991 0.75447 0.0
H1920 H 0.19548 0.97666 0.85146 0.0
H1921 H 0.18505 0.98697 0.80055 0.0
H1922 H 0.30162 1.00356 0.73643 0.0
H1923 H 0.29288 0.01536 0.68547 0.0
H1924 H 0.30602 0.01228 0.81214 0.0
H1925 H 0.28605 0.99924 0.86385 0.0
C1926 C 0.01282 0.24281 0.75746 0.0
C1927 C 0.99162 0.21846 0.74249 0.0
C1928 C 0.99235 0.20245 0.82711 0.0
C1929 C 1.01155 0.22721 0.84412 0.0
N1930 N 0.03895 0.27181 0.82377 0.0
N1931 N 0.95776 0.17725 0.76967 0.0
C1932 C 0.02164 0.24756 0.80855 0.0
C1933 C 0.98052 0.19903 0.77942 0.0
N1934 N 0.02506 0.26147 0.72277 0.0
N1935 N 0.9861 0.1815 0.85588 0.0
H1936 H 0.94795 0.17432 0.73636 0.0
H1937 H 0.94716 0.16354 0.7965 0.0
H1938 H 0.99547 0.18283 0.88895 0.0
H1939 H 0.97425 0.16268 0.84404 0.0
H1940 H 0.04263 0.2781 0.72849 0.0
H1941 H 0.01797 0.25983 0.68729 0.0
H1942 H 0.04468 0.28812 0.80224 0.0
H1943 H 0.04637 0.27592 0.85945 0.0
C1944 C 0.91855 0.59085 0.58322 0.0
C1945 C 0.91325 0.56703 0.56107 0.0
C1946 C 0.89839 0.54676 0.64415 0.0
C1947 C 0.90269 0.57042 0.66588 0.0
N1948 N 0.91277 0.61407 0.65141 0.0
N1949 N 0.8956 0.52149 0.57145 0.0
C1950 C 0.91128 0.59205 0.63381 0.0
C1951 C 0.90272 0.54487 0.59204 0.0
N1952 N 0.9322 0.61297 0.55659 0.0
N1953 N 0.88984 0.5256 0.67361 0.0
H1954 H 0.90025 0.51922 0.53549 0.0
H1955 H 0.8841 0.50405 0.58914 0.0
H1956 H 0.88217 0.52449 0.70866 0.0
H1957 H 0.89071 0.50928 0.66388 0.0
H1958 H 0.93946 0.63127 0.57147 0.0
H1959 H 0.93884 0.61324 0.52082 0.0
H1960 H 0.91561 0.62928 0.62882 0.0
H1961 H 0.90919 0.61656 0.68805 0.0
C1962 C 0.47211 0.35319 0.60069 0.0
C1963 C 0.45786 0.361 0.56946 0.0
C1964 C 0.42437 0.34459 0.63665 0.0
C1965 C 0.43757 0.33422 0.66372 0.0
N1966 N 0.4705 0.32262 0.66119 0.0
N1967 N 0.42058 0.3664 0.56402 0.0
C1968 C 0.46006 0.33632 0.64199 0.0
C1969 C 0.4339 0.35712 0.58918 0.0
N1970 N 0.49814 0.36421 0.59529 0.0
N1971 N 0.40279 0.34298 0.65739 0.0
H1972 H 0.42904 0.38083 0.53761 0.0
H1973 H 0.40129 0.36045 0.57035 0.0
H1974 H 0.39423 0.33214 0.68912 0.0
H1975 H 0.39362 0.3526 0.64431 0.0
H1976 H 0.50943 0.36024 0.61886 0.0
H1977 H 0.509 0.38072 0.57437 0.0
H1978 H 0.48585 0.32196 0.64445 0.0
H1979 H 0.46175 0.30948 0.68986 0.0
C1980 C 0.68729 0.13229 0.64072 0.0
C1981 C 0.69 0.11359 0.66841 0.0
C1982 C 0.67755 0.08697 0.5914 0.0
C1983 C 0.67189 0.10438 0.5658 0.0
N1984 N 0.66562 0.1407 0.57345 0.0
N1985 N 0.68407 0.07092 0.66943 0.0
C1986 C 0.67502 0.12613 0.59284 0.0
C1987 C 0.684 0.0903 0.64338 0.0
N1988 N 0.69766 0.15657 0.65894 0.0
N1989 N 0.6771 0.06716 0.56592 0.0
H1990 H 0.69028 0.07313 0.70589 0.0
H1991 H 0.67676 0.05236 0.65573 0.0
H1992 H 0.67027 0.06266 0.52995 0.0
H1993 H 0.68452 0.05601 0.57973 0.0
H1994 H 0.69787 0.17162 0.63945 0.0
H1995 H 0.7095 0.16234 0.68989 0.0
H1996 H 0.66547 0.15566 0.59271 0.0
H1997 H 0.65481 0.13544 0.54107 0.0
C1998 C 0.43853 0.08786 0.14453 0.0
C1999 C 0.44426 0.11157 0.1678 0.0
C2000 C 0.45969 0.13263 0.08549 0.0
C2001 C 0.45527 0.10911 0.06277 0.0
N2002 N 0.44404 0.06502 0.07524 0.0
N2003 N 0.46335 0.15737 0.1596 0.0
C2004 C 0.44599 0.08706 0.09387 0.0
C2005 C 0.45544 0.13409 0.13781 0.0
N2006 N 0.42433 0.06552 0.17017 0.0
N2007 N 0.46825 0.15407 0.05687 0.0
H2008 H 0.4593 0.15941 0.19616 0.0
H2009 H 0.47515 0.17489 0.14239 0.0
H2010 H 0.47559 0.15541 1.02146 0.0
H2011 H 0.46754 0.17034 0.06766 0.0
H2012 H 0.41686 0.04734 0.15461 0.0
H2013 H 0.41751 0.06508 0.20583 0.0
H2014 H 0.44064 0.04938 0.09709 0.0
H2015 H 0.44775 0.06291 0.03846 0.0
C2016 C 0.92896 0.35003 0.08978 0.0
C2017 C 0.90935 0.34027 0.05275 0.0
C2018 C 0.88098 0.30721 0.11467 0.0
C2019 C 0.89886 0.31901 0.15387 0.0
N2020 N 0.93994 0.35475 0.17744 0.0
N2021 N 0.8638 0.31325 0.03866 0.0
C2022 C 0.92294 0.34126 0.14095 0.0
C2023 C 0.88464 0.31989 0.06792 0.0
N2024 N 0.95365 0.36701 0.07614 0.0
N2025 N 0.86043 0.28313 0.12131 0.0
H2026 H 0.86497 0.32346 1.00698 0.0
H2027 H 0.84502 0.30022 0.04946 0.0
H2028 H 0.85764 0.27258 0.15361 0.0
H2029 H 0.84809 0.27252 0.09264 0.0
H2030 H 0.96931 0.37269 0.09958 0.0
H2031 H 0.95868 0.37382 0.04008 0.0
H2032 H 0.95637 0.3725 0.1717 0.0
H2033 H 0.93657 0.34897 0.21412 0.0
C2034 C 0.67919 0.57848 0.09363 0.0
C2035 C 0.65652 0.55523 0.07901 0.0
C2036 C 0.65525 0.53885 0.16405 0.0
C2037 C 0.67654 0.5626 0.18037 0.0
N2038 N 0.70566 0.60687 0.16031 0.0
N2039 N 0.61906 0.51711 0.10831 0.0
C2040 C 0.68767 0.58291 0.14489 0.0
C2041 C 0.6435 0.53667 0.11676 0.0
N2042 N 0.69326 0.59627 0.05864 0.0
N2043 N 0.64662 0.51758 0.19304 0.0
H2044 H 0.60918 0.51553 0.07563 0.0
H2045 H 0.60751 0.50444 0.13586 0.0
H2046 H 0.65553 0.51779 0.22598 0.0
H2047 H 0.63294 0.49923 0.18144 0.0
H2048 H 0.71131 0.61204 0.06551 0.0
H2049 H 0.6875 0.59448 1.02208 0.0
H2050 H 0.71217 0.62324 0.13856 0.0
H2051 H 0.71259 0.61073 0.19639 0.0
C2052 C 0.57567 0.92578 0.9628 0.0
C2053 C 0.56272 0.90632 0.99947 0.0
C2054 C 0.5674 0.87565 0.94305 0.0
C2055 C 0.57882 0.89455 0.90506 0.0
N2056 N 0.59721 0.93896 0.88228 0.0
N2057 N 0.54785 0.8625 1.02449 0.0
C2058 C 0.58415 0.92008 0.91632 0.0
C2059 C 0.55908 0.88124 0.98932 0.0
N2060 N 0.57857 0.94951 0.97134 0.0
N2061 N 0.56399 0.85172 0.93409 0.0
H2062 H 0.53854 0.86403 0.05555 0.0
H2063 H 0.54799 0.84529 1.02424 0.0
H2064 H 0.57269 0.8479 0.90438 0.0
H2065 H 0.55259 0.83545 0.95509 0.0
H2066 H 0.58558 0.96434 0.94567 0.0
H2067 H 0.57268 0.95422 1.00412 0.0
H2068 H 0.60389 0.95837 0.88812 0.0
H2069 H 0.60289 0.93538 0.84835 0.0
C2070 C 0.09326 0.65105 0.95063 0.0
C2071 C 0.10627 0.66325 0.9954 0.0
C2072 C 0.13142 0.70376 0.94639 0.0
C2073 C 0.12016 0.69092 0.901 0.0
N2074 N 0.0841 0.65412 0.86402 0.0
N2075 N 0.13765 0.70217 0.03502 0.0
C2076 C 0.09922 0.6651 0.9044 0.0
C2077 C 0.12497 0.69 0.99295 0.0
N2078 N 0.07544 0.62547 0.95197 0.0
N2079 N 0.14738 0.72978 0.94521 0.0
H2080 H 0.1314 0.69413 0.06977 0.0
H2081 H 0.15435 0.72 0.0358 0.0
H2082 H 0.15162 0.74041 0.9126 0.0
H2083 H 0.15446 0.74128 0.97649 0.0
H2084 H 0.06801 0.61407 0.92062 0.0
H2085 H 0.06881 0.61523 0.98497 0.0
H2086 H 0.06692 0.63672 0.86487 0.0
H2087 H 0.08706 0.66366 0.83067 0.0
C2088 C 0.3405 0.43847 0.97874 0.0
C2089 C 0.3619 0.46289 0.99261 0.0
C2090 C 0.35868 0.4791 0.9101 0.0
C2091 C 0.34001 0.45421 0.89324 0.0
N2092 N 0.31247 0.40969 0.91423 0.0
N2093 N 0.39522 0.50403 0.96312 0.0
C2094 C 0.33068 0.43376 0.92845 0.0
C2095 C 0.37197 0.48241 0.95575 0.0
N2096 N 0.32869 0.41988 1.01375 0.0
N2097 N 0.36338 0.50008 0.8827 0.0
H2098 H 0.40657 0.50655 0.9941 0.0
H2099 H 0.40463 0.51783 0.93575 0.0
H2100 H 0.35302 0.49861 0.85075 0.0
H2101 H 0.37508 0.51886 0.89496 0.0
H2102 H 0.31125 0.40311 1.00823 0.0
H2103 H 0.33565 0.42171 0.04939 0.0
H2104 H 0.30793 0.39319 0.9343 0.0
H2105 H 0.30218 0.40615 0.88151 0.0
C2106 C 0.12751 0.46772 0.4169 0.0
C2107 C 0.11931 0.44363 0.39242 0.0
C2108 C 0.10093 0.42209 0.47342 0.0
C2109 C 0.11004 0.44615 0.49818 0.0
N2110 N 0.13247 0.49222 0.49215 0.0
N2111 N 0.10046 0.39776 0.40078 0.0
C2112 C 0.12318 0.46899 0.46927 0.0
C2113 C 0.10688 0.42086 0.42187 0.0
N2114 N 0.13978 0.4898 0.38973 0.0
N2115 N 0.08494 0.40009 0.49873 0.0
H2116 H 0.10263 0.39542 0.36332 0.0
H2117 H 0.09457 0.38098 0.42089 0.0
H2118 H 0.07937 0.40017 0.53527 0.0
H2119 H 0.07498 0.382 0.48257 0.0
H2120 H 0.14248 0.50748 0.40135 0.0
H2121 H 0.1472 0.49047 0.35458 0.0
H2122 H 0.14576 0.50969 0.47652 0.0
H2123 H 0.12718 0.49422 0.52777 0.0
C2124 C 0.59282 0.68413 0.42416 0.0
C2125 C 0.57265 0.67288 0.3885 0.0
C2126 C 0.5459 0.64085 0.45309 0.0
C2127 C 0.56437 0.65411 0.49075 0.0
N2128 N 0.60569 0.69037 0.51064 0.0
N2129 N 0.52758 0.643 0.37511 0.0
C2130 C 0.58797 0.67624 0.47571 0.0
C2131 C 0.54861 0.65193 0.4049 0.0
N2132 N 0.61702 0.70169 0.4087 0.0
N2133 N 0.52589 0.61677 0.4626 0.0
H2134 H 0.52816 0.65111 0.34099 0.0
H2135 H 0.50903 0.62975 0.38673 0.0
H2136 H 0.52381 0.60741 0.49617 0.0
H2137 H 0.51328 0.60493 0.43537 0.0
H2138 H 0.63329 0.70824 0.43078 0.0
H2139 H 0.62125 0.70813 0.3723 0.0
H2140 H 0.62193 0.708 0.50327 0.0
H2141 H 0.60333 0.68511 0.54759 0.0
C2142 C 0.35919 0.89548 0.47439 0.0
C2143 C 0.35092 0.91003 0.50303 0.0
C2144 C 0.32665 0.91108 0.42811 0.0
C2145 C 0.33683 0.89859 0.39827 0.0
N2146 N 0.36373 0.87931 0.39461 0.0
N2147 N 0.32967 0.93513 0.50276 0.0
C2148 C 0.3534 0.89105 0.42213 0.0
C2149 C 0.33526 0.91852 0.47855 0.0
N2150 N 0.37153 0.88453 0.49757 0.0
N2151 N 0.30867 0.9161 0.40846 0.0
H2152 H 0.33576 0.94142 0.53859 0.0
H2153 H 0.32133 0.94477 0.48599 0.0
H2154 H 0.30265 0.91226 0.37188 0.0
H2155 H 0.29804 0.92213 0.42939 0.0
H2156 H 0.37489 0.87073 0.48145 0.0
H2157 H 0.37709 0.888 0.53437 0.0
H2158 H 0.37909 0.87718 0.40621 0.0
H2159 H 0.35734 0.87222 0.35921 0.0
C2160 C 0.34254 0.26754 0.98414 0.0
C2161 C 0.324 0.24075 0.98367 0.0
C2162 C 0.34807 0.23613 0.91164 0.0
C2163 C 0.36667 0.26293 0.91234 0.0
N2164 N 0.38247 0.30362 0.95407 0.0
N2165 N 0.30819 0.19989 0.94363 0.0
C2166 C 0.36409 0.27831 0.95012 0.0
C2167 C 0.32659 0.22525 0.94629 0.0
N2168 N 0.33848 0.28337 1.01465 0.0
N2169 N 0.35189 0.22066 0.87973 0.0
H2170 H 0.29367 0.19094 0.97003 0.0
H2171 H 0.3065 0.18778 0.9146 0.0
H2172 H 0.3673 0.22768 0.85502 0.0
H2173 H 0.34106 0.20073 0.87961 0.0
H2174 H 0.34856 0.3033 1.01224 0.0
H2175 H 0.32354 0.27673 0.04025 0.0
H2176 H 0.38472 0.31478 0.98515 0.0
H2177 H 0.39623 0.31357 0.927 0.0
C2178 C 0.78282 0.11273 0.91195 0.0
C2179 C 0.75747 0.1092 0.91803 0.0
C2180 C 0.7512 0.07881 0.98718 0.0
C2181 C 0.77722 0.0842 0.98441 0.0
N2182 N 0.81878 0.10952 0.9467 0.0
N2183 N 0.71947 0.09143 0.97017 0.0
C2184 C 0.79319 0.10191 0.94713 0.0
C2185 C 0.74245 0.09319 0.95839 0.0
N2186 N 0.79737 0.12679 0.8727 0.0
N2187 N 0.73391 0.0585 1.01502 0.0
H2188 H 0.71112 0.09993 0.94989 0.0
H2189 H 0.7096 0.08319 1.00292 0.0
H2190 H 0.73879 0.04684 0.03519 0.0
H2191 H 0.71412 0.05129 1.01362 0.0
H2192 H 0.81437 0.12748 0.86188 0.0
H2193 H 0.7918 0.13688 0.84924 0.0
H2194 H 0.8323 0.12434 0.9247 0.0
H2195 H 0.82696 0.10243 0.9716 0.0
C2196 C 0.91732 0.69085 0.94532 0.0
C2197 C 0.93558 0.69358 0.98234 0.0
C2198 C 0.93238 0.65295 0.95071 0.0
C2199 C 0.91472 0.65047 0.91259 0.0
N2200 N 0.88844 0.66612 0.87737 0.0
N2201 N 0.96392 0.67916 1.01284 0.0
C2202 C 0.90695 0.66944 0.91069 0.0
C2203 C 0.94369 0.67492 0.98331 0.0
N2204 N 0.9098 0.7089 0.94346 0.0
N2205 N 0.93852 0.63406 0.95637 0.0
H2206 H 0.9729 0.69459 0.03708 0.0
H2207 H 0.97348 0.66874 1.01046 0.0
H2208 H 0.93364 0.61945 0.93087 0.0
H2209 H 0.94737 0.63207 0.98777 0.0
H2210 H 0.89858 0.71022 0.91575 0.0
H2211 H 0.91518 0.72324 0.97007 0.0
H2212 H 0.88025 0.67775 0.87466 0.0
H2213 H 0.88012 0.65065 0.85296 0.0
C2214 C 0.25734 0.35879 0.61676 0.0
C2215 C 0.27266 0.35958 0.65805 0.0
C2216 C 0.26531 0.31647 0.63168 0.0
C2217 C 0.25094 0.31609 0.589 0.0
N2218 N 0.22981 0.33548 0.54649 0.0
N2219 N 0.29381 0.34008 0.70018 0.0
C2220 C 0.24631 0.3371 0.58294 0.0
C2221 C 0.27693 0.33843 0.66454 0.0
N2222 N 0.25336 0.37908 0.60977 0.0
N2223 N 0.26781 0.29555 0.64154 0.0
H2224 H 0.30229 0.35516 0.72532 0.0
H2225 H 0.30105 0.32759 0.70288 0.0
H2226 H 0.26202 0.28031 0.61724 0.0
H2227 H 0.27427 0.29248 0.67512 0.0
H2228 H 0.24556 0.3821 0.57796 0.0
H2229 H 0.25851 0.39362 0.63586 0.0
H2230 H 0.22335 0.34847 0.54158 0.0
H2231 H 0.22086 0.31988 0.5225 0.0
C2232 C 0.6747 0.90286 0.56817 0.0
C2233 C 0.70067 0.92055 0.58313 0.0
C2234 C 0.68297 0.9195 0.66731 0.0
C2235 C 0.65743 0.90024 0.65423 0.0
N2236 N 0.63211 0.86859 0.59265 0.0
N2237 N 0.72778 0.93288 0.65608 0.0
C2238 C 0.65419 0.89062 0.60465 0.0
C2239 C 0.7043 0.92497 0.63535 0.0
N2240 N 0.66916 0.8968 0.51946 0.0
N2241 N 0.68741 0.93387 0.70908 0.0
H2242 H 0.74274 0.93257 0.63706 0.0
H2243 H 0.73072 0.93505 0.6942 0.0
H2244 H 0.67287 0.93313 0.73122 0.0
H2245 H 0.70558 0.94921 0.71754 0.0
H2246 H 0.65041 0.88771 0.50593 0.0
H2247 H 0.683 0.90094 0.49238 0.0
H2248 H 0.62944 0.85921 0.55891 0.0
H2249 H 0.61781 0.85781 0.61844 0.0
C2250 C 0.11743 0.77901 0.64941 0.0
C2251 C 0.1158 0.75467 0.64068 0.0
C2252 C 0.08997 0.75075 0.56504 0.0
C2253 C 0.09297 0.77569 0.57186 0.0
N2254 N 0.11381 0.8152 0.61757 0.0
N2255 N 0.10482 0.72068 0.58059 0.0
C2256 C 0.10777 0.79014 0.6135 0.0
C2257 C 0.10358 0.74175 0.59556 0.0
N2258 N 0.12869 0.79196 0.69196 0.0
N2259 N 0.07252 0.73446 0.53133 0.0
H2260 H 0.11328 0.71226 0.60077 0.0
H2261 H 0.09952 0.71285 0.54528 0.0
H2262 H 0.06171 0.73949 0.50895 0.0
H2263 H 0.06664 0.71498 0.52931 0.0
H2264 H 0.12739 0.80765 0.70456 0.0
H2265 H 0.13869 0.78647 0.71584 0.0
H2266 H 0.12667 0.82794 0.64342 0.0
H2267 H 0.10774 0.82403 0.592 0.0
C2268 C 0.67648 0.74572 0.16173 0.0
C2269 C 0.65652 0.75201 0.15553 0.0
C2270 C 0.68077 0.77699 0.07993 0.0
C2271 C 0.69873 0.768 0.08353 0.0
N2272 N 0.70744 0.73703 0.12127 0.0
N2273 N 0.63993 0.77348 0.10499 0.0
C2274 C 0.69485 0.75064 0.12282 0.0
C2275 C 0.65874 0.76745 0.11322 0.0
N2276 N 0.67849 0.73515 0.20491 0.0
N2277 N 0.68528 0.79553 0.04588 0.0
H2278 H 0.62539 0.76964 0.13055 0.0
H2279 H 0.63821 0.78148 0.07212 0.0
H2280 H 0.70077 0.80267 1.02128 0.0
H2281 H 0.67495 0.80521 0.04434 0.0
H2282 H 0.69414 0.73275 0.21297 0.0
H2283 H 0.66656 0.73162 0.23516 0.0
H2284 H 0.7037 0.72213 0.14561 0.0
H2285 H 0.71866 0.73807 0.09111 0.0
C2286 C 0.24145 0.90669 0.07828 0.0
C2287 C 0.24646 0.9325 0.08362 0.0
C2288 C 0.274 0.93666 0.15675 0.0
C2289 C 0.26772 0.91046 0.15329 0.0
N2290 N 0.242 0.86956 0.11399 0.0
N2291 N 0.26492 0.97051 0.13499 0.0
C2292 C 0.2506 0.89533 0.11463 0.0
C2293 C 0.26177 0.94683 0.12514 0.0
N2294 N 0.22758 0.89269 0.03844 0.0
N2295 N 0.29313 0.95266 0.1882 0.0
H2296 H 0.25836 0.97977 0.11195 0.0
H2297 H 0.27248 0.98029 0.16803 0.0
H2298 H 0.30273 0.94648 0.21153 0.0
H2299 H 0.3013 0.97254 0.18795 0.0
H2300 H 0.22595 0.87525 1.02809 0.0
H2301 H 0.21854 0.89907 1.01406 0.0
H2302 H 0.22751 0.8566 0.09081 0.0
H2303 H 0.2478 0.86064 0.13989 0.0
C2304 C 0.08737 0.35817 0.10584 0.0
C2305 C 0.10386 0.36123 0.14673 0.0
C2306 C 0.10113 0.31974 0.1203 0.0
C2307 C 0.08416 0.31652 0.08024 0.0
N2308 N 0.05756 0.33113 0.04197 0.0
N2309 N 0.12928 0.3461 0.18763 0.0
C2310 C 0.0767 0.33557 0.07465 0.0
C2311 C 0.11119 0.34206 0.15275 0.0
N2312 N 0.08177 0.37713 0.09614 0.0
N2313 N 0.10763 0.30118 0.12756 0.0
H2314 H 0.1374 0.36211 0.21073 0.0
H2315 H 0.13772 0.33476 0.19199 0.0
H2316 H 0.10287 0.28624 0.10261 0.0
H2317 H 0.11699 0.29986 0.15873 0.0
H2318 H 0.07395 0.37873 0.06294 0.0
H2319 H 0.08613 0.39217 0.12028 0.0
H2320 H 0.04836 0.34191 0.04055 0.0
H2321 H 0.04902 0.31521 1.01881 0.0
C2322 C 0.76698 0.69104 0.43389 0.0
C2323 C 0.77635 0.69053 0.48267 0.0
C2324 C 0.76804 0.6462 0.46056 0.0
C2325 C 0.75492 0.64548 0.41592 0.0
N2326 N 0.73735 0.66706 0.36827 0.0
N2327 N 0.7856 0.66566 0.54065 0.0
C2328 C 0.75327 0.66787 0.405 0.0
C2329 C 0.77651 0.66738 0.49547 0.0
N2330 N 0.7715 0.7136 0.41291 0.0
N2331 N 0.77404 0.62734 0.46846 0.0
H2332 H 0.79571 0.68135 0.56391 0.0
H2333 H 0.78254 0.64839 0.55561 0.0
H2334 H 0.76958 0.61256 0.44328 0.0
H2335 H 0.78584 0.62778 0.49702 0.0
H2336 H 0.76779 0.71499 0.37574 0.0
H2337 H 0.78163 0.73154 0.429 0.0
H2338 H 0.73246 0.6813 0.36333 0.0
H2339 H 0.72678 0.65113 0.34622 0.0
C2340 C 0.34042 0.10949 0.48123 0.0
C2341 C 0.31972 0.08377 0.47402 0.0
C2342 C 0.34559 0.08021 0.40445 0.0
C2343 C 0.36525 0.10651 0.40883 0.0
N2344 N 0.37839 0.1472 0.44778 0.0
N2345 N 0.30176 0.04658 0.4204 0.0
C2346 C 0.36185 0.12132 0.44656 0.0
C2347 C 0.32205 0.06992 0.43294 0.0
N2348 N 0.3396 0.12301 0.52115 0.0
N2349 N 0.34996 0.06414 0.37538 0.0
H2350 H 0.28482 0.03734 0.44061 0.0
H2351 H 0.30087 0.03727 0.38731 0.0
H2352 H 0.36688 0.07011 0.35553 0.0
H2353 H 0.33811 0.04427 0.37525 0.0
H2354 H 0.35523 0.14025 0.53279 0.0
H2355 H 0.32361 0.11636 0.54433 0.0
H2356 H 0.37575 0.15977 0.47029 0.0
H2357 H 0.39354 0.15656 0.42276 0.0
C2358 C 0.93761 0.26498 0.41031 0.0
C2359 C 0.9109 0.25727 0.41066 0.0
C2360 C 0.9063 0.22992 0.48468 0.0
C2361 C 0.93276 0.23632 0.48206 0.0
N2362 N 0.97235 0.25789 0.43436 0.0
N2363 N 0.86922 0.22951 0.4457 0.0
C2364 C 0.94782 0.25302 0.44235 0.0
C2365 C 0.89519 0.23909 0.44756 0.0
N2366 N 0.9541 0.28535 0.38162 0.0
N2367 N 0.89141 0.21464 0.52248 0.0
H2368 H 0.86061 0.23547 0.41942 0.0
H2369 H 0.85597 0.2143 0.46728 0.0
H2370 H 0.8976 0.20539 0.54672 0.0
H2371 H 0.87328 0.21187 0.53117 0.0
H2372 H 0.97404 0.29461 0.38499 0.0
H2373 H 0.94814 0.29486 0.35778 0.0
H2374 H 0.98239 0.26581 0.4016 0.0
H2375 H 0.98243 0.2529 0.45857 0.0
C2376 C 0.035 0.60803 0.29766 0.0
C2377 C 0.0349 0.59715 0.25025 0.0
C2378 C 0.99193 0.55979 0.27455 0.0
C2379 C 0.99061 0.57234 0.31866 0.0
N2380 N 1.01079 0.61173 0.36607 0.0
N2381 N 1.0113 0.56196 0.1939 0.0
C2382 C 0.01226 0.59717 0.32866 0.0
C2383 C 0.01264 0.57297 0.23882 0.0
N2384 N 0.05678 0.62923 0.31385 0.0
N2385 N 0.97431 0.5344 0.26813 0.0
H2386 H 0.02676 0.56879 0.16938 0.0
H2387 H 0.99445 0.54664 0.18001 0.0
H2388 H 0.96014 0.52367 0.29418 0.0
H2389 H 0.97543 0.52316 0.23998 0.0
H2390 H 0.05969 0.63508 0.35069 0.0
H2391 H 0.07276 0.64018 0.29196 0.0
H2392 H 0.02467 0.63078 0.37237 0.0
H2393 H 0.99445 0.60634 0.38737 0.0
C2394 C 0.43699 0.45728 0.28509 0.0
C2395 C 0.42132 0.44331 0.24398 0.0
C2396 C 0.43014 0.40797 0.26543 0.0
C2397 C 0.44294 0.42026 0.31061 0.0
N2398 N 0.4583 0.45788 0.36222 0.0
N2399 N 0.39822 0.40193 0.20429 0.0
C2400 C 0.44602 0.44518 0.32011 0.0
C2401 C 0.41677 0.41784 0.23676 0.0
N2402 N 0.44455 0.48273 0.28936 0.0
N2403 N 0.43077 0.38692 0.24815 0.0
H2404 H 0.38718 0.40742 0.18379 0.0
H2405 H 0.39161 0.38229 0.20205 0.0
H2406 H 0.43975 0.37825 0.26564 0.0
H2407 H 0.42473 0.37959 0.21269 0.0
H2408 H 0.45813 0.49502 0.31475 0.0
H2409 H 0.43898 0.49223 0.26436 0.0
H2410 H 0.45792 0.47396 0.37549 0.0
H2411 H 0.46839 0.45196 0.38484 0.0
C2412 C 0.60653 0.01149 0.32597 0.0
C2413 C 0.60132 0.03211 0.32022 0.0
C2414 C 0.5755 0.00922 0.24487 0.0
C2415 C 0.57995 0.98809 0.25191 0.0
N2416 N 0.59676 0.96821 0.30691 0.0
N2417 N 0.57701 0.04802 0.27756 0.0
C2418 C 0.59433 0.98895 0.29494 0.0
C2419 C 0.5849 0.03027 0.28024 0.0
N2420 N 0.62484 0.01401 0.35901 0.0
N2421 N 0.56161 0.00895 0.20472 0.0
H2422 H 0.58257 0.06284 0.30315 0.0
H2423 H 0.56329 0.04702 0.25286 0.0
H2424 H 0.5518 0.99297 0.18193 0.0
H2425 H 0.56033 0.02473 0.19289 0.0
H2426 H 0.6321 1.0015 0.36088 0.0
H2427 H 0.63491 0.02993 0.38151 0.0
H2428 H 0.6025 0.96559 0.34169 0.0
H2429 H 0.59171 0.95274 0.2837 0.0
C2430 C 0.45472 0.01221 0.81913 0.0
C2431 C 0.44899 0.03256 0.81363 0.0
C2432 C 0.42374 0.00988 0.73778 0.0
C2433 C 0.4292 0.98938 0.74314 0.0
N2434 N 0.44874 0.97054 0.79252 0.0
N2435 N 0.42978 0.05133 0.76243 0.0
C2436 C 0.44435 0.99051 0.78501 0.0
C2437 C 0.43414 0.03146 0.77135 0.0
N2438 N 0.47167 0.01448 0.85512 0.0
N2439 N 0.40645 0.0078 0.70291 0.0
H2440 H 0.43245 0.06503 0.78865 0.0
H2441 H 0.42424 0.05478 0.72814 0.0
H2442 H 0.39922 0.99359 0.67619 0.0
H2443 H 0.39762 0.01896 0.70264 0.0
H2444 H 0.47907 1.0022 0.85904 0.0
H2445 H 0.4801 0.03004 0.8793 0.0
H2446 H 0.45631 0.96773 0.82489 0.0
H2447 H 0.44385 0.95597 0.76661 0.0
C2448 C 0.99921 0.43953 0.78093 0.0
C2449 C 0.99639 0.42174 0.81895 0.0
C2450 C 0.03967 0.42866 0.79356 0.0
C2451 C 0.04138 0.44437 0.75218 0.0
N2452 N 0.02065 0.46308 0.70567 0.0
N2453 N 0.0126 0.39541 0.8524 0.0
C2454 C 0.02038 0.44909 0.74563 0.0
C2455 C 0.01639 0.41546 0.82292 0.0
N2456 N 0.98227 0.44848 0.77991 0.0
N2457 N 0.06032 0.42605 0.80555 0.0
H2458 H 0.99595 0.38462 0.87308 0.0
H2459 H 0.02467 0.38759 0.85225 0.0
H2460 H 0.07714 0.43394 0.78494 0.0
H2461 H 0.06163 0.41788 0.83859 0.0
H2462 H 0.98445 0.46343 0.75726 0.0
H2463 H 0.96722 0.44261 0.80519 0.0
H2464 H 1.00477 0.4644 0.69441 0.0
H2465 H 0.03646 0.47246 0.68211 0.0
C2466 C 0.56439 0.57555 0.7788 0.0
C2467 C 0.5809 0.59695 0.74811 0.0
C2468 C 0.61808 0.5993 0.79393 0.0
C2469 C 0.60204 0.57623 0.82066 0.0
N2470 N 0.55924 0.54158 0.83578 0.0
N2471 N 0.62456 0.62654 0.72289 0.0
C2472 C 0.57496 0.56421 0.81226 0.0
C2473 C 0.608 0.60776 0.75441 0.0
N2474 N 0.53847 0.56605 0.77621 0.0
N2475 N 0.64285 0.61456 0.8089 0.0
H2476 H 0.61858 0.63442 0.69535 0.0
H2477 H 0.64418 0.63285 0.72148 0.0
H2478 H 0.64995 0.61052 0.84046 0.0
H2479 H 0.65502 0.63281 0.79468 0.0
H2480 H 0.52527 0.55241 0.80055 0.0
H2481 H 0.53021 0.57301 0.75118 0.0
H2482 H 0.53976 0.53006 0.82801 0.0
H2483 H 0.56618 0.53355 0.86135 0.0
C2484 C 0.29126 0.35799 0.11477 0.0
C2485 C 0.31024 0.36341 0.15109 0.0
C2486 C 0.2948 0.31816 0.16121 0.0
C2487 C 0.28198 0.31361 0.11545 0.0
N2488 N 0.25488 0.32485 0.06939 0.0
N2489 N 0.3302 0.34883 0.21014 0.0
C2490 C 0.27623 0.33234 0.09773 0.0
C2491 C 0.31203 0.34354 0.17485 0.0
N2492 N 0.28778 0.37733 0.09722 0.0
N2493 N 0.28728 0.299 0.195 0.0
H2494 H 0.34336 0.3675 0.22112 0.0
H2495 H 0.33326 0.33464 0.22538 0.0
H2496 H 0.27021 0.28175 0.19018 0.0
H2497 H 0.29499 0.30189 0.23049 0.0
H2498 H 0.27567 0.37525 0.06799 0.0
H2499 H 0.29769 0.39592 0.11155 0.0
H2500 H 0.24872 0.33717 0.05651 0.0
H2501 H 0.24168 0.30546 0.06355 0.0
C2502 C 0.66921 0.93239 0.13114 0.0
C2503 C 0.64846 0.93487 0.11329 0.0
C2504 C 0.674 0.96132 0.04528 0.0
C2505 C 0.69613 0.96455 0.07003 0.0
N2506 N 0.71511 0.9475 0.12555 0.0
N2507 N 0.62831 0.93307 0.03576 0.0
C2508 C 0.69387 0.94813 0.10969 0.0
C2509 C 0.64984 0.94327 0.06423 0.0
N2510 N 0.66457 0.91323 0.16358 0.0
N2511 N 0.67592 0.97649 1.00616 0.0
H2512 H 0.61085 0.91818 0.04909 0.0
H2513 H 0.62867 0.93729 0.99828 0.0
H2514 H 0.69347 0.99099 0.99261 0.0
H2515 H 0.65988 0.97594 0.99004 0.0
H2516 H 0.6787 0.91002 0.1784 0.0
H2517 H 0.64582 0.89854 0.17066 0.0
H2518 H 0.71529 0.93696 0.15584 0.0
H2519 H 0.73281 0.95758 0.10747 0.0
C2520 C 0.0598 0.72378 0.17514 0.0
C2521 C 0.07672 0.7176 0.15016 0.0
C2522 C 0.07883 0.74449 0.08011 0.0
C2523 C 0.05817 0.74601 0.10192 0.0
N2524 N 0.04835 0.75664 0.18183 0.0
N2525 N 0.10875 0.72834 0.08687 0.0
C2526 C 0.05438 0.7417 0.15336 0.0
C2527 C 0.08837 0.73001 0.10484 0.0
N2528 N 0.04787 0.71182 0.21806 0.0
N2529 N 0.0907 0.759 0.03939 0.0
H2530 H 0.11747 0.7202 0.10758 0.0
H2531 H 0.11749 0.73555 0.05285 0.0
H2532 H 0.08667 0.77311 1.0273 0.0
H2533 H 0.10578 0.75889 1.0205 0.0
H2534 H 0.034 0.71494 0.23499 0.0
H2535 H 0.04991 0.69715 0.23391 0.0
H2536 H 0.04708 0.75526 0.22031 0.0
H2537 H 0.04828 0.77252 0.16661 0.0
C2538 C 0.34539 0.29096 0.51436 0.0
C2539 C 0.32346 0.27309 0.48795 0.0
C2540 C 0.35069 0.27294 0.42079 0.0
C2541 C 0.37107 0.29526 0.44211 0.0
N2542 N 0.39109 0.30833 0.52169 0.0
N2543 N 0.30551 0.24037 0.42558 0.0
C2544 C 0.36966 0.29912 0.49319 0.0
C2545 C 0.32617 0.26186 0.44384 0.0
N2546 N 0.34315 0.30112 0.55798 0.0
N2547 N 0.35574 0.26079 0.38355 0.0
H2548 H 0.28874 0.23028 0.44631 0.0
H2549 H 0.30511 0.23238 0.39121 0.0
H2550 H 0.37463 0.26581 0.37483 0.0
H2551 H 0.34193 0.24419 0.36609 0.0
H2552 H 0.35899 0.31585 0.57604 0.0
H2553 H 0.32544 0.29623 0.57393 0.0
H2554 H 0.39033 0.30885 0.56017 0.0
H2555 H 0.40867 0.312 0.50675 0.0
C2556 C 0.72208 0.02843 0.40277 0.0
C2557 C 0.73525 0.0367 0.44831 0.0
C2558 C 0.72949 0.0741 0.44622 0.0
C2559 C 0.71027 0.06134 0.40996 0.0
N2560 N 0.68856 0.0268 0.35163 0.0
N2561 N 0.76438 0.07483 0.49277 0.0
C2562 C 0.70658 0.03857 0.38763 0.0
C2563 C 0.7428 0.06189 0.46459 0.0
N2564 N 0.72838 0.01537 0.36977 0.0
N2565 N 0.73488 0.09777 0.46246 0.0
H2566 H 0.7764 0.06729 0.49991 0.0
H2567 H 0.772 0.0938 0.50406 0.0
H2568 H 0.72721 0.10802 0.4455 0.0
H2569 H 0.74652 0.10704 0.49273 0.0
H2570 H 0.72023 0.01015 0.33467 0.0
H2571 H 0.74547 0.01507 0.37369 0.0
H2572 H 0.68378 0.00879 0.33757 0.0
H2573 H 0.67736 0.03431 0.33842 0.0
C2574 C 0.94382 0.65746 0.42755 0.0
C2575 C 0.95734 0.64779 0.40072 0.0
C2576 C 0.99497 0.69032 0.39572 0.0
C2577 C 0.98352 0.69847 0.43235 0.0
N2578 N 0.94341 0.69562 0.45479 0.0
N2579 N 0.99435 0.65435 0.35424 0.0
C2580 C 0.95664 0.68377 0.43979 0.0
C2581 C 0.98255 0.66405 0.38329 0.0
N2582 N 0.91916 0.64128 0.44256 0.0
N2583 N 0.01477 0.70765 0.36708 0.0
H2584 H 0.98478 0.63558 0.34096 0.0
H2585 H 0.01385 0.66449 0.3454 0.0
H2586 H 0.01852 0.72638 0.36316 0.0
H2587 H 0.02346 0.70266 0.33918 0.0
H2588 H 0.90915 0.64677 0.46659 0.0
H2589 H 0.90934 0.62184 0.4333 0.0
H2590 H 0.92344 0.68632 0.45757 0.0
H2591 H 0.95248 0.71556 0.45847 0.0
C2592 C 0.75201 0.67636 0.98521 0.0
C2593 C 0.75363 0.69844 0.96294 0.0
C2594 C 0.7267 0.67345 0.89536 0.0
C2595 C 0.72059 0.65094 0.92176 0.0
N2596 N 0.73542 0.63026 0.97806 0.0
N2597 N 0.76126 0.7162 0.88133 0.0
C2598 C 0.73565 0.65203 0.963 0.0
C2599 C 0.74679 0.69668 0.91285 0.0
N2600 N 0.76761 0.67899 1.02387 0.0
N2601 N 0.71308 0.67293 0.85471 0.0
H2602 H 0.77824 0.73204 0.89335 0.0
H2603 H 0.75841 0.71442 0.84318 0.0
H2604 H 0.69724 0.65617 0.84182 0.0
H2605 H 0.71641 0.68969 0.83686 0.0
H2606 H 0.76569 0.66377 0.04531 0.0
H2607 H 0.78363 0.69674 1.03209 0.0
H2608 H 0.74714 0.62979 1.00578 0.0
H2609 H 0.72451 0.61273 0.96005 0.0
C2610 C 0.35781 0.078 0.94415 0.0
C2611 C 0.37475 0.0686 0.95409 0.0
C2612 C 0.34255 0.03484 1.00574 0.0
C2613 C 0.32431 0.04083 0.98703 0.0
N2614 N 0.31368 0.06865 0.94154 0.0
N2615 N 0.38725 0.05308 1.0247 0.0
C2616 C 0.33171 0.06282 0.95755 0.0
C2617 C 0.36858 0.05098 0.99347 0.0
N2618 N 0.36739 0.10245 0.92715 0.0
N2619 N 0.33501 0.01397 0.03552 0.0
H2620 H 0.40526 0.06955 1.02452 0.0
H2621 H 0.38357 0.04166 0.05601 0.0
H2622 H 0.31591 1.0022 0.04642 0.0
H2623 H 0.3475 0.00755 0.04642 0.0
H2624 H 0.35632 0.11123 0.92261 0.0
H2625 H 0.38716 0.11494 0.92402 0.0
H2626 H 0.31754 0.08294 0.91564 0.0
H2627 H 0.29441 0.05803 0.95205 0.0
C2628 C 0.98284 0.28573 0.90124 0.0
C2629 C 0.97265 0.27373 0.94708 0.0
C2630 C 0.94027 0.28663 0.94055 0.0
C2631 C 0.95645 0.30534 0.90547 0.0
N2632 N 0.99371 0.32283 0.85186 0.0
N2633 N 0.93285 0.25016 0.99132 0.0
C2634 C 0.9779 0.30493 0.88542 0.0
C2635 C 0.94857 0.27043 0.96189 0.0
N2636 N 0.99315 0.27583 0.86936 0.0
N2637 N 0.91694 0.28408 0.95166 0.0
H2638 H 0.93713 0.23572 0.9993 0.0
H2639 H 0.91485 0.24624 1.00389 0.0
H2640 H 0.90948 0.29339 0.93094 0.0
H2641 H 0.90481 0.27246 0.97964 0.0
H2642 H 0.99884 0.28285 0.83353 0.0
H2643 H 0.99152 0.25807 0.87648 0.0
H2644 H 1.01051 0.3236 0.83902 0.0
H2645 H 0.99119 0.33799 0.8404 0.0
C2646 C 0.70368 0.74367 0.65578 0.0
C2647 C 0.7045 0.74661 0.60404 0.0
C2648 C 0.65835 0.73015 0.60676 0.0
C2649 C 0.6577 0.71727 0.65103 0.0
N2650 N 0.68095 0.71358 0.72062 0.0
N2651 N 0.68392 0.75508 0.53635 0.0
C2652 C 0.68067 0.72487 0.67719 0.0
C2653 C 0.68212 0.7438 0.5809 0.0
N2654 N 0.72392 0.76007 0.68412 0.0
N2655 N 0.63689 0.7306 0.59206 0.0
H2656 H 0.70174 0.76854 0.52168 0.0
H2657 H 0.66801 0.75157 0.51521 0.0
H2658 H 0.61985 0.72156 0.61254 0.0
H2659 H 0.63673 0.74181 0.56292 0.0
H2660 H 0.72313 0.7596 0.72268 0.0
H2661 H 0.73967 0.77595 0.66824 0.0
H2662 H 0.69806 0.7183 0.73857 0.0
H2663 H 0.66465 0.69812 0.736 0.0
C2664 C 0.33862 0.9904 0.59486 0.0
C2665 C 0.32625 0.96716 0.62194 0.0
C2666 C 0.28456 0.95767 0.59068 0.0
C2667 C 0.29697 0.98093 0.56407 0.0
N2668 N 0.33508 0.0159 0.52926 0.0
N2669 N 0.28949 0.92471 0.63139 0.0
C2670 C 0.32392 0.99602 0.56208 0.0
C2671 C 0.29977 0.94947 0.61548 0.0
N2672 N 0.36404 0.00745 0.60224 0.0
N2673 N 0.25837 0.94425 0.59448 0.0
H2674 H 0.30051 0.91772 0.64762 0.0
H2675 H 0.27071 0.91049 0.62357 0.0
H2676 H 0.24658 0.94979 0.57647 0.0
H2677 H 0.24851 0.92865 0.61818 0.0
H2678 H 0.37355 0.02584 0.5872 0.0
H2679 H 0.37521 1.00379 0.62645 0.0
H2680 H 0.35483 0.02658 0.52301 0.0
H2681 H 0.32418 0.02009 0.50496 0.0
C2682 C 0.06368 0.32514 0.63433 0.0
C2683 C 0.0366 0.31334 0.63554 0.0
C2684 C 0.03938 0.3513 0.6738 0.0
C2685 C 0.06599 0.36448 0.66328 0.0
N2686 N 0.10424 0.36505 0.63445 0.0
N2687 N 1.0021 0.30993 0.6873 0.0
C2688 C 0.07853 0.35159 0.64477 0.0
C2689 C 0.02495 0.32475 0.66376 0.0
N2690 N 0.0748 0.31053 0.6249 0.0
N2691 N 0.02815 0.36415 0.69413 0.0
H2692 H 0.99588 0.29089 0.69577 0.0
H2693 H 0.99276 0.31725 0.70867 0.0
H2694 H 0.03867 0.38318 0.70588 0.0
H2695 H 1.00831 0.35636 0.69701 0.0
H2696 H 0.09452 0.31746 0.62666 0.0
H2697 H 0.06372 0.29063 0.62067 0.0
H2698 H 0.11404 0.35717 0.61632 0.0
H2699 H 0.11543 0.38473 0.6408 0.0
C2700 C 0.01432 0.64553 0.71222 0.0
C2701 C 0.03389 0.64111 0.72914 0.0
C2702 C 1.00274 0.60351 0.77481 0.0
C2703 C 0.98458 0.61164 0.7668 0.0
N2704 N 0.96909 0.62498 0.69738 0.0
N2705 N 0.04758 0.61479 0.77135 0.0
C2706 C 0.9889 0.62846 0.72674 0.0
C2707 C 0.02833 0.6195 0.75848 0.0
N2708 N 0.02004 0.66604 0.68251 0.0
N2709 N 0.99472 0.57942 0.79229 0.0
H2710 H 0.06642 0.62604 0.75859 0.0
H2711 H 0.04519 0.60075 0.79671 0.0
H2712 H 0.9752 0.56615 0.79652 0.0
H2713 H 1.00669 0.57159 0.79593 0.0
H2714 H 1.00645 0.67129 0.67303 0.0
H2715 H 0.03869 0.67864 0.6702 0.0
H2716 H 0.97146 0.6356 0.66539 0.0
H2717 H 0.95136 0.60833 0.7004 0.0
C2718 C 0.36327 0.35785 0.78556 0.0
C2719 C 0.36802 0.34897 0.8309 0.0
C2720 C 0.37263 0.38672 0.87317 0.0
C2721 C 0.37839 0.39784 0.82609 0.0
N2722 N 0.36036 0.39598 0.7519 0.0
N2723 N 0.36127 0.34735 0.91851 0.0
C2724 C 0.36789 0.38321 0.78562 0.0
C2725 C 0.36571 0.36042 0.87528 0.0
N2726 N 0.35768 0.34368 0.74365 0.0
N2727 N 0.37371 0.40083 0.91341 0.0
H2728 H 0.35734 0.32834 0.9184 0.0
H2729 H 0.36087 0.35494 0.95292 0.0
H2730 H 0.37899 0.42016 0.90982 0.0
H2731 H 0.36918 0.39339 0.9491 0.0
H2732 H 0.35602 0.35075 0.70948 0.0
H2733 H 0.35496 0.32511 0.74444 0.0
H2734 H 0.34931 0.38373 0.72264 0.0
H2735 H 0.36983 0.43695 0.7691 0.0
C2736 C 0.67489 0.02191 0.81189 0.0
C2737 C 0.65874 0.03263 0.8167 0.0
C2738 C 0.62421 0.99608 0.77479 0.0
C2739 C 0.64176 0.98763 0.76285 0.0
N2740 N 0.68439 0.99339 0.76474 0.0
N2741 N 0.61972 0.03268 0.79531 0.0
C2742 C 0.66734 1.00077 0.78008 0.0
C2743 C 0.63374 0.02045 0.79639 0.0
N2744 N 0.69719 0.03189 0.83829 0.0
N2745 N 0.59845 0.98046 0.76734 0.0
H2746 H 0.6265 0.05112 0.80921 0.0
H2747 H 0.60236 0.02544 0.7764 0.0
H2748 H 0.59059 0.96184 0.75362 0.0
H2749 H 0.58473 0.985 0.77979 0.0
H2750 H 0.70885 0.0236 0.83927 0.0
H2751 H 0.70265 0.04709 0.86304 0.0
H2752 H 0.70395 1.00365 0.77281 0.0
H2753 H 0.67927 0.9782 0.74018 0.0
C2754 C 0.38296 0.01098 0.34789 0.0
C2755 C 0.40472 0.03116 0.32482 0.0
C2756 C 0.40768 1.0009 0.26872 0.0
C2757 C 0.38319 0.98202 0.28608 0.0
N2758 N 0.36345 0.96625 0.36556 0.0
N2759 N 0.44157 0.04558 0.27166 0.0
C2760 C 0.37494 0.98586 0.33267 0.0
C2761 C 0.41844 0.02618 0.28781 0.0
N2762 N 0.36978 0.01568 0.38374 0.0
N2763 N 0.42136 0.99383 0.23855 0.0
H2764 H 0.45064 0.06345 0.28887 0.0
H2765 H 0.4516 0.04416 0.24148 0.0
H2766 H 0.41501 0.97454 0.23097 0.0
H2767 H 0.43979 1.0063 0.22545 0.0
H2768 H 0.35252 1.00119 0.39851 0.0
H2769 H 0.37499 0.03414 0.39571 0.0
H2770 H 0.35873 0.96868 0.40157 0.0
H2771 H 0.36334 0.94913 0.35925 0.0
C2772 C 0.03481 0.401 0.32959 0.0
C2773 C 0.03618 0.41132 0.28225 0.0
C2774 C 0.98989 0.394 0.2852 0.0
C2775 C 0.98888 0.37676 0.32212 0.0
N2776 N 1.01068 0.36423 0.3813 0.0
N2777 N 0.01729 0.43098 0.23369 0.0
C2778 C 1.01141 0.38051 0.3454 0.0
C2779 C 0.01425 0.41187 0.26484 0.0
N2780 N 0.05492 0.4127 0.36118 0.0
N2781 N 0.9678 0.39349 0.27124 0.0
H2782 H 0.03544 0.44685 0.22722 0.0
H2783 H 1.00226 0.43256 0.21841 0.0
H2784 H 0.95028 0.38178 0.28885 0.0
H2785 H 0.96671 0.40473 0.24323 0.0
H2786 H 0.054 0.40686 0.3978 0.0
H2787 H 0.07043 0.43055 0.35231 0.0
H2788 H 0.02737 0.36573 0.39635 0.0
H2789 H 0.99366 0.34813 0.39272 0.0
C2790 C 0.63981 0.65429 0.31376 0.0
C2791 C 0.63793 0.65588 0.2617 0.0
C2792 C 0.65808 0.63015 0.24912 0.0
C2793 C 0.6608 0.62943 0.30106 0.0
N2794 N 0.66471 0.65026 0.37927 0.0
N2795 N 0.65513 0.6548 0.18172 0.0
C2796 C 0.65537 0.64492 0.33222 0.0
C2797 C 0.65061 0.64714 0.22992 0.0
N2798 N 0.62513 0.6592 0.34552 0.0
N2799 N 0.66033 0.61334 0.21853 0.0
H2800 H 0.65073 0.66832 0.16764 0.0
H2801 H 0.66588 0.65004 0.15802 0.0
H2802 H 0.66295 0.59862 0.23169 0.0
H2803 H 0.65649 0.61221 0.18075 0.0
H2804 H 0.62479 0.6562 0.38356 0.0
H2805 H 0.61098 0.66298 0.33357 0.0
H2806 H 0.66241 0.66295 0.4022 0.0
H2807 H 0.67728 0.64441 0.3927 0.0
loop_
_geom_bond_atom_site_label_1
_geom_bond_atom_site_label_2
_geom_bond_distance
_geom_bond_site_symmetry_2
_ccdc_geom_bond_type
Co0 N4 2.148 . S
Co0 N10 2.128 . S
Co0 N20 2.194 . S
Co0 O25 2.351 1_554 S
Co0 O26 2.155 . S
Co0 O27 2.096 . S
C1 N4 1.301 . S
C1 N5 1.328 . S
C1 H6 0.930 1_554 S
C2 C3 1.333 . S
C2 N4 1.317 . S
C2 H7 0.930 . S
C3 C2 1.333 . S
C3 N5 1.350 . S
C3 H29 0.931 . S
N4 Co0 2.148 . S
N4 C1 1.301 . S
N4 C2 1.317 . S
N5 C1 1.328 . S
N5 C3 1.350 . S
H6 C1 0.930 1_556 S
H7 C2 0.930 . S
C8 O9 1.224 . S
C8 O27 1.247 . S
O9 C8 1.224 . S
N10 Co0 2.128 . S
N10 C11 1.355 . S
N10 C13 1.311 . S
C11 N10 1.355 . S
C11 C12 1.363 . S
C11 H23 0.929 1_554 S
C12 C11 1.363 . S
C12 N14 1.375 . S
C12 H30 0.931 . S
C13 N10 1.311 . S
C13 N14 1.347 . S
C13 H24 0.929 . S
N14 C12 1.375 . S
N14 C13 1.347 . S
C15 C18 1.365 . S
C15 N20 1.328 1_556 S
C15 H21 0.929 . S
C16 C17 1.362 1_554 S
C16 C19 1.378 . S
C16 H31 0.929 . S
C17 C16 1.362 1_556 S
C17 C18 1.366 . S
C18 C15 1.365 . S
C18 C17 1.366 . S
C18 H32 0.930 . S
C19 C16 1.378 . S
C19 N20 1.315 . S
C19 H22 0.930 . S
N20 Co0 2.194 . S
N20 C15 1.328 1_554 S
N20 C19 1.315 . S
H21 C15 0.929 . S
H22 C19 0.930 . S
H23 C11 0.929 1_556 S
H24 C13 0.929 . S
O25 Co0 2.351 1_556 S
O25 C28 1.244 . S
O26 Co0 2.155 . S
O26 C28 1.240 1_554 S
O27 Co0 2.096 . S
O27 C8 1.247 . S
C28 O25 1.244 . S
C28 O26 1.240 1_556 S
H29 C3 0.931 . S
H30 C12 0.931 . S
H31 C16 0.929 . S
H32 C18 0.930 . S
Co33 N37 2.148 . S
Co33 N43 2.128 1_545 S
Co33 N53 2.194 1_545 S
Co33 O58 2.351 1_554 S
Co33 O59 2.155 . S
Co33 O60 2.096 . S
C34 N37 1.301 . S
C34 N38 1.328 . S
C34 H39 0.930 1_554 S
C35 C36 1.333 . S
C35 N37 1.317 . S
C35 H40 0.930 . S
C36 C35 1.333 . S
C36 N38 1.350 . S
C36 H62 0.931 . S
N37 Co33 2.148 . S
N37 C34 1.301 . S
N37 C35 1.317 . S
N38 C34 1.328 . S
N38 C36 1.350 . S
H39 C34 0.930 1_556 S
H40 C35 0.930 . S
C41 O42 1.224 . S
C41 O60 1.247 . S
O42 C41 1.224 . S
N43 Co33 2.128 1_565 S
N43 C44 1.355 . S
N43 C46 1.311 . S
C44 N43 1.355 . S
C44 C45 1.363 . S
C44 H56 0.929 1_554 S
C45 C44 1.363 . S
C45 N47 1.375 . S
C45 H63 0.931 . S
C46 N43 1.311 . S
C46 N47 1.347 . S
C46 H57 0.929 . S
N47 C45 1.375 . S
N47 C46 1.347 . S
C48 C51 1.365 . S
C48 N53 1.328 1_556 S
C48 H54 0.929 1_565 S
C49 C50 1.362 1_554 S
C49 C52 1.378 . S
C49 H64 0.929 . S
C50 C49 1.362 1_556 S
C50 C51 1.366 . S
C51 C48 1.365 . S
C51 C50 1.366 . S
C51 H65 0.930 . S
C52 C49 1.378 . S
C52 N53 1.315 . S
C52 H55 0.930 . S
N53 Co33 2.194 1_565 S
N53 C48 1.328 1_554 S
N53 C52 1.315 . S
H54 C48 0.929 1_545 S
H55 C52 0.930 . S
H56 C44 0.929 1_556 S
H57 C46 0.929 . S
O58 Co33 2.351 1_556 S
O58 C61 1.244 . S
O59 Co33 2.155 . S
O59 C61 1.240 1_554 S
O60 Co33 2.096 . S
O60 C41 1.247 . S
C61 O58 1.244 . S
C61 O59 1.240 1_556 S
H62 C36 0.931 . S
H63 C45 0.931 . S
H64 C49 0.929 . S
H65 C51 0.930 . S
Co66 N70 2.148 . S
Co66 N76 2.128 1_655 S
Co66 N86 2.194 1_655 S
Co66 O91 2.351 1_554 S
Co66 O92 2.155 . S
Co66 O93 2.096 . S
C67 N70 1.301 . S
C67 N71 1.328 . S
C67 H72 0.930 1_554 S
C68 C69 1.333 . S
C68 N70 1.317 . S
C68 H73 0.930 . S
C69 C68 1.333 . S
C69 N71 1.350 . S
C69 H95 0.931 . S
N70 Co66 2.148 . S
N70 C67 1.301 . S
N70 C68 1.317 . S
N71 C67 1.328 . S
N71 C69 1.350 . S
H72 C67 0.930 1_556 S
H73 C68 0.930 . S
C74 O75 1.224 . S
C74 O93 1.247 . S
O75 C74 1.224 . S
N76 Co66 2.128 1_455 S
N76 C77 1.355 . S
N76 C79 1.311 . S
C77 N76 1.355 . S
C77 C78 1.363 . S
C77 H89 0.929 1_554 S
C78 C77 1.363 . S
C78 N80 1.375 . S
C78 H96 0.931 . S
C79 N76 1.311 . S
C79 N80 1.347 . S
C79 H90 0.929 . S
N80 C78 1.375 . S
N80 C79 1.347 . S
C81 C84 1.365 . S
C81 N86 1.328 1_556 S
C81 H87 0.929 1_455 S
C82 C83 1.362 1_554 S
C82 C85 1.378 . S
C82 H97 0.929 . S
C83 C82 1.362 1_556 S
C83 C84 1.366 . S
C84 C81 1.365 . S
C84 C83 1.366 . S
C84 H98 0.930 . S
C85 C82 1.378 . S
C85 N86 1.315 . S
C85 H88 0.930 . S
N86 Co66 2.194 1_455 S
N86 C81 1.328 1_554 S
N86 C85 1.315 . S
H87 C81 0.929 1_655 S
H88 C85 0.930 . S
H89 C77 0.929 1_556 S
H90 C79 0.929 . S
O91 Co66 2.351 1_556 S
O91 C94 1.244 . S
O92 Co66 2.155 . S
O92 C94 1.240 1_554 S
O93 Co66 2.096 . S
O93 C74 1.247 . S
C94 O91 1.244 . S
C94 O92 1.240 1_556 S
H95 C69 0.931 . S
H96 C78 0.931 . S
H97 C82 0.929 . S
H98 C84 0.930 . S
Co99 N103 2.148 . S
Co99 N109 2.128 . S
Co99 N119 2.194 . S
Co99 O124 2.351 . S
Co99 O125 2.155 . S
Co99 O126 2.096 . S
C100 N103 1.301 . S
C100 N104 1.328 . S
C100 H105 0.930 . S
C101 C102 1.333 . S
C101 N103 1.317 . S
C101 H106 0.930 . S
C102 C101 1.333 . S
C102 N104 1.350 . S
C102 H128 0.931 . S
N103 Co99 2.148 . S
N103 C100 1.301 . S
N103 C101 1.317 . S
N104 C100 1.328 . S
N104 C102 1.350 . S
H105 C100 0.930 . S
H106 C101 0.930 . S
C107 O108 1.224 . S
C107 O126 1.247 . S
O108 C107 1.224 . S
N109 Co99 2.128 . S
N109 C110 1.355 . S
N109 C112 1.311 . S
C110 N109 1.355 . S
C110 C111 1.363 . S
C110 H122 0.929 . S
C111 C110 1.363 . S
C111 N113 1.375 . S
C111 H129 0.931 . S
C112 N109 1.311 . S
C112 N113 1.347 . S
C112 H123 0.929 . S
N113 C111 1.375 . S
N113 C112 1.347 . S
C114 C117 1.365 . S
C114 N119 1.328 . S
C114 H120 0.929 . S
C115 C116 1.362 . S
C115 C118 1.378 . S
C115 H130 0.929 . S
C116 C115 1.362 . S
C116 C117 1.366 . S
C117 C114 1.365 . S
C117 C116 1.366 . S
C117 H131 0.930 . S
C118 C115 1.378 . S
C118 N119 1.315 . S
C118 H121 0.930 . S
N119 Co99 2.194 . S
N119 C114 1.328 . S
N119 C118 1.315 . S
H120 C114 0.929 . S
H121 C118 0.930 . S
H122 C110 0.929 . S
H123 C112 0.929 . S
O124 Co99 2.351 . S
O124 C127 1.244 . S
O125 Co99 2.155 . S
O125 C127 1.240 . S
O126 Co99 2.096 . S
O126 C107 1.247 . S
C127 O124 1.244 . S
C127 O125 1.240 . S
H128 C102 0.931 . S
H129 C111 0.931 . S
H130 C115 0.929 . S
H131 C117 0.930 . S
Co132 N136 2.148 . S
Co132 N142 2.128 1_565 S
Co132 N152 2.194 1_565 S
Co132 O157 2.351 . S
Co132 O158 2.155 . S
Co132 O159 2.096 . S
C133 N136 1.301 . S
C133 N137 1.328 . S
C133 H138 0.930 . S
C134 C135 1.333 . S
C134 N136 1.317 . S
C134 H139 0.930 . S
C135 C134 1.333 . S
C135 N137 1.350 . S
C135 H161 0.931 . S
N136 Co132 2.148 . S
N136 C133 1.301 . S
N136 C134 1.317 . S
N137 C133 1.328 . S
N137 C135 1.350 . S
H138 C133 0.930 . S
H139 C134 0.930 . S
C140 O141 1.224 . S
C140 O159 1.247 . S
O141 C140 1.224 . S
N142 Co132 2.128 1_545 S
N142 C143 1.355 . S
N142 C145 1.311 . S
C143 N142 1.355 . S
C143 C144 1.363 . S
C143 H155 0.929 . S
C144 C143 1.363 . S
C144 N146 1.375 . S
C144 H162 0.931 . S
C145 N142 1.311 . S
C145 N146 1.347 . S
C145 H156 0.929 . S
N146 C144 1.375 . S
N146 C145 1.347 . S
C147 C150 1.365 . S
C147 N152 1.328 . S
C147 H153 0.929 1_545 S
C148 C149 1.362 . S
C148 C151 1.378 . S
C148 H163 0.929 . S
C149 C148 1.362 . S
C149 C150 1.366 . S
C150 C147 1.365 . S
C150 C149 1.366 . S
C150 H164 0.930 . S
C151 C148 1.378 . S
C151 N152 1.315 . S
C151 H154 0.930 . S
N152 Co132 2.194 1_545 S
N152 C147 1.328 . S
N152 C151 1.315 . S
H153 C147 0.929 1_565 S
H154 C151 0.930 . S
H155 C143 0.929 . S
H156 C145 0.929 . S
O157 Co132 2.351 . S
O157 C160 1.244 . S
O158 Co132 2.155 . S
O158 C160 1.240 . S
O159 Co132 2.096 . S
O159 C140 1.247 . S
C160 O157 1.244 . S
C160 O158 1.240 . S
H161 C135 0.931 . S
H162 C144 0.931 . S
H163 C148 0.929 . S
H164 C150 0.930 . S
Co165 N169 2.148 . S
Co165 N175 2.128 1_455 S
Co165 N185 2.194 1_455 S
Co165 O190 2.351 . S
Co165 O191 2.155 . S
Co165 O192 2.096 . S
C166 N169 1.301 . S
C166 N170 1.328 . S
C166 H171 0.930 . S
C167 C168 1.333 . S
C167 N169 1.317 . S
C167 H172 0.930 . S
C168 C167 1.333 . S
C168 N170 1.350 . S
C168 H194 0.931 . S
N169 Co165 2.148 . S
N169 C166 1.301 . S
N169 C167 1.317 . S
N170 C166 1.328 . S
N170 C168 1.350 . S
H171 C166 0.930 . S
H172 C167 0.930 . S
C173 O174 1.224 . S
C173 O192 1.247 . S
O174 C173 1.224 . S
N175 Co165 2.128 1_655 S
N175 C176 1.355 . S
N175 C178 1.311 . S
C176 N175 1.355 . S
C176 C177 1.363 . S
C176 H188 0.929 . S
C177 C176 1.363 . S
C177 N179 1.375 . S
C177 H195 0.931 . S
C178 N175 1.311 . S
C178 N179 1.347 . S
C178 H189 0.929 . S
N179 C177 1.375 . S
N179 C178 1.347 . S
C180 C183 1.365 . S
C180 N185 1.328 . S
C180 H186 0.929 1_655 S
C181 C182 1.362 . S
C181 C184 1.378 . S
C181 H196 0.929 . S
C182 C181 1.362 . S
C182 C183 1.366 . S
C183 C180 1.365 . S
C183 C182 1.366 . S
C183 H197 0.930 . S
C184 C181 1.378 . S
C184 N185 1.315 . S
C184 H187 0.930 . S
N185 Co165 2.194 1_655 S
N185 C180 1.328 . S
N185 C184 1.315 . S
H186 C180 0.929 1_455 S
H187 C184 0.930 . S
H188 C176 0.929 . S
H189 C178 0.929 . S
O190 Co165 2.351 . S
O190 C193 1.244 . S
O191 Co165 2.155 . S
O191 C193 1.240 . S
O192 Co165 2.096 . S
O192 C173 1.247 . S
C193 O190 1.244 . S
C193 O191 1.240 . S
H194 C168 0.931 . S
H195 C177 0.931 . S
H196 C181 0.929 . S
H197 C183 0.930 . S
Co198 N202 2.148 . S
Co198 N208 2.128 . S
Co198 N218 2.194 . S
Co198 O223 2.351 1_556 S
Co198 O224 2.155 . S
Co198 O225 2.096 . S
C199 N202 1.301 . S
C199 N203 1.328 . S
C199 H204 0.930 1_556 S
C200 C201 1.333 . S
C200 N202 1.317 . S
C200 H205 0.930 . S
C201 C200 1.333 . S
C201 N203 1.350 . S
C201 H227 0.931 . S
N202 Co198 2.148 . S
N202 C199 1.301 . S
N202 C200 1.317 . S
N203 C199 1.328 . S
N203 C201 1.350 . S
H204 C199 0.930 1_554 S
H205 C200 0.930 . S
C206 O207 1.224 . S
C206 O225 1.247 . S
O207 C206 1.224 . S
N208 Co198 2.128 . S
N208 C209 1.355 . S
N208 C211 1.311 . S
C209 N208 1.355 . S
C209 C210 1.363 . S
C209 H221 0.929 1_556 S
C210 C209 1.363 . S
C210 N212 1.375 . S
C210 H228 0.931 . S
C211 N208 1.311 . S
C211 N212 1.347 . S
C211 H222 0.929 . S
N212 C210 1.375 . S
N212 C211 1.347 . S
C213 C216 1.365 . S
C213 N218 1.328 1_554 S
C213 H219 0.929 . S
C214 C215 1.362 1_556 S
C214 C217 1.378 . S
C214 H229 0.929 . S
C215 C214 1.362 1_554 S
C215 C216 1.366 . S
C216 C213 1.365 . S
C216 C215 1.366 . S
C216 H230 0.930 . S
C217 C214 1.378 . S
C217 N218 1.315 . S
C217 H220 0.930 . S
N218 Co198 2.194 . S
N218 C213 1.328 1_556 S
N218 C217 1.315 . S
H219 C213 0.929 . S
H220 C217 0.930 . S
H221 C209 0.929 1_554 S
H222 C211 0.929 . S
O223 Co198 2.351 1_554 S
O223 C226 1.244 . S
O224 Co198 2.155 . S
O224 C226 1.240 1_556 S
O225 Co198 2.096 . S
O225 C206 1.247 . S
C226 O223 1.244 . S
C226 O224 1.240 1_554 S
H227 C201 0.931 . S
H228 C210 0.931 . S
H229 C214 0.929 . S
H230 C216 0.930 . S
Co231 N235 2.148 . S
Co231 N241 2.128 1_565 S
Co231 N251 2.194 1_565 S
Co231 O256 2.351 1_556 S
Co231 O257 2.155 . S
Co231 O258 2.096 . S
C232 N235 1.301 . S
C232 N236 1.328 . S
C232 H237 0.930 1_556 S
C233 C234 1.333 . S
C233 N235 1.317 . S
C233 H238 0.930 . S
C234 C233 1.333 . S
C234 N236 1.350 . S
C234 H260 0.931 . S
N235 Co231 2.148 . S
N235 C232 1.301 . S
N235 C233 1.317 . S
N236 C232 1.328 . S
N236 C234 1.350 . S
H237 C232 0.930 1_554 S
H238 C233 0.930 . S
C239 O240 1.224 . S
C239 O258 1.247 . S
O240 C239 1.224 . S
N241 Co231 2.128 1_545 S
N241 C242 1.355 . S
N241 C244 1.311 . S
C242 N241 1.355 . S
C242 C243 1.363 . S
C242 H254 0.929 1_556 S
C243 C242 1.363 . S
C243 N245 1.375 . S
C243 H261 0.931 . S
C244 N241 1.311 . S
C244 N245 1.347 . S
C244 H255 0.929 . S
N245 C243 1.375 . S
N245 C244 1.347 . S
C246 C249 1.365 . S
C246 N251 1.328 1_554 S
C246 H252 0.929 1_545 S
C247 C248 1.362 1_556 S
C247 C250 1.378 . S
C247 H262 0.929 . S
C248 C247 1.362 1_554 S
C248 C249 1.366 . S
C249 C246 1.365 . S
C249 C248 1.366 . S
C249 H263 0.930 . S
C250 C247 1.378 . S
C250 N251 1.315 . S
C250 H253 0.930 . S
N251 Co231 2.194 1_545 S
N251 C246 1.328 1_556 S
N251 C250 1.315 . S
H252 C246 0.929 1_565 S
H253 C250 0.930 . S
H254 C242 0.929 1_554 S
H255 C244 0.929 . S
O256 Co231 2.351 1_554 S
O256 C259 1.244 . S
O257 Co231 2.155 . S
O257 C259 1.240 1_556 S
O258 Co231 2.096 . S
O258 C239 1.247 . S
C259 O256 1.244 . S
C259 O257 1.240 1_554 S
H260 C234 0.931 . S
H261 C243 0.931 . S
H262 C247 0.929 . S
H263 C249 0.930 . S
Co264 N268 2.148 . S
Co264 N274 2.128 1_455 S
Co264 N284 2.194 1_455 S
Co264 O289 2.351 1_556 S
Co264 O290 2.155 . S
Co264 O291 2.096 . S
C265 N268 1.301 . S
C265 N269 1.328 . S
C265 H270 0.930 1_556 S
C266 C267 1.333 . S
C266 N268 1.317 . S
C266 H271 0.930 . S
C267 C266 1.333 . S
C267 N269 1.350 . S
C267 H293 0.931 . S
N268 Co264 2.148 . S
N268 C265 1.301 . S
N268 C266 1.317 . S
N269 C265 1.328 . S
N269 C267 1.350 . S
H270 C265 0.930 1_554 S
H271 C266 0.930 . S
C272 O273 1.224 . S
C272 O291 1.247 . S
O273 C272 1.224 . S
N274 Co264 2.128 1_655 S
N274 C275 1.355 . S
N274 C277 1.311 . S
C275 N274 1.355 . S
C275 C276 1.363 . S
C275 H287 0.929 1_556 S
C276 C275 1.363 . S
C276 N278 1.375 . S
C276 H294 0.931 . S
C277 N274 1.311 . S
C277 N278 1.347 . S
C277 H288 0.929 . S
N278 C276 1.375 . S
N278 C277 1.347 . S
C279 C282 1.365 . S
C279 N284 1.328 1_554 S
C279 H285 0.929 1_655 S
C280 C281 1.362 1_556 S
C280 C283 1.378 . S
C280 H295 0.929 . S
C281 C280 1.362 1_554 S
C281 C282 1.366 . S
C282 C279 1.365 . S
C282 C281 1.366 . S
C282 H296 0.930 . S
C283 C280 1.378 . S
C283 N284 1.315 . S
C283 H286 0.930 . S
N284 Co264 2.194 1_655 S
N284 C279 1.328 1_556 S
N284 C283 1.315 . S
H285 C279 0.929 1_455 S
H286 C283 0.930 . S
H287 C275 0.929 1_554 S
H288 C277 0.929 . S
O289 Co264 2.351 1_554 S
O289 C292 1.244 . S
O290 Co264 2.155 . S
O290 C292 1.240 1_556 S
O291 Co264 2.096 . S
O291 C272 1.247 . S
C292 O289 1.244 . S
C292 O290 1.240 1_554 S
H293 C267 0.931 . S
H294 C276 0.931 . S
H295 C280 0.929 . S
H296 C282 0.930 . S
Co297 N301 2.148 . S
Co297 N307 2.128 . S
Co297 N317 2.194 . S
Co297 O322 2.351 . S
Co297 O323 2.155 . S
Co297 O324 2.096 . S
C298 N301 1.301 . S
C298 N302 1.328 . S
C298 H303 0.930 . S
C299 C300 1.333 . S
C299 N301 1.317 . S
C299 H304 0.930 . S
C300 C299 1.333 . S
C300 N302 1.350 . S
C300 H326 0.931 . S
N301 Co297 2.148 . S
N301 C298 1.301 . S
N301 C299 1.317 . S
N302 C298 1.328 . S
N302 C300 1.350 . S
H303 C298 0.930 . S
H304 C299 0.930 . S
C305 O306 1.224 . S
C305 O324 1.247 . S
O306 C305 1.224 . S
N307 Co297 2.128 . S
N307 C308 1.355 . S
N307 C310 1.311 . S
C308 N307 1.355 . S
C308 C309 1.363 . S
C308 H320 0.929 . S
C309 C308 1.363 . S
C309 N311 1.375 . S
C309 H327 0.931 . S
C310 N307 1.311 . S
C310 N311 1.347 . S
C310 H321 0.929 . S
N311 C309 1.375 . S
N311 C310 1.347 . S
C312 C315 1.365 . S
C312 N317 1.328 . S
C312 H318 0.929 . S
C313 C314 1.362 . S
C313 C316 1.378 . S
C313 H328 0.929 . S
C314 C313 1.362 . S
C314 C315 1.366 . S
C315 C312 1.365 . S
C315 C314 1.366 . S
C315 H329 0.930 . S
C316 C313 1.378 . S
C316 N317 1.315 . S
C316 H319 0.930 . S
N317 Co297 2.194 . S
N317 C312 1.328 . S
N317 C316 1.315 . S
H318 C312 0.929 . S
H319 C316 0.930 . S
H320 C308 0.929 . S
H321 C310 0.929 . S
O322 Co297 2.351 . S
O322 C325 1.244 . S
O323 Co297 2.155 . S
O323 C325 1.240 . S
O324 Co297 2.096 . S
O324 C305 1.247 . S
C325 O322 1.244 . S
C325 O323 1.240 . S
H326 C300 0.931 . S
H327 C309 0.931 . S
H328 C313 0.929 . S
H329 C315 0.930 . S
Co330 N334 2.148 . S
Co330 N340 2.128 1_545 S
Co330 N350 2.194 1_545 S
Co330 O355 2.351 . S
Co330 O356 2.155 . S
Co330 O357 2.096 . S
C331 N334 1.301 . S
C331 N335 1.328 . S
C331 H336 0.930 . S
C332 C333 1.333 . S
C332 N334 1.317 . S
C332 H337 0.930 . S
C333 C332 1.333 . S
C333 N335 1.350 . S
C333 H359 0.931 . S
N334 Co330 2.148 . S
N334 C331 1.301 . S
N334 C332 1.317 . S
N335 C331 1.328 . S
N335 C333 1.350 . S
H336 C331 0.930 . S
H337 C332 0.930 . S
C338 O339 1.224 . S
C338 O357 1.247 . S
O339 C338 1.224 . S
N340 Co330 2.128 1_565 S
N340 C341 1.355 . S
N340 C343 1.311 . S
C341 N340 1.355 . S
C341 C342 1.363 . S
C341 H353 0.929 . S
C342 C341 1.363 . S
C342 N344 1.375 . S
C342 H360 0.931 . S
C343 N340 1.311 . S
C343 N344 1.347 . S
C343 H354 0.929 . S
N344 C342 1.375 . S
N344 C343 1.347 . S
C345 C348 1.365 . S
C345 N350 1.328 . S
C345 H351 0.929 1_565 S
C346 C347 1.362 . S
C346 C349 1.378 . S
C346 H361 0.929 . S
C347 C346 1.362 . S
C347 C348 1.366 . S
C348 C345 1.365 . S
C348 C347 1.366 . S
C348 H362 0.930 . S
C349 C346 1.378 . S
C349 N350 1.315 . S
C349 H352 0.930 . S
N350 Co330 2.194 1_565 S
N350 C345 1.328 . S
N350 C349 1.315 . S
H351 C345 0.929 1_545 S
H352 C349 0.930 . S
H353 C341 0.929 . S
H354 C343 0.929 . S
O355 Co330 2.351 . S
O355 C358 1.244 . S
O356 Co330 2.155 . S
O356 C358 1.240 . S
O357 Co330 2.096 . S
O357 C338 1.247 . S
C358 O355 1.244 . S
C358 O356 1.240 . S
H359 C333 0.931 . S
H360 C342 0.931 . S
H361 C346 0.929 . S
H362 C348 0.930 . S
Co363 N367 2.148 . S
Co363 N373 2.128 1_655 S
Co363 N383 2.194 1_655 S
Co363 O388 2.351 . S
Co363 O389 2.155 . S
Co363 O390 2.096 . S
C364 N367 1.301 . S
C364 N368 1.328 . S
C364 H369 0.930 . S
C365 C366 1.333 . S
C365 N367 1.317 . S
C365 H370 0.930 . S
C366 C365 1.333 . S
C366 N368 1.350 . S
C366 H392 0.931 . S
N367 Co363 2.148 . S
N367 C364 1.301 . S
N367 C365 1.317 . S
N368 C364 1.328 . S
N368 C366 1.350 . S
H369 C364 0.930 . S
H370 C365 0.930 . S
C371 O372 1.224 . S
C371 O390 1.247 . S
O372 C371 1.224 . S
N373 Co363 2.128 1_455 S
N373 C374 1.355 . S
N373 C376 1.311 . S
C374 N373 1.355 . S
C374 C375 1.363 . S
C374 H386 0.929 . S
C375 C374 1.363 . S
C375 N377 1.375 . S
C375 H393 0.931 . S
C376 N373 1.311 . S
C376 N377 1.347 . S
C376 H387 0.929 . S
N377 C375 1.375 . S
N377 C376 1.347 . S
C378 C381 1.365 . S
C378 N383 1.328 . S
C378 H384 0.929 1_455 S
C379 C380 1.362 . S
C379 C382 1.378 . S
C379 H394 0.929 . S
C380 C379 1.362 . S
C380 C381 1.366 . S
C381 C378 1.365 . S
C381 C380 1.366 . S
C381 H395 0.930 . S
C382 C379 1.378 . S
C382 N383 1.315 . S
C382 H385 0.930 . S
N383 Co363 2.194 1_455 S
N383 C378 1.328 . S
N383 C382 1.315 . S
H384 C378 0.929 1_655 S
H385 C382 0.930 . S
H386 C374 0.929 . S
H387 C376 0.929 . S
O388 Co363 2.351 . S
O388 C391 1.244 . S
O389 Co363 2.155 . S
O389 C391 1.240 . S
O390 Co363 2.096 . S
O390 C371 1.247 . S
C391 O388 1.244 . S
C391 O389 1.240 . S
H392 C366 0.931 . S
H393 C375 0.931 . S
H394 C379 0.929 . S
H395 C381 0.930 . S
Co396 N400 2.148 . S
Co396 N406 2.128 . S
Co396 N416 2.194 . S
Co396 O421 2.351 . S
Co396 O422 2.155 . S
Co396 O423 2.096 . S
C397 N400 1.301 . S
C397 N401 1.328 . S
C397 H402 0.930 . S
C398 C399 1.333 . S
C398 N400 1.317 . S
C398 H403 0.930 . S
C399 C398 1.333 . S
C399 N401 1.350 . S
C399 H425 0.931 . S
N400 Co396 2.148 . S
N400 C397 1.301 . S
N400 C398 1.317 . S
N401 C397 1.328 . S
N401 C399 1.350 . S
H402 C397 0.930 . S
H403 C398 0.930 . S
C404 O405 1.224 . S
C404 O423 1.247 . S
O405 C404 1.224 . S
N406 Co396 2.128 . S
N406 C407 1.355 . S
N406 C409 1.311 . S
C407 N406 1.355 . S
C407 C408 1.363 . S
C407 H419 0.929 . S
C408 C407 1.363 . S
C408 N410 1.375 . S
C408 H426 0.931 . S
C409 N406 1.311 . S
C409 N410 1.347 . S
C409 H420 0.929 . S
N410 C408 1.375 . S
N410 C409 1.347 . S
C411 C414 1.365 . S
C411 N416 1.328 . S
C411 H417 0.929 . S
C412 C413 1.362 . S
C412 C415 1.378 . S
C412 H427 0.929 . S
C413 C412 1.362 . S
C413 C414 1.366 . S
C414 C411 1.365 . S
C414 C413 1.366 . S
C414 H428 0.930 . S
C415 C412 1.378 . S
C415 N416 1.315 . S
C415 H418 0.930 . S
N416 Co396 2.194 . S
N416 C411 1.328 . S
N416 C415 1.315 . S
H417 C411 0.929 . S
H418 C415 0.930 . S
H419 C407 0.929 . S
H420 C409 0.929 . S
O421 Co396 2.351 . S
O421 C424 1.244 . S
O422 Co396 2.155 . S
O422 C424 1.240 . S
O423 Co396 2.096 . S
O423 C404 1.247 . S
C424 O421 1.244 . S
C424 O422 1.240 . S
H425 C399 0.931 . S
H426 C408 0.931 . S
H427 C412 0.929 . S
H428 C414 0.930 . S
Co429 N433 2.148 . S
Co429 N439 2.128 . S
Co429 N449 2.194 . S
Co429 O454 2.351 . S
Co429 O455 2.155 . S
Co429 O456 2.096 . S
C430 N433 1.301 . S
C430 N434 1.328 . S
C430 H435 0.930 . S
C431 C432 1.333 . S
C431 N433 1.317 . S
C431 H436 0.930 . S
C432 C431 1.333 . S
C432 N434 1.350 . S
C432 H458 0.931 . S
N433 Co429 2.148 . S
N433 C430 1.301 . S
N433 C431 1.317 . S
N434 C430 1.328 . S
N434 C432 1.350 . S
H435 C430 0.930 . S
H436 C431 0.930 . S
C437 O438 1.224 . S
C437 O456 1.247 . S
O438 C437 1.224 . S
N439 Co429 2.128 . S
N439 C440 1.355 . S
N439 C442 1.311 . S
C440 N439 1.355 . S
C440 C441 1.363 . S
C440 H452 0.929 . S
C441 C440 1.363 . S
C441 N443 1.375 . S
C441 H459 0.931 . S
C442 N439 1.311 . S
C442 N443 1.347 . S
C442 H453 0.929 . S
N443 C441 1.375 . S
N443 C442 1.347 . S
C444 C447 1.365 . S
C444 N449 1.328 . S
C444 H450 0.929 . S
C445 C446 1.362 . S
C445 C448 1.378 . S
C445 H460 0.929 . S
C446 C445 1.362 . S
C446 C447 1.366 . S
C447 C444 1.365 . S
C447 C446 1.366 . S
C447 H461 0.930 . S
C448 C445 1.378 . S
C448 N449 1.315 . S
C448 H451 0.930 . S
N449 Co429 2.194 . S
N449 C444 1.328 . S
N449 C448 1.315 . S
H450 C444 0.929 . S
H451 C448 0.930 . S
H452 C440 0.929 . S
H453 C442 0.929 . S
O454 Co429 2.351 . S
O454 C457 1.244 . S
O455 Co429 2.155 . S
O455 C457 1.240 . S
O456 Co429 2.096 . S
O456 C437 1.247 . S
C457 O454 1.244 . S
C457 O455 1.240 . S
H458 C432 0.931 . S
H459 C441 0.931 . S
H460 C445 0.929 . S
H461 C447 0.930 . S
Co462 N466 2.148 . S
Co462 N472 2.128 . S
Co462 N482 2.194 . S
Co462 O487 2.351 . S
Co462 O488 2.155 . S
Co462 O489 2.096 . S
C463 N466 1.301 . S
C463 N467 1.328 . S
C463 H468 0.930 . S
C464 C465 1.333 . S
C464 N466 1.317 . S
C464 H469 0.930 . S
C465 C464 1.333 . S
C465 N467 1.350 . S
C465 H491 0.931 . S
N466 Co462 2.148 . S
N466 C463 1.301 . S
N466 C464 1.317 . S
N467 C463 1.328 . S
N467 C465 1.350 . S
H468 C463 0.930 . S
H469 C464 0.930 . S
C470 O471 1.224 . S
C470 O489 1.247 . S
O471 C470 1.224 . S
N472 Co462 2.128 . S
N472 C473 1.355 . S
N472 C475 1.311 . S
C473 N472 1.355 . S
C473 C474 1.363 . S
C473 H485 0.929 . S
C474 C473 1.363 . S
C474 N476 1.375 . S
C474 H492 0.931 . S
C475 N472 1.311 . S
C475 N476 1.347 . S
C475 H486 0.929 . S
N476 C474 1.375 . S
N476 C475 1.347 . S
C477 C480 1.365 . S
C477 N482 1.328 . S
C477 H483 0.929 . S
C478 C479 1.362 . S
C478 C481 1.378 . S
C478 H493 0.929 . S
C479 C478 1.362 . S
C479 C480 1.366 . S
C480 C477 1.365 . S
C480 C479 1.366 . S
C480 H494 0.930 . S
C481 C478 1.378 . S
C481 N482 1.315 . S
C481 H484 0.930 . S
N482 Co462 2.194 . S
N482 C477 1.328 . S
N482 C481 1.315 . S
H483 C477 0.929 . S
H484 C481 0.930 . S
H485 C473 0.929 . S
H486 C475 0.929 . S
O487 Co462 2.351 . S
O487 C490 1.244 . S
O488 Co462 2.155 . S
O488 C490 1.240 . S
O489 Co462 2.096 . S
O489 C470 1.247 . S
C490 O487 1.244 . S
C490 O488 1.240 . S
H491 C465 0.931 . S
H492 C474 0.931 . S
H493 C478 0.929 . S
H494 C480 0.930 . S
Co495 N499 2.148 . S
Co495 N505 2.128 . S
Co495 N515 2.194 . S
Co495 O520 2.351 . S
Co495 O521 2.155 . S
Co495 O522 2.096 . S
C496 N499 1.301 . S
C496 N500 1.328 . S
C496 H501 0.930 . S
C497 C498 1.333 . S
C497 N499 1.317 . S
C497 H502 0.930 . S
C498 C497 1.333 . S
C498 N500 1.350 . S
C498 H524 0.931 . S
N499 Co495 2.148 . S
N499 C496 1.301 . S
N499 C497 1.317 . S
N500 C496 1.328 . S
N500 C498 1.350 . S
H501 C496 0.930 . S
H502 C497 0.930 . S
C503 O504 1.224 . S
C503 O522 1.247 . S
O504 C503 1.224 . S
N505 Co495 2.128 . S
N505 C506 1.355 . S
N505 C508 1.311 . S
C506 N505 1.355 . S
C506 C507 1.363 . S
C506 H518 0.929 . S
C507 C506 1.363 . S
C507 N509 1.375 . S
C507 H525 0.931 . S
C508 N505 1.311 . S
C508 N509 1.347 . S
C508 H519 0.929 . S
N509 C507 1.375 . S
N509 C508 1.347 . S
C510 C513 1.365 . S
C510 N515 1.328 . S
C510 H516 0.929 . S
C511 C512 1.362 . S
C511 C514 1.378 . S
C511 H526 0.929 . S
C512 C511 1.362 . S
C512 C513 1.366 . S
C513 C510 1.365 . S
C513 C512 1.366 . S
C513 H527 0.930 . S
C514 C511 1.378 . S
C514 N515 1.315 . S
C514 H517 0.930 . S
N515 Co495 2.194 . S
N515 C510 1.328 . S
N515 C514 1.315 . S
H516 C510 0.929 . S
H517 C514 0.930 . S
H518 C506 0.929 . S
H519 C508 0.929 . S
O520 Co495 2.351 . S
O520 C523 1.244 . S
O521 Co495 2.155 . S
O521 C523 1.240 . S
O522 Co495 2.096 . S
O522 C503 1.247 . S
C523 O520 1.244 . S
C523 O521 1.240 . S
H524 C498 0.931 . S
H525 C507 0.931 . S
H526 C511 0.929 . S
H527 C513 0.930 . S
Co528 N532 2.148 . S
Co528 N538 2.128 . S
Co528 N548 2.194 . S
Co528 O553 2.351 . S
Co528 O554 2.155 . S
Co528 O555 2.096 . S
C529 N532 1.301 . S
C529 N533 1.328 . S
C529 H534 0.930 . S
C530 C531 1.333 . S
C530 N532 1.317 . S
C530 H535 0.930 . S
C531 C530 1.333 . S
C531 N533 1.350 . S
C531 H557 0.931 . S
N532 Co528 2.148 . S
N532 C529 1.301 . S
N532 C530 1.317 . S
N533 C529 1.328 . S
N533 C531 1.350 . S
H534 C529 0.930 . S
H535 C530 0.930 . S
C536 O537 1.224 . S
C536 O555 1.247 . S
O537 C536 1.224 . S
N538 Co528 2.128 . S
N538 C539 1.355 . S
N538 C541 1.311 . S
C539 N538 1.355 . S
C539 C540 1.363 . S
C539 H551 0.929 . S
C540 C539 1.363 . S
C540 N542 1.375 . S
C540 H558 0.931 . S
C541 N538 1.311 . S
C541 N542 1.347 . S
C541 H552 0.929 . S
N542 C540 1.375 . S
N542 C541 1.347 . S
C543 C546 1.365 . S
C543 N548 1.328 . S
C543 H549 0.929 . S
C544 C545 1.362 . S
C544 C547 1.378 . S
C544 H559 0.929 . S
C545 C544 1.362 . S
C545 C546 1.366 . S
C546 C543 1.365 . S
C546 C545 1.366 . S
C546 H560 0.930 . S
C547 C544 1.378 . S
C547 N548 1.315 . S
C547 H550 0.930 . S
N548 Co528 2.194 . S
N548 C543 1.328 . S
N548 C547 1.315 . S
H549 C543 0.929 . S
H550 C547 0.930 . S
H551 C539 0.929 . S
H552 C541 0.929 . S
O553 Co528 2.351 . S
O553 C556 1.244 . S
O554 Co528 2.155 . S
O554 C556 1.240 . S
O555 Co528 2.096 . S
O555 C536 1.247 . S
C556 O553 1.244 . S
C556 O554 1.240 . S
H557 C531 0.931 . S
H558 C540 0.931 . S
H559 C544 0.929 . S
H560 C546 0.930 . S
Co561 N565 2.148 . S
Co561 N571 2.128 . S
Co561 N581 2.194 . S
Co561 O586 2.351 . S
Co561 O587 2.155 . S
Co561 O588 2.096 . S
C562 N565 1.301 . S
C562 N566 1.328 . S
C562 H567 0.930 . S
C563 C564 1.333 . S
C563 N565 1.317 . S
C563 H568 0.930 . S
C564 C563 1.333 . S
C564 N566 1.350 . S
C564 H590 0.931 . S
N565 Co561 2.148 . S
N565 C562 1.301 . S
N565 C563 1.317 . S
N566 C562 1.328 . S
N566 C564 1.350 . S
H567 C562 0.930 . S
H568 C563 0.930 . S
C569 O570 1.224 . S
C569 O588 1.247 . S
O570 C569 1.224 . S
N571 Co561 2.128 . S
N571 C572 1.355 . S
N571 C574 1.311 . S
C572 N571 1.355 . S
C572 C573 1.363 . S
C572 H584 0.929 . S
C573 C572 1.363 . S
C573 N575 1.375 . S
C573 H591 0.931 . S
C574 N571 1.311 . S
C574 N575 1.347 . S
C574 H585 0.929 . S
N575 C573 1.375 . S
N575 C574 1.347 . S
C576 C579 1.365 . S
C576 N581 1.328 . S
C576 H582 0.929 . S
C577 C578 1.362 . S
C577 C580 1.378 . S
C577 H592 0.929 . S
C578 C577 1.362 . S
C578 C579 1.366 . S
C579 C576 1.365 . S
C579 C578 1.366 . S
C579 H593 0.930 . S
C580 C577 1.378 . S
C580 N581 1.315 . S
C580 H583 0.930 . S
N581 Co561 2.194 . S
N581 C576 1.328 . S
N581 C580 1.315 . S
H582 C576 0.929 . S
H583 C580 0.930 . S
H584 C572 0.929 . S
H585 C574 0.929 . S
O586 Co561 2.351 . S
O586 C589 1.244 . S
O587 Co561 2.155 . S
O587 C589 1.240 . S
O588 Co561 2.096 . S
O588 C569 1.247 . S
C589 O586 1.244 . S
C589 O587 1.240 . S
H590 C564 0.931 . S
H591 C573 0.931 . S
H592 C577 0.929 . S
H593 C579 0.930 . S
Co594 N598 2.148 . S
Co594 N604 2.128 . S
Co594 N614 2.194 . S
Co594 O619 2.351 . S
Co594 O620 2.155 . S
Co594 O621 2.096 . S
C595 N598 1.301 . S
C595 N599 1.328 . S
C595 H600 0.930 . S
C596 C597 1.333 . S
C596 N598 1.317 . S
C596 H601 0.930 . S
C597 C596 1.333 . S
C597 N599 1.350 . S
C597 H623 0.931 . S
N598 Co594 2.148 . S
N598 C595 1.301 . S
N598 C596 1.317 . S
N599 C595 1.328 . S
N599 C597 1.350 . S
H600 C595 0.930 . S
H601 C596 0.930 . S
C602 O603 1.224 . S
C602 O621 1.247 . S
O603 C602 1.224 . S
N604 Co594 2.128 . S
N604 C605 1.355 . S
N604 C607 1.311 . S
C605 N604 1.355 . S
C605 C606 1.363 . S
C605 H617 0.929 . S
C606 C605 1.363 . S
C606 N608 1.375 . S
C606 H624 0.931 . S
C607 N604 1.311 . S
C607 N608 1.347 . S
C607 H618 0.929 . S
N608 C606 1.375 . S
N608 C607 1.347 . S
C609 C612 1.365 . S
C609 N614 1.328 . S
C609 H615 0.929 . S
C610 C611 1.362 . S
C610 C613 1.378 . S
C610 H625 0.929 . S
C611 C610 1.362 . S
C611 C612 1.366 . S
C612 C609 1.365 . S
C612 C611 1.366 . S
C612 H626 0.930 . S
C613 C610 1.378 . S
C613 N614 1.315 . S
C613 H616 0.930 . S
N614 Co594 2.194 . S
N614 C609 1.328 . S
N614 C613 1.315 . S
H615 C609 0.929 . S
H616 C613 0.930 . S
H617 C605 0.929 . S
H618 C607 0.929 . S
O619 Co594 2.351 . S
O619 C622 1.244 . S
O620 Co594 2.155 . S
O620 C622 1.240 . S
O621 Co594 2.096 . S
O621 C602 1.247 . S
C622 O619 1.244 . S
C622 O620 1.240 . S
H623 C597 0.931 . S
H624 C606 0.931 . S
H625 C610 0.929 . S
H626 C612 0.930 . S
Co627 N631 2.148 . S
Co627 N637 2.128 . S
Co627 N647 2.194 . S
Co627 O652 2.351 . S
Co627 O653 2.155 . S
Co627 O654 2.096 . S
C628 N631 1.301 . S
C628 N632 1.328 . S
C628 H633 0.930 . S
C629 C630 1.333 . S
C629 N631 1.317 . S
C629 H634 0.930 . S
C630 C629 1.333 . S
C630 N632 1.350 . S
C630 H656 0.931 . S
N631 Co627 2.148 . S
N631 C628 1.301 . S
N631 C629 1.317 . S
N632 C628 1.328 . S
N632 C630 1.350 . S
H633 C628 0.930 . S
H634 C629 0.930 . S
C635 O636 1.224 . S
C635 O654 1.247 . S
O636 C635 1.224 . S
N637 Co627 2.128 . S
N637 C638 1.355 . S
N637 C640 1.311 . S
C638 N637 1.355 . S
C638 C639 1.363 . S
C638 H650 0.929 . S
C639 C638 1.363 . S
C639 N641 1.375 . S
C639 H657 0.931 . S
C640 N637 1.311 . S
C640 N641 1.347 . S
C640 H651 0.929 . S
N641 C639 1.375 . S
N641 C640 1.347 . S
C642 C645 1.365 . S
C642 N647 1.328 . S
C642 H648 0.929 . S
C643 C644 1.362 . S
C643 C646 1.378 . S
C643 H658 0.929 . S
C644 C643 1.362 . S
C644 C645 1.366 . S
C645 C642 1.365 . S
C645 C644 1.366 . S
C645 H659 0.930 . S
C646 C643 1.378 . S
C646 N647 1.315 . S
C646 H649 0.930 . S
N647 Co627 2.194 . S
N647 C642 1.328 . S
N647 C646 1.315 . S
H648 C642 0.929 . S
H649 C646 0.930 . S
H650 C638 0.929 . S
H651 C640 0.929 . S
O652 Co627 2.351 . S
O652 C655 1.244 . S
O653 Co627 2.155 . S
O653 C655 1.240 . S
O654 Co627 2.096 . S
O654 C635 1.247 . S
C655 O652 1.244 . S
C655 O653 1.240 . S
H656 C630 0.931 . S
H657 C639 0.931 . S
H658 C643 0.929 . S
H659 C645 0.930 . S
Co660 N664 2.148 . S
Co660 N670 2.128 . S
Co660 N680 2.194 . S
Co660 O685 2.351 . S
Co660 O686 2.155 . S
Co660 O687 2.096 . S
C661 N664 1.301 . S
C661 N665 1.328 . S
C661 H666 0.930 . S
C662 C663 1.333 . S
C662 N664 1.317 . S
C662 H667 0.930 . S
C663 C662 1.333 . S
C663 N665 1.350 . S
C663 H689 0.931 . S
N664 Co660 2.148 . S
N664 C661 1.301 . S
N664 C662 1.317 . S
N665 C661 1.328 . S
N665 C663 1.350 . S
H666 C661 0.930 . S
H667 C662 0.930 . S
C668 O669 1.224 . S
C668 O687 1.247 . S
O669 C668 1.224 . S
N670 Co660 2.128 . S
N670 C671 1.355 . S
N670 C673 1.311 . S
C671 N670 1.355 . S
C671 C672 1.363 . S
C671 H683 0.929 . S
C672 C671 1.363 . S
C672 N674 1.375 . S
C672 H690 0.931 . S
C673 N670 1.311 . S
C673 N674 1.347 . S
C673 H684 0.929 . S
N674 C672 1.375 . S
N674 C673 1.347 . S
C675 C678 1.365 . S
C675 N680 1.328 . S
C675 H681 0.929 . S
C676 C677 1.362 . S
C676 C679 1.378 . S
C676 H691 0.929 . S
C677 C676 1.362 . S
C677 C678 1.366 . S
C678 C675 1.365 . S
C678 C677 1.366 . S
C678 H692 0.930 . S
C679 C676 1.378 . S
C679 N680 1.315 . S
C679 H682 0.930 . S
N680 Co660 2.194 . S
N680 C675 1.328 . S
N680 C679 1.315 . S
H681 C675 0.929 . S
H682 C679 0.930 . S
H683 C671 0.929 . S
H684 C673 0.929 . S
O685 Co660 2.351 . S
O685 C688 1.244 . S
O686 Co660 2.155 . S
O686 C688 1.240 . S
O687 Co660 2.096 . S
O687 C668 1.247 . S
C688 O685 1.244 . S
C688 O686 1.240 . S
H689 C663 0.931 . S
H690 C672 0.931 . S
H691 C676 0.929 . S
H692 C678 0.930 . S
Co693 N697 2.148 . S
Co693 N703 2.128 . S
Co693 N713 2.194 . S
Co693 O718 2.351 . S
Co693 O719 2.155 . S
Co693 O720 2.096 . S
C694 N697 1.301 . S
C694 N698 1.328 . S
C694 H699 0.930 . S
C695 C696 1.333 . S
C695 N697 1.317 . S
C695 H700 0.930 . S
C696 C695 1.333 . S
C696 N698 1.350 . S
C696 H722 0.931 . S
N697 Co693 2.148 . S
N697 C694 1.301 . S
N697 C695 1.317 . S
N698 C694 1.328 . S
N698 C696 1.350 . S
H699 C694 0.930 . S
H700 C695 0.930 . S
C701 O702 1.224 . S
C701 O720 1.247 . S
O702 C701 1.224 . S
N703 Co693 2.128 . S
N703 C704 1.355 . S
N703 C706 1.311 . S
C704 N703 1.355 . S
C704 C705 1.363 . S
C704 H716 0.929 . S
C705 C704 1.363 . S
C705 N707 1.375 . S
C705 H723 0.931 . S
C706 N703 1.311 . S
C706 N707 1.347 . S
C706 H717 0.929 . S
N707 C705 1.375 . S
N707 C706 1.347 . S
C708 C711 1.365 . S
C708 N713 1.328 . S
C708 H714 0.929 . S
C709 C710 1.362 . S
C709 C712 1.378 . S
C709 H724 0.929 . S
C710 C709 1.362 . S
C710 C711 1.366 . S
C711 C708 1.365 . S
C711 C710 1.366 . S
C711 H725 0.930 . S
C712 C709 1.378 . S
C712 N713 1.315 . S
C712 H715 0.930 . S
N713 Co693 2.194 . S
N713 C708 1.328 . S
N713 C712 1.315 . S
H714 C708 0.929 . S
H715 C712 0.930 . S
H716 C704 0.929 . S
H717 C706 0.929 . S
O718 Co693 2.351 . S
O718 C721 1.244 . S
O719 Co693 2.155 . S
O719 C721 1.240 . S
O720 Co693 2.096 . S
O720 C701 1.247 . S
C721 O718 1.244 . S
C721 O719 1.240 . S
H722 C696 0.931 . S
H723 C705 0.931 . S
H724 C709 0.929 . S
H725 C711 0.930 . S
Co726 N730 2.148 . S
Co726 N736 2.128 . S
Co726 N746 2.194 . S
Co726 O751 2.351 . S
Co726 O752 2.155 . S
Co726 O753 2.096 . S
C727 N730 1.301 . S
C727 N731 1.328 . S
C727 H732 0.930 . S
C728 C729 1.333 . S
C728 N730 1.317 . S
C728 H733 0.930 . S
C729 C728 1.333 . S
C729 N731 1.350 . S
C729 H755 0.931 . S
N730 Co726 2.148 . S
N730 C727 1.301 . S
N730 C728 1.317 . S
N731 C727 1.328 . S
N731 C729 1.350 . S
H732 C727 0.930 . S
H733 C728 0.930 . S
C734 O735 1.224 . S
C734 O753 1.247 . S
O735 C734 1.224 . S
N736 Co726 2.128 . S
N736 C737 1.355 . S
N736 C739 1.311 . S
C737 N736 1.355 . S
C737 C738 1.363 . S
C737 H749 0.929 . S
C738 C737 1.363 . S
C738 N740 1.375 . S
C738 H756 0.931 . S
C739 N736 1.311 . S
C739 N740 1.347 . S
C739 H750 0.929 . S
N740 C738 1.375 . S
N740 C739 1.347 . S
C741 C744 1.365 . S
C741 N746 1.328 . S
C741 H747 0.929 . S
C742 C743 1.362 . S
C742 C745 1.378 . S
C742 H757 0.929 . S
C743 C742 1.362 . S
C743 C744 1.366 . S
C744 C741 1.365 . S
C744 C743 1.366 . S
C744 H758 0.930 . S
C745 C742 1.378 . S
C745 N746 1.315 . S
C745 H748 0.930 . S
N746 Co726 2.194 . S
N746 C741 1.328 . S
N746 C745 1.315 . S
H747 C741 0.929 . S
H748 C745 0.930 . S
H749 C737 0.929 . S
H750 C739 0.929 . S
O751 Co726 2.351 . S
O751 C754 1.244 . S
O752 Co726 2.155 . S
O752 C754 1.240 . S
O753 Co726 2.096 . S
O753 C734 1.247 . S
C754 O751 1.244 . S
C754 O752 1.240 . S
H755 C729 0.931 . S
H756 C738 0.931 . S
H757 C742 0.929 . S
H758 C744 0.930 . S
Co759 N763 2.148 . S
Co759 N769 2.128 . S
Co759 N779 2.194 . S
Co759 O784 2.351 . S
Co759 O785 2.155 . S
Co759 O786 2.096 . S
C760 N763 1.301 . S
C760 N764 1.328 . S
C760 H765 0.930 . S
C761 C762 1.333 . S
C761 N763 1.317 . S
C761 H766 0.930 . S
C762 C761 1.333 . S
C762 N764 1.350 . S
C762 H788 0.931 . S
N763 Co759 2.148 . S
N763 C760 1.301 . S
N763 C761 1.317 . S
N764 C760 1.328 . S
N764 C762 1.350 . S
H765 C760 0.930 . S
H766 C761 0.930 . S
C767 O768 1.224 . S
C767 O786 1.247 . S
O768 C767 1.224 . S
N769 Co759 2.128 . S
N769 C770 1.355 . S
N769 C772 1.311 . S
C770 N769 1.355 . S
C770 C771 1.363 . S
C770 H782 0.929 . S
C771 C770 1.363 . S
C771 N773 1.375 . S
C771 H789 0.931 . S
C772 N769 1.311 . S
C772 N773 1.347 . S
C772 H783 0.929 . S
N773 C771 1.375 . S
N773 C772 1.347 . S
C774 C777 1.365 . S
C774 N779 1.328 . S
C774 H780 0.929 . S
C775 C776 1.362 . S
C775 C778 1.378 . S
C775 H790 0.929 . S
C776 C775 1.362 . S
C776 C777 1.366 . S
C777 C774 1.365 . S
C777 C776 1.366 . S
C777 H791 0.930 . S
C778 C775 1.378 . S
C778 N779 1.315 . S
C778 H781 0.930 . S
N779 Co759 2.194 . S
N779 C774 1.328 . S
N779 C778 1.315 . S
H780 C774 0.929 . S
H781 C778 0.930 . S
H782 C770 0.929 . S
H783 C772 0.929 . S
O784 Co759 2.351 . S
O784 C787 1.244 . S
O785 Co759 2.155 . S
O785 C787 1.240 . S
O786 Co759 2.096 . S
O786 C767 1.247 . S
C787 O784 1.244 . S
C787 O785 1.240 . S
H788 C762 0.931 . S
H789 C771 0.931 . S
H790 C775 0.929 . S
H791 C777 0.930 . S
Co792 N796 2.148 . S
Co792 N802 2.128 . S
Co792 N812 2.194 . S
Co792 O817 2.351 . S
Co792 O818 2.155 . S
Co792 O819 2.096 . S
C793 N796 1.301 . S
C793 N797 1.328 . S
C793 H798 0.930 . S
C794 C795 1.333 . S
C794 N796 1.317 . S
C794 H799 0.930 . S
C795 C794 1.333 . S
C795 N797 1.350 . S
C795 H821 0.931 . S
N796 Co792 2.148 . S
N796 C793 1.301 . S
N796 C794 1.317 . S
N797 C793 1.328 . S
N797 C795 1.350 . S
H798 C793 0.930 . S
H799 C794 0.930 . S
C800 O801 1.224 . S
C800 O819 1.247 . S
O801 C800 1.224 . S
N802 Co792 2.128 . S
N802 C803 1.355 . S
N802 C805 1.311 . S
C803 N802 1.355 . S
C803 C804 1.363 . S
C803 H815 0.929 . S
C804 C803 1.363 . S
C804 N806 1.375 . S
C804 H822 0.931 . S
C805 N802 1.311 . S
C805 N806 1.347 . S
C805 H816 0.929 . S
N806 C804 1.375 . S
N806 C805 1.347 . S
C807 C810 1.365 . S
C807 N812 1.328 . S
C807 H813 0.929 . S
C808 C809 1.362 . S
C808 C811 1.378 . S
C808 H823 0.929 . S
C809 C808 1.362 . S
C809 C810 1.366 . S
C810 C807 1.365 . S
C810 C809 1.366 . S
C810 H824 0.930 . S
C811 C808 1.378 . S
C811 N812 1.315 . S
C811 H814 0.930 . S
N812 Co792 2.194 . S
N812 C807 1.328 . S
N812 C811 1.315 . S
H813 C807 0.929 . S
H814 C811 0.930 . S
H815 C803 0.929 . S
H816 C805 0.929 . S
O817 Co792 2.351 . S
O817 C820 1.244 . S
O818 Co792 2.155 . S
O818 C820 1.240 . S
O819 Co792 2.096 . S
O819 C800 1.247 . S
C820 O817 1.244 . S
C820 O818 1.240 . S
H821 C795 0.931 . S
H822 C804 0.931 . S
H823 C808 0.929 . S
H824 C810 0.930 . S
Co825 N829 2.148 . S
Co825 N835 2.128 . S
Co825 N845 2.194 . S
Co825 O850 2.351 . S
Co825 O851 2.155 . S
Co825 O852 2.096 . S
C826 N829 1.301 . S
C826 N830 1.328 . S
C826 H831 0.930 . S
C827 C828 1.333 . S
C827 N829 1.317 . S
C827 H832 0.930 . S
C828 C827 1.333 . S
C828 N830 1.350 . S
C828 H854 0.931 . S
N829 Co825 2.148 . S
N829 C826 1.301 . S
N829 C827 1.317 . S
N830 C826 1.328 . S
N830 C828 1.350 . S
H831 C826 0.930 . S
H832 C827 0.930 . S
C833 O834 1.224 . S
C833 O852 1.247 . S
O834 C833 1.224 . S
N835 Co825 2.128 . S
N835 C836 1.355 . S
N835 C838 1.311 . S
C836 N835 1.355 . S
C836 C837 1.363 . S
C836 H848 0.929 . S
C837 C836 1.363 . S
C837 N839 1.375 . S
C837 H855 0.931 . S
C838 N835 1.311 . S
C838 N839 1.347 . S
C838 H849 0.929 . S
N839 C837 1.375 . S
N839 C838 1.347 . S
C840 C843 1.365 . S
C840 N845 1.328 . S
C840 H846 0.929 . S
C841 C842 1.362 . S
C841 C844 1.378 . S
C841 H856 0.929 . S
C842 C841 1.362 . S
C842 C843 1.366 . S
C843 C840 1.365 . S
C843 C842 1.366 . S
C843 H857 0.930 . S
C844 C841 1.378 . S
C844 N845 1.315 . S
C844 H847 0.930 . S
N845 Co825 2.194 . S
N845 C840 1.328 . S
N845 C844 1.315 . S
H846 C840 0.929 . S
H847 C844 0.930 . S
H848 C836 0.929 . S
H849 C838 0.929 . S
O850 Co825 2.351 . S
O850 C853 1.244 . S
O851 Co825 2.155 . S
O851 C853 1.240 . S
O852 Co825 2.096 . S
O852 C833 1.247 . S
C853 O850 1.244 . S
C853 O851 1.240 . S
H854 C828 0.931 . S
H855 C837 0.931 . S
H856 C841 0.929 . S
H857 C843 0.930 . S
Co858 N862 2.148 . S
Co858 N868 2.128 . S
Co858 N878 2.194 . S
Co858 O883 2.351 . S
Co858 O884 2.155 . S
Co858 O885 2.096 . S
C859 N862 1.301 . S
C859 N863 1.328 . S
C859 H864 0.930 . S
C860 C861 1.333 . S
C860 N862 1.317 . S
C860 H865 0.930 . S
C861 C860 1.333 . S
C861 N863 1.350 . S
C861 H887 0.931 . S
N862 Co858 2.148 . S
N862 C859 1.301 . S
N862 C860 1.317 . S
N863 C859 1.328 . S
N863 C861 1.350 . S
H864 C859 0.930 . S
H865 C860 0.930 . S
C866 O867 1.224 . S
C866 O885 1.247 . S
O867 C866 1.224 . S
N868 Co858 2.128 . S
N868 C869 1.355 . S
N868 C871 1.311 . S
C869 N868 1.355 . S
C869 C870 1.363 . S
C869 H881 0.929 . S
C870 C869 1.363 . S
C870 N872 1.375 . S
C870 H888 0.931 . S
C871 N868 1.311 . S
C871 N872 1.347 . S
C871 H882 0.929 . S
N872 C870 1.375 . S
N872 C871 1.347 . S
C873 C876 1.365 . S
C873 N878 1.328 . S
C873 H879 0.929 . S
C874 C875 1.362 . S
C874 C877 1.378 . S
C874 H889 0.929 . S
C875 C874 1.362 . S
C875 C876 1.366 . S
C876 C873 1.365 . S
C876 C875 1.366 . S
C876 H890 0.930 . S
C877 C874 1.378 . S
C877 N878 1.315 . S
C877 H880 0.930 . S
N878 Co858 2.194 . S
N878 C873 1.328 . S
N878 C877 1.315 . S
H879 C873 0.929 . S
H880 C877 0.930 . S
H881 C869 0.929 . S
H882 C871 0.929 . S
O883 Co858 2.351 . S
O883 C886 1.244 . S
O884 Co858 2.155 . S
O884 C886 1.240 . S
O885 Co858 2.096 . S
O885 C866 1.247 . S
C886 O883 1.244 . S
C886 O884 1.240 . S
H887 C861 0.931 . S
H888 C870 0.931 . S
H889 C874 0.929 . S
H890 C876 0.930 . S
Co891 N895 2.148 . S
Co891 N901 2.128 . S
Co891 N911 2.194 . S
Co891 O916 2.351 . S
Co891 O917 2.155 . S
Co891 O918 2.096 . S
C892 N895 1.301 . S
C892 N896 1.328 . S
C892 H897 0.930 . S
C893 C894 1.333 . S
C893 N895 1.317 . S
C893 H898 0.930 . S
C894 C893 1.333 . S
C894 N896 1.350 . S
C894 H920 0.931 . S
N895 Co891 2.148 . S
N895 C892 1.301 . S
N895 C893 1.317 . S
N896 C892 1.328 . S
N896 C894 1.350 . S
H897 C892 0.930 . S
H898 C893 0.930 . S
C899 O900 1.224 . S
C899 O918 1.247 . S
O900 C899 1.224 . S
N901 Co891 2.128 . S
N901 C902 1.355 . S
N901 C904 1.311 . S
C902 N901 1.355 . S
C902 C903 1.363 . S
C902 H914 0.929 . S
C903 C902 1.363 . S
C903 N905 1.375 . S
C903 H921 0.931 . S
C904 N901 1.311 . S
C904 N905 1.347 . S
C904 H915 0.929 . S
N905 C903 1.375 . S
N905 C904 1.347 . S
C906 C909 1.365 . S
C906 N911 1.328 . S
C906 H912 0.929 . S
C907 C908 1.362 . S
C907 C910 1.378 . S
C907 H922 0.929 . S
C908 C907 1.362 . S
C908 C909 1.366 . S
C909 C906 1.365 . S
C909 C908 1.366 . S
C909 H923 0.930 . S
C910 C907 1.378 . S
C910 N911 1.315 . S
C910 H913 0.930 . S
N911 Co891 2.194 . S
N911 C906 1.328 . S
N911 C910 1.315 . S
H912 C906 0.929 . S
H913 C910 0.930 . S
H914 C902 0.929 . S
H915 C904 0.929 . S
O916 Co891 2.351 . S
O916 C919 1.244 . S
O917 Co891 2.155 . S
O917 C919 1.240 . S
O918 Co891 2.096 . S
O918 C899 1.247 . S
C919 O916 1.244 . S
C919 O917 1.240 . S
H920 C894 0.931 . S
H921 C903 0.931 . S
H922 C907 0.929 . S
H923 C909 0.930 . S
Co924 N928 2.148 . S
Co924 N934 2.128 . S
Co924 N944 2.194 . S
Co924 O949 2.351 . S
Co924 O950 2.155 . S
Co924 O951 2.096 . S
C925 N928 1.301 . S
C925 N929 1.328 . S
C925 H930 0.930 . S
C926 C927 1.333 . S
C926 N928 1.317 . S
C926 H931 0.930 . S
C927 C926 1.333 . S
C927 N929 1.350 . S
C927 H953 0.931 . S
N928 Co924 2.148 . S
N928 C925 1.301 . S
N928 C926 1.317 . S
N929 C925 1.328 . S
N929 C927 1.350 . S
H930 C925 0.930 . S
H931 C926 0.930 . S
C932 O933 1.224 . S
C932 O951 1.247 . S
O933 C932 1.224 . S
N934 Co924 2.128 . S
N934 C935 1.355 . S
N934 C937 1.311 . S
C935 N934 1.355 . S
C935 C936 1.363 . S
C935 H947 0.929 . S
C936 C935 1.363 . S
C936 N938 1.375 . S
C936 H954 0.931 . S
C937 N934 1.311 . S
C937 N938 1.347 . S
C937 H948 0.929 . S
N938 C936 1.375 . S
N938 C937 1.347 . S
C939 C942 1.365 . S
C939 N944 1.328 . S
C939 H945 0.929 . S
C940 C941 1.362 . S
C940 C943 1.378 . S
C940 H955 0.929 . S
C941 C940 1.362 . S
C941 C942 1.366 . S
C942 C939 1.365 . S
C942 C941 1.366 . S
C942 H956 0.930 . S
C943 C940 1.378 . S
C943 N944 1.315 . S
C943 H946 0.930 . S
N944 Co924 2.194 . S
N944 C939 1.328 . S
N944 C943 1.315 . S
H945 C939 0.929 . S
H946 C943 0.930 . S
H947 C935 0.929 . S
H948 C937 0.929 . S
O949 Co924 2.351 . S
O949 C952 1.244 . S
O950 Co924 2.155 . S
O950 C952 1.240 . S
O951 Co924 2.096 . S
O951 C932 1.247 . S
C952 O949 1.244 . S
C952 O950 1.240 . S
H953 C927 0.931 . S
H954 C936 0.931 . S
H955 C940 0.929 . S
H956 C942 0.930 . S
Co957 N961 2.148 . S
Co957 N967 2.128 . S
Co957 N977 2.194 . S
Co957 O982 2.351 . S
Co957 O983 2.155 . S
Co957 O984 2.096 . S
C958 N961 1.301 . S
C958 N962 1.328 . S
C958 H963 0.930 . S
C959 C960 1.333 . S
C959 N961 1.317 . S
C959 H964 0.930 . S
C960 C959 1.333 . S
C960 N962 1.350 . S
C960 H986 0.931 . S
N961 Co957 2.148 . S
N961 C958 1.301 . S
N961 C959 1.317 . S
N962 C958 1.328 . S
N962 C960 1.350 . S
H963 C958 0.930 . S
H964 C959 0.930 . S
C965 O966 1.224 . S
C965 O984 1.247 . S
O966 C965 1.224 . S
N967 Co957 2.128 . S
N967 C968 1.355 . S
N967 C970 1.311 . S
C968 N967 1.355 . S
C968 C969 1.363 . S
C968 H980 0.929 . S
C969 C968 1.363 . S
C969 N971 1.375 . S
C969 H987 0.931 . S
C970 N967 1.311 . S
C970 N971 1.347 . S
C970 H981 0.929 . S
N971 C969 1.375 . S
N971 C970 1.347 . S
C972 C975 1.365 . S
C972 N977 1.328 . S
C972 H978 0.929 . S
C973 C974 1.362 . S
C973 C976 1.378 . S
C973 H988 0.929 . S
C974 C973 1.362 . S
C974 C975 1.366 . S
C975 C972 1.365 . S
C975 C974 1.366 . S
C975 H989 0.930 . S
C976 C973 1.378 . S
C976 N977 1.315 . S
C976 H979 0.930 . S
N977 Co957 2.194 . S
N977 C972 1.328 . S
N977 C976 1.315 . S
H978 C972 0.929 . S
H979 C976 0.930 . S
H980 C968 0.929 . S
H981 C970 0.929 . S
O982 Co957 2.351 . S
O982 C985 1.244 . S
O983 Co957 2.155 . S
O983 C985 1.240 . S
O984 Co957 2.096 . S
O984 C965 1.247 . S
C985 O982 1.244 . S
C985 O983 1.240 . S
H986 C960 0.931 . S
H987 C969 0.931 . S
H988 C973 0.929 . S
H989 C975 0.930 . S
Co990 N994 2.148 . S
Co990 N1000 2.128 . S
Co990 N1010 2.194 . S
Co990 O1015 2.351 . S
Co990 O1016 2.155 . S
Co990 O1017 2.096 . S
C991 N994 1.301 . S
C991 N995 1.328 . S
C991 H996 0.930 . S
C992 C993 1.333 . S
C992 N994 1.317 . S
C992 H997 0.930 . S
C993 C992 1.333 . S
C993 N995 1.350 . S
C993 H1019 0.931 . S
N994 Co990 2.148 . S
N994 C991 1.301 . S
N994 C992 1.317 . S
N995 C991 1.328 . S
N995 C993 1.350 . S
H996 C991 0.930 . S
H997 C992 0.930 . S
C998 O999 1.224 . S
C998 O1017 1.247 . S
O999 C998 1.224 . S
N1000 Co990 2.128 . S
N1000 C1001 1.355 . S
N1000 C1003 1.311 . S
C1001 N1000 1.355 . S
C1001 C1002 1.363 . S
C1001 H1013 0.929 . S
C1002 C1001 1.363 . S
C1002 N1004 1.375 . S
C1002 H1020 0.931 . S
C1003 N1000 1.311 . S
C1003 N1004 1.347 . S
C1003 H1014 0.929 . S
N1004 C1002 1.375 . S
N1004 C1003 1.347 . S
C1005 C1008 1.365 . S
C1005 N1010 1.328 . S
C1005 H1011 0.929 . S
C1006 C1007 1.362 . S
C1006 C1009 1.378 . S
C1006 H1021 0.929 . S
C1007 C1006 1.362 . S
C1007 C1008 1.366 . S
C1008 C1005 1.365 . S
C1008 C1007 1.366 . S
C1008 H1022 0.930 . S
C1009 C1006 1.378 . S
C1009 N1010 1.315 . S
C1009 H1012 0.930 . S
N1010 Co990 2.194 . S
N1010 C1005 1.328 . S
N1010 C1009 1.315 . S
H1011 C1005 0.929 . S
H1012 C1009 0.930 . S
H1013 C1001 0.929 . S
H1014 C1003 0.929 . S
O1015 Co990 2.351 . S
O1015 C1018 1.244 . S
O1016 Co990 2.155 . S
O1016 C1018 1.240 . S
O1017 Co990 2.096 . S
O1017 C998 1.247 . S
C1018 O1015 1.244 . S
C1018 O1016 1.240 . S
H1019 C993 0.931 . S
H1020 C1002 0.931 . S
H1021 C1006 0.929 . S
H1022 C1008 0.930 . S
Co1023 N1027 2.148 . S
Co1023 N1033 2.128 . S
Co1023 N1043 2.194 . S
Co1023 O1048 2.351 . S
Co1023 O1049 2.155 . S
Co1023 O1050 2.096 . S
C1024 N1027 1.301 . S
C1024 N1028 1.328 . S
C1024 H1029 0.930 . S
C1025 C1026 1.333 . S
C1025 N1027 1.317 . S
C1025 H1030 0.930 . S
C1026 C1025 1.333 . S
C1026 N1028 1.350 . S
C1026 H1052 0.931 . S
N1027 Co1023 2.148 . S
N1027 C1024 1.301 . S
N1027 C1025 1.317 . S
N1028 C1024 1.328 . S
N1028 C1026 1.350 . S
H1029 C1024 0.930 . S
H1030 C1025 0.930 . S
C1031 O1032 1.224 . S
C1031 O1050 1.247 . S
O1032 C1031 1.224 . S
N1033 Co1023 2.128 . S
N1033 C1034 1.355 . S
N1033 C1036 1.311 . S
C1034 N1033 1.355 . S
C1034 C1035 1.363 . S
C1034 H1046 0.929 . S
C1035 C1034 1.363 . S
C1035 N1037 1.375 . S
C1035 H1053 0.931 . S
C1036 N1033 1.311 . S
C1036 N1037 1.347 . S
C1036 H1047 0.929 . S
N1037 C1035 1.375 . S
N1037 C1036 1.347 . S
C1038 C1041 1.365 . S
C1038 N1043 1.328 . S
C1038 H1044 0.929 . S
C1039 C1040 1.362 . S
C1039 C1042 1.378 . S
C1039 H1054 0.929 . S
C1040 C1039 1.362 . S
C1040 C1041 1.366 . S
C1041 C1038 1.365 . S
C1041 C1040 1.366 . S
C1041 H1055 0.930 . S
C1042 C1039 1.378 . S
C1042 N1043 1.315 . S
C1042 H1045 0.930 . S
N1043 Co1023 2.194 . S
N1043 C1038 1.328 . S
N1043 C1042 1.315 . S
H1044 C1038 0.929 . S
H1045 C1042 0.930 . S
H1046 C1034 0.929 . S
H1047 C1036 0.929 . S
O1048 Co1023 2.351 . S
O1048 C1051 1.244 . S
O1049 Co1023 2.155 . S
O1049 C1051 1.240 . S
O1050 Co1023 2.096 . S
O1050 C1031 1.247 . S
C1051 O1048 1.244 . S
C1051 O1049 1.240 . S
H1052 C1026 0.931 . S
H1053 C1035 0.931 . S
H1054 C1039 0.929 . S
H1055 C1041 0.930 . S
Co1056 N1060 2.148 . S
Co1056 N1066 2.128 . S
Co1056 N1076 2.194 . S
Co1056 O1081 2.351 . S
Co1056 O1082 2.155 . S
Co1056 O1083 2.096 . S
C1057 N1060 1.301 . S
C1057 N1061 1.328 . S
C1057 H1062 0.930 . S
C1058 C1059 1.333 . S
C1058 N1060 1.317 . S
C1058 H1063 0.930 . S
C1059 C1058 1.333 . S
C1059 N1061 1.350 . S
C1059 H1085 0.931 . S
N1060 Co1056 2.148 . S
N1060 C1057 1.301 . S
N1060 C1058 1.317 . S
N1061 C1057 1.328 . S
N1061 C1059 1.350 . S
H1062 C1057 0.930 . S
H1063 C1058 0.930 . S
C1064 O1065 1.224 . S
C1064 O1083 1.247 . S
O1065 C1064 1.224 . S
N1066 Co1056 2.128 . S
N1066 C1067 1.355 . S
N1066 C1069 1.311 . S
C1067 N1066 1.355 . S
C1067 C1068 1.363 . S
C1067 H1079 0.929 . S
C1068 C1067 1.363 . S
C1068 N1070 1.375 . S
C1068 H1086 0.931 . S
C1069 N1066 1.311 . S
C1069 N1070 1.347 . S
C1069 H1080 0.929 . S
N1070 C1068 1.375 . S
N1070 C1069 1.347 . S
C1071 C1074 1.365 . S
C1071 N1076 1.328 . S
C1071 H1077 0.929 . S
C1072 C1073 1.362 . S
C1072 C1075 1.378 . S
C1072 H1087 0.929 . S
C1073 C1072 1.362 . S
C1073 C1074 1.366 . S
C1074 C1071 1.365 . S
C1074 C1073 1.366 . S
C1074 H1088 0.930 . S
C1075 C1072 1.378 . S
C1075 N1076 1.315 . S
C1075 H1078 0.930 . S
N1076 Co1056 2.194 . S
N1076 C1071 1.328 . S
N1076 C1075 1.315 . S
H1077 C1071 0.929 . S
H1078 C1075 0.930 . S
H1079 C1067 0.929 . S
H1080 C1069 0.929 . S
O1081 Co1056 2.351 . S
O1081 C1084 1.244 . S
O1082 Co1056 2.155 . S
O1082 C1084 1.240 . S
O1083 Co1056 2.096 . S
O1083 C1064 1.247 . S
C1084 O1081 1.244 . S
C1084 O1082 1.240 . S
H1085 C1059 0.931 . S
H1086 C1068 0.931 . S
H1087 C1072 0.929 . S
H1088 C1074 0.930 . S
Co1089 N1093 2.148 . S
Co1089 N1099 2.128 . S
Co1089 N1109 2.194 . S
Co1089 O1114 2.351 . S
Co1089 O1115 2.155 . S
Co1089 O1116 2.096 . S
C1090 N1093 1.301 . S
C1090 N1094 1.328 . S
C1090 H1095 0.930 . S
C1091 C1092 1.333 . S
C1091 N1093 1.317 . S
C1091 H1096 0.930 . S
C1092 C1091 1.333 . S
C1092 N1094 1.350 . S
C1092 H1118 0.931 . S
N1093 Co1089 2.148 . S
N1093 C1090 1.301 . S
N1093 C1091 1.317 . S
N1094 C1090 1.328 . S
N1094 C1092 1.350 . S
H1095 C1090 0.930 . S
H1096 C1091 0.930 . S
C1097 O1098 1.224 . S
C1097 O1116 1.247 . S
O1098 C1097 1.224 . S
N1099 Co1089 2.128 . S
N1099 C1100 1.355 . S
N1099 C1102 1.311 . S
C1100 N1099 1.355 . S
C1100 C1101 1.363 . S
C1100 H1112 0.929 . S
C1101 C1100 1.363 . S
C1101 N1103 1.375 . S
C1101 H1119 0.931 . S
C1102 N1099 1.311 . S
C1102 N1103 1.347 . S
C1102 H1113 0.929 . S
N1103 C1101 1.375 . S
N1103 C1102 1.347 . S
C1104 C1107 1.365 . S
C1104 N1109 1.328 . S
C1104 H1110 0.929 . S
C1105 C1106 1.362 . S
C1105 C1108 1.378 . S
C1105 H1120 0.929 . S
C1106 C1105 1.362 . S
C1106 C1107 1.366 . S
C1107 C1104 1.365 . S
C1107 C1106 1.366 . S
C1107 H1121 0.930 . S
C1108 C1105 1.378 . S
C1108 N1109 1.315 . S
C1108 H1111 0.930 . S
N1109 Co1089 2.194 . S
N1109 C1104 1.328 . S
N1109 C1108 1.315 . S
H1110 C1104 0.929 . S
H1111 C1108 0.930 . S
H1112 C1100 0.929 . S
H1113 C1102 0.929 . S
O1114 Co1089 2.351 . S
O1114 C1117 1.244 . S
O1115 Co1089 2.155 . S
O1115 C1117 1.240 . S
O1116 Co1089 2.096 . S
O1116 C1097 1.247 . S
C1117 O1114 1.244 . S
C1117 O1115 1.240 . S
H1118 C1092 0.931 . S
H1119 C1101 0.931 . S
H1120 C1105 0.929 . S
H1121 C1107 0.930 . S
Co1122 N1126 2.148 . S
Co1122 N1132 2.128 . S
Co1122 N1142 2.194 . S
Co1122 O1147 2.351 . S
Co1122 O1148 2.155 . S
Co1122 O1149 2.096 . S
C1123 N1126 1.301 . S
C1123 N1127 1.328 . S
C1123 H1128 0.930 . S
C1124 C1125 1.333 . S
C1124 N1126 1.317 . S
C1124 H1129 0.930 . S
C1125 C1124 1.333 . S
C1125 N1127 1.350 . S
C1125 H1151 0.931 . S
N1126 Co1122 2.148 . S
N1126 C1123 1.301 . S
N1126 C1124 1.317 . S
N1127 C1123 1.328 . S
N1127 C1125 1.350 . S
H1128 C1123 0.930 . S
H1129 C1124 0.930 . S
C1130 O1131 1.224 . S
C1130 O1149 1.247 . S
O1131 C1130 1.224 . S
N1132 Co1122 2.128 . S
N1132 C1133 1.355 . S
N1132 C1135 1.311 . S
C1133 N1132 1.355 . S
C1133 C1134 1.363 . S
C1133 H1145 0.929 . S
C1134 C1133 1.363 . S
C1134 N1136 1.375 . S
C1134 H1152 0.931 . S
C1135 N1132 1.311 . S
C1135 N1136 1.347 . S
C1135 H1146 0.929 . S
N1136 C1134 1.375 . S
N1136 C1135 1.347 . S
C1137 C1140 1.365 . S
C1137 N1142 1.328 . S
C1137 H1143 0.929 . S
C1138 C1139 1.362 . S
C1138 C1141 1.378 . S
C1138 H1153 0.929 . S
C1139 C1138 1.362 . S
C1139 C1140 1.366 . S
C1140 C1137 1.365 . S
C1140 C1139 1.366 . S
C1140 H1154 0.930 . S
C1141 C1138 1.378 . S
C1141 N1142 1.315 . S
C1141 H1144 0.930 . S
N1142 Co1122 2.194 . S
N1142 C1137 1.328 . S
N1142 C1141 1.315 . S
H1143 C1137 0.929 . S
H1144 C1141 0.930 . S
H1145 C1133 0.929 . S
H1146 C1135 0.929 . S
O1147 Co1122 2.351 . S
O1147 C1150 1.244 . S
O1148 Co1122 2.155 . S
O1148 C1150 1.240 . S
O1149 Co1122 2.096 . S
O1149 C1130 1.247 . S
C1150 O1147 1.244 . S
C1150 O1148 1.240 . S
H1151 C1125 0.931 . S
H1152 C1134 0.931 . S
H1153 C1138 0.929 . S
H1154 C1140 0.930 . S
Co1155 N1159 2.148 . S
Co1155 N1165 2.128 . S
Co1155 N1175 2.194 . S
Co1155 O1180 2.351 . S
Co1155 O1181 2.155 . S
Co1155 O1182 2.096 . S
C1156 N1159 1.301 . S
C1156 N1160 1.328 . S
C1156 H1161 0.930 . S
C1157 C1158 1.333 . S
C1157 N1159 1.317 . S
C1157 H1162 0.930 . S
C1158 C1157 1.333 . S
C1158 N1160 1.350 . S
C1158 H1184 0.931 . S
N1159 Co1155 2.148 . S
N1159 C1156 1.301 . S
N1159 C1157 1.317 . S
N1160 C1156 1.328 . S
N1160 C1158 1.350 . S
H1161 C1156 0.930 . S
H1162 C1157 0.930 . S
C1163 O1164 1.224 . S
C1163 O1182 1.247 . S
O1164 C1163 1.224 . S
N1165 Co1155 2.128 . S
N1165 C1166 1.355 . S
N1165 C1168 1.311 . S
C1166 N1165 1.355 . S
C1166 C1167 1.363 . S
C1166 H1178 0.929 . S
C1167 C1166 1.363 . S
C1167 N1169 1.375 . S
C1167 H1185 0.931 . S
C1168 N1165 1.311 . S
C1168 N1169 1.347 . S
C1168 H1179 0.929 . S
N1169 C1167 1.375 . S
N1169 C1168 1.347 . S
C1170 C1173 1.365 . S
C1170 N1175 1.328 . S
C1170 H1176 0.929 . S
C1171 C1172 1.362 . S
C1171 C1174 1.378 . S
C1171 H1186 0.929 . S
C1172 C1171 1.362 . S
C1172 C1173 1.366 . S
C1173 C1170 1.365 . S
C1173 C1172 1.366 . S
C1173 H1187 0.930 . S
C1174 C1171 1.378 . S
C1174 N1175 1.315 . S
C1174 H1177 0.930 . S
N1175 Co1155 2.194 . S
N1175 C1170 1.328 . S
N1175 C1174 1.315 . S
H1176 C1170 0.929 . S
H1177 C1174 0.930 . S
H1178 C1166 0.929 . S
H1179 C1168 0.929 . S
O1180 Co1155 2.351 . S
O1180 C1183 1.244 . S
O1181 Co1155 2.155 . S
O1181 C1183 1.240 . S
O1182 Co1155 2.096 . S
O1182 C1163 1.247 . S
C1183 O1180 1.244 . S
C1183 O1181 1.240 . S
H1184 C1158 0.931 . S
H1185 C1167 0.931 . S
H1186 C1171 0.929 . S
H1187 C1173 0.930 . S
C1188 C1189 1.363 1_556 S
C1188 C1194 1.379 . S
C1188 N1196 1.356 . S
C1189 C1188 1.363 1_554 S
C1189 C1195 1.363 . S
C1190 C1191 1.363 . S
C1190 C1195 1.379 . S
C1190 N1197 1.356 . S
C1191 C1190 1.363 . S
C1191 C1194 1.363 1_554 S
N1192 C1194 1.356 . S
N1192 H1204 0.984 . S
N1192 H1205 0.985 . S
N1193 C1195 1.356 . S
N1193 H1198 0.984 . S
N1193 H1199 0.985 . S
C1194 C1188 1.379 . S
C1194 C1191 1.363 1_556 S
C1194 N1192 1.356 . S
C1195 C1189 1.363 . S
C1195 C1190 1.379 . S
C1195 N1193 1.356 . S
N1196 C1188 1.356 . S
N1196 H1202 0.984 . S
N1196 H1203 0.984 . S
N1197 C1190 1.356 . S
N1197 H1200 0.984 . S
N1197 H1201 0.985 . S
H1198 N1193 0.984 . S
H1199 N1193 0.985 . S
H1200 N1197 0.984 . S
H1201 N1197 0.985 . S
H1202 N1196 0.984 . S
H1203 N1196 0.984 . S
H1204 N1192 0.984 . S
H1205 N1192 0.985 . S
C1206 C1207 1.363 . S
C1206 C1212 1.379 . S
C1206 N1214 1.356 . S
C1207 C1206 1.363 . S
C1207 C1213 1.363 1_554 S
C1208 C1209 1.363 1_556 S
C1208 C1213 1.379 . S
C1208 N1215 1.356 . S
C1209 C1208 1.363 1_554 S
C1209 C1212 1.363 . S
N1210 C1212 1.356 . S
N1210 H1222 0.984 . S
N1210 H1223 0.985 . S
N1211 C1213 1.356 . S
N1211 H1216 0.984 . S
N1211 H1217 0.985 . S
C1212 C1206 1.379 . S
C1212 C1209 1.363 . S
C1212 N1210 1.356 . S
C1213 C1207 1.363 1_556 S
C1213 C1208 1.379 . S
C1213 N1211 1.356 . S
N1214 C1206 1.356 . S
N1214 H1220 0.984 . S
N1214 H1221 0.984 . S
N1215 C1208 1.356 . S
N1215 H1218 0.984 . S
N1215 H1219 0.985 . S
H1216 N1211 0.984 . S
H1217 N1211 0.985 . S
H1218 N1215 0.984 . S
H1219 N1215 0.985 . S
H1220 N1214 0.984 . S
H1221 N1214 0.984 . S
H1222 N1210 0.984 . S
H1223 N1210 0.985 . S
C1224 C1225 1.363 . S
C1224 C1230 1.379 . S
C1224 N1232 1.356 . S
C1225 C1224 1.363 . S
C1225 C1231 1.363 . S
C1226 C1227 1.363 . S
C1226 C1231 1.379 . S
C1226 N1233 1.356 . S
C1227 C1226 1.363 . S
C1227 C1230 1.363 . S
N1228 C1230 1.356 . S
N1228 H1240 0.984 . S
N1228 H1241 0.985 . S
N1229 C1231 1.356 . S
N1229 H1234 0.984 . S
N1229 H1235 0.985 . S
C1230 C1224 1.379 . S
C1230 C1227 1.363 . S
C1230 N1228 1.356 . S
C1231 C1225 1.363 . S
C1231 C1226 1.379 . S
C1231 N1229 1.356 . S
N1232 C1224 1.356 . S
N1232 H1238 0.984 . S
N1232 H1239 0.984 . S
N1233 C1226 1.356 . S
N1233 H1236 0.984 . S
N1233 H1237 0.985 . S
H1234 N1229 0.984 . S
H1235 N1229 0.985 . S
H1236 N1233 0.984 . S
H1237 N1233 0.985 . S
H1238 N1232 0.984 . S
H1239 N1232 0.984 . S
H1240 N1228 0.984 . S
H1241 N1228 0.985 . S
C1242 C1243 1.363 . S
C1242 C1248 1.379 . S
C1242 N1250 1.356 . S
C1243 C1242 1.363 . S
C1243 C1249 1.363 . S
C1244 C1245 1.363 . S
C1244 C1249 1.379 . S
C1244 N1251 1.356 . S
C1245 C1244 1.363 . S
C1245 C1248 1.363 . S
N1246 C1248 1.356 . S
N1246 H1258 0.984 . S
N1246 H1259 0.985 . S
N1247 C1249 1.356 . S
N1247 H1252 0.984 . S
N1247 H1253 0.985 . S
C1248 C1242 1.379 . S
C1248 C1245 1.363 . S
C1248 N1246 1.356 . S
C1249 C1243 1.363 . S
C1249 C1244 1.379 . S
C1249 N1247 1.356 . S
N1250 C1242 1.356 . S
N1250 H1256 0.984 . S
N1250 H1257 0.984 . S
N1251 C1244 1.356 . S
N1251 H1254 0.984 . S
N1251 H1255 0.985 . S
H1252 N1247 0.984 . S
H1253 N1247 0.985 . S
H1254 N1251 0.984 . S
H1255 N1251 0.985 . S
H1256 N1250 0.984 . S
H1257 N1250 0.984 . S
H1258 N1246 0.984 . S
H1259 N1246 0.985 . S
C1260 C1261 1.363 . S
C1260 C1266 1.379 . S
C1260 N1268 1.356 . S
C1261 C1260 1.363 . S
C1261 C1267 1.363 . S
C1262 C1263 1.363 . S
C1262 C1267 1.379 . S
C1262 N1269 1.356 . S
C1263 C1262 1.363 . S
C1263 C1266 1.363 . S
N1264 C1266 1.356 . S
N1264 H1276 0.984 . S
N1264 H1277 0.985 . S
N1265 C1267 1.356 . S
N1265 H1270 0.984 . S
N1265 H1271 0.985 . S
C1266 C1260 1.379 . S
C1266 C1263 1.363 . S
C1266 N1264 1.356 . S
C1267 C1261 1.363 . S
C1267 C1262 1.379 . S
C1267 N1265 1.356 . S
N1268 C1260 1.356 . S
N1268 H1274 0.984 . S
N1268 H1275 0.984 . S
N1269 C1262 1.356 . S
N1269 H1272 0.984 . S
N1269 H1273 0.985 . S
H1270 N1265 0.984 . S
H1271 N1265 0.985 . S
H1272 N1269 0.984 . S
H1273 N1269 0.985 . S
H1274 N1268 0.984 . S
H1275 N1268 0.984 . S
H1276 N1264 0.984 . S
H1277 N1264 0.985 . S
C1278 C1279 1.363 . S
C1278 C1284 1.379 . S
C1278 N1286 1.356 . S
C1279 C1278 1.363 . S
C1279 C1285 1.363 . S
C1280 C1281 1.363 . S
C1280 C1285 1.379 . S
C1280 N1287 1.356 . S
C1281 C1280 1.363 . S
C1281 C1284 1.363 . S
N1282 C1284 1.356 . S
N1282 H1294 0.984 . S
N1282 H1295 0.985 . S
N1283 C1285 1.356 . S
N1283 H1288 0.984 . S
N1283 H1289 0.985 . S
C1284 C1278 1.379 . S
C1284 C1281 1.363 . S
C1284 N1282 1.356 . S
C1285 C1279 1.363 . S
C1285 C1280 1.379 . S
C1285 N1283 1.356 . S
N1286 C1278 1.356 . S
N1286 H1292 0.984 . S
N1286 H1293 0.984 . S
N1287 C1280 1.356 . S
N1287 H1290 0.984 . S
N1287 H1291 0.985 . S
H1288 N1283 0.984 . S
H1289 N1283 0.985 . S
H1290 N1287 0.984 . S
H1291 N1287 0.985 . S
H1292 N1286 0.984 . S
H1293 N1286 0.984 . S
H1294 N1282 0.984 . S
H1295 N1282 0.985 . S
C1296 C1297 1.363 1_554 S
C1296 C1302 1.379 . S
C1296 N1304 1.356 . S
C1297 C1296 1.363 1_556 S
C1297 C1303 1.363 . S
C1298 C1299 1.363 . S
C1298 C1303 1.379 . S
C1298 N1305 1.356 . S
C1299 C1298 1.363 . S
C1299 C1302 1.363 1_556 S
N1300 C1302 1.356 . S
N1300 H1312 0.984 . S
N1300 H1313 0.985 . S
N1301 C1303 1.356 . S
N1301 H1306 0.984 . S
N1301 H1307 0.985 . S
C1302 C1296 1.379 . S
C1302 C1299 1.363 1_554 S
C1302 N1300 1.356 . S
C1303 C1297 1.363 . S
C1303 C1298 1.379 . S
C1303 N1301 1.356 . S
N1304 C1296 1.356 . S
N1304 H1310 0.984 . S
N1304 H1311 0.984 . S
N1305 C1298 1.356 . S
N1305 H1308 0.984 . S
N1305 H1309 0.985 . S
H1306 N1301 0.984 . S
H1307 N1301 0.985 . S
H1308 N1305 0.984 . S
H1309 N1305 0.985 . S
H1310 N1304 0.984 . S
H1311 N1304 0.984 . S
H1312 N1300 0.984 . S
H1313 N1300 0.985 . S
C1314 C1315 1.363 1_554 S
C1314 C1320 1.379 . S
C1314 N1322 1.356 . S
C1315 C1314 1.363 1_556 S
C1315 C1321 1.363 . S
C1316 C1317 1.363 . S
C1316 C1321 1.379 . S
C1316 N1323 1.356 . S
C1317 C1316 1.363 . S
C1317 C1320 1.363 1_556 S
N1318 C1320 1.356 . S
N1318 H1330 0.984 . S
N1318 H1331 0.985 . S
N1319 C1321 1.356 . S
N1319 H1324 0.984 . S
N1319 H1325 0.985 . S
C1320 C1314 1.379 . S
C1320 C1317 1.363 1_554 S
C1320 N1318 1.356 . S
C1321 C1315 1.363 . S
C1321 C1316 1.379 . S
C1321 N1319 1.356 . S
N1322 C1314 1.356 . S
N1322 H1328 0.984 . S
N1322 H1329 0.984 . S
N1323 C1316 1.356 . S
N1323 H1326 0.984 . S
N1323 H1327 0.985 . S
H1324 N1319 0.984 . S
H1325 N1319 0.985 . S
H1326 N1323 0.984 . S
H1327 N1323 0.985 . S
H1328 N1322 0.984 . S
H1329 N1322 0.984 . S
H1330 N1318 0.984 . S
H1331 N1318 0.985 . S
C1332 C1333 1.363 1_554 S
C1332 C1338 1.379 . S
C1332 N1340 1.356 . S
C1333 C1332 1.363 1_556 S
C1333 C1339 1.363 . S
C1334 C1335 1.363 . S
C1334 C1339 1.379 . S
C1334 N1341 1.356 . S
C1335 C1334 1.363 . S
C1335 C1338 1.363 1_556 S
N1336 C1338 1.356 . S
N1336 H1348 0.984 . S
N1336 H1349 0.985 . S
N1337 C1339 1.356 . S
N1337 H1342 0.984 . S
N1337 H1343 0.985 . S
C1338 C1332 1.379 . S
C1338 C1335 1.363 1_554 S
C1338 N1336 1.356 . S
C1339 C1333 1.363 . S
C1339 C1334 1.379 . S
C1339 N1337 1.356 . S
N1340 C1332 1.356 . S
N1340 H1346 0.984 . S
N1340 H1347 0.984 . S
N1341 C1334 1.356 . S
N1341 H1344 0.984 . S
N1341 H1345 0.985 . S
H1342 N1337 0.984 . S
H1343 N1337 0.985 . S
H1344 N1341 0.984 . S
H1345 N1341 0.985 . S
H1346 N1340 0.984 . S
H1347 N1340 0.984 . S
H1348 N1336 0.984 . S
H1349 N1336 0.985 . S
C1350 C1351 1.363 . S
C1350 C1356 1.379 . S
C1350 N1358 1.356 . S
C1351 C1350 1.363 . S
C1351 C1357 1.363 . S
C1352 C1353 1.363 . S
C1352 C1357 1.379 . S
C1352 N1359 1.356 . S
C1353 C1352 1.363 . S
C1353 C1356 1.363 . S
N1354 C1356 1.356 . S
N1354 H1366 0.984 . S
N1354 H1367 0.985 . S
N1355 C1357 1.356 . S
N1355 H1360 0.984 . S
N1355 H1361 0.985 . S
C1356 C1350 1.379 . S
C1356 C1353 1.363 . S
C1356 N1354 1.356 . S
C1357 C1351 1.363 . S
C1357 C1352 1.379 . S
C1357 N1355 1.356 . S
N1358 C1350 1.356 . S
N1358 H1364 0.984 . S
N1358 H1365 0.984 . S
N1359 C1352 1.356 . S
N1359 H1362 0.984 . S
N1359 H1363 0.985 . S
H1360 N1355 0.984 . S
H1361 N1355 0.985 . S
H1362 N1359 0.984 . S
H1363 N1359 0.985 . S
H1364 N1358 0.984 . S
H1365 N1358 0.984 . S
H1366 N1354 0.984 . S
H1367 N1354 0.985 . S
C1368 C1369 1.363 . S
C1368 C1374 1.379 . S
C1368 N1376 1.356 . S
C1369 C1368 1.363 . S
C1369 C1375 1.363 . S
C1370 C1371 1.363 . S
C1370 C1375 1.379 . S
C1370 N1377 1.356 . S
C1371 C1370 1.363 . S
C1371 C1374 1.363 . S
N1372 C1374 1.356 . S
N1372 H1384 0.984 . S
N1372 H1385 0.985 . S
N1373 C1375 1.356 . S
N1373 H1378 0.984 . S
N1373 H1379 0.985 . S
C1374 C1368 1.379 . S
C1374 C1371 1.363 . S
C1374 N1372 1.356 . S
C1375 C1369 1.363 . S
C1375 C1370 1.379 . S
C1375 N1373 1.356 . S
N1376 C1368 1.356 . S
N1376 H1382 0.984 . S
N1376 H1383 0.984 . S
N1377 C1370 1.356 . S
N1377 H1380 0.984 . S
N1377 H1381 0.985 . S
H1378 N1373 0.984 . S
H1379 N1373 0.985 . S
H1380 N1377 0.984 . S
H1381 N1377 0.985 . S
H1382 N1376 0.984 . S
H1383 N1376 0.984 . S
H1384 N1372 0.984 . S
H1385 N1372 0.985 . S
C1386 C1387 1.363 . S
C1386 C1392 1.379 . S
C1386 N1394 1.356 . S
C1387 C1386 1.363 . S
C1387 C1393 1.363 . S
C1388 C1389 1.363 . S
C1388 C1393 1.379 . S
C1388 N1395 1.356 . S
C1389 C1388 1.363 . S
C1389 C1392 1.363 . S
N1390 C1392 1.356 . S
N1390 H1402 0.984 . S
N1390 H1403 0.985 . S
N1391 C1393 1.356 . S
N1391 H1396 0.984 . S
N1391 H1397 0.985 . S
C1392 C1386 1.379 . S
C1392 C1389 1.363 . S
C1392 N1390 1.356 . S
C1393 C1387 1.363 . S
C1393 C1388 1.379 . S
C1393 N1391 1.356 . S
N1394 C1386 1.356 . S
N1394 H1400 0.984 . S
N1394 H1401 0.984 . S
N1395 C1388 1.356 . S
N1395 H1398 0.984 . S
N1395 H1399 0.985 . S
H1396 N1391 0.984 . S
H1397 N1391 0.985 . S
H1398 N1395 0.984 . S
H1399 N1395 0.985 . S
H1400 N1394 0.984 . S
H1401 N1394 0.984 . S
H1402 N1390 0.984 . S
H1403 N1390 0.985 . S
C1404 C1405 1.363 . S
C1404 C1410 1.379 . S
C1404 N1412 1.356 . S
C1405 C1404 1.363 . S
C1405 C1411 1.363 . S
C1406 C1407 1.363 . S
C1406 C1411 1.379 . S
C1406 N1413 1.356 . S
C1407 C1406 1.363 . S
C1407 C1410 1.363 . S
N1408 C1410 1.356 . S
N1408 H1420 0.984 . S
N1408 H1421 0.985 . S
N1409 C1411 1.356 . S
N1409 H1414 0.984 . S
N1409 H1415 0.985 . S
C1410 C1404 1.379 . S
C1410 C1407 1.363 . S
C1410 N1408 1.356 . S
C1411 C1405 1.363 . S
C1411 C1406 1.379 . S
C1411 N1409 1.356 . S
N1412 C1404 1.356 . S
N1412 H1418 0.984 . S
N1412 H1419 0.984 . S
N1413 C1406 1.356 . S
N1413 H1416 0.984 . S
N1413 H1417 0.985 . S
H1414 N1409 0.984 . S
H1415 N1409 0.985 . S
H1416 N1413 0.984 . S
H1417 N1413 0.985 . S
H1418 N1412 0.984 . S
H1419 N1412 0.984 . S
H1420 N1408 0.984 . S
H1421 N1408 0.985 . S
C1422 C1423 1.363 . S
C1422 C1428 1.379 . S
C1422 N1430 1.356 . S
C1423 C1422 1.363 . S
C1423 C1429 1.363 . S
C1424 C1425 1.363 . S
C1424 C1429 1.379 . S
C1424 N1431 1.356 . S
C1425 C1424 1.363 . S
C1425 C1428 1.363 . S
N1426 C1428 1.356 . S
N1426 H1438 0.984 . S
N1426 H1439 0.985 . S
N1427 C1429 1.356 . S
N1427 H1432 0.984 . S
N1427 H1433 0.985 . S
C1428 C1422 1.379 . S
C1428 C1425 1.363 . S
C1428 N1426 1.356 . S
C1429 C1423 1.363 . S
C1429 C1424 1.379 . S
C1429 N1427 1.356 . S
N1430 C1422 1.356 . S
N1430 H1436 0.984 . S
N1430 H1437 0.984 . S
N1431 C1424 1.356 . S
N1431 H1434 0.984 . S
N1431 H1435 0.985 . S
H1432 N1427 0.984 . S
H1433 N1427 0.985 . S
H1434 N1431 0.984 . S
H1435 N1431 0.985 . S
H1436 N1430 0.984 . S
H1437 N1430 0.984 . S
H1438 N1426 0.984 . S
H1439 N1426 0.985 . S
C1440 C1441 1.363 . S
C1440 C1446 1.379 . S
C1440 N1448 1.356 . S
C1441 C1440 1.363 . S
C1441 C1447 1.363 . S
C1442 C1443 1.363 . S
C1442 C1447 1.379 . S
C1442 N1449 1.356 . S
C1443 C1442 1.363 . S
C1443 C1446 1.363 . S
N1444 C1446 1.356 . S
N1444 H1456 0.984 . S
N1444 H1457 0.985 . S
N1445 C1447 1.356 . S
N1445 H1450 0.984 . S
N1445 H1451 0.985 . S
C1446 C1440 1.379 . S
C1446 C1443 1.363 . S
C1446 N1444 1.356 . S
C1447 C1441 1.363 . S
C1447 C1442 1.379 . S
C1447 N1445 1.356 . S
N1448 C1440 1.356 . S
N1448 H1454 0.984 . S
N1448 H1455 0.984 . S
N1449 C1442 1.356 . S
N1449 H1452 0.984 . S
N1449 H1453 0.985 . S
H1450 N1445 0.984 . S
H1451 N1445 0.985 . S
H1452 N1449 0.984 . S
H1453 N1449 0.985 . S
H1454 N1448 0.984 . S
H1455 N1448 0.984 . S
H1456 N1444 0.984 . S
H1457 N1444 0.985 . S
C1458 C1459 1.363 . S
C1458 C1464 1.379 . S
C1458 N1466 1.356 . S
C1459 C1458 1.363 . S
C1459 C1465 1.363 . S
C1460 C1461 1.363 . S
C1460 C1465 1.379 . S
C1460 N1467 1.356 . S
C1461 C1460 1.363 . S
C1461 C1464 1.363 . S
N1462 C1464 1.356 . S
N1462 H1474 0.984 . S
N1462 H1475 0.985 . S
N1463 C1465 1.356 . S
N1463 H1468 0.984 . S
N1463 H1469 0.985 . S
C1464 C1458 1.379 . S
C1464 C1461 1.363 . S
C1464 N1462 1.356 . S
C1465 C1459 1.363 . S
C1465 C1460 1.379 . S
C1465 N1463 1.356 . S
N1466 C1458 1.356 . S
N1466 H1472 0.984 . S
N1466 H1473 0.984 . S
N1467 C1460 1.356 . S
N1467 H1470 0.984 . S
N1467 H1471 0.985 . S
H1468 N1463 0.984 . S
H1469 N1463 0.985 . S
H1470 N1467 0.984 . S
H1471 N1467 0.985 . S
H1472 N1466 0.984 . S
H1473 N1466 0.984 . S
H1474 N1462 0.984 . S
H1475 N1462 0.985 . S
C1476 C1477 1.363 . S
C1476 C1482 1.379 . S
C1476 N1484 1.356 . S
C1477 C1476 1.363 . S
C1477 C1483 1.363 . S
C1478 C1479 1.363 . S
C1478 C1483 1.379 . S
C1478 N1485 1.356 . S
C1479 C1478 1.363 . S
C1479 C1482 1.363 . S
N1480 C1482 1.356 . S
N1480 H1492 0.984 . S
N1480 H1493 0.985 . S
N1481 C1483 1.356 . S
N1481 H1486 0.984 . S
N1481 H1487 0.985 . S
C1482 C1476 1.379 . S
C1482 C1479 1.363 . S
C1482 N1480 1.356 . S
C1483 C1477 1.363 . S
C1483 C1478 1.379 . S
C1483 N1481 1.356 . S
N1484 C1476 1.356 . S
N1484 H1490 0.984 . S
N1484 H1491 0.984 . S
N1485 C1478 1.356 . S
N1485 H1488 0.984 . S
N1485 H1489 0.985 . S
H1486 N1481 0.984 . S
H1487 N1481 0.985 . S
H1488 N1485 0.984 . S
H1489 N1485 0.985 . S
H1490 N1484 0.984 . S
H1491 N1484 0.984 . S
H1492 N1480 0.984 . S
H1493 N1480 0.985 . S
C1494 C1495 1.363 . S
C1494 C1500 1.379 . S
C1494 N1502 1.356 . S
C1495 C1494 1.363 . S
C1495 C1501 1.363 . S
C1496 C1497 1.363 . S
C1496 C1501 1.379 . S
C1496 N1503 1.356 . S
C1497 C1496 1.363 . S
C1497 C1500 1.363 . S
N1498 C1500 1.356 . S
N1498 H1510 0.984 . S
N1498 H1511 0.985 . S
N1499 C1501 1.356 . S
N1499 H1504 0.984 . S
N1499 H1505 0.985 . S
C1500 C1494 1.379 . S
C1500 C1497 1.363 . S
C1500 N1498 1.356 . S
C1501 C1495 1.363 . S
C1501 C1496 1.379 . S
C1501 N1499 1.356 . S
N1502 C1494 1.356 . S
N1502 H1508 0.984 . S
N1502 H1509 0.984 . S
N1503 C1496 1.356 . S
N1503 H1506 0.984 . S
N1503 H1507 0.985 . S
H1504 N1499 0.984 . S
H1505 N1499 0.985 . S
H1506 N1503 0.984 . S
H1507 N1503 0.985 . S
H1508 N1502 0.984 . S
H1509 N1502 0.984 . S
H1510 N1498 0.984 . S
H1511 N1498 0.985 . S
C1512 C1513 1.363 . S
C1512 C1518 1.379 . S
C1512 N1520 1.356 . S
C1513 C1512 1.363 . S
C1513 C1519 1.363 . S
C1514 C1515 1.363 . S
C1514 C1519 1.379 . S
C1514 N1521 1.356 . S
C1515 C1514 1.363 . S
C1515 C1518 1.363 . S
N1516 C1518 1.356 . S
N1516 H1528 0.984 . S
N1516 H1529 0.985 . S
N1517 C1519 1.356 . S
N1517 H1522 0.984 . S
N1517 H1523 0.985 . S
C1518 C1512 1.379 . S
C1518 C1515 1.363 . S
C1518 N1516 1.356 . S
C1519 C1513 1.363 . S
C1519 C1514 1.379 . S
C1519 N1517 1.356 . S
N1520 C1512 1.356 . S
N1520 H1526 0.984 . S
N1520 H1527 0.984 . S
N1521 C1514 1.356 . S
N1521 H1524 0.984 . S
N1521 H1525 0.985 . S
H1522 N1517 0.984 . S
H1523 N1517 0.985 . S
H1524 N1521 0.984 . S
H1525 N1521 0.985 . S
H1526 N1520 0.984 . S
H1527 N1520 0.984 . S
H1528 N1516 0.984 . S
H1529 N1516 0.985 . S
C1530 C1531 1.363 . S
C1530 C1536 1.379 . S
C1530 N1538 1.356 . S
C1531 C1530 1.363 . S
C1531 C1537 1.363 . S
C1532 C1533 1.363 . S
C1532 C1537 1.379 . S
C1532 N1539 1.356 . S
C1533 C1532 1.363 . S
C1533 C1536 1.363 . S
N1534 C1536 1.356 . S
N1534 H1546 0.984 . S
N1534 H1547 0.985 . S
N1535 C1537 1.356 . S
N1535 H1540 0.984 . S
N1535 H1541 0.985 . S
C1536 C1530 1.379 . S
C1536 C1533 1.363 . S
C1536 N1534 1.356 . S
C1537 C1531 1.363 . S
C1537 C1532 1.379 . S
C1537 N1535 1.356 . S
N1538 C1530 1.356 . S
N1538 H1544 0.984 . S
N1538 H1545 0.984 . S
N1539 C1532 1.356 . S
N1539 H1542 0.984 . S
N1539 H1543 0.985 . S
H1540 N1535 0.984 . S
H1541 N1535 0.985 . S
H1542 N1539 0.984 . S
H1543 N1539 0.985 . S
H1544 N1538 0.984 . S
H1545 N1538 0.984 . S
H1546 N1534 0.984 . S
H1547 N1534 0.985 . S
C1548 C1549 1.363 . S
C1548 C1554 1.379 . S
C1548 N1556 1.356 . S
C1549 C1548 1.363 . S
C1549 C1555 1.363 . S
C1550 C1551 1.363 . S
C1550 C1555 1.379 . S
C1550 N1557 1.356 . S
C1551 C1550 1.363 . S
C1551 C1554 1.363 . S
N1552 C1554 1.356 . S
N1552 H1564 0.984 . S
N1552 H1565 0.985 . S
N1553 C1555 1.356 . S
N1553 H1558 0.984 . S
N1553 H1559 0.985 . S
C1554 C1548 1.379 . S
C1554 C1551 1.363 . S
C1554 N1552 1.356 . S
C1555 C1549 1.363 . S
C1555 C1550 1.379 . S
C1555 N1553 1.356 . S
N1556 C1548 1.356 . S
N1556 H1562 0.984 . S
N1556 H1563 0.984 . S
N1557 C1550 1.356 . S
N1557 H1560 0.984 . S
N1557 H1561 0.985 . S
H1558 N1553 0.984 . S
H1559 N1553 0.985 . S
H1560 N1557 0.984 . S
H1561 N1557 0.985 . S
H1562 N1556 0.984 . S
H1563 N1556 0.984 . S
H1564 N1552 0.984 . S
H1565 N1552 0.985 . S
C1566 C1567 1.363 . S
C1566 C1572 1.379 . S
C1566 N1574 1.356 . S
C1567 C1566 1.363 . S
C1567 C1573 1.363 . S
C1568 C1569 1.363 . S
C1568 C1573 1.379 . S
C1568 N1575 1.356 . S
C1569 C1568 1.363 . S
C1569 C1572 1.363 . S
N1570 C1572 1.356 . S
N1570 H1582 0.984 . S
N1570 H1583 0.985 . S
N1571 C1573 1.356 . S
N1571 H1576 0.984 . S
N1571 H1577 0.985 . S
C1572 C1566 1.379 . S
C1572 C1569 1.363 . S
C1572 N1570 1.356 . S
C1573 C1567 1.363 . S
C1573 C1568 1.379 . S
C1573 N1571 1.356 . S
N1574 C1566 1.356 . S
N1574 H1580 0.984 . S
N1574 H1581 0.984 . S
N1575 C1568 1.356 . S
N1575 H1578 0.984 . S
N1575 H1579 0.985 . S
H1576 N1571 0.984 . S
H1577 N1571 0.985 . S
H1578 N1575 0.984 . S
H1579 N1575 0.985 . S
H1580 N1574 0.984 . S
H1581 N1574 0.984 . S
H1582 N1570 0.984 . S
H1583 N1570 0.985 . S
C1584 C1585 1.363 . S
C1584 C1590 1.379 . S
C1584 N1592 1.356 . S
C1585 C1584 1.363 . S
C1585 C1591 1.363 . S
C1586 C1587 1.363 . S
C1586 C1591 1.379 . S
C1586 N1593 1.356 . S
C1587 C1586 1.363 . S
C1587 C1590 1.363 . S
N1588 C1590 1.356 . S
N1588 H1600 0.984 . S
N1588 H1601 0.985 . S
N1589 C1591 1.356 . S
N1589 H1594 0.984 . S
N1589 H1595 0.985 . S
C1590 C1584 1.379 . S
C1590 C1587 1.363 . S
C1590 N1588 1.356 . S
C1591 C1585 1.363 . S
C1591 C1586 1.379 . S
C1591 N1589 1.356 . S
N1592 C1584 1.356 . S
N1592 H1598 0.984 . S
N1592 H1599 0.984 . S
N1593 C1586 1.356 . S
N1593 H1596 0.984 . S
N1593 H1597 0.985 . S
H1594 N1589 0.984 . S
H1595 N1589 0.985 . S
H1596 N1593 0.984 . S
H1597 N1593 0.985 . S
H1598 N1592 0.984 . S
H1599 N1592 0.984 . S
H1600 N1588 0.984 . S
H1601 N1588 0.985 . S
C1602 C1603 1.363 . S
C1602 C1608 1.379 . S
C1602 N1610 1.356 . S
C1603 C1602 1.363 . S
C1603 C1609 1.363 . S
C1604 C1605 1.363 . S
C1604 C1609 1.379 . S
C1604 N1611 1.356 . S
C1605 C1604 1.363 . S
C1605 C1608 1.363 . S
N1606 C1608 1.356 . S
N1606 H1618 0.984 . S
N1606 H1619 0.985 . S
N1607 C1609 1.356 . S
N1607 H1612 0.984 . S
N1607 H1613 0.985 . S
C1608 C1602 1.379 . S
C1608 C1605 1.363 . S
C1608 N1606 1.356 . S
C1609 C1603 1.363 . S
C1609 C1604 1.379 . S
C1609 N1607 1.356 . S
N1610 C1602 1.356 . S
N1610 H1616 0.984 . S
N1610 H1617 0.984 . S
N1611 C1604 1.356 . S
N1611 H1614 0.984 . S
N1611 H1615 0.985 . S
H1612 N1607 0.984 . S
H1613 N1607 0.985 . S
H1614 N1611 0.984 . S
H1615 N1611 0.985 . S
H1616 N1610 0.984 . S
H1617 N1610 0.984 . S
H1618 N1606 0.984 . S
H1619 N1606 0.985 . S
C1620 C1621 1.363 . S
C1620 C1626 1.379 . S
C1620 N1628 1.356 . S
C1621 C1620 1.363 . S
C1621 C1627 1.363 . S
C1622 C1623 1.363 . S
C1622 C1627 1.379 . S
C1622 N1629 1.356 . S
C1623 C1622 1.363 . S
C1623 C1626 1.363 . S
N1624 C1626 1.356 . S
N1624 H1636 0.984 . S
N1624 H1637 0.985 . S
N1625 C1627 1.356 . S
N1625 H1630 0.984 . S
N1625 H1631 0.985 . S
C1626 C1620 1.379 . S
C1626 C1623 1.363 . S
C1626 N1624 1.356 . S
C1627 C1621 1.363 . S
C1627 C1622 1.379 . S
C1627 N1625 1.356 . S
N1628 C1620 1.356 . S
N1628 H1634 0.984 . S
N1628 H1635 0.984 . S
N1629 C1622 1.356 . S
N1629 H1632 0.984 . S
N1629 H1633 0.985 . S
H1630 N1625 0.984 . S
H1631 N1625 0.985 . S
H1632 N1629 0.984 . S
H1633 N1629 0.985 . S
H1634 N1628 0.984 . S
H1635 N1628 0.984 . S
H1636 N1624 0.984 . S
H1637 N1624 0.985 . S
C1638 C1639 1.363 . S
C1638 C1644 1.379 . S
C1638 N1646 1.356 . S
C1639 C1638 1.363 . S
C1639 C1645 1.363 . S
C1640 C1641 1.363 . S
C1640 C1645 1.379 . S
C1640 N1647 1.356 . S
C1641 C1640 1.363 . S
C1641 C1644 1.363 . S
N1642 C1644 1.356 . S
N1642 H1654 0.984 . S
N1642 H1655 0.985 . S
N1643 C1645 1.356 . S
N1643 H1648 0.984 . S
N1643 H1649 0.985 . S
C1644 C1638 1.379 . S
C1644 C1641 1.363 . S
C1644 N1642 1.356 . S
C1645 C1639 1.363 . S
C1645 C1640 1.379 . S
C1645 N1643 1.356 . S
N1646 C1638 1.356 . S
N1646 H1652 0.984 . S
N1646 H1653 0.984 . S
N1647 C1640 1.356 . S
N1647 H1650 0.984 . S
N1647 H1651 0.985 . S
H1648 N1643 0.984 . S
H1649 N1643 0.985 . S
H1650 N1647 0.984 . S
H1651 N1647 0.985 . S
H1652 N1646 0.984 . S
H1653 N1646 0.984 . S
H1654 N1642 0.984 . S
H1655 N1642 0.985 . S
C1656 C1657 1.363 . S
C1656 C1662 1.379 . S
C1656 N1664 1.356 . S
C1657 C1656 1.363 . S
C1657 C1663 1.363 . S
C1658 C1659 1.363 . S
C1658 C1663 1.379 . S
C1658 N1665 1.356 . S
C1659 C1658 1.363 . S
C1659 C1662 1.363 . S
N1660 C1662 1.356 . S
N1660 H1672 0.984 . S
N1660 H1673 0.985 . S
N1661 C1663 1.356 . S
N1661 H1666 0.984 . S
N1661 H1667 0.985 . S
C1662 C1656 1.379 . S
C1662 C1659 1.363 . S
C1662 N1660 1.356 . S
C1663 C1657 1.363 . S
C1663 C1658 1.379 . S
C1663 N1661 1.356 . S
N1664 C1656 1.356 . S
N1664 H1670 0.984 . S
N1664 H1671 0.984 . S
N1665 C1658 1.356 . S
N1665 H1668 0.984 . S
N1665 H1669 0.985 . S
H1666 N1661 0.984 . S
H1667 N1661 0.985 . S
H1668 N1665 0.984 . S
H1669 N1665 0.985 . S
H1670 N1664 0.984 . S
H1671 N1664 0.984 . S
H1672 N1660 0.984 . S
H1673 N1660 0.985 . S
C1674 C1675 1.363 . S
C1674 C1680 1.379 . S
C1674 N1682 1.356 . S
C1675 C1674 1.363 . S
C1675 C1681 1.363 . S
C1676 C1677 1.363 . S
C1676 C1681 1.379 . S
C1676 N1683 1.356 . S
C1677 C1676 1.363 . S
C1677 C1680 1.363 . S
N1678 C1680 1.356 . S
N1678 H1690 0.984 . S
N1678 H1691 0.985 . S
N1679 C1681 1.356 . S
N1679 H1684 0.984 . S
N1679 H1685 0.985 . S
C1680 C1674 1.379 . S
C1680 C1677 1.363 . S
C1680 N1678 1.356 . S
C1681 C1675 1.363 . S
C1681 C1676 1.379 . S
C1681 N1679 1.356 . S
N1682 C1674 1.356 . S
N1682 H1688 0.984 . S
N1682 H1689 0.984 . S
N1683 C1676 1.356 . S
N1683 H1686 0.984 . S
N1683 H1687 0.985 . S
H1684 N1679 0.984 . S
H1685 N1679 0.985 . S
H1686 N1683 0.984 . S
H1687 N1683 0.985 . S
H1688 N1682 0.984 . S
H1689 N1682 0.984 . S
H1690 N1678 0.984 . S
H1691 N1678 0.985 . S
C1692 C1693 1.363 . S
C1692 C1698 1.379 . S
C1692 N1700 1.356 . S
C1693 C1692 1.363 . S
C1693 C1699 1.363 . S
C1694 C1695 1.363 . S
C1694 C1699 1.379 . S
C1694 N1701 1.356 . S
C1695 C1694 1.363 . S
C1695 C1698 1.363 . S
N1696 C1698 1.356 . S
N1696 H1708 0.984 . S
N1696 H1709 0.985 . S
N1697 C1699 1.356 . S
N1697 H1702 0.984 . S
N1697 H1703 0.985 . S
C1698 C1692 1.379 . S
C1698 C1695 1.363 . S
C1698 N1696 1.356 . S
C1699 C1693 1.363 . S
C1699 C1694 1.379 . S
C1699 N1697 1.356 . S
N1700 C1692 1.356 . S
N1700 H1706 0.984 . S
N1700 H1707 0.984 . S
N1701 C1694 1.356 . S
N1701 H1704 0.984 . S
N1701 H1705 0.985 . S
H1702 N1697 0.984 . S
H1703 N1697 0.985 . S
H1704 N1701 0.984 . S
H1705 N1701 0.985 . S
H1706 N1700 0.984 . S
H1707 N1700 0.984 . S
H1708 N1696 0.984 . S
H1709 N1696 0.985 . S
C1710 C1711 1.363 . S
C1710 C1716 1.379 . S
C1710 N1718 1.356 . S
C1711 C1710 1.363 . S
C1711 C1717 1.363 . S
C1712 C1713 1.363 . S
C1712 C1717 1.379 . S
C1712 N1719 1.356 . S
C1713 C1712 1.363 . S
C1713 C1716 1.363 . S
N1714 C1716 1.356 . S
N1714 H1726 0.984 . S
N1714 H1727 0.985 . S
N1715 C1717 1.356 . S
N1715 H1720 0.984 . S
N1715 H1721 0.985 . S
C1716 C1710 1.379 . S
C1716 C1713 1.363 . S
C1716 N1714 1.356 . S
C1717 C1711 1.363 . S
C1717 C1712 1.379 . S
C1717 N1715 1.356 . S
N1718 C1710 1.356 . S
N1718 H1724 0.984 . S
N1718 H1725 0.984 . S
N1719 C1712 1.356 . S
N1719 H1722 0.984 . S
N1719 H1723 0.985 . S
H1720 N1715 0.984 . S
H1721 N1715 0.985 . S
H1722 N1719 0.984 . S
H1723 N1719 0.985 . S
H1724 N1718 0.984 . S
H1725 N1718 0.984 . S
H1726 N1714 0.984 . S
H1727 N1714 0.985 . S
C1728 C1729 1.363 . S
C1728 C1734 1.379 . S
C1728 N1736 1.356 . S
C1729 C1728 1.363 . S
C1729 C1735 1.363 . S
C1730 C1731 1.363 . S
C1730 C1735 1.379 . S
C1730 N1737 1.356 . S
C1731 C1730 1.363 . S
C1731 C1734 1.363 . S
N1732 C1734 1.356 . S
N1732 H1744 0.984 . S
N1732 H1745 0.985 . S
N1733 C1735 1.356 . S
N1733 H1738 0.984 . S
N1733 H1739 0.985 . S
C1734 C1728 1.379 . S
C1734 C1731 1.363 . S
C1734 N1732 1.356 . S
C1735 C1729 1.363 . S
C1735 C1730 1.379 . S
C1735 N1733 1.356 . S
N1736 C1728 1.356 . S
N1736 H1742 0.984 . S
N1736 H1743 0.984 . S
N1737 C1730 1.356 . S
N1737 H1740 0.984 . S
N1737 H1741 0.985 . S
H1738 N1733 0.984 . S
H1739 N1733 0.985 . S
H1740 N1737 0.984 . S
H1741 N1737 0.985 . S
H1742 N1736 0.984 . S
H1743 N1736 0.984 . S
H1744 N1732 0.984 . S
H1745 N1732 0.985 . S
C1746 C1747 1.363 . S
C1746 C1752 1.379 . S
C1746 N1754 1.356 . S
C1747 C1746 1.363 . S
C1747 C1753 1.363 . S
C1748 C1749 1.363 . S
C1748 C1753 1.379 . S
C1748 N1755 1.356 . S
C1749 C1748 1.363 . S
C1749 C1752 1.363 . S
N1750 C1752 1.356 . S
N1750 H1762 0.984 . S
N1750 H1763 0.985 . S
N1751 C1753 1.356 . S
N1751 H1756 0.984 . S
N1751 H1757 0.985 . S
C1752 C1746 1.379 . S
C1752 C1749 1.363 . S
C1752 N1750 1.356 . S
C1753 C1747 1.363 . S
C1753 C1748 1.379 . S
C1753 N1751 1.356 . S
N1754 C1746 1.356 . S
N1754 H1760 0.984 . S
N1754 H1761 0.984 . S
N1755 C1748 1.356 . S
N1755 H1758 0.984 . S
N1755 H1759 0.985 . S
H1756 N1751 0.984 . S
H1757 N1751 0.985 . S
H1758 N1755 0.984 . S
H1759 N1755 0.985 . S
H1760 N1754 0.984 . S
H1761 N1754 0.984 . S
H1762 N1750 0.984 . S
H1763 N1750 0.985 . S
C1764 C1765 1.363 . S
C1764 C1770 1.379 . S
C1764 N1772 1.356 . S
C1765 C1764 1.363 . S
C1765 C1771 1.363 . S
C1766 C1767 1.363 . S
C1766 C1771 1.379 . S
C1766 N1773 1.356 . S
C1767 C1766 1.363 . S
C1767 C1770 1.363 . S
N1768 C1770 1.356 . S
N1768 H1780 0.984 . S
N1768 H1781 0.985 . S
N1769 C1771 1.356 . S
N1769 H1774 0.984 . S
N1769 H1775 0.985 . S
C1770 C1764 1.379 . S
C1770 C1767 1.363 . S
C1770 N1768 1.356 . S
C1771 C1765 1.363 . S
C1771 C1766 1.379 . S
C1771 N1769 1.356 . S
N1772 C1764 1.356 . S
N1772 H1778 0.984 . S
N1772 H1779 0.984 . S
N1773 C1766 1.356 . S
N1773 H1776 0.984 . S
N1773 H1777 0.985 . S
H1774 N1769 0.984 . S
H1775 N1769 0.985 . S
H1776 N1773 0.984 . S
H1777 N1773 0.985 . S
H1778 N1772 0.984 . S
H1779 N1772 0.984 . S
H1780 N1768 0.984 . S
H1781 N1768 0.985 . S
C1782 C1783 1.363 . S
C1782 C1788 1.379 . S
C1782 N1790 1.356 . S
C1783 C1782 1.363 . S
C1783 C1789 1.363 . S
C1784 C1785 1.363 . S
C1784 C1789 1.379 . S
C1784 N1791 1.356 . S
C1785 C1784 1.363 . S
C1785 C1788 1.363 . S
N1786 C1788 1.356 . S
N1786 H1798 0.984 . S
N1786 H1799 0.985 . S
N1787 C1789 1.356 . S
N1787 H1792 0.984 . S
N1787 H1793 0.985 . S
C1788 C1782 1.379 . S
C1788 C1785 1.363 . S
C1788 N1786 1.356 . S
C1789 C1783 1.363 . S
C1789 C1784 1.379 . S
C1789 N1787 1.356 . S
N1790 C1782 1.356 . S
N1790 H1796 0.984 . S
N1790 H1797 0.984 . S
N1791 C1784 1.356 . S
N1791 H1794 0.984 . S
N1791 H1795 0.985 . S
H1792 N1787 0.984 . S
H1793 N1787 0.985 . S
H1794 N1791 0.984 . S
H1795 N1791 0.985 . S
H1796 N1790 0.984 . S
H1797 N1790 0.984 . S
H1798 N1786 0.984 . S
H1799 N1786 0.985 . S
C1800 C1801 1.363 . S
C1800 C1806 1.379 . S
C1800 N1808 1.356 . S
C1801 C1800 1.363 . S
C1801 C1807 1.363 . S
C1802 C1803 1.363 . S
C1802 C1807 1.379 . S
C1802 N1809 1.356 . S
C1803 C1802 1.363 . S
C1803 C1806 1.363 . S
N1804 C1806 1.356 . S
N1804 H1816 0.984 . S
N1804 H1817 0.985 . S
N1805 C1807 1.356 . S
N1805 H1810 0.984 . S
N1805 H1811 0.985 . S
C1806 C1800 1.379 . S
C1806 C1803 1.363 . S
C1806 N1804 1.356 . S
C1807 C1801 1.363 . S
C1807 C1802 1.379 . S
C1807 N1805 1.356 . S
N1808 C1800 1.356 . S
N1808 H1814 0.984 . S
N1808 H1815 0.984 . S
N1809 C1802 1.356 . S
N1809 H1812 0.984 . S
N1809 H1813 0.985 . S
H1810 N1805 0.984 . S
H1811 N1805 0.985 . S
H1812 N1809 0.984 . S
H1813 N1809 0.985 . S
H1814 N1808 0.984 . S
H1815 N1808 0.984 . S
H1816 N1804 0.984 . S
H1817 N1804 0.985 . S
C1818 C1819 1.363 . S
C1818 C1824 1.379 . S
C1818 N1826 1.356 . S
C1819 C1818 1.363 . S
C1819 C1825 1.363 . S
C1820 C1821 1.363 . S
C1820 C1825 1.379 . S
C1820 N1827 1.356 . S
C1821 C1820 1.363 . S
C1821 C1824 1.363 . S
N1822 C1824 1.356 . S
N1822 H1834 0.984 . S
N1822 H1835 0.985 . S
N1823 C1825 1.356 . S
N1823 H1828 0.984 . S
N1823 H1829 0.985 . S
C1824 C1818 1.379 . S
C1824 C1821 1.363 . S
C1824 N1822 1.356 . S
C1825 C1819 1.363 . S
C1825 C1820 1.379 . S
C1825 N1823 1.356 . S
N1826 C1818 1.356 . S
N1826 H1832 0.984 . S
N1826 H1833 0.984 . S
N1827 C1820 1.356 . S
N1827 H1830 0.984 . S
N1827 H1831 0.985 . S
H1828 N1823 0.984 . S
H1829 N1823 0.985 . S
H1830 N1827 0.984 . S
H1831 N1827 0.985 . S
H1832 N1826 0.984 . S
H1833 N1826 0.984 . S
H1834 N1822 0.984 . S
H1835 N1822 0.985 . S
C1836 C1837 1.363 . S
C1836 C1842 1.379 . S
C1836 N1844 1.356 . S
C1837 C1836 1.363 . S
C1837 C1843 1.363 . S
C1838 C1839 1.363 . S
C1838 C1843 1.379 . S
C1838 N1845 1.356 . S
C1839 C1838 1.363 . S
C1839 C1842 1.363 . S
N1840 C1842 1.356 . S
N1840 H1852 0.984 . S
N1840 H1853 0.985 . S
N1841 C1843 1.356 . S
N1841 H1846 0.984 . S
N1841 H1847 0.985 . S
C1842 C1836 1.379 . S
C1842 C1839 1.363 . S
C1842 N1840 1.356 . S
C1843 C1837 1.363 . S
C1843 C1838 1.379 . S
C1843 N1841 1.356 . S
N1844 C1836 1.356 . S
N1844 H1850 0.984 . S
N1844 H1851 0.984 . S
N1845 C1838 1.356 . S
N1845 H1848 0.984 . S
N1845 H1849 0.985 . S
H1846 N1841 0.984 . S
H1847 N1841 0.985 . S
H1848 N1845 0.984 . S
H1849 N1845 0.985 . S
H1850 N1844 0.984 . S
H1851 N1844 0.984 . S
H1852 N1840 0.984 . S
H1853 N1840 0.985 . S
C1854 C1855 1.363 . S
C1854 C1860 1.379 . S
C1854 N1862 1.356 . S
C1855 C1854 1.363 . S
C1855 C1861 1.363 1_545 S
C1856 C1857 1.363 . S
C1856 C1861 1.379 . S
C1856 N1863 1.356 . S
C1857 C1856 1.363 . S
C1857 C1860 1.363 1_565 S
N1858 C1860 1.356 . S
N1858 H1870 0.984 . S
N1858 H1871 0.985 . S
N1859 C1861 1.356 . S
N1859 H1864 0.984 . S
N1859 H1865 0.985 . S
C1860 C1854 1.379 . S
C1860 C1857 1.363 1_545 S
C1860 N1858 1.356 . S
C1861 C1855 1.363 1_565 S
C1861 C1856 1.379 . S
C1861 N1859 1.356 . S
N1862 C1854 1.356 . S
N1862 H1868 0.984 . S
N1862 H1869 0.984 . S
N1863 C1856 1.356 . S
N1863 H1866 0.984 . S
N1863 H1867 0.985 . S
H1864 N1859 0.984 . S
H1865 N1859 0.985 . S
H1866 N1863 0.984 . S
H1867 N1863 0.985 . S
H1868 N1862 0.984 . S
H1869 N1862 0.984 . S
H1870 N1858 0.984 . S
H1871 N1858 0.985 . S
C1872 C1873 1.363 . S
C1872 C1878 1.379 . S
C1872 N1880 1.356 . S
C1873 C1872 1.363 . S
C1873 C1879 1.363 1_655 S
C1874 C1875 1.363 . S
C1874 C1879 1.379 . S
C1874 N1881 1.356 . S
C1875 C1874 1.363 . S
C1875 C1878 1.363 1_455 S
N1876 C1878 1.356 . S
N1876 H1888 0.984 . S
N1876 H1889 0.985 . S
N1877 C1879 1.356 . S
N1877 H1882 0.984 . S
N1877 H1883 0.985 . S
C1878 C1872 1.379 . S
C1878 C1875 1.363 1_655 S
C1878 N1876 1.356 . S
C1879 C1873 1.363 1_455 S
C1879 C1874 1.379 . S
C1879 N1877 1.356 . S
N1880 C1872 1.356 . S
N1880 H1886 0.984 . S
N1880 H1887 0.984 . S
N1881 C1874 1.356 . S
N1881 H1884 0.984 . S
N1881 H1885 0.985 . S
H1882 N1877 0.984 . S
H1883 N1877 0.985 . S
H1884 N1881 0.984 . S
H1885 N1881 0.985 . S
H1886 N1880 0.984 . S
H1887 N1880 0.984 . S
H1888 N1876 0.984 . S
H1889 N1876 0.985 . S
C1890 C1891 1.363 . S
C1890 C1896 1.379 . S
C1890 N1898 1.356 . S
C1891 C1890 1.363 . S
C1891 C1897 1.363 . S
C1892 C1893 1.363 . S
C1892 C1897 1.379 . S
C1892 N1899 1.356 . S
C1893 C1892 1.363 . S
C1893 C1896 1.363 . S
N1894 C1896 1.356 . S
N1894 H1906 0.984 . S
N1894 H1907 0.985 . S
N1895 C1897 1.356 . S
N1895 H1900 0.984 . S
N1895 H1901 0.985 . S
C1896 C1890 1.379 . S
C1896 C1893 1.363 . S
C1896 N1894 1.356 . S
C1897 C1891 1.363 . S
C1897 C1892 1.379 . S
C1897 N1895 1.356 . S
N1898 C1890 1.356 . S
N1898 H1904 0.984 . S
N1898 H1905 0.984 . S
N1899 C1892 1.356 . S
N1899 H1902 0.984 . S
N1899 H1903 0.985 . S
H1900 N1895 0.984 . S
H1901 N1895 0.985 . S
H1902 N1899 0.984 . S
H1903 N1899 0.985 . S
H1904 N1898 0.984 . S
H1905 N1898 0.984 . S
H1906 N1894 0.984 . S
H1907 N1894 0.985 . S
C1908 C1909 1.363 . S
C1908 C1914 1.379 1_545 S
C1908 N1916 1.356 . S
C1909 C1908 1.363 . S
C1909 C1915 1.363 . S
C1910 C1911 1.363 . S
C1910 C1915 1.379 1_565 S
C1910 N1917 1.356 . S
C1911 C1910 1.363 . S
C1911 C1914 1.363 . S
N1912 C1914 1.356 . S
N1912 H1924 0.984 . S
N1912 H1925 0.985 . S
N1913 C1915 1.356 . S
N1913 H1918 0.984 . S
N1913 H1919 0.984 . S
C1914 C1908 1.379 1_565 S
C1914 C1911 1.363 . S
C1914 N1912 1.356 . S
C1915 C1909 1.363 . S
C1915 C1910 1.379 1_545 S
C1915 N1913 1.356 . S
N1916 C1908 1.356 . S
N1916 H1922 0.984 . S
N1916 H1923 0.984 . S
N1917 C1910 1.356 . S
N1917 H1920 0.984 . S
N1917 H1921 0.985 . S
H1918 N1913 0.984 . S
H1919 N1913 0.984 . S
H1920 N1917 0.984 . S
H1921 N1917 0.985 . S
H1922 N1916 0.984 . S
H1923 N1916 0.984 . S
H1924 N1912 0.984 . S
H1925 N1912 0.985 . S
C1926 C1927 1.363 1_455 S
C1926 C1932 1.379 . S
C1926 N1934 1.356 . S
C1927 C1926 1.363 1_655 S
C1927 C1933 1.363 . S
C1928 C1929 1.363 1_655 S
C1928 C1933 1.379 . S
C1928 N1935 1.356 . S
C1929 C1928 1.363 1_455 S
C1929 C1932 1.363 . S
N1930 C1932 1.356 . S
N1930 H1942 0.984 . S
N1930 H1943 0.985 . S
N1931 C1933 1.356 . S
N1931 H1936 0.984 . S
N1931 H1937 0.985 . S
C1932 C1926 1.379 . S
C1932 C1929 1.363 . S
C1932 N1930 1.356 . S
C1933 C1927 1.363 . S
C1933 C1928 1.379 . S
C1933 N1931 1.356 . S
N1934 C1926 1.356 . S
N1934 H1940 0.984 . S
N1934 H1941 0.980 1_455 S
N1935 C1928 1.356 . S
N1935 H1938 0.980 1_655 S
N1935 H1939 0.985 . S
H1936 N1931 0.984 . S
H1937 N1931 0.985 . S
H1938 N1935 0.980 1_455 S
H1939 N1935 0.985 . S
H1940 N1934 0.984 . S
H1941 N1934 0.980 1_655 S
H1942 N1930 0.984 . S
H1943 N1930 0.985 . S
C1944 C1945 1.363 . S
C1944 C1950 1.379 . S
C1944 N1952 1.356 . S
C1945 C1944 1.363 . S
C1945 C1951 1.363 . S
C1946 C1947 1.363 . S
C1946 C1951 1.379 . S
C1946 N1953 1.356 . S
C1947 C1946 1.363 . S
C1947 C1950 1.363 . S
N1948 C1950 1.356 . S
N1948 H1960 0.984 . S
N1948 H1961 0.985 . S
N1949 C1951 1.356 . S
N1949 H1954 0.984 . S
N1949 H1955 0.985 . S
C1950 C1944 1.379 . S
C1950 C1947 1.363 . S
C1950 N1948 1.356 . S
C1951 C1945 1.363 . S
C1951 C1946 1.379 . S
C1951 N1949 1.356 . S
N1952 C1944 1.356 . S
N1952 H1958 0.984 . S
N1952 H1959 0.984 . S
N1953 C1946 1.356 . S
N1953 H1956 0.984 . S
N1953 H1957 0.985 . S
H1954 N1949 0.984 . S
H1955 N1949 0.985 . S
H1956 N1953 0.984 . S
H1957 N1953 0.985 . S
H1958 N1952 0.984 . S
H1959 N1952 0.984 . S
H1960 N1948 0.984 . S
H1961 N1948 0.985 . S
C1962 C1963 1.363 . S
C1962 C1968 1.379 . S
C1962 N1970 1.356 . S
C1963 C1962 1.363 . S
C1963 C1969 1.363 . S
C1964 C1965 1.363 . S
C1964 C1969 1.379 . S
C1964 N1971 1.356 . S
C1965 C1964 1.363 . S
C1965 C1968 1.363 . S
N1966 C1968 1.356 . S
N1966 H1978 0.984 . S
N1966 H1979 0.985 . S
N1967 C1969 1.356 . S
N1967 H1972 0.984 . S
N1967 H1973 0.985 . S
C1968 C1962 1.379 . S
C1968 C1965 1.363 . S
C1968 N1966 1.356 . S
C1969 C1963 1.363 . S
C1969 C1964 1.379 . S
C1969 N1967 1.356 . S
N1970 C1962 1.356 . S
N1970 H1976 0.984 . S
N1970 H1977 0.984 . S
N1971 C1964 1.356 . S
N1971 H1974 0.984 . S
N1971 H1975 0.985 . S
H1972 N1967 0.984 . S
H1973 N1967 0.985 . S
H1974 N1971 0.984 . S
H1975 N1971 0.985 . S
H1976 N1970 0.984 . S
H1977 N1970 0.984 . S
H1978 N1966 0.984 . S
H1979 N1966 0.985 . S
C1980 C1981 1.363 . S
C1980 C1986 1.379 . S
C1980 N1988 1.356 . S
C1981 C1980 1.363 . S
C1981 C1987 1.363 . S
C1982 C1983 1.363 . S
C1982 C1987 1.379 . S
C1982 N1989 1.356 . S
C1983 C1982 1.363 . S
C1983 C1986 1.363 . S
N1984 C1986 1.356 . S
N1984 H1996 0.984 . S
N1984 H1997 0.985 . S
N1985 C1987 1.356 . S
N1985 H1990 0.984 . S
N1985 H1991 0.985 . S
C1986 C1980 1.379 . S
C1986 C1983 1.363 . S
C1986 N1984 1.356 . S
C1987 C1981 1.363 . S
C1987 C1982 1.379 . S
C1987 N1985 1.356 . S
N1988 C1980 1.356 . S
N1988 H1994 0.984 . S
N1988 H1995 0.984 . S
N1989 C1982 1.356 . S
N1989 H1992 0.984 . S
N1989 H1993 0.985 . S
H1990 N1985 0.984 . S
H1991 N1985 0.985 . S
H1992 N1989 0.984 . S
H1993 N1989 0.985 . S
H1994 N1988 0.984 . S
H1995 N1988 0.984 . S
H1996 N1984 0.984 . S
H1997 N1984 0.985 . S
C1998 C1999 1.363 . S
C1998 C2004 1.379 . S
C1998 N2006 1.356 . S
C1999 C1998 1.363 . S
C1999 C2005 1.363 . S
C2000 C2001 1.363 . S
C2000 C2005 1.379 . S
C2000 N2007 1.356 . S
C2001 C2000 1.363 . S
C2001 C2004 1.363 . S
N2002 C2004 1.356 . S
N2002 H2014 0.984 . S
N2002 H2015 0.985 . S
N2003 C2005 1.356 . S
N2003 H2008 0.984 . S
N2003 H2009 0.985 . S
C2004 C1998 1.379 . S
C2004 C2001 1.363 . S
C2004 N2002 1.356 . S
C2005 C1999 1.363 . S
C2005 C2000 1.379 . S
C2005 N2003 1.356 . S
N2006 C1998 1.356 . S
N2006 H2012 0.984 . S
N2006 H2013 0.984 . S
N2007 C2000 1.356 . S
N2007 H2010 0.984 . S
N2007 H2011 0.985 . S
H2008 N2003 0.984 . S
H2009 N2003 0.985 . S
H2010 N2007 0.984 . S
H2011 N2007 0.985 . S
H2012 N2006 0.984 . S
H2013 N2006 0.984 . S
H2014 N2002 0.984 . S
H2015 N2002 0.985 . S
C2016 C2017 1.363 . S
C2016 C2022 1.379 . S
C2016 N2024 1.356 . S
C2017 C2016 1.363 . S
C2017 C2023 1.363 . S
C2018 C2019 1.363 . S
C2018 C2023 1.379 . S
C2018 N2025 1.356 . S
C2019 C2018 1.363 . S
C2019 C2022 1.363 . S
N2020 C2022 1.356 . S
N2020 H2032 0.984 . S
N2020 H2033 0.985 . S
N2021 C2023 1.356 . S
N2021 H2026 0.984 1_554 S
N2021 H2027 0.985 . S
C2022 C2016 1.379 . S
C2022 C2019 1.363 . S
C2022 N2020 1.356 . S
C2023 C2017 1.363 . S
C2023 C2018 1.379 . S
C2023 N2021 1.356 . S
N2024 C2016 1.356 . S
N2024 H2030 0.984 . S
N2024 H2031 0.984 . S
N2025 C2018 1.356 . S
N2025 H2028 0.984 . S
N2025 H2029 0.985 . S
H2026 N2021 0.984 1_556 S
H2027 N2021 0.985 . S
H2028 N2025 0.984 . S
H2029 N2025 0.985 . S
H2030 N2024 0.984 . S
H2031 N2024 0.984 . S
H2032 N2020 0.984 . S
H2033 N2020 0.985 . S
C2034 C2035 1.363 . S
C2034 C2040 1.379 . S
C2034 N2042 1.356 . S
C2035 C2034 1.363 . S
C2035 C2041 1.363 . S
C2036 C2037 1.363 . S
C2036 C2041 1.379 . S
C2036 N2043 1.356 . S
C2037 C2036 1.363 . S
C2037 C2040 1.363 . S
N2038 C2040 1.356 . S
N2038 H2050 0.984 . S
N2038 H2051 0.985 . S
N2039 C2041 1.356 . S
N2039 H2044 0.984 . S
N2039 H2045 0.985 . S
C2040 C2034 1.379 . S
C2040 C2037 1.363 . S
C2040 N2038 1.356 . S
C2041 C2035 1.363 . S
C2041 C2036 1.379 . S
C2041 N2039 1.356 . S
N2042 C2034 1.356 . S
N2042 H2048 0.984 . S
N2042 H2049 0.984 1_554 S
N2043 C2036 1.356 . S
N2043 H2046 0.984 . S
N2043 H2047 0.985 . S
H2044 N2039 0.984 . S
H2045 N2039 0.985 . S
H2046 N2043 0.984 . S
H2047 N2043 0.985 . S
H2048 N2042 0.984 . S
H2049 N2042 0.984 1_556 S
H2050 N2038 0.984 . S
H2051 N2038 0.985 . S
C2052 C2053 1.363 . S
C2052 C2058 1.379 . S
C2052 N2060 1.356 . S
C2053 C2052 1.363 . S
C2053 C2059 1.363 . S
C2054 C2055 1.363 . S
C2054 C2059 1.379 . S
C2054 N2061 1.356 . S
C2055 C2054 1.363 . S
C2055 C2058 1.363 . S
N2056 C2058 1.356 . S
N2056 H2068 0.984 . S
N2056 H2069 0.985 . S
N2057 C2059 1.371 . S
N2057 H2062 0.973 1_556 S
N2057 H2063 0.981 1_556 S
C2058 C2052 1.379 . S
C2058 C2055 1.363 . S
C2058 N2056 1.356 . S
C2059 C2053 1.363 . S
C2059 C2054 1.379 . S
C2059 N2057 1.371 . S
N2060 C2052 1.356 . S
N2060 H2066 0.984 . S
N2060 H2067 0.984 . S
N2061 C2054 1.356 . S
N2061 H2064 0.984 . S
N2061 H2065 0.985 . S
H2062 N2057 0.973 1_554 S
H2063 N2057 0.981 1_554 S
H2064 N2061 0.984 . S
H2065 N2061 0.985 . S
H2066 N2060 0.984 . S
H2067 N2060 0.984 . S
H2068 N2056 0.984 . S
H2069 N2056 0.985 . S
C2070 C2071 1.363 . S
C2070 C2076 1.379 . S
C2070 N2078 1.356 . S
C2071 C2070 1.363 . S
C2071 C2077 1.363 . S
C2072 C2073 1.363 . S
C2072 C2077 1.379 . S
C2072 N2079 1.356 . S
C2073 C2072 1.363 . S
C2073 C2076 1.363 . S
N2074 C2076 1.356 . S
N2074 H2086 0.984 . S
N2074 H2087 0.985 . S
N2075 C2077 1.356 . S
N2075 H2080 0.984 1_556 S
N2075 H2081 0.985 1_556 S
C2076 C2070 1.379 . S
C2076 C2073 1.363 . S
C2076 N2074 1.356 . S
C2077 C2071 1.363 . S
C2077 C2072 1.379 . S
C2077 N2075 1.356 . S
N2078 C2070 1.356 . S
N2078 H2084 0.984 . S
N2078 H2085 0.984 . S
N2079 C2072 1.356 . S
N2079 H2082 0.984 . S
N2079 H2083 0.985 . S
H2080 N2075 0.984 1_554 S
H2081 N2075 0.985 1_554 S
H2082 N2079 0.984 . S
H2083 N2079 0.985 . S
H2084 N2078 0.984 . S
H2085 N2078 0.984 . S
H2086 N2074 0.984 . S
H2087 N2074 0.985 . S
C2088 C2089 1.363 . S
C2088 C2094 1.379 . S
C2088 N2096 1.356 . S
C2089 C2088 1.363 . S
C2089 C2095 1.363 . S
C2090 C2091 1.363 . S
C2090 C2095 1.379 . S
C2090 N2097 1.356 . S
C2091 C2090 1.363 . S
C2091 C2094 1.363 . S
N2092 C2094 1.356 . S
N2092 H2104 0.984 . S
N2092 H2105 0.985 . S
N2093 C2095 1.356 . S
N2093 H2098 0.984 . S
N2093 H2099 0.985 . S
C2094 C2088 1.379 . S
C2094 C2091 1.363 . S
C2094 N2092 1.356 . S
C2095 C2089 1.363 . S
C2095 C2090 1.379 . S
C2095 N2093 1.356 . S
N2096 C2088 1.356 . S
N2096 H2102 0.984 . S
N2096 H2103 0.984 1_556 S
N2097 C2090 1.356 . S
N2097 H2100 0.984 . S
N2097 H2101 0.985 . S
H2098 N2093 0.984 . S
H2099 N2093 0.985 . S
H2100 N2097 0.984 . S
H2101 N2097 0.985 . S
H2102 N2096 0.984 . S
H2103 N2096 0.984 1_554 S
H2104 N2092 0.984 . S
H2105 N2092 0.985 . S
C2106 C2107 1.363 . S
C2106 C2112 1.379 . S
C2106 N2114 1.356 . S
C2107 C2106 1.363 . S
C2107 C2113 1.363 . S
C2108 C2109 1.363 . S
C2108 C2113 1.379 . S
C2108 N2115 1.356 . S
C2109 C2108 1.363 . S
C2109 C2112 1.363 . S
N2110 C2112 1.356 . S
N2110 H2122 0.984 . S
N2110 H2123 0.985 . S
N2111 C2113 1.356 . S
N2111 H2116 0.984 . S
N2111 H2117 0.985 . S
C2112 C2106 1.379 . S
C2112 C2109 1.363 . S
C2112 N2110 1.356 . S
C2113 C2107 1.363 . S
C2113 C2108 1.379 . S
C2113 N2111 1.356 . S
N2114 C2106 1.356 . S
N2114 H2120 0.984 . S
N2114 H2121 0.984 . S
N2115 C2108 1.356 . S
N2115 H2118 0.984 . S
N2115 H2119 0.985 . S
H2116 N2111 0.984 . S
H2117 N2111 0.985 . S
H2118 N2115 0.984 . S
H2119 N2115 0.985 . S
H2120 N2114 0.984 . S
H2121 N2114 0.984 . S
H2122 N2110 0.984 . S
H2123 N2110 0.985 . S
C2124 C2125 1.363 . S
C2124 C2130 1.379 . S
C2124 N2132 1.356 . S
C2125 C2124 1.363 . S
C2125 C2131 1.363 . S
C2126 C2127 1.363 . S
C2126 C2131 1.379 . S
C2126 N2133 1.356 . S
C2127 C2126 1.363 . S
C2127 C2130 1.363 . S
N2128 C2130 1.356 . S
N2128 H2140 0.984 . S
N2128 H2141 0.985 . S
N2129 C2131 1.356 . S
N2129 H2134 0.984 . S
N2129 H2135 0.985 . S
C2130 C2124 1.379 . S
C2130 C2127 1.363 . S
C2130 N2128 1.356 . S
C2131 C2125 1.363 . S
C2131 C2126 1.379 . S
C2131 N2129 1.356 . S
N2132 C2124 1.356 . S
N2132 H2138 0.984 . S
N2132 H2139 0.984 . S
N2133 C2126 1.356 . S
N2133 H2136 0.984 . S
N2133 H2137 0.985 . S
H2134 N2129 0.984 . S
H2135 N2129 0.985 . S
H2136 N2133 0.984 . S
H2137 N2133 0.985 . S
H2138 N2132 0.984 . S
H2139 N2132 0.984 . S
H2140 N2128 0.984 . S
H2141 N2128 0.985 . S
C2142 C2143 1.363 . S
C2142 C2148 1.379 . S
C2142 N2150 1.356 . S
C2143 C2142 1.363 . S
C2143 C2149 1.363 . S
C2144 C2145 1.363 . S
C2144 C2149 1.379 . S
C2144 N2151 1.356 . S
C2145 C2144 1.363 . S
C2145 C2148 1.363 . S
N2146 C2148 1.356 . S
N2146 H2158 0.984 . S
N2146 H2159 0.985 . S
N2147 C2149 1.356 . S
N2147 H2152 0.984 . S
N2147 H2153 0.985 . S
C2148 C2142 1.379 . S
C2148 C2145 1.363 . S
C2148 N2146 1.356 . S
C2149 C2143 1.363 . S
C2149 C2144 1.379 . S
C2149 N2147 1.356 . S
N2150 C2142 1.356 . S
N2150 H2156 0.984 . S
N2150 H2157 0.984 . S
N2151 C2144 1.356 . S
N2151 H2154 0.984 . S
N2151 H2155 0.985 . S
H2152 N2147 0.984 . S
H2153 N2147 0.985 . S
H2154 N2151 0.984 . S
H2155 N2151 0.985 . S
H2156 N2150 0.984 . S
H2157 N2150 0.984 . S
H2158 N2146 0.984 . S
H2159 N2146 0.985 . S
C2160 C2161 1.363 . S
C2160 C2166 1.379 . S
C2160 N2168 1.356 . S
C2161 C2160 1.363 . S
C2161 C2167 1.363 . S
C2162 C2163 1.363 . S
C2162 C2167 1.379 . S
C2162 N2169 1.356 . S
C2163 C2162 1.363 . S
C2163 C2166 1.363 . S
N2164 C2166 1.356 . S
N2164 H2176 0.984 . S
N2164 H2177 0.985 . S
N2165 C2167 1.356 . S
N2165 H2170 0.984 . S
N2165 H2171 0.985 . S
C2166 C2160 1.379 . S
C2166 C2163 1.363 . S
C2166 N2164 1.356 . S
C2167 C2161 1.363 . S
C2167 C2162 1.379 . S
C2167 N2165 1.356 . S
N2168 C2160 1.356 . S
N2168 H2174 0.984 . S
N2168 H2175 0.984 . S
N2169 C2162 1.356 . S
N2169 H2172 0.984 . S
N2169 H2173 0.985 . S
H2170 N2165 0.984 . S
H2171 N2165 0.985 . S
H2172 N2169 0.984 . S
H2173 N2169 0.985 . S
H2174 N2168 0.984 . S
H2175 N2168 0.984 . S
H2176 N2164 0.984 . S
H2177 N2164 0.985 . S
C2178 C2179 1.363 . S
C2178 C2184 1.379 . S
C2178 N2186 1.356 . S
C2179 C2178 1.363 . S
C2179 C2185 1.363 . S
C2180 C2181 1.363 . S
C2180 C2185 1.379 . S
C2180 N2187 1.356 . S
C2181 C2180 1.363 . S
C2181 C2184 1.363 . S
N2182 C2184 1.356 . S
N2182 H2194 0.984 . S
N2182 H2195 0.985 . S
N2183 C2185 1.356 . S
N2183 H2188 0.984 . S
N2183 H2189 0.985 . S
C2184 C2178 1.379 . S
C2184 C2181 1.363 . S
C2184 N2182 1.356 . S
C2185 C2179 1.363 . S
C2185 C2180 1.379 . S
C2185 N2183 1.356 . S
N2186 C2178 1.356 . S
N2186 H2192 0.984 . S
N2186 H2193 0.984 . S
N2187 C2180 1.356 . S
N2187 H2190 0.984 1_556 S
N2187 H2191 0.985 1_556 S
H2188 N2183 0.984 . S
H2189 N2183 0.985 . S
H2190 N2187 0.984 1_554 S
H2191 N2187 0.985 1_554 S
H2192 N2186 0.984 . S
H2193 N2186 0.984 . S
H2194 N2182 0.984 . S
H2195 N2182 0.985 . S
C2196 C2197 1.363 . S
C2196 C2202 1.379 . S
C2196 N2204 1.356 . S
C2197 C2196 1.363 . S
C2197 C2203 1.363 . S
C2198 C2199 1.363 . S
C2198 C2203 1.379 . S
C2198 N2205 1.356 . S
C2199 C2198 1.363 . S
C2199 C2202 1.363 . S
N2200 C2202 1.356 . S
N2200 H2212 0.984 . S
N2200 H2213 0.985 . S
N2201 C2203 1.356 1_554 S
N2201 H2206 0.984 . S
N2201 H2207 0.985 . S
C2202 C2196 1.379 . S
C2202 C2199 1.363 . S
C2202 N2200 1.356 . S
C2203 C2197 1.363 . S
C2203 C2198 1.379 . S
C2203 N2201 1.356 1_556 S
N2204 C2196 1.356 . S
N2204 H2210 0.984 . S
N2204 H2211 0.984 . S
N2205 C2198 1.356 . S
N2205 H2208 0.984 . S
N2205 H2209 0.985 . S
H2206 N2201 0.984 . S
H2207 N2201 0.985 . S
H2208 N2205 0.984 . S
H2209 N2205 0.985 . S
H2210 N2204 0.984 . S
H2211 N2204 0.984 . S
H2212 N2200 0.984 . S
H2213 N2200 0.985 . S
C2214 C2215 1.363 . S
C2214 C2220 1.379 . S
C2214 N2222 1.356 . S
C2215 C2214 1.363 . S
C2215 C2221 1.363 . S
C2216 C2217 1.363 . S
C2216 C2221 1.379 . S
C2216 N2223 1.356 . S
C2217 C2216 1.363 . S
C2217 C2220 1.363 . S
N2218 C2220 1.356 . S
N2218 H2230 0.984 . S
N2218 H2231 0.985 . S
N2219 C2221 1.356 . S
N2219 H2224 0.984 . S
N2219 H2225 0.985 . S
C2220 C2214 1.379 . S
C2220 C2217 1.363 . S
C2220 N2218 1.356 . S
C2221 C2215 1.363 . S
C2221 C2216 1.379 . S
C2221 N2219 1.356 . S
N2222 C2214 1.356 . S
N2222 H2228 0.984 . S
N2222 H2229 0.984 . S
N2223 C2216 1.356 . S
N2223 H2226 0.984 . S
N2223 H2227 0.985 . S
H2224 N2219 0.984 . S
H2225 N2219 0.985 . S
H2226 N2223 0.984 . S
H2227 N2223 0.985 . S
H2228 N2222 0.984 . S
H2229 N2222 0.984 . S
H2230 N2218 0.984 . S
H2231 N2218 0.985 . S
C2232 C2233 1.363 . S
C2232 C2238 1.379 . S
C2232 N2240 1.356 . S
C2233 C2232 1.363 . S
C2233 C2239 1.363 . S
C2234 C2235 1.363 . S
C2234 C2239 1.379 . S
C2234 N2241 1.356 . S
C2235 C2234 1.363 . S
C2235 C2238 1.363 . S
N2236 C2238 1.356 . S
N2236 H2248 0.984 . S
N2236 H2249 0.985 . S
N2237 C2239 1.356 . S
N2237 H2242 0.984 . S
N2237 H2243 0.985 . S
C2238 C2232 1.379 . S
C2238 C2235 1.363 . S
C2238 N2236 1.356 . S
C2239 C2233 1.363 . S
C2239 C2234 1.379 . S
C2239 N2237 1.356 . S
N2240 C2232 1.356 . S
N2240 H2246 0.984 . S
N2240 H2247 0.984 . S
N2241 C2234 1.356 . S
N2241 H2244 0.984 . S
N2241 H2245 0.985 . S
H2242 N2237 0.984 . S
H2243 N2237 0.985 . S
H2244 N2241 0.984 . S
H2245 N2241 0.985 . S
H2246 N2240 0.984 . S
H2247 N2240 0.984 . S
H2248 N2236 0.984 . S
H2249 N2236 0.985 . S
C2250 C2251 1.363 . S
C2250 C2256 1.379 . S
C2250 N2258 1.356 . S
C2251 C2250 1.363 . S
C2251 C2257 1.363 . S
C2252 C2253 1.363 . S
C2252 C2257 1.379 . S
C2252 N2259 1.356 . S
C2253 C2252 1.363 . S
C2253 C2256 1.363 . S
N2254 C2256 1.356 . S
N2254 H2266 0.984 . S
N2254 H2267 0.985 . S
N2255 C2257 1.356 . S
N2255 H2260 0.984 . S
N2255 H2261 0.985 . S
C2256 C2250 1.379 . S
C2256 C2253 1.363 . S
C2256 N2254 1.356 . S
C2257 C2251 1.363 . S
C2257 C2252 1.379 . S
C2257 N2255 1.356 . S
N2258 C2250 1.356 . S
N2258 H2264 0.984 . S
N2258 H2265 0.984 . S
N2259 C2252 1.356 . S
N2259 H2262 0.984 . S
N2259 H2263 0.985 . S
H2260 N2255 0.984 . S
H2261 N2255 0.985 . S
H2262 N2259 0.984 . S
H2263 N2259 0.985 . S
H2264 N2258 0.984 . S
H2265 N2258 0.984 . S
H2266 N2254 0.984 . S
H2267 N2254 0.985 . S
C2268 C2269 1.363 . S
C2268 C2274 1.379 . S
C2268 N2276 1.356 . S
C2269 C2268 1.363 . S
C2269 C2275 1.363 . S
C2270 C2271 1.363 . S
C2270 C2275 1.379 . S
C2270 N2277 1.356 . S
C2271 C2270 1.363 . S
C2271 C2274 1.363 . S
N2272 C2274 1.356 . S
N2272 H2284 0.984 . S
N2272 H2285 0.985 . S
N2273 C2275 1.356 . S
N2273 H2278 0.984 . S
N2273 H2279 0.985 . S
C2274 C2268 1.379 . S
C2274 C2271 1.363 . S
C2274 N2272 1.356 . S
C2275 C2269 1.363 . S
C2275 C2270 1.379 . S
C2275 N2273 1.356 . S
N2276 C2268 1.356 . S
N2276 H2282 0.984 . S
N2276 H2283 0.984 . S
N2277 C2270 1.356 . S
N2277 H2280 0.984 . S
N2277 H2281 0.985 . S
H2278 N2273 0.984 . S
H2279 N2273 0.985 . S
H2280 N2277 0.984 . S
H2281 N2277 0.985 . S
H2282 N2276 0.984 . S
H2283 N2276 0.984 . S
H2284 N2272 0.984 . S
H2285 N2272 0.985 . S
C2286 C2287 1.363 . S
C2286 C2292 1.379 . S
C2286 N2294 1.356 . S
C2287 C2286 1.363 . S
C2287 C2293 1.363 . S
C2288 C2289 1.363 . S
C2288 C2293 1.379 . S
C2288 N2295 1.356 . S
C2289 C2288 1.363 . S
C2289 C2292 1.363 . S
N2290 C2292 1.356 . S
N2290 H2302 0.984 . S
N2290 H2303 0.985 . S
N2291 C2293 1.356 . S
N2291 H2296 0.984 . S
N2291 H2297 0.985 . S
C2292 C2286 1.379 . S
C2292 C2289 1.363 . S
C2292 N2290 1.356 . S
C2293 C2287 1.363 . S
C2293 C2288 1.379 . S
C2293 N2291 1.356 . S
N2294 C2286 1.356 . S
N2294 H2300 0.984 . S
N2294 H2301 0.984 . S
N2295 C2288 1.356 . S
N2295 H2298 0.984 . S
N2295 H2299 0.985 . S
H2296 N2291 0.984 . S
H2297 N2291 0.985 . S
H2298 N2295 0.984 . S
H2299 N2295 0.985 . S
H2300 N2294 0.984 . S
H2301 N2294 0.984 . S
H2302 N2290 0.984 . S
H2303 N2290 0.985 . S
C2304 C2305 1.363 . S
C2304 C2310 1.379 . S
C2304 N2312 1.356 . S
C2305 C2304 1.363 . S
C2305 C2311 1.363 . S
C2306 C2307 1.363 . S
C2306 C2311 1.379 . S
C2306 N2313 1.356 . S
C2307 C2306 1.363 . S
C2307 C2310 1.363 . S
N2308 C2310 1.356 1_556 S
N2308 H2320 0.984 . S
N2308 H2321 0.985 . S
N2309 C2311 1.356 . S
N2309 H2314 0.984 . S
N2309 H2315 0.985 . S
C2310 C2304 1.379 . S
C2310 C2307 1.363 . S
C2310 N2308 1.356 1_554 S
C2311 C2305 1.363 . S
C2311 C2306 1.379 . S
C2311 N2309 1.356 . S
N2312 C2304 1.356 . S
N2312 H2318 0.984 . S
N2312 H2319 0.984 . S
N2313 C2306 1.356 . S
N2313 H2316 0.984 . S
N2313 H2317 0.985 . S
H2314 N2309 0.984 . S
H2315 N2309 0.985 . S
H2316 N2313 0.984 . S
H2317 N2313 0.985 . S
H2318 N2312 0.984 . S
H2319 N2312 0.984 . S
H2320 N2308 0.984 . S
H2321 N2308 0.985 . S
C2322 C2323 1.363 . S
C2322 C2328 1.379 . S
C2322 N2330 1.356 . S
C2323 C2322 1.363 . S
C2323 C2329 1.363 . S
C2324 C2325 1.363 . S
C2324 C2329 1.379 . S
C2324 N2331 1.356 . S
C2325 C2324 1.363 . S
C2325 C2328 1.363 . S
N2326 C2328 1.356 . S
N2326 H2338 0.984 . S
N2326 H2339 0.985 . S
N2327 C2329 1.356 . S
N2327 H2332 0.984 . S
N2327 H2333 0.985 . S
C2328 C2322 1.379 . S
C2328 C2325 1.363 . S
C2328 N2326 1.356 . S
C2329 C2323 1.363 . S
C2329 C2324 1.379 . S
C2329 N2327 1.356 . S
N2330 C2322 1.356 . S
N2330 H2336 0.984 . S
N2330 H2337 0.984 . S
N2331 C2324 1.356 . S
N2331 H2334 0.984 . S
N2331 H2335 0.985 . S
H2332 N2327 0.984 . S
H2333 N2327 0.985 . S
H2334 N2331 0.984 . S
H2335 N2331 0.985 . S
H2336 N2330 0.984 . S
H2337 N2330 0.984 . S
H2338 N2326 0.984 . S
H2339 N2326 0.985 . S
C2340 C2341 1.363 . S
C2340 C2346 1.379 . S
C2340 N2348 1.356 . S
C2341 C2340 1.363 . S
C2341 C2347 1.363 . S
C2342 C2343 1.363 . S
C2342 C2347 1.379 . S
C2342 N2349 1.356 . S
C2343 C2342 1.363 . S
C2343 C2346 1.363 . S
N2344 C2346 1.356 . S
N2344 H2356 0.984 . S
N2344 H2357 0.985 . S
N2345 C2347 1.356 . S
N2345 H2350 0.984 . S
N2345 H2351 0.985 . S
C2346 C2340 1.379 . S
C2346 C2343 1.363 . S
C2346 N2344 1.356 . S
C2347 C2341 1.363 . S
C2347 C2342 1.379 . S
C2347 N2345 1.356 . S
N2348 C2340 1.356 . S
N2348 H2354 0.984 . S
N2348 H2355 0.984 . S
N2349 C2342 1.356 . S
N2349 H2352 0.984 . S
N2349 H2353 0.985 . S
H2350 N2345 0.984 . S
H2351 N2345 0.985 . S
H2352 N2349 0.984 . S
H2353 N2349 0.985 . S
H2354 N2348 0.984 . S
H2355 N2348 0.984 . S
H2356 N2344 0.984 . S
H2357 N2344 0.985 . S
C2358 C2359 1.363 . S
C2358 C2364 1.379 . S
C2358 N2366 1.356 . S
C2359 C2358 1.363 . S
C2359 C2365 1.363 . S
C2360 C2361 1.363 . S
C2360 C2365 1.379 . S
C2360 N2367 1.356 . S
C2361 C2360 1.363 . S
C2361 C2364 1.363 . S
N2362 C2364 1.356 . S
N2362 H2374 0.984 . S
N2362 H2375 0.985 . S
N2363 C2365 1.356 . S
N2363 H2368 0.984 . S
N2363 H2369 0.985 . S
C2364 C2358 1.379 . S
C2364 C2361 1.363 . S
C2364 N2362 1.356 . S
C2365 C2359 1.363 . S
C2365 C2360 1.379 . S
C2365 N2363 1.356 . S
N2366 C2358 1.356 . S
N2366 H2372 0.984 . S
N2366 H2373 0.984 . S
N2367 C2360 1.356 . S
N2367 H2370 0.984 . S
N2367 H2371 0.985 . S
H2368 N2363 0.984 . S
H2369 N2363 0.985 . S
H2370 N2367 0.984 . S
H2371 N2367 0.985 . S
H2372 N2366 0.984 . S
H2373 N2366 0.984 . S
H2374 N2362 0.984 . S
H2375 N2362 0.985 . S
C2376 C2377 1.363 . S
C2376 C2382 1.379 1_455 S
C2376 N2384 1.356 . S
C2377 C2376 1.363 . S
C2377 C2383 1.363 . S
C2378 C2379 1.363 . S
C2378 C2383 1.379 1_655 S
C2378 N2385 1.356 . S
C2379 C2378 1.363 . S
C2379 C2382 1.363 . S
N2380 C2382 1.356 . S
N2380 H2392 0.984 . S
N2380 H2393 0.985 . S
N2381 C2383 1.356 . S
N2381 H2386 0.984 . S
N2381 H2387 0.984 . S
C2382 C2376 1.379 1_655 S
C2382 C2379 1.363 . S
C2382 N2380 1.356 . S
C2383 C2377 1.363 . S
C2383 C2378 1.379 1_455 S
C2383 N2381 1.356 . S
N2384 C2376 1.356 . S
N2384 H2390 0.984 . S
N2384 H2391 0.984 . S
N2385 C2378 1.356 . S
N2385 H2388 0.984 . S
N2385 H2389 0.985 . S
H2386 N2381 0.984 . S
H2387 N2381 0.984 . S
H2388 N2385 0.984 . S
H2389 N2385 0.985 . S
H2390 N2384 0.984 . S
H2391 N2384 0.984 . S
H2392 N2380 0.984 . S
H2393 N2380 0.985 . S
C2394 C2395 1.363 . S
C2394 C2400 1.379 . S
C2394 N2402 1.356 . S
C2395 C2394 1.363 . S
C2395 C2401 1.363 . S
C2396 C2397 1.363 . S
C2396 C2401 1.379 . S
C2396 N2403 1.356 . S
C2397 C2396 1.363 . S
C2397 C2400 1.363 . S
N2398 C2400 1.356 . S
N2398 H2410 0.984 . S
N2398 H2411 0.985 . S
N2399 C2401 1.356 . S
N2399 H2404 0.984 . S
N2399 H2405 0.985 . S
C2400 C2394 1.379 . S
C2400 C2397 1.363 . S
C2400 N2398 1.356 . S
C2401 C2395 1.363 . S
C2401 C2396 1.379 . S
C2401 N2399 1.356 . S
N2402 C2394 1.356 . S
N2402 H2408 0.984 . S
N2402 H2409 0.984 . S
N2403 C2396 1.356 . S
N2403 H2406 0.984 . S
N2403 H2407 0.985 . S
H2404 N2399 0.984 . S
H2405 N2399 0.985 . S
H2406 N2403 0.984 . S
H2407 N2403 0.985 . S
H2408 N2402 0.984 . S
H2409 N2402 0.984 . S
H2410 N2398 0.984 . S
H2411 N2398 0.985 . S
C2412 C2413 1.405 . S
C2412 C2418 1.346 1_545 S
C2412 N2420 1.362 . S
C2413 C2412 1.405 . S
C2413 C2419 1.363 . S
C2414 C2415 1.405 . S
C2414 C2419 1.346 1_565 S
C2414 N2421 1.362 . S
C2415 C2414 1.405 . S
C2415 C2418 1.363 . S
N2416 C2418 1.356 . S
N2416 H2428 0.984 . S
N2416 H2429 0.985 . S
N2417 C2419 1.356 . S
N2417 H2422 0.984 . S
N2417 H2423 0.985 . S
C2418 C2412 1.346 1_565 S
C2418 C2415 1.363 . S
C2418 N2416 1.356 . S
C2419 C2413 1.363 . S
C2419 C2414 1.346 1_545 S
C2419 N2417 1.356 . S
N2420 C2412 1.362 . S
N2420 H2426 0.984 1_545 S
N2420 H2427 0.984 . S
N2421 C2414 1.362 . S
N2421 H2424 0.984 . S
N2421 H2425 0.985 1_565 S
H2422 N2417 0.984 . S
H2423 N2417 0.985 . S
H2424 N2421 0.984 . S
H2425 N2421 0.985 1_545 S
H2426 N2420 0.984 1_565 S
H2427 N2420 0.984 . S
H2428 N2416 0.984 . S
H2429 N2416 0.985 . S
C2430 C2431 1.363 . S
C2430 C2436 1.379 1_545 S
C2430 N2438 1.356 . S
C2431 C2430 1.363 . S
C2431 C2437 1.363 . S
C2432 C2433 1.363 . S
C2432 C2437 1.379 1_565 S
C2432 N2439 1.356 . S
C2433 C2432 1.363 . S
C2433 C2436 1.363 . S
N2434 C2436 1.356 . S
N2434 H2446 0.984 . S
N2434 H2447 0.985 . S
N2435 C2437 1.356 . S
N2435 H2440 0.984 . S
N2435 H2441 0.985 . S
C2436 C2430 1.379 1_565 S
C2436 C2433 1.363 . S
C2436 N2434 1.356 . S
C2437 C2431 1.363 . S
C2437 C2432 1.379 1_545 S
C2437 N2435 1.356 . S
N2438 C2430 1.356 . S
N2438 H2444 0.984 1_545 S
N2438 H2445 0.984 . S
N2439 C2432 1.356 . S
N2439 H2442 0.984 . S
N2439 H2443 0.985 1_565 S
H2440 N2435 0.984 . S
H2441 N2435 0.985 . S
H2442 N2439 0.984 . S
H2443 N2439 0.985 1_545 S
H2444 N2438 0.984 1_565 S
H2445 N2438 0.984 . S
H2446 N2434 0.984 . S
H2447 N2434 0.985 . S
C2448 C2449 1.363 . S
C2448 C2454 1.379 1_655 S
C2448 N2456 1.356 . S
C2449 C2448 1.363 . S
C2449 C2455 1.363 . S
C2450 C2451 1.363 . S
C2450 C2455 1.379 1_455 S
C2450 N2457 1.356 . S
C2451 C2450 1.363 . S
C2451 C2454 1.363 . S
N2452 C2454 1.356 . S
N2452 H2464 0.984 . S
N2452 H2465 0.985 . S
N2453 C2455 1.356 . S
N2453 H2458 0.984 . S
N2453 H2459 0.985 . S
C2454 C2448 1.379 1_455 S
C2454 C2451 1.363 . S
C2454 N2452 1.356 . S
C2455 C2449 1.363 . S
C2455 C2450 1.379 1_655 S
C2455 N2453 1.356 . S
N2456 C2448 1.356 . S
N2456 H2462 0.984 . S
N2456 H2463 0.984 . S
N2457 C2450 1.356 . S
N2457 H2460 0.984 . S
N2457 H2461 0.985 . S
H2458 N2453 0.984 . S
H2459 N2453 0.985 . S
H2460 N2457 0.984 . S
H2461 N2457 0.985 . S
H2462 N2456 0.984 . S
H2463 N2456 0.984 . S
H2464 N2452 0.984 . S
H2465 N2452 0.985 . S
C2466 C2467 1.363 . S
C2466 C2472 1.379 . S
C2466 N2474 1.356 . S
C2467 C2466 1.363 . S
C2467 C2473 1.363 . S
C2468 C2469 1.363 . S
C2468 C2473 1.379 . S
C2468 N2475 1.356 . S
C2469 C2468 1.363 . S
C2469 C2472 1.363 . S
N2470 C2472 1.356 . S
N2470 H2482 0.984 . S
N2470 H2483 0.985 . S
N2471 C2473 1.356 . S
N2471 H2476 0.984 . S
N2471 H2477 0.985 . S
C2472 C2466 1.379 . S
C2472 C2469 1.363 . S
C2472 N2470 1.356 . S
C2473 C2467 1.363 . S
C2473 C2468 1.379 . S
C2473 N2471 1.356 . S
N2474 C2466 1.356 . S
N2474 H2480 0.984 . S
N2474 H2481 0.984 . S
N2475 C2468 1.356 . S
N2475 H2478 0.984 . S
N2475 H2479 0.985 . S
H2476 N2471 0.984 . S
H2477 N2471 0.985 . S
H2478 N2475 0.984 . S
H2479 N2475 0.985 . S
H2480 N2474 0.984 . S
H2481 N2474 0.984 . S
H2482 N2470 0.984 . S
H2483 N2470 0.985 . S
C2484 C2485 1.363 . S
C2484 C2490 1.379 . S
C2484 N2492 1.356 . S
C2485 C2484 1.363 . S
C2485 C2491 1.363 . S
C2486 C2487 1.363 . S
C2486 C2491 1.379 . S
C2486 N2493 1.356 . S
C2487 C2486 1.363 . S
C2487 C2490 1.363 . S
N2488 C2490 1.356 . S
N2488 H2500 0.984 . S
N2488 H2501 0.985 . S
N2489 C2491 1.356 . S
N2489 H2494 0.984 . S
N2489 H2495 0.985 . S
C2490 C2484 1.379 . S
C2490 C2487 1.363 . S
C2490 N2488 1.356 . S
C2491 C2485 1.363 . S
C2491 C2486 1.379 . S
C2491 N2489 1.356 . S
N2492 C2484 1.356 . S
N2492 H2498 0.984 1_554 S
N2492 H2499 0.984 . S
N2493 C2486 1.356 . S
N2493 H2496 0.984 . S
N2493 H2497 0.985 . S
H2494 N2489 0.984 . S
H2495 N2489 0.985 . S
H2496 N2493 0.984 . S
H2497 N2493 0.985 . S
H2498 N2492 0.984 1_556 S
H2499 N2492 0.984 . S
H2500 N2488 0.984 . S
H2501 N2488 0.985 . S
C2502 C2503 1.363 . S
C2502 C2508 1.379 . S
C2502 N2510 1.356 . S
C2503 C2502 1.363 . S
C2503 C2509 1.363 . S
C2504 C2505 1.363 . S
C2504 C2509 1.379 . S
C2504 N2511 1.356 . S
C2505 C2504 1.363 . S
C2505 C2508 1.363 . S
N2506 C2508 1.356 . S
N2506 H2518 0.984 . S
N2506 H2519 0.985 . S
N2507 C2509 1.356 . S
N2507 H2512 0.984 . S
N2507 H2513 0.985 1_554 S
C2508 C2502 1.379 . S
C2508 C2505 1.363 . S
C2508 N2506 1.356 . S
C2509 C2503 1.363 . S
C2509 C2504 1.379 . S
C2509 N2507 1.356 . S
N2510 C2502 1.356 . S
N2510 H2516 0.984 . S
N2510 H2517 0.984 . S
N2511 C2504 1.356 . S
N2511 H2514 0.984 . S
N2511 H2515 0.985 . S
H2512 N2507 0.984 . S
H2513 N2507 0.985 1_556 S
H2514 N2511 0.984 . S
H2515 N2511 0.985 . S
H2516 N2510 0.984 . S
H2517 N2510 0.984 . S
H2518 N2506 0.984 . S
H2519 N2506 0.985 . S
C2520 C2521 1.363 . S
C2520 C2526 1.379 . S
C2520 N2528 1.356 . S
C2521 C2520 1.363 . S
C2521 C2527 1.363 . S
C2522 C2523 1.363 . S
C2522 C2527 1.379 . S
C2522 N2529 1.356 . S
C2523 C2522 1.363 . S
C2523 C2526 1.363 . S
N2524 C2526 1.356 . S
N2524 H2536 0.984 . S
N2524 H2537 0.985 . S
N2525 C2527 1.356 . S
N2525 H2530 0.984 . S
N2525 H2531 0.985 . S
C2526 C2520 1.379 . S
C2526 C2523 1.363 . S
C2526 N2524 1.356 . S
C2527 C2521 1.363 . S
C2527 C2522 1.379 . S
C2527 N2525 1.356 . S
N2528 C2520 1.356 . S
N2528 H2534 0.984 . S
N2528 H2535 0.984 . S
N2529 C2522 1.356 . S
N2529 H2532 0.984 . S
N2529 H2533 0.985 . S
H2530 N2525 0.984 . S
H2531 N2525 0.985 . S
H2532 N2529 0.984 . S
H2533 N2529 0.985 . S
H2534 N2528 0.984 . S
H2535 N2528 0.984 . S
H2536 N2524 0.984 . S
H2537 N2524 0.985 . S
C2538 C2539 1.363 . S
C2538 C2544 1.379 . S
C2538 N2546 1.356 . S
C2539 C2538 1.363 . S
C2539 C2545 1.363 . S
C2540 C2541 1.363 . S
C2540 C2545 1.379 . S
C2540 N2547 1.356 . S
C2541 C2540 1.363 . S
C2541 C2544 1.363 . S
N2542 C2544 1.356 . S
N2542 H2554 0.984 . S
N2542 H2555 0.985 . S
N2543 C2545 1.356 . S
N2543 H2548 0.984 . S
N2543 H2549 0.985 . S
C2544 C2538 1.379 . S
C2544 C2541 1.363 . S
C2544 N2542 1.356 . S
C2545 C2539 1.363 . S
C2545 C2540 1.379 . S
C2545 N2543 1.356 . S
N2546 C2538 1.356 . S
N2546 H2552 0.984 . S
N2546 H2553 0.984 . S
N2547 C2540 1.356 . S
N2547 H2550 0.984 . S
N2547 H2551 0.985 . S
H2548 N2543 0.984 . S
H2549 N2543 0.985 . S
H2550 N2547 0.984 . S
H2551 N2547 0.985 . S
H2552 N2546 0.984 . S
H2553 N2546 0.984 . S
H2554 N2542 0.984 . S
H2555 N2542 0.985 . S
C2556 C2557 1.363 . S
C2556 C2562 1.379 . S
C2556 N2564 1.356 . S
C2557 C2556 1.363 . S
C2557 C2563 1.363 . S
C2558 C2559 1.363 . S
C2558 C2563 1.379 . S
C2558 N2565 1.356 . S
C2559 C2558 1.363 . S
C2559 C2562 1.363 . S
N2560 C2562 1.356 . S
N2560 H2572 0.984 . S
N2560 H2573 0.985 . S
N2561 C2563 1.356 . S
N2561 H2566 0.984 . S
N2561 H2567 0.985 . S
C2562 C2556 1.379 . S
C2562 C2559 1.363 . S
C2562 N2560 1.356 . S
C2563 C2557 1.363 . S
C2563 C2558 1.379 . S
C2563 N2561 1.356 . S
N2564 C2556 1.356 . S
N2564 H2570 0.984 . S
N2564 H2571 0.984 . S
N2565 C2558 1.356 . S
N2565 H2568 0.984 . S
N2565 H2569 0.985 . S
H2566 N2561 0.984 . S
H2567 N2561 0.985 . S
H2568 N2565 0.984 . S
H2569 N2565 0.985 . S
H2570 N2564 0.984 . S
H2571 N2564 0.984 . S
H2572 N2560 0.984 . S
H2573 N2560 0.985 . S
C2574 C2575 1.363 . S
C2574 C2580 1.379 . S
C2574 N2582 1.356 . S
C2575 C2574 1.363 . S
C2575 C2581 1.363 . S
C2576 C2577 1.363 . S
C2576 C2581 1.379 . S
C2576 N2583 1.356 . S
C2577 C2576 1.363 . S
C2577 C2580 1.363 . S
N2578 C2580 1.356 . S
N2578 H2590 0.984 . S
N2578 H2591 0.985 . S
N2579 C2581 1.356 . S
N2579 H2584 0.984 . S
N2579 H2585 0.985 . S
C2580 C2574 1.379 . S
C2580 C2577 1.363 . S
C2580 N2578 1.356 . S
C2581 C2575 1.363 . S
C2581 C2576 1.379 . S
C2581 N2579 1.356 . S
N2582 C2574 1.356 . S
N2582 H2588 0.984 . S
N2582 H2589 0.984 . S
N2583 C2576 1.356 . S
N2583 H2586 0.984 . S
N2583 H2587 0.985 1_655 S
H2584 N2579 0.984 . S
H2585 N2579 0.985 . S
H2586 N2583 0.984 . S
H2587 N2583 0.985 1_455 S
H2588 N2582 0.984 . S
H2589 N2582 0.984 . S
H2590 N2578 0.984 . S
H2591 N2578 0.985 . S
C2592 C2593 1.363 . S
C2592 C2598 1.379 . S
C2592 N2600 1.356 . S
C2593 C2592 1.363 . S
C2593 C2599 1.363 . S
C2594 C2595 1.363 . S
C2594 C2599 1.379 . S
C2594 N2601 1.356 . S
C2595 C2594 1.363 . S
C2595 C2598 1.363 . S
N2596 C2598 1.356 . S
N2596 H2608 0.984 1_556 S
N2596 H2609 0.985 . S
N2597 C2599 1.356 . S
N2597 H2602 0.984 . S
N2597 H2603 0.985 . S
C2598 C2592 1.379 . S
C2598 C2595 1.363 . S
C2598 N2596 1.356 . S
C2599 C2593 1.363 . S
C2599 C2594 1.379 . S
C2599 N2597 1.356 . S
N2600 C2592 1.356 . S
N2600 H2606 0.984 . S
N2600 H2607 0.984 . S
N2601 C2594 1.356 . S
N2601 H2604 0.984 . S
N2601 H2605 0.985 . S
H2602 N2597 0.984 . S
H2603 N2597 0.985 . S
H2604 N2601 0.984 . S
H2605 N2601 0.985 . S
H2606 N2600 0.984 . S
H2607 N2600 0.984 . S
H2608 N2596 0.984 1_554 S
H2609 N2596 0.985 . S
C2610 C2611 1.363 . S
C2610 C2616 1.379 . S
C2610 N2618 1.356 . S
C2611 C2610 1.363 . S
C2611 C2617 1.363 . S
C2612 C2613 1.363 . S
C2612 C2617 1.379 . S
C2612 N2619 1.356 . S
C2613 C2612 1.363 . S
C2613 C2616 1.363 . S
N2614 C2616 1.356 . S
N2614 H2626 0.984 . S
N2614 H2627 0.985 . S
N2615 C2617 1.356 . S
N2615 H2620 0.984 . S
N2615 H2621 0.985 1_556 S
C2616 C2610 1.379 . S
C2616 C2613 1.363 . S
C2616 N2614 1.356 . S
C2617 C2611 1.363 . S
C2617 C2612 1.379 . S
C2617 N2615 1.356 . S
N2618 C2610 1.356 . S
N2618 H2624 0.984 . S
N2618 H2625 0.984 . S
N2619 C2612 1.356 . S
N2619 H2622 0.984 . S
N2619 H2623 0.985 . S
H2620 N2615 0.984 . S
H2621 N2615 0.985 1_554 S
H2622 N2619 0.984 . S
H2623 N2619 0.985 . S
H2624 N2618 0.984 . S
H2625 N2618 0.984 . S
H2626 N2614 0.984 . S
H2627 N2614 0.985 . S
C2628 C2629 1.363 . S
C2628 C2634 1.379 . S
C2628 N2636 1.356 . S
C2629 C2628 1.363 . S
C2629 C2635 1.363 . S
C2630 C2631 1.363 . S
C2630 C2635 1.379 . S
C2630 N2637 1.356 . S
C2631 C2630 1.363 . S
C2631 C2634 1.363 . S
N2632 C2634 1.356 . S
N2632 H2644 0.984 . S
N2632 H2645 0.985 . S
N2633 C2635 1.356 . S
N2633 H2638 0.984 . S
N2633 H2639 0.985 . S
C2634 C2628 1.379 . S
C2634 C2631 1.363 . S
C2634 N2632 1.356 . S
C2635 C2629 1.363 . S
C2635 C2630 1.379 . S
C2635 N2633 1.356 . S
N2636 C2628 1.356 . S
N2636 H2642 0.984 . S
N2636 H2643 0.984 . S
N2637 C2630 1.356 . S
N2637 H2640 0.984 . S
N2637 H2641 0.985 1_556 S
H2638 N2633 0.984 . S
H2639 N2633 0.985 . S
H2640 N2637 0.984 . S
H2641 N2637 0.985 1_554 S
H2642 N2636 0.984 . S
H2643 N2636 0.984 . S
H2644 N2632 0.984 . S
H2645 N2632 0.985 . S
C2646 C2647 1.363 . S
C2646 C2652 1.379 . S
C2646 N2654 1.356 . S
C2647 C2646 1.363 . S
C2647 C2653 1.363 . S
C2648 C2649 1.363 . S
C2648 C2653 1.379 . S
C2648 N2655 1.356 . S
C2649 C2648 1.363 . S
C2649 C2652 1.363 . S
N2650 C2652 1.356 . S
N2650 H2662 0.984 . S
N2650 H2663 0.985 . S
N2651 C2653 1.356 . S
N2651 H2656 0.984 . S
N2651 H2657 0.985 . S
C2652 C2646 1.379 . S
C2652 C2649 1.363 . S
C2652 N2650 1.356 . S
C2653 C2647 1.363 . S
C2653 C2648 1.379 . S
C2653 N2651 1.356 . S
N2654 C2646 1.356 . S
N2654 H2660 0.984 . S
N2654 H2661 0.984 . S
N2655 C2648 1.356 . S
N2655 H2658 0.984 . S
N2655 H2659 0.985 . S
H2656 N2651 0.984 . S
H2657 N2651 0.985 . S
H2658 N2655 0.984 . S
H2659 N2655 0.985 . S
H2660 N2654 0.984 . S
H2661 N2654 0.984 . S
H2662 N2650 0.984 . S
H2663 N2650 0.985 . S
C2664 C2665 1.363 . S
C2664 C2670 1.379 . S
C2664 N2672 1.356 . S
C2665 C2664 1.363 . S
C2665 C2671 1.363 . S
C2666 C2667 1.363 . S
C2666 C2671 1.379 . S
C2666 N2673 1.356 . S
C2667 C2666 1.363 . S
C2667 C2670 1.363 . S
N2668 C2670 1.356 . S
N2668 H2680 0.984 1_565 S
N2668 H2681 0.985 . S
N2669 C2671 1.356 . S
N2669 H2674 0.984 . S
N2669 H2675 0.985 . S
C2670 C2664 1.379 . S
C2670 C2667 1.363 . S
C2670 N2668 1.356 . S
C2671 C2665 1.363 . S
C2671 C2666 1.379 . S
C2671 N2669 1.356 . S
N2672 C2664 1.356 . S
N2672 H2678 0.984 . S
N2672 H2679 0.984 . S
N2673 C2666 1.356 . S
N2673 H2676 0.984 . S
N2673 H2677 0.985 . S
H2674 N2669 0.984 . S
H2675 N2669 0.985 . S
H2676 N2673 0.984 . S
H2677 N2673 0.985 . S
H2678 N2672 0.984 . S
H2679 N2672 0.984 . S
H2680 N2668 0.984 1_545 S
H2681 N2668 0.985 . S
C2682 C2683 1.363 . S
C2682 C2688 1.379 . S
C2682 N2690 1.356 . S
C2683 C2682 1.363 . S
C2683 C2689 1.363 . S
C2684 C2685 1.363 . S
C2684 C2689 1.379 . S
C2684 N2691 1.356 . S
C2685 C2684 1.363 . S
C2685 C2688 1.363 . S
N2686 C2688 1.356 . S
N2686 H2698 0.984 . S
N2686 H2699 0.985 . S
N2687 C2689 1.356 . S
N2687 H2692 0.984 . S
N2687 H2693 0.985 . S
C2688 C2682 1.379 . S
C2688 C2685 1.363 . S
C2688 N2686 1.356 . S
C2689 C2683 1.363 . S
C2689 C2684 1.379 . S
C2689 N2687 1.356 . S
N2690 C2682 1.356 . S
N2690 H2696 0.984 . S
N2690 H2697 0.984 . S
N2691 C2684 1.356 . S
N2691 H2694 0.984 . S
N2691 H2695 0.985 . S
H2692 N2687 0.984 . S
H2693 N2687 0.985 . S
H2694 N2691 0.984 . S
H2695 N2691 0.985 . S
H2696 N2690 0.984 . S
H2697 N2690 0.984 . S
H2698 N2686 0.984 . S
H2699 N2686 0.985 . S
C2700 C2701 1.363 . S
C2700 C2706 1.379 1_455 S
C2700 N2708 1.356 . S
C2701 C2700 1.363 . S
C2701 C2707 1.363 . S
C2702 C2703 1.363 . S
C2702 C2707 1.379 1_655 S
C2702 N2709 1.356 . S
C2703 C2702 1.363 . S
C2703 C2706 1.363 . S
N2704 C2706 1.356 . S
N2704 H2716 0.984 . S
N2704 H2717 0.985 . S
N2705 C2707 1.356 . S
N2705 H2710 0.984 . S
N2705 H2711 0.985 . S
C2706 C2700 1.379 1_655 S
C2706 C2703 1.363 . S
C2706 N2704 1.356 . S
C2707 C2701 1.363 . S
C2707 C2702 1.379 1_455 S
C2707 N2705 1.356 . S
N2708 C2700 1.356 . S
N2708 H2714 0.984 . S
N2708 H2715 0.984 . S
N2709 C2702 1.356 . S
N2709 H2712 0.984 . S
N2709 H2713 0.985 . S
H2710 N2705 0.984 . S
H2711 N2705 0.985 . S
H2712 N2709 0.984 . S
H2713 N2709 0.985 . S
H2714 N2708 0.984 . S
H2715 N2708 0.984 . S
H2716 N2704 0.984 . S
H2717 N2704 0.985 . S
C2718 C2719 1.363 . S
C2718 C2724 1.379 . S
C2718 N2726 1.356 . S
C2719 C2718 1.363 . S
C2719 C2725 1.363 . S
C2720 C2721 1.363 . S
C2720 C2725 1.379 . S
C2720 N2727 1.356 . S
C2721 C2720 1.363 . S
C2721 C2724 1.363 . S
N2722 C2724 1.356 . S
N2722 H2734 0.984 . S
N2722 H2735 0.985 . S
N2723 C2725 1.356 . S
N2723 H2728 0.984 . S
N2723 H2729 0.985 . S
C2724 C2718 1.379 . S
C2724 C2721 1.363 . S
C2724 N2722 1.356 . S
C2725 C2719 1.363 . S
C2725 C2720 1.379 . S
C2725 N2723 1.356 . S
N2726 C2718 1.356 . S
N2726 H2732 0.984 . S
N2726 H2733 0.984 . S
N2727 C2720 1.356 . S
N2727 H2730 0.984 . S
N2727 H2731 0.985 . S
H2728 N2723 0.984 . S
H2729 N2723 0.985 . S
H2730 N2727 0.984 . S
H2731 N2727 0.985 . S
H2732 N2726 0.984 . S
H2733 N2726 0.984 . S
H2734 N2722 0.984 . S
H2735 N2722 0.985 . S
C2736 C2737 1.363 . S
C2736 C2742 1.379 1_545 S
C2736 N2744 1.356 . S
C2737 C2736 1.363 . S
C2737 C2743 1.363 . S
C2738 C2739 1.363 . S
C2738 C2743 1.379 1_565 S
C2738 N2745 1.356 . S
C2739 C2738 1.363 . S
C2739 C2742 1.363 . S
N2740 C2742 1.356 . S
N2740 H2752 0.984 . S
N2740 H2753 0.985 . S
N2741 C2743 1.356 . S
N2741 H2746 0.984 . S
N2741 H2747 0.985 . S
C2742 C2736 1.379 1_565 S
C2742 C2739 1.363 . S
C2742 N2740 1.356 . S
C2743 C2737 1.363 . S
C2743 C2738 1.379 1_545 S
C2743 N2741 1.356 . S
N2744 C2736 1.356 . S
N2744 H2750 0.984 . S
N2744 H2751 0.984 . S
N2745 C2738 1.356 . S
N2745 H2748 0.984 . S
N2745 H2749 0.985 . S
H2746 N2741 0.984 . S
H2747 N2741 0.985 . S
H2748 N2745 0.984 . S
H2749 N2745 0.985 . S
H2750 N2744 0.984 . S
H2751 N2744 0.984 . S
H2752 N2740 0.984 . S
H2753 N2740 0.985 . S
C2754 C2755 1.363 . S
C2754 C2760 1.379 1_545 S
C2754 N2762 1.356 . S
C2755 C2754 1.363 . S
C2755 C2761 1.363 . S
C2756 C2757 1.363 . S
C2756 C2761 1.379 1_565 S
C2756 N2763 1.356 . S
C2757 C2756 1.363 . S
C2757 C2760 1.363 . S
N2758 C2760 1.356 . S
N2758 H2770 0.984 . S
N2758 H2771 0.985 . S
N2759 C2761 1.356 . S
N2759 H2764 0.984 . S
N2759 H2765 0.985 . S
C2760 C2754 1.379 1_565 S
C2760 C2757 1.363 . S
C2760 N2758 1.356 . S
C2761 C2755 1.363 . S
C2761 C2756 1.379 1_545 S
C2761 N2759 1.356 . S
N2762 C2754 1.356 . S
N2762 H2768 0.984 . S
N2762 H2769 0.984 . S
N2763 C2756 1.356 . S
N2763 H2766 0.984 . S
N2763 H2767 0.985 . S
H2764 N2759 0.984 . S
H2765 N2759 0.985 . S
H2766 N2763 0.984 . S
H2767 N2763 0.985 . S
H2768 N2762 0.984 . S
H2769 N2762 0.984 . S
H2770 N2758 0.984 . S
H2771 N2758 0.985 . S
C2772 C2773 1.363 . S
C2772 C2778 1.379 1_455 S
C2772 N2780 1.356 . S
C2773 C2772 1.363 . S
C2773 C2779 1.363 . S
C2774 C2775 1.363 . S
C2774 C2779 1.379 1_655 S
C2774 N2781 1.356 . S
C2775 C2774 1.363 . S
C2775 C2778 1.363 . S
N2776 C2778 1.356 . S
N2776 H2788 0.984 . S
N2776 H2789 0.985 . S
N2777 C2779 1.356 . S
N2777 H2782 0.984 . S
N2777 H2783 0.985 . S
C2778 C2772 1.379 1_655 S
C2778 C2775 1.363 . S
C2778 N2776 1.356 . S
C2779 C2773 1.363 . S
C2779 C2774 1.379 1_455 S
C2779 N2777 1.356 . S
N2780 C2772 1.356 . S
N2780 H2786 0.984 . S
N2780 H2787 0.984 . S
N2781 C2774 1.356 . S
N2781 H2784 0.984 . S
N2781 H2785 0.985 . S
H2782 N2777 0.984 . S
H2783 N2777 0.985 . S
H2784 N2781 0.984 . S
H2785 N2781 0.985 . S
H2786 N2780 0.984 . S
H2787 N2780 0.984 . S
H2788 N2776 0.984 . S
H2789 N2776 0.985 . S
C2790 C2791 1.363 . S
C2790 C2796 1.379 . S
C2790 N2798 1.356 . S
C2791 C2790 1.363 . S
C2791 C2797 1.363 . S
C2792 C2793 1.363 . S
C2792 C2797 1.379 . S
C2792 N2799 1.356 . S
C2793 C2792 1.363 . S
C2793 C2796 1.363 . S
N2794 C2796 1.356 . S
N2794 H2806 0.984 . S
N2794 H2807 0.985 . S
N2795 C2797 1.356 . S
N2795 H2800 0.984 . S
N2795 H2801 0.985 . S
C2796 C2790 1.379 . S
C2796 C2793 1.363 . S
C2796 N2794 1.356 . S
C2797 C2791 1.363 . S
C2797 C2792 1.379 . S
C2797 N2795 1.356 . S
N2798 C2790 1.356 . S
N2798 H2804 0.984 . S
N2798 H2805 0.984 . S
N2799 C2792 1.356 . S
N2799 H2802 0.984 . S
N2799 H2803 0.985 . S
H2800 N2795 0.984 . S
H2801 N2795 0.985 . S
H2802 N2799 0.984 . S
H2803 N2799 0.985 . S
H2804 N2798 0.984 . S
H2805 N2798 0.984 . S
H2806 N2794 0.984 . S
H2807 N2794 0.985 . S
C1189 C248 1.443 . S
C1191 N5 1.381 . S
C1207 N38 1.380 . S
C1209 C281 1.443 . S
C1225 C215 1.443 . S
C1227 N71 1.380 . S
C1243 C380 1.443 . S
C1245 N104 1.381 . S
C1261 C314 1.443 . S
C1263 N137 1.380 . S
C1279 N170 1.380 . S
C1281 C347 1.443 . S
C1297 N203 1.381 . S
C1299 C50 1.443 . S
C1315 N236 1.380 . S
C1317 C83 1.443 . S
C1333 N269 1.380 . S
C1335 C17 1.443 . S
C1351 C182 1.443 . S
C1353 N302 1.381 . S
C1369 C116 1.443 . S
C1371 N335 1.380 . S
C1387 N368 1.380 . S
C1389 C149 1.443 . S
C1405 C644 1.443 . S
C1407 N401 1.381 . S
C1423 C677 1.443 . S
C1425 N434 1.380 . S
C1441 C611 1.443 . S
C1443 N467 1.381 . S
C1459 C776 1.443 . S
C1461 N500 1.381 . S
C1477 C710 1.443 . S
C1479 N533 1.381 . S
C1495 C743 1.443 . S
C1497 N566 1.380 . S
C1513 N599 1.381 . S
C1515 C446 1.443 . S
C1531 N632 1.380 . S
C1533 C479 1.443 . S
C1549 C413 1.443 . S
C1551 N665 1.381 . S
C1567 N698 1.381 . S
C1569 C578 1.443 . S
C1585 N731 1.381 . S
C1587 C512 1.443 . S
C1603 N764 1.380 . S
C1605 C545 1.443 . S
C1621 C1040 1.443 . S
C1623 N797 1.381 . S
C1639 C1073 1.443 . S
C1641 N830 1.380 . S
C1657 N863 1.381 . S
C1659 C1007 1.443 . S
C1675 N896 1.381 . S
C1677 C1172 1.443 . S
C1693 N929 1.381 . S
C1695 C1106 1.443 . S
C1711 N962 1.380 . S
C1713 C1139 1.443 . S
C1729 C842 1.443 . S
C1731 N995 1.381 . S
C1747 C875 1.443 . S
C1749 N1028 1.380 . S
C1765 N1061 1.381 . S
C1767 C809 1.443 . S
C1783 C974 1.443 . S
C1785 N1094 1.381 . S
C1801 C908 1.443 . S
C1803 N1127 1.381 . S
C1819 N1160 1.380 . S
C1821 C941 1.443 . S
C1837 C8 1.743 . S
C1839 C107 1.743 . S
C1855 C41 1.743 . S
C1857 C140 1.743 . S
C1873 C74 1.743 . S
C1875 C173 1.743 . S
C1891 C305 1.743 . S
C1893 C206 1.743 . S
C1909 C338 1.743 . S
C1911 C239 1.743 . S
C1927 C371 1.743 . S
C1929 C272 1.743 . S
C1945 C404 1.743 . S
C1947 C503 1.743 . S
C1963 C437 1.743 . S
C1965 C536 1.743 . S
C1981 C569 1.743 . S
C1983 C470 1.743 . S
C1999 C602 1.743 . S
C2001 C701 1.743 1_554 S
C2017 C734 1.743 1_554 S
C2019 C635 1.743 . S
C2035 C767 1.743 1_554 S
C2037 C668 1.743 . S
C2053 C899 1.743 1_556 S
C2055 C800 1.743 . S
C2071 C932 1.743 1_556 S
C2073 C833 1.743 . S
C2089 C965 1.743 1_556 S
C2091 C866 1.743 . S
C2107 C1097 1.743 . S
C2109 C998 1.743 . S
C2125 C1130 1.743 . S
C2127 C1031 1.743 . S
C2143 C1064 1.743 . S
C2145 C1163 1.743 . S
C2161 C28 2.281 . S
C2163 C556 2.281 . S
C2179 C589 2.281 . S
C2181 C61 2.281 . S
C2197 C94 2.281 . S
C2199 C523 2.281 . S
C2215 C886 2.281 . S
C2217 C127 2.281 . S
C2233 C160 2.281 . S
C2235 C820 2.281 . S
C2251 C853 2.281 . S
C2253 C193 2.281 . S
C2269 C1150 2.281 . S
C2271 C226 2.281 . S
C2287 C259 2.281 . S
C2289 C1183 2.281 . S
C2305 C1117 2.281 . S
C2307 C292 2.281 . S
C2323 C325 2.281 . S
C2325 C688 2.281 . S
C2341 C358 2.281 . S
C2343 C622 2.281 . S
C2359 C655 2.281 . S
C2361 C391 2.281 . S
C2377 C952 2.281 . S
C2379 C424 2.281 . S
C2395 C985 2.281 . S
C2397 C457 2.281 . S
C2413 C490 2.281 . S
C2415 C919 2.281 . S
C2431 C721 2.281 . S
C2433 C1084 2.281 . S
C2449 C754 2.281 . S
C2451 C1018 2.281 . S
C2467 C1051 2.281 . S
C2469 C787 2.281 . S
C2485 N971 0.787 . S
C2487 N14 0.787 . S
C2503 N905 0.787 . S
C2505 N47 0.787 . S
C2521 N938 0.787 . S
C2523 N80 0.787 . S
C2539 N113 0.787 . S
C2541 N443 0.787 . S
C2557 N146 0.787 . S
C2559 N476 0.787 . S
C2575 N410 0.787 . S
C2577 N179 0.787 . S
C2593 N212 0.787 . S
C2595 N773 0.787 . S
C2611 N707 0.787 . S
C2613 N245 0.787 . S
C2629 N278 0.787 . S
C2631 N740 0.787 . S
C2647 N311 0.787 . S
C2649 N1037 0.787 . S
C2665 N1070 0.787 . S
C2667 N344 0.787 . S
C2683 N377 0.787 . S
C2685 N1004 0.787 . S
C2701 N839 0.787 . S
C2703 N509 0.787 . S
C2719 N542 0.787 . S
C2721 N872 0.787 . S
C2737 N575 0.787 . S
C2739 N806 0.787 . S
C2755 N608 0.787 . S
C2757 N1169 0.787 . S
C2773 N1103 0.787 . S
C2775 N641 0.787 . S
C2791 N1136 0.787 . S
C2793 N674 0.787 . S
