# Generated by pormake.
# Topology smn, (6)-cn, num edge types: 1
# Building blocks:
#     Node 0, Type 0, BuildingBlock: MIDCAF_clean_sbu_0, # of connection points: 6
#     Node 1, Type 0, BuildingBlock: MIDCAF_clean_sbu_0, # of connection points: 6
#     Node 2, Type 0, BuildingBlock: MIDCAF_clean_sbu_0, # of connection points: 6
#     Node 3, Type 0, BuildingBlock: MIDCAF_clean_sbu_0, # of connection points: 6
#     Node 4, Type 0, BuildingBlock: MIDCAF_clean_sbu_0, # of connection points: 6
#     Node 5, Type 0, BuildingBlock: MIDCAF_clean_sbu_0, # of connection points: 6
#     Node 6, Type 0, BuildingBlock: MIDCAF_clean_sbu_0, # of connection points: 6
#     Node 7, Type 0, BuildingBlock: MIDCAF_clean_sbu_0, # of connection points: 6
#     Node 8, Type 0, BuildingBlock: MIDCAF_clean_sbu_0, # of connection points: 6
#     Node 9, Type 0, BuildingBlock: MIDCAF_clean_sbu_0, # of connection points: 6
#     Node 10, Type 0, BuildingBlock: MIDCAF_clean_sbu_0, # of connection points: 6
#     Node 11, Type 0, BuildingBlock: MIDCAF_clean_sbu_0, # of connection points: 6
#     Node 12, Type 0, BuildingBlock: MIDCAF_clean_sbu_0, # of connection points: 6
#     Node 13, Type 0, BuildingBlock: MIDCAF_clean_sbu_0, # of connection points: 6
#     Node 14, Type 0, BuildingBlock: MIDCAF_clean_sbu_0, # of connection points: 6
#     Node 15, Type 0, BuildingBlock: MIDCAF_clean_sbu_0, # of connection points: 6
#     Node 16, Type 0, BuildingBlock: MIDCAF_clean_sbu_0, # of connection points: 6
#     Node 17, Type 0, BuildingBlock: MIDCAF_clean_sbu_0, # of connection points: 6
#     Edge 18, Type (0, 0), BuildingBlock: KIFKEQ_clean_linker_1, # of connection points: 2
#     Edge 19, Type (0, 0), BuildingBlock: KIFKEQ_clean_linker_1, # of connection points: 2
#     Edge 20, Type (0, 0), BuildingBlock: KIFKEQ_clean_linker_1, # of connection points: 2
#     Edge 21, Type (0, 0), BuildingBlock: KIFKEQ_clean_linker_1, # of connection points: 2
#     Edge 22, Type (0, 0), BuildingBlock: KIFKEQ_clean_linker_1, # of connection points: 2
#     Edge 23, Type (0, 0), BuildingBlock: KIFKEQ_clean_linker_1, # of connection points: 2
#     Edge 24, Type (0, 0), BuildingBlock: KIFKEQ_clean_linker_1, # of connection points: 2
#     Edge 25, Type (0, 0), BuildingBlock: KIFKEQ_clean_linker_1, # of connection points: 2
#     Edge 26, Type (0, 0), BuildingBlock: KIFKEQ_clean_linker_1, # of connection points: 2
#     Edge 27, Type (0, 0), BuildingBlock: KIFKEQ_clean_linker_1, # of connection points: 2
#     Edge 28, Type (0, 0), BuildingBlock: KIFKEQ_clean_linker_1, # of connection points: 2
#     Edge 29, Type (0, 0), BuildingBlock: KIFKEQ_clean_linker_1, # of connection points: 2
#     Edge 30, Type (0, 0), BuildingBlock: KIFKEQ_clean_linker_1, # of connection points: 2
#     Edge 31, Type (0, 0), BuildingBlock: KIFKEQ_clean_linker_1, # of connection points: 2
#     Edge 32, Type (0, 0), BuildingBlock: KIFKEQ_clean_linker_1, # of connection points: 2
#     Edge 33, Type (0, 0), BuildingBlock: KIFKEQ_clean_linker_1, # of connection points: 2
#     Edge 34, Type (0, 0), BuildingBlock: KIFKEQ_clean_linker_1, # of connection points: 2
#     Edge 35, Type (0, 0), BuildingBlock: KIFKEQ_clean_linker_1, # of connection points: 2
#     Edge 36, Type (0, 0), BuildingBlock: KIFKEQ_clean_linker_1, # of connection points: 2
#     Edge 37, Type (0, 0), BuildingBlock: KIFKEQ_clean_linker_1, # of connection points: 2
#     Edge 38, Type (0, 0), BuildingBlock: KIFKEQ_clean_linker_1, # of connection points: 2
#     Edge 39, Type (0, 0), BuildingBlock: KIFKEQ_clean_linker_1, # of connection points: 2
#     Edge 40, Type (0, 0), BuildingBlock: KIFKEQ_clean_linker_1, # of connection points: 2
#     Edge 41, Type (0, 0), BuildingBlock: KIFKEQ_clean_linker_1, # of connection points: 2
#     Edge 42, Type (0, 0), BuildingBlock: KIFKEQ_clean_linker_1, # of connection points: 2
#     Edge 43, Type (0, 0), BuildingBlock: KIFKEQ_clean_linker_1, # of connection points: 2
#     Edge 44, Type (0, 0), BuildingBlock: KIFKEQ_clean_linker_1, # of connection points: 2
#     Edge 45, Type (0, 0), BuildingBlock: KIFKEQ_clean_linker_1, # of connection points: 2
#     Edge 46, Type (0, 0), BuildingBlock: KIFKEQ_clean_linker_1, # of connection points: 2
#     Edge 47, Type (0, 0), BuildingBlock: KIFKEQ_clean_linker_1, # of connection points: 2
#     Edge 48, Type (0, 0), BuildingBlock: KIFKEQ_clean_linker_1, # of connection points: 2
#     Edge 49, Type (0, 0), BuildingBlock: KIFKEQ_clean_linker_1, # of connection points: 2
#     Edge 50, Type (0, 0), BuildingBlock: KIFKEQ_clean_linker_1, # of connection points: 2
#     Edge 51, Type (0, 0), BuildingBlock: KIFKEQ_clean_linker_1, # of connection points: 2
#     Edge 52, Type (0, 0), BuildingBlock: KIFKEQ_clean_linker_1, # of connection points: 2
#     Edge 53, Type (0, 0), BuildingBlock: KIFKEQ_clean_linker_1, # of connection points: 2
#     Edge 54, Type (0, 0), BuildingBlock: KIFKEQ_clean_linker_1, # of connection points: 2
#     Edge 55, Type (0, 0), BuildingBlock: KIFKEQ_clean_linker_1, # of connection points: 2
#     Edge 56, Type (0, 0), BuildingBlock: KIFKEQ_clean_linker_1, # of connection points: 2
#     Edge 57, Type (0, 0), BuildingBlock: KIFKEQ_clean_linker_1, # of connection points: 2
#     Edge 58, Type (0, 0), BuildingBlock: KIFKEQ_clean_linker_1, # of connection points: 2
#     Edge 59, Type (0, 0), BuildingBlock: KIFKEQ_clean_linker_1, # of connection points: 2
#     Edge 60, Type (0, 0), BuildingBlock: KIFKEQ_clean_linker_1, # of connection points: 2
#     Edge 61, Type (0, 0), BuildingBlock: KIFKEQ_clean_linker_1, # of connection points: 2
#     Edge 62, Type (0, 0), BuildingBlock: KIFKEQ_clean_linker_1, # of connection points: 2
#     Edge 63, Type (0, 0), BuildingBlock: KIFKEQ_clean_linker_1, # of connection points: 2
#     Edge 64, Type (0, 0), BuildingBlock: KIFKEQ_clean_linker_1, # of connection points: 2
#     Edge 65, Type (0, 0), BuildingBlock: KIFKEQ_clean_linker_1, # of connection points: 2
#     Edge 66, Type (0, 0), BuildingBlock: KIFKEQ_clean_linker_1, # of connection points: 2
#     Edge 67, Type (0, 0), BuildingBlock: KIFKEQ_clean_linker_1, # of connection points: 2
#     Edge 68, Type (0, 0), BuildingBlock: KIFKEQ_clean_linker_1, # of connection points: 2
#     Edge 69, Type (0, 0), BuildingBlock: KIFKEQ_clean_linker_1, # of connection points: 2
#     Edge 70, Type (0, 0), BuildingBlock: KIFKEQ_clean_linker_1, # of connection points: 2
#     Edge 71, Type (0, 0), BuildingBlock: KIFKEQ_clean_linker_1, # of connection points: 2
# Relax obj value: 0.197
# Max RMSD: 0.218
# Mean RMSD: 0.216
data_MOF--net-smn--node1-MIDCAF_clean_sbu_0--edge1-KIFKEQ_clean_linker_1
_symmetry_space_group_name_H-M    P1
_symmetry_Int_Tables_number       1
_symmetry_cell_setting            triclinic
loop_
_symmetry_equiv_pos_as_xyz
'x, y, z'
_cell_length_a     60.821629
_cell_length_b     60.645555
_cell_length_c     19.703281
_cell_angle_alpha  89.842616
_cell_angle_beta   90.123925
_cell_angle_gamma 120.00803
loop_
_atom_site_label
_atom_site_type_symbol
_atom_site_fract_x
_atom_site_fract_y
_atom_site_fract_z
_atom_type_partial_charge
Zn0 Zn 0.92798 0.17301 0.74872 0.0
Zn1 Zn 0.05412 0.24033 0.7448 0.0
Zn2 Zn 0.00663 0.20743 0.74809 0.0
C3 C 0.04258 0.20387 0.63955 0.0
C4 C 0.04354 0.21675 0.87291 0.0
O5 O 0.98162 0.22548 0.75776 0.0
O6 O 0.93917 0.21079 0.75593 0.0
C7 C 0.97014 0.17035 0.66036 0.0
O8 O 0.0198 0.1958 0.6599 0.0
O9 O 0.06119 0.22211 0.6695 0.0
O10 O 0.06061 0.23573 0.84123 0.0
O11 O 0.02197 0.20224 0.84456 0.0
O12 O 0.95971 0.17522 0.709 0.0
O13 O -0.00579 0.18118 0.66348 0.0
O14 O -0.00431 0.18507 0.83982 0.0
O15 O 0.96059 0.17626 0.79023 0.0
C16 C 0.97154 0.17353 0.84176 0.0
O17 O 0.0087 0.24336 0.72777 0.0
O18 O 0.04994 0.26991 0.72097 0.0
C19 C 0.96223 0.22905 0.76088 0.0
C20 C 0.02746 0.26572 0.71658 0.0
Zn21 Zn 0.82948 0.78412 0.75195 0.0
Zn22 Zn 0.78057 0.83556 0.74686 0.0
Zn23 Zn 0.80543 0.81124 0.75061 0.0
C24 C 0.81602 0.85488 0.64272 0.0
C25 C 0.80063 0.84305 0.87518 0.0
O26 O 0.77706 0.77076 0.76217 0.0
O27 O 0.79846 0.75013 0.76736 0.0
C28 C 0.84339 0.81223 0.63292 0.0
O29 O 0.81763 0.83519 0.65905 0.0
O30 O 0.80324 0.86158 0.67881 0.0
O31 O 0.78326 0.84435 0.84357 0.0
O32 O 0.81293 0.83348 0.84616 0.0
O33 O 0.84525 0.79456 0.66133 0.0
O34 O 0.83013 0.82109 0.65982 0.0
O35 O 0.82793 0.82215 0.84416 0.0
O36 O 0.85049 0.80285 0.83251 0.0
C37 C 0.84524 0.81752 0.86519 0.0
O38 O 0.76534 0.78324 0.73296 0.0
O39 O 0.74773 0.80693 0.71443 0.0
C40 C 0.77766 0.75002 0.77096 0.0
C41 C 0.74609 0.78534 0.71541 0.0
Zn42 Zn 0.23147 0.05781 0.75788 0.0
Zn43 Zn 0.18476 0.96094 0.73383 0.0
Zn44 Zn 0.20526 0.0092 0.74784 0.0
C45 C 0.16467 0.97801 0.63271 0.0
C46 C 0.1723 0.96897 0.8629 0.0
O47 O 0.24514 0.02072 0.76813 0.0
O48 O 0.26348 0.06142 0.79584 0.0
C49 C 0.21222 0.04818 0.62845 0.0
O50 O 0.182 -0.0002 0.65478 0.0
O51 O 0.16047 0.95775 0.66207 0.0
O52 O 0.17326 0.95209 0.82789 0.0
O53 O 0.18126 0.99167 0.83904 0.0
O54 O 0.23066 0.06547 0.66093 0.0
O55 O 0.19825 0.02614 0.65594 0.0
O56 O 0.19226 0.0184 0.84134 0.0
O57 O 0.20697 0.05939 0.82279 0.0
C58 C 0.19371 0.03958 0.85777 0.0
O59 O 0.23472 -0.00112 0.72983 0.0
O60 O 0.21403 0.95778 0.70553 0.0
C61 C 0.26432 0.04111 0.79129 0.0
C62 C 0.2346 0.97856 0.71061 0.0
Zn63 Zn -0.00415 0.80153 0.37374 0.0
Zn64 Zn -0.00109 0.80787 0.11704 0.0
Zn65 Zn 0.00319 0.81012 0.24827 0.0
C66 C 0.04202 0.85549 0.16134 0.0
C67 C 0.95698 0.80767 0.15344 0.0
O68 O 0.00099 0.77301 0.27728 0.0
O69 O 0.00203 0.77325 0.38933 0.0
C70 C 0.03748 0.85138 0.35744 0.0
O71 O 0.03731 0.84534 0.22078 0.0
O72 O 0.02768 0.84385 0.11168 0.0
O73 O 0.96452 0.80207 0.10019 0.0
O74 O 0.96954 0.81188 0.20927 0.0
O75 O 0.02248 0.83565 0.4005 0.0
O76 O 0.03508 0.84511 0.29426 0.0
O77 O 0.96858 0.81053 0.28036 0.0
O78 O 0.96066 0.79518 0.38475 0.0
C79 C 0.95458 0.80361 0.33385 0.0
O80 O 0.00819 0.77819 0.20749 0.0
O81 O 0.00582 0.78023 0.09586 0.0
C82 C 0.00141 0.76252 0.33414 0.0
C83 C 0.00944 0.77017 0.14762 0.0
Zn84 Zn 0.20642 0.20763 0.35911 0.0
Zn85 Zn 0.20997 0.20681 0.11062 0.0
Zn86 Zn 0.20496 0.20619 0.24143 0.0
C87 C 0.16092 0.19985 0.14889 0.0
C88 C 0.2115 0.16496 0.14781 0.0
O89 O 0.24128 0.23998 0.2773 0.0
O90 O 0.24172 0.22934 0.38431 0.0
C91 C 0.16635 0.21106 0.34092 0.0
O92 O 0.17005 0.20422 0.20927 0.0
O93 O 0.17368 0.19867 0.09977 0.0
O94 O 0.21728 0.17886 0.0957 0.0
O95 O 0.20593 0.17206 0.20362 0.0
O96 O 0.18554 0.22277 0.37841 0.0
O97 O 0.16883 0.20223 0.28383 0.0
O98 O 0.20394 0.171 0.27431 0.0
O99 O 0.19049 0.17056 0.37812 0.0
C100 C 0.19484 0.1593 0.33082 0.0
O101 O 0.23684 0.24462 0.20969 0.0
O102 O 0.23753 0.24247 0.09764 0.0
C103 C 0.25263 0.24413 0.33521 0.0
C104 C 0.24589 0.25521 0.15154 0.0
Zn105 Zn 0.79856 0.00067 0.36905 0.0
Zn106 Zn 0.81042 0.01015 0.1208 0.0
Zn107 Zn 0.80623 0.00873 0.24441 0.0
C108 C 0.82009 0.97273 0.15712 0.0
C109 C 0.84617 0.05757 0.15876 0.0
O110 O 0.77191 0.01157 0.27117 0.0
O111 O 0.77279 0.01052 0.38337 0.0
C112 C 0.7985 0.95929 0.33485 0.0
O113 O 0.81067 0.97621 0.21183 0.0
O114 O 0.82487 0.98758 0.10741 0.0
O115 O 0.83323 0.0465 0.10693 0.0
O116 O 0.84067 0.0459 0.21638 0.0
O117 O 0.78836 0.96472 0.38274 0.0
O118 O 0.80706 0.97404 0.28243 0.0
O119 O 0.83946 0.04188 0.28674 0.0
O120 O 0.83476 0.02626 0.39055 0.0
C121 C 0.84797 0.04315 0.34724 0.0
O122 O 0.76998 0.00445 0.20187 0.0
O123 O 0.775 -0.00232 0.09453 0.0
C124 C 0.76334 0.01345 0.32951 0.0
C125 C 0.76128 -0.00114 0.14066 0.0
Zn126 Zn 0.62392 0.51556 0.08067 0.0
Zn127 Zn 0.72095 0.57116 0.08173 0.0
Zn128 Zn 0.67175 0.54212 0.08163 0.0
C129 C 0.7072 0.53406 0.97959 0.0
C130 C 0.70846 0.54929 0.20908 0.0
O131 O 0.65741 0.5685 0.09066 0.0
O132 O 0.61699 0.54225 0.11368 0.0
C133 C 0.63763 0.50847 0.95602 0.0
O134 O 0.68494 0.53002 0.99439 0.0
O135 O 0.72628 0.54953 0.01402 0.0
O136 O 0.72648 0.56798 0.17906 0.0
O137 O 0.68699 0.5359 0.17866 0.0
O138 O 0.61845 0.50731 0.98387 0.0
O139 O 0.65892 0.5182 0.98816 0.0
O140 O 0.66029 0.51974 0.17569 0.0
O141 O 0.62153 0.48972 0.14782 0.0
C142 C 0.63994 0.49862 0.18895 0.0
O143 O 0.68096 0.58163 0.06072 0.0
O144 O 0.72273 0.60313 0.04942 0.0
C145 C 0.63554 0.56466 0.10938 0.0
C146 C 0.70161 0.6023 0.04592 0.0
Zn147 Zn 0.50228 0.10038 0.08994 0.0
Zn148 Zn 0.4389 0.16291 0.08131 0.0
Zn149 Zn 0.46892 0.14544 0.08185 0.0
C150 C 0.47359 0.18515 0.97205 0.0
C151 C 0.46245 0.17618 0.20595 0.0
O152 O 0.44927 0.10192 0.09526 0.0
O153 O 0.46471 0.07457 0.09746 0.0
C154 C 0.50459 0.14341 0.99535 0.0
O155 O 0.47958 0.16844 0.98964 0.0
O156 O 0.45773 0.18814 0.00642 0.0
O157 O 0.44329 0.17459 0.17639 0.0
O158 O 0.47586 0.16802 0.17638 0.0
O159 O 0.49936 0.12926 0.04706 0.0
O160 O 0.49426 0.15718 0.99388 0.0
O161 O 0.49179 0.15797 0.17239 0.0
O162 O 0.49919 0.13047 0.12463 0.0
C163 C 0.50227 0.14437 0.17564 0.0
O164 O 0.43239 0.11216 0.06921 0.0
O165 O 0.40831 0.12967 0.05918 0.0
C166 C 0.44626 0.0791 0.10045 0.0
C167 C 0.4107 0.11015 0.05845 0.0
Zn168 Zn 0.89969 0.38933 0.0731 0.0
Zn169 Zn 0.85462 0.28989 0.06455 0.0
Zn170 Zn 0.87222 0.33852 0.07636 0.0
C171 C 0.83348 0.30537 0.96064 0.0
C172 C 0.8378 0.29745 0.19054 0.0
O173 O 0.91317 0.3531 0.08751 0.0
O174 O 0.93462 0.39518 0.08678 0.0
C175 C 0.86999 0.37581 0.95907 0.0
O176 O 0.84803 0.32739 0.98659 0.0
O177 O 0.83224 0.28564 0.98597 0.0
O178 O 0.839 0.28096 0.15432 0.0
O179 O 0.84856 0.3208 0.16999 0.0
O180 O 0.88879 0.39523 0.98402 0.0
O181 O 0.86095 0.35386 0.98798 0.0
O182 O 0.86073 0.3481 0.17109 0.0
O183 O 0.88065 0.38993 0.15495 0.0
C184 C 0.86594 0.3705 0.18963 0.0
O185 O 0.90232 0.32898 0.05502 0.0
O186 O 0.88519 0.28725 0.04797 0.0
C187 C 0.93424 0.37429 0.0934 0.0
C188 C 0.90444 0.30919 0.04425 0.0
Zn189 Zn 0.67613 0.14284 0.75408 0.0
Zn190 Zn 0.67011 0.14266 0.45514 0.0
Zn191 Zn 0.66676 0.14211 0.58353 0.0
C192 C 0.70784 0.19026 0.49808 0.0
C193 C 0.62238 0.13404 0.47707 0.0
O194 O 0.66576 0.10726 0.62988 0.0
O195 O 0.67699 0.11119 0.73952 0.0
C196 C 0.70988 0.18873 0.68393 0.0
O197 O 0.70053 0.1789 0.55576 0.0
O198 O 0.6965 0.179 0.44439 0.0
O199 O 0.63548 0.13291 0.4292 0.0
O200 O 0.63116 0.13857 0.53822 0.0
O201 O 0.70578 0.17663 0.73929 0.0
O202 O 0.69736 0.17835 0.62884 0.0
O203 O 0.63088 0.14024 0.60784 0.0
O204 O 0.64826 0.14199 0.70428 0.0
C205 C 0.63025 0.14145 0.67224 0.0
O206 O 0.67293 0.11025 0.55695 0.0
O207 O 0.67949 0.11609 0.44639 0.0
C208 C 0.66974 0.09817 0.68546 0.0
C209 C 0.6783 0.10397 0.49964 0.0
Zn210 Zn 0.86986 0.5376 0.70681 0.0
Zn211 Zn 0.86496 0.53647 0.45538 0.0
Zn212 Zn 0.8677 0.53701 0.57662 0.0
C213 C 0.81795 0.52561 0.49468 0.0
C214 C 0.87422 0.49909 0.47426 0.0
O215 O 0.90563 0.57027 0.60911 0.0
O216 O 0.90458 0.56574 0.72083 0.0
C217 C 0.82773 0.54047 0.67954 0.0
O218 O 0.83121 0.53526 0.54896 0.0
O219 O 0.82767 0.52036 0.44532 0.0
O220 O 0.8798 0.51548 0.42809 0.0
O221 O 0.86734 0.5028 0.53301 0.0
O222 O 0.84215 0.54396 0.7293 0.0
O223 O 0.83376 0.53674 0.61975 0.0
O224 O 0.86572 0.5009 0.60338 0.0
O225 O 0.86245 0.50175 0.71504 0.0
C226 C 0.8624 0.4902 0.66178 0.0
O227 O 0.90031 0.57392 0.54117 0.0
O228 O 0.88482 0.57339 0.43946 0.0
C229 C 0.91631 0.57746 0.66803 0.0
C230 C 0.90105 0.58525 0.48502 0.0
Zn231 Zn 0.47589 0.34003 0.71077 0.0
Zn232 Zn 0.47802 0.35218 0.45954 0.0
Zn233 Zn 0.47652 0.34652 0.58688 0.0
C234 C 0.48608 0.31176 0.48475 0.0
C235 C 0.517 0.39595 0.49826 0.0
O236 O 0.44366 0.34984 0.62954 0.0
O237 O 0.45256 0.35171 0.73869 0.0
C238 C 0.46989 0.29654 0.66671 0.0
O239 O 0.47805 0.31412 0.54316 0.0
O240 O 0.49067 0.32811 0.43892 0.0
O241 O 0.50205 0.38891 0.44829 0.0
O242 O 0.51112 0.38189 0.55188 0.0
O243 O 0.46369 0.30339 0.72015 0.0
O244 O 0.47673 0.31097 0.61383 0.0
O245 O 0.51237 0.37854 0.62235 0.0
O246 O 0.51307 0.36345 0.72382 0.0
C247 C 0.52418 0.37985 0.67778 0.0
O248 O 0.43944 0.34278 0.55996 0.0
O249 O 0.44141 0.3392 0.44866 0.0
C250 C 0.43919 0.35313 0.69179 0.0
C251 C 0.42892 0.33799 0.50088 0.0
Zn252 Zn 0.28977 0.85117 0.42384 0.0
Zn253 Zn 0.3879 0.90592 0.40447 0.0
Zn254 Zn 0.33783 0.87523 0.4125 0.0
C255 C 0.3698 0.87033 0.29446 0.0
C256 C 0.37798 0.8777 0.5242 0.0
O257 O 0.32602 0.90294 0.42724 0.0
O258 O 0.28643 0.87964 0.46253 0.0
C259 C 0.29929 0.84287 0.29345 0.0
O260 O 0.34794 0.86182 0.32224 0.0
O261 O 0.3894 0.88897 0.31954 0.0
O262 O 0.39622 0.89502 0.49105 0.0
O263 O 0.35501 0.86806 0.50271 0.0
O264 O 0.28187 0.84326 0.32707 0.0
O265 O 0.32136 0.85111 0.3205 0.0
O266 O 0.32824 0.85345 0.50827 0.0
O267 O 0.28822 0.8248 0.4878 0.0
C268 C 0.30775 0.83292 0.52468 0.0
O269 O 0.34899 0.91572 0.39175 0.0
O270 O 0.39083 0.93988 0.3938 0.0
C271 C 0.30583 0.90115 0.45276 0.0
C272 C 0.36926 0.93763 0.38451 0.0
Zn273 Zn 0.15219 0.43891 0.43996 0.0
Zn274 Zn 0.10808 0.49165 0.39658 0.0
Zn275 Zn 0.13624 0.47008 0.41152 0.0
C276 C 0.14277 0.50371 0.28355 0.0
C277 C 0.13661 0.51351 0.51073 0.0
O278 O 0.106 0.42959 0.43088 0.0
O279 O 0.12237 0.40439 0.4384 0.0
C280 C 0.1774 0.46585 0.32108 0.0
O281 O 0.15054 0.49007 0.31413 0.0
O282 O 0.12542 0.50679 0.30888 0.0
O283 O 0.11938 0.51408 0.47639 0.0
O284 O 0.14497 0.49849 0.49399 0.0
O285 O 0.17608 0.4497 0.36388 0.0
O286 O 0.16343 0.47612 0.3284 0.0
O287 O 0.15648 0.48399 0.50785 0.0
O288 O 0.16516 0.45347 0.53123 0.0
C289 C 0.1656 0.47378 0.54783 0.0
O290 O 0.09595 0.44303 0.39237 0.0
O291 O 0.07311 0.46213 0.3904 0.0
C292 C 0.10323 0.40725 0.43973 0.0
C293 C 0.07453 0.44218 0.38429 0.0
Zn294 Zn 0.56913 0.72596 0.39514 0.0
Zn295 Zn 0.51824 0.6274 0.42874 0.0
Zn296 Zn 0.53932 0.67539 0.41008 0.0
C297 C 0.49382 0.63709 0.31946 0.0
C298 C 0.51168 0.64612 0.54752 0.0
O299 O 0.57973 0.68732 0.42334 0.0
O300 O 0.60282 0.72925 0.41535 0.0
C301 C 0.53837 0.70724 0.27969 0.0
O302 O 0.51321 0.65962 0.32375 0.0
O303 O 0.49028 0.62041 0.36344 0.0
O304 O 0.51239 0.62686 0.52672 0.0
O305 O 0.51843 0.66543 0.5081 0.0
O306 O 0.55799 0.72679 0.30121 0.0
O307 O 0.52794 0.68644 0.31444 0.0
O308 O 0.52983 0.69143 0.49563 0.0
O309 O 0.55106 0.73257 0.47051 0.0
C310 C 0.53576 0.71449 0.50826 0.0
O311 O 0.56697 0.66236 0.39891 0.0
O312 O 0.54503 0.62035 0.39986 0.0
C313 C 0.60127 0.70808 0.42767 0.0
C314 C 0.56586 0.64072 0.3922 0.0
Zn315 Zn 0.33306 0.48416 0.10411 0.0
Zn316 Zn 0.33788 0.47518 0.76778 0.0
Zn317 Zn 0.33886 0.48163 0.89157 0.0
C318 C 0.38271 0.52092 0.7959 0.0
C319 C 0.29877 0.48342 0.78296 0.0
O320 O 0.33213 0.44852 0.9612 0.0
O321 O 0.32806 0.44919 0.07675 0.0
C322 C 0.37128 0.51976 0.98852 0.0
O323 O 0.37442 0.51475 0.85698 0.0
O324 O 0.37081 0.50614 0.74737 0.0
O325 O 0.30887 0.47797 0.73495 0.0
O326 O 0.30662 0.48432 0.84428 0.0
O327 O 0.35256 0.50169 0.01839 0.0
O328 O 0.37253 0.51698 0.92492 0.0
O329 O 0.30552 0.48445 0.91252 0.0
O330 O 0.32294 0.48796 0.00954 0.0
C331 C 0.30471 0.48688 0.97629 0.0
O332 O 0.34014 0.44584 0.88329 0.0
O333 O 0.33599 0.44188 0.77201 0.0
C334 C 0.32845 0.4382 0.02141 0.0
C335 C 0.33873 0.43365 0.8285 0.0
Zn336 Zn 0.54232 0.86838 0.03791 0.0
Zn337 Zn 0.52809 0.87391 0.79393 0.0
Zn338 Zn 0.53343 0.8707 0.91528 0.0
C339 C 0.48995 0.87874 0.84802 0.0
C340 C 0.51905 0.8256 0.81071 0.0
O341 O 0.5708 0.90491 0.94446 0.0
O342 O 0.56973 0.903 0.05642 0.0
C343 C 0.49291 0.8596 0.03159 0.0
O344 O 0.49711 0.87067 0.89943 0.0
O345 O 0.50324 0.88571 0.79496 0.0
O346 O 0.51409 0.83785 0.76748 0.0
O347 O 0.52917 0.83593 0.86786 0.0
O348 O 0.50829 0.85836 0.07226 0.0
O349 O 0.49948 0.86613 0.96931 0.0
O350 O 0.53449 0.83508 0.93576 0.0
O351 O 0.55091 0.84084 0.03854 0.0
C352 C 0.54258 0.82739 0.98587 0.0
O353 O 0.5658 0.90753 0.8732 0.0
O354 O 0.56213 0.89954 0.76342 0.0
C355 C 0.58087 0.9144 0.00272 0.0
C356 C 0.57392 0.91442 0.81176 0.0
Zn357 Zn 0.14698 0.67582 0.04353 0.0
Zn358 Zn 0.14192 0.67976 0.79223 0.0
Zn359 Zn 0.14333 0.67501 0.91917 0.0
C360 C 0.15241 0.63984 0.824 0.0
C361 C 0.18236 0.7233 0.82092 0.0
O362 O 0.11065 0.67846 0.95938 0.0
O363 O 0.12229 0.6865 0.06677 0.0
C364 C 0.14051 0.62969 0.0147 0.0
O365 O 0.14556 0.64207 0.88407 0.0
O366 O 0.15419 0.65503 0.77745 0.0
O367 O 0.16656 0.71581 0.77287 0.0
O368 O 0.17711 0.70997 0.87593 0.0
O369 O 0.13732 0.6407 0.06469 0.0
O370 O 0.14456 0.64009 0.95533 0.0
O371 O 0.17925 0.70961 0.94642 0.0
O372 O 0.18362 0.70099 0.0527 0.0
C373 C 0.19264 0.71491 0.00092 0.0
O374 O 0.10482 0.66946 0.8913 0.0
O375 O 0.10565 0.66782 0.77918 0.0
C376 C 0.10733 0.68456 0.01973 0.0
C377 C 0.09364 0.66571 0.83309 0.0
H378 H 0.05255 0.16525 0.6411 0.0
H379 H 0.04444 0.21725 0.50796 0.0
H380 H 0.07417 0.15583 0.55081 0.0
H381 H 0.06633 0.20811 0.41767 0.0
H382 H 0.11814 0.18757 0.28209 0.0
H383 H 0.07768 0.175 0.34068 0.0
H384 H 0.11813 0.19973 0.53075 0.0
H385 H 0.15766 0.21397 0.47344 0.0
C386 C 0.05434 0.17367 0.59137 0.0
C387 C 0.04739 0.1922 0.58102 0.0
C388 C 0.06644 0.16813 0.53964 0.0
C389 C 0.07209 0.1815 0.47776 0.0
C390 C 0.06199 0.19744 0.46468 0.0
C391 C 0.0498 0.2029 0.51645 0.0
C392 C 0.11832 0.191 0.3358 0.0
C393 C 0.14133 0.20305 0.37206 0.0
C394 C 0.0952 0.18322 0.36948 0.0
C395 C 0.09491 0.18609 0.4402 0.0
C396 C 0.11775 0.19694 0.47634 0.0
C397 C 0.14056 0.20555 0.44286 0.0
H398 H 0.8435 0.96083 0.31717 0.0
H399 H 0.76608 0.91183 0.3812 0.0
H400 H 0.85574 0.93197 0.37103 0.0
H401 H 0.778 0.88257 0.43211 0.0
H402 H 0.80252 0.83254 0.5196 0.0
H403 H 0.80255 0.8544 0.41472 0.0
H404 H 0.84875 0.92692 0.51254 0.0
H405 H 0.84763 0.90507 0.61796 0.0
C406 C 0.82891 0.94323 0.33966 0.0
C407 C 0.80389 0.93847 0.34554 0.0
C408 C 0.83592 0.9268 0.37035 0.0
C409 C 0.81778 0.90508 0.40536 0.0
C410 C 0.79225 0.89899 0.40451 0.0
C411 C 0.78543 0.91574 0.37568 0.0
C412 C 0.81374 0.85313 0.51741 0.0
C413 C 0.82495 0.86725 0.57647 0.0
C414 C 0.81371 0.86559 0.45756 0.0
C415 C 0.82557 0.89227 0.45588 0.0
C416 C 0.83969 0.90633 0.51241 0.0
C417 C 0.83903 0.89388 0.57273 0.0
H418 H 0.12047 0.97833 0.6217 0.0
H419 H 0.17566 0.96938 0.50681 0.0
H420 H 0.08848 0.95485 0.53484 0.0
H421 H 0.14366 0.94515 0.42096 0.0
H422 H 0.07644 0.89219 0.28872 0.0
H423 H 0.10837 0.93327 0.33678 0.0
H424 H 0.07213 0.90905 0.53257 0.0
H425 H 0.04118 0.86892 0.48549 0.0
C426 C 0.12605 0.97251 0.57599 0.0
C427 C 0.15031 0.97542 0.57065 0.0
C428 C 0.10774 0.95885 0.52656 0.0
C429 C 0.11336 0.94741 0.47225 0.0
C430 C 0.13867 0.95359 0.46219 0.0
C431 C 0.15703 0.96748 0.51135 0.0
C432 C 0.07542 0.8958 0.34162 0.0
C433 C 0.05655 0.87698 0.38293 0.0
C434 C 0.0935 0.91936 0.36917 0.0
C435 C 0.09259 0.92463 0.43835 0.0
C436 C 0.07313 0.90607 0.47874 0.0
C437 C 0.05549 0.8827 0.45162 0.0
H438 H 0.16094 0.05663 0.88141 0.0
H439 H 0.20838 0.03229 0.98106 0.0
H440 H 0.16077 0.07891 0.9843 0.0
H441 H 0.20934 0.05576 0.08317 0.0
H442 H 0.24403 0.15111 0.09609 0.0
H443 H 0.23247 0.10908 0.05185 0.0
H444 H 0.15658 0.07889 0.13035 0.0
H445 H 0.16862 0.12085 0.17793 0.0
C446 C 0.17017 0.05494 0.92663 0.0
C447 C 0.18468 0.04288 0.92377 0.0
C448 C 0.1701 0.06766 0.98548 0.0
C449 C 0.18521 0.06913 0.04121 0.0
C450 C 0.19741 0.05467 0.04094 0.0
C451 C 0.19681 0.04124 0.98268 0.0
C452 C 0.22531 0.13518 0.10687 0.0
C453 C 0.20721 0.13903 0.14024 0.0
C454 C 0.2187 0.11114 0.08188 0.0
C455 C 0.19366 0.09084 0.08799 0.0
C456 C 0.17605 0.09421 0.12588 0.0
C457 C 0.18295 0.11814 0.15291 0.0
H458 H 0.89595 0.07317 0.18536 0.0
H459 H 0.84612 0.09755 0.10147 0.0
H460 H 0.93168 0.10722 0.12294 0.0
H461 H 0.88077 0.13046 0.03741 0.0
H462 H 0.94265 0.1871 0.91451 0.0
H463 H 0.91812 0.16669 0.01645 0.0
H464 H 0.94371 0.11172 0.00886 0.0
H465 H 0.96998 0.13388 0.91043 0.0
C466 C 0.89294 0.0866 0.15611 0.0
C467 C 0.86841 0.0829 0.14811 0.0
C468 C 0.91324 0.10576 0.11906 0.0
C469 C 0.90918 0.12135 0.0734 0.0
C470 C 0.88504 0.1192 0.07197 0.0
C471 C 0.86498 0.10028 0.10903 0.0
C472 C 0.94316 0.17082 0.93554 0.0
C473 C 0.95767 0.16165 0.90454 0.0
C474 C 0.92907 0.15902 0.9938 0.0
C475 C 0.92838 0.13713 0.02076 0.0
C476 C 0.94388 0.12866 0.99067 0.0
C477 C 0.95868 0.14107 0.93364 0.0
H478 H 0.82415 0.8025 0.98941 0.0
H479 H 0.89458 0.85201 0.88703 0.0
H480 H 0.84774 0.80464 0.09267 0.0
H481 H 0.91808 0.85501 0.99043 0.0
H482 H 0.95681 0.85163 0.17494 0.0
H483 H 0.92544 0.86184 0.1284 0.0
H484 H 0.87736 0.78298 0.07318 0.0
H485 H 0.90912 0.77319 0.11649 0.0
C486 C 0.84455 0.81501 0.99043 0.0
C487 C 0.85773 0.82698 0.93082 0.0
C488 C 0.858 0.81625 0.04933 0.0
C489 C 0.88467 0.82986 0.04919 0.0
C490 C 0.89752 0.8446 0.99209 0.0
C491 C 0.88413 0.84284 0.93286 0.0
C492 C 0.93899 0.83638 0.15551 0.0
C493 C 0.9352 0.81169 0.14871 0.0
C494 C 0.92112 0.84221 0.12905 0.0
C495 C 0.89903 0.82318 0.09748 0.0
C496 C 0.89405 0.79792 0.09818 0.0
C497 C 0.91222 0.79229 0.12262 0.0
H498 H 0.82365 0.80052 0.50596 0.0
H499 H 0.89342 0.84433 0.61695 0.0
H500 H 0.84799 0.80417 0.40311 0.0
H501 H 0.91773 0.84842 0.5148 0.0
H502 H 0.95896 0.85008 0.33452 0.0
H503 H 0.92874 0.86052 0.38665 0.0
H504 H 0.87401 0.78032 0.4035 0.0
H505 H 0.90459 0.77006 0.35405 0.0
C506 C 0.84416 0.81205 0.50722 0.0
C507 C 0.85682 0.82224 0.56868 0.0
C508 C 0.85805 0.81406 0.44866 0.0
C509 C 0.8847 0.82646 0.45113 0.0
C510 C 0.89723 0.83907 0.51105 0.0
C511 C 0.88337 0.83672 0.5696 0.0
C512 C 0.94003 0.8348 0.34668 0.0
C513 C 0.93395 0.8093 0.341 0.0
C514 C 0.92281 0.84076 0.37649 0.0
C515 C 0.89913 0.82123 0.39943 0.0
C516 C 0.89204 0.79577 0.38581 0.0
C517 C 0.90951 0.78983 0.35779 0.0
H518 H 0.24618 0.08242 0.54045 0.0
H519 H 0.16629 0.02835 0.56317 0.0
H520 H 0.23729 0.10036 0.44155 0.0
H521 H 0.15725 0.04573 0.46152 0.0
H522 H 0.15869 0.12298 0.41022 0.0
H523 H 0.15902 0.08633 0.45812 0.0
H524 H 0.22214 0.10068 0.32856 0.0
H525 H 0.22214 0.13811 0.28188 0.0
C526 C 0.22673 0.0738 0.52279 0.0
C527 C 0.20685 0.05428 0.56011 0.0
C528 C 0.22164 0.08386 0.46528 0.0
C529 C 0.19649 0.07468 0.44385 0.0
C530 C 0.17681 0.0534 0.47725 0.0
C531 C 0.18196 0.04329 0.53514 0.0
C532 C 0.17215 0.11785 0.39054 0.0
C533 C 0.19077 0.13362 0.34364 0.0
C534 C 0.17216 0.0966 0.41739 0.0
C535 C 0.19095 0.09083 0.39819 0.0
C536 C 0.20768 0.10491 0.34518 0.0
C537 C 0.20762 0.12624 0.31813 0.0
H538 H 0.88213 0.04038 0.42892 0.0
H539 H 0.86848 0.09378 0.31749 0.0
H540 H 0.91687 0.07552 0.49021 0.0
H541 H 0.90295 0.12909 0.38115 0.0
H542 H 0.98851 0.15782 0.54913 0.0
H543 H 0.96396 0.13036 0.45404 0.0
H544 H 0.89509 0.1212 0.54229 0.0
H545 H 0.91922 0.14807 0.63785 0.0
C546 C 0.88712 0.05973 0.41616 0.0
C547 C 0.87255 0.06448 0.36925 0.0
C548 C 0.907 0.07976 0.45097 0.0
C549 C 0.91233 0.10478 0.44024 0.0
C550 C 0.89913 0.10983 0.38964 0.0
C551 C 0.87952 0.08973 0.3534 0.0
C552 C 0.96815 0.1501 0.54798 0.0
C553 C 0.95572 0.1549 0.60127 0.0
C554 C 0.95425 0.13463 0.49339 0.0
C555 C 0.92785 0.1242 0.49084 0.0
C556 C 0.91555 0.12957 0.54285 0.0
C557 C 0.92933 0.14472 0.59772 0.0
H558 H 0.85691 0.97112 0.08454 0.0
H559 H 0.79156 0.92477 0.20962 0.0
H560 H 0.85653 0.93333 0.04384 0.0
H561 H 0.79208 0.88669 0.17261 0.0
H562 H 0.76746 0.84159 0.96762 0.0
H563 H 0.7771 0.86848 0.06591 0.0
H564 H 0.8571 0.89475 0.03986 0.0
H565 H 0.84715 0.86827 0.93825 0.0
C566 C 0.84307 0.95282 0.10543 0.0
C567 C 0.82399 0.95078 0.14924 0.0
C568 C 0.84304 0.93105 0.08285 0.0
C569 C 0.82384 0.90675 0.10351 0.0
C570 C 0.80678 0.90506 0.15435 0.0
C571 C 0.80664 0.9269 0.17634 0.0
C572 C 0.78706 0.85258 0.98399 0.0
C573 C 0.80662 0.85338 0.94455 0.0
C574 C 0.79265 0.86784 0.04122 0.0
C575 C 0.81801 0.88437 0.06027 0.0
C576 C 0.83739 0.88268 0.02565 0.0
C577 C 0.83173 0.86736 0.96782 0.0
H578 H 0.17039 0.93207 0.94301 0.0
H579 H 0.14693 0.98846 0.93434 0.0
H580 H 0.143 0.91207 0.03893 0.0
H581 H 0.1198 0.96885 0.03381 0.0
H582 H 0.09112 0.87241 0.19874 0.0
H583 H 0.12874 0.90922 0.15121 0.0
H584 H 0.0803 0.92967 0.03905 0.0
H585 H 0.04317 0.89388 0.08949 0.0
C586 C 0.15988 0.94067 0.96315 0.0
C587 C 0.16036 0.9615 0.93038 0.0
C588 C 0.14436 0.92937 0.01909 0.0
C589 C 0.12891 0.93864 0.04404 0.0
C590 C 0.13121 0.96102 0.01519 0.0
C591 C 0.14686 0.97239 0.95863 0.0
C592 C 0.08873 0.88551 0.16624 0.0
C593 C 0.06441 0.88046 0.14763 0.0
C594 C 0.11019 0.90646 0.13856 0.0
C595 C 0.10758 0.92219 0.0902 0.0
C596 C 0.08318 0.91824 0.07642 0.0
C597 C 0.06183 0.89754 0.10477 0.0
H598 H 0.02588 0.17 0.93286 0.0
H599 H 0.07556 0.25054 0.96475 0.0
H600 H 0.04635 0.16087 0.02746 0.0
H601 H 0.09614 0.24169 0.05739 0.0
H602 H 0.13945 0.2261 0.20274 0.0
H603 H 0.10083 0.22523 0.16311 0.0
H604 H 0.08835 0.16623 0.01956 0.0
H605 H 0.1261 0.16655 0.06107 0.0
C606 C 0.04055 0.1857 0.96155 0.0
C607 C 0.04977 0.21093 0.94042 0.0
C608 C 0.05235 0.18052 0.01546 0.0
C609 C 0.07336 0.20054 0.04883 0.0
C610 C 0.08011 0.22575 0.03306 0.0
C611 C 0.06849 0.23088 0.97926 0.0
C612 C 0.12786 0.21239 0.1644 0.0
C613 C 0.13569 0.19649 0.13458 0.0
C614 C 0.10582 0.21191 0.14155 0.0
C615 C 0.09158 0.19583 0.08767 0.0
C616 C 0.09855 0.17863 0.06167 0.0
C617 C 0.12043 0.17905 0.08471 0.0
H618 H 0.81933 0.57267 0.75346 0.0
H619 H 0.78094 0.50213 0.64194 0.0
H620 H 0.77928 0.56313 0.8061 0.0
H621 H 0.74061 0.49209 0.69706 0.0
H622 H 0.69785 0.54258 0.85091 0.0
H623 H 0.71988 0.53949 0.75032 0.0
H624 H 0.74863 0.49943 0.86858 0.0
H625 H 0.72772 0.50363 0.9696 0.0
C626 C 0.80208 0.55564 0.73817 0.0
C627 C 0.80303 0.53823 0.69347 0.0
C628 C 0.77924 0.55018 0.7682 0.0
C629 C 0.75708 0.527 0.75507 0.0
C630 C 0.75752 0.51022 0.70697 0.0
C631 C 0.78045 0.516 0.67549 0.0
C632 C 0.70786 0.53203 0.85432 0.0
C633 C 0.7115 0.52358 0.9175 0.0
C634 C 0.72027 0.53014 0.79686 0.0
C635 C 0.73575 0.51917 0.80218 0.0
C636 C 0.73646 0.50765 0.86339 0.0
C637 C 0.72469 0.51018 0.92111 0.0
H638 H 0.47019 0.16684 0.84475 0.0
H639 H 0.49836 0.23628 0.95954 0.0
H640 H 0.47506 0.19063 0.73923 0.0
H641 H 0.50453 0.26015 0.8545 0.0
H642 H 0.51503 0.29859 0.65987 0.0
H643 H 0.52462 0.26818 0.71562 0.0
H644 H 0.44448 0.21624 0.7427 0.0
H645 H 0.43505 0.2472 0.69068 0.0
C646 C 0.47859 0.18735 0.84683 0.0
C647 C 0.48368 0.19988 0.90957 0.0
C648 C 0.48146 0.20087 0.78674 0.0
C649 C 0.49028 0.22711 0.78917 0.0
C650 C 0.49806 0.23997 0.85146 0.0
C651 C 0.49439 0.22636 0.91144 0.0
C652 C 0.4995 0.28009 0.67455 0.0
C653 C 0.47435 0.27505 0.67161 0.0
C654 C 0.50499 0.26276 0.70621 0.0
C655 C 0.48526 0.23999 0.73302 0.0
C656 C 0.45995 0.23355 0.72141 0.0
C657 C 0.45452 0.25122 0.69193 0.0
H658 H 0.78347 0.28756 0.9665 0.0
H659 H 0.84623 0.31444 0.82723 0.0
H660 H 0.75371 0.2687 0.87329 0.0
H661 H 0.81641 0.29591 0.73217 0.0
H662 H 0.76013 0.21058 0.66101 0.0
H663 H 0.79204 0.25072 0.71014 0.0
H664 H 0.73319 0.26717 0.76814 0.0
H665 H 0.70135 0.22657 0.71948 0.0
C666 C 0.79076 0.29042 0.91513 0.0
C667 C 0.81688 0.30225 0.90344 0.0
C668 C 0.77375 0.27975 0.86142 0.0
C669 C 0.78267 0.28051 0.79507 0.0
C670 C 0.80898 0.29477 0.78277 0.0
C671 C 0.82603 0.30551 0.83684 0.0
C672 C 0.75431 0.22352 0.68076 0.0
C673 C 0.72856 0.21584 0.6861 0.0
C674 C 0.77254 0.24657 0.70911 0.0
C675 C 0.76513 0.26201 0.7442 0.0
C676 C 0.73947 0.25557 0.74222 0.0
C677 C 0.72127 0.2325 0.71379 0.0
H678 H 0.84115 0.4515 0.52378 0.0
H679 H 0.90231 0.49174 0.38075 0.0
H680 H 0.8322 0.41074 0.47307 0.0
H681 H 0.8935 0.45132 0.33129 0.0
H682 H 0.83035 0.38417 0.20233 0.0
H683 H 0.8289 0.40998 0.29545 0.0
H684 H 0.88155 0.39642 0.40953 0.0
H685 H 0.88261 0.37011 0.31664 0.0
C686 C 0.85327 0.45158 0.48349 0.0
C687 C 0.87254 0.47472 0.45637 0.0
C688 C 0.848 0.42835 0.45434 0.0
C689 C 0.86228 0.42817 0.39879 0.0
C690 C 0.88245 0.45115 0.37461 0.0
C691 C 0.88748 0.47421 0.40293 0.0
C692 C 0.84022 0.38529 0.24919 0.0
C693 C 0.85637 0.37505 0.25304 0.0
C694 C 0.83944 0.40007 0.30231 0.0
C695 C 0.85503 0.40495 0.35939 0.0
C696 C 0.86906 0.39245 0.36639 0.0
C697 C 0.8696 0.37739 0.31346 0.0
H698 H 0.56069 0.39527 0.51773 0.0
H699 H 0.53113 0.44304 0.44974 0.0
H700 H 0.60158 0.42425 0.46419 0.0
H701 H 0.57215 0.47246 0.39872 0.0
H702 H 0.64686 0.52225 0.30986 0.0
H703 H 0.62441 0.50137 0.41482 0.0
H704 H 0.59999 0.42797 0.32427 0.0
H705 H 0.62137 0.44878 0.21876 0.0
C706 C 0.56341 0.41267 0.49446 0.0
C707 C 0.54294 0.41709 0.48764 0.0
C708 C 0.58674 0.42917 0.46394 0.0
C709 C 0.58994 0.45055 0.42773 0.0
C710 C 0.57026 0.45631 0.42733 0.0
C711 C 0.54678 0.43949 0.45621 0.0
C712 C 0.63768 0.5017 0.31374 0.0
C713 C 0.63554 0.48699 0.25655 0.0
C714 C 0.62486 0.48981 0.37361 0.0
C715 C 0.61047 0.46314 0.37726 0.0
C716 C 0.61118 0.44857 0.32288 0.0
C717 C 0.62332 0.46043 0.2625 0.0
H718 H 0.58728 0.09814 0.3966 0.0
H719 H 0.60303 0.16438 0.51393 0.0
H720 H 0.55267 0.09944 0.34009 0.0
H721 H 0.56742 0.16549 0.45836 0.0
H722 H 0.53913 0.1824 0.25092 0.0
H723 H 0.56254 0.17752 0.34537 0.0
H724 H 0.51261 0.09584 0.33849 0.0
H725 H 0.49073 0.1009 0.24101 0.0
C726 C 0.58254 0.11239 0.41219 0.0
C727 C 0.5976 0.13106 0.45965 0.0
C728 C 0.56257 0.11312 0.38004 0.0
C729 C 0.55723 0.13266 0.39438 0.0
C730 C 0.57119 0.15033 0.44576 0.0
C731 C 0.59129 0.14951 0.47828 0.0
C732 C 0.53313 0.16351 0.27053 0.0
C733 C 0.51378 0.14195 0.2383 0.0
C734 C 0.54628 0.16067 0.32505 0.0
C735 C 0.53974 0.13621 0.34883 0.0
C736 C 0.51863 0.11488 0.32017 0.0
C737 C 0.5061 0.11771 0.26452 0.0
H738 H 0.5242 0.1121 0.98471 0.0
H739 H 0.52142 0.17359 0.88113 0.0
H740 H 0.55257 0.11222 0.89866 0.0
H741 H 0.55053 0.17382 0.79416 0.0
H742 H 0.58683 0.14152 0.62716 0.0
H743 H 0.5545 0.14303 0.69968 0.0
H744 H 0.59801 0.14717 0.8775 0.0
H745 H 0.62944 0.14564 0.80759 0.0
C746 C 0.52953 0.1256 0.94341 0.0
C747 C 0.52075 0.14301 0.94017 0.0
C748 C 0.54577 0.12561 0.89396 0.0
C749 C 0.55377 0.14311 0.84008 0.0
C750 C 0.54441 0.16003 0.83503 0.0
C751 C 0.52797 0.15999 0.88493 0.0
C752 C 0.58936 0.14285 0.68164 0.0
C753 C 0.61048 0.14307 0.71145 0.0
C754 C 0.57104 0.14384 0.72294 0.0
C755 C 0.57369 0.1448 0.79405 0.0
C756 C 0.59525 0.14595 0.82297 0.0
C757 C 0.6133 0.14506 0.78245 0.0
H758 H 0.87668 0.36676 0.8276 0.0
H759 H 0.83878 0.39495 0.95534 0.0
H760 H 0.86806 0.38574 0.72783 0.0
H761 H 0.83014 0.41378 0.85727 0.0
H762 H 0.81718 0.44976 0.69271 0.0
H763 H 0.81061 0.41039 0.74518 0.0
H764 H 0.88887 0.43293 0.7047 0.0
H765 H 0.89507 0.47201 0.65064 0.0
C766 C 0.86553 0.37604 0.83361 0.0
C767 C 0.85812 0.37932 0.89845 0.0
C768 C 0.86076 0.38702 0.77686 0.0
C769 C 0.84848 0.40131 0.78459 0.0
C770 C 0.83921 0.40253 0.84906 0.0
C771 C 0.84416 0.39179 0.90545 0.0
C772 C 0.83256 0.4456 0.69218 0.0
C773 C 0.85666 0.46379 0.6686 0.0
C774 C 0.82885 0.42316 0.72238 0.0
C775 C 0.84937 0.41887 0.73061 0.0
C776 C 0.87266 0.43565 0.69911 0.0
C777 C 0.8763 0.45807 0.66832 0.0
H778 H 0.65632 0.47906 0.90494 0.0
H779 H 0.61124 0.51349 0.85395 0.0
H780 H 0.63898 0.45092 0.80635 0.0
H781 H 0.59338 0.48541 0.75824 0.0
H782 H 0.54814 0.42773 0.62273 0.0
H783 H 0.58851 0.46373 0.65797 0.0
H784 H 0.59788 0.41517 0.80247 0.0
H785 H 0.55904 0.379 0.76197 0.0
C786 C 0.64348 0.48125 0.87111 0.0
C787 C 0.63452 0.49783 0.88753 0.0
C788 C 0.63336 0.46504 0.81501 0.0
C789 C 0.61411 0.46524 0.77535 0.0
C790 C 0.60804 0.48445 0.78705 0.0
C791 C 0.61809 0.50049 0.84266 0.0
C792 C 0.55957 0.42452 0.65913 0.0
C793 C 0.55036 0.40064 0.6899 0.0
C794 C 0.58257 0.44524 0.68024 0.0
C795 C 0.59619 0.44265 0.73466 0.0
C796 C 0.58813 0.41812 0.76048 0.0
C797 C 0.5655 0.39735 0.73815 0.0
H798 H 0.51007 0.20397 0.26136 0.0
H799 H 0.43074 0.17657 0.30067 0.0
H800 H 0.52155 0.23367 0.35662 0.0
H801 H 0.44189 0.20605 0.39386 0.0
H802 H 0.45971 0.26388 0.5383 0.0
H803 H 0.46005 0.22597 0.49925 0.0
H804 H 0.51814 0.27179 0.35291 0.0
H805 H 0.51888 0.30971 0.39526 0.0
C806 C 0.49512 0.20371 0.29174 0.0
C807 C 0.46958 0.18863 0.27271 0.0
C808 C 0.50165 0.22074 0.34604 0.0
C809 C 0.48267 0.22268 0.38192 0.0
C810 C 0.45708 0.20518 0.36774 0.0
C811 C 0.45063 0.18842 0.31357 0.0
C812 C 0.47344 0.26599 0.50032 0.0
C813 C 0.48917 0.28968 0.46962 0.0
C814 C 0.47346 0.24423 0.47734 0.0
C815 C 0.48879 0.24573 0.4221 0.0
C816 C 0.50618 0.26985 0.39577 0.0
C817 C 0.50631 0.29159 0.41924 0.0
H818 H 0.81559 0.24956 0.24079 0.0
H819 H 0.82603 0.32394 0.28605 0.0
H820 H 0.78937 0.23221 0.3397 0.0
H821 H 0.79905 0.30592 0.38753 0.0
H822 H 0.71036 0.23239 0.44327 0.0
H823 H 0.74787 0.26687 0.38824 0.0
H824 H 0.7939 0.23827 0.47522 0.0
H825 H 0.75635 0.20394 0.53076 0.0
C826 C 0.81277 0.26251 0.27246 0.0
C827 C 0.82323 0.28839 0.25508 0.0
C828 C 0.79782 0.25245 0.3299 0.0
C829 C 0.79265 0.26779 0.37221 0.0
C830 C 0.80311 0.29377 0.35604 0.0
C831 C 0.8185 0.30407 0.29805 0.0
C832 C 0.72878 0.23441 0.45373 0.0
C833 C 0.73058 0.21559 0.49102 0.0
C834 C 0.75026 0.25419 0.42241 0.0
C835 C 0.77369 0.25505 0.42694 0.0
C836 C 0.77603 0.23805 0.47121 0.0
C837 C 0.75458 0.21846 0.50322 0.0
H838 H 0.79835 0.55392 0.54871 0.0
H839 H 0.7799 0.4898 0.41878 0.0
H840 H 0.76124 0.55527 0.50583 0.0
H841 H 0.74384 0.49164 0.37404 0.0
H842 H 0.68821 0.50201 0.26852 0.0
H843 H 0.70509 0.49123 0.36804 0.0
H844 H 0.75851 0.57124 0.39909 0.0
H845 H 0.7408 0.58175 0.30285 0.0
C846 C 0.7859 0.5396 0.51275 0.0
C847 C 0.79229 0.52216 0.48576 0.0
C848 C 0.76475 0.54048 0.48763 0.0
C849 C 0.74987 0.52406 0.43479 0.0
C850 C 0.75466 0.50466 0.41445 0.0
C851 C 0.77562 0.50375 0.43962 0.0
C852 C 0.70273 0.51725 0.29867 0.0
C853 C 0.71346 0.54267 0.27741 0.0
C854 C 0.71265 0.51111 0.3553 0.0
C855 C 0.73365 0.53029 0.39097 0.0
C856 C 0.74236 0.55585 0.37361 0.0
C857 C 0.73238 0.56193 0.31758 0.0
H858 H 0.38336 0.8899 0.16863 0.0
H859 H 0.36588 0.82403 0.29062 0.0
H860 H 0.4056 0.87779 0.08738 0.0
H861 H 0.38829 0.81179 0.20949 0.0
H862 H 0.47626 0.84827 0.16183 0.0
H863 H 0.43619 0.84043 0.20796 0.0
H864 H 0.41136 0.84769 0.00786 0.0
H865 H 0.45173 0.85516 0.96149 0.0
C866 C 0.38317 0.87209 0.17588 0.0
C867 C 0.37321 0.8579 0.23543 0.0
C868 C 0.39581 0.86508 0.1294 0.0
C869 C 0.39905 0.84414 0.14304 0.0
C870 C 0.3862 0.82815 0.19831 0.0
C871 C 0.37333 0.83505 0.24447 0.0
C872 C 0.46222 0.84786 0.12711 0.0
C873 C 0.46756 0.85314 0.05762 0.0
C874 C 0.43903 0.84295 0.15359 0.0
C875 C 0.42059 0.84329 0.11138 0.0
C876 C 0.4253 0.84732 0.04148 0.0
C877 C 0.44854 0.85199 0.01493 0.0
H878 H 0.12312 0.48787 0.15858 0.0
H879 H 0.18401 0.55032 0.26634 0.0
H880 H 0.12639 0.51699 0.06794 0.0
H881 H 0.18732 0.57946 0.17559 0.0
H882 H 0.11489 0.59526 0.11237 0.0
H883 H 0.12302 0.56253 0.15622 0.0
H884 H 0.17784 0.57883 0.99765 0.0
H885 H 0.1698 0.61231 0.95298 0.0
C886 C 0.13843 0.50748 0.16043 0.0
C887 C 0.1535 0.51686 0.21895 0.0
C888 C 0.14023 0.52415 0.10863 0.0
C889 C 0.15717 0.55037 0.11474 0.0
C890 C 0.17448 0.55923 0.16907 0.0
C891 C 0.17265 0.54254 0.22092 0.0
C892 C 0.12822 0.59152 0.08549 0.0
C893 C 0.14158 0.60627 0.02891 0.0
C894 C 0.13291 0.57284 0.11083 0.0
C895 C 0.15107 0.56835 0.08038 0.0
C896 C 0.16372 0.58206 0.02176 0.0
C897 C 0.15889 0.60091 0.99586 0.0
H898 H 0.42299 0.54272 0.98777 0.0
H899 H 0.36061 0.54821 0.07219 0.0
H900 H 0.45286 0.57877 0.05725 0.0
H901 H 0.39026 0.58473 0.14014 0.0
H902 H 0.44306 0.60936 0.32858 0.0
H903 H 0.41344 0.58645 0.23803 0.0
H904 H 0.47384 0.62347 0.09084 0.0
H905 H 0.5038 0.64648 0.18337 0.0
C906 C 0.41584 0.55223 0.01966 0.0
C907 C 0.38966 0.54279 0.02511 0.0
C908 C 0.43289 0.57294 0.05932 0.0
C909 C 0.42398 0.5846 0.1048 0.0
C910 C 0.39777 0.57594 0.10674 0.0
C911 C 0.38078 0.55504 0.068 0.0
C912 C 0.44984 0.61318 0.27667 0.0
C913 C 0.47565 0.62944 0.26284 0.0
C914 C 0.43283 0.60013 0.22446 0.0
C915 C 0.44125 0.60282 0.15695 0.0
C916 C 0.46682 0.6207 0.14243 0.0
C917 C 0.4839 0.63408 0.19512 0.0
H918 H 0.54897 0.80456 0.83236 0.0
H919 H 0.47674 0.78885 0.75037 0.0
H920 H 0.54495 0.76722 0.77371 0.0
H921 H 0.472 0.75089 0.6946 0.0
H922 H 0.50969 0.73917 0.50147 0.0
H923 H 0.49767 0.7568 0.59492 0.0
H924 H 0.5248 0.72155 0.73801 0.0
H925 H 0.53669 0.70352 0.64253 0.0
C926 C 0.53176 0.79244 0.80422 0.0
C927 C 0.51352 0.79979 0.7938 0.0
C928 C 0.52932 0.77095 0.77106 0.0
C929 C 0.50845 0.75655 0.72803 0.0
C930 C 0.48858 0.76203 0.72599 0.0
C931 C 0.49129 0.78373 0.75772 0.0
C932 C 0.51239 0.73462 0.55296 0.0
C933 C 0.52421 0.72032 0.56534 0.0
C934 C 0.5053 0.74448 0.60669 0.0
C935 C 0.51032 0.7406 0.67408 0.0
C936 C 0.52077 0.72487 0.68662 0.0
C937 C 0.52748 0.71455 0.63232 0.0
H938 H 0.31021 0.85534 0.64434 0.0
H939 H 0.29524 0.78436 0.55498 0.0
H940 H 0.2861 0.83247 0.74528 0.0
H941 H 0.27211 0.76159 0.65697 0.0
H942 H 0.22779 0.72691 0.84975 0.0
H943 H 0.26895 0.7577 0.79998 0.0
H944 H 0.23513 0.79933 0.71428 0.0
H945 H 0.19402 0.76815 0.76133 0.0
C946 C 0.30322 0.83508 0.6483 0.0
C947 C 0.30447 0.8215 0.59228 0.0
C948 C 0.28934 0.82201 0.70585 0.0
C949 C 0.27718 0.79532 0.70851 0.0
C950 C 0.2815 0.7822 0.65633 0.0
C951 C 0.29475 0.79519 0.59804 0.0
C952 C 0.22947 0.74321 0.8224 0.0
C953 C 0.20785 0.74526 0.8091 0.0
C954 C 0.25295 0.76072 0.79399 0.0
C955 C 0.25516 0.78089 0.7538 0.0
C956 C 0.234 0.78418 0.74601 0.0
C957 C 0.21048 0.76632 0.77265 0.0
H958 H 0.20339 0.52289 0.5616 0.0
H959 H 0.15951 0.4527 0.67194 0.0
H960 H 0.23786 0.53626 0.64406 0.0
H961 H 0.19352 0.46588 0.75424 0.0
H962 H 0.26232 0.483 0.86676 0.0
H963 H 0.22904 0.49261 0.8343 0.0
H964 H 0.26018 0.51131 0.63162 0.0
H965 H 0.29292 0.5018 0.66358 0.0
C966 C 0.20053 0.51106 0.60573 0.0
C967 C 0.17932 0.48653 0.60991 0.0
C968 C 0.22025 0.51863 0.6528 0.0
C969 C 0.21869 0.50169 0.70414 0.0
C970 C 0.19543 0.47927 0.71501 0.0
C971 C 0.17594 0.47162 0.66766 0.0
C972 C 0.2622 0.48957 0.8157 0.0
C973 C 0.27971 0.49092 0.76709 0.0
C974 C 0.24334 0.49528 0.79736 0.0
C975 C 0.24204 0.50283 0.73056 0.0
C976 C 0.26081 0.50598 0.68381 0.0
C977 C 0.27929 0.49995 0.70174 0.0
H978 H 0.18323 0.49436 0.20464 0.0
H979 H 0.21122 0.44973 0.30511 0.0
H980 H 0.21108 0.50035 0.10726 0.0
H981 H 0.23798 0.45525 0.20906 0.0
H982 H 0.26132 0.44373 0.00686 0.0
H983 H 0.22703 0.43981 0.08018 0.0
H984 H 0.26409 0.52169 0.09552 0.0
H985 H 0.29857 0.52549 0.0224 0.0
C986 C 0.19523 0.48596 0.20624 0.0
C987 C 0.19477 0.47145 0.26265 0.0
C988 C 0.21103 0.48927 0.15054 0.0
C989 C 0.22618 0.47776 0.15045 0.0
C990 C 0.22602 0.46379 0.20721 0.0
C991 C 0.21068 0.46078 0.26251 0.0
C992 C 0.2617 0.46082 0.02462 0.0
C993 C 0.2824 0.48486 0.01007 0.0
C994 C 0.24216 0.45863 0.06616 0.0
C995 C 0.24305 0.48049 0.09336 0.0
C996 C 0.2629 0.50463 0.07458 0.0
C997 C 0.28263 0.50679 0.03346 0.0
H998 H 0.50525 0.72412 0.26881 0.0
H999 H 0.5486 0.69953 0.15082 0.0
H1000 H 0.50032 0.74522 0.16925 0.0
H1001 H 0.54373 0.72072 0.05033 0.0
H1002 H 0.57626 0.81062 0.99773 0.0
H1003 H 0.5669 0.77006 0.04844 0.0
H1004 H 0.48681 0.74503 0.04391 0.0
H1005 H 0.49631 0.78538 0.99051 0.0
C1006 C 0.5124 0.72197 0.2204 0.0
C1007 C 0.52701 0.71001 0.21688 0.0
C1008 C 0.50966 0.73411 0.16332 0.0
C1009 C 0.52178 0.73473 0.10203 0.0
C1010 C 0.53425 0.72055 0.09696 0.0
C1011 C 0.53687 0.70829 0.15415 0.0
C1012 C 0.55663 0.79585 0.00405 0.0
C1013 C 0.537 0.80091 0.99011 0.0
C1014 C 0.5512 0.77262 0.03315 0.0
C1015 C 0.52611 0.75447 0.05074 0.0
C1016 C 0.50629 0.75865 0.03079 0.0
C1017 C 0.51171 0.78163 -0.00013 0.0
H1018 H 0.32214 0.82153 0.21914 0.0
H1019 H 0.26242 0.84018 0.21124 0.0
H1020 H 0.30646 0.79751 0.11363 0.0
H1021 H 0.24583 0.81519 0.10946 0.0
H1022 H 0.20791 0.76283 0.95323 0.0
H1023 H 0.24445 0.80195 0.99545 0.0
H1024 H 0.26973 0.75682 0.1055 0.0
H1025 H 0.23389 0.71832 0.06194 0.0
C1026 C 0.30624 0.82121 0.19378 0.0
C1027 C 0.29334 0.8324 0.22395 0.0
C1028 C 0.29705 0.80726 0.13362 0.0
C1029 C 0.27457 0.80397 0.10343 0.0
C1030 C 0.26326 0.81734 0.1304 0.0
C1031 C 0.27255 0.83138 0.18982 0.0
C1032 C 0.222 0.76148 0.98389 0.0
C1033 C 0.21789 0.73773 0.0061 0.0
C1034 C 0.24284 0.78383 0.00847 0.0
C1035 C 0.25958 0.78255 0.05587 0.0
C1036 C 0.25728 0.75872 0.06962 0.0
C1037 C 0.23652 0.73653 0.04524 0.0
H1038 H 0.12395 0.58856 0.8478 0.0
H1039 H 0.19391 0.64641 0.75824 0.0
H1040 H 0.12744 0.55578 0.78357 0.0
H1041 H 0.19781 0.61391 0.69585 0.0
H1042 H 0.1551 0.56378 0.5056 0.0
H1043 H 0.16605 0.59302 0.60011 0.0
H1044 H 0.1521 0.5325 0.74038 0.0
H1045 H 0.14134 0.50295 0.64388 0.0
C1046 C 0.14064 0.59407 0.81697 0.0
C1047 C 0.15841 0.61988 0.80657 0.0
C1048 C 0.14272 0.57536 0.78043 0.0
C1049 C 0.16264 0.58244 0.73371 0.0
C1050 C 0.18209 0.608 0.73076 0.0
C1051 C 0.17986 0.62657 0.76639 0.0
C1052 C 0.1551 0.5569 0.55645 0.0
C1053 C 0.14758 0.5313 0.56776 0.0
C1054 C 0.16148 0.57364 0.61062 0.0
C1055 C 0.16008 0.56506 0.67767 0.0
C1056 C 0.15344 0.53956 0.68913 0.0
C1057 C 0.14748 0.52278 0.6342 0.0
H1058 H 0.38665 0.54761 0.68317 0.0
H1059 H 0.42453 0.55271 0.8727 0.0
H1060 H 0.42019 0.5895 0.65151 0.0
H1061 H 0.45872 0.59551 0.84116 0.0
H1062 H 0.52196 0.62907 0.66281 0.0
H1063 H 0.49092 0.60673 0.75119 0.0
H1064 H 0.44416 0.63579 0.67092 0.0
H1065 H 0.4754 0.65795 0.58132 0.0
C1066 C 0.40217 0.55788 0.71846 0.0
C1067 C 0.4033 0.54678 0.77992 0.0
C1068 C 0.42116 0.58222 0.70103 0.0
C1069 C 0.44201 0.59608 0.74426 0.0
C1070 C 0.44274 0.58537 0.80715 0.0
C1071 C 0.42335 0.56092 0.82508 0.0
C1072 C 0.50569 0.63179 0.66639 0.0
C1073 C 0.50049 0.6444 0.61447 0.0
C1074 C 0.48791 0.61908 0.71734 0.0
C1075 C 0.46465 0.6187 0.71622 0.0
C1076 C 0.46173 0.6353 0.67174 0.0
C1077 C 0.47963 0.6481 0.62067 0.0
H1078 H 0.40955 0.85908 0.53688 0.0
H1079 H 0.36104 0.87787 0.65248 0.0
H1080 H 0.42736 0.85314 0.6417 0.0
H1081 H 0.37976 0.87286 0.75861 0.0
H1082 H 0.47334 0.91286 0.84067 0.0
H1083 H 0.43514 0.90518 0.77896 0.0
H1084 H 0.41113 0.8253 0.76628 0.0
H1085 H 0.4488 0.83285 0.82999 0.0
C1086 C 0.40217 0.86113 0.58503 0.0
C1087 C 0.3839 0.86872 0.58712 0.0
C1088 C 0.41227 0.85768 0.6449 0.0
C1089 C 0.40476 0.8624 0.70796 0.0
C1090 C 0.38558 0.86886 0.71044 0.0
C1091 C 0.37489 0.87164 0.65009 0.0
C1092 C 0.45903 0.89347 0.82863 0.0
C1093 C 0.46376 0.8734 0.8404 0.0
C1094 C 0.4372 0.88904 0.79335 0.0
C1095 C 0.42035 0.86466 0.76789 0.0
C1096 C 0.42371 0.84417 0.78617 0.0
C1097 C 0.44522 0.8485 0.82265 0.0
H1098 H 0.05073 0.31553 0.75171 0.0
H1099 H -0.00274 0.26098 0.6098 0.0
H1100 H 0.05749 0.35021 0.6758 0.0
H1101 H 0.00475 0.29572 0.53222 0.0
H1102 H 0.08299 0.35701 0.41046 0.0
H1103 H 0.05177 0.32169 0.47911 0.0
H1104 H 0.03932 0.3741 0.59802 0.0
H1105 H 0.06997 0.40945 0.52739 0.0
C1106 C 0.03952 0.3111 0.7057 0.0
C1107 C 0.02361 0.28571 0.68624 0.0
C1108 C 0.04335 0.33092 0.6622 0.0
C1109 C 0.03182 0.32558 0.59785 0.0
C1110 C 0.01381 0.30029 0.5816 0.0
C1111 C 0.00944 0.28047 0.6261 0.0
C1112 C 0.07263 0.3608 0.44902 0.0
C1113 C 0.07894 0.38589 0.46395 0.0
C1114 C 0.0547 0.34059 0.48825 0.0
C1115 C 0.04326 0.34524 0.5441 0.0
C1116 C 0.04781 0.37005 0.55505 0.0
C1117 C 0.06527 0.39022 0.5145 0.0
H1118 H 0.69762 0.77551 0.72647 0.0
H1119 H 0.74332 0.74692 0.63777 0.0
H1120 H 0.66175 0.74646 0.65568 0.0
H1121 H 0.7075 0.71847 0.56468 0.0
H1122 H 0.65166 0.73568 0.39609 0.0
H1123 H 0.68675 0.7447 0.47368 0.0
H1124 H 0.6336 0.69113 0.61813 0.0
H1125 H 0.59869 0.68107 0.5393 0.0
C1126 C 0.69969 0.76241 0.69342 0.0
C1127 C 0.72316 0.76344 0.68731 0.0
C1128 C 0.67921 0.7458 0.6531 0.0
C1129 C 0.68206 0.73039 0.60502 0.0
C1130 C 0.70495 0.73012 0.6019 0.0
C1131 C 0.72531 0.74629 0.64377 0.0
C1132 C 0.6477 0.72494 0.44291 0.0
C1133 C 0.62261 0.70775 0.46191 0.0
C1134 C 0.66769 0.73002 0.48711 0.0
C1135 C 0.66269 0.71854 0.55152 0.0
C1136 C 0.63784 0.69988 0.56829 0.0
C1137 C 0.61795 0.69417 0.52315 0.0
H1138 H 0.25464 0.94999 0.75265 0.0
H1139 H 0.26491 0.0084 0.60985 0.0
H1140 H 0.28346 0.94144 0.68665 0.0
H1141 H 0.29313 -0.00077 0.54192 0.0
H1142 H 0.27792 0.92275 0.41574 0.0
H1143 H 0.27208 0.95333 0.48289 0.0
H1144 H 0.32819 0.95847 0.62652 0.0
H1145 H 0.33466 0.92858 0.55764 0.0
C1146 C 0.26404 0.96173 0.70872 0.0
C1147 C 0.25777 0.97977 0.68594 0.0
C1148 C 0.28053 0.95693 0.67102 0.0
C1149 C 0.29031 0.96963 0.60914 0.0
C1150 C 0.28586 0.98934 0.58968 0.0
C1151 C 0.26987 0.99463 0.62853 0.0
C1152 C 0.28971 0.93133 0.46007 0.0
C1153 C 0.3067 0.92362 0.48197 0.0
C1154 C 0.28654 0.94888 0.49821 0.0
C1155 C 0.29979 0.95822 0.55965 0.0
C1156 C 0.31804 0.95172 0.57896 0.0
C1157 C 0.32168 0.93469 0.53977 0.0
H1158 H 0.3143 0.07147 0.7627 0.0
H1159 H 0.26233 0.00949 0.89085 0.0
H1160 H 0.34994 0.07649 0.832 0.0
H1161 H 0.29792 0.01526 0.96243 0.0
H1162 H 0.36195 0.08774 0.10093 0.0
H1163 H 0.32511 0.05958 0.03199 0.0
H1164 H 0.37431 0.05304 0.88593 0.0
H1165 H 0.41119 0.08054 0.95661 0.0
C1166 C 0.3107 0.05842 0.80442 0.0
C1167 C 0.28582 0.04007 0.82157 0.0
C1168 C 0.33101 0.06116 0.84386 0.0
C1169 C 0.3266 0.04614 0.90226 0.0
C1170 C 0.30177 0.0268 0.91715 0.0
C1171 C 0.28152 0.02352 0.87631 0.0
C1172 C 0.36468 0.07909 0.05608 0.0
C1173 C 0.38923 0.0863 0.03358 0.0
C1174 C 0.34365 0.06298 0.01662 0.0
C1175 C 0.34701 0.05445 0.95338 0.0
C1176 C 0.37133 0.05941 0.93458 0.0
C1177 C 0.39235 0.075 0.9751 0.0
H1178 H 0.93432 0.25201 0.73498 0.0
H1179 H -0.00145 0.26038 0.85016 0.0
H1180 H 0.93295 0.28427 0.80579 0.0
H1181 H -0.00323 0.29221 0.92168 0.0
H1182 H 0.92804 0.28262 0.07677 0.0
H1183 H 0.95473 0.27482 -0.00041 0.0
H1184 H 0.95748 0.33161 0.86187 0.0
H1185 H 0.93166 0.34022 0.94089 0.0
C1186 C 0.94878 0.26151 0.7735 0.0
C1187 C 0.96639 0.25358 0.78731 0.0
C1188 C 0.94811 0.28007 0.8138 0.0
C1189 C 0.96472 0.29058 0.8693 0.0
C1190 C 0.98389 0.28446 0.87897 0.0
C1191 C 0.98489 0.26627 0.8378 0.0
C1192 C 0.93557 0.29441 0.03188 0.0
C1193 C 0.9277 0.31178 0.0142 0.0
C1194 C 0.95086 0.29001 0.9877 0.0
C1195 C 0.95782 0.30242 0.92448 0.0
C1196 C 0.95233 0.32186 0.91037 0.0
C1197 C 0.93767 0.32682 0.95567 0.0
H1198 H 0.76294 0.70047 0.74503 0.0
H1199 H 0.74283 0.74833 0.85985 0.0
H1200 H 0.73356 0.66376 0.81345 0.0
H1201 H 0.71432 0.71174 0.93039 0.0
H1202 H 0.73005 0.65224 0.07905 0.0
H1203 H 0.73835 0.68815 0.00545 0.0
H1204 H 0.68186 0.63656 0.86408 0.0
H1205 H 0.67264 0.60069 0.93958 0.0
C1206 C 0.75155 0.70291 0.78326 0.0
C1207 C 0.75514 0.72715 0.79734 0.0
C1208 C 0.73473 0.68195 0.82224 0.0
C1209 C 0.72179 0.68507 0.87697 0.0
C1210 C 0.72394 0.70891 0.88798 0.0
C1211 C 0.7402 0.72976 0.84754 0.0
C1212 C 0.71855 0.6488 0.03397 0.0
C1213 C 0.70076 0.62388 0.01472 0.0
C1214 C 0.72324 0.66927 0.99197 0.0
C1215 C 0.71074 0.66497 0.92926 0.0
C1216 C 0.69151 0.64027 0.91253 0.0
C1217 C 0.68623 0.61985 0.95572 0.0
H1218 H 0.89086 0.62109 0.44232 0.0
H1219 H 0.95318 0.60915 0.49257 0.0
H1220 H 0.92029 0.66255 0.39438 0.0
H1221 H 0.98314 0.65106 0.44314 0.0
H1222 H 0.02017 0.74262 0.42576 0.0
H1223 H -0.0011 0.69815 0.46194 0.0
H1224 H 0.94788 0.6779 0.29106 0.0
H1225 H 0.96921 0.72245 0.25498 0.0
C1226 C 0.91101 0.62761 0.44386 0.0
C1227 C 0.91983 0.61209 0.47133 0.0
C1228 C 0.92784 0.65114 0.41531 0.0
C1229 C 0.95396 0.65971 0.4129 0.0
C1230 C 0.96305 0.64479 0.44366 0.0
C1231 C 0.94604 0.62104 0.47267 0.0
C1232 C 0.00512 0.72846 0.3943 0.0
C1233 C -0.00392 0.73598 0.33814 0.0
C1234 C -0.00711 0.703 0.41519 0.0
C1235 C 0.97125 0.68471 0.38058 0.0
C1236 C 0.9642 0.69176 0.31961 0.0
C1237 C 0.97663 0.7172 0.2983 0.0
H1238 H 0.29568 0.25334 0.26981 0.0
H1239 H 0.26748 0.28053 0.4307 0.0
H1240 H 0.3389 0.2789 0.31501 0.0
H1241 H 0.31062 0.30649 0.47503 0.0
H1242 H 0.40115 0.36211 0.49158 0.0
H1243 H 0.358 0.34342 0.44392 0.0
H1244 H 0.35349 0.27017 0.43381 0.0
H1245 H 0.396 0.28865 0.48263 0.0
C1246 C 0.29895 0.2657 0.31286 0.0
C1247 C 0.27849 0.26525 0.34661 0.0
C1248 C 0.32352 0.28002 0.33926 0.0
C1249 C 0.32792 0.29436 0.39898 0.0
C1250 C 0.30772 0.29566 0.42896 0.0
C1251 C 0.28314 0.28096 0.40339 0.0
C1252 C 0.39039 0.34184 0.48176 0.0
C1253 C 0.40143 0.32659 0.49223 0.0
C1254 C 0.36599 0.33126 0.45355 0.0
C1255 C 0.35279 0.30553 0.43382 0.0
C1256 C 0.36349 0.29017 0.44733 0.0
C1257 C 0.38755 0.3006 0.47638 0.0
H1258 H 0.71461 0.98682 0.37397 0.0
H1259 H 0.77304 0.06142 0.31047 0.0
H1260 H 0.69067 0.00547 0.42421 0.0
H1261 H 0.74964 0.08019 0.36223 0.0
H1262 H 0.72188 0.10658 0.5413 0.0
H1263 H 0.74006 0.082 0.49295 0.0
H1264 H 0.66937 0.03342 0.3898 0.0
H1265 H 0.65148 0.05846 0.437 0.0
C1266 C 0.72177 0.00706 0.36847 0.0
C1267 C 0.74528 0.02266 0.33695 0.0
C1268 C 0.7083 0.01775 0.39799 0.0
C1269 C 0.71861 0.04428 0.39832 0.0
C1270 C 0.74146 0.0597 0.36351 0.0
C1271 C 0.75459 0.04895 0.33268 0.0
C1272 C 0.70995 0.08998 0.5107 0.0
C1273 C 0.68523 0.0841 0.49352 0.0
C1274 C 0.72044 0.07621 0.48207 0.0
C1275 C 0.70623 0.05616 0.4366 0.0
C1276 C 0.68072 0.04884 0.42447 0.0
C1277 C 0.67042 0.06293 0.45204 0.0
H1278 H 0.5997 0.94982 0.10269 0.0
H1279 H 0.62166 0.9255 0.92239 0.0
H1280 H 0.64414 0.97566 0.13557 0.0
H1281 H 0.66611 0.9507 0.95586 0.0
H1282 H 0.74582 0.00432 0.01607 0.0
H1283 H 0.70298 0.99034 0.97717 0.0
H1284 H 0.67503 0.96621 0.1811 0.0
H1285 H 0.71841 0.98103 0.22051 0.0
C1286 C 0.61415 0.95061 0.06907 0.0
C1287 C 0.60724 0.93566 0.00993 0.0
C1288 C 0.63961 0.96512 0.08845 0.0
C1289 C 0.65878 0.96489 0.04937 0.0
C1290 C 0.65195 0.95152 0.98725 0.0
C1291 C 0.62644 0.93713 0.96762 0.0
C1292 C 0.73058 -0.00367 0.05297 0.0
C1293 C 0.73549 0.99353 0.12139 0.0
C1294 C 0.70594 0.98817 0.03043 0.0
C1295 C 0.68537 0.97674 0.0755 0.0
C1296 C 0.6904 0.97511 0.14485 0.0
C1297 C 0.71526 0.98355 0.16764 0.0
H1298 H 0.04097 0.76084 0.22672 0.0
H1299 H -0.00333 0.73698 0.04253 0.0
H1300 H 0.06112 0.73627 0.19517 0.0
H1301 H 0.01595 0.71154 0.01193 0.0
H1302 H 0.08307 0.70207 0.93545 0.0
H1303 H 0.05542 0.71857 0.97011 0.0
H1304 H 0.05834 0.69674 0.17756 0.0
H1305 H 0.08631 0.68108 0.14315 0.0
C1306 C 0.03492 0.74964 0.18062 0.0
C1307 C 0.01735 0.75095 0.13703 0.0
C1308 C 0.04649 0.73552 0.16224 0.0
C1309 C 0.04048 0.72208 0.10024 0.0
C1310 C 0.02161 0.72212 0.05904 0.0
C1311 C 0.01032 0.73648 0.077 0.0
C1312 C 0.07731 0.70033 0.98805 0.0
C1313 C 0.08702 0.69044 0.03646 0.0
C1314 C 0.06146 0.70981 0.0082 0.0
C1315 C 0.05486 0.70939 0.07712 0.0
C1316 C 0.06346 0.69806 0.1245 0.0
C1317 C 0.07938 0.68885 0.10453 0.0
H1318 H 0.24471 0.29405 0.21734 0.0
H1319 H 0.2867 0.2784 0.06761 0.0
H1320 H 0.26712 0.33904 0.18323 0.0
H1321 H 0.30972 0.32347 0.03519 0.0
H1322 H 0.35655 0.41524 0.04717 0.0
H1323 H 0.33992 0.37114 0.08704 0.0
H1324 H 0.26343 0.35678 0.0605 0.0
H1325 H 0.28003 0.40038 0.01924 0.0
C1326 C 0.25942 0.30042 0.17907 0.0
C1327 C 0.26402 0.28281 0.14515 0.0
C1328 C 0.27203 0.32606 0.15904 0.0
C1329 C 0.28993 0.33462 0.10601 0.0
C1330 C 0.29602 0.31738 0.0761 0.0
C1331 C 0.28293 0.29165 0.09482 0.0
C1332 C 0.33624 0.40227 0.04757 0.0
C1333 C 0.31952 0.41082 0.02825 0.0
C1334 C 0.32673 0.37724 0.0712 0.0
C1335 C 0.3004 0.36073 0.07779 0.0
C1336 C 0.28379 0.36921 0.05677 0.0
C1337 C 0.29326 0.39395 0.03203 0.0
H1338 H 0.93481 0.33842 0.17478 0.0
H1339 H 0.98404 0.41038 0.07644 0.0
H1340 H 0.96961 0.34485 0.24954 0.0
H1341 H 0.01906 0.41614 0.1496 0.0
H1342 H 0.07782 0.41284 0.28675 0.0
H1343 H 0.04417 0.38673 0.20602 0.0
H1344 H 0.99006 0.39485 0.32888 0.0
H1345 H 0.02393 0.42216 0.4078 0.0
C1346 C 0.95337 0.35496 0.16675 0.0
C1347 C 0.95672 0.37413 0.12051 0.0
C1348 C 0.9732 0.35855 0.20959 0.0
C1349 C -0.00324 0.38091 0.20491 0.0
C1350 C 0.00098 0.39862 0.15336 0.0
C1351 C 0.98099 0.3954 0.1118 0.0
C1352 C 0.05852 0.40811 0.2981 0.0
C1353 C 0.05335 0.41964 0.35288 0.0
C1354 C 0.03938 0.39323 0.25186 0.0
C1355 C 0.01477 0.38896 0.2617 0.0
C1356 C 0.00899 0.39783 0.32096 0.0
C1357 C 0.02827 0.41342 0.36593 0.0
H1358 H 0.67202 0.60878 0.16779 0.0
H1359 H 0.59233 0.567 0.11532 0.0
H1360 H 0.66393 0.63588 0.24407 0.0
H1361 H 0.58455 0.59417 0.19055 0.0
H1362 H 0.57754 0.60374 0.41546 0.0
H1363 H 0.60318 0.59354 0.34095 0.0
H1364 H 0.62755 0.6634 0.23017 0.0
H1365 H 0.60228 0.67406 0.30578 0.0
C1366 C 0.65306 0.60611 0.17024 0.0
C1367 C 0.63268 0.58562 0.13651 0.0
C1368 C 0.6485 0.62152 0.21398 0.0
C1369 C 0.62366 0.6167 0.22308 0.0
C1370 C 0.60385 0.59802 0.18401 0.0
C1371 C 0.6083 0.58255 0.14107 0.0
C1372 C 0.5893 0.61748 0.37729 0.0
C1373 C 0.58763 0.63939 0.36531 0.0
C1374 C 0.60397 0.6117 0.33494 0.0
C1375 C 0.61693 0.62766 0.27998 0.0
C1376 C 0.61775 0.65102 0.27275 0.0
C1377 C 0.60331 0.65704 0.31594 0.0
H1378 H 0.3974 0.98814 0.41384 0.0
H1379 H 0.33913 0.93456 0.27947 0.0
H1380 H 0.40473 0.02295 0.33736 0.0
H1381 H 0.34727 0.9693 0.2013 0.0
H1382 H 0.42375 0.02879 0.06889 0.0
H1383 H 0.39336 0.99391 0.14027 0.0
H1384 H 0.38523 0.04752 0.2661 0.0
H1385 H 0.41517 0.08242 0.19356 0.0
C1386 C 0.38549 0.984 0.36932 0.0
C1387 C 0.3678 0.95878 0.35234 0.0
C1388 C 0.38961 0.00388 0.32559 0.0
C1389 C 0.37663 -0.00129 0.26334 0.0
C1390 C 0.35738 0.97373 0.24918 0.0
C1391 C 0.3527 0.95393 0.29403 0.0
C1392 C 0.41448 0.03296 0.1097 0.0
C1393 C 0.42192 0.05825 0.12605 0.0
C1394 C 0.39704 0.01301 0.1505 0.0
C1395 C 0.38719 0.01814 0.20898 0.0
C1396 C 0.39258 0.04315 0.22122 0.0
C1397 C 0.40961 0.06306 0.17946 0.0
H1398 H 0.59665 0.9316 0.68882 0.0
H1399 H 0.59615 0.95718 0.89294 0.0
H1400 H 0.62339 0.97547 0.65218 0.0
H1401 H 0.62363 0.0012 0.85635 0.0
H1402 H 0.68601 0.07691 0.78043 0.0
H1403 H 0.66652 0.03207 0.81033 0.0
H1404 H 0.61653 0.01257 0.63738 0.0
H1405 H 0.63607 0.0577 0.60729 0.0
C1406 C 0.60272 0.94651 0.72646 0.0
C1407 C 0.59431 0.9407 0.79427 0.0
C1408 C 0.61793 0.97172 0.70509 0.0
C1409 C 0.62552 0.99185 0.75107 0.0
C1410 C 0.6183 0.98608 0.81968 0.0
C1411 C 0.6027 0.96079 0.84093 0.0
C1412 C 0.67125 0.06305 0.74771 0.0
C1413 C 0.66253 0.07096 0.69152 0.0
C1414 C 0.65993 0.03735 0.76536 0.0
C1415 C 0.6397 0.01878 0.72705 0.0
C1416 C 0.63216 0.02643 0.66792 0.0
C1417 C 0.64346 0.05228 0.65033 0.0
H1418 H 0.05657 0.61671 0.83612 0.0
H1419 H 0.0699 0.6928 0.80535 0.0
H1420 H 0.01412 0.59922 0.7867 0.0
H1421 H 0.02692 0.67528 0.75762 0.0
H1422 H 0.93411 0.61834 0.75117 0.0
H1423 H 0.97739 0.64277 0.79619 0.0
H1424 H 0.00159 0.60425 0.65733 0.0
H1425 H 0.95838 0.58036 0.61088 0.0
C1426 C 0.04994 0.62963 0.82148 0.0
C1427 C 0.06618 0.65605 0.82625 0.0
C1428 C 0.02588 0.61967 0.792 0.0
C1429 C 0.01745 0.63593 0.76721 0.0
C1430 C 0.03302 0.66235 0.77605 0.0
C1431 C 0.05739 0.67235 0.8043 0.0
C1432 C 0.94898 0.61598 0.72819 0.0
C1433 C 0.94302 0.59771 0.67696 0.0
C1434 C 0.97365 0.62978 0.7544 0.0
C1435 C -0.00732 0.62504 0.7311 0.0
C1436 C 0.98715 0.60805 0.67664 0.0
C1437 C 0.96257 0.59468 0.6493 0.0
H1438 H 0.41793 0.34684 0.81625 0.0
H1439 H 0.41521 0.37306 0.61408 0.0
H1440 H 0.38937 0.361 0.85656 0.0
H1441 H 0.38624 0.38731 0.65489 0.0
H1442 H 0.32176 0.39556 0.73626 0.0
H1443 H 0.34307 0.37233 0.70306 0.0
H1444 H 0.39262 0.40274 0.87683 0.0
H1445 H 0.3713 0.42627 0.90983 0.0
C1446 C 0.41105 0.35546 0.78002 0.0
C1447 C 0.41902 0.35892 0.71173 0.0
C1448 C 0.3947 0.36367 0.80348 0.0
C1449 C 0.38566 0.37549 0.75936 0.0
C1450 C 0.3927 0.37805 0.69023 0.0
C1451 C 0.40925 0.36985 0.66663 0.0
C1452 C 0.33667 0.39665 0.76873 0.0
C1453 C 0.34497 0.41295 0.8255 0.0
C1454 C 0.34912 0.38361 0.74901 0.0
C1455 C 0.36999 0.38621 0.78608 0.0
C1456 C 0.37665 0.40042 0.84685 0.0
C1457 C 0.36425 0.41369 0.8664 0.0
loop_
_geom_bond_atom_site_label_1
_geom_bond_atom_site_label_2
_geom_bond_distance
_geom_bond_site_symmetry_2
_ccdc_geom_bond_type
Zn0 O6 1.920 . S
Zn0 O12 1.898 . S
Zn0 O15 1.905 . S
Zn1 O9 1.905 . S
Zn1 O10 1.898 . S
Zn1 O18 1.920 . S
Zn2 O5 2.080 1_455 S
Zn2 O8 2.114 . S
Zn2 O11 2.120 . S
Zn2 O13 2.120 1_455 S
Zn2 O14 2.114 1_455 S
Zn2 O17 2.080 . S
C3 O8 1.166 . S
C3 O9 1.182 . S
C4 O10 1.167 . S
C4 O11 1.299 . S
O5 Zn2 2.080 1_655 S
O5 C19 1.305 . S
O6 Zn0 1.920 . S
O6 C19 1.234 . S
C7 O12 1.167 . S
C7 O13 1.299 . S
O8 Zn2 2.114 . S
O8 C3 1.166 . S
O9 Zn1 1.905 . S
O9 C3 1.182 . S
O10 Zn1 1.898 . S
O10 C4 1.167 . S
O11 Zn2 2.120 . S
O11 C4 1.299 . S
O12 Zn0 1.898 . S
O12 C7 1.167 . S
O13 Zn2 2.120 1_655 S
O13 C7 1.299 . S
O14 Zn2 2.114 1_655 S
O14 C16 1.166 . S
O15 Zn0 1.905 . S
O15 C16 1.182 . S
C16 O14 1.166 . S
C16 O15 1.182 . S
O17 Zn2 2.080 . S
O17 C20 1.305 . S
O18 Zn1 1.920 . S
O18 C20 1.234 . S
C19 O5 1.305 . S
C19 O6 1.234 . S
C20 O17 1.305 . S
C20 O18 1.234 . S
Zn21 O27 1.920 . S
Zn21 O33 1.898 . S
Zn21 O36 1.905 . S
Zn22 O30 1.905 . S
Zn22 O31 1.898 . S
Zn22 O39 1.920 . S
Zn23 O26 2.080 . S
Zn23 O29 2.114 . S
Zn23 O32 2.120 . S
Zn23 O34 2.120 . S
Zn23 O35 2.114 . S
Zn23 O38 2.080 . S
C24 O29 1.166 . S
C24 O30 1.182 . S
C25 O31 1.167 . S
C25 O32 1.299 . S
O26 Zn23 2.080 . S
O26 C40 1.305 . S
O27 Zn21 1.920 . S
O27 C40 1.234 . S
C28 O33 1.167 . S
C28 O34 1.299 . S
O29 Zn23 2.114 . S
O29 C24 1.166 . S
O30 Zn22 1.905 . S
O30 C24 1.182 . S
O31 Zn22 1.898 . S
O31 C25 1.167 . S
O32 Zn23 2.120 . S
O32 C25 1.299 . S
O33 Zn21 1.898 . S
O33 C28 1.167 . S
O34 Zn23 2.120 . S
O34 C28 1.299 . S
O35 Zn23 2.114 . S
O35 C37 1.166 . S
O36 Zn21 1.905 . S
O36 C37 1.182 . S
C37 O35 1.166 . S
C37 O36 1.182 . S
O38 Zn23 2.080 . S
O38 C41 1.305 . S
O39 Zn22 1.920 . S
O39 C41 1.234 . S
C40 O26 1.305 . S
C40 O27 1.234 . S
C41 O38 1.305 . S
C41 O39 1.234 . S
Zn42 O48 1.920 . S
Zn42 O54 1.898 . S
Zn42 O57 1.905 . S
Zn43 O51 1.905 . S
Zn43 O52 1.898 . S
Zn43 O60 1.920 . S
Zn44 O47 2.080 . S
Zn44 O50 2.114 1_545 S
Zn44 O53 2.120 1_545 S
Zn44 O55 2.120 . S
Zn44 O56 2.114 . S
Zn44 O59 2.080 1_545 S
C45 O50 1.166 . S
C45 O51 1.182 . S
C46 O52 1.167 . S
C46 O53 1.299 . S
O47 Zn44 2.080 . S
O47 C61 1.305 . S
O48 Zn42 1.920 . S
O48 C61 1.234 . S
C49 O54 1.167 . S
C49 O55 1.299 . S
O50 Zn44 2.114 1_565 S
O50 C45 1.166 . S
O51 Zn43 1.905 . S
O51 C45 1.182 . S
O52 Zn43 1.898 . S
O52 C46 1.167 . S
O53 Zn44 2.120 1_565 S
O53 C46 1.299 . S
O54 Zn42 1.898 . S
O54 C49 1.167 . S
O55 Zn44 2.120 . S
O55 C49 1.299 . S
O56 Zn44 2.114 . S
O56 C58 1.166 . S
O57 Zn42 1.905 . S
O57 C58 1.182 . S
C58 O56 1.166 . S
C58 O57 1.182 . S
O59 Zn44 2.080 1_565 S
O59 C62 1.305 . S
O60 Zn43 1.920 . S
O60 C62 1.234 . S
C61 O47 1.305 . S
C61 O48 1.234 . S
C62 O59 1.305 . S
C62 O60 1.234 . S
Zn63 O69 1.940 1_455 S
Zn63 O75 1.932 . S
Zn63 O78 1.857 1_455 S
Zn64 O72 1.905 . S
Zn64 O73 1.898 1_455 S
Zn64 O81 1.920 . S
Zn65 O68 2.080 1_455 S
Zn65 O71 2.114 . S
Zn65 O74 2.120 1_455 S
Zn65 O76 2.120 . S
Zn65 O77 2.114 1_455 S
Zn65 O80 2.080 . S
C66 O71 1.166 . S
C66 O72 1.182 . S
C67 O73 1.167 . S
C67 O74 1.299 . S
O68 Zn65 2.080 1_655 S
O68 C82 1.305 . S
O69 Zn63 1.940 1_655 S
O69 C82 1.234 . S
C70 O75 1.167 . S
C70 O76 1.299 . S
O71 Zn65 2.114 . S
O71 C66 1.166 . S
O72 Zn64 1.905 . S
O72 C66 1.182 . S
O73 Zn64 1.898 1_655 S
O73 C67 1.167 . S
O74 Zn65 2.120 1_655 S
O74 C67 1.299 . S
O75 Zn63 1.932 . S
O75 C70 1.167 . S
O76 Zn65 2.120 . S
O76 C70 1.299 . S
O77 Zn65 2.114 1_655 S
O77 C79 1.166 . S
O78 Zn63 1.857 1_655 S
O78 C79 1.182 . S
C79 O77 1.166 . S
C79 O78 1.182 . S
O80 Zn65 2.080 . S
O80 C83 1.305 . S
O81 Zn64 1.920 . S
O81 C83 1.234 . S
C82 O68 1.305 . S
C82 O69 1.234 . S
C83 O80 1.305 . S
C83 O81 1.234 . S
Zn84 O90 1.920 . S
Zn84 O96 1.898 . S
Zn84 O99 1.905 . S
Zn85 O93 1.905 . S
Zn85 O94 1.898 . S
Zn85 O102 1.920 . S
Zn86 O89 2.080 . S
Zn86 O92 2.114 . S
Zn86 O95 2.120 . S
Zn86 O97 2.120 . S
Zn86 O98 2.114 . S
Zn86 O101 2.080 . S
C87 O92 1.166 . S
C87 O93 1.182 . S
C88 O94 1.167 . S
C88 O95 1.299 . S
O89 Zn86 2.080 . S
O89 C103 1.305 . S
O90 Zn84 1.920 . S
O90 C103 1.234 . S
C91 O96 1.167 . S
C91 O97 1.299 . S
O92 Zn86 2.114 . S
O92 C87 1.166 . S
O93 Zn85 1.905 . S
O93 C87 1.182 . S
O94 Zn85 1.898 . S
O94 C88 1.167 . S
O95 Zn86 2.120 . S
O95 C88 1.299 . S
O96 Zn84 1.898 . S
O96 C91 1.167 . S
O97 Zn86 2.120 . S
O97 C91 1.299 . S
O98 Zn86 2.114 . S
O98 C100 1.166 . S
O99 Zn84 1.905 . S
O99 C100 1.182 . S
C100 O98 1.166 . S
C100 O99 1.182 . S
O101 Zn86 2.080 . S
O101 C104 1.305 . S
O102 Zn85 1.920 . S
O102 C104 1.234 . S
C103 O89 1.305 . S
C103 O90 1.234 . S
C104 O101 1.305 . S
C104 O102 1.234 . S
Zn105 O111 1.920 . S
Zn105 O117 1.898 1_545 S
Zn105 O120 1.905 . S
Zn106 O114 1.857 1_545 S
Zn106 O115 1.932 . S
Zn106 O123 1.940 1_545 S
Zn107 O110 2.080 . S
Zn107 O113 2.114 1_545 S
Zn107 O116 2.120 . S
Zn107 O118 2.120 1_545 S
Zn107 O119 2.114 . S
Zn107 O122 2.080 1_545 S
C108 O113 1.166 . S
C108 O114 1.182 . S
C109 O115 1.167 . S
C109 O116 1.299 . S
O110 Zn107 2.080 . S
O110 C124 1.305 . S
O111 Zn105 1.920 . S
O111 C124 1.234 . S
C112 O117 1.167 . S
C112 O118 1.299 . S
O113 Zn107 2.114 1_565 S
O113 C108 1.166 . S
O114 Zn106 1.857 1_565 S
O114 C108 1.182 . S
O115 Zn106 1.932 . S
O115 C109 1.167 . S
O116 Zn107 2.120 . S
O116 C109 1.299 . S
O117 Zn105 1.898 1_565 S
O117 C112 1.167 . S
O118 Zn107 2.120 1_565 S
O118 C112 1.299 . S
O119 Zn107 2.114 . S
O119 C121 1.166 . S
O120 Zn105 1.905 . S
O120 C121 1.182 . S
C121 O119 1.166 . S
C121 O120 1.182 . S
O122 Zn107 2.080 1_565 S
O122 C125 1.305 . S
O123 Zn106 1.940 1_565 S
O123 C125 1.234 . S
C124 O110 1.305 . S
C124 O111 1.234 . S
C125 O122 1.305 . S
C125 O123 1.234 . S
Zn126 O132 1.920 . S
Zn126 O138 1.898 . S
Zn126 O141 1.905 . S
Zn127 O135 1.905 1_554 S
Zn127 O136 1.898 . S
Zn127 O144 1.920 . S
Zn128 O131 2.080 . S
Zn128 O134 2.114 . S
Zn128 O137 2.120 . S
Zn128 O139 2.120 . S
Zn128 O140 2.114 . S
Zn128 O143 2.080 . S
C129 O134 1.166 1_556 S
C129 O135 1.182 . S
C130 O136 1.167 . S
C130 O137 1.299 . S
O131 Zn128 2.080 . S
O131 C145 1.305 . S
O132 Zn126 1.920 . S
O132 C145 1.234 . S
C133 O138 1.167 1_556 S
C133 O139 1.299 1_556 S
O134 Zn128 2.114 . S
O134 C129 1.166 1_554 S
O135 Zn127 1.905 1_556 S
O135 C129 1.182 . S
O136 Zn127 1.898 . S
O136 C130 1.167 . S
O137 Zn128 2.120 . S
O137 C130 1.299 . S
O138 Zn126 1.898 . S
O138 C133 1.167 1_554 S
O139 Zn128 2.120 . S
O139 C133 1.299 1_554 S
O140 Zn128 2.114 . S
O140 C142 1.166 . S
O141 Zn126 1.905 . S
O141 C142 1.182 . S
C142 O140 1.166 . S
C142 O141 1.182 . S
O143 Zn128 2.080 . S
O143 C146 1.305 . S
O144 Zn127 1.920 . S
O144 C146 1.234 . S
C145 O131 1.305 . S
C145 O132 1.234 . S
C146 O143 1.305 . S
C146 O144 1.234 . S
Zn147 O153 1.920 . S
Zn147 O159 1.898 . S
Zn147 O162 1.905 . S
Zn148 O156 1.905 1_554 S
Zn148 O157 1.898 . S
Zn148 O165 1.920 . S
Zn149 O152 2.080 . S
Zn149 O155 2.114 . S
Zn149 O158 2.120 . S
Zn149 O160 2.120 . S
Zn149 O161 2.114 . S
Zn149 O164 2.080 . S
C150 O155 1.166 1_556 S
C150 O156 1.182 . S
C151 O157 1.167 . S
C151 O158 1.299 . S
O152 Zn149 2.080 . S
O152 C166 1.305 . S
O153 Zn147 1.920 . S
O153 C166 1.234 . S
C154 O159 1.167 1_556 S
C154 O160 1.299 1_556 S
O155 Zn149 2.114 . S
O155 C150 1.166 1_554 S
O156 Zn148 1.905 1_556 S
O156 C150 1.182 . S
O157 Zn148 1.898 . S
O157 C151 1.167 . S
O158 Zn149 2.120 . S
O158 C151 1.299 . S
O159 Zn147 1.898 . S
O159 C154 1.167 1_554 S
O160 Zn149 2.120 . S
O160 C154 1.299 1_554 S
O161 Zn149 2.114 . S
O161 C163 1.166 . S
O162 Zn147 1.905 . S
O162 C163 1.182 . S
C163 O161 1.166 . S
C163 O162 1.182 . S
O164 Zn149 2.080 . S
O164 C167 1.305 . S
O165 Zn148 1.920 . S
O165 C167 1.234 . S
C166 O152 1.305 . S
C166 O153 1.234 . S
C167 O164 1.305 . S
C167 O165 1.234 . S
Zn168 O174 1.920 . S
Zn168 O180 1.898 . S
Zn168 O183 1.905 . S
Zn169 O177 1.905 1_554 S
Zn169 O178 1.898 . S
Zn169 O186 1.920 . S
Zn170 O173 2.080 . S
Zn170 O176 2.114 . S
Zn170 O179 2.120 . S
Zn170 O181 2.120 . S
Zn170 O182 2.114 . S
Zn170 O185 2.080 . S
C171 O176 1.166 1_556 S
C171 O177 1.182 . S
C172 O178 1.167 . S
C172 O179 1.299 . S
O173 Zn170 2.080 . S
O173 C187 1.305 . S
O174 Zn168 1.920 . S
O174 C187 1.234 . S
C175 O180 1.167 1_556 S
C175 O181 1.299 1_556 S
O176 Zn170 2.114 . S
O176 C171 1.166 1_554 S
O177 Zn169 1.905 1_556 S
O177 C171 1.182 . S
O178 Zn169 1.898 . S
O178 C172 1.167 . S
O179 Zn170 2.120 . S
O179 C172 1.299 . S
O180 Zn168 1.898 . S
O180 C175 1.167 1_554 S
O181 Zn170 2.120 . S
O181 C175 1.299 1_554 S
O182 Zn170 2.114 . S
O182 C184 1.166 . S
O183 Zn168 1.905 . S
O183 C184 1.182 . S
C184 O182 1.166 . S
C184 O183 1.182 . S
O185 Zn170 2.080 . S
O185 C188 1.305 . S
O186 Zn169 1.920 . S
O186 C188 1.234 . S
C187 O173 1.305 . S
C187 O174 1.234 . S
C188 O185 1.305 . S
C188 O186 1.234 . S
Zn189 O195 1.920 . S
Zn189 O201 1.898 . S
Zn189 O204 1.905 . S
Zn190 O198 1.905 . S
Zn190 O199 1.898 . S
Zn190 O207 1.920 . S
Zn191 O194 2.080 . S
Zn191 O197 2.114 . S
Zn191 O200 2.120 . S
Zn191 O202 2.120 . S
Zn191 O203 2.114 . S
Zn191 O206 2.080 . S
C192 O197 1.166 . S
C192 O198 1.182 . S
C193 O199 1.167 . S
C193 O200 1.299 . S
O194 Zn191 2.080 . S
O194 C208 1.305 . S
O195 Zn189 1.920 . S
O195 C208 1.234 . S
C196 O201 1.167 . S
C196 O202 1.299 . S
O197 Zn191 2.114 . S
O197 C192 1.166 . S
O198 Zn190 1.905 . S
O198 C192 1.182 . S
O199 Zn190 1.898 . S
O199 C193 1.167 . S
O200 Zn191 2.120 . S
O200 C193 1.299 . S
O201 Zn189 1.898 . S
O201 C196 1.167 . S
O202 Zn191 2.120 . S
O202 C196 1.299 . S
O203 Zn191 2.114 . S
O203 C205 1.166 . S
O204 Zn189 1.905 . S
O204 C205 1.182 . S
C205 O203 1.166 . S
C205 O204 1.182 . S
O206 Zn191 2.080 . S
O206 C209 1.305 . S
O207 Zn190 1.920 . S
O207 C209 1.234 . S
C208 O194 1.305 . S
C208 O195 1.234 . S
C209 O206 1.305 . S
C209 O207 1.234 . S
Zn210 O216 1.920 . S
Zn210 O222 1.898 . S
Zn210 O225 1.905 . S
Zn211 O219 1.905 . S
Zn211 O220 1.898 . S
Zn211 O228 1.920 . S
Zn212 O215 2.080 . S
Zn212 O218 2.114 . S
Zn212 O221 2.120 . S
Zn212 O223 2.120 . S
Zn212 O224 2.114 . S
Zn212 O227 2.080 . S
C213 O218 1.166 . S
C213 O219 1.182 . S
C214 O220 1.167 . S
C214 O221 1.299 . S
O215 Zn212 2.080 . S
O215 C229 1.305 . S
O216 Zn210 1.920 . S
O216 C229 1.234 . S
C217 O222 1.167 . S
C217 O223 1.299 . S
O218 Zn212 2.114 . S
O218 C213 1.166 . S
O219 Zn211 1.905 . S
O219 C213 1.182 . S
O220 Zn211 1.898 . S
O220 C214 1.167 . S
O221 Zn212 2.120 . S
O221 C214 1.299 . S
O222 Zn210 1.898 . S
O222 C217 1.167 . S
O223 Zn212 2.120 . S
O223 C217 1.299 . S
O224 Zn212 2.114 . S
O224 C226 1.166 . S
O225 Zn210 1.905 . S
O225 C226 1.182 . S
C226 O224 1.166 . S
C226 O225 1.182 . S
O227 Zn212 2.080 . S
O227 C230 1.305 . S
O228 Zn211 1.920 . S
O228 C230 1.234 . S
C229 O215 1.305 . S
C229 O216 1.234 . S
C230 O227 1.305 . S
C230 O228 1.234 . S
Zn231 O237 1.920 . S
Zn231 O243 1.898 . S
Zn231 O246 1.905 . S
Zn232 O240 1.905 . S
Zn232 O241 1.898 . S
Zn232 O249 1.920 . S
Zn233 O236 2.080 . S
Zn233 O239 2.114 . S
Zn233 O242 2.120 . S
Zn233 O244 2.120 . S
Zn233 O245 2.114 . S
Zn233 O248 2.080 . S
C234 O239 1.166 . S
C234 O240 1.182 . S
C235 O241 1.167 . S
C235 O242 1.299 . S
O236 Zn233 2.080 . S
O236 C250 1.305 . S
O237 Zn231 1.920 . S
O237 C250 1.234 . S
C238 O243 1.167 . S
C238 O244 1.299 . S
O239 Zn233 2.114 . S
O239 C234 1.166 . S
O240 Zn232 1.905 . S
O240 C234 1.182 . S
O241 Zn232 1.898 . S
O241 C235 1.167 . S
O242 Zn233 2.120 . S
O242 C235 1.299 . S
O243 Zn231 1.898 . S
O243 C238 1.167 . S
O244 Zn233 2.120 . S
O244 C238 1.299 . S
O245 Zn233 2.114 . S
O245 C247 1.166 . S
O246 Zn231 1.905 . S
O246 C247 1.182 . S
C247 O245 1.166 . S
C247 O246 1.182 . S
O248 Zn233 2.080 . S
O248 C251 1.305 . S
O249 Zn232 1.920 . S
O249 C251 1.234 . S
C250 O236 1.305 . S
C250 O237 1.234 . S
C251 O248 1.305 . S
C251 O249 1.234 . S
Zn252 O258 1.920 . S
Zn252 O264 1.898 . S
Zn252 O267 1.905 . S
Zn253 O261 1.905 . S
Zn253 O262 1.898 . S
Zn253 O270 1.920 . S
Zn254 O257 2.080 . S
Zn254 O260 2.114 . S
Zn254 O263 2.120 . S
Zn254 O265 2.120 . S
Zn254 O266 2.114 . S
Zn254 O269 2.080 . S
C255 O260 1.166 . S
C255 O261 1.182 . S
C256 O262 1.167 . S
C256 O263 1.299 . S
O257 Zn254 2.080 . S
O257 C271 1.305 . S
O258 Zn252 1.920 . S
O258 C271 1.234 . S
C259 O264 1.167 . S
C259 O265 1.299 . S
O260 Zn254 2.114 . S
O260 C255 1.166 . S
O261 Zn253 1.905 . S
O261 C255 1.182 . S
O262 Zn253 1.898 . S
O262 C256 1.167 . S
O263 Zn254 2.120 . S
O263 C256 1.299 . S
O264 Zn252 1.898 . S
O264 C259 1.167 . S
O265 Zn254 2.120 . S
O265 C259 1.299 . S
O266 Zn254 2.114 . S
O266 C268 1.166 . S
O267 Zn252 1.905 . S
O267 C268 1.182 . S
C268 O266 1.166 . S
C268 O267 1.182 . S
O269 Zn254 2.080 . S
O269 C272 1.305 . S
O270 Zn253 1.920 . S
O270 C272 1.234 . S
C271 O257 1.305 . S
C271 O258 1.234 . S
C272 O269 1.305 . S
C272 O270 1.234 . S
Zn273 O279 1.920 . S
Zn273 O285 1.898 . S
Zn273 O288 1.905 . S
Zn274 O282 1.905 . S
Zn274 O283 1.898 . S
Zn274 O291 1.920 . S
Zn275 O278 2.080 . S
Zn275 O281 2.114 . S
Zn275 O284 2.120 . S
Zn275 O286 2.120 . S
Zn275 O287 2.114 . S
Zn275 O290 2.080 . S
C276 O281 1.166 . S
C276 O282 1.182 . S
C277 O283 1.167 . S
C277 O284 1.299 . S
O278 Zn275 2.080 . S
O278 C292 1.305 . S
O279 Zn273 1.920 . S
O279 C292 1.234 . S
C280 O285 1.167 . S
C280 O286 1.299 . S
O281 Zn275 2.114 . S
O281 C276 1.166 . S
O282 Zn274 1.905 . S
O282 C276 1.182 . S
O283 Zn274 1.898 . S
O283 C277 1.167 . S
O284 Zn275 2.120 . S
O284 C277 1.299 . S
O285 Zn273 1.898 . S
O285 C280 1.167 . S
O286 Zn275 2.120 . S
O286 C280 1.299 . S
O287 Zn275 2.114 . S
O287 C289 1.166 . S
O288 Zn273 1.905 . S
O288 C289 1.182 . S
C289 O287 1.166 . S
C289 O288 1.182 . S
O290 Zn275 2.080 . S
O290 C293 1.305 . S
O291 Zn274 1.920 . S
O291 C293 1.234 . S
C292 O278 1.305 . S
C292 O279 1.234 . S
C293 O290 1.305 . S
C293 O291 1.234 . S
Zn294 O300 1.920 . S
Zn294 O306 1.898 . S
Zn294 O309 1.905 . S
Zn295 O303 1.905 . S
Zn295 O304 1.898 . S
Zn295 O312 1.920 . S
Zn296 O299 2.080 . S
Zn296 O302 2.114 . S
Zn296 O305 2.120 . S
Zn296 O307 2.120 . S
Zn296 O308 2.114 . S
Zn296 O311 2.080 . S
C297 O302 1.166 . S
C297 O303 1.182 . S
C298 O304 1.167 . S
C298 O305 1.299 . S
O299 Zn296 2.080 . S
O299 C313 1.305 . S
O300 Zn294 1.920 . S
O300 C313 1.234 . S
C301 O306 1.167 . S
C301 O307 1.299 . S
O302 Zn296 2.114 . S
O302 C297 1.166 . S
O303 Zn295 1.905 . S
O303 C297 1.182 . S
O304 Zn295 1.898 . S
O304 C298 1.167 . S
O305 Zn296 2.120 . S
O305 C298 1.299 . S
O306 Zn294 1.898 . S
O306 C301 1.167 . S
O307 Zn296 2.120 . S
O307 C301 1.299 . S
O308 Zn296 2.114 . S
O308 C310 1.166 . S
O309 Zn294 1.905 . S
O309 C310 1.182 . S
C310 O308 1.166 . S
C310 O309 1.182 . S
O311 Zn296 2.080 . S
O311 C314 1.305 . S
O312 Zn295 1.920 . S
O312 C314 1.234 . S
C313 O299 1.305 . S
C313 O300 1.234 . S
C314 O311 1.305 . S
C314 O312 1.234 . S
Zn315 O321 1.920 . S
Zn315 O327 1.898 . S
Zn315 O330 1.905 . S
Zn316 O324 1.905 . S
Zn316 O325 1.898 . S
Zn316 O333 1.920 . S
Zn317 O320 2.080 . S
Zn317 O323 2.114 . S
Zn317 O326 2.120 . S
Zn317 O328 2.120 . S
Zn317 O329 2.114 . S
Zn317 O332 2.080 . S
C318 O323 1.166 . S
C318 O324 1.182 . S
C319 O325 1.167 . S
C319 O326 1.299 . S
O320 Zn317 2.080 . S
O320 C334 1.305 1_556 S
O321 Zn315 1.920 . S
O321 C334 1.234 . S
C322 O327 1.167 . S
C322 O328 1.299 1_554 S
O323 Zn317 2.114 . S
O323 C318 1.166 . S
O324 Zn316 1.905 . S
O324 C318 1.182 . S
O325 Zn316 1.898 . S
O325 C319 1.167 . S
O326 Zn317 2.120 . S
O326 C319 1.299 . S
O327 Zn315 1.898 . S
O327 C322 1.167 . S
O328 Zn317 2.120 . S
O328 C322 1.299 1_556 S
O329 Zn317 2.114 . S
O329 C331 1.166 1_556 S
O330 Zn315 1.905 . S
O330 C331 1.182 . S
C331 O329 1.166 1_554 S
C331 O330 1.182 . S
O332 Zn317 2.080 . S
O332 C335 1.305 . S
O333 Zn316 1.920 . S
O333 C335 1.234 . S
C334 O320 1.305 1_554 S
C334 O321 1.234 . S
C335 O332 1.305 . S
C335 O333 1.234 . S
Zn336 O342 1.920 . S
Zn336 O348 1.898 . S
Zn336 O351 1.905 . S
Zn337 O345 1.905 . S
Zn337 O346 1.898 . S
Zn337 O354 1.920 . S
Zn338 O341 2.080 . S
Zn338 O344 2.114 . S
Zn338 O347 2.120 . S
Zn338 O349 2.120 . S
Zn338 O350 2.114 . S
Zn338 O353 2.080 . S
C339 O344 1.166 . S
C339 O345 1.182 . S
C340 O346 1.167 . S
C340 O347 1.299 . S
O341 Zn338 2.080 . S
O341 C355 1.305 1_556 S
O342 Zn336 1.920 . S
O342 C355 1.234 . S
C343 O348 1.167 . S
C343 O349 1.299 1_554 S
O344 Zn338 2.114 . S
O344 C339 1.166 . S
O345 Zn337 1.905 . S
O345 C339 1.182 . S
O346 Zn337 1.898 . S
O346 C340 1.167 . S
O347 Zn338 2.120 . S
O347 C340 1.299 . S
O348 Zn336 1.898 . S
O348 C343 1.167 . S
O349 Zn338 2.120 . S
O349 C343 1.299 1_556 S
O350 Zn338 2.114 . S
O350 C352 1.166 1_556 S
O351 Zn336 1.905 . S
O351 C352 1.182 . S
C352 O350 1.166 1_554 S
C352 O351 1.182 . S
O353 Zn338 2.080 . S
O353 C356 1.305 . S
O354 Zn337 1.920 . S
O354 C356 1.234 . S
C355 O341 1.305 1_554 S
C355 O342 1.234 . S
C356 O353 1.305 . S
C356 O354 1.234 . S
Zn357 O363 1.920 . S
Zn357 O369 1.898 . S
Zn357 O372 1.905 . S
Zn358 O366 1.905 . S
Zn358 O367 1.898 . S
Zn358 O375 1.920 . S
Zn359 O362 2.080 . S
Zn359 O365 2.114 . S
Zn359 O368 2.120 . S
Zn359 O370 2.120 . S
Zn359 O371 2.114 . S
Zn359 O374 2.080 . S
C360 O365 1.166 . S
C360 O366 1.182 . S
C361 O367 1.167 . S
C361 O368 1.299 . S
O362 Zn359 2.080 . S
O362 C376 1.305 1_556 S
O363 Zn357 1.920 . S
O363 C376 1.234 . S
C364 O369 1.167 . S
C364 O370 1.299 1_554 S
O365 Zn359 2.114 . S
O365 C360 1.166 . S
O366 Zn358 1.905 . S
O366 C360 1.182 . S
O367 Zn358 1.898 . S
O367 C361 1.167 . S
O368 Zn359 2.120 . S
O368 C361 1.299 . S
O369 Zn357 1.898 . S
O369 C364 1.167 . S
O370 Zn359 2.120 . S
O370 C364 1.299 1_556 S
O371 Zn359 2.114 . S
O371 C373 1.166 1_556 S
O372 Zn357 1.905 . S
O372 C373 1.182 . S
C373 O371 1.166 1_554 S
C373 O372 1.182 . S
O374 Zn359 2.080 . S
O374 C377 1.305 . S
O375 Zn358 1.920 . S
O375 C377 1.234 . S
C376 O362 1.305 1_554 S
C376 O363 1.234 . S
C377 O374 1.305 . S
C377 O375 1.234 . S
H378 C386 0.950 . S
H379 C391 0.950 . S
H380 C388 0.950 . S
H381 C390 0.950 . S
H382 C392 0.950 . S
H383 C394 0.950 . S
H384 C396 0.950 . S
H385 C397 0.950 . S
C386 H378 0.950 . S
C386 C387 1.386 . S
C386 C388 1.391 . S
C387 C386 1.386 . S
C387 C391 1.393 . S
C388 H380 0.950 . S
C388 C386 1.391 . S
C388 C389 1.400 . S
C389 C388 1.400 . S
C389 C390 1.398 . S
C389 C395 1.491 . S
C390 H381 0.950 . S
C390 C389 1.398 . S
C390 C391 1.391 . S
C391 H379 0.950 . S
C391 C387 1.393 . S
C391 C390 1.391 . S
C392 H382 0.950 . S
C392 C393 1.386 . S
C392 C394 1.391 . S
C393 C392 1.386 . S
C393 C397 1.393 . S
C394 H383 0.950 . S
C394 C392 1.391 . S
C394 C395 1.400 . S
C395 C389 1.491 . S
C395 C394 1.400 . S
C395 C396 1.398 . S
C396 H384 0.950 . S
C396 C395 1.398 . S
C396 C397 1.391 . S
C397 H385 0.950 . S
C397 C393 1.393 . S
C397 C396 1.391 . S
H398 C406 0.950 . S
H399 C411 0.950 . S
H400 C408 0.950 . S
H401 C410 0.950 . S
H402 C412 0.950 . S
H403 C414 0.950 . S
H404 C416 0.950 . S
H405 C417 0.950 . S
C406 H398 0.950 . S
C406 C407 1.386 . S
C406 C408 1.391 . S
C407 C406 1.386 . S
C407 C411 1.393 . S
C408 H400 0.950 . S
C408 C406 1.391 . S
C408 C409 1.400 . S
C409 C408 1.400 . S
C409 C410 1.398 . S
C409 C415 1.491 . S
C410 H401 0.950 . S
C410 C409 1.398 . S
C410 C411 1.391 . S
C411 H399 0.950 . S
C411 C407 1.393 . S
C411 C410 1.391 . S
C412 H402 0.950 . S
C412 C413 1.386 . S
C412 C414 1.391 . S
C413 C412 1.386 . S
C413 C417 1.393 . S
C414 H403 0.950 . S
C414 C412 1.391 . S
C414 C415 1.400 . S
C415 C409 1.491 . S
C415 C414 1.400 . S
C415 C416 1.398 . S
C416 H404 0.950 . S
C416 C415 1.398 . S
C416 C417 1.391 . S
C417 H405 0.950 . S
C417 C413 1.393 . S
C417 C416 1.391 . S
H418 C426 0.950 . S
H419 C431 0.950 . S
H420 C428 0.950 . S
H421 C430 0.950 . S
H422 C432 0.950 . S
H423 C434 0.950 . S
H424 C436 0.950 . S
H425 C437 0.950 . S
C426 H418 0.950 . S
C426 C427 1.386 . S
C426 C428 1.391 . S
C427 C426 1.386 . S
C427 C431 1.393 . S
C428 H420 0.950 . S
C428 C426 1.391 . S
C428 C429 1.400 . S
C429 C428 1.400 . S
C429 C430 1.398 . S
C429 C435 1.491 . S
C430 H421 0.950 . S
C430 C429 1.398 . S
C430 C431 1.391 . S
C431 H419 0.950 . S
C431 C427 1.393 . S
C431 C430 1.391 . S
C432 H422 0.950 . S
C432 C433 1.386 . S
C432 C434 1.391 . S
C433 C432 1.386 . S
C433 C437 1.393 . S
C434 H423 0.950 . S
C434 C432 1.391 . S
C434 C435 1.400 . S
C435 C429 1.491 . S
C435 C434 1.400 . S
C435 C436 1.398 . S
C436 H424 0.950 . S
C436 C435 1.398 . S
C436 C437 1.391 . S
C437 H425 0.950 . S
C437 C433 1.393 . S
C437 C436 1.391 . S
H438 C446 0.950 . S
H439 C451 0.950 . S
H440 C448 0.950 . S
H441 C450 0.950 . S
H442 C452 0.950 . S
H443 C454 0.950 . S
H444 C456 0.950 . S
H445 C457 0.950 . S
C446 H438 0.950 . S
C446 C447 1.386 . S
C446 C448 1.391 . S
C447 C446 1.386 . S
C447 C451 1.393 . S
C448 H440 0.950 . S
C448 C446 1.391 . S
C448 C449 1.400 . S
C449 C448 1.400 . S
C449 C450 1.398 . S
C449 C455 1.491 1_556 S
C450 H441 0.950 . S
C450 C449 1.398 . S
C450 C451 1.391 . S
C451 H439 0.950 . S
C451 C447 1.393 . S
C451 C450 1.391 . S
C452 H442 0.950 . S
C452 C453 1.386 . S
C452 C454 1.391 . S
C453 C452 1.386 . S
C453 C457 1.393 . S
C454 H443 0.950 . S
C454 C452 1.391 . S
C454 C455 1.400 . S
C455 C449 1.491 1_554 S
C455 C454 1.400 . S
C455 C456 1.398 . S
C456 H444 0.950 . S
C456 C455 1.398 . S
C456 C457 1.391 . S
C457 H445 0.950 . S
C457 C453 1.393 . S
C457 C456 1.391 . S
H458 C466 0.950 . S
H459 C471 0.950 . S
H460 C468 0.950 . S
H461 C470 0.950 . S
H462 C472 0.950 . S
H463 C474 0.950 . S
H464 C476 0.950 . S
H465 C477 0.950 . S
C466 H458 0.950 . S
C466 C467 1.386 . S
C466 C468 1.391 . S
C467 C466 1.386 . S
C467 C471 1.393 . S
C468 H460 0.950 . S
C468 C466 1.391 . S
C468 C469 1.400 . S
C469 C468 1.400 . S
C469 C470 1.398 . S
C469 C475 1.491 1_554 S
C470 H461 0.950 . S
C470 C469 1.398 . S
C470 C471 1.391 . S
C471 H459 0.950 . S
C471 C467 1.393 . S
C471 C470 1.391 . S
C472 H462 0.950 . S
C472 C473 1.386 . S
C472 C474 1.391 . S
C473 C472 1.386 . S
C473 C477 1.393 . S
C474 H463 0.950 . S
C474 C472 1.391 . S
C474 C475 1.400 . S
C475 C469 1.491 1_556 S
C475 C474 1.400 . S
C475 C476 1.398 . S
C476 H464 0.950 . S
C476 C475 1.398 . S
C476 C477 1.391 . S
C477 H465 0.950 . S
C477 C473 1.393 . S
C477 C476 1.391 . S
H478 C486 0.950 . S
H479 C491 0.950 . S
H480 C488 0.950 . S
H481 C490 0.950 . S
H482 C492 0.950 . S
H483 C494 0.950 . S
H484 C496 0.950 . S
H485 C497 0.950 . S
C486 H478 0.950 . S
C486 C487 1.386 . S
C486 C488 1.391 . S
C487 C486 1.386 . S
C487 C491 1.393 . S
C488 H480 0.950 . S
C488 C486 1.391 . S
C488 C489 1.400 . S
C489 C488 1.400 . S
C489 C490 1.398 . S
C489 C495 1.491 1_556 S
C490 H481 0.950 . S
C490 C489 1.398 . S
C490 C491 1.391 . S
C491 H479 0.950 . S
C491 C487 1.393 . S
C491 C490 1.391 . S
C492 H482 0.950 . S
C492 C493 1.386 . S
C492 C494 1.391 . S
C493 C492 1.386 . S
C493 C497 1.393 . S
C494 H483 0.950 . S
C494 C492 1.391 . S
C494 C495 1.400 . S
C495 C489 1.491 1_554 S
C495 C494 1.400 . S
C495 C496 1.398 . S
C496 H484 0.950 . S
C496 C495 1.398 . S
C496 C497 1.391 . S
C497 H485 0.950 . S
C497 C493 1.393 . S
C497 C496 1.391 . S
H498 C506 0.950 . S
H499 C511 0.950 . S
H500 C508 0.950 . S
H501 C510 0.950 . S
H502 C512 0.950 . S
H503 C514 0.950 . S
H504 C516 0.950 . S
H505 C517 0.950 . S
C506 H498 0.950 . S
C506 C507 1.386 . S
C506 C508 1.391 . S
C507 C506 1.386 . S
C507 C511 1.393 . S
C508 H500 0.950 . S
C508 C506 1.391 . S
C508 C509 1.400 . S
C509 C508 1.400 . S
C509 C510 1.398 . S
C509 C515 1.491 . S
C510 H501 0.950 . S
C510 C509 1.398 . S
C510 C511 1.391 . S
C511 H499 0.950 . S
C511 C507 1.393 . S
C511 C510 1.391 . S
C512 H502 0.950 . S
C512 C513 1.386 . S
C512 C514 1.391 . S
C513 C512 1.386 . S
C513 C517 1.393 . S
C514 H503 0.950 . S
C514 C512 1.391 . S
C514 C515 1.400 . S
C515 C509 1.491 . S
C515 C514 1.400 . S
C515 C516 1.398 . S
C516 H504 0.950 . S
C516 C515 1.398 . S
C516 C517 1.391 . S
C517 H505 0.950 . S
C517 C513 1.393 . S
C517 C516 1.391 . S
H518 C526 0.950 . S
H519 C531 0.950 . S
H520 C528 0.950 . S
H521 C530 0.950 . S
H522 C532 0.950 . S
H523 C534 0.950 . S
H524 C536 0.950 . S
H525 C537 0.950 . S
C526 H518 0.950 . S
C526 C527 1.386 . S
C526 C528 1.391 . S
C527 C526 1.386 . S
C527 C531 1.393 . S
C528 H520 0.950 . S
C528 C526 1.391 . S
C528 C529 1.400 . S
C529 C528 1.400 . S
C529 C530 1.398 . S
C529 C535 1.491 . S
C530 H521 0.950 . S
C530 C529 1.398 . S
C530 C531 1.391 . S
C531 H519 0.950 . S
C531 C527 1.393 . S
C531 C530 1.391 . S
C532 H522 0.950 . S
C532 C533 1.386 . S
C532 C534 1.391 . S
C533 C532 1.386 . S
C533 C537 1.393 . S
C534 H523 0.950 . S
C534 C532 1.391 . S
C534 C535 1.400 . S
C535 C529 1.491 . S
C535 C534 1.400 . S
C535 C536 1.398 . S
C536 H524 0.950 . S
C536 C535 1.398 . S
C536 C537 1.391 . S
C537 H525 0.950 . S
C537 C533 1.393 . S
C537 C536 1.391 . S
H538 C546 0.950 . S
H539 C551 0.950 . S
H540 C548 0.950 . S
H541 C550 0.950 . S
H542 C552 0.950 . S
H543 C554 0.950 . S
H544 C556 0.950 . S
H545 C557 0.950 . S
C546 H538 0.950 . S
C546 C547 1.386 . S
C546 C548 1.391 . S
C547 C546 1.386 . S
C547 C551 1.393 . S
C548 H540 0.950 . S
C548 C546 1.391 . S
C548 C549 1.400 . S
C549 C548 1.400 . S
C549 C550 1.398 . S
C549 C555 1.491 . S
C550 H541 0.950 . S
C550 C549 1.398 . S
C550 C551 1.391 . S
C551 H539 0.950 . S
C551 C547 1.393 . S
C551 C550 1.391 . S
C552 H542 0.950 . S
C552 C553 1.386 . S
C552 C554 1.391 . S
C553 C552 1.386 . S
C553 C557 1.393 . S
C554 H543 0.950 . S
C554 C552 1.391 . S
C554 C555 1.400 . S
C555 C549 1.491 . S
C555 C554 1.400 . S
C555 C556 1.398 . S
C556 H544 0.950 . S
C556 C555 1.398 . S
C556 C557 1.391 . S
C557 H545 0.950 . S
C557 C553 1.393 . S
C557 C556 1.391 . S
H558 C566 0.950 . S
H559 C571 0.950 . S
H560 C568 0.950 . S
H561 C570 0.950 . S
H562 C572 0.950 . S
H563 C574 0.950 . S
H564 C576 0.950 . S
H565 C577 0.950 . S
C566 H558 0.950 . S
C566 C567 1.386 . S
C566 C568 1.391 . S
C567 C566 1.386 . S
C567 C571 1.393 . S
C568 H560 0.950 . S
C568 C566 1.391 . S
C568 C569 1.400 . S
C569 C568 1.400 . S
C569 C570 1.398 . S
C569 C575 1.482 1_554 S
C570 H561 0.950 . S
C570 C569 1.398 . S
C570 C571 1.391 . S
C571 H559 0.950 . S
C571 C567 1.393 . S
C571 C570 1.391 . S
C572 H562 0.950 . S
C572 C573 1.386 . S
C572 C574 1.391 . S
C573 C572 1.386 . S
C573 C577 1.393 . S
C574 H563 0.950 . S
C574 C572 1.391 . S
C574 C575 1.404 . S
C575 C569 1.482 1_556 S
C575 C574 1.404 . S
C575 C576 1.404 . S
C576 H564 0.950 . S
C576 C575 1.404 . S
C576 C577 1.391 . S
C577 H565 0.950 . S
C577 C573 1.393 . S
C577 C576 1.391 . S
H578 C586 0.950 . S
H579 C591 0.950 . S
H580 C588 0.950 . S
H581 C590 0.950 . S
H582 C592 0.950 . S
H583 C594 0.950 . S
H584 C596 0.950 1_556 S
H585 C597 0.950 . S
C586 H578 0.950 . S
C586 C587 1.386 . S
C586 C588 1.391 . S
C587 C586 1.386 . S
C587 C591 1.393 . S
C588 H580 0.950 . S
C588 C586 1.391 . S
C588 C589 1.388 1_556 S
C589 C588 1.388 1_554 S
C589 C590 1.402 . S
C589 C595 1.499 . S
C590 H581 0.950 . S
C590 C589 1.402 . S
C590 C591 1.391 1_554 S
C591 H579 0.950 . S
C591 C587 1.393 . S
C591 C590 1.391 1_556 S
C592 H582 0.950 . S
C592 C593 1.386 . S
C592 C594 1.391 . S
C593 C592 1.386 . S
C593 C597 1.393 . S
C594 H583 0.950 . S
C594 C592 1.391 . S
C594 C595 1.400 . S
C595 C589 1.499 . S
C595 C594 1.400 . S
C595 C596 1.398 . S
C596 H584 0.950 1_554 S
C596 C595 1.398 . S
C596 C597 1.391 . S
C597 H585 0.950 . S
C597 C593 1.393 . S
C597 C596 1.391 . S
H598 C606 0.950 . S
H599 C611 0.950 . S
H600 C608 0.950 . S
H601 C610 0.950 . S
H602 C612 0.950 . S
H603 C614 0.950 . S
H604 C616 0.950 . S
H605 C617 0.950 . S
C606 H598 0.950 . S
C606 C607 1.386 . S
C606 C608 1.391 . S
C607 C606 1.386 . S
C607 C611 1.393 . S
C608 H600 0.950 . S
C608 C606 1.391 . S
C608 C609 1.405 . S
C609 C608 1.405 . S
C609 C610 1.402 . S
C609 C615 1.483 1_556 S
C610 H601 0.950 . S
C610 C609 1.402 . S
C610 C611 1.391 . S
C611 H599 0.950 . S
C611 C607 1.393 . S
C611 C610 1.391 . S
C612 H602 0.950 . S
C612 C613 1.386 . S
C612 C614 1.391 . S
C613 C612 1.386 . S
C613 C617 1.393 . S
C614 H603 0.950 . S
C614 C612 1.391 . S
C614 C615 1.400 . S
C615 C609 1.483 1_554 S
C615 C614 1.400 . S
C615 C616 1.398 . S
C616 H604 0.950 . S
C616 C615 1.398 . S
C616 C617 1.391 . S
C617 H605 0.950 . S
C617 C613 1.393 . S
C617 C616 1.391 . S
H618 C626 0.950 . S
H619 C631 0.950 . S
H620 C628 0.950 . S
H621 C630 0.950 . S
H622 C632 0.950 . S
H623 C634 0.950 . S
H624 C636 0.950 . S
H625 C637 0.950 1_554 S
C626 H618 0.950 . S
C626 C627 1.386 . S
C626 C628 1.391 . S
C627 C626 1.386 . S
C627 C631 1.393 . S
C628 H620 0.950 . S
C628 C626 1.391 . S
C628 C629 1.400 . S
C629 C628 1.400 . S
C629 C630 1.398 . S
C629 C635 1.491 . S
C630 H621 0.950 . S
C630 C629 1.398 . S
C630 C631 1.391 . S
C631 H619 0.950 . S
C631 C627 1.393 . S
C631 C630 1.391 . S
C632 H622 0.950 . S
C632 C633 1.386 . S
C632 C634 1.391 . S
C633 C632 1.386 . S
C633 C637 1.393 . S
C634 H623 0.950 . S
C634 C632 1.391 . S
C634 C635 1.400 . S
C635 C629 1.491 . S
C635 C634 1.400 . S
C635 C636 1.398 . S
C636 H624 0.950 . S
C636 C635 1.398 . S
C636 C637 1.391 . S
C637 H625 0.950 1_556 S
C637 C633 1.393 . S
C637 C636 1.391 . S
H638 C646 0.950 . S
H639 C651 0.950 . S
H640 C648 0.950 . S
H641 C650 0.950 . S
H642 C652 0.950 . S
H643 C654 0.950 . S
H644 C656 0.950 . S
H645 C657 0.950 . S
C646 H638 0.950 . S
C646 C647 1.386 . S
C646 C648 1.391 . S
C647 C646 1.386 . S
C647 C651 1.393 . S
C648 H640 0.950 . S
C648 C646 1.391 . S
C648 C649 1.400 . S
C649 C648 1.400 . S
C649 C650 1.398 . S
C649 C655 1.491 . S
C650 H641 0.950 . S
C650 C649 1.398 . S
C650 C651 1.391 . S
C651 H639 0.950 . S
C651 C647 1.393 . S
C651 C650 1.391 . S
C652 H642 0.950 . S
C652 C653 1.386 . S
C652 C654 1.391 . S
C653 C652 1.386 . S
C653 C657 1.393 . S
C654 H643 0.950 . S
C654 C652 1.391 . S
C654 C655 1.400 . S
C655 C649 1.491 . S
C655 C654 1.400 . S
C655 C656 1.398 . S
C656 H644 0.950 . S
C656 C655 1.398 . S
C656 C657 1.391 . S
C657 H645 0.950 . S
C657 C653 1.393 . S
C657 C656 1.391 . S
H658 C666 0.950 . S
H659 C671 0.950 . S
H660 C668 0.950 . S
H661 C670 0.950 . S
H662 C672 0.950 . S
H663 C674 0.950 . S
H664 C676 0.950 . S
H665 C677 0.950 . S
C666 H658 0.950 . S
C666 C667 1.386 . S
C666 C668 1.391 . S
C667 C666 1.386 . S
C667 C671 1.393 . S
C668 H660 0.950 . S
C668 C666 1.391 . S
C668 C669 1.400 . S
C669 C668 1.400 . S
C669 C670 1.398 . S
C669 C675 1.491 . S
C670 H661 0.950 . S
C670 C669 1.398 . S
C670 C671 1.391 . S
C671 H659 0.950 . S
C671 C667 1.393 . S
C671 C670 1.391 . S
C672 H662 0.950 . S
C672 C673 1.386 . S
C672 C674 1.391 . S
C673 C672 1.386 . S
C673 C677 1.393 . S
C674 H663 0.950 . S
C674 C672 1.391 . S
C674 C675 1.400 . S
C675 C669 1.491 . S
C675 C674 1.400 . S
C675 C676 1.398 . S
C676 H664 0.950 . S
C676 C675 1.398 . S
C676 C677 1.391 . S
C677 H665 0.950 . S
C677 C673 1.393 . S
C677 C676 1.391 . S
H678 C686 0.950 . S
H679 C691 0.950 . S
H680 C688 0.950 . S
H681 C690 0.950 . S
H682 C692 0.950 . S
H683 C694 0.950 . S
H684 C696 0.950 . S
H685 C697 0.950 . S
C686 H678 0.950 . S
C686 C687 1.386 . S
C686 C688 1.391 . S
C687 C686 1.386 . S
C687 C691 1.393 . S
C688 H680 0.950 . S
C688 C686 1.391 . S
C688 C689 1.400 . S
C689 C688 1.400 . S
C689 C690 1.398 . S
C689 C695 1.491 . S
C690 H681 0.950 . S
C690 C689 1.398 . S
C690 C691 1.391 . S
C691 H679 0.950 . S
C691 C687 1.393 . S
C691 C690 1.391 . S
C692 H682 0.950 . S
C692 C693 1.386 . S
C692 C694 1.391 . S
C693 C692 1.386 . S
C693 C697 1.393 . S
C694 H683 0.950 . S
C694 C692 1.391 . S
C694 C695 1.400 . S
C695 C689 1.491 . S
C695 C694 1.400 . S
C695 C696 1.398 . S
C696 H684 0.950 . S
C696 C695 1.398 . S
C696 C697 1.391 . S
C697 H685 0.950 . S
C697 C693 1.393 . S
C697 C696 1.391 . S
H698 C706 0.950 . S
H699 C711 0.950 . S
H700 C708 0.950 . S
H701 C710 0.950 . S
H702 C712 0.950 . S
H703 C714 0.950 . S
H704 C716 0.950 . S
H705 C717 0.950 . S
C706 H698 0.950 . S
C706 C707 1.386 . S
C706 C708 1.391 . S
C707 C706 1.386 . S
C707 C711 1.393 . S
C708 H700 0.950 . S
C708 C706 1.391 . S
C708 C709 1.400 . S
C709 C708 1.400 . S
C709 C710 1.398 . S
C709 C715 1.491 . S
C710 H701 0.950 . S
C710 C709 1.398 . S
C710 C711 1.391 . S
C711 H699 0.950 . S
C711 C707 1.393 . S
C711 C710 1.391 . S
C712 H702 0.950 . S
C712 C713 1.386 . S
C712 C714 1.391 . S
C713 C712 1.386 . S
C713 C717 1.393 . S
C714 H703 0.950 . S
C714 C712 1.391 . S
C714 C715 1.400 . S
C715 C709 1.491 . S
C715 C714 1.400 . S
C715 C716 1.398 . S
C716 H704 0.950 . S
C716 C715 1.398 . S
C716 C717 1.391 . S
C717 H705 0.950 . S
C717 C713 1.393 . S
C717 C716 1.391 . S
H718 C726 0.950 . S
H719 C731 0.950 . S
H720 C728 0.950 . S
H721 C730 0.950 . S
H722 C732 0.950 . S
H723 C734 0.950 . S
H724 C736 0.950 . S
H725 C737 0.950 . S
C726 H718 0.950 . S
C726 C727 1.386 . S
C726 C728 1.391 . S
C727 C726 1.386 . S
C727 C731 1.393 . S
C728 H720 0.950 . S
C728 C726 1.391 . S
C728 C729 1.400 . S
C729 C728 1.400 . S
C729 C730 1.398 . S
C729 C735 1.491 . S
C730 H721 0.950 . S
C730 C729 1.398 . S
C730 C731 1.391 . S
C731 H719 0.950 . S
C731 C727 1.393 . S
C731 C730 1.391 . S
C732 H722 0.950 . S
C732 C733 1.386 . S
C732 C734 1.391 . S
C733 C732 1.386 . S
C733 C737 1.393 . S
C734 H723 0.950 . S
C734 C732 1.391 . S
C734 C735 1.400 . S
C735 C729 1.491 . S
C735 C734 1.400 . S
C735 C736 1.398 . S
C736 H724 0.950 . S
C736 C735 1.398 . S
C736 C737 1.391 . S
C737 H725 0.950 . S
C737 C733 1.393 . S
C737 C736 1.391 . S
H738 C746 0.950 . S
H739 C751 0.950 . S
H740 C748 0.950 . S
H741 C750 0.950 . S
H742 C752 0.950 . S
H743 C754 0.950 . S
H744 C756 0.950 . S
H745 C757 0.950 . S
C746 H738 0.950 . S
C746 C747 1.386 . S
C746 C748 1.391 . S
C747 C746 1.386 . S
C747 C751 1.393 . S
C748 H740 0.950 . S
C748 C746 1.391 . S
C748 C749 1.400 . S
C749 C748 1.400 . S
C749 C750 1.398 . S
C749 C755 1.491 . S
C750 H741 0.950 . S
C750 C749 1.398 . S
C750 C751 1.391 . S
C751 H739 0.950 . S
C751 C747 1.393 . S
C751 C750 1.391 . S
C752 H742 0.950 . S
C752 C753 1.386 . S
C752 C754 1.391 . S
C753 C752 1.386 . S
C753 C757 1.393 . S
C754 H743 0.950 . S
C754 C752 1.391 . S
C754 C755 1.400 . S
C755 C749 1.491 . S
C755 C754 1.400 . S
C755 C756 1.398 . S
C756 H744 0.950 . S
C756 C755 1.398 . S
C756 C757 1.391 . S
C757 H745 0.950 . S
C757 C753 1.393 . S
C757 C756 1.391 . S
H758 C766 0.950 . S
H759 C771 0.950 . S
H760 C768 0.950 . S
H761 C770 0.950 . S
H762 C772 0.950 . S
H763 C774 0.950 . S
H764 C776 0.950 . S
H765 C777 0.950 . S
C766 H758 0.950 . S
C766 C767 1.386 . S
C766 C768 1.391 . S
C767 C766 1.386 . S
C767 C771 1.393 . S
C768 H760 0.950 . S
C768 C766 1.391 . S
C768 C769 1.400 . S
C769 C768 1.400 . S
C769 C770 1.398 . S
C769 C775 1.491 . S
C770 H761 0.950 . S
C770 C769 1.398 . S
C770 C771 1.391 . S
C771 H759 0.950 . S
C771 C767 1.393 . S
C771 C770 1.391 . S
C772 H762 0.950 . S
C772 C773 1.386 . S
C772 C774 1.391 . S
C773 C772 1.386 . S
C773 C777 1.393 . S
C774 H763 0.950 . S
C774 C772 1.391 . S
C774 C775 1.400 . S
C775 C769 1.491 . S
C775 C774 1.400 . S
C775 C776 1.398 . S
C776 H764 0.950 . S
C776 C775 1.398 . S
C776 C777 1.391 . S
C777 H765 0.950 . S
C777 C773 1.393 . S
C777 C776 1.391 . S
H778 C786 0.950 . S
H779 C791 0.950 . S
H780 C788 0.950 . S
H781 C790 0.950 . S
H782 C792 0.950 . S
H783 C794 0.950 . S
H784 C796 0.950 . S
H785 C797 0.950 . S
C786 H778 0.950 . S
C786 C787 1.386 . S
C786 C788 1.391 . S
C787 C786 1.386 . S
C787 C791 1.393 . S
C788 H780 0.950 . S
C788 C786 1.391 . S
C788 C789 1.400 . S
C789 C788 1.400 . S
C789 C790 1.398 . S
C789 C795 1.491 . S
C790 H781 0.950 . S
C790 C789 1.398 . S
C790 C791 1.391 . S
C791 H779 0.950 . S
C791 C787 1.393 . S
C791 C790 1.391 . S
C792 H782 0.950 . S
C792 C793 1.386 . S
C792 C794 1.391 . S
C793 C792 1.386 . S
C793 C797 1.393 . S
C794 H783 0.950 . S
C794 C792 1.391 . S
C794 C795 1.400 . S
C795 C789 1.491 . S
C795 C794 1.400 . S
C795 C796 1.398 . S
C796 H784 0.950 . S
C796 C795 1.398 . S
C796 C797 1.391 . S
C797 H785 0.950 . S
C797 C793 1.393 . S
C797 C796 1.391 . S
H798 C806 0.950 . S
H799 C811 0.950 . S
H800 C808 0.950 . S
H801 C810 0.950 . S
H802 C812 0.950 . S
H803 C814 0.950 . S
H804 C816 0.950 . S
H805 C817 0.950 . S
C806 H798 0.950 . S
C806 C807 1.386 . S
C806 C808 1.391 . S
C807 C806 1.386 . S
C807 C811 1.393 . S
C808 H800 0.950 . S
C808 C806 1.391 . S
C808 C809 1.400 . S
C809 C808 1.400 . S
C809 C810 1.398 . S
C809 C815 1.491 . S
C810 H801 0.950 . S
C810 C809 1.398 . S
C810 C811 1.391 . S
C811 H799 0.950 . S
C811 C807 1.393 . S
C811 C810 1.391 . S
C812 H802 0.950 . S
C812 C813 1.386 . S
C812 C814 1.391 . S
C813 C812 1.386 . S
C813 C817 1.393 . S
C814 H803 0.950 . S
C814 C812 1.391 . S
C814 C815 1.400 . S
C815 C809 1.491 . S
C815 C814 1.400 . S
C815 C816 1.398 . S
C816 H804 0.950 . S
C816 C815 1.398 . S
C816 C817 1.391 . S
C817 H805 0.950 . S
C817 C813 1.393 . S
C817 C816 1.391 . S
H818 C826 0.950 . S
H819 C831 0.950 . S
H820 C828 0.950 . S
H821 C830 0.950 . S
H822 C832 0.950 . S
H823 C834 0.950 . S
H824 C836 0.950 . S
H825 C837 0.950 . S
C826 H818 0.950 . S
C826 C827 1.386 . S
C826 C828 1.391 . S
C827 C826 1.386 . S
C827 C831 1.393 . S
C828 H820 0.950 . S
C828 C826 1.391 . S
C828 C829 1.400 . S
C829 C828 1.400 . S
C829 C830 1.398 . S
C829 C835 1.491 . S
C830 H821 0.950 . S
C830 C829 1.398 . S
C830 C831 1.391 . S
C831 H819 0.950 . S
C831 C827 1.393 . S
C831 C830 1.391 . S
C832 H822 0.950 . S
C832 C833 1.386 . S
C832 C834 1.391 . S
C833 C832 1.386 . S
C833 C837 1.393 . S
C834 H823 0.950 . S
C834 C832 1.391 . S
C834 C835 1.400 . S
C835 C829 1.491 . S
C835 C834 1.400 . S
C835 C836 1.398 . S
C836 H824 0.950 . S
C836 C835 1.398 . S
C836 C837 1.391 . S
C837 H825 0.950 . S
C837 C833 1.393 . S
C837 C836 1.391 . S
H838 C846 0.950 . S
H839 C851 0.950 . S
H840 C848 0.950 . S
H841 C850 0.950 . S
H842 C852 0.950 . S
H843 C854 0.950 . S
H844 C856 0.950 . S
H845 C857 0.950 . S
C846 H838 0.950 . S
C846 C847 1.386 . S
C846 C848 1.391 . S
C847 C846 1.386 . S
C847 C851 1.393 . S
C848 H840 0.950 . S
C848 C846 1.391 . S
C848 C849 1.400 . S
C849 C848 1.400 . S
C849 C850 1.398 . S
C849 C855 1.491 . S
C850 H841 0.950 . S
C850 C849 1.398 . S
C850 C851 1.391 . S
C851 H839 0.950 . S
C851 C847 1.393 . S
C851 C850 1.391 . S
C852 H842 0.950 . S
C852 C853 1.386 . S
C852 C854 1.391 . S
C853 C852 1.386 . S
C853 C857 1.393 . S
C854 H843 0.950 . S
C854 C852 1.391 . S
C854 C855 1.400 . S
C855 C849 1.491 . S
C855 C854 1.400 . S
C855 C856 1.398 . S
C856 H844 0.950 . S
C856 C855 1.398 . S
C856 C857 1.391 . S
C857 H845 0.950 . S
C857 C853 1.393 . S
C857 C856 1.391 . S
H858 C866 0.950 . S
H859 C871 0.950 . S
H860 C868 0.950 . S
H861 C870 0.950 . S
H862 C872 0.950 . S
H863 C874 0.950 . S
H864 C876 0.950 . S
H865 C877 0.950 1_556 S
C866 H858 0.950 . S
C866 C867 1.386 . S
C866 C868 1.391 . S
C867 C866 1.386 . S
C867 C871 1.393 . S
C868 H860 0.950 . S
C868 C866 1.391 . S
C868 C869 1.400 . S
C869 C868 1.400 . S
C869 C870 1.398 . S
C869 C875 1.491 . S
C870 H861 0.950 . S
C870 C869 1.398 . S
C870 C871 1.391 . S
C871 H859 0.950 . S
C871 C867 1.393 . S
C871 C870 1.391 . S
C872 H862 0.950 . S
C872 C873 1.386 . S
C872 C874 1.391 . S
C873 C872 1.386 . S
C873 C877 1.393 . S
C874 H863 0.950 . S
C874 C872 1.391 . S
C874 C875 1.400 . S
C875 C869 1.491 . S
C875 C874 1.400 . S
C875 C876 1.398 . S
C876 H864 0.950 . S
C876 C875 1.398 . S
C876 C877 1.391 . S
C877 H865 0.950 1_554 S
C877 C873 1.393 . S
C877 C876 1.391 . S
H878 C886 0.950 . S
H879 C891 0.950 . S
H880 C888 0.950 . S
H881 C890 0.950 . S
H882 C892 0.950 . S
H883 C894 0.950 . S
H884 C896 0.950 . S
H885 C897 0.950 1_556 S
C886 H878 0.950 . S
C886 C887 1.386 . S
C886 C888 1.391 . S
C887 C886 1.386 . S
C887 C891 1.393 . S
C888 H880 0.950 . S
C888 C886 1.391 . S
C888 C889 1.400 . S
C889 C888 1.400 . S
C889 C890 1.398 . S
C889 C895 1.491 . S
C890 H881 0.950 . S
C890 C889 1.398 . S
C890 C891 1.391 . S
C891 H879 0.950 . S
C891 C887 1.393 . S
C891 C890 1.391 . S
C892 H882 0.950 . S
C892 C893 1.386 . S
C892 C894 1.391 . S
C893 C892 1.386 . S
C893 C897 1.393 . S
C894 H883 0.950 . S
C894 C892 1.391 . S
C894 C895 1.400 . S
C895 C889 1.491 . S
C895 C894 1.400 . S
C895 C896 1.398 . S
C896 H884 0.950 . S
C896 C895 1.398 . S
C896 C897 1.391 . S
C897 H885 0.950 1_554 S
C897 C893 1.393 . S
C897 C896 1.391 . S
H898 C906 0.950 . S
H899 C911 0.950 . S
H900 C908 0.950 . S
H901 C910 0.950 . S
H902 C912 0.950 . S
H903 C914 0.950 . S
H904 C916 0.950 . S
H905 C917 0.950 . S
C906 H898 0.950 . S
C906 C907 1.386 . S
C906 C908 1.391 . S
C907 C906 1.386 . S
C907 C911 1.393 . S
C908 H900 0.950 . S
C908 C906 1.391 . S
C908 C909 1.400 . S
C909 C908 1.400 . S
C909 C910 1.398 . S
C909 C915 1.491 . S
C910 H901 0.950 . S
C910 C909 1.398 . S
C910 C911 1.391 . S
C911 H899 0.950 . S
C911 C907 1.393 . S
C911 C910 1.391 . S
C912 H902 0.950 . S
C912 C913 1.386 . S
C912 C914 1.391 . S
C913 C912 1.386 . S
C913 C917 1.393 . S
C914 H903 0.950 . S
C914 C912 1.391 . S
C914 C915 1.400 . S
C915 C909 1.491 . S
C915 C914 1.400 . S
C915 C916 1.398 . S
C916 H904 0.950 . S
C916 C915 1.398 . S
C916 C917 1.391 . S
C917 H905 0.950 . S
C917 C913 1.393 . S
C917 C916 1.391 . S
H918 C926 0.950 . S
H919 C931 0.950 . S
H920 C928 0.950 . S
H921 C930 0.950 . S
H922 C932 0.950 . S
H923 C934 0.950 . S
H924 C936 0.950 . S
H925 C937 0.950 . S
C926 H918 0.950 . S
C926 C927 1.386 . S
C926 C928 1.391 . S
C927 C926 1.386 . S
C927 C931 1.393 . S
C928 H920 0.950 . S
C928 C926 1.391 . S
C928 C929 1.400 . S
C929 C928 1.400 . S
C929 C930 1.398 . S
C929 C935 1.491 . S
C930 H921 0.950 . S
C930 C929 1.398 . S
C930 C931 1.391 . S
C931 H919 0.950 . S
C931 C927 1.393 . S
C931 C930 1.391 . S
C932 H922 0.950 . S
C932 C933 1.386 . S
C932 C934 1.391 . S
C933 C932 1.386 . S
C933 C937 1.393 . S
C934 H923 0.950 . S
C934 C932 1.391 . S
C934 C935 1.400 . S
C935 C929 1.491 . S
C935 C934 1.400 . S
C935 C936 1.398 . S
C936 H924 0.950 . S
C936 C935 1.398 . S
C936 C937 1.391 . S
C937 H925 0.950 . S
C937 C933 1.393 . S
C937 C936 1.391 . S
H938 C946 0.950 . S
H939 C951 0.950 . S
H940 C948 0.950 . S
H941 C950 0.950 . S
H942 C952 0.950 . S
H943 C954 0.950 . S
H944 C956 0.950 . S
H945 C957 0.950 . S
C946 H938 0.950 . S
C946 C947 1.386 . S
C946 C948 1.391 . S
C947 C946 1.386 . S
C947 C951 1.393 . S
C948 H940 0.950 . S
C948 C946 1.391 . S
C948 C949 1.400 . S
C949 C948 1.400 . S
C949 C950 1.398 . S
C949 C955 1.491 . S
C950 H941 0.950 . S
C950 C949 1.398 . S
C950 C951 1.391 . S
C951 H939 0.950 . S
C951 C947 1.393 . S
C951 C950 1.391 . S
C952 H942 0.950 . S
C952 C953 1.386 . S
C952 C954 1.391 . S
C953 C952 1.386 . S
C953 C957 1.393 . S
C954 H943 0.950 . S
C954 C952 1.391 . S
C954 C955 1.400 . S
C955 C949 1.491 . S
C955 C954 1.400 . S
C955 C956 1.398 . S
C956 H944 0.950 . S
C956 C955 1.398 . S
C956 C957 1.391 . S
C957 H945 0.950 . S
C957 C953 1.393 . S
C957 C956 1.391 . S
H958 C966 0.950 . S
H959 C971 0.950 . S
H960 C968 0.950 . S
H961 C970 0.950 . S
H962 C972 0.950 . S
H963 C974 0.950 . S
H964 C976 0.950 . S
H965 C977 0.950 . S
C966 H958 0.950 . S
C966 C967 1.386 . S
C966 C968 1.391 . S
C967 C966 1.386 . S
C967 C971 1.393 . S
C968 H960 0.950 . S
C968 C966 1.391 . S
C968 C969 1.400 . S
C969 C968 1.400 . S
C969 C970 1.398 . S
C969 C975 1.491 . S
C970 H961 0.950 . S
C970 C969 1.398 . S
C970 C971 1.391 . S
C971 H959 0.950 . S
C971 C967 1.393 . S
C971 C970 1.391 . S
C972 H962 0.950 . S
C972 C973 1.386 . S
C972 C974 1.391 . S
C973 C972 1.386 . S
C973 C977 1.393 . S
C974 H963 0.950 . S
C974 C972 1.391 . S
C974 C975 1.400 . S
C975 C969 1.491 . S
C975 C974 1.400 . S
C975 C976 1.398 . S
C976 H964 0.950 . S
C976 C975 1.398 . S
C976 C977 1.391 . S
C977 H965 0.950 . S
C977 C973 1.393 . S
C977 C976 1.391 . S
H978 C986 0.950 . S
H979 C991 0.950 . S
H980 C988 0.950 . S
H981 C990 0.950 . S
H982 C992 0.950 . S
H983 C994 0.950 . S
H984 C996 0.950 . S
H985 C997 0.950 1_556 S
C986 H978 0.950 . S
C986 C987 1.386 . S
C986 C988 1.391 . S
C987 C986 1.386 . S
C987 C991 1.393 . S
C988 H980 0.950 . S
C988 C986 1.391 . S
C988 C989 1.400 . S
C989 C988 1.400 . S
C989 C990 1.398 . S
C989 C995 1.491 . S
C990 H981 0.950 . S
C990 C989 1.398 . S
C990 C991 1.391 . S
C991 H979 0.950 . S
C991 C987 1.393 . S
C991 C990 1.391 . S
C992 H982 0.950 . S
C992 C993 1.386 . S
C992 C994 1.391 . S
C993 C992 1.386 . S
C993 C997 1.393 . S
C994 H983 0.950 . S
C994 C992 1.391 . S
C994 C995 1.400 . S
C995 C989 1.491 . S
C995 C994 1.400 . S
C995 C996 1.398 . S
C996 H984 0.950 . S
C996 C995 1.398 . S
C996 C997 1.391 . S
C997 H985 0.950 1_554 S
C997 C993 1.393 . S
C997 C996 1.391 . S
H998 C1006 0.950 . S
H999 C1011 0.950 . S
H1000 C1008 0.950 . S
H1001 C1010 0.950 . S
H1002 C1012 0.943 1_556 S
H1003 C1014 0.950 . S
H1004 C1016 0.950 . S
H1005 C1017 0.950 . S
C1006 H998 0.950 . S
C1006 C1007 1.386 . S
C1006 C1008 1.391 . S
C1007 C1006 1.386 . S
C1007 C1011 1.393 . S
C1008 H1000 0.950 . S
C1008 C1006 1.391 . S
C1008 C1009 1.400 . S
C1009 C1008 1.400 . S
C1009 C1010 1.398 . S
C1009 C1015 1.491 . S
C1010 H1001 0.950 . S
C1010 C1009 1.398 . S
C1010 C1011 1.391 . S
C1011 H999 0.950 . S
C1011 C1007 1.393 . S
C1011 C1010 1.391 . S
C1012 H1002 0.943 1_554 S
C1012 C1013 1.388 . S
C1012 C1014 1.396 . S
C1013 C1012 1.388 . S
C1013 C1017 1.393 . S
C1014 H1003 0.950 . S
C1014 C1012 1.396 . S
C1014 C1015 1.400 . S
C1015 C1009 1.491 . S
C1015 C1014 1.400 . S
C1015 C1016 1.398 . S
C1016 H1004 0.950 . S
C1016 C1015 1.398 . S
C1016 C1017 1.391 . S
C1017 H1005 0.950 . S
C1017 C1013 1.393 . S
C1017 C1016 1.391 . S
H1018 C1026 0.950 . S
H1019 C1031 0.950 . S
H1020 C1028 0.950 . S
H1021 C1030 0.950 . S
H1022 C1032 0.950 . S
H1023 C1034 0.950 . S
H1024 C1036 0.950 . S
H1025 C1037 0.950 1_556 S
C1026 H1018 0.950 . S
C1026 C1027 1.386 . S
C1026 C1028 1.391 . S
C1027 C1026 1.386 . S
C1027 C1031 1.393 . S
C1028 H1020 0.950 . S
C1028 C1026 1.391 . S
C1028 C1029 1.400 . S
C1029 C1028 1.400 . S
C1029 C1030 1.398 . S
C1029 C1035 1.491 . S
C1030 H1021 0.950 . S
C1030 C1029 1.398 . S
C1030 C1031 1.391 . S
C1031 H1019 0.950 . S
C1031 C1027 1.393 . S
C1031 C1030 1.391 . S
C1032 H1022 0.950 . S
C1032 C1033 1.386 . S
C1032 C1034 1.391 . S
C1033 C1032 1.386 . S
C1033 C1037 1.393 . S
C1034 H1023 0.950 . S
C1034 C1032 1.391 . S
C1034 C1035 1.400 . S
C1035 C1029 1.491 . S
C1035 C1034 1.400 . S
C1035 C1036 1.398 . S
C1036 H1024 0.950 . S
C1036 C1035 1.398 . S
C1036 C1037 1.391 . S
C1037 H1025 0.950 1_554 S
C1037 C1033 1.393 . S
C1037 C1036 1.391 . S
H1038 C1046 0.950 . S
H1039 C1051 0.950 . S
H1040 C1048 0.950 . S
H1041 C1050 0.950 . S
H1042 C1052 0.950 . S
H1043 C1054 0.950 . S
H1044 C1056 0.950 . S
H1045 C1057 0.950 . S
C1046 H1038 0.950 . S
C1046 C1047 1.386 . S
C1046 C1048 1.391 . S
C1047 C1046 1.386 . S
C1047 C1051 1.393 . S
C1048 H1040 0.950 . S
C1048 C1046 1.391 . S
C1048 C1049 1.400 . S
C1049 C1048 1.400 . S
C1049 C1050 1.398 . S
C1049 C1055 1.491 . S
C1050 H1041 0.950 . S
C1050 C1049 1.398 . S
C1050 C1051 1.391 . S
C1051 H1039 0.950 . S
C1051 C1047 1.393 . S
C1051 C1050 1.391 . S
C1052 H1042 0.950 . S
C1052 C1053 1.386 . S
C1052 C1054 1.391 . S
C1053 C1052 1.386 . S
C1053 C1057 1.393 . S
C1054 H1043 0.950 . S
C1054 C1052 1.391 . S
C1054 C1055 1.400 . S
C1055 C1049 1.491 . S
C1055 C1054 1.400 . S
C1055 C1056 1.398 . S
C1056 H1044 0.950 . S
C1056 C1055 1.398 . S
C1056 C1057 1.391 . S
C1057 H1045 0.950 . S
C1057 C1053 1.393 . S
C1057 C1056 1.391 . S
H1058 C1066 0.950 . S
H1059 C1071 0.950 . S
H1060 C1068 0.950 . S
H1061 C1070 0.950 . S
H1062 C1072 0.950 . S
H1063 C1074 0.950 . S
H1064 C1076 0.950 . S
H1065 C1077 0.950 . S
C1066 H1058 0.950 . S
C1066 C1067 1.386 . S
C1066 C1068 1.391 . S
C1067 C1066 1.386 . S
C1067 C1071 1.393 . S
C1068 H1060 0.950 . S
C1068 C1066 1.391 . S
C1068 C1069 1.400 . S
C1069 C1068 1.400 . S
C1069 C1070 1.398 . S
C1069 C1075 1.491 . S
C1070 H1061 0.950 . S
C1070 C1069 1.398 . S
C1070 C1071 1.391 . S
C1071 H1059 0.950 . S
C1071 C1067 1.393 . S
C1071 C1070 1.391 . S
C1072 H1062 0.950 . S
C1072 C1073 1.386 . S
C1072 C1074 1.391 . S
C1073 C1072 1.386 . S
C1073 C1077 1.393 . S
C1074 H1063 0.950 . S
C1074 C1072 1.391 . S
C1074 C1075 1.400 . S
C1075 C1069 1.491 . S
C1075 C1074 1.400 . S
C1075 C1076 1.398 . S
C1076 H1064 0.950 . S
C1076 C1075 1.398 . S
C1076 C1077 1.391 . S
C1077 H1065 0.950 . S
C1077 C1073 1.393 . S
C1077 C1076 1.391 . S
H1078 C1086 0.950 . S
H1079 C1091 0.950 . S
H1080 C1088 0.950 . S
H1081 C1090 0.950 . S
H1082 C1092 0.950 . S
H1083 C1094 0.950 . S
H1084 C1096 0.950 . S
H1085 C1097 0.950 . S
C1086 H1078 0.950 . S
C1086 C1087 1.386 . S
C1086 C1088 1.391 . S
C1087 C1086 1.386 . S
C1087 C1091 1.393 . S
C1088 H1080 0.950 . S
C1088 C1086 1.391 . S
C1088 C1089 1.400 . S
C1089 C1088 1.400 . S
C1089 C1090 1.398 . S
C1089 C1095 1.491 . S
C1090 H1081 0.950 . S
C1090 C1089 1.398 . S
C1090 C1091 1.391 . S
C1091 H1079 0.950 . S
C1091 C1087 1.393 . S
C1091 C1090 1.391 . S
C1092 H1082 0.950 . S
C1092 C1093 1.386 . S
C1092 C1094 1.391 . S
C1093 C1092 1.386 . S
C1093 C1097 1.393 . S
C1094 H1083 0.950 . S
C1094 C1092 1.391 . S
C1094 C1095 1.400 . S
C1095 C1089 1.491 . S
C1095 C1094 1.400 . S
C1095 C1096 1.398 . S
C1096 H1084 0.950 . S
C1096 C1095 1.398 . S
C1096 C1097 1.391 . S
C1097 H1085 0.950 . S
C1097 C1093 1.393 . S
C1097 C1096 1.391 . S
H1098 C1106 0.950 . S
H1099 C1111 0.950 . S
H1100 C1108 0.950 . S
H1101 C1110 0.950 . S
H1102 C1112 0.950 . S
H1103 C1114 0.950 . S
H1104 C1116 0.950 . S
H1105 C1117 0.950 . S
C1106 H1098 0.950 . S
C1106 C1107 1.386 . S
C1106 C1108 1.391 . S
C1107 C1106 1.386 . S
C1107 C1111 1.393 . S
C1108 H1100 0.950 . S
C1108 C1106 1.391 . S
C1108 C1109 1.400 . S
C1109 C1108 1.400 . S
C1109 C1110 1.398 . S
C1109 C1115 1.491 . S
C1110 H1101 0.950 . S
C1110 C1109 1.398 . S
C1110 C1111 1.391 . S
C1111 H1099 0.950 . S
C1111 C1107 1.393 . S
C1111 C1110 1.391 . S
C1112 H1102 0.950 . S
C1112 C1113 1.386 . S
C1112 C1114 1.391 . S
C1113 C1112 1.386 . S
C1113 C1117 1.393 . S
C1114 H1103 0.950 . S
C1114 C1112 1.391 . S
C1114 C1115 1.400 . S
C1115 C1109 1.491 . S
C1115 C1114 1.400 . S
C1115 C1116 1.398 . S
C1116 H1104 0.950 . S
C1116 C1115 1.398 . S
C1116 C1117 1.391 . S
C1117 H1105 0.950 . S
C1117 C1113 1.393 . S
C1117 C1116 1.391 . S
H1118 C1126 0.950 . S
H1119 C1131 0.950 . S
H1120 C1128 0.950 . S
H1121 C1130 0.950 . S
H1122 C1132 0.950 . S
H1123 C1134 0.950 . S
H1124 C1136 0.950 . S
H1125 C1137 0.950 . S
C1126 H1118 0.950 . S
C1126 C1127 1.386 . S
C1126 C1128 1.391 . S
C1127 C1126 1.386 . S
C1127 C1131 1.393 . S
C1128 H1120 0.950 . S
C1128 C1126 1.391 . S
C1128 C1129 1.400 . S
C1129 C1128 1.400 . S
C1129 C1130 1.398 . S
C1129 C1135 1.491 . S
C1130 H1121 0.950 . S
C1130 C1129 1.398 . S
C1130 C1131 1.391 . S
C1131 H1119 0.950 . S
C1131 C1127 1.393 . S
C1131 C1130 1.391 . S
C1132 H1122 0.950 . S
C1132 C1133 1.386 . S
C1132 C1134 1.391 . S
C1133 C1132 1.386 . S
C1133 C1137 1.393 . S
C1134 H1123 0.950 . S
C1134 C1132 1.391 . S
C1134 C1135 1.400 . S
C1135 C1129 1.491 . S
C1135 C1134 1.400 . S
C1135 C1136 1.398 . S
C1136 H1124 0.950 . S
C1136 C1135 1.398 . S
C1136 C1137 1.391 . S
C1137 H1125 0.950 . S
C1137 C1133 1.393 . S
C1137 C1136 1.391 . S
H1138 C1146 0.950 . S
H1139 C1151 0.950 . S
H1140 C1148 0.950 . S
H1141 C1150 0.950 . S
H1142 C1152 0.950 . S
H1143 C1154 0.950 . S
H1144 C1156 0.950 . S
H1145 C1157 0.950 . S
C1146 H1138 0.950 . S
C1146 C1147 1.386 . S
C1146 C1148 1.391 . S
C1147 C1146 1.386 . S
C1147 C1151 1.393 . S
C1148 H1140 0.950 . S
C1148 C1146 1.391 . S
C1148 C1149 1.400 . S
C1149 C1148 1.400 . S
C1149 C1150 1.398 . S
C1149 C1155 1.491 . S
C1150 H1141 0.950 . S
C1150 C1149 1.398 . S
C1150 C1151 1.391 . S
C1151 H1139 0.950 . S
C1151 C1147 1.393 . S
C1151 C1150 1.391 . S
C1152 H1142 0.950 . S
C1152 C1153 1.386 . S
C1152 C1154 1.391 . S
C1153 C1152 1.386 . S
C1153 C1157 1.393 . S
C1154 H1143 0.950 . S
C1154 C1152 1.391 . S
C1154 C1155 1.400 . S
C1155 C1149 1.491 . S
C1155 C1154 1.400 . S
C1155 C1156 1.398 . S
C1156 H1144 0.950 . S
C1156 C1155 1.398 . S
C1156 C1157 1.391 . S
C1157 H1145 0.950 . S
C1157 C1153 1.393 . S
C1157 C1156 1.391 . S
H1158 C1166 0.950 . S
H1159 C1171 0.950 . S
H1160 C1168 0.950 . S
H1161 C1170 0.950 . S
H1162 C1172 0.950 . S
H1163 C1174 0.950 . S
H1164 C1176 0.950 . S
H1165 C1177 0.950 . S
C1166 H1158 0.950 . S
C1166 C1167 1.386 . S
C1166 C1168 1.391 . S
C1167 C1166 1.386 . S
C1167 C1171 1.393 . S
C1168 H1160 0.950 . S
C1168 C1166 1.391 . S
C1168 C1169 1.400 . S
C1169 C1168 1.400 . S
C1169 C1170 1.398 . S
C1169 C1175 1.491 . S
C1170 H1161 0.950 . S
C1170 C1169 1.398 . S
C1170 C1171 1.391 . S
C1171 H1159 0.950 . S
C1171 C1167 1.393 . S
C1171 C1170 1.391 . S
C1172 H1162 0.950 . S
C1172 C1173 1.386 . S
C1172 C1174 1.391 . S
C1173 C1172 1.386 . S
C1173 C1177 1.393 1_554 S
C1174 H1163 0.950 . S
C1174 C1172 1.391 . S
C1174 C1175 1.400 1_554 S
C1175 C1169 1.491 . S
C1175 C1174 1.400 1_556 S
C1175 C1176 1.398 . S
C1176 H1164 0.950 . S
C1176 C1175 1.398 . S
C1176 C1177 1.391 . S
C1177 H1165 0.950 . S
C1177 C1173 1.393 1_556 S
C1177 C1176 1.391 . S
H1178 C1186 0.950 . S
H1179 C1191 0.950 . S
H1180 C1188 0.950 . S
H1181 C1190 0.950 . S
H1182 C1192 0.950 . S
H1183 C1194 0.950 . S
H1184 C1196 0.950 . S
H1185 C1197 0.950 . S
C1186 H1178 0.950 . S
C1186 C1187 1.386 . S
C1186 C1188 1.391 . S
C1187 C1186 1.386 . S
C1187 C1191 1.393 . S
C1188 H1180 0.950 . S
C1188 C1186 1.391 . S
C1188 C1189 1.400 . S
C1189 C1188 1.400 . S
C1189 C1190 1.398 . S
C1189 C1195 1.491 . S
C1190 H1181 0.950 . S
C1190 C1189 1.398 . S
C1190 C1191 1.391 . S
C1191 H1179 0.950 . S
C1191 C1187 1.393 . S
C1191 C1190 1.391 . S
C1192 H1182 0.950 . S
C1192 C1193 1.386 . S
C1192 C1194 1.391 . S
C1193 C1192 1.386 . S
C1193 C1197 1.393 1_554 S
C1194 H1183 0.950 . S
C1194 C1192 1.391 . S
C1194 C1195 1.400 1_554 S
C1195 C1189 1.491 . S
C1195 C1194 1.400 1_556 S
C1195 C1196 1.398 . S
C1196 H1184 0.950 . S
C1196 C1195 1.398 . S
C1196 C1197 1.391 . S
C1197 H1185 0.950 . S
C1197 C1193 1.393 1_556 S
C1197 C1196 1.391 . S
H1198 C1206 0.950 . S
H1199 C1211 0.950 . S
H1200 C1208 0.950 . S
H1201 C1210 0.950 . S
H1202 C1212 0.950 . S
H1203 C1214 0.950 . S
H1204 C1216 0.950 . S
H1205 C1217 0.950 . S
C1206 H1198 0.950 . S
C1206 C1207 1.386 . S
C1206 C1208 1.391 . S
C1207 C1206 1.386 . S
C1207 C1211 1.393 . S
C1208 H1200 0.950 . S
C1208 C1206 1.391 . S
C1208 C1209 1.400 . S
C1209 C1208 1.400 . S
C1209 C1210 1.398 . S
C1209 C1215 1.491 . S
C1210 H1201 0.950 . S
C1210 C1209 1.398 . S
C1210 C1211 1.391 . S
C1211 H1199 0.950 . S
C1211 C1207 1.393 . S
C1211 C1210 1.391 . S
C1212 H1202 0.950 . S
C1212 C1213 1.386 . S
C1212 C1214 1.391 . S
C1213 C1212 1.386 . S
C1213 C1217 1.393 1_554 S
C1214 H1203 0.950 . S
C1214 C1212 1.391 . S
C1214 C1215 1.400 1_554 S
C1215 C1209 1.491 . S
C1215 C1214 1.400 1_556 S
C1215 C1216 1.398 . S
C1216 H1204 0.950 . S
C1216 C1215 1.398 . S
C1216 C1217 1.391 . S
C1217 H1205 0.950 . S
C1217 C1213 1.393 1_556 S
C1217 C1216 1.391 . S
H1218 C1226 0.950 . S
H1219 C1231 0.950 . S
H1220 C1228 0.950 . S
H1221 C1230 0.950 . S
H1222 C1232 0.950 1_455 S
H1223 C1234 0.950 . S
H1224 C1236 0.950 . S
H1225 C1237 0.950 . S
C1226 H1218 0.950 . S
C1226 C1227 1.386 . S
C1226 C1228 1.391 . S
C1227 C1226 1.386 . S
C1227 C1231 1.393 . S
C1228 H1220 0.950 . S
C1228 C1226 1.391 . S
C1228 C1229 1.400 . S
C1229 C1228 1.400 . S
C1229 C1230 1.398 . S
C1229 C1235 1.491 . S
C1230 H1221 0.950 . S
C1230 C1229 1.398 . S
C1230 C1231 1.391 . S
C1231 H1219 0.950 . S
C1231 C1227 1.393 . S
C1231 C1230 1.391 . S
C1232 H1222 0.950 1_655 S
C1232 C1233 1.386 . S
C1232 C1234 1.391 . S
C1233 C1232 1.386 . S
C1233 C1237 1.393 . S
C1234 H1223 0.950 . S
C1234 C1232 1.391 . S
C1234 C1235 1.400 . S
C1235 C1229 1.491 . S
C1235 C1234 1.400 . S
C1235 C1236 1.398 . S
C1236 H1224 0.950 . S
C1236 C1235 1.398 . S
C1236 C1237 1.391 . S
C1237 H1225 0.950 . S
C1237 C1233 1.393 . S
C1237 C1236 1.391 . S
H1238 C1246 0.950 . S
H1239 C1251 0.950 . S
H1240 C1248 0.950 . S
H1241 C1250 0.950 . S
H1242 C1252 0.950 . S
H1243 C1254 0.950 . S
H1244 C1256 0.950 . S
H1245 C1257 0.950 . S
C1246 H1238 0.950 . S
C1246 C1247 1.386 . S
C1246 C1248 1.391 . S
C1247 C1246 1.386 . S
C1247 C1251 1.393 . S
C1248 H1240 0.950 . S
C1248 C1246 1.391 . S
C1248 C1249 1.400 . S
C1249 C1248 1.400 . S
C1249 C1250 1.398 . S
C1249 C1255 1.491 . S
C1250 H1241 0.950 . S
C1250 C1249 1.398 . S
C1250 C1251 1.391 . S
C1251 H1239 0.950 . S
C1251 C1247 1.393 . S
C1251 C1250 1.391 . S
C1252 H1242 0.950 . S
C1252 C1253 1.386 . S
C1252 C1254 1.391 . S
C1253 C1252 1.386 . S
C1253 C1257 1.393 . S
C1254 H1243 0.950 . S
C1254 C1252 1.391 . S
C1254 C1255 1.400 . S
C1255 C1249 1.491 . S
C1255 C1254 1.400 . S
C1255 C1256 1.398 . S
C1256 H1244 0.950 . S
C1256 C1255 1.398 . S
C1256 C1257 1.391 . S
C1257 H1245 0.950 . S
C1257 C1253 1.393 . S
C1257 C1256 1.391 . S
H1258 C1266 0.950 . S
H1259 C1271 0.950 . S
H1260 C1268 0.950 . S
H1261 C1270 0.950 . S
H1262 C1272 0.950 . S
H1263 C1274 0.950 . S
H1264 C1276 0.950 . S
H1265 C1277 0.950 . S
C1266 H1258 0.950 . S
C1266 C1267 1.386 . S
C1266 C1268 1.391 . S
C1267 C1266 1.386 . S
C1267 C1271 1.393 . S
C1268 H1260 0.950 . S
C1268 C1266 1.391 . S
C1268 C1269 1.400 . S
C1269 C1268 1.400 . S
C1269 C1270 1.398 . S
C1269 C1275 1.491 . S
C1270 H1261 0.950 . S
C1270 C1269 1.398 . S
C1270 C1271 1.391 . S
C1271 H1259 0.950 . S
C1271 C1267 1.393 . S
C1271 C1270 1.391 . S
C1272 H1262 0.950 . S
C1272 C1273 1.386 . S
C1272 C1274 1.391 . S
C1273 C1272 1.386 . S
C1273 C1277 1.393 . S
C1274 H1263 0.950 . S
C1274 C1272 1.391 . S
C1274 C1275 1.400 . S
C1275 C1269 1.491 . S
C1275 C1274 1.400 . S
C1275 C1276 1.398 . S
C1276 H1264 0.950 . S
C1276 C1275 1.398 . S
C1276 C1277 1.391 . S
C1277 H1265 0.950 . S
C1277 C1273 1.393 . S
C1277 C1276 1.391 . S
H1278 C1286 0.950 . S
H1279 C1291 0.950 . S
H1280 C1288 0.950 . S
H1281 C1290 0.950 1_556 S
H1282 C1292 0.950 . S
H1283 C1294 0.950 . S
H1284 C1296 0.950 . S
H1285 C1297 0.950 . S
C1286 H1278 0.950 . S
C1286 C1287 1.386 . S
C1286 C1288 1.391 . S
C1287 C1286 1.386 . S
C1287 C1291 1.393 1_554 S
C1288 H1280 0.950 . S
C1288 C1286 1.391 . S
C1288 C1289 1.400 . S
C1289 C1288 1.400 . S
C1289 C1290 1.398 . S
C1289 C1295 1.491 . S
C1290 H1281 0.950 1_554 S
C1290 C1289 1.398 . S
C1290 C1291 1.391 1_554 S
C1291 H1279 0.950 . S
C1291 C1287 1.393 1_556 S
C1291 C1290 1.391 1_556 S
C1292 H1282 0.950 . S
C1292 C1293 1.386 . S
C1292 C1294 1.391 . S
C1293 C1292 1.386 . S
C1293 C1297 1.393 . S
C1294 H1283 0.950 . S
C1294 C1292 1.391 . S
C1294 C1295 1.400 . S
C1295 C1289 1.491 . S
C1295 C1294 1.400 . S
C1295 C1296 1.398 . S
C1296 H1284 0.950 . S
C1296 C1295 1.398 . S
C1296 C1297 1.391 . S
C1297 H1285 0.950 . S
C1297 C1293 1.393 . S
C1297 C1296 1.391 . S
H1298 C1306 0.950 . S
H1299 C1311 0.950 . S
H1300 C1308 0.950 . S
H1301 C1310 0.950 . S
H1302 C1312 0.950 . S
H1303 C1314 0.950 1_556 S
H1304 C1316 0.950 . S
H1305 C1317 0.950 . S
C1306 H1298 0.950 . S
C1306 C1307 1.386 . S
C1306 C1308 1.391 . S
C1307 C1306 1.386 . S
C1307 C1311 1.393 . S
C1308 H1300 0.950 . S
C1308 C1306 1.391 . S
C1308 C1309 1.400 . S
C1309 C1308 1.400 . S
C1309 C1310 1.398 . S
C1309 C1315 1.491 . S
C1310 H1301 0.950 . S
C1310 C1309 1.398 . S
C1310 C1311 1.391 . S
C1311 H1299 0.950 . S
C1311 C1307 1.393 . S
C1311 C1310 1.391 . S
C1312 H1302 0.950 . S
C1312 C1313 1.386 1_556 S
C1312 C1314 1.391 1_556 S
C1313 C1312 1.386 1_554 S
C1313 C1317 1.393 . S
C1314 H1303 0.950 1_554 S
C1314 C1312 1.391 1_554 S
C1314 C1315 1.400 . S
C1315 C1309 1.491 . S
C1315 C1314 1.400 . S
C1315 C1316 1.398 . S
C1316 H1304 0.950 . S
C1316 C1315 1.398 . S
C1316 C1317 1.391 . S
C1317 H1305 0.950 . S
C1317 C1313 1.393 . S
C1317 C1316 1.391 . S
H1318 C1326 0.950 . S
H1319 C1331 0.950 . S
H1320 C1328 0.950 . S
H1321 C1330 0.950 . S
H1322 C1332 0.950 . S
H1323 C1334 0.950 . S
H1324 C1336 0.950 . S
H1325 C1337 0.950 . S
C1326 H1318 0.950 . S
C1326 C1327 1.386 . S
C1326 C1328 1.391 . S
C1327 C1326 1.386 . S
C1327 C1331 1.393 . S
C1328 H1320 0.950 . S
C1328 C1326 1.391 . S
C1328 C1329 1.400 . S
C1329 C1328 1.400 . S
C1329 C1330 1.398 . S
C1329 C1335 1.491 . S
C1330 H1321 0.950 . S
C1330 C1329 1.398 . S
C1330 C1331 1.391 . S
C1331 H1319 0.950 . S
C1331 C1327 1.393 . S
C1331 C1330 1.391 . S
C1332 H1322 0.950 . S
C1332 C1333 1.386 . S
C1332 C1334 1.391 . S
C1333 C1332 1.386 . S
C1333 C1337 1.393 . S
C1334 H1323 0.950 . S
C1334 C1332 1.391 . S
C1334 C1335 1.400 . S
C1335 C1329 1.491 . S
C1335 C1334 1.400 . S
C1335 C1336 1.398 . S
C1336 H1324 0.950 . S
C1336 C1335 1.398 . S
C1336 C1337 1.391 . S
C1337 H1325 0.950 . S
C1337 C1333 1.393 . S
C1337 C1336 1.391 . S
H1338 C1346 0.950 . S
H1339 C1351 0.950 . S
H1340 C1348 0.950 . S
H1341 C1350 0.950 1_455 S
H1342 C1352 0.950 . S
H1343 C1354 0.950 . S
H1344 C1356 0.950 . S
H1345 C1357 0.950 . S
C1346 H1338 0.950 . S
C1346 C1347 1.386 . S
C1346 C1348 1.391 . S
C1347 C1346 1.386 . S
C1347 C1351 1.393 . S
C1348 H1340 0.950 . S
C1348 C1346 1.391 . S
C1348 C1349 1.411 . S
C1349 C1348 1.411 . S
C1349 C1350 1.402 . S
C1349 C1355 1.477 1_655 S
C1350 H1341 0.950 1_655 S
C1350 C1349 1.402 . S
C1350 C1351 1.391 . S
C1351 H1339 0.950 . S
C1351 C1347 1.393 . S
C1351 C1350 1.391 . S
C1352 H1342 0.950 . S
C1352 C1353 1.386 . S
C1352 C1354 1.391 . S
C1353 C1352 1.386 . S
C1353 C1357 1.393 . S
C1354 H1343 0.950 . S
C1354 C1352 1.391 . S
C1354 C1355 1.400 . S
C1355 C1349 1.477 1_455 S
C1355 C1354 1.400 . S
C1355 C1356 1.398 . S
C1356 H1344 0.950 . S
C1356 C1355 1.398 . S
C1356 C1357 1.391 . S
C1357 H1345 0.950 . S
C1357 C1353 1.393 . S
C1357 C1356 1.391 . S
H1358 C1366 0.950 . S
H1359 C1371 0.950 . S
H1360 C1368 0.950 . S
H1361 C1370 0.950 . S
H1362 C1372 0.950 . S
H1363 C1374 0.950 . S
H1364 C1376 0.950 . S
H1365 C1377 0.950 . S
C1366 H1358 0.950 . S
C1366 C1367 1.386 . S
C1366 C1368 1.391 . S
C1367 C1366 1.386 . S
C1367 C1371 1.393 . S
C1368 H1360 0.950 . S
C1368 C1366 1.391 . S
C1368 C1369 1.400 . S
C1369 C1368 1.400 . S
C1369 C1370 1.398 . S
C1369 C1375 1.491 . S
C1370 H1361 0.950 . S
C1370 C1369 1.398 . S
C1370 C1371 1.391 . S
C1371 H1359 0.950 . S
C1371 C1367 1.393 . S
C1371 C1370 1.391 . S
C1372 H1362 0.950 . S
C1372 C1373 1.386 . S
C1372 C1374 1.391 . S
C1373 C1372 1.386 . S
C1373 C1377 1.393 . S
C1374 H1363 0.950 . S
C1374 C1372 1.391 . S
C1374 C1375 1.400 . S
C1375 C1369 1.491 . S
C1375 C1374 1.400 . S
C1375 C1376 1.398 . S
C1376 H1364 0.950 . S
C1376 C1375 1.398 . S
C1376 C1377 1.391 . S
C1377 H1365 0.950 . S
C1377 C1373 1.393 . S
C1377 C1376 1.391 . S
H1378 C1386 0.950 . S
H1379 C1391 0.950 . S
H1380 C1388 0.950 1_545 S
H1381 C1390 0.950 . S
H1382 C1392 0.950 . S
H1383 C1394 0.950 . S
H1384 C1396 0.950 . S
H1385 C1397 0.950 . S
C1386 H1378 0.950 . S
C1386 C1387 1.386 . S
C1386 C1388 1.391 . S
C1387 C1386 1.386 . S
C1387 C1391 1.393 . S
C1388 H1380 0.950 1_565 S
C1388 C1386 1.391 . S
C1388 C1389 1.398 . S
C1389 C1388 1.398 . S
C1389 C1390 1.417 . S
C1389 C1395 1.475 1_565 S
C1390 H1381 0.950 . S
C1390 C1389 1.417 . S
C1390 C1391 1.391 . S
C1391 H1379 0.950 . S
C1391 C1387 1.393 . S
C1391 C1390 1.391 . S
C1392 H1382 0.950 . S
C1392 C1393 1.386 . S
C1392 C1394 1.391 . S
C1393 C1392 1.386 . S
C1393 C1397 1.393 . S
C1394 H1383 0.950 . S
C1394 C1392 1.391 . S
C1394 C1395 1.400 . S
C1395 C1389 1.475 1_545 S
C1395 C1394 1.400 . S
C1395 C1396 1.398 . S
C1396 H1384 0.950 . S
C1396 C1395 1.398 . S
C1396 C1397 1.391 . S
C1397 H1385 0.950 . S
C1397 C1393 1.393 . S
C1397 C1396 1.391 . S
H1398 C1406 0.950 . S
H1399 C1411 0.950 . S
H1400 C1408 0.950 . S
H1401 C1410 0.950 1_545 S
H1402 C1412 0.950 . S
H1403 C1414 0.950 . S
H1404 C1416 0.950 . S
H1405 C1417 0.950 . S
C1406 H1398 0.950 . S
C1406 C1407 1.386 . S
C1406 C1408 1.391 . S
C1407 C1406 1.386 . S
C1407 C1411 1.393 . S
C1408 H1400 0.950 . S
C1408 C1406 1.391 . S
C1408 C1409 1.400 . S
C1409 C1408 1.400 . S
C1409 C1410 1.398 . S
C1409 C1415 1.491 1_565 S
C1410 H1401 0.950 1_565 S
C1410 C1409 1.398 . S
C1410 C1411 1.391 . S
C1411 H1399 0.950 . S
C1411 C1407 1.393 . S
C1411 C1410 1.391 . S
C1412 H1402 0.950 . S
C1412 C1413 1.386 . S
C1412 C1414 1.391 . S
C1413 C1412 1.386 . S
C1413 C1417 1.393 . S
C1414 H1403 0.950 . S
C1414 C1412 1.391 . S
C1414 C1415 1.400 . S
C1415 C1409 1.491 1_545 S
C1415 C1414 1.400 . S
C1415 C1416 1.398 . S
C1416 H1404 0.950 . S
C1416 C1415 1.398 . S
C1416 C1417 1.391 . S
C1417 H1405 0.950 . S
C1417 C1413 1.393 . S
C1417 C1416 1.391 . S
H1418 C1426 0.950 . S
H1419 C1431 0.950 . S
H1420 C1428 0.950 . S
H1421 C1430 0.950 . S
H1422 C1432 0.950 . S
H1423 C1434 0.950 . S
H1424 C1436 0.945 1_455 S
H1425 C1437 0.950 . S
C1426 H1418 0.950 . S
C1426 C1427 1.386 . S
C1426 C1428 1.391 . S
C1427 C1426 1.386 . S
C1427 C1431 1.393 . S
C1428 H1420 0.950 . S
C1428 C1426 1.391 . S
C1428 C1429 1.400 . S
C1429 C1428 1.400 . S
C1429 C1430 1.398 . S
C1429 C1435 1.491 1_455 S
C1430 H1421 0.950 . S
C1430 C1429 1.398 . S
C1430 C1431 1.391 . S
C1431 H1419 0.950 . S
C1431 C1427 1.393 . S
C1431 C1430 1.391 . S
C1432 H1422 0.950 . S
C1432 C1433 1.386 . S
C1432 C1434 1.391 . S
C1433 C1432 1.386 . S
C1433 C1437 1.393 . S
C1434 H1423 0.950 . S
C1434 C1432 1.391 . S
C1434 C1435 1.400 . S
C1435 C1429 1.491 1_655 S
C1435 C1434 1.400 . S
C1435 C1436 1.398 . S
C1436 H1424 0.945 1_655 S
C1436 C1435 1.398 . S
C1436 C1437 1.391 . S
C1437 H1425 0.950 . S
C1437 C1433 1.393 . S
C1437 C1436 1.391 . S
H1438 C1446 0.950 . S
H1439 C1451 0.950 . S
H1440 C1448 0.950 . S
H1441 C1450 0.950 . S
H1442 C1452 0.950 . S
H1443 C1454 0.950 . S
H1444 C1456 0.950 . S
H1445 C1457 0.950 . S
C1446 H1438 0.950 . S
C1446 C1447 1.386 . S
C1446 C1448 1.391 . S
C1447 C1446 1.386 . S
C1447 C1451 1.393 . S
C1448 H1440 0.950 . S
C1448 C1446 1.391 . S
C1448 C1449 1.400 . S
C1449 C1448 1.400 . S
C1449 C1450 1.398 . S
C1449 C1455 1.491 . S
C1450 H1441 0.950 . S
C1450 C1449 1.398 . S
C1450 C1451 1.391 . S
C1451 H1439 0.950 . S
C1451 C1447 1.393 . S
C1451 C1450 1.391 . S
C1452 H1442 0.950 . S
C1452 C1453 1.386 . S
C1452 C1454 1.391 . S
C1453 C1452 1.386 . S
C1453 C1457 1.393 . S
C1454 H1443 0.950 . S
C1454 C1452 1.391 . S
C1454 C1455 1.400 . S
C1455 C1449 1.491 . S
C1455 C1454 1.400 . S
C1455 C1456 1.398 . S
C1456 H1444 0.950 . S
C1456 C1455 1.398 . S
C1456 C1457 1.391 . S
C1457 H1445 0.950 . S
C1457 C1453 1.393 . S
C1457 C1456 1.391 . S
C387 C3 1.189 . S
C393 C91 1.296 . S
C407 C112 1.281 . S
C413 C24 1.177 . S
C427 C45 1.190 . S
C433 C70 1.297 . S
C447 C58 1.176 . S
C453 C88 1.281 . S
C467 C109 1.281 . S
C473 C16 1.177 . S
C487 C37 1.147 . S
C493 C67 1.320 . S
C507 C28 1.315 . S
C513 C79 1.180 . S
C527 C49 1.328 . S
C533 C100 1.166 . S
C547 C121 1.202 . S
C553 C7 1.302 . S
C567 C108 1.215 . S
C573 C25 1.291 . S
C587 C46 1.312 . S
C593 C66 1.189 . S
C607 C4 1.290 . S
C613 C87 1.217 . S
C627 C217 1.316 . S
C633 C129 1.177 . S
C647 C150 1.131 . S
C653 C238 1.308 . S
C667 C171 1.188 . S
C673 C196 1.292 . S
C687 C214 1.278 . S
C693 C184 1.157 . S
C707 C235 1.289 . S
C713 C142 1.187 . S
C727 C193 1.320 . S
C733 C163 1.145 . S
C747 C154 1.314 . S
C753 C205 1.186 . S
C767 C175 1.317 . S
C773 C226 1.178 . S
C787 C133 1.290 . S
C793 C247 1.218 . S
C807 C151 1.289 . S
C813 C234 1.219 . S
C827 C172 1.321 . S
C833 C192 1.175 . S
C847 C213 1.163 . S
C853 C130 1.329 . S
C867 C255 1.130 . S
C873 C343 1.298 . S
C887 C276 1.134 . S
C893 C364 1.290 . S
C907 C322 1.300 . S
C913 C297 1.129 . S
C927 C340 1.300 . S
C933 C310 1.129 . S
C947 C268 1.150 . S
C953 C361 1.321 . S
C967 C289 1.190 . S
C973 C319 1.299 . S
C987 C280 1.299 . S
C993 C331 1.204 . S
C1007 C301 1.306 . S
C1013 C352 1.197 . S
C1027 C259 1.294 . S
C1033 C373 1.211 . S
C1047 C360 1.180 . S
C1053 C277 1.315 . S
C1067 C318 1.216 . S
C1073 C298 1.292 . S
C1087 C256 1.307 . S
C1093 C339 1.197 . S
C1107 C20 1.292 . S
C1113 C292 1.329 . S
C1127 C41 1.297 . S
C1133 C313 1.319 . S
C1147 C62 1.291 . S
C1153 C271 1.331 . S
C1167 C61 1.292 . S
C1173 C167 1.331 . S
C1187 C19 1.292 . S
C1193 C188 1.329 . S
C1207 C40 1.292 . S
C1213 C146 1.327 . S
C1227 C230 1.501 . S
C1233 C82 1.497 . S
C1247 C103 1.502 . S
C1253 C251 1.497 . S
C1267 C124 1.475 . S
C1273 C209 1.470 . S
C1287 C355 1.476 . S
C1293 C125 1.491 . S
C1307 C83 1.498 . S
C1313 C376 1.484 . S
C1327 C104 1.501 . S
C1333 C334 1.498 . S
C1347 C187 1.332 . S
C1353 C293 1.297 . S
C1367 C145 1.308 . S
C1373 C314 1.325 . S
C1387 C272 1.295 . S
C1393 C166 1.332 . S
C1407 C356 1.495 . S
C1413 C208 1.502 . S
C1427 C377 1.496 . S
C1433 C229 1.502 . S
C1447 C250 1.478 . S
C1453 C335 1.493 . S
