# Generated by pormake.
# Topology son, (6)-cn, num edge types: 1
# Building blocks:
#     Node 0, Type 0, BuildingBlock: CUKXOW_clean_sbu_0, # of connection points: 6
#     Node 1, Type 0, BuildingBlock: CUKXOW_clean_sbu_0, # of connection points: 6
#     Node 2, Type 0, BuildingBlock: CUKXOW_clean_sbu_0, # of connection points: 6
#     Node 3, Type 0, BuildingBlock: CUKXOW_clean_sbu_0, # of connection points: 6
#     Node 4, Type 0, BuildingBlock: CUKXOW_clean_sbu_0, # of connection points: 6
#     Node 5, Type 0, BuildingBlock: CUKXOW_clean_sbu_0, # of connection points: 6
#     Node 6, Type 0, BuildingBlock: CUKXOW_clean_sbu_0, # of connection points: 6
#     Node 7, Type 0, BuildingBlock: CUKXOW_clean_sbu_0, # of connection points: 6
#     Node 8, Type 0, BuildingBlock: CUKXOW_clean_sbu_0, # of connection points: 6
#     Node 9, Type 0, BuildingBlock: CUKXOW_clean_sbu_0, # of connection points: 6
#     Node 10, Type 0, BuildingBlock: CUKXOW_clean_sbu_0, # of connection points: 6
#     Node 11, Type 0, BuildingBlock: CUKXOW_clean_sbu_0, # of connection points: 6
#     Node 12, Type 0, BuildingBlock: CUKXOW_clean_sbu_0, # of connection points: 6
#     Node 13, Type 0, BuildingBlock: CUKXOW_clean_sbu_0, # of connection points: 6
#     Node 14, Type 0, BuildingBlock: CUKXOW_clean_sbu_0, # of connection points: 6
#     Node 15, Type 0, BuildingBlock: CUKXOW_clean_sbu_0, # of connection points: 6
#     Node 16, Type 0, BuildingBlock: CUKXOW_clean_sbu_0, # of connection points: 6
#     Node 17, Type 0, BuildingBlock: CUKXOW_clean_sbu_0, # of connection points: 6
#     Node 18, Type 0, BuildingBlock: CUKXOW_clean_sbu_0, # of connection points: 6
#     Node 19, Type 0, BuildingBlock: CUKXOW_clean_sbu_0, # of connection points: 6
#     Node 20, Type 0, BuildingBlock: CUKXOW_clean_sbu_0, # of connection points: 6
#     Node 21, Type 0, BuildingBlock: CUKXOW_clean_sbu_0, # of connection points: 6
#     Node 22, Type 0, BuildingBlock: CUKXOW_clean_sbu_0, # of connection points: 6
#     Node 23, Type 0, BuildingBlock: CUKXOW_clean_sbu_0, # of connection points: 6
#     Node 24, Type 0, BuildingBlock: CUKXOW_clean_sbu_0, # of connection points: 6
#     Node 25, Type 0, BuildingBlock: CUKXOW_clean_sbu_0, # of connection points: 6
#     Node 26, Type 0, BuildingBlock: CUKXOW_clean_sbu_0, # of connection points: 6
#     Node 27, Type 0, BuildingBlock: CUKXOW_clean_sbu_0, # of connection points: 6
#     Node 28, Type 0, BuildingBlock: CUKXOW_clean_sbu_0, # of connection points: 6
#     Node 29, Type 0, BuildingBlock: CUKXOW_clean_sbu_0, # of connection points: 6
#     Node 30, Type 0, BuildingBlock: CUKXOW_clean_sbu_0, # of connection points: 6
#     Node 31, Type 0, BuildingBlock: CUKXOW_clean_sbu_0, # of connection points: 6
#     Edge 32, Type (0, 0), BuildingBlock: OJICUG_clean_linker_0, # of connection points: 2
#     Edge 33, Type (0, 0), BuildingBlock: OJICUG_clean_linker_0, # of connection points: 2
#     Edge 34, Type (0, 0), BuildingBlock: OJICUG_clean_linker_0, # of connection points: 2
#     Edge 35, Type (0, 0), BuildingBlock: OJICUG_clean_linker_0, # of connection points: 2
#     Edge 36, Type (0, 0), BuildingBlock: OJICUG_clean_linker_0, # of connection points: 2
#     Edge 37, Type (0, 0), BuildingBlock: OJICUG_clean_linker_0, # of connection points: 2
#     Edge 38, Type (0, 0), BuildingBlock: OJICUG_clean_linker_0, # of connection points: 2
#     Edge 39, Type (0, 0), BuildingBlock: OJICUG_clean_linker_0, # of connection points: 2
#     Edge 40, Type (0, 0), BuildingBlock: OJICUG_clean_linker_0, # of connection points: 2
#     Edge 41, Type (0, 0), BuildingBlock: OJICUG_clean_linker_0, # of connection points: 2
#     Edge 42, Type (0, 0), BuildingBlock: OJICUG_clean_linker_0, # of connection points: 2
#     Edge 43, Type (0, 0), BuildingBlock: OJICUG_clean_linker_0, # of connection points: 2
#     Edge 44, Type (0, 0), BuildingBlock: OJICUG_clean_linker_0, # of connection points: 2
#     Edge 45, Type (0, 0), BuildingBlock: OJICUG_clean_linker_0, # of connection points: 2
#     Edge 46, Type (0, 0), BuildingBlock: OJICUG_clean_linker_0, # of connection points: 2
#     Edge 47, Type (0, 0), BuildingBlock: OJICUG_clean_linker_0, # of connection points: 2
#     Edge 48, Type (0, 0), BuildingBlock: OJICUG_clean_linker_0, # of connection points: 2
#     Edge 49, Type (0, 0), BuildingBlock: OJICUG_clean_linker_0, # of connection points: 2
#     Edge 50, Type (0, 0), BuildingBlock: OJICUG_clean_linker_0, # of connection points: 2
#     Edge 51, Type (0, 0), BuildingBlock: OJICUG_clean_linker_0, # of connection points: 2
#     Edge 52, Type (0, 0), BuildingBlock: OJICUG_clean_linker_0, # of connection points: 2
#     Edge 53, Type (0, 0), BuildingBlock: OJICUG_clean_linker_0, # of connection points: 2
#     Edge 54, Type (0, 0), BuildingBlock: OJICUG_clean_linker_0, # of connection points: 2
#     Edge 55, Type (0, 0), BuildingBlock: OJICUG_clean_linker_0, # of connection points: 2
#     Edge 56, Type (0, 0), BuildingBlock: OJICUG_clean_linker_0, # of connection points: 2
#     Edge 57, Type (0, 0), BuildingBlock: OJICUG_clean_linker_0, # of connection points: 2
#     Edge 58, Type (0, 0), BuildingBlock: OJICUG_clean_linker_0, # of connection points: 2
#     Edge 59, Type (0, 0), BuildingBlock: OJICUG_clean_linker_0, # of connection points: 2
#     Edge 60, Type (0, 0), BuildingBlock: OJICUG_clean_linker_0, # of connection points: 2
#     Edge 61, Type (0, 0), BuildingBlock: OJICUG_clean_linker_0, # of connection points: 2
#     Edge 62, Type (0, 0), BuildingBlock: OJICUG_clean_linker_0, # of connection points: 2
#     Edge 63, Type (0, 0), BuildingBlock: OJICUG_clean_linker_0, # of connection points: 2
#     Edge 64, Type (0, 0), BuildingBlock: OJICUG_clean_linker_0, # of connection points: 2
#     Edge 65, Type (0, 0), BuildingBlock: OJICUG_clean_linker_0, # of connection points: 2
#     Edge 66, Type (0, 0), BuildingBlock: OJICUG_clean_linker_0, # of connection points: 2
#     Edge 67, Type (0, 0), BuildingBlock: OJICUG_clean_linker_0, # of connection points: 2
#     Edge 68, Type (0, 0), BuildingBlock: OJICUG_clean_linker_0, # of connection points: 2
#     Edge 69, Type (0, 0), BuildingBlock: OJICUG_clean_linker_0, # of connection points: 2
#     Edge 70, Type (0, 0), BuildingBlock: OJICUG_clean_linker_0, # of connection points: 2
#     Edge 71, Type (0, 0), BuildingBlock: OJICUG_clean_linker_0, # of connection points: 2
#     Edge 72, Type (0, 0), BuildingBlock: OJICUG_clean_linker_0, # of connection points: 2
#     Edge 73, Type (0, 0), BuildingBlock: OJICUG_clean_linker_0, # of connection points: 2
#     Edge 74, Type (0, 0), BuildingBlock: OJICUG_clean_linker_0, # of connection points: 2
#     Edge 75, Type (0, 0), BuildingBlock: OJICUG_clean_linker_0, # of connection points: 2
#     Edge 76, Type (0, 0), BuildingBlock: OJICUG_clean_linker_0, # of connection points: 2
#     Edge 77, Type (0, 0), BuildingBlock: OJICUG_clean_linker_0, # of connection points: 2
#     Edge 78, Type (0, 0), BuildingBlock: OJICUG_clean_linker_0, # of connection points: 2
#     Edge 79, Type (0, 0), BuildingBlock: OJICUG_clean_linker_0, # of connection points: 2
#     Edge 80, Type (0, 0), BuildingBlock: OJICUG_clean_linker_0, # of connection points: 2
#     Edge 81, Type (0, 0), BuildingBlock: OJICUG_clean_linker_0, # of connection points: 2
#     Edge 82, Type (0, 0), BuildingBlock: OJICUG_clean_linker_0, # of connection points: 2
#     Edge 83, Type (0, 0), BuildingBlock: OJICUG_clean_linker_0, # of connection points: 2
#     Edge 84, Type (0, 0), BuildingBlock: OJICUG_clean_linker_0, # of connection points: 2
#     Edge 85, Type (0, 0), BuildingBlock: OJICUG_clean_linker_0, # of connection points: 2
#     Edge 86, Type (0, 0), BuildingBlock: OJICUG_clean_linker_0, # of connection points: 2
#     Edge 87, Type (0, 0), BuildingBlock: OJICUG_clean_linker_0, # of connection points: 2
#     Edge 88, Type (0, 0), BuildingBlock: OJICUG_clean_linker_0, # of connection points: 2
#     Edge 89, Type (0, 0), BuildingBlock: OJICUG_clean_linker_0, # of connection points: 2
#     Edge 90, Type (0, 0), BuildingBlock: OJICUG_clean_linker_0, # of connection points: 2
#     Edge 91, Type (0, 0), BuildingBlock: OJICUG_clean_linker_0, # of connection points: 2
#     Edge 92, Type (0, 0), BuildingBlock: OJICUG_clean_linker_0, # of connection points: 2
#     Edge 93, Type (0, 0), BuildingBlock: OJICUG_clean_linker_0, # of connection points: 2
#     Edge 94, Type (0, 0), BuildingBlock: OJICUG_clean_linker_0, # of connection points: 2
#     Edge 95, Type (0, 0), BuildingBlock: OJICUG_clean_linker_0, # of connection points: 2
#     Edge 96, Type (0, 0), BuildingBlock: OJICUG_clean_linker_0, # of connection points: 2
#     Edge 97, Type (0, 0), BuildingBlock: OJICUG_clean_linker_0, # of connection points: 2
#     Edge 98, Type (0, 0), BuildingBlock: OJICUG_clean_linker_0, # of connection points: 2
#     Edge 99, Type (0, 0), BuildingBlock: OJICUG_clean_linker_0, # of connection points: 2
#     Edge 100, Type (0, 0), BuildingBlock: OJICUG_clean_linker_0, # of connection points: 2
#     Edge 101, Type (0, 0), BuildingBlock: OJICUG_clean_linker_0, # of connection points: 2
#     Edge 102, Type (0, 0), BuildingBlock: OJICUG_clean_linker_0, # of connection points: 2
#     Edge 103, Type (0, 0), BuildingBlock: OJICUG_clean_linker_0, # of connection points: 2
#     Edge 104, Type (0, 0), BuildingBlock: OJICUG_clean_linker_0, # of connection points: 2
#     Edge 105, Type (0, 0), BuildingBlock: OJICUG_clean_linker_0, # of connection points: 2
#     Edge 106, Type (0, 0), BuildingBlock: OJICUG_clean_linker_0, # of connection points: 2
#     Edge 107, Type (0, 0), BuildingBlock: OJICUG_clean_linker_0, # of connection points: 2
#     Edge 108, Type (0, 0), BuildingBlock: OJICUG_clean_linker_0, # of connection points: 2
#     Edge 109, Type (0, 0), BuildingBlock: OJICUG_clean_linker_0, # of connection points: 2
#     Edge 110, Type (0, 0), BuildingBlock: OJICUG_clean_linker_0, # of connection points: 2
#     Edge 111, Type (0, 0), BuildingBlock: OJICUG_clean_linker_0, # of connection points: 2
#     Edge 112, Type (0, 0), BuildingBlock: OJICUG_clean_linker_0, # of connection points: 2
#     Edge 113, Type (0, 0), BuildingBlock: OJICUG_clean_linker_0, # of connection points: 2
#     Edge 114, Type (0, 0), BuildingBlock: OJICUG_clean_linker_0, # of connection points: 2
#     Edge 115, Type (0, 0), BuildingBlock: OJICUG_clean_linker_0, # of connection points: 2
#     Edge 116, Type (0, 0), BuildingBlock: OJICUG_clean_linker_0, # of connection points: 2
#     Edge 117, Type (0, 0), BuildingBlock: OJICUG_clean_linker_0, # of connection points: 2
#     Edge 118, Type (0, 0), BuildingBlock: OJICUG_clean_linker_0, # of connection points: 2
#     Edge 119, Type (0, 0), BuildingBlock: OJICUG_clean_linker_0, # of connection points: 2
#     Edge 120, Type (0, 0), BuildingBlock: OJICUG_clean_linker_0, # of connection points: 2
#     Edge 121, Type (0, 0), BuildingBlock: OJICUG_clean_linker_0, # of connection points: 2
#     Edge 122, Type (0, 0), BuildingBlock: OJICUG_clean_linker_0, # of connection points: 2
#     Edge 123, Type (0, 0), BuildingBlock: OJICUG_clean_linker_0, # of connection points: 2
#     Edge 124, Type (0, 0), BuildingBlock: OJICUG_clean_linker_0, # of connection points: 2
#     Edge 125, Type (0, 0), BuildingBlock: OJICUG_clean_linker_0, # of connection points: 2
#     Edge 126, Type (0, 0), BuildingBlock: OJICUG_clean_linker_0, # of connection points: 2
#     Edge 127, Type (0, 0), BuildingBlock: OJICUG_clean_linker_0, # of connection points: 2
# Relax obj value: 0.063
# Max RMSD: 0.132
# Mean RMSD: 0.132
data_MOF--net-son--node1-CUKXOW_clean_sbu_0--edge1-OJICUG_clean_linker_0
_symmetry_space_group_name_H-M    P1
_symmetry_Int_Tables_number       1
_symmetry_cell_setting            triclinic
loop_
_symmetry_equiv_pos_as_xyz
'x, y, z'
_cell_length_a     108.44928
_cell_length_b     43.73913
_cell_length_c     10.318713
_cell_angle_alpha  89.943273
_cell_angle_beta   90.046178
_cell_angle_gamma 90.005927
loop_
_atom_site_label
_atom_site_type_symbol
_atom_site_fract_x
_atom_site_fract_y
_atom_site_fract_z
_atom_type_partial_charge
Tb0 Tb 0.2888 0.24507 0.262 0.0
C1 C 0.30251 0.30569 0.34211 0.0
Tb2 Tb 0.31824 0.24496 0.29415 0.0
O3 O 0.28434 0.24204 0.47122 0.0
O4 O 0.30216 0.24073 0.40706 0.0
O5 O 0.29247 0.29371 0.28779 0.0
C6 C 0.3413 0.2454 0.3783 0.0
O7 O 0.31275 0.28984 0.3662 0.0
C8 C 0.31122 0.24937 1.0467 0.0
C9 C 0.30431 0.18355 0.23364 0.0
O10 O 0.33554 0.26867 0.32911 0.0
O11 O 0.33399 0.22187 0.3831 0.0
O12 O 0.32263 0.24852 0.08455 0.0
O13 O 0.30488 0.24873 0.1486 0.0
O14 O 0.31427 0.19623 0.28638 0.0
O15 O 0.29419 0.19914 0.20224 0.0
C16 C 0.26638 0.24496 0.16077 0.0
O17 O 0.27072 0.22427 0.23861 0.0
O18 O 0.27466 0.26589 0.13981 0.0
C19 C 0.29577 0.24054 0.50885 0.0
Tb20 Tb 0.94529 0.99199 0.25229 0.0
C21 C 0.93171 0.93153 0.33474 0.0
Tb22 Tb 0.91588 0.99191 0.28418 0.0
O23 O 0.94974 -0.00482 0.46164 0.0
O24 O 0.93195 -0.00326 0.39697 0.0
O25 O 0.94169 0.94342 0.27918 0.0
C26 C 0.8929 0.99164 0.36962 0.0
O27 O 0.92147 0.94734 0.35863 0.0
C28 C 0.92287 0.98708 1.03688 0.0
C29 C 0.92966 0.0531 0.219 0.0
O30 O 0.89861 0.96828 0.3207 0.0
O31 O 0.90022 0.01517 0.3732 0.0
O32 O 0.91147 0.98801 0.07463 0.0
O33 O 0.92921 0.98779 0.13891 0.0
O34 O 0.91976 0.0406 0.27348 0.0
O35 O 0.93977 0.03746 0.18832 0.0
C36 C 0.96771 0.99238 0.15218 0.0
O37 O 0.96328 0.01319 0.22867 0.0
O38 O 0.95952 0.97118 0.13197 0.0
C39 C 0.93831 -0.0032 0.49906 0.0
Tb40 Tb 0.28884 0.99264 0.09043 0.0
C41 C 0.30253 0.93198 1.01129 0.0
Tb42 Tb 0.31824 0.99275 0.05903 0.0
O43 O 0.28436 -0.00433 0.88121 0.0
O44 O 0.30219 -0.0031 0.94557 0.0
O45 O 0.29249 0.94399 0.0652 0.0
C46 C 0.34129 0.99226 0.97558 0.0
O47 O 0.31277 0.94782 0.98726 0.0
C48 C 0.31124 0.9884 0.30631 0.0
C49 C 0.30432 0.05418 0.11885 0.0
O50 O 0.33552 0.96899 1.02459 0.0
O51 O 0.33399 0.01582 0.97052 0.0
O52 O 0.32264 0.98923 0.26866 0.0
O53 O 0.3049 0.98906 0.20436 0.0
O54 O 0.31429 0.04149 0.0664 0.0
O55 O 0.29421 0.03859 0.15011 0.0
C56 C 0.26646 0.99274 0.19166 0.0
O57 O 0.27078 0.01345 0.11381 0.0
O58 O 0.27474 0.97179 0.21254 0.0
C59 C 0.29579 -0.00286 0.84376 0.0
Tb60 Tb 0.94445 0.2443 0.08769 0.0
C61 C 0.93161 0.30823 1.03336 0.0
Tb62 Tb 0.91704 0.24685 0.07187 0.0
O63 O 0.94614 0.22492 0.89366 0.0
O64 O 0.93155 0.25376 0.9378 0.0
O65 O 0.94169 0.29407 0.07535 0.0
C66 C 0.89308 0.24296 1.01728 0.0
O67 O 0.92129 0.29306 1.00787 0.0
C68 C 0.92602 0.25412 0.3073 0.0
C69 C 0.92996 0.18254 0.11026 0.0
O70 O 0.89789 0.25925 0.10881 0.0
O71 O 0.90178 0.22884 0.95493 0.0
O72 O 0.91596 0.26668 0.2659 0.0
O73 O 0.92995 0.23654 0.22044 0.0
O74 O 0.91984 0.19713 0.07242 0.0
O75 O 0.94027 0.19732 0.13939 0.0
C76 C 0.96762 0.24843 0.17024 0.0
O77 O 0.96403 0.23358 0.06839 0.0
O78 O 0.95819 0.26135 0.22478 0.0
C79 C 0.93583 0.23633 0.85189 0.0
Tb80 Tb 0.66647 0.74261 0.8079 0.0
C81 C 0.68031 0.80409 0.86946 0.0
Tb82 Tb 0.69586 0.74272 0.83962 0.0
O83 O 0.66208 0.73924 1.01751 0.0
O84 O 0.67982 0.73882 0.95327 0.0
O85 O 0.67037 0.79139 0.81643 0.0
C86 C 0.71821 0.74256 0.94161 0.0
O87 O 0.69044 0.78853 0.90046 0.0
C88 C 0.68891 0.7475 0.5929 0.0
C89 C 0.68225 0.68196 0.75947 0.0
O90 O 0.71393 0.76341 0.8641 0.0
O91 O 0.70991 0.72163 0.96171 0.0
O92 O 0.70035 0.74628 0.63065 0.0
O93 O 0.6825 0.74677 0.69445 0.0
O94 O 0.69229 0.69407 0.81316 0.0
O95 O 0.67197 0.69769 0.73609 0.0
C96 C 0.64342 0.7421 0.72444 0.0
O97 O 0.64916 0.71891 0.77455 0.0
O98 O 0.65075 0.76559 0.71821 0.0
C99 C 0.67349 0.73839 0.05524 0.0
Tb100 Tb 0.06803 -0.00432 0.80075 0.0
C101 C 0.05424 0.93427 0.86394 0.0
Tb102 Tb 0.03863 -0.00447 0.83195 0.0
O103 O 0.07239 -0.00075 1.01041 0.0
O104 O 0.05467 -0.00026 0.94574 0.0
O105 O 0.06416 0.94692 0.8105 0.0
C106 C 0.01623 -0.00473 0.93276 0.0
O107 O 0.0441 0.94983 0.89438 0.0
C108 C 0.04559 0.99048 0.58547 0.0
C109 C 0.0522 0.05612 0.74859 0.0
O110 O 0.02061 0.9745 0.8558 0.0
O111 O 0.02445 0.01639 0.95302 0.0
O112 O 0.03416 0.9918 0.62294 0.0
O113 O 0.05199 0.99119 0.68725 0.0
O114 O 0.04216 0.04416 0.80307 0.0
O115 O 0.06249 0.04034 0.72631 0.0
C116 C 0.0911 -0.0039 0.71834 0.0
O117 O 0.08535 0.01935 0.76751 0.0
O118 O 0.08377 0.97262 0.71237 0.0
C119 C 0.06099 0.00017 1.04791 0.0
Tb120 Tb 0.6664 -0.00539 1.05143 0.0
C121 C 0.68024 0.93321 0.98954 0.0
Tb122 Tb 0.69578 -0.0054 1.02029 0.0
O123 O 0.66201 -0.00192 0.84176 0.0
O124 O 0.67974 -0.00137 0.90636 0.0
O125 O 0.67029 0.94584 1.0425 0.0
C126 C 0.71812 -0.00546 0.91877 0.0
O127 O 0.69036 0.94882 0.95887 0.0
C128 C 0.68883 0.98966 0.26683 0.0
C129 C 0.68218 0.05519 0.10197 0.0
O130 O 0.71381 0.97375 0.9963 0.0
O131 O 0.70986 0.01556 0.89845 0.0
O132 O 0.70027 0.99099 0.22931 0.0
O133 O 0.68242 0.99033 0.16511 0.0
O134 O 0.69222 0.04322 1.04793 0.0
O135 O 0.6719 0.0394 0.12462 0.0
C136 C 0.64335 -0.00478 0.13439 0.0
O137 O 0.64912 0.01841 0.08462 0.0
O138 O 0.65065 0.97168 0.14051 0.0
C139 C 0.67342 -0.00097 0.80424 0.0
Tb140 Tb 0.06838 0.74385 1.047 0.0
C141 C 0.05446 0.8052 0.98549 0.0
Tb142 Tb 0.03899 0.74372 1.01529 0.0
O143 O 0.07277 0.74056 0.83743 0.0
O144 O 0.05504 0.73995 0.90164 0.0
O145 O 0.06442 0.7926 1.03871 0.0
C146 C 0.01662 0.7437 0.91394 0.0
O147 O 0.04437 0.78955 0.95419 0.0
C148 C 0.04593 0.74846 0.262 0.0
C149 C 0.05266 0.68307 0.09515 0.0
O150 O 0.02094 0.76451 0.99121 0.0
O151 O 0.02489 0.72272 0.8937 0.0
O152 O 0.0345 0.74711 0.22428 0.0
O153 O 0.05234 0.74785 0.16043 0.0
O154 O 0.04261 0.69509 1.04125 0.0
O155 O 0.06291 0.69889 0.1189 0.0
C156 C 0.09142 0.74309 0.13057 0.0
O157 O 0.08563 0.71994 0.08098 0.0
O158 O 0.08415 0.76669 0.13613 0.0
C159 C 0.06137 0.73959 0.7997 0.0
Tb160 Tb 0.28895 0.74478 0.76675 0.0
C161 C 0.3026 0.80546 0.84667 0.0
Tb162 Tb 0.31833 0.74477 0.79853 0.0
O163 O 0.28446 0.74163 0.97586 0.0
O164 O 0.3023 0.74049 0.91181 0.0
O165 O 0.29257 0.79343 0.7925 0.0
C166 C 0.34138 0.74526 0.88205 0.0
O167 O 0.31285 0.78965 0.87066 0.0
C168 C 0.31133 0.7492 0.55118 0.0
C169 C 0.30446 0.68333 0.7374 0.0
O170 O 0.33561 0.76852 0.83284 0.0
O171 O 0.33408 0.72171 0.88734 0.0
O172 O 0.32273 0.7484 0.58901 0.0
O173 O 0.30499 0.7485 0.65304 0.0
O174 O 0.31442 0.69601 0.79012 0.0
O175 O 0.29433 0.6989 0.70646 0.0
C176 C 0.26658 0.7448 0.66503 0.0
O177 O 0.27088 0.72401 0.74272 0.0
O178 O 0.27487 0.76574 0.6446 0.0
C179 C 0.2959 0.7402 1.01351 0.0
Tb180 Tb 0.9463 0.49395 0.77623 0.0
C181 C 0.93252 0.43407 0.86331 0.0
Tb182 Tb 0.91691 0.49447 0.80773 0.0
O183 O 0.95079 0.49728 0.98534 0.0
O184 O 0.93298 0.49925 0.92065 0.0
O185 O 0.94255 0.44549 0.80676 0.0
C186 C 0.89383 0.49384 0.88927 0.0
O187 O 0.92236 0.45025 0.88593 0.0
C188 C 0.92392 0.48934 0.56046 0.0
C189 C 0.93084 0.55544 0.74438 0.0
O190 O 0.89971 0.47049 0.84264 0.0
O191 O 0.90104 0.51759 0.89313 0.0
O192 O 0.91253 0.49057 0.59809 0.0
O193 O 0.93024 0.48988 0.66265 0.0
O194 O 0.9209 0.54305 0.79846 0.0
O195 O 0.94093 0.53972 0.71372 0.0
C196 C 0.96861 0.49359 0.67338 0.0
O197 O 0.96439 0.5145 0.75072 0.0
O198 O 0.96028 0.47267 0.65416 0.0
C199 C 0.93936 0.49923 1.02271 0.0
Tb200 Tb 0.28895 0.49266 0.58959 0.0
C201 C 0.30259 0.43203 0.50921 0.0
Tb202 Tb 0.31835 0.49269 0.55816 0.0
O203 O 0.28447 0.49582 0.38038 0.0
O204 O 0.3023 0.49703 0.4448 0.0
O205 O 0.29256 0.44402 0.56343 0.0
C206 C 0.34141 0.49222 0.47487 0.0
O207 O 0.31285 0.44785 0.48557 0.0
C208 C 0.31134 0.4882 0.80543 0.0
C209 C 0.30447 0.55411 0.61936 0.0
O210 O 0.33564 0.46896 0.524 0.0
O211 O 0.3341 0.51576 0.46957 0.0
O212 O 0.32274 0.48904 0.76779 0.0
O213 O 0.305 0.48889 0.70342 0.0
O214 O 0.31443 0.54145 0.56674 0.0
O215 O 0.29434 0.53852 0.65011 0.0
C216 C 0.26656 0.49266 0.69086 0.0
O217 O 0.27088 0.51343 0.61324 0.0
O218 O 0.27485 0.47171 0.7115 0.0
C219 C 0.29591 0.49728 0.34293 0.0
Tb220 Tb 0.94584 0.74575 0.59047 0.0
C221 C 0.932 0.80593 0.50904 0.0
Tb222 Tb 0.91644 0.74509 0.55863 0.0
O223 O 0.95032 0.74272 0.38135 0.0
O224 O 0.9325 0.74098 0.44555 0.0
O225 O 0.94205 0.79425 0.56416 0.0
C226 C 0.89338 0.74523 0.47545 0.0
O227 O 0.92183 0.78988 0.48497 0.0
C228 C 0.92344 0.74979 0.80597 0.0
C229 C 0.93054 0.68411 0.62023 0.0
O230 O 0.89914 0.76866 0.52309 0.0
O231 O 0.9007 0.7217 0.47151 0.0
O232 O 0.91204 0.74867 0.76814 0.0
O233 O 0.92977 0.74925 0.70408 0.0
O234 O 0.92057 0.69649 0.56663 0.0
O235 O 0.94058 0.69992 0.65188 0.0
C236 C 0.96822 0.74588 0.69158 0.0
O237 O 0.96392 0.72507 0.61426 0.0
O238 O 0.95993 0.76681 0.71199 0.0
C239 C 0.93889 0.74092 0.34376 0.0
Tb240 Tb 0.66671 0.24187 0.32563 0.0
C241 C 0.6808 0.30323 0.38351 0.0
Tb242 Tb 0.69616 0.2414 0.35833 0.0
O243 O 0.66231 0.23879 0.53543 0.0
O244 O 0.68004 0.23798 0.47127 0.0
O245 O 0.67082 0.29053 0.33114 0.0
C246 C 0.71851 0.24079 0.46194 0.0
O247 O 0.69088 0.28761 0.41582 0.0
C248 C 0.68922 0.24619 0.11139 0.0
C249 C 0.68236 0.18101 0.27612 0.0
O250 O 0.71443 0.26118 0.38108 0.0
O251 O 0.71001 0.2205 0.48449 0.0
O252 O 0.70066 0.24473 0.14915 0.0
O253 O 0.68281 0.24562 0.21305 0.0
O254 O 0.69245 0.19284 0.33005 0.0
O255 O 0.67211 0.19692 0.25349 0.0
C256 C 0.64368 0.24171 0.24026 0.0
O257 O 0.64936 0.21839 0.29016 0.0
O258 O 0.65105 0.26513 0.2357 0.0
C259 C 0.67372 0.23778 0.57328 0.0
Tb260 Tb 0.06828 0.49561 0.3069 0.0
C261 C 0.05429 0.43413 0.36399 0.0
Tb262 Tb 0.03888 0.49577 0.33837 0.0
O263 O 0.07268 0.49867 0.51666 0.0
O264 O 0.05494 0.49917 0.45224 0.0
O265 O 0.06424 0.44691 0.31154 0.0
C266 C 0.01659 0.49598 0.44161 0.0
O267 O 0.04422 0.4497 0.39671 0.0
C268 C 0.0458 0.49128 0.09172 0.0
C269 C 0.05261 0.55648 0.2595 0.0
O270 O 0.02078 0.47522 0.36342 0.0
O271 O 0.02493 0.51682 0.46148 0.0
O272 O 0.03436 0.49253 0.12931 0.0
O273 O 0.05222 0.49191 0.19329 0.0
O274 O 0.04254 0.54442 0.31277 0.0
O275 O 0.06286 0.54068 0.23587 0.0
C276 C 0.09133 0.49603 0.22359 0.0
O277 O 0.08556 0.51934 0.27212 0.0
O278 O 0.08402 0.47248 0.21892 0.0
C279 C 0.06127 0.49952 0.55425 0.0
Tb280 Tb 0.66676 0.49445 0.54879 0.0
C281 C 0.68074 0.43297 0.4913 0.0
Tb282 Tb 0.69618 0.49462 0.51734 0.0
O283 O 0.66237 0.49755 0.33904 0.0
O284 O 0.68011 0.49811 0.40348 0.0
O285 O 0.67079 0.44572 0.54364 0.0
C286 C 0.71856 0.49441 0.41574 0.0
O287 O 0.69082 0.44856 0.4589 0.0
C288 C 0.68924 0.49013 0.76403 0.0
C289 C 0.68245 0.55534 0.59564 0.0
O290 O 0.71425 0.47379 0.49404 0.0
O291 O 0.71028 0.51535 0.39469 0.0
O292 O 0.70067 0.49146 0.7265 0.0
O293 O 0.68282 0.49068 0.66235 0.0
O294 O 0.69252 0.54329 0.54239 0.0
O295 O 0.67221 0.5395 0.61951 0.0
C296 C 0.6437 0.49511 0.63201 0.0
O297 O 0.6495 0.51832 0.58296 0.0
O298 O 0.65097 0.47151 0.63725 0.0
C299 C 0.67377 0.49846 0.30146 0.0
Tb300 Tb 0.06805 0.24258 0.52501 0.0
C301 C 0.05415 0.30428 0.46859 0.0
Tb302 Tb 0.03858 0.24275 0.49253 0.0
O303 O 0.07245 0.23939 0.31534 0.0
O304 O 0.0547 0.23926 0.37935 0.0
O305 O 0.0641 0.29133 0.5203 0.0
C306 C 0.01621 0.2439 0.38969 0.0
O307 O 0.04402 0.2889 0.43611 0.0
C308 C 0.04558 0.24709 0.7393 0.0
C309 C 0.05215 0.18197 0.57352 0.0
O310 O 0.02036 0.26312 0.47495 0.0
O311 O 0.02463 0.22369 0.36276 0.0
O312 O 0.03414 0.24581 0.70181 0.0
O313 O 0.05197 0.24654 0.63752 0.0
O314 O 0.04208 0.19405 0.51994 0.0
O315 O 0.06246 0.19767 0.59633 0.0
C316 C 0.09107 0.24217 0.61085 0.0
O317 O 0.08534 0.21887 0.56152 0.0
O318 O 0.08375 0.26569 0.61463 0.0
C319 C 0.06104 0.23879 0.27745 0.0
Tb320 Tb 0.78985 0.24485 0.77716 0.0
C321 C 0.80412 0.30577 0.83539 0.0
Tb322 Tb 0.81842 0.24256 0.81068 0.0
O323 O 0.78692 0.25658 0.98001 0.0
O324 O 0.80261 0.23195 0.92671 0.0
O325 O 0.79404 0.29345 0.78423 0.0
C326 C 0.8414 0.23863 0.89896 0.0
O327 O 0.81425 0.28983 0.862 0.0
C328 C 0.81216 0.25068 0.56241 0.0
C329 C 0.80406 0.18192 0.7526 0.0
O330 O 0.8332 0.25806 0.9395 0.0
O331 O 0.83659 0.22131 0.81062 0.0
O332 O 0.82344 0.24853 0.60316 0.0
O333 O 0.80561 0.24956 0.66268 0.0
O334 O 0.81385 0.19413 0.81013 0.0
O335 O 0.79422 0.19818 0.7191 0.0
C336 C 0.76707 0.24338 0.68343 0.0
O337 O 0.77121 0.22569 0.77486 0.0
O338 O 0.77571 0.26183 0.64569 0.0
C339 C 0.79748 0.24612 1.01957 0.0
Tb340 Tb 0.44574 0.99271 0.76579 0.0
C341 C 0.43209 0.93199 0.84519 0.0
Tb342 Tb 0.41634 0.99269 0.79721 0.0
O343 O 0.45023 -0.00425 0.97499 0.0
O344 O 0.43239 -0.00313 0.91065 0.0
O345 O 0.44212 0.94406 0.79116 0.0
C346 C 0.39329 0.99222 0.88069 0.0
O347 O 0.42184 0.94778 0.86922 0.0
C348 C 0.42334 0.98841 0.54995 0.0
C349 C 0.43024 0.05417 0.73731 0.0
O350 O 0.39907 0.96893 0.83209 0.0
O351 O 0.40059 0.01579 0.88535 0.0
O352 O 0.41194 0.98917 0.5876 0.0
O353 O 0.42969 0.9891 0.65189 0.0
O354 O 0.42029 0.04144 0.78987 0.0
O355 O 0.44035 0.03863 0.70588 0.0
C356 C 0.46812 0.99284 0.66449 0.0
O357 O 0.4638 0.01355 0.74216 0.0
O358 O 0.45984 0.97188 0.64384 0.0
C359 C 0.43879 -0.00286 1.01244 0.0
Tb360 Tb 0.78874 0.99171 0.59307 0.0
C361 C 0.80249 0.93127 0.51332 0.0
Tb362 Tb 0.81813 0.99215 0.56162 0.0
O363 O 0.78427 -0.00528 0.38377 0.0
O364 O 0.80208 -0.00357 0.44836 0.0
O365 O 0.79244 0.94314 0.56764 0.0
C366 C 0.84112 0.9918 0.47652 0.0
O367 O 0.8127 0.94722 0.48932 0.0
C368 C 0.81116 0.9874 0.80883 0.0
C369 C 0.80412 0.05327 0.6255 0.0
O370 O 0.83544 0.96858 0.52717 0.0
O371 O 0.83377 0.01526 0.47102 0.0
O372 O 0.82256 0.98846 0.77114 0.0
O373 O 0.80481 0.98802 0.70685 0.0
O374 O 0.81413 0.04085 0.57279 0.0
O375 O 0.79401 0.03753 0.65499 0.0
C376 C 0.76636 0.99172 0.6939 0.0
O377 O 0.77068 0.0125 0.61638 0.0
O378 O 0.77464 0.97074 0.71457 0.0
C379 C 0.7957 -0.00355 0.34638 0.0
Tb380 Tb 0.44579 0.24503 0.59468 0.0
C381 C 0.43213 0.30568 0.51411 0.0
Tb382 Tb 0.41635 0.24503 0.56254 0.0
O383 O 0.45025 0.24199 0.38548 0.0
O384 O 0.43242 0.24075 0.44966 0.0
O385 O 0.44215 0.29367 0.56866 0.0
C386 C 0.39329 0.24544 0.4784 0.0
O387 O 0.42188 0.28988 0.49007 0.0
C388 C 0.42337 0.24941 0.80995 0.0
C389 C 0.43026 0.18359 0.62326 0.0
O390 O 0.39906 0.26875 0.52703 0.0
O391 O 0.4006 0.2219 0.47412 0.0
O392 O 0.41197 0.24861 0.7721 0.0
O393 O 0.42971 0.24873 0.70808 0.0
O394 O 0.42031 0.1963 0.57035 0.0
O395 O 0.44037 0.19914 0.65481 0.0
C396 C 0.46823 0.24488 0.6956 0.0
O397 O 0.46386 0.22418 0.61804 0.0
O398 O 0.45995 0.26583 0.71651 0.0
C399 C 0.43881 0.24054 0.34787 0.0
Tb400 Tb 0.16648 0.7428 0.30801 0.0
C401 C 0.18036 0.80423 0.36899 0.0
Tb402 Tb 0.19587 0.74279 0.33973 0.0
O403 O 0.16209 0.73943 0.51761 0.0
O404 O 0.17982 0.73898 0.45341 0.0
O405 O 0.17042 0.79155 0.31597 0.0
C406 C 0.21823 0.74268 0.44148 0.0
O407 O 0.19048 0.78865 0.40023 0.0
C408 C 0.18893 0.74754 0.093 0.0
C409 C 0.18221 0.68209 0.25965 0.0
O410 O 0.21394 0.76349 0.36388 0.0
O411 O 0.20993 0.72175 0.46182 0.0
O412 O 0.20036 0.74627 0.13073 0.0
O413 O 0.18251 0.74687 0.19457 0.0
O414 O 0.19226 0.69414 0.31338 0.0
O415 O 0.17194 0.69788 0.23617 0.0
C416 C 0.14344 0.74246 0.2244 0.0
O417 O 0.14916 0.7192 0.27423 0.0
O418 O 0.15079 0.76591 0.21856 0.0
C419 C 0.17349 0.73856 0.55536 0.0
Tb420 Tb 0.5683 -0.00515 0.31027 0.0
C421 C 0.55435 0.93354 0.37076 0.0
Tb422 Tb 0.5389 -0.0049 0.34152 0.0
O423 O 0.57269 -0.00189 0.51994 0.0
O424 O 0.55496 -0.00123 0.45544 0.0
O425 O 0.56429 0.94616 0.31764 0.0
C426 C 0.51652 -0.00483 0.44258 0.0
O427 O 0.54426 0.94919 0.40219 0.0
C428 C 0.54584 0.99034 0.09494 0.0
C429 C 0.55266 0.05568 0.26148 0.0
O430 O 0.52083 0.97439 0.36519 0.0
O431 O 0.52481 0.0161 0.46312 0.0
O432 O 0.53441 0.99173 0.13245 0.0
O433 O 0.55225 0.99093 0.19662 0.0
O434 O 0.54258 0.04373 0.31517 0.0
O435 O 0.56289 0.03979 0.23802 0.0
C436 C 0.59134 -0.00467 0.22711 0.0
O437 O 0.58558 0.01858 0.27625 0.0
O438 O 0.58403 0.97179 0.22175 0.0
C439 C 0.56129 -0.0009 0.55748 0.0
Tb440 Tb 0.16626 -0.00521 0.54593 0.0
C441 C 0.18023 0.93348 0.48611 0.0
Tb442 Tb 0.19566 -0.00493 0.51467 0.0
O443 O 0.16187 -0.002 0.3362 0.0
O444 O 0.1796 -0.00126 0.40076 0.0
O445 O 0.17027 0.94608 0.53906 0.0
C446 C 0.21805 -0.00489 0.4136 0.0
O447 O 0.19031 0.94916 0.45448 0.0
C448 C 0.18872 0.9903 0.76129 0.0
C449 C 0.18191 0.05565 0.59421 0.0
O450 O 0.21373 0.97435 0.49121 0.0
O451 O 0.20976 0.01605 0.39284 0.0
O452 O 0.20015 0.99171 0.72376 0.0
O453 O 0.18231 0.99088 0.65961 0.0
O454 O 0.19199 0.0437 0.54061 0.0
O455 O 0.17168 0.03975 0.61776 0.0
C456 C 0.14319 -0.00448 0.6285 0.0
O457 O 0.14901 0.0187 0.57942 0.0
O458 O 0.15045 0.9719 0.63418 0.0
C459 C 0.17328 -0.00096 0.29868 0.0
Tb460 Tb 0.56833 0.74296 0.54865 0.0
C461 C 0.55438 0.8043 0.48818 0.0
Tb462 Tb 0.53894 0.74276 0.51693 0.0
O463 O 0.57272 0.73971 0.33905 0.0
O464 O 0.55499 0.73909 0.40327 0.0
O465 O 0.56433 0.79167 0.54139 0.0
C466 C 0.51658 0.74266 0.41524 0.0
O467 O 0.5443 0.78866 0.45646 0.0
C468 C 0.54588 0.7475 0.76363 0.0
C469 C 0.55265 0.68215 0.59702 0.0
O470 O 0.52087 0.76346 0.49273 0.0
O471 O 0.52487 0.72174 0.39498 0.0
O472 O 0.53444 0.74614 0.72591 0.0
O473 O 0.55229 0.74688 0.66208 0.0
O474 O 0.54259 0.69414 0.54317 0.0
O475 O 0.56289 0.69801 0.62068 0.0
C476 C 0.59139 0.74236 0.63192 0.0
O477 O 0.5856 0.71913 0.58292 0.0
O478 O 0.5841 0.76594 0.63712 0.0
C479 C 0.56132 0.73874 0.30132 0.0
Tb480 Tb 0.78889 0.74424 0.26785 0.0
C481 C 0.80257 0.80489 0.34749 0.0
Tb482 Tb 0.81828 0.74417 0.29964 0.0
O483 O 0.78439 0.74113 0.47694 0.0
O484 O 0.80223 0.74001 0.41295 0.0
O485 O 0.79253 0.79287 0.29338 0.0
C486 C 0.84133 0.74478 0.38289 0.0
O487 O 0.81281 0.78907 0.37157 0.0
C488 C 0.81127 0.74851 1.05226 0.0
C489 C 0.80435 0.68274 0.23961 0.0
O490 O 0.83553 0.76801 0.33394 0.0
O491 O 0.83406 0.72117 0.38808 0.0
O492 O 0.82267 0.74768 0.09008 0.0
O493 O 0.80493 0.74785 0.15413 0.0
O494 O 0.81431 0.69543 0.29228 0.0
O495 O 0.79424 0.69831 0.20818 0.0
C496 C 0.76653 0.7444 0.16582 0.0
O497 O 0.7708 0.72359 0.24361 0.0
O498 O 0.77485 0.76529 0.14547 0.0
C499 C 0.79583 0.73971 0.51461 0.0
Tb500 Tb 0.44591 0.49255 0.26531 0.0
C501 C 0.43221 0.43197 0.34593 0.0
Tb502 Tb 0.41649 0.49266 0.29679 0.0
O503 O 0.45038 0.49564 0.47453 0.0
O504 O 0.43255 0.49693 0.41008 0.0
O505 O 0.44225 0.44393 0.29157 0.0
C506 C 0.39343 0.49223 0.38006 0.0
O507 O 0.42198 0.44783 0.36967 0.0
C508 C 0.4235 0.48821 1.04954 0.0
C509 C 0.43042 0.55405 0.23588 0.0
O510 O 0.39921 0.46893 0.33166 0.0
O511 O 0.40073 0.51579 0.38466 0.0
O512 O 0.4121 0.48907 0.08718 0.0
O513 O 0.42984 0.48887 0.15152 0.0
O514 O 0.42046 0.54139 0.28871 0.0
O515 O 0.44053 0.53845 0.20478 0.0
C516 C 0.46831 0.49261 0.16431 0.0
O517 O 0.46398 0.51334 0.2418 0.0
O518 O 0.46003 0.47166 0.14361 0.0
C519 C 0.43895 0.49714 0.51196 0.0
Tb520 Tb 0.7893 0.49165 0.09013 0.0
C521 C 0.80336 0.43177 1.00611 0.0
Tb522 Tb 0.81869 0.49278 0.05886 0.0
O523 O 0.78481 0.49469 0.88097 0.0
O524 O 0.80261 0.49693 0.94562 0.0
O525 O 0.79325 0.44317 0.06125 0.0
C526 C 0.84176 0.49287 0.97699 0.0
O527 O 0.81349 0.44808 0.98337 0.0
C528 C 0.81169 0.48775 0.30611 0.0
C529 C 0.80453 0.55362 0.12048 0.0
O530 O 0.83604 0.46942 1.02508 0.0
O531 O 0.83439 0.51631 0.97187 0.0
O532 O 0.82308 0.48915 0.2685 0.0
O533 O 0.80536 0.48818 0.20402 0.0
O534 O 0.81454 0.54134 0.06738 0.0
O535 O 0.79448 0.5377 0.15109 0.0
C536 C 0.76689 0.49145 0.19109 0.0
O537 O 0.77118 0.51219 0.11324 0.0
O538 O 0.7752 0.47059 0.21205 0.0
C539 C 0.79623 0.49679 0.84363 0.0
Tb540 Tb 0.44586 0.74484 0.08998 0.0
C541 C 0.43216 0.80547 1.01007 0.0
Tb542 Tb 0.41647 0.74471 0.05818 0.0
O543 O 0.45034 0.74178 0.8809 0.0
O544 O 0.43251 0.74056 0.94493 0.0
O545 O 0.4422 0.79347 0.06432 0.0
C546 C 0.39342 0.7452 0.97472 0.0
O547 O 0.42193 0.78961 0.98594 0.0
C548 C 0.42347 0.74909 0.30553 0.0
C549 C 0.43039 0.68332 0.11888 0.0
O550 O 0.3992 0.76849 1.02326 0.0
O551 O 0.4007 0.72162 0.97008 0.0
O552 O 0.41207 0.74825 0.2677 0.0
O553 O 0.42981 0.74843 0.20368 0.0
O554 O 0.42043 0.69598 0.066 0.0
O555 O 0.4405 0.69892 0.15022 0.0
C556 C 0.46822 0.74485 0.19167 0.0
O557 O 0.46392 0.72408 0.11406 0.0
O558 O 0.45994 0.76579 0.21203 0.0
C559 C 0.43891 0.74031 0.84325 0.0
Tb560 Tb 0.16591 0.24283 0.80739 0.0
C561 C 0.17987 0.30422 0.86849 0.0
Tb562 Tb 0.19535 0.24275 0.83972 0.0
O563 O 0.16152 0.23959 1.01707 0.0
O564 O 0.17926 0.23897 0.95289 0.0
O565 O 0.1699 0.29159 0.81557 0.0
C566 C 0.21778 0.24282 0.94097 0.0
O567 O 0.18996 0.28859 0.90003 0.0
C568 C 0.18839 0.24742 0.59281 0.0
C569 C 0.18169 0.18207 0.76008 0.0
O570 O 0.21344 0.26354 0.86325 0.0
O571 O 0.20949 0.22188 0.9618 0.0
O572 O 0.19982 0.24609 0.63053 0.0
O573 O 0.18199 0.24685 0.6945 0.0
O574 O 0.19174 0.19412 0.81401 0.0
O575 O 0.17143 0.19784 0.73628 0.0
C576 C 0.14289 0.24231 0.72178 0.0
O577 O 0.14858 0.21917 0.77287 0.0
O578 O 0.15024 0.26577 0.71614 0.0
C579 C 0.17293 0.23864 0.05487 0.0
Tb580 Tb 0.56862 0.49507 0.81116 0.0
C581 C 0.55477 0.43355 0.87138 0.0
Tb582 Tb 0.5392 0.4949 0.84264 0.0
O583 O 0.573 0.49838 1.02087 0.0
O584 O 0.55526 0.49872 0.95638 0.0
O585 O 0.5647 0.44632 0.81846 0.0
C586 C 0.51681 0.49481 0.94385 0.0
O587 O 0.54465 0.44905 0.90298 0.0
C588 C 0.54616 0.49031 0.59599 0.0
C589 C 0.55282 0.55569 0.76285 0.0
O590 O 0.52114 0.47407 0.86639 0.0
O591 O 0.52509 0.51577 0.96441 0.0
O592 O 0.53472 0.4915 0.63352 0.0
O593 O 0.55257 0.49099 0.69769 0.0
O594 O 0.54278 0.54357 0.81655 0.0
O595 O 0.56309 0.53998 0.73931 0.0
C596 C 0.59168 0.49553 0.72765 0.0
O597 O 0.58593 0.51876 0.77714 0.0
O598 O 0.58434 0.47204 0.72212 0.0
C599 C 0.56159 0.49916 0.05843 0.0
Tb600 Tb 0.16636 0.49505 1.04551 0.0
C601 C 0.18015 0.43352 0.98487 0.0
Tb602 Tb 0.19576 0.49484 1.01415 0.0
O603 O 0.16198 0.49839 0.83579 0.0
O604 O 0.17972 0.49878 0.90033 0.0
O605 O 0.17023 0.44628 1.03775 0.0
C606 C 0.21814 0.4948 0.91268 0.0
O607 O 0.19029 0.44901 0.95372 0.0
C608 C 0.18882 0.49015 0.2608 0.0
C609 C 0.18217 0.55563 0.09406 0.0
O610 O 0.21382 0.47402 0.99019 0.0
O611 O 0.20986 0.51578 0.89226 0.0
O612 O 0.20025 0.49133 0.22325 0.0
O613 O 0.1824 0.49087 0.15911 0.0
O614 O 0.19222 0.54352 1.04051 0.0
O615 O 0.17189 0.53991 0.11742 0.0
C616 C 0.14333 0.49578 0.12893 0.0
O617 O 0.14909 0.51891 0.07875 0.0
O618 O 0.15062 0.47222 0.13515 0.0
C619 C 0.17339 0.49921 0.79825 0.0
Tb620 Tb 0.56879 0.24268 1.04627 0.0
C621 C 0.55489 0.30415 0.98552 0.0
Tb622 Tb 0.53935 0.24277 1.01403 0.0
O623 O 0.57318 0.23942 0.83662 0.0
O624 O 0.55544 0.23894 0.90079 0.0
O625 O 0.56483 0.29144 1.03863 0.0
C626 C 0.51691 0.24289 0.91304 0.0
O627 O 0.54479 0.28859 0.95362 0.0
C628 C 0.54632 0.24738 0.26088 0.0
C629 C 0.55296 0.18204 0.09425 0.0
O630 O 0.52128 0.26361 0.9905 0.0
O631 O 0.52519 0.22194 0.89226 0.0
O632 O 0.53488 0.24612 0.22317 0.0
O633 O 0.55272 0.24676 0.15921 0.0
O634 O 0.54293 0.19413 1.04014 0.0
O635 O 0.56324 0.19776 0.11796 0.0
C636 C 0.59183 0.24212 0.13132 0.0
O637 O 0.58609 0.21893 0.08133 0.0
O638 O 0.58452 0.26564 0.13628 0.0
C639 C 0.56177 0.23856 0.79883 0.0
C640 C 0.23397 0.22009 0.08219 0.0
C641 C 0.2302 0.24329 0.99717 0.0
H642 H 0.24853 0.20252 0.20104 0.0
C643 C 0.23837 0.26709 0.96619 0.0
H644 H 0.22781 0.20153 0.10747 0.0
C645 C 0.25018 0.26768 1.01956 0.0
C646 C 0.25396 0.24448 0.10459 0.0
H647 H 0.23563 0.28525 0.90073 0.0
H648 H 0.25635 0.28624 0.99428 0.0
C649 C 0.24579 0.22068 0.13557 0.0
C650 C -0.00423 0.97056 0.95893 0.0
C651 C 0.00384 -0.00538 0.98894 0.0
H652 H 0.97787 0.95103 0.98775 0.0
C653 C -1e-05 0.01788 0.07302 0.0
H654 H -0.00144 0.95235 0.89422 0.0
C655 C 0.98819 0.0171 0.12639 0.0
C656 C 0.98012 0.99305 0.0963 0.0
H657 H 0.00609 0.03663 0.09755 0.0
H658 H 0.98539 0.03531 0.1911 0.0
C659 C 0.98397 0.96978 1.0123 0.0
C660 C 0.23415 0.01778 0.27169 0.0
C661 C 0.23042 -0.00539 0.35701 0.0
H662 H 0.24864 0.03524 0.15194 0.0
C663 C 0.23858 0.97078 0.3877 0.0
H664 H 0.22798 0.03635 0.24664 0.0
C665 C 0.25036 0.97012 0.33367 0.0
C666 C 0.25409 0.99328 0.24832 0.0
H667 H 0.23588 0.95265 0.4534 0.0
H668 H 0.25653 0.95155 0.35872 0.0
C669 C 0.24593 0.01712 0.21765 0.0
C670 C -0.00497 0.26545 0.3823 0.0
C671 C 0.00388 0.24537 0.3315 0.0
H672 H 0.97648 0.28205 0.3706 0.0
C673 C 0.00088 0.227 0.22477 0.0
H674 H -0.00284 0.27989 0.46455 0.0
C675 C 0.98912 0.22855 0.17003 0.0
C676 C 0.9802 0.24824 0.22238 0.0
H677 H 0.00761 0.21149 0.18363 0.0
H678 H 0.98695 0.21399 0.08826 0.0
C679 C 0.98324 0.26673 0.32859 0.0
C680 C 0.73423 0.71969 0.08397 0.0
C681 C 0.73056 0.74295 0.99879 0.0
H682 H 0.74865 0.70201 0.20417 0.0
C683 C 0.73876 0.76675 0.96882 0.0
H684 H 0.72803 0.70114 0.10845 0.0
C685 C 0.75051 0.76727 1.02342 0.0
C686 C 0.75419 0.74401 0.10862 0.0
H687 H 0.73609 0.78495 0.90324 0.0
H688 H 0.75672 0.78581 0.99894 0.0
C689 C 0.74599 0.72021 0.13858 0.0
C690 C 0.75032 0.96918 0.83654 0.0
C691 C 0.75403 0.99232 0.75104 0.0
H692 H 0.73589 0.95186 0.95726 0.0
C693 C 0.7459 0.01626 0.721 0.0
H694 H 0.75647 0.95054 0.86111 0.0
C695 C 0.73416 0.01705 0.77589 0.0
C696 C 0.73045 -0.00608 0.86142 0.0
H697 H 0.7486 0.03438 0.65518 0.0
H698 H 0.72801 0.0357 0.75135 0.0
C699 C 0.73858 0.96997 0.89143 0.0
C700 C 0.98875 0.72156 0.71823 0.0
C701 C 0.98059 0.74542 0.74829 0.0
H702 H 0.00669 0.70235 0.74784 0.0
C703 C 0.98432 0.76865 0.83312 0.0
H704 H 0.98604 0.70337 0.65292 0.0
C705 C -0.00391 0.76804 0.88728 0.0
C706 C 0.00425 0.74418 0.85721 0.0
H707 H 0.97815 0.78724 0.85768 0.0
H708 H -0.00119 0.78622 0.9526 0.0
C709 C 0.00052 0.72094 0.77239 0.0
C710 C 0.23429 0.7199 0.58371 0.0
C711 C 0.23059 0.74313 0.4985 0.0
H712 H 0.24874 0.70232 0.70377 0.0
C713 C 0.23876 0.76696 0.46835 0.0
H714 H 0.2281 0.70133 0.60834 0.0
C715 C 0.25053 0.76755 0.52279 0.0
C716 C 0.25423 0.74433 0.60801 0.0
H717 H 0.23608 0.78514 0.40275 0.0
H718 H 0.25671 0.78613 0.49816 0.0
C719 C 0.24605 0.72049 0.63816 0.0
C720 C 0.98444 0.47093 0.52844 0.0
C721 C 0.98088 0.49406 0.61454 0.0
H722 H -0.00132 0.45352 0.40552 0.0
C723 C 0.9891 0.5179 0.64332 0.0
H724 H 0.97822 0.45237 0.50475 0.0
C725 C 0.00076 0.51859 0.58667 0.0
C726 C 0.00432 0.49547 0.50054 0.0
H727 H 0.98652 0.53601 0.70951 0.0
H728 H 0.00697 0.53716 0.61034 0.0
C729 C -0.0039 0.47163 0.47175 0.0
C730 C 0.24602 0.51697 0.71706 0.0
C731 C 0.25419 0.49313 0.74746 0.0
H732 H 0.22807 0.53615 0.74621 0.0
C733 C 0.25046 0.46989 0.83246 0.0
H734 H 0.24873 0.53515 0.65162 0.0
C735 C 0.23868 0.47049 0.88643 0.0
C736 C 0.23051 0.49433 0.85604 0.0
H737 H 0.25663 0.45131 0.85729 0.0
H738 H 0.23598 0.45231 0.95188 0.0
C739 C 0.23424 0.51756 0.77103 0.0
C740 C 0.75118 0.2641 0.5345 0.0
C741 C 0.75459 0.24254 0.62857 0.0
H742 H 0.73698 0.28039 0.40831 0.0
C743 C 0.74607 0.22025 0.66809 0.0
H744 H 0.7576 0.28151 0.50247 0.0
C745 C 0.73428 0.2195 0.61357 0.0
C746 C 0.73088 0.24113 0.51953 0.0
H747 H 0.74854 0.20336 0.74046 0.0
H748 H 0.72782 0.20212 0.64509 0.0
C749 C 0.7394 0.26345 0.48067 0.0
C750 C 0.73463 0.51673 0.27228 0.0
C751 C 0.73091 0.49372 0.35846 0.0
H752 H 0.74906 0.53392 0.15123 0.0
C753 C 0.73907 0.46986 0.38917 0.0
H754 H 0.72847 0.53531 0.24714 0.0
C755 C 0.75082 0.46903 0.33438 0.0
C756 C 0.75453 0.49204 0.24823 0.0
H757 H 0.73638 0.45185 0.4555 0.0
H758 H 0.75698 0.45046 0.35955 0.0
C759 C 0.74637 0.5159 0.21751 0.0
C760 C 0.48865 0.01722 0.63823 0.0
C761 C 0.48048 0.99337 0.60781 0.0
H762 H 0.50659 0.03644 0.60906 0.0
C763 C 0.48421 0.9702 0.52272 0.0
H764 H 0.48594 0.03535 0.70375 0.0
C765 C 0.49598 0.97085 0.4687 0.0
C766 C 0.50415 -0.00531 0.49915 0.0
H767 H 0.47804 0.95163 0.49787 0.0
H768 H 0.49869 0.95271 0.4032 0.0
C769 C 0.50042 0.01787 0.58421 0.0
C770 C 0.48882 0.22063 0.72017 0.0
C771 C 0.48066 0.24443 0.75125 0.0
H772 H 0.50683 0.20154 0.74758 0.0
C773 C 0.48447 0.26767 0.83572 0.0
H774 H 0.48606 0.20245 0.65511 0.0
C775 C 0.49632 0.26713 0.88844 0.0
C776 C 0.50448 0.24334 0.85737 0.0
H777 H 0.47831 0.28622 0.86105 0.0
H778 H 0.49908 0.28531 0.95351 0.0
C779 C 0.50067 0.2201 0.77291 0.0
C780 C 0.48428 0.76756 0.33383 0.0
C781 C 0.48058 0.74437 0.24869 0.0
H782 H 0.49873 0.78511 0.45382 0.0
C783 C 0.48875 0.72054 0.21863 0.0
H784 H 0.4781 0.78613 0.3584 0.0
C785 C 0.50052 0.71992 0.27309 0.0
C786 C 0.50422 0.74312 0.35822 0.0
H787 H 0.48606 0.70238 0.15308 0.0
H788 H 0.5067 0.70136 0.24853 0.0
C789 C 0.49605 0.76695 0.38828 0.0
C790 C 0.49625 0.47049 0.96961 0.0
C791 C 0.50442 0.49432 1.00019 0.0
H792 H 0.47829 0.45131 0.99823 0.0
C793 C 0.50066 0.51752 0.08501 0.0
H794 H 0.49897 0.45233 0.90429 0.0
C795 C 0.48887 0.51692 0.13861 0.0
C796 C 0.4807 0.49309 0.10802 0.0
H797 H 0.50683 0.5361 0.10997 0.0
H798 H 0.48615 0.53508 0.20392 0.0
C799 C 0.48445 0.46988 1.0232 0.0
C800 C 0.37364 0.27282 0.43873 0.0
C801 C 0.38008 0.24513 0.44865 0.0
H802 H 0.35618 0.29449 0.40853 0.0
C803 C 0.37367 0.21737 0.43823 0.0
H804 H 0.37841 0.2945 0.44717 0.0
C805 C 0.36092 0.21737 0.41918 0.0
C806 C 0.35451 0.24511 0.40813 0.0
H807 H 0.37847 0.19575 0.44691 0.0
H808 H 0.35611 0.19573 0.41097 0.0
C809 C 0.36095 0.27281 0.41745 0.0
C810 C 0.86065 0.01981 0.43258 0.0
C811 C 0.85427 0.99207 0.44509 0.0
H812 H 0.87816 0.04139 0.40199 0.0
C813 C 0.86069 0.96435 0.43546 0.0
H814 H 0.85586 0.04145 0.441 0.0
C815 C 0.87333 0.96431 0.41241 0.0
C816 C 0.87975 0.99199 0.401 0.0
H817 H 0.85593 0.94269 0.44548 0.0
H818 H 0.87809 0.94262 0.40378 0.0
C819 C 0.87337 0.01977 0.41176 0.0
C820 C 0.37364 0.96484 0.91844 0.0
C821 C 0.38008 0.99254 0.90935 0.0
H822 H 0.35616 0.94318 0.94654 0.0
C823 C 0.37368 0.0203 0.9191 0.0
H824 H 0.37841 0.94316 0.91044 0.0
C825 C 0.36091 0.02031 0.93667 0.0
C826 C 0.3545 0.99256 0.94687 0.0
H827 H 0.37849 0.04192 0.91098 0.0
H828 H 0.35611 0.04194 0.94445 0.0
C829 C 0.36094 0.96485 0.93821 0.0
C830 C 0.85897 0.25914 1.02766 0.0
C831 C 0.85448 0.23843 0.93546 0.0
H832 H 0.87485 0.27674 0.12577 0.0
C833 C 0.86271 0.21861 0.87244 0.0
H834 H 0.85279 0.2747 0.07709 0.0
C835 C 0.87532 0.21997 0.89921 0.0
C836 C 0.87983 0.24099 0.99002 0.0
H837 H 0.85944 0.20244 0.80074 0.0
H838 H 0.88153 0.2047 0.84854 0.0
C839 C 0.87156 0.26034 0.05509 0.0
C840 C 0.61102 0.71487 0.66922 0.0
C841 C 0.6046 0.74261 0.66012 0.0
H842 H 0.62849 0.6931 0.69671 0.0
C843 C 0.61105 0.77033 0.66914 0.0
H844 H 0.60621 0.69322 0.66176 0.0
C845 C 0.62382 0.77026 0.68598 0.0
C846 C 0.63021 0.74247 0.6962 0.0
H847 H 0.60626 0.79199 0.66097 0.0
H848 H 0.62866 0.79187 0.69322 0.0
C849 C 0.62373 0.7148 0.6883 0.0
C850 C 0.1107 0.96782 0.68146 0.0
C851 C 0.10434 -0.00435 0.69094 0.0
H852 H 0.12825 0.94599 0.65764 0.0
C853 C 0.11085 0.02328 0.68304 0.0
H854 H 0.10584 0.94625 0.68873 0.0
C855 C 0.12356 0.02313 0.66462 0.0
C856 C 0.12996 -0.00465 0.65619 0.0
H857 H 0.10611 0.04501 0.69089 0.0
H858 H 0.12839 0.04475 0.65711 0.0
C859 C 0.12348 0.96767 0.66529 0.0
C860 C 0.62372 0.9672 0.17267 0.0
C861 C 0.63014 -0.00505 0.16258 0.0
H862 H 0.60614 0.94561 0.19767 0.0
C863 C 0.6237 0.02267 0.17067 0.0
H864 H 0.62853 0.94557 0.16528 0.0
C865 C 0.611 0.02269 0.18984 0.0
C866 C 0.60455 -0.005 0.19883 0.0
H867 H 0.62848 0.04433 0.16238 0.0
H868 H 0.60622 0.04437 0.19746 0.0
C869 C 0.61095 0.96722 0.18959 0.0
C870 C 0.11102 0.71545 0.16809 0.0
C871 C 0.10463 0.74324 0.15916 0.0
H872 H 0.12846 0.69356 0.19578 0.0
C873 C 0.1111 0.77092 0.16874 0.0
H874 H 0.10619 0.69384 0.16021 0.0
C875 C 0.12387 0.77076 0.18593 0.0
C876 C 0.13022 0.74292 0.19595 0.0
H877 H 0.10633 0.7926 0.16072 0.0
H878 H 0.12873 0.79232 0.19357 0.0
C879 C 0.12372 0.71529 0.18753 0.0
C880 C 0.36106 0.77263 0.91848 0.0
C881 C 0.3546 0.74493 0.91031 0.0
H882 H 0.37855 0.79428 0.9452 0.0
C883 C 0.361 0.71717 0.92032 0.0
H884 H 0.35628 0.79431 0.91025 0.0
C885 C 0.37378 0.71715 0.93722 0.0
C886 C 0.3802 0.7449 0.94648 0.0
H887 H 0.35618 0.69554 0.91288 0.0
H888 H 0.37858 0.69551 0.94525 0.0
C889 C 0.37376 0.77261 0.93756 0.0
C890 C 0.87409 0.52159 0.9243 0.0
C891 C 0.8806 0.49395 0.91628 0.0
H892 H 0.85641 0.54288 0.94656 0.0
C893 C 0.87424 0.46612 0.9251 0.0
H894 H 0.87884 0.54331 0.91631 0.0
C895 C 0.86153 0.46588 0.94281 0.0
C896 C 0.85498 0.49346 0.94984 0.0
H897 H 0.8791 0.44454 0.91839 0.0
H898 H 0.85682 0.44411 0.95096 0.0
C899 C 0.8613 0.52135 0.93998 0.0
C900 C 0.36103 0.52028 0.43583 0.0
C901 C 0.35463 0.49253 0.44622 0.0
H902 H 0.37861 0.54192 0.41 0.0
C903 C 0.36108 0.46483 0.43775 0.0
H904 H 0.35622 0.54191 0.44345 0.0
C905 C 0.37378 0.46483 0.41798 0.0
C906 C 0.38022 0.49254 0.40869 0.0
H907 H 0.35631 0.44315 0.44623 0.0
H908 H 0.37856 0.44316 0.41015 0.0
C909 C 0.3738 0.52029 0.41826 0.0
C910 C 0.861 0.71686 0.4215 0.0
C911 C 0.85455 0.74457 0.41114 0.0
H912 H 0.87861 0.69538 0.44672 0.0
C913 C 0.86097 0.77232 0.41898 0.0
H914 H 0.85621 0.6952 0.41433 0.0
C915 C 0.87368 0.77243 0.43803 0.0
C916 C 0.88016 0.74478 0.4473 0.0
H917 H 0.85617 0.79396 0.41049 0.0
H918 H 0.87844 0.79415 0.44537 0.0
C919 C 0.87377 0.71697 0.43842 0.0
C920 C 0.62415 0.2699 0.19644 0.0
C921 C 0.63051 0.2421 0.20837 0.0
H922 H 0.60667 0.29167 0.16579 0.0
C923 C 0.62405 0.21446 0.19735 0.0
H924 H 0.62897 0.2915 0.20581 0.0
C925 C 0.6114 0.21456 0.17358 0.0
C926 C 0.60501 0.2423 0.16292 0.0
H927 H 0.62878 0.19275 0.2068 0.0
H928 H 0.60662 0.19292 0.16393 0.0
C929 C 0.61143 0.27 0.17498 0.0
C930 C 0.11093 0.46788 0.18601 0.0
C931 C 0.10454 0.49567 0.19505 0.0
H932 H 0.1285 0.44618 0.16129 0.0
C933 C 0.11099 0.52335 0.18536 0.0
H934 H 0.10612 0.44628 0.19461 0.0
C935 C 0.12369 0.52329 0.16562 0.0
C936 C 0.13012 0.49555 0.15766 0.0
H937 H 0.10622 0.54504 0.19281 0.0
H938 H 0.12847 0.54494 0.15677 0.0
C939 C 0.1237 0.46783 0.16853 0.0
C940 C 0.62408 0.52268 0.66998 0.0
C941 C 0.63048 0.49493 0.66081 0.0
H942 H 0.60664 0.5445 0.69844 0.0
C943 C 0.62402 0.46723 0.67074 0.0
H944 H 0.62888 0.54432 0.66186 0.0
C945 C 0.61126 0.46733 0.68854 0.0
C946 C 0.60489 0.49514 0.69884 0.0
H947 H 0.6288 0.44556 0.66259 0.0
H948 H 0.60642 0.44574 0.69641 0.0
C949 C 0.61138 0.52279 0.69004 0.0
C950 C 0.1233 0.21482 0.67945 0.0
C951 C 0.12972 0.24254 0.68955 0.0
H952 H 0.1059 0.1931 0.64614 0.0
C953 C 0.12334 0.27027 0.67625 0.0
H954 H 0.12804 0.19317 0.69 0.0
C955 C 0.11063 0.27023 0.65426 0.0
C956 C 0.10424 0.24247 0.64299 0.0
H957 H 0.12813 0.29191 0.68494 0.0
H958 H 0.10585 0.29185 0.64401 0.0
C959 C 0.11066 0.21479 0.6551 0.0
C960 C 0.29109 0.24157 0.74627 0.0
C961 C 0.2999 0.24241 0.6459 0.0
H962 H 0.28771 0.24278 0.95131 0.0
C963 C 0.31238 0.24576 0.67862 0.0
H964 H 0.28138 0.23896 0.7241 0.0
C965 C 0.31594 0.2483 0.80902 0.0
C966 C 0.30712 0.24749 0.90943 0.0
H967 H 0.31935 0.24661 0.60366 0.0
H968 H 0.32565 0.25086 0.83128 0.0
C969 C 0.29467 0.24396 0.87657 0.0
C970 C 0.94299 -0.00473 0.73662 0.0
C971 C 0.93418 -0.00534 0.63609 0.0
H972 H 0.94639 0.99365 0.94169 0.0
C973 C 0.9217 0.99131 0.66867 0.0
H974 H 0.9527 -0.00213 0.71463 0.0
C975 C 0.91814 0.98855 0.79902 0.0
C976 C 0.92697 0.98914 0.89959 0.0
H977 H 0.91472 0.99062 0.59363 0.0
H978 H 0.90844 0.986 0.82112 0.0
C979 C 0.93942 0.99265 0.86687 0.0
C980 C 0.31596 0.9894 0.54402 0.0
C981 C 0.30714 0.99026 0.44347 0.0
H982 H 0.31937 0.99102 0.74944 0.0
C983 C 0.29469 0.99382 0.47608 0.0
H984 H 0.32567 0.98681 0.52194 0.0
C985 C 0.29111 -0.00381 0.6063 0.0
C986 C 0.29992 -0.00471 0.70681 0.0
H987 H 0.28773 -0.00495 0.40121 0.0
H988 H 0.2814 -0.00117 0.6283 0.0
C989 C 0.31239 0.99192 0.67434 0.0
C990 C 0.93824 0.23037 0.48683 0.0
C991 C 0.9288 0.25018 0.44635 0.0
H992 H 0.94774 0.21007 0.64754 0.0
C993 C 0.9215 0.26481 0.54014 0.0
H994 H 0.94395 0.21868 0.4165 0.0
C995 C 0.92358 0.25966 0.67205 0.0
C996 C 0.93305 0.23993 0.71266 0.0
H997 H 0.91411 0.28006 0.51163 0.0
H998 H 0.91786 0.27137 0.74222 0.0
C999 C 0.94034 0.22528 0.61889 0.0
C1000 C 0.66878 0.73955 0.29279 0.0
C1001 C 0.67759 0.74047 0.19239 0.0
H1002 H 0.66537 0.74116 0.49811 0.0
C1003 C 0.69004 0.74425 0.22516 0.0
H1004 H 0.65908 0.73679 0.27058 0.0
C1005 C 0.69361 0.74675 0.35545 0.0
C1006 C 0.68481 0.74573 0.45581 0.0
H1007 H 0.697 0.74553 0.15038 0.0
H1008 H 0.70331 0.74952 0.37762 0.0
C1009 C 0.67234 0.74216 0.42313 0.0
C1010 C 0.06571 -0.00122 0.28555 0.0
C1011 C 0.05689 -0.00203 0.18503 0.0
H1012 H 0.06914 -0.00308 0.49089 0.0
C1013 C 0.04444 -0.00583 0.21769 0.0
H1014 H 0.07541 0.00155 0.26346 0.0
C1015 C 0.04089 0.99151 0.34793 0.0
C1016 C 0.0497 0.9924 0.44841 0.0
H1017 H 0.03748 0.99299 0.14284 0.0
H1018 H 0.03119 0.98872 0.36999 0.0
C1019 C 0.06216 -0.00399 0.41585 0.0
C1020 C 0.68997 0.99316 0.63456 0.0
C1021 C 0.67752 -0.00308 0.66715 0.0
H1022 H 0.70323 0.98782 0.48233 0.0
C1023 C 0.6687 -0.00222 0.5666 0.0
H1024 H 0.69693 0.99193 0.70944 0.0
C1025 C 0.67226 -0.00491 0.43633 0.0
C1026 C 0.68472 0.99152 0.40384 0.0
H1027 H 0.659 0.00053 0.58865 0.0
H1028 H 0.66528 -0.00396 0.36125 0.0
C1029 C 0.69353 0.99058 0.50435 0.0
C1030 C 0.06252 0.74332 0.4318 0.0
C1031 C 0.05004 0.74671 0.39908 0.0
H1032 H 0.07579 0.73817 0.58441 0.0
C1033 C 0.04124 0.7476 0.49942 0.0
H1034 H 0.06949 0.74242 0.35684 0.0
C1035 C 0.04481 0.74517 0.62973 0.0
C1036 C 0.05727 0.74159 0.66254 0.0
H1037 H 0.03153 0.75023 0.47721 0.0
H1038 H 0.03785 0.74634 0.70449 0.0
C1039 C 0.06608 0.74078 0.56216 0.0
C1040 C 0.31249 0.74558 0.1832 0.0
C1041 C 0.30002 0.74211 0.15053 0.0
H1042 H 0.32575 0.75084 0.33581 0.0
C1043 C 0.29121 0.74118 0.25088 0.0
H1044 H 0.31946 0.7465 0.10822 0.0
C1045 C 0.29478 0.74363 0.38115 0.0
C1046 C 0.30724 0.74729 0.41396 0.0
H1047 H 0.28151 0.73847 0.22872 0.0
H1048 H 0.28782 0.74237 0.45591 0.0
C1049 C 0.31605 0.74817 0.31356 0.0
C1050 C 0.9192 0.49093 0.32264 0.0
C1051 C 0.92802 0.49144 0.42319 0.0
H1052 H 0.91577 0.49314 0.11728 0.0
C1053 C 0.94048 0.49496 0.39045 0.0
H1054 H 0.90949 0.48839 0.34474 0.0
C1055 C 0.94404 0.49764 0.26022 0.0
C1056 C 0.93523 0.4971 0.15972 0.0
H1057 H 0.94745 0.49595 0.46524 0.0
H1058 H 0.95375 0.50023 0.23821 0.0
C1059 C 0.92275 0.49377 0.1923 0.0
C1060 C 0.29479 0.49378 0.97523 0.0
C1061 C 0.30724 0.49014 0.9426 0.0
H1062 H 0.28152 0.49895 0.12745 0.0
C1063 C 0.31606 0.48929 1.04316 0.0
H1064 H 0.28783 0.49501 0.90036 0.0
C1065 C 0.3125 0.4919 0.17347 0.0
C1066 C 0.30003 0.49536 0.20596 0.0
H1067 H 0.32576 0.48664 1.02108 0.0
H1068 H 0.31947 0.49101 0.24856 0.0
C1069 C 0.29122 0.49625 0.10545 0.0
C1070 C 0.91871 0.74848 1.0436 0.0
C1071 C 0.92754 0.74792 0.94323 0.0
H1072 H 0.9153 0.74658 0.24894 0.0
C1073 C 0.94 0.74462 0.97611 0.0
H1074 H 0.909 0.75087 1.02131 0.0
C1075 C 0.94358 0.7422 0.1064 0.0
C1076 C 0.93476 0.7428 0.20673 0.0
H1077 H 0.94697 0.74362 0.90139 0.0
H1078 H 0.95329 0.73976 0.1286 0.0
C1079 C 0.92228 0.74592 0.17399 0.0
C1080 C 0.69028 0.24352 0.74335 0.0
C1081 C 0.67783 0.23974 0.71055 0.0
H1082 H 0.70358 0.24857 0.89578 0.0
C1083 C 0.66904 0.23869 0.8111 0.0
H1084 H 0.69723 0.245 0.66855 0.0
C1085 C 0.67262 0.24112 0.94151 0.0
C1086 C 0.68509 0.24462 0.9742 0.0
H1087 H 0.65934 0.23595 0.78895 0.0
H1088 H 0.66565 0.24001 1.01654 0.0
C1089 C 0.69387 0.24581 0.87368 0.0
C1090 C 0.06239 0.49626 0.92226 0.0
C1091 C 0.04991 0.49285 0.9547 0.0
H1092 H 0.07567 0.5013 0.7699 0.0
C1093 C 0.04112 0.49173 0.85416 0.0
H1094 H 0.06936 0.49732 0.9974 0.0
C1095 C 0.04471 0.49399 0.7239 0.0
C1096 C 0.05716 0.49763 0.69135 0.0
H1097 H 0.03141 0.48906 0.87616 0.0
H1098 H 0.03776 0.49262 0.64899 0.0
C1099 C 0.06597 0.49865 0.79194 0.0
C1100 C 0.66907 0.49748 0.0638 0.0
C1101 C 0.67788 0.49659 0.16436 0.0
H1102 H 0.66567 0.49603 0.85838 0.0
C1103 C 0.69034 0.49307 0.13177 0.0
H1104 H 0.65936 0.50005 0.08587 0.0
C1105 C 0.69392 0.49079 1.00153 0.0
C1106 C 0.68512 0.49177 0.90102 0.0
H1107 H 0.6973 0.49182 0.20666 0.0
H1108 H 0.70363 0.48821 0.97951 0.0
C1109 C 0.67264 0.49508 0.93349 0.0
C1110 C 0.06217 0.24139 0.9091 0.0
C1111 C 0.04972 0.2455 0.87639 0.0
H1112 H 0.07541 0.23574 0.06182 0.0
C1113 C 0.04096 0.24734 0.97686 0.0
H1114 H 0.06911 0.23978 0.83405 0.0
C1115 C 0.04454 0.24511 0.10721 0.0
C1116 C 0.05695 0.24068 0.1401 0.0
H1117 H 0.03128 0.25062 0.95473 0.0
H1118 H 0.03762 0.2472 0.18192 0.0
C1119 C 0.06573 0.23897 1.03958 0.0
C1120 C 0.81314 0.23703 0.19764 0.0
C1121 C 0.80137 0.24661 0.15818 0.0
H1122 H 0.82578 0.23128 0.35618 0.0
C1123 C 0.79311 0.25738 0.25334 0.0
H1124 H 0.81969 0.22857 0.12721 0.0
C1125 C 0.7965 0.25845 0.38456 0.0
C1126 C 0.80828 0.24918 0.42401 0.0
H1127 H 0.78396 0.26504 0.22644 0.0
H1128 H 0.78999 0.26717 0.45449 0.0
C1129 C 0.81659 0.2386 0.32891 0.0
C1130 C 0.41863 0.98934 0.31223 0.0
C1131 C 0.42744 0.99026 0.41278 0.0
H1132 H 0.41522 0.99092 0.10679 0.0
C1133 C 0.4399 -0.00611 0.38015 0.0
H1134 H 0.40892 0.98671 0.33432 0.0
C1135 C 0.44347 -0.00374 0.24991 0.0
C1136 C 0.43467 -0.0047 0.1494 0.0
H1137 H 0.44685 -0.00483 0.45502 0.0
H1138 H 0.45318 -0.00106 0.22789 0.0
C1139 C 0.42219 0.99186 0.18189 0.0
C1140 C 0.81588 0.98866 1.0466 0.0
C1141 C 0.80706 0.9893 0.94604 0.0
H1142 H 0.81929 0.99053 0.252 0.0
C1143 C 0.7946 0.99272 0.97869 0.0
H1144 H 0.82559 0.98618 1.02451 0.0
C1145 C 0.79102 -0.00482 0.10891 0.0
C1146 C 0.79983 -0.0055 0.20943 0.0
H1147 H 0.78763 0.99378 0.90385 0.0
H1148 H 0.78131 -0.0023 0.13089 0.0
C1149 C 0.81231 0.99126 0.17692 0.0
C1150 C 0.43992 0.24398 0.98013 0.0
C1151 C 0.42746 0.24753 0.94724 0.0
H1152 H 0.4532 0.23895 0.13265 0.0
C1153 C 0.41865 0.24835 1.04764 0.0
H1154 H 0.44688 0.24279 0.9054 0.0
C1155 C 0.42221 0.2458 0.17806 0.0
C1156 C 0.43469 0.24243 0.21081 0.0
H1157 H 0.40894 0.25092 1.02536 0.0
H1158 H 0.41523 0.24666 0.25301 0.0
C1159 C 0.44349 0.24157 0.11045 0.0
C1160 C 0.19362 0.74677 0.85557 0.0
C1161 C 0.18481 0.74578 0.95593 0.0
H1162 H 0.19701 0.74555 0.6505 0.0
C1163 C 0.17235 0.74227 0.92325 0.0
H1164 H 0.20332 0.74949 0.87774 0.0
C1165 C 0.16878 0.73968 0.79291 0.0
C1166 C 0.1776 0.74058 0.69251 0.0
H1167 H 0.16537 0.74129 0.99823 0.0
H1168 H 0.15908 0.73697 0.7707 0.0
C1169 C 0.19005 0.7443 0.72528 0.0
C1170 C 0.54472 0.99359 0.72718 0.0
C1171 C 0.55718 -0.00287 0.69458 0.0
H1172 H 0.53144 0.98859 0.87948 0.0
C1173 C 0.566 -0.00209 0.79511 0.0
H1174 H 0.53776 0.99243 0.6523 0.0
C1175 C 0.56243 -0.00461 0.92542 0.0
C1176 C 0.54996 0.99206 0.95792 0.0
H1177 H 0.57571 0.00049 0.77303 0.0
H1178 H 0.56941 -0.00373 1.0005 0.0
C1179 C 0.54115 0.99118 0.85743 0.0
C1180 C 0.17213 -0.0047 0.93079 0.0
C1181 C 0.18461 0.99201 0.8983 0.0
H1182 H 0.15886 0.00037 0.08316 0.0
C1183 C 0.19342 0.99115 0.99878 0.0
H1184 H 0.16516 -0.00383 0.85571 0.0
C1185 C 0.18984 0.99355 0.12902 0.0
C1186 C 0.17738 -0.00295 0.16161 0.0
H1187 H 0.20313 0.98859 0.97674 0.0
H1188 H 0.19681 0.99241 0.2039 0.0
C1189 C 0.16857 -0.00218 0.06108 0.0
C1190 C 0.54118 0.74671 1.00105 0.0
C1191 C 0.54999 0.74579 0.90071 0.0
H1192 H 0.5378 0.74551 0.20613 0.0
C1193 C 0.56246 0.74241 0.93342 0.0
H1194 H 0.53148 0.74934 0.97884 0.0
C1195 C 0.56603 0.73989 0.06378 0.0
C1196 C 0.55721 0.74072 0.16417 0.0
H1197 H 0.56944 0.7415 0.85845 0.0
H1198 H 0.57574 0.73728 0.08603 0.0
C1199 C 0.54476 0.7443 0.13136 0.0
C1200 C 0.81242 0.74499 0.68429 0.0
C1201 C 0.79995 0.74155 0.65162 0.0
H1202 H 0.82569 0.75017 0.83689 0.0
C1203 C 0.79114 0.7406 0.75198 0.0
H1204 H 0.8194 0.74592 0.6093 0.0
C1205 C 0.79472 0.743 0.88226 0.0
C1206 C 0.80717 0.74663 0.91506 0.0
H1207 H 0.78144 0.73792 0.72981 0.0
H1208 H 0.78776 0.74173 0.95702 0.0
C1209 C 0.81599 0.74753 0.81465 0.0
C1210 C 0.44006 0.49366 0.87968 0.0
C1211 C 0.4276 0.49011 0.91234 0.0
H1212 H 0.45334 0.49872 0.72741 0.0
C1213 C 0.41878 0.48931 0.8118 0.0
H1214 H 0.44702 0.49485 0.95453 0.0
C1215 C 0.42235 0.49188 0.68146 0.0
C1216 C 0.43482 0.49525 0.64893 0.0
H1217 H 0.40908 0.48672 0.83391 0.0
H1218 H 0.41537 0.49103 0.60638 0.0
C1219 C 0.44363 0.49609 0.74943 0.0
C1220 C 0.81642 0.48926 0.54382 0.0
C1221 C 0.80759 0.48964 0.44331 0.0
H1222 H 0.81984 0.49136 0.74917 0.0
C1223 C 0.79512 0.49281 0.47601 0.0
H1224 H 0.82613 0.48699 0.52169 0.0
C1225 C 0.79154 0.49528 0.60623 0.0
C1226 C 0.80036 0.49487 0.70668 0.0
H1227 H 0.78814 0.49367 0.40121 0.0
H1228 H 0.78182 0.4976 0.62826 0.0
C1229 C 0.81285 0.49188 0.67413 0.0
C1230 C 0.42232 0.74555 0.67353 0.0
C1231 C 0.43479 0.74216 0.70623 0.0
H1232 H 0.40904 0.75068 0.52087 0.0
C1233 C 0.4436 0.74126 0.60588 0.0
H1234 H 0.41534 0.74644 0.7485 0.0
C1235 C 0.44002 0.74365 0.47559 0.0
C1236 C 0.42756 0.74723 0.44275 0.0
H1237 H 0.4533 0.73862 0.62807 0.0
H1238 H 0.44698 0.74242 0.40084 0.0
C1239 C 0.41875 0.74808 0.54314 0.0
C1240 C 0.16822 0.23981 0.29256 0.0
C1241 C 0.17703 0.24063 0.19211 0.0
H1242 H 0.16482 0.24141 0.49792 0.0
C1243 C 0.18949 0.24419 0.22494 0.0
H1244 H 0.15851 0.23721 0.27035 0.0
C1245 C 0.19307 0.24659 0.35526 0.0
C1246 C 0.18427 0.24568 0.45568 0.0
H1247 H 0.19645 0.24538 0.15017 0.0
H1248 H 0.20278 0.2492 0.37743 0.0
C1249 C 0.17179 0.24232 0.42295 0.0
C1250 C 0.56274 0.49557 0.42644 0.0
C1251 C 0.55027 0.49205 0.45895 0.0
H1252 H 0.576 0.50083 0.27404 0.0
C1253 C 0.54147 0.49101 0.35843 0.0
H1254 H 0.56971 0.49659 0.50153 0.0
C1255 C 0.54504 0.49344 0.22817 0.0
C1256 C 0.55749 0.49716 0.19556 0.0
H1257 H 0.53176 0.48827 0.38047 0.0
H1258 H 0.53808 0.49214 0.15328 0.0
C1259 C 0.5663 0.49811 0.29612 0.0
C1260 C 0.19351 0.49088 0.49835 0.0
C1261 C 0.18471 0.49192 0.39782 0.0
H1262 H 0.1969 0.49206 0.70348 0.0
C1263 C 0.17224 0.4955 0.4303 0.0
H1264 H 0.20321 0.4881 0.47633 0.0
C1265 C 0.16868 0.4981 0.56059 0.0
C1266 C 0.17749 0.49714 0.66115 0.0
H1267 H 0.16527 0.49653 0.35521 0.0
H1268 H 0.15898 0.50087 0.58264 0.0
C1269 C 0.18994 0.49336 0.62858 0.0
C1270 C 0.54163 0.24657 0.4984 0.0
C1271 C 0.55044 0.24563 0.39801 0.0
H1272 H 0.53825 0.24537 0.70349 0.0
C1273 C 0.56291 0.24222 0.43076 0.0
H1274 H 0.53193 0.24922 0.4762 0.0
C1275 C 0.56648 0.2397 0.56117 0.0
C1276 C 0.55766 0.24055 0.66159 0.0
H1277 H 0.56989 0.24128 0.3558 0.0
H1278 H 0.57618 0.23706 0.58341 0.0
C1279 C 0.54521 0.24416 0.62873 0.0
C1280 C 0.31351 0.38403 0.44598 0.0
C1281 C 0.30237 0.39958 0.46822 0.0
H1282 H 0.32226 0.34241 0.38921 0.0
C1283 C 0.29118 0.38409 0.44726 0.0
H1284 H 0.32229 0.39523 0.46134 0.0
C1285 C 0.29116 0.35372 0.40387 0.0
C1286 C 0.30233 0.33816 0.38276 0.0
H1287 H 0.28245 0.39552 0.4627 0.0
H1288 H 0.28241 0.34232 0.38865 0.0
C1289 C 0.31348 0.35367 0.40472 0.0
C1290 C 0.92094 0.85353 0.44417 0.0
C1291 C 0.93213 0.83824 0.46684 0.0
H1292 H 0.91206 0.8948 0.38495 0.0
C1293 C 0.94327 0.85379 0.44455 0.0
H1294 H 0.91219 0.84224 0.46059 0.0
C1295 C 0.9432 0.88398 0.39918 0.0
C1296 C 0.93198 0.89927 0.37742 0.0
H1297 H 0.95204 0.84252 0.46031 0.0
H1298 H 0.95192 0.89546 0.38288 0.0
C1299 C 0.92087 0.88372 0.40087 0.0
C1300 C 0.31351 0.88394 0.94971 0.0
C1301 C 0.30235 0.89947 0.97118 0.0
H1302 H 0.32231 0.8423 0.8941 0.0
C1303 C 0.29118 0.88389 0.95026 0.0
H1304 H 0.32228 0.89521 0.96509 0.0
C1305 C 0.2912 0.85347 0.90754 0.0
C1306 C 0.30239 0.83794 0.88707 0.0
H1307 H 0.28243 0.8953 0.96514 0.0
H1308 H 0.28246 0.84202 0.89223 0.0
C1309 C 0.31352 0.85352 0.90911 0.0
C1310 C 0.92134 0.38741 0.93692 0.0
C1311 C 0.93256 0.40193 0.90802 0.0
H1312 H 0.91228 0.3467 0.99981 0.0
C1313 C 0.94363 0.38568 0.92554 0.0
H1314 H 0.91263 0.39921 0.92462 0.0
C1315 C 0.94343 0.35544 0.97065 0.0
C1316 C 0.93214 0.34088 0.99709 0.0
H1317 H 0.95243 0.39634 0.90514 0.0
H1318 H 0.95206 0.34329 0.98186 0.0
C1319 C 0.92113 0.35725 0.9802 0.0
C1320 C 0.6937 0.63399 0.69875 0.0
C1321 C 0.6825 0.64947 0.719 0.0
H1322 H 0.70251 0.59218 0.64162 0.0
C1323 C 0.67138 0.63382 0.69684 0.0
H1324 H 0.70242 0.64549 0.71414 0.0
C1325 C 0.67143 0.60338 0.65644 0.0
C1326 C 0.6826 0.58789 0.63531 0.0
H1327 H 0.66258 0.645 0.71165 0.0
H1328 H 0.66266 0.59206 0.64102 0.0
C1329 C 0.69375 0.60355 0.65625 0.0
C1330 C 0.04077 0.10393 0.68409 0.0
C1331 C 0.05196 0.08844 0.70548 0.0
H1332 H 0.03201 0.14557 0.62323 0.0
C1333 C 0.06309 0.10385 0.68134 0.0
H1334 H 0.03204 0.0926 0.70092 0.0
C1335 C 0.06308 0.13405 0.63784 0.0
C1336 C 0.05193 0.14957 0.6156 0.0
H1337 H 0.07188 0.09267 0.69691 0.0
H1338 H 0.07186 0.14518 0.62101 0.0
C1339 C 0.04076 0.13416 0.63855 0.0
C1340 C 0.69363 0.10292 0.16619 0.0
C1341 C 0.68243 0.08753 0.1444 0.0
H1342 H 0.70244 0.14444 0.22721 0.0
C1343 C 0.67131 0.10307 0.16759 0.0
H1344 H 0.70236 0.0915 0.15004 0.0
C1345 C 0.67135 0.13328 0.21076 0.0
C1346 C 0.68252 0.14866 0.23366 0.0
H1347 H 0.66251 0.09196 0.15163 0.0
H1348 H 0.66259 0.14452 0.22697 0.0
C1349 C 0.69368 0.13314 0.21142 0.0
C1350 C 0.04128 0.63501 0.15581 0.0
C1351 C 0.05246 0.65057 0.13557 0.0
H1352 H 0.03251 0.59313 0.21311 0.0
C1353 C 0.0636 0.63501 0.15779 0.0
H1354 H 0.03254 0.64644 0.14036 0.0
C1355 C 0.06359 0.60457 0.19831 0.0
C1356 C 0.05243 0.589 0.21951 0.0
H1357 H 0.07238 0.64627 0.14296 0.0
H1358 H 0.07236 0.59331 0.21384 0.0
C1359 C 0.04126 0.60457 0.19844 0.0
C1360 C 0.79234 0.38373 0.93919 0.0
C1361 C 0.8034 0.39951 0.9626 0.0
H1362 H 0.78387 0.34188 0.87782 0.0
C1363 C 0.81466 0.38447 0.94013 0.0
H1364 H 0.78352 0.39476 0.95458 0.0
C1365 C 0.81487 0.35423 0.89694 0.0
C1366 C 0.80383 0.33842 0.87316 0.0
H1367 H 0.82336 0.39594 0.95731 0.0
H1368 H 0.82371 0.34324 0.88234 0.0
C1369 C 0.79255 0.35355 0.8939 0.0
C1370 C 0.42116 0.8839 0.90719 0.0
C1371 C 0.4323 0.8995 0.88548 0.0
H1372 H 0.41241 0.84219 0.96304 0.0
C1373 C 0.44349 0.88399 0.90629 0.0
H1374 H 0.41238 0.89512 0.89189 0.0
C1375 C 0.44351 0.85356 0.94909 0.0
C1376 C 0.43234 0.83796 0.96973 0.0
H1377 H 0.45223 0.89545 0.89123 0.0
H1378 H 0.45226 0.84216 0.96427 0.0
C1379 C 0.42118 0.85348 0.94786 0.0
C1380 C 0.8135 0.85296 0.40968 0.0
C1381 C 0.80236 0.83736 0.38792 0.0
H1382 H 0.82225 0.89464 0.4658 0.0
C1383 C 0.79117 0.85283 0.40887 0.0
H1384 H 0.82228 0.84176 0.39427 0.0
C1385 C 0.79115 0.88322 0.4519 0.0
C1386 C 0.80232 0.89882 0.47265 0.0
H1387 H 0.78244 0.84137 0.39378 0.0
H1388 H 0.7824 0.89458 0.46721 0.0
C1389 C 0.81348 0.88335 0.45058 0.0
C1390 C 0.42122 0.35369 0.45067 0.0
C1391 C 0.43235 0.33813 0.47307 0.0
H1392 H 0.41246 0.3953 0.39341 0.0
C1393 C 0.44354 0.35361 0.45205 0.0
H1394 H 0.41243 0.34249 0.46608 0.0
C1395 C 0.44356 0.38397 0.40836 0.0
C1396 C 0.43239 0.39953 0.38701 0.0
H1397 H 0.45227 0.34217 0.46761 0.0
H1398 H 0.45231 0.39535 0.39305 0.0
C1399 C 0.42124 0.38404 0.40909 0.0
C1400 C 0.17125 0.6037 0.15614 0.0
C1401 C 0.18239 0.58812 0.13448 0.0
H1402 H 0.16248 0.64534 0.21216 0.0
C1403 C 0.19358 0.60364 0.15552 0.0
H1404 H 0.16247 0.59248 0.14069 0.0
C1405 C 0.19358 0.63405 0.19849 0.0
C1406 C 0.18241 0.64961 0.21913 0.0
H1407 H 0.20232 0.5922 0.1405 0.0
H1408 H 0.20233 0.64545 0.21385 0.0
C1409 C 0.17126 0.63409 0.19703 0.0
C1410 C 0.54139 0.10381 0.19922 0.0
C1411 C 0.55253 0.08815 0.22082 0.0
H1412 H 0.53275 0.1457 0.13999 0.0
C1413 C 0.56372 0.10356 0.19934 0.0
H1414 H 0.53262 0.09249 0.21409 0.0
C1415 C 0.56379 0.13393 0.158 0.0
C1416 C 0.55269 0.14959 0.13526 0.0
H1417 H 0.57247 0.09223 0.21526 0.0
H1418 H 0.5726 0.14507 0.14301 0.0
C1419 C 0.54147 0.13419 0.15579 0.0
C1420 C 0.1932 0.10377 0.65593 0.0
C1421 C 0.18205 0.08813 0.63462 0.0
H1422 H 0.20187 0.14565 0.71456 0.0
C1423 C 0.17088 0.10358 0.65604 0.0
H1424 H 0.20197 0.09243 0.6411 0.0
C1425 C 0.17082 0.13397 0.69699 0.0
C1426 C 0.18194 0.14961 0.71943 0.0
H1427 H 0.16212 0.09226 0.64034 0.0
H1428 H 0.16202 0.14514 0.71193 0.0
C1429 C 0.19315 0.13416 0.69898 0.0
C1430 C 0.5637 0.60381 0.70047 0.0
C1431 C 0.55257 0.58817 0.72231 0.0
H1432 H 0.57243 0.64552 0.64425 0.0
C1433 C 0.54137 0.60362 0.70136 0.0
H1434 H 0.57249 0.59264 0.71585 0.0
C1435 C 0.54133 0.63403 0.65833 0.0
C1436 C 0.55249 0.64967 0.63755 0.0
H1437 H 0.53265 0.59213 0.71651 0.0
H1438 H 0.53258 0.64539 0.64306 0.0
C1439 C 0.56366 0.63421 0.65952 0.0
C1440 C 0.29329 0.13447 0.18997 0.0
C1441 C 0.30445 0.1504 0.20551 0.0
H1442 H 0.28453 0.09167 0.15128 0.0
C1443 C 0.31562 0.13448 0.19144 0.0
H1444 H 0.28452 0.14604 0.20052 0.0
C1445 C 0.31563 0.10328 0.16118 0.0
C1446 C 0.30446 0.08734 0.14683 0.0
H1447 H 0.32437 0.14619 0.2021 0.0
H1448 H 0.32438 0.09158 0.15077 0.0
C1449 C 0.2933 0.10326 0.16205 0.0
C1450 C 0.91843 0.13377 0.15228 0.0
C1451 C 0.92963 0.14922 0.13226 0.0
H1452 H 0.90964 0.09116 0.19757 0.0
C1453 C 0.94073 0.13277 0.13914 0.0
H1454 H 0.90974 0.14592 0.14815 0.0
C1455 C 0.94068 0.10157 0.16634 0.0
C1456 C 0.92953 0.08613 0.18901 0.0
H1457 H 0.94951 0.14401 0.12367 0.0
H1458 H 0.94942 0.08967 0.17145 0.0
C1459 C 0.91839 0.1025 0.1815 0.0
C1460 C 0.66894 0.88418 0.94511 0.0
C1461 C 0.68011 0.90012 0.96019 0.0
H1462 H 0.66022 0.84134 0.90228 0.0
C1463 C 0.69127 0.88426 0.94421 0.0
H1464 H 0.66019 0.89584 0.95605 0.0
C1465 C 0.69128 0.85312 0.91486 0.0
C1466 C 0.68014 0.83719 0.89864 0.0
H1467 H 0.70003 0.89583 0.95549 0.0
H1468 H 0.70006 0.84161 0.90382 0.0
C1469 C 0.66895 0.85305 0.91342 0.0
C1470 C 0.04332 0.88523 0.91075 0.0
C1471 C 0.05445 0.90121 0.89408 0.0
H1472 H 0.03463 0.84248 0.95195 0.0
C1473 C 0.06565 0.88543 0.909 0.0
H1474 H 0.03453 0.89669 0.89965 0.0
C1475 C 0.06571 0.85431 0.94105 0.0
C1476 C 0.05456 0.83831 0.95635 0.0
H1477 H 0.07438 0.89718 0.89755 0.0
H1478 H 0.07447 0.8427 0.95195 0.0
C1479 C 0.04338 0.85411 0.94046 0.0
C1480 C 0.29346 0.63429 0.69272 0.0
C1481 C 0.30461 0.65021 0.70862 0.0
H1482 H 0.28469 0.59156 0.65287 0.0
C1483 C 0.31579 0.6343 0.69406 0.0
H1484 H 0.28468 0.64584 0.70361 0.0
C1485 C 0.31579 0.60314 0.66293 0.0
C1486 C 0.30461 0.58723 0.64818 0.0
H1487 H 0.32453 0.646 0.70497 0.0
H1488 H 0.32453 0.59146 0.65216 0.0
C1489 C 0.29346 0.60313 0.66391 0.0
C1490 C 0.94169 0.6354 0.66579 0.0
C1491 C 0.93049 0.65109 0.64978 0.0
H1492 H 0.95057 0.59289 0.70746 0.0
C1493 C 0.91935 0.63512 0.66551 0.0
H1494 H 0.95043 0.64706 0.65392 0.0
C1495 C 0.91943 0.60408 0.69821 0.0
C1496 C 0.93065 0.58839 0.71339 0.0
H1497 H 0.91058 0.64668 0.65452 0.0
H1498 H 0.91071 0.59231 0.71001 0.0
C1499 C 0.94177 0.60433 0.69618 0.0
C1500 C 0.6918 0.38378 0.45069 0.0
C1501 C 0.68064 0.39973 0.46495 0.0
H1502 H 0.70059 0.34086 0.41479 0.0
C1503 C 0.66947 0.38372 0.4515 0.0
H1504 H 0.70057 0.39543 0.46081 0.0
C1505 C 0.66949 0.35243 0.42307 0.0
C1506 C 0.68067 0.33646 0.41 0.0
H1507 H 0.66072 0.39542 0.4612 0.0
H1508 H 0.66075 0.34068 0.41302 0.0
C1509 C 0.69182 0.35247 0.42465 0.0
C1510 C 0.06551 0.35345 0.42991 0.0
C1511 C 0.05431 0.33755 0.44318 0.0
H1512 H 0.0743 0.39646 0.39228 0.0
C1513 C 0.04318 0.35364 0.42965 0.0
H1514 H 0.07424 0.34162 0.43913 0.0
C1515 C 0.04321 0.38498 0.40435 0.0
C1516 C 0.05438 0.40088 0.3898 0.0
H1517 H 0.03439 0.34208 0.43972 0.0
H1518 H 0.03445 0.39669 0.39497 0.0
C1519 C 0.06554 0.38479 0.40225 0.0
C1520 C 0.81537 0.10193 0.67634 0.0
C1521 C 0.80422 0.08625 0.65664 0.0
H1522 H 0.82406 0.14443 0.72468 0.0
C1523 C 0.79304 0.10221 0.67022 0.0
H1524 H 0.82412 0.09019 0.6674 0.0
C1525 C 0.79301 0.13325 0.70158 0.0
C1526 C 0.80415 0.1489 0.72248 0.0
H1527 H 0.78429 0.09079 0.65538 0.0
H1528 H 0.78424 0.14493 0.71037 0.0
C1529 C 0.81533 0.13291 0.71017 0.0
C1530 C 0.44126 0.13449 0.66668 0.0
C1531 C 0.43011 0.15043 0.65124 0.0
H1532 H 0.45003 0.09168 0.70512 0.0
C1533 C 0.41893 0.1345 0.6652 0.0
H1534 H 0.45004 0.14608 0.65619 0.0
C1535 C 0.41893 0.10328 0.69526 0.0
C1536 C 0.4301 0.08734 0.7095 0.0
H1537 H 0.41019 0.14622 0.65459 0.0
H1538 H 0.41018 0.09157 0.70559 0.0
C1539 C 0.44126 0.10327 0.6944 0.0
C1540 C 0.19129 0.8845 0.44218 0.0
C1541 C 0.18012 0.90034 0.45775 0.0
H1542 H 0.20011 0.84181 0.40279 0.0
C1543 C 0.16896 0.88435 0.44316 0.0
H1544 H 0.20005 0.89613 0.45312 0.0
C1545 C 0.169 0.85318 0.41225 0.0
C1546 C 0.18019 0.83734 0.39776 0.0
H1547 H 0.16021 0.89598 0.45383 0.0
H1548 H 0.16026 0.84143 0.40139 0.0
C1549 C 0.19133 0.85333 0.41362 0.0
C1550 C 0.54335 0.85332 0.44397 0.0
C1551 C 0.55451 0.83743 0.45965 0.0
H1552 H 0.53456 0.89607 0.40445 0.0
C1553 C 0.56568 0.85336 0.44508 0.0
H1554 H 0.53458 0.84173 0.45489 0.0
C1555 C 0.56567 0.88453 0.4141 0.0
C1556 C 0.55449 0.90043 0.39954 0.0
H1557 H 0.57443 0.84168 0.45582 0.0
H1558 H 0.57441 0.89624 0.40327 0.0
C1559 C 0.54334 0.88451 0.41535 0.0
C1560 C 0.81571 0.63383 0.19617 0.0
C1561 C 0.80451 0.64962 0.2111 0.0
H1562 H 0.82451 0.59113 0.15364 0.0
C1563 C 0.79337 0.63361 0.19559 0.0
H1564 H 0.82444 0.6456 0.20679 0.0
C1565 C 0.79341 0.60244 0.1666 0.0
C1566 C 0.80459 0.58668 0.15023 0.0
H1567 H 0.78459 0.64509 0.20682 0.0
H1568 H 0.78466 0.59078 0.15574 0.0
C1569 C 0.81574 0.6027 0.16484 0.0
C1570 C 0.41909 0.60307 0.19267 0.0
C1571 C 0.43027 0.58717 0.20722 0.0
H1572 H 0.41034 0.64594 0.15107 0.0
C1573 C 0.44142 0.6031 0.19157 0.0
H1574 H 0.41035 0.59137 0.2034 0.0
C1575 C 0.44142 0.63428 0.16306 0.0
C1576 C 0.43026 0.65018 0.14737 0.0
H1577 H 0.4502 0.59153 0.20248 0.0
H1578 H 0.45018 0.64587 0.15222 0.0
C1579 C 0.41908 0.63425 0.16183 0.0
C1580 C 0.16864 0.35342 0.9113 0.0
C1581 C 0.17978 0.33737 0.89664 0.0
H1582 H 0.16 0.3964 0.95296 0.0
C1583 C 0.19097 0.35317 0.91189 0.0
H1584 H 0.15987 0.34182 0.90085 0.0
C1585 C 0.19104 0.38435 0.94026 0.0
C1586 C 0.17993 0.40039 0.95621 0.0
H1587 H 0.19972 0.3415 0.90085 0.0
H1588 H 0.19984 0.39581 0.95085 0.0
C1589 C 0.16872 0.3846 0.94201 0.0
C1590 C 0.56617 0.3533 0.94357 0.0
C1591 C 0.55501 0.33731 0.95773 0.0
H1592 H 0.57488 0.39629 0.9029 0.0
C1593 C 0.54384 0.35319 0.94254 0.0
H1594 H 0.57493 0.34163 0.95399 0.0
C1595 C 0.54381 0.38441 0.91477 0.0
C1596 C 0.55495 0.4004 0.89938 0.0
H1597 H 0.53508 0.34156 0.95321 0.0
H1598 H 0.53503 0.39595 0.90421 0.0
C1599 C 0.56614 0.38453 0.91345 0.0
loop_
_geom_bond_atom_site_label_1
_geom_bond_atom_site_label_2
_geom_bond_distance
_geom_bond_site_symmetry_2
_ccdc_geom_bond_type
Tb0 O3 2.453 . S
Tb0 O4 2.596 . S
Tb0 O5 2.374 . S
Tb0 O13 2.343 . S
Tb0 O15 2.353 . S
Tb0 O17 2.427 . S
Tb0 O18 2.513 . S
C1 O5 1.251 . S
C1 O7 1.263 . S
Tb2 O4 2.343 . S
Tb2 O7 2.353 . S
Tb2 O10 2.427 . S
Tb2 O11 2.513 . S
Tb2 O12 2.453 1_554 S
Tb2 O13 2.596 . S
Tb2 O14 2.374 . S
O3 Tb0 2.453 . S
O3 C19 1.245 . S
O4 Tb0 2.596 . S
O4 Tb2 2.343 . S
O4 C19 1.259 . S
O5 Tb0 2.374 . S
O5 C1 1.251 . S
C6 O10 1.275 . S
C6 O11 1.246 . S
O7 C1 1.263 . S
O7 Tb2 2.353 . S
C8 O12 1.245 . S
C8 O13 1.259 1_556 S
C9 O14 1.250 . S
C9 O15 1.263 . S
O10 Tb2 2.427 . S
O10 C6 1.275 . S
O11 Tb2 2.513 . S
O11 C6 1.246 . S
O12 Tb2 2.453 1_556 S
O12 C8 1.245 . S
O13 Tb0 2.343 . S
O13 Tb2 2.596 . S
O13 C8 1.259 1_554 S
O14 Tb2 2.374 . S
O14 C9 1.250 . S
O15 Tb0 2.353 . S
O15 C9 1.263 . S
C16 O17 1.275 . S
C16 O18 1.246 . S
O17 Tb0 2.427 . S
O17 C16 1.275 . S
O18 Tb0 2.513 . S
O18 C16 1.246 . S
C19 O3 1.245 . S
C19 O4 1.259 . S
Tb20 O23 2.453 . S
Tb20 O24 2.594 1_545 S
Tb20 O25 2.374 1_545 S
Tb20 O33 2.343 1_545 S
Tb20 O35 2.353 . S
Tb20 O37 2.427 . S
Tb20 O38 2.513 1_545 S
C21 O25 1.251 . S
C21 O27 1.263 . S
Tb22 O24 2.346 . S
Tb22 O27 2.353 . S
Tb22 O30 2.427 . S
Tb22 O31 2.513 1_565 S
Tb22 O32 2.453 1_554 S
Tb22 O33 2.596 . S
Tb22 O34 2.374 1_565 S
O23 Tb20 2.453 . S
O23 C39 1.245 . S
O24 Tb20 2.594 1_565 S
O24 Tb22 2.346 . S
O24 C39 1.258 1_565 S
O25 Tb20 2.374 1_565 S
O25 C21 1.251 . S
C26 O30 1.275 . S
C26 O31 1.246 1_565 S
O27 C21 1.263 . S
O27 Tb22 2.353 . S
C28 O32 1.245 . S
C28 O33 1.259 1_556 S
C29 O34 1.250 . S
C29 O35 1.263 . S
O30 Tb22 2.427 . S
O30 C26 1.275 . S
O31 Tb22 2.513 1_545 S
O31 C26 1.246 1_545 S
O32 Tb22 2.453 1_556 S
O32 C28 1.245 . S
O33 Tb20 2.343 1_565 S
O33 Tb22 2.596 . S
O33 C28 1.259 1_554 S
O34 Tb22 2.374 1_545 S
O34 C29 1.250 . S
O35 Tb20 2.353 . S
O35 C29 1.263 . S
C36 O37 1.275 1_565 S
C36 O38 1.246 . S
O37 Tb20 2.427 . S
O37 C36 1.275 1_545 S
O38 Tb20 2.513 1_565 S
O38 C36 1.246 . S
C39 O23 1.245 . S
C39 O24 1.258 1_545 S
Tb40 O43 2.453 . S
Tb40 O44 2.594 1_545 S
Tb40 O45 2.374 1_545 S
Tb40 O53 2.343 1_546 S
Tb40 O55 2.353 1_556 S
Tb40 O57 2.427 1_556 S
Tb40 O58 2.513 1_546 S
C41 O45 1.251 . S
C41 O47 1.263 1_556 S
Tb42 O44 2.346 1_554 S
Tb42 O47 2.353 . S
Tb42 O50 2.427 1_554 S
Tb42 O51 2.513 1_564 S
Tb42 O52 2.453 . S
Tb42 O53 2.596 . S
Tb42 O54 2.374 1_565 S
O43 Tb40 2.453 . S
O43 C59 1.245 . S
O44 Tb40 2.594 1_565 S
O44 Tb42 2.346 1_556 S
O44 C59 1.258 1_565 S
O45 Tb40 2.374 1_565 S
O45 C41 1.251 . S
C46 O50 1.275 . S
C46 O51 1.246 1_565 S
O47 C41 1.263 1_554 S
O47 Tb42 2.353 . S
C48 O52 1.245 . S
C48 O53 1.259 . S
C49 O54 1.250 . S
C49 O55 1.263 . S
O50 Tb42 2.427 1_556 S
O50 C46 1.275 . S
O51 Tb42 2.513 1_546 S
O51 C46 1.246 1_545 S
O52 Tb42 2.453 . S
O52 C48 1.245 . S
O53 Tb40 2.343 1_564 S
O53 Tb42 2.596 . S
O53 C48 1.259 . S
O54 Tb42 2.374 1_545 S
O54 C49 1.250 . S
O55 Tb40 2.353 1_554 S
O55 C49 1.263 . S
C56 O57 1.275 1_565 S
C56 O58 1.246 . S
O57 Tb40 2.427 1_554 S
O57 C56 1.275 1_545 S
O58 Tb40 2.513 1_564 S
O58 C56 1.246 . S
C59 O43 1.245 . S
C59 O44 1.258 1_545 S
Tb60 O63 2.453 . S
Tb60 O64 2.596 . S
Tb60 O65 2.374 . S
Tb60 O73 2.343 1_556 S
Tb60 O75 2.353 1_556 S
Tb60 O77 2.427 1_556 S
Tb60 O78 2.513 1_556 S
C61 O65 1.251 . S
C61 O67 1.263 1_556 S
Tb62 O64 2.343 1_554 S
Tb62 O67 2.353 . S
Tb62 O70 2.427 1_554 S
Tb62 O71 2.513 1_554 S
Tb62 O72 2.453 . S
Tb62 O73 2.596 . S
Tb62 O74 2.374 . S
O63 Tb60 2.453 . S
O63 C79 1.245 . S
O64 Tb60 2.596 . S
O64 Tb62 2.343 1_556 S
O64 C79 1.259 . S
O65 Tb60 2.374 . S
O65 C61 1.251 . S
C66 O70 1.275 . S
C66 O71 1.246 . S
O67 C61 1.263 1_554 S
O67 Tb62 2.353 . S
C68 O72 1.245 . S
C68 O73 1.259 . S
C69 O74 1.250 . S
C69 O75 1.263 . S
O70 Tb62 2.427 1_556 S
O70 C66 1.275 . S
O71 Tb62 2.513 1_556 S
O71 C66 1.246 . S
O72 Tb62 2.453 . S
O72 C68 1.245 . S
O73 Tb60 2.343 1_554 S
O73 Tb62 2.596 . S
O73 C68 1.259 . S
O74 Tb62 2.374 . S
O74 C69 1.250 . S
O75 Tb60 2.353 1_554 S
O75 C69 1.263 . S
C76 O77 1.275 . S
C76 O78 1.246 . S
O77 Tb60 2.427 1_554 S
O77 C76 1.275 . S
O78 Tb60 2.513 1_554 S
O78 C76 1.246 . S
C79 O63 1.245 . S
C79 O64 1.259 . S
Tb80 O83 2.453 1_556 S
Tb80 O84 2.596 . S
Tb80 O85 2.374 . S
Tb80 O93 2.343 . S
Tb80 O95 2.353 . S
Tb80 O97 2.427 . S
Tb80 O98 2.513 . S
C81 O85 1.251 . S
C81 O87 1.263 . S
Tb82 O84 2.343 . S
Tb82 O87 2.353 . S
Tb82 O90 2.427 . S
Tb82 O91 2.513 . S
Tb82 O92 2.453 . S
Tb82 O93 2.596 . S
Tb82 O94 2.374 . S
O83 Tb80 2.453 1_554 S
O83 C99 1.245 . S
O84 Tb80 2.596 . S
O84 Tb82 2.343 . S
O84 C99 1.259 1_556 S
O85 Tb80 2.374 . S
O85 C81 1.251 . S
C86 O90 1.275 . S
C86 O91 1.246 . S
O87 C81 1.263 . S
O87 Tb82 2.353 . S
C88 O92 1.245 . S
C88 O93 1.259 . S
C89 O94 1.250 . S
C89 O95 1.263 . S
O90 Tb82 2.427 . S
O90 C86 1.275 . S
O91 Tb82 2.513 . S
O91 C86 1.246 . S
O92 Tb82 2.453 . S
O92 C88 1.245 . S
O93 Tb80 2.343 . S
O93 Tb82 2.596 . S
O93 C88 1.259 . S
O94 Tb82 2.374 . S
O94 C89 1.250 . S
O95 Tb80 2.353 . S
O95 C89 1.263 . S
C96 O97 1.275 . S
C96 O98 1.246 . S
O97 Tb80 2.427 . S
O97 C96 1.275 . S
O98 Tb80 2.513 . S
O98 C96 1.246 . S
C99 O83 1.245 . S
C99 O84 1.259 1_554 S
Tb100 O103 2.453 1_556 S
Tb100 O104 2.596 . S
Tb100 O105 2.374 1_545 S
Tb100 O113 2.346 . S
Tb100 O115 2.353 . S
Tb100 O117 2.427 . S
Tb100 O118 2.513 1_545 S
C101 O105 1.251 . S
C101 O107 1.263 . S
Tb102 O104 2.343 1_565 S
Tb102 O107 2.353 . S
Tb102 O110 2.427 . S
Tb102 O111 2.513 1_565 S
Tb102 O112 2.453 . S
Tb102 O113 2.594 1_565 S
Tb102 O114 2.374 1_565 S
O103 Tb100 2.453 1_554 S
O103 C119 1.245 . S
O104 Tb100 2.596 . S
O104 Tb102 2.343 1_545 S
O104 C119 1.259 1_556 S
O105 Tb100 2.374 1_565 S
O105 C101 1.251 . S
C106 O110 1.275 1_545 S
C106 O111 1.246 . S
O107 C101 1.263 . S
O107 Tb102 2.353 . S
C108 O112 1.245 . S
C108 O113 1.258 1_565 S
C109 O114 1.250 . S
C109 O115 1.263 . S
O110 Tb102 2.427 . S
O110 C106 1.275 1_565 S
O111 Tb102 2.513 1_545 S
O111 C106 1.246 . S
O112 Tb102 2.453 . S
O112 C108 1.245 . S
O113 Tb100 2.346 . S
O113 Tb102 2.594 1_545 S
O113 C108 1.258 1_545 S
O114 Tb102 2.374 1_545 S
O114 C109 1.250 . S
O115 Tb100 2.353 . S
O115 C109 1.263 . S
C116 O117 1.275 . S
C116 O118 1.246 1_545 S
O117 Tb100 2.427 . S
O117 C116 1.275 . S
O118 Tb100 2.513 1_565 S
O118 C116 1.246 1_565 S
C119 O103 1.245 . S
C119 O104 1.259 1_554 S
Tb120 O123 2.453 . S
Tb120 O124 2.596 . S
Tb120 O125 2.374 1_545 S
Tb120 O133 2.346 1_556 S
Tb120 O135 2.353 . S
Tb120 O137 2.427 1_556 S
Tb120 O138 2.513 1_546 S
C121 O125 1.251 . S
C121 O127 1.263 . S
Tb122 O124 2.343 1_564 S
Tb122 O127 2.353 1_554 S
Tb122 O130 2.427 1_554 S
Tb122 O131 2.513 1_564 S
Tb122 O132 2.453 . S
Tb122 O133 2.594 1_565 S
Tb122 O134 2.374 1_565 S
O123 Tb120 2.453 . S
O123 C139 1.245 . S
O124 Tb120 2.596 . S
O124 Tb122 2.343 1_546 S
O124 C139 1.259 . S
O125 Tb120 2.374 1_565 S
O125 C121 1.251 . S
C126 O130 1.275 1_545 S
C126 O131 1.246 . S
O127 C121 1.263 . S
O127 Tb122 2.353 1_556 S
C128 O132 1.245 . S
C128 O133 1.258 1_565 S
C129 O134 1.250 . S
C129 O135 1.263 1_554 S
O130 Tb122 2.427 1_556 S
O130 C126 1.275 1_565 S
O131 Tb122 2.513 1_546 S
O131 C126 1.246 . S
O132 Tb122 2.453 . S
O132 C128 1.245 . S
O133 Tb120 2.346 1_554 S
O133 Tb122 2.594 1_545 S
O133 C128 1.258 1_545 S
O134 Tb122 2.374 1_545 S
O134 C129 1.250 . S
O135 Tb120 2.353 . S
O135 C129 1.263 1_556 S
C136 O137 1.275 . S
C136 O138 1.246 1_545 S
O137 Tb120 2.427 1_554 S
O137 C136 1.275 . S
O138 Tb120 2.513 1_564 S
O138 C136 1.246 1_565 S
C139 O123 1.245 . S
C139 O124 1.259 . S
Tb140 O143 2.453 . S
Tb140 O144 2.596 . S
Tb140 O145 2.374 . S
Tb140 O153 2.343 1_556 S
Tb140 O155 2.353 . S
Tb140 O157 2.427 1_556 S
Tb140 O158 2.513 1_556 S
C141 O145 1.251 . S
C141 O147 1.263 . S
Tb142 O144 2.343 1_554 S
Tb142 O147 2.353 1_554 S
Tb142 O150 2.427 1_554 S
Tb142 O151 2.513 1_554 S
Tb142 O152 2.453 . S
Tb142 O153 2.596 . S
Tb142 O154 2.374 . S
O143 Tb140 2.453 . S
O143 C159 1.245 . S
O144 Tb140 2.596 . S
O144 Tb142 2.343 1_556 S
O144 C159 1.259 . S
O145 Tb140 2.374 . S
O145 C141 1.251 . S
C146 O150 1.275 . S
C146 O151 1.246 . S
O147 C141 1.263 . S
O147 Tb142 2.353 1_556 S
C148 O152 1.245 . S
C148 O153 1.259 . S
C149 O154 1.250 . S
C149 O155 1.263 1_554 S
O150 Tb142 2.427 1_556 S
O150 C146 1.275 . S
O151 Tb142 2.513 1_556 S
O151 C146 1.246 . S
O152 Tb142 2.453 . S
O152 C148 1.245 . S
O153 Tb140 2.343 1_554 S
O153 Tb142 2.596 . S
O153 C148 1.259 . S
O154 Tb142 2.374 . S
O154 C149 1.250 . S
O155 Tb140 2.353 . S
O155 C149 1.263 1_556 S
C156 O157 1.275 . S
C156 O158 1.246 . S
O157 Tb140 2.427 1_554 S
O157 C156 1.275 . S
O158 Tb140 2.513 1_554 S
O158 C156 1.246 . S
C159 O143 1.245 . S
C159 O144 1.259 . S
Tb160 O163 2.453 . S
Tb160 O164 2.596 . S
Tb160 O165 2.374 . S
Tb160 O173 2.343 . S
Tb160 O175 2.353 . S
Tb160 O177 2.427 . S
Tb160 O178 2.513 . S
C161 O165 1.251 . S
C161 O167 1.263 . S
Tb162 O164 2.343 . S
Tb162 O167 2.353 . S
Tb162 O170 2.427 . S
Tb162 O171 2.513 . S
Tb162 O172 2.453 . S
Tb162 O173 2.596 . S
Tb162 O174 2.374 . S
O163 Tb160 2.453 . S
O163 C179 1.245 . S
O164 Tb160 2.596 . S
O164 Tb162 2.343 . S
O164 C179 1.259 . S
O165 Tb160 2.374 . S
O165 C161 1.251 . S
C166 O170 1.275 . S
C166 O171 1.246 . S
O167 C161 1.263 . S
O167 Tb162 2.353 . S
C168 O172 1.245 . S
C168 O173 1.259 . S
C169 O174 1.250 . S
C169 O175 1.263 . S
O170 Tb162 2.427 . S
O170 C166 1.275 . S
O171 Tb162 2.513 . S
O171 C166 1.246 . S
O172 Tb162 2.453 . S
O172 C168 1.245 . S
O173 Tb160 2.343 . S
O173 Tb162 2.596 . S
O173 C168 1.259 . S
O174 Tb162 2.374 . S
O174 C169 1.250 . S
O175 Tb160 2.353 . S
O175 C169 1.263 . S
C176 O177 1.275 . S
C176 O178 1.246 . S
O177 Tb160 2.427 . S
O177 C176 1.275 . S
O178 Tb160 2.513 . S
O178 C176 1.246 . S
C179 O163 1.245 . S
C179 O164 1.259 . S
Tb180 O183 2.453 . S
Tb180 O184 2.596 . S
Tb180 O185 2.374 . S
Tb180 O193 2.343 . S
Tb180 O195 2.353 . S
Tb180 O197 2.427 . S
Tb180 O198 2.513 . S
C181 O185 1.251 . S
C181 O187 1.263 . S
Tb182 O184 2.343 . S
Tb182 O187 2.353 . S
Tb182 O190 2.427 . S
Tb182 O191 2.513 . S
Tb182 O192 2.453 . S
Tb182 O193 2.596 . S
Tb182 O194 2.374 . S
O183 Tb180 2.453 . S
O183 C199 1.245 . S
O184 Tb180 2.596 . S
O184 Tb182 2.343 . S
O184 C199 1.259 . S
O185 Tb180 2.374 . S
O185 C181 1.251 . S
C186 O190 1.275 . S
C186 O191 1.246 . S
O187 C181 1.263 . S
O187 Tb182 2.353 . S
C188 O192 1.245 . S
C188 O193 1.259 . S
C189 O194 1.250 . S
C189 O195 1.263 . S
O190 Tb182 2.427 . S
O190 C186 1.275 . S
O191 Tb182 2.513 . S
O191 C186 1.246 . S
O192 Tb182 2.453 . S
O192 C188 1.245 . S
O193 Tb180 2.343 . S
O193 Tb182 2.596 . S
O193 C188 1.259 . S
O194 Tb182 2.374 . S
O194 C189 1.250 . S
O195 Tb180 2.353 . S
O195 C189 1.263 . S
C196 O197 1.275 . S
C196 O198 1.246 . S
O197 Tb180 2.427 . S
O197 C196 1.275 . S
O198 Tb180 2.513 . S
O198 C196 1.246 . S
C199 O183 1.245 . S
C199 O184 1.259 . S
Tb200 O203 2.453 . S
Tb200 O204 2.596 . S
Tb200 O205 2.374 . S
Tb200 O213 2.343 . S
Tb200 O215 2.353 . S
Tb200 O217 2.427 . S
Tb200 O218 2.513 . S
C201 O205 1.251 . S
C201 O207 1.263 . S
Tb202 O204 2.343 . S
Tb202 O207 2.353 . S
Tb202 O210 2.427 . S
Tb202 O211 2.513 . S
Tb202 O212 2.453 . S
Tb202 O213 2.596 . S
Tb202 O214 2.374 . S
O203 Tb200 2.453 . S
O203 C219 1.245 . S
O204 Tb200 2.596 . S
O204 Tb202 2.343 . S
O204 C219 1.259 . S
O205 Tb200 2.374 . S
O205 C201 1.251 . S
C206 O210 1.275 . S
C206 O211 1.246 . S
O207 C201 1.263 . S
O207 Tb202 2.353 . S
C208 O212 1.245 . S
C208 O213 1.259 . S
C209 O214 1.250 . S
C209 O215 1.263 . S
O210 Tb202 2.427 . S
O210 C206 1.275 . S
O211 Tb202 2.513 . S
O211 C206 1.246 . S
O212 Tb202 2.453 . S
O212 C208 1.245 . S
O213 Tb200 2.343 . S
O213 Tb202 2.596 . S
O213 C208 1.259 . S
O214 Tb202 2.374 . S
O214 C209 1.250 . S
O215 Tb200 2.353 . S
O215 C209 1.263 . S
C216 O217 1.275 . S
C216 O218 1.246 . S
O217 Tb200 2.427 . S
O217 C216 1.275 . S
O218 Tb200 2.513 . S
O218 C216 1.246 . S
C219 O203 1.245 . S
C219 O204 1.259 . S
Tb220 O223 2.453 . S
Tb220 O224 2.596 . S
Tb220 O225 2.374 . S
Tb220 O233 2.343 . S
Tb220 O235 2.353 . S
Tb220 O237 2.427 . S
Tb220 O238 2.513 . S
C221 O225 1.251 . S
C221 O227 1.263 . S
Tb222 O224 2.343 . S
Tb222 O227 2.353 . S
Tb222 O230 2.427 . S
Tb222 O231 2.513 . S
Tb222 O232 2.453 . S
Tb222 O233 2.596 . S
Tb222 O234 2.374 . S
O223 Tb220 2.453 . S
O223 C239 1.245 . S
O224 Tb220 2.596 . S
O224 Tb222 2.343 . S
O224 C239 1.259 . S
O225 Tb220 2.374 . S
O225 C221 1.251 . S
C226 O230 1.275 . S
C226 O231 1.246 . S
O227 C221 1.263 . S
O227 Tb222 2.353 . S
C228 O232 1.245 . S
C228 O233 1.259 . S
C229 O234 1.250 . S
C229 O235 1.263 . S
O230 Tb222 2.427 . S
O230 C226 1.275 . S
O231 Tb222 2.513 . S
O231 C226 1.246 . S
O232 Tb222 2.453 . S
O232 C228 1.245 . S
O233 Tb220 2.343 . S
O233 Tb222 2.596 . S
O233 C228 1.259 . S
O234 Tb222 2.374 . S
O234 C229 1.250 . S
O235 Tb220 2.353 . S
O235 C229 1.263 . S
C236 O237 1.275 . S
C236 O238 1.246 . S
O237 Tb220 2.427 . S
O237 C236 1.275 . S
O238 Tb220 2.513 . S
O238 C236 1.246 . S
C239 O223 1.245 . S
C239 O224 1.259 . S
Tb240 O243 2.453 . S
Tb240 O244 2.596 . S
Tb240 O245 2.374 . S
Tb240 O253 2.343 . S
Tb240 O255 2.353 . S
Tb240 O257 2.427 . S
Tb240 O258 2.513 . S
C241 O245 1.251 . S
C241 O247 1.263 . S
Tb242 O244 2.343 . S
Tb242 O247 2.353 . S
Tb242 O250 2.427 . S
Tb242 O251 2.513 . S
Tb242 O252 2.453 . S
Tb242 O253 2.596 . S
Tb242 O254 2.374 . S
O243 Tb240 2.453 . S
O243 C259 1.245 . S
O244 Tb240 2.596 . S
O244 Tb242 2.343 . S
O244 C259 1.259 . S
O245 Tb240 2.374 . S
O245 C241 1.251 . S
C246 O250 1.275 . S
C246 O251 1.246 . S
O247 C241 1.263 . S
O247 Tb242 2.353 . S
C248 O252 1.245 . S
C248 O253 1.259 . S
C249 O254 1.250 . S
C249 O255 1.263 . S
O250 Tb242 2.427 . S
O250 C246 1.275 . S
O251 Tb242 2.513 . S
O251 C246 1.246 . S
O252 Tb242 2.453 . S
O252 C248 1.245 . S
O253 Tb240 2.343 . S
O253 Tb242 2.596 . S
O253 C248 1.259 . S
O254 Tb242 2.374 . S
O254 C249 1.250 . S
O255 Tb240 2.353 . S
O255 C249 1.263 . S
C256 O257 1.275 . S
C256 O258 1.246 . S
O257 Tb240 2.427 . S
O257 C256 1.275 . S
O258 Tb240 2.513 . S
O258 C256 1.246 . S
C259 O243 1.245 . S
C259 O244 1.259 . S
Tb260 O263 2.453 . S
Tb260 O264 2.596 . S
Tb260 O265 2.374 . S
Tb260 O273 2.343 . S
Tb260 O275 2.353 . S
Tb260 O277 2.427 . S
Tb260 O278 2.513 . S
C261 O265 1.251 . S
C261 O267 1.263 . S
Tb262 O264 2.343 . S
Tb262 O267 2.353 . S
Tb262 O270 2.427 . S
Tb262 O271 2.513 . S
Tb262 O272 2.453 . S
Tb262 O273 2.596 . S
Tb262 O274 2.374 . S
O263 Tb260 2.453 . S
O263 C279 1.245 . S
O264 Tb260 2.596 . S
O264 Tb262 2.343 . S
O264 C279 1.259 . S
O265 Tb260 2.374 . S
O265 C261 1.251 . S
C266 O270 1.275 . S
C266 O271 1.246 . S
O267 C261 1.263 . S
O267 Tb262 2.353 . S
C268 O272 1.245 . S
C268 O273 1.259 . S
C269 O274 1.250 . S
C269 O275 1.263 . S
O270 Tb262 2.427 . S
O270 C266 1.275 . S
O271 Tb262 2.513 . S
O271 C266 1.246 . S
O272 Tb262 2.453 . S
O272 C268 1.245 . S
O273 Tb260 2.343 . S
O273 Tb262 2.596 . S
O273 C268 1.259 . S
O274 Tb262 2.374 . S
O274 C269 1.250 . S
O275 Tb260 2.353 . S
O275 C269 1.263 . S
C276 O277 1.275 . S
C276 O278 1.246 . S
O277 Tb260 2.427 . S
O277 C276 1.275 . S
O278 Tb260 2.513 . S
O278 C276 1.246 . S
C279 O263 1.245 . S
C279 O264 1.259 . S
Tb280 O283 2.453 . S
Tb280 O284 2.596 . S
Tb280 O285 2.374 . S
Tb280 O293 2.343 . S
Tb280 O295 2.353 . S
Tb280 O297 2.427 . S
Tb280 O298 2.513 . S
C281 O285 1.251 . S
C281 O287 1.263 . S
Tb282 O284 2.343 . S
Tb282 O287 2.353 . S
Tb282 O290 2.427 . S
Tb282 O291 2.513 . S
Tb282 O292 2.453 . S
Tb282 O293 2.596 . S
Tb282 O294 2.374 . S
O283 Tb280 2.453 . S
O283 C299 1.245 . S
O284 Tb280 2.596 . S
O284 Tb282 2.343 . S
O284 C299 1.259 . S
O285 Tb280 2.374 . S
O285 C281 1.251 . S
C286 O290 1.275 . S
C286 O291 1.246 . S
O287 C281 1.263 . S
O287 Tb282 2.353 . S
C288 O292 1.245 . S
C288 O293 1.259 . S
C289 O294 1.250 . S
C289 O295 1.263 . S
O290 Tb282 2.427 . S
O290 C286 1.275 . S
O291 Tb282 2.513 . S
O291 C286 1.246 . S
O292 Tb282 2.453 . S
O292 C288 1.245 . S
O293 Tb280 2.343 . S
O293 Tb282 2.596 . S
O293 C288 1.259 . S
O294 Tb282 2.374 . S
O294 C289 1.250 . S
O295 Tb280 2.353 . S
O295 C289 1.263 . S
C296 O297 1.275 . S
C296 O298 1.246 . S
O297 Tb280 2.427 . S
O297 C296 1.275 . S
O298 Tb280 2.513 . S
O298 C296 1.246 . S
C299 O283 1.245 . S
C299 O284 1.259 . S
Tb300 O303 2.453 . S
Tb300 O304 2.596 . S
Tb300 O305 2.374 . S
Tb300 O313 2.343 . S
Tb300 O315 2.353 . S
Tb300 O317 2.427 . S
Tb300 O318 2.513 . S
C301 O305 1.251 . S
C301 O307 1.263 . S
Tb302 O304 2.343 . S
Tb302 O307 2.353 . S
Tb302 O310 2.427 . S
Tb302 O311 2.513 . S
Tb302 O312 2.453 . S
Tb302 O313 2.596 . S
Tb302 O314 2.374 . S
O303 Tb300 2.453 . S
O303 C319 1.245 . S
O304 Tb300 2.596 . S
O304 Tb302 2.343 . S
O304 C319 1.259 . S
O305 Tb300 2.374 . S
O305 C301 1.251 . S
C306 O310 1.275 . S
C306 O311 1.246 . S
O307 C301 1.263 . S
O307 Tb302 2.353 . S
C308 O312 1.245 . S
C308 O313 1.259 . S
C309 O314 1.250 . S
C309 O315 1.263 . S
O310 Tb302 2.427 . S
O310 C306 1.275 . S
O311 Tb302 2.513 . S
O311 C306 1.246 . S
O312 Tb302 2.453 . S
O312 C308 1.245 . S
O313 Tb300 2.343 . S
O313 Tb302 2.596 . S
O313 C308 1.259 . S
O314 Tb302 2.374 . S
O314 C309 1.250 . S
O315 Tb300 2.353 . S
O315 C309 1.263 . S
C316 O317 1.275 . S
C316 O318 1.246 . S
O317 Tb300 2.427 . S
O317 C316 1.275 . S
O318 Tb300 2.513 . S
O318 C316 1.246 . S
C319 O303 1.245 . S
C319 O304 1.259 . S
Tb320 O323 2.453 . S
Tb320 O324 2.596 . S
Tb320 O325 2.374 . S
Tb320 O333 2.343 . S
Tb320 O335 2.353 . S
Tb320 O337 2.427 . S
Tb320 O338 2.513 . S
C321 O325 1.251 . S
C321 O327 1.263 . S
Tb322 O324 2.343 . S
Tb322 O327 2.353 . S
Tb322 O330 2.427 . S
Tb322 O331 2.513 . S
Tb322 O332 2.453 . S
Tb322 O333 2.596 . S
Tb322 O334 2.374 . S
O323 Tb320 2.453 . S
O323 C339 1.245 . S
O324 Tb320 2.596 . S
O324 Tb322 2.343 . S
O324 C339 1.259 . S
O325 Tb320 2.374 . S
O325 C321 1.251 . S
C326 O330 1.275 . S
C326 O331 1.246 . S
O327 C321 1.263 . S
O327 Tb322 2.353 . S
C328 O332 1.245 . S
C328 O333 1.259 . S
C329 O334 1.250 . S
C329 O335 1.263 . S
O330 Tb322 2.427 . S
O330 C326 1.275 . S
O331 Tb322 2.513 . S
O331 C326 1.246 . S
O332 Tb322 2.453 . S
O332 C328 1.245 . S
O333 Tb320 2.343 . S
O333 Tb322 2.596 . S
O333 C328 1.259 . S
O334 Tb322 2.374 . S
O334 C329 1.250 . S
O335 Tb320 2.353 . S
O335 C329 1.263 . S
C336 O337 1.275 . S
C336 O338 1.246 . S
O337 Tb320 2.427 . S
O337 C336 1.275 . S
O338 Tb320 2.513 . S
O338 C336 1.246 . S
C339 O323 1.245 . S
C339 O324 1.259 . S
Tb340 O343 2.453 . S
Tb340 O344 2.594 1_545 S
Tb340 O345 2.374 1_545 S
Tb340 O353 2.343 1_545 S
Tb340 O355 2.353 . S
Tb340 O357 2.427 . S
Tb340 O358 2.513 1_545 S
C341 O345 1.251 . S
C341 O347 1.263 . S
Tb342 O344 2.346 . S
Tb342 O347 2.353 . S
Tb342 O350 2.427 . S
Tb342 O351 2.513 1_565 S
Tb342 O352 2.453 . S
Tb342 O353 2.596 . S
Tb342 O354 2.374 1_565 S
O343 Tb340 2.453 . S
O343 C359 1.245 . S
O344 Tb340 2.594 1_565 S
O344 Tb342 2.346 . S
O344 C359 1.258 1_565 S
O345 Tb340 2.374 1_565 S
O345 C341 1.251 . S
C346 O350 1.275 . S
C346 O351 1.246 1_565 S
O347 C341 1.263 . S
O347 Tb342 2.353 . S
C348 O352 1.245 . S
C348 O353 1.259 . S
C349 O354 1.250 . S
C349 O355 1.263 . S
O350 Tb342 2.427 . S
O350 C346 1.275 . S
O351 Tb342 2.513 1_545 S
O351 C346 1.246 1_545 S
O352 Tb342 2.453 . S
O352 C348 1.245 . S
O353 Tb340 2.343 1_565 S
O353 Tb342 2.596 . S
O353 C348 1.259 . S
O354 Tb342 2.374 1_545 S
O354 C349 1.250 . S
O355 Tb340 2.353 . S
O355 C349 1.263 . S
C356 O357 1.275 1_565 S
C356 O358 1.246 . S
O357 Tb340 2.427 . S
O357 C356 1.275 1_545 S
O358 Tb340 2.513 1_565 S
O358 C356 1.246 . S
C359 O343 1.245 . S
C359 O344 1.258 1_545 S
Tb360 O363 2.453 . S
Tb360 O364 2.594 1_545 S
Tb360 O365 2.374 1_545 S
Tb360 O373 2.343 1_545 S
Tb360 O375 2.353 . S
Tb360 O377 2.427 . S
Tb360 O378 2.513 1_545 S
C361 O365 1.251 . S
C361 O367 1.263 . S
Tb362 O364 2.346 . S
Tb362 O367 2.353 . S
Tb362 O370 2.427 . S
Tb362 O371 2.513 1_565 S
Tb362 O372 2.453 . S
Tb362 O373 2.596 . S
Tb362 O374 2.374 1_565 S
O363 Tb360 2.453 . S
O363 C379 1.245 . S
O364 Tb360 2.594 1_565 S
O364 Tb362 2.346 . S
O364 C379 1.258 1_565 S
O365 Tb360 2.374 1_565 S
O365 C361 1.251 . S
C366 O370 1.275 . S
C366 O371 1.246 1_565 S
O367 C361 1.263 . S
O367 Tb362 2.353 . S
C368 O372 1.245 . S
C368 O373 1.259 . S
C369 O374 1.250 . S
C369 O375 1.263 . S
O370 Tb362 2.427 . S
O370 C366 1.275 . S
O371 Tb362 2.513 1_545 S
O371 C366 1.246 1_545 S
O372 Tb362 2.453 . S
O372 C368 1.245 . S
O373 Tb360 2.343 1_565 S
O373 Tb362 2.596 . S
O373 C368 1.259 . S
O374 Tb362 2.374 1_545 S
O374 C369 1.250 . S
O375 Tb360 2.353 . S
O375 C369 1.263 . S
C376 O377 1.275 1_565 S
C376 O378 1.246 . S
O377 Tb360 2.427 . S
O377 C376 1.275 1_545 S
O378 Tb360 2.513 1_565 S
O378 C376 1.246 . S
C379 O363 1.245 . S
C379 O364 1.258 1_545 S
Tb380 O383 2.453 . S
Tb380 O384 2.596 . S
Tb380 O385 2.374 . S
Tb380 O393 2.343 . S
Tb380 O395 2.353 . S
Tb380 O397 2.427 . S
Tb380 O398 2.513 . S
C381 O385 1.251 . S
C381 O387 1.263 . S
Tb382 O384 2.343 . S
Tb382 O387 2.353 . S
Tb382 O390 2.427 . S
Tb382 O391 2.513 . S
Tb382 O392 2.453 . S
Tb382 O393 2.596 . S
Tb382 O394 2.374 . S
O383 Tb380 2.453 . S
O383 C399 1.245 . S
O384 Tb380 2.596 . S
O384 Tb382 2.343 . S
O384 C399 1.259 . S
O385 Tb380 2.374 . S
O385 C381 1.251 . S
C386 O390 1.275 . S
C386 O391 1.246 . S
O387 C381 1.263 . S
O387 Tb382 2.353 . S
C388 O392 1.245 . S
C388 O393 1.259 . S
C389 O394 1.250 . S
C389 O395 1.263 . S
O390 Tb382 2.427 . S
O390 C386 1.275 . S
O391 Tb382 2.513 . S
O391 C386 1.246 . S
O392 Tb382 2.453 . S
O392 C388 1.245 . S
O393 Tb380 2.343 . S
O393 Tb382 2.596 . S
O393 C388 1.259 . S
O394 Tb382 2.374 . S
O394 C389 1.250 . S
O395 Tb380 2.353 . S
O395 C389 1.263 . S
C396 O397 1.275 . S
C396 O398 1.246 . S
O397 Tb380 2.427 . S
O397 C396 1.275 . S
O398 Tb380 2.513 . S
O398 C396 1.246 . S
C399 O383 1.245 . S
C399 O384 1.259 . S
Tb400 O403 2.453 . S
Tb400 O404 2.596 . S
Tb400 O405 2.374 . S
Tb400 O413 2.343 . S
Tb400 O415 2.353 . S
Tb400 O417 2.427 . S
Tb400 O418 2.513 . S
C401 O405 1.251 . S
C401 O407 1.263 . S
Tb402 O404 2.343 . S
Tb402 O407 2.353 . S
Tb402 O410 2.427 . S
Tb402 O411 2.513 . S
Tb402 O412 2.453 . S
Tb402 O413 2.596 . S
Tb402 O414 2.374 . S
O403 Tb400 2.453 . S
O403 C419 1.245 . S
O404 Tb400 2.596 . S
O404 Tb402 2.343 . S
O404 C419 1.259 . S
O405 Tb400 2.374 . S
O405 C401 1.251 . S
C406 O410 1.275 . S
C406 O411 1.246 . S
O407 C401 1.263 . S
O407 Tb402 2.353 . S
C408 O412 1.245 . S
C408 O413 1.259 . S
C409 O414 1.250 . S
C409 O415 1.263 . S
O410 Tb402 2.427 . S
O410 C406 1.275 . S
O411 Tb402 2.513 . S
O411 C406 1.246 . S
O412 Tb402 2.453 . S
O412 C408 1.245 . S
O413 Tb400 2.343 . S
O413 Tb402 2.596 . S
O413 C408 1.259 . S
O414 Tb402 2.374 . S
O414 C409 1.250 . S
O415 Tb400 2.353 . S
O415 C409 1.263 . S
C416 O417 1.275 . S
C416 O418 1.246 . S
O417 Tb400 2.427 . S
O417 C416 1.275 . S
O418 Tb400 2.513 . S
O418 C416 1.246 . S
C419 O403 1.245 . S
C419 O404 1.259 . S
Tb420 O423 2.453 . S
Tb420 O424 2.596 . S
Tb420 O425 2.374 1_545 S
Tb420 O433 2.346 . S
Tb420 O435 2.353 . S
Tb420 O437 2.427 . S
Tb420 O438 2.513 1_545 S
C421 O425 1.251 . S
C421 O427 1.263 . S
Tb422 O424 2.343 1_565 S
Tb422 O427 2.353 . S
Tb422 O430 2.427 . S
Tb422 O431 2.513 1_565 S
Tb422 O432 2.453 . S
Tb422 O433 2.594 1_565 S
Tb422 O434 2.374 1_565 S
O423 Tb420 2.453 . S
O423 C439 1.245 . S
O424 Tb420 2.596 . S
O424 Tb422 2.343 1_545 S
O424 C439 1.259 . S
O425 Tb420 2.374 1_565 S
O425 C421 1.251 . S
C426 O430 1.275 1_545 S
C426 O431 1.246 . S
O427 C421 1.263 . S
O427 Tb422 2.353 . S
C428 O432 1.245 . S
C428 O433 1.258 1_565 S
C429 O434 1.250 . S
C429 O435 1.263 . S
O430 Tb422 2.427 . S
O430 C426 1.275 1_565 S
O431 Tb422 2.513 1_545 S
O431 C426 1.246 . S
O432 Tb422 2.453 . S
O432 C428 1.245 . S
O433 Tb420 2.346 . S
O433 Tb422 2.594 1_545 S
O433 C428 1.258 1_545 S
O434 Tb422 2.374 1_545 S
O434 C429 1.250 . S
O435 Tb420 2.353 . S
O435 C429 1.263 . S
C436 O437 1.275 . S
C436 O438 1.246 1_545 S
O437 Tb420 2.427 . S
O437 C436 1.275 . S
O438 Tb420 2.513 1_565 S
O438 C436 1.246 1_565 S
C439 O423 1.245 . S
C439 O424 1.259 . S
Tb440 O443 2.453 . S
Tb440 O444 2.596 . S
Tb440 O445 2.374 1_545 S
Tb440 O453 2.346 . S
Tb440 O455 2.353 . S
Tb440 O457 2.427 . S
Tb440 O458 2.513 1_545 S
C441 O445 1.251 . S
C441 O447 1.263 . S
Tb442 O444 2.343 1_565 S
Tb442 O447 2.353 . S
Tb442 O450 2.427 . S
Tb442 O451 2.513 1_565 S
Tb442 O452 2.453 . S
Tb442 O453 2.594 1_565 S
Tb442 O454 2.374 1_565 S
O443 Tb440 2.453 . S
O443 C459 1.245 . S
O444 Tb440 2.596 . S
O444 Tb442 2.343 1_545 S
O444 C459 1.259 . S
O445 Tb440 2.374 1_565 S
O445 C441 1.251 . S
C446 O450 1.275 1_545 S
C446 O451 1.246 . S
O447 C441 1.263 . S
O447 Tb442 2.353 . S
C448 O452 1.245 . S
C448 O453 1.258 1_565 S
C449 O454 1.250 . S
C449 O455 1.263 . S
O450 Tb442 2.427 . S
O450 C446 1.275 1_565 S
O451 Tb442 2.513 1_545 S
O451 C446 1.246 . S
O452 Tb442 2.453 . S
O452 C448 1.245 . S
O453 Tb440 2.346 . S
O453 Tb442 2.594 1_545 S
O453 C448 1.258 1_545 S
O454 Tb442 2.374 1_545 S
O454 C449 1.250 . S
O455 Tb440 2.353 . S
O455 C449 1.263 . S
C456 O457 1.275 . S
C456 O458 1.246 1_545 S
O457 Tb440 2.427 . S
O457 C456 1.275 . S
O458 Tb440 2.513 1_565 S
O458 C456 1.246 1_565 S
C459 O443 1.245 . S
C459 O444 1.259 . S
Tb460 O463 2.453 . S
Tb460 O464 2.596 . S
Tb460 O465 2.374 . S
Tb460 O473 2.343 . S
Tb460 O475 2.353 . S
Tb460 O477 2.427 . S
Tb460 O478 2.513 . S
C461 O465 1.251 . S
C461 O467 1.263 . S
Tb462 O464 2.343 . S
Tb462 O467 2.353 . S
Tb462 O470 2.427 . S
Tb462 O471 2.513 . S
Tb462 O472 2.453 . S
Tb462 O473 2.596 . S
Tb462 O474 2.374 . S
O463 Tb460 2.453 . S
O463 C479 1.245 . S
O464 Tb460 2.596 . S
O464 Tb462 2.343 . S
O464 C479 1.259 . S
O465 Tb460 2.374 . S
O465 C461 1.251 . S
C466 O470 1.275 . S
C466 O471 1.246 . S
O467 C461 1.263 . S
O467 Tb462 2.353 . S
C468 O472 1.245 . S
C468 O473 1.259 . S
C469 O474 1.250 . S
C469 O475 1.263 . S
O470 Tb462 2.427 . S
O470 C466 1.275 . S
O471 Tb462 2.513 . S
O471 C466 1.246 . S
O472 Tb462 2.453 . S
O472 C468 1.245 . S
O473 Tb460 2.343 . S
O473 Tb462 2.596 . S
O473 C468 1.259 . S
O474 Tb462 2.374 . S
O474 C469 1.250 . S
O475 Tb460 2.353 . S
O475 C469 1.263 . S
C476 O477 1.275 . S
C476 O478 1.246 . S
O477 Tb460 2.427 . S
O477 C476 1.275 . S
O478 Tb460 2.513 . S
O478 C476 1.246 . S
C479 O463 1.245 . S
C479 O464 1.259 . S
Tb480 O483 2.453 . S
Tb480 O484 2.596 . S
Tb480 O485 2.374 . S
Tb480 O493 2.343 . S
Tb480 O495 2.353 . S
Tb480 O497 2.427 . S
Tb480 O498 2.513 . S
C481 O485 1.251 . S
C481 O487 1.263 . S
Tb482 O484 2.343 . S
Tb482 O487 2.353 . S
Tb482 O490 2.427 . S
Tb482 O491 2.513 . S
Tb482 O492 2.453 1_554 S
Tb482 O493 2.596 . S
Tb482 O494 2.374 . S
O483 Tb480 2.453 . S
O483 C499 1.245 . S
O484 Tb480 2.596 . S
O484 Tb482 2.343 . S
O484 C499 1.259 . S
O485 Tb480 2.374 . S
O485 C481 1.251 . S
C486 O490 1.275 . S
C486 O491 1.246 . S
O487 C481 1.263 . S
O487 Tb482 2.353 . S
C488 O492 1.245 . S
C488 O493 1.259 1_556 S
C489 O494 1.250 . S
C489 O495 1.263 . S
O490 Tb482 2.427 . S
O490 C486 1.275 . S
O491 Tb482 2.513 . S
O491 C486 1.246 . S
O492 Tb482 2.453 1_556 S
O492 C488 1.245 . S
O493 Tb480 2.343 . S
O493 Tb482 2.596 . S
O493 C488 1.259 1_554 S
O494 Tb482 2.374 . S
O494 C489 1.250 . S
O495 Tb480 2.353 . S
O495 C489 1.263 . S
C496 O497 1.275 . S
C496 O498 1.246 . S
O497 Tb480 2.427 . S
O497 C496 1.275 . S
O498 Tb480 2.513 . S
O498 C496 1.246 . S
C499 O483 1.245 . S
C499 O484 1.259 . S
Tb500 O503 2.453 . S
Tb500 O504 2.596 . S
Tb500 O505 2.374 . S
Tb500 O513 2.343 . S
Tb500 O515 2.353 . S
Tb500 O517 2.427 . S
Tb500 O518 2.513 . S
C501 O505 1.251 . S
C501 O507 1.263 . S
Tb502 O504 2.343 . S
Tb502 O507 2.353 . S
Tb502 O510 2.427 . S
Tb502 O511 2.513 . S
Tb502 O512 2.453 1_554 S
Tb502 O513 2.596 . S
Tb502 O514 2.374 . S
O503 Tb500 2.453 . S
O503 C519 1.245 . S
O504 Tb500 2.596 . S
O504 Tb502 2.343 . S
O504 C519 1.259 . S
O505 Tb500 2.374 . S
O505 C501 1.251 . S
C506 O510 1.275 . S
C506 O511 1.246 . S
O507 C501 1.263 . S
O507 Tb502 2.353 . S
C508 O512 1.245 . S
C508 O513 1.259 1_556 S
C509 O514 1.250 . S
C509 O515 1.263 . S
O510 Tb502 2.427 . S
O510 C506 1.275 . S
O511 Tb502 2.513 . S
O511 C506 1.246 . S
O512 Tb502 2.453 1_556 S
O512 C508 1.245 . S
O513 Tb500 2.343 . S
O513 Tb502 2.596 . S
O513 C508 1.259 1_554 S
O514 Tb502 2.374 . S
O514 C509 1.250 . S
O515 Tb500 2.353 . S
O515 C509 1.263 . S
C516 O517 1.275 . S
C516 O518 1.246 . S
O517 Tb500 2.427 . S
O517 C516 1.275 . S
O518 Tb500 2.513 . S
O518 C516 1.246 . S
C519 O503 1.245 . S
C519 O504 1.259 . S
Tb520 O523 2.453 . S
Tb520 O524 2.596 . S
Tb520 O525 2.374 . S
Tb520 O533 2.343 1_556 S
Tb520 O535 2.353 1_556 S
Tb520 O537 2.427 1_556 S
Tb520 O538 2.513 1_556 S
C521 O525 1.251 . S
C521 O527 1.263 1_556 S
Tb522 O524 2.343 1_554 S
Tb522 O527 2.353 . S
Tb522 O530 2.427 1_554 S
Tb522 O531 2.513 1_554 S
Tb522 O532 2.453 . S
Tb522 O533 2.596 . S
Tb522 O534 2.374 . S
O523 Tb520 2.453 . S
O523 C539 1.245 . S
O524 Tb520 2.596 . S
O524 Tb522 2.343 1_556 S
O524 C539 1.259 . S
O525 Tb520 2.374 . S
O525 C521 1.251 . S
C526 O530 1.275 . S
C526 O531 1.246 . S
O527 C521 1.263 1_554 S
O527 Tb522 2.353 . S
C528 O532 1.245 . S
C528 O533 1.259 . S
C529 O534 1.250 . S
C529 O535 1.263 . S
O530 Tb522 2.427 1_556 S
O530 C526 1.275 . S
O531 Tb522 2.513 1_556 S
O531 C526 1.246 . S
O532 Tb522 2.453 . S
O532 C528 1.245 . S
O533 Tb520 2.343 1_554 S
O533 Tb522 2.596 . S
O533 C528 1.259 . S
O534 Tb522 2.374 . S
O534 C529 1.250 . S
O535 Tb520 2.353 1_554 S
O535 C529 1.263 . S
C536 O537 1.275 . S
C536 O538 1.246 . S
O537 Tb520 2.427 1_554 S
O537 C536 1.275 . S
O538 Tb520 2.513 1_554 S
O538 C536 1.246 . S
C539 O523 1.245 . S
C539 O524 1.259 . S
Tb540 O543 2.453 . S
Tb540 O544 2.596 . S
Tb540 O545 2.374 . S
Tb540 O553 2.343 1_556 S
Tb540 O555 2.353 1_556 S
Tb540 O557 2.427 1_556 S
Tb540 O558 2.513 1_556 S
C541 O545 1.251 . S
C541 O547 1.263 1_556 S
Tb542 O544 2.343 1_554 S
Tb542 O547 2.353 . S
Tb542 O550 2.427 1_554 S
Tb542 O551 2.513 1_554 S
Tb542 O552 2.453 . S
Tb542 O553 2.596 . S
Tb542 O554 2.374 . S
O543 Tb540 2.453 . S
O543 C559 1.245 . S
O544 Tb540 2.596 . S
O544 Tb542 2.343 1_556 S
O544 C559 1.259 . S
O545 Tb540 2.374 . S
O545 C541 1.251 . S
C546 O550 1.275 . S
C546 O551 1.246 . S
O547 C541 1.263 1_554 S
O547 Tb542 2.353 . S
C548 O552 1.245 . S
C548 O553 1.259 . S
C549 O554 1.250 . S
C549 O555 1.263 . S
O550 Tb542 2.427 1_556 S
O550 C546 1.275 . S
O551 Tb542 2.513 1_556 S
O551 C546 1.246 . S
O552 Tb542 2.453 . S
O552 C548 1.245 . S
O553 Tb540 2.343 1_554 S
O553 Tb542 2.596 . S
O553 C548 1.259 . S
O554 Tb542 2.374 . S
O554 C549 1.250 . S
O555 Tb540 2.353 1_554 S
O555 C549 1.263 . S
C556 O557 1.275 . S
C556 O558 1.246 . S
O557 Tb540 2.427 1_554 S
O557 C556 1.275 . S
O558 Tb540 2.513 1_554 S
O558 C556 1.246 . S
C559 O543 1.245 . S
C559 O544 1.259 . S
Tb560 O563 2.453 1_556 S
Tb560 O564 2.596 . S
Tb560 O565 2.374 . S
Tb560 O573 2.343 . S
Tb560 O575 2.353 . S
Tb560 O577 2.427 . S
Tb560 O578 2.513 . S
C561 O565 1.251 . S
C561 O567 1.263 . S
Tb562 O564 2.343 . S
Tb562 O567 2.353 . S
Tb562 O570 2.427 . S
Tb562 O571 2.513 . S
Tb562 O572 2.453 . S
Tb562 O573 2.596 . S
Tb562 O574 2.374 . S
O563 Tb560 2.453 1_554 S
O563 C579 1.245 . S
O564 Tb560 2.596 . S
O564 Tb562 2.343 . S
O564 C579 1.259 1_556 S
O565 Tb560 2.374 . S
O565 C561 1.251 . S
C566 O570 1.275 . S
C566 O571 1.246 . S
O567 C561 1.263 . S
O567 Tb562 2.353 . S
C568 O572 1.245 . S
C568 O573 1.259 . S
C569 O574 1.250 . S
C569 O575 1.263 . S
O570 Tb562 2.427 . S
O570 C566 1.275 . S
O571 Tb562 2.513 . S
O571 C566 1.246 . S
O572 Tb562 2.453 . S
O572 C568 1.245 . S
O573 Tb560 2.343 . S
O573 Tb562 2.596 . S
O573 C568 1.259 . S
O574 Tb562 2.374 . S
O574 C569 1.250 . S
O575 Tb560 2.353 . S
O575 C569 1.263 . S
C576 O577 1.275 . S
C576 O578 1.246 . S
O577 Tb560 2.427 . S
O577 C576 1.275 . S
O578 Tb560 2.513 . S
O578 C576 1.246 . S
C579 O563 1.245 . S
C579 O564 1.259 1_554 S
Tb580 O583 2.453 1_556 S
Tb580 O584 2.596 . S
Tb580 O585 2.374 . S
Tb580 O593 2.343 . S
Tb580 O595 2.353 . S
Tb580 O597 2.427 . S
Tb580 O598 2.513 . S
C581 O585 1.251 . S
C581 O587 1.263 . S
Tb582 O584 2.343 . S
Tb582 O587 2.353 . S
Tb582 O590 2.427 . S
Tb582 O591 2.513 . S
Tb582 O592 2.453 . S
Tb582 O593 2.596 . S
Tb582 O594 2.374 . S
O583 Tb580 2.453 1_554 S
O583 C599 1.245 . S
O584 Tb580 2.596 . S
O584 Tb582 2.343 . S
O584 C599 1.259 1_556 S
O585 Tb580 2.374 . S
O585 C581 1.251 . S
C586 O590 1.275 . S
C586 O591 1.246 . S
O587 C581 1.263 . S
O587 Tb582 2.353 . S
C588 O592 1.245 . S
C588 O593 1.259 . S
C589 O594 1.250 . S
C589 O595 1.263 . S
O590 Tb582 2.427 . S
O590 C586 1.275 . S
O591 Tb582 2.513 . S
O591 C586 1.246 . S
O592 Tb582 2.453 . S
O592 C588 1.245 . S
O593 Tb580 2.343 . S
O593 Tb582 2.596 . S
O593 C588 1.259 . S
O594 Tb582 2.374 . S
O594 C589 1.250 . S
O595 Tb580 2.353 . S
O595 C589 1.263 . S
C596 O597 1.275 . S
C596 O598 1.246 . S
O597 Tb580 2.427 . S
O597 C596 1.275 . S
O598 Tb580 2.513 . S
O598 C596 1.246 . S
C599 O583 1.245 . S
C599 O584 1.259 1_554 S
Tb600 O603 2.453 . S
Tb600 O604 2.596 . S
Tb600 O605 2.374 . S
Tb600 O613 2.343 1_556 S
Tb600 O615 2.353 . S
Tb600 O617 2.427 1_556 S
Tb600 O618 2.513 1_556 S
C601 O605 1.251 . S
C601 O607 1.263 . S
Tb602 O604 2.343 1_554 S
Tb602 O607 2.353 1_554 S
Tb602 O610 2.427 1_554 S
Tb602 O611 2.513 1_554 S
Tb602 O612 2.453 . S
Tb602 O613 2.596 . S
Tb602 O614 2.374 . S
O603 Tb600 2.453 . S
O603 C619 1.245 . S
O604 Tb600 2.596 . S
O604 Tb602 2.343 1_556 S
O604 C619 1.259 . S
O605 Tb600 2.374 . S
O605 C601 1.251 . S
C606 O610 1.275 . S
C606 O611 1.246 . S
O607 C601 1.263 . S
O607 Tb602 2.353 1_556 S
C608 O612 1.245 . S
C608 O613 1.259 . S
C609 O614 1.250 . S
C609 O615 1.263 1_554 S
O610 Tb602 2.427 1_556 S
O610 C606 1.275 . S
O611 Tb602 2.513 1_556 S
O611 C606 1.246 . S
O612 Tb602 2.453 . S
O612 C608 1.245 . S
O613 Tb600 2.343 1_554 S
O613 Tb602 2.596 . S
O613 C608 1.259 . S
O614 Tb602 2.374 . S
O614 C609 1.250 . S
O615 Tb600 2.353 . S
O615 C609 1.263 1_556 S
C616 O617 1.275 . S
C616 O618 1.246 . S
O617 Tb600 2.427 1_554 S
O617 C616 1.275 . S
O618 Tb600 2.513 1_554 S
O618 C616 1.246 . S
C619 O603 1.245 . S
C619 O604 1.259 . S
Tb620 O623 2.453 . S
Tb620 O624 2.596 . S
Tb620 O625 2.374 . S
Tb620 O633 2.343 1_556 S
Tb620 O635 2.353 . S
Tb620 O637 2.427 1_556 S
Tb620 O638 2.513 1_556 S
C621 O625 1.251 . S
C621 O627 1.263 . S
Tb622 O624 2.343 1_554 S
Tb622 O627 2.353 1_554 S
Tb622 O630 2.427 1_554 S
Tb622 O631 2.513 1_554 S
Tb622 O632 2.453 . S
Tb622 O633 2.596 . S
Tb622 O634 2.374 . S
O623 Tb620 2.453 . S
O623 C639 1.245 . S
O624 Tb620 2.596 . S
O624 Tb622 2.343 1_556 S
O624 C639 1.259 . S
O625 Tb620 2.374 . S
O625 C621 1.251 . S
C626 O630 1.275 . S
C626 O631 1.246 . S
O627 C621 1.263 . S
O627 Tb622 2.353 1_556 S
C628 O632 1.245 . S
C628 O633 1.259 . S
C629 O634 1.250 . S
C629 O635 1.263 1_554 S
O630 Tb622 2.427 1_556 S
O630 C626 1.275 . S
O631 Tb622 2.513 1_556 S
O631 C626 1.246 . S
O632 Tb622 2.453 . S
O632 C628 1.245 . S
O633 Tb620 2.343 1_554 S
O633 Tb622 2.596 . S
O633 C628 1.259 . S
O634 Tb622 2.374 . S
O634 C629 1.250 . S
O635 Tb620 2.353 . S
O635 C629 1.263 1_556 S
C636 O637 1.275 . S
C636 O638 1.246 . S
O637 Tb620 2.427 1_554 S
O637 C636 1.275 . S
O638 Tb620 2.513 1_554 S
O638 C636 1.246 . S
C639 O623 1.245 . S
C639 O624 1.259 . S
C640 C641 1.387 1_554 S
C640 H644 0.950 . S
C640 C649 1.390 . S
C641 C640 1.387 1_556 S
C641 C643 1.387 . S
H642 C649 0.950 . S
C643 C641 1.387 . S
C643 C645 1.390 . S
C643 H647 0.950 . S
H644 C640 0.950 . S
C645 C643 1.390 . S
C645 C646 1.387 1_556 S
C645 H648 0.950 . S
C646 C645 1.387 1_554 S
C646 C649 1.387 . S
H647 C643 0.950 . S
H648 C645 0.950 . S
C649 C640 1.390 . S
C649 H642 0.950 . S
C649 C646 1.387 . S
C650 C651 1.387 1_565 S
C650 H654 0.950 . S
C650 C659 1.390 1_456 S
C651 C650 1.387 1_545 S
C651 C653 1.387 . S
H652 C659 0.950 . S
C653 C651 1.387 . S
C653 C655 1.390 1_456 S
C653 H657 0.950 . S
H654 C650 0.950 . S
C655 C653 1.390 1_654 S
C655 C656 1.387 1_545 S
C655 H658 0.950 . S
C656 C655 1.387 1_565 S
C656 C659 1.387 . S
H657 C653 0.950 . S
H658 C655 0.950 . S
C659 C650 1.390 1_654 S
C659 H652 0.950 . S
C659 C656 1.387 . S
C660 C661 1.387 . S
C660 H664 0.950 . S
C660 C669 1.390 . S
C661 C660 1.387 . S
C661 C663 1.387 1_545 S
H662 C669 0.950 . S
C663 C661 1.387 1_565 S
C663 C665 1.390 . S
C663 H667 0.950 . S
H664 C660 0.950 . S
C665 C663 1.390 . S
C665 C666 1.387 . S
C665 H668 0.950 . S
C666 C665 1.387 . S
C666 C669 1.387 1_565 S
H667 C663 0.950 . S
H668 C665 0.950 . S
C669 C660 1.390 . S
C669 H662 0.950 . S
C669 C666 1.387 1_545 S
C670 C671 1.387 . S
C670 H674 0.950 . S
C670 C679 1.390 1_455 S
C671 C670 1.387 . S
C671 C673 1.387 . S
H672 C679 0.950 . S
C673 C671 1.387 . S
C673 C675 1.390 1_455 S
C673 H677 0.950 . S
H674 C670 0.950 . S
C675 C673 1.390 1_655 S
C675 C676 1.387 . S
C675 H678 0.950 . S
C676 C675 1.387 . S
C676 C679 1.387 . S
H677 C673 0.950 . S
H678 C675 0.950 . S
C679 C670 1.390 1_655 S
C679 H672 0.950 . S
C679 C676 1.387 . S
C680 C681 1.387 1_554 S
C680 H684 0.950 . S
C680 C689 1.390 . S
C681 C680 1.387 1_556 S
C681 C683 1.387 . S
H682 C689 0.950 . S
C683 C681 1.387 . S
C683 C685 1.390 . S
C683 H687 0.950 . S
H684 C680 0.950 . S
C685 C683 1.390 . S
C685 C686 1.387 1_556 S
C685 H688 0.950 . S
C686 C685 1.387 1_554 S
C686 C689 1.387 . S
H687 C683 0.950 . S
H688 C685 0.950 . S
C689 C680 1.390 . S
C689 H682 0.950 . S
C689 C686 1.387 . S
C690 C691 1.387 . S
C690 H694 0.950 . S
C690 C699 1.390 . S
C691 C690 1.387 . S
C691 C693 1.387 1_565 S
H692 C699 0.950 . S
C693 C691 1.387 1_545 S
C693 C695 1.390 . S
C693 H697 0.950 . S
H694 C690 0.950 . S
C695 C693 1.390 . S
C695 C696 1.387 . S
C695 H698 0.950 . S
C696 C695 1.387 . S
C696 C699 1.387 1_545 S
H697 C693 0.950 . S
H698 C695 0.950 . S
C699 C690 1.390 . S
C699 H692 0.950 . S
C699 C696 1.387 1_565 S
C700 C701 1.387 . S
C700 H704 0.950 . S
C700 C709 1.390 1_655 S
C701 C700 1.387 . S
C701 C703 1.387 . S
H702 C709 0.950 . S
C703 C701 1.387 . S
C703 C705 1.390 1_655 S
C703 H707 0.950 . S
H704 C700 0.950 . S
C705 C703 1.390 1_455 S
C705 C706 1.387 . S
C705 H708 0.950 . S
C706 C705 1.387 . S
C706 C709 1.387 . S
H707 C703 0.950 . S
H708 C705 0.950 . S
C709 C700 1.390 1_455 S
C709 H702 0.950 . S
C709 C706 1.387 . S
C710 C711 1.387 . S
C710 H714 0.950 . S
C710 C719 1.390 . S
C711 C710 1.387 . S
C711 C713 1.387 . S
H712 C719 0.950 . S
C713 C711 1.387 . S
C713 C715 1.390 . S
C713 H717 0.950 . S
H714 C710 0.950 . S
C715 C713 1.390 . S
C715 C716 1.387 . S
C715 H718 0.950 . S
C716 C715 1.387 . S
C716 C719 1.387 . S
H717 C713 0.950 . S
H718 C715 0.950 . S
C719 C710 1.390 . S
C719 H712 0.950 . S
C719 C716 1.387 . S
C720 C721 1.387 . S
C720 H724 0.950 . S
C720 C729 1.390 1_655 S
C721 C720 1.387 . S
C721 C723 1.387 . S
H722 C729 0.950 . S
C723 C721 1.387 . S
C723 C725 1.390 1_655 S
C723 H727 0.950 . S
H724 C720 0.950 . S
C725 C723 1.390 1_455 S
C725 C726 1.387 . S
C725 H728 0.950 . S
C726 C725 1.387 . S
C726 C729 1.387 . S
H727 C723 0.950 . S
H728 C725 0.950 . S
C729 C720 1.390 1_455 S
C729 H722 0.950 . S
C729 C726 1.387 . S
C730 C731 1.387 . S
C730 H734 0.950 . S
C730 C739 1.390 . S
C731 C730 1.387 . S
C731 C733 1.387 . S
H732 C739 0.950 . S
C733 C731 1.387 . S
C733 C735 1.390 . S
C733 H737 0.950 . S
H734 C730 0.950 . S
C735 C733 1.390 . S
C735 C736 1.387 . S
C735 H738 0.950 . S
C736 C735 1.387 . S
C736 C739 1.387 . S
H737 C733 0.950 . S
H738 C735 0.950 . S
C739 C730 1.390 . S
C739 H732 0.950 . S
C739 C736 1.387 . S
C740 C741 1.387 . S
C740 H744 0.950 . S
C740 C749 1.390 . S
C741 C740 1.387 . S
C741 C743 1.387 . S
H742 C749 0.950 . S
C743 C741 1.387 . S
C743 C745 1.390 . S
C743 H747 0.950 . S
H744 C740 0.950 . S
C745 C743 1.390 . S
C745 C746 1.387 . S
C745 H748 0.950 . S
C746 C745 1.387 . S
C746 C749 1.387 . S
H747 C743 0.950 . S
H748 C745 0.950 . S
C749 C740 1.390 . S
C749 H742 0.950 . S
C749 C746 1.387 . S
C750 C751 1.387 . S
C750 H754 0.950 . S
C750 C759 1.390 . S
C751 C750 1.387 . S
C751 C753 1.387 . S
H752 C759 0.950 . S
C753 C751 1.387 . S
C753 C755 1.390 . S
C753 H757 0.950 . S
H754 C750 0.950 . S
C755 C753 1.390 . S
C755 C756 1.387 . S
C755 H758 0.950 . S
C756 C755 1.387 . S
C756 C759 1.387 . S
H757 C753 0.950 . S
H758 C755 0.950 . S
C759 C750 1.390 . S
C759 H752 0.950 . S
C759 C756 1.387 . S
C760 C761 1.387 1_545 S
C760 H764 0.950 . S
C760 C769 1.390 . S
C761 C760 1.387 1_565 S
C761 C763 1.387 . S
H762 C769 0.950 . S
C763 C761 1.387 . S
C763 C765 1.390 . S
C763 H767 0.950 . S
H764 C760 0.950 . S
C765 C763 1.390 . S
C765 C766 1.387 1_565 S
C765 H768 0.950 . S
C766 C765 1.387 1_545 S
C766 C769 1.387 . S
H767 C763 0.950 . S
H768 C765 0.950 . S
C769 C760 1.390 . S
C769 H762 0.950 . S
C769 C766 1.387 . S
C770 C771 1.387 . S
C770 H774 0.950 . S
C770 C779 1.390 . S
C771 C770 1.387 . S
C771 C773 1.387 . S
H772 C779 0.950 . S
C773 C771 1.387 . S
C773 C775 1.390 . S
C773 H777 0.950 . S
H774 C770 0.950 . S
C775 C773 1.390 . S
C775 C776 1.387 . S
C775 H778 0.950 . S
C776 C775 1.387 . S
C776 C779 1.387 . S
H777 C773 0.950 . S
H778 C775 0.950 . S
C779 C770 1.390 . S
C779 H772 0.950 . S
C779 C776 1.387 . S
C780 C781 1.387 . S
C780 H784 0.950 . S
C780 C789 1.390 . S
C781 C780 1.387 . S
C781 C783 1.387 . S
H782 C789 0.950 . S
C783 C781 1.387 . S
C783 C785 1.390 . S
C783 H787 0.950 . S
H784 C780 0.950 . S
C785 C783 1.390 . S
C785 C786 1.387 . S
C785 H788 0.950 . S
C786 C785 1.387 . S
C786 C789 1.387 . S
H787 C783 0.950 . S
H788 C785 0.950 . S
C789 C780 1.390 . S
C789 H782 0.950 . S
C789 C786 1.387 . S
C790 C791 1.387 . S
C790 H794 0.950 . S
C790 C799 1.390 . S
C791 C790 1.387 . S
C791 C793 1.387 1_556 S
H792 C799 0.950 . S
C793 C791 1.387 1_554 S
C793 C795 1.390 . S
C793 H797 0.950 . S
H794 C790 0.950 . S
C795 C793 1.390 . S
C795 C796 1.387 . S
C795 H798 0.950 . S
C796 C795 1.387 . S
C796 C799 1.387 1_554 S
H797 C793 0.950 . S
H798 C795 0.950 . S
C799 C790 1.390 . S
C799 H792 0.950 . S
C799 C796 1.387 1_556 S
C800 C801 1.387 . S
C800 H804 0.950 . S
C800 C809 1.390 . S
C801 C800 1.387 . S
C801 C803 1.387 . S
H802 C809 0.950 . S
C803 C801 1.387 . S
C803 C805 1.390 . S
C803 H807 0.950 . S
H804 C800 0.950 . S
C805 C803 1.390 . S
C805 C806 1.387 . S
C805 H808 0.950 . S
C806 C805 1.387 . S
C806 C809 1.387 . S
H807 C803 0.950 . S
H808 C805 0.950 . S
C809 C800 1.390 . S
C809 H802 0.950 . S
C809 C806 1.387 . S
C810 C811 1.387 1_545 S
C810 H814 0.950 . S
C810 C819 1.390 . S
C811 C810 1.387 1_565 S
C811 C813 1.387 . S
H812 C819 0.950 . S
C813 C811 1.387 . S
C813 C815 1.390 . S
C813 H817 0.950 . S
H814 C810 0.950 . S
C815 C813 1.390 . S
C815 C816 1.387 . S
C815 H818 0.950 . S
C816 C815 1.387 . S
C816 C819 1.387 1_565 S
H817 C813 0.950 . S
H818 C815 0.950 . S
C819 C810 1.390 . S
C819 H812 0.950 . S
C819 C816 1.387 1_545 S
C820 C821 1.387 . S
C820 H824 0.950 . S
C820 C829 1.390 . S
C821 C820 1.387 . S
C821 C823 1.387 1_565 S
H822 C829 0.950 . S
C823 C821 1.387 1_545 S
C823 C825 1.390 . S
C823 H827 0.950 . S
H824 C820 0.950 . S
C825 C823 1.390 . S
C825 C826 1.387 1_545 S
C825 H828 0.950 . S
C826 C825 1.387 1_565 S
C826 C829 1.387 . S
H827 C823 0.950 . S
H828 C825 0.950 . S
C829 C820 1.390 . S
C829 H822 0.950 . S
C829 C826 1.387 . S
C830 C831 1.387 . S
C830 H834 0.950 . S
C830 C839 1.390 . S
C831 C830 1.387 . S
C831 C833 1.387 . S
H832 C839 0.950 . S
C833 C831 1.387 . S
C833 C835 1.390 . S
C833 H837 0.950 . S
H834 C830 0.950 . S
C835 C833 1.390 . S
C835 C836 1.387 . S
C835 H838 0.950 . S
C836 C835 1.387 . S
C836 C839 1.387 . S
H837 C833 0.950 . S
H838 C835 0.950 . S
C839 C830 1.390 . S
C839 H832 0.950 . S
C839 C836 1.387 . S
C840 C841 1.387 . S
C840 H844 0.950 . S
C840 C849 1.390 . S
C841 C840 1.387 . S
C841 C843 1.387 . S
H842 C849 0.950 . S
C843 C841 1.387 . S
C843 C845 1.390 . S
C843 H847 0.950 . S
H844 C840 0.950 . S
C845 C843 1.390 . S
C845 C846 1.387 . S
C845 H848 0.950 . S
C846 C845 1.387 . S
C846 C849 1.387 . S
H847 C843 0.950 . S
H848 C845 0.950 . S
C849 C840 1.390 . S
C849 H842 0.950 . S
C849 C846 1.387 . S
C850 C851 1.387 1_565 S
C850 H854 0.950 . S
C850 C859 1.390 . S
C851 C850 1.387 1_545 S
C851 C853 1.387 . S
H852 C859 0.950 . S
C853 C851 1.387 . S
C853 C855 1.390 . S
C853 H857 0.950 . S
H854 C850 0.950 . S
C855 C853 1.390 . S
C855 C856 1.387 . S
C855 H858 0.950 . S
C856 C855 1.387 . S
C856 C859 1.387 1_545 S
H857 C853 0.950 . S
H858 C855 0.950 . S
C859 C850 1.390 . S
C859 H852 0.950 . S
C859 C856 1.387 1_565 S
C860 C861 1.387 1_565 S
C860 H864 0.950 . S
C860 C869 1.390 . S
C861 C860 1.387 1_545 S
C861 C863 1.387 . S
H862 C869 0.950 . S
C863 C861 1.387 . S
C863 C865 1.390 . S
C863 H867 0.950 . S
H864 C860 0.950 . S
C865 C863 1.390 . S
C865 C866 1.387 . S
C865 H868 0.950 . S
C866 C865 1.387 . S
C866 C869 1.387 1_545 S
H867 C863 0.950 . S
H868 C865 0.950 . S
C869 C860 1.390 . S
C869 H862 0.950 . S
C869 C866 1.387 1_565 S
C870 C871 1.387 . S
C870 H874 0.950 . S
C870 C879 1.390 . S
C871 C870 1.387 . S
C871 C873 1.387 . S
H872 C879 0.950 . S
C873 C871 1.387 . S
C873 C875 1.390 . S
C873 H877 0.950 . S
H874 C870 0.950 . S
C875 C873 1.390 . S
C875 C876 1.387 . S
C875 H878 0.950 . S
C876 C875 1.387 . S
C876 C879 1.387 . S
H877 C873 0.950 . S
H878 C875 0.950 . S
C879 C870 1.390 . S
C879 H872 0.950 . S
C879 C876 1.387 . S
C880 C881 1.387 . S
C880 H884 0.950 . S
C880 C889 1.390 . S
C881 C880 1.387 . S
C881 C883 1.387 . S
H882 C889 0.950 . S
C883 C881 1.387 . S
C883 C885 1.390 . S
C883 H887 0.950 . S
H884 C880 0.950 . S
C885 C883 1.390 . S
C885 C886 1.387 . S
C885 H888 0.950 . S
C886 C885 1.387 . S
C886 C889 1.387 . S
H887 C883 0.950 . S
H888 C885 0.950 . S
C889 C880 1.390 . S
C889 H882 0.950 . S
C889 C886 1.387 . S
C890 C891 1.387 . S
C890 H894 0.950 . S
C890 C899 1.390 . S
C891 C890 1.387 . S
C891 C893 1.387 . S
H892 C899 0.950 . S
C893 C891 1.387 . S
C893 C895 1.390 . S
C893 H897 0.950 . S
H894 C890 0.950 . S
C895 C893 1.390 . S
C895 C896 1.387 . S
C895 H898 0.950 . S
C896 C895 1.387 . S
C896 C899 1.387 . S
H897 C893 0.950 . S
H898 C895 0.950 . S
C899 C890 1.390 . S
C899 H892 0.950 . S
C899 C896 1.387 . S
C900 C901 1.387 . S
C900 H904 0.950 . S
C900 C909 1.390 . S
C901 C900 1.387 . S
C901 C903 1.387 . S
H902 C909 0.950 . S
C903 C901 1.387 . S
C903 C905 1.390 . S
C903 H907 0.950 . S
H904 C900 0.950 . S
C905 C903 1.390 . S
C905 C906 1.387 . S
C905 H908 0.950 . S
C906 C905 1.387 . S
C906 C909 1.387 . S
H907 C903 0.950 . S
H908 C905 0.950 . S
C909 C900 1.390 . S
C909 H902 0.950 . S
C909 C906 1.387 . S
C910 C911 1.387 . S
C910 H914 0.950 . S
C910 C919 1.390 . S
C911 C910 1.387 . S
C911 C913 1.387 . S
H912 C919 0.950 . S
C913 C911 1.387 . S
C913 C915 1.390 . S
C913 H917 0.950 . S
H914 C910 0.950 . S
C915 C913 1.390 . S
C915 C916 1.387 . S
C915 H918 0.950 . S
C916 C915 1.387 . S
C916 C919 1.387 . S
H917 C913 0.950 . S
H918 C915 0.950 . S
C919 C910 1.390 . S
C919 H912 0.950 . S
C919 C916 1.387 . S
C920 C921 1.387 . S
C920 H924 0.950 . S
C920 C929 1.390 . S
C921 C920 1.387 . S
C921 C923 1.387 . S
H922 C929 0.950 . S
C923 C921 1.387 . S
C923 C925 1.390 . S
C923 H927 0.950 . S
H924 C920 0.950 . S
C925 C923 1.390 . S
C925 C926 1.387 . S
C925 H928 0.950 . S
C926 C925 1.387 . S
C926 C929 1.387 . S
H927 C923 0.950 . S
H928 C925 0.950 . S
C929 C920 1.390 . S
C929 H922 0.950 . S
C929 C926 1.387 . S
C930 C931 1.387 . S
C930 H934 0.950 . S
C930 C939 1.390 . S
C931 C930 1.387 . S
C931 C933 1.387 . S
H932 C939 0.950 . S
C933 C931 1.387 . S
C933 C935 1.390 . S
C933 H937 0.950 . S
H934 C930 0.950 . S
C935 C933 1.390 . S
C935 C936 1.387 . S
C935 H938 0.950 . S
C936 C935 1.387 . S
C936 C939 1.387 . S
H937 C933 0.950 . S
H938 C935 0.950 . S
C939 C930 1.390 . S
C939 H932 0.950 . S
C939 C936 1.387 . S
C940 C941 1.387 . S
C940 H944 0.950 . S
C940 C949 1.390 . S
C941 C940 1.387 . S
C941 C943 1.387 . S
H942 C949 0.950 . S
C943 C941 1.387 . S
C943 C945 1.390 . S
C943 H947 0.950 . S
H944 C940 0.950 . S
C945 C943 1.390 . S
C945 C946 1.387 . S
C945 H948 0.950 . S
C946 C945 1.387 . S
C946 C949 1.387 . S
H947 C943 0.950 . S
H948 C945 0.950 . S
C949 C940 1.390 . S
C949 H942 0.950 . S
C949 C946 1.387 . S
C950 C951 1.387 . S
C950 H954 0.950 . S
C950 C959 1.390 . S
C951 C950 1.387 . S
C951 C953 1.387 . S
H952 C959 0.950 . S
C953 C951 1.387 . S
C953 C955 1.390 . S
C953 H957 0.950 . S
H954 C950 0.950 . S
C955 C953 1.390 . S
C955 C956 1.387 . S
C955 H958 0.950 . S
C956 C955 1.387 . S
C956 C959 1.387 . S
H957 C953 0.950 . S
H958 C955 0.950 . S
C959 C950 1.390 . S
C959 H952 0.950 . S
C959 C956 1.387 . S
C960 C961 1.387 . S
C960 H964 0.950 . S
C960 C969 1.390 . S
C961 C960 1.387 . S
C961 C963 1.387 . S
H962 C969 0.950 . S
C963 C961 1.387 . S
C963 C965 1.390 . S
C963 H967 0.950 . S
H964 C960 0.950 . S
C965 C963 1.390 . S
C965 C966 1.387 . S
C965 H968 0.950 . S
C966 C965 1.387 . S
C966 C969 1.387 . S
H967 C963 0.950 . S
H968 C965 0.950 . S
C969 C960 1.390 . S
C969 H962 0.950 . S
C969 C966 1.387 . S
C970 C971 1.387 1_545 S
C970 H974 0.950 . S
C970 C979 1.390 . S
C971 C970 1.387 1_565 S
C971 C973 1.387 . S
H972 C979 0.950 . S
C973 C971 1.387 . S
C973 C975 1.390 . S
C973 H977 0.950 . S
H974 C970 0.950 . S
C975 C973 1.390 . S
C975 C976 1.387 . S
C975 H978 0.950 . S
C976 C975 1.387 . S
C976 C979 1.387 1_565 S
H977 C973 0.950 . S
H978 C975 0.950 . S
C979 C970 1.390 . S
C979 H972 0.950 . S
C979 C976 1.387 1_545 S
C980 C981 1.387 1_545 S
C980 H984 0.950 . S
C980 C989 1.390 . S
C981 C980 1.387 1_565 S
C981 C983 1.387 . S
H982 C989 0.950 . S
C983 C981 1.387 . S
C983 C985 1.390 . S
C983 H987 0.950 . S
H984 C980 0.950 . S
C985 C983 1.390 . S
C985 C986 1.387 . S
C985 H988 0.950 . S
C986 C985 1.387 . S
C986 C989 1.387 1_565 S
H987 C983 0.950 . S
H988 C985 0.950 . S
C989 C980 1.390 . S
C989 H982 0.950 . S
C989 C986 1.387 1_545 S
C990 C991 1.387 . S
C990 H994 0.950 . S
C990 C999 1.390 . S
C991 C990 1.387 . S
C991 C993 1.387 . S
H992 C999 0.950 . S
C993 C991 1.387 . S
C993 C995 1.390 . S
C993 H997 0.950 . S
H994 C990 0.950 . S
C995 C993 1.390 . S
C995 C996 1.387 . S
C995 H998 0.950 . S
C996 C995 1.387 . S
C996 C999 1.387 . S
H997 C993 0.950 . S
H998 C995 0.950 . S
C999 C990 1.390 . S
C999 H992 0.950 . S
C999 C996 1.387 . S
C1000 C1001 1.387 . S
C1000 H1004 0.950 . S
C1000 C1009 1.390 . S
C1001 C1000 1.387 . S
C1001 C1003 1.387 . S
H1002 C1009 0.950 . S
C1003 C1001 1.387 . S
C1003 C1005 1.390 . S
C1003 H1007 0.950 . S
H1004 C1000 0.950 . S
C1005 C1003 1.390 . S
C1005 C1006 1.387 . S
C1005 H1008 0.950 . S
C1006 C1005 1.387 . S
C1006 C1009 1.387 . S
H1007 C1003 0.950 . S
H1008 C1005 0.950 . S
C1009 C1000 1.390 . S
C1009 H1002 0.950 . S
C1009 C1006 1.387 . S
C1010 C1011 1.387 . S
C1010 H1014 0.950 . S
C1010 C1019 1.390 . S
C1011 C1010 1.387 . S
C1011 C1013 1.387 1_545 S
H1012 C1019 0.950 . S
C1013 C1011 1.387 1_565 S
C1013 C1015 1.390 . S
C1013 H1017 0.950 . S
H1014 C1010 0.950 . S
C1015 C1013 1.390 . S
C1015 C1016 1.387 1_565 S
C1015 H1018 0.950 . S
C1016 C1015 1.387 1_545 S
C1016 C1019 1.387 . S
H1017 C1013 0.950 . S
H1018 C1015 0.950 . S
C1019 C1010 1.390 . S
C1019 H1012 0.950 . S
C1019 C1016 1.387 . S
C1020 C1021 1.387 1_565 S
C1020 H1024 0.950 . S
C1020 C1029 1.390 . S
C1021 C1020 1.387 1_545 S
C1021 C1023 1.387 . S
H1022 C1029 0.950 . S
C1023 C1021 1.387 . S
C1023 C1025 1.390 . S
C1023 H1027 0.950 . S
H1024 C1020 0.950 . S
C1025 C1023 1.390 . S
C1025 C1026 1.387 . S
C1025 H1028 0.950 . S
C1026 C1025 1.387 . S
C1026 C1029 1.387 1_545 S
H1027 C1023 0.950 . S
H1028 C1025 0.950 . S
C1029 C1020 1.390 . S
C1029 H1022 0.950 . S
C1029 C1026 1.387 1_565 S
C1030 C1031 1.387 . S
C1030 H1034 0.950 . S
C1030 C1039 1.390 . S
C1031 C1030 1.387 . S
C1031 C1033 1.387 . S
H1032 C1039 0.950 . S
C1033 C1031 1.387 . S
C1033 C1035 1.390 . S
C1033 H1037 0.950 . S
H1034 C1030 0.950 . S
C1035 C1033 1.390 . S
C1035 C1036 1.387 . S
C1035 H1038 0.950 . S
C1036 C1035 1.387 . S
C1036 C1039 1.387 . S
H1037 C1033 0.950 . S
H1038 C1035 0.950 . S
C1039 C1030 1.390 . S
C1039 H1032 0.950 . S
C1039 C1036 1.387 . S
C1040 C1041 1.387 . S
C1040 H1044 0.950 . S
C1040 C1049 1.390 . S
C1041 C1040 1.387 . S
C1041 C1043 1.387 . S
H1042 C1049 0.950 . S
C1043 C1041 1.387 . S
C1043 C1045 1.390 . S
C1043 H1047 0.950 . S
H1044 C1040 0.950 . S
C1045 C1043 1.390 . S
C1045 C1046 1.387 . S
C1045 H1048 0.950 . S
C1046 C1045 1.387 . S
C1046 C1049 1.387 . S
H1047 C1043 0.950 . S
H1048 C1045 0.950 . S
C1049 C1040 1.390 . S
C1049 H1042 0.950 . S
C1049 C1046 1.387 . S
C1050 C1051 1.387 . S
C1050 H1054 0.950 . S
C1050 C1059 1.390 . S
C1051 C1050 1.387 . S
C1051 C1053 1.387 . S
H1052 C1059 0.950 . S
C1053 C1051 1.387 . S
C1053 C1055 1.390 . S
C1053 H1057 0.950 . S
H1054 C1050 0.950 . S
C1055 C1053 1.390 . S
C1055 C1056 1.387 . S
C1055 H1058 0.950 . S
C1056 C1055 1.387 . S
C1056 C1059 1.387 . S
H1057 C1053 0.950 . S
H1058 C1055 0.950 . S
C1059 C1050 1.390 . S
C1059 H1052 0.950 . S
C1059 C1056 1.387 . S
C1060 C1061 1.387 . S
C1060 H1064 0.950 . S
C1060 C1069 1.390 1_556 S
C1061 C1060 1.387 . S
C1061 C1063 1.387 . S
H1062 C1069 0.950 . S
C1063 C1061 1.387 . S
C1063 C1065 1.390 1_556 S
C1063 H1067 0.950 . S
H1064 C1060 0.950 . S
C1065 C1063 1.390 1_554 S
C1065 C1066 1.387 . S
C1065 H1068 0.950 . S
C1066 C1065 1.387 . S
C1066 C1069 1.387 . S
H1067 C1063 0.950 . S
H1068 C1065 0.950 . S
C1069 C1060 1.390 1_554 S
C1069 H1062 0.950 . S
C1069 C1066 1.387 . S
C1070 C1071 1.387 . S
C1070 H1074 0.950 . S
C1070 C1079 1.390 1_556 S
C1071 C1070 1.387 . S
C1071 C1073 1.387 . S
H1072 C1079 0.950 . S
C1073 C1071 1.387 . S
C1073 C1075 1.390 1_556 S
C1073 H1077 0.950 . S
H1074 C1070 0.950 . S
C1075 C1073 1.390 1_554 S
C1075 C1076 1.387 . S
C1075 H1078 0.950 . S
C1076 C1075 1.387 . S
C1076 C1079 1.387 . S
H1077 C1073 0.950 . S
H1078 C1075 0.950 . S
C1079 C1070 1.390 1_554 S
C1079 H1072 0.950 . S
C1079 C1076 1.387 . S
C1080 C1081 1.387 . S
C1080 H1084 0.950 . S
C1080 C1089 1.390 . S
C1081 C1080 1.387 . S
C1081 C1083 1.387 . S
H1082 C1089 0.950 . S
C1083 C1081 1.387 . S
C1083 C1085 1.390 . S
C1083 H1087 0.950 . S
H1084 C1080 0.950 . S
C1085 C1083 1.390 . S
C1085 C1086 1.387 . S
C1085 H1088 0.950 . S
C1086 C1085 1.387 . S
C1086 C1089 1.387 . S
H1087 C1083 0.950 . S
H1088 C1085 0.950 . S
C1089 C1080 1.390 . S
C1089 H1082 0.950 . S
C1089 C1086 1.387 . S
C1090 C1091 1.387 . S
C1090 H1094 0.950 . S
C1090 C1099 1.390 . S
C1091 C1090 1.387 . S
C1091 C1093 1.387 . S
H1092 C1099 0.950 . S
C1093 C1091 1.387 . S
C1093 C1095 1.390 . S
C1093 H1097 0.950 . S
H1094 C1090 0.950 . S
C1095 C1093 1.390 . S
C1095 C1096 1.387 . S
C1095 H1098 0.950 . S
C1096 C1095 1.387 . S
C1096 C1099 1.387 . S
H1097 C1093 0.950 . S
H1098 C1095 0.950 . S
C1099 C1090 1.390 . S
C1099 H1092 0.950 . S
C1099 C1096 1.387 . S
C1100 C1101 1.387 . S
C1100 H1104 0.950 . S
C1100 C1109 1.390 1_554 S
C1101 C1100 1.387 . S
C1101 C1103 1.387 . S
H1102 C1109 0.950 . S
C1103 C1101 1.387 . S
C1103 C1105 1.390 1_554 S
C1103 H1107 0.950 . S
H1104 C1100 0.950 . S
C1105 C1103 1.390 1_556 S
C1105 C1106 1.387 . S
C1105 H1108 0.950 . S
C1106 C1105 1.387 . S
C1106 C1109 1.387 . S
H1107 C1103 0.950 . S
H1108 C1105 0.950 . S
C1109 C1100 1.390 1_556 S
C1109 H1102 0.950 . S
C1109 C1106 1.387 . S
C1110 C1111 1.387 . S
C1110 H1114 0.950 . S
C1110 C1119 1.390 1_556 S
C1111 C1110 1.387 . S
C1111 C1113 1.387 . S
H1112 C1119 0.950 . S
C1113 C1111 1.387 . S
C1113 C1115 1.390 1_556 S
C1113 H1117 0.950 . S
H1114 C1110 0.950 . S
C1115 C1113 1.390 1_554 S
C1115 C1116 1.387 . S
C1115 H1118 0.950 . S
C1116 C1115 1.387 . S
C1116 C1119 1.387 . S
H1117 C1113 0.950 . S
H1118 C1115 0.950 . S
C1119 C1110 1.390 1_554 S
C1119 H1112 0.950 . S
C1119 C1116 1.387 . S
C1120 C1121 1.387 . S
C1120 H1124 0.950 . S
C1120 C1129 1.390 . S
C1121 C1120 1.387 . S
C1121 C1123 1.387 . S
H1122 C1129 0.950 . S
C1123 C1121 1.387 . S
C1123 C1125 1.390 . S
C1123 H1127 0.950 . S
H1124 C1120 0.950 . S
C1125 C1123 1.390 . S
C1125 C1126 1.387 . S
C1125 H1128 0.950 . S
C1126 C1125 1.387 . S
C1126 C1129 1.387 . S
H1127 C1123 0.950 . S
H1128 C1125 0.950 . S
C1129 C1120 1.390 . S
C1129 H1122 0.950 . S
C1129 C1126 1.387 . S
C1130 C1131 1.387 . S
C1130 H1134 0.950 . S
C1130 C1139 1.390 . S
C1131 C1130 1.387 . S
C1131 C1133 1.387 1_565 S
H1132 C1139 0.950 . S
C1133 C1131 1.387 1_545 S
C1133 C1135 1.390 . S
C1133 H1137 0.950 . S
H1134 C1130 0.950 . S
C1135 C1133 1.390 . S
C1135 C1136 1.387 1_545 S
C1135 H1138 0.950 . S
C1136 C1135 1.387 1_565 S
C1136 C1139 1.387 . S
H1137 C1133 0.950 . S
H1138 C1135 0.950 . S
C1139 C1130 1.390 . S
C1139 H1132 0.950 . S
C1139 C1136 1.387 . S
C1140 C1141 1.387 . S
C1140 H1144 0.950 . S
C1140 C1149 1.390 1_556 S
C1141 C1140 1.387 . S
C1141 C1143 1.387 1_565 S
H1142 C1149 0.950 . S
C1143 C1141 1.387 1_545 S
C1143 C1145 1.390 1_556 S
C1143 H1147 0.950 . S
H1144 C1140 0.950 . S
C1145 C1143 1.390 1_554 S
C1145 C1146 1.387 1_545 S
C1145 H1148 0.950 . S
C1146 C1145 1.387 1_565 S
C1146 C1149 1.387 . S
H1147 C1143 0.950 . S
H1148 C1145 0.950 . S
C1149 C1140 1.390 1_554 S
C1149 H1142 0.950 . S
C1149 C1146 1.387 . S
C1150 C1151 1.387 . S
C1150 H1154 0.950 . S
C1150 C1159 1.390 1_556 S
C1151 C1150 1.387 . S
C1151 C1153 1.387 . S
H1152 C1159 0.950 . S
C1153 C1151 1.387 . S
C1153 C1155 1.390 1_556 S
C1153 H1157 0.950 . S
H1154 C1150 0.950 . S
C1155 C1153 1.390 1_554 S
C1155 C1156 1.387 . S
C1155 H1158 0.950 . S
C1156 C1155 1.387 . S
C1156 C1159 1.387 . S
H1157 C1153 0.950 . S
H1158 C1155 0.950 . S
C1159 C1150 1.390 1_554 S
C1159 H1152 0.950 . S
C1159 C1156 1.387 . S
C1160 C1161 1.387 . S
C1160 H1164 0.950 . S
C1160 C1169 1.390 . S
C1161 C1160 1.387 . S
C1161 C1163 1.387 . S
H1162 C1169 0.950 . S
C1163 C1161 1.387 . S
C1163 C1165 1.390 . S
C1163 H1167 0.950 . S
H1164 C1160 0.950 . S
C1165 C1163 1.390 . S
C1165 C1166 1.387 . S
C1165 H1168 0.950 . S
C1166 C1165 1.387 . S
C1166 C1169 1.387 . S
H1167 C1163 0.950 . S
H1168 C1165 0.950 . S
C1169 C1160 1.390 . S
C1169 H1162 0.950 . S
C1169 C1166 1.387 . S
C1170 C1171 1.387 1_565 S
C1170 H1174 0.950 . S
C1170 C1179 1.390 . S
C1171 C1170 1.387 1_545 S
C1171 C1173 1.387 . S
H1172 C1179 0.950 . S
C1173 C1171 1.387 . S
C1173 C1175 1.390 . S
C1173 H1177 0.950 . S
H1174 C1170 0.950 . S
C1175 C1173 1.390 . S
C1175 C1176 1.387 . S
C1175 H1178 0.950 . S
C1176 C1175 1.387 . S
C1176 C1179 1.387 1_545 S
H1177 C1173 0.950 . S
H1178 C1175 0.950 . S
C1179 C1170 1.390 . S
C1179 H1172 0.950 . S
C1179 C1176 1.387 1_565 S
C1180 C1181 1.387 . S
C1180 H1184 0.950 . S
C1180 C1189 1.390 1_556 S
C1181 C1180 1.387 . S
C1181 C1183 1.387 1_545 S
H1182 C1189 0.950 . S
C1183 C1181 1.387 1_565 S
C1183 C1185 1.390 1_556 S
C1183 H1187 0.950 . S
H1184 C1180 0.950 . S
C1185 C1183 1.390 1_554 S
C1185 C1186 1.387 1_565 S
C1185 H1188 0.950 . S
C1186 C1185 1.387 1_545 S
C1186 C1189 1.387 . S
H1187 C1183 0.950 . S
H1188 C1185 0.950 . S
C1189 C1180 1.390 1_554 S
C1189 H1182 0.950 . S
C1189 C1186 1.387 . S
C1190 C1191 1.387 . S
C1190 H1194 0.950 . S
C1190 C1199 1.390 1_556 S
C1191 C1190 1.387 . S
C1191 C1193 1.387 . S
H1192 C1199 0.950 . S
C1193 C1191 1.387 . S
C1193 C1195 1.390 1_556 S
C1193 H1197 0.950 . S
H1194 C1190 0.950 . S
C1195 C1193 1.390 1_554 S
C1195 C1196 1.387 . S
C1195 H1198 0.950 . S
C1196 C1195 1.387 . S
C1196 C1199 1.387 . S
H1197 C1193 0.950 . S
H1198 C1195 0.950 . S
C1199 C1190 1.390 1_554 S
C1199 H1192 0.950 . S
C1199 C1196 1.387 . S
C1200 C1201 1.387 . S
C1200 H1204 0.950 . S
C1200 C1209 1.390 . S
C1201 C1200 1.387 . S
C1201 C1203 1.387 . S
H1202 C1209 0.950 . S
C1203 C1201 1.387 . S
C1203 C1205 1.390 . S
C1203 H1207 0.950 . S
H1204 C1200 0.950 . S
C1205 C1203 1.390 . S
C1205 C1206 1.387 . S
C1205 H1208 0.950 . S
C1206 C1205 1.387 . S
C1206 C1209 1.387 . S
H1207 C1203 0.950 . S
H1208 C1205 0.950 . S
C1209 C1200 1.390 . S
C1209 H1202 0.950 . S
C1209 C1206 1.387 . S
C1210 C1211 1.387 . S
C1210 H1214 0.950 . S
C1210 C1219 1.390 . S
C1211 C1210 1.387 . S
C1211 C1213 1.387 . S
H1212 C1219 0.950 . S
C1213 C1211 1.387 . S
C1213 C1215 1.390 . S
C1213 H1217 0.950 . S
H1214 C1210 0.950 . S
C1215 C1213 1.390 . S
C1215 C1216 1.387 . S
C1215 H1218 0.950 . S
C1216 C1215 1.387 . S
C1216 C1219 1.387 . S
H1217 C1213 0.950 . S
H1218 C1215 0.950 . S
C1219 C1210 1.390 . S
C1219 H1212 0.950 . S
C1219 C1216 1.387 . S
C1220 C1221 1.387 . S
C1220 H1224 0.950 . S
C1220 C1229 1.390 . S
C1221 C1220 1.387 . S
C1221 C1223 1.387 . S
H1222 C1229 0.950 . S
C1223 C1221 1.387 . S
C1223 C1225 1.390 . S
C1223 H1227 0.950 . S
H1224 C1220 0.950 . S
C1225 C1223 1.390 . S
C1225 C1226 1.387 . S
C1225 H1228 0.950 . S
C1226 C1225 1.387 . S
C1226 C1229 1.387 . S
H1227 C1223 0.950 . S
H1228 C1225 0.950 . S
C1229 C1220 1.390 . S
C1229 H1222 0.950 . S
C1229 C1226 1.387 . S
C1230 C1231 1.387 . S
C1230 H1234 0.950 . S
C1230 C1239 1.390 . S
C1231 C1230 1.387 . S
C1231 C1233 1.387 . S
H1232 C1239 0.950 . S
C1233 C1231 1.387 . S
C1233 C1235 1.390 . S
C1233 H1237 0.950 . S
H1234 C1230 0.950 . S
C1235 C1233 1.390 . S
C1235 C1236 1.387 . S
C1235 H1238 0.950 . S
C1236 C1235 1.387 . S
C1236 C1239 1.387 . S
H1237 C1233 0.950 . S
H1238 C1235 0.950 . S
C1239 C1230 1.390 . S
C1239 H1232 0.950 . S
C1239 C1236 1.387 . S
C1240 C1241 1.387 . S
C1240 H1244 0.950 . S
C1240 C1249 1.390 . S
C1241 C1240 1.387 . S
C1241 C1243 1.387 . S
H1242 C1249 0.950 . S
C1243 C1241 1.387 . S
C1243 C1245 1.390 . S
C1243 H1247 0.950 . S
H1244 C1240 0.950 . S
C1245 C1243 1.390 . S
C1245 C1246 1.387 . S
C1245 H1248 0.950 . S
C1246 C1245 1.387 . S
C1246 C1249 1.387 . S
H1247 C1243 0.950 . S
H1248 C1245 0.950 . S
C1249 C1240 1.390 . S
C1249 H1242 0.950 . S
C1249 C1246 1.387 . S
C1250 C1251 1.387 . S
C1250 H1254 0.950 . S
C1250 C1259 1.390 . S
C1251 C1250 1.387 . S
C1251 C1253 1.387 . S
H1252 C1259 0.950 . S
C1253 C1251 1.387 . S
C1253 C1255 1.390 . S
C1253 H1257 0.950 . S
H1254 C1250 0.950 . S
C1255 C1253 1.390 . S
C1255 C1256 1.387 . S
C1255 H1258 0.950 . S
C1256 C1255 1.387 . S
C1256 C1259 1.387 . S
H1257 C1253 0.950 . S
H1258 C1255 0.950 . S
C1259 C1250 1.390 . S
C1259 H1252 0.950 . S
C1259 C1256 1.387 . S
C1260 C1261 1.387 . S
C1260 H1264 0.950 . S
C1260 C1269 1.390 . S
C1261 C1260 1.387 . S
C1261 C1263 1.387 . S
H1262 C1269 0.950 . S
C1263 C1261 1.387 . S
C1263 C1265 1.390 . S
C1263 H1267 0.950 . S
H1264 C1260 0.950 . S
C1265 C1263 1.390 . S
C1265 C1266 1.387 . S
C1265 H1268 0.950 . S
C1266 C1265 1.387 . S
C1266 C1269 1.387 . S
H1267 C1263 0.950 . S
H1268 C1265 0.950 . S
C1269 C1260 1.390 . S
C1269 H1262 0.950 . S
C1269 C1266 1.387 . S
C1270 C1271 1.387 . S
C1270 H1274 0.950 . S
C1270 C1279 1.390 . S
C1271 C1270 1.387 . S
C1271 C1273 1.387 . S
H1272 C1279 0.950 . S
C1273 C1271 1.387 . S
C1273 C1275 1.390 . S
C1273 H1277 0.950 . S
H1274 C1270 0.950 . S
C1275 C1273 1.390 . S
C1275 C1276 1.387 . S
C1275 H1278 0.950 . S
C1276 C1275 1.387 . S
C1276 C1279 1.387 . S
H1277 C1273 0.950 . S
H1278 C1275 0.950 . S
C1279 C1270 1.390 . S
C1279 H1272 0.950 . S
C1279 C1276 1.387 . S
C1280 C1281 1.387 . S
C1280 H1284 0.950 . S
C1280 C1289 1.390 . S
C1281 C1280 1.387 . S
C1281 C1283 1.387 . S
H1282 C1289 0.950 . S
C1283 C1281 1.387 . S
C1283 C1285 1.390 . S
C1283 H1287 0.950 . S
H1284 C1280 0.950 . S
C1285 C1283 1.390 . S
C1285 C1286 1.387 . S
C1285 H1288 0.950 . S
C1286 C1285 1.387 . S
C1286 C1289 1.387 . S
H1287 C1283 0.950 . S
H1288 C1285 0.950 . S
C1289 C1280 1.390 . S
C1289 H1282 0.950 . S
C1289 C1286 1.387 . S
C1290 C1291 1.387 . S
C1290 H1294 0.950 . S
C1290 C1299 1.390 . S
C1291 C1290 1.387 . S
C1291 C1293 1.387 . S
H1292 C1299 0.950 . S
C1293 C1291 1.387 . S
C1293 C1295 1.390 . S
C1293 H1297 0.950 . S
H1294 C1290 0.950 . S
C1295 C1293 1.390 . S
C1295 C1296 1.387 . S
C1295 H1298 0.950 . S
C1296 C1295 1.387 . S
C1296 C1299 1.387 . S
H1297 C1293 0.950 . S
H1298 C1295 0.950 . S
C1299 C1290 1.390 . S
C1299 H1292 0.950 . S
C1299 C1296 1.387 . S
C1300 C1301 1.387 . S
C1300 H1304 0.950 . S
C1300 C1309 1.390 . S
C1301 C1300 1.387 . S
C1301 C1303 1.387 . S
H1302 C1309 0.950 . S
C1303 C1301 1.387 . S
C1303 C1305 1.390 . S
C1303 H1307 0.950 . S
H1304 C1300 0.950 . S
C1305 C1303 1.390 . S
C1305 C1306 1.387 . S
C1305 H1308 0.950 . S
C1306 C1305 1.387 . S
C1306 C1309 1.387 . S
H1307 C1303 0.950 . S
H1308 C1305 0.950 . S
C1309 C1300 1.390 . S
C1309 H1302 0.950 . S
C1309 C1306 1.387 . S
C1310 C1311 1.387 . S
C1310 H1314 0.950 . S
C1310 C1319 1.390 . S
C1311 C1310 1.387 . S
C1311 C1313 1.387 . S
H1312 C1319 0.950 . S
C1313 C1311 1.387 . S
C1313 C1315 1.390 . S
C1313 H1317 0.950 . S
H1314 C1310 0.950 . S
C1315 C1313 1.390 . S
C1315 C1316 1.387 . S
C1315 H1318 0.950 . S
C1316 C1315 1.387 . S
C1316 C1319 1.387 . S
H1317 C1313 0.950 . S
H1318 C1315 0.950 . S
C1319 C1310 1.390 . S
C1319 H1312 0.950 . S
C1319 C1316 1.387 . S
C1320 C1321 1.387 . S
C1320 H1324 0.950 . S
C1320 C1329 1.390 . S
C1321 C1320 1.387 . S
C1321 C1323 1.387 . S
H1322 C1329 0.950 . S
C1323 C1321 1.387 . S
C1323 C1325 1.390 . S
C1323 H1327 0.950 . S
H1324 C1320 0.950 . S
C1325 C1323 1.390 . S
C1325 C1326 1.387 . S
C1325 H1328 0.950 . S
C1326 C1325 1.387 . S
C1326 C1329 1.387 . S
H1327 C1323 0.950 . S
H1328 C1325 0.950 . S
C1329 C1320 1.390 . S
C1329 H1322 0.950 . S
C1329 C1326 1.387 . S
C1330 C1331 1.387 . S
C1330 H1334 0.950 . S
C1330 C1339 1.390 . S
C1331 C1330 1.387 . S
C1331 C1333 1.387 . S
H1332 C1339 0.950 . S
C1333 C1331 1.387 . S
C1333 C1335 1.390 . S
C1333 H1337 0.950 . S
H1334 C1330 0.950 . S
C1335 C1333 1.390 . S
C1335 C1336 1.387 . S
C1335 H1338 0.950 . S
C1336 C1335 1.387 . S
C1336 C1339 1.387 . S
H1337 C1333 0.950 . S
H1338 C1335 0.950 . S
C1339 C1330 1.390 . S
C1339 H1332 0.950 . S
C1339 C1336 1.387 . S
C1340 C1341 1.387 . S
C1340 H1344 0.950 . S
C1340 C1349 1.390 . S
C1341 C1340 1.387 . S
C1341 C1343 1.387 . S
H1342 C1349 0.950 . S
C1343 C1341 1.387 . S
C1343 C1345 1.390 . S
C1343 H1347 0.950 . S
H1344 C1340 0.950 . S
C1345 C1343 1.390 . S
C1345 C1346 1.387 . S
C1345 H1348 0.950 . S
C1346 C1345 1.387 . S
C1346 C1349 1.387 . S
H1347 C1343 0.950 . S
H1348 C1345 0.950 . S
C1349 C1340 1.390 . S
C1349 H1342 0.950 . S
C1349 C1346 1.387 . S
C1350 C1351 1.387 . S
C1350 H1354 0.950 . S
C1350 C1359 1.390 . S
C1351 C1350 1.387 . S
C1351 C1353 1.387 . S
H1352 C1359 0.950 . S
C1353 C1351 1.387 . S
C1353 C1355 1.390 . S
C1353 H1357 0.950 . S
H1354 C1350 0.950 . S
C1355 C1353 1.390 . S
C1355 C1356 1.387 . S
C1355 H1358 0.950 . S
C1356 C1355 1.387 . S
C1356 C1359 1.387 . S
H1357 C1353 0.950 . S
H1358 C1355 0.950 . S
C1359 C1350 1.390 . S
C1359 H1352 0.950 . S
C1359 C1356 1.387 . S
C1360 C1361 1.387 . S
C1360 H1364 0.950 . S
C1360 C1369 1.390 . S
C1361 C1360 1.387 . S
C1361 C1363 1.387 . S
H1362 C1369 0.950 . S
C1363 C1361 1.387 . S
C1363 C1365 1.390 . S
C1363 H1367 0.950 . S
H1364 C1360 0.950 . S
C1365 C1363 1.390 . S
C1365 C1366 1.387 . S
C1365 H1368 0.950 . S
C1366 C1365 1.387 . S
C1366 C1369 1.387 . S
H1367 C1363 0.950 . S
H1368 C1365 0.950 . S
C1369 C1360 1.390 . S
C1369 H1362 0.950 . S
C1369 C1366 1.387 . S
C1370 C1371 1.387 . S
C1370 H1374 0.950 . S
C1370 C1379 1.390 . S
C1371 C1370 1.387 . S
C1371 C1373 1.387 . S
H1372 C1379 0.950 . S
C1373 C1371 1.387 . S
C1373 C1375 1.390 . S
C1373 H1377 0.950 . S
H1374 C1370 0.950 . S
C1375 C1373 1.390 . S
C1375 C1376 1.387 . S
C1375 H1378 0.950 . S
C1376 C1375 1.387 . S
C1376 C1379 1.387 . S
H1377 C1373 0.950 . S
H1378 C1375 0.950 . S
C1379 C1370 1.390 . S
C1379 H1372 0.950 . S
C1379 C1376 1.387 . S
C1380 C1381 1.387 . S
C1380 H1384 0.950 . S
C1380 C1389 1.390 . S
C1381 C1380 1.387 . S
C1381 C1383 1.387 . S
H1382 C1389 0.950 . S
C1383 C1381 1.387 . S
C1383 C1385 1.390 . S
C1383 H1387 0.950 . S
H1384 C1380 0.950 . S
C1385 C1383 1.390 . S
C1385 C1386 1.387 . S
C1385 H1388 0.950 . S
C1386 C1385 1.387 . S
C1386 C1389 1.387 . S
H1387 C1383 0.950 . S
H1388 C1385 0.950 . S
C1389 C1380 1.390 . S
C1389 H1382 0.950 . S
C1389 C1386 1.387 . S
C1390 C1391 1.387 . S
C1390 H1394 0.950 . S
C1390 C1399 1.390 . S
C1391 C1390 1.387 . S
C1391 C1393 1.387 . S
H1392 C1399 0.950 . S
C1393 C1391 1.387 . S
C1393 C1395 1.390 . S
C1393 H1397 0.950 . S
H1394 C1390 0.950 . S
C1395 C1393 1.390 . S
C1395 C1396 1.387 . S
C1395 H1398 0.950 . S
C1396 C1395 1.387 . S
C1396 C1399 1.387 . S
H1397 C1393 0.950 . S
H1398 C1395 0.950 . S
C1399 C1390 1.390 . S
C1399 H1392 0.950 . S
C1399 C1396 1.387 . S
C1400 C1401 1.387 . S
C1400 H1404 0.950 . S
C1400 C1409 1.390 . S
C1401 C1400 1.387 . S
C1401 C1403 1.387 . S
H1402 C1409 0.950 . S
C1403 C1401 1.387 . S
C1403 C1405 1.390 . S
C1403 H1407 0.950 . S
H1404 C1400 0.950 . S
C1405 C1403 1.390 . S
C1405 C1406 1.387 . S
C1405 H1408 0.950 . S
C1406 C1405 1.387 . S
C1406 C1409 1.387 . S
H1407 C1403 0.950 . S
H1408 C1405 0.950 . S
C1409 C1400 1.390 . S
C1409 H1402 0.950 . S
C1409 C1406 1.387 . S
C1410 C1411 1.387 . S
C1410 H1414 0.950 . S
C1410 C1419 1.390 . S
C1411 C1410 1.387 . S
C1411 C1413 1.387 . S
H1412 C1419 0.950 . S
C1413 C1411 1.387 . S
C1413 C1415 1.390 . S
C1413 H1417 0.950 . S
H1414 C1410 0.950 . S
C1415 C1413 1.390 . S
C1415 C1416 1.387 . S
C1415 H1418 0.950 . S
C1416 C1415 1.387 . S
C1416 C1419 1.387 . S
H1417 C1413 0.950 . S
H1418 C1415 0.950 . S
C1419 C1410 1.390 . S
C1419 H1412 0.950 . S
C1419 C1416 1.387 . S
C1420 C1421 1.387 . S
C1420 H1424 0.950 . S
C1420 C1429 1.390 . S
C1421 C1420 1.387 . S
C1421 C1423 1.387 . S
H1422 C1429 0.950 . S
C1423 C1421 1.387 . S
C1423 C1425 1.390 . S
C1423 H1427 0.950 . S
H1424 C1420 0.950 . S
C1425 C1423 1.390 . S
C1425 C1426 1.387 . S
C1425 H1428 0.950 . S
C1426 C1425 1.387 . S
C1426 C1429 1.387 . S
H1427 C1423 0.950 . S
H1428 C1425 0.950 . S
C1429 C1420 1.390 . S
C1429 H1422 0.950 . S
C1429 C1426 1.387 . S
C1430 C1431 1.387 . S
C1430 H1434 0.950 . S
C1430 C1439 1.390 . S
C1431 C1430 1.387 . S
C1431 C1433 1.387 . S
H1432 C1439 0.950 . S
C1433 C1431 1.387 . S
C1433 C1435 1.390 . S
C1433 H1437 0.950 . S
H1434 C1430 0.950 . S
C1435 C1433 1.390 . S
C1435 C1436 1.387 . S
C1435 H1438 0.950 . S
C1436 C1435 1.387 . S
C1436 C1439 1.387 . S
H1437 C1433 0.950 . S
H1438 C1435 0.950 . S
C1439 C1430 1.390 . S
C1439 H1432 0.950 . S
C1439 C1436 1.387 . S
C1440 C1441 1.387 . S
C1440 H1444 0.950 . S
C1440 C1449 1.390 . S
C1441 C1440 1.387 . S
C1441 C1443 1.387 . S
H1442 C1449 0.950 . S
C1443 C1441 1.387 . S
C1443 C1445 1.390 . S
C1443 H1447 0.950 . S
H1444 C1440 0.950 . S
C1445 C1443 1.390 . S
C1445 C1446 1.387 . S
C1445 H1448 0.950 . S
C1446 C1445 1.387 . S
C1446 C1449 1.387 . S
H1447 C1443 0.950 . S
H1448 C1445 0.950 . S
C1449 C1440 1.390 . S
C1449 H1442 0.950 . S
C1449 C1446 1.387 . S
C1450 C1451 1.387 . S
C1450 H1454 0.950 . S
C1450 C1459 1.390 . S
C1451 C1450 1.387 . S
C1451 C1453 1.387 . S
H1452 C1459 0.950 . S
C1453 C1451 1.387 . S
C1453 C1455 1.390 . S
C1453 H1457 0.950 . S
H1454 C1450 0.950 . S
C1455 C1453 1.390 . S
C1455 C1456 1.387 . S
C1455 H1458 0.950 . S
C1456 C1455 1.387 . S
C1456 C1459 1.387 . S
H1457 C1453 0.950 . S
H1458 C1455 0.950 . S
C1459 C1450 1.390 . S
C1459 H1452 0.950 . S
C1459 C1456 1.387 . S
C1460 C1461 1.387 . S
C1460 H1464 0.950 . S
C1460 C1469 1.390 . S
C1461 C1460 1.387 . S
C1461 C1463 1.387 . S
H1462 C1469 0.950 . S
C1463 C1461 1.387 . S
C1463 C1465 1.390 . S
C1463 H1467 0.950 . S
H1464 C1460 0.950 . S
C1465 C1463 1.390 . S
C1465 C1466 1.387 . S
C1465 H1468 0.950 . S
C1466 C1465 1.387 . S
C1466 C1469 1.387 . S
H1467 C1463 0.950 . S
H1468 C1465 0.950 . S
C1469 C1460 1.390 . S
C1469 H1462 0.950 . S
C1469 C1466 1.387 . S
C1470 C1471 1.387 . S
C1470 H1474 0.950 . S
C1470 C1479 1.390 . S
C1471 C1470 1.387 . S
C1471 C1473 1.387 . S
H1472 C1479 0.950 . S
C1473 C1471 1.387 . S
C1473 C1475 1.390 . S
C1473 H1477 0.950 . S
H1474 C1470 0.950 . S
C1475 C1473 1.390 . S
C1475 C1476 1.387 . S
C1475 H1478 0.950 . S
C1476 C1475 1.387 . S
C1476 C1479 1.387 . S
H1477 C1473 0.950 . S
H1478 C1475 0.950 . S
C1479 C1470 1.390 . S
C1479 H1472 0.950 . S
C1479 C1476 1.387 . S
C1480 C1481 1.387 . S
C1480 H1484 0.950 . S
C1480 C1489 1.390 . S
C1481 C1480 1.387 . S
C1481 C1483 1.387 . S
H1482 C1489 0.950 . S
C1483 C1481 1.387 . S
C1483 C1485 1.390 . S
C1483 H1487 0.950 . S
H1484 C1480 0.950 . S
C1485 C1483 1.390 . S
C1485 C1486 1.387 . S
C1485 H1488 0.950 . S
C1486 C1485 1.387 . S
C1486 C1489 1.387 . S
H1487 C1483 0.950 . S
H1488 C1485 0.950 . S
C1489 C1480 1.390 . S
C1489 H1482 0.950 . S
C1489 C1486 1.387 . S
C1490 C1491 1.387 . S
C1490 H1494 0.950 . S
C1490 C1499 1.390 . S
C1491 C1490 1.387 . S
C1491 C1493 1.387 . S
H1492 C1499 0.950 . S
C1493 C1491 1.387 . S
C1493 C1495 1.390 . S
C1493 H1497 0.950 . S
H1494 C1490 0.950 . S
C1495 C1493 1.390 . S
C1495 C1496 1.387 . S
C1495 H1498 0.950 . S
C1496 C1495 1.387 . S
C1496 C1499 1.387 . S
H1497 C1493 0.950 . S
H1498 C1495 0.950 . S
C1499 C1490 1.390 . S
C1499 H1492 0.950 . S
C1499 C1496 1.387 . S
C1500 C1501 1.387 . S
C1500 H1504 0.950 . S
C1500 C1509 1.390 . S
C1501 C1500 1.387 . S
C1501 C1503 1.387 . S
H1502 C1509 0.950 . S
C1503 C1501 1.387 . S
C1503 C1505 1.390 . S
C1503 H1507 0.950 . S
H1504 C1500 0.950 . S
C1505 C1503 1.390 . S
C1505 C1506 1.387 . S
C1505 H1508 0.950 . S
C1506 C1505 1.387 . S
C1506 C1509 1.387 . S
H1507 C1503 0.950 . S
H1508 C1505 0.950 . S
C1509 C1500 1.390 . S
C1509 H1502 0.950 . S
C1509 C1506 1.387 . S
C1510 C1511 1.387 . S
C1510 H1514 0.950 . S
C1510 C1519 1.390 . S
C1511 C1510 1.387 . S
C1511 C1513 1.387 . S
H1512 C1519 0.950 . S
C1513 C1511 1.387 . S
C1513 C1515 1.390 . S
C1513 H1517 0.950 . S
H1514 C1510 0.950 . S
C1515 C1513 1.390 . S
C1515 C1516 1.387 . S
C1515 H1518 0.950 . S
C1516 C1515 1.387 . S
C1516 C1519 1.387 . S
H1517 C1513 0.950 . S
H1518 C1515 0.950 . S
C1519 C1510 1.390 . S
C1519 H1512 0.950 . S
C1519 C1516 1.387 . S
C1520 C1521 1.387 . S
C1520 H1524 0.950 . S
C1520 C1529 1.390 . S
C1521 C1520 1.387 . S
C1521 C1523 1.387 . S
H1522 C1529 0.950 . S
C1523 C1521 1.387 . S
C1523 C1525 1.390 . S
C1523 H1527 0.950 . S
H1524 C1520 0.950 . S
C1525 C1523 1.390 . S
C1525 C1526 1.387 . S
C1525 H1528 0.950 . S
C1526 C1525 1.387 . S
C1526 C1529 1.387 . S
H1527 C1523 0.950 . S
H1528 C1525 0.950 . S
C1529 C1520 1.390 . S
C1529 H1522 0.950 . S
C1529 C1526 1.387 . S
C1530 C1531 1.387 . S
C1530 H1534 0.950 . S
C1530 C1539 1.390 . S
C1531 C1530 1.387 . S
C1531 C1533 1.387 . S
H1532 C1539 0.950 . S
C1533 C1531 1.387 . S
C1533 C1535 1.390 . S
C1533 H1537 0.950 . S
H1534 C1530 0.950 . S
C1535 C1533 1.390 . S
C1535 C1536 1.387 . S
C1535 H1538 0.950 . S
C1536 C1535 1.387 . S
C1536 C1539 1.387 . S
H1537 C1533 0.950 . S
H1538 C1535 0.950 . S
C1539 C1530 1.390 . S
C1539 H1532 0.950 . S
C1539 C1536 1.387 . S
C1540 C1541 1.387 . S
C1540 H1544 0.950 . S
C1540 C1549 1.390 . S
C1541 C1540 1.387 . S
C1541 C1543 1.387 . S
H1542 C1549 0.950 . S
C1543 C1541 1.387 . S
C1543 C1545 1.390 . S
C1543 H1547 0.950 . S
H1544 C1540 0.950 . S
C1545 C1543 1.390 . S
C1545 C1546 1.387 . S
C1545 H1548 0.950 . S
C1546 C1545 1.387 . S
C1546 C1549 1.387 . S
H1547 C1543 0.950 . S
H1548 C1545 0.950 . S
C1549 C1540 1.390 . S
C1549 H1542 0.950 . S
C1549 C1546 1.387 . S
C1550 C1551 1.387 . S
C1550 H1554 0.950 . S
C1550 C1559 1.390 . S
C1551 C1550 1.387 . S
C1551 C1553 1.387 . S
H1552 C1559 0.950 . S
C1553 C1551 1.387 . S
C1553 C1555 1.390 . S
C1553 H1557 0.950 . S
H1554 C1550 0.950 . S
C1555 C1553 1.390 . S
C1555 C1556 1.387 . S
C1555 H1558 0.950 . S
C1556 C1555 1.387 . S
C1556 C1559 1.387 . S
H1557 C1553 0.950 . S
H1558 C1555 0.950 . S
C1559 C1550 1.390 . S
C1559 H1552 0.950 . S
C1559 C1556 1.387 . S
C1560 C1561 1.387 . S
C1560 H1564 0.950 . S
C1560 C1569 1.390 . S
C1561 C1560 1.387 . S
C1561 C1563 1.387 . S
H1562 C1569 0.950 . S
C1563 C1561 1.387 . S
C1563 C1565 1.390 . S
C1563 H1567 0.950 . S
H1564 C1560 0.950 . S
C1565 C1563 1.390 . S
C1565 C1566 1.387 . S
C1565 H1568 0.950 . S
C1566 C1565 1.387 . S
C1566 C1569 1.387 . S
H1567 C1563 0.950 . S
H1568 C1565 0.950 . S
C1569 C1560 1.390 . S
C1569 H1562 0.950 . S
C1569 C1566 1.387 . S
C1570 C1571 1.387 . S
C1570 H1574 0.950 . S
C1570 C1579 1.390 . S
C1571 C1570 1.387 . S
C1571 C1573 1.387 . S
H1572 C1579 0.950 . S
C1573 C1571 1.387 . S
C1573 C1575 1.390 . S
C1573 H1577 0.950 . S
H1574 C1570 0.950 . S
C1575 C1573 1.390 . S
C1575 C1576 1.387 . S
C1575 H1578 0.950 . S
C1576 C1575 1.387 . S
C1576 C1579 1.387 . S
H1577 C1573 0.950 . S
H1578 C1575 0.950 . S
C1579 C1570 1.390 . S
C1579 H1572 0.950 . S
C1579 C1576 1.387 . S
C1580 C1581 1.387 . S
C1580 H1584 0.950 . S
C1580 C1589 1.390 . S
C1581 C1580 1.387 . S
C1581 C1583 1.387 . S
H1582 C1589 0.950 . S
C1583 C1581 1.387 . S
C1583 C1585 1.390 . S
C1583 H1587 0.950 . S
H1584 C1580 0.950 . S
C1585 C1583 1.390 . S
C1585 C1586 1.387 . S
C1585 H1588 0.950 . S
C1586 C1585 1.387 . S
C1586 C1589 1.387 . S
H1587 C1583 0.950 . S
H1588 C1585 0.950 . S
C1589 C1580 1.390 . S
C1589 H1582 0.950 . S
C1589 C1586 1.387 . S
C1590 C1591 1.387 . S
C1590 H1594 0.950 . S
C1590 C1599 1.390 . S
C1591 C1590 1.387 . S
C1591 C1593 1.387 . S
H1592 C1599 0.950 . S
C1593 C1591 1.387 . S
C1593 C1595 1.390 . S
C1593 H1597 0.950 . S
H1594 C1590 0.950 . S
C1595 C1593 1.390 . S
C1595 C1596 1.387 . S
C1595 H1598 0.950 . S
C1596 C1595 1.387 . S
C1596 C1599 1.387 . S
H1597 C1593 0.950 . S
H1598 C1595 0.950 . S
C1599 C1590 1.390 . S
C1599 H1592 0.950 . S
C1599 C1596 1.387 . S
C641 C566 1.497 . S
C646 C16 1.497 . S
C651 C106 1.494 . S
C656 C36 1.494 . S
C661 C446 1.497 . S
C666 C56 1.497 . S
C671 C306 1.494 . S
C676 C76 1.494 . S
C681 C86 1.497 . S
C686 C496 1.497 . S
C691 C376 1.494 . S
C696 C126 1.494 . S
C701 C236 1.497 . S
C706 C146 1.497 . S
C711 C406 1.497 . S
C716 C176 1.497 . S
C721 C196 1.494 . S
C726 C266 1.494 . S
C731 C216 1.497 . S
C736 C606 1.497 . S
C741 C336 1.494 . S
C746 C246 1.494 . S
C751 C286 1.497 . S
C756 C536 1.497 . S
C761 C356 1.496 . S
C766 C426 1.496 . S
C771 C396 1.497 . S
C776 C626 1.497 . S
C781 C556 1.494 . S
C786 C466 1.494 . S
C791 C586 1.494 . S
C796 C516 1.494 . S
C801 C386 1.610 . S
C806 C6 1.610 . S
C811 C366 1.615 . S
C816 C26 1.615 . S
C821 C346 1.610 . S
C826 C46 1.610 . S
C831 C326 1.610 . S
C836 C66 1.610 . S
C841 C476 1.615 . S
C846 C96 1.615 . S
C851 C116 1.610 . S
C856 C456 1.610 . S
C861 C136 1.610 . S
C866 C436 1.610 . S
C871 C156 1.615 . S
C876 C416 1.615 . S
C881 C166 1.610 . S
C886 C546 1.610 . S
C891 C186 1.615 . S
C896 C526 1.615 . S
C901 C206 1.615 . S
C906 C506 1.615 . S
C911 C486 1.615 . S
C916 C226 1.615 . S
C921 C256 1.610 . S
C926 C636 1.610 . S
C931 C276 1.610 . S
C936 C616 1.610 . S
C941 C296 1.615 . S
C946 C596 1.615 . S
C951 C576 1.615 . S
C956 C316 1.615 . S
C961 C19 1.794 . S
C966 C8 1.794 . S
C971 C39 1.794 1_565 S
C976 C28 1.794 . S
C981 C48 1.794 . S
C986 C59 1.794 1_565 S
C991 C68 1.797 . S
C996 C79 1.797 . S
C1001 C99 1.794 . S
C1006 C88 1.794 . S
C1011 C119 1.794 . S
C1016 C108 1.794 1_545 S
C1021 C139 1.798 . S
C1026 C128 1.798 1_545 S
C1031 C148 1.798 . S
C1036 C159 1.798 . S
C1041 C179 1.797 1_554 S
C1046 C168 1.797 . S
C1051 C188 1.797 . S
C1056 C199 1.797 1_554 S
C1061 C208 1.794 . S
C1066 C219 1.794 . S
C1071 C228 1.797 . S
C1076 C239 1.797 . S
C1081 C259 1.797 . S
C1086 C248 1.797 1_556 S
C1091 C268 1.794 1_556 S
C1096 C279 1.794 . S
C1101 C299 1.794 . S
C1106 C288 1.794 . S
C1111 C308 1.794 . S
C1116 C319 1.794 . S
C1121 C339 1.797 1_554 S
C1126 C328 1.797 . S
C1131 C348 1.797 . S
C1136 C359 1.797 1_564 S
C1141 C368 1.797 . S
C1146 C379 1.797 1_565 S
C1151 C388 1.794 . S
C1156 C399 1.794 . S
C1161 C408 1.794 1_556 S
C1166 C419 1.794 . S
C1171 C439 1.797 . S
C1176 C428 1.797 1_546 S
C1181 C448 1.796 1_545 S
C1186 C459 1.796 . S
C1191 C468 1.798 . S
C1196 C479 1.798 . S
C1201 C499 1.797 . S
C1206 C488 1.797 . S
C1211 C508 1.794 . S
C1216 C519 1.794 . S
C1221 C528 1.797 . S
C1226 C539 1.797 . S
C1231 C559 1.797 . S
C1236 C548 1.797 . S
C1241 C579 1.798 . S
C1246 C568 1.798 . S
C1251 C588 1.794 . S
C1256 C599 1.794 . S
C1261 C608 1.797 . S
C1266 C619 1.797 . S
C1271 C628 1.798 . S
C1276 C639 1.798 . S
C1281 C201 1.527 . S
C1286 C1 1.527 . S
C1291 C221 1.526 . S
C1296 C21 1.526 . S
C1301 C41 1.526 . S
C1306 C161 1.526 . S
C1311 C181 1.526 . S
C1316 C61 1.526 . S
C1321 C89 1.527 . S
C1326 C289 1.527 . S
C1331 C109 1.526 . S
C1336 C309 1.526 . S
C1341 C129 1.526 . S
C1346 C249 1.526 . S
C1351 C149 1.526 . S
C1356 C269 1.526 . S
C1361 C521 1.526 . S
C1366 C321 1.526 . S
C1371 C341 1.526 . S
C1376 C541 1.526 . S
C1381 C481 1.526 . S
C1386 C361 1.526 . S
C1391 C381 1.527 . S
C1396 C501 1.527 . S
C1401 C609 1.526 . S
C1406 C409 1.526 . S
C1411 C429 1.526 . S
C1416 C629 1.526 . S
C1421 C449 1.526 . S
C1426 C569 1.526 . S
C1431 C589 1.526 . S
C1436 C469 1.526 . S
C1441 C9 1.487 . S
C1446 C49 1.487 . S
C1451 C69 1.489 . S
C1456 C29 1.489 . S
C1461 C121 1.487 . S
C1466 C81 1.487 . S
C1471 C101 1.489 . S
C1476 C141 1.489 . S
C1481 C169 1.487 . S
C1486 C209 1.487 . S
C1491 C229 1.487 . S
C1496 C189 1.487 . S
C1501 C281 1.490 . S
C1506 C241 1.489 . S
C1511 C301 1.487 . S
C1516 C261 1.487 . S
C1521 C369 1.489 . S
C1526 C329 1.489 . S
C1531 C389 1.487 . S
C1536 C349 1.487 . S
C1541 C441 1.489 . S
C1546 C401 1.489 . S
C1551 C461 1.489 . S
C1556 C421 1.489 . S
C1561 C489 1.490 . S
C1566 C529 1.490 . S
C1571 C509 1.489 . S
C1576 C549 1.489 . S
C1581 C561 1.487 . S
C1586 C601 1.487 . S
C1591 C621 1.487 . S
C1596 C581 1.487 . S
