# Generated by pormake.
# Topology ukc, (4)-cn, num edge types: 1
# Building blocks:
#     Node 0, Type 0, BuildingBlock: QUQFOY_clean_sbu_1, # of connection points: 4
#     Node 1, Type 0, BuildingBlock: QUQFOY_clean_sbu_1, # of connection points: 4
#     Node 2, Type 0, BuildingBlock: QUQFOY_clean_sbu_1, # of connection points: 4
#     Node 3, Type 0, BuildingBlock: QUQFOY_clean_sbu_1, # of connection points: 4
#     Node 4, Type 0, BuildingBlock: QUQFOY_clean_sbu_1, # of connection points: 4
#     Node 5, Type 0, BuildingBlock: QUQFOY_clean_sbu_1, # of connection points: 4
#     Node 6, Type 0, BuildingBlock: QUQFOY_clean_sbu_1, # of connection points: 4
#     Node 7, Type 0, BuildingBlock: QUQFOY_clean_sbu_1, # of connection points: 4
#     Node 8, Type 0, BuildingBlock: QUQFOY_clean_sbu_1, # of connection points: 4
#     Node 9, Type 0, BuildingBlock: QUQFOY_clean_sbu_1, # of connection points: 4
#     Node 10, Type 0, BuildingBlock: QUQFOY_clean_sbu_1, # of connection points: 4
#     Node 11, Type 0, BuildingBlock: QUQFOY_clean_sbu_1, # of connection points: 4
#     Node 12, Type 0, BuildingBlock: QUQFOY_clean_sbu_1, # of connection points: 4
#     Node 13, Type 0, BuildingBlock: QUQFOY_clean_sbu_1, # of connection points: 4
#     Node 14, Type 0, BuildingBlock: QUQFOY_clean_sbu_1, # of connection points: 4
#     Node 15, Type 0, BuildingBlock: QUQFOY_clean_sbu_1, # of connection points: 4
#     Node 16, Type 0, BuildingBlock: QUQFOY_clean_sbu_1, # of connection points: 4
#     Node 17, Type 0, BuildingBlock: QUQFOY_clean_sbu_1, # of connection points: 4
#     Node 18, Type 0, BuildingBlock: QUQFOY_clean_sbu_1, # of connection points: 4
#     Node 19, Type 0, BuildingBlock: QUQFOY_clean_sbu_1, # of connection points: 4
#     Node 20, Type 0, BuildingBlock: QUQFOY_clean_sbu_1, # of connection points: 4
#     Node 21, Type 0, BuildingBlock: QUQFOY_clean_sbu_1, # of connection points: 4
#     Node 22, Type 0, BuildingBlock: QUQFOY_clean_sbu_1, # of connection points: 4
#     Node 23, Type 0, BuildingBlock: QUQFOY_clean_sbu_1, # of connection points: 4
#     Node 24, Type 0, BuildingBlock: QUQFOY_clean_sbu_1, # of connection points: 4
#     Node 25, Type 0, BuildingBlock: QUQFOY_clean_sbu_1, # of connection points: 4
#     Node 26, Type 0, BuildingBlock: QUQFOY_clean_sbu_1, # of connection points: 4
#     Node 27, Type 0, BuildingBlock: QUQFOY_clean_sbu_1, # of connection points: 4
#     Node 28, Type 0, BuildingBlock: QUQFOY_clean_sbu_1, # of connection points: 4
#     Node 29, Type 0, BuildingBlock: QUQFOY_clean_sbu_1, # of connection points: 4
#     Node 30, Type 0, BuildingBlock: QUQFOY_clean_sbu_1, # of connection points: 4
#     Node 31, Type 0, BuildingBlock: QUQFOY_clean_sbu_1, # of connection points: 4
#     Edge 32, Type (0, 0), BuildingBlock: ZUJKAS_clean_linker_0, # of connection points: 2
#     Edge 33, Type (0, 0), BuildingBlock: ZUJKAS_clean_linker_0, # of connection points: 2
#     Edge 34, Type (0, 0), BuildingBlock: ZUJKAS_clean_linker_0, # of connection points: 2
#     Edge 35, Type (0, 0), BuildingBlock: ZUJKAS_clean_linker_0, # of connection points: 2
#     Edge 36, Type (0, 0), BuildingBlock: ZUJKAS_clean_linker_0, # of connection points: 2
#     Edge 37, Type (0, 0), BuildingBlock: ZUJKAS_clean_linker_0, # of connection points: 2
#     Edge 38, Type (0, 0), BuildingBlock: ZUJKAS_clean_linker_0, # of connection points: 2
#     Edge 39, Type (0, 0), BuildingBlock: ZUJKAS_clean_linker_0, # of connection points: 2
#     Edge 40, Type (0, 0), BuildingBlock: ZUJKAS_clean_linker_0, # of connection points: 2
#     Edge 41, Type (0, 0), BuildingBlock: ZUJKAS_clean_linker_0, # of connection points: 2
#     Edge 42, Type (0, 0), BuildingBlock: ZUJKAS_clean_linker_0, # of connection points: 2
#     Edge 43, Type (0, 0), BuildingBlock: ZUJKAS_clean_linker_0, # of connection points: 2
#     Edge 44, Type (0, 0), BuildingBlock: ZUJKAS_clean_linker_0, # of connection points: 2
#     Edge 45, Type (0, 0), BuildingBlock: ZUJKAS_clean_linker_0, # of connection points: 2
#     Edge 46, Type (0, 0), BuildingBlock: ZUJKAS_clean_linker_0, # of connection points: 2
#     Edge 47, Type (0, 0), BuildingBlock: ZUJKAS_clean_linker_0, # of connection points: 2
#     Edge 48, Type (0, 0), BuildingBlock: ZUJKAS_clean_linker_0, # of connection points: 2
#     Edge 49, Type (0, 0), BuildingBlock: ZUJKAS_clean_linker_0, # of connection points: 2
#     Edge 50, Type (0, 0), BuildingBlock: ZUJKAS_clean_linker_0, # of connection points: 2
#     Edge 51, Type (0, 0), BuildingBlock: ZUJKAS_clean_linker_0, # of connection points: 2
#     Edge 52, Type (0, 0), BuildingBlock: ZUJKAS_clean_linker_0, # of connection points: 2
#     Edge 53, Type (0, 0), BuildingBlock: ZUJKAS_clean_linker_0, # of connection points: 2
#     Edge 54, Type (0, 0), BuildingBlock: ZUJKAS_clean_linker_0, # of connection points: 2
#     Edge 55, Type (0, 0), BuildingBlock: ZUJKAS_clean_linker_0, # of connection points: 2
#     Edge 56, Type (0, 0), BuildingBlock: ZUJKAS_clean_linker_0, # of connection points: 2
#     Edge 57, Type (0, 0), BuildingBlock: ZUJKAS_clean_linker_0, # of connection points: 2
#     Edge 58, Type (0, 0), BuildingBlock: ZUJKAS_clean_linker_0, # of connection points: 2
#     Edge 59, Type (0, 0), BuildingBlock: ZUJKAS_clean_linker_0, # of connection points: 2
#     Edge 60, Type (0, 0), BuildingBlock: ZUJKAS_clean_linker_0, # of connection points: 2
#     Edge 61, Type (0, 0), BuildingBlock: ZUJKAS_clean_linker_0, # of connection points: 2
#     Edge 62, Type (0, 0), BuildingBlock: ZUJKAS_clean_linker_0, # of connection points: 2
#     Edge 63, Type (0, 0), BuildingBlock: ZUJKAS_clean_linker_0, # of connection points: 2
#     Edge 64, Type (0, 0), BuildingBlock: ZUJKAS_clean_linker_0, # of connection points: 2
#     Edge 65, Type (0, 0), BuildingBlock: ZUJKAS_clean_linker_0, # of connection points: 2
#     Edge 66, Type (0, 0), BuildingBlock: ZUJKAS_clean_linker_0, # of connection points: 2
#     Edge 67, Type (0, 0), BuildingBlock: ZUJKAS_clean_linker_0, # of connection points: 2
#     Edge 68, Type (0, 0), BuildingBlock: ZUJKAS_clean_linker_0, # of connection points: 2
#     Edge 69, Type (0, 0), BuildingBlock: ZUJKAS_clean_linker_0, # of connection points: 2
#     Edge 70, Type (0, 0), BuildingBlock: ZUJKAS_clean_linker_0, # of connection points: 2
#     Edge 71, Type (0, 0), BuildingBlock: ZUJKAS_clean_linker_0, # of connection points: 2
#     Edge 72, Type (0, 0), BuildingBlock: ZUJKAS_clean_linker_0, # of connection points: 2
#     Edge 73, Type (0, 0), BuildingBlock: ZUJKAS_clean_linker_0, # of connection points: 2
#     Edge 74, Type (0, 0), BuildingBlock: ZUJKAS_clean_linker_0, # of connection points: 2
#     Edge 75, Type (0, 0), BuildingBlock: ZUJKAS_clean_linker_0, # of connection points: 2
#     Edge 76, Type (0, 0), BuildingBlock: ZUJKAS_clean_linker_0, # of connection points: 2
#     Edge 77, Type (0, 0), BuildingBlock: ZUJKAS_clean_linker_0, # of connection points: 2
#     Edge 78, Type (0, 0), BuildingBlock: ZUJKAS_clean_linker_0, # of connection points: 2
#     Edge 79, Type (0, 0), BuildingBlock: ZUJKAS_clean_linker_0, # of connection points: 2
#     Edge 80, Type (0, 0), BuildingBlock: ZUJKAS_clean_linker_0, # of connection points: 2
#     Edge 81, Type (0, 0), BuildingBlock: ZUJKAS_clean_linker_0, # of connection points: 2
#     Edge 82, Type (0, 0), BuildingBlock: ZUJKAS_clean_linker_0, # of connection points: 2
#     Edge 83, Type (0, 0), BuildingBlock: ZUJKAS_clean_linker_0, # of connection points: 2
#     Edge 84, Type (0, 0), BuildingBlock: ZUJKAS_clean_linker_0, # of connection points: 2
#     Edge 85, Type (0, 0), BuildingBlock: ZUJKAS_clean_linker_0, # of connection points: 2
#     Edge 86, Type (0, 0), BuildingBlock: ZUJKAS_clean_linker_0, # of connection points: 2
#     Edge 87, Type (0, 0), BuildingBlock: ZUJKAS_clean_linker_0, # of connection points: 2
#     Edge 88, Type (0, 0), BuildingBlock: ZUJKAS_clean_linker_0, # of connection points: 2
#     Edge 89, Type (0, 0), BuildingBlock: ZUJKAS_clean_linker_0, # of connection points: 2
#     Edge 90, Type (0, 0), BuildingBlock: ZUJKAS_clean_linker_0, # of connection points: 2
#     Edge 91, Type (0, 0), BuildingBlock: ZUJKAS_clean_linker_0, # of connection points: 2
#     Edge 92, Type (0, 0), BuildingBlock: ZUJKAS_clean_linker_0, # of connection points: 2
#     Edge 93, Type (0, 0), BuildingBlock: ZUJKAS_clean_linker_0, # of connection points: 2
#     Edge 94, Type (0, 0), BuildingBlock: ZUJKAS_clean_linker_0, # of connection points: 2
#     Edge 95, Type (0, 0), BuildingBlock: ZUJKAS_clean_linker_0, # of connection points: 2
# Relax obj value: 0.070
# Max RMSD: 0.148
# Mean RMSD: 0.148
data_MOF--net-ukc--node1-QUQFOY_clean_sbu_1--edge1-ZUJKAS_clean_linker_0
_symmetry_space_group_name_H-M    P1
_symmetry_Int_Tables_number       1
_symmetry_cell_setting            triclinic
loop_
_symmetry_equiv_pos_as_xyz
'x, y, z'
_cell_length_a     62.877211
_cell_length_b     62.896358
_cell_length_c     108.80537
_cell_angle_alpha  90.006522
_cell_angle_beta   90.013736
_cell_angle_gamma 90.013378
loop_
_atom_site_label
_atom_site_type_symbol
_atom_site_fract_x
_atom_site_fract_y
_atom_site_fract_z
_atom_type_partial_charge
O0 O 0.11487 0.37116 0.05464 0.0
Cd1 Cd 0.11319 0.36399 0.03619 0.0
Cd2 Cd 0.0754 0.38958 0.0392 0.0
O3 O 0.0869 0.39198 0.05696 0.0
O4 O 0.14129 0.35003 0.03357 0.0
O5 O 0.13193 0.37954 0.02401 0.0
C6 C 0.14615 0.36518 0.02613 0.0
C7 C 0.05955 0.41965 0.03036 0.0
C8 C 0.10315 0.38272 0.0614 0.0
C9 C 0.07089 0.34358 0.03066 0.0
O10 O 0.06224 0.36102 0.03379 0.0
O11 O 0.09102 0.34158 0.0307 0.0
O12 O 0.05043 0.40912 0.03903 0.0
O13 O 0.07813 0.41339 0.02681 0.0
O14 O 0.88848 0.8654 0.30324 0.0
Cd15 Cd 0.89294 0.86316 0.28451 0.0
Cd16 Cd 0.86679 0.8269 0.28857 0.0
O17 O 0.86497 0.83978 0.30602 0.0
O18 O 0.90673 0.89086 0.28053 0.0
O19 O 0.87529 0.88167 0.27323 0.0
C20 C 0.89021 0.89572 0.27413 0.0
C21 C 0.83635 0.81115 0.28004 0.0
C22 C 0.87607 0.85503 0.31024 0.0
C23 C 0.91203 0.82038 0.27931 0.0
O24 O 0.89493 0.81245 0.28355 0.0
O25 O 0.91409 0.84041 0.27826 0.0
O26 O 0.84653 0.80249 0.289 0.0
O27 O 0.84309 0.8293 0.27606 0.0
O28 O 0.39032 0.63835 0.5522 0.0
Cd29 Cd 0.39294 0.64226 0.53345 0.0
Cd30 Cd 0.42985 0.61738 0.53801 0.0
O31 O 0.41697 0.61623 0.5555 0.0
O32 O 0.36535 0.65589 0.52903 0.0
O33 O 0.37456 0.62404 0.52238 0.0
C34 C 0.36058 0.63906 0.52288 0.0
C35 C 0.44537 0.58669 0.52973 0.0
C36 C 0.40114 0.62678 0.55945 0.0
C37 C 0.43553 0.66214 0.52812 0.0
O38 O 0.44396 0.64543 0.53251 0.0
O39 O 0.41543 0.66363 0.52713 0.0
O40 O 0.45423 0.59712 0.53854 0.0
O41 O 0.42716 0.59335 0.52579 0.0
O42 O 0.61896 0.14044 0.80378 0.0
Cd43 Cd 0.61393 0.1425 0.7851 0.0
Cd44 Cd 0.63898 0.17982 0.78885 0.0
O45 O 0.64076 0.16756 0.80647 0.0
O46 O 0.60048 0.11455 0.78132 0.0
O47 O 0.6315 0.12423 0.77364 0.0
C48 C 0.61682 0.10997 0.7747 0.0
C49 C 0.66938 0.19557 0.78033 0.0
C50 C 0.63065 0.15168 0.81075 0.0
C51 C 0.59368 0.18476 0.77947 0.0
O52 O 0.61067 0.19343 0.78335 0.0
O53 O 0.59206 0.16462 0.77898 0.0
O54 O 0.65887 0.20453 0.78906 0.0
O55 O 0.66296 0.17717 0.77657 0.0
O56 O 0.11711 0.6376 0.44748 0.0
Cd57 Cd 0.11473 0.64227 0.46617 0.0
Cd58 Cd 0.0779 0.61674 0.46221 0.0
O59 O 0.09027 0.61551 0.44459 0.0
O60 O 0.14248 0.65572 0.47045 0.0
O61 O 0.13282 0.62423 0.47747 0.0
C62 C 0.14699 0.63906 0.47681 0.0
C63 C 0.06235 0.58608 0.47054 0.0
C64 C 0.10606 0.62589 0.44042 0.0
C65 C 0.07217 0.66184 0.47176 0.0
O66 O 0.06383 0.64473 0.46784 0.0
O67 O 0.09228 0.66384 0.47228 0.0
O68 O 0.05339 0.59661 0.46181 0.0
O69 O 0.08068 0.5926 0.47437 0.0
O70 O 0.61813 0.86696 0.69688 0.0
Cd71 Cd 0.61313 0.86533 0.71557 0.0
Cd72 Cd 0.63845 0.82815 0.71219 0.0
O73 O 0.64036 0.84011 0.6945 0.0
O74 O 0.59985 0.8934 0.71923 0.0
O75 O 0.63083 0.88365 0.72693 0.0
C76 C 0.61624 0.89798 0.72581 0.0
C77 C 0.66871 0.81215 0.72075 0.0
C78 C 0.63005 0.85571 0.69006 0.0
C79 C 0.59302 0.82317 0.72141 0.0
O80 O 0.61011 0.81456 0.71765 0.0
O81 O 0.59126 0.84329 0.7218 0.0
O82 O 0.65813 0.80329 0.71201 0.0
O83 O 0.66245 0.83061 0.72449 0.0
O84 O 0.38954 0.3695 0.94745 0.0
Cd85 Cd 0.39139 0.36339 0.96601 0.0
Cd86 Cd 0.42931 0.38838 0.96222 0.0
O87 O 0.4172 0.39054 0.94458 0.0
O88 O 0.36332 0.34941 0.96873 0.0
O89 O 0.37241 0.37936 0.97791 0.0
C90 C 0.35827 0.36488 0.9759 0.0
C91 C 0.44537 0.41849 0.97092 0.0
C92 C 0.40095 0.3809 0.94041 0.0
C93 C 0.43364 0.34271 0.9713 0.0
O94 O 0.44242 0.35976 0.9676 0.0
O95 O 0.41348 0.34117 0.97178 0.0
O96 O 0.4543 0.40794 0.96219 0.0
O97 O 0.42685 0.41225 0.97458 0.0
O98 O 0.88866 0.13869 0.19765 0.0
Cd99 Cd 0.89243 0.14138 0.21648 0.0
Cd100 Cd 0.86691 0.17729 0.21159 0.0
O101 O 0.86424 0.16329 0.19454 0.0
O102 O 0.90642 0.11389 0.22071 0.0
O103 O 0.87462 0.12271 0.22761 0.0
C104 C 0.88974 0.10886 0.22692 0.0
C105 C 0.83691 0.19336 0.22037 0.0
C106 C 0.87583 0.14827 0.19052 0.0
C107 C 0.91188 0.18417 0.22076 0.0
O108 O 0.89544 0.19187 0.21563 0.0
O109 O 0.91317 0.16437 0.223 0.0
O110 O 0.84655 0.20159 0.21107 0.0
O111 O 0.844 0.17551 0.22457 0.0
O112 O 0.89028 0.63848 0.94669 0.0
Cd113 Cd 0.89234 0.6437 0.96542 0.0
Cd114 Cd 0.92915 0.61824 0.96113 0.0
O115 O 0.91599 0.61511 0.94389 0.0
O116 O 0.86455 0.65801 0.96846 0.0
O117 O 0.87312 0.62733 0.977 0.0
C118 C 0.85924 0.64218 0.9753 0.0
C119 C 0.94511 0.58849 0.97024 0.0
C120 C 0.90054 0.62593 0.93971 0.0
C121 C 0.93496 0.6636 0.97008 0.0
O122 O 0.9431 0.64698 0.96539 0.0
O123 O 0.915 0.66496 0.97179 0.0
O124 O 0.95373 0.59821 0.96109 0.0
O125 O 0.92696 0.59539 0.97412 0.0
O126 O 0.11979 0.13969 0.69701 0.0
Cd127 Cd 0.11353 0.14119 0.71557 0.0
Cd128 Cd 0.13894 0.17894 0.71236 0.0
O129 O 0.14136 0.16709 0.69467 0.0
O130 O 0.09975 0.11304 0.71836 0.0
O131 O 0.12966 0.12245 0.7275 0.0
C132 C 0.11523 0.10821 0.72558 0.0
C133 C 0.16895 0.19512 0.72113 0.0
C134 C 0.13157 0.15116 0.69022 0.0
C135 C 0.09308 0.18339 0.72114 0.0
O136 O 0.1103 0.19211 0.71765 0.0
O137 O 0.09134 0.16324 0.72141 0.0
O138 O 0.15839 0.20401 0.71239 0.0
O139 O 0.16278 0.17657 0.72477 0.0
O140 O 0.61649 0.36608 0.4478 0.0
Cd141 Cd 0.61374 0.36156 0.46648 0.0
Cd142 Cd 0.57776 0.38815 0.46217 0.0
O143 O 0.59061 0.38917 0.44467 0.0
O144 O 0.64121 0.3475 0.47071 0.0
O145 O 0.63216 0.37904 0.47791 0.0
C146 C 0.64608 0.36399 0.47714 0.0
C147 C 0.56265 0.41908 0.47044 0.0
C148 C 0.60609 0.37819 0.44064 0.0
C149 C 0.57054 0.34322 0.47173 0.0
O150 O 0.56285 0.3605 0.46762 0.0
O151 O 0.59056 0.34067 0.47253 0.0
O152 O 0.55374 0.40883 0.46158 0.0
O153 O 0.58071 0.41214 0.47443 0.0
O154 O 0.38743 0.86729 0.19748 0.0
Cd155 Cd 0.39267 0.86507 0.21612 0.0
Cd156 Cd 0.36664 0.82821 0.21231 0.0
O157 O 0.36502 0.84068 0.19472 0.0
O158 O 0.40629 0.89293 0.21994 0.0
O159 O 0.37524 0.88338 0.22762 0.0
C160 C 0.38995 0.8976 0.22654 0.0
C161 C 0.33624 0.81218 0.22069 0.0
C162 C 0.37546 0.85639 0.19049 0.0
C163 C 0.41209 0.82245 0.22156 0.0
O164 O 0.3948 0.81425 0.21777 0.0
O165 O 0.41429 0.84253 0.22206 0.0
O166 O 0.34676 0.80349 0.21187 0.0
O167 O 0.3426 0.83051 0.22459 0.0
O168 O 0.89011 0.36851 0.55393 0.0
Cd169 Cd 0.89177 0.36247 0.53534 0.0
Cd170 Cd 0.92931 0.38811 0.53847 0.0
O171 O 0.91799 0.38949 0.5563 0.0
O172 O 0.86376 0.34876 0.53197 0.0
O173 O 0.87318 0.37941 0.52373 0.0
C174 C 0.85897 0.36477 0.52513 0.0
C175 C 0.94502 0.41862 0.53003 0.0
C176 C 0.90193 0.3799 0.56075 0.0
C177 C 0.93414 0.34261 0.52928 0.0
O178 O 0.94271 0.35997 0.53263 0.0
O179 O 0.91402 0.34048 0.52938 0.0
O180 O 0.95418 0.40781 0.53856 0.0
O181 O 0.92643 0.41244 0.52643 0.0
O182 O 0.38431 0.14037 0.30359 0.0
Cd183 Cd 0.39148 0.14263 0.28513 0.0
Cd184 Cd 0.36718 0.18114 0.2885 0.0
O185 O 0.36622 0.17014 0.30639 0.0
O186 O 0.40494 0.1145 0.28181 0.0
O187 O 0.37487 0.12452 0.27311 0.0
C188 C 0.3892 0.11006 0.27469 0.0
C189 C 0.33661 0.19682 0.28014 0.0
C190 C 0.37422 0.15304 0.31056 0.0
C191 C 0.41263 0.18476 0.27935 0.0
O192 O 0.39538 0.19383 0.28241 0.0
O193 O 0.4143 0.1646 0.27968 0.0
O194 O 0.34766 0.20613 0.28853 0.0
O195 O 0.34261 0.17813 0.27664 0.0
O196 O 0.61623 0.63685 0.05408 0.0
Cd197 Cd 0.61421 0.64347 0.03559 0.0
Cd198 Cd 0.57666 0.61776 0.03906 0.0
O199 O 0.58858 0.61573 0.05677 0.0
O200 O 0.64222 0.6575 0.03277 0.0
O201 O 0.63289 0.62775 0.02344 0.0
C202 C 0.64707 0.64221 0.02543 0.0
C203 C 0.56077 0.58753 0.03039 0.0
C204 C 0.60479 0.62533 0.06102 0.0
C205 C 0.57178 0.66361 0.03027 0.0
O206 O 0.56327 0.6462 0.03361 0.0
O207 O 0.5919 0.66568 0.03011 0.0
O208 O 0.55177 0.59807 0.0391 0.0
O209 O 0.57928 0.59383 0.02674 0.0
O210 O 0.12261 0.86466 0.80454 0.0
Cd211 Cd 0.11539 0.86326 0.78608 0.0
Cd212 Cd 0.1398 0.82467 0.78923 0.0
O213 O 0.1426 0.83612 0.80697 0.0
O214 O 0.10165 0.89155 0.78376 0.0
O215 O 0.13093 0.88219 0.77397 0.0
C216 C 0.11674 0.89647 0.7763 0.0
C217 C 0.16949 0.80841 0.78022 0.0
C218 C 0.13379 0.85265 0.81136 0.0
C219 C 0.09377 0.82142 0.78065 0.0
O220 O 0.11086 0.81223 0.78394 0.0
O221 O 0.09252 0.84161 0.78053 0.0
O222 O 0.15891 0.79937 0.7889 0.0
O223 O 0.16348 0.82712 0.77676 0.0
O224 O 0.61788 0.86588 0.55264 0.0
Cd225 Cd 0.61585 0.86134 0.53394 0.0
Cd226 Cd 0.57925 0.88727 0.53777 0.0
O227 O 0.59147 0.8885 0.55543 0.0
O228 O 0.64375 0.84794 0.53001 0.0
O229 O 0.6342 0.8793 0.52276 0.0
C230 C 0.64845 0.86459 0.52368 0.0
C231 C 0.56393 0.91804 0.52942 0.0
C232 C 0.60701 0.87781 0.55966 0.0
C233 C 0.57328 0.84218 0.5281 0.0
O234 O 0.5651 0.85935 0.53205 0.0
O235 O 0.59337 0.83997 0.52763 0.0
O236 O 0.55483 0.9075 0.53809 0.0
O237 O 0.58226 0.91145 0.52565 0.0
O238 O 0.38936 0.36679 0.80337 0.0
Cd239 Cd 0.39419 0.36475 0.7847 0.0
Cd240 Cd 0.36785 0.32831 0.78832 0.0
O241 O 0.36636 0.34064 0.80595 0.0
O242 O 0.40777 0.39259 0.78083 0.0
O243 O 0.37656 0.38307 0.77333 0.0
C244 C 0.39131 0.39727 0.77433 0.0
C245 C 0.33722 0.3127 0.77993 0.0
C246 C 0.37715 0.35602 0.81029 0.0
C247 C 0.41321 0.32212 0.77905 0.0
O248 O 0.39586 0.31405 0.78282 0.0
O249 O 0.41559 0.34218 0.7786 0.0
O250 O 0.34771 0.30379 0.78869 0.0
O251 O 0.34376 0.331 0.77608 0.0
O252 O 0.89029 0.13548 0.05358 0.0
Cd253 Cd 0.89261 0.14104 0.03496 0.0
Cd254 Cd 0.93004 0.11599 0.03893 0.0
O255 O 0.91734 0.11365 0.05641 0.0
O256 O 0.86474 0.15483 0.03133 0.0
O257 O 0.87413 0.124 0.02332 0.0
C258 C 0.85996 0.13871 0.02458 0.0
C259 C 0.94617 0.08595 0.03024 0.0
C260 C 0.90132 0.12366 0.06058 0.0
C261 C 0.93506 0.16152 0.02996 0.0
O262 O 0.94365 0.14454 0.03389 0.0
O263 O 0.91494 0.16302 0.02914 0.0
O264 O 0.95482 0.09621 0.03918 0.0
O265 O 0.92786 0.09242 0.02636 0.0
O266 O 0.11733 0.63923 0.3032 0.0
Cd267 Cd 0.11313 0.64183 0.28445 0.0
Cd268 Cd 0.13896 0.67805 0.28868 0.0
O269 O 0.14085 0.66482 0.30604 0.0
O270 O 0.09954 0.61426 0.27996 0.0
O271 O 0.13134 0.62368 0.27328 0.0
C272 C 0.11636 0.60964 0.27376 0.0
C273 C 0.16935 0.69385 0.28016 0.0
C274 C 0.12978 0.64952 0.31022 0.0
C275 C 0.09385 0.68464 0.27942 0.0
O276 O 0.11081 0.69263 0.28379 0.0
O277 O 0.09201 0.66461 0.2782 0.0
O278 O 0.15929 0.70239 0.2892 0.0
O279 O 0.16252 0.67579 0.2761 0.0
O280 O 0.61693 0.13927 0.948 0.0
Cd281 Cd 0.61453 0.14377 0.96669 0.0
Cd282 Cd 0.57806 0.11765 0.9625 0.0
O283 O 0.59069 0.11654 0.94494 0.0
O284 O 0.64231 0.15737 0.97075 0.0
O285 O 0.63285 0.12598 0.978 0.0
C286 C 0.64703 0.14078 0.97713 0.0
C287 C 0.56251 0.08689 0.97073 0.0
C288 C 0.60627 0.12734 0.94086 0.0
C289 C 0.57171 0.16272 0.97214 0.0
O290 O 0.56371 0.14553 0.96808 0.0
O291 O 0.59178 0.165 0.97284 0.0
O292 O 0.55368 0.09737 0.96194 0.0
O293 O 0.58073 0.09351 0.97468 0.0
O294 O 0.11488 0.36697 0.19866 0.0
Cd295 Cd 0.11235 0.36359 0.21753 0.0
Cd296 Cd 0.13825 0.32888 0.21196 0.0
O297 O 0.14043 0.34373 0.19514 0.0
O298 O 0.09822 0.39058 0.22259 0.0
O299 O 0.13093 0.38227 0.22821 0.0
C300 C 0.11546 0.3958 0.22822 0.0
C301 C 0.16862 0.3135 0.22071 0.0
C302 C 0.12804 0.35829 0.19135 0.0
C303 C 0.09393 0.32038 0.22143 0.0
O304 O 0.11015 0.31335 0.21579 0.0
O305 O 0.09251 0.33996 0.22422 0.0
O306 O 0.1594 0.30529 0.21126 0.0
O307 O 0.16093 0.331 0.22506 0.0
O308 O 0.89142 0.86878 0.44735 0.0
Cd309 Cd 0.89387 0.86388 0.46602 0.0
Cd310 Cd 0.93123 0.88859 0.46171 0.0
O311 O 0.91851 0.89043 0.44419 0.0
O312 O 0.86599 0.85026 0.4698 0.0
O313 O 0.8755 0.88127 0.47753 0.0
C314 C 0.86129 0.86657 0.47641 0.0
C315 C 0.947 0.9189 0.47032 0.0
C316 C 0.90243 0.88031 0.44018 0.0
C317 C 0.93622 0.84338 0.47117 0.0
O318 O 0.94486 0.86019 0.46703 0.0
O319 O 0.9161 0.842 0.47204 0.0
O320 O 0.95586 0.90858 0.46148 0.0
O321 O 0.92867 0.91235 0.47413 0.0
O322 O 0.38974 0.63939 0.6964 0.0
Cd323 Cd 0.39494 0.64146 0.71505 0.0
Cd324 Cd 0.36834 0.67757 0.71173 0.0
O325 O 0.3666 0.66546 0.69406 0.0
O326 O 0.40841 0.6136 0.71896 0.0
O327 O 0.3773 0.62334 0.72651 0.0
C328 C 0.39197 0.60906 0.72552 0.0
C329 C 0.33769 0.69269 0.72035 0.0
C330 C 0.37733 0.65016 0.68961 0.0
C331 C 0.41376 0.68417 0.72075 0.0
O332 O 0.39626 0.6921 0.71712 0.0
O333 O 0.41634 0.66412 0.72109 0.0
O334 O 0.34793 0.70184 0.71157 0.0
O335 O 0.34452 0.67443 0.72408 0.0
O336 O 0.39062 0.13276 0.44661 0.0
Cd337 Cd 0.3925 0.13991 0.4651 0.0
Cd338 Cd 0.43183 0.11688 0.46166 0.0
O339 O 0.42095 0.11566 0.44376 0.0
O340 O 0.36416 0.15316 0.46815 0.0
O341 O 0.37421 0.12329 0.47705 0.0
C342 C 0.35968 0.1375 0.47531 0.0
C343 C 0.44782 0.08662 0.47017 0.0
C344 C 0.40361 0.12315 0.43961 0.0
C345 C 0.43413 0.16225 0.47094 0.0
O346 O 0.44379 0.1454 0.46773 0.0
O347 O 0.41391 0.16314 0.47071 0.0
O348 O 0.45715 0.09778 0.46184 0.0
O349 O 0.42897 0.09235 0.47354 0.0
O350 O 0.61634 0.63919 0.19814 0.0
Cd351 Cd 0.61167 0.64146 0.21683 0.0
Cd352 Cd 0.63719 0.67839 0.2128 0.0
O353 O 0.63887 0.66565 0.19528 0.0
O354 O 0.59823 0.61358 0.22077 0.0
O355 O 0.62947 0.62321 0.22818 0.0
C356 C 0.61477 0.60895 0.22722 0.0
C357 C 0.66766 0.69432 0.22117 0.0
C358 C 0.62831 0.64998 0.1911 0.0
C359 C 0.59193 0.68399 0.22222 0.0
O360 O 0.60896 0.69234 0.21818 0.0
O361 O 0.59011 0.66389 0.22296 0.0
O362 O 0.65718 0.70303 0.21234 0.0
O363 O 0.66118 0.67605 0.22511 0.0
O364 O 0.11747 0.8651 0.94858 0.0
Cd365 Cd 0.1139 0.86282 0.96745 0.0
Cd366 Cd 0.07929 0.8887 0.96172 0.0
O367 O 0.09432 0.89069 0.94493 0.0
O368 O 0.14085 0.84889 0.97276 0.0
O369 O 0.13232 0.88166 0.97812 0.0
C370 C 0.14589 0.86624 0.97833 0.0
C371 C 0.0638 0.9191 0.97035 0.0
C372 C 0.10887 0.87823 0.94121 0.0
C373 C 0.07058 0.84458 0.97138 0.0
O374 O 0.06363 0.86072 0.96563 0.0
O375 O 0.09015 0.84315 0.97419 0.0
O376 O 0.05573 0.90986 0.96086 0.0
O377 O 0.08126 0.91144 0.97478 0.0
O378 O 0.88925 0.36667 0.69771 0.0
Cd379 Cd 0.89419 0.36439 0.71639 0.0
Cd380 Cd 0.86821 0.32766 0.71271 0.0
O381 O 0.86734 0.33961 0.69501 0.0
O382 O 0.9079 0.39204 0.7206 0.0
O383 O 0.87631 0.38271 0.72765 0.0
C384 C 0.89126 0.39676 0.72694 0.0
C385 C 0.83732 0.3124 0.72095 0.0
C386 C 0.87759 0.3554 0.69073 0.0
C387 C 0.91327 0.32162 0.72224 0.0
O388 O 0.89597 0.31343 0.7185 0.0
O389 O 0.91559 0.34171 0.72254 0.0
O390 O 0.84793 0.30328 0.71232 0.0
O391 O 0.84389 0.33073 0.72474 0.0
O392 O 0.38965 0.86816 0.0533 0.0
Cd393 Cd 0.39206 0.86403 0.03456 0.0
Cd394 Cd 0.42865 0.88963 0.03864 0.0
O395 O 0.4158 0.89109 0.05614 0.0
O396 O 0.36445 0.85042 0.03013 0.0
O397 O 0.3738 0.88221 0.02342 0.0
C398 C 0.35979 0.86721 0.02392 0.0
C399 C 0.44426 0.92025 0.03029 0.0
C400 C 0.40033 0.88026 0.06033 0.0
C401 C 0.43475 0.8446 0.02916 0.0
O402 O 0.44301 0.86158 0.03332 0.0
O403 O 0.41466 0.84276 0.02831 0.0
O404 O 0.45302 0.90992 0.03916 0.0
O405 O 0.42609 0.91354 0.02631 0.0
O406 O 0.88826 0.63953 0.80262 0.0
Cd407 Cd 0.893 0.64242 0.78396 0.0
Cd408 Cd 0.86692 0.67881 0.78823 0.0
O409 O 0.86557 0.66579 0.80568 0.0
O410 O 0.90687 0.61497 0.7795 0.0
O411 O 0.87524 0.62429 0.77252 0.0
C412 C 0.89027 0.61033 0.77311 0.0
C413 C 0.83629 0.69453 0.77997 0.0
C414 C 0.87622 0.6501 0.80973 0.0
C415 C 0.91206 0.6854 0.77889 0.0
O416 O 0.89485 0.69336 0.78293 0.0
O417 O 0.91427 0.66536 0.77806 0.0
O418 O 0.84665 0.70316 0.78888 0.0
O419 O 0.84295 0.67641 0.77592 0.0
O420 O 0.11774 0.13862 0.55291 0.0
Cd421 Cd 0.11502 0.14297 0.53421 0.0
Cd422 Cd 0.07833 0.11769 0.53874 0.0
O423 O 0.09139 0.11613 0.55618 0.0
O424 O 0.14279 0.15644 0.53001 0.0
O425 O 0.13314 0.12506 0.52284 0.0
C426 C 0.14737 0.13982 0.52363 0.0
C427 C 0.06276 0.08719 0.53024 0.0
C428 C 0.10716 0.12679 0.56014 0.0
C429 C 0.07235 0.16272 0.52918 0.0
O430 O 0.06412 0.14584 0.5335 0.0
O431 O 0.09242 0.16442 0.52811 0.0
O432 O 0.05397 0.09738 0.53916 0.0
O433 O 0.08093 0.09395 0.52631 0.0
O434 O 0.61869 0.36542 0.30361 0.0
Cd435 Cd 0.61371 0.36348 0.28493 0.0
Cd436 Cd 0.6395 0.32658 0.28857 0.0
O437 O 0.64121 0.33887 0.30619 0.0
O438 O 0.6 0.39134 0.28123 0.0
O439 O 0.63117 0.38208 0.27359 0.0
C440 C 0.61637 0.3962 0.27471 0.0
C441 C 0.67006 0.31104 0.2801 0.0
C442 C 0.63073 0.35445 0.31052 0.0
C443 C 0.59421 0.32089 0.27924 0.0
O444 O 0.61134 0.31255 0.28314 0.0
O445 O 0.59224 0.341 0.27871 0.0
O446 O 0.65963 0.30208 0.28887 0.0
O447 O 0.66345 0.32932 0.27627 0.0
H448 H 0.93228 0.56521 0.99027 0.0
H449 H 0.95196 0.53669 0.00064 0.0
H450 H 1.00258 0.54261 0.97414 0.0
H451 H 0.98323 0.5711 0.96381 0.0
H452 H 0.96703 0.49737 0.99105 0.0
H453 H 0.03343 0.54834 0.00731 0.0
H454 H 0.00854 0.55915 0.00187 0.0
H455 H 0.02824 0.55008 0.99111 0.0
C456 C 0.94758 0.5604 0.98664 0.0
C457 C 0.95624 0.57052 0.97626 0.0
C458 C 0.95881 0.54413 0.99258 0.0
C459 C 0.9789 0.53783 0.98829 0.0
C460 C 0.98732 0.54755 0.97777 0.0
H461 H 0.07277 0.44367 0.01071 0.0
H462 H 0.05311 0.47228 1.00041 0.0
C463 C 0.97614 0.56375 0.97183 0.0
C464 C 0.99104 0.52092 0.9947 0.0
H465 H 0.03771 0.51109 0.00976 0.0
C466 C 0.98243 0.50037 0.99521 0.0
C467 C 0.01118 0.52489 1.00005 0.0
C468 C 0.02086 0.54684 1.00018 0.0
C469 C 0.99358 0.48355 0.00075 0.0
C470 C 0.0137 0.48752 0.00612 0.0
C471 C 0.02232 0.50808 0.00561 0.0
C472 C 0.02586 0.47061 0.01252 0.0
C473 C 0.98392 0.46159 0.00055 0.0
C474 C 0.01728 0.46056 0.0229 0.0
C475 C 0.02843 0.44427 0.02877 0.0
C476 C 0.0485 0.43778 0.02445 0.0
C477 C 0.05735 0.44827 0.01425 0.0
C478 C 0.04613 0.46459 0.00835 0.0
H479 H 0.97154 0.46007 0.99331 0.0
H480 H 0.99627 0.44927 0.99897 0.0
H481 H 0.97628 0.45837 0.00956 0.0
H482 H 1.0019 0.46528 0.02644 0.0
H483 H 0.0212 0.43665 0.03666 0.0
H484 H 0.69165 0.68199 0.24103 0.0
H485 H 0.72024 0.70211 0.25107 0.0
H486 H 0.71354 0.75198 0.22416 0.0
H487 H 0.68494 0.73221 0.21419 0.0
H488 H 0.75924 0.7172 0.24156 0.0
H489 H 0.70777 0.78384 0.25684 0.0
H490 H 0.69712 0.75879 0.25156 0.0
H491 H 0.70626 0.77827 0.24068 0.0
C492 C 0.69632 0.6972 0.23723 0.0
C493 C 0.68591 0.70555 0.22686 0.0
C494 C 0.71263 0.70868 0.24298 0.0
C495 C 0.71871 0.72873 0.2385 0.0
C496 C 0.70877 0.73678 0.22794 0.0
H497 H 0.81274 0.82354 0.26003 0.0
H498 H 0.78423 0.80351 0.24986 0.0
C499 C 0.6925 0.72536 0.22221 0.0
C500 C 0.73553 0.74123 0.24478 0.0
H501 H 0.74499 0.78848 0.25931 0.0
C502 C 0.75612 0.73273 0.2455 0.0
C503 C 0.73142 0.76154 0.24987 0.0
C504 C 0.70941 0.77111 0.24982 0.0
C505 C 0.77281 0.74415 0.25099 0.0
C506 C 0.7687 0.76445 0.25609 0.0
C507 C 0.74811 0.77296 0.25536 0.0
C508 C 0.78548 0.77689 0.26244 0.0
C509 C 0.79481 0.73457 0.25106 0.0
C510 C 0.79523 0.76881 0.27304 0.0
C511 C 0.81144 0.78019 0.27886 0.0
C512 C 0.81817 0.79997 0.27424 0.0
C513 C 0.80795 0.80834 0.26381 0.0
C514 C 0.79169 0.79691 0.25798 0.0
H515 H 0.79647 0.72184 0.24405 0.0
H516 H 0.80711 0.74689 0.24934 0.0
H517 H 0.79794 0.72742 0.26021 0.0
H518 H 0.79036 0.75363 0.2768 0.0
H519 H 0.81885 0.77332 0.28692 0.0
H520 H 0.52517 0.43717 0.46341 0.0
H521 H 0.50581 0.46593 0.47349 0.0
H522 H 0.55552 0.47114 0.50063 0.0
H523 H 0.57521 0.44243 0.49049 0.0
H524 H 0.49068 0.46615 0.49754 0.0
H525 H 0.54692 0.53286 0.48962 0.0
H526 H 0.5485 0.50812 0.48125 0.0
H527 H 0.55853 0.50981 0.49669 0.0
C528 C 0.53215 0.44456 0.47145 0.0
C529 C 0.55179 0.43753 0.47613 0.0
C530 C 0.52101 0.46098 0.47721 0.0
C531 C 0.52929 0.47081 0.48774 0.0
C532 C 0.54901 0.46403 0.49239 0.0
H533 H 0.48305 0.56898 0.53675 0.0
H534 H 0.50255 0.54024 0.52674 0.0
C535 C 0.56021 0.44757 0.48661 0.0
C536 C 0.51677 0.48752 0.4941 0.0
H537 H 0.51771 0.53968 0.5028 0.0
C538 C 0.49654 0.48226 0.49865 0.0
C539 C 0.52447 0.5085 0.49556 0.0
C540 C 0.54571 0.51529 0.49044 0.0
C541 C 0.48392 0.49732 0.50479 0.0
C542 C 0.49161 0.51831 0.50623 0.0
C543 C 0.51185 0.52357 0.50169 0.0
C544 C 0.47904 0.53505 0.51254 0.0
C545 C 0.4627 0.49051 0.50992 0.0
C546 C 0.45927 0.54167 0.50789 0.0
C547 C 0.44799 0.55811 0.51363 0.0
C548 C 0.45638 0.56831 0.52406 0.0
C549 C 0.47609 0.56147 0.52874 0.0
C550 C 0.48731 0.54506 0.52302 0.0
H551 H 0.46157 0.47295 0.51082 0.0
H552 H 0.45984 0.49779 0.51907 0.0
H553 H 0.44988 0.49583 0.50363 0.0
H554 H 0.45277 0.53443 0.49968 0.0
H555 H 0.43294 0.56311 0.50975 0.0
H556 H 0.81993 0.27441 0.71428 0.0
H557 H 0.79105 0.25513 0.7243 0.0
H558 H 0.78435 0.30587 0.75067 0.0
H559 H 0.81318 0.32548 0.74058 0.0
H560 H 0.79013 0.24098 0.74851 0.0
H561 H 0.72311 0.29613 0.73909 0.0
H562 H 0.74813 0.29767 0.73099 0.0
H563 H 0.74579 0.30828 0.74627 0.0
C564 C 0.81219 0.28162 0.72213 0.0
C565 C 0.81883 0.30154 0.72661 0.0
C566 C 0.7957 0.27053 0.72787 0.0
C567 C 0.78541 0.27913 0.73816 0.0
C568 C 0.79182 0.29911 0.7426 0.0
H569 H 0.68644 0.23379 0.78688 0.0
H570 H 0.71515 0.25323 0.77679 0.0
C571 C 0.80835 0.31026 0.73685 0.0
C572 C 0.76861 0.26669 0.74449 0.0
H573 H 0.71616 0.26741 0.75261 0.0
C574 C 0.77392 0.24671 0.74937 0.0
C575 C 0.7475 0.27421 0.74561 0.0
C576 C 0.74066 0.29516 0.74013 0.0
C577 C 0.75878 0.23418 0.75551 0.0
C578 C 0.73767 0.24169 0.75662 0.0
C579 C 0.73236 0.26168 0.75175 0.0
C580 C 0.72087 0.22924 0.76294 0.0
C581 C 0.76563 0.21324 0.761 0.0
C582 C 0.71454 0.20922 0.75851 0.0
C583 C 0.69812 0.19798 0.7643 0.0
C584 C 0.68765 0.20664 0.77456 0.0
C585 C 0.69417 0.22662 0.77901 0.0
C586 C 0.71056 0.2378 0.77324 0.0
H587 H 0.78318 0.21231 0.76207 0.0
H588 H 0.75814 0.21072 0.77013 0.0
H589 H 0.76056 0.20012 0.75485 0.0
H590 H 0.72202 0.20248 0.75044 0.0
H591 H 0.69338 0.18271 0.7606 0.0
H592 H 0.9835 0.4353 0.53638 0.0
H593 H 1.00293 0.46401 0.5263 0.0
H594 H 0.9516 0.47172 0.50039 0.0
H595 H 0.93183 0.44308 0.51055 0.0
H596 H 0.01658 0.46522 0.50206 0.0
H597 H 0.96227 0.53261 0.51214 0.0
H598 H 0.96059 0.50749 0.5201 0.0
H599 H 0.94972 0.51021 0.5049 0.0
C600 C 0.9762 0.44322 0.52861 0.0
C601 C 0.95606 0.43692 0.52429 0.0
C602 C 0.98738 0.45961 0.52284 0.0
C603 C 0.97865 0.47015 0.51267 0.0
C604 C 0.95847 0.46406 0.50837 0.0
H605 H 0.02407 0.56913 0.464 0.0
H606 H 0.0046 0.54042 0.47406 0.0
C607 C 0.94723 0.44764 0.51416 0.0
C608 C 0.99113 0.48691 0.50632 0.0
H609 H 0.99075 0.53945 0.49842 0.0
C610 C 0.01098 0.48147 0.5013 0.0
C611 C 0.98379 0.5081 0.50534 0.0
C612 C 0.96302 0.51507 0.51099 0.0
C613 C 0.02354 0.49657 0.49515 0.0
C614 C 0.0162 0.51775 0.49417 0.0
C615 C 0.99635 0.52319 0.49918 0.0
C616 C 0.02869 0.53451 0.48783 0.0
C617 C 0.04434 0.48962 0.48952 0.0
C618 C 0.04878 0.54072 0.49222 0.0
C619 C 0.06003 0.55715 0.48645 0.0
C620 C 0.05132 0.56774 0.47624 0.0
C621 C 0.03129 0.56131 0.47183 0.0
C622 C 0.02009 0.54492 0.47758 0.0
H623 H 0.04516 0.47208 0.48843 0.0
H624 H 0.04673 0.49713 0.48039 0.0
H625 H 0.05762 0.49461 0.49559 0.0
H626 H 0.05556 0.53315 0.50025 0.0
H627 H 0.07534 0.56182 0.49013 0.0
H628 H 0.68557 0.77392 0.71411 0.0
H629 H 0.71389 0.75408 0.72429 0.0
H630 H 0.72103 0.80454 0.7508 0.0
H631 H 0.69273 0.82473 0.74055 0.0
H632 H 0.75988 0.78877 0.74148 0.0
H633 H 0.70758 0.72311 0.75722 0.0
H634 H 0.70616 0.72828 0.74101 0.0
H635 H 0.69725 0.74814 0.75172 0.0
C636 C 0.69317 0.78088 0.72209 0.0
C637 C 0.68679 0.80087 0.72656 0.0
C638 C 0.70927 0.76943 0.72794 0.0
C639 C 0.71925 0.77763 0.73845 0.0
C640 C 0.71339 0.79785 0.74276 0.0
H641 H 0.81905 0.73242 0.78697 0.0
H642 H 0.79061 0.7523 0.77693 0.0
C643 C 0.69725 0.80937 0.73688 0.0
C644 C 0.73588 0.76509 0.74485 0.0
H645 H 0.74478 0.71797 0.75963 0.0
C646 C 0.75657 0.77336 0.74552 0.0
C647 C 0.73152 0.74493 0.75007 0.0
C648 C 0.70939 0.73563 0.75009 0.0
C649 C 0.77313 0.76182 0.75106 0.0
C650 C 0.76877 0.74165 0.75625 0.0
C651 C 0.74808 0.7334 0.7556 0.0
C652 C 0.78544 0.72906 0.76259 0.0
C653 C 0.79526 0.77113 0.75107 0.0
C654 C 0.79145 0.709 0.75811 0.0
C655 C 0.80768 0.69746 0.76389 0.0
C656 C 0.81806 0.70577 0.77429 0.0
C657 C 0.8115 0.72559 0.77894 0.0
C658 C 0.79533 0.73707 0.77317 0.0
H659 H 0.79703 0.78383 0.74405 0.0
H660 H 0.79855 0.77824 0.76021 0.0
H661 H 0.80737 0.75866 0.74932 0.0
H662 H 0.78387 0.70246 0.75001 0.0
H663 H 0.81233 0.68224 0.76009 0.0
H664 H 0.48389 0.43512 0.96459 0.0
H665 H 0.50341 0.46372 0.97472 0.0
H666 H 0.45216 0.47145 0.00066 0.0
H667 H 0.4323 0.44286 0.99045 0.0
H668 H 0.46803 0.51008 0.99104 0.0
H669 H 0.53347 0.45865 0.00802 0.0
H670 H 0.52874 0.4567 0.99179 0.0
H671 H 0.50863 0.44802 0.0024 0.0
C672 C 0.4767 0.44289 0.97243 0.0
C673 C 0.45656 0.43661 0.97676 0.0
C674 C 0.48797 0.45917 0.97826 0.0
C675 C 0.47943 0.46942 0.98859 0.0
C676 C 0.4591 0.46361 0.99275 0.0
H677 H 0.52228 0.5708 0.03669 0.0
H678 H 0.50283 0.5422 0.02652 0.0
C679 C 0.44777 0.44729 0.98691 0.0
C680 C 0.49171 0.48632 0.99494 0.0
H681 H 0.53826 0.49591 0.01018 0.0
C682 C 0.48333 0.50698 0.99529 0.0
C683 C 0.51171 0.48223 1.00043 0.0
C684 C 0.52113 0.46017 0.00076 0.0
C685 C 0.49458 0.52376 0.0008 0.0
C686 C 0.51458 0.51967 0.00629 0.0
C687 C 0.52297 0.49901 0.00593 0.0
C688 C 0.52684 0.53657 0.01267 0.0
C689 C 0.48517 0.54582 1.00046 0.0
C690 C 0.54717 0.54241 0.00852 0.0
C691 C 0.55846 0.55873 0.01438 0.0
C692 C 0.54964 0.56938 0.02454 0.0
C693 C 0.5295 0.56305 0.02885 0.0
C694 C 0.51827 0.54678 0.023 0.0
H695 H 0.47284 0.54735 0.99319 0.0
H696 H 0.47753 0.54928 0.00943 0.0
H697 H 0.49767 0.55798 0.99884 0.0
H698 H 0.55414 0.5346 0.00062 0.0
H699 H 0.57394 0.56319 0.01085 0.0
H700 H 0.81412 0.18165 0.24081 0.0
H701 H 0.78543 0.20159 0.25084 0.0
H702 H 0.79078 0.25076 0.2234 0.0
H703 H 0.81911 0.23092 0.21326 0.0
H704 H 0.7876 0.24271 0.26065 0.0
H705 H 0.72706 0.23856 0.22363 0.0
H706 H 0.75012 0.22147 0.22396 0.0
H707 H 0.7524 0.24842 0.2186 0.0
C708 C 0.80901 0.19659 0.23684 0.0
C709 C 0.81884 0.20463 0.2262 0.0
C710 C 0.79267 0.20799 0.24259 0.0
C711 C 0.78577 0.22752 0.23777 0.0
C712 C 0.79551 0.23552 0.22714 0.0
H713 H 0.69353 0.32355 0.26009 0.0
H714 H 0.72252 0.30396 0.2501 0.0
C715 C 0.81181 0.22418 0.22139 0.0
C716 C 0.76902 0.24003 0.2441 0.0
H717 H 0.72011 0.2626 0.24001 0.0
C718 C 0.77278 0.24695 0.25617 0.0
C719 C 0.74976 0.24567 0.23821 0.0
C720 C 0.74445 0.238 0.22543 0.0
C721 C 0.75794 0.25963 0.26245 0.0
C722 C 0.73869 0.26526 0.25655 0.0
C723 C 0.73494 0.25837 0.24448 0.0
C724 C 0.72189 0.27764 0.26291 0.0
C725 C 0.76318 0.26723 0.27525 0.0
C726 C 0.71191 0.26932 0.27338 0.0
C727 C 0.69541 0.28043 0.27908 0.0
C728 C 0.68845 0.30009 0.2744 0.0
C729 C 0.69859 0.30851 0.26396 0.0
C730 C 0.7151 0.29732 0.25823 0.0
H731 H 0.78054 0.26653 0.27711 0.0
H732 H 0.75761 0.28379 0.2767 0.0
H733 H 0.75506 0.25686 0.28204 0.0
H734 H 0.71659 0.25398 0.27701 0.0
H735 H 0.6879 0.27342 0.28707 0.0
H736 H 0.32035 0.27437 0.78642 0.0
H737 H 0.29181 0.25478 0.77628 0.0
H738 H 0.28383 0.30612 0.75042 0.0
H739 H 0.3127 0.3258 0.76045 0.0
H740 H 0.24944 0.26549 0.77238 0.0
H741 H 0.29204 0.25425 0.72814 0.0
H742 H 0.30531 0.26303 0.74195 0.0
H743 H 0.28977 0.28142 0.73305 0.0
C744 C 0.31252 0.28157 0.7786 0.0
C745 C 0.31891 0.30162 0.7742 0.0
C746 C 0.29618 0.27033 0.77281 0.0
C747 C 0.28593 0.27881 0.76247 0.0
C748 C 0.29184 0.29908 0.75824 0.0
H749 H 0.1853 0.23379 0.71488 0.0
H750 H 0.21367 0.25351 0.72511 0.0
C751 C 0.30823 0.31037 0.76403 0.0
C752 C 0.26909 0.26633 0.75619 0.0
H753 H 0.25622 0.24269 0.72891 0.0
C754 C 0.25093 0.26045 0.76289 0.0
C755 C 0.27112 0.25971 0.74381 0.0
C756 C 0.29068 0.26473 0.73632 0.0
C757 C 0.23456 0.24846 0.75748 0.0
C758 C 0.23658 0.24186 0.7451 0.0
C759 C 0.25473 0.24774 0.73841 0.0
C760 C 0.21975 0.22937 0.73882 0.0
C761 C 0.21502 0.24339 0.76498 0.0
C762 C 0.21401 0.20901 0.74298 0.0
C763 C 0.19773 0.19763 0.73714 0.0
C764 C 0.187 0.20639 0.72699 0.0
C765 C 0.19318 0.22657 0.72269 0.0
C766 C 0.20941 0.2379 0.72852 0.0
H767 H 0.21368 0.25378 0.7732 0.0
H768 H 0.20037 0.24516 0.75936 0.0
H769 H 0.21591 0.22666 0.76818 0.0
H770 H 0.22208 0.20195 0.75077 0.0
H771 H 0.19342 0.18211 0.74065 0.0
H772 H 0.18698 0.73155 0.28718 0.0
H773 H 0.21523 0.75145 0.27699 0.0
H774 H 0.22093 0.70202 0.24973 0.0
H775 H 0.19265 0.68177 0.25998 0.0
H776 H 0.26039 0.71718 0.25905 0.0
H777 H 0.20809 0.78358 0.24436 0.0
H778 H 0.20697 0.77774 0.2605 0.0
H779 H 0.19775 0.75837 0.24958 0.0
C780 C 0.19425 0.72482 0.27904 0.0
C781 C 0.18746 0.7051 0.27435 0.0
C782 C 0.21032 0.73631 0.27318 0.0
C783 C 0.21987 0.72843 0.26247 0.0
C784 C 0.21362 0.70846 0.25794 0.0
H785 H 0.31912 0.7742 0.21372 0.0
H786 H 0.29087 0.75415 0.22382 0.0
C787 C 0.19749 0.69691 0.26381 0.0
C788 C 0.23643 0.74105 0.25605 0.0
H789 H 0.24521 0.78848 0.24159 0.0
C790 C 0.25706 0.73271 0.25517 0.0
C791 C 0.23205 0.76135 0.25104 0.0
C792 C 0.20998 0.77076 0.2513 0.0
C793 C 0.27356 0.74431 0.2496 0.0
C794 C 0.26918 0.76462 0.24459 0.0
C795 C 0.24854 0.77294 0.24547 0.0
C796 C 0.28575 0.7773 0.23822 0.0
C797 C 0.29564 0.73491 0.24939 0.0
C798 C 0.29172 0.79739 0.24269 0.0
C799 C 0.30782 0.80903 0.23687 0.0
C800 C 0.31813 0.80081 0.22643 0.0
C801 C 0.31164 0.78096 0.22179 0.0
C802 C 0.29557 0.76938 0.2276 0.0
H803 H 0.29753 0.72218 0.25638 0.0
H804 H 0.29864 0.72781 0.24022 0.0
H805 H 0.30787 0.74732 0.25106 0.0
H806 H 0.2842 0.80386 0.25083 0.0
H807 H 0.31243 0.82427 0.24066 0.0
H808 H 0.3193 0.2348 0.28689 0.0
H809 H 0.29034 0.25411 0.27696 0.0
H810 H 0.28373 0.20363 0.2504 0.0
H811 H 0.31253 0.18395 0.26045 0.0
H812 H 0.289 0.26893 0.25328 0.0
H813 H 0.22261 0.21256 0.26156 0.0
H814 H 0.24768 0.21071 0.26958 0.0
H815 H 0.24525 0.20085 0.25413 0.0
C816 C 0.31156 0.22766 0.27901 0.0
C817 C 0.31819 0.20778 0.27448 0.0
C818 C 0.29502 0.23876 0.27333 0.0
C819 C 0.2847 0.23024 0.26302 0.0
C820 C 0.29116 0.21032 0.2585 0.0
H821 H 0.18723 0.27634 0.21357 0.0
H822 H 0.21588 0.25699 0.22378 0.0
C823 C 0.30769 0.19913 0.26422 0.0
C824 C 0.26782 0.24268 0.25674 0.0
H825 H 0.21561 0.24143 0.2481 0.0
C826 C 0.27292 0.26296 0.25219 0.0
C827 C 0.24686 0.23488 0.25534 0.0
C828 C 0.24016 0.21364 0.2605 0.0
C829 C 0.25773 0.2755 0.24611 0.0
C830 C 0.2368 0.26766 0.24467 0.0
C831 C 0.23169 0.24739 0.24921 0.0
C832 C 0.22001 0.28006 0.23832 0.0
C833 C 0.26431 0.29683 0.24102 0.0
C834 C 0.21283 0.29952 0.24311 0.0
C835 C 0.19641 0.3107 0.23727 0.0
C836 C 0.18685 0.30254 0.22658 0.0
C837 C 0.19426 0.28313 0.22177 0.0
C838 C 0.21061 0.27199 0.22761 0.0
H839 H 0.28187 0.29834 0.24035 0.0
H840 H 0.25731 0.29945 0.23177 0.0
H841 H 0.25842 0.30957 0.2472 0.0
H842 H 0.21965 0.30587 0.25148 0.0
H843 H 0.19099 0.32552 0.24125 0.0
H844 H 0.19379 0.82167 0.7607 0.0
H845 H 0.22234 0.80195 0.75041 0.0
H846 H 0.21403 0.75 0.77582 0.0
H847 H 0.18575 0.76959 0.7862 0.0
H848 H 0.25669 0.76117 0.77198 0.0
H849 H 0.2137 0.75022 0.72781 0.0
H850 H 0.21578 0.77729 0.73295 0.0
H851 H 0.20048 0.75855 0.74173 0.0
C852 C 0.19809 0.80608 0.76411 0.0
C853 C 0.18742 0.79717 0.77424 0.0
C854 C 0.21431 0.79478 0.75818 0.0
C855 C 0.22006 0.77437 0.76223 0.0
C856 C 0.20977 0.76567 0.7725 0.0
H857 H 0.31362 0.67902 0.73988 0.0
H858 H 0.28465 0.69822 0.75011 0.0
C859 C 0.19358 0.77691 0.77842 0.0
C860 C 0.23685 0.762 0.75586 0.0
H861 H 0.24954 0.73873 0.72846 0.0
C862 C 0.25512 0.75619 0.76248 0.0
C863 C 0.23471 0.7555 0.74348 0.0
C864 C 0.21505 0.76051 0.73607 0.0
C865 C 0.27152 0.74441 0.75697 0.0
C866 C 0.26939 0.7379 0.74458 0.0
C867 C 0.2511 0.74368 0.73797 0.0
C868 C 0.28628 0.7257 0.73817 0.0
C869 C 0.29122 0.73949 0.76437 0.0
C870 C 0.29629 0.73445 0.72783 0.0
C871 C 0.31267 0.72348 0.72192 0.0
C872 C 0.31935 0.70346 0.72621 0.0
C873 C 0.30892 0.69444 0.73638 0.0
C874 C 0.29247 0.70546 0.74229 0.0
H875 H 0.29259 0.74988 0.77259 0.0
H876 H 0.29052 0.72275 0.76756 0.0
H877 H 0.30577 0.74142 0.75869 0.0
H878 H 0.29169 0.74999 0.72445 0.0
H879 H 0.32031 0.73089 0.7141 0.0
H880 H 0.57733 0.94246 0.50998 0.0
H881 H 0.55786 0.97135 0.49987 0.0
H882 H 0.50647 0.964 0.52576 0.0
H883 H 0.52563 0.93508 0.53581 0.0
H884 H 0.49307 0.9653 0.50127 0.0
H885 H 0.54754 0.03235 0.51197 0.0
H886 H 0.56 0.00983 0.50481 0.0
H887 H 0.5488 0.00718 0.51993 0.0
C888 C 0.56199 0.94715 0.5136 0.0
C889 C 0.55307 0.93648 0.52372 0.0
C890 C 0.55091 0.96371 0.50784 0.0
C891 C 0.5308 0.96996 0.51215 0.0
C892 C 0.52198 0.95947 0.52231 0.0
H893 H 0.43434 0.06166 0.48935 0.0
H894 H 0.45399 0.0329 0.49945 0.0
C895 C 0.53301 0.94296 0.52806 0.0
C896 C 0.51849 0.98686 0.50582 0.0
H897 H 0.51914 0.03955 0.49828 0.0
C898 C 0.49872 0.98157 0.50064 0.0
C899 C 0.52591 0.00804 0.50501 0.0
C900 C 0.54663 0.01482 0.51081 0.0
C901 C 0.48631 0.9968 0.4945 0.0
C902 C 0.49371 0.018 0.49372 0.0
C903 C 0.51349 0.02329 0.49889 0.0
C904 C 0.48136 0.03493 0.48743 0.0
C905 C 0.46564 0.98996 0.48867 0.0
C906 C 0.49031 0.04581 0.47744 0.0
C907 C 0.4792 0.0623 0.47172 0.0
C908 C 0.4589 0.06833 0.4759 0.0
C909 C 0.44986 0.05731 0.48586 0.0
C910 C 0.46104 0.0408 0.4916 0.0
H911 H 0.46496 0.97246 0.48732 0.0
H912 H 0.45225 0.99456 0.49475 0.0
H913 H 0.46331 0.99784 0.47963 0.0
H914 H 0.50597 0.04159 0.47409 0.0
H915 H 0.48666 0.07046 0.46409 0.0
H916 H 0.07521 0.94115 0.99112 0.0
H917 H 0.05507 0.96945 0.00139 0.0
H918 H 0.00716 0.96624 0.9731 0.0
H919 H 0.02698 0.93798 0.96285 0.0
H920 H 0.04137 0.00976 0.99219 0.0
H921 H 0.97312 0.9584 0.00514 0.0
H922 H 0.99842 0.94771 1.0003 0.0
H923 H 0.97992 0.9577 0.98911 0.0
C924 C 0.06044 0.94654 0.98706 0.0
C925 C 0.05265 0.93721 0.97621 0.0
C926 C 0.04895 0.96268 0.99295 0.0
C927 C 0.02943 0.96964 0.98812 0.0
C928 C 0.02195 0.96079 0.97712 0.0
H929 H 0.93436 0.063 0.00987 0.0
H930 H 0.95466 0.03482 0.9996 0.0
C931 C 0.0334 0.94471 0.97123 0.0
C932 C 0.01687 0.98623 0.99454 0.0
H933 H 0.969 0.99545 0.00842 0.0
C934 C 0.0256 0.00663 0.9958 0.0
C935 C 0.99625 0.98209 0.99918 0.0
C936 C 0.98639 0.96025 0.99848 0.0
C937 C 0.0141 0.02316 0.0014 0.0
C938 C 0.99349 0.01902 0.00607 0.0
C939 C 0.98477 0.9986 0.0048 0.0
C940 C 0.98089 0.0356 0.01248 0.0
C941 C 0.02394 0.04502 0.002 0.0
C942 C 0.98864 0.04499 0.02328 0.0
C943 C 0.97713 0.06104 0.02914 0.0
C944 C 0.9575 0.06794 0.02438 0.0
C945 C 0.94943 0.05807 0.01376 0.0
C946 C 0.96102 0.042 0.00788 0.0
H947 H 0.03692 0.04692 0.99516 0.0
H948 H 0.01184 0.05757 1.00038 0.0
H949 H 0.03085 0.04751 0.01128 0.0
H950 H 0.00368 0.03994 0.02716 0.0
H951 H 0.98376 0.06818 0.03735 0.0
H952 H 0.57479 0.06327 0.99074 0.0
H953 H 0.5549 0.03446 0.0007 0.0
H954 H 0.50508 0.04075 0.97371 0.0
H955 H 0.52483 0.06925 0.96366 0.0
H956 H 0.51374 0.03717 0.01079 0.0
H957 H 0.51677 0.97679 0.97365 0.0
H958 H 0.53422 0.99958 0.974 0.0
H959 H 0.50726 1.00232 0.96873 0.0
C960 C 0.55973 0.05832 0.98684 0.0
C961 C 0.55144 0.06851 0.97638 0.0
C962 C 0.54836 0.04191 0.99256 0.0
C963 C 0.52864 0.03528 0.98785 0.0
C964 C 0.52045 0.0453 0.97736 0.0
H965 H 0.43201 0.94371 0.01021 0.0
H966 H 0.45185 0.97252 1.00022 0.0
C967 C 0.53175 0.06169 0.97166 0.0
C968 C 0.51607 0.01861 0.99422 0.0
H969 H 0.49295 0.96995 0.99015 0.0
C970 C 0.50931 0.0224 0.00631 0.0
C971 C 0.51017 0.99944 0.98832 0.0
C972 C 0.51762 0.99414 0.9755 0.0
C973 C 0.49651 0.00768 0.01261 0.0
C974 C 0.49063 0.98851 0.00672 0.0
C975 C 0.49738 0.98472 0.99462 0.0
C976 C 0.47808 0.97182 0.01309 0.0
C977 C 0.48905 0.013 0.02543 0.0
C978 C 0.48627 0.96186 0.02361 0.0
C979 C 0.47499 0.94548 0.02932 0.0
C980 C 0.45533 0.93859 0.0246 0.0
C981 C 0.44705 0.94871 0.01411 0.0
C982 C 0.45839 0.96512 0.00838 0.0
H983 H 0.48984 0.03036 0.02726 0.0
H984 H 0.47246 0.00751 0.02693 0.0
H985 H 0.49944 0.00488 0.0322 0.0
H986 H 0.50162 0.96646 0.02726 0.0
H987 H 0.48191 0.93797 0.03734 0.0
H988 H 0.07536 0.06368 0.51025 0.0
H989 H 0.05547 0.03518 0.49998 0.0
H990 H 0.00539 0.04101 0.52684 0.0
H991 H 0.02494 0.06951 0.53705 0.0
H992 H 0.04049 0.99587 0.50927 0.0
H993 H 0.97376 0.04731 0.49405 0.0
H994 H 0.99875 0.05797 0.49944 0.0
H995 H 0.97924 0.04859 0.51023 0.0
C996 C 0.06015 0.05883 0.51399 0.0
C997 C 0.05168 0.06897 0.52442 0.0
C998 C 0.0488 0.04258 0.50811 0.0
C999 C 0.02876 0.03628 0.51251 0.0
C1000 C 0.02059 0.04595 0.52312 0.0
H1001 H 0.93433 0.94249 0.49026 0.0
H1002 H 0.95423 0.97095 0.50055 0.0
C1003 C 0.03188 0.06216 0.52899 0.0
C1004 C 0.0164 0.01953 0.50609 0.0
H1005 H 0.96931 0.01012 0.49135 0.0
C1006 C 0.02498 0.99899 0.50529 0.0
C1007 C 0.99612 0.02365 0.50095 0.0
C1008 C 0.98646 0.04561 0.50109 0.0
C1009 C 0.01367 0.98235 0.49968 0.0
C1010 C 0.9934 0.98646 0.49454 0.0
C1011 C 0.98482 0.007 0.49534 0.0
C1012 C 0.98104 0.96971 0.4881 0.0
C1013 C 0.02333 0.96038 0.49956 0.0
C1014 C 0.98927 0.95998 0.47753 0.0
C1015 C 0.97798 0.94378 0.47165 0.0
C1016 C 0.95812 0.93706 0.47617 0.0
C1017 C 0.94959 0.94727 0.48656 0.0
C1018 C 0.96095 0.9635 0.49246 0.0
H1019 H 0.03597 0.95867 0.50663 0.0
H1020 H 0.01103 0.94802 0.50117 0.0
H1021 H 0.03063 0.95742 0.49043 0.0
H1022 H 0.00451 0.96486 0.47385 0.0
H1023 H 0.98496 0.93638 0.46362 0.0
H1024 H 0.97854 0.16336 0.02976 0.0
H1025 H 1.00092 0.19482 0.02724 0.0
H1026 H 0.94516 0.23328 0.02119 0.0
H1027 H 0.92252 0.20192 0.02378 0.0
H1028 H 0.00441 0.22575 0.00747 0.0
H1029 H 0.97535 0.2603 0.05144 0.0
H1030 H 0.97133 0.23274 0.04743 0.0
H1031 H 0.95515 0.25302 0.04053 0.0
C1032 C 0.97099 0.17846 0.02779 0.0
C1033 C 0.94869 0.18014 0.02711 0.0
C1034 C 0.98384 0.1964 0.02632 0.0
C1035 C 0.97466 0.21638 0.0242 0.0
C1036 C 0.9525 0.21801 0.02299 0.0
H1037 H 0.02794 0.34352 0.02687 0.0
H1038 H 0.00475 0.31287 0.02377 0.0
C1039 C 0.93961 0.20005 0.02442 0.0
C1040 C 0.98825 0.23561 0.02395 0.0
H1041 H 0.9996 0.28079 0.04002 0.0
C1042 C 0.00336 0.23786 0.01455 0.0
C1043 C 0.98684 0.25128 0.03323 0.0
C1044 C 0.97144 0.24924 0.0438 0.0
C1045 C 0.017 0.25556 0.01411 0.0
C1046 C 0.01574 0.27113 0.02347 0.0
C1047 C 1.00051 0.26889 0.03282 0.0
C1048 C 0.03022 0.28975 0.02398 0.0
C1049 C 0.03239 0.25757 0.00354 0.0
C1050 C 0.05232 0.28698 0.025 0.0
C1051 C 0.06568 0.30453 0.02671 0.0
C1052 C 0.05715 0.32515 0.02759 0.0
C1053 C 0.03506 0.32788 0.02628 0.0
C1054 C 0.02175 0.31036 0.0245 0.0
H1055 H 0.02718 0.24804 0.99548 0.0
H1056 H 0.03421 0.2744 0.00065 0.0
H1057 H 0.0482 0.25157 0.00646 0.0
H1058 H 0.05917 0.27119 0.02492 0.0
H1059 H 0.0826 0.30185 0.02776 0.0
H1060 H 0.09171 0.72781 0.28215 0.0
H1061 H 0.06059 0.75063 0.27956 0.0
H1062 H 0.02359 0.69673 0.26771 0.0
H1063 H 0.05464 0.67357 0.27031 0.0
H1064 H 0.02231 0.74405 0.25382 0.0
H1065 H 0.00484 0.73705 0.30391 0.0
H1066 H 0.03203 0.74057 0.29903 0.0
H1067 H 0.01843 0.71626 0.29557 0.0
C1068 C 0.07707 0.72077 0.27883 0.0
C1069 C 0.07565 0.69879 0.27653 0.0
C1070 C 0.05933 0.73388 0.27734 0.0
C1071 C 0.0399 0.7253 0.27347 0.0
C1072 C 0.03855 0.70358 0.27067 0.0
H1073 H 0.91353 0.77714 0.28162 0.0
H1074 H 0.94423 0.75392 0.27886 0.0
C1075 C 0.05628 0.6904 0.2722 0.0
C1076 C 0.02064 0.73873 0.27333 0.0
H1077 H 0.98285 0.75963 0.29228 0.0
C1078 C 0.01361 0.74748 0.26219 0.0
C1079 C 0.0094 0.743 0.28428 0.0
C1080 C 0.01639 0.73373 0.29642 0.0
C1081 C 0.99554 0.76064 0.26177 0.0
C1082 C 0.98445 0.76514 0.27277 0.0
C1083 C 0.99143 0.75616 0.28387 0.0
C1084 C 0.96546 0.77905 0.27309 0.0
C1085 C 0.98827 0.76943 0.24958 0.0
C1086 C 0.9672 0.80089 0.27064 0.0
C1087 C 0.94965 0.8143 0.27225 0.0
C1088 C 0.93009 0.80608 0.27638 0.0
C1089 C 0.92831 0.78406 0.27844 0.0
C1090 C 0.94585 0.77072 0.27687 0.0
H1091 H 0.99579 0.76102 0.24172 0.0
H1092 H 0.97071 0.76822 0.2487 0.0
H1093 H 0.99263 0.7865 0.24901 0.0
H1094 H 0.9823 0.80767 0.26789 0.0
H1095 H 0.9516 0.83117 0.2706 0.0
H1096 H 0.47901 0.66368 0.52774 0.0
H1097 H 0.50155 0.69494 0.52481 0.0
H1098 H 0.44595 0.73349 0.51849 0.0
H1099 H 0.42317 0.70233 0.52144 0.0
H1100 H 0.50441 0.72596 0.50445 0.0
H1101 H 0.47704 0.76033 0.54886 0.0
H1102 H 0.47322 0.73268 0.54497 0.0
H1103 H 0.45659 0.75268 0.53818 0.0
C1104 C 0.47154 0.67874 0.5256 0.0
C1105 C 0.44924 0.68052 0.52495 0.0
C1106 C 0.48447 0.69657 0.52389 0.0
C1107 C 0.47538 0.71651 0.52159 0.0
C1108 C 0.45322 0.71823 0.5204 0.0
H1109 H 0.5302 0.84305 0.52486 0.0
H1110 H 0.5064 0.81291 0.52158 0.0
C1111 C 0.44025 0.70039 0.52205 0.0
C1112 C 0.48902 0.73568 0.52119 0.0
H1113 H 0.50135 0.78051 0.53733 0.0
C1114 C 0.50373 0.73797 0.51159 0.0
C1115 C 0.48807 0.75123 0.53055 0.0
C1116 C 0.47302 0.74915 0.54129 0.0
C1117 C 0.51746 0.75559 0.51104 0.0
C1118 C 0.51672 0.77101 0.52051 0.0
C1119 C 0.50185 0.76874 0.53005 0.0
C1120 C 0.5315 0.78941 0.521 0.0
C1121 C 0.53238 0.75767 0.50026 0.0
C1122 C 0.55359 0.78627 0.5216 0.0
C1123 C 0.56731 0.80353 0.52339 0.0
C1124 C 0.55914 0.8242 0.5248 0.0
C1125 C 0.53704 0.82733 0.52387 0.0
C1126 C 0.52339 0.81012 0.52199 0.0
H1127 H 0.52657 0.74854 0.49218 0.0
H1128 H 0.53442 0.77456 0.49753 0.0
H1129 H 0.54818 0.75121 0.50284 0.0
H1130 H 0.56021 0.77039 0.52117 0.0
H1131 H 0.58422 0.80054 0.52415 0.0
H1132 H 0.55291 0.17219 0.77426 0.0
H1133 H 0.52181 0.19494 0.77112 0.0
H1134 H 0.56133 0.25065 0.77457 0.0
H1135 H 0.5925 0.22813 0.77767 0.0
H1136 H 0.50823 0.22523 0.78897 0.0
H1137 H 0.52443 0.26335 0.74391 0.0
H1138 H 0.53735 0.23909 0.74875 0.0
H1139 H 0.54609 0.26428 0.75468 0.0
C1140 C 0.55507 0.18927 0.77414 0.0
C1141 C 0.57521 0.19832 0.77626 0.0
C1142 C 0.53727 0.20224 0.77235 0.0
C1143 C 0.53932 0.22445 0.77249 0.0
C1144 C 0.55947 0.23353 0.77421 0.0
H1145 H 0.45513 0.33275 0.7758 0.0
H1146 H 0.48524 0.30847 0.7733 0.0
C1147 C 0.57725 0.22061 0.77607 0.0
C1148 C 0.52018 0.23814 0.77202 0.0
H1149 H 0.49639 0.27818 0.75587 0.0
C1150 C 0.50549 0.23665 0.78167 0.0
C1151 C 0.51684 0.25316 0.76255 0.0
C1152 C 0.5319 0.25502 0.75181 0.0
C1153 C 0.48778 0.25016 0.7823 0.0
C1154 C 0.48437 0.26521 0.77282 0.0
C1155 C 0.49899 0.26659 0.76309 0.0
C1156 C 0.46598 0.27996 0.77307 0.0
C1157 C 0.47333 0.24869 0.79335 0.0
C1158 C 0.44513 0.27203 0.77334 0.0
C1159 C 0.42792 0.28582 0.77488 0.0
C1160 C 0.43121 0.30786 0.77599 0.0
C1161 C 0.45204 0.31587 0.775 0.0
C1162 C 0.46927 0.30201 0.77357 0.0
H1163 H 0.48121 0.24053 0.80119 0.0
H1164 H 0.46818 0.26471 0.79643 0.0
H1165 H 0.45896 0.23939 0.79088 0.0
H1166 H 0.44219 0.2551 0.77265 0.0
H1167 H 0.41207 0.27914 0.77544 0.0
H1168 H 0.97969 0.84145 0.47161 0.0
H1169 H 1.00194 0.80998 0.47452 0.0
H1170 H 0.94595 0.77182 0.48052 0.0
H1171 H 0.92346 0.80318 0.47758 0.0
H1172 H 0.00444 0.77905 0.49479 0.0
H1173 H 0.97709 0.7446 0.45039 0.0
H1174 H 0.97335 0.77226 0.45425 0.0
H1175 H 0.95658 0.75234 0.461 0.0
C1176 C 0.97206 0.82642 0.47367 0.0
C1177 C 0.94975 0.82481 0.47423 0.0
C1178 C 0.98483 0.80848 0.47536 0.0
C1179 C 0.97555 0.78858 0.47758 0.0
C1180 C 0.95337 0.78703 0.47867 0.0
H1181 H 0.02906 0.66149 0.47488 0.0
H1182 H 0.00558 0.69193 0.47797 0.0
C1183 C 0.94057 0.80498 0.47702 0.0
C1184 C 0.98905 0.76932 0.47804 0.0
H1185 H 1.00102 0.72421 0.46208 0.0
C1186 C 0.00368 0.76698 0.48768 0.0
C1187 C 0.988 0.75369 0.46872 0.0
C1188 C 0.97305 0.7558 0.45794 0.0
C1189 C 0.01723 0.74923 0.48832 0.0
C1190 C 0.01639 0.73372 0.4789 0.0
C1191 C 1.0016 0.73605 0.46932 0.0
C1192 C 0.03095 0.71516 0.47852 0.0
C1193 C 0.03207 0.74713 0.49914 0.0
C1194 C 0.05308 0.71804 0.47797 0.0
C1195 C 0.06661 0.70061 0.47629 0.0
C1196 C 0.05821 0.68001 0.47495 0.0
C1197 C 0.03607 0.67714 0.47583 0.0
C1198 C 0.02261 0.69453 0.4776 0.0
H1199 H 0.02632 0.75641 0.50717 0.0
H1200 H 0.03391 0.73025 0.50194 0.0
H1201 H 0.04795 0.75338 0.49657 0.0
H1202 H 0.05988 0.73385 0.47836 0.0
H1203 H 0.08356 0.70341 0.47557 0.0
H1204 H 0.552 0.83546 0.72616 0.0
H1205 H 0.52101 0.81245 0.72911 0.0
H1206 H 0.56115 0.75709 0.72648 0.0
H1207 H 0.5922 0.77985 0.72357 0.0
H1208 H 0.50831 0.78179 0.71131 0.0
H1209 H 0.52333 0.74447 0.75673 0.0
H1210 H 0.53622 0.76876 0.75191 0.0
H1211 H 0.54537 0.74355 0.74623 0.0
C1212 C 0.55431 0.8184 0.72643 0.0
C1213 C 0.57459 0.80951 0.72458 0.0
C1214 C 0.53658 0.80529 0.72811 0.0
C1215 C 0.53884 0.7831 0.72814 0.0
C1216 C 0.55912 0.77418 0.72671 0.0
H1217 H 0.45574 0.6739 0.72419 0.0
H1218 H 0.48561 0.69846 0.72687 0.0
C1219 C 0.57684 0.78725 0.72496 0.0
C1220 C 0.51981 0.76922 0.72846 0.0
H1221 H 0.49593 0.72909 0.74448 0.0
C1222 C 0.50544 0.77043 0.71863 0.0
C1223 C 0.51632 0.75427 0.73795 0.0
C1224 C 0.53101 0.75273 0.74887 0.0
C1225 C 0.48791 0.7567 0.71785 0.0
C1226 C 0.48436 0.74172 0.72734 0.0
C1227 C 0.49865 0.74062 0.73724 0.0
C1228 C 0.46611 0.7268 0.72695 0.0
C1229 C 0.4738 0.75789 0.70664 0.0
C1230 C 0.44521 0.73455 0.72653 0.0
C1231 C 0.42815 0.72061 0.7249 0.0
C1232 C 0.43163 0.69859 0.72383 0.0
C1233 C 0.4525 0.69077 0.72494 0.0
C1234 C 0.4696 0.70477 0.72648 0.0
H1235 H 0.48181 0.7661 0.69887 0.0
H1236 H 0.46896 0.74177 0.70355 0.0
H1237 H 0.45922 0.767 0.70893 0.0
H1238 H 0.44212 0.75145 0.72718 0.0
H1239 H 0.41226 0.72716 0.72424 0.0
H1240 H 0.58236 0.20436 0.97641 0.0
H1241 H 0.55813 0.2344 0.97913 0.0
H1242 H 0.50448 0.19173 0.9777 0.0
H1243 H 0.52851 0.1617 0.97471 0.0
H1244 H 0.50021 0.22443 0.96194 0.0
H1245 H 0.52296 0.25563 0.00773 0.0
H1246 H 0.54509 0.2531 0.99742 0.0
H1247 H 0.53107 0.22969 0.00238 0.0
C1248 C 0.56543 0.20132 0.97689 0.0
C1249 C 0.55739 0.18063 0.97529 0.0
C1250 C 0.55159 0.21851 0.97852 0.0
C1251 C 0.52948 0.2153 0.97877 0.0
C1252 C 0.52148 0.19458 0.97758 0.0
H1253 H 0.42089 0.30208 0.97679 0.0
H1254 H 0.44352 0.2708 0.97974 0.0
C1255 C 0.53526 0.17742 0.97586 0.0
C1256 C 0.51463 0.23364 0.97909 0.0
H1257 H 0.50125 0.27826 0.99526 0.0
C1258 C 0.50027 0.23605 0.96931 0.0
C1259 C 0.5148 0.24885 0.98868 0.0
C1260 C 0.52917 0.24662 0.99971 0.0
C1261 C 0.48644 0.25351 0.96868 0.0
C1262 C 0.4868 0.26885 0.97817 0.0
C1263 C 0.50101 0.26641 0.98802 0.0
C1264 C 0.47311 0.28798 0.97768 0.0
C1265 C 0.47201 0.25576 0.95766 0.0
C1266 C 0.48231 0.30806 0.97596 0.0
C1267 C 0.46946 0.32595 0.97427 0.0
C1268 C 0.44715 0.32411 0.97434 0.0
C1269 C 0.438 0.30407 0.97662 0.0
C1270 C 0.45089 0.28616 0.97827 0.0
H1271 H 0.47663 0.2449 0.95007 0.0
H1272 H 0.45546 0.25189 0.96041 0.0
H1273 H 0.4722 0.27235 0.95417 0.0
H1274 H 0.49944 0.30978 0.97551 0.0
H1275 H 0.47706 0.34114 0.97261 0.0
H1276 H 0.08316 0.28498 0.20861 0.0
H1277 H 0.0522 0.26224 0.2115 0.0
H1278 H 0.0338 0.29918 0.2432 0.0
H1279 H 0.06418 0.32293 0.23981 0.0
H1280 H 0.03972 0.23677 0.22822 0.0
H1281 H 0.97954 0.30102 0.22508 0.0
H1282 H 0.00728 0.30563 0.22197 0.0
H1283 H 0.99776 0.3046 0.23758 0.0
C1284 C 0.07252 0.28827 0.21621 0.0
C1285 C 0.07596 0.30584 0.22392 0.0
C1286 C 0.05481 0.27522 0.21787 0.0
C1287 C 0.04032 0.27918 0.22743 0.0
C1288 C 0.04428 0.29619 0.23551 0.0
H1289 H 0.94273 0.17954 0.23839 0.0
H1290 H 0.97344 0.20276 0.242 0.0
C1291 C 0.06174 0.30964 0.23364 0.0
C1292 C 0.0211 0.2655 0.22866 0.0
H1293 H 0.96682 0.26661 0.22941 0.0
C1294 C 0.02377 0.24331 0.22848 0.0
C1295 C 1.00024 0.27399 0.22893 0.0
C1296 C 0.99597 0.29759 0.22828 0.0
C1297 C 0.00628 0.22943 0.22805 0.0
C1298 C 0.98542 0.23792 0.22847 0.0
C1299 C 0.98277 0.26007 0.22915 0.0
C1300 C 0.96613 0.22439 0.22708 0.0
C1301 C 0.01048 0.20595 0.22647 0.0
C1302 C 0.95114 0.22936 0.21795 0.0
C1303 C 0.93327 0.21658 0.21618 0.0
C1304 C 0.93014 0.19828 0.22335 0.0
C1305 C 0.94491 0.19341 0.23263 0.0
C1306 C 0.96255 0.20658 0.23462 0.0
H1307 H 0.02672 0.20288 0.22286 0.0
H1308 H 0.00918 0.19794 0.23552 0.0
H1309 H 0.99882 0.19861 0.22008 0.0
H1310 H 0.95345 0.24298 0.212 0.0
H1311 H 0.92221 0.2207 0.20892 0.0
H1312 H 0.97251 0.67371 0.95925 0.0
H1313 H 0.99496 0.70451 0.96315 0.0
H1314 H 0.95205 0.72517 0.99172 0.0
H1315 H 0.92872 0.69487 0.98727 0.0
H1316 H 0.96243 0.75738 0.97925 0.0
H1317 H 0.03743 0.71562 0.98877 0.0
H1318 H 0.02803 0.70757 0.97396 0.0
H1319 H 0.01252 0.70159 0.9875 0.0
C1320 C 0.96795 0.6847 0.96645 0.0
C1321 C 0.94893 0.68182 0.97301 0.0
C1322 C 0.98094 0.70223 0.96877 0.0
C1323 C 0.97564 0.71691 0.978 0.0
C1324 C 0.95664 0.714 0.98462 0.0
H1325 H 0.07366 0.81481 0.98971 0.0
H1326 H 0.04943 0.78503 0.99369 0.0
C1327 C 0.94331 0.69669 0.98208 0.0
C1328 C 0.9892 0.736 0.98006 0.0
H1329 H 0.04101 0.75202 0.98146 0.0
C1330 C 0.97959 0.75615 0.97997 0.0
C1331 C 0.01158 0.7346 0.9814 0.0
C1332 C 0.0229 0.71364 0.98307 0.0
C1333 C 0.99177 0.77485 0.98042 0.0
C1334 C 0.01426 0.7734 0.98034 0.0
C1335 C 0.02381 0.75327 0.98122 0.0
C1336 C 0.02815 0.79235 0.9786 0.0
C1337 C 0.98027 0.79588 0.98099 0.0
C1338 C 0.02441 0.80637 0.96879 0.0
C1339 C 0.03788 0.82363 0.96671 0.0
C1340 C 0.05587 0.82687 0.97414 0.0
C1341 C 0.05989 0.8127 0.98385 0.0
C1342 C 0.04606 0.79569 0.98612 0.0
H1343 H 0.96489 0.79426 0.98592 0.0
H1344 H 0.98991 0.80825 0.98568 0.0
H1345 H 0.97662 0.80131 0.97151 0.0
H1346 H 0.01132 0.80373 0.96251 0.0
H1347 H 0.03458 0.83405 0.95902 0.0
H1348 H 0.91228 0.27859 0.72555 0.0
H1349 H 0.94238 0.25466 0.72855 0.0
H1350 H 0.98517 0.30827 0.72871 0.0
H1351 H 0.95506 0.33242 0.72596 0.0
H1352 H 0.97452 0.24991 0.71233 0.0
H1353 H 0.0074 0.27402 0.75751 0.0
H1354 H 0.98123 0.28189 0.75241 0.0
H1355 H 0.00441 0.29579 0.74699 0.0
C1356 C 0.92805 0.28536 0.72643 0.0
C1357 C 0.93126 0.30744 0.72548 0.0
C1358 C 0.94524 0.27164 0.72815 0.0
C1359 C 0.96602 0.27966 0.72897 0.0
C1360 C 0.96925 0.30173 0.72838 0.0
H1361 H 0.09166 0.22681 0.72237 0.0
H1362 H 0.06041 0.2493 0.72535 0.0
C1363 C 0.95201 0.31552 0.72674 0.0
C1364 C 0.98434 0.26479 0.72924 0.0
H1365 H 0.02946 0.25176 0.74504 0.0
C1366 C 0.98639 0.25015 0.71957 0.0
C1367 C 0.99988 0.26521 0.73865 0.0
C1368 C 0.99806 0.27993 0.74954 0.0
C1369 C 0.0038 0.23627 0.71888 0.0
C1370 C 0.01946 0.23684 0.7282 0.0
C1371 C 0.01738 0.25135 0.73793 0.0
C1372 C 0.03854 0.22308 0.72764 0.0
C1373 C 0.00566 0.22157 0.70796 0.0
C1374 C 0.03665 0.20087 0.72828 0.0
C1375 C 0.05449 0.18792 0.72658 0.0
C1376 C 0.07454 0.19697 0.7242 0.0
C1377 C 0.07646 0.21928 0.72409 0.0
C1378 C 0.05864 0.23219 0.72583 0.0
H1379 H 0.99471 0.22615 0.7004 0.0
H1380 H 0.02218 0.22146 0.70436 0.0
H1381 H 1.00162 0.20514 0.71085 0.0
H1382 H 0.02129 0.19356 0.72985 0.0
H1383 H 0.05244 0.17082 0.72679 0.0
H1384 H 0.52722 0.34464 0.47357 0.0
H1385 H 0.50281 0.31495 0.47667 0.0
H1386 H 0.556 0.27197 0.47958 0.0
H1387 H 0.58061 0.30167 0.47673 0.0
H1388 H 0.49904 0.28131 0.46137 0.0
H1389 H 0.51933 0.25273 0.5081 0.0
H1390 H 0.52777 0.27834 0.5024 0.0
H1391 H 0.542 0.25464 0.49814 0.0
C1392 C 0.53379 0.32893 0.47506 0.0
C1393 C 0.55591 0.32554 0.47487 0.0
C1394 C 0.51978 0.31197 0.47684 0.0
C1395 C 0.52755 0.29127 0.47849 0.0
C1396 C 0.54963 0.28787 0.47861 0.0
H1397 H 0.47722 0.16498 0.47383 0.0
H1398 H 0.49853 0.197 0.47682 0.0
C1399 C 0.56369 0.30487 0.4769 0.0
C1400 C 0.51255 0.27306 0.47893 0.0
H1401 H 0.49836 0.22932 0.49565 0.0
C1402 C 0.4987 0.27011 0.46895 0.0
C1403 C 0.51218 0.25841 0.4888 0.0
C1404 C 0.52597 0.26127 0.50002 0.0
C1405 C 0.48495 0.25257 0.46838 0.0
C1406 C 0.48484 0.23772 0.47814 0.0
C1407 C 0.49846 0.24079 0.48821 0.0
C1408 C 0.47157 0.21828 0.47763 0.0
C1409 C 0.47122 0.24963 0.45712 0.0
C1410 C 0.44928 0.21958 0.47746 0.0
C1411 C 0.43698 0.20127 0.47573 0.0
C1412 C 0.44679 0.18135 0.47416 0.0
C1413 C 0.46911 0.18006 0.47491 0.0
C1414 C 0.48135 0.19834 0.47666 0.0
H1415 H 0.47625 0.26011 0.44943 0.0
H1416 H 0.47172 0.23286 0.45393 0.0
H1417 H 0.45449 0.25353 0.45944 0.0
H1418 H 0.44143 0.23483 0.47837 0.0
H1419 H 0.41985 0.20284 0.47526 0.0
H1420 H 0.45401 0.83326 0.22469 0.0
H1421 H 0.48422 0.80908 0.22726 0.0
H1422 H 0.44132 0.7556 0.22813 0.0
H1423 H 0.41113 0.77951 0.22527 0.0
H1424 H 0.49545 0.77904 0.24483 0.0
H1425 H 0.48041 0.7407 0.1997 0.0
H1426 H 0.46733 0.76493 0.20433 0.0
H1427 H 0.45809 0.73967 0.20996 0.0
C1428 C 0.45098 0.81637 0.22555 0.0
C1429 C 0.43018 0.80829 0.2246 0.0
C1430 C 0.46827 0.80258 0.22701 0.0
C1431 C 0.46504 0.78051 0.2276 0.0
C1432 C 0.44421 0.77253 0.22737 0.0
H1433 H 0.551 0.67208 0.22752 0.0
H1434 H 0.52016 0.69531 0.23037 0.0
C1435 C 0.42696 0.78625 0.22579 0.0
C1436 C 0.48346 0.76579 0.22794 0.0
H1437 H 0.50716 0.72532 0.21212 0.0
C1438 C 0.49804 0.76729 0.23769 0.0
C1439 C 0.48685 0.75055 0.21857 0.0
C1440 C 0.47248 0.74894 0.20748 0.0
C1441 C 0.51578 0.75376 0.23837 0.0
C1442 C 0.51907 0.73849 0.22903 0.0
C1443 C 0.50445 0.73692 0.21934 0.0
C1444 C 0.53805 0.72456 0.22874 0.0
C1445 C 0.53079 0.75574 0.24913 0.0
C1446 C 0.55832 0.73333 0.22698 0.0
C1447 C 0.57595 0.72013 0.22529 0.0
C1448 C 0.57363 0.69787 0.22531 0.0
C1449 C 0.55338 0.68913 0.22748 0.0
C1450 C 0.53573 0.70237 0.2291 0.0
H1451 H 0.52338 0.76441 0.25693 0.0
H1452 H 0.53599 0.73982 0.25237 0.0
H1453 H 0.54513 0.76469 0.24621 0.0
H1454 H 0.56039 0.75041 0.22646 0.0
H1455 H 0.5913 0.72741 0.22364 0.0
H1456 H 0.97692 0.34313 0.52499 0.0
H1457 H 1.00042 0.31276 0.52182 0.0
H1458 H 0.94658 0.27037 0.52356 0.0
H1459 H 0.92283 0.30075 0.52647 0.0
H1460 H 0.0063 0.28124 0.53826 0.0
H1461 H 0.97841 0.24682 0.49421 0.0
H1462 H 0.97105 0.27321 0.49919 0.0
H1463 H 0.95753 0.2503 0.50527 0.0
C1464 C 0.96999 0.32738 0.5245 0.0
C1465 C 0.94797 0.32438 0.52602 0.0
C1466 C 0.98347 0.31003 0.52268 0.0
C1467 C 0.97527 0.28929 0.52233 0.0
C1468 C 0.95324 0.28625 0.52351 0.0
H1469 H 0.02885 0.16392 0.52928 0.0
H1470 H 0.00597 0.19494 0.5265 0.0
C1471 C 0.93968 0.30364 0.52525 0.0
C1472 C 0.99001 0.27087 0.52191 0.0
H1473 H 1.00166 0.22518 0.5063 0.0
C1474 C 0.00543 0.26912 0.53119 0.0
C1475 C 0.98879 0.25501 0.51271 0.0
C1476 C 0.97319 0.25648 0.50221 0.0
C1477 C 0.01935 0.25172 0.53169 0.0
C1478 C 0.01799 0.23576 0.52258 0.0
C1479 C 1.00268 0.23751 0.51325 0.0
C1480 C 0.03184 0.21673 0.52296 0.0
C1481 C 0.03498 0.25023 0.54219 0.0
C1482 C 0.05394 0.21864 0.52154 0.0
C1483 C 0.06712 0.20093 0.52313 0.0
C1484 C 0.0584 0.181 0.52616 0.0
C1485 C 0.03614 0.17903 0.52703 0.0
C1486 C 0.023 0.19672 0.52541 0.0
H1487 H 0.0311 0.2615 0.54973 0.0
H1488 H 0.03533 0.23385 0.54601 0.0
H1489 H 0.05116 0.25405 0.53877 0.0
H1490 H 0.06103 0.23393 0.51949 0.0
H1491 H 0.08417 0.20301 0.52233 0.0
H1492 H 0.45449 0.1727 0.2775 0.0
H1493 H 0.48544 0.19601 0.27493 0.0
H1494 H 0.44388 0.25017 0.27136 0.0
H1495 H 0.41298 0.22719 0.27414 0.0
H1496 H 0.49832 0.22513 0.25656 0.0
H1497 H 0.48123 0.26577 0.30077 0.0
H1498 H 0.46833 0.24133 0.29633 0.0
H1499 H 0.45949 0.26628 0.29008 0.0
C1500 C 0.45193 0.18954 0.27602 0.0
C1501 C 0.43127 0.19812 0.2762 0.0
C1502 C 0.46963 0.20282 0.27456 0.0
C1503 C 0.46694 0.22486 0.27323 0.0
C1504 C 0.44632 0.23327 0.27267 0.0
H1505 H 0.55339 0.33271 0.27357 0.0
H1506 H 0.52263 0.30942 0.27057 0.0
C1507 C 0.42867 0.22008 0.27422 0.0
C1508 C 0.48564 0.23923 0.27303 0.0
H1509 H 0.50885 0.28024 0.28863 0.0
C1510 C 0.50067 0.23716 0.26357 0.0
C1511 C 0.48869 0.25487 0.28223 0.0
C1512 C 0.47371 0.25712 0.29299 0.0
C1513 C 0.51853 0.25058 0.26295 0.0
C1514 C 0.52147 0.26626 0.27212 0.0
C1515 C 0.50642 0.26833 0.28155 0.0
C1516 C 0.54047 0.2802 0.27247 0.0
C1517 C 0.53395 0.24808 0.25244 0.0
C1518 C 0.5607 0.27146 0.27444 0.0
C1519 C 0.57829 0.2847 0.27621 0.0
C1520 C 0.57597 0.30696 0.27608 0.0
C1521 C 0.55577 0.31565 0.27371 0.0
C1522 C 0.53816 0.30238 0.272 0.0
H1523 H 0.52674 0.23929 0.24462 0.0
H1524 H 0.53955 0.26381 0.24912 0.0
H1525 H 0.54801 0.23897 0.25565 0.0
H1526 H 0.56276 0.2544 0.27507 0.0
H1527 H 0.59359 0.27745 0.27801 0.0
H1528 H 0.47823 0.84382 0.02823 0.0
H1529 H 0.5012 0.81285 0.02553 0.0
H1530 H 0.44606 0.77296 0.02074 0.0
H1531 H 0.42287 0.80384 0.02346 0.0
H1532 H 0.47528 0.75959 0.03931 0.0
H1533 H 0.51618 0.77614 0.99509 0.0
H1534 H 0.51616 0.79773 0.00592 0.0
H1535 H 0.49149 0.78882 0.99939 0.0
C1536 C 0.47095 0.82854 0.0264 0.0
C1537 C 0.44868 0.82632 0.0261 0.0
C1538 C 0.48414 0.81087 0.02479 0.0
C1539 C 0.47533 0.79067 0.02282 0.0
C1540 C 0.45315 0.78847 0.02217 0.0
H1541 H 0.52893 0.66326 0.02612 0.0
H1542 H 0.50546 0.69377 0.02325 0.0
C1543 C 0.43993 0.80614 0.02372 0.0
C1544 C 0.48917 0.77162 0.02263 0.0
H1545 H 0.53009 0.74789 0.00721 0.0
C1546 C 0.48713 0.75689 0.03223 0.0
C1547 C 0.50475 0.76835 0.01346 0.0
C1548 C 0.50725 0.78348 0.00281 0.0
C1549 C 0.50056 0.73916 0.03307 0.0
C1550 C 0.51611 0.73577 0.02387 0.0
C1551 C 0.51811 0.75048 0.01422 0.0
C1552 C 0.53062 0.71719 0.02427 0.0
C1553 C 0.49842 0.72462 0.04405 0.0
C1554 C 0.5527 0.72015 0.02516 0.0
C1555 C 0.56624 0.70268 0.02664 0.0
C1556 C 0.5579 0.68195 0.02729 0.0
C1557 C 0.53586 0.67902 0.02583 0.0
C1558 C 0.52239 0.69645 0.02424 0.0
H1559 H 0.48997 0.73251 0.05177 0.0
H1560 H 0.4891 0.71037 0.04138 0.0
H1561 H 0.51424 0.71927 0.04736 0.0
H1562 H 0.55938 0.73602 0.02512 0.0
H1563 H 0.58314 0.70549 0.02771 0.0
H1564 H 0.91136 0.72869 0.77688 0.0
H1565 H 0.94156 0.75261 0.77412 0.0
H1566 H 0.98383 0.69874 0.77197 0.0
H1567 H 0.95362 0.67464 0.77446 0.0
H1568 H 0.97451 0.75607 0.78985 0.0
H1569 H 0.00497 0.73474 0.74368 0.0
H1570 H 0.97901 0.72669 0.74902 0.0
H1571 H 1.00234 0.71226 0.75372 0.0
C1572 C 0.92702 0.72188 0.77561 0.0
C1573 C 0.93007 0.69972 0.77591 0.0
C1574 C 0.94428 0.7356 0.77403 0.0
C1575 C 0.96494 0.72749 0.77271 0.0
C1576 C 0.96799 0.70537 0.77269 0.0
H1577 H 0.09148 0.77812 0.77875 0.0
H1578 H 0.05972 0.75634 0.77579 0.0
C1579 C 0.95069 0.6916 0.77419 0.0
C1580 C 0.98339 0.74221 0.77249 0.0
H1581 H 0.02798 0.75575 0.75633 0.0
C1582 C 0.98606 0.75618 0.78244 0.0
C1583 C 0.99849 0.74226 0.76285 0.0
C1584 C 0.99599 0.72833 0.75165 0.0
C1585 C 0.00368 0.76979 0.78318 0.0
C1586 C 0.01892 0.76963 0.77363 0.0
C1587 C 0.01621 0.75584 0.76362 0.0
C1588 C 0.03825 0.78305 0.77424 0.0
C1589 C 0.00621 0.78376 0.79437 0.0
C1590 C 0.03674 0.80531 0.77402 0.0
C1591 C 0.05488 0.81786 0.7757 0.0
C1592 C 0.07485 0.80833 0.77765 0.0
C1593 C 0.07636 0.78601 0.77736 0.0
C1594 C 0.05824 0.7735 0.77564 0.0
H1595 H 0.99542 0.77892 0.80196 0.0
H1596 H 0.02286 0.78329 0.79778 0.0
H1597 H 1.00245 0.80044 0.79187 0.0
H1598 H 0.02145 0.81296 0.77278 0.0
H1599 H 0.05314 0.83499 0.77581 0.0
H1600 H 0.32273 0.34551 0.96727 0.0
H1601 H 0.28664 0.34775 0.97528 0.0
H1602 H 0.30857 0.38846 0.00461 0.0
H1603 H 0.34473 0.38717 0.99616 0.0
H1604 H 0.27066 0.33466 0.9954 0.0
H1605 H 0.25829 0.42173 0.99389 0.0
H1606 H 0.28094 0.40913 0.98681 0.0
H1607 H 0.28087 0.41463 0.00306 0.0
C1608 C 0.31988 0.35505 0.9754 0.0
C1609 C 0.33656 0.3662 0.98109 0.0
C1610 C 0.29919 0.35633 0.97997 0.0
C1611 C 0.29469 0.36854 0.99046 0.0
C1612 C 0.31143 0.37946 0.99629 0.0
H1613 H 0.18178 0.34515 0.03417 0.0
H1614 H 0.21748 0.34672 0.02553 0.0
C1615 C 0.33214 0.37855 0.99154 0.0
C1616 C 0.27264 0.36887 0.99548 0.0
H1617 H 0.23246 0.40158 0.00498 0.0
C1618 C 0.26231 0.34934 0.99741 0.0
C1619 C 0.26147 0.38798 0.99792 0.0
C1620 C 0.27088 0.40954 0.99519 0.0
C1621 C 0.24134 0.34834 0.00177 0.0
C1622 C 0.23059 0.36739 0.00485 0.0
C1623 C 0.24076 0.38696 0.00278 0.0
C1624 C 0.20891 0.36727 0.01035 0.0
C1625 C 0.23082 0.32681 0.00271 0.0
C1626 C 0.19229 0.37915 0.00507 0.0
C1627 C 0.17185 0.37869 0.01021 0.0
C1628 C 0.16765 0.36618 0.02064 0.0
C1629 C 0.18439 0.35463 0.026 0.0
C1630 C 0.20483 0.35541 0.02101 0.0
H1631 H 0.23807 0.31524 0.99623 0.0
H1632 H 0.23303 0.32048 0.01214 0.0
H1633 H 0.21352 0.32777 0.00075 0.0
H1634 H 0.19508 0.38857 0.9969 0.0
H1635 H 0.15929 0.38785 0.00593 0.0
H1636 H 0.85648 0.09236 0.24029 0.0
H1637 H 0.85314 0.05607 0.24841 0.0
H1638 H 0.91523 0.04073 0.23415 0.0
H1639 H 0.91869 0.07669 0.22601 0.0
H1640 H 0.88252 0.01061 0.22824 0.0
H1641 H 0.88588 0.03001 0.27813 0.0
H1642 H 0.86682 0.04445 0.26905 0.0
H1643 H 0.89472 0.04836 0.26644 0.0
C1644 C 0.86948 0.0813 0.23898 0.0
C1645 C 0.88787 0.08745 0.23253 0.0
C1646 C 0.86756 0.0606 0.24364 0.0
C1647 C 0.88399 0.04577 0.24192 0.0
C1648 C 0.90236 0.05193 0.23556 0.0
H1649 H 0.91873 0.92824 0.27542 0.0
H1650 H 0.91513 0.96418 0.26727 0.0
C1651 C 0.90433 0.07255 0.23095 0.0
C1652 C 0.88215 0.02365 0.24653 0.0
H1653 H 0.88197 0.99393 0.27279 0.0
C1654 C 0.88219 0.00692 0.23798 0.0
C1655 C 0.8819 0.01895 0.25924 0.0
C1656 C 0.88247 0.03632 0.2688 0.0
C1657 C 0.88233 0.98558 0.2418 0.0
C1658 C 0.88227 0.98089 0.2545 0.0
C1659 C 0.88188 0.99761 0.26306 0.0
C1660 C 0.88421 0.95879 0.25913 0.0
C1661 C 0.88337 0.96823 0.23224 0.0
C1662 C 0.86801 0.94376 0.25722 0.0
C1663 C 0.87002 0.92308 0.26188 0.0
C1664 C 0.88827 0.91713 0.26854 0.0
C1665 C 0.90449 0.93223 0.27032 0.0
C1666 C 0.90244 0.95283 0.2657 0.0
H1667 H 0.88703 0.97458 0.22295 0.0
H1668 H 0.89565 0.9563 0.23474 0.0
H1669 H 0.86781 0.95995 0.23181 0.0
H1670 H 0.85371 0.94812 0.25229 0.0
H1671 H 0.8572 0.91186 0.26041 0.0
H1672 H 0.16497 0.60346 0.48712 0.0
H1673 H 0.20117 0.59992 0.49545 0.0
H1674 H 0.21294 0.66614 0.48794 0.0
H1675 H 0.17709 0.66984 0.47955 0.0
H1676 H 0.24301 0.61789 0.47982 0.0
H1677 H 0.22724 0.64873 0.52693 0.0
H1678 H 0.20722 0.63477 0.51813 0.0
H1679 H 0.2143 0.66147 0.51411 0.0
C1680 C 0.17522 0.61729 0.48735 0.0
C1681 C 0.16816 0.63693 0.48268 0.0
C1682 C 0.19588 0.61521 0.49205 0.0
C1683 C 0.20962 0.63278 0.49227 0.0
C1684 C 0.20251 0.65243 0.48784 0.0
H1685 H 0.33127 0.67029 0.51934 0.0
H1686 H 0.2951 0.66672 0.51151 0.0
C1687 C 0.182 0.65449 0.48306 0.0
C1688 C 0.23165 0.63079 0.4969 0.0
H1689 H 0.26313 0.6437 0.5213 0.0
C1690 C 0.24748 0.62324 0.48893 0.0
C1691 C 0.23728 0.63799 0.50874 0.0
C1692 C 0.22069 0.64615 0.51756 0.0
C1693 C 0.26904 0.62341 0.49238 0.0
C1694 C 0.27477 0.63094 0.50419 0.0
C1695 C 0.25876 0.63794 0.51225 0.0
C1696 C 0.2973 0.63286 0.50821 0.0
C1697 C 0.28552 0.61646 0.48314 0.0
C1698 C 0.31073 0.61503 0.50885 0.0
C1699 C 0.33162 0.61708 0.51321 0.0
C1700 C 0.33929 0.63694 0.51718 0.0
C1701 C 0.32586 0.65475 0.51638 0.0
C1702 C 0.30514 0.65274 0.51193 0.0
H1703 H 0.27905 0.61623 0.47363 0.0
H1704 H 0.29959 0.62713 0.48335 0.0
H1705 H 0.2909 0.60013 0.48541 0.0
H1706 H 0.30492 0.59946 0.50627 0.0
H1707 H 0.34151 0.60303 0.51383 0.0
H1708 H 0.6498 0.09413 0.76085 0.0
H1709 H 0.65325 0.05807 0.75243 0.0
H1710 H 0.59188 0.04168 0.76735 0.0
H1711 H 0.58835 0.07739 0.77582 0.0
H1712 H 0.62435 0.0117 0.77253 0.0
H1713 H 0.62043 0.03252 0.72287 0.0
H1714 H 0.63987 0.04656 0.73188 0.0
H1715 H 0.61207 0.05066 0.73479 0.0
C1716 C 0.63698 0.08288 0.76225 0.0
C1717 C 0.61877 0.08867 0.76898 0.0
C1718 C 0.63896 0.06231 0.75742 0.0
C1719 C 0.62275 0.04725 0.75921 0.0
C1720 C 0.60457 0.05305 0.76587 0.0
H1721 H 0.58814 0.93083 0.7244 0.0
H1722 H 0.59187 0.96659 0.7328 0.0
C1723 C 0.60257 0.07353 0.77067 0.0
C1724 C 0.62463 0.02528 0.75437 0.0
H1725 H 0.62477 0.99632 0.72782 0.0
C1726 C 0.62465 0.0083 0.76276 0.0
C1727 C 0.62483 0.02095 0.74162 0.0
C1728 C 0.62415 0.03857 0.73222 0.0
C1729 C 0.62448 0.98708 0.75873 0.0
C1730 C 0.62452 0.98275 0.74598 0.0
C1731 C 0.62488 0.99972 0.7376 0.0
C1732 C 0.62256 0.96079 0.74114 0.0
C1733 C 0.62342 0.96947 0.76813 0.0
C1734 C 0.63859 0.9456 0.74306 0.0
C1735 C 0.6365 0.92501 0.73826 0.0
C1736 C 0.61834 0.91934 0.73145 0.0
C1737 C 0.60231 0.93462 0.72962 0.0
C1738 C 0.60444 0.95511 0.73438 0.0
H1739 H 0.61957 0.97555 0.77745 0.0
H1740 H 0.61128 0.9575 0.76547 0.0
H1741 H 0.63905 0.96132 0.76858 0.0
H1742 H 0.65283 0.94975 0.74812 0.0
H1743 H 0.64917 0.91366 0.73977 0.0
H1744 H 0.68284 0.66177 0.03362 0.0
H1745 H 0.71853 0.6601 0.02497 0.0
H1746 H 0.6958 0.61906 0.99603 0.0
H1747 H 0.66001 0.61984 0.00508 0.0
H1748 H 0.73301 0.60562 0.00387 0.0
H1749 H 0.73943 0.69216 0.99603 0.0
H1750 H 0.73441 0.68653 0.0119 0.0
H1751 H 0.71478 0.67973 1.00047 0.0
C1752 C 0.68538 0.65246 0.02537 0.0
C1753 C 0.66856 0.64114 0.01993 0.0
C1754 C 0.70581 0.65162 0.02039 0.0
C1755 C 0.7098 0.63997 0.00963 0.0
C1756 C 0.69309 0.62832 0.00428 0.0
H1757 H 0.82396 0.66229 0.96693 0.0
H1758 H 0.78782 0.66009 0.97487 0.0
C1759 C 0.67265 0.62881 0.00942 0.0
C1760 C 0.73147 0.63983 0.00412 0.0
H1761 H 0.77188 0.6725 0.99507 0.0
C1762 C 0.74145 0.62024 0.00183 0.0
C1763 C 0.74241 0.65889 0.00126 0.0
C1764 C 0.7321 0.68048 0.00241 0.0
C1765 C 0.76216 0.61919 0.99697 0.0
C1766 C 0.77352 0.63828 0.99475 0.0
C1767 C 0.76338 0.65783 0.9969 0.0
C1768 C 0.79558 0.63858 0.98976 0.0
C1769 C 0.77134 0.59764 0.99398 0.0
C1770 C 0.81219 0.62724 0.99544 0.0
C1771 C 0.83292 0.62812 0.99072 0.0
C1772 C 0.83751 0.64087 0.98045 0.0
C1773 C 0.82097 0.65244 0.97491 0.0
C1774 C 0.80025 0.65117 0.97945 0.0
H1775 H 0.75862 0.58564 0.9925 0.0
H1776 H 0.78145 0.59825 0.98562 0.0
H1777 H 0.78123 0.59215 0.0018 0.0
H1778 H 0.80922 0.61793 0.00363 0.0
H1779 H 0.8454 0.61917 0.99522 0.0
H1780 H 0.13825 0.90987 0.75572 0.0
H1781 H 0.13925 0.94596 0.74718 0.0
H1782 H 0.09979 0.96814 0.77699 0.0
H1783 H 0.09785 0.93212 0.78513 0.0
H1784 H 0.08586 0.98391 0.75695 0.0
H1785 H 0.173 0.99632 0.75737 0.0
H1786 H 0.16554 0.97364 0.74837 0.0
H1787 H 0.16065 0.97376 0.76469 0.0
C1788 C 0.12985 0.9225 0.76044 0.0
C1789 C 0.11793 0.91817 0.77107 0.0
C1790 C 0.13059 0.94317 0.75562 0.0
C1791 C 0.11993 0.95996 0.76156 0.0
C1792 C 0.10817 0.95555 0.77223 0.0
H1793 H 0.13865 0.09519 0.74552 0.0
H1794 H 0.13971 0.05946 0.75461 0.0
C1795 C 0.10706 0.9349 0.77687 0.0
C1796 C 0.12007 0.98196 0.75647 0.0
H1797 H 0.15244 0.02205 0.74646 0.0
C1798 C 0.10047 0.99225 0.75474 0.0
C1799 C 0.13909 0.9931 0.75376 0.0
C1800 C 0.16075 0.98373 0.75627 0.0
C1801 C 0.0993 0.01317 0.75032 0.0
C1802 C 0.11825 0.02391 0.74699 0.0
C1803 C 0.13789 0.01376 0.74886 0.0
C1804 C 0.11794 0.04554 0.74144 0.0
C1805 C 0.07774 0.02366 0.74959 0.0
C1806 C 0.1057 0.04955 0.7309 0.0
C1807 C 0.10473 0.06996 0.72589 0.0
C1808 C 0.11647 0.08672 0.73108 0.0
C1809 C 0.12935 0.0826 0.74137 0.0
C1810 C 0.13 0.06219 0.74654 0.0
H1811 H 0.06639 0.01645 0.75621 0.0
H1812 H 0.07876 0.04097 0.75149 0.0
H1813 H 0.07109 0.02138 0.74023 0.0
H1814 H 0.09685 0.03687 0.72652 0.0
H1815 H 0.09496 0.07252 0.71782 0.0
H1816 H 0.82627 0.33658 0.52719 0.0
H1817 H 0.79034 0.33969 0.51893 0.0
H1818 H 0.80665 0.39986 0.50245 0.0
H1819 H 0.84291 0.39683 0.51067 0.0
H1820 H 0.76055 0.37272 0.52352 0.0
H1821 H 0.78038 0.36501 0.47388 0.0
H1822 H 0.79869 0.35741 0.48588 0.0
H1823 H 0.79475 0.38498 0.4823 0.0
C1824 C 0.82233 0.35044 0.52174 0.0
C1825 C 0.83752 0.36643 0.51955 0.0
C1826 C 0.80174 0.35221 0.51706 0.0
C1827 C 0.79586 0.36993 0.51003 0.0
C1828 C 0.81095 0.38592 0.50774 0.0
H1829 H 0.66249 0.39721 0.49057 0.0
H1830 H 0.69868 0.40048 0.49885 0.0
C1831 C 0.83163 0.38418 0.51246 0.0
C1832 C 0.77379 0.37157 0.50529 0.0
H1833 H 0.74431 0.37021 0.47893 0.0
C1834 C 0.75696 0.37235 0.51377 0.0
C1835 C 0.7692 0.37091 0.49257 0.0
C1836 C 0.78664 0.36937 0.48309 0.0
C1837 C 0.73565 0.37218 0.50988 0.0
C1838 C 0.73107 0.3714 0.49716 0.0
C1839 C 0.7479 0.37094 0.48868 0.0
C1840 C 0.70898 0.36956 0.49248 0.0
C1841 C 0.7182 0.37203 0.51939 0.0
C1842 C 0.70283 0.35117 0.48612 0.0
C1843 C 0.68227 0.34926 0.48141 0.0
C1844 C 0.6674 0.36577 0.48288 0.0
C1845 C 0.67352 0.38416 0.48934 0.0
C1846 C 0.69417 0.38604 0.4941 0.0
H1847 H 0.7244 0.36867 0.52876 0.0
H1848 H 0.71033 0.38781 0.51955 0.0
H1849 H 0.70597 0.35994 0.51707 0.0
H1850 H 0.71401 0.33826 0.48478 0.0
H1851 H 0.67814 0.33489 0.47646 0.0
H1852 H 0.35721 0.09447 0.25998 0.0
H1853 H 0.35365 0.05817 0.25192 0.0
H1854 H 0.41341 0.04113 0.26866 0.0
H1855 H 0.41705 0.07708 0.27677 0.0
H1856 H 0.38117 0.03481 0.23637 0.0
H1857 H 0.37221 0.99563 0.28169 0.0
H1858 H 0.36912 0.02395 0.27962 0.0
H1859 H 0.39523 0.01244 0.28073 0.0
C1860 C 0.36961 0.083 0.26191 0.0
C1861 C 0.38736 0.08866 0.26908 0.0
C1862 C 0.36753 0.06227 0.25732 0.0
C1863 C 0.38305 0.04685 0.25991 0.0
C1864 C 0.401 0.05263 0.26679 0.0
H1865 H 0.41818 0.93038 0.22508 0.0
H1866 H 0.41427 0.96637 0.23311 0.0
C1867 C 0.40312 0.07327 0.27135 0.0
C1868 C 0.38087 0.02476 0.25528 0.0
H1869 H 0.3802 0.9729 0.26466 0.0
C1870 C 0.38071 0.02128 0.24255 0.0
C1871 C 0.37996 0.00712 0.26335 0.0
C1872 C 0.37892 0.00992 0.27711 0.0
C1873 C 0.38065 1.0006 0.23767 0.0
C1874 C 0.38101 0.98296 0.24575 0.0
C1875 C 0.38016 0.98644 0.25848 0.0
C1876 C 0.38331 0.96086 0.24117 0.0
C1877 C 0.38036 0.99779 0.2239 0.0
C1878 C 0.3675 0.94556 0.2434 0.0
C1879 C 0.36973 0.92482 0.23885 0.0
C1880 C 0.3879 0.91903 0.2321 0.0
C1881 C 0.40393 0.93429 0.23019 0.0
C1882 C 0.40166 0.95495 0.2347 0.0
H1883 H 0.37407 0.01215 0.21919 0.0
H1884 H 0.39684 0.99509 0.2206 0.0
H1885 H 0.37055 0.98386 0.22122 0.0
H1886 H 0.3533 0.94977 0.24848 0.0
H1887 H 0.35711 0.91344 0.24049 0.0
H1888 H 0.82814 0.83895 0.47419 0.0
H1889 H 0.79215 0.84275 0.48223 0.0
H1890 H 0.80944 0.90229 0.49913 0.0
H1891 H 0.84578 0.89863 0.49109 0.0
H1892 H 0.78582 0.87336 0.5146 0.0
H1893 H 0.74716 0.88558 0.46933 0.0
H1894 H 0.76424 0.8627 0.46993 0.0
H1895 H 0.77542 0.88884 0.47167 0.0
C1896 C 0.82439 0.85287 0.47964 0.0
C1897 C 0.83984 0.86855 0.48195 0.0
C1898 C 0.80374 0.85506 0.48416 0.0
C1899 C 0.79804 0.87298 0.49108 0.0
C1900 C 0.81351 0.88843 0.49371 0.0
H1901 H 0.66457 0.89835 0.5106 0.0
H1902 H 0.70102 0.90262 0.50287 0.0
C1903 C 0.83424 0.8863 0.48912 0.0
C1904 C 0.77596 0.87517 0.49568 0.0
H1905 H 0.72422 0.87693 0.48613 0.0
C1906 C 0.77235 0.87441 0.50839 0.0
C1907 C 0.75843 0.87681 0.48758 0.0
C1908 C 0.76144 0.87874 0.47387 0.0
C1909 C 0.75161 0.87424 0.51319 0.0
C1910 C 0.73406 0.87462 0.50503 0.0
C1911 C 0.73769 0.87641 0.49236 0.0
C1912 C 0.7119 0.87205 0.50947 0.0
C1913 C 0.74865 0.87344 0.52694 0.0
C1914 C 0.70583 0.85325 0.51543 0.0
C1915 C 0.68511 0.85073 0.51979 0.0
C1916 C 0.66993 0.86694 0.51823 0.0
C1917 C 0.67588 0.88558 0.51196 0.0
C1918 C 0.69669 0.88807 0.50757 0.0
H1919 H 0.76298 0.87929 0.53187 0.0
H1920 H 0.73472 0.88306 0.52983 0.0
H1921 H 0.74586 0.85673 0.52979 0.0
H1922 H 0.71718 0.84048 0.51674 0.0
H1923 H 0.68107 0.83611 0.52451 0.0
H1924 H 0.41995 0.57608 0.72414 0.0
H1925 H 0.41583 0.54023 0.73234 0.0
H1926 H 0.35507 0.55745 0.74776 0.0
H1927 H 0.35908 0.59363 0.73959 0.0
H1928 H 0.38229 0.53438 0.764 0.0
H1929 H 0.37489 0.49458 0.71874 0.0
H1930 H 0.39774 0.5116 0.71994 0.0
H1931 H 0.3715 0.52291 0.72069 0.0
C1932 C 0.4057 0.57233 0.7293 0.0
C1933 C 0.38979 0.58772 0.73116 0.0
C1934 C 0.40332 0.55175 0.7339 0.0
C1935 C 0.38497 0.54606 0.74044 0.0
C1936 C 0.36927 0.56149 0.74263 0.0
H1937 H 0.35851 0.41294 0.76028 0.0
H1938 H 0.35471 0.44918 0.75216 0.0
C1939 C 0.37161 0.58214 0.73797 0.0
C1940 C 0.38255 0.52406 0.74514 0.0
H1941 H 0.38213 0.4721 0.73598 0.0
C1942 C 0.38199 0.52076 0.75788 0.0
C1943 C 0.38187 0.50633 0.73713 0.0
C1944 C 0.38132 0.50897 0.72336 0.0
C1945 C 0.38179 0.50015 0.76284 0.0
C1946 C 0.38238 0.48241 0.75484 0.0
C1947 C 0.3819 0.48572 0.74209 0.0
C1948 C 0.38463 0.46039 0.75954 0.0
C1949 C 0.38116 0.49751 0.77662 0.0
C1950 C 0.40293 0.45459 0.7661 0.0
C1951 C 0.40519 0.43398 0.77067 0.0
C1952 C 0.38922 0.41867 0.76875 0.0
C1953 C 0.37108 0.42436 0.76193 0.0
C1954 C 0.36886 0.44505 0.75731 0.0
H1955 H 0.3748 0.51194 0.78123 0.0
H1956 H 0.37124 0.48363 0.77927 0.0
H1957 H 0.39754 0.49478 0.78007 0.0
H1958 H 0.4155 0.46605 0.76769 0.0
H1959 H 0.41941 0.43014 0.77583 0.0
H1960 H 0.82728 0.16696 0.02647 0.0
H1961 H 0.7912 0.16345 0.0185 0.0
H1962 H 0.80749 0.10305 0.0023 0.0
H1963 H 0.8439 0.10645 0.01025 0.0
H1964 H 0.78425 0.13098 0.98653 0.0
H1965 H 0.74549 0.12254 0.03203 0.0
H1966 H 0.76268 0.14526 0.03093 0.0
H1967 H 0.77373 0.11896 0.02982 0.0
C1968 C 0.82328 0.15291 0.02119 0.0
C1969 C 0.83848 0.13692 0.01905 0.0
C1970 C 0.80257 0.15088 0.01672 0.0
C1971 C 0.79655 0.1328 0.01003 0.0
C1972 C 0.81178 0.11704 0.00755 0.0
H1973 H 0.66285 0.10761 0.99082 0.0
H1974 H 0.69923 0.10352 0.99872 0.0
C1975 C 0.83257 0.11903 0.01208 0.0
C1976 C 0.7744 0.13074 0.00548 0.0
H1977 H 0.72264 0.13043 0.01505 0.0
C1978 C 0.77078 0.1306 0.99276 0.0
C1979 C 0.75685 0.12996 0.01361 0.0
C1980 C 0.75982 0.12897 0.02736 0.0
C1981 C 0.75003 0.13071 0.98796 0.0
C1982 C 0.73249 0.13117 0.99611 0.0
C1983 C 0.73611 0.1303 0.00882 0.0
C1984 C 0.71036 0.13366 0.9916 0.0
C1985 C 0.74705 0.13052 0.9742 0.0
C1986 C 0.70446 0.15216 0.98528 0.0
C1987 C 0.68377 0.15459 0.98084 0.0
C1988 C 0.66847 0.13856 0.98266 0.0
C1989 C 0.67426 0.12023 0.98926 0.0
C1990 C 0.69503 0.11785 0.99375 0.0
H1991 H 0.76135 0.12428 0.96941 0.0
H1992 H 0.73308 0.12073 0.97156 0.0
H1993 H 0.74428 0.14701 0.97095 0.0
H1994 H 0.71592 0.16476 0.98376 0.0
H1995 H 0.67987 0.16896 0.97585 0.0
H1996 H 0.08538 0.57988 0.27055 0.0
H1997 H 0.08909 0.54398 0.26224 0.0
H1998 H 0.15574 0.55514 0.25565 0.0
H1999 H 0.15219 0.59137 0.2639 0.0
H2000 H 0.11057 0.53276 0.23645 0.0
H2001 H 0.14643 0.49834 0.27889 0.0
H2002 H 0.12911 0.52123 0.27957 0.0
H2003 H 0.15531 0.52385 0.2733 0.0
C2004 C 0.10083 0.57481 0.26727 0.0
C2005 C 0.11851 0.58848 0.2679 0.0
C2006 C 0.1029 0.55428 0.26253 0.0
C2007 C 0.1227 0.54693 0.25844 0.0
C2008 C 0.14035 0.56057 0.25884 0.0
H2009 H 0.15176 0.41561 0.23639 0.0
H2010 H 0.15526 0.45253 0.24344 0.0
C2011 C 0.13827 0.58125 0.2635 0.0
C2012 C 0.12466 0.52487 0.25387 0.0
H2013 H 0.13806 0.47461 0.26288 0.0
C2014 C 0.11676 0.52004 0.24216 0.0
C2015 C 0.13287 0.50843 0.26133 0.0
C2016 C 0.14143 0.51302 0.27401 0.0
C2017 C 0.11651 0.49906 0.23777 0.0
C2018 C 0.12379 0.48239 0.24546 0.0
C2019 C 0.13236 0.48736 0.25703 0.0
C2020 C 0.12171 0.4597 0.24184 0.0
C2021 C 0.10848 0.49498 0.22491 0.0
C2022 C 0.10163 0.45127 0.23902 0.0
C2023 C 0.09961 0.43032 0.23495 0.0
C2024 C 0.1176 0.4172 0.23378 0.0
C2025 C 0.13761 0.42532 0.23718 0.0
C2026 C 0.13964 0.44642 0.24118 0.0
H2027 H 0.11007 0.50934 0.21903 0.0
H2028 H 0.11721 0.48167 0.22049 0.0
H2029 H 0.09136 0.49076 0.2253 0.0
H2030 H 0.08749 0.461 0.23982 0.0
H2031 H 0.08394 0.4245 0.23254 0.0
H2032 H 0.16307 0.10634 0.51014 0.0
H2033 H 0.19933 0.10217 0.50209 0.0
H2034 H 0.21602 0.1639 0.51637 0.0
H2035 H 0.18011 0.16817 0.52445 0.0
H2036 H 0.22238 0.12834 0.4854 0.0
H2037 H 0.26187 0.12433 0.53089 0.0
H2038 H 0.23357 0.12068 0.52895 0.0
H2039 H 0.24478 0.14699 0.52915 0.0
C2040 C 0.17446 0.11904 0.51152 0.0
C2041 C 0.16871 0.13754 0.51799 0.0
C2042 C 0.19516 0.11662 0.50694 0.0
C2043 C 0.21047 0.13254 0.50886 0.0
C2044 C 0.2046 0.15121 0.51503 0.0
H2045 H 0.32649 0.16497 0.47274 0.0
H2046 H 0.29052 0.16145 0.48084 0.0
C2047 C 0.18398 0.15367 0.51956 0.0
C2048 C 0.23254 0.13001 0.50427 0.0
H2049 H 0.28445 0.13061 0.51356 0.0
C2050 C 0.23595 0.12858 0.49155 0.0
C2051 C 0.25022 0.13001 0.51233 0.0
C2052 C 0.24749 0.13038 0.5261 0.0
C2053 C 0.25662 0.12816 0.48665 0.0
C2054 C 0.2743 0.12945 0.49468 0.0
C2055 C 0.27089 0.12986 0.50742 0.0
C2056 C 0.29637 0.13149 0.48999 0.0
C2057 C 0.25935 0.12652 0.47291 0.0
C2058 C 0.31186 0.11615 0.4928 0.0
C2059 C 0.33261 0.11816 0.48821 0.0
C2060 C 0.3382 0.13566 0.48084 0.0
C2061 C 0.32273 0.15123 0.47833 0.0
C2062 C 0.30208 0.14918 0.48288 0.0
H2063 H 0.24504 0.11959 0.46845 0.0
H2064 H 0.26182 0.14267 0.46906 0.0
H2065 H 0.27339 0.11664 0.47053 0.0
H2066 H 0.30782 0.10247 0.49838 0.0
H2067 H 0.34415 0.10592 0.49032 0.0
H2068 H 0.64893 0.41223 0.2606 0.0
H2069 H 0.65253 0.44864 0.25269 0.0
H2070 H 0.59193 0.46504 0.2686 0.0
H2071 H 0.58821 0.42897 0.27653 0.0
H2072 H 0.62474 0.47183 0.23677 0.0
H2073 H 0.6328 0.51075 0.28226 0.0
H2074 H 0.63641 0.4825 0.28008 0.0
H2075 H 0.61009 0.49354 0.28109 0.0
C2076 C 0.63636 0.42359 0.26238 0.0
C2077 C 0.61833 0.41771 0.26924 0.0
C2078 C 0.63846 0.44437 0.25787 0.0
C2079 C 0.62268 0.45963 0.26027 0.0
C2080 C 0.6045 0.45365 0.26687 0.0
H2081 H 0.5867 0.57603 0.22587 0.0
H2082 H 0.59094 0.54003 0.23383 0.0
C2083 C 0.60235 0.43294 0.27132 0.0
C2084 C 0.62483 0.48175 0.25571 0.0
H2085 H 0.62506 0.53353 0.26522 0.0
C2086 C 0.62507 0.48532 0.24298 0.0
C2087 C 0.62555 0.49932 0.26383 0.0
C2088 C 0.62641 0.4964 0.27758 0.0
C2089 C 0.62501 0.50604 0.23816 0.0
C2090 C 0.62447 0.5236 0.24629 0.0
C2091 C 0.62525 0.52004 0.25901 0.0
C2092 C 0.62198 0.5457 0.24176 0.0
C2093 C 0.6253 0.50896 0.2244 0.0
C2094 C 0.63773 0.56108 0.24393 0.0
C2095 C 0.63533 0.58182 0.23942 0.0
C2096 C 0.61702 0.58753 0.23276 0.0
C2097 C 0.60105 0.57218 0.23091 0.0
C2098 C 0.6035 0.55152 0.23538 0.0
H2099 H 0.63162 0.49466 0.21965 0.0
H2100 H 0.60883 0.51168 0.2211 0.0
H2101 H 0.63509 0.52294 0.22177 0.0
H2102 H 0.65203 0.55693 0.24894 0.0
H2103 H 0.6479 0.59327 0.24101 0.0
H2104 H 0.17444 0.83482 0.9832 0.0
H2105 H 0.21066 0.8385 0.99092 0.0
H2106 H 0.20223 0.9064 0.99365 0.0
H2107 H 0.1656 0.90276 0.98619 0.0
H2108 H 0.24291 0.85978 0.98014 0.0
H2109 H 0.22831 0.89287 0.02674 0.0
H2110 H 0.2074 0.8813 0.01755 0.0
H2111 H 0.21655 0.90784 0.01444 0.0
C2112 C 0.18015 0.85053 0.9856 0.0
C2113 C 0.16711 0.8685 0.9841 0.0
C2114 C 0.20091 0.85261 0.98999 0.0
C2115 C 0.20917 0.87269 0.99296 0.0
C2116 C 0.1961 0.89068 0.99166 0.0
H2117 H 0.34088 0.90319 0.01467 0.0
H2118 H 0.30465 0.90646 0.00636 0.0
C2119 C 0.17518 0.88859 0.98736 0.0
C2120 C 0.23179 0.87463 0.99679 0.0
H2121 H 0.26422 0.88999 0.02042 0.0
C2122 C 0.24754 0.86647 0.98893 0.0
C2123 C 0.23787 0.88343 0.00825 0.0
C2124 C 0.22167 0.8917 0.0173 0.0
C2125 C 0.26908 0.8665 0.99231 0.0
C2126 C 0.27506 0.87492 0.00382 0.0
C2127 C 0.2595 0.88367 0.01155 0.0
C2128 C 0.29715 0.8731 0.0084 0.0
C2129 C 0.28534 0.85726 0.98363 0.0
C2130 C 0.30483 0.85327 0.01224 0.0
C2131 C 0.32534 0.85137 0.01704 0.0
C2132 C 0.33865 0.86926 0.01803 0.0
C2133 C 0.33105 0.88909 0.01396 0.0
C2134 C 0.31037 0.89102 0.00927 0.0
H2135 H 0.27881 0.85503 0.97423 0.0
H2136 H 0.29956 0.86771 0.98311 0.0
H2137 H 0.29058 0.84155 0.98714 0.0
H2138 H 0.2948 0.83928 0.0117 0.0
H2139 H 0.33068 0.83587 0.02008 0.0
H2140 H 0.92249 0.4262 0.73017 0.0
H2141 H 0.91901 0.46235 0.73804 0.0
H2142 H 0.85191 0.45226 0.74386 0.0
H2143 H 0.85541 0.4157 0.73629 0.0
H2144 H 0.8958 0.49426 0.72852 0.0
H2145 H 0.86922 0.47817 0.77632 0.0
H2146 H 0.87989 0.45766 0.7665 0.0
H2147 H 0.85283 0.46633 0.76467 0.0
C2148 C 0.90702 0.43155 0.73327 0.0
C2149 C 0.88923 0.41805 0.73264 0.0
C2150 C 0.90505 0.45226 0.73774 0.0
C2151 C 0.88524 0.46002 0.74164 0.0
C2152 C 0.86744 0.44652 0.74115 0.0
H2153 H 0.8548 0.59189 0.7629 0.0
H2154 H 0.85166 0.55568 0.75456 0.0
C2155 C 0.86945 0.42565 0.73678 0.0
C2156 C 0.88333 0.48253 0.74568 0.0
H2157 H 0.87033 0.51423 0.77009 0.0
C2158 C 0.89013 0.49859 0.73759 0.0
C2159 C 0.87592 0.48822 0.75753 0.0
C2160 C 0.86922 0.47171 0.76681 0.0
C2161 C 0.89007 0.52006 0.7411 0.0
C2162 C 0.88294 0.52566 0.75295 0.0
C2163 C 0.87562 0.50979 0.76096 0.0
C2164 C 0.88471 0.54772 0.75754 0.0
C2165 C 0.89799 0.5367 0.73223 0.0
C2166 C 0.90434 0.55513 0.76187 0.0
C2167 C 0.90617 0.57564 0.76667 0.0
C2168 C 0.8884 0.58921 0.76717 0.0
C2169 C 0.86879 0.58187 0.76259 0.0
C2170 C 0.86694 0.5612 0.75787 0.0
H2171 H 0.90054 0.53015 0.72286 0.0
H2172 H 0.88648 0.55006 0.73168 0.0
H2173 H 0.9133 0.54325 0.73563 0.0
H2174 H 0.91821 0.54491 0.76169 0.0
H2175 H 0.9215 0.58078 0.77011 0.0
H2176 H 0.13724 0.36605 0.07362 0.0
H2177 H 0.14328 0.36516 0.09577 0.0
H2178 H 0.08597 0.40136 0.10164 0.0
H2179 H 0.07976 0.4025 0.0794 0.0
H2180 H 0.12287 0.41382 0.11657 0.0
H2181 H 0.10536 0.32723 0.11818 0.0
H2182 H 0.12515 0.33501 0.10715 0.0
H2183 H 0.09814 0.34373 0.10526 0.0
C2184 C 0.12597 0.37401 0.07958 0.0
C2185 C 0.10787 0.38416 0.07472 0.0
C2186 C 0.12944 0.37342 0.09224 0.0
C2187 C 0.11489 0.38288 0.10031 0.0
C2188 C 0.09733 0.39387 0.09553 0.0
H2189 H 0.10156 0.38632 0.17967 0.0
H2190 H 0.09951 0.39376 0.15768 0.0
C2191 C 0.09381 0.39449 0.08283 0.0
C2192 C 0.11754 0.38038 0.11375 0.0
H2193 H 0.11798 0.34302 0.13648 0.0
C2194 C 0.12175 0.39838 0.12096 0.0
C2195 C 0.11606 0.36019 0.1194 0.0
C2196 C 0.11076 0.34043 0.11215 0.0
C2197 C 0.12497 0.39665 0.13371 0.0
C2198 C 0.12352 0.37644 0.13936 0.0
C2199 C 0.11922 0.35848 0.13212 0.0
C2200 C 0.12595 0.37342 0.1528 0.0
C2201 C 0.13032 0.41639 0.14096 0.0
C2202 C 0.14137 0.35935 0.15736 0.0
C2203 C 0.14246 0.35489 0.16993 0.0
C2204 C 0.12807 0.36435 0.17818 0.0
C2205 C 0.11295 0.37882 0.1736 0.0
C2206 C 0.11184 0.38322 0.16102 0.0
H2207 H 0.13669 0.42918 0.13495 0.0
H2208 H 0.11568 0.42247 0.14543 0.0
H2209 H 0.14218 0.41289 0.14825 0.0
H2210 H 0.15234 0.35154 0.15116 0.0
H2211 H 0.15431 0.34368 0.17313 0.0
H2212 H 0.92263 0.90219 0.42171 0.0
H2213 H 0.9152 0.90043 0.39964 0.0
H2214 H 0.86278 0.8579 0.40654 0.0
H2215 H 0.87004 0.85944 0.42855 0.0
H2216 H 0.89274 0.84326 0.38891 0.0
H2217 H 0.86571 0.92561 0.37901 0.0
H2218 H 0.89023 0.92349 0.38742 0.0
H2219 H 0.86589 0.91458 0.39434 0.0
C2220 C 0.90934 0.89269 0.41856 0.0
C2221 C 0.89698 0.88091 0.42692 0.0
C2222 C 0.90506 0.89179 0.40594 0.0
C2223 C 0.88832 0.87919 0.40149 0.0
C2224 C 0.8757 0.86779 0.40981 0.0
H2225 H 0.85084 0.83726 0.32808 0.0
H2226 H 0.85224 0.84379 0.35024 0.0
C2227 C 0.87991 0.86871 0.4224 0.0
C2228 C 0.88493 0.87654 0.38811 0.0
H2229 H 0.87194 0.9032 0.36183 0.0
C2230 C 0.88804 0.85631 0.38299 0.0
C2231 C 0.87893 0.89364 0.38043 0.0
C2232 C 0.87481 0.91555 0.38555 0.0
C2233 C 0.88577 0.85278 0.37033 0.0
C2234 C 0.8797 0.86987 0.36262 0.0
C2235 C 0.87648 0.89011 0.36776 0.0
C2236 C 0.87743 0.86717 0.34915 0.0
C2237 C 0.89057 0.83095 0.36528 0.0
C2238 C 0.89047 0.87882 0.34115 0.0
C2239 C 0.88956 0.8753 0.32849 0.0
C2240 C 0.87557 0.86004 0.32356 0.0
C2241 C 0.86194 0.84898 0.33157 0.0
C2242 C 0.86279 0.8526 0.34424 0.0
H2243 H 0.90012 0.8213 0.37181 0.0
H2244 H 0.87541 0.8224 0.36358 0.0
H2245 H 0.89934 0.83202 0.35644 0.0
H2246 H 0.9018 0.89022 0.34474 0.0
H2247 H 0.90023 0.88419 0.3226 0.0
H2248 H 0.35272 0.66955 0.67205 0.0
H2249 H 0.35308 0.66315 0.64986 0.0
H2250 H 0.4004 0.61426 0.65476 0.0
H2251 H 0.39988 0.6202 0.6769 0.0
H2252 H 0.3873 0.66819 0.63471 0.0
H2253 H 0.3586 0.58502 0.63203 0.0
H2254 H 0.35572 0.60103 0.6457 0.0
H2255 H 0.38064 0.58823 0.64233 0.0
C2256 C 0.36298 0.65722 0.66843 0.0
C2257 C 0.37626 0.64539 0.67627 0.0
C2258 C 0.36317 0.65359 0.65575 0.0
C2259 C 0.37654 0.63802 0.65067 0.0
C2260 C 0.38957 0.62599 0.65849 0.0
H2261 H 0.4214 0.60531 0.57803 0.0
H2262 H 0.41412 0.60756 0.60011 0.0
C2263 C 0.38936 0.62954 0.67116 0.0
C2264 C 0.37814 0.63547 0.63716 0.0
H2265 H 0.37516 0.599 0.61394 0.0
C2266 C 0.3844 0.65312 0.63015 0.0
C2267 C 0.37447 0.61576 0.63124 0.0
C2268 C 0.36679 0.59648 0.63819 0.0
C2269 C 0.38762 0.65149 0.61743 0.0
C2270 C 0.38423 0.63173 0.61154 0.0
C2271 C 0.37779 0.6141 0.61851 0.0
C2272 C 0.38755 0.62913 0.59816 0.0
C2273 C 0.39521 0.67077 0.61043 0.0
C2274 C 0.37466 0.64009 0.58978 0.0
C2275 C 0.37875 0.63886 0.57718 0.0
C2276 C 0.3958 0.62658 0.57272 0.0
C2277 C 0.40821 0.61498 0.58115 0.0
C2278 C 0.40407 0.61622 0.59376 0.0
H2279 H 0.40145 0.68331 0.61665 0.0
H2280 H 0.40788 0.66637 0.60378 0.0
H2281 H 0.38172 0.67759 0.60516 0.0
H2282 H 0.36163 0.64988 0.593 0.0
H2283 H 0.36877 0.64788 0.57097 0.0
H2284 H 0.65395 0.17182 0.82862 0.0
H2285 H 0.65316 0.16515 0.85078 0.0
H2286 H 0.60801 0.11443 0.84521 0.0
H2287 H 0.60898 0.12065 0.8231 0.0
H2288 H 0.61836 0.16867 0.86558 0.0
H2289 H 0.65016 0.08664 0.8683 0.0
H2290 H 0.65279 0.10286 0.8547 0.0
H2291 H 0.62828 0.08912 0.85782 0.0
C2292 C 0.64409 0.15904 0.83209 0.0
C2293 C 0.63154 0.14677 0.82407 0.0
C2294 C 0.64365 0.15525 0.84476 0.0
C2295 C 0.63076 0.13909 0.84963 0.0
C2296 C 0.61848 0.12663 0.84164 0.0
H2297 H 0.58625 0.10523 0.9224 0.0
H2298 H 0.59326 0.10746 0.90028 0.0
C2299 C 0.61894 0.13034 0.82899 0.0
C2300 C 0.62885 0.13635 0.86313 0.0
H2301 H 0.63288 0.09992 0.88632 0.0
C2302 C 0.62176 0.1537 0.87013 0.0
C2303 C 0.63316 0.11676 0.86904 0.0
C2304 C 0.64171 0.09784 0.8621 0.0
C2305 C 0.61841 0.15189 0.88283 0.0
C2306 C 0.62251 0.13226 0.8887 0.0
C2307 C 0.6297 0.11492 0.88175 0.0
C2308 C 0.61939 0.1296 0.90209 0.0
C2309 C 0.61003 0.17084 0.88983 0.0
C2310 C 0.63213 0.14089 0.9104 0.0
C2311 C 0.62822 0.13966 0.92301 0.0
C2312 C 0.61147 0.12707 0.92757 0.0
C2313 C 0.59922 0.11514 0.91922 0.0
C2314 C 0.6032 0.11637 0.90658 0.0
H2315 H 0.60341 0.18317 0.8836 0.0
H2316 H 0.59747 0.16592 0.89641 0.0
H2317 H 0.6232 0.17812 0.89516 0.0
H2318 H 0.6449 0.15096 0.90711 0.0
H2319 H 0.63808 0.14896 0.92916 0.0
H2320 H 0.15483 0.66748 0.32805 0.0
H2321 H 0.15387 0.66059 0.35017 0.0
H2322 H 0.10488 0.61355 0.34464 0.0
H2323 H 0.10599 0.61999 0.32254 0.0
H2324 H 0.1195 0.66663 0.36509 0.0
H2325 H 0.14518 0.58242 0.36749 0.0
H2326 H 0.14889 0.59854 0.35392 0.0
H2327 H 0.12342 0.58673 0.35711 0.0
C2328 C 0.14407 0.65544 0.33151 0.0
C2329 C 0.13049 0.64429 0.3235 0.0
C2330 C 0.14354 0.65153 0.34416 0.0
C2331 C 0.12951 0.63636 0.34904 0.0
C2332 C 0.11619 0.62497 0.34106 0.0
H2333 H 0.08478 0.60468 0.4221 0.0
H2334 H 0.09148 0.60655 0.39994 0.0
C2335 C 0.11675 0.6288 0.32841 0.0
C2336 C 0.12758 0.63366 0.36254 0.0
H2337 H 0.12956 0.59695 0.38567 0.0
C2338 C 0.12191 0.65144 0.3696 0.0
C2339 C 0.13059 0.61379 0.36839 0.0
C2340 C 0.13755 0.59432 0.36136 0.0
C2341 C 0.11875 0.64983 0.38233 0.0
C2342 C 0.12162 0.62995 0.38816 0.0
C2343 C 0.12736 0.61215 0.38113 0.0
C2344 C 0.11864 0.62746 0.40158 0.0
C2345 C 0.11185 0.66931 0.38938 0.0
C2346 C 0.13206 0.63815 0.40981 0.0
C2347 C 0.1283 0.63714 0.42245 0.0
C2348 C 0.11106 0.62535 0.4271 0.0
C2349 C 0.09813 0.61397 0.41883 0.0
C2350 C 0.10194 0.61499 0.40618 0.0
H2351 H 0.1057 0.68196 0.3832 0.0
H2352 H 0.09931 0.66524 0.39617 0.0
H2353 H 0.12567 0.67584 0.39448 0.0
H2354 H 0.14525 0.64757 0.40644 0.0
H2355 H 0.13868 0.64597 0.42853 0.0
H2356 H 0.60719 0.88529 0.67723 0.0
H2357 H 0.6061 0.89052 0.65502 0.0
H2358 H 0.65382 0.84197 0.65031 0.0
H2359 H 0.65471 0.83624 0.67256 0.0
H2360 H 0.6366 0.9017 0.63796 0.0
H2361 H 0.60546 0.8206 0.62875 0.0
H2362 H 0.60647 0.83179 0.644 0.0
H2363 H 0.6301 0.82103 0.63708 0.0
C2364 C 0.61756 0.87576 0.67151 0.0
C2365 C 0.63087 0.86016 0.67669 0.0
C2366 C 0.61692 0.87882 0.6588 0.0
C2367 C 0.62957 0.86636 0.65101 0.0
C2368 C 0.64356 0.85141 0.65615 0.0
H2369 H 0.63811 0.85583 0.57174 0.0
H2370 H 0.64476 0.85456 0.59383 0.0
C2371 C 0.64413 0.84825 0.66887 0.0
C2372 C 0.6276 0.86866 0.63749 0.0
H2373 H 0.61396 0.84165 0.61144 0.0
C2374 C 0.63165 0.88859 0.63215 0.0
C2375 C 0.621 0.85155 0.62995 0.0
C2376 C 0.6153 0.83009 0.63522 0.0
C2377 C 0.62953 0.89177 0.61942 0.0
C2378 C 0.623 0.87464 0.61191 0.0
C2379 C 0.61905 0.85472 0.61724 0.0
C2380 C 0.61995 0.87695 0.59849 0.0
C2381 C 0.63455 0.91333 0.61408 0.0
C2382 C 0.60381 0.89005 0.59379 0.0
C2383 C 0.59989 0.89079 0.58114 0.0
C2384 C 0.61201 0.87837 0.57297 0.0
C2385 C 0.62845 0.86561 0.57774 0.0
C2386 C 0.6323 0.86484 0.59037 0.0
H2387 H 0.64393 0.92326 0.62056 0.0
H2388 H 0.64356 0.91173 0.60535 0.0
H2389 H 0.61946 0.92177 0.61205 0.0
H2390 H 0.59387 0.89925 0.59994 0.0
H2391 H 0.58708 0.90074 0.57779 0.0
H2392 H 0.40102 0.38515 0.82283 0.0
H2393 H 0.40224 0.39106 0.84498 0.0
H2394 H 0.35291 0.34427 0.85016 0.0
H2395 H 0.35189 0.33784 0.82798 0.0
H2396 H 0.37234 0.40394 0.86181 0.0
H2397 H 0.40017 0.32206 0.87213 0.0
H2398 H 0.39958 0.33264 0.85673 0.0
H2399 H 0.37556 0.32309 0.8638 0.0
C2400 C 0.39033 0.37614 0.82865 0.0
C2401 C 0.37651 0.36083 0.82362 0.0
C2402 C 0.39104 0.37959 0.84132 0.0
C2403 C 0.37797 0.36783 0.84923 0.0
C2404 C 0.36351 0.35317 0.84423 0.0
H2405 H 0.36833 0.36089 0.92853 0.0
H2406 H 0.36164 0.35942 0.90646 0.0
C2407 C 0.36286 0.3496 0.83155 0.0
C2408 C 0.37996 0.37058 0.86272 0.0
H2409 H 0.3924 0.3441 0.88915 0.0
C2410 C 0.37672 0.39087 0.8678 0.0
C2411 C 0.38584 0.35353 0.8705 0.0
C2412 C 0.3907 0.33165 0.86553 0.0
C2413 C 0.37896 0.39448 0.88048 0.0
C2414 C 0.38474 0.3774 0.88822 0.0
C2415 C 0.38787 0.35713 0.88317 0.0
C2416 C 0.38779 0.38011 0.90162 0.0
C2417 C 0.37488 0.41643 0.88553 0.0
C2418 C 0.40466 0.39239 0.90621 0.0
C2419 C 0.40862 0.39323 0.91886 0.0
C2420 C 0.3958 0.38174 0.92712 0.0
C2421 C 0.37856 0.36993 0.92246 0.0
C2422 C 0.37468 0.36905 0.90984 0.0
H2423 H 0.36622 0.42662 0.87886 0.0
H2424 H 0.36555 0.41556 0.89418 0.0
H2425 H 0.39031 0.42417 0.88766 0.0
H2426 H 0.41515 0.40078 0.89998 0.0
H2427 H 0.42204 0.40243 0.92213 0.0
H2428 H 0.9011 0.11975 0.17836 0.0
H2429 H 0.90278 0.11331 0.15624 0.0
H2430 H 0.85127 0.15746 0.15053 0.0
H2431 H 0.84969 0.16435 0.17263 0.0
H2432 H 0.87303 0.09898 0.13909 0.0
H2433 H 0.89865 0.18169 0.12905 0.0
H2434 H 0.89836 0.17092 0.14441 0.0
H2435 H 0.87408 0.17984 0.13737 0.0
C2436 C 0.89001 0.12801 0.17243 0.0
C2437 C 0.87542 0.14278 0.17727 0.0
C2438 C 0.89099 0.12427 0.15978 0.0
C2439 C 0.87743 0.13521 0.15173 0.0
C2440 C 0.86219 0.1492 0.15657 0.0
H2441 H 0.86868 0.1436 0.0725 0.0
H2442 H 0.86177 0.14456 0.09456 0.0
C2443 C 0.86125 0.15304 0.16921 0.0
C2444 C 0.87979 0.13252 0.13827 0.0
H2445 H 0.89157 0.1596 0.11195 0.0
C2446 C 0.8771 0.11221 0.13314 0.0
C2447 C 0.88524 0.1498 0.13056 0.0
C2448 C 0.88946 0.17176 0.13561 0.0
C2449 C 0.87937 0.10879 0.12044 0.0
C2450 C 0.88469 0.1261 0.11275 0.0
C2451 C 0.88737 0.14639 0.11788 0.0
C2452 C 0.8878 0.12366 0.09933 0.0
C2453 C 0.87575 0.0868 0.11532 0.0
C2454 C 0.90466 0.11144 0.0947 0.0
C2455 C 0.90873 0.11087 0.08206 0.0
C2456 C 0.89603 0.1226 0.07385 0.0
C2457 C 0.87881 0.13438 0.07854 0.0
C2458 C 0.87481 0.13496 0.09115 0.0
H2459 H 0.867 0.07649 0.12189 0.0
H2460 H 0.86669 0.08755 0.10657 0.0
H2461 H 0.89135 0.07927 0.11338 0.0
H2462 H 0.9151 0.10289 0.10089 0.0
H2463 H 0.92214 0.10169 0.07877 0.0
H2464 H 0.85462 0.67059 0.82818 0.0
H2465 H 0.85652 0.6634 0.85028 0.0
H2466 H 0.89823 0.61034 0.84341 0.0
H2467 H 0.89661 0.61741 0.82137 0.0
H2468 H 0.84746 0.62499 0.86435 0.0
H2469 H 0.93222 0.6499 0.86682 0.0
H2470 H 0.91536 0.65626 0.8539 0.0
H2471 H 0.92628 0.63001 0.85547 0.0
C2472 C 0.86406 0.65728 0.83135 0.0
C2473 C 0.87564 0.64472 0.823 0.0
C2474 C 0.8651 0.65319 0.84398 0.0
C2475 C 0.87778 0.63655 0.84845 0.0
C2476 C 0.88864 0.62347 0.84013 0.0
H2477 H 0.91859 0.60082 0.92195 0.0
H2478 H 0.9115 0.60142 0.89985 0.0
C2479 C 0.88762 0.62752 0.82753 0.0
C2480 C 0.88036 0.63338 0.86185 0.0
H2481 H 0.91708 0.63582 0.8849 0.0
C2482 C 0.86266 0.62735 0.86887 0.0
C2483 C 0.90023 0.63645 0.86768 0.0
C2484 C 0.91961 0.64368 0.86063 0.0
C2485 C 0.86436 0.62405 0.88161 0.0
C2486 C 0.88421 0.6273 0.88746 0.0
C2487 C 0.90192 0.63322 0.88039 0.0
C2488 C 0.88695 0.62545 0.90095 0.0
C2489 C 0.84499 0.61681 0.88864 0.0
C2490 C 0.87542 0.63868 0.90891 0.0
C2491 C 0.87937 0.63832 0.92154 0.0
C2492 C 0.89512 0.62489 0.92646 0.0
C2493 C 0.90636 0.61135 0.91848 0.0
C2494 C 0.90234 0.61168 0.90585 0.0
H2495 H 0.8332 0.60901 0.88251 0.0
H2496 H 0.84938 0.60555 0.89608 0.0
H2497 H 0.8372 0.63083 0.89288 0.0
H2498 H 0.86383 0.6498 0.90532 0.0
H2499 H 0.87048 0.64904 0.9274 0.0
H2500 H 0.13859 0.14915 0.57172 0.0
H2501 H 0.14598 0.1509 0.59372 0.0
H2502 H 0.09569 0.10589 0.60068 0.0
H2503 H 0.08814 0.10393 0.57862 0.0
H2504 H 0.1154 0.16388 0.61155 0.0
H2505 H 0.14674 0.08291 0.62097 0.0
H2506 H 0.14588 0.09415 0.6057 0.0
H2507 H 0.12208 0.08388 0.61262 0.0
C2508 C 0.12923 0.13939 0.57788 0.0
C2509 C 0.11272 0.12642 0.57338 0.0
C2510 C 0.1335 0.14043 0.59046 0.0
C2511 C 0.12152 0.12839 0.59879 0.0
C2512 C 0.10535 0.11505 0.59436 0.0
H2513 H 0.10966 0.12082 0.67744 0.0
H2514 H 0.10886 0.11534 0.65526 0.0
C2515 C 0.101 0.11404 0.58176 0.0
C2516 C 0.12493 0.13105 0.61217 0.0
H2517 H 0.13937 0.10467 0.63829 0.0
C2518 C 0.1208 0.151 0.6174 0.0
C2519 C 0.13187 0.11416 0.61974 0.0
C2520 C 0.13709 0.09258 0.6145 0.0
C2521 C 0.12289 0.15443 0.63008 0.0
C2522 C 0.12984 0.13755 0.63769 0.0
C2523 C 0.13415 0.11761 0.63243 0.0
C2524 C 0.13174 0.14004 0.6512 0.0
C2525 C 0.11689 0.17588 0.63526 0.0
C2526 C 0.14533 0.15539 0.65633 0.0
C2527 C 0.14573 0.15871 0.66905 0.0
C2528 C 0.13271 0.14655 0.67687 0.0
C2529 C 0.11984 0.13055 0.67171 0.0
C2530 C 0.11937 0.12735 0.65902 0.0
H2531 H 0.10687 0.18512 0.62876 0.0
H2532 H 0.10813 0.17417 0.64406 0.0
H2533 H 0.13156 0.1852 0.63704 0.0
H2534 H 0.1554 0.16502 0.65049 0.0
H2535 H 0.15596 0.17102 0.67272 0.0
H2536 H 0.58633 0.40038 0.42214 0.0
H2537 H 0.59353 0.3982 0.40005 0.0
H2538 H 0.64506 0.35464 0.40699 0.0
H2539 H 0.638 0.35656 0.42902 0.0
H2540 H 0.63271 0.40591 0.38617 0.0
H2541 H 0.60429 0.32231 0.38334 0.0
H2542 H 0.59832 0.33936 0.39624 0.0
H2543 H 0.62416 0.32743 0.39485 0.0
C2544 C 0.5993 0.39046 0.41899 0.0
C2545 C 0.61145 0.37849 0.42736 0.0
C2546 C 0.6034 0.38926 0.40637 0.0
C2547 C 0.6196 0.37601 0.40191 0.0
C2548 C 0.63226 0.36469 0.41025 0.0
H2549 H 0.65455 0.33468 0.3283 0.0
H2550 H 0.65384 0.34123 0.35046 0.0
C2551 C 0.62822 0.36588 0.42285 0.0
C2552 C 0.62283 0.3734 0.38852 0.0
H2553 H 0.61912 0.33703 0.36535 0.0
C2554 C 0.62974 0.39088 0.38158 0.0
C2555 C 0.61899 0.35374 0.38262 0.0
C2556 C 0.61087 0.33464 0.38959 0.0
C2557 C 0.63316 0.38914 0.36886 0.0
C2558 C 0.62911 0.36951 0.36293 0.0
C2559 C 0.62232 0.35202 0.36992 0.0
C2560 C 0.63095 0.36686 0.34943 0.0
C2561 C 0.64138 0.40822 0.36193 0.0
C2562 C 0.61837 0.37913 0.34149 0.0
C2563 C 0.61878 0.37548 0.32883 0.0
C2564 C 0.63163 0.35931 0.32385 0.0
C2565 C 0.64448 0.34726 0.33181 0.0
C2566 C 0.6441 0.35097 0.34449 0.0
H2567 H 0.64967 0.41954 0.36814 0.0
H2568 H 0.6525 0.4034 0.35451 0.0
H2569 H 0.62778 0.41672 0.35768 0.0
H2570 H 0.60772 0.39112 0.34512 0.0
H2571 H 0.60859 0.38501 0.323 0.0
H2572 H 0.41816 0.90549 0.07814 0.0
H2573 H 0.41163 0.90422 0.10029 0.0
H2574 H 0.36517 0.85466 0.09487 0.0
H2575 H 0.37121 0.8561 0.07273 0.0
H2576 H 0.35214 0.88456 0.11186 0.0
H2577 H 0.43406 0.85667 0.12205 0.0
H2578 H 0.43303 0.8813 0.11374 0.0
H2579 H 0.42341 0.85731 0.10666 0.0
C2580 C 0.40645 0.89441 0.08164 0.0
C2581 C 0.39537 0.88075 0.07365 0.0
C2582 C 0.40282 0.89363 0.09432 0.0
C2583 C 0.38824 0.87903 0.09925 0.0
C2584 C 0.37659 0.86595 0.09127 0.0
H2585 H 0.35329 0.83575 0.17229 0.0
H2586 H 0.3549 0.84247 0.15014 0.0
C2587 C 0.3801 0.86679 0.0786 0.0
C2588 C 0.3855 0.87691 0.11273 0.0
H2589 H 0.41215 0.86455 0.13912 0.0
C2590 C 0.36524 0.88018 0.11783 0.0
C2591 C 0.4026 0.87104 0.12048 0.0
C2592 C 0.42445 0.86617 0.11547 0.0
C2593 C 0.36171 0.87803 0.13053 0.0
C2594 C 0.37884 0.87228 0.13825 0.0
C2595 C 0.39908 0.86907 0.13315 0.0
C2596 C 0.37625 0.86933 0.15167 0.0
C2597 C 0.33979 0.88222 0.13561 0.0
C2598 C 0.38775 0.88217 0.15984 0.0
C2599 C 0.38692 0.87835 0.17247 0.0
C2600 C 0.37471 0.86147 0.17719 0.0
C2601 C 0.3628 0.84891 0.16898 0.0
C2602 C 0.36361 0.85279 0.15632 0.0
H2603 H 0.3297 0.89113 0.12899 0.0
H2604 H 0.33188 0.86683 0.1376 0.0
H2605 H 0.34073 0.89135 0.14432 0.0
H2606 H 0.39765 0.89496 0.15641 0.0
H2607 H 0.39628 0.88837 0.1785 0.0
H2608 H 0.89258 0.39079 0.67897 0.0
H2609 H 0.89411 0.39725 0.65681 0.0
H2610 H 0.86316 0.3372 0.65012 0.0
H2611 H 0.86142 0.33057 0.67228 0.0
H2612 H 0.90424 0.34568 0.63723 0.0
H2613 H 0.84383 0.40968 0.63176 0.0
H2614 H 0.86249 0.41248 0.64421 0.0
H2615 H 0.84347 0.39123 0.6445 0.0
C2616 C 0.88587 0.37904 0.6728 0.0
C2617 C 0.87691 0.36013 0.6774 0.0
C2618 C 0.88669 0.38282 0.66016 0.0
C2619 C 0.87863 0.36776 0.65188 0.0
C2620 C 0.86936 0.34905 0.6564 0.0
H2621 H 0.86633 0.36623 0.57282 0.0
H2622 H 0.8605 0.36471 0.59503 0.0
C2623 C 0.86835 0.34532 0.66906 0.0
C2624 C 0.8812 0.37088 0.6385 0.0
H2625 H 0.86463 0.4012 0.61427 0.0
C2626 C 0.89558 0.35778 0.63219 0.0
C2627 C 0.86983 0.38669 0.63201 0.0
C2628 C 0.8539 0.4008 0.63839 0.0
C2629 C 0.89905 0.36022 0.61954 0.0
C2630 C 0.88786 0.37616 0.61307 0.0
C2631 C 0.87329 0.38912 0.61933 0.0
C2632 C 0.8907 0.379 0.59969 0.0
C2633 C 0.91449 0.34562 0.6131 0.0
C2634 C 0.90944 0.38798 0.59502 0.0
C2635 C 0.91282 0.389 0.58233 0.0
C2636 C 0.89754 0.38089 0.57412 0.0
C2637 C 0.87848 0.37252 0.57888 0.0
C2638 C 0.87507 0.37167 0.59156 0.0
H2639 H 0.91976 0.33233 0.6191 0.0
H2640 H 0.90712 0.3389 0.60467 0.0
H2641 H 0.92871 0.35483 0.61025 0.0
H2642 H 0.92164 0.39378 0.60121 0.0
H2643 H 0.92766 0.39554 0.57898 0.0
H2644 H 0.37106 0.11414 0.3214 0.0
H2645 H 0.37151 0.10608 0.3434 0.0
H2646 H 0.3773 0.17306 0.35147 0.0
H2647 H 0.37527 0.18117 0.32955 0.0
H2648 H 0.40046 0.11017 0.35898 0.0
H2649 H 0.33422 0.15918 0.37614 0.0
H2650 H 0.33857 0.15507 0.35994 0.0
H2651 H 0.3527 0.17572 0.36809 0.0
C2652 C 0.37196 0.12713 0.32792 0.0
C2653 C 0.37292 0.14828 0.32382 0.0
C2654 C 0.37229 0.12253 0.34048 0.0
C2655 C 0.37406 0.13895 0.34919 0.0
C2656 C 0.3751 0.16011 0.34504 0.0
H2657 H 0.43182 0.12482 0.42068 0.0
H2658 H 0.42381 0.12691 0.39875 0.0
C2659 C 0.37412 0.16475 0.33249 0.0
C2660 C 0.37642 0.13387 0.3625 0.0
H2661 H 0.36064 0.14918 0.39116 0.0
C2662 C 0.39146 0.11848 0.36599 0.0
C2663 C 0.36444 0.14428 0.37173 0.0
C2664 C 0.34642 0.15928 0.36875 0.0
C2665 C 0.39535 0.11375 0.3784 0.0
C2666 C 0.38471 0.12551 0.38764 0.0
C2667 C 0.36913 0.14036 0.38414 0.0
C2668 C 0.38974 0.12313 0.40095 0.0
C2669 C 0.41057 0.09592 0.38137 0.0
C2670 C 0.37329 0.12102 0.40961 0.0
C2671 C 0.37782 0.12064 0.42219 0.0
C2672 C 0.39894 0.12189 0.42634 0.0
C2673 C 0.41544 0.12343 0.4177 0.0
C2674 C 0.41085 0.12446 0.40514 0.0
H2675 H 0.4107 0.08378 0.37395 0.0
H2676 H 0.42693 0.10242 0.3821 0.0
H2677 H 0.40641 0.08795 0.39015 0.0
H2678 H 0.35686 0.12 0.40666 0.0
H2679 H 0.36481 0.11946 0.42868 0.0
H2680 H 0.60523 0.61981 0.17889 0.0
H2681 H 0.60417 0.61311 0.15684 0.0
H2682 H 0.65184 0.66139 0.15106 0.0
H2683 H 0.6527 0.66858 0.17316 0.0
H2684 H 0.6177 0.6663 0.13605 0.0
H2685 H 0.6449 0.58257 0.13418 0.0
H2686 H 0.62297 0.58646 0.14448 0.0
H2687 H 0.64813 0.59893 0.14769 0.0
C2688 C 0.61571 0.62885 0.17298 0.0
C2689 C 0.62905 0.64476 0.17782 0.0
C2690 C 0.61519 0.62487 0.16035 0.0
C2691 C 0.62817 0.6365 0.15231 0.0
C2692 C 0.64178 0.65213 0.15712 0.0
H2693 H 0.63818 0.64398 0.07294 0.0
H2694 H 0.6446 0.64556 0.09503 0.0
C2695 C 0.64226 0.65621 0.16976 0.0
C2696 C 0.62629 0.6335 0.13883 0.0
H2697 H 0.62865 0.59632 0.11595 0.0
C2698 C 0.62031 0.65104 0.13165 0.0
C2699 C 0.62957 0.61355 0.13311 0.0
C2700 C 0.63695 0.59435 0.14024 0.0
C2701 C 0.61712 0.6491 0.11894 0.0
C2702 C 0.6202 0.62913 0.11325 0.0
C2703 C 0.62624 0.61158 0.12039 0.0
C2704 C 0.61731 0.62639 0.09985 0.0
C2705 C 0.61004 0.66833 0.11172 0.0
C2706 C 0.60022 0.61446 0.09525 0.0
C2707 C 0.59644 0.61349 0.08258 0.0
C2708 C 0.6098 0.62437 0.07433 0.0
C2709 C 0.62746 0.63553 0.07901 0.0
C2710 C 0.63116 0.63651 0.09164 0.0
H2711 H 0.60415 0.68125 0.1178 0.0
H2712 H 0.6237 0.67459 0.10637 0.0
H2713 H 0.59726 0.66402 0.10513 0.0
H2714 H 0.58941 0.60648 0.10149 0.0
H2715 H 0.58276 0.60471 0.0793 0.0
H2716 H 0.15299 0.82894 0.82944 0.0
H2717 H 0.15183 0.83526 0.85166 0.0
H2718 H 0.11687 0.89327 0.84563 0.0
H2719 H 0.11779 0.88714 0.8235 0.0
H2720 H 0.16492 0.87216 0.86657 0.0
H2721 H 0.07803 0.85596 0.86798 0.0
H2722 H 0.09454 0.84835 0.85514 0.0
H2723 H 0.08626 0.87551 0.85691 0.0
C2724 C 0.14525 0.84316 0.83282 0.0
C2725 C 0.13527 0.8574 0.82468 0.0
C2726 C 0.14463 0.84674 0.84552 0.0
C2727 C 0.13398 0.86454 0.85025 0.0
C2728 C 0.12488 0.87926 0.84214 0.0
H2729 H 0.09467 0.90459 0.92293 0.0
H2730 H 0.10267 0.90248 0.90099 0.0
C2731 C 0.12548 0.87573 0.82948 0.0
C2732 C 0.13141 0.86728 0.86368 0.0
H2733 H 0.09388 0.86829 0.88631 0.0
C2734 C 0.14943 0.87127 0.87093 0.0
C2735 C 0.11116 0.8661 0.86928 0.0
C2736 C 0.09138 0.86108 0.86197 0.0
C2737 C 0.14765 0.87455 0.88367 0.0
C2738 C 0.12736 0.87338 0.88927 0.0
C2739 C 0.1094 0.86931 0.88199 0.0
C2740 C 0.12428 0.87588 0.9027 0.0
C2741 C 0.1674 0.87967 0.89096 0.0
C2742 C 0.13387 0.86169 0.91097 0.0
C2743 C 0.12939 0.86289 0.92353 0.0
C2744 C 0.11503 0.87816 0.92806 0.0
C2745 C 0.10578 0.89262 0.91977 0.0
C2746 C 0.11033 0.89145 0.90722 0.0
H2747 H 0.18031 0.88589 0.88498 0.0
H2748 H 0.164 0.89156 0.89824 0.0
H2749 H 0.17329 0.86496 0.89545 0.0
H2750 H 0.14431 0.84925 0.90766 0.0
H2751 H 0.13673 0.85144 0.92964 0.0
loop_
_geom_bond_atom_site_label_1
_geom_bond_atom_site_label_2
_geom_bond_distance
_geom_bond_site_symmetry_2
_ccdc_geom_bond_type
O0 Cd1 2.223 . S
O0 C8 1.315 . S
Cd1 O0 2.223 . S
Cd1 O4 2.297 . S
Cd1 O5 2.439 . S
Cd1 O11 2.240 . S
Cd2 O3 2.240 . S
Cd2 O10 2.223 . S
Cd2 O12 2.297 . S
Cd2 O13 2.439 . S
O3 Cd2 2.240 . S
O3 C8 1.279 . S
O4 Cd1 2.297 . S
O4 C6 1.247 . S
O5 Cd1 2.439 . S
O5 C6 1.208 . S
C6 O4 1.247 . S
C6 O5 1.208 . S
C7 O12 1.247 . S
C7 O13 1.208 . S
C8 O0 1.315 . S
C8 O3 1.279 . S
C9 O10 1.315 . S
C9 O11 1.279 . S
O10 Cd2 2.223 . S
O10 C9 1.315 . S
O11 Cd1 2.240 . S
O11 C9 1.279 . S
O12 Cd2 2.297 . S
O12 C7 1.247 . S
O13 Cd2 2.439 . S
O13 C7 1.208 . S
O14 Cd15 2.223 . S
O14 C22 1.315 . S
Cd15 O14 2.223 . S
Cd15 O18 2.297 . S
Cd15 O19 2.439 . S
Cd15 O25 2.240 . S
Cd16 O17 2.240 . S
Cd16 O24 2.223 . S
Cd16 O26 2.297 . S
Cd16 O27 2.439 . S
O17 Cd16 2.240 . S
O17 C22 1.279 . S
O18 Cd15 2.297 . S
O18 C20 1.247 . S
O19 Cd15 2.439 . S
O19 C20 1.208 . S
C20 O18 1.247 . S
C20 O19 1.208 . S
C21 O26 1.247 . S
C21 O27 1.208 . S
C22 O14 1.315 . S
C22 O17 1.279 . S
C23 O24 1.315 . S
C23 O25 1.279 . S
O24 Cd16 2.223 . S
O24 C23 1.315 . S
O25 Cd15 2.240 . S
O25 C23 1.279 . S
O26 Cd16 2.297 . S
O26 C21 1.247 . S
O27 Cd16 2.439 . S
O27 C21 1.208 . S
O28 Cd29 2.223 . S
O28 C36 1.315 . S
Cd29 O28 2.223 . S
Cd29 O32 2.297 . S
Cd29 O33 2.439 . S
Cd29 O39 2.240 . S
Cd30 O31 2.240 . S
Cd30 O38 2.223 . S
Cd30 O40 2.297 . S
Cd30 O41 2.439 . S
O31 Cd30 2.240 . S
O31 C36 1.279 . S
O32 Cd29 2.297 . S
O32 C34 1.247 . S
O33 Cd29 2.439 . S
O33 C34 1.208 . S
C34 O32 1.247 . S
C34 O33 1.208 . S
C35 O40 1.247 . S
C35 O41 1.208 . S
C36 O28 1.315 . S
C36 O31 1.279 . S
C37 O38 1.315 . S
C37 O39 1.279 . S
O38 Cd30 2.223 . S
O38 C37 1.315 . S
O39 Cd29 2.240 . S
O39 C37 1.279 . S
O40 Cd30 2.297 . S
O40 C35 1.247 . S
O41 Cd30 2.439 . S
O41 C35 1.208 . S
O42 Cd43 2.223 . S
O42 C50 1.315 . S
Cd43 O42 2.223 . S
Cd43 O46 2.297 . S
Cd43 O47 2.439 . S
Cd43 O53 2.240 . S
Cd44 O45 2.240 . S
Cd44 O52 2.223 . S
Cd44 O54 2.297 . S
Cd44 O55 2.439 . S
O45 Cd44 2.240 . S
O45 C50 1.279 . S
O46 Cd43 2.297 . S
O46 C48 1.247 . S
O47 Cd43 2.439 . S
O47 C48 1.208 . S
C48 O46 1.247 . S
C48 O47 1.208 . S
C49 O54 1.247 . S
C49 O55 1.208 . S
C50 O42 1.315 . S
C50 O45 1.279 . S
C51 O52 1.315 . S
C51 O53 1.279 . S
O52 Cd44 2.223 . S
O52 C51 1.315 . S
O53 Cd43 2.240 . S
O53 C51 1.279 . S
O54 Cd44 2.297 . S
O54 C49 1.247 . S
O55 Cd44 2.439 . S
O55 C49 1.208 . S
O56 Cd57 2.223 . S
O56 C64 1.315 . S
Cd57 O56 2.223 . S
Cd57 O60 2.297 . S
Cd57 O61 2.439 . S
Cd57 O67 2.240 . S
Cd58 O59 2.240 . S
Cd58 O66 2.223 . S
Cd58 O68 2.297 . S
Cd58 O69 2.439 . S
O59 Cd58 2.240 . S
O59 C64 1.279 . S
O60 Cd57 2.297 . S
O60 C62 1.247 . S
O61 Cd57 2.439 . S
O61 C62 1.208 . S
C62 O60 1.247 . S
C62 O61 1.208 . S
C63 O68 1.247 . S
C63 O69 1.208 . S
C64 O56 1.315 . S
C64 O59 1.279 . S
C65 O66 1.315 . S
C65 O67 1.279 . S
O66 Cd58 2.223 . S
O66 C65 1.315 . S
O67 Cd57 2.240 . S
O67 C65 1.279 . S
O68 Cd58 2.297 . S
O68 C63 1.247 . S
O69 Cd58 2.439 . S
O69 C63 1.208 . S
O70 Cd71 2.223 . S
O70 C78 1.315 . S
Cd71 O70 2.223 . S
Cd71 O74 2.297 . S
Cd71 O75 2.439 . S
Cd71 O81 2.240 . S
Cd72 O73 2.240 . S
Cd72 O80 2.223 . S
Cd72 O82 2.297 . S
Cd72 O83 2.439 . S
O73 Cd72 2.240 . S
O73 C78 1.279 . S
O74 Cd71 2.297 . S
O74 C76 1.247 . S
O75 Cd71 2.439 . S
O75 C76 1.208 . S
C76 O74 1.247 . S
C76 O75 1.208 . S
C77 O82 1.247 . S
C77 O83 1.208 . S
C78 O70 1.315 . S
C78 O73 1.279 . S
C79 O80 1.315 . S
C79 O81 1.279 . S
O80 Cd72 2.223 . S
O80 C79 1.315 . S
O81 Cd71 2.240 . S
O81 C79 1.279 . S
O82 Cd72 2.297 . S
O82 C77 1.247 . S
O83 Cd72 2.439 . S
O83 C77 1.208 . S
O84 Cd85 2.223 . S
O84 C92 1.315 . S
Cd85 O84 2.223 . S
Cd85 O88 2.297 . S
Cd85 O89 2.439 . S
Cd85 O95 2.240 . S
Cd86 O87 2.240 . S
Cd86 O94 2.223 . S
Cd86 O96 2.297 . S
Cd86 O97 2.439 . S
O87 Cd86 2.240 . S
O87 C92 1.279 . S
O88 Cd85 2.297 . S
O88 C90 1.247 . S
O89 Cd85 2.439 . S
O89 C90 1.208 . S
C90 O88 1.247 . S
C90 O89 1.208 . S
C91 O96 1.247 . S
C91 O97 1.208 . S
C92 O84 1.315 . S
C92 O87 1.279 . S
C93 O94 1.315 . S
C93 O95 1.279 . S
O94 Cd86 2.223 . S
O94 C93 1.315 . S
O95 Cd85 2.240 . S
O95 C93 1.279 . S
O96 Cd86 2.297 . S
O96 C91 1.247 . S
O97 Cd86 2.439 . S
O97 C91 1.208 . S
O98 Cd99 2.223 . S
O98 C106 1.315 . S
Cd99 O98 2.223 . S
Cd99 O102 2.297 . S
Cd99 O103 2.439 . S
Cd99 O109 2.240 . S
Cd100 O101 2.240 . S
Cd100 O108 2.223 . S
Cd100 O110 2.297 . S
Cd100 O111 2.439 . S
O101 Cd100 2.240 . S
O101 C106 1.279 . S
O102 Cd99 2.297 . S
O102 C104 1.247 . S
O103 Cd99 2.439 . S
O103 C104 1.208 . S
C104 O102 1.247 . S
C104 O103 1.208 . S
C105 O110 1.247 . S
C105 O111 1.208 . S
C106 O98 1.315 . S
C106 O101 1.279 . S
C107 O108 1.315 . S
C107 O109 1.279 . S
O108 Cd100 2.223 . S
O108 C107 1.315 . S
O109 Cd99 2.240 . S
O109 C107 1.279 . S
O110 Cd100 2.297 . S
O110 C105 1.247 . S
O111 Cd100 2.439 . S
O111 C105 1.208 . S
O112 Cd113 2.223 . S
O112 C120 1.315 . S
Cd113 O112 2.223 . S
Cd113 O116 2.297 . S
Cd113 O117 2.439 . S
Cd113 O123 2.240 . S
Cd114 O115 2.240 . S
Cd114 O122 2.223 . S
Cd114 O124 2.297 . S
Cd114 O125 2.439 . S
O115 Cd114 2.240 . S
O115 C120 1.279 . S
O116 Cd113 2.297 . S
O116 C118 1.247 . S
O117 Cd113 2.439 . S
O117 C118 1.208 . S
C118 O116 1.247 . S
C118 O117 1.208 . S
C119 O124 1.247 . S
C119 O125 1.208 . S
C120 O112 1.315 . S
C120 O115 1.279 . S
C121 O122 1.315 . S
C121 O123 1.279 . S
O122 Cd114 2.223 . S
O122 C121 1.315 . S
O123 Cd113 2.240 . S
O123 C121 1.279 . S
O124 Cd114 2.297 . S
O124 C119 1.247 . S
O125 Cd114 2.439 . S
O125 C119 1.208 . S
O126 Cd127 2.223 . S
O126 C134 1.315 . S
Cd127 O126 2.223 . S
Cd127 O130 2.297 . S
Cd127 O131 2.439 . S
Cd127 O137 2.240 . S
Cd128 O129 2.240 . S
Cd128 O136 2.223 . S
Cd128 O138 2.297 . S
Cd128 O139 2.439 . S
O129 Cd128 2.240 . S
O129 C134 1.279 . S
O130 Cd127 2.297 . S
O130 C132 1.247 . S
O131 Cd127 2.439 . S
O131 C132 1.208 . S
C132 O130 1.247 . S
C132 O131 1.208 . S
C133 O138 1.247 . S
C133 O139 1.208 . S
C134 O126 1.315 . S
C134 O129 1.279 . S
C135 O136 1.315 . S
C135 O137 1.279 . S
O136 Cd128 2.223 . S
O136 C135 1.315 . S
O137 Cd127 2.240 . S
O137 C135 1.279 . S
O138 Cd128 2.297 . S
O138 C133 1.247 . S
O139 Cd128 2.439 . S
O139 C133 1.208 . S
O140 Cd141 2.223 . S
O140 C148 1.315 . S
Cd141 O140 2.223 . S
Cd141 O144 2.297 . S
Cd141 O145 2.439 . S
Cd141 O151 2.240 . S
Cd142 O143 2.240 . S
Cd142 O150 2.223 . S
Cd142 O152 2.297 . S
Cd142 O153 2.439 . S
O143 Cd142 2.240 . S
O143 C148 1.279 . S
O144 Cd141 2.297 . S
O144 C146 1.247 . S
O145 Cd141 2.439 . S
O145 C146 1.208 . S
C146 O144 1.247 . S
C146 O145 1.208 . S
C147 O152 1.247 . S
C147 O153 1.208 . S
C148 O140 1.315 . S
C148 O143 1.279 . S
C149 O150 1.315 . S
C149 O151 1.279 . S
O150 Cd142 2.223 . S
O150 C149 1.315 . S
O151 Cd141 2.240 . S
O151 C149 1.279 . S
O152 Cd142 2.297 . S
O152 C147 1.247 . S
O153 Cd142 2.439 . S
O153 C147 1.208 . S
O154 Cd155 2.223 . S
O154 C162 1.315 . S
Cd155 O154 2.223 . S
Cd155 O158 2.297 . S
Cd155 O159 2.439 . S
Cd155 O165 2.240 . S
Cd156 O157 2.240 . S
Cd156 O164 2.223 . S
Cd156 O166 2.297 . S
Cd156 O167 2.439 . S
O157 Cd156 2.240 . S
O157 C162 1.279 . S
O158 Cd155 2.297 . S
O158 C160 1.247 . S
O159 Cd155 2.439 . S
O159 C160 1.208 . S
C160 O158 1.247 . S
C160 O159 1.208 . S
C161 O166 1.247 . S
C161 O167 1.208 . S
C162 O154 1.315 . S
C162 O157 1.279 . S
C163 O164 1.315 . S
C163 O165 1.279 . S
O164 Cd156 2.223 . S
O164 C163 1.315 . S
O165 Cd155 2.240 . S
O165 C163 1.279 . S
O166 Cd156 2.297 . S
O166 C161 1.247 . S
O167 Cd156 2.439 . S
O167 C161 1.208 . S
O168 Cd169 2.223 . S
O168 C176 1.315 . S
Cd169 O168 2.223 . S
Cd169 O172 2.297 . S
Cd169 O173 2.439 . S
Cd169 O179 2.240 . S
Cd170 O171 2.240 . S
Cd170 O178 2.223 . S
Cd170 O180 2.297 . S
Cd170 O181 2.439 . S
O171 Cd170 2.240 . S
O171 C176 1.279 . S
O172 Cd169 2.297 . S
O172 C174 1.247 . S
O173 Cd169 2.439 . S
O173 C174 1.208 . S
C174 O172 1.247 . S
C174 O173 1.208 . S
C175 O180 1.247 . S
C175 O181 1.208 . S
C176 O168 1.315 . S
C176 O171 1.279 . S
C177 O178 1.315 . S
C177 O179 1.279 . S
O178 Cd170 2.223 . S
O178 C177 1.315 . S
O179 Cd169 2.240 . S
O179 C177 1.279 . S
O180 Cd170 2.297 . S
O180 C175 1.247 . S
O181 Cd170 2.439 . S
O181 C175 1.208 . S
O182 Cd183 2.223 . S
O182 C190 1.315 . S
Cd183 O182 2.223 . S
Cd183 O186 2.297 . S
Cd183 O187 2.439 . S
Cd183 O193 2.240 . S
Cd184 O185 2.240 . S
Cd184 O192 2.223 . S
Cd184 O194 2.297 . S
Cd184 O195 2.439 . S
O185 Cd184 2.240 . S
O185 C190 1.279 . S
O186 Cd183 2.297 . S
O186 C188 1.247 . S
O187 Cd183 2.439 . S
O187 C188 1.208 . S
C188 O186 1.247 . S
C188 O187 1.208 . S
C189 O194 1.247 . S
C189 O195 1.208 . S
C190 O182 1.315 . S
C190 O185 1.279 . S
C191 O192 1.315 . S
C191 O193 1.279 . S
O192 Cd184 2.223 . S
O192 C191 1.315 . S
O193 Cd183 2.240 . S
O193 C191 1.279 . S
O194 Cd184 2.297 . S
O194 C189 1.247 . S
O195 Cd184 2.439 . S
O195 C189 1.208 . S
O196 Cd197 2.223 . S
O196 C204 1.315 . S
Cd197 O196 2.223 . S
Cd197 O200 2.297 . S
Cd197 O201 2.439 . S
Cd197 O207 2.240 . S
Cd198 O199 2.240 . S
Cd198 O206 2.223 . S
Cd198 O208 2.297 . S
Cd198 O209 2.439 . S
O199 Cd198 2.240 . S
O199 C204 1.279 . S
O200 Cd197 2.297 . S
O200 C202 1.247 . S
O201 Cd197 2.439 . S
O201 C202 1.208 . S
C202 O200 1.247 . S
C202 O201 1.208 . S
C203 O208 1.247 . S
C203 O209 1.208 . S
C204 O196 1.315 . S
C204 O199 1.279 . S
C205 O206 1.315 . S
C205 O207 1.279 . S
O206 Cd198 2.223 . S
O206 C205 1.315 . S
O207 Cd197 2.240 . S
O207 C205 1.279 . S
O208 Cd198 2.297 . S
O208 C203 1.247 . S
O209 Cd198 2.439 . S
O209 C203 1.208 . S
O210 Cd211 2.223 . S
O210 C218 1.315 . S
Cd211 O210 2.223 . S
Cd211 O214 2.297 . S
Cd211 O215 2.439 . S
Cd211 O221 2.240 . S
Cd212 O213 2.240 . S
Cd212 O220 2.223 . S
Cd212 O222 2.297 . S
Cd212 O223 2.439 . S
O213 Cd212 2.240 . S
O213 C218 1.279 . S
O214 Cd211 2.297 . S
O214 C216 1.247 . S
O215 Cd211 2.439 . S
O215 C216 1.208 . S
C216 O214 1.247 . S
C216 O215 1.208 . S
C217 O222 1.247 . S
C217 O223 1.208 . S
C218 O210 1.315 . S
C218 O213 1.279 . S
C219 O220 1.315 . S
C219 O221 1.279 . S
O220 Cd212 2.223 . S
O220 C219 1.315 . S
O221 Cd211 2.240 . S
O221 C219 1.279 . S
O222 Cd212 2.297 . S
O222 C217 1.247 . S
O223 Cd212 2.439 . S
O223 C217 1.208 . S
O224 Cd225 2.223 . S
O224 C232 1.315 . S
Cd225 O224 2.223 . S
Cd225 O228 2.297 . S
Cd225 O229 2.439 . S
Cd225 O235 2.240 . S
Cd226 O227 2.240 . S
Cd226 O234 2.223 . S
Cd226 O236 2.297 . S
Cd226 O237 2.439 . S
O227 Cd226 2.240 . S
O227 C232 1.279 . S
O228 Cd225 2.297 . S
O228 C230 1.247 . S
O229 Cd225 2.439 . S
O229 C230 1.208 . S
C230 O228 1.247 . S
C230 O229 1.208 . S
C231 O236 1.247 . S
C231 O237 1.208 . S
C232 O224 1.315 . S
C232 O227 1.279 . S
C233 O234 1.315 . S
C233 O235 1.279 . S
O234 Cd226 2.223 . S
O234 C233 1.315 . S
O235 Cd225 2.240 . S
O235 C233 1.279 . S
O236 Cd226 2.297 . S
O236 C231 1.247 . S
O237 Cd226 2.439 . S
O237 C231 1.208 . S
O238 Cd239 2.223 . S
O238 C246 1.315 . S
Cd239 O238 2.223 . S
Cd239 O242 2.297 . S
Cd239 O243 2.439 . S
Cd239 O249 2.240 . S
Cd240 O241 2.240 . S
Cd240 O248 2.223 . S
Cd240 O250 2.297 . S
Cd240 O251 2.439 . S
O241 Cd240 2.240 . S
O241 C246 1.279 . S
O242 Cd239 2.297 . S
O242 C244 1.247 . S
O243 Cd239 2.439 . S
O243 C244 1.208 . S
C244 O242 1.247 . S
C244 O243 1.208 . S
C245 O250 1.247 . S
C245 O251 1.208 . S
C246 O238 1.315 . S
C246 O241 1.279 . S
C247 O248 1.315 . S
C247 O249 1.279 . S
O248 Cd240 2.223 . S
O248 C247 1.315 . S
O249 Cd239 2.240 . S
O249 C247 1.279 . S
O250 Cd240 2.297 . S
O250 C245 1.247 . S
O251 Cd240 2.439 . S
O251 C245 1.208 . S
O252 Cd253 2.223 . S
O252 C260 1.315 . S
Cd253 O252 2.223 . S
Cd253 O256 2.297 . S
Cd253 O257 2.439 . S
Cd253 O263 2.240 . S
Cd254 O255 2.240 . S
Cd254 O262 2.223 . S
Cd254 O264 2.297 . S
Cd254 O265 2.439 . S
O255 Cd254 2.240 . S
O255 C260 1.279 . S
O256 Cd253 2.297 . S
O256 C258 1.247 . S
O257 Cd253 2.439 . S
O257 C258 1.208 . S
C258 O256 1.247 . S
C258 O257 1.208 . S
C259 O264 1.247 . S
C259 O265 1.208 . S
C260 O252 1.315 . S
C260 O255 1.279 . S
C261 O262 1.315 . S
C261 O263 1.279 . S
O262 Cd254 2.223 . S
O262 C261 1.315 . S
O263 Cd253 2.240 . S
O263 C261 1.279 . S
O264 Cd254 2.297 . S
O264 C259 1.247 . S
O265 Cd254 2.439 . S
O265 C259 1.208 . S
O266 Cd267 2.223 . S
O266 C274 1.315 . S
Cd267 O266 2.223 . S
Cd267 O270 2.297 . S
Cd267 O271 2.439 . S
Cd267 O277 2.240 . S
Cd268 O269 2.240 . S
Cd268 O276 2.223 . S
Cd268 O278 2.297 . S
Cd268 O279 2.439 . S
O269 Cd268 2.240 . S
O269 C274 1.279 . S
O270 Cd267 2.297 . S
O270 C272 1.247 . S
O271 Cd267 2.439 . S
O271 C272 1.208 . S
C272 O270 1.247 . S
C272 O271 1.208 . S
C273 O278 1.247 . S
C273 O279 1.208 . S
C274 O266 1.315 . S
C274 O269 1.279 . S
C275 O276 1.315 . S
C275 O277 1.279 . S
O276 Cd268 2.223 . S
O276 C275 1.315 . S
O277 Cd267 2.240 . S
O277 C275 1.279 . S
O278 Cd268 2.297 . S
O278 C273 1.247 . S
O279 Cd268 2.439 . S
O279 C273 1.208 . S
O280 Cd281 2.223 . S
O280 C288 1.315 . S
Cd281 O280 2.223 . S
Cd281 O284 2.297 . S
Cd281 O285 2.439 . S
Cd281 O291 2.240 . S
Cd282 O283 2.240 . S
Cd282 O290 2.223 . S
Cd282 O292 2.297 . S
Cd282 O293 2.439 . S
O283 Cd282 2.240 . S
O283 C288 1.279 . S
O284 Cd281 2.297 . S
O284 C286 1.247 . S
O285 Cd281 2.439 . S
O285 C286 1.208 . S
C286 O284 1.247 . S
C286 O285 1.208 . S
C287 O292 1.247 . S
C287 O293 1.208 . S
C288 O280 1.315 . S
C288 O283 1.279 . S
C289 O290 1.315 . S
C289 O291 1.279 . S
O290 Cd282 2.223 . S
O290 C289 1.315 . S
O291 Cd281 2.240 . S
O291 C289 1.279 . S
O292 Cd282 2.297 . S
O292 C287 1.247 . S
O293 Cd282 2.439 . S
O293 C287 1.208 . S
O294 Cd295 2.223 . S
O294 C302 1.315 . S
Cd295 O294 2.223 . S
Cd295 O298 2.297 . S
Cd295 O299 2.439 . S
Cd295 O305 2.240 . S
Cd296 O297 2.240 . S
Cd296 O304 2.223 . S
Cd296 O306 2.297 . S
Cd296 O307 2.439 . S
O297 Cd296 2.240 . S
O297 C302 1.279 . S
O298 Cd295 2.297 . S
O298 C300 1.247 . S
O299 Cd295 2.439 . S
O299 C300 1.208 . S
C300 O298 1.247 . S
C300 O299 1.208 . S
C301 O306 1.247 . S
C301 O307 1.208 . S
C302 O294 1.315 . S
C302 O297 1.279 . S
C303 O304 1.315 . S
C303 O305 1.279 . S
O304 Cd296 2.223 . S
O304 C303 1.315 . S
O305 Cd295 2.240 . S
O305 C303 1.279 . S
O306 Cd296 2.297 . S
O306 C301 1.247 . S
O307 Cd296 2.439 . S
O307 C301 1.208 . S
O308 Cd309 2.223 . S
O308 C316 1.315 . S
Cd309 O308 2.223 . S
Cd309 O312 2.297 . S
Cd309 O313 2.439 . S
Cd309 O319 2.240 . S
Cd310 O311 2.240 . S
Cd310 O318 2.223 . S
Cd310 O320 2.297 . S
Cd310 O321 2.439 . S
O311 Cd310 2.240 . S
O311 C316 1.279 . S
O312 Cd309 2.297 . S
O312 C314 1.247 . S
O313 Cd309 2.439 . S
O313 C314 1.208 . S
C314 O312 1.247 . S
C314 O313 1.208 . S
C315 O320 1.247 . S
C315 O321 1.208 . S
C316 O308 1.315 . S
C316 O311 1.279 . S
C317 O318 1.315 . S
C317 O319 1.279 . S
O318 Cd310 2.223 . S
O318 C317 1.315 . S
O319 Cd309 2.240 . S
O319 C317 1.279 . S
O320 Cd310 2.297 . S
O320 C315 1.247 . S
O321 Cd310 2.439 . S
O321 C315 1.208 . S
O322 Cd323 2.223 . S
O322 C330 1.315 . S
Cd323 O322 2.223 . S
Cd323 O326 2.297 . S
Cd323 O327 2.439 . S
Cd323 O333 2.240 . S
Cd324 O325 2.240 . S
Cd324 O332 2.223 . S
Cd324 O334 2.297 . S
Cd324 O335 2.439 . S
O325 Cd324 2.240 . S
O325 C330 1.279 . S
O326 Cd323 2.297 . S
O326 C328 1.247 . S
O327 Cd323 2.439 . S
O327 C328 1.208 . S
C328 O326 1.247 . S
C328 O327 1.208 . S
C329 O334 1.247 . S
C329 O335 1.208 . S
C330 O322 1.315 . S
C330 O325 1.279 . S
C331 O332 1.315 . S
C331 O333 1.279 . S
O332 Cd324 2.223 . S
O332 C331 1.315 . S
O333 Cd323 2.240 . S
O333 C331 1.279 . S
O334 Cd324 2.297 . S
O334 C329 1.247 . S
O335 Cd324 2.439 . S
O335 C329 1.208 . S
O336 Cd337 2.223 . S
O336 C344 1.315 . S
Cd337 O336 2.223 . S
Cd337 O340 2.297 . S
Cd337 O341 2.439 . S
Cd337 O347 2.240 . S
Cd338 O339 2.240 . S
Cd338 O346 2.223 . S
Cd338 O348 2.297 . S
Cd338 O349 2.439 . S
O339 Cd338 2.240 . S
O339 C344 1.279 . S
O340 Cd337 2.297 . S
O340 C342 1.247 . S
O341 Cd337 2.439 . S
O341 C342 1.208 . S
C342 O340 1.247 . S
C342 O341 1.208 . S
C343 O348 1.247 . S
C343 O349 1.208 . S
C344 O336 1.315 . S
C344 O339 1.279 . S
C345 O346 1.315 . S
C345 O347 1.279 . S
O346 Cd338 2.223 . S
O346 C345 1.315 . S
O347 Cd337 2.240 . S
O347 C345 1.279 . S
O348 Cd338 2.297 . S
O348 C343 1.247 . S
O349 Cd338 2.439 . S
O349 C343 1.208 . S
O350 Cd351 2.223 . S
O350 C358 1.315 . S
Cd351 O350 2.223 . S
Cd351 O354 2.297 . S
Cd351 O355 2.439 . S
Cd351 O361 2.240 . S
Cd352 O353 2.240 . S
Cd352 O360 2.223 . S
Cd352 O362 2.297 . S
Cd352 O363 2.439 . S
O353 Cd352 2.240 . S
O353 C358 1.279 . S
O354 Cd351 2.297 . S
O354 C356 1.247 . S
O355 Cd351 2.439 . S
O355 C356 1.208 . S
C356 O354 1.247 . S
C356 O355 1.208 . S
C357 O362 1.247 . S
C357 O363 1.208 . S
C358 O350 1.315 . S
C358 O353 1.279 . S
C359 O360 1.315 . S
C359 O361 1.279 . S
O360 Cd352 2.223 . S
O360 C359 1.315 . S
O361 Cd351 2.240 . S
O361 C359 1.279 . S
O362 Cd352 2.297 . S
O362 C357 1.247 . S
O363 Cd352 2.439 . S
O363 C357 1.208 . S
O364 Cd365 2.223 . S
O364 C372 1.315 . S
Cd365 O364 2.223 . S
Cd365 O368 2.297 . S
Cd365 O369 2.439 . S
Cd365 O375 2.240 . S
Cd366 O367 2.240 . S
Cd366 O374 2.223 . S
Cd366 O376 2.297 . S
Cd366 O377 2.439 . S
O367 Cd366 2.240 . S
O367 C372 1.279 . S
O368 Cd365 2.297 . S
O368 C370 1.247 . S
O369 Cd365 2.439 . S
O369 C370 1.208 . S
C370 O368 1.247 . S
C370 O369 1.208 . S
C371 O376 1.247 . S
C371 O377 1.208 . S
C372 O364 1.315 . S
C372 O367 1.279 . S
C373 O374 1.315 . S
C373 O375 1.279 . S
O374 Cd366 2.223 . S
O374 C373 1.315 . S
O375 Cd365 2.240 . S
O375 C373 1.279 . S
O376 Cd366 2.297 . S
O376 C371 1.247 . S
O377 Cd366 2.439 . S
O377 C371 1.208 . S
O378 Cd379 2.223 . S
O378 C386 1.315 . S
Cd379 O378 2.223 . S
Cd379 O382 2.297 . S
Cd379 O383 2.439 . S
Cd379 O389 2.240 . S
Cd380 O381 2.240 . S
Cd380 O388 2.223 . S
Cd380 O390 2.297 . S
Cd380 O391 2.439 . S
O381 Cd380 2.240 . S
O381 C386 1.279 . S
O382 Cd379 2.297 . S
O382 C384 1.247 . S
O383 Cd379 2.439 . S
O383 C384 1.208 . S
C384 O382 1.247 . S
C384 O383 1.208 . S
C385 O390 1.247 . S
C385 O391 1.208 . S
C386 O378 1.315 . S
C386 O381 1.279 . S
C387 O388 1.315 . S
C387 O389 1.279 . S
O388 Cd380 2.223 . S
O388 C387 1.315 . S
O389 Cd379 2.240 . S
O389 C387 1.279 . S
O390 Cd380 2.297 . S
O390 C385 1.247 . S
O391 Cd380 2.439 . S
O391 C385 1.208 . S
O392 Cd393 2.223 . S
O392 C400 1.315 . S
Cd393 O392 2.223 . S
Cd393 O396 2.297 . S
Cd393 O397 2.439 . S
Cd393 O403 2.240 . S
Cd394 O395 2.240 . S
Cd394 O402 2.223 . S
Cd394 O404 2.297 . S
Cd394 O405 2.439 . S
O395 Cd394 2.240 . S
O395 C400 1.279 . S
O396 Cd393 2.297 . S
O396 C398 1.247 . S
O397 Cd393 2.439 . S
O397 C398 1.208 . S
C398 O396 1.247 . S
C398 O397 1.208 . S
C399 O404 1.247 . S
C399 O405 1.208 . S
C400 O392 1.315 . S
C400 O395 1.279 . S
C401 O402 1.315 . S
C401 O403 1.279 . S
O402 Cd394 2.223 . S
O402 C401 1.315 . S
O403 Cd393 2.240 . S
O403 C401 1.279 . S
O404 Cd394 2.297 . S
O404 C399 1.247 . S
O405 Cd394 2.439 . S
O405 C399 1.208 . S
O406 Cd407 2.223 . S
O406 C414 1.315 . S
Cd407 O406 2.223 . S
Cd407 O410 2.297 . S
Cd407 O411 2.439 . S
Cd407 O417 2.240 . S
Cd408 O409 2.240 . S
Cd408 O416 2.223 . S
Cd408 O418 2.297 . S
Cd408 O419 2.439 . S
O409 Cd408 2.240 . S
O409 C414 1.279 . S
O410 Cd407 2.297 . S
O410 C412 1.247 . S
O411 Cd407 2.439 . S
O411 C412 1.208 . S
C412 O410 1.247 . S
C412 O411 1.208 . S
C413 O418 1.247 . S
C413 O419 1.208 . S
C414 O406 1.315 . S
C414 O409 1.279 . S
C415 O416 1.315 . S
C415 O417 1.279 . S
O416 Cd408 2.223 . S
O416 C415 1.315 . S
O417 Cd407 2.240 . S
O417 C415 1.279 . S
O418 Cd408 2.297 . S
O418 C413 1.247 . S
O419 Cd408 2.439 . S
O419 C413 1.208 . S
O420 Cd421 2.223 . S
O420 C428 1.315 . S
Cd421 O420 2.223 . S
Cd421 O424 2.297 . S
Cd421 O425 2.439 . S
Cd421 O431 2.240 . S
Cd422 O423 2.240 . S
Cd422 O430 2.223 . S
Cd422 O432 2.297 . S
Cd422 O433 2.439 . S
O423 Cd422 2.240 . S
O423 C428 1.279 . S
O424 Cd421 2.297 . S
O424 C426 1.247 . S
O425 Cd421 2.439 . S
O425 C426 1.208 . S
C426 O424 1.247 . S
C426 O425 1.208 . S
C427 O432 1.247 . S
C427 O433 1.208 . S
C428 O420 1.315 . S
C428 O423 1.279 . S
C429 O430 1.315 . S
C429 O431 1.279 . S
O430 Cd422 2.223 . S
O430 C429 1.315 . S
O431 Cd421 2.240 . S
O431 C429 1.279 . S
O432 Cd422 2.297 . S
O432 C427 1.247 . S
O433 Cd422 2.439 . S
O433 C427 1.208 . S
O434 Cd435 2.223 . S
O434 C442 1.315 . S
Cd435 O434 2.223 . S
Cd435 O438 2.297 . S
Cd435 O439 2.439 . S
Cd435 O445 2.240 . S
Cd436 O437 2.240 . S
Cd436 O444 2.223 . S
Cd436 O446 2.297 . S
Cd436 O447 2.439 . S
O437 Cd436 2.240 . S
O437 C442 1.279 . S
O438 Cd435 2.297 . S
O438 C440 1.247 . S
O439 Cd435 2.439 . S
O439 C440 1.208 . S
C440 O438 1.247 . S
C440 O439 1.208 . S
C441 O446 1.247 . S
C441 O447 1.208 . S
C442 O434 1.315 . S
C442 O437 1.279 . S
C443 O444 1.315 . S
C443 O445 1.279 . S
O444 Cd436 2.223 . S
O444 C443 1.315 . S
O445 Cd435 2.240 . S
O445 C443 1.279 . S
O446 Cd436 2.297 . S
O446 C441 1.247 . S
O447 Cd436 2.439 . S
O447 C441 1.208 . S
H448 C456 0.939 . S
H449 C458 0.846 1_554 S
H450 C460 0.930 . S
H451 C463 0.929 . S
H452 C466 0.929 1_556 S
H453 C468 0.960 . S
H454 C468 0.993 . S
H455 C468 0.960 . S
C456 H448 0.939 . S
C456 C457 1.377 . S
C456 C458 1.418 . S
C457 C456 1.377 . S
C457 C463 1.390 . S
C458 H449 0.846 1_556 S
C458 C456 1.418 . S
C458 C459 1.425 . S
C459 C458 1.425 . S
C459 C460 1.400 . S
C459 C464 1.490 . S
C460 H450 0.930 . S
C460 C459 1.400 . S
C460 C463 1.386 . S
H461 C477 0.922 1_556 S
H462 C478 0.931 1_556 S
C463 H451 0.929 . S
C463 C457 1.390 . S
C463 C460 1.386 . S
C464 C459 1.490 . S
C464 C466 1.393 1_556 S
C464 C467 1.403 1_655 S
H465 C471 0.930 . S
C466 H452 0.929 1_554 S
C466 C464 1.393 1_554 S
C466 C469 1.405 . S
C467 C464 1.403 1_455 S
C467 C468 1.524 . S
C467 C471 1.400 1_556 S
C468 H453 0.960 . S
C468 H454 0.993 . S
C468 H455 0.960 . S
C468 C467 1.524 . S
C469 C466 1.405 . S
C469 C470 1.392 1_655 S
C469 C473 1.495 . S
C470 C469 1.392 1_455 S
C470 C471 1.385 . S
C470 C472 1.478 . S
C471 H465 0.930 . S
C471 C467 1.400 1_554 S
C471 C470 1.385 . S
C472 C470 1.478 . S
C472 C474 1.381 . S
C472 C478 1.383 . S
C473 C469 1.495 . S
C473 H479 0.959 . S
C473 H480 0.961 . S
C473 H481 0.960 . S
C474 C472 1.381 . S
C474 C475 1.394 . S
C474 H482 0.930 . S
C475 C474 1.394 . S
C475 C476 1.383 . S
C475 H483 0.929 . S
C476 C475 1.383 . S
C476 C477 1.377 . S
C477 H461 0.922 1_554 S
C477 C476 1.377 . S
C477 C478 1.379 . S
C478 H462 0.931 1_554 S
C478 C472 1.383 . S
C478 C477 1.379 . S
H479 C473 0.959 . S
H480 C473 0.961 . S
H481 C473 0.960 . S
H482 C474 0.930 . S
H483 C475 0.929 . S
H484 C492 0.929 . S
H485 C494 0.930 . S
H486 C496 0.930 . S
H487 C499 0.929 . S
H488 C502 0.930 . S
H489 C504 0.960 . S
H490 C504 0.960 . S
H491 C504 0.960 . S
C492 H484 0.929 . S
C492 C493 1.377 . S
C492 C494 1.384 . S
C493 C492 1.377 . S
C493 C499 1.390 . S
C494 H485 0.930 . S
C494 C492 1.384 . S
C494 C495 1.372 . S
C495 C494 1.372 . S
C495 C496 1.400 . S
C495 C500 1.490 . S
C496 H486 0.930 . S
C496 C495 1.400 . S
C496 C499 1.386 . S
H497 C513 0.930 . S
H498 C514 0.931 . S
C499 H487 0.929 . S
C499 C493 1.390 . S
C499 C496 1.386 . S
C500 C495 1.490 . S
C500 C502 1.395 . S
C500 C503 1.403 . S
H501 C507 0.930 . S
C502 H488 0.930 . S
C502 C500 1.395 . S
C502 C505 1.403 . S
C503 C500 1.403 . S
C503 C504 1.524 . S
C503 C507 1.400 . S
C504 H489 0.960 . S
C504 H490 0.960 . S
C504 H491 0.960 . S
C504 C503 1.524 . S
C505 C502 1.403 . S
C505 C506 1.392 . S
C505 C509 1.495 . S
C506 C505 1.392 . S
C506 C507 1.385 . S
C506 C508 1.478 . S
C507 H501 0.930 . S
C507 C503 1.400 . S
C507 C506 1.385 . S
C508 C506 1.478 . S
C508 C510 1.381 . S
C508 C514 1.383 . S
C509 C505 1.495 . S
C509 H515 0.959 . S
C509 H516 0.961 . S
C509 H517 0.960 . S
C510 C508 1.381 . S
C510 C511 1.394 . S
C510 H518 0.930 . S
C511 C510 1.394 . S
C511 C512 1.383 . S
C511 H519 0.929 . S
C512 C511 1.383 . S
C512 C513 1.377 . S
C513 H497 0.930 . S
C513 C512 1.377 . S
C513 C514 1.379 . S
C514 H498 0.931 . S
C514 C508 1.383 . S
C514 C513 1.379 . S
H515 C509 0.959 . S
H516 C509 0.961 . S
H517 C509 0.960 . S
H518 C510 0.930 . S
H519 C511 0.929 . S
H520 C528 0.929 . S
H521 C530 0.930 . S
H522 C532 0.930 . S
H523 C535 0.929 . S
H524 C538 0.930 . S
H525 C540 0.960 . S
H526 C540 0.960 . S
H527 C540 0.960 . S
C528 H520 0.929 . S
C528 C529 1.377 . S
C528 C530 1.384 . S
C529 C528 1.377 . S
C529 C535 1.390 . S
C530 H521 0.930 . S
C530 C528 1.384 . S
C530 C531 1.372 . S
C531 C530 1.372 . S
C531 C532 1.400 . S
C531 C536 1.490 . S
C532 H522 0.930 . S
C532 C531 1.400 . S
C532 C535 1.386 . S
H533 C549 0.930 . S
H534 C550 0.931 . S
C535 H523 0.929 . S
C535 C529 1.390 . S
C535 C532 1.386 . S
C536 C531 1.490 . S
C536 C538 1.395 . S
C536 C539 1.403 . S
H537 C543 0.930 . S
C538 H524 0.930 . S
C538 C536 1.395 . S
C538 C541 1.403 . S
C539 C536 1.403 . S
C539 C540 1.524 . S
C539 C543 1.400 . S
C540 H525 0.960 . S
C540 H526 0.960 . S
C540 H527 0.960 . S
C540 C539 1.524 . S
C541 C538 1.403 . S
C541 C542 1.392 . S
C541 C545 1.495 . S
C542 C541 1.392 . S
C542 C543 1.385 . S
C542 C544 1.478 . S
C543 H537 0.930 . S
C543 C539 1.400 . S
C543 C542 1.385 . S
C544 C542 1.478 . S
C544 C546 1.381 . S
C544 C550 1.383 . S
C545 C541 1.495 . S
C545 H551 0.959 . S
C545 H552 0.961 . S
C545 H553 0.960 . S
C546 C544 1.381 . S
C546 C547 1.394 . S
C546 H554 0.930 . S
C547 C546 1.394 . S
C547 C548 1.383 . S
C547 H555 0.929 . S
C548 C547 1.383 . S
C548 C549 1.377 . S
C549 H533 0.930 . S
C549 C548 1.377 . S
C549 C550 1.379 . S
C550 H534 0.931 . S
C550 C544 1.383 . S
C550 C549 1.379 . S
H551 C545 0.959 . S
H552 C545 0.961 . S
H553 C545 0.960 . S
H554 C546 0.930 . S
H555 C547 0.929 . S
H556 C564 0.929 . S
H557 C566 0.930 . S
H558 C568 0.930 . S
H559 C571 0.929 . S
H560 C574 0.930 . S
H561 C576 0.960 . S
H562 C576 0.960 . S
H563 C576 0.960 . S
C564 H556 0.929 . S
C564 C565 1.377 . S
C564 C566 1.384 . S
C565 C564 1.377 . S
C565 C571 1.390 . S
C566 H557 0.930 . S
C566 C564 1.384 . S
C566 C567 1.372 . S
C567 C566 1.372 . S
C567 C568 1.400 . S
C567 C572 1.490 . S
C568 H558 0.930 . S
C568 C567 1.400 . S
C568 C571 1.386 . S
H569 C585 0.930 . S
H570 C586 0.931 . S
C571 H559 0.929 . S
C571 C565 1.390 . S
C571 C568 1.386 . S
C572 C567 1.490 . S
C572 C574 1.395 . S
C572 C575 1.403 . S
H573 C579 0.930 . S
C574 H560 0.930 . S
C574 C572 1.395 . S
C574 C577 1.403 . S
C575 C572 1.403 . S
C575 C576 1.524 . S
C575 C579 1.400 . S
C576 H561 0.960 . S
C576 H562 0.960 . S
C576 H563 0.960 . S
C576 C575 1.524 . S
C577 C574 1.403 . S
C577 C578 1.392 . S
C577 C581 1.495 . S
C578 C577 1.392 . S
C578 C579 1.385 . S
C578 C580 1.478 . S
C579 H573 0.930 . S
C579 C575 1.400 . S
C579 C578 1.385 . S
C580 C578 1.478 . S
C580 C582 1.381 . S
C580 C586 1.383 . S
C581 C577 1.495 . S
C581 H587 0.959 . S
C581 H588 0.961 . S
C581 H589 0.960 . S
C582 C580 1.381 . S
C582 C583 1.394 . S
C582 H590 0.930 . S
C583 C582 1.394 . S
C583 C584 1.383 . S
C583 H591 0.929 . S
C584 C583 1.383 . S
C584 C585 1.377 . S
C585 H569 0.930 . S
C585 C584 1.377 . S
C585 C586 1.379 . S
C586 H570 0.931 . S
C586 C580 1.383 . S
C586 C585 1.379 . S
H587 C581 0.959 . S
H588 C581 0.961 . S
H589 C581 0.960 . S
H590 C582 0.930 . S
H591 C583 0.929 . S
H592 C600 0.929 . S
H593 C602 0.931 1_455 S
H594 C604 0.930 . S
H595 C607 0.929 . S
H596 C610 0.930 . S
H597 C612 0.960 . S
H598 C612 0.960 . S
H599 C612 0.960 . S
C600 H592 0.929 . S
C600 C601 1.377 . S
C600 C602 1.384 . S
C601 C600 1.377 . S
C601 C607 1.390 . S
C602 H593 0.931 1_655 S
C602 C600 1.384 . S
C602 C603 1.372 . S
C603 C602 1.372 . S
C603 C604 1.400 . S
C603 C608 1.490 . S
C604 H594 0.930 . S
C604 C603 1.400 . S
C604 C607 1.386 . S
H605 C621 0.930 . S
H606 C622 0.931 . S
C607 H595 0.929 . S
C607 C601 1.390 . S
C607 C604 1.386 . S
C608 C603 1.490 . S
C608 C610 1.395 1_655 S
C608 C611 1.403 . S
H609 C615 0.930 1_655 S
C610 H596 0.930 . S
C610 C608 1.395 1_455 S
C610 C613 1.403 . S
C611 C608 1.403 . S
C611 C612 1.524 . S
C611 C615 1.397 1_655 S
C612 H597 0.960 . S
C612 H598 0.960 . S
C612 H599 0.960 . S
C612 C611 1.524 . S
C613 C610 1.403 . S
C613 C614 1.392 . S
C613 C617 1.495 . S
C614 C613 1.392 . S
C614 C615 1.388 . S
C614 C616 1.478 . S
C615 H609 0.930 1_455 S
C615 C611 1.397 1_455 S
C615 C614 1.388 . S
C616 C614 1.478 . S
C616 C618 1.381 . S
C616 C622 1.383 . S
C617 C613 1.495 . S
C617 H623 0.959 . S
C617 H624 0.961 . S
C617 H625 0.960 . S
C618 C616 1.381 . S
C618 C619 1.394 . S
C618 H626 0.930 . S
C619 C618 1.394 . S
C619 C620 1.383 . S
C619 H627 0.929 . S
C620 C619 1.383 . S
C620 C621 1.377 . S
C621 H605 0.930 . S
C621 C620 1.377 . S
C621 C622 1.379 . S
C622 H606 0.931 . S
C622 C616 1.383 . S
C622 C621 1.379 . S
H623 C617 0.959 . S
H624 C617 0.961 . S
H625 C617 0.960 . S
H626 C618 0.930 . S
H627 C619 0.929 . S
H628 C636 0.929 . S
H629 C638 0.930 . S
H630 C640 0.930 . S
H631 C643 0.929 . S
H632 C646 0.930 . S
H633 C648 0.960 . S
H634 C648 0.960 . S
H635 C648 0.960 . S
C636 H628 0.929 . S
C636 C637 1.377 . S
C636 C638 1.384 . S
C637 C636 1.377 . S
C637 C643 1.390 . S
C638 H629 0.930 . S
C638 C636 1.384 . S
C638 C639 1.372 . S
C639 C638 1.372 . S
C639 C640 1.400 . S
C639 C644 1.490 . S
C640 H630 0.930 . S
C640 C639 1.400 . S
C640 C643 1.386 . S
H641 C657 0.930 . S
H642 C658 0.931 . S
C643 H631 0.929 . S
C643 C637 1.390 . S
C643 C640 1.386 . S
C644 C639 1.490 . S
C644 C646 1.395 . S
C644 C647 1.403 . S
H645 C651 0.930 . S
C646 H632 0.930 . S
C646 C644 1.395 . S
C646 C649 1.403 . S
C647 C644 1.403 . S
C647 C648 1.524 . S
C647 C651 1.400 . S
C648 H633 0.960 . S
C648 H634 0.960 . S
C648 H635 0.960 . S
C648 C647 1.524 . S
C649 C646 1.403 . S
C649 C650 1.392 . S
C649 C653 1.495 . S
C650 C649 1.392 . S
C650 C651 1.385 . S
C650 C652 1.478 . S
C651 H645 0.930 . S
C651 C647 1.400 . S
C651 C650 1.385 . S
C652 C650 1.478 . S
C652 C654 1.381 . S
C652 C658 1.383 . S
C653 C649 1.495 . S
C653 H659 0.959 . S
C653 H660 0.961 . S
C653 H661 0.960 . S
C654 C652 1.381 . S
C654 C655 1.394 . S
C654 H662 0.930 . S
C655 C654 1.394 . S
C655 C656 1.383 . S
C655 H663 0.929 . S
C656 C655 1.383 . S
C656 C657 1.377 . S
C657 H641 0.930 . S
C657 C656 1.377 . S
C657 C658 1.379 . S
C658 H642 0.931 . S
C658 C652 1.383 . S
C658 C657 1.379 . S
H659 C653 0.959 . S
H660 C653 0.961 . S
H661 C653 0.960 . S
H662 C654 0.930 . S
H663 C655 0.929 . S
H664 C672 0.929 . S
H665 C674 0.930 . S
H666 C676 0.930 1_554 S
H667 C679 0.929 . S
H668 C682 0.930 . S
H669 C684 0.960 . S
H670 C684 0.960 . S
H671 C684 0.960 . S
C672 H664 0.929 . S
C672 C673 1.377 . S
C672 C674 1.384 . S
C673 C672 1.377 . S
C673 C679 1.390 . S
C674 H665 0.930 . S
C674 C672 1.384 . S
C674 C675 1.372 . S
C675 C674 1.372 . S
C675 C676 1.400 . S
C675 C680 1.490 . S
C676 H666 0.930 1_556 S
C676 C675 1.400 . S
C676 C679 1.386 . S
H677 C693 0.930 . S
H678 C694 0.931 . S
C679 H667 0.929 . S
C679 C673 1.390 . S
C679 C676 1.386 . S
C680 C675 1.490 . S
C680 C682 1.383 1_556 S
C680 C683 1.403 . S
H681 C687 0.930 . S
C682 H668 0.930 . S
C682 C680 1.383 1_554 S
C682 C685 1.415 . S
C683 C680 1.403 . S
C683 C684 1.524 . S
C683 C687 1.413 . S
C684 H669 0.960 . S
C684 H670 0.960 . S
C684 H671 0.960 . S
C684 C683 1.524 . S
C685 C682 1.415 . S
C685 C686 1.392 . S
C685 C689 1.495 . S
C686 C685 1.392 . S
C686 C687 1.372 1_554 S
C686 C688 1.478 . S
C687 H681 0.930 . S
C687 C683 1.413 . S
C687 C686 1.372 1_556 S
C688 C686 1.478 . S
C688 C690 1.381 . S
C688 C694 1.383 . S
C689 C685 1.495 . S
C689 H695 0.959 . S
C689 H696 0.961 . S
C689 H697 0.960 . S
C690 C688 1.381 . S
C690 C691 1.394 . S
C690 H698 0.930 1_554 S
C691 C690 1.394 . S
C691 C692 1.383 . S
C691 H699 0.929 . S
C692 C691 1.383 . S
C692 C693 1.377 . S
C693 H677 0.930 . S
C693 C692 1.377 . S
C693 C694 1.379 . S
C694 H678 0.931 . S
C694 C688 1.383 . S
C694 C693 1.379 . S
H695 C689 0.959 . S
H696 C689 0.961 . S
H697 C689 0.960 . S
H698 C690 0.930 1_556 S
H699 C691 0.929 . S
H700 C708 0.929 . S
H701 C710 0.930 . S
H702 C712 0.930 . S
H703 C715 0.929 . S
H704 C718 0.930 . S
H705 C720 0.960 . S
H706 C720 0.960 . S
H707 C720 0.960 . S
C708 H700 0.929 . S
C708 C709 1.377 . S
C708 C710 1.384 . S
C709 C708 1.377 . S
C709 C715 1.390 . S
C710 H701 0.930 . S
C710 C708 1.384 . S
C710 C711 1.372 . S
C711 C710 1.372 . S
C711 C712 1.400 . S
C711 C716 1.490 . S
C712 H702 0.930 . S
C712 C711 1.400 . S
C712 C715 1.386 . S
H713 C729 0.930 . S
H714 C730 0.931 . S
C715 H703 0.929 . S
C715 C709 1.390 . S
C715 C712 1.386 . S
C716 C711 1.490 . S
C716 C718 1.395 . S
C716 C719 1.403 . S
H717 C723 0.930 . S
C718 H704 0.930 . S
C718 C716 1.395 . S
C718 C721 1.403 . S
C719 C716 1.403 . S
C719 C720 1.524 . S
C719 C723 1.400 . S
C720 H705 0.960 . S
C720 H706 0.960 . S
C720 H707 0.960 . S
C720 C719 1.524 . S
C721 C718 1.403 . S
C721 C722 1.392 . S
C721 C725 1.495 . S
C722 C721 1.392 . S
C722 C723 1.385 . S
C722 C724 1.478 . S
C723 H717 0.930 . S
C723 C719 1.400 . S
C723 C722 1.385 . S
C724 C722 1.478 . S
C724 C726 1.381 . S
C724 C730 1.383 . S
C725 C721 1.495 . S
C725 H731 0.959 . S
C725 H732 0.961 . S
C725 H733 0.960 . S
C726 C724 1.381 . S
C726 C727 1.394 . S
C726 H734 0.930 . S
C727 C726 1.394 . S
C727 C728 1.383 . S
C727 H735 0.929 . S
C728 C727 1.383 . S
C728 C729 1.377 . S
C729 H713 0.930 . S
C729 C728 1.377 . S
C729 C730 1.379 . S
C730 H714 0.931 . S
C730 C724 1.383 . S
C730 C729 1.379 . S
H731 C725 0.959 . S
H732 C725 0.961 . S
H733 C725 0.960 . S
H734 C726 0.930 . S
H735 C727 0.929 . S
H736 C744 0.929 . S
H737 C746 0.930 . S
H738 C748 0.930 . S
H739 C751 0.929 . S
H740 C754 0.930 . S
H741 C756 0.960 . S
H742 C756 0.960 . S
H743 C756 0.960 . S
C744 H736 0.929 . S
C744 C745 1.377 . S
C744 C746 1.384 . S
C745 C744 1.377 . S
C745 C751 1.390 . S
C746 H737 0.930 . S
C746 C744 1.384 . S
C746 C747 1.372 . S
C747 C746 1.372 . S
C747 C748 1.400 . S
C747 C752 1.490 . S
C748 H738 0.930 . S
C748 C747 1.400 . S
C748 C751 1.386 . S
H749 C765 0.930 . S
H750 C766 0.931 . S
C751 H739 0.929 . S
C751 C745 1.390 . S
C751 C748 1.386 . S
C752 C747 1.490 . S
C752 C754 1.395 . S
C752 C755 1.403 . S
H753 C759 0.930 . S
C754 H740 0.930 . S
C754 C752 1.395 . S
C754 C757 1.403 . S
C755 C752 1.403 . S
C755 C756 1.524 . S
C755 C759 1.400 . S
C756 H741 0.960 . S
C756 H742 0.960 . S
C756 H743 0.960 . S
C756 C755 1.524 . S
C757 C754 1.403 . S
C757 C758 1.392 . S
C757 C761 1.495 . S
C758 C757 1.392 . S
C758 C759 1.385 . S
C758 C760 1.478 . S
C759 H753 0.930 . S
C759 C755 1.400 . S
C759 C758 1.385 . S
C760 C758 1.478 . S
C760 C762 1.381 . S
C760 C766 1.383 . S
C761 C757 1.495 . S
C761 H767 0.959 . S
C761 H768 0.961 . S
C761 H769 0.960 . S
C762 C760 1.381 . S
C762 C763 1.394 . S
C762 H770 0.930 . S
C763 C762 1.394 . S
C763 C764 1.383 . S
C763 H771 0.929 . S
C764 C763 1.383 . S
C764 C765 1.377 . S
C765 H749 0.930 . S
C765 C764 1.377 . S
C765 C766 1.379 . S
C766 H750 0.931 . S
C766 C760 1.383 . S
C766 C765 1.379 . S
H767 C761 0.959 . S
H768 C761 0.961 . S
H769 C761 0.960 . S
H770 C762 0.930 . S
H771 C763 0.929 . S
H772 C780 0.929 . S
H773 C782 0.930 . S
H774 C784 0.930 . S
H775 C787 0.929 . S
H776 C790 0.930 . S
H777 C792 0.960 . S
H778 C792 0.960 . S
H779 C792 0.960 . S
C780 H772 0.929 . S
C780 C781 1.377 . S
C780 C782 1.384 . S
C781 C780 1.377 . S
C781 C787 1.390 . S
C782 H773 0.930 . S
C782 C780 1.384 . S
C782 C783 1.372 . S
C783 C782 1.372 . S
C783 C784 1.400 . S
C783 C788 1.490 . S
C784 H774 0.930 . S
C784 C783 1.400 . S
C784 C787 1.386 . S
H785 C801 0.930 . S
H786 C802 0.931 . S
C787 H775 0.929 . S
C787 C781 1.390 . S
C787 C784 1.386 . S
C788 C783 1.490 . S
C788 C790 1.395 . S
C788 C791 1.403 . S
H789 C795 0.930 . S
C790 H776 0.930 . S
C790 C788 1.395 . S
C790 C793 1.403 . S
C791 C788 1.403 . S
C791 C792 1.524 . S
C791 C795 1.400 . S
C792 H777 0.960 . S
C792 H778 0.960 . S
C792 H779 0.960 . S
C792 C791 1.524 . S
C793 C790 1.403 . S
C793 C794 1.392 . S
C793 C797 1.495 . S
C794 C793 1.392 . S
C794 C795 1.385 . S
C794 C796 1.478 . S
C795 H789 0.930 . S
C795 C791 1.400 . S
C795 C794 1.385 . S
C796 C794 1.478 . S
C796 C798 1.381 . S
C796 C802 1.383 . S
C797 C793 1.495 . S
C797 H803 0.959 . S
C797 H804 0.961 . S
C797 H805 0.960 . S
C798 C796 1.381 . S
C798 C799 1.394 . S
C798 H806 0.930 . S
C799 C798 1.394 . S
C799 C800 1.383 . S
C799 H807 0.929 . S
C800 C799 1.383 . S
C800 C801 1.377 . S
C801 H785 0.930 . S
C801 C800 1.377 . S
C801 C802 1.379 . S
C802 H786 0.931 . S
C802 C796 1.383 . S
C802 C801 1.379 . S
H803 C797 0.959 . S
H804 C797 0.961 . S
H805 C797 0.960 . S
H806 C798 0.930 . S
H807 C799 0.929 . S
H808 C816 0.929 . S
H809 C818 0.930 . S
H810 C820 0.930 . S
H811 C823 0.929 . S
H812 C826 0.930 . S
H813 C828 0.960 . S
H814 C828 0.960 . S
H815 C828 0.960 . S
C816 H808 0.929 . S
C816 C817 1.377 . S
C816 C818 1.384 . S
C817 C816 1.377 . S
C817 C823 1.390 . S
C818 H809 0.930 . S
C818 C816 1.384 . S
C818 C819 1.372 . S
C819 C818 1.372 . S
C819 C820 1.400 . S
C819 C824 1.490 . S
C820 H810 0.930 . S
C820 C819 1.400 . S
C820 C823 1.386 . S
H821 C837 0.930 . S
H822 C838 0.931 . S
C823 H811 0.929 . S
C823 C817 1.390 . S
C823 C820 1.386 . S
C824 C819 1.490 . S
C824 C826 1.395 . S
C824 C827 1.403 . S
H825 C831 0.930 . S
C826 H812 0.930 . S
C826 C824 1.395 . S
C826 C829 1.403 . S
C827 C824 1.403 . S
C827 C828 1.524 . S
C827 C831 1.400 . S
C828 H813 0.960 . S
C828 H814 0.960 . S
C828 H815 0.960 . S
C828 C827 1.524 . S
C829 C826 1.403 . S
C829 C830 1.392 . S
C829 C833 1.495 . S
C830 C829 1.392 . S
C830 C831 1.385 . S
C830 C832 1.478 . S
C831 H825 0.930 . S
C831 C827 1.400 . S
C831 C830 1.385 . S
C832 C830 1.478 . S
C832 C834 1.381 . S
C832 C838 1.383 . S
C833 C829 1.495 . S
C833 H839 0.959 . S
C833 H840 0.961 . S
C833 H841 0.960 . S
C834 C832 1.381 . S
C834 C835 1.394 . S
C834 H842 0.930 . S
C835 C834 1.394 . S
C835 C836 1.383 . S
C835 H843 0.929 . S
C836 C835 1.383 . S
C836 C837 1.377 . S
C837 H821 0.930 . S
C837 C836 1.377 . S
C837 C838 1.379 . S
C838 H822 0.931 . S
C838 C832 1.383 . S
C838 C837 1.379 . S
H839 C833 0.959 . S
H840 C833 0.961 . S
H841 C833 0.960 . S
H842 C834 0.930 . S
H843 C835 0.929 . S
H844 C852 0.929 . S
H845 C854 0.930 . S
H846 C856 0.930 . S
H847 C859 0.929 . S
H848 C862 0.930 . S
H849 C864 0.960 . S
H850 C864 0.960 . S
H851 C864 0.960 . S
C852 H844 0.929 . S
C852 C853 1.377 . S
C852 C854 1.384 . S
C853 C852 1.377 . S
C853 C859 1.390 . S
C854 H845 0.930 . S
C854 C852 1.384 . S
C854 C855 1.372 . S
C855 C854 1.372 . S
C855 C856 1.400 . S
C855 C860 1.490 . S
C856 H846 0.930 . S
C856 C855 1.400 . S
C856 C859 1.386 . S
H857 C873 0.930 . S
H858 C874 0.931 . S
C859 H847 0.929 . S
C859 C853 1.390 . S
C859 C856 1.386 . S
C860 C855 1.490 . S
C860 C862 1.395 . S
C860 C863 1.403 . S
H861 C867 0.930 . S
C862 H848 0.930 . S
C862 C860 1.395 . S
C862 C865 1.403 . S
C863 C860 1.403 . S
C863 C864 1.524 . S
C863 C867 1.400 . S
C864 H849 0.960 . S
C864 H850 0.960 . S
C864 H851 0.960 . S
C864 C863 1.524 . S
C865 C862 1.403 . S
C865 C866 1.392 . S
C865 C869 1.495 . S
C866 C865 1.392 . S
C866 C867 1.385 . S
C866 C868 1.478 . S
C867 H861 0.930 . S
C867 C863 1.400 . S
C867 C866 1.385 . S
C868 C866 1.478 . S
C868 C870 1.381 . S
C868 C874 1.383 . S
C869 C865 1.495 . S
C869 H875 0.959 . S
C869 H876 0.961 . S
C869 H877 0.960 . S
C870 C868 1.381 . S
C870 C871 1.394 . S
C870 H878 0.930 . S
C871 C870 1.394 . S
C871 C872 1.383 . S
C871 H879 0.929 . S
C872 C871 1.383 . S
C872 C873 1.377 . S
C873 H857 0.930 . S
C873 C872 1.377 . S
C873 C874 1.379 . S
C874 H858 0.931 . S
C874 C868 1.383 . S
C874 C873 1.379 . S
H875 C869 0.959 . S
H876 C869 0.961 . S
H877 C869 0.960 . S
H878 C870 0.930 . S
H879 C871 0.929 . S
H880 C888 0.929 . S
H881 C890 0.930 . S
H882 C892 0.930 . S
H883 C895 0.929 . S
H884 C898 0.930 . S
H885 C900 0.960 . S
H886 C900 0.960 . S
H887 C900 0.960 . S
C888 H880 0.929 . S
C888 C889 1.377 . S
C888 C890 1.384 . S
C889 C888 1.377 . S
C889 C895 1.390 . S
C890 H881 0.930 . S
C890 C888 1.384 . S
C890 C891 1.372 . S
C891 C890 1.372 . S
C891 C892 1.400 . S
C891 C896 1.490 . S
C892 H882 0.930 . S
C892 C891 1.400 . S
C892 C895 1.386 . S
H893 C909 0.930 . S
H894 C910 0.931 . S
C895 H883 0.929 . S
C895 C889 1.390 . S
C895 C892 1.386 . S
C896 C891 1.490 . S
C896 C898 1.395 . S
C896 C899 1.403 1_565 S
H897 C903 0.930 . S
C898 H884 0.930 . S
C898 C896 1.395 . S
C898 C901 1.403 . S
C899 C896 1.403 1_545 S
C899 C900 1.524 . S
C899 C903 1.400 . S
C900 H885 0.960 . S
C900 H886 0.960 . S
C900 H887 0.960 . S
C900 C899 1.524 . S
C901 C898 1.403 . S
C901 C902 1.392 1_565 S
C901 C905 1.495 . S
C902 C901 1.392 1_545 S
C902 C903 1.385 . S
C902 C904 1.478 . S
C903 H897 0.930 . S
C903 C899 1.400 . S
C903 C902 1.385 . S
C904 C902 1.478 . S
C904 C906 1.381 . S
C904 C910 1.383 . S
C905 C901 1.495 . S
C905 H911 0.959 . S
C905 H912 0.961 . S
C905 H913 0.960 . S
C906 C904 1.381 . S
C906 C907 1.394 . S
C906 H914 0.930 . S
C907 C906 1.394 . S
C907 C908 1.383 . S
C907 H915 0.929 . S
C908 C907 1.383 . S
C908 C909 1.377 . S
C909 H893 0.930 . S
C909 C908 1.377 . S
C909 C910 1.379 . S
C910 H894 0.931 . S
C910 C904 1.383 . S
C910 C909 1.379 . S
H911 C905 0.959 . S
H912 C905 0.961 . S
H913 C905 0.960 . S
H914 C906 0.930 . S
H915 C907 0.929 . S
H916 C924 0.888 1_554 S
H917 C926 0.908 1_554 S
H918 C928 0.930 . S
H919 C931 0.929 . S
H920 C934 0.930 . S
H921 C936 0.960 . S
H922 C936 0.960 . S
H923 C936 0.960 . S
C924 H916 0.888 1_556 S
C924 C925 1.377 . S
C924 C926 1.392 . S
C925 C924 1.377 . S
C925 C931 1.390 . S
C926 H917 0.908 1_556 S
C926 C924 1.392 . S
C926 C927 1.386 . S
C927 C926 1.386 . S
C927 C928 1.400 . S
C927 C932 1.490 . S
C928 H918 0.930 . S
C928 C927 1.400 . S
C928 C931 1.386 . S
H929 C945 0.913 1_556 S
H930 C946 0.931 1_556 S
C931 H919 0.929 . S
C931 C925 1.390 . S
C931 C928 1.386 . S
C932 C927 1.490 . S
C932 C934 1.395 1_556 S
C932 C935 1.403 1_455 S
H933 C939 0.930 . S
C934 H920 0.930 . S
C934 C932 1.395 1_554 S
C934 C937 1.403 1_565 S
C935 C932 1.403 1_655 S
C935 C936 1.524 . S
C935 C939 1.400 1_565 S
C936 H921 0.960 . S
C936 H922 0.960 . S
C936 H923 0.960 . S
C936 C935 1.524 . S
C937 C934 1.403 1_545 S
C937 C938 1.392 1_455 S
C937 C941 1.495 . S
C938 C937 1.392 1_655 S
C938 C939 1.385 1_554 S
C938 C940 1.478 . S
C939 H933 0.930 . S
C939 C935 1.400 1_545 S
C939 C938 1.385 1_556 S
C940 C938 1.478 . S
C940 C942 1.381 . S
C940 C946 1.383 . S
C941 C937 1.495 . S
C941 H947 0.959 . S
C941 H948 0.961 . S
C941 H949 0.960 . S
C942 C940 1.381 . S
C942 C943 1.394 . S
C942 H950 0.930 . S
C943 C942 1.394 . S
C943 C944 1.383 . S
C943 H951 0.929 . S
C944 C943 1.383 . S
C944 C945 1.377 . S
C945 H929 0.913 1_554 S
C945 C944 1.377 . S
C945 C946 1.379 . S
C946 H930 0.931 1_554 S
C946 C940 1.383 . S
C946 C945 1.379 . S
H947 C941 0.959 . S
H948 C941 0.961 . S
H949 C941 0.960 . S
H950 C942 0.930 . S
H951 C943 0.929 . S
H952 C960 0.888 1_554 S
H953 C962 0.908 1_554 S
H954 C964 0.930 . S
H955 C967 0.929 . S
H956 C970 0.930 . S
H957 C972 0.960 . S
H958 C972 0.960 . S
H959 C972 0.960 . S
C960 H952 0.888 1_556 S
C960 C961 1.377 . S
C960 C962 1.392 . S
C961 C960 1.377 . S
C961 C967 1.390 . S
C962 H953 0.908 1_556 S
C962 C960 1.392 . S
C962 C963 1.386 . S
C963 C962 1.386 . S
C963 C964 1.400 . S
C963 C968 1.490 . S
C964 H954 0.930 . S
C964 C963 1.400 . S
C964 C967 1.386 . S
H965 C981 0.914 1_556 S
H966 C982 0.931 1_556 S
C967 H955 0.929 . S
C967 C961 1.390 . S
C967 C964 1.386 . S
C968 C963 1.490 . S
C968 C970 1.395 1_556 S
C968 C971 1.403 1_545 S
H969 C975 0.930 . S
C970 H956 0.930 . S
C970 C968 1.395 1_554 S
C970 C973 1.403 . S
C971 C968 1.403 1_565 S
C971 C972 1.524 . S
C971 C975 1.400 . S
C972 H957 0.960 . S
C972 H958 0.960 . S
C972 H959 0.960 . S
C972 C971 1.524 . S
C973 C970 1.403 . S
C973 C974 1.392 1_545 S
C973 C977 1.495 . S
C974 C973 1.392 1_565 S
C974 C975 1.385 1_554 S
C974 C976 1.478 . S
C975 H969 0.930 . S
C975 C971 1.400 . S
C975 C974 1.385 1_556 S
C976 C974 1.478 . S
C976 C978 1.381 . S
C976 C982 1.383 . S
C977 C973 1.495 . S
C977 H983 0.959 . S
C977 H984 0.961 . S
C977 H985 0.960 . S
C978 C976 1.381 . S
C978 C979 1.394 . S
C978 H986 0.930 . S
C979 C978 1.394 . S
C979 C980 1.383 . S
C979 H987 0.929 . S
C980 C979 1.383 . S
C980 C981 1.377 . S
C981 H965 0.914 1_554 S
C981 C980 1.377 . S
C981 C982 1.379 . S
C982 H966 0.931 1_554 S
C982 C976 1.383 . S
C982 C981 1.379 . S
H983 C977 0.959 . S
H984 C977 0.961 . S
H985 C977 0.960 . S
H986 C978 0.930 . S
H987 C979 0.929 . S
H988 C996 0.929 . S
H989 C998 0.930 . S
H990 C1000 0.930 . S
H991 C1003 0.929 . S
H992 C1006 0.934 . S
H993 C1008 0.960 . S
H994 C1008 0.960 . S
H995 C1008 0.960 . S
C996 H988 0.929 . S
C996 C997 1.377 . S
C996 C998 1.384 . S
C997 C996 1.377 . S
C997 C1003 1.390 . S
C998 H989 0.930 . S
C998 C996 1.384 . S
C998 C999 1.372 . S
C999 C998 1.372 . S
C999 C1000 1.400 . S
C999 C1004 1.490 . S
C1000 H990 0.930 . S
C1000 C999 1.400 . S
C1000 C1003 1.386 . S
H1001 C1017 0.930 . S
H1002 C1018 0.931 . S
C1003 H991 0.929 . S
C1003 C997 1.390 . S
C1003 C1000 1.386 . S
C1004 C999 1.490 . S
C1004 C1006 1.426 . S
C1004 C1007 1.403 1_455 S
H1005 C1011 0.930 . S
C1006 H992 0.934 . S
C1006 C1004 1.426 . S
C1006 C1009 1.369 1_545 S
C1007 C1004 1.403 1_655 S
C1007 C1008 1.524 . S
C1007 C1011 1.400 1_545 S
C1008 H993 0.960 . S
C1008 H994 0.960 . S
C1008 H995 0.960 . S
C1008 C1007 1.524 . S
C1009 C1006 1.369 1_565 S
C1009 C1010 1.392 1_455 S
C1009 C1013 1.495 . S
C1010 C1009 1.392 1_655 S
C1010 C1011 1.385 . S
C1010 C1012 1.478 . S
C1011 H1005 0.930 . S
C1011 C1007 1.400 1_565 S
C1011 C1010 1.385 . S
C1012 C1010 1.478 . S
C1012 C1014 1.381 . S
C1012 C1018 1.383 . S
C1013 C1009 1.495 . S
C1013 H1019 0.959 . S
C1013 H1020 0.961 . S
C1013 H1021 0.960 . S
C1014 C1012 1.381 . S
C1014 C1015 1.394 . S
C1014 H1022 0.930 . S
C1015 C1014 1.394 . S
C1015 C1016 1.383 . S
C1015 H1023 0.929 . S
C1016 C1015 1.383 . S
C1016 C1017 1.377 . S
C1017 H1001 0.930 . S
C1017 C1016 1.377 . S
C1017 C1018 1.379 . S
C1018 H1002 0.931 . S
C1018 C1012 1.383 . S
C1018 C1017 1.379 . S
H1019 C1013 0.959 . S
H1020 C1013 0.961 . S
H1021 C1013 0.960 . S
H1022 C1014 0.930 . S
H1023 C1015 0.929 . S
H1024 C1032 0.929 . S
H1025 C1034 0.930 . S
H1026 C1036 0.930 . S
H1027 C1039 0.929 . S
H1028 C1042 0.930 . S
H1029 C1044 0.960 . S
H1030 C1044 0.960 . S
H1031 C1044 0.960 . S
C1032 H1024 0.929 . S
C1032 C1033 1.377 . S
C1032 C1034 1.384 . S
C1033 C1032 1.377 . S
C1033 C1039 1.390 . S
C1034 H1025 0.930 . S
C1034 C1032 1.384 . S
C1034 C1035 1.372 . S
C1035 C1034 1.372 . S
C1035 C1036 1.400 . S
C1035 C1040 1.490 . S
C1036 H1026 0.930 . S
C1036 C1035 1.400 . S
C1036 C1039 1.386 . S
H1037 C1053 0.930 . S
H1038 C1054 0.931 . S
C1039 H1027 0.929 . S
C1039 C1033 1.390 . S
C1039 C1036 1.386 . S
C1040 C1035 1.490 . S
C1040 C1042 1.395 1_655 S
C1040 C1043 1.403 . S
H1041 C1047 0.930 . S
C1042 H1028 0.930 . S
C1042 C1040 1.395 1_455 S
C1042 C1045 1.403 . S
C1043 C1040 1.403 . S
C1043 C1044 1.524 . S
C1043 C1047 1.400 . S
C1044 H1029 0.960 . S
C1044 H1030 0.960 . S
C1044 H1031 0.960 . S
C1044 C1043 1.524 . S
C1045 C1042 1.403 . S
C1045 C1046 1.392 . S
C1045 C1049 1.495 . S
C1046 C1045 1.392 . S
C1046 C1047 1.385 1_455 S
C1046 C1048 1.478 . S
C1047 H1041 0.930 . S
C1047 C1043 1.400 . S
C1047 C1046 1.385 1_655 S
C1048 C1046 1.478 . S
C1048 C1050 1.381 . S
C1048 C1054 1.383 . S
C1049 C1045 1.495 . S
C1049 H1055 0.959 . S
C1049 H1056 0.961 . S
C1049 H1057 0.960 . S
C1050 C1048 1.381 . S
C1050 C1051 1.394 . S
C1050 H1058 0.930 . S
C1051 C1050 1.394 . S
C1051 C1052 1.383 . S
C1051 H1059 0.929 . S
C1052 C1051 1.383 . S
C1052 C1053 1.377 . S
C1053 H1037 0.930 . S
C1053 C1052 1.377 . S
C1053 C1054 1.379 . S
C1054 H1038 0.931 . S
C1054 C1048 1.383 . S
C1054 C1053 1.379 . S
H1055 C1049 0.959 . S
H1056 C1049 0.961 . S
H1057 C1049 0.960 . S
H1058 C1050 0.930 . S
H1059 C1051 0.929 . S
H1060 C1068 0.929 . S
H1061 C1070 0.930 . S
H1062 C1072 0.930 . S
H1063 C1075 0.929 . S
H1064 C1078 0.930 . S
H1065 C1080 0.960 . S
H1066 C1080 0.960 . S
H1067 C1080 0.960 . S
C1068 H1060 0.929 . S
C1068 C1069 1.377 . S
C1068 C1070 1.384 . S
C1069 C1068 1.377 . S
C1069 C1075 1.390 . S
C1070 H1061 0.930 . S
C1070 C1068 1.384 . S
C1070 C1071 1.372 . S
C1071 C1070 1.372 . S
C1071 C1072 1.400 . S
C1071 C1076 1.490 . S
C1072 H1062 0.930 . S
C1072 C1071 1.400 . S
C1072 C1075 1.386 . S
H1073 C1089 0.930 . S
H1074 C1090 0.931 . S
C1075 H1063 0.929 . S
C1075 C1069 1.390 . S
C1075 C1072 1.386 . S
C1076 C1071 1.490 . S
C1076 C1078 1.395 . S
C1076 C1079 1.403 . S
H1077 C1083 0.930 . S
C1078 H1064 0.930 . S
C1078 C1076 1.395 . S
C1078 C1081 1.403 1_455 S
C1079 C1076 1.403 . S
C1079 C1080 1.524 . S
C1079 C1083 1.400 1_455 S
C1080 H1065 0.960 . S
C1080 H1066 0.960 . S
C1080 H1067 0.960 . S
C1080 C1079 1.524 . S
C1081 C1078 1.403 1_655 S
C1081 C1082 1.392 . S
C1081 C1085 1.495 . S
C1082 C1081 1.392 . S
C1082 C1083 1.385 . S
C1082 C1084 1.478 . S
C1083 H1077 0.930 . S
C1083 C1079 1.400 1_655 S
C1083 C1082 1.385 . S
C1084 C1082 1.478 . S
C1084 C1086 1.381 . S
C1084 C1090 1.383 . S
C1085 C1081 1.495 . S
C1085 H1091 0.959 . S
C1085 H1092 0.961 . S
C1085 H1093 0.960 . S
C1086 C1084 1.381 . S
C1086 C1087 1.394 . S
C1086 H1094 0.930 . S
C1087 C1086 1.394 . S
C1087 C1088 1.383 . S
C1087 H1095 0.929 . S
C1088 C1087 1.383 . S
C1088 C1089 1.377 . S
C1089 H1073 0.930 . S
C1089 C1088 1.377 . S
C1089 C1090 1.379 . S
C1090 H1074 0.931 . S
C1090 C1084 1.383 . S
C1090 C1089 1.379 . S
H1091 C1085 0.959 . S
H1092 C1085 0.961 . S
H1093 C1085 0.960 . S
H1094 C1086 0.930 . S
H1095 C1087 0.929 . S
H1096 C1104 0.929 . S
H1097 C1106 0.930 . S
H1098 C1108 0.930 . S
H1099 C1111 0.929 . S
H1100 C1114 0.930 . S
H1101 C1116 0.960 . S
H1102 C1116 0.960 . S
H1103 C1116 0.960 . S
C1104 H1096 0.929 . S
C1104 C1105 1.377 . S
C1104 C1106 1.384 . S
C1105 C1104 1.377 . S
C1105 C1111 1.390 . S
C1106 H1097 0.930 . S
C1106 C1104 1.384 . S
C1106 C1107 1.372 . S
C1107 C1106 1.372 . S
C1107 C1108 1.400 . S
C1107 C1112 1.490 . S
C1108 H1098 0.930 . S
C1108 C1107 1.400 . S
C1108 C1111 1.386 . S
H1109 C1125 0.930 . S
H1110 C1126 0.931 . S
C1111 H1099 0.929 . S
C1111 C1105 1.390 . S
C1111 C1108 1.386 . S
C1112 C1107 1.490 . S
C1112 C1114 1.395 . S
C1112 C1115 1.403 . S
H1113 C1119 0.930 . S
C1114 H1100 0.930 . S
C1114 C1112 1.395 . S
C1114 C1117 1.403 . S
C1115 C1112 1.403 . S
C1115 C1116 1.524 . S
C1115 C1119 1.400 . S
C1116 H1101 0.960 . S
C1116 H1102 0.960 . S
C1116 H1103 0.960 . S
C1116 C1115 1.524 . S
C1117 C1114 1.403 . S
C1117 C1118 1.392 . S
C1117 C1121 1.495 . S
C1118 C1117 1.392 . S
C1118 C1119 1.385 . S
C1118 C1120 1.478 . S
C1119 H1113 0.930 . S
C1119 C1115 1.400 . S
C1119 C1118 1.385 . S
C1120 C1118 1.478 . S
C1120 C1122 1.381 . S
C1120 C1126 1.383 . S
C1121 C1117 1.495 . S
C1121 H1127 0.959 . S
C1121 H1128 0.961 . S
C1121 H1129 0.960 . S
C1122 C1120 1.381 . S
C1122 C1123 1.394 . S
C1122 H1130 0.930 . S
C1123 C1122 1.394 . S
C1123 C1124 1.383 . S
C1123 H1131 0.929 . S
C1124 C1123 1.383 . S
C1124 C1125 1.377 . S
C1125 H1109 0.930 . S
C1125 C1124 1.377 . S
C1125 C1126 1.379 . S
C1126 H1110 0.931 . S
C1126 C1120 1.383 . S
C1126 C1125 1.379 . S
H1127 C1121 0.959 . S
H1128 C1121 0.961 . S
H1129 C1121 0.960 . S
H1130 C1122 0.930 . S
H1131 C1123 0.929 . S
H1132 C1140 0.929 . S
H1133 C1142 0.930 . S
H1134 C1144 0.930 . S
H1135 C1147 0.929 . S
H1136 C1150 0.930 . S
H1137 C1152 0.960 . S
H1138 C1152 0.960 . S
H1139 C1152 0.960 . S
C1140 H1132 0.929 . S
C1140 C1141 1.377 . S
C1140 C1142 1.384 . S
C1141 C1140 1.377 . S
C1141 C1147 1.390 . S
C1142 H1133 0.930 . S
C1142 C1140 1.384 . S
C1142 C1143 1.372 . S
C1143 C1142 1.372 . S
C1143 C1144 1.400 . S
C1143 C1148 1.490 . S
C1144 H1134 0.930 . S
C1144 C1143 1.400 . S
C1144 C1147 1.386 . S
H1145 C1161 0.930 . S
H1146 C1162 0.931 . S
C1147 H1135 0.929 . S
C1147 C1141 1.390 . S
C1147 C1144 1.386 . S
C1148 C1143 1.490 . S
C1148 C1150 1.395 . S
C1148 C1151 1.403 . S
H1149 C1155 0.930 . S
C1150 H1136 0.930 . S
C1150 C1148 1.395 . S
C1150 C1153 1.403 . S
C1151 C1148 1.403 . S
C1151 C1152 1.524 . S
C1151 C1155 1.400 . S
C1152 H1137 0.960 . S
C1152 H1138 0.960 . S
C1152 H1139 0.960 . S
C1152 C1151 1.524 . S
C1153 C1150 1.403 . S
C1153 C1154 1.392 . S
C1153 C1157 1.495 . S
C1154 C1153 1.392 . S
C1154 C1155 1.385 . S
C1154 C1156 1.478 . S
C1155 H1149 0.930 . S
C1155 C1151 1.400 . S
C1155 C1154 1.385 . S
C1156 C1154 1.478 . S
C1156 C1158 1.381 . S
C1156 C1162 1.383 . S
C1157 C1153 1.495 . S
C1157 H1163 0.959 . S
C1157 H1164 0.961 . S
C1157 H1165 0.960 . S
C1158 C1156 1.381 . S
C1158 C1159 1.394 . S
C1158 H1166 0.930 . S
C1159 C1158 1.394 . S
C1159 C1160 1.383 . S
C1159 H1167 0.929 . S
C1160 C1159 1.383 . S
C1160 C1161 1.377 . S
C1161 H1145 0.930 . S
C1161 C1160 1.377 . S
C1161 C1162 1.379 . S
C1162 H1146 0.931 . S
C1162 C1156 1.383 . S
C1162 C1161 1.379 . S
H1163 C1157 0.959 . S
H1164 C1157 0.961 . S
H1165 C1157 0.960 . S
H1166 C1158 0.930 . S
H1167 C1159 0.929 . S
H1168 C1176 0.929 . S
H1169 C1178 0.930 . S
H1170 C1180 0.930 . S
H1171 C1183 0.929 . S
H1172 C1186 0.930 . S
H1173 C1188 0.960 . S
H1174 C1188 0.960 . S
H1175 C1188 0.960 . S
C1176 H1168 0.929 . S
C1176 C1177 1.377 . S
C1176 C1178 1.384 . S
C1177 C1176 1.377 . S
C1177 C1183 1.390 . S
C1178 H1169 0.930 . S
C1178 C1176 1.384 . S
C1178 C1179 1.372 . S
C1179 C1178 1.372 . S
C1179 C1180 1.400 . S
C1179 C1184 1.490 . S
C1180 H1170 0.930 . S
C1180 C1179 1.400 . S
C1180 C1183 1.386 . S
H1181 C1197 0.930 . S
H1182 C1198 0.931 . S
C1183 H1171 0.929 . S
C1183 C1177 1.390 . S
C1183 C1180 1.386 . S
C1184 C1179 1.490 . S
C1184 C1186 1.395 1_655 S
C1184 C1187 1.403 . S
H1185 C1191 0.930 . S
C1186 H1172 0.930 . S
C1186 C1184 1.395 1_455 S
C1186 C1189 1.403 . S
C1187 C1184 1.403 . S
C1187 C1188 1.524 . S
C1187 C1191 1.400 . S
C1188 H1173 0.960 . S
C1188 H1174 0.960 . S
C1188 H1175 0.960 . S
C1188 C1187 1.524 . S
C1189 C1186 1.403 . S
C1189 C1190 1.392 . S
C1189 C1193 1.495 . S
C1190 C1189 1.392 . S
C1190 C1191 1.385 1_455 S
C1190 C1192 1.478 . S
C1191 H1185 0.930 . S
C1191 C1187 1.400 . S
C1191 C1190 1.385 1_655 S
C1192 C1190 1.478 . S
C1192 C1194 1.381 . S
C1192 C1198 1.383 . S
C1193 C1189 1.495 . S
C1193 H1199 0.959 . S
C1193 H1200 0.961 . S
C1193 H1201 0.960 . S
C1194 C1192 1.381 . S
C1194 C1195 1.394 . S
C1194 H1202 0.930 . S
C1195 C1194 1.394 . S
C1195 C1196 1.383 . S
C1195 H1203 0.929 . S
C1196 C1195 1.383 . S
C1196 C1197 1.377 . S
C1197 H1181 0.930 . S
C1197 C1196 1.377 . S
C1197 C1198 1.379 . S
C1198 H1182 0.931 . S
C1198 C1192 1.383 . S
C1198 C1197 1.379 . S
H1199 C1193 0.959 . S
H1200 C1193 0.961 . S
H1201 C1193 0.960 . S
H1202 C1194 0.930 . S
H1203 C1195 0.929 . S
H1204 C1212 0.929 . S
H1205 C1214 0.930 . S
H1206 C1216 0.930 . S
H1207 C1219 0.929 . S
H1208 C1222 0.930 . S
H1209 C1224 0.960 . S
H1210 C1224 0.960 . S
H1211 C1224 0.960 . S
C1212 H1204 0.929 . S
C1212 C1213 1.377 . S
C1212 C1214 1.384 . S
C1213 C1212 1.377 . S
C1213 C1219 1.390 . S
C1214 H1205 0.930 . S
C1214 C1212 1.384 . S
C1214 C1215 1.372 . S
C1215 C1214 1.372 . S
C1215 C1216 1.400 . S
C1215 C1220 1.490 . S
C1216 H1206 0.930 . S
C1216 C1215 1.400 . S
C1216 C1219 1.386 . S
H1217 C1233 0.930 . S
H1218 C1234 0.931 . S
C1219 H1207 0.929 . S
C1219 C1213 1.390 . S
C1219 C1216 1.386 . S
C1220 C1215 1.490 . S
C1220 C1222 1.395 . S
C1220 C1223 1.403 . S
H1221 C1227 0.930 . S
C1222 H1208 0.930 . S
C1222 C1220 1.395 . S
C1222 C1225 1.403 . S
C1223 C1220 1.403 . S
C1223 C1224 1.524 . S
C1223 C1227 1.400 . S
C1224 H1209 0.960 . S
C1224 H1210 0.960 . S
C1224 H1211 0.960 . S
C1224 C1223 1.524 . S
C1225 C1222 1.403 . S
C1225 C1226 1.392 . S
C1225 C1229 1.495 . S
C1226 C1225 1.392 . S
C1226 C1227 1.385 . S
C1226 C1228 1.478 . S
C1227 H1221 0.930 . S
C1227 C1223 1.400 . S
C1227 C1226 1.385 . S
C1228 C1226 1.478 . S
C1228 C1230 1.381 . S
C1228 C1234 1.383 . S
C1229 C1225 1.495 . S
C1229 H1235 0.959 . S
C1229 H1236 0.961 . S
C1229 H1237 0.960 . S
C1230 C1228 1.381 . S
C1230 C1231 1.394 . S
C1230 H1238 0.930 . S
C1231 C1230 1.394 . S
C1231 C1232 1.383 . S
C1231 H1239 0.929 . S
C1232 C1231 1.383 . S
C1232 C1233 1.377 . S
C1233 H1217 0.930 . S
C1233 C1232 1.377 . S
C1233 C1234 1.379 . S
C1234 H1218 0.931 . S
C1234 C1228 1.383 . S
C1234 C1233 1.379 . S
H1235 C1229 0.959 . S
H1236 C1229 0.961 . S
H1237 C1229 0.960 . S
H1238 C1230 0.930 . S
H1239 C1231 0.929 . S
H1240 C1248 0.929 . S
H1241 C1250 0.930 . S
H1242 C1252 0.930 . S
H1243 C1255 0.929 . S
H1244 C1258 0.930 . S
H1245 C1260 0.960 . S
H1246 C1260 0.960 . S
H1247 C1260 0.960 . S
C1248 H1240 0.929 . S
C1248 C1249 1.377 . S
C1248 C1250 1.384 . S
C1249 C1248 1.377 . S
C1249 C1255 1.390 . S
C1250 H1241 0.930 . S
C1250 C1248 1.384 . S
C1250 C1251 1.372 . S
C1251 C1250 1.372 . S
C1251 C1252 1.400 . S
C1251 C1256 1.490 . S
C1252 H1242 0.930 . S
C1252 C1251 1.400 . S
C1252 C1255 1.386 . S
H1253 C1269 0.930 . S
H1254 C1270 0.931 . S
C1255 H1243 0.929 . S
C1255 C1249 1.390 . S
C1255 C1252 1.386 . S
C1256 C1251 1.490 . S
C1256 C1258 1.395 . S
C1256 C1259 1.403 . S
H1257 C1263 0.930 . S
C1258 H1244 0.930 . S
C1258 C1256 1.395 . S
C1258 C1261 1.403 . S
C1259 C1256 1.403 . S
C1259 C1260 1.524 . S
C1259 C1263 1.400 . S
C1260 H1245 0.960 . S
C1260 H1246 0.960 . S
C1260 H1247 0.960 . S
C1260 C1259 1.524 . S
C1261 C1258 1.403 . S
C1261 C1262 1.392 . S
C1261 C1265 1.495 . S
C1262 C1261 1.392 . S
C1262 C1263 1.385 . S
C1262 C1264 1.478 . S
C1263 H1257 0.930 . S
C1263 C1259 1.400 . S
C1263 C1262 1.385 . S
C1264 C1262 1.478 . S
C1264 C1266 1.381 . S
C1264 C1270 1.383 . S
C1265 C1261 1.495 . S
C1265 H1271 0.959 . S
C1265 H1272 0.961 . S
C1265 H1273 0.960 . S
C1266 C1264 1.381 . S
C1266 C1267 1.394 . S
C1266 H1274 0.930 . S
C1267 C1266 1.394 . S
C1267 C1268 1.383 . S
C1267 H1275 0.929 . S
C1268 C1267 1.383 . S
C1268 C1269 1.377 . S
C1269 H1253 0.930 . S
C1269 C1268 1.377 . S
C1269 C1270 1.379 . S
C1270 H1254 0.931 . S
C1270 C1264 1.383 . S
C1270 C1269 1.379 . S
H1271 C1265 0.959 . S
H1272 C1265 0.961 . S
H1273 C1265 0.960 . S
H1274 C1266 0.930 . S
H1275 C1267 0.929 . S
H1276 C1284 0.929 . S
H1277 C1286 0.930 . S
H1278 C1288 0.930 . S
H1279 C1291 0.929 . S
H1280 C1294 0.930 . S
H1281 C1296 0.953 1_655 S
H1282 C1296 0.961 . S
H1283 C1296 0.966 . S
C1284 H1276 0.929 . S
C1284 C1285 1.377 . S
C1284 C1286 1.384 . S
C1285 C1284 1.377 . S
C1285 C1291 1.390 . S
C1286 H1277 0.930 . S
C1286 C1284 1.384 . S
C1286 C1287 1.372 . S
C1287 C1286 1.372 . S
C1287 C1288 1.400 . S
C1287 C1292 1.490 . S
C1288 H1278 0.930 . S
C1288 C1287 1.400 . S
C1288 C1291 1.386 . S
H1289 C1305 0.930 . S
H1290 C1306 0.931 . S
C1291 H1279 0.929 . S
C1291 C1285 1.390 . S
C1291 C1288 1.386 . S
C1292 C1287 1.490 . S
C1292 C1294 1.395 . S
C1292 C1295 1.403 . S
H1293 C1299 0.930 . S
C1294 H1280 0.930 . S
C1294 C1292 1.395 . S
C1294 C1297 1.395 1_455 S
C1295 C1292 1.403 . S
C1295 C1296 1.524 . S
C1295 C1299 1.400 1_455 S
C1296 H1281 0.953 1_455 S
C1296 H1282 0.961 . S
C1296 H1283 0.966 . S
C1296 C1295 1.524 . S
C1297 C1294 1.395 1_655 S
C1297 C1298 1.400 . S
C1297 C1301 1.495 . S
C1298 C1297 1.400 . S
C1298 C1299 1.385 . S
C1298 C1300 1.478 . S
C1299 H1293 0.930 . S
C1299 C1295 1.400 1_655 S
C1299 C1298 1.385 . S
C1300 C1298 1.478 . S
C1300 C1302 1.381 . S
C1300 C1306 1.383 . S
C1301 C1297 1.495 . S
C1301 H1307 0.958 1_655 S
C1301 H1308 0.961 . S
C1301 H1309 0.960 . S
C1302 C1300 1.381 . S
C1302 C1303 1.394 . S
C1302 H1310 0.930 . S
C1303 C1302 1.394 . S
C1303 C1304 1.383 . S
C1303 H1311 0.929 . S
C1304 C1303 1.383 . S
C1304 C1305 1.377 . S
C1305 H1289 0.930 . S
C1305 C1304 1.377 . S
C1305 C1306 1.379 . S
C1306 H1290 0.931 . S
C1306 C1300 1.383 . S
C1306 C1305 1.379 . S
H1307 C1301 0.958 1_455 S
H1308 C1301 0.961 . S
H1309 C1301 0.960 . S
H1310 C1302 0.930 . S
H1311 C1303 0.929 . S
H1312 C1320 0.929 . S
H1313 C1322 0.930 . S
H1314 C1324 0.930 . S
H1315 C1327 0.929 . S
H1316 C1330 0.930 . S
H1317 C1332 0.960 . S
H1318 C1332 0.960 . S
H1319 C1332 0.960 . S
C1320 H1312 0.929 . S
C1320 C1321 1.377 . S
C1320 C1322 1.384 . S
C1321 C1320 1.377 . S
C1321 C1327 1.390 . S
C1322 H1313 0.930 . S
C1322 C1320 1.384 . S
C1322 C1323 1.372 . S
C1323 C1322 1.372 . S
C1323 C1324 1.400 . S
C1323 C1328 1.490 . S
C1324 H1314 0.930 . S
C1324 C1323 1.400 . S
C1324 C1327 1.386 . S
H1325 C1341 0.930 . S
H1326 C1342 0.931 . S
C1327 H1315 0.929 . S
C1327 C1321 1.390 . S
C1327 C1324 1.386 . S
C1328 C1323 1.490 . S
C1328 C1330 1.395 . S
C1328 C1331 1.403 1_655 S
H1329 C1335 0.930 . S
C1330 H1316 0.930 . S
C1330 C1328 1.395 . S
C1330 C1333 1.403 . S
C1331 C1328 1.403 1_455 S
C1331 C1332 1.524 . S
C1331 C1335 1.400 . S
C1332 H1317 0.960 . S
C1332 H1318 0.960 . S
C1332 H1319 0.960 . S
C1332 C1331 1.524 . S
C1333 C1330 1.403 . S
C1333 C1334 1.392 1_655 S
C1333 C1337 1.495 . S
C1334 C1333 1.392 1_455 S
C1334 C1335 1.385 . S
C1334 C1336 1.478 . S
C1335 H1329 0.930 . S
C1335 C1331 1.400 . S
C1335 C1334 1.385 . S
C1336 C1334 1.478 . S
C1336 C1338 1.381 . S
C1336 C1342 1.383 . S
C1337 C1333 1.495 . S
C1337 H1343 0.959 . S
C1337 H1344 0.961 . S
C1337 H1345 0.960 . S
C1338 C1336 1.381 . S
C1338 C1339 1.394 . S
C1338 H1346 0.930 . S
C1339 C1338 1.394 . S
C1339 C1340 1.383 . S
C1339 H1347 0.929 . S
C1340 C1339 1.383 . S
C1340 C1341 1.377 . S
C1341 H1325 0.930 . S
C1341 C1340 1.377 . S
C1341 C1342 1.379 . S
C1342 H1326 0.931 . S
C1342 C1336 1.383 . S
C1342 C1341 1.379 . S
H1343 C1337 0.959 . S
H1344 C1337 0.961 . S
H1345 C1337 0.960 . S
H1346 C1338 0.930 . S
H1347 C1339 0.929 . S
H1348 C1356 0.929 . S
H1349 C1358 0.930 . S
H1350 C1360 0.930 . S
H1351 C1363 0.929 . S
H1352 C1366 0.930 . S
H1353 C1368 0.960 . S
H1354 C1368 0.944 1_655 S
H1355 C1368 0.960 1_655 S
C1356 H1348 0.929 . S
C1356 C1357 1.377 . S
C1356 C1358 1.384 . S
C1357 C1356 1.377 . S
C1357 C1363 1.390 . S
C1358 H1349 0.930 . S
C1358 C1356 1.384 . S
C1358 C1359 1.372 . S
C1359 C1358 1.372 . S
C1359 C1360 1.400 . S
C1359 C1364 1.490 . S
C1360 H1350 0.930 . S
C1360 C1359 1.400 . S
C1360 C1363 1.386 . S
H1361 C1377 0.930 . S
H1362 C1378 0.931 . S
C1363 H1351 0.929 . S
C1363 C1357 1.390 . S
C1363 C1360 1.386 . S
C1364 C1359 1.490 . S
C1364 C1366 1.395 . S
C1364 C1367 1.403 1_655 S
H1365 C1371 0.930 . S
C1366 H1352 0.930 . S
C1366 C1364 1.395 . S
C1366 C1369 1.403 . S
C1367 C1364 1.403 1_455 S
C1367 C1368 1.524 . S
C1367 C1371 1.400 . S
C1368 H1353 0.960 . S
C1368 H1354 0.944 1_455 S
C1368 H1355 0.960 1_455 S
C1368 C1367 1.524 . S
C1369 C1366 1.403 . S
C1369 C1370 1.392 1_655 S
C1369 C1373 1.495 . S
C1370 C1369 1.392 1_455 S
C1370 C1371 1.385 . S
C1370 C1372 1.478 . S
C1371 H1365 0.930 . S
C1371 C1367 1.400 . S
C1371 C1370 1.385 . S
C1372 C1370 1.478 . S
C1372 C1374 1.381 . S
C1372 C1378 1.383 . S
C1373 C1369 1.495 . S
C1373 H1379 0.959 . S
C1373 H1380 0.978 . S
C1373 H1381 0.946 1_655 S
C1374 C1372 1.381 . S
C1374 C1375 1.394 . S
C1374 H1382 0.930 . S
C1375 C1374 1.394 . S
C1375 C1376 1.383 . S
C1375 H1383 0.929 . S
C1376 C1375 1.383 . S
C1376 C1377 1.377 . S
C1377 H1361 0.930 . S
C1377 C1376 1.377 . S
C1377 C1378 1.379 . S
C1378 H1362 0.931 . S
C1378 C1372 1.383 . S
C1378 C1377 1.379 . S
H1379 C1373 0.959 . S
H1380 C1373 0.978 . S
H1381 C1373 0.946 1_455 S
H1382 C1374 0.930 . S
H1383 C1375 0.929 . S
H1384 C1392 0.929 . S
H1385 C1394 0.930 . S
H1386 C1396 0.930 . S
H1387 C1399 0.929 . S
H1388 C1402 0.930 . S
H1389 C1404 0.960 . S
H1390 C1404 0.960 . S
H1391 C1404 0.960 . S
C1392 H1384 0.929 . S
C1392 C1393 1.377 . S
C1392 C1394 1.384 . S
C1393 C1392 1.377 . S
C1393 C1399 1.390 . S
C1394 H1385 0.930 . S
C1394 C1392 1.384 . S
C1394 C1395 1.372 . S
C1395 C1394 1.372 . S
C1395 C1396 1.400 . S
C1395 C1400 1.490 . S
C1396 H1386 0.930 . S
C1396 C1395 1.400 . S
C1396 C1399 1.386 . S
H1397 C1413 0.930 . S
H1398 C1414 0.931 . S
C1399 H1387 0.929 . S
C1399 C1393 1.390 . S
C1399 C1396 1.386 . S
C1400 C1395 1.490 . S
C1400 C1402 1.395 . S
C1400 C1403 1.403 . S
H1401 C1407 0.930 . S
C1402 H1388 0.930 . S
C1402 C1400 1.395 . S
C1402 C1405 1.403 . S
C1403 C1400 1.403 . S
C1403 C1404 1.524 . S
C1403 C1407 1.400 . S
C1404 H1389 0.960 . S
C1404 H1390 0.960 . S
C1404 H1391 0.960 . S
C1404 C1403 1.524 . S
C1405 C1402 1.403 . S
C1405 C1406 1.392 . S
C1405 C1409 1.495 . S
C1406 C1405 1.392 . S
C1406 C1407 1.385 . S
C1406 C1408 1.478 . S
C1407 H1401 0.930 . S
C1407 C1403 1.400 . S
C1407 C1406 1.385 . S
C1408 C1406 1.478 . S
C1408 C1410 1.381 . S
C1408 C1414 1.383 . S
C1409 C1405 1.495 . S
C1409 H1415 0.959 . S
C1409 H1416 0.961 . S
C1409 H1417 0.960 . S
C1410 C1408 1.381 . S
C1410 C1411 1.394 . S
C1410 H1418 0.930 . S
C1411 C1410 1.394 . S
C1411 C1412 1.383 . S
C1411 H1419 0.929 . S
C1412 C1411 1.383 . S
C1412 C1413 1.377 . S
C1413 H1397 0.930 . S
C1413 C1412 1.377 . S
C1413 C1414 1.379 . S
C1414 H1398 0.931 . S
C1414 C1408 1.383 . S
C1414 C1413 1.379 . S
H1415 C1409 0.959 . S
H1416 C1409 0.961 . S
H1417 C1409 0.960 . S
H1418 C1410 0.930 . S
H1419 C1411 0.929 . S
H1420 C1428 0.929 . S
H1421 C1430 0.930 . S
H1422 C1432 0.930 . S
H1423 C1435 0.929 . S
H1424 C1438 0.930 . S
H1425 C1440 0.960 . S
H1426 C1440 0.960 . S
H1427 C1440 0.960 . S
C1428 H1420 0.929 . S
C1428 C1429 1.377 . S
C1428 C1430 1.384 . S
C1429 C1428 1.377 . S
C1429 C1435 1.390 . S
C1430 H1421 0.930 . S
C1430 C1428 1.384 . S
C1430 C1431 1.372 . S
C1431 C1430 1.372 . S
C1431 C1432 1.400 . S
C1431 C1436 1.490 . S
C1432 H1422 0.930 . S
C1432 C1431 1.400 . S
C1432 C1435 1.386 . S
H1433 C1449 0.930 . S
H1434 C1450 0.931 . S
C1435 H1423 0.929 . S
C1435 C1429 1.390 . S
C1435 C1432 1.386 . S
C1436 C1431 1.490 . S
C1436 C1438 1.395 . S
C1436 C1439 1.403 . S
H1437 C1443 0.930 . S
C1438 H1424 0.930 . S
C1438 C1436 1.395 . S
C1438 C1441 1.403 . S
C1439 C1436 1.403 . S
C1439 C1440 1.524 . S
C1439 C1443 1.400 . S
C1440 H1425 0.960 . S
C1440 H1426 0.960 . S
C1440 H1427 0.960 . S
C1440 C1439 1.524 . S
C1441 C1438 1.403 . S
C1441 C1442 1.392 . S
C1441 C1445 1.495 . S
C1442 C1441 1.392 . S
C1442 C1443 1.385 . S
C1442 C1444 1.478 . S
C1443 H1437 0.930 . S
C1443 C1439 1.400 . S
C1443 C1442 1.385 . S
C1444 C1442 1.478 . S
C1444 C1446 1.381 . S
C1444 C1450 1.383 . S
C1445 C1441 1.495 . S
C1445 H1451 0.959 . S
C1445 H1452 0.961 . S
C1445 H1453 0.960 . S
C1446 C1444 1.381 . S
C1446 C1447 1.394 . S
C1446 H1454 0.930 . S
C1447 C1446 1.394 . S
C1447 C1448 1.383 . S
C1447 H1455 0.929 . S
C1448 C1447 1.383 . S
C1448 C1449 1.377 . S
C1449 H1433 0.930 . S
C1449 C1448 1.377 . S
C1449 C1450 1.379 . S
C1450 H1434 0.931 . S
C1450 C1444 1.383 . S
C1450 C1449 1.379 . S
H1451 C1445 0.959 . S
H1452 C1445 0.961 . S
H1453 C1445 0.960 . S
H1454 C1446 0.930 . S
H1455 C1447 0.929 . S
H1456 C1464 0.929 . S
H1457 C1466 0.930 . S
H1458 C1468 0.930 . S
H1459 C1471 0.929 . S
H1460 C1474 0.930 . S
H1461 C1476 0.960 . S
H1462 C1476 0.960 . S
H1463 C1476 0.960 . S
C1464 H1456 0.929 . S
C1464 C1465 1.377 . S
C1464 C1466 1.384 . S
C1465 C1464 1.377 . S
C1465 C1471 1.390 . S
C1466 H1457 0.930 . S
C1466 C1464 1.384 . S
C1466 C1467 1.372 . S
C1467 C1466 1.372 . S
C1467 C1468 1.400 . S
C1467 C1472 1.490 . S
C1468 H1458 0.930 . S
C1468 C1467 1.400 . S
C1468 C1471 1.386 . S
H1469 C1485 0.930 . S
H1470 C1486 0.931 . S
C1471 H1459 0.929 . S
C1471 C1465 1.390 . S
C1471 C1468 1.386 . S
C1472 C1467 1.490 . S
C1472 C1474 1.395 1_655 S
C1472 C1475 1.403 . S
H1473 C1479 0.930 . S
C1474 H1460 0.930 . S
C1474 C1472 1.395 1_455 S
C1474 C1477 1.403 . S
C1475 C1472 1.403 . S
C1475 C1476 1.524 . S
C1475 C1479 1.400 . S
C1476 H1461 0.960 . S
C1476 H1462 0.960 . S
C1476 H1463 0.960 . S
C1476 C1475 1.524 . S
C1477 C1474 1.403 . S
C1477 C1478 1.392 . S
C1477 C1481 1.495 . S
C1478 C1477 1.392 . S
C1478 C1479 1.385 1_455 S
C1478 C1480 1.478 . S
C1479 H1473 0.930 . S
C1479 C1475 1.400 . S
C1479 C1478 1.385 1_655 S
C1480 C1478 1.478 . S
C1480 C1482 1.381 . S
C1480 C1486 1.383 . S
C1481 C1477 1.495 . S
C1481 H1487 0.959 . S
C1481 H1488 0.961 . S
C1481 H1489 0.960 . S
C1482 C1480 1.381 . S
C1482 C1483 1.394 . S
C1482 H1490 0.930 . S
C1483 C1482 1.394 . S
C1483 C1484 1.383 . S
C1483 H1491 0.929 . S
C1484 C1483 1.383 . S
C1484 C1485 1.377 . S
C1485 H1469 0.930 . S
C1485 C1484 1.377 . S
C1485 C1486 1.379 . S
C1486 H1470 0.931 . S
C1486 C1480 1.383 . S
C1486 C1485 1.379 . S
H1487 C1481 0.959 . S
H1488 C1481 0.961 . S
H1489 C1481 0.960 . S
H1490 C1482 0.930 . S
H1491 C1483 0.929 . S
H1492 C1500 0.929 . S
H1493 C1502 0.930 . S
H1494 C1504 0.930 . S
H1495 C1507 0.929 . S
H1496 C1510 0.930 . S
H1497 C1512 0.960 . S
H1498 C1512 0.960 . S
H1499 C1512 0.960 . S
C1500 H1492 0.929 . S
C1500 C1501 1.377 . S
C1500 C1502 1.384 . S
C1501 C1500 1.377 . S
C1501 C1507 1.390 . S
C1502 H1493 0.930 . S
C1502 C1500 1.384 . S
C1502 C1503 1.372 . S
C1503 C1502 1.372 . S
C1503 C1504 1.400 . S
C1503 C1508 1.490 . S
C1504 H1494 0.930 . S
C1504 C1503 1.400 . S
C1504 C1507 1.386 . S
H1505 C1521 0.930 . S
H1506 C1522 0.931 . S
C1507 H1495 0.929 . S
C1507 C1501 1.390 . S
C1507 C1504 1.386 . S
C1508 C1503 1.490 . S
C1508 C1510 1.395 . S
C1508 C1511 1.403 . S
H1509 C1515 0.930 . S
C1510 H1496 0.930 . S
C1510 C1508 1.395 . S
C1510 C1513 1.403 . S
C1511 C1508 1.403 . S
C1511 C1512 1.524 . S
C1511 C1515 1.400 . S
C1512 H1497 0.960 . S
C1512 H1498 0.960 . S
C1512 H1499 0.960 . S
C1512 C1511 1.524 . S
C1513 C1510 1.403 . S
C1513 C1514 1.392 . S
C1513 C1517 1.495 . S
C1514 C1513 1.392 . S
C1514 C1515 1.385 . S
C1514 C1516 1.478 . S
C1515 H1509 0.930 . S
C1515 C1511 1.400 . S
C1515 C1514 1.385 . S
C1516 C1514 1.478 . S
C1516 C1518 1.381 . S
C1516 C1522 1.383 . S
C1517 C1513 1.495 . S
C1517 H1523 0.959 . S
C1517 H1524 0.961 . S
C1517 H1525 0.960 . S
C1518 C1516 1.381 . S
C1518 C1519 1.394 . S
C1518 H1526 0.930 . S
C1519 C1518 1.394 . S
C1519 C1520 1.383 . S
C1519 H1527 0.929 . S
C1520 C1519 1.383 . S
C1520 C1521 1.377 . S
C1521 H1505 0.930 . S
C1521 C1520 1.377 . S
C1521 C1522 1.379 . S
C1522 H1506 0.931 . S
C1522 C1516 1.383 . S
C1522 C1521 1.379 . S
H1523 C1517 0.959 . S
H1524 C1517 0.961 . S
H1525 C1517 0.960 . S
H1526 C1518 0.930 . S
H1527 C1519 0.929 . S
H1528 C1536 0.929 . S
H1529 C1538 0.930 . S
H1530 C1540 0.930 . S
H1531 C1543 0.929 . S
H1532 C1546 0.930 . S
H1533 C1548 0.960 . S
H1534 C1548 0.960 . S
H1535 C1548 0.960 . S
C1536 H1528 0.929 . S
C1536 C1537 1.377 . S
C1536 C1538 1.384 . S
C1537 C1536 1.377 . S
C1537 C1543 1.390 . S
C1538 H1529 0.930 . S
C1538 C1536 1.384 . S
C1538 C1539 1.372 . S
C1539 C1538 1.372 . S
C1539 C1540 1.400 . S
C1539 C1544 1.490 . S
C1540 H1530 0.930 . S
C1540 C1539 1.400 . S
C1540 C1543 1.386 . S
H1541 C1557 0.930 . S
H1542 C1558 0.931 . S
C1543 H1531 0.929 . S
C1543 C1537 1.390 . S
C1543 C1540 1.386 . S
C1544 C1539 1.490 . S
C1544 C1546 1.395 . S
C1544 C1547 1.403 . S
H1545 C1551 0.930 . S
C1546 H1532 0.930 . S
C1546 C1544 1.395 . S
C1546 C1549 1.403 . S
C1547 C1544 1.403 . S
C1547 C1548 1.524 . S
C1547 C1551 1.400 . S
C1548 H1533 0.960 . S
C1548 H1534 0.960 . S
C1548 H1535 0.960 . S
C1548 C1547 1.524 . S
C1549 C1546 1.403 . S
C1549 C1550 1.392 . S
C1549 C1553 1.495 . S
C1550 C1549 1.392 . S
C1550 C1551 1.385 . S
C1550 C1552 1.478 . S
C1551 H1545 0.930 . S
C1551 C1547 1.400 . S
C1551 C1550 1.385 . S
C1552 C1550 1.478 . S
C1552 C1554 1.381 . S
C1552 C1558 1.383 . S
C1553 C1549 1.495 . S
C1553 H1559 0.959 . S
C1553 H1560 0.961 . S
C1553 H1561 0.960 . S
C1554 C1552 1.381 . S
C1554 C1555 1.394 . S
C1554 H1562 0.930 . S
C1555 C1554 1.394 . S
C1555 C1556 1.383 . S
C1555 H1563 0.929 . S
C1556 C1555 1.383 . S
C1556 C1557 1.377 . S
C1557 H1541 0.930 . S
C1557 C1556 1.377 . S
C1557 C1558 1.379 . S
C1558 H1542 0.931 . S
C1558 C1552 1.383 . S
C1558 C1557 1.379 . S
H1559 C1553 0.959 . S
H1560 C1553 0.961 . S
H1561 C1553 0.960 . S
H1562 C1554 0.930 . S
H1563 C1555 0.929 . S
H1564 C1572 0.929 . S
H1565 C1574 0.930 . S
H1566 C1576 0.930 . S
H1567 C1579 0.929 . S
H1568 C1582 0.930 . S
H1569 C1584 0.960 1_455 S
H1570 C1584 0.960 . S
H1571 C1584 0.960 . S
C1572 H1564 0.929 . S
C1572 C1573 1.377 . S
C1572 C1574 1.384 . S
C1573 C1572 1.377 . S
C1573 C1579 1.390 . S
C1574 H1565 0.930 . S
C1574 C1572 1.384 . S
C1574 C1575 1.372 . S
C1575 C1574 1.372 . S
C1575 C1576 1.400 . S
C1575 C1580 1.490 . S
C1576 H1566 0.930 . S
C1576 C1575 1.400 . S
C1576 C1579 1.386 . S
H1577 C1593 0.930 . S
H1578 C1594 0.931 . S
C1579 H1567 0.929 . S
C1579 C1573 1.390 . S
C1579 C1576 1.386 . S
C1580 C1575 1.490 . S
C1580 C1582 1.395 . S
C1580 C1583 1.403 . S
H1581 C1587 0.930 . S
C1582 H1568 0.930 . S
C1582 C1580 1.395 . S
C1582 C1585 1.381 1_655 S
C1583 C1580 1.403 . S
C1583 C1584 1.524 . S
C1583 C1587 1.400 1_655 S
C1584 H1569 0.960 1_655 S
C1584 H1570 0.960 . S
C1584 H1571 0.960 . S
C1584 C1583 1.524 . S
C1585 C1582 1.381 1_455 S
C1585 C1586 1.413 . S
C1585 C1589 1.497 . S
C1586 C1585 1.413 . S
C1586 C1587 1.385 . S
C1586 C1588 1.478 . S
C1587 H1581 0.930 . S
C1587 C1583 1.400 1_455 S
C1587 C1586 1.385 . S
C1588 C1586 1.478 . S
C1588 C1590 1.381 . S
C1588 C1594 1.383 . S
C1589 C1585 1.497 . S
C1589 H1595 0.959 1_455 S
C1589 H1596 0.961 . S
C1589 H1597 0.960 . S
C1590 C1588 1.381 . S
C1590 C1591 1.394 . S
C1590 H1598 0.930 . S
C1591 C1590 1.394 . S
C1591 C1592 1.383 . S
C1591 H1599 0.929 . S
C1592 C1591 1.383 . S
C1592 C1593 1.377 . S
C1593 H1577 0.930 . S
C1593 C1592 1.377 . S
C1593 C1594 1.379 . S
C1594 H1578 0.931 . S
C1594 C1588 1.383 . S
C1594 C1593 1.379 . S
H1595 C1589 0.959 1_655 S
H1596 C1589 0.961 . S
H1597 C1589 0.960 . S
H1598 C1590 0.930 . S
H1599 C1591 0.929 . S
H1600 C1608 0.929 . S
H1601 C1610 0.930 . S
H1602 C1612 0.930 1_554 S
H1603 C1615 0.929 . S
H1604 C1618 0.930 . S
H1605 C1620 0.960 . S
H1606 C1620 0.960 . S
H1607 C1620 0.960 . S
C1608 H1600 0.929 . S
C1608 C1609 1.377 . S
C1608 C1610 1.384 . S
C1609 C1608 1.377 . S
C1609 C1615 1.390 . S
C1610 H1601 0.930 . S
C1610 C1608 1.384 . S
C1610 C1611 1.372 . S
C1611 C1610 1.372 . S
C1611 C1612 1.400 . S
C1611 C1616 1.490 . S
C1612 H1602 0.930 1_556 S
C1612 C1611 1.400 . S
C1612 C1615 1.386 . S
H1613 C1629 0.930 . S
H1614 C1630 0.931 . S
C1615 H1603 0.929 . S
C1615 C1609 1.390 . S
C1615 C1612 1.386 . S
C1616 C1611 1.490 . S
C1616 C1618 1.395 . S
C1616 C1619 1.403 1_556 S
H1617 C1623 0.930 . S
C1618 H1604 0.930 . S
C1618 C1616 1.395 . S
C1618 C1621 1.403 . S
C1619 C1616 1.403 1_554 S
C1619 C1620 1.524 . S
C1619 C1623 1.400 . S
C1620 H1605 0.960 . S
C1620 H1606 0.960 . S
C1620 H1607 0.960 . S
C1620 C1619 1.524 . S
C1621 C1618 1.403 . S
C1621 C1622 1.392 1_556 S
C1621 C1625 1.495 . S
C1622 C1621 1.392 1_554 S
C1622 C1623 1.385 . S
C1622 C1624 1.478 . S
C1623 H1617 0.930 . S
C1623 C1619 1.400 . S
C1623 C1622 1.385 . S
C1624 C1622 1.478 . S
C1624 C1626 1.381 . S
C1624 C1630 1.383 . S
C1625 C1621 1.495 . S
C1625 H1631 0.959 . S
C1625 H1632 0.961 . S
C1625 H1633 0.960 . S
C1626 C1624 1.381 . S
C1626 C1627 1.394 . S
C1626 H1634 0.930 1_554 S
C1627 C1626 1.394 . S
C1627 C1628 1.383 . S
C1627 H1635 0.929 . S
C1628 C1627 1.383 . S
C1628 C1629 1.377 . S
C1629 H1613 0.930 . S
C1629 C1628 1.377 . S
C1629 C1630 1.379 . S
C1630 H1614 0.931 . S
C1630 C1624 1.383 . S
C1630 C1629 1.379 . S
H1631 C1625 0.959 . S
H1632 C1625 0.961 . S
H1633 C1625 0.960 . S
H1634 C1626 0.930 1_556 S
H1635 C1627 0.929 . S
H1636 C1644 0.929 . S
H1637 C1646 0.930 . S
H1638 C1648 0.930 . S
H1639 C1651 0.929 . S
H1640 C1654 0.930 . S
H1641 C1656 0.960 . S
H1642 C1656 0.960 . S
H1643 C1656 0.960 . S
C1644 H1636 0.929 . S
C1644 C1645 1.377 . S
C1644 C1646 1.384 . S
C1645 C1644 1.377 . S
C1645 C1651 1.390 . S
C1646 H1637 0.930 . S
C1646 C1644 1.384 . S
C1646 C1647 1.372 . S
C1647 C1646 1.372 . S
C1647 C1648 1.400 . S
C1647 C1652 1.490 . S
C1648 H1638 0.930 . S
C1648 C1647 1.400 . S
C1648 C1651 1.386 . S
H1649 C1665 0.930 . S
H1650 C1666 0.931 . S
C1651 H1639 0.929 . S
C1651 C1645 1.390 . S
C1651 C1648 1.386 . S
C1652 C1647 1.490 . S
C1652 C1654 1.395 . S
C1652 C1655 1.403 . S
H1653 C1659 0.930 . S
C1654 H1640 0.930 . S
C1654 C1652 1.395 . S
C1654 C1657 1.403 1_545 S
C1655 C1652 1.403 . S
C1655 C1656 1.524 . S
C1655 C1659 1.400 1_545 S
C1656 H1641 0.960 . S
C1656 H1642 0.960 . S
C1656 H1643 0.960 . S
C1656 C1655 1.524 . S
C1657 C1654 1.403 1_565 S
C1657 C1658 1.392 . S
C1657 C1661 1.495 . S
C1658 C1657 1.392 . S
C1658 C1659 1.385 . S
C1658 C1660 1.478 . S
C1659 H1653 0.930 . S
C1659 C1655 1.400 1_565 S
C1659 C1658 1.385 . S
C1660 C1658 1.478 . S
C1660 C1662 1.381 . S
C1660 C1666 1.383 . S
C1661 C1657 1.495 . S
C1661 H1667 0.959 . S
C1661 H1668 0.961 . S
C1661 H1669 0.960 . S
C1662 C1660 1.381 . S
C1662 C1663 1.394 . S
C1662 H1670 0.930 . S
C1663 C1662 1.394 . S
C1663 C1664 1.383 . S
C1663 H1671 0.929 . S
C1664 C1663 1.383 . S
C1664 C1665 1.377 . S
C1665 H1649 0.930 . S
C1665 C1664 1.377 . S
C1665 C1666 1.379 . S
C1666 H1650 0.931 . S
C1666 C1660 1.383 . S
C1666 C1665 1.379 . S
H1667 C1661 0.959 . S
H1668 C1661 0.961 . S
H1669 C1661 0.960 . S
H1670 C1662 0.930 . S
H1671 C1663 0.929 . S
H1672 C1680 0.929 . S
H1673 C1682 0.930 . S
H1674 C1684 0.930 . S
H1675 C1687 0.929 . S
H1676 C1690 0.930 . S
H1677 C1692 0.960 . S
H1678 C1692 0.960 . S
H1679 C1692 0.960 . S
C1680 H1672 0.929 . S
C1680 C1681 1.377 . S
C1680 C1682 1.384 . S
C1681 C1680 1.377 . S
C1681 C1687 1.390 . S
C1682 H1673 0.930 . S
C1682 C1680 1.384 . S
C1682 C1683 1.372 . S
C1683 C1682 1.372 . S
C1683 C1684 1.400 . S
C1683 C1688 1.490 . S
C1684 H1674 0.930 . S
C1684 C1683 1.400 . S
C1684 C1687 1.386 . S
H1685 C1701 0.930 . S
H1686 C1702 0.931 . S
C1687 H1675 0.929 . S
C1687 C1681 1.390 . S
C1687 C1684 1.386 . S
C1688 C1683 1.490 . S
C1688 C1690 1.395 . S
C1688 C1691 1.403 . S
H1689 C1695 0.930 . S
C1690 H1676 0.930 . S
C1690 C1688 1.395 . S
C1690 C1693 1.403 . S
C1691 C1688 1.403 . S
C1691 C1692 1.524 . S
C1691 C1695 1.400 . S
C1692 H1677 0.960 . S
C1692 H1678 0.960 . S
C1692 H1679 0.960 . S
C1692 C1691 1.524 . S
C1693 C1690 1.403 . S
C1693 C1694 1.392 . S
C1693 C1697 1.495 . S
C1694 C1693 1.392 . S
C1694 C1695 1.385 . S
C1694 C1696 1.478 . S
C1695 H1689 0.930 . S
C1695 C1691 1.400 . S
C1695 C1694 1.385 . S
C1696 C1694 1.478 . S
C1696 C1698 1.381 . S
C1696 C1702 1.383 . S
C1697 C1693 1.495 . S
C1697 H1703 0.959 . S
C1697 H1704 0.961 . S
C1697 H1705 0.960 . S
C1698 C1696 1.381 . S
C1698 C1699 1.394 . S
C1698 H1706 0.930 . S
C1699 C1698 1.394 . S
C1699 C1700 1.383 . S
C1699 H1707 0.929 . S
C1700 C1699 1.383 . S
C1700 C1701 1.377 . S
C1701 H1685 0.930 . S
C1701 C1700 1.377 . S
C1701 C1702 1.379 . S
C1702 H1686 0.931 . S
C1702 C1696 1.383 . S
C1702 C1701 1.379 . S
H1703 C1697 0.959 . S
H1704 C1697 0.961 . S
H1705 C1697 0.960 . S
H1706 C1698 0.930 . S
H1707 C1699 0.929 . S
H1708 C1716 0.929 . S
H1709 C1718 0.930 . S
H1710 C1720 0.930 . S
H1711 C1723 0.929 . S
H1712 C1726 0.930 . S
H1713 C1728 0.960 . S
H1714 C1728 0.960 . S
H1715 C1728 0.960 . S
C1716 H1708 0.929 . S
C1716 C1717 1.377 . S
C1716 C1718 1.384 . S
C1717 C1716 1.377 . S
C1717 C1723 1.390 . S
C1718 H1709 0.930 . S
C1718 C1716 1.384 . S
C1718 C1719 1.372 . S
C1719 C1718 1.372 . S
C1719 C1720 1.400 . S
C1719 C1724 1.490 . S
C1720 H1710 0.930 . S
C1720 C1719 1.400 . S
C1720 C1723 1.386 . S
H1721 C1737 0.930 . S
H1722 C1738 0.931 . S
C1723 H1711 0.929 . S
C1723 C1717 1.390 . S
C1723 C1720 1.386 . S
C1724 C1719 1.490 . S
C1724 C1726 1.395 . S
C1724 C1727 1.403 . S
H1725 C1731 0.930 . S
C1726 H1712 0.930 . S
C1726 C1724 1.395 . S
C1726 C1729 1.403 1_545 S
C1727 C1724 1.403 . S
C1727 C1728 1.524 . S
C1727 C1731 1.400 1_545 S
C1728 H1713 0.960 . S
C1728 H1714 0.960 . S
C1728 H1715 0.960 . S
C1728 C1727 1.524 . S
C1729 C1726 1.403 1_565 S
C1729 C1730 1.392 . S
C1729 C1733 1.495 . S
C1730 C1729 1.392 . S
C1730 C1731 1.385 . S
C1730 C1732 1.478 . S
C1731 H1725 0.930 . S
C1731 C1727 1.400 1_565 S
C1731 C1730 1.385 . S
C1732 C1730 1.478 . S
C1732 C1734 1.381 . S
C1732 C1738 1.383 . S
C1733 C1729 1.495 . S
C1733 H1739 0.959 . S
C1733 H1740 0.961 . S
C1733 H1741 0.960 . S
C1734 C1732 1.381 . S
C1734 C1735 1.394 . S
C1734 H1742 0.930 . S
C1735 C1734 1.394 . S
C1735 C1736 1.383 . S
C1735 H1743 0.929 . S
C1736 C1735 1.383 . S
C1736 C1737 1.377 . S
C1737 H1721 0.930 . S
C1737 C1736 1.377 . S
C1737 C1738 1.379 . S
C1738 H1722 0.931 . S
C1738 C1732 1.383 . S
C1738 C1737 1.379 . S
H1739 C1733 0.959 . S
H1740 C1733 0.961 . S
H1741 C1733 0.960 . S
H1742 C1734 0.930 . S
H1743 C1735 0.929 . S
H1744 C1752 0.929 . S
H1745 C1754 0.930 . S
H1746 C1756 0.930 1_556 S
H1747 C1759 0.929 . S
H1748 C1762 0.930 . S
H1749 C1764 0.960 . S
H1750 C1764 0.960 1_554 S
H1751 C1764 0.960 . S
C1752 H1744 0.929 . S
C1752 C1753 1.377 . S
C1752 C1754 1.384 . S
C1753 C1752 1.377 . S
C1753 C1759 1.390 . S
C1754 H1745 0.930 . S
C1754 C1752 1.384 . S
C1754 C1755 1.372 . S
C1755 C1754 1.372 . S
C1755 C1756 1.400 . S
C1755 C1760 1.490 . S
C1756 H1746 0.930 1_554 S
C1756 C1755 1.400 . S
C1756 C1759 1.386 . S
H1757 C1773 0.930 . S
H1758 C1774 0.931 . S
C1759 H1747 0.929 . S
C1759 C1753 1.390 . S
C1759 C1756 1.386 . S
C1760 C1755 1.490 . S
C1760 C1762 1.395 . S
C1760 C1763 1.403 1_554 S
H1761 C1767 0.930 . S
C1762 H1748 0.930 . S
C1762 C1760 1.395 . S
C1762 C1765 1.403 . S
C1763 C1760 1.403 1_556 S
C1763 C1764 1.524 . S
C1763 C1767 1.400 . S
C1764 H1749 0.960 . S
C1764 H1750 0.960 1_556 S
C1764 H1751 0.960 . S
C1764 C1763 1.524 . S
C1765 C1762 1.403 . S
C1765 C1766 1.392 1_554 S
C1765 C1769 1.495 . S
C1766 C1765 1.392 1_556 S
C1766 C1767 1.385 . S
C1766 C1768 1.478 . S
C1767 H1761 0.930 . S
C1767 C1763 1.400 . S
C1767 C1766 1.385 . S
C1768 C1766 1.478 . S
C1768 C1770 1.381 . S
C1768 C1774 1.383 . S
C1769 C1765 1.495 . S
C1769 H1775 0.959 . S
C1769 H1776 0.961 1_554 S
C1769 H1777 0.960 . S
C1770 C1768 1.381 . S
C1770 C1771 1.394 . S
C1770 H1778 0.930 1_556 S
C1771 C1770 1.394 . S
C1771 C1772 1.383 . S
C1771 H1779 0.929 . S
C1772 C1771 1.383 . S
C1772 C1773 1.377 . S
C1773 H1757 0.930 . S
C1773 C1772 1.377 . S
C1773 C1774 1.379 . S
C1774 H1758 0.931 . S
C1774 C1768 1.383 . S
C1774 C1773 1.379 . S
H1775 C1769 0.959 . S
H1776 C1769 0.961 1_556 S
H1777 C1769 0.960 . S
H1778 C1770 0.930 1_554 S
H1779 C1771 0.929 . S
H1780 C1788 0.929 . S
H1781 C1790 0.930 . S
H1782 C1792 0.930 . S
H1783 C1795 0.929 . S
H1784 C1798 0.930 . S
H1785 C1800 0.960 1_545 S
H1786 C1800 0.960 . S
H1787 C1800 0.960 . S
C1788 H1780 0.929 . S
C1788 C1789 1.377 . S
C1788 C1790 1.384 . S
C1789 C1788 1.377 . S
C1789 C1795 1.390 . S
C1790 H1781 0.930 . S
C1790 C1788 1.384 . S
C1790 C1791 1.372 . S
C1791 C1790 1.372 . S
C1791 C1792 1.400 . S
C1791 C1796 1.490 . S
C1792 H1782 0.930 . S
C1792 C1791 1.400 . S
C1792 C1795 1.386 . S
H1793 C1809 0.930 . S
H1794 C1810 0.931 . S
C1795 H1783 0.929 . S
C1795 C1789 1.390 . S
C1795 C1792 1.386 . S
C1796 C1791 1.490 . S
C1796 C1798 1.395 . S
C1796 C1799 1.403 . S
H1797 C1803 0.930 . S
C1798 H1784 0.930 . S
C1798 C1796 1.395 . S
C1798 C1801 1.403 1_565 S
C1799 C1796 1.403 . S
C1799 C1800 1.524 . S
C1799 C1803 1.400 1_565 S
C1800 H1785 0.960 1_565 S
C1800 H1786 0.960 . S
C1800 H1787 0.960 . S
C1800 C1799 1.524 . S
C1801 C1798 1.403 1_545 S
C1801 C1802 1.392 . S
C1801 C1805 1.495 . S
C1802 C1801 1.392 . S
C1802 C1803 1.385 . S
C1802 C1804 1.478 . S
C1803 H1797 0.930 . S
C1803 C1799 1.400 1_545 S
C1803 C1802 1.385 . S
C1804 C1802 1.478 . S
C1804 C1806 1.381 . S
C1804 C1810 1.383 . S
C1805 C1801 1.495 . S
C1805 H1811 0.959 1_545 S
C1805 H1812 0.961 . S
C1805 H1813 0.960 . S
C1806 C1804 1.381 . S
C1806 C1807 1.394 . S
C1806 H1814 0.930 . S
C1807 C1806 1.394 . S
C1807 C1808 1.383 . S
C1807 H1815 0.929 . S
C1808 C1807 1.383 . S
C1808 C1809 1.377 . S
C1809 H1793 0.930 . S
C1809 C1808 1.377 . S
C1809 C1810 1.379 . S
C1810 H1794 0.931 . S
C1810 C1804 1.383 . S
C1810 C1809 1.379 . S
H1811 C1805 0.959 1_565 S
H1812 C1805 0.961 . S
H1813 C1805 0.960 . S
H1814 C1806 0.930 . S
H1815 C1807 0.929 . S
H1816 C1824 0.929 . S
H1817 C1826 0.930 . S
H1818 C1828 0.930 . S
H1819 C1831 0.929 . S
H1820 C1834 0.930 . S
H1821 C1836 0.960 . S
H1822 C1836 0.960 . S
H1823 C1836 0.960 . S
C1824 H1816 0.929 . S
C1824 C1825 1.377 . S
C1824 C1826 1.384 . S
C1825 C1824 1.377 . S
C1825 C1831 1.390 . S
C1826 H1817 0.930 . S
C1826 C1824 1.384 . S
C1826 C1827 1.372 . S
C1827 C1826 1.372 . S
C1827 C1828 1.400 . S
C1827 C1832 1.490 . S
C1828 H1818 0.930 . S
C1828 C1827 1.400 . S
C1828 C1831 1.386 . S
H1829 C1845 0.930 . S
H1830 C1846 0.931 . S
C1831 H1819 0.929 . S
C1831 C1825 1.390 . S
C1831 C1828 1.386 . S
C1832 C1827 1.490 . S
C1832 C1834 1.395 . S
C1832 C1835 1.403 . S
H1833 C1839 0.930 . S
C1834 H1820 0.930 . S
C1834 C1832 1.395 . S
C1834 C1837 1.403 . S
C1835 C1832 1.403 . S
C1835 C1836 1.524 . S
C1835 C1839 1.400 . S
C1836 H1821 0.960 . S
C1836 H1822 0.960 . S
C1836 H1823 0.960 . S
C1836 C1835 1.524 . S
C1837 C1834 1.403 . S
C1837 C1838 1.392 . S
C1837 C1841 1.495 . S
C1838 C1837 1.392 . S
C1838 C1839 1.385 . S
C1838 C1840 1.478 . S
C1839 H1833 0.930 . S
C1839 C1835 1.400 . S
C1839 C1838 1.385 . S
C1840 C1838 1.478 . S
C1840 C1842 1.381 . S
C1840 C1846 1.383 . S
C1841 C1837 1.495 . S
C1841 H1847 0.959 . S
C1841 H1848 0.961 . S
C1841 H1849 0.960 . S
C1842 C1840 1.381 . S
C1842 C1843 1.394 . S
C1842 H1850 0.930 . S
C1843 C1842 1.394 . S
C1843 C1844 1.383 . S
C1843 H1851 0.929 . S
C1844 C1843 1.383 . S
C1844 C1845 1.377 . S
C1845 H1829 0.930 . S
C1845 C1844 1.377 . S
C1845 C1846 1.379 . S
C1846 H1830 0.931 . S
C1846 C1840 1.383 . S
C1846 C1845 1.379 . S
H1847 C1841 0.959 . S
H1848 C1841 0.961 . S
H1849 C1841 0.960 . S
H1850 C1842 0.930 . S
H1851 C1843 0.929 . S
H1852 C1860 0.929 . S
H1853 C1862 0.930 . S
H1854 C1864 0.930 . S
H1855 C1867 0.929 . S
H1856 C1870 0.930 . S
H1857 C1872 0.960 1_565 S
H1858 C1872 0.960 . S
H1859 C1872 0.960 . S
C1860 H1852 0.929 . S
C1860 C1861 1.377 . S
C1860 C1862 1.384 . S
C1861 C1860 1.377 . S
C1861 C1867 1.390 . S
C1862 H1853 0.930 . S
C1862 C1860 1.384 . S
C1862 C1863 1.372 . S
C1863 C1862 1.372 . S
C1863 C1864 1.400 . S
C1863 C1868 1.490 . S
C1864 H1854 0.930 . S
C1864 C1863 1.400 . S
C1864 C1867 1.386 . S
H1865 C1881 0.930 . S
H1866 C1882 0.931 . S
C1867 H1855 0.929 . S
C1867 C1861 1.390 . S
C1867 C1864 1.386 . S
C1868 C1863 1.490 . S
C1868 C1870 1.395 . S
C1868 C1871 1.403 . S
H1869 C1875 0.930 . S
C1870 H1856 0.930 . S
C1870 C1868 1.395 . S
C1870 C1873 1.403 1_545 S
C1871 C1868 1.403 . S
C1871 C1872 1.524 . S
C1871 C1875 1.400 1_545 S
C1872 H1857 0.960 1_545 S
C1872 H1858 0.960 . S
C1872 H1859 0.960 . S
C1872 C1871 1.524 . S
C1873 C1870 1.403 1_565 S
C1873 C1874 1.392 . S
C1873 C1877 1.495 . S
C1874 C1873 1.392 . S
C1874 C1875 1.385 . S
C1874 C1876 1.478 . S
C1875 H1869 0.930 . S
C1875 C1871 1.400 1_565 S
C1875 C1874 1.385 . S
C1876 C1874 1.478 . S
C1876 C1878 1.381 . S
C1876 C1882 1.383 . S
C1877 C1873 1.495 . S
C1877 H1883 0.959 1_565 S
C1877 H1884 0.961 . S
C1877 H1885 0.960 . S
C1878 C1876 1.381 . S
C1878 C1879 1.394 . S
C1878 H1886 0.930 . S
C1879 C1878 1.394 . S
C1879 C1880 1.383 . S
C1879 H1887 0.929 . S
C1880 C1879 1.383 . S
C1880 C1881 1.377 . S
C1881 H1865 0.930 . S
C1881 C1880 1.377 . S
C1881 C1882 1.379 . S
C1882 H1866 0.931 . S
C1882 C1876 1.383 . S
C1882 C1881 1.379 . S
H1883 C1877 0.959 1_545 S
H1884 C1877 0.961 . S
H1885 C1877 0.960 . S
H1886 C1878 0.930 . S
H1887 C1879 0.929 . S
H1888 C1896 0.929 . S
H1889 C1898 0.930 . S
H1890 C1900 0.930 . S
H1891 C1903 0.929 . S
H1892 C1906 0.930 . S
H1893 C1908 0.960 . S
H1894 C1908 0.960 . S
H1895 C1908 0.960 . S
C1896 H1888 0.929 . S
C1896 C1897 1.377 . S
C1896 C1898 1.384 . S
C1897 C1896 1.377 . S
C1897 C1903 1.390 . S
C1898 H1889 0.930 . S
C1898 C1896 1.384 . S
C1898 C1899 1.372 . S
C1899 C1898 1.372 . S
C1899 C1900 1.400 . S
C1899 C1904 1.490 . S
C1900 H1890 0.930 . S
C1900 C1899 1.400 . S
C1900 C1903 1.386 . S
H1901 C1917 0.930 . S
H1902 C1918 0.931 . S
C1903 H1891 0.929 . S
C1903 C1897 1.390 . S
C1903 C1900 1.386 . S
C1904 C1899 1.490 . S
C1904 C1906 1.395 . S
C1904 C1907 1.403 . S
H1905 C1911 0.930 . S
C1906 H1892 0.930 . S
C1906 C1904 1.395 . S
C1906 C1909 1.403 . S
C1907 C1904 1.403 . S
C1907 C1908 1.524 . S
C1907 C1911 1.400 . S
C1908 H1893 0.960 . S
C1908 H1894 0.960 . S
C1908 H1895 0.960 . S
C1908 C1907 1.524 . S
C1909 C1906 1.403 . S
C1909 C1910 1.392 . S
C1909 C1913 1.495 . S
C1910 C1909 1.392 . S
C1910 C1911 1.385 . S
C1910 C1912 1.478 . S
C1911 H1905 0.930 . S
C1911 C1907 1.400 . S
C1911 C1910 1.385 . S
C1912 C1910 1.478 . S
C1912 C1914 1.381 . S
C1912 C1918 1.383 . S
C1913 C1909 1.495 . S
C1913 H1919 0.959 . S
C1913 H1920 0.961 . S
C1913 H1921 0.960 . S
C1914 C1912 1.381 . S
C1914 C1915 1.394 . S
C1914 H1922 0.930 . S
C1915 C1914 1.394 . S
C1915 C1916 1.383 . S
C1915 H1923 0.929 . S
C1916 C1915 1.383 . S
C1916 C1917 1.377 . S
C1917 H1901 0.930 . S
C1917 C1916 1.377 . S
C1917 C1918 1.379 . S
C1918 H1902 0.931 . S
C1918 C1912 1.383 . S
C1918 C1917 1.379 . S
H1919 C1913 0.959 . S
H1920 C1913 0.961 . S
H1921 C1913 0.960 . S
H1922 C1914 0.930 . S
H1923 C1915 0.929 . S
H1924 C1932 0.929 . S
H1925 C1934 0.930 . S
H1926 C1936 0.930 . S
H1927 C1939 0.929 . S
H1928 C1942 0.930 . S
H1929 C1944 0.960 . S
H1930 C1944 0.960 . S
H1931 C1944 0.960 . S
C1932 H1924 0.929 . S
C1932 C1933 1.377 . S
C1932 C1934 1.384 . S
C1933 C1932 1.377 . S
C1933 C1939 1.390 . S
C1934 H1925 0.930 . S
C1934 C1932 1.384 . S
C1934 C1935 1.372 . S
C1935 C1934 1.372 . S
C1935 C1936 1.400 . S
C1935 C1940 1.490 . S
C1936 H1926 0.930 . S
C1936 C1935 1.400 . S
C1936 C1939 1.386 . S
H1937 C1953 0.930 . S
H1938 C1954 0.931 . S
C1939 H1927 0.929 . S
C1939 C1933 1.390 . S
C1939 C1936 1.386 . S
C1940 C1935 1.490 . S
C1940 C1942 1.395 . S
C1940 C1943 1.403 . S
H1941 C1947 0.930 . S
C1942 H1928 0.930 . S
C1942 C1940 1.395 . S
C1942 C1945 1.403 . S
C1943 C1940 1.403 . S
C1943 C1944 1.524 . S
C1943 C1947 1.400 . S
C1944 H1929 0.960 . S
C1944 H1930 0.960 . S
C1944 H1931 0.960 . S
C1944 C1943 1.524 . S
C1945 C1942 1.403 . S
C1945 C1946 1.392 . S
C1945 C1949 1.495 . S
C1946 C1945 1.392 . S
C1946 C1947 1.385 . S
C1946 C1948 1.478 . S
C1947 H1941 0.930 . S
C1947 C1943 1.400 . S
C1947 C1946 1.385 . S
C1948 C1946 1.478 . S
C1948 C1950 1.381 . S
C1948 C1954 1.383 . S
C1949 C1945 1.495 . S
C1949 H1955 0.959 . S
C1949 H1956 0.961 . S
C1949 H1957 0.960 . S
C1950 C1948 1.381 . S
C1950 C1951 1.394 . S
C1950 H1958 0.930 . S
C1951 C1950 1.394 . S
C1951 C1952 1.383 . S
C1951 H1959 0.929 . S
C1952 C1951 1.383 . S
C1952 C1953 1.377 . S
C1953 H1937 0.930 . S
C1953 C1952 1.377 . S
C1953 C1954 1.379 . S
C1954 H1938 0.931 . S
C1954 C1948 1.383 . S
C1954 C1953 1.379 . S
H1955 C1949 0.959 . S
H1956 C1949 0.961 . S
H1957 C1949 0.960 . S
H1958 C1950 0.930 . S
H1959 C1951 0.929 . S
H1960 C1968 0.929 . S
H1961 C1970 0.930 . S
H1962 C1972 0.930 . S
H1963 C1975 0.929 . S
H1964 C1978 0.930 . S
H1965 C1980 0.960 . S
H1966 C1980 0.960 . S
H1967 C1980 0.960 . S
C1968 H1960 0.929 . S
C1968 C1969 1.377 . S
C1968 C1970 1.384 . S
C1969 C1968 1.377 . S
C1969 C1975 1.390 . S
C1970 H1961 0.930 . S
C1970 C1968 1.384 . S
C1970 C1971 1.372 . S
C1971 C1970 1.372 . S
C1971 C1972 1.400 . S
C1971 C1976 1.490 . S
C1972 H1962 0.930 . S
C1972 C1971 1.400 . S
C1972 C1975 1.386 . S
H1973 C1989 0.930 . S
H1974 C1990 0.931 . S
C1975 H1963 0.929 . S
C1975 C1969 1.390 . S
C1975 C1972 1.386 . S
C1976 C1971 1.490 . S
C1976 C1978 1.395 1_554 S
C1976 C1979 1.403 . S
H1977 C1983 0.930 . S
C1978 H1964 0.930 . S
C1978 C1976 1.395 1_556 S
C1978 C1981 1.403 . S
C1979 C1976 1.403 . S
C1979 C1980 1.524 . S
C1979 C1983 1.400 . S
C1980 H1965 0.960 . S
C1980 H1966 0.960 . S
C1980 H1967 0.960 . S
C1980 C1979 1.524 . S
C1981 C1978 1.403 . S
C1981 C1982 1.392 . S
C1981 C1985 1.495 . S
C1982 C1981 1.392 . S
C1982 C1983 1.385 1_556 S
C1982 C1984 1.478 . S
C1983 H1977 0.930 . S
C1983 C1979 1.400 . S
C1983 C1982 1.385 1_554 S
C1984 C1982 1.478 . S
C1984 C1986 1.381 . S
C1984 C1990 1.383 . S
C1985 C1981 1.495 . S
C1985 H1991 0.959 . S
C1985 H1992 0.961 . S
C1985 H1993 0.960 . S
C1986 C1984 1.381 . S
C1986 C1987 1.394 . S
C1986 H1994 0.930 . S
C1987 C1986 1.394 . S
C1987 C1988 1.383 . S
C1987 H1995 0.929 . S
C1988 C1987 1.383 . S
C1988 C1989 1.377 . S
C1989 H1973 0.930 . S
C1989 C1988 1.377 . S
C1989 C1990 1.379 . S
C1990 H1974 0.931 . S
C1990 C1984 1.383 . S
C1990 C1989 1.379 . S
H1991 C1985 0.959 . S
H1992 C1985 0.961 . S
H1993 C1985 0.960 . S
H1994 C1986 0.930 . S
H1995 C1987 0.929 . S
H1996 C2004 0.929 . S
H1997 C2006 0.930 . S
H1998 C2008 0.930 . S
H1999 C2011 0.929 . S
H2000 C2014 0.930 . S
H2001 C2016 0.960 . S
H2002 C2016 0.960 . S
H2003 C2016 0.960 . S
C2004 H1996 0.929 . S
C2004 C2005 1.377 . S
C2004 C2006 1.384 . S
C2005 C2004 1.377 . S
C2005 C2011 1.390 . S
C2006 H1997 0.930 . S
C2006 C2004 1.384 . S
C2006 C2007 1.372 . S
C2007 C2006 1.372 . S
C2007 C2008 1.400 . S
C2007 C2012 1.490 . S
C2008 H1998 0.930 . S
C2008 C2007 1.400 . S
C2008 C2011 1.386 . S
H2009 C2025 0.930 . S
H2010 C2026 0.931 . S
C2011 H1999 0.929 . S
C2011 C2005 1.390 . S
C2011 C2008 1.386 . S
C2012 C2007 1.490 . S
C2012 C2014 1.395 . S
C2012 C2015 1.403 . S
H2013 C2019 0.930 . S
C2014 H2000 0.930 . S
C2014 C2012 1.395 . S
C2014 C2017 1.403 . S
C2015 C2012 1.403 . S
C2015 C2016 1.524 . S
C2015 C2019 1.400 . S
C2016 H2001 0.960 . S
C2016 H2002 0.960 . S
C2016 H2003 0.960 . S
C2016 C2015 1.524 . S
C2017 C2014 1.403 . S
C2017 C2018 1.392 . S
C2017 C2021 1.495 . S
C2018 C2017 1.392 . S
C2018 C2019 1.385 . S
C2018 C2020 1.478 . S
C2019 H2013 0.930 . S
C2019 C2015 1.400 . S
C2019 C2018 1.385 . S
C2020 C2018 1.478 . S
C2020 C2022 1.381 . S
C2020 C2026 1.383 . S
C2021 C2017 1.495 . S
C2021 H2027 0.959 . S
C2021 H2028 0.961 . S
C2021 H2029 0.960 . S
C2022 C2020 1.381 . S
C2022 C2023 1.394 . S
C2022 H2030 0.930 . S
C2023 C2022 1.394 . S
C2023 C2024 1.383 . S
C2023 H2031 0.929 . S
C2024 C2023 1.383 . S
C2024 C2025 1.377 . S
C2025 H2009 0.930 . S
C2025 C2024 1.377 . S
C2025 C2026 1.379 . S
C2026 H2010 0.931 . S
C2026 C2020 1.383 . S
C2026 C2025 1.379 . S
H2027 C2021 0.959 . S
H2028 C2021 0.961 . S
H2029 C2021 0.960 . S
H2030 C2022 0.930 . S
H2031 C2023 0.929 . S
H2032 C2040 0.929 . S
H2033 C2042 0.930 . S
H2034 C2044 0.930 . S
H2035 C2047 0.929 . S
H2036 C2050 0.930 . S
H2037 C2052 0.960 . S
H2038 C2052 0.960 . S
H2039 C2052 0.960 . S
C2040 H2032 0.929 . S
C2040 C2041 1.377 . S
C2040 C2042 1.384 . S
C2041 C2040 1.377 . S
C2041 C2047 1.390 . S
C2042 H2033 0.930 . S
C2042 C2040 1.384 . S
C2042 C2043 1.372 . S
C2043 C2042 1.372 . S
C2043 C2044 1.400 . S
C2043 C2048 1.490 . S
C2044 H2034 0.930 . S
C2044 C2043 1.400 . S
C2044 C2047 1.386 . S
H2045 C2061 0.930 . S
H2046 C2062 0.931 . S
C2047 H2035 0.929 . S
C2047 C2041 1.390 . S
C2047 C2044 1.386 . S
C2048 C2043 1.490 . S
C2048 C2050 1.395 . S
C2048 C2051 1.403 . S
H2049 C2055 0.930 . S
C2050 H2036 0.930 . S
C2050 C2048 1.395 . S
C2050 C2053 1.403 . S
C2051 C2048 1.403 . S
C2051 C2052 1.524 . S
C2051 C2055 1.400 . S
C2052 H2037 0.960 . S
C2052 H2038 0.960 . S
C2052 H2039 0.960 . S
C2052 C2051 1.524 . S
C2053 C2050 1.403 . S
C2053 C2054 1.392 . S
C2053 C2057 1.495 . S
C2054 C2053 1.392 . S
C2054 C2055 1.385 . S
C2054 C2056 1.478 . S
C2055 H2049 0.930 . S
C2055 C2051 1.400 . S
C2055 C2054 1.385 . S
C2056 C2054 1.478 . S
C2056 C2058 1.381 . S
C2056 C2062 1.383 . S
C2057 C2053 1.495 . S
C2057 H2063 0.959 . S
C2057 H2064 0.961 . S
C2057 H2065 0.960 . S
C2058 C2056 1.381 . S
C2058 C2059 1.394 . S
C2058 H2066 0.930 . S
C2059 C2058 1.394 . S
C2059 C2060 1.383 . S
C2059 H2067 0.929 . S
C2060 C2059 1.383 . S
C2060 C2061 1.377 . S
C2061 H2045 0.930 . S
C2061 C2060 1.377 . S
C2061 C2062 1.379 . S
C2062 H2046 0.931 . S
C2062 C2056 1.383 . S
C2062 C2061 1.379 . S
H2063 C2057 0.959 . S
H2064 C2057 0.961 . S
H2065 C2057 0.960 . S
H2066 C2058 0.930 . S
H2067 C2059 0.929 . S
H2068 C2076 0.929 . S
H2069 C2078 0.930 . S
H2070 C2080 0.930 . S
H2071 C2083 0.929 . S
H2072 C2086 0.930 . S
H2073 C2088 0.960 . S
H2074 C2088 0.960 . S
H2075 C2088 0.960 . S
C2076 H2068 0.929 . S
C2076 C2077 1.377 . S
C2076 C2078 1.384 . S
C2077 C2076 1.377 . S
C2077 C2083 1.390 . S
C2078 H2069 0.930 . S
C2078 C2076 1.384 . S
C2078 C2079 1.372 . S
C2079 C2078 1.372 . S
C2079 C2080 1.400 . S
C2079 C2084 1.490 . S
C2080 H2070 0.930 . S
C2080 C2079 1.400 . S
C2080 C2083 1.386 . S
H2081 C2097 0.930 . S
H2082 C2098 0.931 . S
C2083 H2071 0.929 . S
C2083 C2077 1.390 . S
C2083 C2080 1.386 . S
C2084 C2079 1.490 . S
C2084 C2086 1.395 . S
C2084 C2087 1.403 . S
H2085 C2091 0.930 . S
C2086 H2072 0.930 . S
C2086 C2084 1.395 . S
C2086 C2089 1.403 . S
C2087 C2084 1.403 . S
C2087 C2088 1.524 . S
C2087 C2091 1.400 . S
C2088 H2073 0.960 . S
C2088 H2074 0.960 . S
C2088 H2075 0.960 . S
C2088 C2087 1.524 . S
C2089 C2086 1.403 . S
C2089 C2090 1.392 . S
C2089 C2093 1.495 . S
C2090 C2089 1.392 . S
C2090 C2091 1.385 . S
C2090 C2092 1.478 . S
C2091 H2085 0.930 . S
C2091 C2087 1.400 . S
C2091 C2090 1.385 . S
C2092 C2090 1.478 . S
C2092 C2094 1.381 . S
C2092 C2098 1.383 . S
C2093 C2089 1.495 . S
C2093 H2099 0.959 . S
C2093 H2100 0.961 . S
C2093 H2101 0.960 . S
C2094 C2092 1.381 . S
C2094 C2095 1.394 . S
C2094 H2102 0.930 . S
C2095 C2094 1.394 . S
C2095 C2096 1.383 . S
C2095 H2103 0.929 . S
C2096 C2095 1.383 . S
C2096 C2097 1.377 . S
C2097 H2081 0.930 . S
C2097 C2096 1.377 . S
C2097 C2098 1.379 . S
C2098 H2082 0.931 . S
C2098 C2092 1.383 . S
C2098 C2097 1.379 . S
H2099 C2093 0.959 . S
H2100 C2093 0.961 . S
H2101 C2093 0.960 . S
H2102 C2094 0.930 . S
H2103 C2095 0.929 . S
H2104 C2112 0.929 . S
H2105 C2114 0.930 . S
H2106 C2116 0.930 . S
H2107 C2119 0.929 . S
H2108 C2122 0.930 . S
H2109 C2124 0.960 . S
H2110 C2124 0.960 . S
H2111 C2124 0.960 . S
C2112 H2104 0.929 . S
C2112 C2113 1.377 . S
C2112 C2114 1.384 . S
C2113 C2112 1.377 . S
C2113 C2119 1.390 . S
C2114 H2105 0.930 . S
C2114 C2112 1.384 . S
C2114 C2115 1.372 . S
C2115 C2114 1.372 . S
C2115 C2116 1.400 . S
C2115 C2120 1.490 . S
C2116 H2106 0.930 . S
C2116 C2115 1.400 . S
C2116 C2119 1.386 . S
H2117 C2133 0.930 . S
H2118 C2134 0.931 . S
C2119 H2107 0.929 . S
C2119 C2113 1.390 . S
C2119 C2116 1.386 . S
C2120 C2115 1.490 . S
C2120 C2122 1.395 . S
C2120 C2123 1.403 1_556 S
H2121 C2127 0.930 . S
C2122 H2108 0.930 . S
C2122 C2120 1.395 . S
C2122 C2125 1.403 . S
C2123 C2120 1.403 1_554 S
C2123 C2124 1.524 . S
C2123 C2127 1.400 . S
C2124 H2109 0.960 . S
C2124 H2110 0.960 . S
C2124 H2111 0.960 . S
C2124 C2123 1.524 . S
C2125 C2122 1.403 . S
C2125 C2126 1.392 1_556 S
C2125 C2129 1.495 . S
C2126 C2125 1.392 1_554 S
C2126 C2127 1.385 . S
C2126 C2128 1.478 . S
C2127 H2121 0.930 . S
C2127 C2123 1.400 . S
C2127 C2126 1.385 . S
C2128 C2126 1.478 . S
C2128 C2130 1.381 . S
C2128 C2134 1.383 . S
C2129 C2125 1.495 . S
C2129 H2135 0.959 . S
C2129 H2136 0.961 . S
C2129 H2137 0.960 . S
C2130 C2128 1.381 . S
C2130 C2131 1.394 . S
C2130 H2138 0.930 . S
C2131 C2130 1.394 . S
C2131 C2132 1.383 . S
C2131 H2139 0.929 . S
C2132 C2131 1.383 . S
C2132 C2133 1.377 . S
C2133 H2117 0.930 . S
C2133 C2132 1.377 . S
C2133 C2134 1.379 . S
C2134 H2118 0.931 . S
C2134 C2128 1.383 . S
C2134 C2133 1.379 . S
H2135 C2129 0.959 . S
H2136 C2129 0.961 . S
H2137 C2129 0.960 . S
H2138 C2130 0.930 . S
H2139 C2131 0.929 . S
H2140 C2148 0.929 . S
H2141 C2150 0.930 . S
H2142 C2152 0.930 . S
H2143 C2155 0.929 . S
H2144 C2158 0.930 . S
H2145 C2160 0.960 . S
H2146 C2160 0.960 . S
H2147 C2160 0.960 . S
C2148 H2140 0.929 . S
C2148 C2149 1.377 . S
C2148 C2150 1.384 . S
C2149 C2148 1.377 . S
C2149 C2155 1.390 . S
C2150 H2141 0.930 . S
C2150 C2148 1.384 . S
C2150 C2151 1.372 . S
C2151 C2150 1.372 . S
C2151 C2152 1.400 . S
C2151 C2156 1.490 . S
C2152 H2142 0.930 . S
C2152 C2151 1.400 . S
C2152 C2155 1.386 . S
H2153 C2169 0.930 . S
H2154 C2170 0.931 . S
C2155 H2143 0.929 . S
C2155 C2149 1.390 . S
C2155 C2152 1.386 . S
C2156 C2151 1.490 . S
C2156 C2158 1.395 . S
C2156 C2159 1.403 . S
H2157 C2163 0.930 . S
C2158 H2144 0.930 . S
C2158 C2156 1.395 . S
C2158 C2161 1.403 . S
C2159 C2156 1.403 . S
C2159 C2160 1.524 . S
C2159 C2163 1.400 . S
C2160 H2145 0.960 . S
C2160 H2146 0.960 . S
C2160 H2147 0.960 . S
C2160 C2159 1.524 . S
C2161 C2158 1.403 . S
C2161 C2162 1.392 . S
C2161 C2165 1.495 . S
C2162 C2161 1.392 . S
C2162 C2163 1.385 . S
C2162 C2164 1.478 . S
C2163 H2157 0.930 . S
C2163 C2159 1.400 . S
C2163 C2162 1.385 . S
C2164 C2162 1.478 . S
C2164 C2166 1.381 . S
C2164 C2170 1.383 . S
C2165 C2161 1.495 . S
C2165 H2171 0.959 . S
C2165 H2172 0.961 . S
C2165 H2173 0.960 . S
C2166 C2164 1.381 . S
C2166 C2167 1.394 . S
C2166 H2174 0.930 . S
C2167 C2166 1.394 . S
C2167 C2168 1.383 . S
C2167 H2175 0.929 . S
C2168 C2167 1.383 . S
C2168 C2169 1.377 . S
C2169 H2153 0.930 . S
C2169 C2168 1.377 . S
C2169 C2170 1.379 . S
C2170 H2154 0.931 . S
C2170 C2164 1.383 . S
C2170 C2169 1.379 . S
H2171 C2165 0.959 . S
H2172 C2165 0.961 . S
H2173 C2165 0.960 . S
H2174 C2166 0.930 . S
H2175 C2167 0.929 . S
H2176 C2184 0.929 . S
H2177 C2186 0.930 . S
H2178 C2188 0.930 . S
H2179 C2191 0.929 . S
H2180 C2194 0.930 . S
H2181 C2196 0.960 . S
H2182 C2196 0.960 . S
H2183 C2196 0.960 . S
C2184 H2176 0.929 . S
C2184 C2185 1.377 . S
C2184 C2186 1.384 . S
C2185 C2184 1.377 . S
C2185 C2191 1.390 . S
C2186 H2177 0.930 . S
C2186 C2184 1.384 . S
C2186 C2187 1.372 . S
C2187 C2186 1.372 . S
C2187 C2188 1.400 . S
C2187 C2192 1.490 . S
C2188 H2178 0.930 . S
C2188 C2187 1.400 . S
C2188 C2191 1.386 . S
H2189 C2205 0.930 . S
H2190 C2206 0.931 . S
C2191 H2179 0.929 . S
C2191 C2185 1.390 . S
C2191 C2188 1.386 . S
C2192 C2187 1.490 . S
C2192 C2194 1.395 . S
C2192 C2195 1.403 . S
H2193 C2199 0.930 . S
C2194 H2180 0.930 . S
C2194 C2192 1.395 . S
C2194 C2197 1.403 . S
C2195 C2192 1.403 . S
C2195 C2196 1.524 . S
C2195 C2199 1.400 . S
C2196 H2181 0.960 . S
C2196 H2182 0.960 . S
C2196 H2183 0.960 . S
C2196 C2195 1.524 . S
C2197 C2194 1.403 . S
C2197 C2198 1.392 . S
C2197 C2201 1.495 . S
C2198 C2197 1.392 . S
C2198 C2199 1.385 . S
C2198 C2200 1.478 . S
C2199 H2193 0.930 . S
C2199 C2195 1.400 . S
C2199 C2198 1.385 . S
C2200 C2198 1.478 . S
C2200 C2202 1.381 . S
C2200 C2206 1.383 . S
C2201 C2197 1.495 . S
C2201 H2207 0.959 . S
C2201 H2208 0.961 . S
C2201 H2209 0.960 . S
C2202 C2200 1.381 . S
C2202 C2203 1.394 . S
C2202 H2210 0.930 . S
C2203 C2202 1.394 . S
C2203 C2204 1.383 . S
C2203 H2211 0.929 . S
C2204 C2203 1.383 . S
C2204 C2205 1.377 . S
C2205 H2189 0.930 . S
C2205 C2204 1.377 . S
C2205 C2206 1.379 . S
C2206 H2190 0.931 . S
C2206 C2200 1.383 . S
C2206 C2205 1.379 . S
H2207 C2201 0.959 . S
H2208 C2201 0.961 . S
H2209 C2201 0.960 . S
H2210 C2202 0.930 . S
H2211 C2203 0.929 . S
H2212 C2220 0.929 . S
H2213 C2222 0.930 . S
H2214 C2224 0.930 . S
H2215 C2227 0.929 . S
H2216 C2230 0.930 . S
H2217 C2232 0.960 . S
H2218 C2232 0.960 . S
H2219 C2232 0.960 . S
C2220 H2212 0.929 . S
C2220 C2221 1.377 . S
C2220 C2222 1.384 . S
C2221 C2220 1.377 . S
C2221 C2227 1.390 . S
C2222 H2213 0.930 . S
C2222 C2220 1.384 . S
C2222 C2223 1.372 . S
C2223 C2222 1.372 . S
C2223 C2224 1.400 . S
C2223 C2228 1.490 . S
C2224 H2214 0.930 . S
C2224 C2223 1.400 . S
C2224 C2227 1.386 . S
H2225 C2241 0.930 . S
H2226 C2242 0.931 . S
C2227 H2215 0.929 . S
C2227 C2221 1.390 . S
C2227 C2224 1.386 . S
C2228 C2223 1.490 . S
C2228 C2230 1.395 . S
C2228 C2231 1.403 . S
H2229 C2235 0.930 . S
C2230 H2216 0.930 . S
C2230 C2228 1.395 . S
C2230 C2233 1.403 . S
C2231 C2228 1.403 . S
C2231 C2232 1.524 . S
C2231 C2235 1.400 . S
C2232 H2217 0.960 . S
C2232 H2218 0.960 . S
C2232 H2219 0.960 . S
C2232 C2231 1.524 . S
C2233 C2230 1.403 . S
C2233 C2234 1.392 . S
C2233 C2237 1.495 . S
C2234 C2233 1.392 . S
C2234 C2235 1.385 . S
C2234 C2236 1.478 . S
C2235 H2229 0.930 . S
C2235 C2231 1.400 . S
C2235 C2234 1.385 . S
C2236 C2234 1.478 . S
C2236 C2238 1.381 . S
C2236 C2242 1.383 . S
C2237 C2233 1.495 . S
C2237 H2243 0.959 . S
C2237 H2244 0.961 . S
C2237 H2245 0.960 . S
C2238 C2236 1.381 . S
C2238 C2239 1.394 . S
C2238 H2246 0.930 . S
C2239 C2238 1.394 . S
C2239 C2240 1.383 . S
C2239 H2247 0.929 . S
C2240 C2239 1.383 . S
C2240 C2241 1.377 . S
C2241 H2225 0.930 . S
C2241 C2240 1.377 . S
C2241 C2242 1.379 . S
C2242 H2226 0.931 . S
C2242 C2236 1.383 . S
C2242 C2241 1.379 . S
H2243 C2237 0.959 . S
H2244 C2237 0.961 . S
H2245 C2237 0.960 . S
H2246 C2238 0.930 . S
H2247 C2239 0.929 . S
H2248 C2256 0.929 . S
H2249 C2258 0.930 . S
H2250 C2260 0.930 . S
H2251 C2263 0.929 . S
H2252 C2266 0.930 . S
H2253 C2268 0.960 . S
H2254 C2268 0.960 . S
H2255 C2268 0.960 . S
C2256 H2248 0.929 . S
C2256 C2257 1.377 . S
C2256 C2258 1.384 . S
C2257 C2256 1.377 . S
C2257 C2263 1.390 . S
C2258 H2249 0.930 . S
C2258 C2256 1.384 . S
C2258 C2259 1.372 . S
C2259 C2258 1.372 . S
C2259 C2260 1.400 . S
C2259 C2264 1.490 . S
C2260 H2250 0.930 . S
C2260 C2259 1.400 . S
C2260 C2263 1.386 . S
H2261 C2277 0.930 . S
H2262 C2278 0.931 . S
C2263 H2251 0.929 . S
C2263 C2257 1.390 . S
C2263 C2260 1.386 . S
C2264 C2259 1.490 . S
C2264 C2266 1.395 . S
C2264 C2267 1.403 . S
H2265 C2271 0.930 . S
C2266 H2252 0.930 . S
C2266 C2264 1.395 . S
C2266 C2269 1.403 . S
C2267 C2264 1.403 . S
C2267 C2268 1.524 . S
C2267 C2271 1.400 . S
C2268 H2253 0.960 . S
C2268 H2254 0.960 . S
C2268 H2255 0.960 . S
C2268 C2267 1.524 . S
C2269 C2266 1.403 . S
C2269 C2270 1.392 . S
C2269 C2273 1.495 . S
C2270 C2269 1.392 . S
C2270 C2271 1.385 . S
C2270 C2272 1.478 . S
C2271 H2265 0.930 . S
C2271 C2267 1.400 . S
C2271 C2270 1.385 . S
C2272 C2270 1.478 . S
C2272 C2274 1.381 . S
C2272 C2278 1.383 . S
C2273 C2269 1.495 . S
C2273 H2279 0.959 . S
C2273 H2280 0.961 . S
C2273 H2281 0.960 . S
C2274 C2272 1.381 . S
C2274 C2275 1.394 . S
C2274 H2282 0.930 . S
C2275 C2274 1.394 . S
C2275 C2276 1.383 . S
C2275 H2283 0.929 . S
C2276 C2275 1.383 . S
C2276 C2277 1.377 . S
C2277 H2261 0.930 . S
C2277 C2276 1.377 . S
C2277 C2278 1.379 . S
C2278 H2262 0.931 . S
C2278 C2272 1.383 . S
C2278 C2277 1.379 . S
H2279 C2273 0.959 . S
H2280 C2273 0.961 . S
H2281 C2273 0.960 . S
H2282 C2274 0.930 . S
H2283 C2275 0.929 . S
H2284 C2292 0.929 . S
H2285 C2294 0.930 . S
H2286 C2296 0.930 . S
H2287 C2299 0.929 . S
H2288 C2302 0.930 . S
H2289 C2304 0.960 . S
H2290 C2304 0.960 . S
H2291 C2304 0.960 . S
C2292 H2284 0.929 . S
C2292 C2293 1.377 . S
C2292 C2294 1.384 . S
C2293 C2292 1.377 . S
C2293 C2299 1.390 . S
C2294 H2285 0.930 . S
C2294 C2292 1.384 . S
C2294 C2295 1.372 . S
C2295 C2294 1.372 . S
C2295 C2296 1.400 . S
C2295 C2300 1.490 . S
C2296 H2286 0.930 . S
C2296 C2295 1.400 . S
C2296 C2299 1.386 . S
H2297 C2313 0.930 . S
H2298 C2314 0.931 . S
C2299 H2287 0.929 . S
C2299 C2293 1.390 . S
C2299 C2296 1.386 . S
C2300 C2295 1.490 . S
C2300 C2302 1.395 . S
C2300 C2303 1.403 . S
H2301 C2307 0.930 . S
C2302 H2288 0.930 . S
C2302 C2300 1.395 . S
C2302 C2305 1.403 . S
C2303 C2300 1.403 . S
C2303 C2304 1.524 . S
C2303 C2307 1.400 . S
C2304 H2289 0.960 . S
C2304 H2290 0.960 . S
C2304 H2291 0.960 . S
C2304 C2303 1.524 . S
C2305 C2302 1.403 . S
C2305 C2306 1.392 . S
C2305 C2309 1.495 . S
C2306 C2305 1.392 . S
C2306 C2307 1.385 . S
C2306 C2308 1.478 . S
C2307 H2301 0.930 . S
C2307 C2303 1.400 . S
C2307 C2306 1.385 . S
C2308 C2306 1.478 . S
C2308 C2310 1.381 . S
C2308 C2314 1.383 . S
C2309 C2305 1.495 . S
C2309 H2315 0.959 . S
C2309 H2316 0.961 . S
C2309 H2317 0.960 . S
C2310 C2308 1.381 . S
C2310 C2311 1.394 . S
C2310 H2318 0.930 . S
C2311 C2310 1.394 . S
C2311 C2312 1.383 . S
C2311 H2319 0.929 . S
C2312 C2311 1.383 . S
C2312 C2313 1.377 . S
C2313 H2297 0.930 . S
C2313 C2312 1.377 . S
C2313 C2314 1.379 . S
C2314 H2298 0.931 . S
C2314 C2308 1.383 . S
C2314 C2313 1.379 . S
H2315 C2309 0.959 . S
H2316 C2309 0.961 . S
H2317 C2309 0.960 . S
H2318 C2310 0.930 . S
H2319 C2311 0.929 . S
H2320 C2328 0.929 . S
H2321 C2330 0.930 . S
H2322 C2332 0.930 . S
H2323 C2335 0.929 . S
H2324 C2338 0.930 . S
H2325 C2340 0.960 . S
H2326 C2340 0.960 . S
H2327 C2340 0.960 . S
C2328 H2320 0.929 . S
C2328 C2329 1.377 . S
C2328 C2330 1.384 . S
C2329 C2328 1.377 . S
C2329 C2335 1.390 . S
C2330 H2321 0.930 . S
C2330 C2328 1.384 . S
C2330 C2331 1.372 . S
C2331 C2330 1.372 . S
C2331 C2332 1.400 . S
C2331 C2336 1.490 . S
C2332 H2322 0.930 . S
C2332 C2331 1.400 . S
C2332 C2335 1.386 . S
H2333 C2349 0.930 . S
H2334 C2350 0.931 . S
C2335 H2323 0.929 . S
C2335 C2329 1.390 . S
C2335 C2332 1.386 . S
C2336 C2331 1.490 . S
C2336 C2338 1.395 . S
C2336 C2339 1.403 . S
H2337 C2343 0.930 . S
C2338 H2324 0.930 . S
C2338 C2336 1.395 . S
C2338 C2341 1.403 . S
C2339 C2336 1.403 . S
C2339 C2340 1.524 . S
C2339 C2343 1.400 . S
C2340 H2325 0.960 . S
C2340 H2326 0.960 . S
C2340 H2327 0.960 . S
C2340 C2339 1.524 . S
C2341 C2338 1.403 . S
C2341 C2342 1.392 . S
C2341 C2345 1.495 . S
C2342 C2341 1.392 . S
C2342 C2343 1.385 . S
C2342 C2344 1.478 . S
C2343 H2337 0.930 . S
C2343 C2339 1.400 . S
C2343 C2342 1.385 . S
C2344 C2342 1.478 . S
C2344 C2346 1.381 . S
C2344 C2350 1.383 . S
C2345 C2341 1.495 . S
C2345 H2351 0.959 . S
C2345 H2352 0.961 . S
C2345 H2353 0.960 . S
C2346 C2344 1.381 . S
C2346 C2347 1.394 . S
C2346 H2354 0.930 . S
C2347 C2346 1.394 . S
C2347 C2348 1.383 . S
C2347 H2355 0.929 . S
C2348 C2347 1.383 . S
C2348 C2349 1.377 . S
C2349 H2333 0.930 . S
C2349 C2348 1.377 . S
C2349 C2350 1.379 . S
C2350 H2334 0.931 . S
C2350 C2344 1.383 . S
C2350 C2349 1.379 . S
H2351 C2345 0.959 . S
H2352 C2345 0.961 . S
H2353 C2345 0.960 . S
H2354 C2346 0.930 . S
H2355 C2347 0.929 . S
H2356 C2364 0.929 . S
H2357 C2366 0.930 . S
H2358 C2368 0.930 . S
H2359 C2371 0.929 . S
H2360 C2374 0.930 . S
H2361 C2376 0.960 . S
H2362 C2376 0.960 . S
H2363 C2376 0.960 . S
C2364 H2356 0.929 . S
C2364 C2365 1.377 . S
C2364 C2366 1.384 . S
C2365 C2364 1.377 . S
C2365 C2371 1.390 . S
C2366 H2357 0.930 . S
C2366 C2364 1.384 . S
C2366 C2367 1.372 . S
C2367 C2366 1.372 . S
C2367 C2368 1.400 . S
C2367 C2372 1.490 . S
C2368 H2358 0.930 . S
C2368 C2367 1.400 . S
C2368 C2371 1.386 . S
H2369 C2385 0.930 . S
H2370 C2386 0.931 . S
C2371 H2359 0.929 . S
C2371 C2365 1.390 . S
C2371 C2368 1.386 . S
C2372 C2367 1.490 . S
C2372 C2374 1.395 . S
C2372 C2375 1.403 . S
H2373 C2379 0.930 . S
C2374 H2360 0.930 . S
C2374 C2372 1.395 . S
C2374 C2377 1.403 . S
C2375 C2372 1.403 . S
C2375 C2376 1.524 . S
C2375 C2379 1.400 . S
C2376 H2361 0.960 . S
C2376 H2362 0.960 . S
C2376 H2363 0.960 . S
C2376 C2375 1.524 . S
C2377 C2374 1.403 . S
C2377 C2378 1.392 . S
C2377 C2381 1.495 . S
C2378 C2377 1.392 . S
C2378 C2379 1.385 . S
C2378 C2380 1.478 . S
C2379 H2373 0.930 . S
C2379 C2375 1.400 . S
C2379 C2378 1.385 . S
C2380 C2378 1.478 . S
C2380 C2382 1.381 . S
C2380 C2386 1.383 . S
C2381 C2377 1.495 . S
C2381 H2387 0.959 . S
C2381 H2388 0.961 . S
C2381 H2389 0.960 . S
C2382 C2380 1.381 . S
C2382 C2383 1.394 . S
C2382 H2390 0.930 . S
C2383 C2382 1.394 . S
C2383 C2384 1.383 . S
C2383 H2391 0.929 . S
C2384 C2383 1.383 . S
C2384 C2385 1.377 . S
C2385 H2369 0.930 . S
C2385 C2384 1.377 . S
C2385 C2386 1.379 . S
C2386 H2370 0.931 . S
C2386 C2380 1.383 . S
C2386 C2385 1.379 . S
H2387 C2381 0.959 . S
H2388 C2381 0.961 . S
H2389 C2381 0.960 . S
H2390 C2382 0.930 . S
H2391 C2383 0.929 . S
H2392 C2400 0.929 . S
H2393 C2402 0.930 . S
H2394 C2404 0.930 . S
H2395 C2407 0.929 . S
H2396 C2410 0.930 . S
H2397 C2412 0.960 . S
H2398 C2412 0.960 . S
H2399 C2412 0.960 . S
C2400 H2392 0.929 . S
C2400 C2401 1.377 . S
C2400 C2402 1.384 . S
C2401 C2400 1.377 . S
C2401 C2407 1.390 . S
C2402 H2393 0.930 . S
C2402 C2400 1.384 . S
C2402 C2403 1.372 . S
C2403 C2402 1.372 . S
C2403 C2404 1.400 . S
C2403 C2408 1.490 . S
C2404 H2394 0.930 . S
C2404 C2403 1.400 . S
C2404 C2407 1.386 . S
H2405 C2421 0.930 . S
H2406 C2422 0.931 . S
C2407 H2395 0.929 . S
C2407 C2401 1.390 . S
C2407 C2404 1.386 . S
C2408 C2403 1.490 . S
C2408 C2410 1.395 . S
C2408 C2411 1.403 . S
H2409 C2415 0.930 . S
C2410 H2396 0.930 . S
C2410 C2408 1.395 . S
C2410 C2413 1.403 . S
C2411 C2408 1.403 . S
C2411 C2412 1.524 . S
C2411 C2415 1.400 . S
C2412 H2397 0.960 . S
C2412 H2398 0.960 . S
C2412 H2399 0.960 . S
C2412 C2411 1.524 . S
C2413 C2410 1.403 . S
C2413 C2414 1.392 . S
C2413 C2417 1.495 . S
C2414 C2413 1.392 . S
C2414 C2415 1.385 . S
C2414 C2416 1.478 . S
C2415 H2409 0.930 . S
C2415 C2411 1.400 . S
C2415 C2414 1.385 . S
C2416 C2414 1.478 . S
C2416 C2418 1.381 . S
C2416 C2422 1.383 . S
C2417 C2413 1.495 . S
C2417 H2423 0.959 . S
C2417 H2424 0.961 . S
C2417 H2425 0.960 . S
C2418 C2416 1.381 . S
C2418 C2419 1.394 . S
C2418 H2426 0.930 . S
C2419 C2418 1.394 . S
C2419 C2420 1.383 . S
C2419 H2427 0.929 . S
C2420 C2419 1.383 . S
C2420 C2421 1.377 . S
C2421 H2405 0.930 . S
C2421 C2420 1.377 . S
C2421 C2422 1.379 . S
C2422 H2406 0.931 . S
C2422 C2416 1.383 . S
C2422 C2421 1.379 . S
H2423 C2417 0.959 . S
H2424 C2417 0.961 . S
H2425 C2417 0.960 . S
H2426 C2418 0.930 . S
H2427 C2419 0.929 . S
H2428 C2436 0.929 . S
H2429 C2438 0.930 . S
H2430 C2440 0.930 . S
H2431 C2443 0.929 . S
H2432 C2446 0.930 . S
H2433 C2448 0.960 . S
H2434 C2448 0.960 . S
H2435 C2448 0.960 . S
C2436 H2428 0.929 . S
C2436 C2437 1.377 . S
C2436 C2438 1.384 . S
C2437 C2436 1.377 . S
C2437 C2443 1.390 . S
C2438 H2429 0.930 . S
C2438 C2436 1.384 . S
C2438 C2439 1.372 . S
C2439 C2438 1.372 . S
C2439 C2440 1.400 . S
C2439 C2444 1.490 . S
C2440 H2430 0.930 . S
C2440 C2439 1.400 . S
C2440 C2443 1.386 . S
H2441 C2457 0.930 . S
H2442 C2458 0.931 . S
C2443 H2431 0.929 . S
C2443 C2437 1.390 . S
C2443 C2440 1.386 . S
C2444 C2439 1.490 . S
C2444 C2446 1.395 . S
C2444 C2447 1.403 . S
H2445 C2451 0.930 . S
C2446 H2432 0.930 . S
C2446 C2444 1.395 . S
C2446 C2449 1.403 . S
C2447 C2444 1.403 . S
C2447 C2448 1.524 . S
C2447 C2451 1.400 . S
C2448 H2433 0.960 . S
C2448 H2434 0.960 . S
C2448 H2435 0.960 . S
C2448 C2447 1.524 . S
C2449 C2446 1.403 . S
C2449 C2450 1.392 . S
C2449 C2453 1.495 . S
C2450 C2449 1.392 . S
C2450 C2451 1.385 . S
C2450 C2452 1.478 . S
C2451 H2445 0.930 . S
C2451 C2447 1.400 . S
C2451 C2450 1.385 . S
C2452 C2450 1.478 . S
C2452 C2454 1.381 . S
C2452 C2458 1.383 . S
C2453 C2449 1.495 . S
C2453 H2459 0.959 . S
C2453 H2460 0.961 . S
C2453 H2461 0.960 . S
C2454 C2452 1.381 . S
C2454 C2455 1.394 . S
C2454 H2462 0.930 . S
C2455 C2454 1.394 . S
C2455 C2456 1.383 . S
C2455 H2463 0.929 . S
C2456 C2455 1.383 . S
C2456 C2457 1.377 . S
C2457 H2441 0.930 . S
C2457 C2456 1.377 . S
C2457 C2458 1.379 . S
C2458 H2442 0.931 . S
C2458 C2452 1.383 . S
C2458 C2457 1.379 . S
H2459 C2453 0.959 . S
H2460 C2453 0.961 . S
H2461 C2453 0.960 . S
H2462 C2454 0.930 . S
H2463 C2455 0.929 . S
H2464 C2472 0.929 . S
H2465 C2474 0.930 . S
H2466 C2476 0.930 . S
H2467 C2479 0.929 . S
H2468 C2482 0.930 . S
H2469 C2484 0.960 . S
H2470 C2484 0.960 . S
H2471 C2484 0.960 . S
C2472 H2464 0.929 . S
C2472 C2473 1.377 . S
C2472 C2474 1.384 . S
C2473 C2472 1.377 . S
C2473 C2479 1.390 . S
C2474 H2465 0.930 . S
C2474 C2472 1.384 . S
C2474 C2475 1.372 . S
C2475 C2474 1.372 . S
C2475 C2476 1.400 . S
C2475 C2480 1.490 . S
C2476 H2466 0.930 . S
C2476 C2475 1.400 . S
C2476 C2479 1.386 . S
H2477 C2493 0.930 . S
H2478 C2494 0.931 . S
C2479 H2467 0.929 . S
C2479 C2473 1.390 . S
C2479 C2476 1.386 . S
C2480 C2475 1.490 . S
C2480 C2482 1.395 . S
C2480 C2483 1.403 . S
H2481 C2487 0.930 . S
C2482 H2468 0.930 . S
C2482 C2480 1.395 . S
C2482 C2485 1.403 . S
C2483 C2480 1.403 . S
C2483 C2484 1.524 . S
C2483 C2487 1.400 . S
C2484 H2469 0.960 . S
C2484 H2470 0.960 . S
C2484 H2471 0.960 . S
C2484 C2483 1.524 . S
C2485 C2482 1.403 . S
C2485 C2486 1.392 . S
C2485 C2489 1.495 . S
C2486 C2485 1.392 . S
C2486 C2487 1.385 . S
C2486 C2488 1.478 . S
C2487 H2481 0.930 . S
C2487 C2483 1.400 . S
C2487 C2486 1.385 . S
C2488 C2486 1.478 . S
C2488 C2490 1.381 . S
C2488 C2494 1.383 . S
C2489 C2485 1.495 . S
C2489 H2495 0.959 . S
C2489 H2496 0.961 . S
C2489 H2497 0.960 . S
C2490 C2488 1.381 . S
C2490 C2491 1.394 . S
C2490 H2498 0.930 . S
C2491 C2490 1.394 . S
C2491 C2492 1.383 . S
C2491 H2499 0.929 . S
C2492 C2491 1.383 . S
C2492 C2493 1.377 . S
C2493 H2477 0.930 . S
C2493 C2492 1.377 . S
C2493 C2494 1.379 . S
C2494 H2478 0.931 . S
C2494 C2488 1.383 . S
C2494 C2493 1.379 . S
H2495 C2489 0.959 . S
H2496 C2489 0.961 . S
H2497 C2489 0.960 . S
H2498 C2490 0.930 . S
H2499 C2491 0.929 . S
H2500 C2508 0.929 . S
H2501 C2510 0.930 . S
H2502 C2512 0.930 . S
H2503 C2515 0.929 . S
H2504 C2518 0.930 . S
H2505 C2520 0.960 . S
H2506 C2520 0.960 . S
H2507 C2520 0.960 . S
C2508 H2500 0.929 . S
C2508 C2509 1.377 . S
C2508 C2510 1.384 . S
C2509 C2508 1.377 . S
C2509 C2515 1.390 . S
C2510 H2501 0.930 . S
C2510 C2508 1.384 . S
C2510 C2511 1.372 . S
C2511 C2510 1.372 . S
C2511 C2512 1.400 . S
C2511 C2516 1.490 . S
C2512 H2502 0.930 . S
C2512 C2511 1.400 . S
C2512 C2515 1.386 . S
H2513 C2529 0.930 . S
H2514 C2530 0.931 . S
C2515 H2503 0.929 . S
C2515 C2509 1.390 . S
C2515 C2512 1.386 . S
C2516 C2511 1.490 . S
C2516 C2518 1.395 . S
C2516 C2519 1.403 . S
H2517 C2523 0.930 . S
C2518 H2504 0.930 . S
C2518 C2516 1.395 . S
C2518 C2521 1.403 . S
C2519 C2516 1.403 . S
C2519 C2520 1.524 . S
C2519 C2523 1.400 . S
C2520 H2505 0.960 . S
C2520 H2506 0.960 . S
C2520 H2507 0.960 . S
C2520 C2519 1.524 . S
C2521 C2518 1.403 . S
C2521 C2522 1.392 . S
C2521 C2525 1.495 . S
C2522 C2521 1.392 . S
C2522 C2523 1.385 . S
C2522 C2524 1.478 . S
C2523 H2517 0.930 . S
C2523 C2519 1.400 . S
C2523 C2522 1.385 . S
C2524 C2522 1.478 . S
C2524 C2526 1.381 . S
C2524 C2530 1.383 . S
C2525 C2521 1.495 . S
C2525 H2531 0.959 . S
C2525 H2532 0.961 . S
C2525 H2533 0.960 . S
C2526 C2524 1.381 . S
C2526 C2527 1.394 . S
C2526 H2534 0.930 . S
C2527 C2526 1.394 . S
C2527 C2528 1.383 . S
C2527 H2535 0.929 . S
C2528 C2527 1.383 . S
C2528 C2529 1.377 . S
C2529 H2513 0.930 . S
C2529 C2528 1.377 . S
C2529 C2530 1.379 . S
C2530 H2514 0.931 . S
C2530 C2524 1.383 . S
C2530 C2529 1.379 . S
H2531 C2525 0.959 . S
H2532 C2525 0.961 . S
H2533 C2525 0.960 . S
H2534 C2526 0.930 . S
H2535 C2527 0.929 . S
H2536 C2544 0.929 . S
H2537 C2546 0.930 . S
H2538 C2548 0.930 . S
H2539 C2551 0.929 . S
H2540 C2554 0.930 . S
H2541 C2556 0.960 . S
H2542 C2556 0.960 . S
H2543 C2556 0.960 . S
C2544 H2536 0.929 . S
C2544 C2545 1.377 . S
C2544 C2546 1.384 . S
C2545 C2544 1.377 . S
C2545 C2551 1.390 . S
C2546 H2537 0.930 . S
C2546 C2544 1.384 . S
C2546 C2547 1.372 . S
C2547 C2546 1.372 . S
C2547 C2548 1.400 . S
C2547 C2552 1.490 . S
C2548 H2538 0.930 . S
C2548 C2547 1.400 . S
C2548 C2551 1.386 . S
H2549 C2565 0.930 . S
H2550 C2566 0.931 . S
C2551 H2539 0.929 . S
C2551 C2545 1.390 . S
C2551 C2548 1.386 . S
C2552 C2547 1.490 . S
C2552 C2554 1.395 . S
C2552 C2555 1.403 . S
H2553 C2559 0.930 . S
C2554 H2540 0.930 . S
C2554 C2552 1.395 . S
C2554 C2557 1.403 . S
C2555 C2552 1.403 . S
C2555 C2556 1.524 . S
C2555 C2559 1.400 . S
C2556 H2541 0.960 . S
C2556 H2542 0.960 . S
C2556 H2543 0.960 . S
C2556 C2555 1.524 . S
C2557 C2554 1.403 . S
C2557 C2558 1.392 . S
C2557 C2561 1.495 . S
C2558 C2557 1.392 . S
C2558 C2559 1.385 . S
C2558 C2560 1.478 . S
C2559 H2553 0.930 . S
C2559 C2555 1.400 . S
C2559 C2558 1.385 . S
C2560 C2558 1.478 . S
C2560 C2562 1.381 . S
C2560 C2566 1.383 . S
C2561 C2557 1.495 . S
C2561 H2567 0.959 . S
C2561 H2568 0.961 . S
C2561 H2569 0.960 . S
C2562 C2560 1.381 . S
C2562 C2563 1.394 . S
C2562 H2570 0.930 . S
C2563 C2562 1.394 . S
C2563 C2564 1.383 . S
C2563 H2571 0.929 . S
C2564 C2563 1.383 . S
C2564 C2565 1.377 . S
C2565 H2549 0.930 . S
C2565 C2564 1.377 . S
C2565 C2566 1.379 . S
C2566 H2550 0.931 . S
C2566 C2560 1.383 . S
C2566 C2565 1.379 . S
H2567 C2561 0.959 . S
H2568 C2561 0.961 . S
H2569 C2561 0.960 . S
H2570 C2562 0.930 . S
H2571 C2563 0.929 . S
H2572 C2580 0.929 . S
H2573 C2582 0.930 . S
H2574 C2584 0.930 . S
H2575 C2587 0.929 . S
H2576 C2590 0.930 . S
H2577 C2592 0.960 . S
H2578 C2592 0.960 . S
H2579 C2592 0.960 . S
C2580 H2572 0.929 . S
C2580 C2581 1.377 . S
C2580 C2582 1.384 . S
C2581 C2580 1.377 . S
C2581 C2587 1.390 . S
C2582 H2573 0.930 . S
C2582 C2580 1.384 . S
C2582 C2583 1.372 . S
C2583 C2582 1.372 . S
C2583 C2584 1.400 . S
C2583 C2588 1.490 . S
C2584 H2574 0.930 . S
C2584 C2583 1.400 . S
C2584 C2587 1.386 . S
H2585 C2601 0.930 . S
H2586 C2602 0.931 . S
C2587 H2575 0.929 . S
C2587 C2581 1.390 . S
C2587 C2584 1.386 . S
C2588 C2583 1.490 . S
C2588 C2590 1.395 . S
C2588 C2591 1.403 . S
H2589 C2595 0.930 . S
C2590 H2576 0.930 . S
C2590 C2588 1.395 . S
C2590 C2593 1.403 . S
C2591 C2588 1.403 . S
C2591 C2592 1.524 . S
C2591 C2595 1.400 . S
C2592 H2577 0.960 . S
C2592 H2578 0.960 . S
C2592 H2579 0.960 . S
C2592 C2591 1.524 . S
C2593 C2590 1.403 . S
C2593 C2594 1.392 . S
C2593 C2597 1.495 . S
C2594 C2593 1.392 . S
C2594 C2595 1.385 . S
C2594 C2596 1.478 . S
C2595 H2589 0.930 . S
C2595 C2591 1.400 . S
C2595 C2594 1.385 . S
C2596 C2594 1.478 . S
C2596 C2598 1.381 . S
C2596 C2602 1.383 . S
C2597 C2593 1.495 . S
C2597 H2603 0.959 . S
C2597 H2604 0.961 . S
C2597 H2605 0.960 . S
C2598 C2596 1.381 . S
C2598 C2599 1.394 . S
C2598 H2606 0.930 . S
C2599 C2598 1.394 . S
C2599 C2600 1.383 . S
C2599 H2607 0.929 . S
C2600 C2599 1.383 . S
C2600 C2601 1.377 . S
C2601 H2585 0.930 . S
C2601 C2600 1.377 . S
C2601 C2602 1.379 . S
C2602 H2586 0.931 . S
C2602 C2596 1.383 . S
C2602 C2601 1.379 . S
H2603 C2597 0.959 . S
H2604 C2597 0.961 . S
H2605 C2597 0.960 . S
H2606 C2598 0.930 . S
H2607 C2599 0.929 . S
H2608 C2616 0.929 . S
H2609 C2618 0.930 . S
H2610 C2620 0.930 . S
H2611 C2623 0.929 . S
H2612 C2626 0.930 . S
H2613 C2628 0.960 . S
H2614 C2628 0.960 . S
H2615 C2628 0.960 . S
C2616 H2608 0.929 . S
C2616 C2617 1.377 . S
C2616 C2618 1.384 . S
C2617 C2616 1.377 . S
C2617 C2623 1.390 . S
C2618 H2609 0.930 . S
C2618 C2616 1.384 . S
C2618 C2619 1.372 . S
C2619 C2618 1.372 . S
C2619 C2620 1.400 . S
C2619 C2624 1.490 . S
C2620 H2610 0.930 . S
C2620 C2619 1.400 . S
C2620 C2623 1.386 . S
H2621 C2637 0.930 . S
H2622 C2638 0.931 . S
C2623 H2611 0.929 . S
C2623 C2617 1.390 . S
C2623 C2620 1.386 . S
C2624 C2619 1.490 . S
C2624 C2626 1.395 . S
C2624 C2627 1.403 . S
H2625 C2631 0.930 . S
C2626 H2612 0.930 . S
C2626 C2624 1.395 . S
C2626 C2629 1.403 . S
C2627 C2624 1.403 . S
C2627 C2628 1.524 . S
C2627 C2631 1.400 . S
C2628 H2613 0.960 . S
C2628 H2614 0.960 . S
C2628 H2615 0.960 . S
C2628 C2627 1.524 . S
C2629 C2626 1.403 . S
C2629 C2630 1.392 . S
C2629 C2633 1.495 . S
C2630 C2629 1.392 . S
C2630 C2631 1.385 . S
C2630 C2632 1.478 . S
C2631 H2625 0.930 . S
C2631 C2627 1.400 . S
C2631 C2630 1.385 . S
C2632 C2630 1.478 . S
C2632 C2634 1.381 . S
C2632 C2638 1.383 . S
C2633 C2629 1.495 . S
C2633 H2639 0.959 . S
C2633 H2640 0.961 . S
C2633 H2641 0.960 . S
C2634 C2632 1.381 . S
C2634 C2635 1.394 . S
C2634 H2642 0.930 . S
C2635 C2634 1.394 . S
C2635 C2636 1.383 . S
C2635 H2643 0.929 . S
C2636 C2635 1.383 . S
C2636 C2637 1.377 . S
C2637 H2621 0.930 . S
C2637 C2636 1.377 . S
C2637 C2638 1.379 . S
C2638 H2622 0.931 . S
C2638 C2632 1.383 . S
C2638 C2637 1.379 . S
H2639 C2633 0.959 . S
H2640 C2633 0.961 . S
H2641 C2633 0.960 . S
H2642 C2634 0.930 . S
H2643 C2635 0.929 . S
H2644 C2652 0.929 . S
H2645 C2654 0.930 . S
H2646 C2656 0.930 . S
H2647 C2659 0.929 . S
H2648 C2662 0.930 . S
H2649 C2664 0.960 . S
H2650 C2664 0.960 . S
H2651 C2664 0.960 . S
C2652 H2644 0.929 . S
C2652 C2653 1.377 . S
C2652 C2654 1.384 . S
C2653 C2652 1.377 . S
C2653 C2659 1.390 . S
C2654 H2645 0.930 . S
C2654 C2652 1.384 . S
C2654 C2655 1.372 . S
C2655 C2654 1.372 . S
C2655 C2656 1.400 . S
C2655 C2660 1.490 . S
C2656 H2646 0.930 . S
C2656 C2655 1.400 . S
C2656 C2659 1.386 . S
H2657 C2673 0.930 . S
H2658 C2674 0.931 . S
C2659 H2647 0.929 . S
C2659 C2653 1.390 . S
C2659 C2656 1.386 . S
C2660 C2655 1.490 . S
C2660 C2662 1.395 . S
C2660 C2663 1.403 . S
H2661 C2667 0.930 . S
C2662 H2648 0.930 . S
C2662 C2660 1.395 . S
C2662 C2665 1.403 . S
C2663 C2660 1.403 . S
C2663 C2664 1.524 . S
C2663 C2667 1.400 . S
C2664 H2649 0.960 . S
C2664 H2650 0.960 . S
C2664 H2651 0.960 . S
C2664 C2663 1.524 . S
C2665 C2662 1.403 . S
C2665 C2666 1.392 . S
C2665 C2669 1.495 . S
C2666 C2665 1.392 . S
C2666 C2667 1.385 . S
C2666 C2668 1.478 . S
C2667 H2661 0.930 . S
C2667 C2663 1.400 . S
C2667 C2666 1.385 . S
C2668 C2666 1.478 . S
C2668 C2670 1.381 . S
C2668 C2674 1.383 . S
C2669 C2665 1.495 . S
C2669 H2675 0.959 . S
C2669 H2676 0.961 . S
C2669 H2677 0.960 . S
C2670 C2668 1.381 . S
C2670 C2671 1.394 . S
C2670 H2678 0.930 . S
C2671 C2670 1.394 . S
C2671 C2672 1.383 . S
C2671 H2679 0.929 . S
C2672 C2671 1.383 . S
C2672 C2673 1.377 . S
C2673 H2657 0.930 . S
C2673 C2672 1.377 . S
C2673 C2674 1.379 . S
C2674 H2658 0.931 . S
C2674 C2668 1.383 . S
C2674 C2673 1.379 . S
H2675 C2669 0.959 . S
H2676 C2669 0.961 . S
H2677 C2669 0.960 . S
H2678 C2670 0.930 . S
H2679 C2671 0.929 . S
H2680 C2688 0.929 . S
H2681 C2690 0.930 . S
H2682 C2692 0.930 . S
H2683 C2695 0.929 . S
H2684 C2698 0.930 . S
H2685 C2700 0.960 . S
H2686 C2700 0.960 . S
H2687 C2700 0.960 . S
C2688 H2680 0.929 . S
C2688 C2689 1.377 . S
C2688 C2690 1.384 . S
C2689 C2688 1.377 . S
C2689 C2695 1.390 . S
C2690 H2681 0.930 . S
C2690 C2688 1.384 . S
C2690 C2691 1.372 . S
C2691 C2690 1.372 . S
C2691 C2692 1.400 . S
C2691 C2696 1.490 . S
C2692 H2682 0.930 . S
C2692 C2691 1.400 . S
C2692 C2695 1.386 . S
H2693 C2709 0.930 . S
H2694 C2710 0.931 . S
C2695 H2683 0.929 . S
C2695 C2689 1.390 . S
C2695 C2692 1.386 . S
C2696 C2691 1.490 . S
C2696 C2698 1.395 . S
C2696 C2699 1.403 . S
H2697 C2703 0.930 . S
C2698 H2684 0.930 . S
C2698 C2696 1.395 . S
C2698 C2701 1.403 . S
C2699 C2696 1.403 . S
C2699 C2700 1.524 . S
C2699 C2703 1.400 . S
C2700 H2685 0.960 . S
C2700 H2686 0.960 . S
C2700 H2687 0.960 . S
C2700 C2699 1.524 . S
C2701 C2698 1.403 . S
C2701 C2702 1.392 . S
C2701 C2705 1.495 . S
C2702 C2701 1.392 . S
C2702 C2703 1.385 . S
C2702 C2704 1.478 . S
C2703 H2697 0.930 . S
C2703 C2699 1.400 . S
C2703 C2702 1.385 . S
C2704 C2702 1.478 . S
C2704 C2706 1.381 . S
C2704 C2710 1.383 . S
C2705 C2701 1.495 . S
C2705 H2711 0.959 . S
C2705 H2712 0.961 . S
C2705 H2713 0.960 . S
C2706 C2704 1.381 . S
C2706 C2707 1.394 . S
C2706 H2714 0.930 . S
C2707 C2706 1.394 . S
C2707 C2708 1.383 . S
C2707 H2715 0.929 . S
C2708 C2707 1.383 . S
C2708 C2709 1.377 . S
C2709 H2693 0.930 . S
C2709 C2708 1.377 . S
C2709 C2710 1.379 . S
C2710 H2694 0.931 . S
C2710 C2704 1.383 . S
C2710 C2709 1.379 . S
H2711 C2705 0.959 . S
H2712 C2705 0.961 . S
H2713 C2705 0.960 . S
H2714 C2706 0.930 . S
H2715 C2707 0.929 . S
H2716 C2724 0.929 . S
H2717 C2726 0.930 . S
H2718 C2728 0.930 . S
H2719 C2731 0.929 . S
H2720 C2734 0.930 . S
H2721 C2736 0.960 . S
H2722 C2736 0.960 . S
H2723 C2736 0.960 . S
C2724 H2716 0.929 . S
C2724 C2725 1.377 . S
C2724 C2726 1.384 . S
C2725 C2724 1.377 . S
C2725 C2731 1.390 . S
C2726 H2717 0.930 . S
C2726 C2724 1.384 . S
C2726 C2727 1.372 . S
C2727 C2726 1.372 . S
C2727 C2728 1.400 . S
C2727 C2732 1.490 . S
C2728 H2718 0.930 . S
C2728 C2727 1.400 . S
C2728 C2731 1.386 . S
H2729 C2745 0.930 . S
H2730 C2746 0.931 . S
C2731 H2719 0.929 . S
C2731 C2725 1.390 . S
C2731 C2728 1.386 . S
C2732 C2727 1.490 . S
C2732 C2734 1.395 . S
C2732 C2735 1.403 . S
H2733 C2739 0.930 . S
C2734 H2720 0.930 . S
C2734 C2732 1.395 . S
C2734 C2737 1.403 . S
C2735 C2732 1.403 . S
C2735 C2736 1.524 . S
C2735 C2739 1.400 . S
C2736 H2721 0.960 . S
C2736 H2722 0.960 . S
C2736 H2723 0.960 . S
C2736 C2735 1.524 . S
C2737 C2734 1.403 . S
C2737 C2738 1.392 . S
C2737 C2741 1.495 . S
C2738 C2737 1.392 . S
C2738 C2739 1.385 . S
C2738 C2740 1.478 . S
C2739 H2733 0.930 . S
C2739 C2735 1.400 . S
C2739 C2738 1.385 . S
C2740 C2738 1.478 . S
C2740 C2742 1.381 . S
C2740 C2746 1.383 . S
C2741 C2737 1.495 . S
C2741 H2747 0.959 . S
C2741 H2748 0.961 . S
C2741 H2749 0.960 . S
C2742 C2740 1.381 . S
C2742 C2743 1.394 . S
C2742 H2750 0.930 . S
C2743 C2742 1.394 . S
C2743 C2744 1.383 . S
C2743 H2751 0.929 . S
C2744 C2743 1.383 . S
C2744 C2745 1.377 . S
C2745 H2729 0.930 . S
C2745 C2744 1.377 . S
C2745 C2746 1.379 . S
C2746 H2730 0.931 . S
C2746 C2740 1.383 . S
C2746 C2745 1.379 . S
H2747 C2741 0.959 . S
H2748 C2741 0.961 . S
H2749 C2741 0.960 . S
H2750 C2742 0.930 . S
H2751 C2743 0.929 . S
C457 C119 1.365 . S
C476 C7 1.355 . S
C493 C357 1.366 . S
C512 C21 1.361 . S
C529 C147 1.355 . S
C548 C35 1.356 . S
C565 C385 1.355 . S
C584 C49 1.337 . S
C601 C175 1.355 . S
C620 C63 1.337 . S
C637 C77 1.355 . S
C656 C413 1.356 . S
C673 C91 1.355 . S
C692 C203 1.346 . S
C709 C105 1.362 . S
C728 C441 1.339 . S
C745 C245 1.362 . S
C764 C133 1.385 . S
C781 C273 1.355 . S
C800 C161 1.354 . S
C817 C189 1.356 . S
C836 C301 1.362 . S
C853 C217 1.365 . S
C872 C329 1.384 . S
C889 C231 1.365 . S
C908 C343 1.352 . S
C925 C371 1.364 . S
C944 C259 1.346 . S
C961 C287 1.364 . S
C980 C399 1.348 . S
C997 C427 1.364 . S
C1016 C315 1.349 . S
C1033 C261 2.096 . S
C1052 C9 2.098 . S
C1069 C275 2.095 . S
C1088 C23 2.092 . S
C1105 C37 2.096 . S
C1124 C233 2.098 . S
C1141 C51 2.096 . S
C1160 C247 2.086 . S
C1177 C317 2.096 . S
C1196 C65 2.097 . S
C1213 C79 2.097 . S
C1232 C331 2.090 . S
C1249 C289 2.097 . S
C1268 C93 2.094 . S
C1285 C303 2.097 . S
C1304 C107 2.095 . S
C1321 C121 2.095 . S
C1340 C373 2.086 . S
C1357 C387 2.097 . S
C1376 C135 2.098 . S
C1393 C149 2.096 . S
C1412 C345 2.092 . S
C1429 C163 2.096 . S
C1448 C359 2.090 . S
C1465 C177 2.096 . S
C1484 C429 2.095 . S
C1501 C191 2.097 . S
C1520 C443 2.094 . S
C1537 C401 2.095 . S
C1556 C205 2.087 . S
C1573 C415 2.096 . S
C1592 C219 2.094 . S
C1609 C90 1.600 . S
C1628 C6 1.573 . S
C1645 C104 1.598 . S
C1664 C20 1.587 . S
C1681 C62 1.593 . S
C1700 C34 1.610 . S
C1717 C48 1.599 . S
C1736 C76 1.579 . S
C1753 C202 1.593 . S
C1772 C118 1.610 . S
C1789 C216 1.598 . S
C1808 C132 1.574 . S
C1825 C174 1.591 . S
C1844 C146 1.593 . S
C1861 C188 1.598 . S
C1880 C160 1.609 . S
C1897 C314 1.596 . S
C1916 C230 1.578 . S
C1933 C328 1.592 . S
C1952 C244 1.596 . S
C1969 C258 1.591 . S
C1988 C286 1.604 . S
C2005 C272 1.598 . S
C2024 C300 1.572 . S
C2041 C426 1.599 . S
C2060 C342 1.583 . S
C2077 C440 1.600 . S
C2096 C356 1.590 . S
C2113 C370 1.591 . S
C2132 C398 1.581 . S
C2149 C384 1.595 . S
C2168 C412 1.570 . S
C2185 C8 1.546 . S
C2204 C302 1.537 . S
C2221 C316 1.549 . S
C2240 C22 1.548 . S
C2257 C330 1.546 . S
C2276 C36 1.536 . S
C2293 C50 1.548 . S
C2312 C288 1.543 . S
C2329 C274 1.546 . S
C2348 C64 1.537 . S
C2365 C78 1.547 . S
C2384 C232 1.549 . S
C2401 C246 1.547 . S
C2420 C92 1.547 . S
C2437 C106 1.547 . S
C2456 C260 1.548 . S
C2473 C414 1.546 . S
C2492 C120 1.537 . S
C2509 C428 1.546 . S
C2528 C134 1.549 . S
C2545 C148 1.547 . S
C2564 C442 1.537 . S
C2581 C400 1.549 . S
C2600 C162 1.550 . S
C2617 C386 1.546 . S
C2636 C176 1.543 . S
C2653 C190 1.548 . S
C2672 C344 1.550 . S
C2689 C358 1.546 . S
C2708 C204 1.538 . S
C2725 C218 1.546 . S
C2744 C372 1.537 . S
