# Generated by pormake.
# Topology msp, (4)-cn, num edge types: 1
# Building blocks:
#     Node 0, Type 0, BuildingBlock: ESEHIV_clean_sbu_0, # of connection points: 4
#     Node 1, Type 0, BuildingBlock: ESEHIV_clean_sbu_0, # of connection points: 4
#     Node 2, Type 0, BuildingBlock: ESEHIV_clean_sbu_0, # of connection points: 4
#     Node 3, Type 0, BuildingBlock: ESEHIV_clean_sbu_0, # of connection points: 4
#     Node 4, Type 0, BuildingBlock: ESEHIV_clean_sbu_0, # of connection points: 4
#     Node 5, Type 0, BuildingBlock: ESEHIV_clean_sbu_0, # of connection points: 4
#     Node 6, Type 0, BuildingBlock: ESEHIV_clean_sbu_0, # of connection points: 4
#     Node 7, Type 0, BuildingBlock: ESEHIV_clean_sbu_0, # of connection points: 4
#     Edge 8, Type (0, 0), BuildingBlock: FUNLAD_clean_linker_1, # of connection points: 2
#     Edge 9, Type (0, 0), BuildingBlock: FUNLAD_clean_linker_1, # of connection points: 2
#     Edge 10, Type (0, 0), BuildingBlock: FUNLAD_clean_linker_1, # of connection points: 2
#     Edge 11, Type (0, 0), BuildingBlock: FUNLAD_clean_linker_1, # of connection points: 2
#     Edge 12, Type (0, 0), BuildingBlock: FUNLAD_clean_linker_1, # of connection points: 2
#     Edge 13, Type (0, 0), BuildingBlock: FUNLAD_clean_linker_1, # of connection points: 2
#     Edge 14, Type (0, 0), BuildingBlock: FUNLAD_clean_linker_1, # of connection points: 2
#     Edge 15, Type (0, 0), BuildingBlock: FUNLAD_clean_linker_1, # of connection points: 2
#     Edge 16, Type (0, 0), BuildingBlock: FUNLAD_clean_linker_1, # of connection points: 2
#     Edge 17, Type (0, 0), BuildingBlock: FUNLAD_clean_linker_1, # of connection points: 2
#     Edge 18, Type (0, 0), BuildingBlock: FUNLAD_clean_linker_1, # of connection points: 2
#     Edge 19, Type (0, 0), BuildingBlock: FUNLAD_clean_linker_1, # of connection points: 2
#     Edge 20, Type (0, 0), BuildingBlock: FUNLAD_clean_linker_1, # of connection points: 2
#     Edge 21, Type (0, 0), BuildingBlock: FUNLAD_clean_linker_1, # of connection points: 2
#     Edge 22, Type (0, 0), BuildingBlock: FUNLAD_clean_linker_1, # of connection points: 2
#     Edge 23, Type (0, 0), BuildingBlock: FUNLAD_clean_linker_1, # of connection points: 2
# Relax obj value: 0.063
# Max RMSD: 0.175
# Mean RMSD: 0.157
data_MOF--net-msp--node1-ESEHIV_clean_sbu_0--edge1-FUNLAD_clean_linker_1
_symmetry_space_group_name_H-M    P1
_symmetry_Int_Tables_number       1
_symmetry_cell_setting            triclinic
loop_
_symmetry_equiv_pos_as_xyz
'x, y, z'
_cell_length_a     23.364968
_cell_length_b     23.087629
_cell_length_c     51.105064
_cell_angle_alpha  90.148816
_cell_angle_beta   99.118095
_cell_angle_gamma 89.145315
loop_
_atom_site_label
_atom_site_type_symbol
_atom_site_fract_x
_atom_site_fract_y
_atom_site_fract_z
_atom_type_partial_charge
Cu0 Cu 0.04971 0.32792 0.38191 0.0
N1 N 0.07709 0.26421 0.40294 0.0
N2 N 0.1312 0.21553 0.43594 0.0
C3 C 0.10132 0.26497 0.4287 0.0
C4 C 0.125 0.18219 0.41404 0.0
C5 C 0.09137 0.21217 0.39374 0.0
O6 O 0.03972 0.39315 0.40506 0.0
C7 C 0.09921 0.35483 0.33477 0.0
O8 O 0.04705 0.37044 0.32321 0.0
H9 H 0.10166 0.30279 0.4412 0.0
H10 H 0.08228 0.19911 0.37317 0.0
N11 N 0.97619 0.3123 0.36289 0.0
N12 N 0.90192 0.29045 0.33128 0.0
C13 C 0.96012 0.2887 0.33867 0.0
C14 C 0.92644 0.32807 0.37122 0.0
C15 C 0.88065 0.31471 0.35188 0.0
C16 C 0.0793 0.41562 0.42177 0.0
O17 O 0.13356 0.39903 0.42241 0.0
H18 H 0.99036 0.27212 0.32638 0.0
H19 H 0.92383 0.3491 0.38994 0.0
O20 O 0.10784 0.34023 0.35907 0.0
H21 H 0.14671 0.14089 0.41237 0.0
H22 H 0.8354 0.32293 0.35296 0.0
Cu23 Cu 0.51287 0.30423 0.66744 0.0
N24 N 0.47048 0.24685 0.64745 0.0
N25 N 0.40451 0.20776 0.61628 0.0
C26 C 0.43887 0.25356 0.62317 0.0
C27 C 0.41453 0.17103 0.63698 0.0
C28 C 0.45564 0.19505 0.65615 0.0
O29 O 0.51539 0.3707 0.6443 0.0
C30 C 0.41995 0.31793 0.69644 0.0
O31 O 0.38737 0.31027 0.6733 0.0
H32 H 0.43756 0.29309 0.61175 0.0
H33 H 0.47083 0.17784 0.67572 0.0
N34 N 0.58768 0.27676 0.68037 0.0
N35 N 0.67167 0.26073 0.70726 0.0
C36 C 0.62094 0.2909 0.70348 0.0
C37 C 0.61819 0.23627 0.66927 0.0
C38 C 0.67006 0.22651 0.68577 0.0
C39 C 0.54037 0.36371 0.62409 0.0
O40 O 0.5663 0.31391 0.62087 0.0
H41 H 0.60754 0.32189 0.7173 0.0
H42 H 0.60327 0.21465 0.65069 0.0
O43 O 0.47465 0.32101 0.6978 0.0
H44 H 0.39186 0.13094 0.63856 0.0
H45 H 0.70368 0.1958 0.68249 0.0
Cu46 Cu 0.95095 0.69285 0.6467 0.0
N47 N 0.8952 0.67873 0.66817 0.0
N48 N 0.84338 0.68964 0.70105 0.0
C49 C 0.89143 0.70496 0.69141 0.0
C50 C 0.81596 0.65182 0.68328 0.0
C51 C 0.8481 0.64529 0.66296 0.0
O52 O 1.01347 0.7335 0.66839 0.0
C53 C 0.9419 0.76152 0.60011 0.0
O54 O 0.99879 0.75964 0.60405 0.0
H55 H 0.92252 0.736 0.70074 0.0
H56 H 0.83734 0.619 0.64537 0.0
N57 N 0.97871 0.62347 0.63413 0.0
N58 N 1.01325 0.56091 0.60686 0.0
C59 C 0.98297 0.61061 0.60875 0.0
C60 C 1.00677 0.58024 0.64871 0.0
C61 C 0.02854 0.5418 0.63192 0.0
C62 C 0.06691 0.72442 0.66749 0.0
O63 O 0.08245 0.6902 0.6492 0.0
H64 H 0.96741 0.63891 0.59223 0.0
H65 H 1.01366 0.57858 0.67013 0.0
O66 O 0.91442 0.73784 0.6167 0.0
H67 H 0.7756 0.63058 0.68468 0.0
H68 H 0.05527 0.50383 0.63769 0.0
Cu69 Cu 0.60245 0.68914 0.3945 0.0
N70 N 0.66249 0.66294 0.37739 0.0
N71 N 0.73177 0.66557 0.35196 0.0
C72 C 0.68276 0.69081 0.35772 0.0
C73 C 0.7428 0.62035 0.36871 0.0
C74 C 0.69987 0.61871 0.38439 0.0
O75 O 0.54359 0.72366 0.36777 0.0
C76 C 0.61476 0.75809 0.44115 0.0
O77 O 0.56226 0.74124 0.4432 0.0
H78 H 0.66372 0.73066 0.34898 0.0
H79 H 0.69748 0.58908 0.40053 0.0
N80 N 0.57233 0.62789 0.41178 0.0
N81 N 0.55582 0.5699 0.44459 0.0
C82 C 0.59205 0.60847 0.43647 0.0
C83 C 0.52276 0.59932 0.40381 0.0
C84 C 0.51226 0.56368 0.4241 0.0
C85 C 0.491 0.7326 0.37037 0.0
O86 O 0.47397 0.72246 0.3932 0.0
H87 H 0.63074 0.62433 0.44873 0.0
H88 H 0.49519 0.60538 0.3849 0.0
O89 O 0.63693 0.74387 0.42086 0.0
H90 H 0.78029 0.59172 0.37007 0.0
H91 H 0.4754 0.53573 0.42388 0.0
Cu92 Cu 0.52859 0.82014 0.88092 0.0
N93 N 0.55949 0.75749 0.90176 0.0
N94 N 0.61347 0.70608 0.93371 0.0
C95 C 0.59636 0.75953 0.92479 0.0
C96 C 0.58544 0.66896 0.91593 0.0
C97 C 0.55229 0.70084 0.89613 0.0
O98 O 0.51563 0.88494 0.90383 0.0
C99 C 0.62892 0.81747 0.85551 0.0
O100 O 0.65524 0.79423 0.87771 0.0
H101 H 0.61074 0.79933 0.93461 0.0
H102 H 0.52567 0.68403 0.87858 0.0
N103 N 0.4564 0.79892 0.86307 0.0
N104 N 0.38376 0.78059 0.83038 0.0
C105 C 0.4394 0.79684 0.83668 0.0
C106 C 0.41012 0.78327 0.87389 0.0
C107 C 0.36507 0.77186 0.85375 0.0
C108 C 0.55446 0.91231 0.91901 0.0
O109 O 0.60948 0.90219 0.91783 0.0
H110 H 0.46716 0.80729 0.82233 0.0
H111 H 0.4093 0.78049 0.89495 0.0
O112 O 0.57684 0.83579 0.85397 0.0
H113 H 0.5898 0.62223 0.91688 0.0
H114 H 0.32225 0.75812 0.85628 0.0
Cu115 Cu 1.00786 0.80295 0.16161 0.0
N116 N 0.98442 0.75155 0.13406 0.0
N117 N 0.93644 0.72015 0.09561 0.0
C118 C 0.95454 0.76669 0.11034 0.0
C119 C 0.9561 0.6736 0.1105 0.0
C120 C 0.98573 0.69325 0.13434 0.0
O121 O 1.01088 0.87795 0.14463 0.0
C122 C 0.94703 0.82539 0.20595 0.0
O123 O 0.98581 0.86468 0.21423 0.0
H124 H 0.94364 0.81104 0.10448 0.0
H125 H 1.00491 0.66704 0.15105 0.0
N126 N 0.08059 0.77972 0.17972 0.0
N127 N 0.15728 0.76656 0.21142 0.0
C128 C 0.1046 0.79185 0.20485 0.0
C129 C 0.11952 0.74539 0.17015 0.0
C130 C 0.16693 0.7372 0.18962 0.0
C131 C 0.04708 0.88263 0.1286 0.0
O132 O 0.08463 0.84023 0.12722 0.0
H133 H 0.08401 0.81827 0.21824 0.0
H134 H 0.11358 0.72717 0.15041 0.0
O135 O 0.94895 0.79836 0.18442 0.0
H136 H 0.94845 0.6288 0.10494 0.0
H137 H 0.20483 0.71094 0.18784 0.0
Cu138 Cu 0.45477 0.19686 0.14877 0.0
N139 N 0.39671 0.17772 0.1683 0.0
N140 N 0.32939 0.1862 0.19471 0.0
C141 C 0.37477 0.2114 0.18603 0.0
C142 C 0.32256 0.13505 0.18192 0.0
C143 C 0.3642 0.12984 0.16569 0.0
O144 O 0.51615 0.23532 0.17265 0.0
C145 C 0.44429 0.26601 0.10187 0.0
O146 O 0.50082 0.26032 0.10403 0.0
H147 H 0.39045 0.25427 0.19158 0.0
H148 H 0.36944 0.09441 0.15233 0.0
N149 N 0.4836 0.12952 0.13464 0.0
N150 N 0.51348 0.06753 0.10579 0.0
C151 C 0.48307 0.11665 0.10883 0.0
C152 C 0.51469 0.08673 0.14828 0.0
C153 C 0.53366 0.04876 0.13051 0.0
C154 C 0.57005 0.22745 0.17219 0.0
O155 O 0.58696 0.19626 0.15321 0.0
H156 H 0.4633 0.14414 0.09269 0.0
H157 H 0.52495 0.0848 0.16965 0.0
O158 O 0.41829 0.24497 0.11965 0.0
H159 H 0.28908 0.10414 0.18384 0.0
H160 H 0.56141 0.01106 0.13533 0.0
Cu161 Cu 0.0788 0.22262 0.89952 0.0
N162 N 0.13329 0.20214 0.87809 0.0
N163 N 0.18812 0.20879 0.84625 0.0
C164 C 0.14043 0.22849 0.85539 0.0
C165 C 0.21174 0.16798 0.86376 0.0
C166 C 0.1778 0.16415 0.88347 0.0
O167 O 1.01236 0.25681 0.87652 0.0
C168 C 0.10039 0.28426 0.94832 0.0
O169 O 0.04857 0.26751 0.95158 0.0
H170 H 0.11238 0.26304 0.84626 0.0
H171 H 0.1859 0.13692 0.90089 0.0
N172 N 0.05609 0.15722 0.91661 0.0
N173 N 0.0476 0.09554 0.94934 0.0
C174 C 0.07962 0.13755 0.94081 0.0
C175 C 1.00832 0.12549 0.90934 0.0
C176 C 1.00287 0.08739 0.92953 0.0
C177 C 0.96228 0.26395 0.88295 0.0
O178 O 0.95436 0.25275 0.90727 0.0
H179 H 0.11782 0.15573 0.95254 0.0
H180 H 0.97831 0.13129 0.89109 0.0
O181 O 0.11821 0.27391 0.92649 0.0
H182 H 0.25092 0.14314 0.86269 0.0
H183 H 0.96825 0.05686 0.92974 0.0
H184 H 1.01663 0.4659 0.44105 0.0
C185 C 0.06173 0.45176 0.44313 0.0
H186 H 0.1407 0.44293 0.46938 0.0
H187 H 1.00762 0.6406 0.53394 0.0
H188 H 1.02396 0.70651 0.49923 0.0
H189 H 0.0634 0.67107 0.46003 0.0
H190 H 0.08675 0.56916 0.45536 0.0
C191 C 0.09666 0.46026 0.46632 0.0
C192 C 0.07275 0.48236 0.4899 0.0
C193 C 0.05912 0.54193 0.49236 0.0
C194 C 0.03616 0.56226 0.51499 0.0
C195 C 1.02428 0.62234 0.5171 0.0
C196 C 0.03369 0.66084 0.49733 0.0
C197 C 0.05587 0.64088 0.47526 0.0
C198 C 0.06885 0.58225 0.47277 0.0
H199 H 0.07225 0.51007 0.5866 0.0
C200 C 0.03305 0.5368 0.5838 0.0
H201 H 0.96456 0.57146 0.55631 0.0
H202 H 0.09298 0.36535 0.49099 0.0
H203 H 0.07177 0.29793 0.52426 0.0
H204 H 1.02558 0.33176 0.56183 0.0
H205 H 1.0018 0.43319 0.56665 0.0
C206 C 1.00401 0.54526 0.55914 0.0
C207 C 1.02636 0.52285 0.53509 0.0
C208 C 0.03775 0.46273 0.53198 0.0
C209 C 0.0623 0.44282 0.50974 0.0
C210 C 0.07446 0.38286 0.50747 0.0
C211 C 0.06213 0.34357 0.52634 0.0
C212 C 0.0363 0.36264 0.54752 0.0
C213 C 1.02361 0.42129 0.55026 0.0
H214 H 0.60605 0.5339 0.48062 0.0
C215 C 0.56251 0.54267 0.47022 0.0
H216 H 0.47313 0.54058 0.47174 0.0
H217 H 0.47536 0.33714 0.55324 0.0
H218 H 0.41218 0.30121 0.51456 0.0
H219 H 0.39891 0.3552 0.47242 0.0
H220 H 0.44885 0.44514 0.4686 0.0
C221 C 0.51645 0.53043 0.48197 0.0
C222 C 0.52237 0.49976 0.50803 0.0
C223 C 0.49317 0.44671 0.50978 0.0
C224 C 0.50155 0.41497 0.53396 0.0
C225 C 0.47142 0.36245 0.53523 0.0
C226 C 0.4348 0.34142 0.51322 0.0
C227 C 0.42729 0.37185 0.4895 0.0
C228 C 0.45617 0.42368 0.48764 0.0
H229 H 0.50889 0.44702 0.60508 0.0
C230 C 0.53379 0.40771 0.60279 0.0
H231 H 0.57696 0.3573 0.57721 0.0
H232 H 0.57287 0.60661 0.51385 0.0
H233 H 0.63614 0.6421 0.55258 0.0
H234 H 0.65751 0.58289 0.59316 0.0
H235 H 0.61456 0.48838 0.59544 0.0
C236 C 0.55423 0.39772 0.57997 0.0
C237 C 0.53967 0.4357 0.55626 0.0
C238 C 0.56674 0.48992 0.55497 0.0
C239 C 0.55684 0.52274 0.53105 0.0
C240 C 0.58146 0.5784 0.53091 0.0
C241 C 0.61737 0.59961 0.55314 0.0
C242 C 0.62924 0.56637 0.57602 0.0
C243 C 0.60424 0.51219 0.57706 0.0
H244 H 0.56754 0.01642 0.0831 0.0
C245 C 0.52839 0.04303 0.08175 0.0
H246 H 0.4555 0.0767 0.05654 0.0
H247 H 0.55747 0.0694 0.9498 0.0
H248 H 0.53337 0.17131 0.95399 0.0
H249 H 0.5006 0.20858 0.9945 0.0
H250 H 0.49157 0.14451 0.03098 0.0
C251 C 0.49493 0.05064 0.05798 0.0
C252 C 0.51226 0.02708 0.03298 0.0
C253 C 0.51794 0.06546 1.01187 0.0
C254 C 0.5373 0.04412 0.98853 0.0
C255 C 0.5427 0.08336 0.96785 0.0
C256 C 0.52918 0.14195 0.97004 0.0
C257 C 0.51074 0.16294 0.99285 0.0
C258 C 0.50552 0.12549 1.01364 0.0
H259 H 0.49069 0.9577 0.9396 0.0
C260 C 0.53664 0.94807 0.94046 0.0
H261 H 0.61905 0.94928 0.96438 0.0
H262 H 0.4932 0.93885 0.06642 0.0
H263 H 0.51737 0.83731 0.06201 0.0
H264 H 0.55887 0.80208 0.02334 0.0
H265 H 0.57514 0.8681 0.98855 0.0
C266 C 0.57359 0.96193 0.96242 0.0
C267 C 0.55176 0.98466 0.98641 0.0
C268 C 0.54498 0.94605 1.00719 0.0
C269 C 0.52356 0.96687 0.03011 0.0
C270 C 0.51267 0.92625 0.04941 0.0
C271 C 0.52563 0.86758 0.04694 0.0
C272 C 0.54881 0.8477 0.02514 0.0
C273 C 0.55807 0.88616 1.00534 0.0
H274 H 1.0022 0.958 0.10717 0.0
C275 C 0.03869 0.92799 0.10787 0.0
H276 H 0.10513 0.89561 0.08806 0.0
H277 H 0.98242 0.94302 0.97275 0.0
H278 H 0.96136 0.84128 0.97701 0.0
H279 H 0.98084 0.79272 1.02054 0.0
H280 H 1.02148 0.84537 0.05996 0.0
C281 C 0.07026 0.92731 0.088 0.0
C282 C 0.05192 0.95955 0.06279 0.0
C283 C 1.02717 0.92847 0.0399 0.0
C284 C 1.01505 0.95683 1.01491 0.0
C285 C 0.99165 0.92408 0.99233 0.0
C286 C 0.97947 0.86552 0.99446 0.0
C287 C 0.99046 0.83813 1.01893 0.0
C288 C 1.01407 0.86892 0.04142 0.0
H289 H 0.10226 0.06934 0.98617 0.0
C290 C 0.05853 0.06849 0.97507 0.0
H291 H 0.97187 0.04475 0.97559 0.0
H292 H 0.09806 0.03172 0.10282 0.0
H293 H 0.11313 0.13511 0.09939 0.0
H294 H 0.08651 0.18586 0.05668 0.0
H295 H 0.04564 0.13358 1.01708 0.0
C296 C 1.01583 0.04522 0.98631 0.0
C297 C 1.02719 0.01655 1.01285 0.0
C298 C 0.04898 0.04839 0.03607 0.0
C299 C 0.06231 0.01957 0.06097 0.0
C300 C 0.08621 0.05176 0.08357 0.0
C301 C 0.09508 0.11107 0.08188 0.0
C302 C 0.08023 0.13962 0.05781 0.0
C303 C 0.05725 0.10894 0.03514 0.0
H304 H 0.5969 0.2749 0.20963 0.0
C305 C 0.61268 0.24827 0.19463 0.0
H306 H 0.68447 0.20243 0.184 0.0
H307 H 0.80734 0.386 0.27686 0.0
H308 H 0.77579 0.46177 0.24477 0.0
H309 H 0.7146 0.43916 0.20217 0.0
H310 H 0.68428 0.34073 0.19146 0.0
C311 C 0.66881 0.23146 0.19816 0.0
C312 C 0.70903 0.24518 0.22306 0.0
C313 C 0.72694 0.30285 0.22889 0.0
C314 C 0.7628 0.31576 0.25335 0.0
C315 C 0.77983 0.3738 0.25868 0.0
C316 C 0.76224 0.41769 0.24038 0.0
C317 C 0.72775 0.40496 0.21641 0.0
C318 C 0.71035 0.3483 0.21058 0.0
H319 H 0.89349 0.24911 0.29232 0.0
C320 C 0.87041 0.27268 0.30597 0.0
H321 H 0.79079 0.31241 0.31109 0.0
H322 H 0.68545 0.12952 0.21752 0.0
H323 H 0.71793 0.05367 0.24939 0.0
H324 H 0.77871 0.07638 0.29206 0.0
H325 H 0.808 0.17481 0.303 0.0
C326 C 0.81385 0.28611 0.29845 0.0
C327 C 0.7814 0.27096 0.27185 0.0
C328 C 0.76488 0.213 0.2657 0.0
C329 C 0.72908 0.20006 0.24119 0.0
C330 C 0.71271 0.14188 0.23574 0.0
C331 C 0.73091 0.09788 0.2539 0.0
C332 C 0.7652 0.11063 0.27791 0.0
C333 C 0.78192 0.16741 0.28389 0.0
H334 H 0.75548 0.23265 0.72879 0.0
C335 C 0.71812 0.26092 0.72956 0.0
H336 H 0.68102 0.32298 0.7527 0.0
H337 H 0.87746 0.1761 0.83812 0.0
H338 H 0.81439 0.09404 0.82801 0.0
H339 H 0.72676 0.10153 0.79416 0.0
H340 H 0.70232 0.19086 0.76988 0.0
C341 C 0.71672 0.29308 0.75148 0.0
C342 C 0.76546 0.29053 0.77428 0.0
C343 C 0.77769 0.23876 0.78921 0.0
C344 C 0.82683 0.23528 0.80961 0.0
C345 C 0.83972 0.18196 0.82309 0.0
C346 C 0.80398 0.13432 0.8174 0.0
C347 C 0.75476 0.13848 0.79828 0.0
C348 C 0.7415 0.18995 0.78433 0.0
H349 H 0.86898 0.27938 0.86875 0.0
C350 C 0.91135 0.27694 0.86255 0.0
H351 H 0.95699 0.27847 0.82997 0.0
H352 H 0.75282 0.39716 0.75062 0.0
H353 H 0.8135 0.4807 0.76214 0.0
H354 H 0.89656 0.4756 0.7985 0.0
H355 H 0.91987 0.38665 0.82345 0.0
C356 C 0.91502 0.28026 0.83658 0.0
C357 C 0.86227 0.28438 0.8159 0.0
C358 C 0.84881 0.33671 0.80164 0.0
C359 C 0.80041 0.33982 0.78085 0.0
C360 C 0.78866 0.39249 0.76673 0.0
C361 C 0.82317 0.44078 0.77313 0.0
C362 C 0.87 0.43789 0.79358 0.0
C363 C 0.88293 0.38657 0.80772 0.0
H364 H 0.09459 0.77214 0.7046 0.0
C365 C 0.10997 0.74493 0.68968 0.0
H366 H 0.18022 0.69549 0.67977 0.0
H367 H 0.2914 0.86698 0.7811 0.0
H368 H 0.27093 0.94651 0.74999 0.0
H369 H 0.22062 0.92985 0.70447 0.0
H370 H 0.18981 0.83343 0.68989 0.0
C371 C 0.16506 0.72525 0.69378 0.0
C372 C 0.20268 0.73457 0.71976 0.0
C373 C 0.22214 0.79078 0.72766 0.0
C374 C 0.25295 0.80002 0.75362 0.0
C375 C 0.26945 0.85709 0.76139 0.0
C376 C 0.2577 0.90325 0.74376 0.0
C377 C 0.22923 0.89389 0.71814 0.0
C378 C 0.21153 0.83841 0.71008 0.0
H379 H 0.3762 0.78001 0.78729 0.0
C380 C 0.35276 0.77425 0.80385 0.0
H381 H 0.27173 0.75448 0.81487 0.0
H382 H 0.1738 0.62072 0.71055 0.0
H383 H 0.19755 0.5406 0.74108 0.0
H384 H 0.25296 0.55637 0.78571 0.0
H385 H 0.2852 0.65232 0.80002 0.0
C386 C 0.29608 0.76181 0.79884 0.0
C387 C 0.26571 0.75264 0.77133 0.0
C388 C 0.24792 0.69615 0.76311 0.0
C389 C 0.21644 0.68705 0.73729 0.0
C390 C 0.19835 0.6302 0.72981 0.0
C391 C 0.21161 0.58373 0.74716 0.0
C392 C 0.24282 0.59259 0.77228 0.0
C393 C 0.26091 0.64798 0.78027 0.0
H394 H 0.4655 0.75755 0.32851 0.0
C395 C 0.44877 0.74705 0.34658 0.0
H396 H 0.37408 0.72733 0.36313 0.0
H397 H 0.27034 0.85593 0.24778 0.0
H398 H 0.30791 0.94446 0.26915 0.0
H399 H 0.36461 0.9425 0.31418 0.0
H400 H 0.38467 0.85173 0.33801 0.0
C401 C 0.39137 0.74129 0.34569 0.0
C402 C 0.35153 0.7439 0.31989 0.0
C403 C 0.33873 0.79742 0.30655 0.0
C404 C 0.30439 0.79872 0.28092 0.0
C405 C 0.29455 0.85252 0.26759 0.0
C406 C 0.31616 0.90368 0.27958 0.0
C407 C 0.34823 0.90257 0.3049 0.0
C408 C 0.3596 0.85018 0.31831 0.0
H409 H 0.17562 0.79108 0.25314 0.0
C410 C 0.19309 0.76963 0.23708 0.0
H411 H 0.26518 0.72407 0.22647 0.0
H412 H 0.36649 0.63418 0.3404 0.0
H413 H 0.32637 0.54593 0.31971 0.0
H414 H 0.2648 0.5484 0.2758 0.0
H415 H 0.24317 0.63911 0.25224 0.0
C416 C 0.24699 0.74676 0.24191 0.0
C417 C 0.28162 0.74656 0.26902 0.0
C418 C 0.29328 0.69324 0.28267 0.0
C419 C 0.32821 0.6919 0.30813 0.0
C420 C 0.33982 0.63786 0.32112 0.0
C421 C 0.31709 0.58681 0.30947 0.0
C422 C 0.28248 0.58818 0.28473 0.0
C423 C 0.27052 0.6406 0.27141 0.0
H424 H 0.25109 0.18738 0.21286 0.0
C425 C 0.29199 0.20888 0.21232 0.0
H426 H 0.34677 0.2764 0.2284 0.0
H427 H 0.15274 0.43198 0.26767 0.0
H428 H 0.18763 0.49466 0.23574 0.0
H429 H 0.25775 0.45824 0.20804 0.0
H430 H 0.29391 0.35921 0.21222 0.0
C431 C 0.30628 0.25416 0.22862 0.0
C432 C 0.26598 0.27685 0.24642 0.0
C433 C 0.2447 0.33479 0.24351 0.0
C434 C 0.20337 0.35558 0.25916 0.0
C435 C 0.18351 0.41379 0.25605 0.0
C436 C 0.20324 0.45026 0.23783 0.0
C437 C 0.24279 0.42977 0.22226 0.0
C438 C 0.26329 0.37277 0.22491 0.0
H439 H 0.1896 0.33512 0.32984 0.0
C440 C 0.14654 0.34488 0.31913 0.0
H441 H 0.09389 0.34882 0.28152 0.0
H442 H 0.30729 0.16823 0.26163 0.0
H443 H 0.27046 0.10469 0.29254 0.0
H444 H 0.19066 0.13669 0.31575 0.0
H445 H 0.14854 0.23284 0.30879 0.0
C446 C 0.13666 0.33942 0.29259 0.0
C447 C 0.18268 0.31835 0.27748 0.0
C448 C 0.20445 0.26054 0.28064 0.0
C449 C 0.24768 0.24059 0.26585 0.0
C450 C 0.27198 0.18441 0.27107 0.0
C451 C 0.25165 0.14764 0.28898 0.0
C452 C 0.20695 0.16576 0.30214 0.0
C453 C 0.18344 0.22141 0.29809 0.0
H454 H 0.4237 0.31888 0.73991 0.0
C455 C 0.39508 0.31312 0.72116 0.0
H456 H 0.31274 0.28584 0.70253 0.0
H457 H 0.27198 0.12126 0.79553 0.0
H458 H 0.29331 0.05171 0.7627 0.0
H459 H 0.3277 0.08382 0.72196 0.0
H460 H 0.34084 0.18576 0.7138 0.0
C461 C 0.34066 0.29494 0.72115 0.0
C462 C 0.32066 0.27636 0.74605 0.0
C463 C 0.31343 0.21651 0.75058 0.0
C464 C 0.29431 0.19789 0.77423 0.0
C465 C 0.28702 0.13785 0.77808 0.0
C466 C 0.29898 0.09739 0.75935 0.0
C467 C 0.31829 0.11548 0.73642 0.0
C468 C 0.32552 0.17422 0.73197 0.0
H469 H 0.1798 0.2568 0.8091 0.0
C470 C 0.20872 0.22979 0.82293 0.0
H471 H 0.29238 0.19167 0.83146 0.0
H472 H 0.3266 0.39428 0.74277 0.0
H473 H 0.30861 0.46386 0.77628 0.0
H474 H 0.28029 0.43147 0.81832 0.0
H475 H 0.2692 0.32934 0.82699 0.0
C476 C 0.26273 0.2187 0.81808 0.0
C477 C 0.28247 0.23909 0.79336 0.0
C478 C 0.29042 0.29898 0.78899 0.0
C479 C 0.30871 0.31765 0.76512 0.0
C480 C 0.31428 0.37771 0.76083 0.0
C481 C 0.30385 0.41813 0.77985 0.0
C482 C 0.28778 0.39988 0.8035 0.0
C483 C 0.28122 0.34108 0.80815 0.0
H484 H 0.62873 0.82603 0.81245 0.0
C485 C 0.65475 0.81218 0.83098 0.0
H486 H 0.73069 0.76833 0.84887 0.0
H487 H 0.76071 0.60743 0.75306 0.0
H488 H 0.73695 0.53888 0.7854 0.0
H489 H 0.70616 0.57265 0.82688 0.0
H490 H 0.69916 0.67505 0.83638 0.0
C491 C 0.70563 0.78435 0.83051 0.0
C492 C 0.72383 0.76493 0.80512 0.0
C493 C 0.72706 0.70469 0.79971 0.0
C494 C 0.74373 0.68516 0.77553 0.0
C495 C 0.74744 0.62475 0.7709 0.0
C496 C 0.73409 0.58484 0.78932 0.0
C497 C 0.71681 0.60386 0.81269 0.0
C498 C 0.71318 0.66292 0.81792 0.0
H499 H 0.85775 0.73557 0.73883 0.0
C500 C 0.82634 0.7114 0.7252 0.0
H501 H 0.74074 0.68013 0.71799 0.0
H502 H 0.72825 0.88291 0.81032 0.0
H503 H 0.74802 0.95163 0.77718 0.0
H504 H 0.76948 0.91805 0.73386 0.0
H505 H 0.77246 0.81559 0.72362 0.0
C506 C 0.77277 0.70443 0.73111 0.0
C507 C 0.75658 0.72576 0.7566 0.0
C508 C 0.75276 0.78604 0.76186 0.0
C509 C 0.73765 0.80557 0.78639 0.0
C510 C 0.73723 0.8658 0.79165 0.0
C511 C 0.74884 0.90572 0.77286 0.0
C512 C 0.76114 0.8868 0.74851 0.0
C513 C 0.76307 0.82777 0.74295 0.0
H514 H 0.86697 0.78293 0.21289 0.0
C515 C 0.90367 0.80786 0.22235 0.0
H516 H 0.94802 0.8402 0.25851 0.0
H517 H 0.74193 0.83096 0.3241 0.0
H518 H 0.75701 0.93428 0.32176 0.0
H519 H 0.82319 0.97353 0.29334 0.0
H520 H 0.87515 0.90967 0.26728 0.0
C521 C 0.91138 0.81563 0.24875 0.0
C522 C 0.87036 0.79132 0.26538 0.0
C523 C 0.83948 0.82925 0.28019 0.0
C524 C 0.8003 0.8066 0.29614 0.0
C525 C 0.77134 0.84563 0.31125 0.0
C526 C 0.7797 0.90514 0.31016 0.0
C527 C 0.817 0.92725 0.29419 0.0
C528 C 0.84667 0.89002 0.27936 0.0
H529 H 0.81373 0.66935 0.3368 0.0
C530 C 0.76924 0.68553 0.33413 0.0
H531 H 0.70661 0.73922 0.31127 0.0
H532 H 0.9296 0.7049 0.24338 0.0
H533 H 0.90925 0.60238 0.24295 0.0
H534 H 0.83169 0.56466 0.26551 0.0
H535 H 0.7756 0.62913 0.28942 0.0
C536 C 0.75091 0.7228 0.31422 0.0
C537 C 0.79111 0.74601 0.2969 0.0
C538 C 0.82058 0.70819 0.28137 0.0
C539 C 0.86208 0.73055 0.26658 0.0
C540 C 0.89491 0.691 0.25349 0.0
C541 C 0.88409 0.63183 0.2533 0.0
C542 C 0.84069 0.61056 0.26612 0.0
C543 C 0.80918 0.64805 0.28001 0.0
H544 H 0.32067 0.17874 0.59607 0.0
C545 C 0.35906 0.20312 0.59385 0.0
H546 H 0.40187 0.25161 0.56826 0.0
H547 H 0.17029 0.12417 0.4955 0.0
H548 H 0.21107 0.03241 0.51298 0.0
H549 H 0.3024 0.02872 0.54468 0.0
H550 H 0.35191 0.11688 0.55996 0.0
C551 C 0.36311 0.22784 0.57041 0.0
C552 C 0.31396 0.22828 0.54773 0.0
C553 C 0.28849 0.17589 0.53725 0.0
C554 C 0.23887 0.17763 0.51708 0.0
C555 C 0.21042 0.12513 0.50931 0.0
C556 C 0.23305 0.07214 0.51939 0.0
C557 C 0.28424 0.0701 0.53737 0.0
C558 C 0.31186 0.12117 0.54622 0.0
H559 H 0.20939 0.17643 0.45821 0.0
C560 C 0.17312 0.20583 0.45945 0.0
H561 H 0.13379 0.26291 0.48365 0.0
H562 H 0.35068 0.33726 0.56344 0.0
H563 H 0.31609 0.42793 0.54272 0.0
H564 H 0.23824 0.42994 0.50402 0.0
H565 H 0.19409 0.34128 0.48605 0.0
C566 C 0.17004 0.23368 0.48236 0.0
C567 C 0.21864 0.23125 0.50524 0.0
C568 C 0.24575 0.28344 0.5149 0.0
C569 C 0.29235 0.28208 0.53655 0.0
C570 C 0.31637 0.33527 0.54658 0.0
C571 C 0.29678 0.38785 0.53492 0.0
C572 C 0.25291 0.38899 0.51317 0.0
C573 C 0.22764 0.33763 0.50317 0.0
H574 H 0.9351 0.79532 0.55927 0.0
C575 C 0.91026 0.78158 0.57437 0.0
H576 H 0.82698 0.76306 0.58316 0.0
H577 H 0.68517 0.89057 0.48385 0.0
H578 H 0.68121 0.96608 0.51676 0.0
H579 H 0.74133 0.95889 0.56095 0.0
H580 H 0.80608 0.87634 0.57246 0.0
C581 C 0.85247 0.77632 0.56824 0.0
C582 C 0.82133 0.78376 0.54075 0.0
C583 C 0.78354 0.83199 0.5344 0.0
C584 C 0.74831 0.83576 0.50906 0.0
C585 C 0.71181 0.88498 0.50304 0.0
C586 C 0.70941 0.92874 0.52168 0.0
C587 C 0.7433 0.92472 0.54656 0.0
C588 C 0.78011 0.87706 0.55294 0.0
H589 H 0.63517 0.78123 0.48341 0.0
C590 C 0.65235 0.78042 0.46484 0.0
H591 H 0.72682 0.78772 0.44658 0.0
H592 H 0.8891 0.68472 0.5465 0.0
H593 H 0.89379 0.61029 0.51351 0.0
H594 H 0.8336 0.61739 0.46942 0.0
H595 H 0.76784 0.69864 0.45817 0.0
C596 C 0.709 0.79024 0.46495 0.0
C597 C 0.75037 0.79078 0.49029 0.0
C598 C 0.78997 0.74362 0.49625 0.0
C599 C 0.8252 0.73984 0.52159 0.0
C600 C 0.86223 0.69076 0.52743 0.0
C601 C 0.86524 0.6474 0.50869 0.0
C602 C 0.83129 0.65135 0.48388 0.0
C603 C 0.79379 0.69851 0.47767 0.0
H604 H 0.89258 0.76436 0.06036 0.0
C605 C 0.89898 0.72273 0.07043 0.0
H606 H 0.87026 0.63633 0.07052 0.0
H607 H 0.62615 0.71373 1.00554 0.0
H608 H 0.60034 0.69212 0.04853 0.0
H609 H 0.67559 0.66638 0.0864 0.0
H610 H 0.77716 0.6626 0.08154 0.0
C611 C 0.8677 0.67743 0.06013 0.0
C612 C 0.82239 0.68556 0.03642 0.0
C613 C 0.76305 0.6855 0.0394 0.0
C614 C 0.71958 0.69951 1.01748 0.0
C615 C 0.66087 0.702 1.02133 0.0
C616 C 0.64544 0.68999 0.04596 0.0
C617 C 0.68781 0.67558 0.06729 0.0
C618 C 0.74599 0.67349 0.0642 0.0
H619 H 0.65827 0.64549 0.96299 0.0
C620 C 0.65483 0.69052 0.95668 0.0
H621 H 0.69082 0.77393 0.963 0.0
H622 H 0.93161 0.68355 0.02339 0.0
H623 H 0.95761 0.70644 0.98049 0.0
H624 H 0.88238 0.73226 0.94263 0.0
H625 H 0.78064 0.73489 0.94737 0.0
C626 C 0.69079 0.72951 0.96981 0.0
C627 C 0.73558 0.71245 0.99254 0.0
C628 C 0.79481 0.71145 0.98944 0.0
C629 C 0.83825 0.69743 1.01135 0.0
C630 C 0.89697 0.69531 1.00755 0.0
C631 C 0.91246 0.70796 0.98299 0.0
C632 C 0.8701 0.72248 0.96167 0.0
C633 C 0.81188 0.724 0.9647 0.0
H634 H 0.43361 0.29929 0.06079 0.0
C635 C 0.41039 0.28695 0.07669 0.0
H636 H 0.3283 0.2723 0.08773 0.0
H637 H 0.18253 0.40773 0.99149 0.0
H638 H 0.18635 0.48284 0.02505 0.0
H639 H 0.25031 0.47196 0.06811 0.0
H640 H 0.31126 0.38607 0.07781 0.0
C641 C 0.35217 0.28427 0.07201 0.0
C642 C 0.31804 0.2933 0.04512 0.0
C643 C 0.28233 0.34339 0.03982 0.0
C644 C 0.24473 0.34925 1.01514 0.0
C645 C 0.21069 0.40043 1.01016 0.0
C646 C 0.21276 0.44402 0.02918 0.0
C647 C 0.24883 0.43792 0.05342 0.0
C648 C 0.28342 0.38836 0.05876 0.0
H649 H 0.12654 0.30262 0.99084 0.0
C650 C 0.14187 0.30164 0.97183 0.0
H651 H 0.21493 0.30358 0.95234 0.0
H652 H 0.38031 0.19091 0.04889 0.0
H653 H 0.37668 0.1163 1.01538 0.0
H654 H 0.31213 0.12672 0.97253 0.0
H655 H 0.25025 0.21146 0.96305 0.0
C656 C 0.19891 0.30691 0.97113 0.0
C657 C 0.24214 0.30445 0.99597 0.0
C658 C 0.27932 0.25512 1.00092 0.0
C659 C 0.31704 0.24935 0.02557 0.0
C660 C 0.3517 0.19836 0.03039 0.0
C661 C 0.34993 0.15493 1.01133 0.0
C662 C 0.31352 0.16074 0.98722 0.0
C663 C 0.27832 0.2099 0.98202 0.0
loop_
_geom_bond_atom_site_label_1
_geom_bond_atom_site_label_2
_geom_bond_distance
_geom_bond_site_symmetry_2
_ccdc_geom_bond_type
Cu0 N1 1.999 . S
Cu0 O6 1.974 1_455 S
Cu0 N11 1.985 1_455 S
Cu0 O20 1.959 . S
N1 Cu0 1.999 . S
N1 C3 1.263 . S
N1 C5 1.389 . S
N2 C3 1.358 . S
N2 C4 1.400 . S
C3 N1 1.263 . S
C3 N2 1.358 . S
C3 H9 0.930 . S
C4 N2 1.400 . S
C4 C5 1.351 . S
C4 H21 0.930 . S
C5 N1 1.389 . S
C5 C4 1.351 . S
C5 H10 0.930 . S
O6 Cu0 1.974 1_655 S
O6 C16 1.282 . S
C7 O8 1.261 . S
C7 O20 1.251 . S
O8 C7 1.261 . S
H9 C3 0.930 . S
H10 C5 0.930 . S
N11 Cu0 1.985 1_655 S
N11 C13 1.335 . S
N11 C14 1.390 . S
N12 C13 1.345 . S
N12 C15 1.336 . S
C13 N11 1.335 . S
C13 N12 1.345 . S
C13 H18 0.930 . S
C14 N11 1.390 . S
C14 C15 1.346 . S
C14 H19 0.930 . S
C15 N12 1.336 . S
C15 C14 1.346 . S
C15 H22 0.929 . S
C16 O6 1.282 . S
C16 O17 1.216 . S
O17 C16 1.216 . S
H18 C13 0.930 . S
H19 C14 0.930 . S
O20 Cu0 1.959 . S
O20 C7 1.251 . S
H21 C4 0.930 . S
H22 C15 0.929 . S
Cu23 N24 1.999 . S
Cu23 O29 1.974 . S
Cu23 N34 1.985 . S
Cu23 O43 1.959 . S
N24 Cu23 1.999 . S
N24 C26 1.263 . S
N24 C28 1.389 . S
N25 C26 1.358 . S
N25 C27 1.400 . S
C26 N24 1.263 . S
C26 N25 1.358 . S
C26 H32 0.930 . S
C27 N25 1.400 . S
C27 C28 1.351 . S
C27 H44 0.930 . S
C28 N24 1.389 . S
C28 C27 1.351 . S
C28 H33 0.930 . S
O29 Cu23 1.974 . S
O29 C39 1.282 . S
C30 O31 1.261 . S
C30 O43 1.251 . S
O31 C30 1.261 . S
H32 C26 0.930 . S
H33 C28 0.930 . S
N34 Cu23 1.985 . S
N34 C36 1.335 . S
N34 C37 1.390 . S
N35 C36 1.345 . S
N35 C38 1.336 . S
C36 N34 1.335 . S
C36 N35 1.345 . S
C36 H41 0.930 . S
C37 N34 1.390 . S
C37 C38 1.346 . S
C37 H42 0.930 . S
C38 N35 1.336 . S
C38 C37 1.346 . S
C38 H45 0.929 . S
C39 O29 1.282 . S
C39 O40 1.216 . S
O40 C39 1.216 . S
H41 C36 0.930 . S
H42 C37 0.930 . S
O43 Cu23 1.959 . S
O43 C30 1.251 . S
H44 C27 0.930 . S
H45 C38 0.929 . S
Cu46 N47 1.999 . S
Cu46 O52 1.974 . S
Cu46 N57 1.985 . S
Cu46 O66 1.959 . S
N47 Cu46 1.999 . S
N47 C49 1.263 . S
N47 C51 1.389 . S
N48 C49 1.358 . S
N48 C50 1.400 . S
C49 N47 1.263 . S
C49 N48 1.358 . S
C49 H55 0.930 . S
C50 N48 1.400 . S
C50 C51 1.351 . S
C50 H67 0.930 . S
C51 N47 1.389 . S
C51 C50 1.351 . S
C51 H56 0.930 . S
O52 Cu46 1.974 . S
O52 C62 1.282 1_655 S
C53 O54 1.261 . S
C53 O66 1.251 . S
O54 C53 1.261 . S
H55 C49 0.930 . S
H56 C51 0.930 . S
N57 Cu46 1.985 . S
N57 C59 1.335 . S
N57 C60 1.390 1_655 S
N58 C59 1.345 . S
N58 C61 1.336 1_655 S
C59 N57 1.335 . S
C59 N58 1.345 . S
C59 H64 0.930 . S
C60 N57 1.390 1_455 S
C60 C61 1.346 . S
C60 H65 0.930 . S
C61 N58 1.336 1_455 S
C61 C60 1.346 . S
C61 H68 0.929 . S
C62 O52 1.282 1_455 S
C62 O63 1.216 . S
O63 C62 1.216 . S
H64 C59 0.930 . S
H65 C60 0.930 . S
O66 Cu46 1.959 . S
O66 C53 1.251 . S
H67 C50 0.930 . S
H68 C61 0.929 . S
Cu69 N70 1.999 . S
Cu69 O75 1.974 . S
Cu69 N80 1.985 . S
Cu69 O89 1.959 . S
N70 Cu69 1.999 . S
N70 C72 1.263 . S
N70 C74 1.389 . S
N71 C72 1.358 . S
N71 C73 1.400 . S
C72 N70 1.263 . S
C72 N71 1.358 . S
C72 H78 0.930 . S
C73 N71 1.400 . S
C73 C74 1.351 . S
C73 H90 0.930 . S
C74 N70 1.389 . S
C74 C73 1.351 . S
C74 H79 0.930 . S
O75 Cu69 1.974 . S
O75 C85 1.282 . S
C76 O77 1.261 . S
C76 O89 1.251 . S
O77 C76 1.261 . S
H78 C72 0.930 . S
H79 C74 0.930 . S
N80 Cu69 1.985 . S
N80 C82 1.335 . S
N80 C83 1.390 . S
N81 C82 1.345 . S
N81 C84 1.336 . S
C82 N80 1.335 . S
C82 N81 1.345 . S
C82 H87 0.930 . S
C83 N80 1.390 . S
C83 C84 1.346 . S
C83 H88 0.930 . S
C84 N81 1.336 . S
C84 C83 1.346 . S
C84 H91 0.929 . S
C85 O75 1.282 . S
C85 O86 1.216 . S
O86 C85 1.216 . S
H87 C82 0.930 . S
H88 C83 0.930 . S
O89 Cu69 1.959 . S
O89 C76 1.251 . S
H90 C73 0.930 . S
H91 C84 0.929 . S
Cu92 N93 1.999 . S
Cu92 O98 1.974 . S
Cu92 N103 1.985 . S
Cu92 O112 1.959 . S
N93 Cu92 1.999 . S
N93 C95 1.263 . S
N93 C97 1.389 . S
N94 C95 1.358 . S
N94 C96 1.400 . S
C95 N93 1.263 . S
C95 N94 1.358 . S
C95 H101 0.930 . S
C96 N94 1.400 . S
C96 C97 1.351 . S
C96 H113 0.930 . S
C97 N93 1.389 . S
C97 C96 1.351 . S
C97 H102 0.930 . S
O98 Cu92 1.974 . S
O98 C108 1.282 . S
C99 O100 1.261 . S
C99 O112 1.251 . S
O100 C99 1.261 . S
H101 C95 0.930 . S
H102 C97 0.930 . S
N103 Cu92 1.985 . S
N103 C105 1.335 . S
N103 C106 1.390 . S
N104 C105 1.345 . S
N104 C107 1.336 . S
C105 N103 1.335 . S
C105 N104 1.345 . S
C105 H110 0.930 . S
C106 N103 1.390 . S
C106 C107 1.346 . S
C106 H111 0.930 . S
C107 N104 1.336 . S
C107 C106 1.346 . S
C107 H114 0.929 . S
C108 O98 1.282 . S
C108 O109 1.216 . S
O109 C108 1.216 . S
H110 C105 0.930 . S
H111 C106 0.930 . S
O112 Cu92 1.959 . S
O112 C99 1.251 . S
H113 C96 0.930 . S
H114 C107 0.929 . S
Cu115 N116 1.999 . S
Cu115 O121 1.974 1_655 S
Cu115 N126 1.985 1_655 S
Cu115 O135 1.959 . S
N116 Cu115 1.999 . S
N116 C118 1.263 . S
N116 C120 1.389 . S
N117 C118 1.358 . S
N117 C119 1.400 . S
C118 N116 1.263 . S
C118 N117 1.358 . S
C118 H124 0.930 . S
C119 N117 1.400 . S
C119 C120 1.351 . S
C119 H136 0.930 . S
C120 N116 1.389 . S
C120 C119 1.351 . S
C120 H125 0.930 . S
O121 Cu115 1.974 1_455 S
O121 C131 1.282 . S
C122 O123 1.261 . S
C122 O135 1.251 . S
O123 C122 1.261 . S
H124 C118 0.930 . S
H125 C120 0.930 . S
N126 Cu115 1.985 1_455 S
N126 C128 1.335 . S
N126 C129 1.390 . S
N127 C128 1.345 . S
N127 C130 1.336 . S
C128 N126 1.335 . S
C128 N127 1.345 . S
C128 H133 0.930 . S
C129 N126 1.390 . S
C129 C130 1.346 . S
C129 H134 0.930 . S
C130 N127 1.336 . S
C130 C129 1.346 . S
C130 H137 0.929 . S
C131 O121 1.282 . S
C131 O132 1.216 . S
O132 C131 1.216 . S
H133 C128 0.930 . S
H134 C129 0.930 . S
O135 Cu115 1.959 . S
O135 C122 1.251 . S
H136 C119 0.930 . S
H137 C130 0.929 . S
Cu138 N139 1.999 . S
Cu138 O144 1.974 . S
Cu138 N149 1.985 . S
Cu138 O158 1.959 . S
N139 Cu138 1.999 . S
N139 C141 1.263 . S
N139 C143 1.389 . S
N140 C141 1.358 . S
N140 C142 1.400 . S
C141 N139 1.263 . S
C141 N140 1.358 . S
C141 H147 0.930 . S
C142 N140 1.400 . S
C142 C143 1.351 . S
C142 H159 0.930 . S
C143 N139 1.389 . S
C143 C142 1.351 . S
C143 H148 0.930 . S
O144 Cu138 1.974 . S
O144 C154 1.282 . S
C145 O146 1.261 . S
C145 O158 1.251 . S
O146 C145 1.261 . S
H147 C141 0.930 . S
H148 C143 0.930 . S
N149 Cu138 1.985 . S
N149 C151 1.335 . S
N149 C152 1.390 . S
N150 C151 1.345 . S
N150 C153 1.336 . S
C151 N149 1.335 . S
C151 N150 1.345 . S
C151 H156 0.930 . S
C152 N149 1.390 . S
C152 C153 1.346 . S
C152 H157 0.930 . S
C153 N150 1.336 . S
C153 C152 1.346 . S
C153 H160 0.929 . S
C154 O144 1.282 . S
C154 O155 1.216 . S
O155 C154 1.216 . S
H156 C151 0.930 . S
H157 C152 0.930 . S
O158 Cu138 1.959 . S
O158 C145 1.251 . S
H159 C142 0.930 . S
H160 C153 0.929 . S
Cu161 N162 1.999 . S
Cu161 O167 1.974 . S
Cu161 N172 1.985 . S
Cu161 O181 1.959 . S
N162 Cu161 1.999 . S
N162 C164 1.263 . S
N162 C166 1.389 . S
N163 C164 1.358 . S
N163 C165 1.400 . S
C164 N162 1.263 . S
C164 N163 1.358 . S
C164 H170 0.930 . S
C165 N163 1.400 . S
C165 C166 1.351 . S
C165 H182 0.930 . S
C166 N162 1.389 . S
C166 C165 1.351 . S
C166 H171 0.930 . S
O167 Cu161 1.974 . S
O167 C177 1.282 1_455 S
C168 O169 1.261 . S
C168 O181 1.251 . S
O169 C168 1.261 . S
H170 C164 0.930 . S
H171 C166 0.930 . S
N172 Cu161 1.985 . S
N172 C174 1.335 . S
N172 C175 1.390 1_455 S
N173 C174 1.345 . S
N173 C176 1.336 1_455 S
C174 N172 1.335 . S
C174 N173 1.345 . S
C174 H179 0.930 . S
C175 N172 1.390 1_655 S
C175 C176 1.346 . S
C175 H180 0.930 . S
C176 N173 1.336 1_655 S
C176 C175 1.346 . S
C176 H183 0.929 . S
C177 O167 1.282 1_655 S
C177 O178 1.216 . S
O178 C177 1.216 . S
H179 C174 0.930 . S
H180 C175 0.930 . S
O181 Cu161 1.959 . S
O181 C168 1.251 . S
H182 C165 0.930 . S
H183 C176 0.929 . S
H184 C185 0.951 . S
C185 H184 0.951 . S
C185 C191 1.265 . S
H186 C191 0.950 1_455 S
H187 C195 0.949 . S
H188 C196 0.950 . S
H189 C197 0.951 . S
H190 C198 0.951 . S
C191 C185 1.265 . S
C191 H186 0.950 1_655 S
C191 C192 1.478 . S
C192 C191 1.478 . S
C192 C193 1.397 . S
C192 C209 1.394 . S
C193 C192 1.397 . S
C193 C194 1.438 . S
C193 C198 1.429 . S
C194 C193 1.438 . S
C194 C195 1.428 . S
C194 C207 1.394 . S
C195 H187 0.949 . S
C195 C194 1.428 . S
C195 C196 1.345 . S
C196 H188 0.950 . S
C196 C195 1.345 . S
C196 C197 1.424 . S
C197 H189 0.951 . S
C197 C196 1.424 . S
C197 C198 1.347 . S
C198 H190 0.951 . S
C198 C193 1.429 . S
C198 C197 1.347 . S
H199 C200 0.938 1_455 S
C200 H199 0.938 1_655 S
C200 C206 1.273 . S
H201 C206 0.950 . S
H202 C210 0.949 1_455 S
H203 C211 0.950 . S
H204 C212 0.951 . S
H205 C213 0.951 . S
C206 C200 1.273 . S
C206 H201 0.950 . S
C206 C207 1.478 . S
C207 C194 1.394 . S
C207 C206 1.478 . S
C207 C208 1.397 . S
C208 C207 1.397 . S
C208 C209 1.438 . S
C208 C213 1.429 . S
C209 C192 1.394 . S
C209 C208 1.438 . S
C209 C210 1.428 . S
C210 H202 0.949 1_655 S
C210 C209 1.428 . S
C210 C211 1.345 . S
C211 H203 0.950 . S
C211 C210 1.345 . S
C211 C212 1.424 . S
C212 H204 0.951 . S
C212 C211 1.424 . S
C212 C213 1.347 . S
C213 H205 0.951 . S
C213 C208 1.429 . S
C213 C212 1.347 . S
H214 C215 0.951 . S
C215 H214 0.951 . S
C215 C221 1.265 . S
H216 C221 0.950 . S
H217 C225 0.949 . S
H218 C226 0.950 . S
H219 C227 0.951 . S
H220 C228 0.951 . S
C221 C215 1.265 . S
C221 H216 0.950 . S
C221 C222 1.478 . S
C222 C221 1.478 . S
C222 C223 1.397 . S
C222 C239 1.394 . S
C223 C222 1.397 . S
C223 C224 1.438 . S
C223 C228 1.429 . S
C224 C223 1.438 . S
C224 C225 1.428 . S
C224 C237 1.394 . S
C225 H217 0.949 . S
C225 C224 1.428 . S
C225 C226 1.345 . S
C226 H218 0.950 . S
C226 C225 1.345 . S
C226 C227 1.424 . S
C227 H219 0.951 . S
C227 C226 1.424 . S
C227 C228 1.347 . S
C228 H220 0.951 . S
C228 C223 1.429 . S
C228 C227 1.347 . S
H229 C230 0.951 . S
C230 H229 0.951 . S
C230 C236 1.265 . S
H231 C236 0.950 . S
H232 C240 0.949 . S
H233 C241 0.950 . S
H234 C242 0.951 . S
H235 C243 0.951 . S
C236 C230 1.265 . S
C236 H231 0.950 . S
C236 C237 1.478 . S
C237 C224 1.394 . S
C237 C236 1.478 . S
C237 C238 1.397 . S
C238 C237 1.397 . S
C238 C239 1.438 . S
C238 C243 1.429 . S
C239 C222 1.394 . S
C239 C238 1.438 . S
C239 C240 1.428 . S
C240 H232 0.949 . S
C240 C239 1.428 . S
C240 C241 1.345 . S
C241 H233 0.950 . S
C241 C240 1.345 . S
C241 C242 1.424 . S
C242 H234 0.951 . S
C242 C241 1.424 . S
C242 C243 1.347 . S
C243 H235 0.951 . S
C243 C238 1.429 . S
C243 C242 1.347 . S
H244 C245 0.951 . S
C245 H244 0.951 . S
C245 C251 1.265 . S
H246 C251 0.950 . S
H247 C255 0.949 1_565 S
H248 C256 0.950 . S
H249 C257 0.951 . S
H250 C258 0.951 . S
C251 C245 1.265 . S
C251 H246 0.950 . S
C251 C252 1.478 1_554 S
C252 C251 1.478 1_556 S
C252 C253 1.397 . S
C252 C269 1.394 1_546 S
C253 C252 1.397 . S
C253 C254 1.432 1_545 S
C253 C258 1.429 . S
C254 C253 1.432 1_565 S
C254 C255 1.426 1_565 S
C254 C267 1.401 . S
C255 H247 0.949 1_545 S
C255 C254 1.426 1_545 S
C255 C256 1.345 . S
C256 H248 0.950 . S
C256 C255 1.345 . S
C256 C257 1.424 . S
C257 H249 0.951 . S
C257 C256 1.424 . S
C257 C258 1.347 . S
C258 H250 0.951 . S
C258 C253 1.429 . S
C258 C257 1.347 . S
H259 C260 0.951 . S
C260 H259 0.951 . S
C260 C266 1.265 . S
H261 C266 0.950 . S
H262 C270 0.949 . S
H263 C271 0.950 . S
H264 C272 0.951 . S
H265 C273 0.951 . S
C266 C260 1.265 . S
C266 H261 0.950 . S
C266 C267 1.478 . S
C267 C254 1.401 . S
C267 C266 1.478 . S
C267 C268 1.397 . S
C268 C267 1.397 . S
C268 C269 1.438 1_556 S
C268 C273 1.429 . S
C269 C252 1.394 1_564 S
C269 C268 1.438 1_554 S
C269 C270 1.428 . S
C270 H262 0.949 . S
C270 C269 1.428 . S
C270 C271 1.345 . S
C271 H263 0.950 . S
C271 C270 1.345 . S
C271 C272 1.424 . S
C272 H264 0.951 . S
C272 C271 1.424 . S
C272 C273 1.347 1_554 S
C273 H265 0.951 . S
C273 C268 1.429 . S
C273 C272 1.347 1_556 S
H274 C275 0.951 1_655 S
C275 H274 0.951 1_455 S
C275 C281 1.265 . S
H276 C281 0.950 . S
H277 C285 0.949 1_545 S
H278 C286 0.950 . S
H279 C287 0.951 . S
H280 C288 0.951 . S
C281 C275 1.265 . S
C281 H276 0.950 . S
C281 C282 1.478 . S
C282 C281 1.478 . S
C282 C283 1.397 . S
C282 C299 1.394 1_455 S
C283 C282 1.397 . S
C283 C284 1.438 . S
C283 C288 1.429 . S
C284 C283 1.438 . S
C284 C285 1.428 1_554 S
C284 C297 1.394 1_564 S
C285 H277 0.949 1_565 S
C285 C284 1.428 1_556 S
C285 C286 1.345 . S
C286 H278 0.950 . S
C286 C285 1.345 . S
C286 C287 1.424 1_556 S
C287 H279 0.951 . S
C287 C286 1.424 1_554 S
C287 C288 1.347 . S
C288 H280 0.951 . S
C288 C283 1.429 . S
C288 C287 1.347 . S
H289 C290 0.951 . S
C290 H289 0.951 . S
C290 C296 1.265 1_455 S
H291 C296 0.950 . S
H292 C300 0.949 . S
H293 C301 0.950 . S
H294 C302 0.951 . S
H295 C303 0.951 1_556 S
C296 C290 1.265 1_655 S
C296 H291 0.950 . S
C296 C297 1.490 1_655 S
C297 C284 1.394 1_546 S
C297 C296 1.490 1_455 S
C297 C298 1.385 1_456 S
C298 C297 1.385 1_654 S
C298 C299 1.438 1_545 S
C298 C303 1.429 . S
C299 C282 1.394 1_655 S
C299 C298 1.438 1_565 S
C299 C300 1.428 . S
C300 H292 0.949 . S
C300 C299 1.428 . S
C300 C301 1.345 1_565 S
C301 H293 0.950 . S
C301 C300 1.345 1_545 S
C301 C302 1.424 . S
C302 H294 0.951 . S
C302 C301 1.424 . S
C302 C303 1.347 . S
C303 H295 0.951 1_554 S
C303 C298 1.429 . S
C303 C302 1.347 . S
H304 C305 0.951 . S
C305 H304 0.951 . S
C305 C311 1.265 . S
H306 C311 0.950 . S
H307 C315 0.949 . S
H308 C316 0.950 . S
H309 C317 0.951 . S
H310 C318 0.951 . S
C311 C305 1.265 . S
C311 H306 0.950 . S
C311 C312 1.478 . S
C312 C311 1.478 . S
C312 C313 1.397 . S
C312 C329 1.394 . S
C313 C312 1.397 . S
C313 C314 1.438 . S
C313 C318 1.429 . S
C314 C313 1.438 . S
C314 C315 1.428 . S
C314 C327 1.394 . S
C315 H307 0.949 . S
C315 C314 1.428 . S
C315 C316 1.345 . S
C316 H308 0.950 . S
C316 C315 1.345 . S
C316 C317 1.424 . S
C317 H309 0.951 . S
C317 C316 1.424 . S
C317 C318 1.347 . S
C318 H310 0.951 . S
C318 C313 1.429 . S
C318 C317 1.347 . S
H319 C320 0.951 . S
C320 H319 0.951 . S
C320 C326 1.265 . S
H321 C326 0.950 . S
H322 C330 0.949 . S
H323 C331 0.950 . S
H324 C332 0.951 . S
H325 C333 0.951 . S
C326 C320 1.265 . S
C326 H321 0.950 . S
C326 C327 1.478 . S
C327 C314 1.394 . S
C327 C326 1.478 . S
C327 C328 1.397 . S
C328 C327 1.397 . S
C328 C329 1.438 . S
C328 C333 1.429 . S
C329 C312 1.394 . S
C329 C328 1.438 . S
C329 C330 1.428 . S
C330 H322 0.949 . S
C330 C329 1.428 . S
C330 C331 1.345 . S
C331 H323 0.950 . S
C331 C330 1.345 . S
C331 C332 1.424 . S
C332 H324 0.951 . S
C332 C331 1.424 . S
C332 C333 1.347 . S
C333 H325 0.951 . S
C333 C328 1.429 . S
C333 C332 1.347 . S
H334 C335 0.951 . S
C335 H334 0.951 . S
C335 C341 1.265 . S
H336 C341 0.950 . S
H337 C345 0.949 . S
H338 C346 0.950 . S
H339 C347 0.951 . S
H340 C348 0.951 . S
C341 C335 1.265 . S
C341 H336 0.950 . S
C341 C342 1.478 . S
C342 C341 1.478 . S
C342 C343 1.397 . S
C342 C359 1.394 . S
C343 C342 1.397 . S
C343 C344 1.438 . S
C343 C348 1.429 . S
C344 C343 1.438 . S
C344 C345 1.428 . S
C344 C357 1.394 . S
C345 H337 0.949 . S
C345 C344 1.428 . S
C345 C346 1.345 . S
C346 H338 0.950 . S
C346 C345 1.345 . S
C346 C347 1.424 . S
C347 H339 0.951 . S
C347 C346 1.424 . S
C347 C348 1.347 . S
C348 H340 0.951 . S
C348 C343 1.429 . S
C348 C347 1.347 . S
H349 C350 0.951 . S
C350 H349 0.951 . S
C350 C356 1.265 . S
H351 C356 0.950 . S
H352 C360 0.949 . S
H353 C361 0.950 . S
H354 C362 0.951 . S
H355 C363 0.951 . S
C356 C350 1.265 . S
C356 H351 0.950 . S
C356 C357 1.478 . S
C357 C344 1.394 . S
C357 C356 1.478 . S
C357 C358 1.397 . S
C358 C357 1.397 . S
C358 C359 1.438 . S
C358 C363 1.429 . S
C359 C342 1.394 . S
C359 C358 1.438 . S
C359 C360 1.428 . S
C360 H352 0.949 . S
C360 C359 1.428 . S
C360 C361 1.345 . S
C361 H353 0.950 . S
C361 C360 1.345 . S
C361 C362 1.424 . S
C362 H354 0.951 . S
C362 C361 1.424 . S
C362 C363 1.347 . S
C363 H355 0.951 . S
C363 C358 1.429 . S
C363 C362 1.347 . S
H364 C365 0.951 . S
C365 H364 0.951 . S
C365 C371 1.265 . S
H366 C371 0.950 . S
H367 C375 0.949 . S
H368 C376 0.950 . S
H369 C377 0.951 . S
H370 C378 0.951 . S
C371 C365 1.265 . S
C371 H366 0.950 . S
C371 C372 1.478 . S
C372 C371 1.478 . S
C372 C373 1.397 . S
C372 C389 1.394 . S
C373 C372 1.397 . S
C373 C374 1.438 . S
C373 C378 1.429 . S
C374 C373 1.438 . S
C374 C375 1.428 . S
C374 C387 1.394 . S
C375 H367 0.949 . S
C375 C374 1.428 . S
C375 C376 1.345 . S
C376 H368 0.950 . S
C376 C375 1.345 . S
C376 C377 1.424 . S
C377 H369 0.951 . S
C377 C376 1.424 . S
C377 C378 1.347 . S
C378 H370 0.951 . S
C378 C373 1.429 . S
C378 C377 1.347 . S
H379 C380 0.951 . S
C380 H379 0.951 . S
C380 C386 1.265 . S
H381 C386 0.950 . S
H382 C390 0.949 . S
H383 C391 0.950 . S
H384 C392 0.951 . S
H385 C393 0.951 . S
C386 C380 1.265 . S
C386 H381 0.950 . S
C386 C387 1.478 . S
C387 C374 1.394 . S
C387 C386 1.478 . S
C387 C388 1.397 . S
C388 C387 1.397 . S
C388 C389 1.438 . S
C388 C393 1.429 . S
C389 C372 1.394 . S
C389 C388 1.438 . S
C389 C390 1.428 . S
C390 H382 0.949 . S
C390 C389 1.428 . S
C390 C391 1.345 . S
C391 H383 0.950 . S
C391 C390 1.345 . S
C391 C392 1.424 . S
C392 H384 0.951 . S
C392 C391 1.424 . S
C392 C393 1.347 . S
C393 H385 0.951 . S
C393 C388 1.429 . S
C393 C392 1.347 . S
H394 C395 0.951 . S
C395 H394 0.951 . S
C395 C401 1.265 . S
H396 C401 0.950 . S
H397 C405 0.949 . S
H398 C406 0.950 . S
H399 C407 0.951 . S
H400 C408 0.951 . S
C401 C395 1.265 . S
C401 H396 0.950 . S
C401 C402 1.478 . S
C402 C401 1.478 . S
C402 C403 1.397 . S
C402 C419 1.394 . S
C403 C402 1.397 . S
C403 C404 1.438 . S
C403 C408 1.429 . S
C404 C403 1.438 . S
C404 C405 1.428 . S
C404 C417 1.394 . S
C405 H397 0.949 . S
C405 C404 1.428 . S
C405 C406 1.345 . S
C406 H398 0.950 . S
C406 C405 1.345 . S
C406 C407 1.424 . S
C407 H399 0.951 . S
C407 C406 1.424 . S
C407 C408 1.347 . S
C408 H400 0.951 . S
C408 C403 1.429 . S
C408 C407 1.347 . S
H409 C410 0.951 . S
C410 H409 0.951 . S
C410 C416 1.265 . S
H411 C416 0.950 . S
H412 C420 0.949 . S
H413 C421 0.950 . S
H414 C422 0.951 . S
H415 C423 0.951 . S
C416 C410 1.265 . S
C416 H411 0.950 . S
C416 C417 1.478 . S
C417 C404 1.394 . S
C417 C416 1.478 . S
C417 C418 1.397 . S
C418 C417 1.397 . S
C418 C419 1.438 . S
C418 C423 1.429 . S
C419 C402 1.394 . S
C419 C418 1.438 . S
C419 C420 1.428 . S
C420 H412 0.949 . S
C420 C419 1.428 . S
C420 C421 1.345 . S
C421 H413 0.950 . S
C421 C420 1.345 . S
C421 C422 1.424 . S
C422 H414 0.951 . S
C422 C421 1.424 . S
C422 C423 1.347 . S
C423 H415 0.951 . S
C423 C418 1.429 . S
C423 C422 1.347 . S
H424 C425 0.951 . S
C425 H424 0.951 . S
C425 C431 1.265 . S
H426 C431 0.950 . S
H427 C435 0.949 . S
H428 C436 0.950 . S
H429 C437 0.951 . S
H430 C438 0.951 . S
C431 C425 1.265 . S
C431 H426 0.950 . S
C431 C432 1.478 . S
C432 C431 1.478 . S
C432 C433 1.397 . S
C432 C449 1.394 . S
C433 C432 1.397 . S
C433 C434 1.438 . S
C433 C438 1.429 . S
C434 C433 1.438 . S
C434 C435 1.428 . S
C434 C447 1.394 . S
C435 H427 0.949 . S
C435 C434 1.428 . S
C435 C436 1.345 . S
C436 H428 0.950 . S
C436 C435 1.345 . S
C436 C437 1.424 . S
C437 H429 0.951 . S
C437 C436 1.424 . S
C437 C438 1.347 . S
C438 H430 0.951 . S
C438 C433 1.429 . S
C438 C437 1.347 . S
H439 C440 0.951 . S
C440 H439 0.951 . S
C440 C446 1.265 . S
H441 C446 0.950 . S
H442 C450 0.949 . S
H443 C451 0.950 . S
H444 C452 0.951 . S
H445 C453 0.951 . S
C446 C440 1.265 . S
C446 H441 0.950 . S
C446 C447 1.478 . S
C447 C434 1.394 . S
C447 C446 1.478 . S
C447 C448 1.397 . S
C448 C447 1.397 . S
C448 C449 1.438 . S
C448 C453 1.429 . S
C449 C432 1.394 . S
C449 C448 1.438 . S
C449 C450 1.428 . S
C450 H442 0.949 . S
C450 C449 1.428 . S
C450 C451 1.345 . S
C451 H443 0.950 . S
C451 C450 1.345 . S
C451 C452 1.424 . S
C452 H444 0.951 . S
C452 C451 1.424 . S
C452 C453 1.347 . S
C453 H445 0.951 . S
C453 C448 1.429 . S
C453 C452 1.347 . S
H454 C455 0.951 . S
C455 H454 0.951 . S
C455 C461 1.265 . S
H456 C461 0.950 . S
H457 C465 0.949 . S
H458 C466 0.950 . S
H459 C467 0.951 . S
H460 C468 0.951 . S
C461 C455 1.265 . S
C461 H456 0.950 . S
C461 C462 1.478 . S
C462 C461 1.478 . S
C462 C463 1.397 . S
C462 C479 1.394 . S
C463 C462 1.397 . S
C463 C464 1.438 . S
C463 C468 1.429 . S
C464 C463 1.438 . S
C464 C465 1.428 . S
C464 C477 1.394 . S
C465 H457 0.949 . S
C465 C464 1.428 . S
C465 C466 1.345 . S
C466 H458 0.950 . S
C466 C465 1.345 . S
C466 C467 1.424 . S
C467 H459 0.951 . S
C467 C466 1.424 . S
C467 C468 1.347 . S
C468 H460 0.951 . S
C468 C463 1.429 . S
C468 C467 1.347 . S
H469 C470 0.951 . S
C470 H469 0.951 . S
C470 C476 1.265 . S
H471 C476 0.950 . S
H472 C480 0.949 . S
H473 C481 0.950 . S
H474 C482 0.951 . S
H475 C483 0.951 . S
C476 C470 1.265 . S
C476 H471 0.950 . S
C476 C477 1.478 . S
C477 C464 1.394 . S
C477 C476 1.478 . S
C477 C478 1.397 . S
C478 C477 1.397 . S
C478 C479 1.438 . S
C478 C483 1.429 . S
C479 C462 1.394 . S
C479 C478 1.438 . S
C479 C480 1.428 . S
C480 H472 0.949 . S
C480 C479 1.428 . S
C480 C481 1.345 . S
C481 H473 0.950 . S
C481 C480 1.345 . S
C481 C482 1.424 . S
C482 H474 0.951 . S
C482 C481 1.424 . S
C482 C483 1.347 . S
C483 H475 0.951 . S
C483 C478 1.429 . S
C483 C482 1.347 . S
H484 C485 0.951 . S
C485 H484 0.951 . S
C485 C491 1.265 . S
H486 C491 0.950 . S
H487 C495 0.949 . S
H488 C496 0.950 . S
H489 C497 0.951 . S
H490 C498 0.951 . S
C491 C485 1.265 . S
C491 H486 0.950 . S
C491 C492 1.478 . S
C492 C491 1.478 . S
C492 C493 1.397 . S
C492 C509 1.394 . S
C493 C492 1.397 . S
C493 C494 1.438 . S
C493 C498 1.429 . S
C494 C493 1.438 . S
C494 C495 1.428 . S
C494 C507 1.394 . S
C495 H487 0.949 . S
C495 C494 1.428 . S
C495 C496 1.345 . S
C496 H488 0.950 . S
C496 C495 1.345 . S
C496 C497 1.424 . S
C497 H489 0.951 . S
C497 C496 1.424 . S
C497 C498 1.347 . S
C498 H490 0.951 . S
C498 C493 1.429 . S
C498 C497 1.347 . S
H499 C500 0.951 . S
C500 H499 0.951 . S
C500 C506 1.265 . S
H501 C506 0.950 . S
H502 C510 0.949 . S
H503 C511 0.950 . S
H504 C512 0.951 . S
H505 C513 0.951 . S
C506 C500 1.265 . S
C506 H501 0.950 . S
C506 C507 1.478 . S
C507 C494 1.394 . S
C507 C506 1.478 . S
C507 C508 1.397 . S
C508 C507 1.397 . S
C508 C509 1.438 . S
C508 C513 1.429 . S
C509 C492 1.394 . S
C509 C508 1.438 . S
C509 C510 1.428 . S
C510 H502 0.949 . S
C510 C509 1.428 . S
C510 C511 1.345 . S
C511 H503 0.950 . S
C511 C510 1.345 . S
C511 C512 1.424 . S
C512 H504 0.951 . S
C512 C511 1.424 . S
C512 C513 1.347 . S
C513 H505 0.951 . S
C513 C508 1.429 . S
C513 C512 1.347 . S
H514 C515 0.951 . S
C515 H514 0.951 . S
C515 C521 1.265 . S
H516 C521 0.950 . S
H517 C525 0.949 . S
H518 C526 0.950 . S
H519 C527 0.951 . S
H520 C528 0.951 . S
C521 C515 1.265 . S
C521 H516 0.950 . S
C521 C522 1.478 . S
C522 C521 1.478 . S
C522 C523 1.397 . S
C522 C539 1.394 . S
C523 C522 1.397 . S
C523 C524 1.438 . S
C523 C528 1.429 . S
C524 C523 1.438 . S
C524 C525 1.428 . S
C524 C537 1.394 . S
C525 H517 0.949 . S
C525 C524 1.428 . S
C525 C526 1.345 . S
C526 H518 0.950 . S
C526 C525 1.345 . S
C526 C527 1.424 . S
C527 H519 0.951 . S
C527 C526 1.424 . S
C527 C528 1.347 . S
C528 H520 0.951 . S
C528 C523 1.429 . S
C528 C527 1.347 . S
H529 C530 0.951 . S
C530 H529 0.951 . S
C530 C536 1.265 . S
H531 C536 0.950 . S
H532 C540 0.949 . S
H533 C541 0.950 . S
H534 C542 0.951 . S
H535 C543 0.951 . S
C536 C530 1.265 . S
C536 H531 0.950 . S
C536 C537 1.478 . S
C537 C524 1.394 . S
C537 C536 1.478 . S
C537 C538 1.397 . S
C538 C537 1.397 . S
C538 C539 1.438 . S
C538 C543 1.429 . S
C539 C522 1.394 . S
C539 C538 1.438 . S
C539 C540 1.428 . S
C540 H532 0.949 . S
C540 C539 1.428 . S
C540 C541 1.345 . S
C541 H533 0.950 . S
C541 C540 1.345 . S
C541 C542 1.424 . S
C542 H534 0.951 . S
C542 C541 1.424 . S
C542 C543 1.347 . S
C543 H535 0.951 . S
C543 C538 1.429 . S
C543 C542 1.347 . S
H544 C545 0.951 . S
C545 H544 0.951 . S
C545 C551 1.265 . S
H546 C551 0.950 . S
H547 C555 0.949 . S
H548 C556 0.950 . S
H549 C557 0.951 . S
H550 C558 0.951 . S
C551 C545 1.265 . S
C551 H546 0.950 . S
C551 C552 1.478 . S
C552 C551 1.478 . S
C552 C553 1.397 . S
C552 C569 1.394 . S
C553 C552 1.397 . S
C553 C554 1.438 . S
C553 C558 1.429 . S
C554 C553 1.438 . S
C554 C555 1.428 . S
C554 C567 1.394 . S
C555 H547 0.949 . S
C555 C554 1.428 . S
C555 C556 1.345 . S
C556 H548 0.950 . S
C556 C555 1.345 . S
C556 C557 1.424 . S
C557 H549 0.951 . S
C557 C556 1.424 . S
C557 C558 1.347 . S
C558 H550 0.951 . S
C558 C553 1.429 . S
C558 C557 1.347 . S
H559 C560 0.951 . S
C560 H559 0.951 . S
C560 C566 1.265 . S
H561 C566 0.950 . S
H562 C570 0.949 . S
H563 C571 0.950 . S
H564 C572 0.951 . S
H565 C573 0.951 . S
C566 C560 1.265 . S
C566 H561 0.950 . S
C566 C567 1.478 . S
C567 C554 1.394 . S
C567 C566 1.478 . S
C567 C568 1.397 . S
C568 C567 1.397 . S
C568 C569 1.438 . S
C568 C573 1.429 . S
C569 C552 1.394 . S
C569 C568 1.438 . S
C569 C570 1.428 . S
C570 H562 0.949 . S
C570 C569 1.428 . S
C570 C571 1.345 . S
C571 H563 0.950 . S
C571 C570 1.345 . S
C571 C572 1.424 . S
C572 H564 0.951 . S
C572 C571 1.424 . S
C572 C573 1.347 . S
C573 H565 0.951 . S
C573 C568 1.429 . S
C573 C572 1.347 . S
H574 C575 0.951 . S
C575 H574 0.951 . S
C575 C581 1.265 . S
H576 C581 0.950 . S
H577 C585 0.949 . S
H578 C586 0.950 . S
H579 C587 0.951 . S
H580 C588 0.951 . S
C581 C575 1.265 . S
C581 H576 0.950 . S
C581 C582 1.478 . S
C582 C581 1.478 . S
C582 C583 1.397 . S
C582 C599 1.394 . S
C583 C582 1.397 . S
C583 C584 1.438 . S
C583 C588 1.429 . S
C584 C583 1.438 . S
C584 C585 1.428 . S
C584 C597 1.394 . S
C585 H577 0.949 . S
C585 C584 1.428 . S
C585 C586 1.345 . S
C586 H578 0.950 . S
C586 C585 1.345 . S
C586 C587 1.424 . S
C587 H579 0.951 . S
C587 C586 1.424 . S
C587 C588 1.347 . S
C588 H580 0.951 . S
C588 C583 1.429 . S
C588 C587 1.347 . S
H589 C590 0.951 . S
C590 H589 0.951 . S
C590 C596 1.265 . S
H591 C596 0.950 . S
H592 C600 0.949 . S
H593 C601 0.950 . S
H594 C602 0.951 . S
H595 C603 0.951 . S
C596 C590 1.265 . S
C596 H591 0.950 . S
C596 C597 1.478 . S
C597 C584 1.394 . S
C597 C596 1.478 . S
C597 C598 1.397 . S
C598 C597 1.397 . S
C598 C599 1.438 . S
C598 C603 1.429 . S
C599 C582 1.394 . S
C599 C598 1.438 . S
C599 C600 1.428 . S
C600 H592 0.949 . S
C600 C599 1.428 . S
C600 C601 1.345 . S
C601 H593 0.950 . S
C601 C600 1.345 . S
C601 C602 1.424 . S
C602 H594 0.951 . S
C602 C601 1.424 . S
C602 C603 1.347 . S
C603 H595 0.951 . S
C603 C598 1.429 . S
C603 C602 1.347 . S
H604 C605 0.951 . S
C605 H604 0.951 . S
C605 C611 1.265 . S
H606 C611 0.950 . S
H607 C615 0.949 . S
H608 C616 0.950 . S
H609 C617 0.951 . S
H610 C618 0.951 . S
C611 C605 1.265 . S
C611 H606 0.950 . S
C611 C612 1.478 . S
C612 C611 1.478 . S
C612 C613 1.397 . S
C612 C629 1.394 . S
C613 C612 1.397 . S
C613 C614 1.438 1_554 S
C613 C618 1.429 . S
C614 C613 1.438 1_556 S
C614 C615 1.428 . S
C614 C627 1.394 . S
C615 H607 0.949 . S
C615 C614 1.428 . S
C615 C616 1.345 1_556 S
C616 H608 0.950 . S
C616 C615 1.345 1_554 S
C616 C617 1.424 . S
C617 H609 0.951 . S
C617 C616 1.424 . S
C617 C618 1.347 . S
C618 H610 0.951 . S
C618 C613 1.429 . S
C618 C617 1.347 . S
H619 C620 0.951 . S
C620 H619 0.951 . S
C620 C626 1.265 . S
H621 C626 0.950 . S
H622 C630 0.949 . S
H623 C631 0.950 . S
H624 C632 0.951 . S
H625 C633 0.951 . S
C626 C620 1.265 . S
C626 H621 0.950 . S
C626 C627 1.478 . S
C627 C614 1.394 . S
C627 C626 1.478 . S
C627 C628 1.397 . S
C628 C627 1.397 . S
C628 C629 1.438 1_556 S
C628 C633 1.429 . S
C629 C612 1.394 . S
C629 C628 1.438 1_554 S
C629 C630 1.428 . S
C630 H622 0.949 . S
C630 C629 1.428 . S
C630 C631 1.345 1_554 S
C631 H623 0.950 . S
C631 C630 1.345 1_556 S
C631 C632 1.424 . S
C632 H624 0.951 . S
C632 C631 1.424 . S
C632 C633 1.347 . S
C633 H625 0.951 . S
C633 C628 1.429 . S
C633 C632 1.347 . S
H634 C635 0.951 . S
C635 H634 0.951 . S
C635 C641 1.265 . S
H636 C641 0.950 . S
H637 C645 0.949 . S
H638 C646 0.950 . S
H639 C647 0.951 . S
H640 C648 0.951 . S
C641 C635 1.265 . S
C641 H636 0.950 . S
C641 C642 1.478 . S
C642 C641 1.478 . S
C642 C643 1.397 . S
C642 C659 1.394 . S
C643 C642 1.397 . S
C643 C644 1.438 1_554 S
C643 C648 1.429 . S
C644 C643 1.438 1_556 S
C644 C645 1.428 . S
C644 C657 1.394 . S
C645 H637 0.949 . S
C645 C644 1.428 . S
C645 C646 1.345 . S
C646 H638 0.950 . S
C646 C645 1.345 . S
C646 C647 1.424 1_556 S
C647 H639 0.951 . S
C647 C646 1.424 1_554 S
C647 C648 1.347 . S
C648 H640 0.951 . S
C648 C643 1.429 . S
C648 C647 1.347 . S
H649 C650 0.951 . S
C650 H649 0.951 . S
C650 C656 1.265 . S
H651 C656 0.950 . S
H652 C660 0.949 . S
H653 C661 0.950 . S
H654 C662 0.951 . S
H655 C663 0.951 . S
C656 C650 1.265 . S
C656 H651 0.950 . S
C656 C657 1.478 . S
C657 C644 1.394 . S
C657 C656 1.478 . S
C657 C658 1.397 . S
C658 C657 1.397 . S
C658 C659 1.438 1_556 S
C658 C663 1.429 . S
C659 C642 1.394 . S
C659 C658 1.438 1_554 S
C659 C660 1.428 . S
C660 H652 0.949 . S
C660 C659 1.428 . S
C660 C661 1.345 . S
C661 H653 0.950 . S
C661 C660 1.345 . S
C661 C662 1.424 1_554 S
C662 H654 0.951 . S
C662 C661 1.424 1_556 S
C662 C663 1.347 . S
C663 H655 0.951 . S
C663 C658 1.429 . S
C663 C662 1.347 . S
C185 C16 1.719 . S
C200 N58 1.767 . S
C215 N81 1.746 . S
C230 C39 1.642 . S
C245 N150 1.742 . S
C260 C108 1.684 . S
C275 C131 1.673 . S
C290 N173 1.761 . S
C305 C154 1.879 . S
C320 N12 1.869 . S
C335 N35 1.814 . S
C350 C177 1.835 . S
C365 C62 1.884 . S
C380 N104 1.863 . S
C395 C85 1.881 . S
C410 N127 1.867 . S
C425 N140 1.811 . S
C440 C7 1.962 . S
C455 C30 1.993 . S
C470 N163 1.872 . S
C485 C99 2.002 . S
C500 N48 1.886 . S
C515 C122 1.971 . S
C530 N71 1.825 . S
C545 N25 0.790 . S
C560 N2 0.779 . S
C575 C53 0.458 . S
C590 C76 0.458 . S
C605 N117 0.833 . S
C620 N94 0.694 . S
C635 C145 0.458 . S
C650 C168 0.458 . S
