# Generated by pormake.
# Topology zfn, (5)-cn, num edge types: 1
# Building blocks:
#     Node 0, Type 0, BuildingBlock: XOMCOT_clean_sbu_1, # of connection points: 5
#     Node 1, Type 0, BuildingBlock: XOMCOT_clean_sbu_1, # of connection points: 5
#     Node 2, Type 0, BuildingBlock: XOMCOT_clean_sbu_1, # of connection points: 5
#     Node 3, Type 0, BuildingBlock: XOMCOT_clean_sbu_1, # of connection points: 5
#     Node 4, Type 0, BuildingBlock: XOMCOT_clean_sbu_1, # of connection points: 5
#     Node 5, Type 0, BuildingBlock: XOMCOT_clean_sbu_1, # of connection points: 5
#     Node 6, Type 0, BuildingBlock: XOMCOT_clean_sbu_1, # of connection points: 5
#     Node 7, Type 0, BuildingBlock: XOMCOT_clean_sbu_1, # of connection points: 5
#     Node 8, Type 0, BuildingBlock: XOMCOT_clean_sbu_1, # of connection points: 5
#     Node 9, Type 0, BuildingBlock: XOMCOT_clean_sbu_1, # of connection points: 5
#     Node 10, Type 0, BuildingBlock: XOMCOT_clean_sbu_1, # of connection points: 5
#     Node 11, Type 0, BuildingBlock: XOMCOT_clean_sbu_1, # of connection points: 5
#     Node 12, Type 0, BuildingBlock: XOMCOT_clean_sbu_1, # of connection points: 5
#     Node 13, Type 0, BuildingBlock: XOMCOT_clean_sbu_1, # of connection points: 5
#     Node 14, Type 0, BuildingBlock: XOMCOT_clean_sbu_1, # of connection points: 5
#     Node 15, Type 0, BuildingBlock: XOMCOT_clean_sbu_1, # of connection points: 5
#     Edge 16, Type (0, 0), BuildingBlock: AJUNOK_clean_linker_0, # of connection points: 2
#     Edge 17, Type (0, 0), BuildingBlock: AJUNOK_clean_linker_0, # of connection points: 2
#     Edge 18, Type (0, 0), BuildingBlock: AJUNOK_clean_linker_0, # of connection points: 2
#     Edge 19, Type (0, 0), BuildingBlock: AJUNOK_clean_linker_0, # of connection points: 2
#     Edge 20, Type (0, 0), BuildingBlock: AJUNOK_clean_linker_0, # of connection points: 2
#     Edge 21, Type (0, 0), BuildingBlock: AJUNOK_clean_linker_0, # of connection points: 2
#     Edge 22, Type (0, 0), BuildingBlock: AJUNOK_clean_linker_0, # of connection points: 2
#     Edge 23, Type (0, 0), BuildingBlock: AJUNOK_clean_linker_0, # of connection points: 2
#     Edge 24, Type (0, 0), BuildingBlock: AJUNOK_clean_linker_0, # of connection points: 2
#     Edge 25, Type (0, 0), BuildingBlock: AJUNOK_clean_linker_0, # of connection points: 2
#     Edge 26, Type (0, 0), BuildingBlock: AJUNOK_clean_linker_0, # of connection points: 2
#     Edge 27, Type (0, 0), BuildingBlock: AJUNOK_clean_linker_0, # of connection points: 2
#     Edge 28, Type (0, 0), BuildingBlock: AJUNOK_clean_linker_0, # of connection points: 2
#     Edge 29, Type (0, 0), BuildingBlock: AJUNOK_clean_linker_0, # of connection points: 2
#     Edge 30, Type (0, 0), BuildingBlock: AJUNOK_clean_linker_0, # of connection points: 2
#     Edge 31, Type (0, 0), BuildingBlock: AJUNOK_clean_linker_0, # of connection points: 2
#     Edge 32, Type (0, 0), BuildingBlock: AJUNOK_clean_linker_0, # of connection points: 2
#     Edge 33, Type (0, 0), BuildingBlock: AJUNOK_clean_linker_0, # of connection points: 2
#     Edge 34, Type (0, 0), BuildingBlock: AJUNOK_clean_linker_0, # of connection points: 2
#     Edge 35, Type (0, 0), BuildingBlock: AJUNOK_clean_linker_0, # of connection points: 2
#     Edge 36, Type (0, 0), BuildingBlock: AJUNOK_clean_linker_0, # of connection points: 2
#     Edge 37, Type (0, 0), BuildingBlock: AJUNOK_clean_linker_0, # of connection points: 2
#     Edge 38, Type (0, 0), BuildingBlock: AJUNOK_clean_linker_0, # of connection points: 2
#     Edge 39, Type (0, 0), BuildingBlock: AJUNOK_clean_linker_0, # of connection points: 2
#     Edge 40, Type (0, 0), BuildingBlock: AJUNOK_clean_linker_0, # of connection points: 2
#     Edge 41, Type (0, 0), BuildingBlock: AJUNOK_clean_linker_0, # of connection points: 2
#     Edge 42, Type (0, 0), BuildingBlock: AJUNOK_clean_linker_0, # of connection points: 2
#     Edge 43, Type (0, 0), BuildingBlock: AJUNOK_clean_linker_0, # of connection points: 2
#     Edge 44, Type (0, 0), BuildingBlock: AJUNOK_clean_linker_0, # of connection points: 2
#     Edge 45, Type (0, 0), BuildingBlock: AJUNOK_clean_linker_0, # of connection points: 2
#     Edge 46, Type (0, 0), BuildingBlock: AJUNOK_clean_linker_0, # of connection points: 2
#     Edge 47, Type (0, 0), BuildingBlock: AJUNOK_clean_linker_0, # of connection points: 2
#     Edge 48, Type (0, 0), BuildingBlock: AJUNOK_clean_linker_0, # of connection points: 2
#     Edge 49, Type (0, 0), BuildingBlock: AJUNOK_clean_linker_0, # of connection points: 2
#     Edge 50, Type (0, 0), BuildingBlock: AJUNOK_clean_linker_0, # of connection points: 2
#     Edge 51, Type (0, 0), BuildingBlock: AJUNOK_clean_linker_0, # of connection points: 2
#     Edge 52, Type (0, 0), BuildingBlock: AJUNOK_clean_linker_0, # of connection points: 2
#     Edge 53, Type (0, 0), BuildingBlock: AJUNOK_clean_linker_0, # of connection points: 2
#     Edge 54, Type (0, 0), BuildingBlock: AJUNOK_clean_linker_0, # of connection points: 2
#     Edge 55, Type (0, 0), BuildingBlock: AJUNOK_clean_linker_0, # of connection points: 2
# Relax obj value: 0.122
# Max RMSD: 0.125
# Mean RMSD: 0.125
data_MOF--net-zfn--node1-XOMCOT_clean_sbu_1--edge1-AJUNOK_clean_linker_0
_symmetry_space_group_name_H-M    P1
_symmetry_Int_Tables_number       1
_symmetry_cell_setting            triclinic
loop_
_symmetry_equiv_pos_as_xyz
'x, y, z'
_cell_length_a     56.901081
_cell_length_b     56.895656
_cell_length_c     13.511596
_cell_angle_alpha  89.922605
_cell_angle_beta   89.951764
_cell_angle_gamma 89.972265
loop_
_atom_site_label
_atom_site_type_symbol
_atom_site_fract_x
_atom_site_fract_y
_atom_site_fract_z
_atom_type_partial_charge
C0 C 0.99913 0.34353 0.02384 0.0
C1 C 0.99707 0.34333 0.92221 0.0
N2 N 0.01883 0.34395 0.88311 0.0
N3 N 0.02207 0.34449 0.0485 0.0
C4 C 0.03361 0.34423 0.96112 0.0
H5 H 0.9848 0.34373 0.07647 0.0
Co6 Co 0.0336 0.34843 0.17646 0.0
C7 C 0.07538 0.37936 0.15295 0.0
O8 O 0.06835 0.39092 0.23184 0.0
N9 N 0.045 0.35154 0.30805 0.0
C10 C 0.06839 0.34674 0.43895 0.0
C11 C 0.06726 0.34695 0.33737 0.0
C12 C 0.03284 0.35313 0.39411 0.0
N13 N 0.04667 0.35062 0.47478 0.0
O14 O 0.04675 0.31724 0.17389 0.0
H15 H 0.08162 0.34275 0.28802 0.0
H16 H 0.01396 0.35392 0.39831 0.0
O17 O 0.06316 0.36193 0.12234 0.0
C18 C 0.03354 0.30363 0.22427 0.0
O19 O 0.01391 0.31223 0.26066 0.0
N20 N 0.01847 0.37814 0.18068 0.0
C21 C 0.98897 0.41761 0.1838 0.0
C22 C 0.00906 0.41717 0.12347 0.0
C23 C 0.02337 0.39708 0.12157 0.0
C24 C 0.99817 0.37782 0.23424 0.0
C25 C 0.98348 0.39742 0.23857 0.0
H26 H 0.03769 0.39653 0.06926 0.0
H27 H 0.99254 0.36174 0.26932 0.0
H28 H 0.05243 0.345 0.95425 0.0
H29 H 0.98085 0.34299 0.88042 0.0
H30 H 0.08387 0.34312 0.4829 0.0
H31 H 0.01341 0.43201 0.07667 0.0
H32 H 0.96735 0.39636 0.28099 0.0
C33 C 0.17563 0.0084 0.53087 0.0
C34 C 0.17782 0.00937 0.4294 0.0
N35 N 0.17064 0.03072 0.3984 0.0
N36 N 0.16711 0.02904 0.56388 0.0
C37 C 0.16477 0.04245 0.48175 0.0
H38 H 0.17866 0.99316 0.57707 0.0
Co39 Co 0.15666 0.03459 0.69271 0.0
C40 C 0.12021 0.07276 0.65719 0.0
O41 O 0.10481 0.06313 0.71669 0.0
N42 N 0.1461 0.03975 0.82642 0.0
C43 C 0.12441 0.03815 0.9643 0.0
C44 C 0.12442 0.03533 0.86381 0.0
C45 C 0.15898 0.04499 0.90824 0.0
N46 N 0.14616 0.04422 0.9925 0.0
O47 O 0.18488 0.05215 0.71753 0.0
H48 H 0.10951 0.02894 0.8225 0.0
H49 H 0.17761 0.04846 0.90782 0.0
O50 O 0.14045 0.06335 0.64551 0.0
C51 C 0.2005 0.03772 0.74759 0.0
O52 O 0.1945 0.01563 0.76087 0.0
N53 N 0.13083 0.01498 0.66746 0.0
C54 C 0.09538 0.98164 0.64566 0.0
C55 C 0.09538 0.00214 0.58782 0.0
C56 C 0.11377 0.01835 0.59787 0.0
C57 C 0.13181 0.99447 0.71948 0.0
C58 C 0.1141 0.97771 0.71083 0.0
H59 H 0.11451 0.03331 0.54901 0.0
H60 H 0.14621 0.99143 0.77014 0.0
H61 H 0.15816 0.06024 0.48246 0.0
H62 H 0.18276 0.99492 0.38163 0.0
H63 H 0.10991 0.03425 1.01357 0.0
H64 H 0.08159 0.00533 0.53422 0.0
H65 H 0.11484 0.96196 0.75587 0.0
C66 C 0.49731 0.17128 0.0618 0.0
C67 C 0.49929 0.17251 0.96019 0.0
N68 N 0.47863 0.16588 0.92032 0.0
N69 N 0.47556 0.16384 0.08574 0.0
C70 C 0.46448 0.16107 0.99794 0.0
H71 H 0.51102 0.17496 0.11496 0.0
Co72 Co 0.4653 0.15695 0.21378 0.0
C73 C 0.42921 0.12008 0.17417 0.0
O74 O 0.43872 0.10622 0.2409 0.0
N75 N 0.45486 0.1509 0.34534 0.0
C76 C 0.43174 0.1476 0.47821 0.0
C77 C 0.43254 0.14738 0.37649 0.0
C78 C 0.46699 0.15432 0.4305 0.0
N79 N 0.45351 0.15193 0.51225 0.0
O80 O 0.44844 0.18604 0.21624 0.0
H81 H 0.41733 0.14626 0.329 0.0
H82 H 0.48484 0.16066 0.43304 0.0
O83 O 0.43772 0.14055 0.15847 0.0
C84 C 0.46003 0.20158 0.26325 0.0
O85 O 0.48051 0.19589 0.30097 0.0
N86 N 0.48408 0.12934 0.2111 0.0
C87 C 0.51746 0.09335 0.1988 0.0
C88 C 0.49881 0.0944 0.13154 0.0
C89 C 0.48274 0.11298 0.13712 0.0
C90 C 0.50279 0.12896 0.27411 0.0
C91 C 0.51938 0.11092 0.27063 0.0
H92 H 0.46991 0.11482 0.07906 0.0
H93 H 0.50592 0.14343 0.32323 0.0
H94 H 0.44668 0.15468 0.99026 0.0
H95 H 0.51476 0.1777 0.91898 0.0
H96 H 0.41616 0.14563 0.52346 0.0
H97 H 0.49738 0.08169 0.07223 0.0
H98 H 0.53406 0.11115 0.32165 0.0
C99 C 0.34661 0.50366 0.5299 0.0
C100 C 0.34572 0.50508 0.42821 0.0
N101 N 0.34242 0.48328 0.39214 0.0
N102 N 0.3443 0.48099 0.55762 0.0
C103 C 0.34146 0.46905 0.4721 0.0
H104 H 0.34938 0.51813 0.58035 0.0
Co105 Co 0.34652 0.46937 0.68644 0.0
C106 C 0.3757 0.42632 0.66358 0.0
O107 O 0.38724 0.43167 0.74471 0.0
N108 N 0.34772 0.45771 0.81767 0.0
C109 C 0.341 0.43387 0.94587 0.0
C110 C 0.3424 0.43543 0.84459 0.0
C111 C 0.34846 0.46951 0.90471 0.0
N112 N 0.34458 0.45542 0.98365 0.0
O113 O 0.31511 0.45743 0.67838 0.0
H114 H 0.33868 0.42128 0.79364 0.0
H115 H 0.35007 0.48831 0.91102 0.0
O116 O 0.35916 0.43976 0.63355 0.0
C117 C 0.30034 0.47365 0.69648 0.0
O118 O 0.30809 0.49513 0.71073 0.0
N119 N 0.37685 0.48305 0.69568 0.0
C120 C 0.4177 0.51043 0.70163 0.0
C121 C 0.41627 0.49086 0.63906 0.0
C122 C 0.39555 0.47756 0.63611 0.0
C123 C 0.37759 0.5029 0.75193 0.0
C124 C 0.39795 0.51647 0.75799 0.0
H125 H 0.39427 0.46371 0.58196 0.0
H126 H 0.36182 0.50921 0.78719 0.0
H127 H 0.3395 0.45018 0.46825 0.0
H128 H 0.3476 0.52087 0.38409 0.0
H129 H 0.3372 0.41814 0.988 0.0
H130 H 0.43082 0.48622 0.59114 0.0
H131 H 0.39782 0.53229 0.80257 0.0
C132 C 0.9995 0.17119 0.48843 0.0
C133 C 0.99835 0.1731 0.58976 0.0
N134 N 0.02028 0.17113 0.62679 0.0
N135 N 0.02199 0.16765 0.4612 0.0
C136 C 0.03427 0.16796 0.54684 0.0
H137 H 0.98474 0.17098 0.4381 0.0
Co138 Co 0.03146 0.16012 0.33264 0.0
C139 C 0.07968 0.14429 0.40157 0.0
O140 O 0.09043 0.16415 0.38136 0.0
N141 N 0.04068 0.15264 0.20361 0.0
C142 C 0.05065 0.13279 0.06876 0.0
C143 C 0.05003 0.13235 0.17055 0.0
C144 C 0.03603 0.16519 0.12097 0.0
N145 N 0.04164 0.15342 0.03707 0.0
O146 O 0.04913 0.18885 0.32538 0.0
H147 H 0.05485 0.11764 0.21704 0.0
H148 H 0.02823 0.18242 0.12317 0.0
O149 O 0.05773 0.14221 0.38478 0.0
C150 C 0.03493 0.20545 0.30424 0.0
O151 O 0.0125 0.20056 0.29432 0.0
N152 N 0.01247 0.13314 0.33714 0.0
C153 C 0.98158 0.09499 0.33783 0.0
C154 C 0.99911 0.09706 0.41035 0.0
C155 C 0.01407 0.11653 0.40986 0.0
C156 C 0.99525 0.13172 0.26741 0.0
C157 C 0.97973 0.11274 0.26598 0.0
H158 H 0.0267 0.11845 0.46893 0.0
H159 H 0.9934 0.14554 0.21293 0.0
H160 H 0.05301 0.16509 0.55109 0.0
H161 H 0.98232 0.1742 0.63266 0.0
H162 H 0.05618 0.11841 0.02182 0.0
H163 H 1.00132 0.08377 0.467 0.0
H164 H 0.96613 0.11218 0.20997 0.0
C165 C 0.32084 0.00246 1.00856 0.0
C166 C 0.31878 0.00189 0.11027 0.0
N167 N 0.33226 0.01912 0.1482 0.0
N168 N 0.33556 0.01996 0.98229 0.0
C169 C 0.34241 0.02953 0.06922 0.0
H170 H 0.31217 0.9908 0.95717 0.0
Co171 Co 0.34371 0.02862 0.85261 0.0
C172 C 0.35784 0.07633 0.929 0.0
O173 O 0.33655 0.08515 0.92293 0.0
N174 N 0.35166 0.03721 0.72276 0.0
C175 C 0.36908 0.05266 0.59034 0.0
C176 C 0.36926 0.05139 0.692 0.0
C177 C 0.34128 0.02984 0.63831 0.0
N178 N 0.3514 0.03915 0.55683 0.0
O179 O 0.31538 0.04691 0.84328 0.0
H180 H 0.38182 0.05996 0.73975 0.0
H181 H 0.32669 0.0177 0.63621 0.0
O182 O 0.36162 0.05512 0.90283 0.0
C183 C 0.29821 0.03465 0.81202 0.0
O184 O 0.30167 0.01236 0.79169 0.0
N185 N 0.37037 0.00923 0.85922 0.0
C186 C 0.40793 0.97759 0.85913 0.0
C187 C 0.40725 0.99633 0.9265 0.0
C188 C 0.38813 0.01178 0.92622 0.0
C189 C 0.37052 0.99089 0.79447 0.0
C190 C 0.38921 0.97498 0.79254 0.0
H191 H 0.38756 0.02556 0.98084 0.0
H192 H 0.35593 0.98849 0.74426 0.0
H193 H 0.35527 0.04336 0.07535 0.0
H194 H 0.30808 0.98983 0.15285 0.0
H195 H 0.38145 0.06221 0.54454 0.0
H196 H 0.42137 0.99907 0.97892 0.0
H197 H 0.38882 0.96052 0.74052 0.0
C198 C 0.48954 0.31488 0.52364 0.0
C199 C 0.49117 0.31467 0.62547 0.0
N200 N 0.48206 0.33488 0.66063 0.0
N201 N 0.47913 0.33501 0.49426 0.0
C202 C 0.47512 0.34691 0.57937 0.0
H203 H 0.49534 0.30104 0.47479 0.0
Co204 Co 0.47106 0.3447 0.36545 0.0
C205 C 0.4212 0.359 0.40707 0.0
O206 O 0.41215 0.34786 0.33108 0.0
N207 N 0.46333 0.35474 0.23572 0.0
C208 C 0.45075 0.37528 0.10525 0.0
C209 C 0.45045 0.37353 0.20702 0.0
C210 C 0.47153 0.34566 0.14964 0.0
N211 N 0.46409 0.35772 0.06934 0.0
O212 O 0.45425 0.31575 0.345 0.0
H213 H 0.44165 0.38555 0.25651 0.0
H214 H 0.48343 0.33094 0.1451 0.0
O215 O 0.4433 0.35905 0.42156 0.0
C216 C 0.46659 0.29994 0.30306 0.0
O217 O 0.48876 0.30434 0.28341 0.0
N218 N 0.4887 0.37192 0.38294 0.0
C219 C 0.52021 0.40918 0.39528 0.0
C220 C 0.49604 0.413 0.40805 0.0
C221 C 0.48047 0.39403 0.40186 0.0
C222 C 0.51211 0.36791 0.37131 0.0
C223 C 0.52822 0.38627 0.37782 0.0
H224 H 0.4619 0.39729 0.41091 0.0
H225 H 0.51823 0.35028 0.35587 0.0
H226 H 0.46656 0.36386 0.58156 0.0
H227 H 0.49839 0.30062 0.67017 0.0
H228 H 0.44171 0.38836 0.06122 0.0
H229 H 0.48927 0.43047 0.42244 0.0
H230 H 0.54674 0.38268 0.36688 0.0
C231 C 0.19215 0.4932 0.03923 0.0
C232 C 0.19228 0.49455 0.14108 0.0
N233 N 0.17144 0.48678 0.17539 0.0
N234 N 0.17138 0.48436 1.00866 0.0
C235 C 0.15915 0.4809 0.09347 0.0
H236 H 0.2065 0.49825 0.99151 0.0
Co237 Co 0.1606 0.47762 0.87944 0.0
C238 C 0.14661 0.42684 0.9155 0.0
O239 O 0.15817 0.41792 0.84021 0.0
N240 N 0.14948 0.47112 0.75031 0.0
C241 C 0.12856 0.45882 0.62072 0.0
C242 C 0.13041 0.4586 0.72252 0.0
C243 C 0.15861 0.47904 0.66385 0.0
N244 N 0.14639 0.47171 0.58411 0.0
O245 O 0.18999 0.46226 0.848 0.0
H246 H 0.11848 0.44983 0.77267 0.0
H247 H 0.17368 0.49042 0.65846 0.0
O248 O 0.14715 0.4489 0.93144 0.0
C249 C 0.20368 0.47745 0.8091 0.0
O250 O 0.19672 0.49949 0.80655 0.0
N251 N 0.13307 0.49426 0.90577 0.0
C252 C 0.09554 0.52484 0.93608 0.0
C253 C 0.09257 0.50052 0.94793 0.0
C254 C 0.11161 0.48542 0.93202 0.0
C255 C 0.13625 0.51779 0.89441 0.0
C256 C 0.11776 0.53342 0.90941 0.0
H257 H 0.10893 0.46676 0.94075 0.0
H258 H 0.15335 0.5244 0.87304 0.0
H259 H 0.1416 0.47385 0.0947 0.0
H260 H 0.20667 0.50079 0.1863 0.0
H261 H 0.1154 0.44984 0.57712 0.0
H262 H 0.07574 0.49326 0.96959 0.0
H263 H 0.12072 0.55205 0.8985 0.0
C264 C 0.99565 0.69219 0.05307 0.0
C265 C 0.9964 0.69301 0.15506 0.0
N266 N 0.98392 0.67479 0.19072 0.0
N267 N 0.98276 0.67349 0.0242 0.0
C268 C 0.97612 0.66314 0.11013 0.0
H269 H 0.00442 0.70429 1.00379 0.0
Co270 Co 0.97711 0.66259 0.89463 0.0
C271 C 0.92652 0.64765 0.91357 0.0
O272 O 0.91959 0.65796 0.83158 0.0
N273 N 0.97179 0.65127 0.76489 0.0
C274 C 0.95994 0.63007 0.6355 0.0
C275 C 0.96041 0.63148 0.73722 0.0
C276 C 0.97883 0.66101 0.67829 0.0
N277 N 0.97146 0.64878 0.59874 0.0
O278 O 0.96172 0.69184 0.86103 0.0
H279 H 0.95277 0.61882 0.78748 0.0
H280 H 0.98903 0.67686 0.67249 0.0
O281 O 0.94791 0.64902 0.94089 0.0
C282 C 0.9765 0.70614 0.82324 0.0
O283 O 0.99873 0.6999 0.81977 0.0
N284 N 0.99367 0.63522 0.92386 0.0
C285 C 0.02406 0.59735 0.94867 0.0
C286 C 0.99992 0.59477 0.96686 0.0
C287 C 0.98491 0.61403 0.95418 0.0
C288 C 0.01708 0.6381 0.90774 0.0
C289 C 0.03262 0.61942 0.92 0.0
H290 H 0.96635 0.61164 0.96727 0.0
H291 H 0.02361 0.65502 0.88355 0.0
H292 H 0.96663 0.64672 0.11378 0.0
H293 H 0.00547 0.70595 0.19956 0.0
H294 H 0.9519 0.61629 0.592 0.0
H295 H 0.99273 0.57803 0.99017 0.0
H296 H 0.05112 0.62207 0.90457 0.0
C297 C 0.8268 1.00078 0.4626 0.0
C298 C 0.82714 0.00321 0.56426 0.0
N299 N 0.84108 0.9863 0.60268 0.0
N300 N 0.84031 0.98234 0.43686 0.0
C301 C 0.84871 0.97398 0.52354 0.0
H302 H 0.81731 0.01171 0.41068 0.0
Co303 Co 0.84616 0.97171 0.30838 0.0
C304 C 0.87812 0.93043 0.33958 0.0
O305 O 0.89052 0.93646 0.26143 0.0
N306 N 0.85138 0.96113 0.17676 0.0
C307 C 0.85023 0.9383 0.04249 0.0
C308 C 0.84888 0.93878 0.14415 0.0
C309 C 0.85318 0.97397 0.09243 0.0
N310 N 0.85288 0.96048 1.0105 0.0
O311 O 0.81569 0.95716 0.30573 0.0
H312 H 0.84493 0.92386 0.19088 0.0
H313 H 0.85304 0.99291 0.08958 0.0
O314 O 0.86014 0.94272 0.36318 0.0
C315 C 0.80115 0.96743 0.24833 0.0
O316 O 0.80813 0.98596 0.1982 0.0
N317 N 0.87497 0.9881 0.31079 0.0
C318 C 0.91224 0.01994 0.32045 0.0
C319 C 0.91288 0.99899 0.37491 0.0
C320 C 0.8939 0.98339 0.37012 0.0
C321 C 0.87374 0.00897 0.26151 0.0
C322 C 0.8924 0.02484 0.263 0.0
H323 H 0.89414 0.96833 0.41838 0.0
H324 H 0.85764 0.01393 0.22478 0.0
H325 H 0.86007 0.95898 0.52852 0.0
H326 H 0.81787 0.01646 0.60636 0.0
H327 H 0.8478 0.92311 0.9954 0.0
H328 H 0.92766 0.99499 0.42258 0.0
H329 H 0.89087 0.04133 0.22333 0.0
C330 C 0.49542 0.83818 1.00706 0.0
C331 C 0.49406 0.83663 0.10857 0.0
N332 N 0.51579 0.83261 0.14443 0.0
N333 N 0.518 0.83568 0.97864 0.0
C334 C 0.52985 0.83157 0.06368 0.0
H335 H 0.48098 0.84192 0.95752 0.0
Co336 Co 0.52986 0.83996 0.85012 0.0
C337 C 0.56996 0.87336 0.8811 0.0
O338 O 0.5648 0.88404 0.79759 0.0
N339 N 0.54166 0.84304 0.719 0.0
C340 C 0.56593 0.83839 0.59043 0.0
C341 C 0.56436 0.84012 0.69182 0.0
C342 C 0.52977 0.84211 0.63202 0.0
N343 N 0.54408 0.83946 0.55288 0.0
O344 O 0.54444 0.80966 0.85547 0.0
H345 H 0.57885 0.83802 0.74275 0.0
H346 H 0.5109 0.84139 0.62609 0.0
O347 O 0.55806 0.85528 0.90754 0.0
C348 C 0.52951 0.79437 0.82771 0.0
O349 O 0.50798 0.80123 0.80764 0.0
N350 N 0.51352 0.86905 0.8432 0.0
C351 C 0.48212 0.90696 0.84632 0.0
C352 C 0.50194 0.90677 0.90777 0.0
C353 C 0.51715 0.88745 0.90664 0.0
C354 C 0.49388 0.86876 0.78548 0.0
C355 C 0.47829 0.88771 0.78402 0.0
H356 H 0.53083 0.88681 0.96166 0.0
H357 H 0.48913 0.853 0.74628 0.0
H358 H 0.54862 0.8288 0.06635 0.0
H359 H 0.47837 0.83895 0.15285 0.0
H360 H 0.5819 0.83594 0.5481 0.0
H361 H 0.50523 0.92106 0.95878 0.0
H362 H 0.46261 0.88668 0.73879 0.0
C363 C 0.6842 0.50281 0.4942 0.0
C364 C 0.6846 0.50095 0.59612 0.0
N365 N 0.66892 0.51628 0.63345 0.0
N366 N 0.66854 0.51947 0.46719 0.0
C367 C 0.65971 0.52734 0.55411 0.0
H368 H 0.69427 0.49217 0.44337 0.0
Co369 Co 0.65908 0.52785 0.33761 0.0
C370 C 0.64485 0.57788 0.40066 0.0
O371 O 0.66168 0.58976 0.35672 0.0
N372 N 0.6496 0.53587 0.20806 0.0
C373 C 0.63318 0.55247 0.07563 0.0
C374 C 0.63455 0.55275 0.17735 0.0
C375 C 0.65686 0.52543 0.12332 0.0
N376 N 0.64724 0.53523 0.04174 0.0
O377 O 0.68858 0.54386 0.31633 0.0
H378 H 0.62504 0.56463 0.22503 0.0
H379 H 0.66882 0.51069 0.12094 0.0
O380 O 0.64404 0.55558 0.39217 0.0
C381 C 0.70261 0.5292 0.27597 0.0
O382 O 0.69548 0.5074 0.2651 0.0
N383 N 0.63147 0.51059 0.35444 0.0
C384 C 0.59335 0.48023 0.37607 0.0
C385 C 0.58996 0.50466 0.37393 0.0
C386 C 0.60927 0.51959 0.36184 0.0
C387 C 0.63505 0.48695 0.35528 0.0
C388 C 0.61627 0.47144 0.36649 0.0
H389 H 0.6062 0.53827 0.35741 0.0
H390 H 0.65267 0.48009 0.34671 0.0
H391 H 0.6468 0.54104 0.56007 0.0
H392 H 0.6951 0.48881 0.6392 0.0
H393 H 0.62305 0.56443 0.03016 0.0
H394 H 0.57257 0.51218 0.38174 0.0
H395 H 0.61964 0.4527 0.36607 0.0
C396 C 0.00552 0.84057 0.51862 0.0
C397 C 0.00718 0.83949 0.41701 0.0
N398 N 0.98531 0.84027 0.37884 0.0
N399 N 0.98273 0.84239 0.54473 0.0
C400 C 0.97085 0.84182 0.45805 0.0
H401 H 0.02007 0.84083 0.57 0.0
Co402 Co 0.97125 0.84692 0.67319 0.0
C403 C 0.92808 0.87734 0.63918 0.0
O404 O 0.92938 0.8881 0.72492 0.0
N405 N 0.95986 0.85052 0.80356 0.0
C406 C 0.93671 0.84548 0.93522 0.0
C407 C 0.93761 0.8461 0.83355 0.0
C408 C 0.97227 0.8516 0.88898 0.0
N409 N 0.95859 0.84867 0.96983 0.0
O410 O 0.9568 0.81655 0.67006 0.0
H411 H 0.92316 0.84204 0.78457 0.0
H412 H 0.99113 0.85317 0.89261 0.0
O413 O 0.94318 0.86161 0.6162 0.0
C414 C 0.97152 0.80185 0.70487 0.0
O415 O 0.99252 0.8093 0.72997 0.0
N416 N 0.98761 0.87577 0.67805 0.0
C417 C 0.021 0.91174 0.66495 0.0
C418 C 0.99905 0.91404 0.61893 0.0
C419 C 0.98269 0.89569 0.62509 0.0
C420 C 0.00879 0.8735 0.72407 0.0
C421 C 0.02551 0.89138 0.7202 0.0
H422 H 0.96696 0.89714 0.58167 0.0
H423 H 0.01345 0.857 0.75843 0.0
H424 H 0.95192 0.84279 0.45273 0.0
H425 H 0.02335 0.8393 0.3748 0.0
H426 H 0.92146 0.8414 0.98006 0.0
H427 H 0.99506 0.92932 0.57402 0.0
H428 H 0.04219 0.88888 0.75728 0.0
C429 C 0.66012 0.00689 0.02095 0.0
C430 C 0.66096 0.00814 0.91912 0.0
N431 N 0.66214 0.9861 0.88326 0.0
N432 N 0.6603 0.98414 0.04908 0.0
C433 C 0.66193 0.97192 0.96353 0.0
H434 H 0.6586 0.02161 0.0711 0.0
Co435 Co 0.6562 0.97263 0.17752 0.0
C436 C 0.6229 0.93272 0.1508 0.0
O437 O 0.61185 0.93884 0.23226 0.0
N438 N 0.65286 0.96081 0.30901 0.0
C439 C 0.65739 0.93636 0.43695 0.0
C440 C 0.65635 0.93815 0.33559 0.0
C441 C 0.6525 0.97247 0.3966 0.0
N442 N 0.65528 0.95805 0.47532 0.0
O443 O 0.68643 0.95771 0.17055 0.0
H444 H 0.65926 0.92387 0.28432 0.0
H445 H 0.65225 0.99133 0.40347 0.0
O446 O 0.64076 0.94458 0.12221 0.0
C447 C 0.70145 0.96801 0.22537 0.0
O448 O 0.69502 0.98678 0.275 0.0
N449 N 0.62756 0.98939 0.18513 0.0
C450 C 0.59083 0.02212 0.18618 0.0
C451 C 0.58954 0.00191 0.12718 0.0
C452 C 0.60833 0.98599 0.126 0.0
C453 C 0.62926 0.00933 0.24033 0.0
C454 C 0.61091 0.02553 0.24427 0.0
H455 H 0.60787 0.97185 0.07299 0.0
H456 H 0.6456 0.01357 0.27647 0.0
H457 H 0.66201 0.95294 0.9598 0.0
H458 H 0.66034 0.02398 0.87475 0.0
H459 H 0.66013 0.92035 0.47871 0.0
H460 H 0.57467 0.99905 0.07864 0.0
H461 H 0.61282 0.04102 0.29009 0.0
C462 C 0.50039 0.65734 0.54535 0.0
C463 C 0.49888 0.65849 0.4436 0.0
N464 N 0.52084 0.6583 0.40629 0.0
N465 N 0.52319 0.6561 0.57188 0.0
C466 C 0.53521 0.65693 0.48556 0.0
H467 H 0.48581 0.65664 0.59667 0.0
Co468 Co 0.53447 0.65146 0.70009 0.0
C469 C 0.57504 0.61968 0.66513 0.0
O470 O 0.56794 0.60656 0.73957 0.0
N471 N 0.54598 0.6477 0.83154 0.0
C472 C 0.57024 0.65016 0.9609 0.0
C473 C 0.56876 0.64909 0.85956 0.0
C474 C 0.53399 0.64908 0.91824 0.0
N475 N 0.5483 0.65046 0.99786 0.0
O476 O 0.54703 0.68281 0.70134 0.0
H477 H 0.58353 0.65072 0.80973 0.0
H478 H 0.51519 0.65114 0.92348 0.0
O479 O 0.56382 0.63851 0.64401 0.0
C480 C 0.5315 0.69535 0.74438 0.0
O481 O 0.51152 0.68527 0.7686 0.0
N482 N 0.5196 0.62158 0.70126 0.0
C483 C 0.49088 0.58157 0.70291 0.0
C484 C 0.50948 0.58357 0.63513 0.0
C485 C 0.52334 0.60395 0.63411 0.0
C486 C 0.50058 0.62046 0.7624 0.0
C487 C 0.48633 0.60056 0.76591 0.0
H488 H 0.53644 0.60582 0.57682 0.0
H489 H 0.49542 0.63567 0.80438 0.0
H490 H 0.55412 0.65551 0.48032 0.0
H491 H 0.48289 0.65905 0.40033 0.0
H492 H 0.58628 0.65129 1.00355 0.0
H493 H 0.51297 0.56975 0.58207 0.0
H494 H 0.47117 0.60054 0.81445 0.0
C495 C 0.8455 0.4988 1.00409 0.0
C496 C 0.84524 0.49709 0.90247 0.0
N497 N 0.84285 0.51887 0.8646 0.0
N498 N 0.84356 0.52158 0.03022 0.0
C499 C 0.8412 0.53326 0.94369 0.0
H500 H 0.84773 0.4844 0.05556 0.0
Co501 Co 0.84648 0.53343 0.15833 0.0
C502 C 0.87726 0.5754 0.13653 0.0
O503 O 0.88795 0.56925 0.21882 0.0
N504 N 0.84841 0.54517 0.28958 0.0
C505 C 0.84239 0.56867 0.41933 0.0
C506 C 0.84291 0.56731 0.31768 0.0
C507 C 0.85032 0.5333 0.37624 0.0
N508 N 0.84714 0.54722 0.45613 0.0
O509 O 0.81548 0.54659 0.14998 0.0
H510 H 0.8385 0.58142 0.26733 0.0
H511 H 0.85208 0.5145 0.3817 0.0
O512 O 0.86035 0.56273 0.10411 0.0
C513 C 0.80071 0.5328 0.19054 0.0
O514 O 0.80811 0.51256 0.22545 0.0
N515 N 0.87625 0.51844 0.16777 0.0
C516 C 0.91605 0.48946 0.17736 0.0
C517 C 0.91582 0.50942 0.11632 0.0
C518 C 0.89559 0.52348 0.11122 0.0
C519 C 0.87578 0.49821 0.22193 0.0
C520 C 0.89554 0.4838 0.22959 0.0
H521 H 0.89529 0.53766 0.0582 0.0
H522 H 0.85949 0.49241 0.25475 0.0
H523 H 0.83882 0.55202 0.93859 0.0
H524 H 0.84698 0.48109 0.85983 0.0
H525 H 0.83817 0.58409 0.46269 0.0
H526 H 0.93095 0.51386 0.07136 0.0
H527 H 0.89439 0.46774 0.27249 0.0
C528 C 0.96447 0.44764 0.09402 0.0
C529 C 0.97257 0.43804 0.18389 0.0
C530 C 0.94686 0.46498 0.09247 0.0
C531 C 0.93668 0.47334 0.18071 0.0
H532 H 0.97105 0.441 0.0242 0.0
H533 H 0.94047 0.47113 0.02151 0.0
S534 S 0.95404 0.45639 0.43562 0.0
N535 N 0.97075 0.43997 0.36345 0.0
N536 N 0.93769 0.47243 0.36047 0.0
C537 C 0.94547 0.46475 0.27104 0.0
C538 C 0.96338 0.44715 0.27264 0.0
C539 C 0.05282 0.97069 0.66065 0.0
C540 C 0.07612 0.96417 0.6391 0.0
C541 C 0.03489 0.95375 0.66664 0.0
C542 C 0.03969 0.92974 0.65115 0.0
H543 H 0.04862 0.98887 0.67662 0.0
H544 H 0.01733 0.95936 0.68671 0.0
S545 S 0.09721 0.9043 0.57773 0.0
N546 N 0.1026 0.93258 0.59274 0.0
N547 N 0.06898 0.90083 0.60206 0.0
C548 C 0.06272 0.92327 0.62436 0.0
C549 C 0.0809 0.94045 0.61885 0.0
C550 C 0.54827 0.03402 0.19402 0.0
C551 C 0.57207 0.04033 0.18312 0.0
C552 C 0.53052 0.05121 0.19689 0.0
C553 C 0.53603 0.07524 0.18942 0.0
H554 H 0.54341 0.01573 0.20286 0.0
H555 H 0.51246 0.04573 0.20755 0.0
S556 S 0.59505 0.10076 0.14585 0.0
N557 N 0.59976 0.07219 0.15412 0.0
N558 N 0.5665 0.10435 0.16159 0.0
C559 C 0.55958 0.08169 0.17468 0.0
C560 C 0.57758 0.06428 0.17101 0.0
C561 C 0.44722 0.53562 0.61312 0.0
C562 C 0.4387 0.52594 0.7021 0.0
C563 C 0.46492 0.55285 0.61341 0.0
C564 C 0.47477 0.56094 0.7027 0.0
H565 H 0.43938 0.53068 0.54315 0.0
H566 H 0.47011 0.56066 0.54359 0.0
S567 S 0.46106 0.53847 0.95419 0.0
N568 N 0.44311 0.52386 0.88062 0.0
N569 N 0.47653 0.55593 0.8813 0.0
C570 C 0.46735 0.55033 0.79154 0.0
C571 C 0.44929 0.53293 0.79122 0.0
C572 C 0.94259 0.04568 0.24227 0.0
C573 C 0.93127 0.03758 0.32819 0.0
C574 C 0.95925 0.06379 0.24662 0.0
C575 C 0.96499 0.07473 0.33693 0.0
H576 H 0.93838 0.03806 0.171 0.0
H577 H 0.96757 0.0694 0.17842 0.0
S578 S 0.93926 0.06048 0.58253 0.0
N579 N 0.92657 0.04184 0.50581 0.0
N580 N 0.95736 0.07636 0.51416 0.0
C581 C 0.95382 0.06663 0.42361 0.0
C582 C 0.93707 0.04796 0.41916 0.0
C583 C 0.45613 0.93689 0.76535 0.0
C584 C 0.46438 0.92607 0.85231 0.0
C585 C 0.43821 0.95382 0.76849 0.0
C586 C 0.42776 0.96052 0.85868 0.0
H587 H 0.46351 0.93211 0.69422 0.0
H588 H 0.43243 0.96168 0.69961 0.0
S589 S 0.44213 0.9364 0.10674 0.0
N590 N 0.46028 0.9227 0.03083 0.0
N591 N 0.42651 0.95436 0.03676 0.0
C592 C 0.43592 0.94987 0.94625 0.0
C593 C 0.45422 0.93269 0.94305 0.0
C594 C 0.57498 0.44453 0.45208 0.0
C595 C 0.57327 0.4637 0.38647 0.0
C596 C 0.55734 0.42741 0.45693 0.0
C597 C 0.53723 0.42888 0.39688 0.0
H598 H 0.59028 0.44255 0.49904 0.0
H599 H 0.55961 0.41268 0.50694 0.0
S600 S 0.52416 0.4754 0.2126 0.0
N601 N 0.54976 0.48308 0.26006 0.0
N602 N 0.51643 0.45101 0.27045 0.0
C603 C 0.53491 0.44826 0.33306 0.0
C604 C 0.55296 0.46565 0.32758 0.0
C605 C 0.06166 0.5796 1.00791 0.0
C606 C 0.04045 0.57716 0.95559 0.0
C607 C 0.07893 0.56209 1.00474 0.0
C608 C 0.07569 0.54149 0.94889 0.0
H609 H 0.06517 0.59546 0.04968 0.0
H610 H 0.09522 0.56495 0.04441 0.0
S611 S 0.02306 0.52641 0.80011 0.0
N612 N 0.01686 0.55235 0.8483 0.0
N613 N 0.04943 0.51941 0.84188 0.0
C614 C 0.0542 0.53842 0.89921 0.0
C615 C 0.03656 0.55627 0.90265 0.0
C616 C 0.10713 0.4091 0.129 0.0
C617 C 0.09564 0.38878 0.09479 0.0
C618 C 0.12432 0.42039 0.07233 0.0
C619 C 0.13084 0.41215 0.97817 0.0
H620 H 0.10247 0.41687 0.1995 0.0
H621 H 0.13226 0.436 0.10254 0.0
S622 S 0.10862 0.35782 0.85889 0.0
N623 N 0.0942 0.35923 0.96482 0.0
N624 N 0.12598 0.38108 0.85659 0.0
C625 C 0.12061 0.39107 0.94503 0.0
C626 C 0.10314 0.3793 1.00359 0.0
C627 C 0.12236 0.11235 0.57394 0.0
C628 C 0.11161 0.09026 0.58479 0.0
C629 C 0.11254 0.12962 0.51133 0.0
C630 C 0.09197 0.12511 0.45617 0.0
H631 H 0.13781 0.11663 0.61705 0.0
H632 H 0.12066 0.14682 0.5089 0.0
S633 S 0.06005 0.0682 0.44536 0.0
N634 N 0.08075 0.06402 0.52892 0.0
N635 N 0.06369 0.09539 0.40572 0.0
C636 C 0.0823 0.10237 0.46128 0.0
C637 C 0.09176 0.08523 0.52705 0.0
C638 C 0.38852 0.11913 0.10336 0.0
C639 C 0.41157 0.11031 0.10582 0.0
C640 C 0.37132 0.10867 0.04295 0.0
C641 C 0.37676 0.08936 0.98162 0.0
H642 H 0.38358 0.13363 0.15098 0.0
H643 H 0.3535 0.1153 0.04689 0.0
S644 S 0.43581 0.06234 0.95115 0.0
N645 N 0.43945 0.08242 0.03774 0.0
N646 N 0.40794 0.06412 0.91854 0.0
C647 C 0.40026 0.08153 0.97921 0.0
C648 C 0.41745 0.09164 0.0429 0.0
C649 C 0.38092 0.40753 0.49669 0.0
C650 C 0.38431 0.40687 0.60007 0.0
C651 C 0.39178 0.39102 0.43417 0.0
C652 C 0.40634 0.37335 0.47308 0.0
H653 H 0.37083 0.42155 0.46319 0.0
H654 H 0.38979 0.39288 0.35479 0.0
S655 S 0.41745 0.36131 0.7386 0.0
N656 N 0.40098 0.38521 0.73855 0.0
N657 N 0.42104 0.35418 0.62113 0.0
C658 C 0.40858 0.37155 0.57627 0.0
C659 C 0.39764 0.38831 0.63978 0.0
C660 C 0.90244 0.61119 0.12466 0.0
C661 C 0.88685 0.59551 0.07821 0.0
C662 C 0.91415 0.62869 0.07107 0.0
C663 C 0.91082 0.6315 0.96888 0.0
H664 H 0.90618 0.60958 0.20294 0.0
H665 H 0.92639 0.63982 0.10958 0.0
S666 S 0.87155 0.59565 0.81076 0.0
N667 N 0.8683 0.58449 0.92281 0.0
N668 N 0.89033 0.61759 0.82269 0.0
C669 C 0.89461 0.61668 0.92156 0.0
C670 C 0.88266 0.59865 0.97612 0.0
C671 C 0.92287 0.89113 0.46559 0.0
C672 C 0.91325 0.88757 0.56019 0.0
C673 C 0.91071 0.90377 0.39289 0.0
C674 C 0.88826 0.91326 0.41139 0.0
H675 H 0.94055 0.88534 0.44927 0.0
H676 H 0.91955 0.90698 0.32316 0.0
S677 S 0.85356 0.90484 0.64207 0.0
N678 N 0.87908 0.8922 0.66585 0.0
N679 N 0.85542 0.91473 0.52733 0.0
C680 C 0.87762 0.90807 0.50332 0.0
C681 C 0.89035 0.89566 0.57833 0.0
C682 C 0.61543 0.91618 0.98131 0.0
C683 C 0.61213 0.91491 0.08448 0.0
C684 C 0.60255 0.90182 0.91649 0.0
C685 C 0.58604 0.88539 0.95204 0.0
H686 H 0.62713 0.92917 0.94979 0.0
H687 H 0.60502 0.90417 0.83758 0.0
S688 S 0.57242 0.87382 0.21683 0.0
N689 N 0.59242 0.89478 0.21964 0.0
N690 N 0.56823 0.86802 0.09856 0.0
C691 C 0.58353 0.88315 0.05541 0.0
C692 C 0.59653 0.89786 0.12131 0.0
C693 C 0.61171 0.57579 0.52256 0.0
C694 C 0.62695 0.5897 0.46464 0.0
C695 C 0.59551 0.58577 0.58787 0.0
C696 C 0.59308 0.61023 0.59645 0.0
H697 H 0.61213 0.55684 0.51831 0.0
H698 H 0.58441 0.57408 0.63057 0.0
S699 S 0.62663 0.65497 0.45509 0.0
N700 N 0.63753 0.62962 0.41694 0.0
N701 N 0.60615 0.6484 0.53731 0.0
C702 C 0.60738 0.62456 0.53649 0.0
C703 C 0.62448 0.61433 0.47124 0.0
C704 C 0.03317 0.27031 0.34268 0.0
C705 C 0.04003 0.27915 0.24965 0.0
C706 C 0.03418 0.24625 0.36393 0.0
C707 C 0.04222 0.23011 0.29327 0.0
H708 H 0.02572 0.28195 0.39787 0.0
H709 H 0.02704 0.24006 0.43364 0.0
S710 S 0.06385 0.24417 0.04137 0.0
N711 N 0.05673 0.27 0.0887 0.0
N712 N 0.05844 0.22454 0.12874 0.0
C713 C 0.05066 0.23876 0.20245 0.0
C714 C 0.04969 0.2634 0.18068 0.0
C715 C 0.25819 0.03656 0.88114 0.0
C716 C 0.27403 0.04369 0.80737 0.0
C717 C 0.2339 0.03707 0.8645 0.0
C718 C 0.22463 0.04482 0.77367 0.0
H719 H 0.26467 0.02865 0.94888 0.0
H720 H 0.22237 0.02969 0.92036 0.0
S721 S 0.25874 0.06702 0.55967 0.0
N722 N 0.2789 0.06012 0.64281 0.0
N723 N 0.23305 0.06142 0.61191 0.0
C724 C 0.24018 0.05379 0.70233 0.0
C725 C 0.265 0.05308 0.71905 0.0
C726 C 0.44932 0.26219 0.36231 0.0
C727 C 0.45759 0.27611 0.28373 0.0
C728 C 0.44763 0.23765 0.35219 0.0
C729 C 0.45347 0.22654 0.26249 0.0
H730 H 0.44628 0.26997 0.43434 0.0
H731 H 0.44344 0.22717 0.41687 0.0
S732 S 0.47335 0.25559 0.03205 0.0
N733 N 0.46988 0.27732 0.1117 0.0
N734 N 0.46584 0.23139 0.09194 0.0
C735 C 0.45973 0.24052 0.18127 0.0
C736 C 0.46199 0.26532 0.19212 0.0
C737 C 0.26637 0.45502 0.7848 0.0
C738 C 0.27496 0.46916 0.70714 0.0
C739 C 0.24254 0.45614 0.81363 0.0
C740 C 0.22686 0.47155 0.76574 0.0
H741 H 0.27842 0.44445 0.82814 0.0
H742 H 0.23685 0.4463 0.878 0.0
S743 S 0.24015 0.50887 0.54709 0.0
N744 N 0.26552 0.4965 0.57545 0.0
N745 N 0.22104 0.4986 0.62828 0.0
C746 C 0.235 0.48414 0.68276 0.0
C747 C 0.25902 0.48298 0.65386 0.0
C748 C 0.95377 0.7686 0.79969 0.0
C749 C 0.96629 0.77669 0.7164 0.0
C750 C 0.95528 0.74492 0.8301 0.0
C751 C 0.96967 0.72892 0.77872 0.0
H752 H 0.9443 0.78097 0.84578 0.0
H753 H 0.94676 0.73963 0.89829 0.0
S754 S 0.00319 0.74101 0.54832 0.0
N755 N 0.99125 0.76653 0.57764 0.0
N756 N 0.99429 0.72232 0.63408 0.0
C757 C 0.98071 0.73656 0.69114 0.0
C758 C 0.97901 0.76042 0.66022 0.0
C759 C 0.76467 0.96143 0.15056 0.0
C760 C 0.77617 0.96069 0.24283 0.0
C761 C 0.74005 0.96114 0.14422 0.0
C762 C 0.72623 0.96071 0.23022 0.0
H763 H 0.77478 0.96361 0.08314 0.0
H764 H 0.73186 0.96332 0.07241 0.0
S765 S 0.74764 0.95638 0.48865 0.0
N766 N 0.77186 0.95719 0.42107 0.0
N767 N 0.72555 0.95751 0.40946 0.0
C768 C 0.73748 0.9584 0.32233 0.0
C769 C 0.76251 0.95813 0.32863 0.0
C770 C 0.52147 0.75327 0.87382 0.0
C771 C 0.53512 0.76919 0.81944 0.0
C772 C 0.52167 0.72928 0.85187 0.0
C773 C 0.53527 0.72022 0.77349 0.0
H774 H 0.50968 0.75958 0.93098 0.0
H775 H 0.51026 0.71788 0.89458 0.0
S776 S 0.57489 0.75474 0.61095 0.0
N777 N 0.56343 0.77447 0.68672 0.0
N778 N 0.56377 0.72909 0.64451 0.0
C779 C 0.55001 0.73581 0.72162 0.0
C780 C 0.54988 0.76041 0.74465 0.0
C781 C 0.76586 0.55063 0.27464 0.0
C782 C 0.77537 0.53792 0.19464 0.0
C783 C 0.74164 0.54958 0.29666 0.0
C784 C 0.72646 0.53541 0.24023 0.0
H785 H 0.77743 0.56006 0.32436 0.0
H786 H 0.73516 0.55836 0.36233 0.0
S787 S 0.7426 0.5011 1.01659 0.0
N788 N 0.76761 0.51277 0.05405 0.0
N789 N 0.72243 0.51047 0.0951 0.0
C790 C 0.73568 0.52402 0.15621 0.0
C791 C 0.76009 0.52531 0.13362 0.0
C792 C 0.04441 0.33266 0.74347 0.0
C793 C 0.02525 0.34559 0.78009 0.0
C794 C 0.05125 0.33434 0.64392 0.0
C795 C 0.03936 0.34926 0.57721 0.0
H796 H 0.05399 0.32094 0.79209 0.0
H797 H 0.0658 0.32363 0.61889 0.0
S798 S 0.9896 0.38879 0.63949 0.0
N799 N 0.99537 0.37486 0.744 0.0
N800 N 0.00848 0.37845 0.5575 0.0
C801 C 0.02045 0.36266 0.61368 0.0
C802 C 0.01335 0.36075 0.71489 0.0
C803 C 0.17502 0.03271 0.12038 0.0
C804 C 0.15439 0.04472 0.09333 0.0
C805 C 0.18076 0.02912 0.2204 0.0
C806 C 0.16618 0.03752 0.29696 0.0
H807 H 0.18609 0.02492 0.06405 0.0
H808 H 0.19635 0.01905 0.23806 0.0
S809 S 0.11132 0.07213 0.26341 0.0
N810 N 0.12055 0.06685 0.14982 0.0
N811 N 0.13074 0.05962 0.33733 0.0
C812 C 0.14614 0.05067 0.27036 0.0
C813 C 0.14041 0.05436 0.16869 0.0
C814 C 0.45065 0.16924 0.78137 0.0
C815 C 0.47299 0.16291 0.81696 0.0
C816 C 0.44447 0.16576 0.6819 0.0
C817 C 0.46035 0.15566 0.61409 0.0
H818 H 0.43791 0.1771 0.83085 0.0
H819 H 0.42717 0.17122 0.6578 0.0
S820 S 0.52034 0.13411 0.67228 0.0
N821 N 0.51061 0.14496 0.77796 0.0
N822 N 0.49897 0.13819 0.59146 0.0
C823 C 0.48267 0.14902 0.64911 0.0
C824 C 0.489 0.15269 0.75033 0.0
C825 C 0.35849 0.48002 0.1223 0.0
C826 C 0.34339 0.46243 0.08626 0.0
C827 C 0.35791 0.48691 0.22197 0.0
C828 C 0.34226 0.47642 0.28949 0.0
H829 H 0.37113 0.48824 0.07337 0.0
H830 H 0.37014 0.50021 0.24691 0.0
S831 S 0.29726 0.43149 0.23089 0.0
N832 N 0.31098 0.43606 0.12484 0.0
N833 N 0.31021 0.44881 0.31222 0.0
C834 C 0.32674 0.45918 0.25421 0.0
C835 C 0.32722 0.45223 0.15264 0.0
C836 C 0.04543 0.15406 0.75818 0.0
C837 C 0.02679 0.16889 0.72996 0.0
C838 C 0.05057 0.14981 0.85815 0.0
C839 C 0.03718 0.15999 0.93487 0.0
H840 H 0.05573 0.14498 0.70271 0.0
H841 H 0.065 0.13812 0.87523 0.0
S842 S 0.9876 0.2019 0.90008 0.0
N843 N 0.9963 0.19557 0.78672 0.0
N844 N 0.0048 0.18651 0.974 0.0
C845 C 0.01892 0.17551 0.90752 0.0
C846 C 0.01398 0.18015 0.80545 0.0
C847 C 0.33542 0.00681 0.32364 0.0
C848 C 0.33591 0.02469 0.25142 0.0
C849 C 0.34003 0.01171 0.42361 0.0
C850 C 0.34547 0.03462 0.45497 0.0
H851 H 0.33204 0.98879 0.30242 0.0
H852 H 0.34 0.99737 0.47637 0.0
S853 S 0.34617 0.08819 0.29853 0.0
N854 N 0.34003 0.06668 0.22088 0.0
N855 N 0.34923 0.07563 0.408 0.0
C856 C 0.34534 0.05276 0.38438 0.0
C857 C 0.34043 0.04786 0.28286 0.0
C858 C 0.47374 0.32346 0.83427 0.0
C859 C 0.4784 0.34109 0.76351 0.0
C860 C 0.46928 0.32904 0.93375 0.0
C861 C 0.46913 0.35246 0.9668 0.0
H862 H 0.47302 0.30519 0.81229 0.0
H863 H 0.46537 0.31495 0.98493 0.0
S864 S 0.48217 0.40511 0.81423 0.0
N865 N 0.48406 0.38296 0.73579 0.0
N866 N 0.47526 0.39336 0.92222 0.0
C867 C 0.47408 0.37026 0.89752 0.0
C868 C 0.47883 0.3646 0.7962 0.0
C869 C 0.18182 0.47871 0.35036 0.0
C870 C 0.16465 0.48366 0.27808 0.0
C871 C 0.17573 0.47501 0.44987 0.0
C872 C 0.15219 0.4759 0.48145 0.0
H873 H 0.20014 0.47723 0.32972 0.0
H874 H 0.18951 0.47091 0.50231 0.0
S875 S 0.10062 0.4903 0.3251 0.0
N876 N 0.12309 0.49092 0.24773 0.0
N877 N 0.11173 0.48337 0.43419 0.0
C878 C 0.13484 0.48112 0.41076 0.0
C879 C 0.14104 0.48515 0.30938 0.0
C880 C 0.99604 0.66392 0.46145 0.0
C881 C 0.9744 0.65519 0.49615 0.0
C882 C 0.99905 0.67039 0.36172 0.0
C883 C 0.98047 0.66852 0.29337 0.0
H884 H 0.0108 0.66543 0.51155 0.0
H885 H 0.0161 0.67659 0.33754 0.0
S886 S 0.91941 0.65031 0.35102 0.0
N887 N 0.9336 0.64713 0.45671 0.0
N888 N 0.93909 0.65985 0.27058 0.0
C889 C 0.95857 0.66064 0.32826 0.0
C890 C 0.95557 0.65384 0.42928 0.0
C891 C 0.83135 0.98114 0.8784 0.0
C892 C 0.85103 0.96827 0.9097 0.0
C893 C 0.82846 0.98736 0.7785 0.0
C894 C 0.84534 0.9812 0.70639 0.0
H895 H 0.81778 0.98575 0.9312 0.0
H896 H 0.81253 0.99644 0.75741 0.0
S897 S 0.90154 0.9498 0.75607 0.0
N898 N 0.88818 0.95063 0.86457 0.0
N899 N 0.88383 0.96342 0.678 0.0
C900 C 0.86569 0.96917 0.73871 0.0
C901 C 0.86825 0.96242 0.84004 0.0
C902 C 0.51845 0.8506 0.41284 0.0
C903 C 0.53708 0.83703 0.45046 0.0
C904 C 0.51149 0.84886 0.31343 0.0
C905 C 0.5228 0.83338 0.24734 0.0
H906 H 0.50946 0.86301 0.46035 0.0
H907 H 0.49744 0.86013 0.28762 0.0
S908 S 0.57103 0.7922 0.31108 0.0
N909 N 0.56571 0.8064 0.41525 0.0
N910 N 0.55261 0.80316 0.2286 0.0
C911 C 0.54115 0.81935 0.28444 0.0
C912 C 0.54829 0.82116 0.38581 0.0
C913 C 0.67512 0.52378 0.90948 0.0
C914 C 0.65212 0.52947 0.93962 0.0
C915 C 0.68044 0.51913 0.80979 0.0
C916 C 0.66295 0.52003 0.73629 0.0
H917 H 0.68922 0.52358 0.96301 0.0
H918 H 0.69848 0.51539 0.78969 0.0
S919 S 0.59943 0.53129 0.77839 0.0
N920 N 0.61141 0.5339 0.88909 0.0
N921 N 0.62126 0.52504 0.70232 0.0
C922 C 0.63973 0.52499 0.766 0.0
C923 C 0.63436 0.52975 0.86739 0.0
C924 C 0.95913 0.85524 0.24654 0.0
C925 C 0.97877 0.8418 0.27552 0.0
C926 C 0.95277 0.8575 0.1467 0.0
C927 C 0.96588 0.84656 0.07161 0.0
H928 H 0.94873 0.86439 0.30116 0.0
H929 H 0.9376 0.86809 0.12777 0.0
S930 S 0.01719 0.8073 0.10744 0.0
N931 N 0.01015 0.81586 0.22039 0.0
N932 N 0.99832 0.82042 0.03278 0.0
C933 C 0.98529 0.83274 0.09912 0.0
C934 C 0.9917 0.83029 0.20096 0.0
C935 C 0.64585 0.99069 0.71471 0.0
C936 C 0.66109 0.9791 0.78072 0.0
C937 C 0.64407 0.98372 0.61531 0.0
C938 C 0.65751 0.96494 0.5779 0.0
H939 H 0.63488 0.00496 0.74068 0.0
H940 H 0.63181 0.99286 0.56762 0.0
S941 S 0.70212 0.93077 0.718 0.0
N942 N 0.69104 0.94911 0.80038 0.0
N943 N 0.6881 0.93624 0.61351 0.0
C944 C 0.67329 0.95363 0.64273 0.0
C945 C 0.67496 0.96065 0.74407 0.0
C946 C 0.52116 0.64182 0.1363 0.0
C947 C 0.54135 0.65327 0.10014 0.0
C948 C 0.51436 0.64381 0.2359 0.0
C949 C 0.52752 0.65728 0.3033 0.0
H950 H 0.5108 0.63085 0.08759 0.0
H951 H 0.499 0.63428 0.26094 0.0
S952 S 0.58016 0.69302 0.24416 0.0
N953 N 0.57323 0.68027 0.13843 0.0
N954 N 0.56059 0.68367 0.32543 0.0
C955 C 0.54737 0.6693 0.26773 0.0
C956 C 0.55425 0.66738 0.16629 0.0
C957 C 0.83057 0.55061 0.62531 0.0
C958 C 0.84651 0.54009 0.55885 0.0
C959 C 0.82944 0.5436 0.72496 0.0
C960 C 0.8441 0.52572 0.76183 0.0
H961 H 0.81859 0.5641 0.59979 0.0
H962 H 0.8168 0.552 0.77332 0.0
S963 S 0.89077 0.49456 0.6217 0.0
N964 N 0.87857 0.51225 0.5395 0.0
N965 N 0.87633 0.49899 0.72609 0.0
C966 C 0.86046 0.51543 0.69682 0.0
C967 C 0.86168 0.52263 0.5956 0.0
loop_
_geom_bond_atom_site_label_1
_geom_bond_atom_site_label_2
_geom_bond_distance
_geom_bond_site_symmetry_2
_ccdc_geom_bond_type
C0 C1 1.351 . S
C0 N3 1.368 . S
C0 H5 0.931 1_455 S
C1 C0 1.351 . S
C1 N2 1.373 . S
C1 H29 0.930 1_455 S
N2 C1 1.373 . S
N2 C4 1.340 . S
N3 C0 1.368 . S
N3 C4 1.321 . S
N3 Co6 2.135 1_556 S
C4 N2 1.340 . S
C4 N3 1.321 . S
C4 H28 0.930 . S
H5 C0 0.931 1_655 S
Co6 N3 2.135 1_554 S
Co6 N9 2.121 . S
Co6 O14 2.055 . S
Co6 O17 2.039 . S
Co6 N20 2.140 1_455 S
C7 O8 1.227 . S
C7 O17 1.265 . S
O8 C7 1.227 . S
N9 Co6 2.121 . S
N9 C11 1.375 . S
N9 C12 1.313 . S
C10 C11 1.338 . S
C10 N13 1.377 . S
C10 H30 0.930 . S
C11 N9 1.375 . S
C11 C10 1.338 . S
C11 H15 0.931 . S
C12 N9 1.313 . S
C12 N13 1.344 . S
C12 H16 0.930 . S
N13 C10 1.377 . S
N13 C12 1.344 . S
O14 Co6 2.055 . S
O14 C18 1.253 . S
H15 C11 0.931 . S
H16 C12 0.930 . S
O17 Co6 2.039 . S
O17 C7 1.265 . S
C18 O14 1.253 . S
C18 O19 1.233 . S
O19 C18 1.233 . S
N20 Co6 2.140 1_655 S
N20 C23 1.346 . S
N20 C24 1.345 . S
C21 C22 1.387 . S
C21 C25 1.391 . S
C22 C21 1.387 . S
C22 C23 1.369 . S
C22 H31 0.929 1_554 S
C23 N20 1.346 . S
C23 C22 1.369 . S
C23 H26 0.928 1_654 S
C24 N20 1.345 . S
C24 C25 1.371 . S
C24 H27 0.931 . S
C25 C21 1.391 . S
C25 C24 1.371 . S
C25 H32 0.930 . S
H26 C23 0.928 1_456 S
H27 C24 0.931 . S
H28 C4 0.930 . S
H29 C1 0.930 1_655 S
H30 C10 0.930 . S
H31 C22 0.929 1_556 S
H32 C25 0.930 . S
C33 C34 1.351 . S
C33 N36 1.368 . S
C33 H38 0.931 1_545 S
C34 C33 1.351 . S
C34 N35 1.373 . S
C34 H62 0.930 1_545 S
N35 C34 1.373 . S
N35 C37 1.340 . S
N36 C33 1.368 . S
N36 C37 1.321 . S
N36 Co39 2.135 . S
C37 N35 1.340 . S
C37 N36 1.321 . S
C37 H61 0.930 . S
H38 C33 0.931 1_565 S
Co39 N36 2.135 . S
Co39 N42 2.121 . S
Co39 O47 2.055 . S
Co39 O50 2.039 . S
Co39 N53 2.140 1_545 S
C40 O41 1.227 . S
C40 O50 1.265 . S
O41 C40 1.227 . S
N42 Co39 2.121 . S
N42 C44 1.375 . S
N42 C45 1.313 . S
C43 C44 1.338 . S
C43 N46 1.377 . S
C43 H63 0.930 . S
C44 N42 1.375 . S
C44 C43 1.338 . S
C44 H48 0.931 . S
C45 N42 1.313 . S
C45 N46 1.344 . S
C45 H49 0.930 . S
N46 C43 1.377 . S
N46 C45 1.344 . S
O47 Co39 2.055 . S
O47 C51 1.253 . S
H48 C44 0.931 . S
H49 C45 0.930 . S
O50 Co39 2.039 . S
O50 C40 1.265 . S
C51 O47 1.253 . S
C51 O52 1.233 . S
O52 C51 1.233 . S
N53 Co39 2.140 1_565 S
N53 C56 1.346 . S
N53 C57 1.345 . S
C54 C55 1.387 . S
C54 C58 1.391 . S
C55 C54 1.387 . S
C55 C56 1.369 . S
C55 H64 0.929 . S
C56 N53 1.346 . S
C56 C55 1.369 . S
C56 H59 0.928 1_565 S
C57 N53 1.345 . S
C57 C58 1.371 . S
C57 H60 0.931 . S
C58 C54 1.391 . S
C58 C57 1.371 . S
C58 H65 0.930 . S
H59 C56 0.928 1_545 S
H60 C57 0.931 . S
H61 C37 0.930 . S
H62 C34 0.930 1_565 S
H63 C43 0.930 . S
H64 C55 0.929 . S
H65 C58 0.930 . S
C66 C67 1.351 . S
C66 N69 1.368 . S
C66 H71 0.931 . S
C67 C66 1.351 . S
C67 N68 1.373 . S
C67 H95 0.930 . S
N68 C67 1.373 . S
N68 C70 1.340 . S
N69 C66 1.368 . S
N69 C70 1.321 . S
N69 Co72 2.135 1_556 S
C70 N68 1.340 . S
C70 N69 1.321 . S
C70 H94 0.930 . S
H71 C66 0.931 . S
Co72 N69 2.135 1_554 S
Co72 N75 2.121 . S
Co72 O80 2.055 . S
Co72 O83 2.039 . S
Co72 N86 2.140 . S
C73 O74 1.227 . S
C73 O83 1.265 . S
O74 C73 1.227 . S
N75 Co72 2.121 . S
N75 C77 1.375 . S
N75 C78 1.313 . S
C76 C77 1.338 . S
C76 N79 1.377 . S
C76 H96 0.930 . S
C77 N75 1.375 . S
C77 C76 1.338 . S
C77 H81 0.931 . S
C78 N75 1.313 . S
C78 N79 1.344 . S
C78 H82 0.930 . S
N79 C76 1.377 . S
N79 C78 1.344 . S
O80 Co72 2.055 . S
O80 C84 1.253 . S
H81 C77 0.931 . S
H82 C78 0.930 . S
O83 Co72 2.039 . S
O83 C73 1.265 . S
C84 O80 1.253 . S
C84 O85 1.227 . S
O85 C84 1.227 . S
N86 Co72 2.140 . S
N86 C89 1.346 . S
N86 C90 1.345 . S
C87 C88 1.387 . S
C87 C91 1.391 . S
C88 C87 1.387 . S
C88 C89 1.369 . S
C88 H97 0.929 1_554 S
C89 N86 1.346 . S
C89 C88 1.369 . S
C89 H92 0.928 1_554 S
C90 N86 1.345 . S
C90 C91 1.371 . S
C90 H93 0.931 . S
C91 C87 1.391 . S
C91 C90 1.371 . S
C91 H98 0.930 . S
H92 C89 0.928 1_556 S
H93 C90 0.931 . S
H94 C70 0.930 . S
H95 C67 0.930 . S
H96 C76 0.930 . S
H97 C88 0.929 1_556 S
H98 C91 0.930 . S
C99 C100 1.351 . S
C99 N102 1.368 . S
C99 H104 0.931 . S
C100 C99 1.351 . S
C100 N101 1.373 . S
C100 H128 0.930 . S
N101 C100 1.373 . S
N101 C103 1.340 . S
N102 C99 1.368 . S
N102 C103 1.321 . S
N102 Co105 2.135 . S
C103 N101 1.340 . S
C103 N102 1.321 . S
C103 H127 0.930 . S
H104 C99 0.931 . S
Co105 N102 2.135 . S
Co105 N108 2.121 . S
Co105 O113 2.055 . S
Co105 O116 2.039 . S
Co105 N119 2.140 . S
C106 O107 1.227 . S
C106 O116 1.265 . S
O107 C106 1.227 . S
N108 Co105 2.121 . S
N108 C110 1.375 . S
N108 C111 1.313 . S
C109 C110 1.338 . S
C109 N112 1.377 . S
C109 H129 0.930 . S
C110 N108 1.375 . S
C110 C109 1.338 . S
C110 H114 0.931 . S
C111 N108 1.313 . S
C111 N112 1.344 . S
C111 H115 0.930 . S
N112 C109 1.377 . S
N112 C111 1.344 . S
O113 Co105 2.055 . S
O113 C117 1.253 . S
H114 C110 0.931 . S
H115 C111 0.930 . S
O116 Co105 2.039 . S
O116 C106 1.265 . S
C117 O113 1.253 . S
C117 O118 1.227 . S
O118 C117 1.227 . S
N119 Co105 2.140 . S
N119 C122 1.346 . S
N119 C123 1.345 . S
C120 C121 1.387 . S
C120 C124 1.391 . S
C121 C120 1.387 . S
C121 C122 1.369 . S
C121 H130 0.929 . S
C122 N119 1.346 . S
C122 C121 1.369 . S
C122 H125 0.928 . S
C123 N119 1.345 . S
C123 C124 1.371 . S
C123 H126 0.931 . S
C124 C120 1.391 . S
C124 C123 1.371 . S
C124 H131 0.930 . S
H125 C122 0.928 . S
H126 C123 0.931 . S
H127 C103 0.930 . S
H128 C100 0.930 . S
H129 C109 0.930 . S
H130 C121 0.929 . S
H131 C124 0.930 . S
C132 C133 1.351 . S
C132 N135 1.368 . S
C132 H137 0.931 1_455 S
C133 C132 1.351 . S
C133 N134 1.373 . S
C133 H161 0.930 1_455 S
N134 C133 1.373 . S
N134 C136 1.340 . S
N135 C132 1.368 . S
N135 C136 1.321 . S
N135 Co138 2.135 . S
C136 N134 1.340 . S
C136 N135 1.321 . S
C136 H160 0.930 . S
H137 C132 0.931 1_655 S
Co138 N135 2.135 . S
Co138 N141 2.121 . S
Co138 O146 2.055 . S
Co138 O149 2.039 . S
Co138 N152 2.140 1_455 S
C139 O140 1.227 . S
C139 O149 1.265 . S
O140 C139 1.227 . S
N141 Co138 2.121 . S
N141 C143 1.375 . S
N141 C144 1.313 . S
C142 C143 1.338 . S
C142 N145 1.377 . S
C142 H162 0.930 . S
C143 N141 1.375 . S
C143 C142 1.338 . S
C143 H147 0.931 . S
C144 N141 1.313 . S
C144 N145 1.344 . S
C144 H148 0.930 . S
N145 C142 1.377 . S
N145 C144 1.344 . S
O146 Co138 2.055 . S
O146 C150 1.253 . S
H147 C143 0.931 . S
H148 C144 0.930 . S
O149 Co138 2.039 . S
O149 C139 1.265 . S
C150 O146 1.253 . S
C150 O151 1.233 . S
O151 C150 1.233 . S
N152 Co138 2.140 1_655 S
N152 C155 1.346 . S
N152 C156 1.345 . S
C153 C154 1.387 . S
C153 C157 1.391 . S
C154 C153 1.387 . S
C154 C155 1.369 . S
C154 H163 0.929 . S
C155 N152 1.346 . S
C155 C154 1.369 . S
C155 H158 0.928 1_655 S
C156 N152 1.345 . S
C156 C157 1.371 . S
C156 H159 0.931 . S
C157 C153 1.391 . S
C157 C156 1.371 . S
C157 H164 0.930 . S
H158 C155 0.928 1_455 S
H159 C156 0.931 . S
H160 C136 0.930 . S
H161 C133 0.930 1_655 S
H162 C142 0.930 . S
H163 C154 0.929 . S
H164 C157 0.930 . S
C165 C166 1.351 . S
C165 N168 1.368 . S
C165 H170 0.931 1_545 S
C166 C165 1.351 . S
C166 N167 1.373 . S
C166 H194 0.930 1_545 S
N167 C166 1.373 . S
N167 C169 1.340 . S
N168 C165 1.368 . S
N168 C169 1.321 . S
N168 Co171 2.135 1_554 S
C169 N167 1.340 . S
C169 N168 1.321 . S
C169 H193 0.930 . S
H170 C165 0.931 1_565 S
Co171 N168 2.135 1_556 S
Co171 N174 2.121 . S
Co171 O179 2.055 . S
Co171 O182 2.039 . S
Co171 N185 2.140 1_545 S
C172 O173 1.227 . S
C172 O182 1.265 . S
O173 C172 1.227 . S
N174 Co171 2.121 . S
N174 C176 1.375 . S
N174 C177 1.313 . S
C175 C176 1.338 . S
C175 N178 1.377 . S
C175 H195 0.930 . S
C176 N174 1.375 . S
C176 C175 1.338 . S
C176 H180 0.931 . S
C177 N174 1.313 . S
C177 N178 1.344 . S
C177 H181 0.930 . S
N178 C175 1.377 . S
N178 C177 1.344 . S
O179 Co171 2.055 . S
O179 C183 1.253 . S
H180 C176 0.931 . S
H181 C177 0.930 . S
O182 Co171 2.039 . S
O182 C172 1.265 . S
C183 O179 1.253 . S
C183 O184 1.233 . S
O184 C183 1.233 . S
N185 Co171 2.140 1_565 S
N185 C188 1.346 . S
N185 C189 1.345 . S
C186 C187 1.387 . S
C186 C190 1.391 . S
C187 C186 1.387 . S
C187 C188 1.369 . S
C187 H196 0.929 1_556 S
C188 N185 1.346 . S
C188 C187 1.369 . S
C188 H191 0.928 1_566 S
C189 N185 1.345 . S
C189 C190 1.371 . S
C189 H192 0.931 . S
C190 C186 1.391 . S
C190 C189 1.371 . S
C190 H197 0.930 . S
H191 C188 0.928 1_544 S
H192 C189 0.931 . S
H193 C169 0.930 . S
H194 C166 0.930 1_565 S
H195 C175 0.930 . S
H196 C187 0.929 1_554 S
H197 C190 0.930 . S
C198 C199 1.351 . S
C198 N201 1.368 . S
C198 H203 0.931 . S
C199 C198 1.351 . S
C199 N200 1.373 . S
C199 H227 0.930 . S
N200 C199 1.373 . S
N200 C202 1.340 . S
N201 C198 1.368 . S
N201 C202 1.321 . S
N201 Co204 2.135 . S
C202 N200 1.340 . S
C202 N201 1.321 . S
C202 H226 0.930 . S
H203 C198 0.931 . S
Co204 N201 2.135 . S
Co204 N207 2.121 . S
Co204 O212 2.055 . S
Co204 O215 2.039 . S
Co204 N218 2.140 . S
C205 O206 1.227 . S
C205 O215 1.265 . S
O206 C205 1.227 . S
N207 Co204 2.121 . S
N207 C209 1.375 . S
N207 C210 1.313 . S
C208 C209 1.338 . S
C208 N211 1.377 . S
C208 H228 0.930 . S
C209 N207 1.375 . S
C209 C208 1.338 . S
C209 H213 0.931 . S
C210 N207 1.313 . S
C210 N211 1.344 . S
C210 H214 0.930 . S
N211 C208 1.377 . S
N211 C210 1.344 . S
O212 Co204 2.055 . S
O212 C216 1.253 . S
H213 C209 0.931 . S
H214 C210 0.930 . S
O215 Co204 2.039 . S
O215 C205 1.265 . S
C216 O212 1.253 . S
C216 O217 1.227 . S
O217 C216 1.227 . S
N218 Co204 2.140 . S
N218 C221 1.346 . S
N218 C222 1.345 . S
C219 C220 1.387 . S
C219 C223 1.391 . S
C220 C219 1.387 . S
C220 C221 1.369 . S
C220 H229 0.929 . S
C221 N218 1.346 . S
C221 C220 1.369 . S
C221 H224 0.928 . S
C222 N218 1.345 . S
C222 C223 1.371 . S
C222 H225 0.931 . S
C223 C219 1.391 . S
C223 C222 1.371 . S
C223 H230 0.930 . S
H224 C221 0.928 . S
H225 C222 0.931 . S
H226 C202 0.930 . S
H227 C199 0.930 . S
H228 C208 0.930 . S
H229 C220 0.929 . S
H230 C223 0.930 . S
C231 C232 1.351 . S
C231 N234 1.368 . S
C231 H236 0.931 . S
C232 C231 1.351 . S
C232 N233 1.373 . S
C232 H260 0.930 . S
N233 C232 1.373 . S
N233 C235 1.340 . S
N234 C231 1.368 . S
N234 C235 1.321 . S
N234 Co237 2.135 1_554 S
C235 N233 1.340 . S
C235 N234 1.321 . S
C235 H259 0.930 . S
H236 C231 0.931 . S
Co237 N234 2.135 1_556 S
Co237 N240 2.121 . S
Co237 O245 2.055 . S
Co237 O248 2.039 . S
Co237 N251 2.140 . S
C238 O239 1.227 . S
C238 O248 1.265 . S
O239 C238 1.227 . S
N240 Co237 2.121 . S
N240 C242 1.375 . S
N240 C243 1.313 . S
C241 C242 1.338 . S
C241 N244 1.377 . S
C241 H261 0.930 . S
C242 N240 1.375 . S
C242 C241 1.338 . S
C242 H246 0.931 . S
C243 N240 1.313 . S
C243 N244 1.344 . S
C243 H247 0.930 . S
N244 C241 1.377 . S
N244 C243 1.344 . S
O245 Co237 2.055 . S
O245 C249 1.253 . S
H246 C242 0.931 . S
H247 C243 0.930 . S
O248 Co237 2.039 . S
O248 C238 1.265 . S
C249 O245 1.253 . S
C249 O250 1.227 . S
O250 C249 1.227 . S
N251 Co237 2.140 . S
N251 C254 1.346 . S
N251 C255 1.345 . S
C252 C253 1.387 . S
C252 C256 1.391 . S
C253 C252 1.387 . S
C253 C254 1.369 . S
C253 H262 0.929 1_556 S
C254 N251 1.346 . S
C254 C253 1.369 . S
C254 H257 0.928 1_556 S
C255 N251 1.345 . S
C255 C256 1.371 . S
C255 H258 0.931 . S
C256 C252 1.391 . S
C256 C255 1.371 . S
C256 H263 0.930 . S
H257 C254 0.928 1_554 S
H258 C255 0.931 . S
H259 C235 0.930 . S
H260 C232 0.930 . S
H261 C241 0.930 . S
H262 C253 0.929 1_554 S
H263 C256 0.930 . S
C264 C265 1.351 . S
C264 N267 1.368 . S
C264 H269 0.931 1_655 S
C265 C264 1.351 . S
C265 N266 1.373 . S
C265 H293 0.930 1_655 S
N266 C265 1.373 . S
N266 C268 1.340 . S
N267 C264 1.368 . S
N267 C268 1.321 . S
N267 Co270 2.135 1_554 S
C268 N266 1.340 . S
C268 N267 1.321 . S
C268 H292 0.930 . S
H269 C264 0.931 1_455 S
Co270 N267 2.135 1_556 S
Co270 N273 2.121 . S
Co270 O278 2.055 . S
Co270 O281 2.039 . S
Co270 N284 2.140 1_655 S
C271 O272 1.227 . S
C271 O281 1.265 . S
O272 C271 1.227 . S
N273 Co270 2.121 . S
N273 C275 1.375 . S
N273 C276 1.313 . S
C274 C275 1.338 . S
C274 N277 1.377 . S
C274 H294 0.930 . S
C275 N273 1.375 . S
C275 C274 1.338 . S
C275 H279 0.931 . S
C276 N273 1.313 . S
C276 N277 1.344 . S
C276 H280 0.930 . S
N277 C274 1.377 . S
N277 C276 1.344 . S
O278 Co270 2.055 . S
O278 C282 1.253 . S
H279 C275 0.931 . S
H280 C276 0.930 . S
O281 Co270 2.039 . S
O281 C271 1.265 . S
C282 O278 1.253 . S
C282 O283 1.233 . S
O283 C282 1.233 . S
N284 Co270 2.140 1_455 S
N284 C287 1.346 . S
N284 C288 1.345 . S
C285 C286 1.387 . S
C285 C289 1.391 . S
C286 C285 1.387 . S
C286 C287 1.369 . S
C286 H295 0.929 1_556 S
C287 N284 1.346 . S
C287 C286 1.369 . S
C287 H290 0.928 1_456 S
C288 N284 1.345 . S
C288 C289 1.371 . S
C288 H291 0.931 . S
C289 C285 1.391 . S
C289 C288 1.371 . S
C289 H296 0.930 . S
H290 C287 0.928 1_654 S
H291 C288 0.931 . S
H292 C268 0.930 . S
H293 C265 0.930 1_455 S
H294 C274 0.930 . S
H295 C286 0.929 1_554 S
H296 C289 0.930 . S
C297 C298 1.351 . S
C297 N300 1.368 . S
C297 H302 0.931 1_565 S
C298 C297 1.351 . S
C298 N299 1.373 . S
C298 H326 0.930 1_565 S
N299 C298 1.373 . S
N299 C301 1.340 . S
N300 C297 1.368 . S
N300 C301 1.321 . S
N300 Co303 2.135 . S
C301 N299 1.340 . S
C301 N300 1.321 . S
C301 H325 0.930 . S
H302 C297 0.931 1_545 S
Co303 N300 2.135 . S
Co303 N306 2.121 . S
Co303 O311 2.055 . S
Co303 O314 2.039 . S
Co303 N317 2.140 1_565 S
C304 O305 1.227 . S
C304 O314 1.265 . S
O305 C304 1.227 . S
N306 Co303 2.121 . S
N306 C308 1.375 . S
N306 C309 1.313 . S
C307 C308 1.338 . S
C307 N310 1.377 . S
C307 H327 0.930 . S
C308 N306 1.375 . S
C308 C307 1.338 . S
C308 H312 0.931 . S
C309 N306 1.313 . S
C309 N310 1.344 . S
C309 H313 0.930 . S
N310 C307 1.377 . S
N310 C309 1.344 . S
O311 Co303 2.055 . S
O311 C315 1.253 . S
H312 C308 0.931 . S
H313 C309 0.930 . S
O314 Co303 2.039 . S
O314 C304 1.265 . S
C315 O311 1.253 . S
C315 O316 1.233 . S
O316 C315 1.233 . S
N317 Co303 2.140 1_545 S
N317 C320 1.346 . S
N317 C321 1.345 . S
C318 C319 1.387 . S
C318 C322 1.391 . S
C319 C318 1.387 . S
C319 C320 1.369 . S
C319 H328 0.929 . S
C320 N317 1.346 . S
C320 C319 1.369 . S
C320 H323 0.928 1_545 S
C321 N317 1.345 . S
C321 C322 1.371 . S
C321 H324 0.931 . S
C322 C318 1.391 . S
C322 C321 1.371 . S
C322 H329 0.930 . S
H323 C320 0.928 1_565 S
H324 C321 0.931 . S
H325 C301 0.930 . S
H326 C298 0.930 1_545 S
H327 C307 0.930 . S
H328 C319 0.929 . S
H329 C322 0.930 . S
C330 C331 1.351 . S
C330 N333 1.368 . S
C330 H335 0.931 . S
C331 C330 1.351 . S
C331 N332 1.373 . S
C331 H359 0.930 . S
N332 C331 1.373 . S
N332 C334 1.340 . S
N333 C330 1.368 . S
N333 C334 1.321 . S
N333 Co336 2.135 1_554 S
C334 N332 1.340 . S
C334 N333 1.321 . S
C334 H358 0.930 . S
H335 C330 0.931 . S
Co336 N333 2.135 1_556 S
Co336 N339 2.121 . S
Co336 O344 2.055 . S
Co336 O347 2.039 . S
Co336 N350 2.140 . S
C337 O338 1.227 . S
C337 O347 1.265 . S
O338 C337 1.227 . S
N339 Co336 2.121 . S
N339 C341 1.375 . S
N339 C342 1.313 . S
C340 C341 1.338 . S
C340 N343 1.377 . S
C340 H360 0.930 . S
C341 N339 1.375 . S
C341 C340 1.338 . S
C341 H345 0.931 . S
C342 N339 1.313 . S
C342 N343 1.344 . S
C342 H346 0.930 . S
N343 C340 1.377 . S
N343 C342 1.344 . S
O344 Co336 2.055 . S
O344 C348 1.253 . S
H345 C341 0.931 . S
H346 C342 0.930 . S
O347 Co336 2.039 . S
O347 C337 1.265 . S
C348 O344 1.253 . S
C348 O349 1.227 . S
O349 C348 1.227 . S
N350 Co336 2.140 . S
N350 C353 1.346 . S
N350 C354 1.345 . S
C351 C352 1.387 . S
C351 C355 1.391 . S
C352 C351 1.387 . S
C352 C353 1.369 . S
C352 H361 0.929 1_556 S
C353 N350 1.346 . S
C353 C352 1.369 . S
C353 H356 0.928 1_556 S
C354 N350 1.345 . S
C354 C355 1.371 . S
C354 H357 0.931 . S
C355 C351 1.391 . S
C355 C354 1.371 . S
C355 H362 0.930 . S
H356 C353 0.928 1_554 S
H357 C354 0.931 . S
H358 C334 0.930 . S
H359 C331 0.930 . S
H360 C340 0.930 . S
H361 C352 0.929 1_554 S
H362 C355 0.930 . S
C363 C364 1.351 . S
C363 N366 1.368 . S
C363 H368 0.931 . S
C364 C363 1.351 . S
C364 N365 1.373 . S
C364 H392 0.930 . S
N365 C364 1.373 . S
N365 C367 1.340 . S
N366 C363 1.368 . S
N366 C367 1.321 . S
N366 Co369 2.135 . S
C367 N365 1.340 . S
C367 N366 1.321 . S
C367 H391 0.930 . S
H368 C363 0.931 . S
Co369 N366 2.135 . S
Co369 N372 2.121 . S
Co369 O377 2.055 . S
Co369 O380 2.039 . S
Co369 N383 2.140 . S
C370 O371 1.227 . S
C370 O380 1.265 . S
O371 C370 1.227 . S
N372 Co369 2.121 . S
N372 C374 1.375 . S
N372 C375 1.313 . S
C373 C374 1.338 . S
C373 N376 1.377 . S
C373 H393 0.930 . S
C374 N372 1.375 . S
C374 C373 1.338 . S
C374 H378 0.931 . S
C375 N372 1.313 . S
C375 N376 1.344 . S
C375 H379 0.930 . S
N376 C373 1.377 . S
N376 C375 1.344 . S
O377 Co369 2.055 . S
O377 C381 1.253 . S
H378 C374 0.931 . S
H379 C375 0.930 . S
O380 Co369 2.039 . S
O380 C370 1.265 . S
C381 O377 1.253 . S
C381 O382 1.227 . S
O382 C381 1.227 . S
N383 Co369 2.140 . S
N383 C386 1.346 . S
N383 C387 1.345 . S
C384 C385 1.387 . S
C384 C388 1.391 . S
C385 C384 1.387 . S
C385 C386 1.369 . S
C385 H394 0.929 . S
C386 N383 1.346 . S
C386 C385 1.369 . S
C386 H389 0.928 . S
C387 N383 1.345 . S
C387 C388 1.371 . S
C387 H390 0.931 . S
C388 C384 1.391 . S
C388 C387 1.371 . S
C388 H395 0.930 . S
H389 C386 0.928 . S
H390 C387 0.931 . S
H391 C367 0.930 . S
H392 C364 0.930 . S
H393 C373 0.930 . S
H394 C385 0.929 . S
H395 C388 0.930 . S
C396 C397 1.351 . S
C396 N399 1.368 . S
C396 H401 0.931 1_655 S
C397 C396 1.351 . S
C397 N398 1.373 . S
C397 H425 0.930 1_655 S
N398 C397 1.373 . S
N398 C400 1.340 . S
N399 C396 1.368 . S
N399 C400 1.321 . S
N399 Co402 2.135 . S
C400 N398 1.340 . S
C400 N399 1.321 . S
C400 H424 0.930 . S
H401 C396 0.931 1_455 S
Co402 N399 2.135 . S
Co402 N405 2.121 . S
Co402 O410 2.055 . S
Co402 O413 2.039 . S
Co402 N416 2.140 1_655 S
C403 O404 1.227 . S
C403 O413 1.265 . S
O404 C403 1.227 . S
N405 Co402 2.121 . S
N405 C407 1.375 . S
N405 C408 1.313 . S
C406 C407 1.338 . S
C406 N409 1.377 . S
C406 H426 0.930 . S
C407 N405 1.375 . S
C407 C406 1.338 . S
C407 H411 0.931 . S
C408 N405 1.313 . S
C408 N409 1.344 . S
C408 H412 0.930 . S
N409 C406 1.377 . S
N409 C408 1.344 . S
O410 Co402 2.055 . S
O410 C414 1.253 . S
H411 C407 0.931 . S
H412 C408 0.930 . S
O413 Co402 2.039 . S
O413 C403 1.265 . S
C414 O410 1.253 . S
C414 O415 1.233 . S
O415 C414 1.233 . S
N416 Co402 2.140 1_455 S
N416 C419 1.346 . S
N416 C420 1.345 . S
C417 C418 1.387 . S
C417 C421 1.391 . S
C418 C417 1.387 . S
C418 C419 1.369 . S
C418 H427 0.929 . S
C419 N416 1.346 . S
C419 C418 1.369 . S
C419 H422 0.928 1_455 S
C420 N416 1.345 . S
C420 C421 1.371 . S
C420 H423 0.931 . S
C421 C417 1.391 . S
C421 C420 1.371 . S
C421 H428 0.930 . S
H422 C419 0.928 1_655 S
H423 C420 0.931 . S
H424 C400 0.930 . S
H425 C397 0.930 1_455 S
H426 C406 0.930 . S
H427 C418 0.929 . S
H428 C421 0.930 . S
C429 C430 1.351 . S
C429 N432 1.368 . S
C429 H434 0.931 1_565 S
C430 C429 1.351 . S
C430 N431 1.373 . S
C430 H458 0.930 1_565 S
N431 C430 1.373 . S
N431 C433 1.340 . S
N432 C429 1.368 . S
N432 C433 1.321 . S
N432 Co435 2.135 1_556 S
C433 N431 1.340 . S
C433 N432 1.321 . S
C433 H457 0.930 . S
H434 C429 0.931 1_545 S
Co435 N432 2.135 1_554 S
Co435 N438 2.121 . S
Co435 O443 2.055 . S
Co435 O446 2.039 . S
Co435 N449 2.140 1_565 S
C436 O437 1.227 . S
C436 O446 1.265 . S
O437 C436 1.227 . S
N438 Co435 2.121 . S
N438 C440 1.375 . S
N438 C441 1.313 . S
C439 C440 1.338 . S
C439 N442 1.377 . S
C439 H459 0.930 . S
C440 N438 1.375 . S
C440 C439 1.338 . S
C440 H444 0.931 . S
C441 N438 1.313 . S
C441 N442 1.344 . S
C441 H445 0.930 . S
N442 C439 1.377 . S
N442 C441 1.344 . S
O443 Co435 2.055 . S
O443 C447 1.253 . S
H444 C440 0.931 . S
H445 C441 0.930 . S
O446 Co435 2.039 . S
O446 C436 1.265 . S
C447 O443 1.253 . S
C447 O448 1.233 . S
O448 C447 1.233 . S
N449 Co435 2.140 1_545 S
N449 C452 1.346 . S
N449 C453 1.345 . S
C450 C451 1.387 . S
C450 C454 1.391 . S
C451 C450 1.387 . S
C451 C452 1.369 . S
C451 H460 0.929 1_554 S
C452 N449 1.346 . S
C452 C451 1.369 . S
C452 H455 0.928 1_544 S
C453 N449 1.345 . S
C453 C454 1.371 . S
C453 H456 0.931 . S
C454 C450 1.391 . S
C454 C453 1.371 . S
C454 H461 0.930 . S
H455 C452 0.928 1_566 S
H456 C453 0.931 . S
H457 C433 0.930 . S
H458 C430 0.930 1_545 S
H459 C439 0.930 . S
H460 C451 0.929 1_556 S
H461 C454 0.930 . S
C462 C463 1.351 . S
C462 N465 1.368 . S
C462 H467 0.931 . S
C463 C462 1.351 . S
C463 N464 1.373 . S
C463 H491 0.930 . S
N464 C463 1.373 . S
N464 C466 1.340 . S
N465 C462 1.368 . S
N465 C466 1.321 . S
N465 Co468 2.135 . S
C466 N464 1.340 . S
C466 N465 1.321 . S
C466 H490 0.930 . S
H467 C462 0.931 . S
Co468 N465 2.135 . S
Co468 N471 2.121 . S
Co468 O476 2.055 . S
Co468 O479 2.039 . S
Co468 N482 2.140 . S
C469 O470 1.227 . S
C469 O479 1.265 . S
O470 C469 1.227 . S
N471 Co468 2.121 . S
N471 C473 1.375 . S
N471 C474 1.313 . S
C472 C473 1.338 . S
C472 N475 1.377 . S
C472 H492 0.930 . S
C473 N471 1.375 . S
C473 C472 1.338 . S
C473 H477 0.931 . S
C474 N471 1.313 . S
C474 N475 1.344 . S
C474 H478 0.930 . S
N475 C472 1.377 . S
N475 C474 1.344 . S
O476 Co468 2.055 . S
O476 C480 1.253 . S
H477 C473 0.931 . S
H478 C474 0.930 . S
O479 Co468 2.039 . S
O479 C469 1.265 . S
C480 O476 1.253 . S
C480 O481 1.227 . S
O481 C480 1.227 . S
N482 Co468 2.140 . S
N482 C485 1.346 . S
N482 C486 1.345 . S
C483 C484 1.387 . S
C483 C487 1.391 . S
C484 C483 1.387 . S
C484 C485 1.369 . S
C484 H493 0.929 . S
C485 N482 1.346 . S
C485 C484 1.369 . S
C485 H488 0.928 . S
C486 N482 1.345 . S
C486 C487 1.371 . S
C486 H489 0.931 . S
C487 C483 1.391 . S
C487 C486 1.371 . S
C487 H494 0.930 . S
H488 C485 0.928 . S
H489 C486 0.931 . S
H490 C466 0.930 . S
H491 C463 0.930 . S
H492 C472 0.930 . S
H493 C484 0.929 . S
H494 C487 0.930 . S
C495 C496 1.351 . S
C495 N498 1.368 . S
C495 H500 0.931 . S
C496 C495 1.351 . S
C496 N497 1.373 . S
C496 H524 0.930 . S
N497 C496 1.373 . S
N497 C499 1.340 . S
N498 C495 1.368 . S
N498 C499 1.321 . S
N498 Co501 2.135 1_556 S
C499 N497 1.340 . S
C499 N498 1.321 . S
C499 H523 0.930 . S
H500 C495 0.931 . S
Co501 N498 2.135 1_554 S
Co501 N504 2.121 . S
Co501 O509 2.055 . S
Co501 O512 2.039 . S
Co501 N515 2.140 . S
C502 O503 1.227 . S
C502 O512 1.265 . S
O503 C502 1.227 . S
N504 Co501 2.121 . S
N504 C506 1.375 . S
N504 C507 1.313 . S
C505 C506 1.338 . S
C505 N508 1.377 . S
C505 H525 0.930 . S
C506 N504 1.375 . S
C506 C505 1.338 . S
C506 H510 0.931 . S
C507 N504 1.313 . S
C507 N508 1.344 . S
C507 H511 0.930 . S
N508 C505 1.377 . S
N508 C507 1.344 . S
O509 Co501 2.055 . S
O509 C513 1.253 . S
H510 C506 0.931 . S
H511 C507 0.930 . S
O512 Co501 2.039 . S
O512 C502 1.265 . S
C513 O509 1.253 . S
C513 O514 1.227 . S
O514 C513 1.227 . S
N515 Co501 2.140 . S
N515 C518 1.346 . S
N515 C519 1.345 . S
C516 C517 1.387 . S
C516 C520 1.391 . S
C517 C516 1.387 . S
C517 C518 1.369 . S
C517 H526 0.929 1_554 S
C518 N515 1.346 . S
C518 C517 1.369 . S
C518 H521 0.928 1_554 S
C519 N515 1.345 . S
C519 C520 1.371 . S
C519 H522 0.931 . S
C520 C516 1.391 . S
C520 C519 1.371 . S
C520 H527 0.930 . S
H521 C518 0.928 1_556 S
H522 C519 0.931 . S
H523 C499 0.930 . S
H524 C496 0.930 . S
H525 C505 0.930 . S
H526 C517 0.929 1_556 S
H527 C520 0.930 . S
C528 C529 1.369 . S
C528 C530 1.419 . S
C528 H532 0.930 . S
C529 C528 1.369 . S
C529 C538 1.429 . S
C530 C528 1.419 . S
C530 C531 1.363 . S
C530 H533 0.929 . S
C531 C530 1.363 . S
C531 C537 1.428 . S
H532 C528 0.930 . S
H533 C530 0.929 . S
S534 N535 1.613 . S
S534 N536 1.610 . S
N535 S534 1.613 . S
N535 C538 1.350 . S
N536 S534 1.610 . S
N536 C537 1.351 . S
C537 C531 1.428 . S
C537 N536 1.351 . S
C537 C538 1.434 . S
C538 C529 1.429 . S
C538 N535 1.350 . S
C538 C537 1.434 . S
C539 C540 1.369 . S
C539 C541 1.419 . S
C539 H543 0.930 . S
C540 C539 1.369 . S
C540 C549 1.429 . S
C541 C539 1.419 . S
C541 C542 1.363 . S
C541 H544 0.929 . S
C542 C541 1.363 . S
C542 C548 1.428 . S
H543 C539 0.930 . S
H544 C541 0.929 . S
S545 N546 1.613 . S
S545 N547 1.610 . S
N546 S545 1.613 . S
N546 C549 1.350 . S
N547 S545 1.610 . S
N547 C548 1.351 . S
C548 C542 1.428 . S
C548 N547 1.351 . S
C548 C549 1.434 . S
C549 C540 1.429 . S
C549 N546 1.350 . S
C549 C548 1.434 . S
C550 C551 1.369 . S
C550 C552 1.419 . S
C550 H554 0.930 . S
C551 C550 1.369 . S
C551 C560 1.429 . S
C552 C550 1.419 . S
C552 C553 1.363 . S
C552 H555 0.929 . S
C553 C552 1.363 . S
C553 C559 1.428 . S
H554 C550 0.930 . S
H555 C552 0.929 . S
S556 N557 1.613 . S
S556 N558 1.610 . S
N557 S556 1.613 . S
N557 C560 1.350 . S
N558 S556 1.610 . S
N558 C559 1.351 . S
C559 C553 1.428 . S
C559 N558 1.351 . S
C559 C560 1.434 . S
C560 C551 1.429 . S
C560 N557 1.350 . S
C560 C559 1.434 . S
C561 C562 1.369 . S
C561 C563 1.419 . S
C561 H565 0.930 . S
C562 C561 1.369 . S
C562 C571 1.429 . S
C563 C561 1.419 . S
C563 C564 1.363 . S
C563 H566 0.929 . S
C564 C563 1.363 . S
C564 C570 1.428 . S
H565 C561 0.930 . S
H566 C563 0.929 . S
S567 N568 1.613 . S
S567 N569 1.610 . S
N568 S567 1.613 . S
N568 C571 1.350 . S
N569 S567 1.610 . S
N569 C570 1.351 . S
C570 C564 1.428 . S
C570 N569 1.351 . S
C570 C571 1.434 . S
C571 C562 1.429 . S
C571 N568 1.350 . S
C571 C570 1.434 . S
C572 C573 1.369 . S
C572 C574 1.419 . S
C572 H576 0.930 . S
C573 C572 1.369 . S
C573 C582 1.429 . S
C574 C572 1.419 . S
C574 C575 1.363 . S
C574 H577 0.929 . S
C575 C574 1.363 . S
C575 C581 1.428 . S
H576 C572 0.930 . S
H577 C574 0.929 . S
S578 N579 1.613 . S
S578 N580 1.610 . S
N579 S578 1.613 . S
N579 C582 1.350 . S
N580 S578 1.610 . S
N580 C581 1.351 . S
C581 C575 1.428 . S
C581 N580 1.351 . S
C581 C582 1.434 . S
C582 C573 1.429 . S
C582 N579 1.350 . S
C582 C581 1.434 . S
C583 C584 1.369 . S
C583 C585 1.419 . S
C583 H587 0.930 . S
C584 C583 1.369 . S
C584 C593 1.429 . S
C585 C583 1.419 . S
C585 C586 1.363 . S
C585 H588 0.929 . S
C586 C585 1.363 . S
C586 C592 1.428 . S
H587 C583 0.930 . S
H588 C585 0.929 . S
S589 N590 1.613 . S
S589 N591 1.610 . S
N590 S589 1.613 . S
N590 C593 1.350 1_554 S
N591 S589 1.610 . S
N591 C592 1.351 1_554 S
C592 C586 1.428 . S
C592 N591 1.351 1_556 S
C592 C593 1.434 . S
C593 C584 1.429 . S
C593 N590 1.350 1_556 S
C593 C592 1.434 . S
C594 C595 1.369 . S
C594 C596 1.419 . S
C594 H598 0.930 . S
C595 C594 1.369 . S
C595 C604 1.429 . S
C596 C594 1.419 . S
C596 C597 1.363 . S
C596 H599 0.929 . S
C597 C596 1.363 . S
C597 C603 1.428 . S
H598 C594 0.930 . S
H599 C596 0.929 . S
S600 N601 1.613 . S
S600 N602 1.610 . S
N601 S600 1.613 . S
N601 C604 1.350 . S
N602 S600 1.610 . S
N602 C603 1.351 . S
C603 C597 1.428 . S
C603 N602 1.351 . S
C603 C604 1.434 . S
C604 C595 1.429 . S
C604 N601 1.350 . S
C604 C603 1.434 . S
C605 C606 1.369 . S
C605 C607 1.419 . S
C605 H609 0.930 . S
C606 C605 1.369 . S
C606 C615 1.429 . S
C607 C605 1.419 . S
C607 C608 1.363 . S
C607 H610 0.929 . S
C608 C607 1.363 . S
C608 C614 1.428 . S
H609 C605 0.930 . S
H610 C607 0.929 . S
S611 N612 1.613 . S
S611 N613 1.610 . S
N612 S611 1.613 . S
N612 C615 1.350 . S
N613 S611 1.610 . S
N613 C614 1.351 . S
C614 C608 1.428 . S
C614 N613 1.351 . S
C614 C615 1.434 . S
C615 C606 1.429 . S
C615 N612 1.350 . S
C615 C614 1.434 . S
C616 C617 1.369 . S
C616 C618 1.419 . S
C616 H620 0.930 . S
C617 C616 1.369 . S
C617 C626 1.429 1_554 S
C618 C616 1.419 . S
C618 C619 1.363 1_554 S
C618 H621 0.929 . S
C619 C618 1.363 1_556 S
C619 C625 1.428 . S
H620 C616 0.930 . S
H621 C618 0.929 . S
S622 N623 1.613 . S
S622 N624 1.610 . S
N623 S622 1.613 . S
N623 C626 1.350 . S
N624 S622 1.610 . S
N624 C625 1.351 . S
C625 C619 1.428 . S
C625 N624 1.351 . S
C625 C626 1.434 . S
C626 C617 1.429 1_556 S
C626 N623 1.350 . S
C626 C625 1.434 . S
C627 C628 1.369 . S
C627 C629 1.419 . S
C627 H631 0.930 . S
C628 C627 1.369 . S
C628 C637 1.429 . S
C629 C627 1.419 . S
C629 C630 1.363 . S
C629 H632 0.929 . S
C630 C629 1.363 . S
C630 C636 1.428 . S
H631 C627 0.930 . S
H632 C629 0.929 . S
S633 N634 1.613 . S
S633 N635 1.610 . S
N634 S633 1.613 . S
N634 C637 1.350 . S
N635 S633 1.610 . S
N635 C636 1.351 . S
C636 C630 1.428 . S
C636 N635 1.351 . S
C636 C637 1.434 . S
C637 C628 1.429 . S
C637 N634 1.350 . S
C637 C636 1.434 . S
C638 C639 1.369 . S
C638 C640 1.419 1_554 S
C638 H642 0.930 . S
C639 C638 1.369 . S
C639 C648 1.429 . S
C640 C638 1.419 1_556 S
C640 C641 1.363 . S
C640 H643 0.929 . S
C641 C640 1.363 . S
C641 C647 1.428 . S
H642 C638 0.930 . S
H643 C640 0.929 . S
S644 N645 1.613 1_556 S
S644 N646 1.610 . S
N645 S644 1.613 1_554 S
N645 C648 1.350 . S
N646 S644 1.610 . S
N646 C647 1.351 . S
C647 C641 1.428 . S
C647 N646 1.351 . S
C647 C648 1.434 1_556 S
C648 C639 1.429 . S
C648 N645 1.350 . S
C648 C647 1.434 1_554 S
C649 C650 1.369 . S
C649 C651 1.419 . S
C649 H653 0.930 . S
C650 C649 1.369 . S
C650 C659 1.429 . S
C651 C649 1.419 . S
C651 C652 1.363 . S
C651 H654 0.929 . S
C652 C651 1.363 . S
C652 C658 1.428 . S
H653 C649 0.930 . S
H654 C651 0.929 . S
S655 N656 1.613 . S
S655 N657 1.610 . S
N656 S655 1.613 . S
N656 C659 1.350 . S
N657 S655 1.610 . S
N657 C658 1.351 . S
C658 C652 1.428 . S
C658 N657 1.351 . S
C658 C659 1.434 . S
C659 C650 1.429 . S
C659 N656 1.350 . S
C659 C658 1.434 . S
C660 C661 1.369 . S
C660 C662 1.419 . S
C660 H664 0.930 . S
C661 C660 1.369 . S
C661 C670 1.429 1_554 S
C662 C660 1.419 . S
C662 C663 1.363 1_554 S
C662 H665 0.929 . S
C663 C662 1.363 1_556 S
C663 C669 1.428 . S
H664 C660 0.930 . S
H665 C662 0.929 . S
S666 N667 1.613 . S
S666 N668 1.610 . S
N667 S666 1.613 . S
N667 C670 1.350 . S
N668 S666 1.610 . S
N668 C669 1.351 . S
C669 C663 1.428 . S
C669 N668 1.351 . S
C669 C670 1.434 . S
C670 C661 1.429 1_556 S
C670 N667 1.350 . S
C670 C669 1.434 . S
C671 C672 1.369 . S
C671 C673 1.419 . S
C671 H675 0.930 . S
C672 C671 1.369 . S
C672 C681 1.429 . S
C673 C671 1.419 . S
C673 C674 1.363 . S
C673 H676 0.929 . S
C674 C673 1.363 . S
C674 C680 1.428 . S
H675 C671 0.930 . S
H676 C673 0.929 . S
S677 N678 1.613 . S
S677 N679 1.610 . S
N678 S677 1.613 . S
N678 C681 1.350 . S
N679 S677 1.610 . S
N679 C680 1.351 . S
C680 C674 1.428 . S
C680 N679 1.351 . S
C680 C681 1.434 . S
C681 C672 1.429 . S
C681 N678 1.350 . S
C681 C680 1.434 . S
C682 C683 1.369 . S
C682 C684 1.419 1_554 S
C682 H686 0.930 . S
C683 C682 1.369 . S
C683 C692 1.429 . S
C684 C682 1.419 1_556 S
C684 C685 1.363 . S
C684 H687 0.929 . S
C685 C684 1.363 . S
C685 C691 1.428 1_556 S
H686 C682 0.930 . S
H687 C684 0.929 . S
S688 N689 1.613 . S
S688 N690 1.610 . S
N689 S688 1.613 . S
N689 C692 1.350 . S
N690 S688 1.610 . S
N690 C691 1.351 . S
C691 C685 1.428 1_554 S
C691 N690 1.351 . S
C691 C692 1.434 . S
C692 C683 1.429 . S
C692 N689 1.350 . S
C692 C691 1.434 . S
C693 C694 1.369 . S
C693 C695 1.419 . S
C693 H697 0.930 . S
C694 C693 1.369 . S
C694 C703 1.429 . S
C695 C693 1.419 . S
C695 C696 1.363 . S
C695 H698 0.929 . S
C696 C695 1.363 . S
C696 C702 1.428 . S
H697 C693 0.930 . S
H698 C695 0.929 . S
S699 N700 1.613 . S
S699 N701 1.610 . S
N700 S699 1.613 . S
N700 C703 1.350 . S
N701 S699 1.610 . S
N701 C702 1.351 . S
C702 C696 1.428 . S
C702 N701 1.351 . S
C702 C703 1.434 . S
C703 C694 1.429 . S
C703 N700 1.350 . S
C703 C702 1.434 . S
C704 C705 1.386 . S
C704 C706 1.419 . S
C704 H708 0.913 1_455 S
C705 C704 1.386 . S
C705 C714 1.429 . S
C706 C704 1.419 . S
C706 C707 1.378 . S
C706 H709 0.914 1_455 S
C707 C706 1.378 . S
C707 C713 1.428 . S
H708 C704 0.913 1_655 S
H709 C706 0.914 1_655 S
S710 N711 1.613 . S
S710 N712 1.610 . S
N711 S710 1.613 . S
N711 C714 1.350 . S
N712 S710 1.610 . S
N712 C713 1.351 . S
C713 C707 1.428 . S
C713 N712 1.351 . S
C713 C714 1.434 . S
C714 C705 1.429 . S
C714 N711 1.350 . S
C714 C713 1.434 . S
C715 C716 1.369 . S
C715 C717 1.419 . S
C715 H719 0.930 . S
C716 C715 1.369 . S
C716 C725 1.429 . S
C717 C715 1.419 . S
C717 C718 1.363 . S
C717 H720 0.929 . S
C718 C717 1.363 . S
C718 C724 1.428 . S
H719 C715 0.930 . S
H720 C717 0.929 . S
S721 N722 1.613 . S
S721 N723 1.610 . S
N722 S721 1.613 . S
N722 C725 1.350 . S
N723 S721 1.610 . S
N723 C724 1.351 . S
C724 C718 1.428 . S
C724 N723 1.351 . S
C724 C725 1.434 . S
C725 C716 1.429 . S
C725 N722 1.350 . S
C725 C724 1.434 . S
C726 C727 1.369 . S
C726 C728 1.419 . S
C726 H730 0.930 . S
C727 C726 1.369 . S
C727 C736 1.429 . S
C728 C726 1.419 . S
C728 C729 1.363 . S
C728 H731 0.929 . S
C729 C728 1.363 . S
C729 C735 1.428 . S
H730 C726 0.930 . S
H731 C728 0.929 . S
S732 N733 1.613 . S
S732 N734 1.610 . S
N733 S732 1.613 . S
N733 C736 1.350 . S
N734 S732 1.610 . S
N734 C735 1.351 . S
C735 C729 1.428 . S
C735 N734 1.351 . S
C735 C736 1.434 . S
C736 C727 1.429 . S
C736 N733 1.350 . S
C736 C735 1.434 . S
C737 C738 1.369 . S
C737 C739 1.419 . S
C737 H741 0.930 . S
C738 C737 1.369 . S
C738 C747 1.429 . S
C739 C737 1.419 . S
C739 C740 1.363 . S
C739 H742 0.929 . S
C740 C739 1.363 . S
C740 C746 1.428 . S
H741 C737 0.930 . S
H742 C739 0.929 . S
S743 N744 1.613 . S
S743 N745 1.610 . S
N744 S743 1.613 . S
N744 C747 1.350 . S
N745 S743 1.610 . S
N745 C746 1.351 . S
C746 C740 1.428 . S
C746 N745 1.351 . S
C746 C747 1.434 . S
C747 C738 1.429 . S
C747 N744 1.350 . S
C747 C746 1.434 . S
C748 C749 1.369 . S
C748 C750 1.419 . S
C748 H752 0.930 . S
C749 C748 1.369 . S
C749 C758 1.429 . S
C750 C748 1.419 . S
C750 C751 1.363 . S
C750 H753 0.929 . S
C751 C750 1.363 . S
C751 C757 1.428 . S
H752 C748 0.930 . S
H753 C750 0.929 . S
S754 N755 1.602 1_455 S
S754 N756 1.603 1_455 S
N755 S754 1.602 1_655 S
N755 C758 1.367 . S
N756 S754 1.603 1_655 S
N756 C757 1.363 . S
C757 C751 1.428 . S
C757 N756 1.363 . S
C757 C758 1.434 . S
C758 C749 1.429 . S
C758 N755 1.367 . S
C758 C757 1.434 . S
C759 C760 1.369 . S
C759 C761 1.419 . S
C759 H763 0.930 1_565 S
C760 C759 1.369 . S
C760 C769 1.429 . S
C761 C759 1.419 . S
C761 C762 1.363 . S
C761 H764 0.929 1_565 S
C762 C761 1.363 . S
C762 C768 1.428 . S
H763 C759 0.930 1_545 S
H764 C761 0.929 1_545 S
S765 N766 1.613 . S
S765 N767 1.610 . S
N766 S765 1.613 . S
N766 C769 1.350 . S
N767 S765 1.610 . S
N767 C768 1.351 . S
C768 C762 1.428 . S
C768 N767 1.351 . S
C768 C769 1.434 . S
C769 C760 1.429 . S
C769 N766 1.350 . S
C769 C768 1.434 . S
C770 C771 1.369 . S
C770 C772 1.419 . S
C770 H774 0.930 . S
C771 C770 1.369 . S
C771 C780 1.429 . S
C772 C770 1.419 . S
C772 C773 1.363 . S
C772 H775 0.929 . S
C773 C772 1.363 . S
C773 C779 1.428 . S
H774 C770 0.930 . S
H775 C772 0.929 . S
S776 N777 1.613 . S
S776 N778 1.610 . S
N777 S776 1.613 . S
N777 C780 1.350 . S
N778 S776 1.610 . S
N778 C779 1.351 . S
C779 C773 1.428 . S
C779 N778 1.351 . S
C779 C780 1.434 . S
C780 C771 1.429 . S
C780 N777 1.350 . S
C780 C779 1.434 . S
C781 C782 1.369 . S
C781 C783 1.419 . S
C781 H785 0.930 . S
C782 C781 1.369 . S
C782 C791 1.429 . S
C783 C781 1.419 . S
C783 C784 1.363 . S
C783 H786 0.929 . S
C784 C783 1.363 . S
C784 C790 1.428 . S
H785 C781 0.930 . S
H786 C783 0.929 . S
S787 N788 1.613 . S
S787 N789 1.610 . S
N788 S787 1.613 . S
N788 C791 1.350 . S
N789 S787 1.610 . S
N789 C790 1.351 . S
C790 C784 1.428 . S
C790 N789 1.351 . S
C790 C791 1.434 . S
C791 C782 1.429 . S
C791 N788 1.350 . S
C791 C790 1.434 . S
C792 C793 1.369 . S
C792 C794 1.419 . S
C792 H796 0.930 . S
C793 C792 1.369 . S
C793 C802 1.429 . S
C794 C792 1.419 . S
C794 C795 1.363 . S
C794 H797 0.929 . S
C795 C794 1.363 . S
C795 C801 1.428 . S
H796 C792 0.930 . S
H797 C794 0.929 . S
S798 N799 1.613 . S
S798 N800 1.610 . S
N799 S798 1.613 . S
N799 C802 1.350 . S
N800 S798 1.610 . S
N800 C801 1.351 . S
C801 C795 1.428 . S
C801 N800 1.351 . S
C801 C802 1.434 . S
C802 C793 1.429 . S
C802 N799 1.350 . S
C802 C801 1.434 . S
C803 C804 1.369 . S
C803 C805 1.419 . S
C803 H807 0.930 . S
C804 C803 1.369 . S
C804 C813 1.429 . S
C805 C803 1.419 . S
C805 C806 1.363 . S
C805 H808 0.929 . S
C806 C805 1.363 . S
C806 C812 1.428 . S
H807 C803 0.930 . S
H808 C805 0.929 . S
S809 N810 1.613 . S
S809 N811 1.610 . S
N810 S809 1.613 . S
N810 C813 1.350 . S
N811 S809 1.610 . S
N811 C812 1.351 . S
C812 C806 1.428 . S
C812 N811 1.351 . S
C812 C813 1.434 . S
C813 C804 1.429 . S
C813 N810 1.350 . S
C813 C812 1.434 . S
C814 C815 1.369 . S
C814 C816 1.419 . S
C814 H818 0.930 . S
C815 C814 1.369 . S
C815 C824 1.429 . S
C816 C814 1.419 . S
C816 C817 1.363 . S
C816 H819 0.929 . S
C817 C816 1.363 . S
C817 C823 1.428 . S
H818 C814 0.930 . S
H819 C816 0.929 . S
S820 N821 1.613 . S
S820 N822 1.610 . S
N821 S820 1.613 . S
N821 C824 1.350 . S
N822 S820 1.610 . S
N822 C823 1.351 . S
C823 C817 1.428 . S
C823 N822 1.351 . S
C823 C824 1.434 . S
C824 C815 1.429 . S
C824 N821 1.350 . S
C824 C823 1.434 . S
C825 C826 1.369 . S
C825 C827 1.419 . S
C825 H829 0.930 . S
C826 C825 1.369 . S
C826 C835 1.429 . S
C827 C825 1.419 . S
C827 C828 1.363 . S
C827 H830 0.929 . S
C828 C827 1.363 . S
C828 C834 1.428 . S
H829 C825 0.930 . S
H830 C827 0.929 . S
S831 N832 1.613 . S
S831 N833 1.610 . S
N832 S831 1.613 . S
N832 C835 1.350 . S
N833 S831 1.610 . S
N833 C834 1.351 . S
C834 C828 1.428 . S
C834 N833 1.351 . S
C834 C835 1.434 . S
C835 C826 1.429 . S
C835 N832 1.350 . S
C835 C834 1.434 . S
C836 C837 1.369 . S
C836 C838 1.419 . S
C836 H840 0.930 . S
C837 C836 1.369 . S
C837 C846 1.429 . S
C838 C836 1.419 . S
C838 C839 1.363 . S
C838 H841 0.929 . S
C839 C838 1.363 . S
C839 C845 1.428 . S
H840 C836 0.930 . S
H841 C838 0.929 . S
S842 N843 1.613 . S
S842 N844 1.610 1_656 S
N843 S842 1.613 . S
N843 C846 1.350 1_655 S
N844 S842 1.610 1_454 S
N844 C845 1.351 1_554 S
C845 C839 1.428 . S
C845 N844 1.351 1_556 S
C845 C846 1.434 . S
C846 C837 1.429 . S
C846 N843 1.350 1_455 S
C846 C845 1.434 . S
C847 C848 1.369 . S
C847 C849 1.419 . S
C847 H851 0.930 . S
C848 C847 1.369 . S
C848 C857 1.429 . S
C849 C847 1.419 . S
C849 C850 1.363 . S
C849 H852 0.929 . S
C850 C849 1.363 . S
C850 C856 1.428 . S
H851 C847 0.930 . S
H852 C849 0.929 . S
S853 N854 1.613 . S
S853 N855 1.610 . S
N854 S853 1.613 . S
N854 C857 1.350 . S
N855 S853 1.610 . S
N855 C856 1.351 . S
C856 C850 1.428 . S
C856 N855 1.351 . S
C856 C857 1.434 . S
C857 C848 1.429 . S
C857 N854 1.350 . S
C857 C856 1.434 . S
C858 C859 1.369 . S
C858 C860 1.419 . S
C858 H862 0.930 . S
C859 C858 1.369 . S
C859 C868 1.429 . S
C860 C858 1.419 . S
C860 C861 1.363 . S
C860 H863 0.929 . S
C861 C860 1.363 . S
C861 C867 1.428 . S
H862 C858 0.930 . S
H863 C860 0.929 . S
S864 N865 1.613 . S
S864 N866 1.610 . S
N865 S864 1.613 . S
N865 C868 1.350 . S
N866 S864 1.610 . S
N866 C867 1.351 . S
C867 C861 1.428 . S
C867 N866 1.351 . S
C867 C868 1.434 . S
C868 C859 1.429 . S
C868 N865 1.350 . S
C868 C867 1.434 . S
C869 C870 1.369 . S
C869 C871 1.419 . S
C869 H873 0.930 . S
C870 C869 1.369 . S
C870 C879 1.429 . S
C871 C869 1.419 . S
C871 C872 1.363 . S
C871 H874 0.929 . S
C872 C871 1.363 . S
C872 C878 1.428 . S
H873 C869 0.930 . S
H874 C871 0.929 . S
S875 N876 1.613 . S
S875 N877 1.610 . S
N876 S875 1.613 . S
N876 C879 1.350 . S
N877 S875 1.610 . S
N877 C878 1.351 . S
C878 C872 1.428 . S
C878 N877 1.351 . S
C878 C879 1.434 . S
C879 C870 1.429 . S
C879 N876 1.350 . S
C879 C878 1.434 . S
C880 C881 1.369 . S
C880 C882 1.419 . S
C880 H884 0.901 1_655 S
C881 C880 1.369 . S
C881 C890 1.429 . S
C882 C880 1.419 . S
C882 C883 1.363 . S
C882 H885 0.929 1_655 S
C883 C882 1.363 . S
C883 C889 1.428 . S
H884 C880 0.901 1_455 S
H885 C882 0.929 1_455 S
S886 N887 1.613 . S
S886 N888 1.610 . S
N887 S886 1.613 . S
N887 C890 1.350 . S
N888 S886 1.610 . S
N888 C889 1.351 . S
C889 C883 1.428 . S
C889 N888 1.351 . S
C889 C890 1.434 . S
C890 C881 1.429 . S
C890 N887 1.350 . S
C890 C889 1.434 . S
C891 C892 1.369 . S
C891 C893 1.419 . S
C891 H895 0.930 . S
C892 C891 1.369 . S
C892 C901 1.429 . S
C893 C891 1.419 . S
C893 C894 1.363 . S
C893 H896 0.929 . S
C894 C893 1.363 . S
C894 C900 1.428 . S
H895 C891 0.930 . S
H896 C893 0.929 . S
S897 N898 1.613 . S
S897 N899 1.610 . S
N898 S897 1.613 . S
N898 C901 1.350 . S
N899 S897 1.610 . S
N899 C900 1.351 . S
C900 C894 1.428 . S
C900 N899 1.351 . S
C900 C901 1.434 . S
C901 C892 1.429 . S
C901 N898 1.350 . S
C901 C900 1.434 . S
C902 C903 1.369 . S
C902 C904 1.419 . S
C902 H906 0.930 . S
C903 C902 1.369 . S
C903 C912 1.429 . S
C904 C902 1.419 . S
C904 C905 1.363 . S
C904 H907 0.929 . S
C905 C904 1.363 . S
C905 C911 1.428 . S
H906 C902 0.930 . S
H907 C904 0.929 . S
S908 N909 1.613 . S
S908 N910 1.610 . S
N909 S908 1.613 . S
N909 C912 1.350 . S
N910 S908 1.610 . S
N910 C911 1.351 . S
C911 C905 1.428 . S
C911 N910 1.351 . S
C911 C912 1.434 . S
C912 C903 1.429 . S
C912 N909 1.350 . S
C912 C911 1.434 . S
C913 C914 1.369 . S
C913 C915 1.419 . S
C913 H917 0.930 . S
C914 C913 1.369 . S
C914 C923 1.429 . S
C915 C913 1.419 . S
C915 C916 1.363 . S
C915 H918 0.929 . S
C916 C915 1.363 . S
C916 C922 1.428 . S
H917 C913 0.930 . S
H918 C915 0.929 . S
S919 N920 1.613 . S
S919 N921 1.610 . S
N920 S919 1.613 . S
N920 C923 1.350 . S
N921 S919 1.610 . S
N921 C922 1.351 . S
C922 C916 1.428 . S
C922 N921 1.351 . S
C922 C923 1.434 . S
C923 C914 1.429 . S
C923 N920 1.350 . S
C923 C922 1.434 . S
C924 C925 1.369 . S
C924 C926 1.419 . S
C924 H928 0.930 . S
C925 C924 1.369 . S
C925 C934 1.429 . S
C926 C924 1.419 . S
C926 C927 1.363 . S
C926 H929 0.929 . S
C927 C926 1.363 . S
C927 C933 1.428 . S
H928 C924 0.930 . S
H929 C926 0.929 . S
S930 N931 1.613 . S
S930 N932 1.610 . S
N931 S930 1.613 . S
N931 C934 1.350 . S
N932 S930 1.610 . S
N932 C933 1.351 . S
C933 C927 1.428 . S
C933 N932 1.351 . S
C933 C934 1.434 . S
C934 C925 1.429 . S
C934 N931 1.350 . S
C934 C933 1.434 . S
C935 C936 1.369 . S
C935 C937 1.419 . S
C935 H939 0.930 1_565 S
C936 C935 1.369 . S
C936 C945 1.429 . S
C937 C935 1.419 . S
C937 C938 1.363 . S
C937 H940 0.929 1_565 S
C938 C937 1.363 . S
C938 C944 1.428 . S
H939 C935 0.930 1_545 S
H940 C937 0.929 1_545 S
S941 N942 1.613 . S
S941 N943 1.610 . S
N942 S941 1.613 . S
N942 C945 1.350 . S
N943 S941 1.610 . S
N943 C944 1.351 . S
C944 C938 1.428 . S
C944 N943 1.351 . S
C944 C945 1.434 . S
C945 C936 1.429 . S
C945 N942 1.350 . S
C945 C944 1.434 . S
C946 C947 1.369 . S
C946 C948 1.419 . S
C946 H950 0.930 . S
C947 C946 1.369 . S
C947 C956 1.429 . S
C948 C946 1.419 . S
C948 C949 1.363 . S
C948 H951 0.929 . S
C949 C948 1.363 . S
C949 C955 1.428 . S
H950 C946 0.930 . S
H951 C948 0.929 . S
S952 N953 1.613 . S
S952 N954 1.610 . S
N953 S952 1.613 . S
N953 C956 1.350 . S
N954 S952 1.610 . S
N954 C955 1.351 . S
C955 C949 1.428 . S
C955 N954 1.351 . S
C955 C956 1.434 . S
C956 C947 1.429 . S
C956 N953 1.350 . S
C956 C955 1.434 . S
C957 C958 1.369 . S
C957 C959 1.419 . S
C957 H961 0.930 . S
C958 C957 1.369 . S
C958 C967 1.429 . S
C959 C957 1.419 . S
C959 C960 1.363 . S
C959 H962 0.929 . S
C960 C959 1.363 . S
C960 C966 1.428 . S
H961 C957 0.930 . S
H962 C959 0.929 . S
S963 N964 1.613 . S
S963 N965 1.610 . S
N964 S963 1.613 . S
N964 C967 1.350 . S
N965 S963 1.610 . S
N965 C966 1.351 . S
C966 C960 1.428 . S
C966 N965 1.351 . S
C966 C967 1.434 . S
C967 C958 1.429 . S
C967 N964 1.350 . S
C967 C966 1.434 . S
C529 C21 1.518 . S
C531 C516 1.518 . S
C540 C54 1.520 . S
C542 C417 1.520 . S
C551 C450 1.520 . S
C553 C87 1.520 . S
C562 C120 1.518 . S
C564 C483 1.518 . S
C573 C318 1.519 . S
C575 C153 1.519 . S
C584 C351 1.519 . S
C586 C186 1.519 . S
C595 C384 1.518 . S
C597 C219 1.518 . S
C606 C285 1.517 . S
C608 C252 1.517 . S
C617 C7 1.447 . S
C619 C238 1.452 . S
C628 C40 1.448 . S
C630 C139 1.453 . S
C639 C73 1.447 . S
C641 C172 1.450 . S
C650 C106 1.455 . S
C652 C205 1.452 . S
C661 C502 1.448 . S
C663 C271 1.449 . S
C672 C403 1.454 . S
C674 C304 1.452 . S
C683 C436 1.450 . S
C685 C337 1.448 . S
C694 C370 1.455 . S
C696 C469 1.451 . S
C705 C18 1.244 . S
C707 C150 1.238 . S
C716 C183 1.237 . S
C718 C51 1.243 . S
C727 C216 1.236 . S
C729 C84 1.244 . S
C738 C117 1.244 . S
C740 C249 1.237 . S
C749 C414 1.245 . S
C751 C282 1.237 . S
C760 C315 1.242 . S
C762 C447 1.239 . S
C771 C348 1.236 . S
C773 C480 1.244 . S
C782 C513 1.245 . S
C784 C381 1.237 . S
C793 N2 1.405 . S
C795 N13 1.402 . S
C804 N46 1.403 1_554 S
C806 N35 1.404 . S
C815 N68 1.402 . S
C817 N79 1.405 . S
C826 N112 1.404 1_554 S
C828 N101 1.403 . S
C837 N134 1.401 . S
C839 N145 1.405 1_556 S
C848 N167 1.402 . S
C850 N178 1.405 . S
C859 N200 1.403 . S
C861 N211 1.404 1_556 S
C870 N233 1.403 . S
C872 N244 1.403 . S
C881 N277 1.404 . S
C883 N266 1.403 . S
C892 N310 1.402 1_556 S
C894 N299 1.404 . S
C903 N343 1.404 . S
C905 N332 1.402 . S
C914 N376 1.403 1_556 S
C916 N365 1.403 . S
C925 N398 1.401 . S
C927 N409 1.405 1_554 S
C936 N431 1.402 . S
C938 N442 1.405 . S
C947 N475 1.404 1_554 S
C949 N464 1.402 . S
C958 N508 1.403 . S
C960 N497 1.404 . S
