# Generated by pormake.
# Topology lcy-e, (6)-cn, num edge types: 1
# Building blocks:
#     Node 0, Type 0, BuildingBlock: BETDEL_clean_sbu_0, # of connection points: 6
#     Node 1, Type 0, BuildingBlock: BETDEL_clean_sbu_0, # of connection points: 6
#     Node 2, Type 0, BuildingBlock: BETDEL_clean_sbu_0, # of connection points: 6
#     Node 3, Type 0, BuildingBlock: BETDEL_clean_sbu_0, # of connection points: 6
#     Node 4, Type 0, BuildingBlock: BETDEL_clean_sbu_0, # of connection points: 6
#     Node 5, Type 0, BuildingBlock: BETDEL_clean_sbu_0, # of connection points: 6
#     Node 6, Type 0, BuildingBlock: BETDEL_clean_sbu_0, # of connection points: 6
#     Node 7, Type 0, BuildingBlock: BETDEL_clean_sbu_0, # of connection points: 6
#     Node 8, Type 0, BuildingBlock: BETDEL_clean_sbu_0, # of connection points: 6
#     Node 9, Type 0, BuildingBlock: BETDEL_clean_sbu_0, # of connection points: 6
#     Node 10, Type 0, BuildingBlock: BETDEL_clean_sbu_0, # of connection points: 6
#     Node 11, Type 0, BuildingBlock: BETDEL_clean_sbu_0, # of connection points: 6
#     Edge 12, Type (0, 0), BuildingBlock: CIFDUS_clean_linker_0, # of connection points: 2
#     Edge 13, Type (0, 0), BuildingBlock: CIFDUS_clean_linker_0, # of connection points: 2
#     Edge 14, Type (0, 0), BuildingBlock: CIFDUS_clean_linker_0, # of connection points: 2
#     Edge 15, Type (0, 0), BuildingBlock: CIFDUS_clean_linker_0, # of connection points: 2
#     Edge 16, Type (0, 0), BuildingBlock: CIFDUS_clean_linker_0, # of connection points: 2
#     Edge 17, Type (0, 0), BuildingBlock: CIFDUS_clean_linker_0, # of connection points: 2
#     Edge 18, Type (0, 0), BuildingBlock: CIFDUS_clean_linker_0, # of connection points: 2
#     Edge 19, Type (0, 0), BuildingBlock: CIFDUS_clean_linker_0, # of connection points: 2
#     Edge 20, Type (0, 0), BuildingBlock: CIFDUS_clean_linker_0, # of connection points: 2
#     Edge 21, Type (0, 0), BuildingBlock: CIFDUS_clean_linker_0, # of connection points: 2
#     Edge 22, Type (0, 0), BuildingBlock: CIFDUS_clean_linker_0, # of connection points: 2
#     Edge 23, Type (0, 0), BuildingBlock: CIFDUS_clean_linker_0, # of connection points: 2
#     Edge 24, Type (0, 0), BuildingBlock: CIFDUS_clean_linker_0, # of connection points: 2
#     Edge 25, Type (0, 0), BuildingBlock: CIFDUS_clean_linker_0, # of connection points: 2
#     Edge 26, Type (0, 0), BuildingBlock: CIFDUS_clean_linker_0, # of connection points: 2
#     Edge 27, Type (0, 0), BuildingBlock: CIFDUS_clean_linker_0, # of connection points: 2
#     Edge 28, Type (0, 0), BuildingBlock: CIFDUS_clean_linker_0, # of connection points: 2
#     Edge 29, Type (0, 0), BuildingBlock: CIFDUS_clean_linker_0, # of connection points: 2
#     Edge 30, Type (0, 0), BuildingBlock: CIFDUS_clean_linker_0, # of connection points: 2
#     Edge 31, Type (0, 0), BuildingBlock: CIFDUS_clean_linker_0, # of connection points: 2
#     Edge 32, Type (0, 0), BuildingBlock: CIFDUS_clean_linker_0, # of connection points: 2
#     Edge 33, Type (0, 0), BuildingBlock: CIFDUS_clean_linker_0, # of connection points: 2
#     Edge 34, Type (0, 0), BuildingBlock: CIFDUS_clean_linker_0, # of connection points: 2
#     Edge 35, Type (0, 0), BuildingBlock: CIFDUS_clean_linker_0, # of connection points: 2
#     Edge 36, Type (0, 0), BuildingBlock: CIFDUS_clean_linker_0, # of connection points: 2
#     Edge 37, Type (0, 0), BuildingBlock: CIFDUS_clean_linker_0, # of connection points: 2
#     Edge 38, Type (0, 0), BuildingBlock: CIFDUS_clean_linker_0, # of connection points: 2
#     Edge 39, Type (0, 0), BuildingBlock: CIFDUS_clean_linker_0, # of connection points: 2
#     Edge 40, Type (0, 0), BuildingBlock: CIFDUS_clean_linker_0, # of connection points: 2
#     Edge 41, Type (0, 0), BuildingBlock: CIFDUS_clean_linker_0, # of connection points: 2
#     Edge 42, Type (0, 0), BuildingBlock: CIFDUS_clean_linker_0, # of connection points: 2
#     Edge 43, Type (0, 0), BuildingBlock: CIFDUS_clean_linker_0, # of connection points: 2
#     Edge 44, Type (0, 0), BuildingBlock: CIFDUS_clean_linker_0, # of connection points: 2
#     Edge 45, Type (0, 0), BuildingBlock: CIFDUS_clean_linker_0, # of connection points: 2
#     Edge 46, Type (0, 0), BuildingBlock: CIFDUS_clean_linker_0, # of connection points: 2
#     Edge 47, Type (0, 0), BuildingBlock: CIFDUS_clean_linker_0, # of connection points: 2
# Relax obj value: 0.222
# Max RMSD: 0.282
# Mean RMSD: 0.271
data_MOF--net-lcy-e--node1-BETDEL_clean_sbu_0--edge1-CIFDUS_clean_linker_0
_symmetry_space_group_name_H-M    P1
_symmetry_Int_Tables_number       1
_symmetry_cell_setting            triclinic
loop_
_symmetry_equiv_pos_as_xyz
'x, y, z'
_cell_length_a     33.12561
_cell_length_b     32.398373
_cell_length_c     33.701816
_cell_angle_alpha  89.764018
_cell_angle_beta   91.548449
_cell_angle_gamma 88.407456
loop_
_atom_site_label
_atom_site_type_symbol
_atom_site_fract_x
_atom_site_fract_y
_atom_site_fract_z
_atom_type_partial_charge
Dy0 Dy 0.10823 0.25927 0.46068 0.0
C1 C 0.14186 0.12457 0.56252 0.0
C2 C 0.10628 0.32437 0.40927 0.0
Dy3 Dy 0.13728 0.19262 0.5144 0.0
O4 O 0.0761 0.30061 0.41518 0.0
O5 O 0.13651 0.31315 0.43235 0.0
O6 O 0.04736 0.23389 0.45424 0.0
O7 O 0.09727 0.19202 0.46077 0.0
C8 C 0.0588 0.19544 0.4583 0.0
C9 C 0.1809 0.26197 0.52061 0.0
O10 O 0.17746 0.17493 0.46476 0.0
O11 O 0.15978 0.23171 0.42596 0.0
O12 O 0.14883 0.12453 0.5249 0.0
O13 O 0.13288 0.16173 0.57395 0.0
O14 O 0.19602 0.22517 0.52789 0.0
O15 O 0.14345 0.25951 0.51532 0.0
O16 O 0.08118 0.28182 0.51725 0.0
O17 O 0.08169 0.21665 0.54476 0.0
C18 C 0.18239 0.19795 0.43295 0.0
C19 C 0.06973 0.256 0.54523 0.0
Dy20 Dy 0.99701 0.8656 0.6972 0.0
C21 C 0.14364 0.85038 0.79309 0.0
C22 C 0.9381 0.88167 0.64081 0.0
Dy23 Dy 0.07323 0.87201 0.75338 0.0
O24 O 0.97632 0.8772 0.63434 0.0
O25 O 0.93151 0.87662 0.67848 0.0
O26 O 0.01802 0.8031 0.67893 0.0
O27 O 0.06105 0.84782 0.69392 0.0
C28 C 0.05605 0.81049 0.68478 0.0
C29 C 0.0095 0.92216 0.77024 0.0
O30 O 0.08985 0.91251 0.70349 0.0
O31 O 0.02301 0.92794 0.686 0.0
O32 O 0.1284 0.8878 0.79036 0.0
O33 O 0.12041 0.82503 0.77421 0.0
O34 O 0.04624 0.93067 0.7817 0.0
O35 O 0.01002 0.88689 0.75593 0.0
O36 O 0.97629 0.82839 0.74929 0.0
O37 O 0.03994 0.8196 0.78034 0.0
C38 C 0.06192 0.93636 0.68554 0.0
C39 C 1.00096 0.81115 0.777 0.0
Dy40 Dy 0.38102 0.80542 1.00218 0.0
C41 C 0.38751 0.69771 0.86605 0.0
C42 C 0.37986 0.85488 0.06764 0.0
Dy43 Dy 0.39121 0.74075 0.9358 0.0
O44 O 0.34911 0.84939 0.04371 0.0
O45 O 0.41045 0.83261 0.05622 0.0
O46 O 0.35503 0.84996 0.95723 0.0
O47 O 0.34427 0.7868 0.9504 0.0
C48 C 0.33893 0.82213 0.93473 0.0
C49 C 0.43408 0.72578 1.00406 0.0
O50 O 0.42988 0.79126 0.91382 0.0
O51 O 0.43662 0.82748 0.97299 0.0
O52 O 0.41473 0.69204 0.89423 0.0
O53 O 0.36243 0.72722 0.87584 0.0
O54 O 0.42082 0.69664 0.98105 0.0
O55 O 0.42675 0.76004 0.98743 0.0
O56 O 0.35046 0.74972 0.02709 0.0
O57 O 0.34218 0.71233 0.96862 0.0
C58 C 0.44716 0.81982 0.93596 0.0
C59 C 0.33633 0.7177 1.00692 0.0
Dy60 Dy 0.51576 0.11899 0.20923 0.0
C61 C 0.37688 0.12079 0.31252 0.0
C62 C 0.57468 0.09898 0.15629 0.0
Dy63 Dy 0.44412 0.10701 0.26734 0.0
O64 O 0.55879 0.1358 0.16093 0.0
O65 O 0.55991 0.07406 0.182 0.0
O66 O 0.49078 0.17972 0.18967 0.0
O67 O 0.45052 0.13386 0.20748 0.0
C68 C 0.4537 0.17156 0.19762 0.0
C69 C 0.5122 0.05934 0.27991 0.0
O70 O 0.42425 0.06235 0.22122 0.0
O71 O 0.48521 0.06173 0.18833 0.0
O72 O 0.40403 0.09146 0.31836 0.0
O73 O 0.38641 0.14248 0.28179 0.0
O74 O 0.47691 0.04808 0.29153 0.0
O75 O 0.50852 0.09546 0.26745 0.0
O76 O 0.53907 0.15095 0.26464 0.0
O77 O 0.47616 0.16202 0.29258 0.0
C78 C 0.44949 0.04618 0.19539 0.0
C79 C 0.51559 0.16856 0.29192 0.0
Dy80 Dy 0.6377 0.24821 0.58178 0.0
C81 C 0.61829 0.39387 0.47874 0.0
C82 C 0.65582 0.19079 0.63969 0.0
Dy83 Dy 0.63585 0.32185 0.5194 0.0
O84 O 0.65212 0.18275 0.60186 0.0
O85 O 0.6494 0.22998 0.64562 0.0
O86 O 0.57546 0.26659 0.59907 0.0
O87 O 0.61463 0.31219 0.57964 0.0
C88 C 0.5791 0.30515 0.58987 0.0
C89 C 0.67493 0.25116 0.49871 0.0
O90 O 0.68775 0.342 0.55791 0.0
O91 O 0.69553 0.28065 0.59465 0.0
O92 O 0.65184 0.37213 0.47633 0.0
O93 O 0.59486 0.37652 0.50385 0.0
O94 O 0.65702 0.27569 0.47257 0.0
O95 O 0.67247 0.26713 0.53221 0.0
O96 O 0.60218 0.22274 0.52959 0.0
O97 O 0.58016 0.2871 0.50549 0.0
C98 C 0.7081 0.31753 0.5836 0.0
C99 C 0.57825 0.24637 0.50593 0.0
Dy100 Dy 0.94641 0.39596 0.75311 0.0
C101 C 0.03753 0.36803 0.90184 0.0
C102 C 0.90916 0.39329 0.6806 0.0
Dy103 Dy 0.99849 0.36689 0.83005 0.0
O104 O 0.91652 0.42715 0.69984 0.0
O105 O 0.92356 0.3615 0.70057 0.0
O106 O 0.90452 0.44177 0.78262 0.0
O107 O 0.94851 0.40895 0.81556 0.0
C108 C 0.9204 0.43567 0.81787 0.0
C109 C 0.00818 0.32291 0.7631 0.0
O110 O 0.93972 0.33892 0.84177 0.0
O111 O 0.91535 0.33993 0.77631 0.0
O112 O 0.03235 0.33501 0.88069 0.0
O113 O 0.02159 0.40017 0.88368 0.0
O114 O 0.01453 0.30692 0.79837 0.0
O115 O 1.00148 0.36095 0.76634 0.0
O116 O 1.00331 0.43132 0.74483 0.0
O117 O 0.03917 0.41301 0.80375 0.0
C118 C 0.91463 0.32608 0.8135 0.0
C119 C 0.03526 0.43366 0.76965 0.0
Dy120 Dy 0.87638 0.75701 0.07295 0.0
C121 C 0.89336 0.60858 0.97976 0.0
C122 C 0.86908 0.82618 0.11864 0.0
Dy123 Dy 0.87749 0.68224 0.01623 0.0
O124 O 0.9031 0.81053 0.10648 0.0
O125 O 0.83943 0.80487 0.10456 0.0
O126 O 0.90426 0.71759 0.12178 0.0
O127 O 0.91812 0.70429 0.06328 0.0
C128 C 0.92248 0.69178 0.09867 0.0
C129 C 0.83212 0.74816 0.98998 0.0
O130 O 0.84075 0.65858 0.06551 0.0
O131 O 0.8213 0.72254 0.09039 0.0
O132 O 0.85784 0.62661 0.98119 0.0
O133 O 0.91982 0.63088 0.99796 0.0
O134 O 0.84806 0.72066 0.96663 0.0
O135 O 0.83717 0.73588 0.02538 0.0
O136 O 0.90595 0.78219 0.01826 0.0
O137 O 0.92705 0.7189 0.99312 0.0
C138 C 0.81694 0.68201 0.08742 0.0
C139 C 0.92631 0.75966 0.99209 0.0
Dy140 Dy 0.55997 0.5952 0.235 0.0
C141 C 0.46333 0.61389 0.37133 0.0
C142 C 0.60852 0.60896 0.17234 0.0
Dy143 Dy 0.50225 0.62017 0.30141 0.0
O144 O 0.61084 0.57625 0.19502 0.0
O145 O 0.57801 0.63221 0.18244 0.0
O146 O 0.58035 0.53777 0.26606 0.0
O147 O 0.56296 0.59021 0.29976 0.0
C148 C 0.5729 0.55193 0.30134 0.0
C149 C 0.48811 0.6565 0.22881 0.0
O150 O 0.54547 0.6691 0.31425 0.0
O151 O 0.58653 0.65346 0.26123 0.0
O152 O 0.50184 0.60876 0.36678 0.0
O153 O 0.44563 0.62405 0.33753 0.0
O154 O 0.47765 0.67419 0.26191 0.0
O155 O 0.50032 0.62074 0.23739 0.0
O156 O 0.50335 0.55963 0.21913 0.0
O157 O 0.48292 0.55691 0.28361 0.0
C158 C 0.57661 0.67676 0.29212 0.0
C159 C 0.47802 0.54589 0.24617 0.0
Dy160 Dy 0.24509 0.41961 0.1349 0.0
C161 C 0.10644 0.53108 0.1378 0.0
C162 C 0.30573 0.36089 0.13786 0.0
Dy163 Dy 0.17873 0.48934 0.14808 0.0
O164 O 0.31086 0.39984 0.13016 0.0
O165 O 0.26782 0.35437 0.1427 0.0
O166 O 0.20032 0.38315 0.09952 0.0
O167 O 0.19469 0.44717 0.10032 0.0
C168 C 0.1777 0.41483 0.08934 0.0
C169 C 0.24866 0.49648 0.18941 0.0
O170 O 0.15764 0.44016 0.18928 0.0
O171 O 0.21896 0.4039 0.19363 0.0
O172 O 0.13558 0.54245 0.16179 0.0
O173 O 0.11668 0.49682 0.1205 0.0
O174 O 0.22487 0.52826 0.18062 0.0
O175 O 0.2312 0.46394 0.18002 0.0
O176 O 0.27194 0.47408 0.10378 0.0
O177 O 0.21443 0.51812 0.10127 0.0
C178 C 0.18186 0.41165 0.20627 0.0
C179 C 0.2526 0.50923 0.09298 0.0
Dy180 Dy 0.70612 0.98572 0.88212 0.0
C181 C 0.80232 0.12817 0.89017 0.0
C182 C 0.65662 0.92061 0.89107 0.0
Dy183 Dy 0.7608 0.0577 0.90059 0.0
O184 O 0.65395 0.94728 0.8622 0.0
O185 O 0.68758 0.92847 0.91397 0.0
O186 O 0.69007 0.01001 0.82244 0.0
O187 O 0.70208 0.0522 0.86908 0.0
C188 C 0.69544 0.04835 0.83182 0.0
C189 C 0.77619 0.98658 0.94255 0.0
O190 O 0.70964 0.07902 0.9365 0.0
O191 O 0.68027 0.01509 0.93781 0.0
O192 O 0.80444 0.10555 0.92223 0.0
O193 O 0.77797 0.11206 0.86421 0.0
O194 O 0.78302 0.02293 0.95733 0.0
O195 O 0.76545 0.99125 0.90711 0.0
O196 O 0.76107 0.96606 0.84708 0.0
O197 O 0.79113 0.03003 0.84826 0.0
C198 C 0.68386 0.05334 0.95141 0.0
C199 C 0.78935 0.99168 0.83507 0.0
Dy200 Dy 0.74156 0.93595 0.39332 0.0
C201 C 0.87149 0.0538 0.39892 0.0
C202 C 0.68955 0.87421 0.37603 0.0
Dy203 Dy 0.80908 1.00115 0.38396 0.0
O204 O 0.7272 0.87487 0.36675 0.0
O205 O 0.67984 0.90745 0.39575 0.0
O206 O 0.76383 0.91892 0.45382 0.0
O207 O 0.80545 0.93968 0.41222 0.0
C208 C 0.80047 0.93047 0.44838 0.0
C209 C 0.74331 0.01033 0.33436 0.0
O210 O 0.82843 0.95808 0.33607 0.0
O211 O 0.76708 0.92482 0.33322 0.0
O212 O 0.83463 0.06459 0.38845 0.0
O213 O 0.87466 0.01369 0.40078 0.0
O214 O 0.77811 0.02588 0.3264 0.0
O215 O 0.74575 0.99654 0.36893 0.0
O216 O 0.71337 0.99281 0.42049 0.0
O217 O 0.77491 0.02043 0.43825 0.0
C218 C 0.80248 0.93338 0.31817 0.0
C219 C 0.73494 0.02061 0.44023 0.0
Dy220 Dy 0.32001 0.49808 0.62946 0.0
C221 C 0.19868 0.62359 0.61962 0.0
C222 C 0.38014 0.43975 0.62482 0.0
Dy223 Dy 0.2556 0.56204 0.61351 0.0
O224 O 0.38519 0.47917 0.62612 0.0
O225 O 0.34205 0.43178 0.62677 0.0
O226 O 0.33589 0.52308 0.68843 0.0
O227 O 0.31583 0.5646 0.64287 0.0
C228 C 0.32572 0.56101 0.67953 0.0
C229 C 0.2475 0.49224 0.56983 0.0
O230 O 0.29658 0.58421 0.56819 0.0
O231 O 0.33493 0.52346 0.56907 0.0
O232 O 0.1912 0.58508 0.61331 0.0
O233 O 0.23736 0.62875 0.6218 0.0
O234 O 0.2357 0.52878 0.55744 0.0
O235 O 0.25931 0.49499 0.60537 0.0
O236 O 0.27162 0.47477 0.66897 0.0
O237 O 0.24039 0.53896 0.67314 0.0
C238 C 0.32475 0.55996 0.55321 0.0
C239 C 0.24424 0.50013 0.68466 0.0
H240 H 0.15353 0.33968 0.5022 0.0
H241 H 0.25312 0.27312 0.56019 0.0
H242 H 0.28324 0.33859 0.57955 0.0
H243 H 0.27927 0.41497 0.58259 0.0
H244 H 0.18287 0.48113 0.51926 0.0
H245 H 0.15393 0.41568 0.49838 0.0
C246 C 0.18225 0.33943 0.51832 0.0
C247 C 0.20105 0.30146 0.52964 0.0
C248 C 0.19991 0.37719 0.52834 0.0
C249 C 0.23803 0.30182 0.55104 0.0
C250 C 0.25522 0.33929 0.56216 0.0
C251 C 0.25226 0.41501 0.56378 0.0
C252 C 0.23315 0.45289 0.55269 0.0
C253 C 0.23619 0.37718 0.55134 0.0
C254 C 0.19826 0.45248 0.5281 0.0
C255 C 0.18156 0.41503 0.51636 0.0
H256 H 0.8619 0.02786 0.83133 0.0
H257 H 0.79874 0.9191 0.79398 0.0
H258 H 0.86161 0.89007 0.76759 0.0
H259 H 0.93441 0.89387 0.75973 0.0
H260 H 0.99891 0.99914 0.80303 0.0
H261 H 0.93472 0.03191 0.8226 0.0
C262 C 0.86146 0.99802 0.81689 0.0
C263 C 0.8254 0.9757 0.8144 0.0
C264 C 0.89787 0.98098 0.80335 0.0
C265 C 0.8259 0.93691 0.7961 0.0
C266 C 0.86185 0.92031 0.78122 0.0
C267 C 0.93464 0.92404 0.77333 0.0
C268 C 0.97144 0.94401 0.78022 0.0
C269 C 0.89804 0.94178 0.78544 0.0
C270 C 0.97101 0.98317 0.79766 0.0
C271 C 0.93437 0.00176 0.8088 0.0
H272 H 0.34487 0.63684 0.99035 0.0
H273 H 0.28943 0.72149 0.07249 0.0
H274 H 0.25975 0.66336 0.10711 0.0
H275 H 0.24796 0.58909 0.11218 0.0
H276 H 0.30652 0.50396 0.03271 0.0
H277 H 0.33733 0.56202 0.99868 0.0
C278 C 0.32598 0.64258 0.01565 0.0
C279 C 0.31834 0.68337 0.02837 0.0
C280 C 0.30998 0.60909 0.03575 0.0
C281 C 0.29514 0.69038 0.06195 0.0
C282 C 0.2783 0.65722 0.08168 0.0
C283 C 0.26754 0.58331 0.08738 0.0
C284 C 0.27458 0.54262 0.0743 0.0
C285 C 0.28525 0.61658 0.06856 0.0
C286 C 0.3007 0.53515 0.04299 0.0
C287 C 0.31804 0.56828 0.02355 0.0
H288 H 0.58398 0.08425 0.25426 0.0
H289 H 0.53108 0.99062 0.32604 0.0
H290 H 0.59904 0.96462 0.3462 0.0
H291 H 0.67305 0.97293 0.34753 0.0
H292 H 0.72502 0.06685 0.27546 0.0
H293 H 0.65742 0.08795 0.25019 0.0
C294 C 0.58709 0.05762 0.27369 0.0
C295 C 0.55238 0.03941 0.28867 0.0
C296 C 0.62604 0.04312 0.28503 0.0
C297 C 0.55721 0.00512 0.31406 0.0
C298 C 0.59606 0.99042 0.32565 0.0
C299 C 0.66959 0.99762 0.32585 0.0
C300 C 0.70394 0.01859 0.31357 0.0
C301 C 0.63063 0.00978 0.31193 0.0
C302 C 0.69913 0.05026 0.28526 0.0
C303 C 0.66047 0.06247 0.27109 0.0
H304 H 0.66845 0.20376 0.43208 0.0
H305 H 0.71592 0.20301 0.55249 0.0
H306 H 0.73632 0.13048 0.54675 0.0
H307 H 0.7411 0.0667 0.50715 0.0
H308 H 0.69051 0.06651 0.38811 0.0
H309 H 0.67367 0.1399 0.3926 0.0
C310 C 0.6834 0.18766 0.4569 0.0
C311 C 0.69014 0.20846 0.49275 0.0
C312 C 0.69428 0.14554 0.45375 0.0
C313 C 0.70984 0.18742 0.52468 0.0
C314 C 0.72145 0.14588 0.52152 0.0
C315 C 0.72467 0.08246 0.483 0.0
C316 C 0.71579 0.06107 0.44793 0.0
C317 C 0.71332 0.12442 0.48639 0.0
C318 C 0.69606 0.08201 0.41605 0.0
C319 C 0.68637 0.12405 0.41857 0.0
H320 H 0.1123 0.40574 0.77783 0.0
H321 H 0.0383 0.50647 0.72949 0.0
H322 H 0.09835 0.538 0.70294 0.0
H323 H 0.16998 0.53434 0.69014 0.0
H324 H 0.24369 0.4298 0.73099 0.0
H325 H 0.18521 0.40204 0.76451 0.0
C326 C 0.10953 0.43494 0.76198 0.0
C327 C 0.07124 0.45427 0.7559 0.0
C328 C 0.14385 0.45182 0.74555 0.0
C329 C 0.06759 0.49138 0.73453 0.0
C330 C 0.10183 0.50926 0.71943 0.0
C331 C 0.17371 0.50578 0.70692 0.0
C332 C 0.21132 0.48432 0.70857 0.0
C333 C 0.13989 0.48942 0.72435 0.0
C334 C 0.21513 0.44692 0.72959 0.0
C335 C 0.18172 0.43109 0.74856 0.0
H336 H 0.78382 0.91531 0.90243 0.0
H337 H 0.79315 0.96409 0.02099 0.0
H338 H 0.80923 0.89404 0.04682 0.0
H339 H 0.82077 0.81853 0.03462 0.0
H340 H 0.81464 0.77314 0.91474 0.0
H341 H 0.79666 0.84235 0.89033 0.0
C342 C 0.78924 0.91093 0.934 0.0
C343 C 0.78706 0.9451 0.95974 0.0
C344 C 0.79883 0.871 0.94829 0.0
C345 C 0.79466 0.93846 1.0005 0.0
C346 C 0.80373 0.89836 0.01521 0.0
C347 C 0.81526 0.82383 1.00333 0.0
C348 C 0.81879 0.79045 0.97668 0.0
C349 C 0.80583 0.8643 0.98931 0.0
C350 C 0.81193 0.79801 0.93597 0.0
C351 C 0.80177 0.83768 0.92195 0.0
H352 H 0.43709 0.47528 0.22602 0.0
H353 H 0.42196 0.60636 0.2437 0.0
H354 H 0.35073 0.60366 0.22588 0.0
H355 H 0.29176 0.56433 0.20608 0.0
H356 H 0.30244 0.43184 0.19955 0.0
H357 H 0.37546 0.4344 0.21215 0.0
C358 C 0.41813 0.50311 0.22534 0.0
C359 C 0.43525 0.54136 0.23381 0.0
C360 C 0.37609 0.501 0.21734 0.0
C361 C 0.40996 0.57691 0.23512 0.0
C362 C 0.36899 0.57538 0.22544 0.0
C363 C 0.31007 0.53605 0.20757 0.0
C364 C 0.29202 0.49811 0.20075 0.0
C365 C 0.35165 0.53766 0.21653 0.0
C366 C 0.31597 0.4616 0.20351 0.0
C367 C 0.35771 0.46302 0.21098 0.0
H368 H 0.48541 0.22472 0.3437 0.0
H369 H 0.58476 0.13822 0.32699 0.0
H370 H 0.60639 0.14659 0.39608 0.0
H371 H 0.60081 0.18197 0.46002 0.0
H372 H 0.50566 0.27333 0.47514 0.0
H373 H 0.47855 0.25921 0.40846 0.0
C374 C 0.51267 0.20882 0.35488 0.0
C375 C 0.53411 0.18189 0.32987 0.0
C376 C 0.52571 0.21438 0.39451 0.0
C377 C 0.56866 0.16048 0.34503 0.0
C378 C 0.58097 0.16492 0.38468 0.0
C379 C 0.57377 0.19818 0.44892 0.0
C380 C 0.5553 0.22858 0.47235 0.0
C381 C 0.56004 0.19198 0.40962 0.0
C382 C 0.52021 0.24948 0.45766 0.0
C383 C 0.50513 0.24196 0.41931 0.0
H384 H 0.05789 0.21579 0.61517 0.0
H385 H 0.03773 0.33363 0.55651 0.0
H386 H 0.0146 0.36379 0.61846 0.0
H387 H 0.00599 0.3584 0.6903 0.0
H388 H 0.02754 0.24148 0.74982 0.0
H389 H 0.04457 0.20925 0.68645 0.0
C390 C 0.04782 0.24792 0.61567 0.0
C391 C 0.04975 0.27243 0.58107 0.0
C392 C 0.03538 0.26535 0.65169 0.0
C393 C 0.0367 0.31403 0.58255 0.0
C394 C 0.02363 0.33138 0.61806 0.0
C395 C 0.01386 0.3257 0.68936 0.0
C396 C 0.01557 0.30231 0.72471 0.0
C397 C 0.02378 0.3076 0.65297 0.0
C398 C 0.02611 0.26011 0.72303 0.0
C399 C 0.03583 0.24173 0.68681 0.0
H400 H 0.94831 0.8466 0.82659 0.0
H401 H 0.02046 0.736 0.80819 0.0
H402 H 0.00676 0.71229 0.87546 0.0
H403 H 0.97701 0.72451 0.93985 0.0
H404 H 0.90569 0.83567 0.95985 0.0
H405 H 0.91787 0.8588 0.892 0.0
C406 C 0.95981 0.81669 0.83702 0.0
C407 C 0.98413 0.79219 0.81226 0.0
C408 C 0.9534 0.80435 0.87635 0.0
C409 C 1.00062 0.75451 0.82647 0.0
C410 C 0.99337 0.74141 0.86506 0.0
C411 C 0.96446 0.7541 0.92965 0.0
C412 C 0.94071 0.77845 0.9551 0.0
C413 C 0.97053 0.76647 0.89045 0.0
C414 C 0.92475 0.81667 0.94125 0.0
C415 C 0.9311 0.82955 0.9022 0.0
H416 H 0.49039 0.73031 0.18646 0.0
H417 H 0.45398 0.60395 0.17695 0.0
H418 H 0.43281 0.61441 0.10883 0.0
H419 H 0.42688 0.65772 0.04973 0.0
H420 H 0.47048 0.78154 0.05342 0.0
H421 H 0.48671 0.77403 0.12466 0.0
C422 C 0.47716 0.70545 0.16957 0.0
C423 C 0.47251 0.66669 0.18785 0.0
C424 C 0.46681 0.71105 0.12865 0.0
C425 C 0.45672 0.63444 0.1648 0.0
C426 C 0.44497 0.64019 0.12522 0.0
C427 C 0.44011 0.68302 0.06606 0.0
C428 C 0.44667 0.72039 0.04649 0.0
C429 C 0.45032 0.67808 0.10662 0.0
C430 C 0.46403 0.75279 0.06811 0.0
C431 C 0.47359 0.74839 0.10884 0.0
H432 H 0.17597 0.34937 0.3817 0.0
H433 H 0.04774 0.35307 0.35593 0.0
H434 H 0.05947 0.38261 0.29004 0.0
H435 H 0.10751 0.40174 0.23798 0.0
H436 H 0.23572 0.38859 0.26407 0.0
H437 H 0.22266 0.36732 0.33134 0.0
C438 C 0.15044 0.35729 0.36199 0.0
C439 C 0.11111 0.3494 0.37347 0.0
C440 C 0.15756 0.37153 0.32383 0.0
C441 C 0.07833 0.3593 0.34757 0.0
C442 C 0.08508 0.37571 0.30987 0.0
C443 C 0.13241 0.39403 0.25848 0.0
C444 C 0.17242 0.39628 0.24594 0.0
C445 C 0.12474 0.38087 0.29728 0.0
C446 C 0.20458 0.38637 0.27268 0.0
C447 C 0.19723 0.37461 0.31136 0.0
H448 H 0.95146 0.90122 0.56425 0.0
H449 H 0.85633 0.88591 0.64759 0.0
H450 H 0.80564 0.90177 0.59514 0.0
H451 H 0.7886 0.91763 0.52566 0.0
H452 H 0.88299 0.93346 0.44169 0.0
H453 H 0.9342 0.9203 0.49468 0.0
C454 C 0.9196 0.9014 0.57088 0.0
C455 C 0.90747 0.89206 0.60958 0.0
C456 C 0.89077 0.91074 0.54064 0.0
C457 C 0.86625 0.89278 0.61798 0.0
C458 C 0.83736 0.90187 0.58804 0.0
C459 C 0.82041 0.91834 0.51891 0.0
C460 C 0.83215 0.92613 0.47983 0.0
C461 C 0.84931 0.91055 0.54929 0.0
C462 C 0.87335 0.92748 0.47158 0.0
C463 C 0.90251 0.91979 0.5018 0.0
H464 H 0.38406 0.55944 0.736 0.0
H465 H 0.28902 0.63819 0.68539 0.0
H466 H 0.30065 0.68907 0.73825 0.0
H467 H 0.33514 0.70815 0.80211 0.0
H468 H 0.43108 0.62832 0.85007 0.0
H469 H 0.42186 0.5808 0.79493 0.0
C470 C 0.36609 0.58796 0.73623 0.0
C471 C 0.33552 0.59501 0.70704 0.0
C472 C 0.37301 0.61666 0.76646 0.0
C473 C 0.31284 0.63223 0.70745 0.0
C474 C 0.31934 0.6611 0.73784 0.0
C475 C 0.35422 0.68053 0.80016 0.0
C476 C 0.38358 0.67156 0.83032 0.0
C477 C 0.34889 0.65325 0.76799 0.0
C478 C 0.40826 0.63586 0.82736 0.0
C479 C 0.40297 0.60862 0.79586 0.0
H480 H 0.59775 0.14467 0.09301 0.0
H481 H 0.60334 0.0213 0.14169 0.0
H482 H 0.63492 0.99549 0.08163 0.0
H483 H 0.66036 0.00769 0.01449 0.0
H484 H 0.65712 0.13151 0.96693 0.0
H485 H 0.62481 0.15719 0.02667 0.0
C486 C 0.60637 0.11226 0.09062 0.0
C487 C 0.59837 0.08502 0.12186 0.0
C488 C 0.62438 0.09751 0.0558 0.0
C489 C 0.6094 0.043 0.11819 0.0
C490 C 0.62721 0.02812 0.08369 0.0
C491 C 0.65205 0.04017 0.01705 0.0
C492 C 0.66068 0.06755 0.9861 0.0
C493 C 0.63449 0.05499 0.05209 0.0
C494 C 0.65059 0.10975 0.99023 0.0
C495 C 0.63228 0.12451 0.02449 0.0
H496 H 0.66676 0.20456 0.71919 0.0
H497 H 0.66623 0.10795 0.63139 0.0
H498 H 0.67972 0.05625 0.68333 0.0
H499 H 0.68975 0.03821 0.75312 0.0
H500 H 0.6909 0.13314 0.84242 0.0
H501 H 0.67951 0.18609 0.79036 0.0
C502 C 0.66971 0.17217 0.71151 0.0
C503 C 0.66525 0.16001 0.67147 0.0
C504 C 0.67757 0.14249 0.7417 0.0
C505 C 0.66936 0.11804 0.6619 0.0
C506 C 0.67708 0.08849 0.6916 0.0
C507 C 0.68754 0.07051 0.76139 0.0
C508 C 0.69079 0.08174 0.80166 0.0
C509 C 0.68092 0.10034 0.73152 0.0
C510 C 0.68837 0.12373 0.81167 0.0
C511 C 0.68177 0.1539 0.7819 0.0
H512 H 0.14578 0.34673 0.05697 0.0
H513 H 0.14103 0.47976 0.0495 0.0
H514 H 0.09372 0.47678 0.99283 0.0
H515 H 0.05828 0.43623 0.94218 0.0
H516 H 0.06747 0.3032 0.94619 0.0
H517 H 0.10883 0.30616 1.00735 0.0
C518 C 0.13404 0.37504 0.04314 0.0
C519 C 0.14642 0.41339 0.05759 0.0
C520 C 0.10814 0.37302 0.00969 0.0
C521 C 0.13127 0.44989 0.03937 0.0
C522 C 0.10457 0.44819 1.00672 0.0
C523 C 0.06911 0.40792 0.95667 0.0
C524 C 0.06016 0.36956 0.93984 0.0
C525 C 0.09345 0.40992 0.99119 0.0
C526 C 0.07426 0.33305 0.95868 0.0
C527 C 0.09785 0.33475 0.99357 0.0
H528 H 0.8749 0.92309 0.28032 0.0
H529 H 0.74602 0.90964 0.26439 0.0
H530 H 0.75541 0.88108 0.19895 0.0
H531 H 0.79957 0.85441 0.14841 0.0
H532 H 0.92867 0.86258 0.16347 0.0
H533 H 0.91988 0.89963 0.22622 0.0
C534 C 0.84899 0.91412 0.26234 0.0
C535 C 0.80994 0.91784 0.27769 0.0
C536 C 0.85454 0.89694 0.22439 0.0
C537 C 0.77657 0.90633 0.25388 0.0
C538 C 0.78178 0.8902 0.21619 0.0
C539 C 0.82581 0.86492 0.16505 0.0
C540 C 0.86464 0.85569 0.15155 0.0
C541 C 0.82056 0.88461 0.20149 0.0
C542 C 0.89839 0.86951 0.17333 0.0
C543 C 0.89336 0.89032 0.20937 0.0
H544 H 0.40166 0.5427 0.53224 0.0
H545 H 0.29266 0.60863 0.49365 0.0
H546 H 0.3256 0.63154 0.43361 0.0
H547 H 0.38565 0.63217 0.39156 0.0
H548 H 0.4958 0.57025 0.43329 0.0
H549 H 0.46241 0.54663 0.49246 0.0
C550 C 0.38516 0.56196 0.51057 0.0
C551 C 0.3448 0.57369 0.51709 0.0
C552 C 0.40458 0.57591 0.47673 0.0
C553 C 0.32385 0.59924 0.4892 0.0
C554 C 0.34263 0.61231 0.45487 0.0
C555 C 0.40225 0.61376 0.41381 0.0
C556 C 0.44299 0.60289 0.40811 0.0
C557 C 0.38302 0.60084 0.44828 0.0
C558 C 0.46438 0.57916 0.43714 0.0
C559 C 0.4453 0.56547 0.47093 0.0
H560 H 0.23867 0.13416 0.43888 0.0
H561 H 0.20107 0.23747 0.36405 0.0
H562 H 0.25696 0.22256 0.32019 0.0
H563 H 0.31806 0.18128 0.30356 0.0
H564 H 0.35588 0.07839 0.37849 0.0
H565 H 0.29873 0.09201 0.42146 0.0
C566 C 0.24245 0.1533 0.41285 0.0
C567 C 0.21535 0.18694 0.40502 0.0
C568 C 0.27502 0.14472 0.38766 0.0
C569 C 0.22116 0.21134 0.37106 0.0
C570 C 0.25329 0.20289 0.34586 0.0
C571 C 0.31368 0.16178 0.32923 0.0
C572 C 0.34132 0.12886 0.33778 0.0
C573 C 0.28063 0.16986 0.35397 0.0
C574 C 0.33515 0.10391 0.37118 0.0
C575 C 0.30242 0.11171 0.39582 0.0
H576 H 0.08676 0.11468 0.61821 0.0
H577 H 0.18308 0.05096 0.55813 0.0
H578 H 0.16875 0.9869 0.59358 0.0
H579 H 0.12594 0.94839 0.639 0.0
H580 H 0.02418 0.01086 0.69168 0.0
H581 H 0.04317 0.07618 0.66177 0.0
C582 C 0.10494 0.08684 0.61343 0.0
C583 C 0.13623 0.08728 0.58628 0.0
C584 C 0.09514 0.04996 0.63222 0.0
C585 C 0.15904 0.05106 0.5793 0.0
C586 C 0.15075 0.01454 0.59938 0.0
C587 C 0.10818 0.97646 0.64393 0.0
C588 C 0.07385 0.9752 0.66735 0.0
C589 C 0.11844 0.0135 0.62546 0.0
C590 C 0.05059 0.01135 0.6734 0.0
C591 C 0.06151 0.04862 0.6565 0.0
H592 H 0.20001 0.90039 0.82498 0.0
H593 H 0.17059 0.77235 0.81148 0.0
H594 H 0.23008 0.75153 0.85217 0.0
H595 H 0.28842 0.77022 0.895 0.0
H596 H 0.31822 0.89848 0.90674 0.0
H597 H 0.26107 0.91862 0.86315 0.0
C598 C 0.2068 0.86794 0.83082 0.0
C599 C 0.18085 0.83798 0.81568 0.0
C600 C 0.24116 0.85622 0.85396 0.0
C601 C 0.19011 0.796 0.82304 0.0
C602 C 0.22409 0.78407 0.84631 0.0
C603 C 0.28267 0.80248 0.88753 0.0
C604 C 0.30729 0.83282 0.90435 0.0
C605 C 0.24958 0.81395 0.86239 0.0
C606 C 0.29955 0.87453 0.89438 0.0
C607 C 0.2668 0.88613 0.86952 0.0
H608 H 0.37579 0.01733 0.17039 0.0
H609 H 0.50337 0.98616 0.1775 0.0
H610 H 0.49184 0.92158 0.1433 0.0
H611 H 0.44709 0.87638 0.10713 0.0
H612 H 0.32025 0.90811 0.09354 0.0
H613 H 0.32957 0.96944 0.13509 0.0
C614 C 0.40084 0.99615 0.16459 0.0
C615 C 0.44039 0.0067 0.17596 0.0
C616 C 0.39414 0.95914 0.14386 0.0
C617 C 0.47272 0.97909 0.16837 0.0
C618 C 0.46619 0.942 0.14902 0.0
C619 C 0.42132 0.89637 0.11372 0.0
C620 C 0.38311 0.88791 0.09738 0.0
C621 C 0.42723 0.93208 0.13603 0.0
C622 C 0.35 0.91409 0.10597 0.0
C623 C 0.35539 0.94924 0.12947 0.0
H624 H 0.88735 0.32358 0.64523 0.0
H625 H 0.85893 0.45411 0.64842 0.0
H626 H 0.7939 0.44272 0.61423 0.0
H627 H 0.74092 0.39373 0.59348 0.0
H628 H 0.76925 0.26281 0.59835 0.0
H629 H 0.83802 0.27614 0.61996 0.0
C630 C 0.86735 0.34968 0.63757 0.0
C631 C 0.87745 0.38944 0.64966 0.0
C632 C 0.82937 0.34261 0.62046 0.0
C633 C 0.8516 0.42312 0.63934 0.0
C634 C 0.81422 0.41653 0.62033 0.0
C635 C 0.76234 0.36832 0.59911 0.0
C636 C 0.74979 0.32742 0.59536 0.0
C637 C 0.80199 0.37614 0.61251 0.0
C638 C 0.77783 0.29461 0.6022 0.0
C639 C 0.81734 0.30213 0.61415 0.0
H640 H 0.96777 0.46325 0.87915 0.0
H641 H 0.84522 0.4629 0.83301 0.0
H642 H 0.82464 0.51363 0.88236 0.0
H643 H 0.84306 0.56417 0.9331 0.0
H644 H 0.9663 0.56807 0.97706 0.0
H645 H 0.98506 0.50985 0.9347 0.0
C646 C 0.93643 0.47342 0.88086 0.0
C647 C 0.90796 0.45937 0.85282 0.0
C648 C 0.92508 0.5038 0.9085 0.0
C649 C 0.86757 0.47342 0.85447 0.0
C650 C 0.85582 0.50256 0.88251 0.0
C651 C 0.87386 0.55186 0.93377 0.0
C652 C 0.90332 0.57054 0.95774 0.0
C653 C 0.88456 0.51898 0.90879 0.0
C654 C 0.94314 0.55432 0.95849 0.0
C655 C 0.95391 0.52105 0.93427 0.0
H656 H 0.74104 0.71423 0.09258 0.0
H657 H 0.81419 0.60529 0.12018 0.0
H658 H 0.75524 0.57108 0.14597 0.0
H659 H 0.68296 0.57305 0.1623 0.0
H660 H 0.60953 0.68107 0.13139 0.0
H661 H 0.66809 0.71427 0.10436 0.0
C662 C 0.74406 0.68316 0.10464 0.0
C663 C 0.78193 0.66256 0.10529 0.0
C664 C 0.70981 0.66325 0.11814 0.0
C665 C 0.78533 0.62188 0.11987 0.0
C666 C 0.75162 0.60226 0.13438 0.0
C667 C 0.67967 0.60348 0.14888 0.0
C668 C 0.64198 0.62454 0.14884 0.0
C669 C 0.71365 0.62262 0.13365 0.0
C670 C 0.63819 0.66411 0.13163 0.0
C671 C 0.67176 0.68331 0.11649 0.0
H672 H 0.66208 0.42973 0.42165 0.0
H673 H 0.54697 0.43815 0.47813 0.0
H674 H 0.52373 0.49193 0.43095 0.0
H675 H 0.53396 0.53171 0.36901 0.0
H676 H 0.6485 0.52078 0.31188 0.0
H677 H 0.67424 0.47348 0.3638 0.0
C678 C 0.63213 0.44377 0.42396 0.0
C679 C 0.60623 0.42978 0.45317 0.0
C680 C 0.61881 0.47433 0.39641 0.0
C681 C 0.56748 0.44828 0.4558 0.0
C682 C 0.55413 0.47903 0.42876 0.0
C683 C 0.56489 0.51992 0.36876 0.0
C684 C 0.58952 0.53007 0.33701 0.0
C685 C 0.57921 0.49174 0.39835 0.0
C686 C 0.62915 0.51358 0.33624 0.0
C687 C 0.64382 0.48636 0.3658 0.0
H688 H 0.29656 0.28144 0.16022 0.0
H689 H 0.38695 0.36995 0.13316 0.0
H690 H 0.44039 0.31867 0.14995 0.0
H691 H 0.4611 0.24977 0.17335 0.0
H692 H 0.37162 0.16042 0.20066 0.0
H693 H 0.31766 0.2114 0.18322 0.0
C694 C 0.32799 0.28936 0.15772 0.0
C695 C 0.33796 0.3293 0.14526 0.0
C696 C 0.35844 0.25985 0.16783 0.0
C697 C 0.37866 0.33934 0.14241 0.0
C698 C 0.40913 0.31011 0.15217 0.0
C699 C 0.42978 0.2413 0.1755 0.0
C700 C 0.42026 0.20143 0.18837 0.0
C701 C 0.39931 0.27046 0.16512 0.0
C702 C 0.37961 0.191 0.19106 0.0
C703 C 0.34887 0.22007 0.18092 0.0
H704 H 0.91246 0.28295 0.88275 0.0
H705 H 0.85545 0.29301 0.76614 0.0
H706 H 0.81472 0.23333 0.78043 0.0
H707 H 0.79781 0.17636 0.82469 0.0
H708 H 0.85593 0.16525 0.94047 0.0
H709 H 0.89392 0.22752 0.92778 0.0
C710 C 0.89087 0.27245 0.8605 0.0
C711 C 0.88715 0.29248 0.82334 0.0
C712 C 0.86803 0.23777 0.86866 0.0
C713 C 0.85904 0.27821 0.79495 0.0
C714 C 0.8358 0.244 0.80304 0.0
C715 C 0.81872 0.18768 0.84718 0.0
C716 C 0.82434 0.16629 0.88338 0.0
C717 C 0.8405 0.22322 0.83956 0.0
C718 C 0.8513 0.18124 0.91235 0.0
C719 C 0.87295 0.21678 0.9051 0.0
H720 H 0.07546 0.59851 0.17593 0.0
H721 H 0.05388 0.51789 0.07652 0.0
H722 H 0.99466 0.55992 0.05582 0.0
H723 H 0.95006 0.6209 0.06488 0.0
H724 H 0.96961 0.70024 0.16527 0.0
H725 H 0.02799 0.65731 0.18712 0.0
C726 C 0.05758 0.5901 0.14993 0.0
C727 C 0.06909 0.55533 0.1277 0.0
C728 C 0.02321 0.61422 0.13836 0.0
C729 C 0.04558 0.54452 0.09418 0.0
C730 C 0.01176 0.5686 0.08222 0.0
C731 C 0.96728 0.62887 0.09125 0.0
C732 C 0.95601 0.664 0.11291 0.0
C733 C 1.00053 0.60376 0.10382 0.0
C734 C 0.97779 0.67332 0.14797 0.0
C735 C 0.01127 0.64887 0.16043 0.0
H736 H 0.70575 0.81313 0.32454 0.0
H737 H 0.61266 0.86062 0.40032 0.0
H738 H 0.56925 0.80353 0.38078 0.0
H739 H 0.55859 0.73966 0.34283 0.0
H740 H 0.65155 0.69403 0.26555 0.0
H741 H 0.69421 0.75117 0.28492 0.0
C742 C 0.67594 0.81098 0.33683 0.0
C743 C 0.66245 0.84075 0.36409 0.0
C744 C 0.65122 0.7785 0.32515 0.0
C745 C 0.62367 0.83793 0.37941 0.0
C746 C 0.59893 0.80532 0.36824 0.0
C747 C 0.58819 0.74214 0.33021 0.0
C748 C 0.60191 0.71231 0.30294 0.0
C749 C 0.61251 0.77531 0.34127 0.0
C750 C 0.64017 0.71641 0.28658 0.0
C751 C 0.66465 0.74906 0.29771 0.0
H752 H 0.50145 0.28999 0.60258 0.0
H753 H 0.58365 0.38913 0.58565 0.0
H754 H 0.52855 0.43989 0.59515 0.0
H755 H 0.45759 0.45548 0.60994 0.0
H756 H 0.37551 0.35606 0.62617 0.0
H757 H 0.4304 0.30548 0.61562 0.0
C758 C 0.50727 0.32274 0.60093 0.0
C759 C 0.54632 0.33605 0.59356 0.0
C760 C 0.47569 0.3514 0.6066 0.0
C761 C 0.55362 0.37839 0.59116 0.0
C762 C 0.52226 0.40728 0.59676 0.0
C763 C 0.45182 0.42271 0.61129 0.0
C764 C 0.41289 0.40924 0.61912 0.0
C765 C 0.4833 0.39406 0.60483 0.0
C766 C 0.40545 0.3669 0.6204 0.0
C767 C 0.43671 0.3381 0.6143 0.0
H768 H 0.21043 0.70178 0.64503 0.0
H769 H 0.11774 0.61587 0.61344 0.0
H770 H 0.06556 0.66641 0.63153 0.0
H771 H 0.04641 0.73391 0.65735 0.0
H772 H 0.13789 0.82085 0.68936 0.0
H773 H 0.19079 0.77072 0.67049 0.0
C774 C 0.17877 0.69442 0.6418 0.0
C775 C 0.16774 0.65542 0.6278 0.0
C776 C 0.14894 0.7235 0.65267 0.0
C777 C 0.12679 0.64586 0.62403 0.0
C778 C 0.097 0.67462 0.63448 0.0
C779 C 0.07794 0.74193 0.66021 0.0
C780 C 0.08842 0.78081 0.67469 0.0
C781 C 0.10777 0.71332 0.64907 0.0
C782 C 0.12928 0.79092 0.67831 0.0
C783 C 0.1594 0.76237 0.66743 0.0
H784 H 0.51745 0.83035 0.97576 0.0
H785 H 0.45792 0.85055 0.86181 0.0
H786 H 0.51919 0.88092 0.83634 0.0
H787 H 0.58891 0.90393 0.84773 0.0
H788 H 0.6493 0.87956 0.96077 0.0
H789 H 0.58882 0.84752 0.98517 0.0
C790 C 0.51793 0.84175 0.94545 0.0
C791 C 0.48324 0.83929 0.92084 0.0
C792 C 0.55353 0.85771 0.93078 0.0
C793 C 0.48431 0.8528 0.88129 0.0
C794 C 0.5193 0.86991 0.86675 0.0
C795 C 0.58899 0.8909 0.87743 0.0
C796 C 0.62334 0.89419 0.9025 0.0
C797 C 0.55405 0.87266 0.8913 0.0
C798 C 0.62321 0.87722 0.9409 0.0
C799 C 0.58853 0.85926 0.955 0.0
H800 H 0.95194 0.0385 0.42064 0.0
H801 H 0.86284 0.13661 0.39994 0.0
H802 H 0.91253 0.18773 0.41721 0.0
H803 H 0.98029 0.20537 0.43808 0.0
H804 H 0.0723 0.11027 0.45787 0.0
H805 H 0.02261 0.05725 0.44135 0.0
C806 C 0.94359 0.07109 0.41985 0.0
C807 C 0.90355 0.08363 0.40892 0.0
C808 C 0.97277 0.10086 0.42976 0.0
C809 C 0.89325 0.12598 0.4081 0.0
C810 C 0.92169 0.15535 0.41806 0.0
C811 C 0.98978 0.17305 0.43882 0.0
C812 C 0.03011 0.16189 0.44915 0.0
C813 C 0.96139 0.1432 0.42893 0.0
C814 C 0.04152 0.11977 0.44994 0.0
C815 C 0.01305 0.0895 0.44046 0.0
loop_
_geom_bond_atom_site_label_1
_geom_bond_atom_site_label_2
_geom_bond_distance
_geom_bond_site_symmetry_2
_ccdc_geom_bond_type
Dy0 O4 2.398 . S
Dy0 O5 2.491 . S
Dy0 O6 2.403 . S
Dy0 O7 2.664 . S
Dy0 O11 2.326 . S
Dy0 O15 2.310 . S
Dy0 O16 2.351 . S
C1 O12 1.185 . S
C1 O13 1.355 . S
C2 O4 1.185 . S
C2 O5 1.355 . S
Dy3 O7 2.310 . S
Dy3 O10 2.351 . S
Dy3 O12 2.398 . S
Dy3 O13 2.491 . S
Dy3 O14 2.403 . S
Dy3 O15 2.664 . S
Dy3 O17 2.326 . S
O4 Dy0 2.398 . S
O4 C2 1.185 . S
O5 Dy0 2.491 . S
O5 C2 1.355 . S
O6 Dy0 2.403 . S
O6 C8 1.254 . S
O7 Dy0 2.664 . S
O7 Dy3 2.310 . S
O7 C8 1.268 . S
C8 O6 1.254 . S
C8 O7 1.268 . S
C9 O14 1.254 . S
C9 O15 1.268 . S
O10 Dy3 2.351 . S
O10 C18 1.249 . S
O11 Dy0 2.326 . S
O11 C18 1.267 . S
O12 C1 1.185 . S
O12 Dy3 2.398 . S
O13 C1 1.355 . S
O13 Dy3 2.491 . S
O14 Dy3 2.403 . S
O14 C9 1.254 . S
O15 Dy0 2.310 . S
O15 Dy3 2.664 . S
O15 C9 1.268 . S
O16 Dy0 2.351 . S
O16 C19 1.249 . S
O17 Dy3 2.326 . S
O17 C19 1.267 . S
C18 O10 1.249 . S
C18 O11 1.267 . S
C19 O16 1.249 . S
C19 O17 1.267 . S
Dy20 O24 2.398 . S
Dy20 O25 2.491 . S
Dy20 O26 2.403 1_655 S
Dy20 O27 2.664 1_655 S
Dy20 O31 2.326 1_655 S
Dy20 O35 2.310 . S
Dy20 O36 2.351 . S
C21 O32 1.185 . S
C21 O33 1.355 . S
C22 O24 1.185 . S
C22 O25 1.355 . S
Dy23 O27 2.310 . S
Dy23 O30 2.351 . S
Dy23 O32 2.398 . S
Dy23 O33 2.491 . S
Dy23 O34 2.403 . S
Dy23 O35 2.664 1_455 S
Dy23 O37 2.326 . S
O24 Dy20 2.398 . S
O24 C22 1.185 . S
O25 Dy20 2.491 . S
O25 C22 1.355 . S
O26 Dy20 2.403 1_455 S
O26 C28 1.254 . S
O27 Dy20 2.664 1_455 S
O27 Dy23 2.310 . S
O27 C28 1.268 . S
C28 O26 1.254 . S
C28 O27 1.268 . S
C29 O34 1.254 1_655 S
C29 O35 1.268 . S
O30 Dy23 2.351 . S
O30 C38 1.249 . S
O31 Dy20 2.326 1_455 S
O31 C38 1.267 . S
O32 C21 1.185 . S
O32 Dy23 2.398 . S
O33 C21 1.355 . S
O33 Dy23 2.491 . S
O34 Dy23 2.403 . S
O34 C29 1.254 1_455 S
O35 Dy20 2.310 . S
O35 Dy23 2.664 1_655 S
O35 C29 1.268 . S
O36 Dy20 2.351 . S
O36 C39 1.249 . S
O37 Dy23 2.326 . S
O37 C39 1.267 1_455 S
C38 O30 1.249 . S
C38 O31 1.267 . S
C39 O36 1.249 . S
C39 O37 1.267 1_655 S
Dy40 O44 2.398 . S
Dy40 O45 2.491 . S
Dy40 O46 2.403 1_554 S
Dy40 O47 2.664 1_554 S
Dy40 O51 2.326 1_554 S
Dy40 O55 2.310 . S
Dy40 O56 2.351 . S
C41 O52 1.185 . S
C41 O53 1.355 . S
C42 O44 1.185 . S
C42 O45 1.355 . S
Dy43 O47 2.310 . S
Dy43 O50 2.351 . S
Dy43 O52 2.398 . S
Dy43 O53 2.491 . S
Dy43 O54 2.403 . S
Dy43 O55 2.664 1_556 S
Dy43 O57 2.326 . S
O44 Dy40 2.398 . S
O44 C42 1.185 . S
O45 Dy40 2.491 . S
O45 C42 1.355 . S
O46 Dy40 2.403 1_556 S
O46 C48 1.254 . S
O47 Dy40 2.664 1_556 S
O47 Dy43 2.310 . S
O47 C48 1.268 . S
C48 O46 1.254 . S
C48 O47 1.268 . S
C49 O54 1.254 1_554 S
C49 O55 1.268 . S
O50 Dy43 2.351 . S
O50 C58 1.249 . S
O51 Dy40 2.326 1_556 S
O51 C58 1.267 . S
O52 C41 1.185 . S
O52 Dy43 2.398 . S
O53 C41 1.355 . S
O53 Dy43 2.491 . S
O54 Dy43 2.403 . S
O54 C49 1.254 1_556 S
O55 Dy40 2.310 . S
O55 Dy43 2.664 1_554 S
O55 C49 1.268 . S
O56 Dy40 2.351 . S
O56 C59 1.249 1_554 S
O57 Dy43 2.326 . S
O57 C59 1.267 . S
C58 O50 1.249 . S
C58 O51 1.267 . S
C59 O56 1.249 1_556 S
C59 O57 1.267 . S
Dy60 O64 2.398 . S
Dy60 O65 2.491 . S
Dy60 O66 2.403 . S
Dy60 O67 2.664 . S
Dy60 O71 2.326 . S
Dy60 O75 2.310 . S
Dy60 O76 2.351 . S
C61 O72 1.185 . S
C61 O73 1.355 . S
C62 O64 1.185 . S
C62 O65 1.355 . S
Dy63 O67 2.310 . S
Dy63 O70 2.351 . S
Dy63 O72 2.398 . S
Dy63 O73 2.491 . S
Dy63 O74 2.403 . S
Dy63 O75 2.664 . S
Dy63 O77 2.326 . S
O64 Dy60 2.398 . S
O64 C62 1.185 . S
O65 Dy60 2.491 . S
O65 C62 1.355 . S
O66 Dy60 2.403 . S
O66 C68 1.254 . S
O67 Dy60 2.664 . S
O67 Dy63 2.310 . S
O67 C68 1.268 . S
C68 O66 1.254 . S
C68 O67 1.268 . S
C69 O74 1.254 . S
C69 O75 1.268 . S
O70 Dy63 2.351 . S
O70 C78 1.249 . S
O71 Dy60 2.326 . S
O71 C78 1.267 . S
O72 C61 1.185 . S
O72 Dy63 2.398 . S
O73 C61 1.355 . S
O73 Dy63 2.491 . S
O74 Dy63 2.403 . S
O74 C69 1.254 . S
O75 Dy60 2.310 . S
O75 Dy63 2.664 . S
O75 C69 1.268 . S
O76 Dy60 2.351 . S
O76 C79 1.249 . S
O77 Dy63 2.326 . S
O77 C79 1.267 . S
C78 O70 1.249 . S
C78 O71 1.267 . S
C79 O76 1.249 . S
C79 O77 1.267 . S
Dy80 O84 2.398 . S
Dy80 O85 2.491 . S
Dy80 O86 2.403 . S
Dy80 O87 2.664 . S
Dy80 O91 2.326 . S
Dy80 O95 2.310 . S
Dy80 O96 2.351 . S
C81 O92 1.185 . S
C81 O93 1.355 . S
C82 O84 1.185 . S
C82 O85 1.355 . S
Dy83 O87 2.310 . S
Dy83 O90 2.351 . S
Dy83 O92 2.398 . S
Dy83 O93 2.491 . S
Dy83 O94 2.403 . S
Dy83 O95 2.664 . S
Dy83 O97 2.326 . S
O84 Dy80 2.398 . S
O84 C82 1.185 . S
O85 Dy80 2.491 . S
O85 C82 1.355 . S
O86 Dy80 2.403 . S
O86 C88 1.254 . S
O87 Dy80 2.664 . S
O87 Dy83 2.310 . S
O87 C88 1.268 . S
C88 O86 1.254 . S
C88 O87 1.268 . S
C89 O94 1.254 . S
C89 O95 1.268 . S
O90 Dy83 2.351 . S
O90 C98 1.249 . S
O91 Dy80 2.326 . S
O91 C98 1.267 . S
O92 C81 1.185 . S
O92 Dy83 2.398 . S
O93 C81 1.355 . S
O93 Dy83 2.491 . S
O94 Dy83 2.403 . S
O94 C89 1.254 . S
O95 Dy80 2.310 . S
O95 Dy83 2.664 . S
O95 C89 1.268 . S
O96 Dy80 2.351 . S
O96 C99 1.249 . S
O97 Dy83 2.326 . S
O97 C99 1.267 . S
C98 O90 1.249 . S
C98 O91 1.267 . S
C99 O96 1.249 . S
C99 O97 1.267 . S
Dy100 O104 2.398 . S
Dy100 O105 2.491 . S
Dy100 O106 2.403 . S
Dy100 O107 2.664 . S
Dy100 O111 2.326 . S
Dy100 O115 2.310 . S
Dy100 O116 2.351 1_655 S
C101 O112 1.185 . S
C101 O113 1.355 . S
C102 O104 1.185 . S
C102 O105 1.355 . S
Dy103 O107 2.310 1_455 S
Dy103 O110 2.351 1_455 S
Dy103 O112 2.398 . S
Dy103 O113 2.491 . S
Dy103 O114 2.403 . S
Dy103 O115 2.664 1_455 S
Dy103 O117 2.326 . S
O104 Dy100 2.398 . S
O104 C102 1.185 . S
O105 Dy100 2.491 . S
O105 C102 1.355 . S
O106 Dy100 2.403 . S
O106 C108 1.254 . S
O107 Dy100 2.664 . S
O107 Dy103 2.310 1_655 S
O107 C108 1.268 . S
C108 O106 1.254 . S
C108 O107 1.268 . S
C109 O114 1.254 . S
C109 O115 1.268 1_455 S
O110 Dy103 2.351 1_655 S
O110 C118 1.249 . S
O111 Dy100 2.326 . S
O111 C118 1.267 . S
O112 C101 1.185 . S
O112 Dy103 2.398 . S
O113 C101 1.355 . S
O113 Dy103 2.491 . S
O114 Dy103 2.403 . S
O114 C109 1.254 . S
O115 Dy100 2.310 . S
O115 Dy103 2.664 1_655 S
O115 C109 1.268 1_655 S
O116 Dy100 2.351 1_455 S
O116 C119 1.249 . S
O117 Dy103 2.326 . S
O117 C119 1.267 . S
C118 O110 1.249 . S
C118 O111 1.267 . S
C119 O116 1.249 . S
C119 O117 1.267 . S
Dy120 O124 2.398 . S
Dy120 O125 2.491 . S
Dy120 O126 2.403 . S
Dy120 O127 2.664 . S
Dy120 O131 2.326 . S
Dy120 O135 2.310 . S
Dy120 O136 2.351 . S
C121 O132 1.185 . S
C121 O133 1.355 . S
C122 O124 1.185 . S
C122 O125 1.355 . S
Dy123 O127 2.310 1_556 S
Dy123 O130 2.351 1_556 S
Dy123 O132 2.398 . S
Dy123 O133 2.491 . S
Dy123 O134 2.403 . S
Dy123 O135 2.664 1_556 S
Dy123 O137 2.326 . S
O124 Dy120 2.398 . S
O124 C122 1.185 . S
O125 Dy120 2.491 . S
O125 C122 1.355 . S
O126 Dy120 2.403 . S
O126 C128 1.254 . S
O127 Dy120 2.664 . S
O127 Dy123 2.310 1_554 S
O127 C128 1.268 . S
C128 O126 1.254 . S
C128 O127 1.268 . S
C129 O134 1.254 . S
C129 O135 1.268 1_556 S
O130 Dy123 2.351 1_554 S
O130 C138 1.249 . S
O131 Dy120 2.326 . S
O131 C138 1.267 . S
O132 C121 1.185 . S
O132 Dy123 2.398 . S
O133 C121 1.355 . S
O133 Dy123 2.491 . S
O134 Dy123 2.403 . S
O134 C129 1.254 . S
O135 Dy120 2.310 . S
O135 Dy123 2.664 1_554 S
O135 C129 1.268 1_554 S
O136 Dy120 2.351 . S
O136 C139 1.249 1_554 S
O137 Dy123 2.326 . S
O137 C139 1.267 . S
C138 O130 1.249 . S
C138 O131 1.267 . S
C139 O136 1.249 1_556 S
C139 O137 1.267 . S
Dy140 O144 2.398 . S
Dy140 O145 2.491 . S
Dy140 O146 2.403 . S
Dy140 O147 2.664 . S
Dy140 O151 2.326 . S
Dy140 O155 2.310 . S
Dy140 O156 2.351 . S
C141 O152 1.185 . S
C141 O153 1.355 . S
C142 O144 1.185 . S
C142 O145 1.355 . S
Dy143 O147 2.310 . S
Dy143 O150 2.351 . S
Dy143 O152 2.398 . S
Dy143 O153 2.491 . S
Dy143 O154 2.403 . S
Dy143 O155 2.664 . S
Dy143 O157 2.326 . S
O144 Dy140 2.398 . S
O144 C142 1.185 . S
O145 Dy140 2.491 . S
O145 C142 1.355 . S
O146 Dy140 2.403 . S
O146 C148 1.254 . S
O147 Dy140 2.664 . S
O147 Dy143 2.310 . S
O147 C148 1.268 . S
C148 O146 1.254 . S
C148 O147 1.268 . S
C149 O154 1.254 . S
C149 O155 1.268 . S
O150 Dy143 2.351 . S
O150 C158 1.249 . S
O151 Dy140 2.326 . S
O151 C158 1.267 . S
O152 C141 1.185 . S
O152 Dy143 2.398 . S
O153 C141 1.355 . S
O153 Dy143 2.491 . S
O154 Dy143 2.403 . S
O154 C149 1.254 . S
O155 Dy140 2.310 . S
O155 Dy143 2.664 . S
O155 C149 1.268 . S
O156 Dy140 2.351 . S
O156 C159 1.249 . S
O157 Dy143 2.326 . S
O157 C159 1.267 . S
C158 O150 1.249 . S
C158 O151 1.267 . S
C159 O156 1.249 . S
C159 O157 1.267 . S
Dy160 O164 2.398 . S
Dy160 O165 2.491 . S
Dy160 O166 2.403 . S
Dy160 O167 2.664 . S
Dy160 O171 2.326 . S
Dy160 O175 2.310 . S
Dy160 O176 2.351 . S
C161 O172 1.185 . S
C161 O173 1.355 . S
C162 O164 1.185 . S
C162 O165 1.355 . S
Dy163 O167 2.310 . S
Dy163 O170 2.351 . S
Dy163 O172 2.398 . S
Dy163 O173 2.491 . S
Dy163 O174 2.403 . S
Dy163 O175 2.664 . S
Dy163 O177 2.326 . S
O164 Dy160 2.398 . S
O164 C162 1.185 . S
O165 Dy160 2.491 . S
O165 C162 1.355 . S
O166 Dy160 2.403 . S
O166 C168 1.254 . S
O167 Dy160 2.664 . S
O167 Dy163 2.310 . S
O167 C168 1.268 . S
C168 O166 1.254 . S
C168 O167 1.268 . S
C169 O174 1.254 . S
C169 O175 1.268 . S
O170 Dy163 2.351 . S
O170 C178 1.249 . S
O171 Dy160 2.326 . S
O171 C178 1.267 . S
O172 C161 1.185 . S
O172 Dy163 2.398 . S
O173 C161 1.355 . S
O173 Dy163 2.491 . S
O174 Dy163 2.403 . S
O174 C169 1.254 . S
O175 Dy160 2.310 . S
O175 Dy163 2.664 . S
O175 C169 1.268 . S
O176 Dy160 2.351 . S
O176 C179 1.249 . S
O177 Dy163 2.326 . S
O177 C179 1.267 . S
C178 O170 1.249 . S
C178 O171 1.267 . S
C179 O176 1.249 . S
C179 O177 1.267 . S
Dy180 O184 2.398 . S
Dy180 O185 2.491 . S
Dy180 O186 2.403 1_565 S
Dy180 O187 2.664 1_565 S
Dy180 O191 2.326 1_565 S
Dy180 O195 2.310 . S
Dy180 O196 2.351 . S
C181 O192 1.185 . S
C181 O193 1.355 . S
C182 O184 1.185 . S
C182 O185 1.355 . S
Dy183 O187 2.310 . S
Dy183 O190 2.351 . S
Dy183 O192 2.398 . S
Dy183 O193 2.491 . S
Dy183 O194 2.403 . S
Dy183 O195 2.664 1_545 S
Dy183 O197 2.326 . S
O184 Dy180 2.398 . S
O184 C182 1.185 . S
O185 Dy180 2.491 . S
O185 C182 1.355 . S
O186 Dy180 2.403 1_545 S
O186 C188 1.254 . S
O187 Dy180 2.664 1_545 S
O187 Dy183 2.310 . S
O187 C188 1.268 . S
C188 O186 1.254 . S
C188 O187 1.268 . S
C189 O194 1.254 1_565 S
C189 O195 1.268 . S
O190 Dy183 2.351 . S
O190 C198 1.249 . S
O191 Dy180 2.326 1_545 S
O191 C198 1.267 . S
O192 C181 1.185 . S
O192 Dy183 2.398 . S
O193 C181 1.355 . S
O193 Dy183 2.491 . S
O194 Dy183 2.403 . S
O194 C189 1.254 1_545 S
O195 Dy180 2.310 . S
O195 Dy183 2.664 1_565 S
O195 C189 1.268 . S
O196 Dy180 2.351 . S
O196 C199 1.244 1_565 S
O197 Dy183 2.326 . S
O197 C199 1.273 . S
C198 O190 1.249 . S
C198 O191 1.267 . S
C199 O196 1.244 1_545 S
C199 O197 1.273 . S
Dy200 O204 2.398 . S
Dy200 O205 2.491 . S
Dy200 O206 2.403 . S
Dy200 O207 2.664 . S
Dy200 O211 2.326 . S
Dy200 O215 2.310 . S
Dy200 O216 2.351 1_565 S
C201 O212 1.185 . S
C201 O213 1.355 . S
C202 O204 1.185 . S
C202 O205 1.355 . S
Dy203 O207 2.310 1_545 S
Dy203 O210 2.351 1_545 S
Dy203 O212 2.398 . S
Dy203 O213 2.491 . S
Dy203 O214 2.403 . S
Dy203 O215 2.664 1_545 S
Dy203 O217 2.326 . S
O204 Dy200 2.398 . S
O204 C202 1.185 . S
O205 Dy200 2.491 . S
O205 C202 1.355 . S
O206 Dy200 2.403 . S
O206 C208 1.254 . S
O207 Dy200 2.664 . S
O207 Dy203 2.310 1_565 S
O207 C208 1.268 . S
C208 O206 1.254 . S
C208 O207 1.268 . S
C209 O214 1.254 . S
C209 O215 1.268 1_545 S
O210 Dy203 2.351 1_565 S
O210 C218 1.249 . S
O211 Dy200 2.326 . S
O211 C218 1.267 . S
O212 C201 1.185 . S
O212 Dy203 2.398 . S
O213 C201 1.355 . S
O213 Dy203 2.491 . S
O214 Dy203 2.403 . S
O214 C209 1.254 . S
O215 Dy200 2.310 . S
O215 Dy203 2.664 1_565 S
O215 C209 1.268 1_565 S
O216 Dy200 2.351 1_545 S
O216 C219 1.249 . S
O217 Dy203 2.326 . S
O217 C219 1.267 . S
C218 O210 1.249 . S
C218 O211 1.267 . S
C219 O216 1.249 . S
C219 O217 1.267 . S
Dy220 O224 2.398 . S
Dy220 O225 2.491 . S
Dy220 O226 2.403 . S
Dy220 O227 2.664 . S
Dy220 O231 2.326 . S
Dy220 O235 2.310 . S
Dy220 O236 2.351 . S
C221 O232 1.185 . S
C221 O233 1.355 . S
C222 O224 1.185 . S
C222 O225 1.355 . S
Dy223 O227 2.310 . S
Dy223 O230 2.351 . S
Dy223 O232 2.398 . S
Dy223 O233 2.491 . S
Dy223 O234 2.403 . S
Dy223 O235 2.664 . S
Dy223 O237 2.326 . S
O224 Dy220 2.398 . S
O224 C222 1.185 . S
O225 Dy220 2.491 . S
O225 C222 1.355 . S
O226 Dy220 2.403 . S
O226 C228 1.254 . S
O227 Dy220 2.664 . S
O227 Dy223 2.310 . S
O227 C228 1.268 . S
C228 O226 1.254 . S
C228 O227 1.268 . S
C229 O234 1.254 . S
C229 O235 1.268 . S
O230 Dy223 2.351 . S
O230 C238 1.249 . S
O231 Dy220 2.326 . S
O231 C238 1.267 . S
O232 C221 1.185 . S
O232 Dy223 2.398 . S
O233 C221 1.355 . S
O233 Dy223 2.491 . S
O234 Dy223 2.403 . S
O234 C229 1.254 . S
O235 Dy220 2.310 . S
O235 Dy223 2.664 . S
O235 C229 1.268 . S
O236 Dy220 2.351 . S
O236 C239 1.249 . S
O237 Dy223 2.326 . S
O237 C239 1.267 . S
C238 O230 1.249 . S
C238 O231 1.267 . S
C239 O236 1.249 . S
C239 O237 1.267 . S
H240 C246 0.930 . S
H241 C249 0.930 . S
H242 C250 0.930 . S
H243 C251 0.930 . S
H244 C254 0.930 . S
H245 C255 0.930 . S
C246 H240 0.930 . S
C246 C247 1.355 . S
C246 C248 1.415 . S
C247 C246 1.355 . S
C247 C249 1.419 . S
C248 C246 1.415 . S
C248 C253 1.425 . S
C248 C255 1.409 . S
C249 H241 0.930 . S
C249 C247 1.419 . S
C249 C250 1.362 . S
C250 H242 0.930 . S
C250 C249 1.362 . S
C250 C253 1.409 . S
C251 H243 0.930 . S
C251 C252 1.355 . S
C251 C253 1.415 . S
C252 C251 1.355 . S
C252 C254 1.419 . S
C253 C248 1.425 . S
C253 C250 1.409 . S
C253 C251 1.415 . S
C254 H244 0.930 . S
C254 C252 1.419 . S
C254 C255 1.362 . S
C255 H245 0.930 . S
C255 C248 1.409 . S
C255 C254 1.362 . S
H256 C262 0.930 . S
H257 C265 0.930 . S
H258 C266 0.930 1_545 S
H259 C267 0.930 . S
H260 C270 0.930 . S
H261 C271 0.930 . S
C262 H256 0.930 . S
C262 C263 1.355 . S
C262 C264 1.415 . S
C263 C262 1.355 . S
C263 C265 1.419 1_565 S
C264 C262 1.415 . S
C264 C269 1.425 . S
C264 C271 1.409 . S
C265 H257 0.930 . S
C265 C263 1.419 1_545 S
C265 C266 1.362 1_545 S
C266 H258 0.930 1_565 S
C266 C265 1.362 1_565 S
C266 C269 1.409 . S
C267 H259 0.930 . S
C267 C268 1.355 . S
C267 C269 1.415 . S
C268 C267 1.355 . S
C268 C270 1.419 . S
C269 C264 1.425 . S
C269 C266 1.409 . S
C269 C267 1.415 . S
C270 H260 0.930 . S
C270 C268 1.419 . S
C270 C271 1.362 . S
C271 H261 0.930 . S
C271 C264 1.409 . S
C271 C270 1.362 . S
H272 C278 0.930 . S
H273 C281 0.930 . S
H274 C282 0.930 . S
H275 C283 0.930 . S
H276 C286 0.930 . S
H277 C287 0.930 . S
C278 H272 0.930 . S
C278 C279 1.355 1_556 S
C278 C280 1.414 . S
C279 C278 1.355 1_554 S
C279 C281 1.419 . S
C280 C278 1.414 . S
C280 C285 1.428 1_556 S
C280 C287 1.408 . S
C281 H273 0.930 . S
C281 C279 1.419 . S
C281 C282 1.362 . S
C282 H274 0.930 . S
C282 C281 1.362 . S
C282 C285 1.409 . S
C283 H275 0.930 . S
C283 C284 1.355 . S
C283 C285 1.415 . S
C284 C283 1.355 . S
C284 C286 1.419 1_554 S
C285 C280 1.428 1_554 S
C285 C282 1.409 . S
C285 C283 1.415 . S
C286 H276 0.930 . S
C286 C284 1.419 1_556 S
C286 C287 1.362 . S
C287 H277 0.930 . S
C287 C280 1.408 . S
C287 C286 1.362 . S
H288 C294 0.930 . S
H289 C297 0.930 . S
H290 C298 0.930 . S
H291 C299 0.930 . S
H292 C302 0.930 . S
H293 C303 0.930 . S
C294 H288 0.930 . S
C294 C295 1.355 . S
C294 C296 1.415 . S
C295 C294 1.355 . S
C295 C297 1.419 . S
C296 C294 1.415 . S
C296 C301 1.425 . S
C296 C303 1.409 . S
C297 H289 0.930 . S
C297 C295 1.419 . S
C297 C298 1.362 . S
C298 H290 0.930 . S
C298 C297 1.362 . S
C298 C301 1.409 . S
C299 H291 0.930 . S
C299 C300 1.355 . S
C299 C301 1.415 . S
C300 C299 1.355 . S
C300 C302 1.419 . S
C301 C296 1.425 . S
C301 C298 1.409 . S
C301 C299 1.415 . S
C302 H292 0.930 . S
C302 C300 1.419 . S
C302 C303 1.362 . S
C303 H293 0.930 . S
C303 C296 1.409 . S
C303 C302 1.362 . S
H304 C310 0.930 . S
H305 C313 0.930 . S
H306 C314 0.930 . S
H307 C315 0.930 . S
H308 C318 0.930 . S
H309 C319 0.930 . S
C310 H304 0.930 . S
C310 C311 1.355 . S
C310 C312 1.415 . S
C311 C310 1.355 . S
C311 C313 1.419 . S
C312 C310 1.415 . S
C312 C317 1.425 . S
C312 C319 1.409 . S
C313 H305 0.930 . S
C313 C311 1.419 . S
C313 C314 1.362 . S
C314 H306 0.930 . S
C314 C313 1.362 . S
C314 C317 1.409 . S
C315 H307 0.930 . S
C315 C316 1.355 . S
C315 C317 1.415 . S
C316 C315 1.355 . S
C316 C318 1.419 . S
C317 C312 1.425 . S
C317 C314 1.409 . S
C317 C315 1.415 . S
C318 H308 0.930 . S
C318 C316 1.419 . S
C318 C319 1.362 . S
C319 H309 0.930 . S
C319 C312 1.409 . S
C319 C318 1.362 . S
H320 C326 0.930 . S
H321 C329 0.930 . S
H322 C330 0.930 . S
H323 C331 0.930 . S
H324 C334 0.930 . S
H325 C335 0.930 . S
C326 H320 0.930 . S
C326 C327 1.355 . S
C326 C328 1.415 . S
C327 C326 1.355 . S
C327 C329 1.419 . S
C328 C326 1.415 . S
C328 C333 1.425 . S
C328 C335 1.409 . S
C329 H321 0.930 . S
C329 C327 1.419 . S
C329 C330 1.362 . S
C330 H322 0.930 . S
C330 C329 1.362 . S
C330 C333 1.409 . S
C331 H323 0.930 . S
C331 C332 1.355 . S
C331 C333 1.415 . S
C332 C331 1.355 . S
C332 C334 1.419 . S
C333 C328 1.425 . S
C333 C330 1.409 . S
C333 C331 1.415 . S
C334 H324 0.930 . S
C334 C332 1.419 . S
C334 C335 1.362 . S
C335 H325 0.930 . S
C335 C328 1.409 . S
C335 C334 1.362 . S
H336 C342 0.930 . S
H337 C345 0.930 . S
H338 C346 0.930 . S
H339 C347 0.930 1_554 S
H340 C350 0.930 . S
H341 C351 0.930 . S
C342 H336 0.930 . S
C342 C343 1.355 . S
C342 C344 1.415 . S
C343 C342 1.355 . S
C343 C345 1.419 . S
C344 C342 1.415 . S
C344 C349 1.425 . S
C344 C351 1.409 . S
C345 H337 0.930 . S
C345 C343 1.419 . S
C345 C346 1.362 . S
C346 H338 0.930 . S
C346 C345 1.362 . S
C346 C349 1.409 . S
C347 H339 0.930 1_556 S
C347 C348 1.355 . S
C347 C349 1.415 . S
C348 C347 1.355 . S
C348 C350 1.419 . S
C349 C344 1.425 . S
C349 C346 1.409 . S
C349 C347 1.415 . S
C350 H340 0.930 . S
C350 C348 1.419 . S
C350 C351 1.362 . S
C351 H341 0.930 . S
C351 C344 1.409 . S
C351 C350 1.362 . S
H352 C358 0.930 . S
H353 C361 0.930 . S
H354 C362 0.930 . S
H355 C363 0.930 . S
H356 C366 0.930 . S
H357 C367 0.930 . S
C358 H352 0.930 . S
C358 C359 1.355 . S
C358 C360 1.415 . S
C359 C358 1.355 . S
C359 C361 1.419 . S
C360 C358 1.415 . S
C360 C365 1.425 . S
C360 C367 1.409 . S
C361 H353 0.930 . S
C361 C359 1.419 . S
C361 C362 1.362 . S
C362 H354 0.930 . S
C362 C361 1.362 . S
C362 C365 1.409 . S
C363 H355 0.930 . S
C363 C364 1.355 . S
C363 C365 1.415 . S
C364 C363 1.355 . S
C364 C366 1.419 . S
C365 C360 1.425 . S
C365 C362 1.409 . S
C365 C363 1.415 . S
C366 H356 0.930 . S
C366 C364 1.419 . S
C366 C367 1.362 . S
C367 H357 0.930 . S
C367 C360 1.409 . S
C367 C366 1.362 . S
H368 C374 0.930 . S
H369 C377 0.930 . S
H370 C378 0.930 . S
H371 C379 0.930 . S
H372 C382 0.930 . S
H373 C383 0.930 . S
C374 H368 0.930 . S
C374 C375 1.355 . S
C374 C376 1.415 . S
C375 C374 1.355 . S
C375 C377 1.419 . S
C376 C374 1.415 . S
C376 C381 1.425 . S
C376 C383 1.409 . S
C377 H369 0.930 . S
C377 C375 1.419 . S
C377 C378 1.362 . S
C378 H370 0.930 . S
C378 C377 1.362 . S
C378 C381 1.409 . S
C379 H371 0.930 . S
C379 C380 1.355 . S
C379 C381 1.415 . S
C380 C379 1.355 . S
C380 C382 1.419 . S
C381 C376 1.425 . S
C381 C378 1.409 . S
C381 C379 1.415 . S
C382 H372 0.930 . S
C382 C380 1.419 . S
C382 C383 1.362 . S
C383 H373 0.930 . S
C383 C376 1.409 . S
C383 C382 1.362 . S
H384 C390 0.930 . S
H385 C393 0.930 . S
H386 C394 0.930 . S
H387 C395 0.930 . S
H388 C398 0.930 . S
H389 C399 0.930 . S
C390 H384 0.930 . S
C390 C391 1.355 . S
C390 C392 1.415 . S
C391 C390 1.355 . S
C391 C393 1.419 . S
C392 C390 1.415 . S
C392 C397 1.425 . S
C392 C399 1.409 . S
C393 H385 0.930 . S
C393 C391 1.419 . S
C393 C394 1.362 . S
C394 H386 0.930 . S
C394 C393 1.362 . S
C394 C397 1.409 . S
C395 H387 0.930 . S
C395 C396 1.355 . S
C395 C397 1.415 . S
C396 C395 1.355 . S
C396 C398 1.419 . S
C397 C392 1.425 . S
C397 C394 1.409 . S
C397 C395 1.415 . S
C398 H388 0.930 . S
C398 C396 1.419 . S
C398 C399 1.362 . S
C399 H389 0.930 . S
C399 C392 1.409 . S
C399 C398 1.362 . S
H400 C406 0.930 . S
H401 C409 0.930 . S
H402 C410 0.930 . S
H403 C411 0.930 . S
H404 C414 0.930 . S
H405 C415 0.930 . S
C406 H400 0.930 . S
C406 C407 1.355 . S
C406 C408 1.415 . S
C407 C406 1.355 . S
C407 C409 1.419 1_655 S
C408 C406 1.415 . S
C408 C413 1.425 . S
C408 C415 1.409 . S
C409 H401 0.930 . S
C409 C407 1.419 1_455 S
C409 C410 1.362 . S
C410 H402 0.930 . S
C410 C409 1.362 . S
C410 C413 1.409 1_455 S
C411 H403 0.930 . S
C411 C412 1.355 . S
C411 C413 1.415 . S
C412 C411 1.355 . S
C412 C414 1.419 . S
C413 C408 1.425 . S
C413 C410 1.409 1_655 S
C413 C411 1.415 . S
C414 H404 0.930 . S
C414 C412 1.419 . S
C414 C415 1.362 . S
C415 H405 0.930 . S
C415 C408 1.409 . S
C415 C414 1.362 . S
H416 C422 0.930 . S
H417 C425 0.930 . S
H418 C426 0.930 . S
H419 C427 0.930 . S
H420 C430 0.930 . S
H421 C431 0.930 . S
C422 H416 0.930 . S
C422 C423 1.355 . S
C422 C424 1.415 . S
C423 C422 1.355 . S
C423 C425 1.419 . S
C424 C422 1.415 . S
C424 C429 1.425 . S
C424 C431 1.409 . S
C425 H417 0.930 . S
C425 C423 1.419 . S
C425 C426 1.362 . S
C426 H418 0.930 . S
C426 C425 1.362 . S
C426 C429 1.409 . S
C427 H419 0.930 . S
C427 C428 1.355 . S
C427 C429 1.415 . S
C428 C427 1.355 . S
C428 C430 1.419 . S
C429 C424 1.425 . S
C429 C426 1.409 . S
C429 C427 1.415 . S
C430 H420 0.930 . S
C430 C428 1.419 . S
C430 C431 1.362 . S
C431 H421 0.930 . S
C431 C424 1.409 . S
C431 C430 1.362 . S
H432 C438 0.930 . S
H433 C441 0.930 . S
H434 C442 0.930 . S
H435 C443 0.930 . S
H436 C446 0.930 . S
H437 C447 0.930 . S
C438 H432 0.930 . S
C438 C439 1.355 . S
C438 C440 1.415 . S
C439 C438 1.355 . S
C439 C441 1.419 . S
C440 C438 1.415 . S
C440 C445 1.425 . S
C440 C447 1.409 . S
C441 H433 0.930 . S
C441 C439 1.419 . S
C441 C442 1.362 . S
C442 H434 0.930 . S
C442 C441 1.362 . S
C442 C445 1.409 . S
C443 H435 0.930 . S
C443 C444 1.355 . S
C443 C445 1.415 . S
C444 C443 1.355 . S
C444 C446 1.419 . S
C445 C440 1.425 . S
C445 C442 1.409 . S
C445 C443 1.415 . S
C446 H436 0.930 . S
C446 C444 1.419 . S
C446 C447 1.362 . S
C447 H437 0.930 . S
C447 C440 1.409 . S
C447 C446 1.362 . S
H448 C454 0.930 . S
H449 C457 0.930 . S
H450 C458 0.930 . S
H451 C459 0.930 . S
H452 C462 0.930 . S
H453 C463 0.930 . S
C454 H448 0.930 . S
C454 C455 1.355 . S
C454 C456 1.415 . S
C455 C454 1.355 . S
C455 C457 1.419 . S
C456 C454 1.415 . S
C456 C461 1.425 . S
C456 C463 1.409 . S
C457 H449 0.930 . S
C457 C455 1.419 . S
C457 C458 1.362 . S
C458 H450 0.930 . S
C458 C457 1.362 . S
C458 C461 1.409 . S
C459 H451 0.930 . S
C459 C460 1.355 . S
C459 C461 1.415 . S
C460 C459 1.355 . S
C460 C462 1.419 . S
C461 C456 1.425 . S
C461 C458 1.409 . S
C461 C459 1.415 . S
C462 H452 0.930 . S
C462 C460 1.419 . S
C462 C463 1.362 . S
C463 H453 0.930 . S
C463 C456 1.409 . S
C463 C462 1.362 . S
H464 C470 0.930 . S
H465 C473 0.930 . S
H466 C474 0.930 . S
H467 C475 0.930 . S
H468 C478 0.930 . S
H469 C479 0.930 . S
C470 H464 0.930 . S
C470 C471 1.355 . S
C470 C472 1.415 . S
C471 C470 1.355 . S
C471 C473 1.419 . S
C472 C470 1.415 . S
C472 C477 1.425 . S
C472 C479 1.409 . S
C473 H465 0.930 . S
C473 C471 1.419 . S
C473 C474 1.362 . S
C474 H466 0.930 . S
C474 C473 1.362 . S
C474 C477 1.409 . S
C475 H467 0.930 . S
C475 C476 1.355 . S
C475 C477 1.415 . S
C476 C475 1.355 . S
C476 C478 1.419 . S
C477 C472 1.425 . S
C477 C474 1.409 . S
C477 C475 1.415 . S
C478 H468 0.930 . S
C478 C476 1.419 . S
C478 C479 1.362 . S
C479 H469 0.930 . S
C479 C472 1.409 . S
C479 C478 1.362 . S
H480 C486 0.930 . S
H481 C489 0.930 . S
H482 C490 0.930 . S
H483 C491 0.930 . S
H484 C494 0.930 . S
H485 C495 0.930 . S
C486 H480 0.930 . S
C486 C487 1.355 . S
C486 C488 1.415 . S
C487 C486 1.355 . S
C487 C489 1.419 . S
C488 C486 1.415 . S
C488 C493 1.425 . S
C488 C495 1.409 1_554 S
C489 H481 0.930 . S
C489 C487 1.419 . S
C489 C490 1.362 . S
C490 H482 0.930 . S
C490 C489 1.362 . S
C490 C493 1.409 . S
C491 H483 0.930 . S
C491 C492 1.355 . S
C491 C493 1.415 1_556 S
C492 C491 1.355 . S
C492 C494 1.419 . S
C493 C488 1.425 . S
C493 C490 1.409 . S
C493 C491 1.415 1_554 S
C494 H484 0.930 . S
C494 C492 1.419 . S
C494 C495 1.362 . S
C495 H485 0.930 . S
C495 C488 1.409 1_556 S
C495 C494 1.362 . S
H496 C502 0.930 . S
H497 C505 0.930 . S
H498 C506 0.930 . S
H499 C507 0.930 . S
H500 C510 0.930 . S
H501 C511 0.930 . S
C502 H496 0.930 . S
C502 C503 1.355 . S
C502 C504 1.415 . S
C503 C502 1.355 . S
C503 C505 1.419 . S
C504 C502 1.415 . S
C504 C509 1.425 . S
C504 C511 1.409 . S
C505 H497 0.930 . S
C505 C503 1.419 . S
C505 C506 1.362 . S
C506 H498 0.930 . S
C506 C505 1.362 . S
C506 C509 1.409 . S
C507 H499 0.930 . S
C507 C508 1.355 . S
C507 C509 1.415 . S
C508 C507 1.355 . S
C508 C510 1.419 . S
C509 C504 1.425 . S
C509 C506 1.409 . S
C509 C507 1.415 . S
C510 H500 0.930 . S
C510 C508 1.419 . S
C510 C511 1.362 . S
C511 H501 0.930 . S
C511 C504 1.409 . S
C511 C510 1.362 . S
H512 C518 0.930 . S
H513 C521 0.930 . S
H514 C522 0.930 . S
H515 C523 0.930 . S
H516 C526 0.930 . S
H517 C527 0.930 . S
C518 H512 0.930 . S
C518 C519 1.355 . S
C518 C520 1.415 1_554 S
C519 C518 1.355 . S
C519 C521 1.419 . S
C520 C518 1.415 1_556 S
C520 C525 1.425 . S
C520 C527 1.409 . S
C521 H513 0.930 . S
C521 C519 1.419 . S
C521 C522 1.362 1_554 S
C522 H514 0.930 . S
C522 C521 1.362 1_556 S
C522 C525 1.409 . S
C523 H515 0.930 . S
C523 C524 1.355 . S
C523 C525 1.415 . S
C524 C523 1.355 . S
C524 C526 1.419 . S
C525 C520 1.425 . S
C525 C522 1.409 . S
C525 C523 1.415 . S
C526 H516 0.930 . S
C526 C524 1.419 . S
C526 C527 1.362 . S
C527 H517 0.930 . S
C527 C520 1.409 . S
C527 C526 1.362 . S
H528 C534 0.930 . S
H529 C537 0.930 . S
H530 C538 0.930 . S
H531 C539 0.930 . S
H532 C542 0.930 . S
H533 C543 0.930 . S
C534 H528 0.930 . S
C534 C535 1.355 . S
C534 C536 1.415 . S
C535 C534 1.355 . S
C535 C537 1.419 . S
C536 C534 1.415 . S
C536 C541 1.425 . S
C536 C543 1.409 . S
C537 H529 0.930 . S
C537 C535 1.419 . S
C537 C538 1.362 . S
C538 H530 0.930 . S
C538 C537 1.362 . S
C538 C541 1.409 . S
C539 H531 0.930 . S
C539 C540 1.355 . S
C539 C541 1.415 . S
C540 C539 1.355 . S
C540 C542 1.419 . S
C541 C536 1.425 . S
C541 C538 1.409 . S
C541 C539 1.415 . S
C542 H532 0.930 . S
C542 C540 1.419 . S
C542 C543 1.362 . S
C543 H533 0.930 . S
C543 C536 1.409 . S
C543 C542 1.362 . S
H544 C550 0.930 . S
H545 C553 0.930 . S
H546 C554 0.930 . S
H547 C555 0.930 . S
H548 C558 0.930 . S
H549 C559 0.930 . S
C550 H544 0.930 . S
C550 C551 1.355 . S
C550 C552 1.415 . S
C551 C550 1.355 . S
C551 C553 1.419 . S
C552 C550 1.415 . S
C552 C557 1.425 . S
C552 C559 1.409 . S
C553 H545 0.930 . S
C553 C551 1.419 . S
C553 C554 1.362 . S
C554 H546 0.930 . S
C554 C553 1.362 . S
C554 C557 1.409 . S
C555 H547 0.930 . S
C555 C556 1.355 . S
C555 C557 1.415 . S
C556 C555 1.355 . S
C556 C558 1.419 . S
C557 C552 1.425 . S
C557 C554 1.409 . S
C557 C555 1.415 . S
C558 H548 0.930 . S
C558 C556 1.419 . S
C558 C559 1.362 . S
C559 H549 0.930 . S
C559 C552 1.409 . S
C559 C558 1.362 . S
H560 C566 0.930 . S
H561 C569 0.930 . S
H562 C570 0.930 . S
H563 C571 0.930 . S
H564 C574 0.930 . S
H565 C575 0.930 . S
C566 H560 0.930 . S
C566 C567 1.355 . S
C566 C568 1.415 . S
C567 C566 1.355 . S
C567 C569 1.419 . S
C568 C566 1.415 . S
C568 C573 1.425 . S
C568 C575 1.409 . S
C569 H561 0.930 . S
C569 C567 1.419 . S
C569 C570 1.362 . S
C570 H562 0.930 . S
C570 C569 1.362 . S
C570 C573 1.409 . S
C571 H563 0.930 . S
C571 C572 1.355 . S
C571 C573 1.415 . S
C572 C571 1.355 . S
C572 C574 1.419 . S
C573 C568 1.425 . S
C573 C570 1.409 . S
C573 C571 1.415 . S
C574 H564 0.930 . S
C574 C572 1.419 . S
C574 C575 1.362 . S
C575 H565 0.930 . S
C575 C568 1.409 . S
C575 C574 1.362 . S
H576 C582 0.930 . S
H577 C585 0.930 . S
H578 C586 0.930 . S
H579 C587 0.930 . S
H580 C590 0.930 . S
H581 C591 0.930 . S
C582 H576 0.930 . S
C582 C583 1.355 . S
C582 C584 1.415 . S
C583 C582 1.355 . S
C583 C585 1.419 . S
C584 C582 1.415 . S
C584 C589 1.425 . S
C584 C591 1.409 . S
C585 H577 0.930 . S
C585 C583 1.419 . S
C585 C586 1.362 . S
C586 H578 0.930 . S
C586 C585 1.362 . S
C586 C589 1.409 . S
C587 H579 0.930 . S
C587 C588 1.355 . S
C587 C589 1.415 1_565 S
C588 C587 1.355 . S
C588 C590 1.419 . S
C589 C584 1.425 . S
C589 C586 1.409 . S
C589 C587 1.415 1_545 S
C590 H580 0.930 . S
C590 C588 1.419 . S
C590 C591 1.362 1_565 S
C591 H581 0.930 . S
C591 C584 1.409 . S
C591 C590 1.362 1_545 S
H592 C598 0.930 . S
H593 C601 0.930 . S
H594 C602 0.930 . S
H595 C603 0.930 . S
H596 C606 0.930 . S
H597 C607 0.930 . S
C598 H592 0.930 . S
C598 C599 1.355 . S
C598 C600 1.415 . S
C599 C598 1.355 . S
C599 C601 1.419 . S
C600 C598 1.415 . S
C600 C605 1.425 . S
C600 C607 1.409 . S
C601 H593 0.930 . S
C601 C599 1.419 . S
C601 C602 1.362 . S
C602 H594 0.930 . S
C602 C601 1.362 . S
C602 C605 1.409 . S
C603 H595 0.930 . S
C603 C604 1.355 . S
C603 C605 1.415 . S
C604 C603 1.355 . S
C604 C606 1.419 . S
C605 C600 1.425 . S
C605 C602 1.409 . S
C605 C603 1.415 . S
C606 H596 0.930 . S
C606 C604 1.419 . S
C606 C607 1.362 . S
C607 H597 0.930 . S
C607 C600 1.409 . S
C607 C606 1.362 . S
H608 C614 0.930 . S
H609 C617 0.930 . S
H610 C618 0.930 . S
H611 C619 0.930 . S
H612 C622 0.930 . S
H613 C623 0.930 1_545 S
C614 H608 0.930 . S
C614 C615 1.355 . S
C614 C616 1.415 . S
C615 C614 1.355 . S
C615 C617 1.419 . S
C616 C614 1.415 . S
C616 C621 1.425 1_545 S
C616 C623 1.409 1_545 S
C617 H609 0.930 . S
C617 C615 1.419 . S
C617 C618 1.362 1_545 S
C618 H610 0.930 . S
C618 C617 1.362 1_565 S
C618 C621 1.409 . S
C619 H611 0.930 . S
C619 C620 1.355 . S
C619 C621 1.415 . S
C620 C619 1.355 . S
C620 C622 1.419 . S
C621 C616 1.425 1_565 S
C621 C618 1.409 . S
C621 C619 1.415 . S
C622 H612 0.930 . S
C622 C620 1.419 . S
C622 C623 1.362 . S
C623 H613 0.930 1_565 S
C623 C616 1.409 1_565 S
C623 C622 1.362 . S
H624 C630 0.930 . S
H625 C633 0.930 . S
H626 C634 0.930 . S
H627 C635 0.930 . S
H628 C638 0.930 . S
H629 C639 0.930 . S
C630 H624 0.930 . S
C630 C631 1.355 . S
C630 C632 1.415 . S
C631 C630 1.355 . S
C631 C633 1.419 . S
C632 C630 1.415 . S
C632 C637 1.425 . S
C632 C639 1.409 . S
C633 H625 0.930 . S
C633 C631 1.419 . S
C633 C634 1.362 . S
C634 H626 0.930 . S
C634 C633 1.362 . S
C634 C637 1.409 . S
C635 H627 0.930 . S
C635 C636 1.355 . S
C635 C637 1.415 . S
C636 C635 1.355 . S
C636 C638 1.419 . S
C637 C632 1.425 . S
C637 C634 1.409 . S
C637 C635 1.415 . S
C638 H628 0.930 . S
C638 C636 1.419 . S
C638 C639 1.362 . S
C639 H629 0.930 . S
C639 C632 1.409 . S
C639 C638 1.362 . S
H640 C646 0.930 . S
H641 C649 0.930 . S
H642 C650 0.930 . S
H643 C651 0.930 . S
H644 C654 0.930 . S
H645 C655 0.930 . S
C646 H640 0.930 . S
C646 C647 1.355 . S
C646 C648 1.415 . S
C647 C646 1.355 . S
C647 C649 1.419 . S
C648 C646 1.415 . S
C648 C653 1.425 . S
C648 C655 1.409 . S
C649 H641 0.930 . S
C649 C647 1.419 . S
C649 C650 1.362 . S
C650 H642 0.930 . S
C650 C649 1.362 . S
C650 C653 1.409 . S
C651 H643 0.930 . S
C651 C652 1.355 . S
C651 C653 1.415 . S
C652 C651 1.355 . S
C652 C654 1.419 . S
C653 C648 1.425 . S
C653 C650 1.409 . S
C653 C651 1.415 . S
C654 H644 0.930 . S
C654 C652 1.419 . S
C654 C655 1.362 . S
C655 H645 0.930 . S
C655 C648 1.409 . S
C655 C654 1.362 . S
H656 C662 0.930 . S
H657 C665 0.930 . S
H658 C666 0.930 . S
H659 C667 0.930 . S
H660 C670 0.930 . S
H661 C671 0.930 . S
C662 H656 0.930 . S
C662 C663 1.355 . S
C662 C664 1.415 . S
C663 C662 1.355 . S
C663 C665 1.419 . S
C664 C662 1.415 . S
C664 C669 1.425 . S
C664 C671 1.409 . S
C665 H657 0.930 . S
C665 C663 1.419 . S
C665 C666 1.362 . S
C666 H658 0.930 . S
C666 C665 1.362 . S
C666 C669 1.409 . S
C667 H659 0.930 . S
C667 C668 1.355 . S
C667 C669 1.415 . S
C668 C667 1.355 . S
C668 C670 1.419 . S
C669 C664 1.425 . S
C669 C666 1.409 . S
C669 C667 1.415 . S
C670 H660 0.930 . S
C670 C668 1.419 . S
C670 C671 1.362 . S
C671 H661 0.930 . S
C671 C664 1.409 . S
C671 C670 1.362 . S
H672 C678 0.930 . S
H673 C681 0.930 . S
H674 C682 0.930 . S
H675 C683 0.930 . S
H676 C686 0.930 . S
H677 C687 0.930 . S
C678 H672 0.930 . S
C678 C679 1.355 . S
C678 C680 1.415 . S
C679 C678 1.355 . S
C679 C681 1.419 . S
C680 C678 1.415 . S
C680 C685 1.425 . S
C680 C687 1.409 . S
C681 H673 0.930 . S
C681 C679 1.419 . S
C681 C682 1.362 . S
C682 H674 0.930 . S
C682 C681 1.362 . S
C682 C685 1.409 . S
C683 H675 0.930 . S
C683 C684 1.355 . S
C683 C685 1.415 . S
C684 C683 1.355 . S
C684 C686 1.419 . S
C685 C680 1.425 . S
C685 C682 1.409 . S
C685 C683 1.415 . S
C686 H676 0.930 . S
C686 C684 1.419 . S
C686 C687 1.362 . S
C687 H677 0.930 . S
C687 C680 1.409 . S
C687 C686 1.362 . S
H688 C694 0.930 . S
H689 C697 0.930 . S
H690 C698 0.930 . S
H691 C699 0.930 . S
H692 C702 0.930 . S
H693 C703 0.930 . S
C694 H688 0.930 . S
C694 C695 1.355 . S
C694 C696 1.415 . S
C695 C694 1.355 . S
C695 C697 1.419 . S
C696 C694 1.415 . S
C696 C701 1.425 . S
C696 C703 1.409 . S
C697 H689 0.930 . S
C697 C695 1.419 . S
C697 C698 1.362 . S
C698 H690 0.930 . S
C698 C697 1.362 . S
C698 C701 1.409 . S
C699 H691 0.930 . S
C699 C700 1.355 . S
C699 C701 1.415 . S
C700 C699 1.355 . S
C700 C702 1.419 . S
C701 C696 1.425 . S
C701 C698 1.409 . S
C701 C699 1.415 . S
C702 H692 0.930 . S
C702 C700 1.419 . S
C702 C703 1.362 . S
C703 H693 0.930 . S
C703 C696 1.409 . S
C703 C702 1.362 . S
H704 C710 0.930 . S
H705 C713 0.930 . S
H706 C714 0.930 . S
H707 C715 0.930 . S
H708 C718 0.930 . S
H709 C719 0.930 . S
C710 H704 0.930 . S
C710 C711 1.355 . S
C710 C712 1.415 . S
C711 C710 1.355 . S
C711 C713 1.419 . S
C712 C710 1.415 . S
C712 C717 1.425 . S
C712 C719 1.409 . S
C713 H705 0.930 . S
C713 C711 1.419 . S
C713 C714 1.362 . S
C714 H706 0.930 . S
C714 C713 1.362 . S
C714 C717 1.409 . S
C715 H707 0.930 . S
C715 C716 1.355 . S
C715 C717 1.415 . S
C716 C715 1.355 . S
C716 C718 1.419 . S
C717 C712 1.425 . S
C717 C714 1.409 . S
C717 C715 1.415 . S
C718 H708 0.930 . S
C718 C716 1.419 . S
C718 C719 1.362 . S
C719 H709 0.930 . S
C719 C712 1.409 . S
C719 C718 1.362 . S
H720 C726 0.930 . S
H721 C729 0.930 . S
H722 C730 0.930 . S
H723 C731 0.930 . S
H724 C734 0.938 . S
H725 C735 0.930 . S
C726 H720 0.930 . S
C726 C727 1.355 . S
C726 C728 1.415 . S
C727 C726 1.355 . S
C727 C729 1.419 . S
C728 C726 1.415 . S
C728 C733 1.425 . S
C728 C735 1.409 . S
C729 H721 0.930 . S
C729 C727 1.419 . S
C729 C730 1.362 . S
C730 H722 0.930 . S
C730 C729 1.362 . S
C730 C733 1.409 . S
C731 H723 0.930 . S
C731 C732 1.355 . S
C731 C733 1.415 1_655 S
C732 C731 1.355 . S
C732 C734 1.435 . S
C733 C728 1.425 . S
C733 C730 1.409 . S
C733 C731 1.415 1_455 S
C734 H724 0.938 . S
C734 C732 1.435 . S
C734 C735 1.338 1_655 S
C735 H725 0.930 . S
C735 C728 1.409 . S
C735 C734 1.338 1_455 S
H736 C742 0.930 . S
H737 C745 0.930 . S
H738 C746 0.930 . S
H739 C747 0.930 . S
H740 C750 0.930 . S
H741 C751 0.930 . S
C742 H736 0.930 . S
C742 C743 1.355 . S
C742 C744 1.415 . S
C743 C742 1.355 . S
C743 C745 1.419 . S
C744 C742 1.415 . S
C744 C749 1.425 . S
C744 C751 1.409 . S
C745 H737 0.930 . S
C745 C743 1.419 . S
C745 C746 1.362 . S
C746 H738 0.930 . S
C746 C745 1.362 . S
C746 C749 1.409 . S
C747 H739 0.930 . S
C747 C748 1.355 . S
C747 C749 1.415 . S
C748 C747 1.355 . S
C748 C750 1.419 . S
C749 C744 1.425 . S
C749 C746 1.409 . S
C749 C747 1.415 . S
C750 H740 0.930 . S
C750 C748 1.419 . S
C750 C751 1.362 . S
C751 H741 0.930 . S
C751 C744 1.409 . S
C751 C750 1.362 . S
H752 C758 0.930 . S
H753 C761 0.930 . S
H754 C762 0.930 . S
H755 C763 0.930 . S
H756 C766 0.930 . S
H757 C767 0.930 . S
C758 H752 0.930 . S
C758 C759 1.355 . S
C758 C760 1.415 . S
C759 C758 1.355 . S
C759 C761 1.419 . S
C760 C758 1.415 . S
C760 C765 1.425 . S
C760 C767 1.409 . S
C761 H753 0.930 . S
C761 C759 1.419 . S
C761 C762 1.362 . S
C762 H754 0.930 . S
C762 C761 1.362 . S
C762 C765 1.409 . S
C763 H755 0.930 . S
C763 C764 1.355 . S
C763 C765 1.415 . S
C764 C763 1.355 . S
C764 C766 1.419 . S
C765 C760 1.425 . S
C765 C762 1.409 . S
C765 C763 1.415 . S
C766 H756 0.930 . S
C766 C764 1.419 . S
C766 C767 1.362 . S
C767 H757 0.930 . S
C767 C760 1.409 . S
C767 C766 1.362 . S
H768 C774 0.930 . S
H769 C777 0.930 . S
H770 C778 0.930 . S
H771 C779 0.930 . S
H772 C782 0.930 . S
H773 C783 0.930 . S
C774 H768 0.930 . S
C774 C775 1.355 . S
C774 C776 1.415 . S
C775 C774 1.355 . S
C775 C777 1.419 . S
C776 C774 1.415 . S
C776 C781 1.425 . S
C776 C783 1.409 . S
C777 H769 0.930 . S
C777 C775 1.419 . S
C777 C778 1.362 . S
C778 H770 0.930 . S
C778 C777 1.362 . S
C778 C781 1.409 . S
C779 H771 0.930 . S
C779 C780 1.355 . S
C779 C781 1.415 . S
C780 C779 1.355 . S
C780 C782 1.419 . S
C781 C776 1.425 . S
C781 C778 1.409 . S
C781 C779 1.415 . S
C782 H772 0.930 . S
C782 C780 1.419 . S
C782 C783 1.362 . S
C783 H773 0.930 . S
C783 C776 1.409 . S
C783 C782 1.362 . S
H784 C790 0.930 . S
H785 C793 0.930 . S
H786 C794 0.930 . S
H787 C795 0.930 . S
H788 C798 0.930 . S
H789 C799 0.930 . S
C790 H784 0.930 . S
C790 C791 1.355 . S
C790 C792 1.415 . S
C791 C790 1.355 . S
C791 C793 1.419 . S
C792 C790 1.415 . S
C792 C797 1.425 . S
C792 C799 1.409 . S
C793 H785 0.930 . S
C793 C791 1.419 . S
C793 C794 1.362 . S
C794 H786 0.930 . S
C794 C793 1.362 . S
C794 C797 1.409 . S
C795 H787 0.930 . S
C795 C796 1.355 . S
C795 C797 1.415 . S
C796 C795 1.355 . S
C796 C798 1.419 . S
C797 C792 1.425 . S
C797 C794 1.409 . S
C797 C795 1.415 . S
C798 H788 0.930 . S
C798 C796 1.419 . S
C798 C799 1.362 . S
C799 H789 0.930 . S
C799 C792 1.409 . S
C799 C798 1.362 . S
H800 C806 0.930 . S
H801 C809 0.930 . S
H802 C810 0.930 . S
H803 C811 0.930 . S
H804 C814 0.930 . S
H805 C815 0.930 1_655 S
C806 H800 0.930 . S
C806 C807 1.355 . S
C806 C808 1.415 . S
C807 C806 1.355 . S
C807 C809 1.419 . S
C808 C806 1.415 . S
C808 C813 1.425 . S
C808 C815 1.403 1_655 S
C809 H801 0.930 . S
C809 C807 1.419 . S
C809 C810 1.362 . S
C810 H802 0.930 . S
C810 C809 1.362 . S
C810 C813 1.409 . S
C811 H803 0.930 . S
C811 C812 1.355 . S
C811 C813 1.415 1_455 S
C812 C811 1.355 . S
C812 C814 1.419 . S
C813 C808 1.425 . S
C813 C810 1.409 . S
C813 C811 1.415 1_655 S
C814 H804 0.930 . S
C814 C812 1.419 . S
C814 C815 1.369 . S
C815 H805 0.930 1_455 S
C815 C808 1.403 1_455 S
C815 C814 1.369 . S
C247 C9 1.373 . S
C252 C229 1.370 . S
C263 C199 1.516 1_565 S
C268 C29 1.549 . S
C279 C59 1.337 1_554 S
C284 C179 1.380 . S
C295 C69 1.817 . S
C300 C209 1.804 . S
C311 C89 1.589 . S
C316 C219 1.506 . S
C327 C119 1.312 . S
C332 C239 1.275 . S
C343 C189 1.677 . S
C348 C129 1.658 . S
C359 C159 1.447 . S
C364 C169 1.593 . S
C375 C79 1.645 . S
C380 C99 1.674 . S
C391 C19 1.503 . S
C396 C109 1.565 . S
C407 C39 1.422 . S
C412 C139 1.338 . S
C423 C149 1.706 . S
C428 C49 1.731 . S
C439 C2 1.620 . S
C444 C178 1.616 . S
C455 C22 1.538 . S
C460 C208 1.501 . S
C471 C228 1.557 . S
C476 C41 1.526 . S
C487 C62 1.416 . S
C492 C198 1.379 . S
C503 C82 1.333 . S
C508 C188 1.322 . S
C519 C168 1.269 . S
C524 C101 1.272 . S
C535 C218 1.290 . S
C540 C122 1.279 . S
C551 C238 2.083 . S
C556 C141 1.957 . S
C567 C18 1.674 . S
C572 C61 1.562 . S
C583 C1 1.549 . S
C588 C38 1.647 . S
C599 C21 1.346 . S
C604 C48 1.360 . S
C615 C78 1.354 . S
C620 C42 1.390 . S
C631 C102 1.368 . S
C636 C98 1.397 . S
C647 C108 1.579 . S
C652 C121 1.601 . S
C663 C138 1.529 . S
C668 C142 1.559 . S
C679 C81 1.226 . S
C684 C148 1.203 . S
C695 C162 0.816 . S
C700 C68 0.817 . S
C711 C118 1.371 . S
C716 C181 1.270 . S
C727 C161 1.265 . S
C732 C128 1.276 . S
C743 C202 1.571 . S
C748 C158 1.548 . S
C759 C88 1.207 . S
C764 C222 1.204 . S
C775 C221 1.503 . S
C780 C28 1.525 . S
C791 C58 1.449 . S
C796 C182 1.491 . S
C807 C201 1.526 . S
C812 C8 1.524 . S
