# Generated by pormake.
# Topology ulj, (4)-cn, num edge types: 1
# Building blocks:
#     Node 0, Type 0, BuildingBlock: NAWXER_clean_sbu_0, # of connection points: 4
#     Node 1, Type 0, BuildingBlock: NAWXER_clean_sbu_0, # of connection points: 4
#     Node 2, Type 0, BuildingBlock: NAWXER_clean_sbu_0, # of connection points: 4
#     Node 3, Type 0, BuildingBlock: NAWXER_clean_sbu_0, # of connection points: 4
#     Node 4, Type 0, BuildingBlock: NAWXER_clean_sbu_0, # of connection points: 4
#     Node 5, Type 0, BuildingBlock: NAWXER_clean_sbu_0, # of connection points: 4
#     Node 6, Type 0, BuildingBlock: NAWXER_clean_sbu_0, # of connection points: 4
#     Node 7, Type 0, BuildingBlock: NAWXER_clean_sbu_0, # of connection points: 4
#     Node 8, Type 0, BuildingBlock: NAWXER_clean_sbu_0, # of connection points: 4
#     Node 9, Type 0, BuildingBlock: NAWXER_clean_sbu_0, # of connection points: 4
#     Node 10, Type 0, BuildingBlock: NAWXER_clean_sbu_0, # of connection points: 4
#     Node 11, Type 0, BuildingBlock: NAWXER_clean_sbu_0, # of connection points: 4
#     Node 12, Type 0, BuildingBlock: NAWXER_clean_sbu_0, # of connection points: 4
#     Node 13, Type 0, BuildingBlock: NAWXER_clean_sbu_0, # of connection points: 4
#     Node 14, Type 0, BuildingBlock: NAWXER_clean_sbu_0, # of connection points: 4
#     Node 15, Type 0, BuildingBlock: NAWXER_clean_sbu_0, # of connection points: 4
#     Node 16, Type 0, BuildingBlock: NAWXER_clean_sbu_0, # of connection points: 4
#     Node 17, Type 0, BuildingBlock: NAWXER_clean_sbu_0, # of connection points: 4
#     Node 18, Type 0, BuildingBlock: NAWXER_clean_sbu_0, # of connection points: 4
#     Node 19, Type 0, BuildingBlock: NAWXER_clean_sbu_0, # of connection points: 4
#     Node 20, Type 0, BuildingBlock: NAWXER_clean_sbu_0, # of connection points: 4
#     Node 21, Type 0, BuildingBlock: NAWXER_clean_sbu_0, # of connection points: 4
#     Node 22, Type 0, BuildingBlock: NAWXER_clean_sbu_0, # of connection points: 4
#     Node 23, Type 0, BuildingBlock: NAWXER_clean_sbu_0, # of connection points: 4
#     Node 24, Type 0, BuildingBlock: NAWXER_clean_sbu_0, # of connection points: 4
#     Node 25, Type 0, BuildingBlock: NAWXER_clean_sbu_0, # of connection points: 4
#     Node 26, Type 0, BuildingBlock: NAWXER_clean_sbu_0, # of connection points: 4
#     Node 27, Type 0, BuildingBlock: NAWXER_clean_sbu_0, # of connection points: 4
#     Node 28, Type 0, BuildingBlock: NAWXER_clean_sbu_0, # of connection points: 4
#     Node 29, Type 0, BuildingBlock: NAWXER_clean_sbu_0, # of connection points: 4
#     Node 30, Type 0, BuildingBlock: NAWXER_clean_sbu_0, # of connection points: 4
#     Node 31, Type 0, BuildingBlock: NAWXER_clean_sbu_0, # of connection points: 4
#     Node 32, Type 0, BuildingBlock: NAWXER_clean_sbu_0, # of connection points: 4
#     Node 33, Type 0, BuildingBlock: NAWXER_clean_sbu_0, # of connection points: 4
#     Node 34, Type 0, BuildingBlock: NAWXER_clean_sbu_0, # of connection points: 4
#     Node 35, Type 0, BuildingBlock: NAWXER_clean_sbu_0, # of connection points: 4
#     Node 36, Type 0, BuildingBlock: NAWXER_clean_sbu_0, # of connection points: 4
#     Node 37, Type 0, BuildingBlock: NAWXER_clean_sbu_0, # of connection points: 4
#     Node 38, Type 0, BuildingBlock: NAWXER_clean_sbu_0, # of connection points: 4
#     Node 39, Type 0, BuildingBlock: NAWXER_clean_sbu_0, # of connection points: 4
#     Node 40, Type 0, BuildingBlock: NAWXER_clean_sbu_0, # of connection points: 4
#     Node 41, Type 0, BuildingBlock: NAWXER_clean_sbu_0, # of connection points: 4
#     Node 42, Type 0, BuildingBlock: NAWXER_clean_sbu_0, # of connection points: 4
#     Node 43, Type 0, BuildingBlock: NAWXER_clean_sbu_0, # of connection points: 4
#     Node 44, Type 0, BuildingBlock: NAWXER_clean_sbu_0, # of connection points: 4
#     Node 45, Type 0, BuildingBlock: NAWXER_clean_sbu_0, # of connection points: 4
#     Node 46, Type 0, BuildingBlock: NAWXER_clean_sbu_0, # of connection points: 4
#     Node 47, Type 0, BuildingBlock: NAWXER_clean_sbu_0, # of connection points: 4
#     Edge 48, Type (0, 0), BuildingBlock: CIFDUS_clean_linker_0, # of connection points: 2
#     Edge 49, Type (0, 0), BuildingBlock: CIFDUS_clean_linker_0, # of connection points: 2
#     Edge 50, Type (0, 0), BuildingBlock: CIFDUS_clean_linker_0, # of connection points: 2
#     Edge 51, Type (0, 0), BuildingBlock: CIFDUS_clean_linker_0, # of connection points: 2
#     Edge 52, Type (0, 0), BuildingBlock: CIFDUS_clean_linker_0, # of connection points: 2
#     Edge 53, Type (0, 0), BuildingBlock: CIFDUS_clean_linker_0, # of connection points: 2
#     Edge 54, Type (0, 0), BuildingBlock: CIFDUS_clean_linker_0, # of connection points: 2
#     Edge 55, Type (0, 0), BuildingBlock: CIFDUS_clean_linker_0, # of connection points: 2
#     Edge 56, Type (0, 0), BuildingBlock: CIFDUS_clean_linker_0, # of connection points: 2
#     Edge 57, Type (0, 0), BuildingBlock: CIFDUS_clean_linker_0, # of connection points: 2
#     Edge 58, Type (0, 0), BuildingBlock: CIFDUS_clean_linker_0, # of connection points: 2
#     Edge 59, Type (0, 0), BuildingBlock: CIFDUS_clean_linker_0, # of connection points: 2
#     Edge 60, Type (0, 0), BuildingBlock: CIFDUS_clean_linker_0, # of connection points: 2
#     Edge 61, Type (0, 0), BuildingBlock: CIFDUS_clean_linker_0, # of connection points: 2
#     Edge 62, Type (0, 0), BuildingBlock: CIFDUS_clean_linker_0, # of connection points: 2
#     Edge 63, Type (0, 0), BuildingBlock: CIFDUS_clean_linker_0, # of connection points: 2
#     Edge 64, Type (0, 0), BuildingBlock: CIFDUS_clean_linker_0, # of connection points: 2
#     Edge 65, Type (0, 0), BuildingBlock: CIFDUS_clean_linker_0, # of connection points: 2
#     Edge 66, Type (0, 0), BuildingBlock: CIFDUS_clean_linker_0, # of connection points: 2
#     Edge 67, Type (0, 0), BuildingBlock: CIFDUS_clean_linker_0, # of connection points: 2
#     Edge 68, Type (0, 0), BuildingBlock: CIFDUS_clean_linker_0, # of connection points: 2
#     Edge 69, Type (0, 0), BuildingBlock: CIFDUS_clean_linker_0, # of connection points: 2
#     Edge 70, Type (0, 0), BuildingBlock: CIFDUS_clean_linker_0, # of connection points: 2
#     Edge 71, Type (0, 0), BuildingBlock: CIFDUS_clean_linker_0, # of connection points: 2
#     Edge 72, Type (0, 0), BuildingBlock: CIFDUS_clean_linker_0, # of connection points: 2
#     Edge 73, Type (0, 0), BuildingBlock: CIFDUS_clean_linker_0, # of connection points: 2
#     Edge 74, Type (0, 0), BuildingBlock: CIFDUS_clean_linker_0, # of connection points: 2
#     Edge 75, Type (0, 0), BuildingBlock: CIFDUS_clean_linker_0, # of connection points: 2
#     Edge 76, Type (0, 0), BuildingBlock: CIFDUS_clean_linker_0, # of connection points: 2
#     Edge 77, Type (0, 0), BuildingBlock: CIFDUS_clean_linker_0, # of connection points: 2
#     Edge 78, Type (0, 0), BuildingBlock: CIFDUS_clean_linker_0, # of connection points: 2
#     Edge 79, Type (0, 0), BuildingBlock: CIFDUS_clean_linker_0, # of connection points: 2
#     Edge 80, Type (0, 0), BuildingBlock: CIFDUS_clean_linker_0, # of connection points: 2
#     Edge 81, Type (0, 0), BuildingBlock: CIFDUS_clean_linker_0, # of connection points: 2
#     Edge 82, Type (0, 0), BuildingBlock: CIFDUS_clean_linker_0, # of connection points: 2
#     Edge 83, Type (0, 0), BuildingBlock: CIFDUS_clean_linker_0, # of connection points: 2
#     Edge 84, Type (0, 0), BuildingBlock: CIFDUS_clean_linker_0, # of connection points: 2
#     Edge 85, Type (0, 0), BuildingBlock: CIFDUS_clean_linker_0, # of connection points: 2
#     Edge 86, Type (0, 0), BuildingBlock: CIFDUS_clean_linker_0, # of connection points: 2
#     Edge 87, Type (0, 0), BuildingBlock: CIFDUS_clean_linker_0, # of connection points: 2
#     Edge 88, Type (0, 0), BuildingBlock: CIFDUS_clean_linker_0, # of connection points: 2
#     Edge 89, Type (0, 0), BuildingBlock: CIFDUS_clean_linker_0, # of connection points: 2
#     Edge 90, Type (0, 0), BuildingBlock: CIFDUS_clean_linker_0, # of connection points: 2
#     Edge 91, Type (0, 0), BuildingBlock: CIFDUS_clean_linker_0, # of connection points: 2
#     Edge 92, Type (0, 0), BuildingBlock: CIFDUS_clean_linker_0, # of connection points: 2
#     Edge 93, Type (0, 0), BuildingBlock: CIFDUS_clean_linker_0, # of connection points: 2
#     Edge 94, Type (0, 0), BuildingBlock: CIFDUS_clean_linker_0, # of connection points: 2
#     Edge 95, Type (0, 0), BuildingBlock: CIFDUS_clean_linker_0, # of connection points: 2
#     Edge 96, Type (0, 0), BuildingBlock: CIFDUS_clean_linker_0, # of connection points: 2
#     Edge 97, Type (0, 0), BuildingBlock: CIFDUS_clean_linker_0, # of connection points: 2
#     Edge 98, Type (0, 0), BuildingBlock: CIFDUS_clean_linker_0, # of connection points: 2
#     Edge 99, Type (0, 0), BuildingBlock: CIFDUS_clean_linker_0, # of connection points: 2
#     Edge 100, Type (0, 0), BuildingBlock: CIFDUS_clean_linker_0, # of connection points: 2
#     Edge 101, Type (0, 0), BuildingBlock: CIFDUS_clean_linker_0, # of connection points: 2
#     Edge 102, Type (0, 0), BuildingBlock: CIFDUS_clean_linker_0, # of connection points: 2
#     Edge 103, Type (0, 0), BuildingBlock: CIFDUS_clean_linker_0, # of connection points: 2
#     Edge 104, Type (0, 0), BuildingBlock: CIFDUS_clean_linker_0, # of connection points: 2
#     Edge 105, Type (0, 0), BuildingBlock: CIFDUS_clean_linker_0, # of connection points: 2
#     Edge 106, Type (0, 0), BuildingBlock: CIFDUS_clean_linker_0, # of connection points: 2
#     Edge 107, Type (0, 0), BuildingBlock: CIFDUS_clean_linker_0, # of connection points: 2
#     Edge 108, Type (0, 0), BuildingBlock: CIFDUS_clean_linker_0, # of connection points: 2
#     Edge 109, Type (0, 0), BuildingBlock: CIFDUS_clean_linker_0, # of connection points: 2
#     Edge 110, Type (0, 0), BuildingBlock: CIFDUS_clean_linker_0, # of connection points: 2
#     Edge 111, Type (0, 0), BuildingBlock: CIFDUS_clean_linker_0, # of connection points: 2
#     Edge 112, Type (0, 0), BuildingBlock: CIFDUS_clean_linker_0, # of connection points: 2
#     Edge 113, Type (0, 0), BuildingBlock: CIFDUS_clean_linker_0, # of connection points: 2
#     Edge 114, Type (0, 0), BuildingBlock: CIFDUS_clean_linker_0, # of connection points: 2
#     Edge 115, Type (0, 0), BuildingBlock: CIFDUS_clean_linker_0, # of connection points: 2
#     Edge 116, Type (0, 0), BuildingBlock: CIFDUS_clean_linker_0, # of connection points: 2
#     Edge 117, Type (0, 0), BuildingBlock: CIFDUS_clean_linker_0, # of connection points: 2
#     Edge 118, Type (0, 0), BuildingBlock: CIFDUS_clean_linker_0, # of connection points: 2
#     Edge 119, Type (0, 0), BuildingBlock: CIFDUS_clean_linker_0, # of connection points: 2
#     Edge 120, Type (0, 0), BuildingBlock: CIFDUS_clean_linker_0, # of connection points: 2
#     Edge 121, Type (0, 0), BuildingBlock: CIFDUS_clean_linker_0, # of connection points: 2
#     Edge 122, Type (0, 0), BuildingBlock: CIFDUS_clean_linker_0, # of connection points: 2
#     Edge 123, Type (0, 0), BuildingBlock: CIFDUS_clean_linker_0, # of connection points: 2
#     Edge 124, Type (0, 0), BuildingBlock: CIFDUS_clean_linker_0, # of connection points: 2
#     Edge 125, Type (0, 0), BuildingBlock: CIFDUS_clean_linker_0, # of connection points: 2
#     Edge 126, Type (0, 0), BuildingBlock: CIFDUS_clean_linker_0, # of connection points: 2
#     Edge 127, Type (0, 0), BuildingBlock: CIFDUS_clean_linker_0, # of connection points: 2
#     Edge 128, Type (0, 0), BuildingBlock: CIFDUS_clean_linker_0, # of connection points: 2
#     Edge 129, Type (0, 0), BuildingBlock: CIFDUS_clean_linker_0, # of connection points: 2
#     Edge 130, Type (0, 0), BuildingBlock: CIFDUS_clean_linker_0, # of connection points: 2
#     Edge 131, Type (0, 0), BuildingBlock: CIFDUS_clean_linker_0, # of connection points: 2
#     Edge 132, Type (0, 0), BuildingBlock: CIFDUS_clean_linker_0, # of connection points: 2
#     Edge 133, Type (0, 0), BuildingBlock: CIFDUS_clean_linker_0, # of connection points: 2
#     Edge 134, Type (0, 0), BuildingBlock: CIFDUS_clean_linker_0, # of connection points: 2
#     Edge 135, Type (0, 0), BuildingBlock: CIFDUS_clean_linker_0, # of connection points: 2
#     Edge 136, Type (0, 0), BuildingBlock: CIFDUS_clean_linker_0, # of connection points: 2
#     Edge 137, Type (0, 0), BuildingBlock: CIFDUS_clean_linker_0, # of connection points: 2
#     Edge 138, Type (0, 0), BuildingBlock: CIFDUS_clean_linker_0, # of connection points: 2
#     Edge 139, Type (0, 0), BuildingBlock: CIFDUS_clean_linker_0, # of connection points: 2
#     Edge 140, Type (0, 0), BuildingBlock: CIFDUS_clean_linker_0, # of connection points: 2
#     Edge 141, Type (0, 0), BuildingBlock: CIFDUS_clean_linker_0, # of connection points: 2
#     Edge 142, Type (0, 0), BuildingBlock: CIFDUS_clean_linker_0, # of connection points: 2
#     Edge 143, Type (0, 0), BuildingBlock: CIFDUS_clean_linker_0, # of connection points: 2
# Relax obj value: 0.095
# Max RMSD: 0.223
# Mean RMSD: 0.216
data_MOF--net-ulj--node1-NAWXER_clean_sbu_0--edge1-CIFDUS_clean_linker_0
_symmetry_space_group_name_H-M    P1
_symmetry_Int_Tables_number       1
_symmetry_cell_setting            triclinic
loop_
_symmetry_equiv_pos_as_xyz
'x, y, z'
_cell_length_a     57.163824
_cell_length_b     57.14276
_cell_length_c     57.119328
_cell_angle_alpha  89.978931
_cell_angle_beta   90.158033
_cell_angle_gamma 89.97163
loop_
_atom_site_label
_atom_site_type_symbol
_atom_site_fract_x
_atom_site_fract_y
_atom_site_fract_z
_atom_type_partial_charge
C0 C 0.14387 0.26469 0.28584 0.0
C1 C 0.11261 0.20587 0.33736 0.0
O2 O 0.15383 0.26617 0.30601 0.0
Zn3 Zn 0.15027 0.24778 0.3395 0.0
O4 O 0.12767 0.24989 0.28276 0.0
Zn5 Zn 0.12823 0.23648 0.31297 0.0
O6 O 0.11382 0.26369 0.33494 0.0
O7 O 0.14112 0.27133 0.36121 0.0
O8 O 0.10766 0.21087 0.31633 0.0
O9 O 0.12784 0.21813 0.34851 0.0
O10 O 0.1812 0.23573 0.34406 0.0
O11 O 0.16227 0.21981 0.31433 0.0
C12 C 0.12094 0.27523 0.35288 0.0
C13 C 0.1807 0.22139 0.32713 0.0
C14 C 0.53649 0.61141 0.89381 0.0
C15 C 0.47735 0.55555 0.91778 0.0
O16 O 0.53252 0.59096 0.88616 0.0
Zn17 Zn 0.50666 0.58385 0.90604 0.0
O18 O 0.52386 0.61972 0.91041 0.0
Zn19 Zn 0.49451 0.60756 0.93092 0.0
O20 O 0.50606 0.60819 0.96215 0.0
O21 O 0.52218 0.58045 0.94077 0.0
O22 O 0.47616 0.57456 0.92969 0.0
O23 O 0.4926 0.5536 0.90179 0.0
O24 O 0.47986 0.60796 0.89362 0.0
O25 O 0.47031 0.62945 0.92423 0.0
C26 C 0.51999 0.591 0.96052 0.0
C27 C 0.46749 0.6243 0.90283 0.0
C28 C 0.866 0.20858 0.36112 0.0
C29 C 0.81261 0.26755 0.33028 0.0
O30 O 0.87376 0.21803 0.3423 0.0
Zn31 Zn 0.86217 0.24405 0.31769 0.0
O32 O 0.84614 0.21463 0.36898 0.0
Zn33 Zn 0.83867 0.23753 0.34537 0.0
O34 O 0.83232 0.21734 0.31406 0.0
O35 O 0.85942 0.22751 0.28865 0.0
O36 O 0.80949 0.25459 0.34809 0.0
O37 O 0.83115 0.26521 0.31793 0.0
O38 O 0.88578 0.26774 0.31968 0.0
O39 O 0.86443 0.26461 0.35174 0.0
C40 C 0.84146 0.21548 0.29365 0.0
C41 C 0.88107 0.27445 0.34033 0.0
C42 C 0.52767 0.92699 0.92778 0.0
C43 C 0.46777 0.87433 0.89797 0.0
O44 O 0.51359 0.93031 0.91085 0.0
Zn45 Zn 0.49746 0.90082 0.91333 0.0
O46 O 0.5269 0.90768 0.93922 0.0
Zn47 Zn 0.50674 0.87579 0.93852 0.0
O48 O 0.53039 0.85301 0.9331 0.0
O49 O 0.52394 0.87593 0.90259 0.0
O50 O 0.47887 0.86527 0.9153 0.0
O51 O 0.47269 0.89495 0.89137 0.0
O52 O 0.48033 0.90456 0.94693 0.0
O53 O 0.49298 0.87541 0.96886 0.0
C54 C 0.5349 0.85878 0.91215 0.0
C55 C 0.48057 0.89367 0.9666 0.0
C56 C 0.13477 0.71081 0.13819 0.0
C57 C 0.1863 0.7732 0.16469 0.0
O58 O 0.1269 0.72137 0.15634 0.0
Zn59 Zn 0.13753 0.74941 0.17888 0.0
O60 O 0.15436 0.7168 0.12961 0.0
Zn61 Zn 0.16111 0.7415 0.15151 0.0
O62 O 0.16774 0.7235 0.18406 0.0
O63 O 0.14069 0.73509 0.20897 0.0
O64 O 0.18973 0.75926 0.1477 0.0
O65 O 0.16783 0.77118 0.17717 0.0
O66 O 0.11309 0.77193 0.17507 0.0
O67 O 0.13422 0.76681 0.14311 0.0
C68 C 0.15873 0.72291 0.2046 0.0
C69 C 0.11723 0.77684 0.1538 0.0
C70 C 0.03215 0.63032 0.09048 0.0
C71 C 0.97244 0.59922 0.03879 0.0
O72 O 0.02746 0.63594 0.0695 0.0
Zn73 Zn 0.00168 0.61513 0.06533 0.0
O74 O 0.01994 0.61455 0.1008 0.0
Zn75 Zn 0.99089 0.59192 0.09168 0.0
O76 O 0.0043 0.56113 0.09473 0.0
O77 O 0.01887 0.5817 0.0655 0.0
O78 O 0.97189 0.58903 0.05884 0.0
O79 O 0.98687 0.61572 0.0354 0.0
O80 O 0.97548 0.62872 0.08863 0.0
O81 O 0.96767 0.60085 0.1142 0.0
C82 C 0.01829 0.56279 0.07758 0.0
C83 C 0.96421 0.62144 0.10661 0.0
C84 C 0.81171 0.72556 0.16513 0.0
C85 C 0.86319 0.78766 0.1377 0.0
O86 O 0.83002 0.72814 0.17784 0.0
Zn87 Zn 0.86022 0.74998 0.17932 0.0
O88 O 0.80849 0.73878 0.1475 0.0
Zn89 Zn 0.83693 0.75695 0.1511 0.0
O90 O 0.86407 0.73186 0.14393 0.0
O91 O 0.88493 0.72737 0.17628 0.0
O92 O 0.84387 0.78119 0.12872 0.0
O93 O 0.87083 0.77758 0.15627 0.0
O94 O 0.85631 0.76547 0.20887 0.0
O95 O 0.82983 0.77598 0.18273 0.0
C96 C 0.88103 0.72212 0.15501 0.0
C97 C 0.83837 0.77746 0.20346 0.0
C98 C 0.96516 0.86929 0.09103 0.0
C99 C 0.02364 0.89975 0.03818 0.0
O100 O 0.96948 0.86372 0.06999 0.0
Zn101 Zn 0.99513 0.88435 0.06557 0.0
O102 O 0.97769 0.88491 0.10129 0.0
Zn103 Zn 0.00698 0.9073 0.0915 0.0
O104 O 0.99437 0.93831 0.09513 0.0
O105 O 0.97805 0.91793 0.06659 0.0
O106 O 0.02503 0.91005 0.05813 0.0
O107 O 0.00882 0.88351 0.03533 0.0
O108 O 0.02188 0.87031 0.08815 0.0
O109 O 0.0307 0.89818 0.11341 0.0
C110 C 0.97945 0.93678 0.07871 0.0
C111 C 0.03375 0.87755 0.10581 0.0
C112 C 0.27875 0.14323 0.26825 0.0
C113 C 0.32964 0.10874 0.21074 0.0
O114 O 0.29822 0.15445 0.26742 0.0
Zn115 Zn 0.33078 0.15101 0.24808 0.0
O116 O 0.27603 0.12513 0.25575 0.0
Zn117 Zn 0.30537 0.12597 0.24041 0.0
O118 O 0.33014 0.11572 0.26712 0.0
O119 O 0.35423 0.14553 0.27149 0.0
O120 O 0.30912 0.10303 0.21682 0.0
O121 O 0.33998 0.12595 0.22089 0.0
O122 O 0.33225 0.18058 0.23199 0.0
O123 O 0.30341 0.15783 0.22006 0.0
C124 C 0.348 0.125 0.27713 0.0
C125 C 0.31473 0.17718 0.21872 0.0
C126 C 0.37429 0.39473 0.96236 0.0
C127 C 0.42323 0.42002 0.02665 0.0
O128 O 0.39401 0.38681 0.96883 0.0
Zn129 Zn 0.39875 0.4078 0.99435 0.0
O130 O 0.3651 0.41206 0.97327 0.0
Zn131 Zn 0.37423 0.4338 0.00268 0.0
O132 O 0.37611 0.46456 0.98972 0.0
O133 O 0.40448 0.44137 0.9777 0.0
O134 O 0.40449 0.43228 0.02503 0.0
O135 O 0.42702 0.40371 0.01208 0.0
O136 O 0.37175 0.3973 0.01883 0.0
O137 O 0.3495 0.42842 0.02435 0.0
C138 C 0.39449 0.46151 0.97771 0.0
C139 C 0.35421 0.40717 0.02879 0.0
C140 C 0.66339 0.37907 0.21615 0.0
C141 C 0.70446 0.33598 0.27675 0.0
O142 O 0.65004 0.36369 0.22563 0.0
Zn143 Zn 0.65339 0.33735 0.25282 0.0
O144 O 0.68438 0.38117 0.22312 0.0
Zn145 Zn 0.68333 0.35759 0.24681 0.0
O146 O 0.68096 0.32585 0.22656 0.0
O147 O 0.64802 0.30838 0.23644 0.0
O148 O 0.7114 0.35297 0.26427 0.0
O149 O 0.68338 0.32854 0.27445 0.0
O150 O 0.63009 0.34687 0.27493 0.0
O151 O 0.6595 0.37173 0.27239 0.0
C152 C 0.66667 0.30868 0.22441 0.0
C153 C 0.6398 0.3658 0.28132 0.0
C154 C 0.56173 0.08889 0.01556 0.0
C155 C 0.62068 0.10485 0.95686 0.0
O156 O 0.56109 0.10473 -4e-05 0.0
Zn157 Zn 0.59105 0.09713 0.98619 0.0
O158 O 0.57929 0.075 0.01677 0.0
Zn159 Zn 0.61151 0.069 -0.00102 0.0
O160 O 0.63391 0.07347 0.02359 0.0
O161 O 0.61584 0.10612 0.01341 0.0
O162 O 0.6262 0.08735 0.96981 0.0
O163 O 0.60165 0.11575 0.9604 0.0
O164 O 0.58386 0.06349 0.97044 0.0
O165 O 0.60745 0.03787 0.98719 0.0
C166 C 0.6309 0.09533 0.02617 0.0
C167 C 0.59127 0.04238 0.9726 0.0
C168 C 0.33583 0.88244 0.28032 0.0
C169 C 0.29393 0.84079 0.21929 0.0
O170 O 0.34933 0.86818 0.26939 0.0
Zn171 Zn 0.34596 0.84344 0.24076 0.0
O172 O 0.31457 0.88434 0.27417 0.0
Zn173 Zn 0.31534 0.86204 0.2493 0.0
O174 O 0.32069 0.8299 0.26797 0.0
O175 O 0.35345 0.81382 0.25526 0.0
O176 O 0.28667 0.85662 0.23306 0.0
O177 O 0.31543 0.83437 0.22025 0.0
O178 O 0.36741 0.85545 0.218 0.0
O179 O 0.33677 0.87835 0.22325 0.0
C180 C 0.33572 0.81325 0.2686 0.0
C181 C 0.35618 0.87395 0.21295 0.0
C182 C 0.12076 0.40448 0.02928 0.0
C183 C 0.06358 0.42591 0.96945 0.0
O184 O 0.10097 0.39513 0.02537 0.0
Zn185 Zn 0.09213 0.41454 -0.00081 0.0
O186 O 0.12782 0.42136 0.01628 0.0
Zn187 Zn 0.11503 0.44074 0.98664 0.0
O188 O 0.11392 0.47209 -0.0017 0.0
O189 O 0.08802 0.4487 0.01478 0.0
O190 O 0.08236 0.4381 0.96847 0.0
O191 O 0.06164 0.40997 0.98486 0.0
O192 O 0.11615 0.40329 0.97242 0.0
O193 O 0.13706 0.43418 0.96237 0.0
C194 C 0.09733 0.46904 0.01272 0.0
C195 C 0.13217 0.41266 0.95984 0.0
C196 C 0.65372 0.61953 0.27527 0.0
C197 C 0.70172 0.66055 0.2183 0.0
O198 O 0.64182 0.63424 0.26313 0.0
Zn199 Zn 0.64823 0.6593 0.23566 0.0
O200 O 0.67555 0.61739 0.27176 0.0
Zn201 Zn 0.67789 0.63996 0.24694 0.0
O202 O 0.67201 0.67207 0.26499 0.0
O203 O 0.64067 0.68907 0.25001 0.0
O204 O 0.70788 0.64489 0.23286 0.0
O205 O 0.6803 0.66726 0.21761 0.0
O206 O 0.6284 0.64764 0.21105 0.0
O207 O 0.65827 0.62437 0.21907 0.0
C208 C 0.65748 0.68914 0.26462 0.0
C209 C 0.63985 0.62899 0.20708 0.0
C210 C 0.9233 0.06071 0.96625 0.0
C211 C 0.8714 0.09517 0.02367 0.0
O212 O 0.92604 0.07933 0.97806 0.0
Zn213 Zn 0.89717 0.07751 0.99494 0.0
O214 O 0.90463 0.04852 0.96888 0.0
Zn215 Zn 0.87318 0.0504 0.98978 0.0
O216 O 0.84933 0.05176 0.96651 0.0
O217 O 0.87119 0.08358 0.96791 0.0
O218 O 0.86271 0.07626 0.01522 0.0
O219 O 0.89129 0.10214 0.01679 0.0
O220 O 0.90281 0.04663 0.01636 0.0
O221 O 0.8744 0.02215 0.00726 0.0
C222 C 0.85413 0.07203 0.95889 0.0
C223 C 0.89271 0.02673 0.01898 0.0
C224 C 0.21648 0.32985 0.18741 0.0
C225 C 0.27017 0.35674 0.12776 0.0
O226 O 0.21681 0.31602 0.16971 0.0
Zn227 Zn 0.23478 0.31399 0.13653 0.0
O228 O 0.22917 0.34806 0.18742 0.0
Zn229 Zn 0.24317 0.34278 0.15733 0.0
O230 O 0.21444 0.34811 0.13271 0.0
O231 O 0.20959 0.31431 0.11466 0.0
O232 O 0.26542 0.36559 0.14754 0.0
O233 O 0.26027 0.33758 0.12146 0.0
O234 O 0.25103 0.28503 0.13897 0.0
O235 O 0.26383 0.31144 0.16401 0.0
C236 C 0.20351 0.33543 0.11766 0.0
C237 C 0.2646 0.29057 0.15567 0.0
C238 C 0.27662 0.72028 0.35151 0.0
C239 C 0.21831 0.67127 0.38772 0.0
O240 O 0.27564 0.70027 0.34128 0.0
Zn241 Zn 0.25598 0.6681 0.34604 0.0
O242 O 0.26384 0.72414 0.36919 0.0
Zn243 Zn 0.24842 0.69478 0.36992 0.0
O244 O 0.27543 0.67097 0.38102 0.0
O245 O 0.27925 0.64489 0.35282 0.0
O246 O 0.22483 0.69179 0.39307 0.0
O247 O 0.22846 0.66032 0.37094 0.0
O248 O 0.23993 0.6654 0.31655 0.0
O249 O 0.22799 0.69515 0.33808 0.0
C250 C 0.28538 0.65265 0.37271 0.0
C251 C 0.22655 0.68293 0.31929 0.0
C252 C 0.88215 0.46697 0.88399 0.0
C253 C 0.90658 0.52274 0.94366 0.0
O254 O 0.87268 0.47096 0.90369 0.0
Zn255 Zn 0.8944 0.49458 0.91402 0.0
O256 O 0.90075 0.47808 0.87819 0.0
Zn257 Zn 0.9229 0.50465 0.89303 0.0
O258 O 0.95252 0.48938 0.8956 0.0
O259 O 0.92649 0.47533 0.92028 0.0
O260 O 0.9201 0.52272 0.92579 0.0
O261 O 0.88909 0.50905 0.94418 0.0
O262 O 0.88739 0.52243 0.88917 0.0
O263 O 0.92057 0.52963 0.87081 0.0
C264 C 0.94735 0.47531 0.91199 0.0
C265 C 0.89902 0.53403 0.87385 0.0
C266 C 0.76711 0.82161 0.31389 0.0
C267 C 0.70644 0.85053 0.36601 0.0
O268 O 0.76583 0.80996 0.33301 0.0
Zn269 Zn 0.74516 0.80988 0.36417 0.0
O270 O 0.75287 0.83829 0.31016 0.0
Zn271 Zn 0.7361 0.83582 0.33942 0.0
O272 O 0.76221 0.84586 0.36493 0.0
O273 O 0.76849 0.81508 0.38757 0.0
O274 O 0.71161 0.85803 0.34573 0.0
O275 O 0.71741 0.8329 0.37455 0.0
O276 O 0.73069 0.77981 0.36365 0.0
O277 O 0.71782 0.803 0.33555 0.0
C278 C 0.77297 0.83615 0.38212 0.0
C279 C 0.71756 0.78311 0.346 0.0
C280 C 0.60842 0.53455 0.37611 0.0
C281 C 0.58156 0.47865 0.43426 0.0
O282 O 0.61661 0.53064 0.39641 0.0
Zn283 Zn 0.59472 0.50671 0.40516 0.0
O284 O 0.59049 0.52309 0.36893 0.0
Zn285 Zn 0.56802 0.49599 0.38241 0.0
O286 O 0.53791 0.51024 0.38258 0.0
O287 O 0.56172 0.52528 0.40899 0.0
O288 O 0.56909 0.47811 0.41557 0.0
O289 O 0.59858 0.49285 0.43571 0.0
O290 O 0.60384 0.47841 0.38144 0.0
O291 O 0.57202 0.47098 0.36075 0.0
C292 C 0.54149 0.52456 0.39915 0.0
C293 C 0.59325 0.46653 0.36552 0.0
C294 C 0.27175 0.66632 0.68421 0.0
C295 C 0.21682 0.63839 0.62553 0.0
O296 O 0.27232 0.67898 0.66564 0.0
Zn297 Zn 0.25454 0.67963 0.63209 0.0
O298 O 0.25785 0.64904 0.68521 0.0
Zn299 Zn 0.24429 0.65298 0.65466 0.0
O300 O 0.27309 0.64434 0.63129 0.0
O301 O 0.27984 0.67642 0.61085 0.0
O302 O 0.22086 0.63071 0.64598 0.0
O303 O 0.22791 0.65647 0.61814 0.0
O304 O 0.23999 0.70952 0.63197 0.0
O305 O 0.22538 0.68584 0.65864 0.0
C306 C 0.28488 0.65536 0.61566 0.0
C307 C 0.22589 0.70602 0.64869 0.0
C308 C 0.912 0.46584 0.62672 0.0
C309 C 0.9656 0.52148 0.59255 0.0
O310 O 0.93299 0.47039 0.63238 0.0
Zn311 Zn 0.93809 0.49426 0.60978 0.0
O312 O 0.90223 0.47701 0.6098 0.0
Zn313 Zn 0.91255 0.50399 0.5852 0.0
O314 O 0.90974 0.48841 0.55544 0.0
O315 O 0.93811 0.4745 0.57775 0.0
O316 O 0.94585 0.52179 0.58177 0.0
O317 O 0.96826 0.50824 0.61018 0.0
O318 O 0.91512 0.5219 0.62089 0.0
O319 O 0.89052 0.52844 0.59175 0.0
C320 C 0.92641 0.47403 0.55856 0.0
C321 C 0.89764 0.53311 0.61229 0.0
C322 C 0.06303 0.02727 0.65635 0.0
C323 C 0.01341 0.97226 0.6154 0.0
O324 O 0.04192 0.02185 0.66053 0.0
Zn325 Zn 0.03873 -0.00122 0.63656 0.0
O326 O 0.07413 0.01688 0.63986 0.0
Zn327 Zn 0.06667 0.99045 0.61402 0.0
O328 O 0.07147 0.00712 0.58502 0.0
O329 O 0.04102 0.01958 0.60518 0.0
O330 O 0.03415 0.97264 0.60684 0.0
O331 O 0.00866 0.98467 0.6332 0.0
O332 O 0.06037 0.97033 0.64827 0.0
O333 O 0.08813 0.96573 0.62191 0.0
C334 C 0.05417 0.02095 0.58707 0.0
C335 C 0.07867 0.95957 0.64103 0.0
C336 C 0.69225 0.72132 0.83308 0.0
C337 C 0.63488 0.77686 0.86125 0.0
O338 O 0.67335 0.72056 0.82096 0.0
Zn339 Zn 0.64 0.73803 0.82087 0.0
O340 O 0.6938 0.73542 0.85016 0.0
Zn341 Zn 0.66323 0.74904 0.8469 0.0
O342 O 0.63957 0.72107 0.8571 0.0
O343 O 0.61868 0.71294 0.82558 0.0
O344 O 0.65541 0.77298 0.86882 0.0
O345 O 0.62705 0.76532 0.84361 0.0
O346 O 0.63898 0.75208 0.79073 0.0
O347 O 0.66581 0.76767 0.81372 0.0
C348 C 0.62359 0.709 0.84688 0.0
C349 C 0.65534 0.76674 0.7938 0.0
C350 C 0.9762 0.05524 0.4223 0.0
C351 C 0.0333 0.11646 0.40787 0.0
O352 O 0.99217 0.05558 0.4069 0.0
Zn353 Zn 0.00464 0.08586 0.41511 0.0
O354 O 0.97381 0.07267 0.43624 0.0
Zn355 Zn 0.9905 0.10583 0.44257 0.0
O356 O 0.96538 0.12749 0.43738 0.0
O357 O 0.97703 0.10987 0.40507 0.0
O358 O 0.01968 0.12183 0.42487 0.0
O359 O 0.0307 0.09703 0.39742 0.0
O360 O 0.01946 0.07896 0.44923 0.0
O361 O 0.00153 0.10234 0.4741 0.0
C362 C 0.96357 0.12456 0.41543 0.0
C363 C 0.01651 0.0864 0.47022 0.0
C364 C 0.37106 0.70961 0.84958 0.0
C365 C 0.31755 0.77043 0.82354 0.0
O366 O 0.37989 0.72169 0.83284 0.0
Zn367 Zn 0.36894 0.75093 0.81139 0.0
O368 O 0.35057 0.71421 0.85675 0.0
Zn369 Zn 0.34431 0.73998 0.83629 0.0
O370 O 0.34075 0.7241 0.80208 0.0
O371 O 0.3689 0.73866 0.78016 0.0
O372 O 0.31452 0.75541 0.83963 0.0
O373 O 0.3368 0.77059 0.81205 0.0
O374 O 0.39157 0.77465 0.81831 0.0
O375 O 0.369 0.76605 0.84843 0.0
C376 C 0.35119 0.72544 0.78225 0.0
C377 C 0.38593 0.77781 0.83955 0.0
C378 C 0.01918 0.439 0.40384 0.0
C379 C 0.96074 0.38174 0.37938 0.0
O380 O 0.00561 0.44022 0.38622 0.0
Zn381 Zn 0.98972 0.41062 0.39129 0.0
O382 O 0.01834 0.42103 0.41724 0.0
Zn383 Zn -0.00096 0.38913 0.4199 0.0
O384 O 0.02287 0.36594 0.41743 0.0
O385 O 0.01633 0.38465 0.3842 0.0
O386 O 0.97177 0.3756 0.39797 0.0
O387 O 0.96544 0.40118 0.36967 0.0
O388 O 0.971 0.41745 0.4235 0.0
O389 O 0.98428 0.39219 0.44957 0.0
C390 C 0.02724 0.3688 0.39585 0.0
C391 C 0.97089 0.40916 0.4444 0.0
C392 C 0.64946 0.23074 0.7074 0.0
C393 C 0.61532 0.28429 0.6513 0.0
O394 O 0.66067 0.23032 0.68794 0.0
Zn395 Zn 0.65802 0.24766 0.65429 0.0
O396 O 0.63166 0.24384 0.70946 0.0
Zn397 Zn 0.63252 0.25721 0.67893 0.0
O398 O 0.62303 0.22846 0.65644 0.0
O399 O 0.65282 0.22239 0.63269 0.0
O400 O 0.60941 0.28027 0.67231 0.0
O401 O 0.6328 0.27341 0.64237 0.0
O402 O 0.68753 0.2641 0.65263 0.0
O403 O 0.66399 0.27767 0.67997 0.0
C404 C 0.63238 0.21706 0.63952 0.0
C405 C 0.68357 0.27847 0.66911 0.0
C406 C 0.53725 0.13053 0.58617 0.0
C407 C 0.48313 0.09682 0.53007 0.0
O408 O 0.53567 0.13394 0.56429 0.0
Zn409 Zn 0.50992 0.11343 0.55854 0.0
O410 O 0.52328 0.11608 0.59618 0.0
Zn411 Zn 0.49496 0.09329 0.58524 0.0
O412 O 0.50625 0.06235 0.59249 0.0
O413 O 0.52521 0.0794 0.56354 0.0
O414 O 0.47967 0.08845 0.55066 0.0
O415 O 0.499 0.11205 0.52706 0.0
O416 O 0.48112 0.12977 0.57656 0.0
O417 O 0.46949 0.10476 0.60363 0.0
C418 C 0.52212 0.0617 0.57701 0.0
C419 C 0.46744 0.12444 0.59351 0.0
C420 C 0.31433 0.21774 0.66581 0.0
C421 C 0.36568 0.27728 0.63328 0.0
O422 O 0.33221 0.22186 0.67875 0.0
Zn423 Zn 0.36206 0.24453 0.67871 0.0
O424 O 0.3114 0.22915 0.64693 0.0
Zn425 Zn 0.33954 0.24785 0.64962 0.0
O426 O 0.36722 0.22206 0.64625 0.0
O427 O 0.38708 0.22249 0.67951 0.0
O428 O 0.34668 0.26949 0.62477 0.0
O429 O 0.37306 0.26955 0.65304 0.0
O430 O 0.35759 0.26277 0.70623 0.0
O431 O 0.331 0.26997 0.67913 0.0
C432 C 0.38391 0.2142 0.65914 0.0
C433 C 0.33936 0.27365 0.69969 0.0
C434 C 0.518 0.3985 0.52805 0.0
C435 C 0.4618 0.3631 0.58076 0.0
O436 O 0.50492 0.38085 0.52482 0.0
Zn437 Zn 0.49044 0.38062 0.55493 0.0
O438 O 0.51788 0.40888 0.54799 0.0
Zn439 Zn 0.4995 0.40493 0.58087 0.0
O440 O 0.5236 0.39874 0.60319 0.0
O441 O 0.51821 0.36969 0.57828 0.0
O442 O 0.47275 0.38005 0.59066 0.0
O443 O 0.46654 0.35768 0.55977 0.0
O444 O 0.47069 0.41278 0.55455 0.0
O445 O 0.48387 0.43445 0.5837 0.0
C446 C 0.52894 0.37843 0.59601 0.0
C447 C 0.47006 0.43179 0.56647 0.0
C448 C 0.788 0.64597 0.76692 0.0
C449 C 0.84335 0.61342 0.7118 0.0
O450 O 0.80769 0.65678 0.7677 0.0
Zn451 Zn 0.84121 0.65442 0.75022 0.0
O452 O 0.78545 0.62874 0.75313 0.0
Zn453 Zn 0.81603 0.6296 0.73983 0.0
O454 O 0.83813 0.61898 0.76855 0.0
O455 O 0.86283 0.64793 0.77525 0.0
O456 O 0.82239 0.60736 0.71576 0.0
O457 O 0.8525 0.63035 0.72339 0.0
O458 O 0.84311 0.6846 0.73503 0.0
O459 O 0.81525 0.66197 0.72081 0.0
C460 C 0.85527 0.62764 0.78022 0.0
C461 C 0.82635 0.68145 0.72072 0.0
C462 C 0.87253 0.88873 0.4639 0.0
C463 C 0.92767 0.91582 0.52223 0.0
O464 O 0.89294 0.88124 0.4684 0.0
Zn465 Zn 0.90042 0.90327 0.49248 0.0
O466 O 0.86453 0.90653 0.47497 0.0
Zn467 Zn 0.87683 0.92947 0.50215 0.0
O468 O 0.87734 0.95955 0.48802 0.0
O469 O 0.90511 0.93649 0.47457 0.0
O470 O 0.90897 0.92824 0.52193 0.0
O471 O 0.93016 0.89927 0.50763 0.0
O472 O 0.87598 0.89406 0.52023 0.0
O473 O 0.85442 0.92558 0.5263 0.0
C474 C 0.89489 0.95652 0.47486 0.0
C475 C 0.85961 0.90461 0.53143 0.0
C476 C 0.16186 0.80084 0.72688 0.0
C477 C 0.1371 0.85837 0.78423 0.0
O478 O 0.17551 0.81864 0.72741 0.0
Zn479 Zn 0.17809 0.85105 0.74652 0.0
O480 O 0.14424 0.80013 0.74033 0.0
Zn481 Zn 0.14966 0.82979 0.75543 0.0
O482 O 0.14292 0.85541 0.72808 0.0
O483 O 0.17628 0.87392 0.72227 0.0
O484 O 0.12785 0.83883 0.77914 0.0
O485 O 0.15573 0.86493 0.77359 0.0
O486 O 0.20767 0.84822 0.76172 0.0
O487 O 0.18168 0.82294 0.77479 0.0
C488 C 0.15487 0.87101 0.71718 0.0
C489 C 0.20251 0.83134 0.77517 0.0
C490 C 0.13329 0.58577 0.52659 0.0
C491 C 0.09768 0.53161 0.47139 0.0
O492 O 0.13664 0.56393 0.52437 0.0
Zn493 Zn 0.11534 0.55895 0.49892 0.0
O494 O 0.11837 0.59614 0.51331 0.0
Zn495 Zn 0.0947 0.58617 0.48529 0.0
O496 O 0.06415 0.59299 0.4977 0.0
O497 O 0.08194 0.56359 0.5154 0.0
O498 O 0.0894 0.55237 0.46892 0.0
O499 O 0.11333 0.52785 0.48675 0.0
O500 O 0.13101 0.57837 0.47069 0.0
O501 O 0.10545 0.60549 0.46026 0.0
C502 C 0.06414 0.5771 0.51323 0.0
C503 C 0.12527 0.5958 0.45773 0.0
C504 C 0.84173 0.38614 0.77775 0.0
C505 C 0.79502 0.3441 0.72028 0.0
O506 O 0.85327 0.36937 0.76826 0.0
Zn507 Zn 0.8469 0.34261 0.74222 0.0
O508 O 0.82083 0.3902 0.77135 0.0
Zn509 Zn 0.81877 0.36575 0.74844 0.0
O510 O 0.82 0.33537 0.77032 0.0
O511 O 0.85052 0.31408 0.75988 0.0
O512 O 0.78958 0.36202 0.73223 0.0
O513 O 0.81565 0.33543 0.7222 0.0
O514 O 0.87002 0.34946 0.71904 0.0
O515 O 0.84269 0.37667 0.72165 0.0
C516 C 0.83285 0.31717 0.77295 0.0
C517 C 0.86152 0.36886 0.7123 0.0
C518 C 0.62826 0.90305 0.46781 0.0
C519 C 0.59776 0.95895 0.5234 0.0
O520 O 0.63442 0.92402 0.47159 0.0
Zn521 Zn 0.6133 0.93018 0.49657 0.0
O522 O 0.61202 0.89377 0.48021 0.0
Zn523 Zn 0.58925 0.90522 0.50825 0.0
O524 O 0.55863 0.90224 0.49448 0.0
O525 O 0.57995 0.93025 0.47873 0.0
O526 O 0.58688 0.93934 0.52498 0.0
O527 O 0.61474 0.96087 0.50928 0.0
O528 O 0.62565 0.90843 0.52492 0.0
O529 O 0.59694 0.88404 0.5332 0.0
C530 C 0.56074 0.9187 0.4797 0.0
C531 C 0.6175 0.89142 0.53711 0.0
C532 C 0.20701 0.1528 0.72382 0.0
C533 C 0.16683 0.11484 0.78798 0.0
O534 O 0.18564 0.15965 0.72489 0.0
Zn535 Zn 0.15572 0.15205 0.74689 0.0
O536 O 0.21436 0.13761 0.73826 0.0
Zn537 Zn 0.18628 0.1338 0.75564 0.0
O538 O 0.1633 0.11589 0.73165 0.0
O539 O 0.13309 0.13932 0.72589 0.0
O540 O 0.18802 0.113 0.78171 0.0
O541 O 0.15298 0.12853 0.77668 0.0
O542 O 0.14867 0.18226 0.75984 0.0
O543 O 0.18198 0.16721 0.77247 0.0
C544 C 0.14345 0.12008 0.72198 0.0
C545 C 0.16691 0.18385 0.77244 0.0
C546 C 0.38893 0.61499 0.533 0.0
C547 C 0.44698 0.59126 0.47556 0.0
O548 O 0.40877 0.62412 0.52898 0.0
Zn549 Zn 0.41776 0.60346 0.50407 0.0
O550 O 0.38212 0.59732 0.52092 0.0
Zn551 Zn 0.39563 0.57637 0.49267 0.0
O552 O 0.39678 0.54583 0.50597 0.0
O553 O 0.42236 0.57016 0.52166 0.0
O554 O 0.42854 0.57852 0.47486 0.0
O555 O 0.44813 0.60815 0.48997 0.0
O556 O 0.39316 0.61302 0.4768 0.0
O557 O 0.37348 0.58094 0.46809 0.0
C558 C 0.41321 0.54968 0.52046 0.0
C559 C 0.37735 0.60253 0.46472 0.0
C560 C 0.71376 0.84576 0.62739 0.0
C561 C 0.77263 0.79632 0.66394 0.0
O562 O 0.72561 0.85704 0.64281 0.0
Zn563 Zn 0.7535 0.8493 0.66736 0.0
O564 O 0.71786 0.82419 0.62401 0.0
Zn565 Zn 0.7431 0.82114 0.64595 0.0
O566 O 0.72574 0.82323 0.67908 0.0
O567 O 0.73959 0.85404 0.69779 0.0
O568 O 0.7582 0.79132 0.64776 0.0
O569 O 0.7728 0.81708 0.67255 0.0
O570 O 0.77719 0.87093 0.65756 0.0
O571 O 0.76991 0.84327 0.63153 0.0
C572 C 0.72606 0.83643 0.69723 0.0
C573 C 0.78119 0.86166 0.63776 0.0
C574 C 0.77866 0.14627 0.86828 0.0
C575 C 0.72596 0.17041 0.80607 0.0
O576 O 0.76907 0.16606 0.87268 0.0
Zn577 Zn 0.74432 0.18885 0.85597 0.0
O578 O 0.77364 0.13549 0.8495 0.0
Zn579 Zn 0.75227 0.15828 0.83715 0.0
O580 O 0.77433 0.18814 0.82961 0.0
O581 O 0.76166 0.21681 0.8521 0.0
O582 O 0.73843 0.15203 0.80695 0.0
O583 O 0.72663 0.18515 0.82299 0.0
O584 O 0.71898 0.19043 0.87742 0.0
O585 O 0.72292 0.1557 0.86092 0.0
C586 C 0.7758 0.2094 0.83671 0.0
C587 C 0.71214 0.16946 0.87504 0.0
C588 C 0.40296 0.96349 0.37162 0.0
C589 C 0.42078 0.02125 0.43172 0.0
O590 O 0.39309 0.96614 0.39135 0.0
Zn591 Zn 0.41135 0.99249 0.40164 0.0
O592 O 0.41967 0.97718 0.3656 0.0
Zn593 Zn 0.43779 0.00678 0.38014 0.0
O594 O 0.46951 0.99601 0.38196 0.0
O595 O 0.44596 0.97797 0.40663 0.0
O596 O 0.43361 0.02337 0.41347 0.0
O597 O 0.40507 0.00554 0.43228 0.0
O598 O 0.39979 0.01938 0.37779 0.0
O599 O 0.43089 0.0316 0.35853 0.0
C600 C 0.46651 0.98106 0.39814 0.0
C601 C 0.40906 0.03282 0.3624 0.0
C602 C 0.27106 0.32514 0.80867 0.0
C603 C 0.21173 0.35537 0.86137 0.0
O604 O 0.27096 0.31455 0.82846 0.0
Zn605 Zn 0.25134 0.31564 0.86039 0.0
O606 O 0.25614 0.34112 0.8046 0.0
Zn607 Zn 0.2408 0.33966 0.83466 0.0
O608 O 0.2678 0.35184 0.85862 0.0
O609 O 0.27517 0.32221 0.88244 0.0
O610 O 0.21593 0.36152 0.84044 0.0
O611 O 0.22343 0.33858 0.87065 0.0
O612 O 0.23824 0.28524 0.86245 0.0
O613 O 0.22369 0.3058 0.83315 0.0
C614 C 0.27929 0.34299 0.87583 0.0
C615 C 0.22468 0.28665 0.84492 0.0
C616 C 0.10231 0.02903 0.87648 0.0
C617 C 0.08481 0.97315 0.93821 0.0
O618 O 0.11305 0.02586 0.89571 0.0
Zn619 Zn 0.094 0.00064 0.90706 0.0
O620 O 0.08469 0.01612 0.87129 0.0
Zn621 Zn 0.06598 0.98755 0.88713 0.0
O622 O 0.03504 -0.00042 0.88981 0.0
O623 O 0.06033 0.01717 0.91316 0.0
O624 O 0.07099 0.97121 0.92061 0.0
O625 O 0.10116 0.98819 0.93776 0.0
O626 O 0.10288 0.97233 0.88342 0.0
O627 O 0.06998 0.96224 0.86584 0.0
C628 C 0.03934 0.01479 0.90543 0.0
C629 C 0.09177 0.95931 0.86882 0.0
C630 C 0.78152 0.15556 0.11113 0.0
C631 C 0.72954 0.21248 0.14654 0.0
O632 O 0.76999 0.14661 0.12818 0.0
Zn633 Zn 0.74434 0.15852 0.15333 0.0
O634 O 0.77861 0.17694 0.10583 0.0
Zn635 Zn 0.75538 0.18371 0.12886 0.0
O636 O 0.77544 0.18246 0.16066 0.0
O637 O 0.76025 0.15495 0.18303 0.0
O638 O 0.74307 0.21484 0.12912 0.0
O639 O 0.72819 0.19258 0.15689 0.0
O640 O 0.71856 0.13796 0.14672 0.0
O641 O 0.72628 0.16237 0.11779 0.0
C642 C 0.77548 0.17081 0.17984 0.0
C643 C 0.71417 0.14546 0.12624 0.0
C644 C 0.42776 0.96364 0.13448 0.0
C645 C 0.47308 0.02474 0.09815 0.0
O646 O 0.44901 0.96921 0.13753 0.0
Zn647 Zn 0.44961 0.99454 0.11607 0.0
O648 O 0.41512 0.97524 0.11988 0.0
Zn649 Zn 0.42064 0.00451 0.09617 0.0
O650 O 0.41423 0.99147 0.06591 0.0
O651 O 0.44587 0.97695 0.08275 0.0
O652 O 0.45214 0.02472 0.08996 0.0
O653 O 0.47879 0.00999 0.11372 0.0
O654 O 0.42755 0.02062 0.13215 0.0
O655 O 0.39879 0.02715 0.10714 0.0
C656 C 0.43152 0.97757 0.06543 0.0
C657 C 0.40863 0.03139 0.12661 0.0
C658 C 0.53295 0.4688 0.09463 0.0
C659 C 0.57472 0.53178 0.13215 0.0
O660 O 0.52611 0.48333 0.10993 0.0
Zn661 Zn 0.55477 0.49936 0.11391 0.0
O662 O 0.55437 0.46912 0.08789 0.0
Zn663 Zn 0.5852 0.48989 0.09587 0.0
O664 O 0.60686 0.4678 0.10926 0.0
O665 O 0.5761 0.47396 0.13163 0.0
O666 O 0.58838 0.52021 0.11856 0.0
O667 O 0.55367 0.52529 0.13464 0.0
O668 O 0.55961 0.51596 0.08035 0.0
O669 O 0.59255 0.50248 0.06539 0.0
C670 C 0.59556 0.46348 0.12786 0.0
C671 C 0.57463 0.51552 0.0637 0.0
H672 H 0.17799 0.30263 0.1886 0.0
H673 H 0.22431 0.34256 0.23289 0.0
H674 H 0.20477 0.3272 0.26774 0.0
H675 H 0.1768 0.29944 0.28548 0.0
H676 H 0.13017 0.26041 0.24045 0.0
H677 H 0.14741 0.27857 0.20614 0.0
C678 C 0.18363 0.30816 0.20589 0.0
C679 C 0.20269 0.32343 0.20823 0.0
C680 C 0.17234 0.29931 0.22574 0.0
C681 C 0.20964 0.33078 0.23068 0.0
C682 C 0.19856 0.3219 0.2506 0.0
C683 C 0.17024 0.29514 0.26818 0.0
C684 C 0.15245 0.27833 0.26559 0.0
C685 C 0.18024 0.3057 0.24835 0.0
C686 C 0.14395 0.27316 0.24303 0.0
C687 C 0.15383 0.28349 0.22332 0.0
H688 H 0.54914 0.55509 0.06037 0.0
H689 H 0.58994 0.50687 0.01918 0.0
H690 H 0.57798 0.52713 0.98327 0.0
H691 H 0.553 0.55648 0.96356 0.0
H692 H 0.51304 0.60496 0.00551 0.0
H693 H 0.52781 0.58679 0.04111 0.0
C694 C 0.55559 0.54915 0.04353 0.0
C695 C 0.57012 0.52937 0.04234 0.0
C696 C 0.54871 0.56086 0.02309 0.0
C697 C 0.57869 0.52207 0.0205 0.0
C698 C 0.57176 0.53357 -2e-05 0.0
C699 C 0.54776 0.56324 0.98049 0.0
C700 C 0.53168 0.58187 0.9818 0.0
C701 C 0.55634 0.55268 0.00104 0.0
C702 C 0.52527 0.59058 0.00391 0.0
C703 C 0.53365 0.58015 0.02434 0.0
H704 H 0.8503 0.21551 0.247 0.0
H705 H 0.80555 0.18433 0.29913 0.0
H706 H 0.78243 0.16559 0.26836 0.0
H707 H 0.77264 0.1613 0.22653 0.0
H708 H 0.81627 0.19463 0.17477 0.0
H709 H 0.84216 0.20912 0.20549 0.0
C710 C 0.83573 0.20431 0.25169 0.0
C711 C 0.8296 0.20145 0.27534 0.0
C712 C 0.82215 0.19413 0.23392 0.0
C713 C 0.81059 0.18694 0.28105 0.0
C714 C 0.79731 0.17626 0.26346 0.0
C715 C 0.78802 0.17142 0.22198 0.0
C716 C 0.79243 0.17702 0.19842 0.0
C717 C 0.80257 0.18022 0.23981 0.0
C718 C 0.81236 0.19026 0.19279 0.0
C719 C 0.82719 0.19856 0.21035 0.0
H720 H 0.45023 0.93043 0.96773 0.0
H721 H 0.48559 0.88045 0.0122 0.0
H722 H 0.47248 0.90151 0.04683 0.0
H723 H 0.45421 0.9361 0.06438 0.0
H724 H 0.41791 0.98562 0.02034 0.0
H725 H 0.42811 0.96271 0.98564 0.0
C726 C 0.45477 0.92395 0.985 0.0
C727 C 0.46912 0.90407 0.98732 0.0
C728 C 0.44725 0.9362 0.00491 0.0
C729 C 0.47464 0.89576 0.00985 0.0
C730 C 0.46727 0.90786 0.02971 0.0
C731 C 0.44842 0.94177 0.04718 0.0
C732 C 0.43567 0.96264 0.04481 0.0
C733 C 0.45414 0.92844 0.02741 0.0
C734 C 0.42784 0.96961 0.02254 0.0
C735 C 0.43371 0.95657 0.00272 0.0
H736 H 0.22679 0.66998 0.27345 0.0
H737 H 0.18887 0.71165 0.32368 0.0
H738 H 0.16286 0.72571 0.29281 0.0
H739 H 0.1528 0.72855 0.25129 0.0
H740 H 0.19214 0.68896 0.2005 0.0
H741 H 0.21548 0.67148 0.23188 0.0
C742 C 0.21267 0.68193 0.27766 0.0
C743 C 0.20985 0.68986 0.30077 0.0
C744 C 0.19807 0.69036 0.25973 0.0
C745 C 0.19155 0.70544 0.30597 0.0
C746 C 0.17663 0.71347 0.28834 0.0
C747 C 0.16623 0.71582 0.24709 0.0
C748 C 0.17076 0.7101 0.22361 0.0
C749 C 0.18 0.70638 0.26512 0.0
C750 C 0.18837 0.69372 0.21845 0.0
C751 C 0.20176 0.68376 0.23638 0.0
H752 H 0.9382 0.56588 0.03996 0.0
H753 H 0.97477 0.61246 0.99305 0.0
H754 H 0.95581 0.59413 0.95957 0.0
H755 H 0.93212 0.56241 0.94333 0.0
H756 H 0.89503 0.51586 0.98962 0.0
H757 H 0.91066 0.53684 0.02362 0.0
C758 C 0.94178 0.57222 0.02243 0.0
C759 C 0.95816 0.5903 0.01905 0.0
C760 C 0.93083 0.56153 0.00313 0.0
C761 C 0.96238 0.59848 0.99622 0.0
C762 C 0.95159 0.58797 0.977 0.0
C763 C 0.92723 0.55704 0.96087 0.0
C764 C 0.91272 0.53746 0.96401 0.0
C765 C 0.93631 0.56909 0.98022 0.0
C766 C 0.9062 0.53089 0.98678 0.0
C767 C 0.91525 0.54279 0.00621 0.0
H768 H 0.84401 0.77525 0.25058 0.0
H769 H 0.80424 0.81021 0.19658 0.0
H770 H 0.77984 0.82886 0.22625 0.0
H771 H 0.7675 0.8323 0.26738 0.0
H772 H 0.80614 0.79539 0.32092 0.0
H773 H 0.83329 0.7806 0.29164 0.0
C774 C 0.83026 0.78725 0.2453 0.0
C775 C 0.82588 0.79122 0.22142 0.0
C776 C 0.81591 0.79741 0.26239 0.0
C777 C 0.8079 0.80674 0.21488 0.0
C778 C 0.79389 0.81738 0.23182 0.0
C779 C 0.78205 0.82128 0.27264 0.0
C780 C 0.78468 0.8148 0.29624 0.0
C781 C 0.79737 0.81238 0.25561 0.0
C782 C 0.80357 0.80044 0.30281 0.0
C783 C 0.81915 0.79198 0.28609 0.0
H784 H 0.0619 0.93201 0.94055 0.0
H785 H 0.09672 0.98339 0.98354 0.0
H786 H 0.08251 0.9638 0.01891 0.0
H787 H 0.05642 0.93462 0.0372 0.0
H788 H 0.0219 0.88346 0.99345 0.0
H789 H 0.03995 0.90033 0.95886 0.0
C790 C 0.06666 0.93874 0.95768 0.0
C791 C 0.08004 0.95926 0.95947 0.0
C792 C 0.05831 0.92755 0.9778 0.0
C793 C 0.08639 0.9676 0.98173 0.0
C794 C 0.07814 0.9565 0.00194 0.0
C795 C 0.05311 0.92697 0.02014 0.0
C796 C 0.0375 0.90803 0.01795 0.0
C797 C 0.0635 0.93685 0.00015 0.0
C798 C 0.03363 0.89817 0.99571 0.0
C799 C 0.04392 0.90783 0.97584 0.0
H800 H 0.27854 0.17978 0.29896 0.0
H801 H 0.23366 0.128 0.26696 0.0
H802 H 0.19941 0.14693 0.28362 0.0
H803 H 0.18186 0.18014 0.30412 0.0
H804 H 0.22629 0.23153 0.33707 0.0
H805 H 0.26104 0.21071 0.32333 0.0
C806 C 0.26129 0.17246 0.2959 0.0
C807 C 0.25868 0.1527 0.28147 0.0
C808 C 0.24156 0.18346 0.30552 0.0
C809 C 0.23622 0.14328 0.27789 0.0
C810 C 0.21656 0.15413 0.28733 0.0
C811 C 0.19917 0.18665 0.30845 0.0
C812 C 0.20157 0.20745 0.32127 0.0
C813 C 0.21898 0.17456 0.30064 0.0
C814 C 0.22404 0.21554 0.32714 0.0
C815 C 0.2439 0.2037 0.31923 0.0
H816 H 0.43736 0.55676 0.94311 0.0
H817 H 0.48331 0.50951 0.90636 0.0
H818 H 0.46073 0.47608 0.92051 0.0
H819 H 0.42982 0.46024 0.94586 0.0
H820 H 0.38362 0.50776 0.98204 0.0
H821 H 0.40433 0.5411 0.96539 0.0
C822 C 0.44232 0.53916 0.93802 0.0
C823 C 0.46212 0.5356 0.92394 0.0
C824 C 0.42929 0.52006 0.9462 0.0
C825 C 0.46815 0.51272 0.91723 0.0
C826 C 0.45531 0.49358 0.92539 0.0
C827 C 0.42414 0.47789 0.94992 0.0
C828 C 0.40536 0.48148 0.96538 0.0
C829 C 0.43614 0.49703 0.94028 0.0
C830 C 0.39806 0.50446 0.97025 0.0
C831 C 0.40994 0.52357 0.9608 0.0
H832 H 0.76537 0.26577 0.33658 0.0
H833 H 0.82045 0.30794 0.30697 0.0
H834 H 0.7916 0.33445 0.29 0.0
H835 H 0.75109 0.34344 0.28034 0.0
H836 H 0.69553 0.30014 0.3074 0.0
H837 H 0.72414 0.27646 0.32879 0.0
C838 C 0.77097 0.281 0.32676 0.0
C839 C 0.79494 0.28486 0.3229 0.0
C840 C 0.75423 0.29585 0.31642 0.0
C841 C 0.80205 0.30452 0.30997 0.0
C842 C 0.78559 0.31968 0.30026 0.0
C843 C 0.74514 0.32903 0.29115 0.0
C844 C 0.72122 0.32349 0.29211 0.0
C845 C 0.76166 0.31517 0.30286 0.0
C846 C 0.71387 0.30473 0.30624 0.0
C847 C 0.73023 0.29114 0.31845 0.0
H848 H 0.5269 0.9731 0.91564 0.0
H849 H 0.56473 0.92273 0.95752 0.0
H850 H 0.58909 0.95386 0.9736 0.0
H851 H 0.59767 0.99557 0.97808 0.0
H852 H 0.55882 0.04627 0.93757 0.0
H853 H 0.53702 0.01482 0.91855 0.0
C854 C 0.54068 0.9689 0.92805 0.0
C855 C 0.54389 0.94564 0.93546 0.0
C856 C 0.55436 0.98697 0.93761 0.0
C857 C 0.56176 0.94052 0.95163 0.0
C858 C 0.57571 0.95831 0.96086 0.0
C859 C 0.58463 -0.00024 0.96489 0.0
C860 C 0.57981 0.02326 0.95938 0.0
C861 C 0.57186 0.98163 0.95433 0.0
C862 C 0.56282 0.02834 0.94226 0.0
C863 C 0.55031 0.01036 0.93138 0.0
H864 H 0.23349 0.77137 0.15844 0.0
H865 H 0.17826 0.81427 0.18675 0.0
H866 H 0.20702 0.84061 0.20405 0.0
H867 H 0.24744 0.84893 0.2148 0.0
H868 H 0.30303 0.80505 0.18867 0.0
H869 H 0.27462 0.78179 0.16668 0.0
C870 C 0.22783 0.78676 0.16798 0.0
C871 C 0.20385 0.79082 0.17148 0.0
C872 C 0.24451 0.8015 0.17851 0.0
C873 C 0.19667 0.8107 0.18402 0.0
C874 C 0.21309 0.82574 0.19395 0.0
C875 C 0.25343 0.83446 0.20408 0.0
C876 C 0.27729 0.82859 0.20362 0.0
C877 C 0.23701 0.8209 0.19192 0.0
C878 C 0.28472 0.80987 0.18948 0.0
C879 C 0.26848 0.79652 0.17693 0.0
H880 H 0.06497 0.46778 0.04748 0.0
H881 H 0.1074 0.51537 0.007 0.0
H882 H 0.08762 0.54866 0.0249 0.0
H883 H 0.05621 0.56411 0.04945 0.0
H884 H 0.01367 0.51679 0.09003 0.0
H885 H 0.03577 0.48347 0.07478 0.0
C886 C 0.07006 0.48543 0.04273 0.0
C887 C 0.08744 0.48907 0.02571 0.0
C888 C 0.05853 0.50451 0.05299 0.0
C889 C 0.09401 0.51206 0.01997 0.0
C890 C 0.08266 0.53112 0.03013 0.0
C891 C 0.05187 0.54651 0.0551 0.0
C892 C 0.03315 0.54287 0.07059 0.0
C893 C 0.06455 0.52752 0.04624 0.0
C894 C 0.02797 0.52003 0.07805 0.0
C895 C 0.04053 0.50098 0.06928 0.0
H896 H 0.76485 0.72636 0.15639 0.0
H897 H 0.81895 0.68642 0.19092 0.0
H898 H 0.78957 0.66123 0.20875 0.0
H899 H 0.74863 0.65312 0.21778 0.0
H900 H 0.6942 0.69409 0.18494 0.0
H901 H 0.72352 0.71612 0.16313 0.0
C902 C 0.77017 0.71184 0.16743 0.0
C903 C 0.79398 0.70833 0.17247 0.0
C904 C 0.75312 0.69777 0.17818 0.0
C905 C 0.80068 0.68958 0.18695 0.0
C906 C 0.7839 0.67519 0.1972 0.0
C907 C 0.74313 0.66668 0.20566 0.0
C908 C 0.71928 0.67209 0.20322 0.0
C909 C 0.76007 0.67955 0.19348 0.0
C910 C 0.71248 0.68967 0.18733 0.0
C911 C 0.72924 0.70231 0.17483 0.0
H912 H 0.93107 0.03047 0.04723 0.0
H913 H 0.87931 0.98115 0.02258 0.0
H914 H 0.90098 0.94911 0.04047 0.0
H915 H 0.93651 0.9346 0.05944 0.0
H916 H 0.98816 0.98338 0.08491 0.0
H917 H 0.96455 0.01619 0.0705 0.0
C918 C 0.92435 0.01276 0.04607 0.0
C919 C 0.90379 0.0082 0.03327 0.0
C920 C 0.93697 0.99431 0.05633 0.0
C921 C 0.89518 0.98518 0.03218 0.0
C922 C 0.9076 0.96679 0.04232 0.0
C923 C 0.94247 0.95244 0.06201 0.0
C924 C 0.96413 0.95665 0.07284 0.0
C925 C 0.92883 0.97108 0.05381 0.0
C926 C 0.97153 0.97979 0.07651 0.0
C927 C 0.95809 -0.00149 0.06821 0.0
H928 H 0.26321 0.24385 0.14788 0.0
H929 H 0.29845 0.29635 0.18927 0.0
H930 H 0.31888 0.26569 0.21117 0.0
H931 H 0.32407 0.2239 0.22072 0.0
H932 H 0.2866 0.1719 0.18066 0.0
H933 H 0.26979 0.20247 0.15602 0.0
C934 C 0.2756 0.24867 0.16147 0.0
C935 C 0.27922 0.27238 0.16697 0.0
C936 C 0.28675 0.231 0.17437 0.0
C937 C 0.29528 0.27823 0.18472 0.0
C938 C 0.30692 0.2607 0.19729 0.0
C939 C 0.31247 0.21927 0.20639 0.0
C940 C 0.3065 0.19568 0.20259 0.0
C941 C 0.30239 0.23701 0.1926 0.0
C942 C 0.29133 0.18994 0.18407 0.0
C943 C 0.28171 0.20741 0.16995 0.0
H944 H 0.31469 0.81444 0.3105 0.0
H945 H 0.34675 0.76728 0.26121 0.0
H946 H 0.33301 0.73365 0.28404 0.0
H947 H 0.30791 0.71804 0.31553 0.0
H948 H 0.27654 0.76597 0.36482 0.0
H949 H 0.29426 0.79892 0.34461 0.0
C950 C 0.31894 0.79677 0.30497 0.0
C951 C 0.33135 0.7932 0.28413 0.0
C952 C 0.31098 0.77771 0.31807 0.0
C953 C 0.33716 0.77035 0.27725 0.0
C954 C 0.32918 0.75117 0.2902 0.0
C955 C 0.30524 0.73567 0.32203 0.0
C956 C 0.29057 0.73954 0.3414 0.0
C957 C 0.31546 0.75466 0.31027 0.0
C958 C 0.28756 0.76246 0.34983 0.0
C959 C 0.29763 0.78137 0.33825 0.0
H960 H 0.99299 0.47251 0.89942 0.0
H961 H 0.94318 0.44507 0.94901 0.0
H962 H 0.97466 0.4248 0.9698 0.0
H963 H 0.01694 0.41833 0.97623 0.0
H964 H 0.06639 0.44767 0.92741 0.0
H965 H 0.03445 0.46347 0.9039 0.0
C966 C 0.98892 0.46187 0.9146 0.0
C967 C 0.96578 0.46055 0.92276 0.0
C968 C 0.00711 0.45066 0.92672 0.0
C969 C 0.96086 0.44653 0.9424 0.0
C970 C 0.97887 0.43496 0.95435 0.0
C971 C 0.02065 0.42778 0.9602 0.0
C972 C 0.04398 0.43197 0.95366 0.0
C973 C 0.00216 0.43739 0.94702 0.0
C974 C 0.04857 0.44439 0.93293 0.0
C975 C 0.03033 0.45347 0.91948 0.0
H976 H 0.68526 0.78472 0.31082 0.0
H977 H 0.71887 0.73736 0.35937 0.0
H978 H 0.70077 0.70412 0.33979 0.0
H979 H 0.6793 0.68829 0.30635 0.0
H980 H 0.64557 0.73501 0.25749 0.0
H981 H 0.6595 0.7688 0.27999 0.0
C982 C 0.68838 0.76715 0.3173 0.0
C983 C 0.70373 0.76352 0.33628 0.0
C984 C 0.678 0.74802 0.30586 0.0
C985 C 0.7073 0.74067 0.34469 0.0
C986 C 0.69701 0.72161 0.33347 0.0
C987 C 0.67472 0.70588 0.30082 0.0
C988 C 0.66176 0.70925 0.28017 0.0
C989 C 0.68293 0.72506 0.31365 0.0
C990 C 0.65556 0.73204 0.27336 0.0
C991 C 0.66367 0.75133 0.28611 0.0
H992 H 0.44644 0.5655 0.43595 0.0
H993 H 0.49309 0.60222 0.48266 0.0
H994 H 0.52688 0.58616 0.46186 0.0
H995 H 0.54294 0.55853 0.43282 0.0
H996 H 0.49568 0.52227 0.38616 0.0
H997 H 0.46241 0.54146 0.40444 0.0
C998 C 0.464 0.57021 0.44142 0.0
C999 C 0.46728 0.58477 0.46097 0.0
C1000 C 0.48325 0.56086 0.4295 0.0
C1001 C 0.49012 0.59102 0.46765 0.0
C1002 C 0.50944 0.58173 0.45585 0.0
C1003 C 0.52538 0.55504 0.42647 0.0
C1004 C 0.52184 0.53871 0.40835 0.0
C1005 C 0.5062 0.56614 0.43712 0.0
C1006 C 0.49897 0.53461 0.40017 0.0
C1007 C 0.47988 0.54554 0.41065 0.0
H1008 H 0.19191 0.70482 0.68224 0.0
H1009 H 0.22909 0.7519 0.63634 0.0
H1010 H 0.21097 0.78536 0.65536 0.0
H1011 H 0.18772 0.80146 0.68741 0.0
H1012 H 0.14975 0.75498 0.73307 0.0
H1013 H 0.16479 0.72112 0.71159 0.0
C1014 C 0.1958 0.72238 0.67621 0.0
C1015 C 0.2121 0.7258 0.65811 0.0
C1016 C 0.1853 0.74169 0.68726 0.0
C1017 C 0.21673 0.7487 0.65032 0.0
C1018 C 0.20644 0.76791 0.66124 0.0
C1019 C 0.18252 0.78391 0.69248 0.0
C1020 C 0.16792 0.78067 0.71194 0.0
C1021 C 0.1912 0.76462 0.6801 0.0
C1022 C 0.16101 0.7579 0.71813 0.0
C1023 C 0.16971 0.73854 0.70594 0.0
H1024 H 0.06283 0.55565 0.55527 0.0
H1025 H 0.01875 0.58887 0.50364 0.0
H1026 H 0.98387 0.57637 0.52504 0.0
H1027 H 0.96614 0.55238 0.55615 0.0
H1028 H 0.01077 0.51952 0.60773 0.0
H1029 H 0.04518 0.53577 0.58874 0.0
C1030 C 0.04558 0.56038 0.54885 0.0
C1031 C 0.0433 0.57284 0.52777 0.0
C1032 C 0.02572 0.5531 0.56115 0.0
C1033 C 0.02091 0.57923 0.51983 0.0
C1034 C 0.00099 0.57198 0.53198 0.0
C1035 C 0.98337 0.54905 0.56342 0.0
C1036 C 0.98586 0.53445 0.58312 0.0
C1037 C 0.00319 0.55836 0.55233 0.0
C1038 C 0.00831 0.53054 0.59248 0.0
C1039 C 0.02805 0.53976 0.5816 0.0
H1040 H 0.9228 0.93856 0.56331 0.0
H1041 H 0.97419 0.90528 0.51926 0.0
H1042 H 0.00541 0.91806 0.5457 0.0
H1043 H 0.01815 0.94162 0.57936 0.0
H1044 H 0.96644 0.97458 0.62343 0.0
H1045 H 0.93521 0.95862 0.59908 0.0
C1046 C 0.94083 0.93399 0.55958 0.0
C1047 C 0.94628 0.92134 0.53923 0.0
C1048 C 0.95858 0.94132 0.57482 0.0
C1049 C 0.96962 0.91511 0.5348 0.0
C1050 C 0.98745 0.92246 0.54986 0.0
C1051 C 4e-05 0.94506 0.58382 0.0
C1052 C 0.99465 0.95952 0.60299 0.0
C1053 C 0.98216 0.93599 0.56965 0.0
C1054 C 0.9711 0.96359 0.60871 0.0
C1055 C 0.95321 0.95458 0.59473 0.0
H1056 H 0.68754 0.80921 0.69775 0.0
H1057 H 0.73385 0.84799 0.7431 0.0
H1058 H 0.71476 0.83107 0.7775 0.0
H1059 H 0.68753 0.8021 0.79436 0.0
H1060 H 0.64127 0.76379 0.74835 0.0
H1061 H 0.65765 0.78382 0.71459 0.0
C1062 C 0.69326 0.8142 0.71517 0.0
C1063 C 0.71223 0.82957 0.71791 0.0
C1064 C 0.68236 0.80433 0.73475 0.0
C1065 C 0.71926 0.83616 0.74056 0.0
C1066 C 0.70846 0.82637 0.76022 0.0
C1067 C 0.68086 0.79834 0.77697 0.0
C1068 C 0.66343 0.78121 0.77391 0.0
C1069 C 0.6904 0.80993 0.7575 0.0
C1070 C 0.65478 0.77675 0.75126 0.0
C1071 C 0.66417 0.78817 0.73189 0.0
H1072 H 0.00904 0.09266 0.51673 0.0
H1073 H 0.05176 0.05412 0.46789 0.0
H1074 H 0.06896 0.03185 0.50012 0.0
H1075 H 0.06927 0.02093 0.54183 0.0
H1076 H 0.02503 0.05843 0.59013 0.0
H1077 H 0.0112 0.08355 0.5585 0.0
C1078 C 0.02234 0.07962 0.51313 0.0
C1079 C 0.02896 0.07498 0.4899 0.0
C1080 C 0.03179 0.06653 0.53166 0.0
C1081 C 0.04622 0.05797 0.48559 0.0
C1082 C 0.05605 0.04518 0.50402 0.0
C1083 C 0.05687 0.03482 0.54547 0.0
C1084 C 0.04808 0.03768 0.56826 0.0
C1085 C 0.04858 0.04894 0.52708 0.0
C1086 C 0.03193 0.0557 0.57269 0.0
C1087 C 0.02399 0.0701 0.55462 0.0
H1088 H 0.31746 0.69186 0.78141 0.0
H1089 H 0.36233 0.73252 0.73635 0.0
H1090 H 0.34239 0.71689 0.70193 0.0
H1091 H 0.31028 0.69406 0.68475 0.0
H1092 H 0.26588 0.65277 0.72964 0.0
H1093 H 0.28765 0.66618 0.76397 0.0
C1094 C 0.32305 0.69711 0.76405 0.0
C1095 C 0.34121 0.71352 0.7615 0.0
C1096 C 0.31148 0.68808 0.7443 0.0
C1097 C 0.34839 0.71995 0.73886 0.0
C1098 C 0.33692 0.7111 0.71914 0.0
C1099 C 0.30547 0.68787 0.70204 0.0
C1100 C 0.28634 0.67266 0.70467 0.0
C1101 C 0.31813 0.69556 0.72168 0.0
C1102 C 0.28052 0.66452 0.72714 0.0
C1103 C 0.29292 0.67224 0.74679 0.0
H1104 H 0.97303 0.40109 0.49108 0.0
H1105 H 0.93805 0.4437 0.43928 0.0
H1106 H 0.91926 0.4663 0.47031 0.0
H1107 H 0.91571 0.47622 0.51212 0.0
H1108 H 0.95272 0.43474 0.56342 0.0
H1109 H 0.96765 0.40937 0.53259 0.0
C1110 C 0.96104 0.4151 0.48652 0.0
C1111 C 0.95708 0.42078 0.4629 0.0
C1112 C 0.9508 0.42837 0.50438 0.0
C1113 C 0.94151 0.43903 0.45734 0.0
C1114 C 0.93079 0.45201 0.47507 0.0
C1115 C 0.92678 0.46143 0.51654 0.0
C1116 C 0.93325 0.45747 0.53998 0.0
C1117 C 0.93576 0.44719 0.49865 0.0
C1118 C 0.94768 0.4383 0.54548 0.0
C1119 C 0.95621 0.42377 0.52787 0.0
H1120 H 0.68295 0.19679 0.70818 0.0
H1121 H 0.63636 0.23596 0.75288 0.0
H1122 H 0.6549 0.21912 0.78742 0.0
H1123 H 0.68669 0.19641 0.80495 0.0
H1124 H 0.73302 0.1565 0.76085 0.0
H1125 H 0.71206 0.1703 0.726 0.0
C1126 C 0.67668 0.20142 0.72548 0.0
C1127 C 0.65853 0.21787 0.72794 0.0
C1128 C 0.68745 0.19167 0.74535 0.0
C1129 C 0.65037 0.22344 0.75046 0.0
C1130 C 0.66102 0.21389 0.77026 0.0
C1131 C 0.69203 0.19055 0.78771 0.0
C1132 C 0.71151 0.17577 0.78536 0.0
C1133 C 0.67994 0.19849 0.7679 0.0
C1134 C 0.71806 0.16793 0.76302 0.0
C1135 C 0.70617 0.17591 0.74313 0.0
H1136 H 0.44609 0.0611 0.43285 0.0
H1137 H 0.40779 0.01368 0.4773 0.0
H1138 H 0.4223 0.03424 0.51203 0.0
H1139 H 0.44914 0.06319 0.52962 0.0
H1140 H 0.48762 0.10998 0.48448 0.0
H1141 H 0.46966 0.09216 0.45019 0.0
C1142 C 0.44067 0.0554 0.45013 0.0
C1143 C 0.42612 0.03572 0.45251 0.0
C1144 C 0.4493 0.06706 0.46991 0.0
C1145 C 0.419 0.02877 0.47499 0.0
C1146 C 0.42742 0.04043 0.49485 0.0
C1147 C 0.45339 0.06967 0.5123 0.0
C1148 C 0.46997 0.0877 0.50967 0.0
C1149 C 0.44309 0.05921 0.49252 0.0
C1150 C 0.4751 0.096 0.48708 0.0
C1151 C 0.46485 0.08581 0.46741 0.0
H1152 H 0.34786 0.27823 0.74609 0.0
H1153 H 0.30167 0.30209 0.69114 0.0
H1154 H 0.27751 0.32236 0.72002 0.0
H1155 H 0.26753 0.33008 0.76133 0.0
H1156 H 0.31274 0.30371 0.81594 0.0
H1157 H 0.33932 0.28778 0.78673 0.0
C1158 C 0.33271 0.28813 0.74033 0.0
C1159 C 0.32652 0.28851 0.71651 0.0
C1160 C 0.31859 0.29915 0.75703 0.0
C1161 C 0.30678 0.30141 0.70941 0.0
C1162 C 0.29291 0.31296 0.72591 0.0
C1163 C 0.28338 0.32115 0.76677 0.0
C1164 C 0.2881 0.31793 0.79072 0.0
C1165 C 0.29834 0.31147 0.74984 0.0
C1166 C 0.30861 0.3062 0.79758 0.0
C1167 C 0.32384 0.2971 0.7809 0.0
H1168 H 0.5559 0.43893 0.43311 0.0
H1169 H 0.59246 0.48507 0.48045 0.0
H1170 H 0.57737 0.46309 0.51394 0.0
H1171 H 0.55099 0.43289 0.52966 0.0
H1172 H 0.51503 0.38654 0.48194 0.0
H1173 H 0.53293 0.40634 0.44873 0.0
C1174 C 0.56074 0.44405 0.45076 0.0
C1175 C 0.57501 0.46375 0.45434 0.0
C1176 C 0.55205 0.43136 0.46986 0.0
C1177 C 0.58145 0.46997 0.47726 0.0
C1178 C 0.57275 0.45748 0.49641 0.0
C1179 C 0.54728 0.42695 0.51201 0.0
C1180 C 0.53146 0.40844 0.50831 0.0
C1181 C 0.55761 0.43846 0.49291 0.0
C1182 C 0.52706 0.40078 0.48533 0.0
C1183 C 0.53722 0.41216 0.46628 0.0
H1184 H 0.69193 0.68306 0.80514 0.0
H1185 H 0.73811 0.72753 0.84515 0.0
H1186 H 0.77203 0.70678 0.82949 0.0
H1187 H 0.78852 0.67835 0.8018 0.0
H1188 H 0.74213 0.63371 0.76214 0.0
H1189 H 0.70834 0.65206 0.78053 0.0
C1190 C 0.70941 0.68807 0.8106 0.0
C1191 C 0.71253 0.70697 0.82602 0.0
C1192 C 0.72879 0.67612 0.80153 0.0
C1193 C 0.73525 0.71306 0.83323 0.0
C1194 C 0.75466 0.70127 0.82422 0.0
C1195 C 0.77103 0.67246 0.79737 0.0
C1196 C 0.76786 0.65489 0.78041 0.0
C1197 C 0.75164 0.68313 0.80795 0.0
C1198 C 0.74508 0.64725 0.77507 0.0
C1199 C 0.72572 0.6578 0.78551 0.0
H1200 H 0.93254 0.95702 0.44543 0.0
H1201 H 0.87956 0.00162 0.47563 0.0
H1202 H 0.89904 0.03601 0.45996 0.0
H1203 H 0.93323 0.05376 0.44156 0.0
H1204 H 0.9863 0.00986 0.41088 0.0
H1205 H 0.96451 0.97487 0.42257 0.0
C1206 C 0.92507 0.97423 0.44828 0.0
C1207 C 0.90482 0.9767 0.46203 0.0
C1208 C 0.93646 0.99409 0.43928 0.0
C1209 C 0.89524 -0.00086 0.46532 0.0
C1210 C 0.9064 0.01889 0.45642 0.0
C1211 C 0.93987 0.03652 0.43717 0.0
C1212 C 0.96145 0.03433 0.4257 0.0
C1213 C 0.92735 0.01661 0.444 0.0
C1214 C 0.96971 0.01195 0.41975 0.0
C1215 C 0.95733 0.99196 0.42655 0.0
H1216 H 0.24882 0.84153 0.77554 0.0
H1217 H 0.1977 0.79569 0.80688 0.0
H1218 H 0.2289 0.77417 0.82682 0.0
H1219 H 0.27093 0.76613 0.83227 0.0
H1220 H 0.32171 0.81089 0.79891 0.0
H1221 H 0.29039 0.83518 0.78302 0.0
C1222 C 0.24442 0.82702 0.78697 0.0
C1223 C 0.22096 0.82014 0.78955 0.0
C1224 C 0.26243 0.81443 0.79791 0.0
C1225 C 0.21563 0.8013 0.80447 0.0
C1226 C 0.23347 0.78895 0.81584 0.0
C1227 C 0.27512 0.78143 0.82185 0.0
C1228 C 0.29859 0.78662 0.81666 0.0
C1229 C 0.25697 0.79501 0.81225 0.0
C1230 C 0.30377 0.80641 0.803 0.0
C1231 C 0.28587 0.8203 0.79389 0.0
H1232 H 0.06612 0.53355 0.43543 0.0
H1233 H 0.1071 0.48517 0.47676 0.0
H1234 H 0.08781 0.45226 0.45774 0.0
H1235 H 0.05702 0.43723 0.43214 0.0
H1236 H 0.01577 0.485 0.39058 0.0
H1237 H 0.03773 0.51813 0.40666 0.0
C1238 C 0.07101 0.51581 0.4401 0.0
C1239 C 0.08784 0.51188 0.45774 0.0
C1240 C 0.05977 0.49686 0.42912 0.0
C1241 C 0.09413 0.48876 0.46338 0.0
C1242 C 0.08307 0.46989 0.45254 0.0
C1243 C 0.05299 0.45488 0.42638 0.0
C1244 C 0.03462 0.45869 0.41041 0.0
C1245 C 0.06551 0.47374 0.43581 0.0
C1246 C 0.02983 0.48161 0.40287 0.0
C1247 C 0.04229 0.50056 0.41217 0.0
H1248 H 0.74815 0.35186 0.71973 0.0
H1249 H 0.80185 0.30898 0.68852 0.0
H1250 H 0.77205 0.28618 0.66798 0.0
H1251 H 0.73058 0.27632 0.66155 0.0
H1252 H 0.67714 0.31801 0.69472 0.0
H1253 H 0.70697 0.34344 0.71163 0.0
C1254 C 0.75339 0.33774 0.70819 0.0
C1255 C 0.7772 0.33208 0.70577 0.0
C1256 C 0.73616 0.32435 0.69687 0.0
C1257 C 0.78363 0.31365 0.6908 0.0
C1258 C 0.7666 0.30056 0.67906 0.0
C1259 C 0.72548 0.29118 0.67219 0.0
C1260 C 0.70169 0.2952 0.67696 0.0
C1261 C 0.74278 0.30544 0.68236 0.0
C1262 C 0.69535 0.31443 0.69092 0.0
C1263 C 0.71239 0.32899 0.70061 0.0
H1264 H 0.56172 0.96157 0.55454 0.0
H1265 H 0.61428 0.00355 0.52019 0.0
H1266 H 0.59653 0.03902 0.53564 0.0
H1267 H 0.56388 0.05834 0.55528 0.0
H1268 H 0.51121 0.01691 0.58987 0.0
H1269 H 0.53139 0.98101 0.57817 0.0
C1270 C 0.56949 0.97845 0.55071 0.0
C1271 C 0.58909 0.97987 0.53592 0.0
C1272 C 0.55909 -0.0011 0.55954 0.0
C1273 C 0.59908 0.00189 0.53136 0.0
C1274 C 0.58891 0.02225 0.54012 0.0
C1275 C 0.55695 0.04146 0.56049 0.0
C1276 C 0.53594 0.04024 0.57311 0.0
C1277 C 0.56855 0.02098 0.55364 0.0
C1278 C 0.52736 0.01828 0.58008 0.0
C1279 C 0.53882 -0.00225 0.5733 0.0
H1280 H 0.2672 0.21826 0.6586 0.0
H1281 H 0.32267 0.17908 0.69178 0.0
H1282 H 0.29406 0.15363 0.71051 0.0
H1283 H 0.25365 0.14524 0.7208 0.0
H1284 H 0.19769 0.18584 0.69018 0.0
H1285 H 0.22607 0.20782 0.66693 0.0
C1286 C 0.27294 0.20384 0.66956 0.0
C1287 C 0.29694 0.20056 0.67392 0.0
C1288 C 0.25634 0.18971 0.68093 0.0
C1289 C 0.30424 0.18201 0.68833 0.0
C1290 C 0.28792 0.16748 0.69907 0.0
C1291 C 0.24756 0.15867 0.70882 0.0
C1292 C 0.22359 0.16401 0.70741 0.0
C1293 C 0.26395 0.1716 0.69603 0.0
C1294 C 0.21607 0.18145 0.69172 0.0
C1295 C 0.23229 0.19408 0.67845 0.0
H1296 H 0.47273 0.47762 0.57886 0.0
H1297 H 0.43272 0.4291 0.5369 0.0
H1298 H 0.40986 0.46139 0.52077 0.0
H1299 H 0.4037 0.50343 0.5159 0.0
H1300 H 0.44516 0.55224 0.55606 0.0
H1301 H 0.46483 0.51975 0.57576 0.0
C1302 C 0.45877 0.47408 0.56645 0.0
C1303 C 0.45452 0.45103 0.55897 0.0
C1304 C 0.44607 0.49278 0.5568 0.0
C1305 C 0.43646 0.44673 0.5428 0.0
C1306 C 0.42339 0.46517 0.53355 0.0
C1307 C 0.41681 0.507 0.52919 0.0
C1308 C 0.42307 0.53022 0.53438 0.0
C1309 C 0.42842 0.48829 0.54001 0.0
C1310 C 0.44012 0.53452 0.55162 0.0
C1311 C 0.4514 0.51595 0.56287 0.0
H1312 H 0.83467 0.72824 0.7249 0.0
H1313 H 0.79936 0.67723 0.68173 0.0
H1314 H 0.78139 0.70847 0.65884 0.0
H1315 H 0.77278 0.75 0.6534 0.0
H1316 H 0.80642 0.80125 0.69762 0.0
H1317 H 0.82809 0.77022 0.71758 0.0
C1318 C 0.82336 0.72399 0.71024 0.0
C1319 C 0.81823 0.70046 0.70514 0.0
C1320 C 0.8126 0.74207 0.69744 0.0
C1321 C 0.80343 0.69522 0.68616 0.0
C1322 C 0.79312 0.71306 0.67305 0.0
C1323 C 0.78506 0.75445 0.6672 0.0
C1324 C 0.78779 0.7779 0.67411 0.0
C1325 C 0.79711 0.73653 0.67891 0.0
C1326 C 0.80384 0.78332 0.69202 0.0
C1327 C 0.81623 0.76558 0.70349 0.0
H1328 H 0.83922 0.27013 0.77058 0.0
H1329 H 0.81025 0.32485 0.81372 0.0
H1330 H 0.79249 0.29574 0.83932 0.0
H1331 H 0.78121 0.25536 0.84648 0.0
H1332 H 0.80749 0.20032 0.80194 0.0
H1333 H 0.83055 0.22889 0.78003 0.0
C1334 C 0.82944 0.27558 0.78589 0.0
C1335 C 0.82584 0.29949 0.79024 0.0
C1336 C 0.81858 0.25873 0.80009 0.0
C1337 C 0.81302 0.30647 0.80997 0.0
C1338 C 0.80284 0.28987 0.82457 0.0
C1339 C 0.79221 0.2495 0.83218 0.0
C1340 C 0.79237 0.22581 0.82565 0.0
C1341 C 0.80485 0.26602 0.81932 0.0
C1342 C 0.8069 0.21852 0.8072 0.0
C1343 C 0.82004 0.23485 0.79463 0.0
H1344 H 0.56193 0.94733 0.44183 0.0
H1345 H 0.51495 0.90536 0.48338 0.0
H1346 H 0.48169 0.91971 0.46054 0.0
H1347 H 0.46577 0.94637 0.43077 0.0
H1348 H 0.51289 0.98829 0.38927 0.0
H1349 H 0.54631 0.97153 0.40999 0.0
C1350 C 0.54443 0.94118 0.44581 0.0
C1351 C 0.5409 0.9255 0.46446 0.0
C1352 C 0.52542 0.94953 0.43266 0.0
C1353 C 0.51816 0.91748 0.46917 0.0
C1354 C 0.49912 0.92573 0.45616 0.0
C1355 C 0.48335 0.95168 0.42607 0.0
C1356 C 0.48678 0.96875 0.40864 0.0
C1357 C 0.50251 0.94209 0.43816 0.0
C1358 C 0.50971 0.97525 0.40265 0.0
C1359 C 0.52885 0.96574 0.41456 0.0
H1360 H 0.19091 0.28388 0.81121 0.0
H1361 H 0.23046 0.24196 0.86029 0.0
H1362 H 0.21447 0.20638 0.84321 0.0
H1363 H 0.19252 0.18708 0.81193 0.0
H1364 H 0.15215 0.22838 0.76321 0.0
H1365 H 0.16501 0.26432 0.78271 0.0
C1366 C 0.19578 0.26697 0.81835 0.0
C1367 C 0.21212 0.26559 0.83675 0.0
C1368 C 0.18652 0.24648 0.80843 0.0
C1369 C 0.21802 0.24356 0.84603 0.0
C1370 C 0.20897 0.22316 0.83623 0.0
C1371 C 0.18635 0.20396 0.80576 0.0
C1372 C 0.17173 0.20519 0.78603 0.0
C1373 C 0.19373 0.22441 0.81704 0.0
C1374 C 0.16348 0.22706 0.77839 0.0
C1375 C 0.17091 0.24759 0.78945 0.0
H1376 H 0.99282 0.00738 0.89991 0.0
H1377 H 0.04247 0.05232 0.93495 0.0
H1378 H 0.01055 0.07199 0.95543 0.0
H1379 H 0.96886 0.07432 0.96559 0.0
H1380 H 0.91969 0.02774 0.93204 0.0
H1381 H 0.95114 0.01091 0.90866 0.0
C1382 C 0.99668 0.02167 0.9118 0.0
C1383 C 0.02 0.02831 0.91596 0.0
C1384 C 0.97833 0.03251 0.9239 0.0
C1385 C 0.02467 0.0468 0.93151 0.0
C1386 C 0.00643 0.05803 0.94326 0.0
C1387 C 0.96499 0.0607 0.95294 0.0
C1388 C 0.942 0.05222 0.95062 0.0
C1389 C 0.98324 0.05072 0.93992 0.0
C1390 C 0.93727 0.03446 0.93427 0.0
C1391 C 0.95524 0.02483 0.92089 0.0
H1392 H 0.69346 0.21269 0.17756 0.0
H1393 H 0.73791 0.25849 0.13725 0.0
H1394 H 0.72113 0.2925 0.15677 0.0
H1395 H 0.69637 0.30898 0.18761 0.0
H1396 H 0.65111 0.26359 0.22735 0.0
H1397 H 0.6655 0.22969 0.20556 0.0
C1398 C 0.69928 0.23013 0.17288 0.0
C1399 C 0.7171 0.23302 0.15618 0.0
C1400 C 0.68951 0.24967 0.18414 0.0
C1401 C 0.72426 0.25575 0.15008 0.0
C1402 C 0.71475 0.27522 0.1613 0.0
C1403 C 0.68948 0.29169 0.19133 0.0
C1404 C 0.67293 0.28873 0.20923 0.0
C1405 C 0.69777 0.27235 0.17872 0.0
C1406 C 0.66389 0.26631 0.21365 0.0
C1407 C 0.67219 0.24691 0.20128 0.0
H1408 H 0.56385 0.07115 0.05892 0.0
H1409 H 0.5152 0.0968 0.00714 0.0
H1410 H 0.48242 0.08126 0.02998 0.0
H1411 H 0.46855 0.05543 0.06174 0.0
H1412 H 0.51817 0.02936 0.11268 0.0
H1413 H 0.54962 0.05021 0.09315 0.0
C1414 C 0.54602 0.07371 0.05286 0.0
C1415 C 0.54185 0.08471 0.0313 0.0
C1416 C 0.5275 0.0644 0.06577 0.0
C1417 C 0.51874 0.08832 0.02374 0.0
C1418 C 0.50006 0.07927 0.03668 0.0
C1419 C 0.48617 0.05463 0.06877 0.0
C1420 C 0.49107 0.04045 0.08834 0.0
C1421 C 0.50434 0.06648 0.05727 0.0
C1422 C 0.51395 0.03983 0.09742 0.0
C1423 C 0.53198 0.05174 0.08628 0.0
H1424 H 0.48644 0.46688 0.10279 0.0
H1425 H 0.54072 0.43649 0.06005 0.0
H1426 H 0.51119 0.416 0.03679 0.0
H1427 H 0.46983 0.4107 0.02578 0.0
H1428 H 0.41602 0.44359 0.06721 0.0
H1429 H 0.44554 0.45899 0.09394 0.0
C1430 C 0.4919 0.45551 0.08861 0.0
C1431 C 0.51572 0.45346 0.08298 0.0
C1432 C 0.47487 0.44439 0.07495 0.0
C1433 C 0.52246 0.43852 0.06465 0.0
C1434 C 0.50558 0.42686 0.05129 0.0
C1435 C 0.46459 0.42087 0.04091 0.0
C1436 C 0.44085 0.42621 0.04443 0.0
C1437 C 0.48171 0.43026 0.05584 0.0
C1438 C 0.43424 0.43948 0.06402 0.0
C1439 C 0.45109 0.4483 0.0793 0.0
H1440 H 0.08639 0.3007 0.33248 0.0
H1441 H 0.12156 0.28896 0.39838 0.0
H1442 H 0.0958 0.31715 0.41749 0.0
H1443 H 0.06278 0.34448 0.41566 0.0
H1444 H 0.02895 0.35805 0.34942 0.0
H1445 H 0.05483 0.32996 0.33017 0.0
C1446 C 0.08835 0.30434 0.35102 0.0
C1447 C 0.10566 0.29269 0.36407 0.0
C1448 C 0.07381 0.32092 0.36179 0.0
C1449 C 0.10833 0.29776 0.38799 0.0
C1450 C 0.09361 0.31383 0.39893 0.0
C1451 C 0.06114 0.34132 0.397 0.0
C1452 C 0.04394 0.35316 0.38399 0.0
C1453 C 0.07623 0.32543 0.38603 0.0
C1454 C 0.04215 0.34918 0.35978 0.0
C1455 C 0.05685 0.33305 0.34879 0.0
H1456 H 0.60398 0.66971 0.82948 0.0
H1457 H 0.61307 0.70881 0.89341 0.0
H1458 H 0.58724 0.68155 0.91401 0.0
H1459 H 0.56019 0.64791 0.91306 0.0
H1460 H 0.55305 0.6078 0.84944 0.0
H1461 H 0.58013 0.63407 0.8295 0.0
C1462 C 0.60041 0.67214 0.84797 0.0
C1463 C 0.61014 0.6913 0.8599 0.0
C1464 C 0.58586 0.65629 0.8597 0.0
C1465 C 0.60575 0.69412 0.88391 0.0
C1466 C 0.59091 0.67863 0.89564 0.0
C1467 C 0.56471 0.64488 0.89488 0.0
C1468 C 0.55449 0.62612 0.88265 0.0
C1469 C 0.58057 0.65986 0.8836 0.0
C1470 C 0.56072 0.62213 0.85922 0.0
C1471 C 0.57612 0.63718 0.84778 0.0
H1472 H 0.90315 0.18412 0.34462 0.0
H1473 H 0.86212 0.19535 0.40692 0.0
H1474 H 0.88858 0.17013 0.42923 0.0
H1475 H 0.92435 0.14621 0.43138 0.0
H1476 H 0.96441 0.13381 0.36866 0.0
H1477 H 0.93733 0.15815 0.34617 0.0
C1478 C 0.89993 0.18096 0.36305 0.0
C1479 C 0.8808 0.19173 0.37413 0.0
C1480 C 0.9151 0.16632 0.37572 0.0
C1481 C 0.8767 0.18724 0.39796 0.0
C1482 C 0.89189 0.1729 0.41076 0.0
C1483 C 0.92711 0.14881 0.41278 0.0
C1484 C 0.94646 0.1384 0.40174 0.0
C1485 C 0.9113 0.16258 0.39988 0.0
C1486 C 0.94964 0.14164 0.37757 0.0
C1487 C 0.9342 0.1556 0.36471 0.0
H1488 H 0.44344 0.83651 0.91328 0.0
H1489 H 0.4544 0.88001 0.85253 0.0
H1490 H 0.42989 0.854 0.82904 0.0
H1491 H 0.407 0.81775 0.82528 0.0
H1492 H 0.39403 0.77551 0.88645 0.0
H1493 H 0.41765 0.80215 0.9103 0.0
C1494 C 0.44029 0.84038 0.89494 0.0
C1495 C 0.45084 0.86004 0.88461 0.0
C1496 C 0.42597 0.82549 0.8816 0.0
C1497 C 0.44642 0.86501 0.86091 0.0
C1498 C 0.43252 0.85008 0.84743 0.0
C1499 C 0.40933 0.81446 0.84385 0.0
C1500 C 0.39908 0.79462 0.85409 0.0
C1501 C 0.4225 0.83009 0.85751 0.0
C1502 C 0.40182 0.7907 0.87822 0.0
C1503 C 0.41534 0.80587 0.89183 0.0
H1504 H 0.10022 0.68504 0.15756 0.0
H1505 H 0.13588 0.69761 0.09229 0.0
H1506 H 0.10749 0.67302 0.0717 0.0
H1507 H 0.07078 0.65051 0.07192 0.0
H1508 H 0.03608 0.63681 0.13749 0.0
H1509 H 0.0659 0.6593 0.15837 0.0
C1510 C 0.10192 0.68218 0.13887 0.0
C1511 C 0.11993 0.69328 0.1264 0.0
C1512 C 0.08561 0.66803 0.12721 0.0
C1513 C 0.12215 0.68921 0.10226 0.0
C1514 C 0.10585 0.67529 0.09047 0.0
C1515 C 0.06985 0.65238 0.09079 0.0
C1516 C 0.05115 0.64234 0.10315 0.0
C1517 C 0.08721 0.66505 0.1027 0.0
C1518 C 0.05031 0.64447 0.12762 0.0
C1519 C 0.06731 0.65736 0.13955 0.0
H1520 H 0.90293 0.68422 0.17355 0.0
H1521 H 0.8921 0.7218 0.10892 0.0
H1522 H 0.91683 0.69384 0.08815 0.0
H1523 H 0.94183 0.659 0.08845 0.0
H1524 H 0.95071 0.61971 0.15236 0.0
H1525 H 0.92626 0.64788 0.17333 0.0
C1526 C 0.9061 0.68626 0.15494 0.0
C1527 C 0.89595 0.70508 0.14278 0.0
C1528 C 0.91984 0.66977 0.143 0.0
C1529 C 0.89977 0.7074 0.11861 0.0
C1530 C 0.9139 0.69145 0.10674 0.0
C1531 C 0.93835 0.65658 0.10696 0.0
C1532 C 0.94814 0.63743 0.11889 0.0
C1533 C 0.92404 0.6726 0.11876 0.0
C1534 C 0.94328 0.63431 0.14279 0.0
C1535 C 0.92941 0.65046 0.1548 0.0
H1536 H 0.89733 0.81386 0.15749 0.0
H1537 H 0.86226 0.80088 0.09177 0.0
H1538 H 0.89035 0.826 0.07158 0.0
H1539 H 0.92666 0.84902 0.07225 0.0
H1540 H 0.96101 0.86297 0.13813 0.0
H1541 H 0.9313 0.84011 0.15871 0.0
C1542 C 0.8957 0.81673 0.13878 0.0
C1543 C 0.87793 0.80535 0.12607 0.0
C1544 C 0.91186 0.83118 0.12734 0.0
C1545 C 0.87579 0.80946 0.10192 0.0
C1546 C 0.89193 0.8237 0.09036 0.0
C1547 C 0.92755 0.84715 0.09113 0.0
C1548 C 0.94613 0.85735 0.10366 0.0
C1549 C 0.91032 0.8342 0.10282 0.0
C1550 C 0.94688 0.8552 0.12814 0.0
C1551 C 0.92996 0.84209 0.13988 0.0
H1552 H 0.0561 0.84016 0.08726 0.0
H1553 H 0.04769 0.87909 0.15139 0.0
H1554 H 0.07248 0.85098 0.17212 0.0
H1555 H 0.09576 0.81479 0.17216 0.0
H1556 H 0.10638 0.7774 0.10748 0.0
H1557 H 0.08145 0.80543 0.08675 0.0
C1558 C 0.05977 0.84249 0.10576 0.0
C1559 C 0.05001 0.86152 0.11784 0.0
C1560 C 0.07432 0.82651 0.11744 0.0
C1561 C 0.0551 0.86458 0.14172 0.0
C1562 C 0.06917 0.84848 0.15359 0.0
C1563 C 0.09254 0.81281 0.15354 0.0
C1564 C 0.10261 0.79402 0.14135 0.0
C1565 C 0.07871 0.82928 0.14167 0.0
C1566 C 0.09874 0.79178 0.11717 0.0
C1567 C 0.08449 0.80776 0.10534 0.0
H1568 H 0.33404 0.08722 0.30229 0.0
H1569 H 0.39343 0.13208 0.28987 0.0
H1570 H 0.4176 0.10768 0.31542 0.0
H1571 H 0.42227 0.0726 0.33999 0.0
H1572 H 0.36239 0.02887 0.35389 0.0
H1573 H 0.33799 0.05384 0.32914 0.0
C1574 C 0.35224 0.09171 0.30528 0.0
C1575 C 0.36198 0.1113 0.29408 0.0
C1576 C 0.36597 0.07776 0.32019 0.0
C1577 C 0.38551 0.11709 0.29833 0.0
C1578 C 0.39937 0.10309 0.31285 0.0
C1579 C 0.40386 0.06861 0.33764 0.0
C1580 C 0.39418 0.04884 0.34857 0.0
C1581 C 0.38986 0.08324 0.32366 0.0
C1582 C 0.37024 0.04402 0.34566 0.0
C1583 C 0.35629 0.05825 0.33146 0.0
H1584 H 0.33935 0.41288 0.93581 0.0
H1585 H 0.37944 0.34987 0.94737 0.0
H1586 H 0.35407 0.32851 0.92042 0.0
H1587 H 0.3186 0.32698 0.89631 0.0
H1588 H 0.27924 0.39007 0.88329 0.0
H1589 H 0.30636 0.41232 0.90801 0.0
C1590 C 0.34264 0.39454 0.93221 0.0
C1591 C 0.361 0.38287 0.94374 0.0
C1592 C 0.32808 0.3824 0.91661 0.0
C1593 C 0.36537 0.35921 0.9387 0.0
C1594 C 0.35081 0.34695 0.92341 0.0
C1595 C 0.31611 0.34564 0.89878 0.0
C1596 C 0.29688 0.3569 0.8884 0.0
C1597 C 0.33182 0.35825 0.91272 0.0
C1598 C 0.29397 0.38111 0.89123 0.0
C1599 C 0.30938 0.39378 0.9054 0.0
H1600 H 0.65951 0.40024 0.30751 0.0
H1601 H 0.59351 0.36669 0.29258 0.0
H1602 H 0.57336 0.39464 0.31779 0.0
H1603 H 0.57424 0.42967 0.34259 0.0
H1604 H 0.64032 0.46236 0.35893 0.0
H1605 H 0.66074 0.43359 0.33473 0.0
C1606 C 0.64073 0.39899 0.30987 0.0
C1607 C 0.62799 0.38156 0.29805 0.0
C1608 C 0.62929 0.41498 0.32457 0.0
C1609 C 0.60372 0.37995 0.3015 0.0
C1610 C 0.59217 0.39597 0.31584 0.0
C1611 C 0.59313 0.43044 0.34091 0.0
C1612 C 0.60575 0.44822 0.35231 0.0
C1613 C 0.60474 0.41372 0.32722 0.0
C1614 C 0.63023 0.44882 0.3503 0.0
C1615 C 0.64189 0.43243 0.33641 0.0
H1616 H 0.62604 0.14893 0.94041 0.0
H1617 H 0.65254 0.0786 0.9334 0.0
H1618 H 0.68228 0.09223 0.90594 0.0
H1619 H 0.7022 0.12446 0.88591 0.0
H1620 H 0.67762 0.19524 0.89533 0.0
H1621 H 0.64563 0.18114 0.91985 0.0
C1622 C 0.63814 0.13659 0.9326 0.0
C1623 C 0.63714 0.11284 0.9388 0.0
C1624 C 0.65563 0.14465 0.91744 0.0
C1625 C 0.65309 0.09701 0.92888 0.0
C1626 C 0.67008 0.10477 0.91322 0.0
C1627 C 0.6897 0.13676 0.89316 0.0
C1628 C 0.69223 0.16081 0.88887 0.0
C1629 C 0.67174 0.12861 0.90768 0.0
C1630 C 0.67608 0.17661 0.89853 0.0
C1631 C 0.65778 0.16858 0.91251 0.0
H1632 H 0.40123 0.87844 0.19904 0.0
H1633 H 0.33227 0.90758 0.18903 0.0
H1634 H 0.34816 0.93711 0.16256 0.0
H1635 H 0.38192 0.95578 0.14376 0.0
H1636 H 0.45115 0.92804 0.15582 0.0
H1637 H 0.43488 0.89679 0.17991 0.0
C1638 C 0.38966 0.89112 0.19088 0.0
C1639 C 0.36565 0.89085 0.19595 0.0
C1640 C 0.39898 0.90836 0.17614 0.0
C1641 C 0.35087 0.90752 0.18546 0.0
C1642 C 0.35992 0.92439 0.17032 0.0
C1643 C 0.3934 0.94276 0.1515 0.0
C1644 C 0.41766 0.9442 0.14805 0.0
C1645 C 0.38399 0.92515 0.16576 0.0
C1646 C 0.43239 0.92736 0.15835 0.0
C1647 C 0.42312 0.90948 0.1721 0.0
H1648 H 0.19794 0.38076 0.1047 0.0
H1649 H 0.16706 0.31227 0.09761 0.0
H1650 H 0.13736 0.32802 0.07108 0.0
H1651 H 0.12164 0.36079 0.04799 0.0
H1652 H 0.15456 0.42854 0.05261 0.0
H1653 H 0.18188 0.41366 0.08203 0.0
C1654 C 0.18451 0.36939 0.09756 0.0
C1655 C 0.18462 0.34544 0.10311 0.0
C1656 C 0.16794 0.37841 0.08175 0.0
C1657 C 0.16735 0.33078 0.0935 0.0
C1658 C 0.15038 0.33976 0.07834 0.0
C1659 C 0.13463 0.37233 0.05566 0.0
C1660 C 0.13609 0.3957 0.04818 0.0
C1661 C 0.15072 0.36348 0.07205 0.0
C1662 C 0.15318 0.41042 0.05802 0.0
C1663 C 0.16879 0.40194 0.07485 0.0
H1664 H 0.59516 0.62128 0.19324 0.0
H1665 H 0.66608 0.59778 0.18279 0.0
H1666 H 0.65225 0.56637 0.1573 0.0
H1667 H 0.61986 0.54406 0.14014 0.0
H1668 H 0.54874 0.56596 0.1528 0.0
H1669 H 0.56276 0.59949 0.17525 0.0
C1670 C 0.60756 0.60948 0.18507 0.0
C1671 C 0.63155 0.61179 0.1898 0.0
C1672 C 0.59944 0.59103 0.17105 0.0
C1673 C 0.64748 0.59623 0.17942 0.0
C1674 C 0.63961 0.57827 0.16489 0.0
C1675 C 0.60745 0.55627 0.14767 0.0
C1676 C 0.58333 0.55249 0.14491 0.0
C1677 C 0.6156 0.57524 0.16094 0.0
C1678 C 0.56743 0.56839 0.15485 0.0
C1679 C 0.57541 0.5876 0.16764 0.0
H1680 H 0.81861 0.16973 0.08529 0.0
H1681 H 0.77995 0.10825 0.10579 0.0
H1682 H 0.80465 0.08395 0.08077 0.0
H1683 H 0.83629 0.08046 0.05192 0.0
H1684 H 0.87616 0.14167 0.03295 0.0
H1685 H 0.85202 0.16578 0.05863 0.0
C1686 C 0.81566 0.151 0.08431 0.0
C1687 C 0.79741 0.1408 0.09717 0.0
C1688 C 0.83012 0.13711 0.07017 0.0
C1689 C 0.79395 0.11649 0.09604 0.0
C1690 C 0.808 0.1026 0.0817 0.0
C1691 C 0.83972 0.09906 0.0535 0.0
C1692 C 0.85783 0.10931 0.04045 0.0
C1693 C 0.82598 0.11276 0.06851 0.0
C1694 C 0.86232 0.13337 0.04286 0.0
C1695 C 0.84849 0.14719 0.05746 0.0
H1696 H 0.33008 0.42482 0.06529 0.0
H1697 H 0.34638 0.3601 0.03013 0.0
H1698 H 0.32167 0.33856 0.05769 0.0
H1699 H 0.29491 0.33839 0.0915 0.0
H1700 H 0.28088 0.40305 0.1279 0.0
H1701 H 0.30533 0.42436 0.10021 0.0
C1702 C 0.32816 0.406 0.06365 0.0
C1703 C 0.33978 0.39406 0.04563 0.0
C1704 C 0.3144 0.39375 0.07981 0.0
C1705 C 0.33754 0.36964 0.0439 0.0
C1706 C 0.32341 0.35735 0.05961 0.0
C1707 C 0.29727 0.35713 0.09336 0.0
C1708 C 0.28603 0.36915 0.11162 0.0
C1709 C 0.31168 0.36925 0.07759 0.0
C1710 C 0.28942 0.39339 0.11403 0.0
C1711 C 0.30332 0.40561 0.09816 0.0
H1712 H 0.31281 0.67082 0.4069 0.0
H1713 H 0.2982 0.60684 0.36954 0.0
H1714 H 0.32603 0.58575 0.39434 0.0
H1715 H 0.35309 0.58517 0.4278 0.0
H1716 H 0.36902 0.64948 0.46405 0.0
H1717 H 0.34222 0.67085 0.43837 0.0
C1718 C 0.3158 0.65228 0.40416 0.0
C1719 C 0.30333 0.64033 0.38662 0.0
C1720 C 0.33202 0.64035 0.41826 0.0
C1721 C 0.3076 0.6164 0.38297 0.0
C1722 C 0.32344 0.60432 0.39717 0.0
C1723 C 0.35077 0.60389 0.42998 0.0
C1724 C 0.36282 0.61571 0.44789 0.0
C1725 C 0.33553 0.61607 0.41504 0.0
C1726 C 0.35994 0.64 0.45035 0.0
C1727 C 0.34455 0.65221 0.43575 0.0
H1728 H 0.90335 0.44464 0.84809 0.0
H1729 H 0.83646 0.45317 0.88183 0.0
H1730 H 0.81784 0.42929 0.85151 0.0
H1731 H 0.82046 0.407 0.81465 0.0
H1732 H 0.88782 0.39665 0.78241 0.0
H1733 H 0.9064 0.42036 0.81284 0.0
C1734 C 0.88471 0.44116 0.84886 0.0
C1735 C 0.87126 0.45075 0.86706 0.0
C1736 C 0.87421 0.42727 0.83155 0.0
C1737 C 0.84719 0.4459 0.86803 0.0
C1738 C 0.83652 0.43237 0.85063 0.0
C1739 C 0.83919 0.41004 0.8143 0.0
C1740 C 0.85276 0.40038 0.79624 0.0
C1741 C 0.84982 0.42319 0.83217 0.0
C1742 C 0.87705 0.40399 0.79616 0.0
C1743 C 0.88767 0.41753 0.81352 0.0
H1744 H 0.64761 0.91965 0.42798 0.0
H1745 H 0.63482 0.85589 0.46631 0.0
H1746 H 0.65678 0.8336 0.43713 0.0
H1747 H 0.68174 0.8328 0.40221 0.0
H1748 H 0.69314 0.89628 0.36295 0.0
H1749 H 0.66923 0.91815 0.39085 0.0
C1750 C 0.64958 0.90085 0.42985 0.0
C1751 C 0.63996 0.88941 0.44936 0.0
C1752 C 0.66188 0.88816 0.41286 0.0
C1753 C 0.64217 0.86503 0.45143 0.0
C1754 C 0.65475 0.85232 0.43481 0.0
C1755 C 0.67877 0.85138 0.39965 0.0
C1756 C 0.68934 0.86299 0.38073 0.0
C1757 C 0.66497 0.86377 0.41567 0.0
C1758 C 0.68514 0.88697 0.37738 0.0
C1759 C 0.67161 0.8995 0.3934 0.0
H1760 H 0.58933 0.55656 0.33867 0.0
H1761 H 0.65348 0.55025 0.37815 0.0
H1762 H 0.67334 0.57594 0.35031 0.0
H1763 H 0.6727 0.59924 0.31398 0.0
H1764 H 0.6079 0.60701 0.27584 0.0
H1765 H 0.58806 0.5817 0.30391 0.0
C1766 C 0.60764 0.56088 0.34122 0.0
C1767 C 0.61997 0.55141 0.36032 0.0
C1768 C 0.61884 0.57584 0.32534 0.0
C1769 C 0.6436 0.55738 0.36358 0.0
C1770 C 0.65499 0.57197 0.34763 0.0
C1771 C 0.65425 0.59536 0.31186 0.0
C1772 C 0.64182 0.6048 0.2928 0.0
C1773 C 0.64283 0.58112 0.32831 0.0
C1774 C 0.61783 0.59996 0.2904 0.0
C1775 C 0.60649 0.58545 0.30641 0.0
H1776 H 0.15397 0.56964 0.56622 0.0
H1777 H 0.14351 0.63235 0.52545 0.0
H1778 H 0.1683 0.65437 0.55257 0.0
H1779 H 0.19406 0.65543 0.58723 0.0
H1780 H 0.2027 0.59306 0.62901 0.0
H1781 H 0.17745 0.57133 0.60222 0.0
C1782 C 0.15708 0.58814 0.56333 0.0
C1783 C 0.14709 0.59932 0.54379 0.0
C1784 C 0.17104 0.60075 0.57916 0.0
C1785 C 0.15098 0.62336 0.5404 0.0
C1786 C 0.16522 0.63594 0.55585 0.0
C1787 C 0.19034 0.6371 0.59048 0.0
C1788 C 0.20036 0.62584 0.60997 0.0
C1789 C 0.17551 0.62476 0.57518 0.0
C1790 C 0.19517 0.60216 0.61415 0.0
C1791 C 0.18079 0.58968 0.5988 0.0
H1792 H 0.82741 0.59286 0.67224 0.0
H1793 H 0.89035 0.60606 0.71186 0.0
H1794 H 0.91309 0.58304 0.68386 0.0
H1795 H 0.91457 0.55752 0.64926 0.0
H1796 H 0.85198 0.54617 0.60844 0.0
H1797 H 0.82959 0.57039 0.63561 0.0
C1798 C 0.84612 0.59072 0.67465 0.0
C1799 C 0.8572 0.60082 0.69415 0.0
C1800 C 0.85909 0.57788 0.65828 0.0
C1801 C 0.88149 0.59836 0.69695 0.0
C1802 C 0.89446 0.58518 0.681 0.0
C1803 C 0.89607 0.56054 0.64623 0.0
C1804 C 0.88487 0.54995 0.62704 0.0
C1805 C 0.88338 0.57464 0.66177 0.0
C1806 C 0.86098 0.5542 0.62309 0.0
C1807 C 0.84814 0.56792 0.63868 0.0
H1808 H 0.10883 0.88192 0.71354 0.0
H1809 H 0.17594 0.89464 0.6816 0.0
H1810 H 0.15793 0.92196 0.654 0.0
H1811 H 0.12349 0.94382 0.64033 0.0
H1812 H 0.05694 0.93319 0.67417 0.0
H1813 H 0.0743 0.90344 0.69956 0.0
C1814 C 0.11944 0.89048 0.70036 0.0
C1815 C 0.14364 0.88626 0.69956 0.0
C1816 C 0.10909 0.90665 0.68498 0.0
C1817 C 0.15726 0.89769 0.6826 0.0
C1818 C 0.14699 0.9133 0.66682 0.0
C1819 C 0.11276 0.93481 0.65311 0.0
C1820 C 0.08899 0.94067 0.65537 0.0
C1821 C 0.12297 0.91816 0.66805 0.0
C1822 C 0.07533 0.92906 0.67217 0.0
C1823 C 0.08522 0.91203 0.68668 0.0
H1824 H 0.59808 0.80078 0.84316 0.0
H1825 H 0.63726 0.78997 0.90693 0.0
H1826 H 0.60976 0.81464 0.92834 0.0
H1827 H 0.57359 0.83775 0.92927 0.0
H1828 H 0.53563 0.85066 0.86521 0.0
H1829 H 0.56369 0.82673 0.84346 0.0
C1830 C 0.60063 0.80396 0.86171 0.0
C1831 C 0.61949 0.79346 0.87353 0.0
C1832 C 0.58495 0.81842 0.87383 0.0
C1833 C 0.62286 0.79793 0.89748 0.0
C1834 C 0.6071 0.81193 0.90974 0.0
C1835 C 0.57154 0.83533 0.91054 0.0
C1836 C 0.55252 0.84563 0.89883 0.0
C1837 C 0.58793 0.82199 0.89816 0.0
C1838 C 0.55019 0.84281 0.87453 0.0
C1839 C 0.56616 0.82911 0.86213 0.0
H1840 H 0.0542 0.11733 0.36549 0.0
H1841 H 0.05123 0.15413 0.43134 0.0
H1842 H 0.07762 0.18417 0.41608 0.0
H1843 H 0.0993 0.20142 0.38288 0.0
H1844 H 0.09912 0.16578 0.31633 0.0
H1845 H 0.07642 0.13376 0.33302 0.0
C1846 C 0.05956 0.13175 0.37662 0.0
C1847 C 0.05079 0.13352 0.39949 0.0
C1848 C 0.07411 0.14924 0.36754 0.0
C1849 C 0.05769 0.15245 0.41362 0.0
C1850 C 0.07277 0.16963 0.40491 0.0
C1851 C 0.09452 0.18646 0.37221 0.0
C1852 C 0.10078 0.18588 0.34846 0.0
C1853 C 0.08077 0.16842 0.38174 0.0
C1854 C 0.09431 0.1666 0.33465 0.0
C1855 C 0.08135 0.1483 0.34416 0.0
H1856 H 0.42721 0.64371 0.91784 0.0
H1857 H 0.46953 0.63443 0.85617 0.0
H1858 H 0.44286 0.65954 0.83375 0.0
H1859 H 0.40871 0.686 0.83251 0.0
H1860 H 0.36547 0.69328 0.89391 0.0
H1861 H 0.3912 0.66691 0.91558 0.0
C1862 C 0.4305 0.6471 0.89944 0.0
C1863 C 0.45039 0.63754 0.88869 0.0
C1864 C 0.41496 0.6612 0.88667 0.0
C1865 C 0.45429 0.64166 0.86478 0.0
C1866 C 0.43912 0.65607 0.85201 0.0
C1867 C 0.40485 0.68165 0.85058 0.0
C1868 C 0.38535 0.69174 0.86166 0.0
C1869 C 0.41958 0.66622 0.86288 0.0
C1870 C 0.38036 0.68572 0.88498 0.0
C1871 C 0.39512 0.67073 0.89742 0.0
H1872 H 0.93714 0.34717 0.40124 0.0
H1873 H 0.94719 0.379 0.33352 0.0
H1874 H 0.92346 0.34832 0.31528 0.0
H1875 H 0.90154 0.31127 0.31847 0.0
H1876 H 0.89005 0.28079 0.38658 0.0
H1877 H 0.91282 0.31208 0.40483 0.0
C1878 C 0.93397 0.34749 0.3825 0.0
C1879 C 0.94401 0.36519 0.3687 0.0
C1880 C 0.92028 0.32993 0.37221 0.0
C1881 C 0.93956 0.36559 0.34451 0.0
C1882 C 0.92615 0.34797 0.33406 0.0
C1883 C 0.90409 0.31151 0.3373 0.0
C1884 C 0.89445 0.29365 0.35118 0.0
C1885 C 0.91675 0.32984 0.34771 0.0
C1886 C 0.89741 0.29434 0.37557 0.0
C1887 C 0.9104 0.31221 0.386 0.0
H1888 H 0.59536 0.1927 0.65632 0.0
H1889 H 0.63865 0.20082 0.59508 0.0
H1890 H 0.6134 0.17398 0.57332 0.0
H1891 H 0.57761 0.15024 0.571 0.0
H1892 H 0.5352 0.1409 0.63267 0.0
H1893 H 0.56162 0.1661 0.65502 0.0
C1894 C 0.59936 0.18844 0.63825 0.0
C1895 C 0.61868 0.1989 0.62724 0.0
C1896 C 0.58488 0.17289 0.62592 0.0
C1897 C 0.62386 0.19299 0.60395 0.0
C1898 C 0.60938 0.17774 0.59146 0.0
C1899 C 0.57425 0.15363 0.58937 0.0
C1900 C 0.55437 0.14396 0.60012 0.0
C1901 C 0.58962 0.16791 0.60216 0.0
C1902 C 0.55039 0.14817 0.62401 0.0
C1903 C 0.56543 0.16263 0.63678 0.0
H1904 H 0.39567 0.20554 0.61409 0.0
H1905 H 0.40672 0.18116 0.68474 0.0
H1906 H 0.43239 0.15011 0.67041 0.0
H1907 H 0.45244 0.13053 0.63789 0.0
H1908 H 0.44425 0.15704 0.56766 0.0
H1909 H 0.4166 0.18658 0.58164 0.0
C1910 C 0.40363 0.19332 0.62629 0.0
C1911 C 0.3993 0.1955 0.65038 0.0
C1912 C 0.41884 0.17594 0.61799 0.0
C1913 C 0.40992 0.17983 0.6661 0.0
C1914 C 0.42452 0.16206 0.65793 0.0
C1915 C 0.44441 0.14266 0.62566 0.0
C1916 C 0.45013 0.14158 0.6018 0.0
C1917 C 0.42919 0.16002 0.63393 0.0
C1918 C 0.44003 0.15761 0.58613 0.0
C1919 C 0.42425 0.17447 0.5941 0.0
H1920 H 0.42592 0.33732 0.56319 0.0
H1921 H 0.45831 0.3588 0.62805 0.0
H1922 H 0.43073 0.33479 0.65009 0.0
H1923 H 0.39865 0.30638 0.65082 0.0
H1924 H 0.36507 0.28597 0.58624 0.0
H1925 H 0.39174 0.31111 0.56418 0.0
C1926 C 0.42687 0.33676 0.58215 0.0
C1927 C 0.44424 0.3496 0.59398 0.0
C1928 C 0.41076 0.32318 0.59474 0.0
C1929 C 0.44509 0.34904 0.61855 0.0
C1930 C 0.42937 0.33529 0.63116 0.0
C1931 C 0.39708 0.30754 0.63192 0.0
C1932 C 0.38008 0.2942 0.62014 0.0
C1933 C 0.41232 0.3221 0.61942 0.0
C1934 C 0.37801 0.29611 0.5957 0.0
C1935 C 0.39332 0.31038 0.58308 0.0
H1936 H 0.55515 0.34249 0.57937 0.0
H1937 H 0.5414 0.38275 0.64175 0.0
H1938 H 0.56734 0.35732 0.66432 0.0
H1939 H 0.59233 0.32251 0.66676 0.0
H1940 H 0.60807 0.28346 0.60416 0.0
H1941 H 0.58303 0.30962 0.58115 0.0
C1942 C 0.55798 0.34574 0.59787 0.0
C1943 C 0.54626 0.3643 0.60894 0.0
C1944 C 0.57317 0.33125 0.61068 0.0
C1945 C 0.55027 0.36857 0.63284 0.0
C1946 C 0.56501 0.35399 0.64578 0.0
C1947 C 0.59032 0.31982 0.64806 0.0
C1948 C 0.60173 0.30102 0.63715 0.0
C1949 C 0.57628 0.33511 0.63495 0.0
C1950 C 0.59939 0.29787 0.61288 0.0
C1951 C 0.58504 0.31275 0.59976 0.0
H1952 H 0.91842 0.57084 0.85088 0.0
H1953 H 0.8527 0.53583 0.86303 0.0
H1954 H 0.83322 0.56213 0.83546 0.0
H1955 H 0.83527 0.59374 0.80643 0.0
H1956 H 0.9004 0.63021 0.79566 0.0
H1957 H 0.91972 0.60477 0.82428 0.0
C1958 C 0.89981 0.56909 0.84757 0.0
C1959 C 0.88705 0.55132 0.8588 0.0
C1960 C 0.88866 0.58446 0.83192 0.0
C1961 C 0.86289 0.54941 0.85463 0.0
C1962 C 0.85176 0.56436 0.8388 0.0
C1963 C 0.85367 0.59616 0.81044 0.0
C1964 C 0.86648 0.61361 0.79882 0.0
C1965 C 0.86453 0.58173 0.82712 0.0
C1966 C 0.8902 0.61686 0.80442 0.0
C1967 C 0.90126 0.60228 0.8207 0.0
H1968 H 0.83554 0.90609 0.43982 0.0
H1969 H 0.87553 0.84298 0.45099 0.0
H1970 H 0.84809 0.821 0.4266 0.0
H1971 H 0.81173 0.81941 0.40357 0.0
H1972 H 0.77307 0.88293 0.39046 0.0
H1973 H 0.80099 0.90513 0.41419 0.0
C1974 C 0.8383 0.88756 0.43677 0.0
C1975 C 0.85737 0.87611 0.44729 0.0
C1976 C 0.82264 0.87511 0.42254 0.0
C1977 C 0.86097 0.85217 0.443 0.0
C1978 C 0.84524 0.83957 0.42918 0.0
C1979 C 0.80949 0.83812 0.40594 0.0
C1980 C 0.79033 0.84954 0.39561 0.0
C1981 C 0.82584 0.8508 0.41914 0.0
C1982 C 0.78774 0.87382 0.39835 0.0
C1983 C 0.80364 0.88649 0.41191 0.0
H1984 H 0.15685 0.89489 0.80743 0.0
H1985 H 0.092 0.85702 0.79943 0.0
H1986 H 0.0724 0.8847 0.82535 0.0
H1987 H 0.07323 0.9206 0.84881 0.0
H1988 H 0.13827 0.95773 0.85824 0.0
H1989 H 0.15831 0.92931 0.8333 0.0
C1990 C 0.13845 0.89265 0.81146 0.0
C1991 C 0.12585 0.87406 0.80138 0.0
C1992 C 0.12733 0.90851 0.82655 0.0
C1993 C 0.1021 0.87118 0.80698 0.0
C1994 C 0.09085 0.88705 0.82173 0.0
C1995 C 0.09181 0.92243 0.84545 0.0
C1996 C 0.10423 0.94133 0.85512 0.0
C1997 C 0.10323 0.90592 0.83136 0.0
C1998 C 0.12835 0.9433 0.85096 0.0
C1999 C 0.13979 0.92711 0.83666 0.0
H2000 H 0.13032 0.64124 0.44638 0.0
H2001 H 0.15937 0.57277 0.43378 0.0
H2002 H 0.19026 0.59004 0.40967 0.0
H2003 H 0.21002 0.62493 0.39388 0.0
H2004 H 0.1827 0.69349 0.4098 0.0
H2005 H 0.15011 0.67592 0.43099 0.0
C2006 C 0.14323 0.63011 0.43805 0.0
C2007 C 0.14255 0.60582 0.44157 0.0
C2008 C 0.16135 0.64021 0.42506 0.0
C2009 C 0.15961 0.59155 0.43118 0.0
C2010 C 0.17725 0.60141 0.41748 0.0
C2011 C 0.19684 0.63596 0.40191 0.0
C2012 C 0.1987 0.66041 0.40034 0.0
C2013 C 0.17848 0.62576 0.41457 0.0
C2014 C 0.18169 0.67459 0.41097 0.0
C2015 C 0.16302 0.66458 0.42299 0.0
H2016 H 0.84313 0.40285 0.68485 0.0
H2017 H 0.90772 0.36706 0.70083 0.0
H2018 H 0.92905 0.3937 0.67511 0.0
H2019 H 0.92961 0.42859 0.65003 0.0
H2020 H 0.86484 0.4634 0.63272 0.0
H2021 H 0.84321 0.43561 0.65701 0.0
C2022 C 0.86185 0.4008 0.68255 0.0
C2023 C 0.8739 0.38322 0.69486 0.0
C2024 C 0.87393 0.41604 0.66765 0.0
C2025 C 0.89808 0.38049 0.69151 0.0
C2026 C 0.91029 0.39577 0.67691 0.0
C2027 C 0.91075 0.43001 0.65154 0.0
C2028 C 0.89882 0.44811 0.63991 0.0
C2029 C 0.89845 0.41384 0.66523 0.0
C2030 C 0.87436 0.44958 0.64159 0.0
C2031 C 0.86202 0.43377 0.6555 0.0
H2032 H 0.6533 0.91073 0.56162 0.0
H2033 H 0.61488 0.84641 0.55254 0.0
H2034 H 0.64106 0.82658 0.58005 0.0
H2035 H 0.6759 0.82716 0.60546 0.0
H2036 H 0.71288 0.89206 0.61633 0.0
H2037 H 0.68617 0.91208 0.58949 0.0
C2038 C 0.65064 0.8924 0.56576 0.0
C2039 C 0.63236 0.87998 0.55494 0.0
C2040 C 0.6655 0.88123 0.58188 0.0
C2041 C 0.62884 0.85633 0.56068 0.0
C2042 C 0.64384 0.84497 0.57634 0.0
C2043 C 0.678 0.84571 0.60202 0.0
C2044 C 0.6964 0.85809 0.61269 0.0
C2045 C 0.66238 0.85718 0.58685 0.0
C2046 C 0.69879 0.88218 0.60835 0.0
C2047 C 0.6836 0.89361 0.59294 0.0
H2048 H 0.10959 0.03495 0.66074 0.0
H2049 H 0.04228 0.06159 0.68209 0.0
H2050 H 0.06133 0.0935 0.70323 0.0
H2051 H 0.09707 0.11363 0.71582 0.0
H2052 H 0.16445 0.08565 0.69666 0.0
H2053 H 0.1454 0.05448 0.67426 0.0
C2054 C 0.09911 0.04776 0.67001 0.0
C2055 C 0.07459 0.04598 0.66983 0.0
C2056 C 0.11017 0.06583 0.68238 0.0
C2057 C 0.0612 0.06253 0.68209 0.0
C2058 C 0.07206 0.08083 0.69408 0.0
C2059 C 0.10755 0.10082 0.70654 0.0
C2060 C 0.13206 0.10198 0.70763 0.0
C2061 C 0.09652 0.08265 0.69431 0.0
C2062 C 0.14551 0.08507 0.69597 0.0
C2063 C 0.13465 0.06727 0.68322 0.0
H2064 H 0.35362 0.59337 0.55604 0.0
H2065 H 0.38858 0.6599 0.54896 0.0
H2066 H 0.35972 0.67813 0.57464 0.0
H2067 H 0.32323 0.67564 0.59705 0.0
H2068 H 0.28921 0.60887 0.60579 0.0
H2069 H 0.31914 0.59014 0.58158 0.0
C2070 C 0.35499 0.61182 0.56028 0.0
C2071 C 0.37303 0.62534 0.55046 0.0
C2072 C 0.33849 0.62212 0.57522 0.0
C2073 C 0.37485 0.64914 0.55633 0.0
C2074 C 0.3583 0.65959 0.57091 0.0
C2075 C 0.32246 0.65696 0.59373 0.0
C2076 C 0.30395 0.64365 0.60288 0.0
C2077 C 0.33984 0.64633 0.58011 0.0
C2078 C 0.30332 0.61943 0.59886 0.0
C2079 C 0.32036 0.60876 0.58497 0.0
H2080 H 0.84049 0.9245 0.56971 0.0
H2081 H 0.85086 0.85793 0.53572 0.0
H2082 H 0.82808 0.83847 0.56631 0.0
H2083 H 0.80376 0.84084 0.60169 0.0
H2084 H 0.79519 0.90721 0.63667 0.0
H2085 H 0.81901 0.92634 0.60681 0.0
C2086 C 0.83776 0.90573 0.56905 0.0
C2087 C 0.847 0.89266 0.55041 0.0
C2088 C 0.82507 0.89468 0.58686 0.0
C2089 C 0.84381 0.86831 0.54992 0.0
C2090 C 0.83077 0.85722 0.56735 0.0
C2091 C 0.80726 0.85947 0.60284 0.0
C2092 C 0.79759 0.87266 0.6212 0.0
C2093 C 0.82112 0.87028 0.58575 0.0
C2094 C 0.80248 0.8967 0.62271 0.0
C2095 C 0.81598 0.90766 0.60558 0.0
H2096 H 0.84822 0.11802 0.94914 0.0
H2097 H 0.8283 0.0489 0.92618 0.0
H2098 H 0.80425 0.06582 0.89504 0.0
H2099 H 0.78794 0.10029 0.87514 0.0
H2100 H 0.80563 0.16935 0.89997 0.0
H2101 H 0.8316 0.15245 0.92954 0.0
C2102 C 0.83872 0.10669 0.93721 0.0
C2103 C 0.84003 0.0823 0.93986 0.0
C2104 C 0.82452 0.11652 0.91973 0.0
C2105 C 0.82744 0.06777 0.9245 0.0
C2106 C 0.81374 0.07741 0.90669 0.0
C2107 C 0.79765 0.1116 0.88691 0.0
C2108 C 0.795 0.13597 0.88538 0.0
C2109 C 0.81203 0.10176 0.90424 0.0
C2110 C 0.80738 0.15049 0.90091 0.0
C2111 C 0.82222 0.14086 0.91778 0.0
H2112 H 0.38106 0.89391 0.28899 0.0
H2113 H 0.31102 0.90286 0.31549 0.0
H2114 H 0.32594 0.92708 0.34746 0.0
H2115 H 0.35871 0.94718 0.36685 0.0
H2116 H 0.42824 0.94074 0.33847 0.0
H2117 H 0.4138 0.91388 0.30842 0.0
C2118 C 0.3691 0.90104 0.30186 0.0
C2119 C 0.345 0.89662 0.2999 0.0
C2120 C 0.37773 0.91537 0.31987 0.0
C2121 C 0.32965 0.90615 0.31656 0.0
C2122 C 0.33817 0.91993 0.33487 0.0
C2123 C 0.3707 0.93962 0.35427 0.0
C2124 C 0.39448 0.94576 0.3549 0.0
C2125 C 0.36214 0.92484 0.33658 0.0
C2126 C 0.40983 0.93622 0.33827 0.0
C2127 C 0.40159 0.92092 0.32109 0.0
H2128 H 0.18884 0.3399 0.89977 0.0
H2129 H 0.19712 0.40041 0.85537 0.0
H2130 H 0.17298 0.4236 0.88197 0.0
H2131 H 0.15139 0.42716 0.91904 0.0
H2132 H 0.14145 0.36609 0.96228 0.0
H2133 H 0.16442 0.34258 0.93495 0.0
C2134 C 0.18518 0.35812 0.89583 0.0
C2135 C 0.19487 0.36851 0.87578 0.0
C2136 C 0.17118 0.37125 0.91108 0.0
C2137 C 0.18978 0.39202 0.87069 0.0
C2138 C 0.17612 0.40532 0.88596 0.0
C2139 C 0.15426 0.40869 0.9224 0.0
C2140 C 0.14505 0.39838 0.94272 0.0
C2141 C 0.16707 0.39521 0.9064 0.0
C2142 C 0.14845 0.37438 0.94674 0.0
C2143 C 0.16159 0.36095 0.93116 0.0
H2144 H 0.14579 0.0477 0.87292 0.0
H2145 H 0.07675 0.05029 0.84231 0.0
H2146 H 0.09028 0.07851 0.81321 0.0
H2147 H 0.12215 0.10097 0.7953 0.0
H2148 H 0.19183 0.09614 0.8241 0.0
H2149 H 0.17764 0.07039 0.85514 0.0
C2150 C 0.13368 0.05463 0.86001 0.0
C2151 C 0.11033 0.04697 0.85975 0.0
C2152 C 0.14172 0.07038 0.84297 0.0
C2153 C 0.09486 0.05586 0.84277 0.0
C2154 C 0.10256 0.07201 0.82616 0.0
C2155 C 0.13416 0.09447 0.80854 0.0
C2156 C 0.15796 0.10047 0.80749 0.0
C2157 C 0.12601 0.07918 0.82592 0.0
C2158 C 0.17342 0.09169 0.82453 0.0
C2159 C 0.16533 0.07698 0.84227 0.0
H2160 H 0.64951 0.07876 0.06665 0.0
H2161 H 0.6432 0.14128 0.02475 0.0
H2162 H 0.66768 0.16268 0.05261 0.0
H2163 H 0.69223 0.16312 0.08796 0.0
H2164 H 0.69698 0.10118 0.13095 0.0
H2165 H 0.67148 0.08013 0.10376 0.0
C2166 C 0.6535 0.09708 0.06368 0.0
C2167 C 0.64483 0.10838 0.04359 0.0
C2168 C 0.6672 0.10938 0.07998 0.0
C2169 C 0.64973 0.13221 0.0401 0.0
C2170 C 0.66374 0.14444 0.05598 0.0
C2171 C 0.68753 0.14507 0.09147 0.0
C2172 C 0.69661 0.13367 0.11133 0.0
C2173 C 0.67275 0.13314 0.07586 0.0
C2174 C 0.69016 0.11037 0.11581 0.0
C2175 C 0.6757 0.09828 0.1002 0.0
H2176 H 0.36327 0.04438 0.12827 0.0
H2177 H 0.4299 0.05521 0.16221 0.0
H2178 H 0.41156 0.08165 0.19044 0.0
H2179 H 0.37615 0.10043 0.20635 0.0
H2180 H 0.30927 0.08679 0.17396 0.0
H2181 H 0.32814 0.0628 0.14411 0.0
C2182 C 0.37381 0.05269 0.14173 0.0
C2183 C 0.39786 0.04796 0.14315 0.0
C2184 C 0.36308 0.06731 0.15818 0.0
C2185 C 0.41129 0.05857 0.16084 0.0
C2186 C 0.40084 0.07369 0.17695 0.0
C2187 C 0.36582 0.09236 0.1926 0.0
C2188 C 0.34144 0.09535 0.19223 0.0
C2189 C 0.3767 0.07802 0.1759 0.0
C2190 C 0.3281 0.0846 0.17458 0.0
C2191 C 0.33885 0.07092 0.15753 0.0
H2192 H 0.61817 0.39087 0.20799 0.0
H2193 H 0.68835 0.40234 0.18289 0.0
H2194 H 0.67347 0.42877 0.15266 0.0
H2195 H 0.64056 0.44929 0.1339 0.0
H2196 H 0.57072 0.4397 0.16073 0.0
H2197 H 0.5854 0.41188 0.18972 0.0
C2198 C 0.63017 0.39905 0.19579 0.0
C2199 C 0.65429 0.3946 0.19758 0.0
C2200 C 0.62156 0.41462 0.17883 0.0
C2201 C 0.66969 0.40554 0.18188 0.0
C2202 C 0.66121 0.42063 0.16458 0.0
C2203 C 0.62856 0.44101 0.14602 0.0
C2204 C 0.6046 0.44648 0.14514 0.0
C2205 C 0.63719 0.4254 0.16297 0.0
C2206 C 0.58928 0.43584 0.16112 0.0
C2207 C 0.59764 0.41989 0.17767 0.0
loop_
_geom_bond_atom_site_label_1
_geom_bond_atom_site_label_2
_geom_bond_distance
_geom_bond_site_symmetry_2
_ccdc_geom_bond_type
C0 O2 1.247 . S
C0 O4 1.258 . S
C1 O8 1.247 . S
C1 O9 1.258 . S
O2 C0 1.247 . S
O2 Zn3 2.028 . S
Zn3 O2 2.028 . S
Zn3 O7 2.035 . S
Zn3 O9 2.035 . S
Zn3 O10 2.028 . S
O4 C0 1.258 . S
O4 Zn5 2.035 . S
Zn5 O4 2.035 . S
Zn5 O6 2.028 . S
Zn5 O8 2.028 . S
Zn5 O11 2.035 . S
O6 Zn5 2.028 . S
O6 C12 1.247 . S
O7 Zn3 2.035 . S
O7 C12 1.258 . S
O8 C1 1.247 . S
O8 Zn5 2.028 . S
O9 C1 1.258 . S
O9 Zn3 2.035 . S
O10 Zn3 2.028 . S
O10 C13 1.247 . S
O11 Zn5 2.035 . S
O11 C13 1.258 . S
C12 O6 1.247 . S
C12 O7 1.258 . S
C13 O10 1.247 . S
C13 O11 1.258 . S
C14 O16 1.247 . S
C14 O18 1.258 . S
C15 O22 1.247 . S
C15 O23 1.258 . S
O16 C14 1.247 . S
O16 Zn17 2.028 . S
Zn17 O16 2.028 . S
Zn17 O21 2.035 . S
Zn17 O23 2.035 . S
Zn17 O24 2.028 . S
O18 C14 1.258 . S
O18 Zn19 2.035 . S
Zn19 O18 2.035 . S
Zn19 O20 2.028 . S
Zn19 O22 2.028 . S
Zn19 O25 2.035 . S
O20 Zn19 2.028 . S
O20 C26 1.247 . S
O21 Zn17 2.035 . S
O21 C26 1.258 . S
O22 C15 1.247 . S
O22 Zn19 2.028 . S
O23 C15 1.258 . S
O23 Zn17 2.035 . S
O24 Zn17 2.028 . S
O24 C27 1.247 . S
O25 Zn19 2.035 . S
O25 C27 1.258 . S
C26 O20 1.247 . S
C26 O21 1.258 . S
C27 O24 1.247 . S
C27 O25 1.258 . S
C28 O30 1.247 . S
C28 O32 1.258 . S
C29 O36 1.247 . S
C29 O37 1.258 . S
O30 C28 1.247 . S
O30 Zn31 2.028 . S
Zn31 O30 2.028 . S
Zn31 O35 2.035 . S
Zn31 O37 2.035 . S
Zn31 O38 2.028 . S
O32 C28 1.258 . S
O32 Zn33 2.035 . S
Zn33 O32 2.035 . S
Zn33 O34 2.028 . S
Zn33 O36 2.028 . S
Zn33 O39 2.035 . S
O34 Zn33 2.028 . S
O34 C40 1.247 . S
O35 Zn31 2.035 . S
O35 C40 1.258 . S
O36 C29 1.247 . S
O36 Zn33 2.028 . S
O37 C29 1.258 . S
O37 Zn31 2.035 . S
O38 Zn31 2.028 . S
O38 C41 1.247 . S
O39 Zn33 2.035 . S
O39 C41 1.258 . S
C40 O34 1.247 . S
C40 O35 1.258 . S
C41 O38 1.247 . S
C41 O39 1.258 . S
C42 O44 1.247 . S
C42 O46 1.258 . S
C43 O50 1.247 . S
C43 O51 1.258 . S
O44 C42 1.247 . S
O44 Zn45 2.028 . S
Zn45 O44 2.028 . S
Zn45 O49 2.035 . S
Zn45 O51 2.035 . S
Zn45 O52 2.028 . S
O46 C42 1.258 . S
O46 Zn47 2.035 . S
Zn47 O46 2.035 . S
Zn47 O48 2.028 . S
Zn47 O50 2.028 . S
Zn47 O53 2.035 . S
O48 Zn47 2.028 . S
O48 C54 1.247 . S
O49 Zn45 2.035 . S
O49 C54 1.258 . S
O50 C43 1.247 . S
O50 Zn47 2.028 . S
O51 C43 1.258 . S
O51 Zn45 2.035 . S
O52 Zn45 2.028 . S
O52 C55 1.247 . S
O53 Zn47 2.035 . S
O53 C55 1.258 . S
C54 O48 1.247 . S
C54 O49 1.258 . S
C55 O52 1.247 . S
C55 O53 1.258 . S
C56 O58 1.247 . S
C56 O60 1.258 . S
C57 O64 1.247 . S
C57 O65 1.258 . S
O58 C56 1.247 . S
O58 Zn59 2.028 . S
Zn59 O58 2.028 . S
Zn59 O63 2.035 . S
Zn59 O65 2.035 . S
Zn59 O66 2.028 . S
O60 C56 1.258 . S
O60 Zn61 2.035 . S
Zn61 O60 2.035 . S
Zn61 O62 2.028 . S
Zn61 O64 2.028 . S
Zn61 O67 2.035 . S
O62 Zn61 2.028 . S
O62 C68 1.247 . S
O63 Zn59 2.035 . S
O63 C68 1.258 . S
O64 C57 1.247 . S
O64 Zn61 2.028 . S
O65 C57 1.258 . S
O65 Zn59 2.035 . S
O66 Zn59 2.028 . S
O66 C69 1.247 . S
O67 Zn61 2.035 . S
O67 C69 1.258 . S
C68 O62 1.247 . S
C68 O63 1.258 . S
C69 O66 1.247 . S
C69 O67 1.258 . S
C70 O72 1.247 . S
C70 O74 1.258 . S
C71 O78 1.247 . S
C71 O79 1.258 . S
O72 C70 1.247 . S
O72 Zn73 2.028 . S
Zn73 O72 2.028 . S
Zn73 O77 2.035 . S
Zn73 O79 2.035 1_455 S
Zn73 O80 2.028 1_455 S
O74 C70 1.258 . S
O74 Zn75 2.035 1_455 S
Zn75 O74 2.035 1_655 S
Zn75 O76 2.028 1_655 S
Zn75 O78 2.028 . S
Zn75 O81 2.035 . S
O76 Zn75 2.028 1_455 S
O76 C82 1.247 . S
O77 Zn73 2.035 . S
O77 C82 1.258 . S
O78 C71 1.247 . S
O78 Zn75 2.028 . S
O79 C71 1.258 . S
O79 Zn73 2.035 1_655 S
O80 Zn73 2.028 1_655 S
O80 C83 1.247 . S
O81 Zn75 2.035 . S
O81 C83 1.258 . S
C82 O76 1.247 . S
C82 O77 1.258 . S
C83 O80 1.247 . S
C83 O81 1.258 . S
C84 O86 1.247 . S
C84 O88 1.258 . S
C85 O92 1.247 . S
C85 O93 1.258 . S
O86 C84 1.247 . S
O86 Zn87 2.028 . S
Zn87 O86 2.028 . S
Zn87 O91 2.035 . S
Zn87 O93 2.035 . S
Zn87 O94 2.028 . S
O88 C84 1.258 . S
O88 Zn89 2.035 . S
Zn89 O88 2.035 . S
Zn89 O90 2.028 . S
Zn89 O92 2.028 . S
Zn89 O95 2.035 . S
O90 Zn89 2.028 . S
O90 C96 1.247 . S
O91 Zn87 2.035 . S
O91 C96 1.258 . S
O92 C85 1.247 . S
O92 Zn89 2.028 . S
O93 C85 1.258 . S
O93 Zn87 2.035 . S
O94 Zn87 2.028 . S
O94 C97 1.247 . S
O95 Zn89 2.035 . S
O95 C97 1.258 . S
C96 O90 1.247 . S
C96 O91 1.258 . S
C97 O94 1.247 . S
C97 O95 1.258 . S
C98 O100 1.247 . S
C98 O102 1.258 . S
C99 O106 1.247 . S
C99 O107 1.258 . S
O100 C98 1.247 . S
O100 Zn101 2.028 . S
Zn101 O100 2.028 . S
Zn101 O105 2.035 . S
Zn101 O107 2.035 1_655 S
Zn101 O108 2.028 1_655 S
O102 C98 1.258 . S
O102 Zn103 2.035 1_655 S
Zn103 O102 2.035 1_455 S
Zn103 O104 2.028 1_455 S
Zn103 O106 2.028 . S
Zn103 O109 2.035 . S
O104 Zn103 2.028 1_655 S
O104 C110 1.247 . S
O105 Zn101 2.035 . S
O105 C110 1.258 . S
O106 C99 1.247 . S
O106 Zn103 2.028 . S
O107 C99 1.258 . S
O107 Zn101 2.035 1_455 S
O108 Zn101 2.028 1_455 S
O108 C111 1.247 . S
O109 Zn103 2.035 . S
O109 C111 1.258 . S
C110 O104 1.247 . S
C110 O105 1.258 . S
C111 O108 1.247 . S
C111 O109 1.258 . S
C112 O114 1.247 . S
C112 O116 1.258 . S
C113 O120 1.247 . S
C113 O121 1.258 . S
O114 C112 1.247 . S
O114 Zn115 2.028 . S
Zn115 O114 2.028 . S
Zn115 O119 2.035 . S
Zn115 O121 2.035 . S
Zn115 O122 2.028 . S
O116 C112 1.258 . S
O116 Zn117 2.035 . S
Zn117 O116 2.035 . S
Zn117 O118 2.028 . S
Zn117 O120 2.028 . S
Zn117 O123 2.035 . S
O118 Zn117 2.028 . S
O118 C124 1.247 . S
O119 Zn115 2.035 . S
O119 C124 1.258 . S
O120 C113 1.247 . S
O120 Zn117 2.028 . S
O121 C113 1.258 . S
O121 Zn115 2.035 . S
O122 Zn115 2.028 . S
O122 C125 1.247 . S
O123 Zn117 2.035 . S
O123 C125 1.258 . S
C124 O118 1.247 . S
C124 O119 1.258 . S
C125 O122 1.247 . S
C125 O123 1.258 . S
C126 O128 1.247 . S
C126 O130 1.258 . S
C127 O134 1.247 . S
C127 O135 1.258 . S
O128 C126 1.247 . S
O128 Zn129 2.028 . S
Zn129 O128 2.028 . S
Zn129 O133 2.035 . S
Zn129 O135 2.035 1_556 S
Zn129 O136 2.028 1_556 S
O130 C126 1.258 . S
O130 Zn131 2.035 1_556 S
Zn131 O130 2.035 1_554 S
Zn131 O132 2.028 1_554 S
Zn131 O134 2.028 . S
Zn131 O137 2.035 . S
O132 Zn131 2.028 1_556 S
O132 C138 1.247 . S
O133 Zn129 2.035 . S
O133 C138 1.258 . S
O134 C127 1.247 . S
O134 Zn131 2.028 . S
O135 C127 1.258 . S
O135 Zn129 2.035 1_554 S
O136 Zn129 2.028 1_554 S
O136 C139 1.247 . S
O137 Zn131 2.035 . S
O137 C139 1.258 . S
C138 O132 1.247 . S
C138 O133 1.258 . S
C139 O136 1.247 . S
C139 O137 1.258 . S
C140 O142 1.247 . S
C140 O144 1.258 . S
C141 O148 1.247 . S
C141 O149 1.258 . S
O142 C140 1.247 . S
O142 Zn143 2.028 . S
Zn143 O142 2.028 . S
Zn143 O147 2.035 . S
Zn143 O149 2.035 . S
Zn143 O150 2.028 . S
O144 C140 1.258 . S
O144 Zn145 2.035 . S
Zn145 O144 2.035 . S
Zn145 O146 2.028 . S
Zn145 O148 2.028 . S
Zn145 O151 2.035 . S
O146 Zn145 2.028 . S
O146 C152 1.247 . S
O147 Zn143 2.035 . S
O147 C152 1.258 . S
O148 C141 1.247 . S
O148 Zn145 2.028 . S
O149 C141 1.258 . S
O149 Zn143 2.035 . S
O150 Zn143 2.028 . S
O150 C153 1.247 . S
O151 Zn145 2.035 . S
O151 C153 1.258 . S
C152 O146 1.247 . S
C152 O147 1.258 . S
C153 O150 1.247 . S
C153 O151 1.258 . S
C154 O156 1.247 . S
C154 O158 1.258 . S
C155 O162 1.247 . S
C155 O163 1.258 . S
O156 C154 1.247 . S
O156 Zn157 2.028 1_554 S
Zn157 O156 2.028 1_556 S
Zn157 O161 2.035 1_556 S
Zn157 O163 2.035 . S
Zn157 O164 2.028 . S
O158 C154 1.258 . S
O158 Zn159 2.035 . S
Zn159 O158 2.035 . S
Zn159 O160 2.028 . S
Zn159 O162 2.028 1_554 S
Zn159 O165 2.035 1_554 S
O160 Zn159 2.028 . S
O160 C166 1.247 . S
O161 Zn157 2.035 1_554 S
O161 C166 1.258 . S
O162 C155 1.247 . S
O162 Zn159 2.028 1_556 S
O163 C155 1.258 . S
O163 Zn157 2.035 . S
O164 Zn157 2.028 . S
O164 C167 1.247 . S
O165 Zn159 2.035 1_556 S
O165 C167 1.258 . S
C166 O160 1.247 . S
C166 O161 1.258 . S
C167 O164 1.247 . S
C167 O165 1.258 . S
C168 O170 1.247 . S
C168 O172 1.258 . S
C169 O176 1.247 . S
C169 O177 1.258 . S
O170 C168 1.247 . S
O170 Zn171 2.028 . S
Zn171 O170 2.028 . S
Zn171 O175 2.035 . S
Zn171 O177 2.035 . S
Zn171 O178 2.028 . S
O172 C168 1.258 . S
O172 Zn173 2.035 . S
Zn173 O172 2.035 . S
Zn173 O174 2.028 . S
Zn173 O176 2.028 . S
Zn173 O179 2.035 . S
O174 Zn173 2.028 . S
O174 C180 1.247 . S
O175 Zn171 2.035 . S
O175 C180 1.258 . S
O176 C169 1.247 . S
O176 Zn173 2.028 . S
O177 C169 1.258 . S
O177 Zn171 2.035 . S
O178 Zn171 2.028 . S
O178 C181 1.247 . S
O179 Zn173 2.035 . S
O179 C181 1.258 . S
C180 O174 1.247 . S
C180 O175 1.258 . S
C181 O178 1.247 . S
C181 O179 1.258 . S
C182 O184 1.247 . S
C182 O186 1.258 . S
C183 O190 1.247 . S
C183 O191 1.258 . S
O184 C182 1.247 . S
O184 Zn185 2.028 . S
Zn185 O184 2.028 . S
Zn185 O189 2.035 . S
Zn185 O191 2.035 1_554 S
Zn185 O192 2.028 1_554 S
O186 C182 1.258 . S
O186 Zn187 2.035 1_554 S
Zn187 O186 2.035 1_556 S
Zn187 O188 2.028 1_556 S
Zn187 O190 2.028 . S
Zn187 O193 2.035 . S
O188 Zn187 2.028 1_554 S
O188 C194 1.247 . S
O189 Zn185 2.035 . S
O189 C194 1.258 . S
O190 C183 1.247 . S
O190 Zn187 2.028 . S
O191 C183 1.258 . S
O191 Zn185 2.035 1_556 S
O192 Zn185 2.028 1_556 S
O192 C195 1.247 . S
O193 Zn187 2.035 . S
O193 C195 1.258 . S
C194 O188 1.247 . S
C194 O189 1.258 . S
C195 O192 1.247 . S
C195 O193 1.258 . S
C196 O198 1.247 . S
C196 O200 1.258 . S
C197 O204 1.247 . S
C197 O205 1.258 . S
O198 C196 1.247 . S
O198 Zn199 2.028 . S
Zn199 O198 2.028 . S
Zn199 O203 2.035 . S
Zn199 O205 2.035 . S
Zn199 O206 2.028 . S
O200 C196 1.258 . S
O200 Zn201 2.035 . S
Zn201 O200 2.035 . S
Zn201 O202 2.028 . S
Zn201 O204 2.028 . S
Zn201 O207 2.035 . S
O202 Zn201 2.028 . S
O202 C208 1.247 . S
O203 Zn199 2.035 . S
O203 C208 1.258 . S
O204 C197 1.247 . S
O204 Zn201 2.028 . S
O205 C197 1.258 . S
O205 Zn199 2.035 . S
O206 Zn199 2.028 . S
O206 C209 1.247 . S
O207 Zn201 2.035 . S
O207 C209 1.258 . S
C208 O202 1.247 . S
C208 O203 1.258 . S
C209 O206 1.247 . S
C209 O207 1.258 . S
C210 O212 1.247 . S
C210 O214 1.258 . S
C211 O218 1.247 . S
C211 O219 1.258 . S
O212 C210 1.247 . S
O212 Zn213 2.028 1_556 S
Zn213 O212 2.028 1_554 S
Zn213 O217 2.035 1_554 S
Zn213 O219 2.035 . S
Zn213 O220 2.028 . S
O214 C210 1.258 . S
O214 Zn215 2.035 . S
Zn215 O214 2.035 . S
Zn215 O216 2.028 . S
Zn215 O218 2.028 1_556 S
Zn215 O221 2.035 1_556 S
O216 Zn215 2.028 . S
O216 C222 1.247 . S
O217 Zn213 2.035 1_556 S
O217 C222 1.258 . S
O218 C211 1.247 . S
O218 Zn215 2.028 1_554 S
O219 C211 1.258 . S
O219 Zn213 2.035 . S
O220 Zn213 2.028 . S
O220 C223 1.247 . S
O221 Zn215 2.035 1_554 S
O221 C223 1.258 . S
C222 O216 1.247 . S
C222 O217 1.258 . S
C223 O220 1.247 . S
C223 O221 1.258 . S
C224 O226 1.247 . S
C224 O228 1.258 . S
C225 O232 1.247 . S
C225 O233 1.258 . S
O226 C224 1.247 . S
O226 Zn227 2.028 . S
Zn227 O226 2.028 . S
Zn227 O231 2.035 . S
Zn227 O233 2.035 . S
Zn227 O234 2.028 . S
O228 C224 1.258 . S
O228 Zn229 2.035 . S
Zn229 O228 2.035 . S
Zn229 O230 2.028 . S
Zn229 O232 2.028 . S
Zn229 O235 2.035 . S
O230 Zn229 2.028 . S
O230 C236 1.247 . S
O231 Zn227 2.035 . S
O231 C236 1.258 . S
O232 C225 1.247 . S
O232 Zn229 2.028 . S
O233 C225 1.258 . S
O233 Zn227 2.035 . S
O234 Zn227 2.028 . S
O234 C237 1.247 . S
O235 Zn229 2.035 . S
O235 C237 1.258 . S
C236 O230 1.247 . S
C236 O231 1.258 . S
C237 O234 1.247 . S
C237 O235 1.258 . S
C238 O240 1.247 . S
C238 O242 1.258 . S
C239 O246 1.247 . S
C239 O247 1.258 . S
O240 C238 1.247 . S
O240 Zn241 2.028 . S
Zn241 O240 2.028 . S
Zn241 O245 2.035 . S
Zn241 O247 2.035 . S
Zn241 O248 2.028 . S
O242 C238 1.258 . S
O242 Zn243 2.035 . S
Zn243 O242 2.035 . S
Zn243 O244 2.028 . S
Zn243 O246 2.028 . S
Zn243 O249 2.035 . S
O244 Zn243 2.028 . S
O244 C250 1.247 . S
O245 Zn241 2.035 . S
O245 C250 1.258 . S
O246 C239 1.247 . S
O246 Zn243 2.028 . S
O247 C239 1.258 . S
O247 Zn241 2.035 . S
O248 Zn241 2.028 . S
O248 C251 1.247 . S
O249 Zn243 2.035 . S
O249 C251 1.258 . S
C250 O244 1.247 . S
C250 O245 1.258 . S
C251 O248 1.247 . S
C251 O249 1.258 . S
C252 O254 1.247 . S
C252 O256 1.258 . S
C253 O260 1.247 . S
C253 O261 1.258 . S
O254 C252 1.247 . S
O254 Zn255 2.028 . S
Zn255 O254 2.028 . S
Zn255 O259 2.035 . S
Zn255 O261 2.035 . S
Zn255 O262 2.028 . S
O256 C252 1.258 . S
O256 Zn257 2.035 . S
Zn257 O256 2.035 . S
Zn257 O258 2.028 . S
Zn257 O260 2.028 . S
Zn257 O263 2.035 . S
O258 Zn257 2.028 . S
O258 C264 1.247 . S
O259 Zn255 2.035 . S
O259 C264 1.258 . S
O260 C253 1.247 . S
O260 Zn257 2.028 . S
O261 C253 1.258 . S
O261 Zn255 2.035 . S
O262 Zn255 2.028 . S
O262 C265 1.247 . S
O263 Zn257 2.035 . S
O263 C265 1.258 . S
C264 O258 1.247 . S
C264 O259 1.258 . S
C265 O262 1.247 . S
C265 O263 1.258 . S
C266 O268 1.247 . S
C266 O270 1.258 . S
C267 O274 1.247 . S
C267 O275 1.258 . S
O268 C266 1.247 . S
O268 Zn269 2.028 . S
Zn269 O268 2.028 . S
Zn269 O273 2.035 . S
Zn269 O275 2.035 . S
Zn269 O276 2.028 . S
O270 C266 1.258 . S
O270 Zn271 2.035 . S
Zn271 O270 2.035 . S
Zn271 O272 2.028 . S
Zn271 O274 2.028 . S
Zn271 O277 2.035 . S
O272 Zn271 2.028 . S
O272 C278 1.247 . S
O273 Zn269 2.035 . S
O273 C278 1.258 . S
O274 C267 1.247 . S
O274 Zn271 2.028 . S
O275 C267 1.258 . S
O275 Zn269 2.035 . S
O276 Zn269 2.028 . S
O276 C279 1.247 . S
O277 Zn271 2.035 . S
O277 C279 1.258 . S
C278 O272 1.247 . S
C278 O273 1.258 . S
C279 O276 1.247 . S
C279 O277 1.258 . S
C280 O282 1.247 . S
C280 O284 1.258 . S
C281 O288 1.247 . S
C281 O289 1.258 . S
O282 C280 1.247 . S
O282 Zn283 2.028 . S
Zn283 O282 2.028 . S
Zn283 O287 2.035 . S
Zn283 O289 2.035 . S
Zn283 O290 2.028 . S
O284 C280 1.258 . S
O284 Zn285 2.035 . S
Zn285 O284 2.035 . S
Zn285 O286 2.028 . S
Zn285 O288 2.028 . S
Zn285 O291 2.035 . S
O286 Zn285 2.028 . S
O286 C292 1.247 . S
O287 Zn283 2.035 . S
O287 C292 1.258 . S
O288 C281 1.247 . S
O288 Zn285 2.028 . S
O289 C281 1.258 . S
O289 Zn283 2.035 . S
O290 Zn283 2.028 . S
O290 C293 1.247 . S
O291 Zn285 2.035 . S
O291 C293 1.258 . S
C292 O286 1.247 . S
C292 O287 1.258 . S
C293 O290 1.247 . S
C293 O291 1.258 . S
C294 O296 1.247 . S
C294 O298 1.258 . S
C295 O302 1.247 . S
C295 O303 1.258 . S
O296 C294 1.247 . S
O296 Zn297 2.028 . S
Zn297 O296 2.028 . S
Zn297 O301 2.035 . S
Zn297 O303 2.035 . S
Zn297 O304 2.028 . S
O298 C294 1.258 . S
O298 Zn299 2.035 . S
Zn299 O298 2.035 . S
Zn299 O300 2.028 . S
Zn299 O302 2.028 . S
Zn299 O305 2.035 . S
O300 Zn299 2.028 . S
O300 C306 1.247 . S
O301 Zn297 2.035 . S
O301 C306 1.258 . S
O302 C295 1.247 . S
O302 Zn299 2.028 . S
O303 C295 1.258 . S
O303 Zn297 2.035 . S
O304 Zn297 2.028 . S
O304 C307 1.247 . S
O305 Zn299 2.035 . S
O305 C307 1.258 . S
C306 O300 1.247 . S
C306 O301 1.258 . S
C307 O304 1.247 . S
C307 O305 1.258 . S
C308 O310 1.247 . S
C308 O312 1.258 . S
C309 O316 1.247 . S
C309 O317 1.258 . S
O310 C308 1.247 . S
O310 Zn311 2.028 . S
Zn311 O310 2.028 . S
Zn311 O315 2.035 . S
Zn311 O317 2.035 . S
Zn311 O318 2.028 . S
O312 C308 1.258 . S
O312 Zn313 2.035 . S
Zn313 O312 2.035 . S
Zn313 O314 2.028 . S
Zn313 O316 2.028 . S
Zn313 O319 2.035 . S
O314 Zn313 2.028 . S
O314 C320 1.247 . S
O315 Zn311 2.035 . S
O315 C320 1.258 . S
O316 C309 1.247 . S
O316 Zn313 2.028 . S
O317 C309 1.258 . S
O317 Zn311 2.035 . S
O318 Zn311 2.028 . S
O318 C321 1.247 . S
O319 Zn313 2.035 . S
O319 C321 1.258 . S
C320 O314 1.247 . S
C320 O315 1.258 . S
C321 O318 1.247 . S
C321 O319 1.258 . S
C322 O324 1.247 . S
C322 O326 1.258 . S
C323 O330 1.247 . S
C323 O331 1.258 . S
O324 C322 1.247 . S
O324 Zn325 2.028 . S
Zn325 O324 2.028 . S
Zn325 O329 2.035 . S
Zn325 O331 2.035 1_545 S
Zn325 O332 2.028 1_545 S
O326 C322 1.258 . S
O326 Zn327 2.035 1_545 S
Zn327 O326 2.035 1_565 S
Zn327 O328 2.028 1_565 S
Zn327 O330 2.028 . S
Zn327 O333 2.035 . S
O328 Zn327 2.028 1_545 S
O328 C334 1.247 . S
O329 Zn325 2.035 . S
O329 C334 1.258 . S
O330 C323 1.247 . S
O330 Zn327 2.028 . S
O331 C323 1.258 . S
O331 Zn325 2.035 1_565 S
O332 Zn325 2.028 1_565 S
O332 C335 1.247 . S
O333 Zn327 2.035 . S
O333 C335 1.258 . S
C334 O328 1.247 . S
C334 O329 1.258 . S
C335 O332 1.247 . S
C335 O333 1.258 . S
C336 O338 1.247 . S
C336 O340 1.258 . S
C337 O344 1.247 . S
C337 O345 1.258 . S
O338 C336 1.247 . S
O338 Zn339 2.028 . S
Zn339 O338 2.028 . S
Zn339 O343 2.035 . S
Zn339 O345 2.035 . S
Zn339 O346 2.028 . S
O340 C336 1.258 . S
O340 Zn341 2.035 . S
Zn341 O340 2.035 . S
Zn341 O342 2.028 . S
Zn341 O344 2.028 . S
Zn341 O347 2.035 . S
O342 Zn341 2.028 . S
O342 C348 1.247 . S
O343 Zn339 2.035 . S
O343 C348 1.258 . S
O344 C337 1.247 . S
O344 Zn341 2.028 . S
O345 C337 1.258 . S
O345 Zn339 2.035 . S
O346 Zn339 2.028 . S
O346 C349 1.247 . S
O347 Zn341 2.035 . S
O347 C349 1.258 . S
C348 O342 1.247 . S
C348 O343 1.258 . S
C349 O346 1.247 . S
C349 O347 1.258 . S
C350 O352 1.247 . S
C350 O354 1.258 . S
C351 O358 1.247 . S
C351 O359 1.258 . S
O352 C350 1.247 . S
O352 Zn353 2.028 1_655 S
Zn353 O352 2.028 1_455 S
Zn353 O357 2.035 1_455 S
Zn353 O359 2.035 . S
Zn353 O360 2.028 . S
O354 C350 1.258 . S
O354 Zn355 2.035 . S
Zn355 O354 2.035 . S
Zn355 O356 2.028 . S
Zn355 O358 2.028 1_655 S
Zn355 O361 2.035 1_655 S
O356 Zn355 2.028 . S
O356 C362 1.247 . S
O357 Zn353 2.035 1_655 S
O357 C362 1.258 . S
O358 C351 1.247 . S
O358 Zn355 2.028 1_455 S
O359 C351 1.258 . S
O359 Zn353 2.035 . S
O360 Zn353 2.028 . S
O360 C363 1.247 . S
O361 Zn355 2.035 1_455 S
O361 C363 1.258 . S
C362 O356 1.247 . S
C362 O357 1.258 . S
C363 O360 1.247 . S
C363 O361 1.258 . S
C364 O366 1.247 . S
C364 O368 1.258 . S
C365 O372 1.247 . S
C365 O373 1.258 . S
O366 C364 1.247 . S
O366 Zn367 2.028 . S
Zn367 O366 2.028 . S
Zn367 O371 2.035 . S
Zn367 O373 2.035 . S
Zn367 O374 2.028 . S
O368 C364 1.258 . S
O368 Zn369 2.035 . S
Zn369 O368 2.035 . S
Zn369 O370 2.028 . S
Zn369 O372 2.028 . S
Zn369 O375 2.035 . S
O370 Zn369 2.028 . S
O370 C376 1.247 . S
O371 Zn367 2.035 . S
O371 C376 1.258 . S
O372 C365 1.247 . S
O372 Zn369 2.028 . S
O373 C365 1.258 . S
O373 Zn367 2.035 . S
O374 Zn367 2.028 . S
O374 C377 1.247 . S
O375 Zn369 2.035 . S
O375 C377 1.258 . S
C376 O370 1.247 . S
C376 O371 1.258 . S
C377 O374 1.247 . S
C377 O375 1.258 . S
C378 O380 1.247 . S
C378 O382 1.258 . S
C379 O386 1.247 . S
C379 O387 1.258 . S
O380 C378 1.247 . S
O380 Zn381 2.028 1_455 S
Zn381 O380 2.028 1_655 S
Zn381 O385 2.035 1_655 S
Zn381 O387 2.035 . S
Zn381 O388 2.028 . S
O382 C378 1.258 . S
O382 Zn383 2.035 . S
Zn383 O382 2.035 . S
Zn383 O384 2.028 . S
Zn383 O386 2.028 1_455 S
Zn383 O389 2.035 1_455 S
O384 Zn383 2.028 . S
O384 C390 1.247 . S
O385 Zn381 2.035 1_455 S
O385 C390 1.258 . S
O386 C379 1.247 . S
O386 Zn383 2.028 1_655 S
O387 C379 1.258 . S
O387 Zn381 2.035 . S
O388 Zn381 2.028 . S
O388 C391 1.247 . S
O389 Zn383 2.035 1_655 S
O389 C391 1.258 . S
C390 O384 1.247 . S
C390 O385 1.258 . S
C391 O388 1.247 . S
C391 O389 1.258 . S
C392 O394 1.247 . S
C392 O396 1.258 . S
C393 O400 1.247 . S
C393 O401 1.258 . S
O394 C392 1.247 . S
O394 Zn395 2.028 . S
Zn395 O394 2.028 . S
Zn395 O399 2.035 . S
Zn395 O401 2.035 . S
Zn395 O402 2.028 . S
O396 C392 1.258 . S
O396 Zn397 2.035 . S
Zn397 O396 2.035 . S
Zn397 O398 2.028 . S
Zn397 O400 2.028 . S
Zn397 O403 2.035 . S
O398 Zn397 2.028 . S
O398 C404 1.247 . S
O399 Zn395 2.035 . S
O399 C404 1.258 . S
O400 C393 1.247 . S
O400 Zn397 2.028 . S
O401 C393 1.258 . S
O401 Zn395 2.035 . S
O402 Zn395 2.028 . S
O402 C405 1.247 . S
O403 Zn397 2.035 . S
O403 C405 1.258 . S
C404 O398 1.247 . S
C404 O399 1.258 . S
C405 O402 1.247 . S
C405 O403 1.258 . S
C406 O408 1.247 . S
C406 O410 1.258 . S
C407 O414 1.247 . S
C407 O415 1.258 . S
O408 C406 1.247 . S
O408 Zn409 2.028 . S
Zn409 O408 2.028 . S
Zn409 O413 2.035 . S
Zn409 O415 2.035 . S
Zn409 O416 2.028 . S
O410 C406 1.258 . S
O410 Zn411 2.035 . S
Zn411 O410 2.035 . S
Zn411 O412 2.028 . S
Zn411 O414 2.028 . S
Zn411 O417 2.035 . S
O412 Zn411 2.028 . S
O412 C418 1.247 . S
O413 Zn409 2.035 . S
O413 C418 1.258 . S
O414 C407 1.247 . S
O414 Zn411 2.028 . S
O415 C407 1.258 . S
O415 Zn409 2.035 . S
O416 Zn409 2.028 . S
O416 C419 1.247 . S
O417 Zn411 2.035 . S
O417 C419 1.258 . S
C418 O412 1.247 . S
C418 O413 1.258 . S
C419 O416 1.247 . S
C419 O417 1.258 . S
C420 O422 1.247 . S
C420 O424 1.258 . S
C421 O428 1.247 . S
C421 O429 1.258 . S
O422 C420 1.247 . S
O422 Zn423 2.028 . S
Zn423 O422 2.028 . S
Zn423 O427 2.035 . S
Zn423 O429 2.035 . S
Zn423 O430 2.028 . S
O424 C420 1.258 . S
O424 Zn425 2.035 . S
Zn425 O424 2.035 . S
Zn425 O426 2.028 . S
Zn425 O428 2.028 . S
Zn425 O431 2.035 . S
O426 Zn425 2.028 . S
O426 C432 1.247 . S
O427 Zn423 2.035 . S
O427 C432 1.258 . S
O428 C421 1.247 . S
O428 Zn425 2.028 . S
O429 C421 1.258 . S
O429 Zn423 2.035 . S
O430 Zn423 2.028 . S
O430 C433 1.247 . S
O431 Zn425 2.035 . S
O431 C433 1.258 . S
C432 O426 1.247 . S
C432 O427 1.258 . S
C433 O430 1.247 . S
C433 O431 1.258 . S
C434 O436 1.247 . S
C434 O438 1.258 . S
C435 O442 1.247 . S
C435 O443 1.258 . S
O436 C434 1.247 . S
O436 Zn437 2.028 . S
Zn437 O436 2.028 . S
Zn437 O441 2.035 . S
Zn437 O443 2.035 . S
Zn437 O444 2.028 . S
O438 C434 1.258 . S
O438 Zn439 2.035 . S
Zn439 O438 2.035 . S
Zn439 O440 2.028 . S
Zn439 O442 2.028 . S
Zn439 O445 2.035 . S
O440 Zn439 2.028 . S
O440 C446 1.247 . S
O441 Zn437 2.035 . S
O441 C446 1.258 . S
O442 C435 1.247 . S
O442 Zn439 2.028 . S
O443 C435 1.258 . S
O443 Zn437 2.035 . S
O444 Zn437 2.028 . S
O444 C447 1.247 . S
O445 Zn439 2.035 . S
O445 C447 1.258 . S
C446 O440 1.247 . S
C446 O441 1.258 . S
C447 O444 1.247 . S
C447 O445 1.258 . S
C448 O450 1.247 . S
C448 O452 1.258 . S
C449 O456 1.247 . S
C449 O457 1.258 . S
O450 C448 1.247 . S
O450 Zn451 2.028 . S
Zn451 O450 2.028 . S
Zn451 O455 2.035 . S
Zn451 O457 2.035 . S
Zn451 O458 2.028 . S
O452 C448 1.258 . S
O452 Zn453 2.035 . S
Zn453 O452 2.035 . S
Zn453 O454 2.028 . S
Zn453 O456 2.028 . S
Zn453 O459 2.035 . S
O454 Zn453 2.028 . S
O454 C460 1.247 . S
O455 Zn451 2.035 . S
O455 C460 1.258 . S
O456 C449 1.247 . S
O456 Zn453 2.028 . S
O457 C449 1.258 . S
O457 Zn451 2.035 . S
O458 Zn451 2.028 . S
O458 C461 1.247 . S
O459 Zn453 2.035 . S
O459 C461 1.258 . S
C460 O454 1.247 . S
C460 O455 1.258 . S
C461 O458 1.247 . S
C461 O459 1.258 . S
C462 O464 1.247 . S
C462 O466 1.258 . S
C463 O470 1.247 . S
C463 O471 1.258 . S
O464 C462 1.247 . S
O464 Zn465 2.028 . S
Zn465 O464 2.028 . S
Zn465 O469 2.035 . S
Zn465 O471 2.035 . S
Zn465 O472 2.028 . S
O466 C462 1.258 . S
O466 Zn467 2.035 . S
Zn467 O466 2.035 . S
Zn467 O468 2.028 . S
Zn467 O470 2.028 . S
Zn467 O473 2.035 . S
O468 Zn467 2.028 . S
O468 C474 1.247 . S
O469 Zn465 2.035 . S
O469 C474 1.258 . S
O470 C463 1.247 . S
O470 Zn467 2.028 . S
O471 C463 1.258 . S
O471 Zn465 2.035 . S
O472 Zn465 2.028 . S
O472 C475 1.247 . S
O473 Zn467 2.035 . S
O473 C475 1.258 . S
C474 O468 1.247 . S
C474 O469 1.258 . S
C475 O472 1.247 . S
C475 O473 1.258 . S
C476 O478 1.247 . S
C476 O480 1.258 . S
C477 O484 1.247 . S
C477 O485 1.258 . S
O478 C476 1.247 . S
O478 Zn479 2.028 . S
Zn479 O478 2.028 . S
Zn479 O483 2.035 . S
Zn479 O485 2.035 . S
Zn479 O486 2.028 . S
O480 C476 1.258 . S
O480 Zn481 2.035 . S
Zn481 O480 2.035 . S
Zn481 O482 2.028 . S
Zn481 O484 2.028 . S
Zn481 O487 2.035 . S
O482 Zn481 2.028 . S
O482 C488 1.247 . S
O483 Zn479 2.035 . S
O483 C488 1.258 . S
O484 C477 1.247 . S
O484 Zn481 2.028 . S
O485 C477 1.258 . S
O485 Zn479 2.035 . S
O486 Zn479 2.028 . S
O486 C489 1.247 . S
O487 Zn481 2.035 . S
O487 C489 1.258 . S
C488 O482 1.247 . S
C488 O483 1.258 . S
C489 O486 1.247 . S
C489 O487 1.258 . S
C490 O492 1.247 . S
C490 O494 1.258 . S
C491 O498 1.247 . S
C491 O499 1.258 . S
O492 C490 1.247 . S
O492 Zn493 2.028 . S
Zn493 O492 2.028 . S
Zn493 O497 2.035 . S
Zn493 O499 2.035 . S
Zn493 O500 2.028 . S
O494 C490 1.258 . S
O494 Zn495 2.035 . S
Zn495 O494 2.035 . S
Zn495 O496 2.028 . S
Zn495 O498 2.028 . S
Zn495 O501 2.035 . S
O496 Zn495 2.028 . S
O496 C502 1.247 . S
O497 Zn493 2.035 . S
O497 C502 1.258 . S
O498 C491 1.247 . S
O498 Zn495 2.028 . S
O499 C491 1.258 . S
O499 Zn493 2.035 . S
O500 Zn493 2.028 . S
O500 C503 1.247 . S
O501 Zn495 2.035 . S
O501 C503 1.258 . S
C502 O496 1.247 . S
C502 O497 1.258 . S
C503 O500 1.247 . S
C503 O501 1.258 . S
C504 O506 1.247 . S
C504 O508 1.258 . S
C505 O512 1.247 . S
C505 O513 1.258 . S
O506 C504 1.247 . S
O506 Zn507 2.028 . S
Zn507 O506 2.028 . S
Zn507 O511 2.035 . S
Zn507 O513 2.035 . S
Zn507 O514 2.028 . S
O508 C504 1.258 . S
O508 Zn509 2.035 . S
Zn509 O508 2.035 . S
Zn509 O510 2.028 . S
Zn509 O512 2.028 . S
Zn509 O515 2.035 . S
O510 Zn509 2.028 . S
O510 C516 1.247 . S
O511 Zn507 2.035 . S
O511 C516 1.258 . S
O512 C505 1.247 . S
O512 Zn509 2.028 . S
O513 C505 1.258 . S
O513 Zn507 2.035 . S
O514 Zn507 2.028 . S
O514 C517 1.247 . S
O515 Zn509 2.035 . S
O515 C517 1.258 . S
C516 O510 1.247 . S
C516 O511 1.258 . S
C517 O514 1.247 . S
C517 O515 1.258 . S
C518 O520 1.247 . S
C518 O522 1.258 . S
C519 O526 1.247 . S
C519 O527 1.258 . S
O520 C518 1.247 . S
O520 Zn521 2.028 . S
Zn521 O520 2.028 . S
Zn521 O525 2.035 . S
Zn521 O527 2.035 . S
Zn521 O528 2.028 . S
O522 C518 1.258 . S
O522 Zn523 2.035 . S
Zn523 O522 2.035 . S
Zn523 O524 2.028 . S
Zn523 O526 2.028 . S
Zn523 O529 2.035 . S
O524 Zn523 2.028 . S
O524 C530 1.247 . S
O525 Zn521 2.035 . S
O525 C530 1.258 . S
O526 C519 1.247 . S
O526 Zn523 2.028 . S
O527 C519 1.258 . S
O527 Zn521 2.035 . S
O528 Zn521 2.028 . S
O528 C531 1.247 . S
O529 Zn523 2.035 . S
O529 C531 1.258 . S
C530 O524 1.247 . S
C530 O525 1.258 . S
C531 O528 1.247 . S
C531 O529 1.258 . S
C532 O534 1.247 . S
C532 O536 1.258 . S
C533 O540 1.247 . S
C533 O541 1.258 . S
O534 C532 1.247 . S
O534 Zn535 2.028 . S
Zn535 O534 2.028 . S
Zn535 O539 2.035 . S
Zn535 O541 2.035 . S
Zn535 O542 2.028 . S
O536 C532 1.258 . S
O536 Zn537 2.035 . S
Zn537 O536 2.035 . S
Zn537 O538 2.028 . S
Zn537 O540 2.028 . S
Zn537 O543 2.035 . S
O538 Zn537 2.028 . S
O538 C544 1.247 . S
O539 Zn535 2.035 . S
O539 C544 1.258 . S
O540 C533 1.247 . S
O540 Zn537 2.028 . S
O541 C533 1.258 . S
O541 Zn535 2.035 . S
O542 Zn535 2.028 . S
O542 C545 1.247 . S
O543 Zn537 2.035 . S
O543 C545 1.258 . S
C544 O538 1.247 . S
C544 O539 1.258 . S
C545 O542 1.247 . S
C545 O543 1.258 . S
C546 O548 1.247 . S
C546 O550 1.258 . S
C547 O554 1.247 . S
C547 O555 1.258 . S
O548 C546 1.247 . S
O548 Zn549 2.028 . S
Zn549 O548 2.028 . S
Zn549 O553 2.035 . S
Zn549 O555 2.035 . S
Zn549 O556 2.028 . S
O550 C546 1.258 . S
O550 Zn551 2.035 . S
Zn551 O550 2.035 . S
Zn551 O552 2.028 . S
Zn551 O554 2.028 . S
Zn551 O557 2.035 . S
O552 Zn551 2.028 . S
O552 C558 1.247 . S
O553 Zn549 2.035 . S
O553 C558 1.258 . S
O554 C547 1.247 . S
O554 Zn551 2.028 . S
O555 C547 1.258 . S
O555 Zn549 2.035 . S
O556 Zn549 2.028 . S
O556 C559 1.247 . S
O557 Zn551 2.035 . S
O557 C559 1.258 . S
C558 O552 1.247 . S
C558 O553 1.258 . S
C559 O556 1.247 . S
C559 O557 1.258 . S
C560 O562 1.247 . S
C560 O564 1.258 . S
C561 O568 1.247 . S
C561 O569 1.258 . S
O562 C560 1.247 . S
O562 Zn563 2.028 . S
Zn563 O562 2.028 . S
Zn563 O567 2.035 . S
Zn563 O569 2.035 . S
Zn563 O570 2.028 . S
O564 C560 1.258 . S
O564 Zn565 2.035 . S
Zn565 O564 2.035 . S
Zn565 O566 2.028 . S
Zn565 O568 2.028 . S
Zn565 O571 2.035 . S
O566 Zn565 2.028 . S
O566 C572 1.247 . S
O567 Zn563 2.035 . S
O567 C572 1.258 . S
O568 C561 1.247 . S
O568 Zn565 2.028 . S
O569 C561 1.258 . S
O569 Zn563 2.035 . S
O570 Zn563 2.028 . S
O570 C573 1.247 . S
O571 Zn565 2.035 . S
O571 C573 1.258 . S
C572 O566 1.247 . S
C572 O567 1.258 . S
C573 O570 1.247 . S
C573 O571 1.258 . S
C574 O576 1.247 . S
C574 O578 1.258 . S
C575 O582 1.247 . S
C575 O583 1.258 . S
O576 C574 1.247 . S
O576 Zn577 2.028 . S
Zn577 O576 2.028 . S
Zn577 O581 2.035 . S
Zn577 O583 2.035 . S
Zn577 O584 2.028 . S
O578 C574 1.258 . S
O578 Zn579 2.035 . S
Zn579 O578 2.035 . S
Zn579 O580 2.028 . S
Zn579 O582 2.028 . S
Zn579 O585 2.035 . S
O580 Zn579 2.028 . S
O580 C586 1.247 . S
O581 Zn577 2.035 . S
O581 C586 1.258 . S
O582 C575 1.247 . S
O582 Zn579 2.028 . S
O583 C575 1.258 . S
O583 Zn577 2.035 . S
O584 Zn577 2.028 . S
O584 C587 1.247 . S
O585 Zn579 2.035 . S
O585 C587 1.258 . S
C586 O580 1.247 . S
C586 O581 1.258 . S
C587 O584 1.247 . S
C587 O585 1.258 . S
C588 O590 1.247 . S
C588 O592 1.258 . S
C589 O596 1.247 . S
C589 O597 1.258 . S
O590 C588 1.247 . S
O590 Zn591 2.028 . S
Zn591 O590 2.028 . S
Zn591 O595 2.035 . S
Zn591 O597 2.035 1_565 S
Zn591 O598 2.028 1_565 S
O592 C588 1.258 . S
O592 Zn593 2.035 1_565 S
Zn593 O592 2.035 1_545 S
Zn593 O594 2.028 1_545 S
Zn593 O596 2.028 . S
Zn593 O599 2.035 . S
O594 Zn593 2.028 1_565 S
O594 C600 1.247 . S
O595 Zn591 2.035 . S
O595 C600 1.258 . S
O596 C589 1.247 . S
O596 Zn593 2.028 . S
O597 C589 1.258 . S
O597 Zn591 2.035 1_545 S
O598 Zn591 2.028 1_545 S
O598 C601 1.247 . S
O599 Zn593 2.035 . S
O599 C601 1.258 . S
C600 O594 1.247 . S
C600 O595 1.258 . S
C601 O598 1.247 . S
C601 O599 1.258 . S
C602 O604 1.247 . S
C602 O606 1.258 . S
C603 O610 1.247 . S
C603 O611 1.258 . S
O604 C602 1.247 . S
O604 Zn605 2.028 . S
Zn605 O604 2.028 . S
Zn605 O609 2.035 . S
Zn605 O611 2.035 . S
Zn605 O612 2.028 . S
O606 C602 1.258 . S
O606 Zn607 2.035 . S
Zn607 O606 2.035 . S
Zn607 O608 2.028 . S
Zn607 O610 2.028 . S
Zn607 O613 2.035 . S
O608 Zn607 2.028 . S
O608 C614 1.247 . S
O609 Zn605 2.035 . S
O609 C614 1.258 . S
O610 C603 1.247 . S
O610 Zn607 2.028 . S
O611 C603 1.258 . S
O611 Zn605 2.035 . S
O612 Zn605 2.028 . S
O612 C615 1.247 . S
O613 Zn607 2.035 . S
O613 C615 1.258 . S
C614 O608 1.247 . S
C614 O609 1.258 . S
C615 O612 1.247 . S
C615 O613 1.258 . S
C616 O618 1.247 . S
C616 O620 1.258 . S
C617 O624 1.247 . S
C617 O625 1.258 . S
O618 C616 1.247 . S
O618 Zn619 2.028 . S
Zn619 O618 2.028 . S
Zn619 O623 2.035 . S
Zn619 O625 2.035 1_545 S
Zn619 O626 2.028 1_545 S
O620 C616 1.258 . S
O620 Zn621 2.035 1_545 S
Zn621 O620 2.035 1_565 S
Zn621 O622 2.028 1_565 S
Zn621 O624 2.028 . S
Zn621 O627 2.035 . S
O622 Zn621 2.028 1_545 S
O622 C628 1.247 . S
O623 Zn619 2.035 . S
O623 C628 1.258 . S
O624 C617 1.247 . S
O624 Zn621 2.028 . S
O625 C617 1.258 . S
O625 Zn619 2.035 1_565 S
O626 Zn619 2.028 1_565 S
O626 C629 1.247 . S
O627 Zn621 2.035 . S
O627 C629 1.258 . S
C628 O622 1.247 . S
C628 O623 1.258 . S
C629 O626 1.247 . S
C629 O627 1.258 . S
C630 O632 1.247 . S
C630 O634 1.258 . S
C631 O638 1.247 . S
C631 O639 1.258 . S
O632 C630 1.247 . S
O632 Zn633 2.028 . S
Zn633 O632 2.028 . S
Zn633 O637 2.035 . S
Zn633 O639 2.035 . S
Zn633 O640 2.028 . S
O634 C630 1.258 . S
O634 Zn635 2.035 . S
Zn635 O634 2.035 . S
Zn635 O636 2.028 . S
Zn635 O638 2.028 . S
Zn635 O641 2.035 . S
O636 Zn635 2.028 . S
O636 C642 1.247 . S
O637 Zn633 2.035 . S
O637 C642 1.258 . S
O638 C631 1.247 . S
O638 Zn635 2.028 . S
O639 C631 1.258 . S
O639 Zn633 2.035 . S
O640 Zn633 2.028 . S
O640 C643 1.247 . S
O641 Zn635 2.035 . S
O641 C643 1.258 . S
C642 O636 1.247 . S
C642 O637 1.258 . S
C643 O640 1.247 . S
C643 O641 1.258 . S
C644 O646 1.247 . S
C644 O648 1.258 . S
C645 O652 1.247 . S
C645 O653 1.258 . S
O646 C644 1.247 . S
O646 Zn647 2.028 . S
Zn647 O646 2.028 . S
Zn647 O651 2.035 . S
Zn647 O653 2.035 1_565 S
Zn647 O654 2.028 1_565 S
O648 C644 1.258 . S
O648 Zn649 2.035 1_565 S
Zn649 O648 2.035 1_545 S
Zn649 O650 2.028 1_545 S
Zn649 O652 2.028 . S
Zn649 O655 2.035 . S
O650 Zn649 2.028 1_565 S
O650 C656 1.247 . S
O651 Zn647 2.035 . S
O651 C656 1.258 . S
O652 C645 1.247 . S
O652 Zn649 2.028 . S
O653 C645 1.258 . S
O653 Zn647 2.035 1_545 S
O654 Zn647 2.028 1_545 S
O654 C657 1.247 . S
O655 Zn649 2.035 . S
O655 C657 1.258 . S
C656 O650 1.247 . S
C656 O651 1.258 . S
C657 O654 1.247 . S
C657 O655 1.258 . S
C658 O660 1.247 . S
C658 O662 1.258 . S
C659 O666 1.247 . S
C659 O667 1.258 . S
O660 C658 1.247 . S
O660 Zn661 2.028 . S
Zn661 O660 2.028 . S
Zn661 O665 2.035 . S
Zn661 O667 2.035 . S
Zn661 O668 2.028 . S
O662 C658 1.258 . S
O662 Zn663 2.035 . S
Zn663 O662 2.035 . S
Zn663 O664 2.028 . S
Zn663 O666 2.028 . S
Zn663 O669 2.035 . S
O664 Zn663 2.028 . S
O664 C670 1.247 . S
O665 Zn661 2.035 . S
O665 C670 1.258 . S
O666 C659 1.247 . S
O666 Zn663 2.028 . S
O667 C659 1.258 . S
O667 Zn661 2.035 . S
O668 Zn661 2.028 . S
O668 C671 1.247 . S
O669 Zn663 2.035 . S
O669 C671 1.258 . S
C670 O664 1.247 . S
C670 O665 1.258 . S
C671 O668 1.247 . S
C671 O669 1.258 . S
H672 C678 0.930 . S
H673 C681 0.930 . S
H674 C682 0.930 . S
H675 C683 0.930 . S
H676 C686 0.930 . S
H677 C687 0.930 . S
C678 H672 0.930 . S
C678 C679 1.355 . S
C678 C680 1.415 . S
C679 C678 1.355 . S
C679 C681 1.419 . S
C680 C678 1.415 . S
C680 C685 1.425 . S
C680 C687 1.409 . S
C681 H673 0.930 . S
C681 C679 1.419 . S
C681 C682 1.362 . S
C682 H674 0.930 . S
C682 C681 1.362 . S
C682 C685 1.409 . S
C683 H675 0.930 . S
C683 C684 1.355 . S
C683 C685 1.415 . S
C684 C683 1.355 . S
C684 C686 1.419 . S
C685 C680 1.425 . S
C685 C682 1.409 . S
C685 C683 1.415 . S
C686 H676 0.930 . S
C686 C684 1.419 . S
C686 C687 1.362 . S
C687 H677 0.930 . S
C687 C680 1.409 . S
C687 C686 1.362 . S
H688 C694 0.930 . S
H689 C697 0.930 . S
H690 C698 0.955 . S
H691 C699 0.930 . S
H692 C702 0.930 . S
H693 C703 0.930 1_554 S
C694 H688 0.930 . S
C694 C695 1.355 . S
C694 C696 1.415 . S
C695 C694 1.355 . S
C695 C697 1.419 . S
C696 C694 1.415 . S
C696 C701 1.425 1_554 S
C696 C703 1.409 1_554 S
C697 H689 0.930 . S
C697 C695 1.419 . S
C697 C698 1.322 1_554 S
C698 H690 0.955 . S
C698 C697 1.322 1_556 S
C698 C701 1.427 . S
C699 H691 0.930 . S
C699 C700 1.355 . S
C699 C701 1.415 . S
C700 C699 1.355 . S
C700 C702 1.419 . S
C701 C696 1.425 1_556 S
C701 C698 1.427 . S
C701 C699 1.415 . S
C702 H692 0.930 . S
C702 C700 1.419 . S
C702 C703 1.362 . S
C703 H693 0.930 1_556 S
C703 C696 1.409 1_556 S
C703 C702 1.362 . S
H704 C710 0.930 . S
H705 C713 0.930 . S
H706 C714 0.930 . S
H707 C715 0.930 . S
H708 C718 0.930 . S
H709 C719 0.930 . S
C710 H704 0.930 . S
C710 C711 1.355 . S
C710 C712 1.415 . S
C711 C710 1.355 . S
C711 C713 1.419 . S
C712 C710 1.415 . S
C712 C717 1.425 . S
C712 C719 1.409 . S
C713 H705 0.930 . S
C713 C711 1.419 . S
C713 C714 1.362 . S
C714 H706 0.930 . S
C714 C713 1.362 . S
C714 C717 1.409 . S
C715 H707 0.930 . S
C715 C716 1.355 . S
C715 C717 1.415 . S
C716 C715 1.355 . S
C716 C718 1.419 . S
C717 C712 1.425 . S
C717 C714 1.409 . S
C717 C715 1.415 . S
C718 H708 0.930 . S
C718 C716 1.419 . S
C718 C719 1.362 . S
C719 H709 0.930 . S
C719 C712 1.409 . S
C719 C718 1.362 . S
H720 C726 0.930 . S
H721 C729 0.930 . S
H722 C730 0.930 1_554 S
H723 C731 0.930 . S
H724 C734 0.930 . S
H725 C735 0.941 . S
C726 H720 0.930 . S
C726 C727 1.355 . S
C726 C728 1.415 . S
C727 C726 1.355 . S
C727 C729 1.419 . S
C728 C726 1.415 . S
C728 C733 1.425 1_556 S
C728 C735 1.416 . S
C729 H721 0.930 . S
C729 C727 1.419 . S
C729 C730 1.362 . S
C730 H722 0.930 1_556 S
C730 C729 1.362 . S
C730 C733 1.409 1_556 S
C731 H723 0.930 . S
C731 C732 1.355 . S
C731 C733 1.415 . S
C732 C731 1.355 . S
C732 C734 1.419 . S
C733 C728 1.425 1_554 S
C733 C730 1.409 1_554 S
C733 C731 1.415 . S
C734 H724 0.930 . S
C734 C732 1.419 . S
C734 C735 1.346 1_554 S
C735 H725 0.941 . S
C735 C728 1.416 . S
C735 C734 1.346 1_556 S
H736 C742 0.930 . S
H737 C745 0.930 . S
H738 C746 0.930 . S
H739 C747 0.930 . S
H740 C750 0.930 . S
H741 C751 0.930 . S
C742 H736 0.930 . S
C742 C743 1.355 . S
C742 C744 1.415 . S
C743 C742 1.355 . S
C743 C745 1.419 . S
C744 C742 1.415 . S
C744 C749 1.425 . S
C744 C751 1.409 . S
C745 H737 0.930 . S
C745 C743 1.419 . S
C745 C746 1.362 . S
C746 H738 0.930 . S
C746 C745 1.362 . S
C746 C749 1.409 . S
C747 H739 0.930 . S
C747 C748 1.355 . S
C747 C749 1.415 . S
C748 C747 1.355 . S
C748 C750 1.419 . S
C749 C744 1.425 . S
C749 C746 1.409 . S
C749 C747 1.415 . S
C750 H740 0.930 . S
C750 C748 1.419 . S
C750 C751 1.362 . S
C751 H741 0.930 . S
C751 C744 1.409 . S
C751 C750 1.362 . S
H752 C758 0.930 . S
H753 C761 0.930 . S
H754 C762 0.930 . S
H755 C763 0.930 . S
H756 C766 0.930 . S
H757 C767 0.930 . S
C758 H752 0.930 . S
C758 C759 1.355 . S
C758 C760 1.415 . S
C759 C758 1.355 . S
C759 C761 1.419 . S
C760 C758 1.415 . S
C760 C765 1.420 1_554 S
C760 C767 1.409 1_554 S
C761 H753 0.930 . S
C761 C759 1.419 . S
C761 C762 1.362 . S
C762 H754 0.930 . S
C762 C761 1.362 . S
C762 C765 1.398 1_554 S
C763 H755 0.930 . S
C763 C764 1.355 . S
C763 C765 1.431 . S
C764 C763 1.355 . S
C764 C766 1.419 . S
C765 C760 1.420 1_556 S
C765 C762 1.398 1_556 S
C765 C763 1.431 . S
C766 H756 0.930 . S
C766 C764 1.419 . S
C766 C767 1.362 . S
C767 H757 0.930 . S
C767 C760 1.409 1_556 S
C767 C766 1.362 . S
H768 C774 0.930 . S
H769 C777 0.930 . S
H770 C778 0.930 . S
H771 C779 0.930 . S
H772 C782 0.930 . S
H773 C783 0.930 . S
C774 H768 0.930 . S
C774 C775 1.355 . S
C774 C776 1.415 . S
C775 C774 1.355 . S
C775 C777 1.419 . S
C776 C774 1.415 . S
C776 C781 1.425 . S
C776 C783 1.409 . S
C777 H769 0.930 . S
C777 C775 1.419 . S
C777 C778 1.362 . S
C778 H770 0.930 . S
C778 C777 1.362 . S
C778 C781 1.409 . S
C779 H771 0.930 . S
C779 C780 1.355 . S
C779 C781 1.415 . S
C780 C779 1.355 . S
C780 C782 1.419 . S
C781 C776 1.425 . S
C781 C778 1.409 . S
C781 C779 1.415 . S
C782 H772 0.930 . S
C782 C780 1.419 . S
C782 C783 1.362 . S
C783 H773 0.930 . S
C783 C776 1.409 . S
C783 C782 1.362 . S
H784 C790 0.930 . S
H785 C793 0.930 . S
H786 C794 0.951 . S
H787 C795 0.930 . S
H788 C798 0.930 . S
H789 C799 0.930 1_556 S
C790 H784 0.930 . S
C790 C791 1.355 . S
C790 C792 1.415 . S
C791 C790 1.355 . S
C791 C793 1.419 . S
C792 C790 1.415 . S
C792 C797 1.425 1_556 S
C792 C799 1.409 1_556 S
C793 H785 0.930 . S
C793 C791 1.419 . S
C793 C794 1.331 1_556 S
C794 H786 0.951 . S
C794 C793 1.331 1_554 S
C794 C797 1.421 . S
C795 H787 0.930 . S
C795 C796 1.355 . S
C795 C797 1.415 . S
C796 C795 1.355 . S
C796 C798 1.419 . S
C797 C792 1.425 1_554 S
C797 C794 1.421 . S
C797 C795 1.415 . S
C798 H788 0.930 . S
C798 C796 1.419 . S
C798 C799 1.362 . S
C799 H789 0.930 1_554 S
C799 C792 1.409 1_554 S
C799 C798 1.362 . S
H800 C806 0.930 . S
H801 C809 0.930 . S
H802 C810 0.930 . S
H803 C811 0.930 . S
H804 C814 0.930 . S
H805 C815 0.930 . S
C806 H800 0.930 . S
C806 C807 1.355 . S
C806 C808 1.415 . S
C807 C806 1.355 . S
C807 C809 1.419 . S
C808 C806 1.415 . S
C808 C813 1.425 . S
C808 C815 1.409 . S
C809 H801 0.930 . S
C809 C807 1.419 . S
C809 C810 1.362 . S
C810 H802 0.930 . S
C810 C809 1.362 . S
C810 C813 1.409 . S
C811 H803 0.930 . S
C811 C812 1.355 . S
C811 C813 1.415 . S
C812 C811 1.355 . S
C812 C814 1.419 . S
C813 C808 1.425 . S
C813 C810 1.409 . S
C813 C811 1.415 . S
C814 H804 0.930 . S
C814 C812 1.419 . S
C814 C815 1.362 . S
C815 H805 0.930 . S
C815 C808 1.409 . S
C815 C814 1.362 . S
H816 C822 0.930 . S
H817 C825 0.930 . S
H818 C826 0.930 . S
H819 C827 0.930 . S
H820 C830 0.930 . S
H821 C831 0.930 . S
C822 H816 0.930 . S
C822 C823 1.355 . S
C822 C824 1.415 . S
C823 C822 1.355 . S
C823 C825 1.419 . S
C824 C822 1.415 . S
C824 C829 1.425 . S
C824 C831 1.409 . S
C825 H817 0.930 . S
C825 C823 1.419 . S
C825 C826 1.362 . S
C826 H818 0.930 . S
C826 C825 1.362 . S
C826 C829 1.409 . S
C827 H819 0.930 . S
C827 C828 1.355 . S
C827 C829 1.415 . S
C828 C827 1.355 . S
C828 C830 1.419 . S
C829 C824 1.425 . S
C829 C826 1.409 . S
C829 C827 1.415 . S
C830 H820 0.930 . S
C830 C828 1.419 . S
C830 C831 1.362 . S
C831 H821 0.930 . S
C831 C824 1.409 . S
C831 C830 1.362 . S
H832 C838 0.930 . S
H833 C841 0.930 . S
H834 C842 0.930 . S
H835 C843 0.930 . S
H836 C846 0.930 . S
H837 C847 0.930 . S
C838 H832 0.930 . S
C838 C839 1.355 . S
C838 C840 1.415 . S
C839 C838 1.355 . S
C839 C841 1.419 . S
C840 C838 1.415 . S
C840 C845 1.425 . S
C840 C847 1.409 . S
C841 H833 0.930 . S
C841 C839 1.419 . S
C841 C842 1.362 . S
C842 H834 0.930 . S
C842 C841 1.362 . S
C842 C845 1.409 . S
C843 H835 0.930 . S
C843 C844 1.355 . S
C843 C845 1.415 . S
C844 C843 1.355 . S
C844 C846 1.419 . S
C845 C840 1.425 . S
C845 C842 1.409 . S
C845 C843 1.415 . S
C846 H836 0.930 . S
C846 C844 1.419 . S
C846 C847 1.362 . S
C847 H837 0.930 . S
C847 C840 1.409 . S
C847 C846 1.362 . S
H848 C854 0.930 . S
H849 C857 0.930 . S
H850 C858 0.930 . S
H851 C859 0.930 . S
H852 C862 0.930 . S
H853 C863 0.930 . S
C854 H848 0.930 . S
C854 C855 1.355 . S
C854 C856 1.415 . S
C855 C854 1.355 . S
C855 C857 1.419 . S
C856 C854 1.415 . S
C856 C861 1.425 1_565 S
C856 C863 1.409 1_565 S
C857 H849 0.930 . S
C857 C855 1.419 . S
C857 C858 1.362 . S
C858 H850 0.930 . S
C858 C857 1.362 . S
C858 C861 1.409 1_565 S
C859 H851 0.930 . S
C859 C860 1.355 . S
C859 C861 1.415 . S
C860 C859 1.355 . S
C860 C862 1.419 . S
C861 C856 1.425 1_545 S
C861 C858 1.409 1_545 S
C861 C859 1.415 . S
C862 H852 0.930 . S
C862 C860 1.419 . S
C862 C863 1.362 . S
C863 H853 0.930 . S
C863 C856 1.409 1_545 S
C863 C862 1.362 . S
H864 C870 0.930 . S
H865 C873 0.930 . S
H866 C874 0.930 . S
H867 C875 0.930 . S
H868 C878 0.930 . S
H869 C879 0.930 . S
C870 H864 0.930 . S
C870 C871 1.355 . S
C870 C872 1.415 . S
C871 C870 1.355 . S
C871 C873 1.419 . S
C872 C870 1.415 . S
C872 C877 1.425 . S
C872 C879 1.409 . S
C873 H865 0.930 . S
C873 C871 1.419 . S
C873 C874 1.362 . S
C874 H866 0.930 . S
C874 C873 1.362 . S
C874 C877 1.409 . S
C875 H867 0.930 . S
C875 C876 1.355 . S
C875 C877 1.415 . S
C876 C875 1.355 . S
C876 C878 1.419 . S
C877 C872 1.425 . S
C877 C874 1.409 . S
C877 C875 1.415 . S
C878 H868 0.930 . S
C878 C876 1.419 . S
C878 C879 1.362 . S
C879 H869 0.930 . S
C879 C872 1.409 . S
C879 C878 1.362 . S
H880 C886 0.930 . S
H881 C889 0.930 . S
H882 C890 0.930 . S
H883 C891 0.930 . S
H884 C894 0.930 . S
H885 C895 0.930 . S
C886 H880 0.930 . S
C886 C887 1.355 . S
C886 C888 1.415 . S
C887 C886 1.355 . S
C887 C889 1.419 . S
C888 C886 1.415 . S
C888 C893 1.425 . S
C888 C895 1.409 . S
C889 H881 0.930 . S
C889 C887 1.419 . S
C889 C890 1.362 . S
C890 H882 0.930 . S
C890 C889 1.362 . S
C890 C893 1.409 . S
C891 H883 0.930 . S
C891 C892 1.355 . S
C891 C893 1.415 . S
C892 C891 1.355 . S
C892 C894 1.419 . S
C893 C888 1.425 . S
C893 C890 1.409 . S
C893 C891 1.415 . S
C894 H884 0.930 . S
C894 C892 1.419 . S
C894 C895 1.362 . S
C895 H885 0.930 . S
C895 C888 1.409 . S
C895 C894 1.362 . S
H896 C902 0.930 . S
H897 C905 0.930 . S
H898 C906 0.930 . S
H899 C907 0.930 . S
H900 C910 0.930 . S
H901 C911 0.930 . S
C902 H896 0.930 . S
C902 C903 1.355 . S
C902 C904 1.415 . S
C903 C902 1.355 . S
C903 C905 1.419 . S
C904 C902 1.415 . S
C904 C909 1.425 . S
C904 C911 1.409 . S
C905 H897 0.930 . S
C905 C903 1.419 . S
C905 C906 1.362 . S
C906 H898 0.930 . S
C906 C905 1.362 . S
C906 C909 1.409 . S
C907 H899 0.930 . S
C907 C908 1.355 . S
C907 C909 1.415 . S
C908 C907 1.355 . S
C908 C910 1.419 . S
C909 C904 1.425 . S
C909 C906 1.409 . S
C909 C907 1.415 . S
C910 H900 0.930 . S
C910 C908 1.419 . S
C910 C911 1.362 . S
C911 H901 0.930 . S
C911 C904 1.409 . S
C911 C910 1.362 . S
H912 C918 0.930 . S
H913 C921 0.930 . S
H914 C922 0.930 1_565 S
H915 C923 0.930 . S
H916 C926 0.930 . S
H917 C927 0.930 . S
C918 H912 0.930 . S
C918 C919 1.355 . S
C918 C920 1.415 . S
C919 C918 1.355 . S
C919 C921 1.419 . S
C920 C918 1.415 . S
C920 C925 1.425 1_545 S
C920 C927 1.409 . S
C921 H913 0.930 . S
C921 C919 1.419 . S
C921 C922 1.362 . S
C922 H914 0.930 1_545 S
C922 C921 1.362 . S
C922 C925 1.409 1_545 S
C923 H915 0.930 . S
C923 C924 1.355 . S
C923 C925 1.415 . S
C924 C923 1.355 . S
C924 C926 1.419 . S
C925 C920 1.425 1_565 S
C925 C922 1.409 1_565 S
C925 C923 1.415 . S
C926 H916 0.930 . S
C926 C924 1.419 . S
C926 C927 1.362 1_565 S
C927 H917 0.930 . S
C927 C920 1.409 . S
C927 C926 1.362 1_545 S
H928 C934 0.930 . S
H929 C937 0.930 . S
H930 C938 0.930 . S
H931 C939 0.930 . S
H932 C942 0.930 . S
H933 C943 0.930 . S
C934 H928 0.930 . S
C934 C935 1.355 . S
C934 C936 1.415 . S
C935 C934 1.355 . S
C935 C937 1.419 . S
C936 C934 1.415 . S
C936 C941 1.425 . S
C936 C943 1.409 . S
C937 H929 0.930 . S
C937 C935 1.419 . S
C937 C938 1.362 . S
C938 H930 0.930 . S
C938 C937 1.362 . S
C938 C941 1.409 . S
C939 H931 0.930 . S
C939 C940 1.355 . S
C939 C941 1.415 . S
C940 C939 1.355 . S
C940 C942 1.419 . S
C941 C936 1.425 . S
C941 C938 1.409 . S
C941 C939 1.415 . S
C942 H932 0.930 . S
C942 C940 1.419 . S
C942 C943 1.362 . S
C943 H933 0.930 . S
C943 C936 1.409 . S
C943 C942 1.362 . S
H944 C950 0.930 . S
H945 C953 0.930 . S
H946 C954 0.930 . S
H947 C955 0.930 . S
H948 C958 0.930 . S
H949 C959 0.930 . S
C950 H944 0.930 . S
C950 C951 1.355 . S
C950 C952 1.415 . S
C951 C950 1.355 . S
C951 C953 1.419 . S
C952 C950 1.415 . S
C952 C957 1.425 . S
C952 C959 1.409 . S
C953 H945 0.930 . S
C953 C951 1.419 . S
C953 C954 1.362 . S
C954 H946 0.930 . S
C954 C953 1.362 . S
C954 C957 1.409 . S
C955 H947 0.930 . S
C955 C956 1.355 . S
C955 C957 1.415 . S
C956 C955 1.355 . S
C956 C958 1.419 . S
C957 C952 1.425 . S
C957 C954 1.409 . S
C957 C955 1.415 . S
C958 H948 0.930 . S
C958 C956 1.419 . S
C958 C959 1.362 . S
C959 H949 0.930 . S
C959 C952 1.409 . S
C959 C958 1.362 . S
H960 C966 0.930 . S
H961 C969 0.930 . S
H962 C970 0.930 . S
H963 C971 0.930 . S
H964 C974 0.930 . S
H965 C975 0.930 . S
C966 H960 0.930 . S
C966 C967 1.355 . S
C966 C968 1.415 . S
C967 C966 1.355 . S
C967 C969 1.419 . S
C968 C966 1.415 . S
C968 C973 1.425 1_655 S
C968 C975 1.409 1_655 S
C969 H961 0.930 . S
C969 C967 1.419 . S
C969 C970 1.362 . S
C970 H962 0.930 . S
C970 C969 1.362 . S
C970 C973 1.409 1_655 S
C971 H963 0.930 . S
C971 C972 1.355 . S
C971 C973 1.415 . S
C972 C971 1.355 . S
C972 C974 1.419 . S
C973 C968 1.425 1_455 S
C973 C970 1.409 1_455 S
C973 C971 1.415 . S
C974 H964 0.930 . S
C974 C972 1.419 . S
C974 C975 1.362 . S
C975 H965 0.930 . S
C975 C968 1.409 1_455 S
C975 C974 1.362 . S
H976 C982 0.930 . S
H977 C985 0.930 . S
H978 C986 0.930 . S
H979 C987 0.930 . S
H980 C990 0.930 . S
H981 C991 0.930 . S
C982 H976 0.930 . S
C982 C983 1.355 . S
C982 C984 1.415 . S
C983 C982 1.355 . S
C983 C985 1.419 . S
C984 C982 1.415 . S
C984 C989 1.425 . S
C984 C991 1.409 . S
C985 H977 0.930 . S
C985 C983 1.419 . S
C985 C986 1.362 . S
C986 H978 0.930 . S
C986 C985 1.362 . S
C986 C989 1.409 . S
C987 H979 0.930 . S
C987 C988 1.355 . S
C987 C989 1.415 . S
C988 C987 1.355 . S
C988 C990 1.419 . S
C989 C984 1.425 . S
C989 C986 1.409 . S
C989 C987 1.415 . S
C990 H980 0.930 . S
C990 C988 1.419 . S
C990 C991 1.362 . S
C991 H981 0.930 . S
C991 C984 1.409 . S
C991 C990 1.362 . S
H992 C998 0.930 . S
H993 C1001 0.930 . S
H994 C1002 0.930 . S
H995 C1003 0.930 . S
H996 C1006 0.930 . S
H997 C1007 0.930 . S
C998 H992 0.930 . S
C998 C999 1.355 . S
C998 C1000 1.415 . S
C999 C998 1.355 . S
C999 C1001 1.419 . S
C1000 C998 1.415 . S
C1000 C1005 1.425 . S
C1000 C1007 1.409 . S
C1001 H993 0.930 . S
C1001 C999 1.419 . S
C1001 C1002 1.362 . S
C1002 H994 0.930 . S
C1002 C1001 1.362 . S
C1002 C1005 1.409 . S
C1003 H995 0.930 . S
C1003 C1004 1.355 . S
C1003 C1005 1.415 . S
C1004 C1003 1.355 . S
C1004 C1006 1.419 . S
C1005 C1000 1.425 . S
C1005 C1002 1.409 . S
C1005 C1003 1.415 . S
C1006 H996 0.930 . S
C1006 C1004 1.419 . S
C1006 C1007 1.362 . S
C1007 H997 0.930 . S
C1007 C1000 1.409 . S
C1007 C1006 1.362 . S
H1008 C1014 0.930 . S
H1009 C1017 0.930 . S
H1010 C1018 0.930 . S
H1011 C1019 0.930 . S
H1012 C1022 0.930 . S
H1013 C1023 0.930 . S
C1014 H1008 0.930 . S
C1014 C1015 1.355 . S
C1014 C1016 1.415 . S
C1015 C1014 1.355 . S
C1015 C1017 1.419 . S
C1016 C1014 1.415 . S
C1016 C1021 1.425 . S
C1016 C1023 1.409 . S
C1017 H1009 0.930 . S
C1017 C1015 1.419 . S
C1017 C1018 1.362 . S
C1018 H1010 0.930 . S
C1018 C1017 1.362 . S
C1018 C1021 1.409 . S
C1019 H1011 0.930 . S
C1019 C1020 1.355 . S
C1019 C1021 1.415 . S
C1020 C1019 1.355 . S
C1020 C1022 1.419 . S
C1021 C1016 1.425 . S
C1021 C1018 1.409 . S
C1021 C1019 1.415 . S
C1022 H1012 0.930 . S
C1022 C1020 1.419 . S
C1022 C1023 1.362 . S
C1023 H1013 0.930 . S
C1023 C1016 1.409 . S
C1023 C1022 1.362 . S
H1024 C1030 0.930 . S
H1025 C1033 0.930 . S
H1026 C1034 0.930 . S
H1027 C1035 0.930 . S
H1028 C1038 0.930 . S
H1029 C1039 0.930 1_455 S
C1030 H1024 0.930 . S
C1030 C1031 1.355 . S
C1030 C1032 1.415 . S
C1031 C1030 1.355 . S
C1031 C1033 1.419 . S
C1032 C1030 1.415 . S
C1032 C1037 1.425 1_455 S
C1032 C1039 1.409 1_455 S
C1033 H1025 0.930 . S
C1033 C1031 1.419 . S
C1033 C1034 1.362 1_455 S
C1034 H1026 0.930 . S
C1034 C1033 1.362 1_655 S
C1034 C1037 1.409 . S
C1035 H1027 0.930 . S
C1035 C1036 1.355 . S
C1035 C1037 1.415 . S
C1036 C1035 1.355 . S
C1036 C1038 1.419 . S
C1037 C1032 1.425 1_655 S
C1037 C1034 1.409 . S
C1037 C1035 1.415 . S
C1038 H1028 0.930 . S
C1038 C1036 1.419 . S
C1038 C1039 1.362 . S
C1039 H1029 0.930 1_655 S
C1039 C1032 1.409 1_655 S
C1039 C1038 1.362 . S
H1040 C1046 0.930 . S
H1041 C1049 0.930 . S
H1042 C1050 0.934 . S
H1043 C1051 0.930 . S
H1044 C1054 0.930 . S
H1045 C1055 0.930 1_655 S
C1046 H1040 0.930 . S
C1046 C1047 1.355 . S
C1046 C1048 1.415 . S
C1047 C1046 1.355 . S
C1047 C1049 1.419 . S
C1048 C1046 1.415 . S
C1048 C1053 1.425 1_655 S
C1048 C1055 1.409 1_655 S
C1049 H1041 0.930 . S
C1049 C1047 1.419 . S
C1049 C1050 1.355 1_655 S
C1050 H1042 0.934 . S
C1050 C1049 1.355 1_455 S
C1050 C1053 1.412 . S
C1051 H1043 0.930 . S
C1051 C1052 1.355 . S
C1051 C1053 1.415 . S
C1052 C1051 1.355 . S
C1052 C1054 1.419 . S
C1053 C1048 1.425 1_455 S
C1053 C1050 1.412 . S
C1053 C1051 1.415 . S
C1054 H1044 0.930 . S
C1054 C1052 1.419 . S
C1054 C1055 1.362 . S
C1055 H1045 0.930 1_455 S
C1055 C1048 1.409 1_455 S
C1055 C1054 1.362 . S
H1056 C1062 0.930 . S
H1057 C1065 0.930 . S
H1058 C1066 0.930 . S
H1059 C1067 0.930 . S
H1060 C1070 0.930 . S
H1061 C1071 0.930 . S
C1062 H1056 0.930 . S
C1062 C1063 1.355 . S
C1062 C1064 1.415 . S
C1063 C1062 1.355 . S
C1063 C1065 1.419 . S
C1064 C1062 1.415 . S
C1064 C1069 1.425 . S
C1064 C1071 1.409 . S
C1065 H1057 0.930 . S
C1065 C1063 1.419 . S
C1065 C1066 1.362 . S
C1066 H1058 0.930 . S
C1066 C1065 1.362 . S
C1066 C1069 1.409 . S
C1067 H1059 0.930 . S
C1067 C1068 1.355 . S
C1067 C1069 1.415 . S
C1068 C1067 1.355 . S
C1068 C1070 1.419 . S
C1069 C1064 1.425 . S
C1069 C1066 1.409 . S
C1069 C1067 1.415 . S
C1070 H1060 0.930 . S
C1070 C1068 1.419 . S
C1070 C1071 1.362 . S
C1071 H1061 0.930 . S
C1071 C1064 1.409 . S
C1071 C1070 1.362 . S
H1072 C1078 0.930 . S
H1073 C1081 0.930 . S
H1074 C1082 0.930 . S
H1075 C1083 0.930 . S
H1076 C1086 0.930 . S
H1077 C1087 0.930 . S
C1078 H1072 0.930 . S
C1078 C1079 1.355 . S
C1078 C1080 1.415 . S
C1079 C1078 1.355 . S
C1079 C1081 1.419 . S
C1080 C1078 1.415 . S
C1080 C1085 1.425 . S
C1080 C1087 1.409 . S
C1081 H1073 0.930 . S
C1081 C1079 1.419 . S
C1081 C1082 1.362 . S
C1082 H1074 0.930 . S
C1082 C1081 1.362 . S
C1082 C1085 1.409 . S
C1083 H1075 0.930 . S
C1083 C1084 1.355 . S
C1083 C1085 1.415 . S
C1084 C1083 1.355 . S
C1084 C1086 1.419 . S
C1085 C1080 1.425 . S
C1085 C1082 1.409 . S
C1085 C1083 1.415 . S
C1086 H1076 0.930 . S
C1086 C1084 1.419 . S
C1086 C1087 1.362 . S
C1087 H1077 0.930 . S
C1087 C1080 1.409 . S
C1087 C1086 1.362 . S
H1088 C1094 0.930 . S
H1089 C1097 0.930 . S
H1090 C1098 0.930 . S
H1091 C1099 0.930 . S
H1092 C1102 0.930 . S
H1093 C1103 0.930 . S
C1094 H1088 0.930 . S
C1094 C1095 1.355 . S
C1094 C1096 1.415 . S
C1095 C1094 1.355 . S
C1095 C1097 1.419 . S
C1096 C1094 1.415 . S
C1096 C1101 1.425 . S
C1096 C1103 1.409 . S
C1097 H1089 0.930 . S
C1097 C1095 1.419 . S
C1097 C1098 1.362 . S
C1098 H1090 0.930 . S
C1098 C1097 1.362 . S
C1098 C1101 1.409 . S
C1099 H1091 0.930 . S
C1099 C1100 1.355 . S
C1099 C1101 1.415 . S
C1100 C1099 1.355 . S
C1100 C1102 1.419 . S
C1101 C1096 1.425 . S
C1101 C1098 1.409 . S
C1101 C1099 1.415 . S
C1102 H1092 0.930 . S
C1102 C1100 1.419 . S
C1102 C1103 1.362 . S
C1103 H1093 0.930 . S
C1103 C1096 1.409 . S
C1103 C1102 1.362 . S
H1104 C1110 0.930 . S
H1105 C1113 0.930 . S
H1106 C1114 0.930 . S
H1107 C1115 0.930 . S
H1108 C1118 0.930 . S
H1109 C1119 0.930 . S
C1110 H1104 0.930 . S
C1110 C1111 1.355 . S
C1110 C1112 1.415 . S
C1111 C1110 1.355 . S
C1111 C1113 1.419 . S
C1112 C1110 1.415 . S
C1112 C1117 1.425 . S
C1112 C1119 1.409 . S
C1113 H1105 0.930 . S
C1113 C1111 1.419 . S
C1113 C1114 1.362 . S
C1114 H1106 0.930 . S
C1114 C1113 1.362 . S
C1114 C1117 1.409 . S
C1115 H1107 0.930 . S
C1115 C1116 1.355 . S
C1115 C1117 1.415 . S
C1116 C1115 1.355 . S
C1116 C1118 1.419 . S
C1117 C1112 1.425 . S
C1117 C1114 1.409 . S
C1117 C1115 1.415 . S
C1118 H1108 0.930 . S
C1118 C1116 1.419 . S
C1118 C1119 1.362 . S
C1119 H1109 0.930 . S
C1119 C1112 1.409 . S
C1119 C1118 1.362 . S
H1120 C1126 0.930 . S
H1121 C1129 0.930 . S
H1122 C1130 0.930 . S
H1123 C1131 0.930 . S
H1124 C1134 0.930 . S
H1125 C1135 0.930 . S
C1126 H1120 0.930 . S
C1126 C1127 1.355 . S
C1126 C1128 1.415 . S
C1127 C1126 1.355 . S
C1127 C1129 1.419 . S
C1128 C1126 1.415 . S
C1128 C1133 1.425 . S
C1128 C1135 1.409 . S
C1129 H1121 0.930 . S
C1129 C1127 1.419 . S
C1129 C1130 1.362 . S
C1130 H1122 0.930 . S
C1130 C1129 1.362 . S
C1130 C1133 1.409 . S
C1131 H1123 0.930 . S
C1131 C1132 1.355 . S
C1131 C1133 1.415 . S
C1132 C1131 1.355 . S
C1132 C1134 1.419 . S
C1133 C1128 1.425 . S
C1133 C1130 1.409 . S
C1133 C1131 1.415 . S
C1134 H1124 0.930 . S
C1134 C1132 1.419 . S
C1134 C1135 1.362 . S
C1135 H1125 0.930 . S
C1135 C1128 1.409 . S
C1135 C1134 1.362 . S
H1136 C1142 0.930 . S
H1137 C1145 0.930 . S
H1138 C1146 0.930 . S
H1139 C1147 0.930 . S
H1140 C1150 0.930 . S
H1141 C1151 0.930 . S
C1142 H1136 0.930 . S
C1142 C1143 1.355 . S
C1142 C1144 1.415 . S
C1143 C1142 1.355 . S
C1143 C1145 1.419 . S
C1144 C1142 1.415 . S
C1144 C1149 1.425 . S
C1144 C1151 1.409 . S
C1145 H1137 0.930 . S
C1145 C1143 1.419 . S
C1145 C1146 1.362 . S
C1146 H1138 0.930 . S
C1146 C1145 1.362 . S
C1146 C1149 1.409 . S
C1147 H1139 0.930 . S
C1147 C1148 1.355 . S
C1147 C1149 1.415 . S
C1148 C1147 1.355 . S
C1148 C1150 1.419 . S
C1149 C1144 1.425 . S
C1149 C1146 1.409 . S
C1149 C1147 1.415 . S
C1150 H1140 0.930 . S
C1150 C1148 1.419 . S
C1150 C1151 1.362 . S
C1151 H1141 0.930 . S
C1151 C1144 1.409 . S
C1151 C1150 1.362 . S
H1152 C1158 0.930 . S
H1153 C1161 0.930 . S
H1154 C1162 0.930 . S
H1155 C1163 0.930 . S
H1156 C1166 0.930 . S
H1157 C1167 0.930 . S
C1158 H1152 0.930 . S
C1158 C1159 1.355 . S
C1158 C1160 1.415 . S
C1159 C1158 1.355 . S
C1159 C1161 1.419 . S
C1160 C1158 1.415 . S
C1160 C1165 1.425 . S
C1160 C1167 1.409 . S
C1161 H1153 0.930 . S
C1161 C1159 1.419 . S
C1161 C1162 1.362 . S
C1162 H1154 0.930 . S
C1162 C1161 1.362 . S
C1162 C1165 1.409 . S
C1163 H1155 0.930 . S
C1163 C1164 1.355 . S
C1163 C1165 1.415 . S
C1164 C1163 1.355 . S
C1164 C1166 1.419 . S
C1165 C1160 1.425 . S
C1165 C1162 1.409 . S
C1165 C1163 1.415 . S
C1166 H1156 0.930 . S
C1166 C1164 1.419 . S
C1166 C1167 1.362 . S
C1167 H1157 0.930 . S
C1167 C1160 1.409 . S
C1167 C1166 1.362 . S
H1168 C1174 0.930 . S
H1169 C1177 0.930 . S
H1170 C1178 0.930 . S
H1171 C1179 0.930 . S
H1172 C1182 0.930 . S
H1173 C1183 0.930 . S
C1174 H1168 0.930 . S
C1174 C1175 1.355 . S
C1174 C1176 1.415 . S
C1175 C1174 1.355 . S
C1175 C1177 1.419 . S
C1176 C1174 1.415 . S
C1176 C1181 1.425 . S
C1176 C1183 1.409 . S
C1177 H1169 0.930 . S
C1177 C1175 1.419 . S
C1177 C1178 1.362 . S
C1178 H1170 0.930 . S
C1178 C1177 1.362 . S
C1178 C1181 1.409 . S
C1179 H1171 0.930 . S
C1179 C1180 1.355 . S
C1179 C1181 1.415 . S
C1180 C1179 1.355 . S
C1180 C1182 1.419 . S
C1181 C1176 1.425 . S
C1181 C1178 1.409 . S
C1181 C1179 1.415 . S
C1182 H1172 0.930 . S
C1182 C1180 1.419 . S
C1182 C1183 1.362 . S
C1183 H1173 0.930 . S
C1183 C1176 1.409 . S
C1183 C1182 1.362 . S
H1184 C1190 0.930 . S
H1185 C1193 0.930 . S
H1186 C1194 0.930 . S
H1187 C1195 0.930 . S
H1188 C1198 0.930 . S
H1189 C1199 0.930 . S
C1190 H1184 0.930 . S
C1190 C1191 1.355 . S
C1190 C1192 1.415 . S
C1191 C1190 1.355 . S
C1191 C1193 1.419 . S
C1192 C1190 1.415 . S
C1192 C1197 1.425 . S
C1192 C1199 1.409 . S
C1193 H1185 0.930 . S
C1193 C1191 1.419 . S
C1193 C1194 1.362 . S
C1194 H1186 0.930 . S
C1194 C1193 1.362 . S
C1194 C1197 1.409 . S
C1195 H1187 0.930 . S
C1195 C1196 1.355 . S
C1195 C1197 1.415 . S
C1196 C1195 1.355 . S
C1196 C1198 1.419 . S
C1197 C1192 1.425 . S
C1197 C1194 1.409 . S
C1197 C1195 1.415 . S
C1198 H1188 0.930 . S
C1198 C1196 1.419 . S
C1198 C1199 1.362 . S
C1199 H1189 0.930 . S
C1199 C1192 1.409 . S
C1199 C1198 1.362 . S
H1200 C1206 0.930 . S
H1201 C1209 0.930 . S
H1202 C1210 0.930 1_545 S
H1203 C1211 0.930 . S
H1204 C1214 0.930 . S
H1205 C1215 0.906 1_565 S
C1206 H1200 0.930 . S
C1206 C1207 1.355 . S
C1206 C1208 1.415 . S
C1207 C1206 1.355 . S
C1207 C1209 1.419 . S
C1208 C1206 1.415 . S
C1208 C1213 1.425 1_565 S
C1208 C1215 1.392 1_565 S
C1209 H1201 0.930 . S
C1209 C1207 1.419 . S
C1209 C1210 1.362 . S
C1210 H1202 0.930 1_565 S
C1210 C1209 1.362 . S
C1210 C1213 1.409 1_565 S
C1211 H1203 0.930 . S
C1211 C1212 1.355 . S
C1211 C1213 1.415 . S
C1212 C1211 1.355 . S
C1212 C1214 1.419 . S
C1213 C1208 1.425 1_545 S
C1213 C1210 1.409 1_545 S
C1213 C1211 1.415 . S
C1214 H1204 0.930 . S
C1214 C1212 1.419 . S
C1214 C1215 1.405 . S
C1215 H1205 0.906 1_545 S
C1215 C1208 1.392 1_545 S
C1215 C1214 1.405 . S
H1216 C1222 0.930 . S
H1217 C1225 0.930 . S
H1218 C1226 0.930 . S
H1219 C1227 0.930 . S
H1220 C1230 0.930 . S
H1221 C1231 0.930 . S
C1222 H1216 0.930 . S
C1222 C1223 1.355 . S
C1222 C1224 1.415 . S
C1223 C1222 1.355 . S
C1223 C1225 1.419 . S
C1224 C1222 1.415 . S
C1224 C1229 1.425 . S
C1224 C1231 1.409 . S
C1225 H1217 0.930 . S
C1225 C1223 1.419 . S
C1225 C1226 1.362 . S
C1226 H1218 0.930 . S
C1226 C1225 1.362 . S
C1226 C1229 1.409 . S
C1227 H1219 0.930 . S
C1227 C1228 1.355 . S
C1227 C1229 1.415 . S
C1228 C1227 1.355 . S
C1228 C1230 1.419 . S
C1229 C1224 1.425 . S
C1229 C1226 1.409 . S
C1229 C1227 1.415 . S
C1230 H1220 0.930 . S
C1230 C1228 1.419 . S
C1230 C1231 1.362 . S
C1231 H1221 0.930 . S
C1231 C1224 1.409 . S
C1231 C1230 1.362 . S
H1232 C1238 0.930 . S
H1233 C1241 0.930 . S
H1234 C1242 0.930 . S
H1235 C1243 0.930 . S
H1236 C1246 0.930 . S
H1237 C1247 0.930 . S
C1238 H1232 0.930 . S
C1238 C1239 1.355 . S
C1238 C1240 1.415 . S
C1239 C1238 1.355 . S
C1239 C1241 1.419 . S
C1240 C1238 1.415 . S
C1240 C1245 1.425 . S
C1240 C1247 1.409 . S
C1241 H1233 0.930 . S
C1241 C1239 1.419 . S
C1241 C1242 1.362 . S
C1242 H1234 0.930 . S
C1242 C1241 1.362 . S
C1242 C1245 1.409 . S
C1243 H1235 0.930 . S
C1243 C1244 1.355 . S
C1243 C1245 1.415 . S
C1244 C1243 1.355 . S
C1244 C1246 1.419 . S
C1245 C1240 1.425 . S
C1245 C1242 1.409 . S
C1245 C1243 1.415 . S
C1246 H1236 0.930 . S
C1246 C1244 1.419 . S
C1246 C1247 1.362 . S
C1247 H1237 0.930 . S
C1247 C1240 1.409 . S
C1247 C1246 1.362 . S
H1248 C1254 0.930 . S
H1249 C1257 0.930 . S
H1250 C1258 0.930 . S
H1251 C1259 0.930 . S
H1252 C1262 0.930 . S
H1253 C1263 0.930 . S
C1254 H1248 0.930 . S
C1254 C1255 1.355 . S
C1254 C1256 1.415 . S
C1255 C1254 1.355 . S
C1255 C1257 1.419 . S
C1256 C1254 1.415 . S
C1256 C1261 1.425 . S
C1256 C1263 1.409 . S
C1257 H1249 0.930 . S
C1257 C1255 1.419 . S
C1257 C1258 1.362 . S
C1258 H1250 0.930 . S
C1258 C1257 1.362 . S
C1258 C1261 1.409 . S
C1259 H1251 0.930 . S
C1259 C1260 1.355 . S
C1259 C1261 1.415 . S
C1260 C1259 1.355 . S
C1260 C1262 1.419 . S
C1261 C1256 1.425 . S
C1261 C1258 1.409 . S
C1261 C1259 1.415 . S
C1262 H1252 0.930 . S
C1262 C1260 1.419 . S
C1262 C1263 1.362 . S
C1263 H1253 0.930 . S
C1263 C1256 1.409 . S
C1263 C1262 1.362 . S
H1264 C1270 0.930 . S
H1265 C1273 0.930 . S
H1266 C1274 0.944 . S
H1267 C1275 0.930 . S
H1268 C1278 0.930 . S
H1269 C1279 0.930 1_565 S
C1270 H1264 0.930 . S
C1270 C1271 1.355 . S
C1270 C1272 1.415 . S
C1271 C1270 1.355 . S
C1271 C1273 1.419 . S
C1272 C1270 1.415 . S
C1272 C1277 1.425 1_565 S
C1272 C1279 1.409 1_565 S
C1273 H1265 0.930 . S
C1273 C1271 1.419 . S
C1273 C1274 1.362 . S
C1274 H1266 0.944 . S
C1274 C1273 1.362 . S
C1274 C1277 1.409 1_565 S
C1275 H1267 0.930 . S
C1275 C1276 1.355 . S
C1275 C1277 1.415 . S
C1276 C1275 1.355 . S
C1276 C1278 1.419 . S
C1277 C1272 1.425 1_545 S
C1277 C1274 1.409 1_545 S
C1277 C1275 1.415 . S
C1278 H1268 0.930 . S
C1278 C1276 1.419 . S
C1278 C1279 1.362 . S
C1279 H1269 0.930 1_545 S
C1279 C1272 1.409 1_545 S
C1279 C1278 1.362 . S
H1280 C1286 0.930 . S
H1281 C1289 0.930 . S
H1282 C1290 0.930 . S
H1283 C1291 0.930 . S
H1284 C1294 0.930 . S
H1285 C1295 0.930 . S
C1286 H1280 0.930 . S
C1286 C1287 1.355 . S
C1286 C1288 1.415 . S
C1287 C1286 1.355 . S
C1287 C1289 1.419 . S
C1288 C1286 1.415 . S
C1288 C1293 1.425 . S
C1288 C1295 1.409 . S
C1289 H1281 0.930 . S
C1289 C1287 1.419 . S
C1289 C1290 1.362 . S
C1290 H1282 0.930 . S
C1290 C1289 1.362 . S
C1290 C1293 1.409 . S
C1291 H1283 0.930 . S
C1291 C1292 1.355 . S
C1291 C1293 1.415 . S
C1292 C1291 1.355 . S
C1292 C1294 1.419 . S
C1293 C1288 1.425 . S
C1293 C1290 1.409 . S
C1293 C1291 1.415 . S
C1294 H1284 0.930 . S
C1294 C1292 1.419 . S
C1294 C1295 1.362 . S
C1295 H1285 0.930 . S
C1295 C1288 1.409 . S
C1295 C1294 1.362 . S
H1296 C1302 0.930 . S
H1297 C1305 0.930 . S
H1298 C1306 0.930 . S
H1299 C1307 0.930 . S
H1300 C1310 0.930 . S
H1301 C1311 0.930 . S
C1302 H1296 0.930 . S
C1302 C1303 1.355 . S
C1302 C1304 1.415 . S
C1303 C1302 1.355 . S
C1303 C1305 1.419 . S
C1304 C1302 1.415 . S
C1304 C1309 1.425 . S
C1304 C1311 1.409 . S
C1305 H1297 0.930 . S
C1305 C1303 1.419 . S
C1305 C1306 1.362 . S
C1306 H1298 0.930 . S
C1306 C1305 1.362 . S
C1306 C1309 1.409 . S
C1307 H1299 0.930 . S
C1307 C1308 1.355 . S
C1307 C1309 1.415 . S
C1308 C1307 1.355 . S
C1308 C1310 1.419 . S
C1309 C1304 1.425 . S
C1309 C1306 1.409 . S
C1309 C1307 1.415 . S
C1310 H1300 0.930 . S
C1310 C1308 1.419 . S
C1310 C1311 1.362 . S
C1311 H1301 0.930 . S
C1311 C1304 1.409 . S
C1311 C1310 1.362 . S
H1312 C1318 0.930 . S
H1313 C1321 0.930 . S
H1314 C1322 0.930 . S
H1315 C1323 0.930 . S
H1316 C1326 0.930 . S
H1317 C1327 0.930 . S
C1318 H1312 0.930 . S
C1318 C1319 1.355 . S
C1318 C1320 1.415 . S
C1319 C1318 1.355 . S
C1319 C1321 1.419 . S
C1320 C1318 1.415 . S
C1320 C1325 1.425 . S
C1320 C1327 1.409 . S
C1321 H1313 0.930 . S
C1321 C1319 1.419 . S
C1321 C1322 1.362 . S
C1322 H1314 0.930 . S
C1322 C1321 1.362 . S
C1322 C1325 1.409 . S
C1323 H1315 0.930 . S
C1323 C1324 1.355 . S
C1323 C1325 1.415 . S
C1324 C1323 1.355 . S
C1324 C1326 1.419 . S
C1325 C1320 1.425 . S
C1325 C1322 1.409 . S
C1325 C1323 1.415 . S
C1326 H1316 0.930 . S
C1326 C1324 1.419 . S
C1326 C1327 1.362 . S
C1327 H1317 0.930 . S
C1327 C1320 1.409 . S
C1327 C1326 1.362 . S
H1328 C1334 0.930 . S
H1329 C1337 0.930 . S
H1330 C1338 0.930 . S
H1331 C1339 0.930 . S
H1332 C1342 0.930 . S
H1333 C1343 0.930 . S
C1334 H1328 0.930 . S
C1334 C1335 1.355 . S
C1334 C1336 1.415 . S
C1335 C1334 1.355 . S
C1335 C1337 1.419 . S
C1336 C1334 1.415 . S
C1336 C1341 1.425 . S
C1336 C1343 1.409 . S
C1337 H1329 0.930 . S
C1337 C1335 1.419 . S
C1337 C1338 1.362 . S
C1338 H1330 0.930 . S
C1338 C1337 1.362 . S
C1338 C1341 1.409 . S
C1339 H1331 0.930 . S
C1339 C1340 1.355 . S
C1339 C1341 1.415 . S
C1340 C1339 1.355 . S
C1340 C1342 1.419 . S
C1341 C1336 1.425 . S
C1341 C1338 1.409 . S
C1341 C1339 1.415 . S
C1342 H1332 0.930 . S
C1342 C1340 1.419 . S
C1342 C1343 1.362 . S
C1343 H1333 0.930 . S
C1343 C1336 1.409 . S
C1343 C1342 1.362 . S
H1344 C1350 0.930 . S
H1345 C1353 0.930 . S
H1346 C1354 0.930 . S
H1347 C1355 0.930 . S
H1348 C1358 0.930 . S
H1349 C1359 0.930 . S
C1350 H1344 0.930 . S
C1350 C1351 1.355 . S
C1350 C1352 1.415 . S
C1351 C1350 1.355 . S
C1351 C1353 1.419 . S
C1352 C1350 1.415 . S
C1352 C1357 1.425 . S
C1352 C1359 1.409 . S
C1353 H1345 0.930 . S
C1353 C1351 1.419 . S
C1353 C1354 1.362 . S
C1354 H1346 0.930 . S
C1354 C1353 1.362 . S
C1354 C1357 1.409 . S
C1355 H1347 0.930 . S
C1355 C1356 1.355 . S
C1355 C1357 1.415 . S
C1356 C1355 1.355 . S
C1356 C1358 1.419 . S
C1357 C1352 1.425 . S
C1357 C1354 1.409 . S
C1357 C1355 1.415 . S
C1358 H1348 0.930 . S
C1358 C1356 1.419 . S
C1358 C1359 1.362 . S
C1359 H1349 0.930 . S
C1359 C1352 1.409 . S
C1359 C1358 1.362 . S
H1360 C1366 0.930 . S
H1361 C1369 0.930 . S
H1362 C1370 0.930 . S
H1363 C1371 0.930 . S
H1364 C1374 0.930 . S
H1365 C1375 0.930 . S
C1366 H1360 0.930 . S
C1366 C1367 1.355 . S
C1366 C1368 1.415 . S
C1367 C1366 1.355 . S
C1367 C1369 1.419 . S
C1368 C1366 1.415 . S
C1368 C1373 1.425 . S
C1368 C1375 1.409 . S
C1369 H1361 0.930 . S
C1369 C1367 1.419 . S
C1369 C1370 1.362 . S
C1370 H1362 0.930 . S
C1370 C1369 1.362 . S
C1370 C1373 1.409 . S
C1371 H1363 0.930 . S
C1371 C1372 1.355 . S
C1371 C1373 1.415 . S
C1372 C1371 1.355 . S
C1372 C1374 1.419 . S
C1373 C1368 1.425 . S
C1373 C1370 1.409 . S
C1373 C1371 1.415 . S
C1374 H1364 0.930 . S
C1374 C1372 1.419 . S
C1374 C1375 1.362 . S
C1375 H1365 0.930 . S
C1375 C1368 1.409 . S
C1375 C1374 1.362 . S
H1376 C1382 0.930 . S
H1377 C1385 0.930 . S
H1378 C1386 0.930 . S
H1379 C1387 0.930 . S
H1380 C1390 0.930 . S
H1381 C1391 0.930 . S
C1382 H1376 0.930 . S
C1382 C1383 1.355 . S
C1382 C1384 1.415 . S
C1383 C1382 1.355 . S
C1383 C1385 1.419 . S
C1384 C1382 1.415 . S
C1384 C1389 1.419 1_455 S
C1384 C1391 1.409 1_455 S
C1385 H1377 0.930 . S
C1385 C1383 1.419 . S
C1385 C1386 1.362 . S
C1386 H1378 0.930 . S
C1386 C1385 1.362 . S
C1386 C1389 1.384 1_455 S
C1387 H1379 0.930 . S
C1387 C1388 1.355 . S
C1387 C1389 1.447 . S
C1388 C1387 1.355 . S
C1388 C1390 1.419 . S
C1389 C1384 1.419 1_655 S
C1389 C1386 1.384 1_655 S
C1389 C1387 1.447 . S
C1390 H1380 0.930 . S
C1390 C1388 1.419 . S
C1390 C1391 1.362 . S
C1391 H1381 0.930 . S
C1391 C1384 1.409 1_655 S
C1391 C1390 1.362 . S
H1392 C1398 0.930 . S
H1393 C1401 0.930 . S
H1394 C1402 0.930 . S
H1395 C1403 0.930 . S
H1396 C1406 0.930 . S
H1397 C1407 0.930 . S
C1398 H1392 0.930 . S
C1398 C1399 1.355 . S
C1398 C1400 1.415 . S
C1399 C1398 1.355 . S
C1399 C1401 1.419 . S
C1400 C1398 1.415 . S
C1400 C1405 1.425 . S
C1400 C1407 1.409 . S
C1401 H1393 0.930 . S
C1401 C1399 1.419 . S
C1401 C1402 1.362 . S
C1402 H1394 0.930 . S
C1402 C1401 1.362 . S
C1402 C1405 1.409 . S
C1403 H1395 0.930 . S
C1403 C1404 1.355 . S
C1403 C1405 1.415 . S
C1404 C1403 1.355 . S
C1404 C1406 1.419 . S
C1405 C1400 1.425 . S
C1405 C1402 1.409 . S
C1405 C1403 1.415 . S
C1406 H1396 0.930 . S
C1406 C1404 1.419 . S
C1406 C1407 1.362 . S
C1407 H1397 0.930 . S
C1407 C1400 1.409 . S
C1407 C1406 1.362 . S
H1408 C1414 0.930 . S
H1409 C1417 0.930 . S
H1410 C1418 0.930 . S
H1411 C1419 0.930 . S
H1412 C1422 0.930 . S
H1413 C1423 0.930 . S
C1414 H1408 0.930 . S
C1414 C1415 1.355 . S
C1414 C1416 1.415 . S
C1415 C1414 1.355 . S
C1415 C1417 1.419 . S
C1416 C1414 1.415 . S
C1416 C1421 1.425 . S
C1416 C1423 1.409 . S
C1417 H1409 0.930 . S
C1417 C1415 1.419 . S
C1417 C1418 1.362 . S
C1418 H1410 0.930 . S
C1418 C1417 1.362 . S
C1418 C1421 1.409 . S
C1419 H1411 0.930 . S
C1419 C1420 1.355 . S
C1419 C1421 1.415 . S
C1420 C1419 1.355 . S
C1420 C1422 1.419 . S
C1421 C1416 1.425 . S
C1421 C1418 1.409 . S
C1421 C1419 1.415 . S
C1422 H1412 0.930 . S
C1422 C1420 1.419 . S
C1422 C1423 1.362 . S
C1423 H1413 0.930 . S
C1423 C1416 1.409 . S
C1423 C1422 1.362 . S
H1424 C1430 0.930 . S
H1425 C1433 0.930 . S
H1426 C1434 0.930 . S
H1427 C1435 0.930 . S
H1428 C1438 0.930 . S
H1429 C1439 0.930 . S
C1430 H1424 0.930 . S
C1430 C1431 1.355 . S
C1430 C1432 1.415 . S
C1431 C1430 1.355 . S
C1431 C1433 1.419 . S
C1432 C1430 1.415 . S
C1432 C1437 1.425 . S
C1432 C1439 1.409 . S
C1433 H1425 0.930 . S
C1433 C1431 1.419 . S
C1433 C1434 1.362 . S
C1434 H1426 0.930 . S
C1434 C1433 1.362 . S
C1434 C1437 1.409 . S
C1435 H1427 0.930 . S
C1435 C1436 1.355 . S
C1435 C1437 1.415 . S
C1436 C1435 1.355 . S
C1436 C1438 1.419 . S
C1437 C1432 1.425 . S
C1437 C1434 1.409 . S
C1437 C1435 1.415 . S
C1438 H1428 0.930 . S
C1438 C1436 1.419 . S
C1438 C1439 1.362 . S
C1439 H1429 0.930 . S
C1439 C1432 1.409 . S
C1439 C1438 1.362 . S
H1440 C1446 0.930 . S
H1441 C1449 0.930 . S
H1442 C1450 0.930 . S
H1443 C1451 0.930 . S
H1444 C1454 0.930 . S
H1445 C1455 0.930 . S
C1446 H1440 0.930 . S
C1446 C1447 1.355 . S
C1446 C1448 1.415 . S
C1447 C1446 1.355 . S
C1447 C1449 1.419 . S
C1448 C1446 1.415 . S
C1448 C1453 1.425 . S
C1448 C1455 1.409 . S
C1449 H1441 0.930 . S
C1449 C1447 1.419 . S
C1449 C1450 1.362 . S
C1450 H1442 0.930 . S
C1450 C1449 1.362 . S
C1450 C1453 1.409 . S
C1451 H1443 0.930 . S
C1451 C1452 1.355 . S
C1451 C1453 1.415 . S
C1452 C1451 1.355 . S
C1452 C1454 1.419 . S
C1453 C1448 1.425 . S
C1453 C1450 1.409 . S
C1453 C1451 1.415 . S
C1454 H1444 0.930 . S
C1454 C1452 1.419 . S
C1454 C1455 1.362 . S
C1455 H1445 0.930 . S
C1455 C1448 1.409 . S
C1455 C1454 1.362 . S
H1456 C1462 0.930 . S
H1457 C1465 0.930 . S
H1458 C1466 0.930 . S
H1459 C1467 0.930 . S
H1460 C1470 0.930 . S
H1461 C1471 0.930 . S
C1462 H1456 0.930 . S
C1462 C1463 1.355 . S
C1462 C1464 1.415 . S
C1463 C1462 1.355 . S
C1463 C1465 1.419 . S
C1464 C1462 1.415 . S
C1464 C1469 1.425 . S
C1464 C1471 1.409 . S
C1465 H1457 0.930 . S
C1465 C1463 1.419 . S
C1465 C1466 1.362 . S
C1466 H1458 0.930 . S
C1466 C1465 1.362 . S
C1466 C1469 1.409 . S
C1467 H1459 0.930 . S
C1467 C1468 1.355 . S
C1467 C1469 1.415 . S
C1468 C1467 1.355 . S
C1468 C1470 1.419 . S
C1469 C1464 1.425 . S
C1469 C1466 1.409 . S
C1469 C1467 1.415 . S
C1470 H1460 0.930 . S
C1470 C1468 1.419 . S
C1470 C1471 1.362 . S
C1471 H1461 0.930 . S
C1471 C1464 1.409 . S
C1471 C1470 1.362 . S
H1472 C1478 0.930 . S
H1473 C1481 0.930 . S
H1474 C1482 0.930 . S
H1475 C1483 0.930 . S
H1476 C1486 0.930 . S
H1477 C1487 0.930 . S
C1478 H1472 0.930 . S
C1478 C1479 1.355 . S
C1478 C1480 1.415 . S
C1479 C1478 1.355 . S
C1479 C1481 1.419 . S
C1480 C1478 1.415 . S
C1480 C1485 1.425 . S
C1480 C1487 1.409 . S
C1481 H1473 0.930 . S
C1481 C1479 1.419 . S
C1481 C1482 1.362 . S
C1482 H1474 0.930 . S
C1482 C1481 1.362 . S
C1482 C1485 1.409 . S
C1483 H1475 0.930 . S
C1483 C1484 1.355 . S
C1483 C1485 1.415 . S
C1484 C1483 1.355 . S
C1484 C1486 1.419 . S
C1485 C1480 1.425 . S
C1485 C1482 1.409 . S
C1485 C1483 1.415 . S
C1486 H1476 0.930 . S
C1486 C1484 1.419 . S
C1486 C1487 1.362 . S
C1487 H1477 0.930 . S
C1487 C1480 1.409 . S
C1487 C1486 1.362 . S
H1488 C1494 0.930 . S
H1489 C1497 0.930 . S
H1490 C1498 0.930 . S
H1491 C1499 0.930 . S
H1492 C1502 0.930 . S
H1493 C1503 0.930 . S
C1494 H1488 0.930 . S
C1494 C1495 1.355 . S
C1494 C1496 1.415 . S
C1495 C1494 1.355 . S
C1495 C1497 1.419 . S
C1496 C1494 1.415 . S
C1496 C1501 1.425 . S
C1496 C1503 1.409 . S
C1497 H1489 0.930 . S
C1497 C1495 1.419 . S
C1497 C1498 1.362 . S
C1498 H1490 0.930 . S
C1498 C1497 1.362 . S
C1498 C1501 1.409 . S
C1499 H1491 0.930 . S
C1499 C1500 1.355 . S
C1499 C1501 1.415 . S
C1500 C1499 1.355 . S
C1500 C1502 1.419 . S
C1501 C1496 1.425 . S
C1501 C1498 1.409 . S
C1501 C1499 1.415 . S
C1502 H1492 0.930 . S
C1502 C1500 1.419 . S
C1502 C1503 1.362 . S
C1503 H1493 0.930 . S
C1503 C1496 1.409 . S
C1503 C1502 1.362 . S
H1504 C1510 0.930 . S
H1505 C1513 0.930 . S
H1506 C1514 0.930 . S
H1507 C1515 0.930 . S
H1508 C1518 0.930 . S
H1509 C1519 0.930 . S
C1510 H1504 0.930 . S
C1510 C1511 1.355 . S
C1510 C1512 1.415 . S
C1511 C1510 1.355 . S
C1511 C1513 1.419 . S
C1512 C1510 1.415 . S
C1512 C1517 1.425 . S
C1512 C1519 1.409 . S
C1513 H1505 0.930 . S
C1513 C1511 1.419 . S
C1513 C1514 1.362 . S
C1514 H1506 0.930 . S
C1514 C1513 1.362 . S
C1514 C1517 1.409 . S
C1515 H1507 0.930 . S
C1515 C1516 1.355 . S
C1515 C1517 1.415 . S
C1516 C1515 1.355 . S
C1516 C1518 1.419 . S
C1517 C1512 1.425 . S
C1517 C1514 1.409 . S
C1517 C1515 1.415 . S
C1518 H1508 0.930 . S
C1518 C1516 1.419 . S
C1518 C1519 1.362 . S
C1519 H1509 0.930 . S
C1519 C1512 1.409 . S
C1519 C1518 1.362 . S
H1520 C1526 0.930 . S
H1521 C1529 0.930 . S
H1522 C1530 0.930 . S
H1523 C1531 0.930 . S
H1524 C1534 0.930 . S
H1525 C1535 0.930 . S
C1526 H1520 0.930 . S
C1526 C1527 1.355 . S
C1526 C1528 1.415 . S
C1527 C1526 1.355 . S
C1527 C1529 1.419 . S
C1528 C1526 1.415 . S
C1528 C1533 1.425 . S
C1528 C1535 1.409 . S
C1529 H1521 0.930 . S
C1529 C1527 1.419 . S
C1529 C1530 1.362 . S
C1530 H1522 0.930 . S
C1530 C1529 1.362 . S
C1530 C1533 1.409 . S
C1531 H1523 0.930 . S
C1531 C1532 1.355 . S
C1531 C1533 1.415 . S
C1532 C1531 1.355 . S
C1532 C1534 1.419 . S
C1533 C1528 1.425 . S
C1533 C1530 1.409 . S
C1533 C1531 1.415 . S
C1534 H1524 0.930 . S
C1534 C1532 1.419 . S
C1534 C1535 1.362 . S
C1535 H1525 0.930 . S
C1535 C1528 1.409 . S
C1535 C1534 1.362 . S
H1536 C1542 0.930 . S
H1537 C1545 0.930 . S
H1538 C1546 0.930 . S
H1539 C1547 0.930 . S
H1540 C1550 0.930 . S
H1541 C1551 0.930 . S
C1542 H1536 0.930 . S
C1542 C1543 1.355 . S
C1542 C1544 1.415 . S
C1543 C1542 1.355 . S
C1543 C1545 1.419 . S
C1544 C1542 1.415 . S
C1544 C1549 1.425 . S
C1544 C1551 1.409 . S
C1545 H1537 0.930 . S
C1545 C1543 1.419 . S
C1545 C1546 1.362 . S
C1546 H1538 0.930 . S
C1546 C1545 1.362 . S
C1546 C1549 1.409 . S
C1547 H1539 0.930 . S
C1547 C1548 1.355 . S
C1547 C1549 1.415 . S
C1548 C1547 1.355 . S
C1548 C1550 1.419 . S
C1549 C1544 1.425 . S
C1549 C1546 1.409 . S
C1549 C1547 1.415 . S
C1550 H1540 0.930 . S
C1550 C1548 1.419 . S
C1550 C1551 1.362 . S
C1551 H1541 0.930 . S
C1551 C1544 1.409 . S
C1551 C1550 1.362 . S
H1552 C1558 0.930 . S
H1553 C1561 0.930 . S
H1554 C1562 0.930 . S
H1555 C1563 0.930 . S
H1556 C1566 0.930 . S
H1557 C1567 0.930 . S
C1558 H1552 0.930 . S
C1558 C1559 1.355 . S
C1558 C1560 1.415 . S
C1559 C1558 1.355 . S
C1559 C1561 1.419 . S
C1560 C1558 1.415 . S
C1560 C1565 1.425 . S
C1560 C1567 1.409 . S
C1561 H1553 0.930 . S
C1561 C1559 1.419 . S
C1561 C1562 1.362 . S
C1562 H1554 0.930 . S
C1562 C1561 1.362 . S
C1562 C1565 1.409 . S
C1563 H1555 0.930 . S
C1563 C1564 1.355 . S
C1563 C1565 1.415 . S
C1564 C1563 1.355 . S
C1564 C1566 1.419 . S
C1565 C1560 1.425 . S
C1565 C1562 1.409 . S
C1565 C1563 1.415 . S
C1566 H1556 0.930 . S
C1566 C1564 1.419 . S
C1566 C1567 1.362 . S
C1567 H1557 0.930 . S
C1567 C1560 1.409 . S
C1567 C1566 1.362 . S
H1568 C1574 0.930 . S
H1569 C1577 0.930 . S
H1570 C1578 0.930 . S
H1571 C1579 0.930 . S
H1572 C1582 0.930 . S
H1573 C1583 0.930 . S
C1574 H1568 0.930 . S
C1574 C1575 1.355 . S
C1574 C1576 1.415 . S
C1575 C1574 1.355 . S
C1575 C1577 1.419 . S
C1576 C1574 1.415 . S
C1576 C1581 1.425 . S
C1576 C1583 1.409 . S
C1577 H1569 0.930 . S
C1577 C1575 1.419 . S
C1577 C1578 1.362 . S
C1578 H1570 0.930 . S
C1578 C1577 1.362 . S
C1578 C1581 1.409 . S
C1579 H1571 0.930 . S
C1579 C1580 1.355 . S
C1579 C1581 1.415 . S
C1580 C1579 1.355 . S
C1580 C1582 1.419 . S
C1581 C1576 1.425 . S
C1581 C1578 1.409 . S
C1581 C1579 1.415 . S
C1582 H1572 0.930 . S
C1582 C1580 1.419 . S
C1582 C1583 1.362 . S
C1583 H1573 0.930 . S
C1583 C1576 1.409 . S
C1583 C1582 1.362 . S
H1584 C1590 0.930 . S
H1585 C1593 0.930 . S
H1586 C1594 0.930 . S
H1587 C1595 0.930 . S
H1588 C1598 0.930 . S
H1589 C1599 0.930 . S
C1590 H1584 0.930 . S
C1590 C1591 1.355 . S
C1590 C1592 1.415 . S
C1591 C1590 1.355 . S
C1591 C1593 1.419 . S
C1592 C1590 1.415 . S
C1592 C1597 1.425 . S
C1592 C1599 1.409 . S
C1593 H1585 0.930 . S
C1593 C1591 1.419 . S
C1593 C1594 1.362 . S
C1594 H1586 0.930 . S
C1594 C1593 1.362 . S
C1594 C1597 1.409 . S
C1595 H1587 0.930 . S
C1595 C1596 1.355 . S
C1595 C1597 1.415 . S
C1596 C1595 1.355 . S
C1596 C1598 1.419 . S
C1597 C1592 1.425 . S
C1597 C1594 1.409 . S
C1597 C1595 1.415 . S
C1598 H1588 0.930 . S
C1598 C1596 1.419 . S
C1598 C1599 1.362 . S
C1599 H1589 0.930 . S
C1599 C1592 1.409 . S
C1599 C1598 1.362 . S
H1600 C1606 0.930 . S
H1601 C1609 0.930 . S
H1602 C1610 0.930 . S
H1603 C1611 0.930 . S
H1604 C1614 0.930 . S
H1605 C1615 0.930 . S
C1606 H1600 0.930 . S
C1606 C1607 1.355 . S
C1606 C1608 1.415 . S
C1607 C1606 1.355 . S
C1607 C1609 1.419 . S
C1608 C1606 1.415 . S
C1608 C1613 1.425 . S
C1608 C1615 1.409 . S
C1609 H1601 0.930 . S
C1609 C1607 1.419 . S
C1609 C1610 1.362 . S
C1610 H1602 0.930 . S
C1610 C1609 1.362 . S
C1610 C1613 1.409 . S
C1611 H1603 0.930 . S
C1611 C1612 1.355 . S
C1611 C1613 1.415 . S
C1612 C1611 1.355 . S
C1612 C1614 1.419 . S
C1613 C1608 1.425 . S
C1613 C1610 1.409 . S
C1613 C1611 1.415 . S
C1614 H1604 0.930 . S
C1614 C1612 1.419 . S
C1614 C1615 1.362 . S
C1615 H1605 0.930 . S
C1615 C1608 1.409 . S
C1615 C1614 1.362 . S
H1616 C1622 0.930 . S
H1617 C1625 0.930 . S
H1618 C1626 0.930 . S
H1619 C1627 0.930 . S
H1620 C1630 0.930 . S
H1621 C1631 0.930 . S
C1622 H1616 0.930 . S
C1622 C1623 1.355 . S
C1622 C1624 1.415 . S
C1623 C1622 1.355 . S
C1623 C1625 1.419 . S
C1624 C1622 1.415 . S
C1624 C1629 1.425 . S
C1624 C1631 1.409 . S
C1625 H1617 0.930 . S
C1625 C1623 1.419 . S
C1625 C1626 1.362 . S
C1626 H1618 0.930 . S
C1626 C1625 1.362 . S
C1626 C1629 1.409 . S
C1627 H1619 0.930 . S
C1627 C1628 1.355 . S
C1627 C1629 1.415 . S
C1628 C1627 1.355 . S
C1628 C1630 1.419 . S
C1629 C1624 1.425 . S
C1629 C1626 1.409 . S
C1629 C1627 1.415 . S
C1630 H1620 0.930 . S
C1630 C1628 1.419 . S
C1630 C1631 1.362 . S
C1631 H1621 0.930 . S
C1631 C1624 1.409 . S
C1631 C1630 1.362 . S
H1632 C1638 0.930 . S
H1633 C1641 0.930 . S
H1634 C1642 0.930 . S
H1635 C1643 0.930 . S
H1636 C1646 0.930 . S
H1637 C1647 0.930 . S
C1638 H1632 0.930 . S
C1638 C1639 1.355 . S
C1638 C1640 1.415 . S
C1639 C1638 1.355 . S
C1639 C1641 1.419 . S
C1640 C1638 1.415 . S
C1640 C1645 1.425 . S
C1640 C1647 1.409 . S
C1641 H1633 0.930 . S
C1641 C1639 1.419 . S
C1641 C1642 1.362 . S
C1642 H1634 0.930 . S
C1642 C1641 1.362 . S
C1642 C1645 1.409 . S
C1643 H1635 0.930 . S
C1643 C1644 1.355 . S
C1643 C1645 1.415 . S
C1644 C1643 1.355 . S
C1644 C1646 1.419 . S
C1645 C1640 1.425 . S
C1645 C1642 1.409 . S
C1645 C1643 1.415 . S
C1646 H1636 0.930 . S
C1646 C1644 1.419 . S
C1646 C1647 1.362 . S
C1647 H1637 0.930 . S
C1647 C1640 1.409 . S
C1647 C1646 1.362 . S
H1648 C1654 0.930 . S
H1649 C1657 0.930 . S
H1650 C1658 0.930 . S
H1651 C1659 0.930 . S
H1652 C1662 0.930 . S
H1653 C1663 0.930 . S
C1654 H1648 0.930 . S
C1654 C1655 1.355 . S
C1654 C1656 1.415 . S
C1655 C1654 1.355 . S
C1655 C1657 1.419 . S
C1656 C1654 1.415 . S
C1656 C1661 1.425 . S
C1656 C1663 1.409 . S
C1657 H1649 0.930 . S
C1657 C1655 1.419 . S
C1657 C1658 1.362 . S
C1658 H1650 0.930 . S
C1658 C1657 1.362 . S
C1658 C1661 1.409 . S
C1659 H1651 0.930 . S
C1659 C1660 1.355 . S
C1659 C1661 1.415 . S
C1660 C1659 1.355 . S
C1660 C1662 1.419 . S
C1661 C1656 1.425 . S
C1661 C1658 1.409 . S
C1661 C1659 1.415 . S
C1662 H1652 0.930 . S
C1662 C1660 1.419 . S
C1662 C1663 1.362 . S
C1663 H1653 0.930 . S
C1663 C1656 1.409 . S
C1663 C1662 1.362 . S
H1664 C1670 0.930 . S
H1665 C1673 0.930 . S
H1666 C1674 0.930 . S
H1667 C1675 0.930 . S
H1668 C1678 0.930 . S
H1669 C1679 0.930 . S
C1670 H1664 0.930 . S
C1670 C1671 1.355 . S
C1670 C1672 1.415 . S
C1671 C1670 1.355 . S
C1671 C1673 1.419 . S
C1672 C1670 1.415 . S
C1672 C1677 1.425 . S
C1672 C1679 1.409 . S
C1673 H1665 0.930 . S
C1673 C1671 1.419 . S
C1673 C1674 1.362 . S
C1674 H1666 0.930 . S
C1674 C1673 1.362 . S
C1674 C1677 1.409 . S
C1675 H1667 0.930 . S
C1675 C1676 1.355 . S
C1675 C1677 1.415 . S
C1676 C1675 1.355 . S
C1676 C1678 1.419 . S
C1677 C1672 1.425 . S
C1677 C1674 1.409 . S
C1677 C1675 1.415 . S
C1678 H1668 0.930 . S
C1678 C1676 1.419 . S
C1678 C1679 1.362 . S
C1679 H1669 0.930 . S
C1679 C1672 1.409 . S
C1679 C1678 1.362 . S
H1680 C1686 0.930 . S
H1681 C1689 0.930 . S
H1682 C1690 0.930 . S
H1683 C1691 0.930 . S
H1684 C1694 0.930 . S
H1685 C1695 0.930 . S
C1686 H1680 0.930 . S
C1686 C1687 1.355 . S
C1686 C1688 1.415 . S
C1687 C1686 1.355 . S
C1687 C1689 1.419 . S
C1688 C1686 1.415 . S
C1688 C1693 1.425 . S
C1688 C1695 1.409 . S
C1689 H1681 0.930 . S
C1689 C1687 1.419 . S
C1689 C1690 1.362 . S
C1690 H1682 0.930 . S
C1690 C1689 1.362 . S
C1690 C1693 1.409 . S
C1691 H1683 0.930 . S
C1691 C1692 1.355 . S
C1691 C1693 1.415 . S
C1692 C1691 1.355 . S
C1692 C1694 1.419 . S
C1693 C1688 1.425 . S
C1693 C1690 1.409 . S
C1693 C1691 1.415 . S
C1694 H1684 0.930 . S
C1694 C1692 1.419 . S
C1694 C1695 1.362 . S
C1695 H1685 0.930 . S
C1695 C1688 1.409 . S
C1695 C1694 1.362 . S
H1696 C1702 0.930 . S
H1697 C1705 0.930 . S
H1698 C1706 0.930 . S
H1699 C1707 0.930 . S
H1700 C1710 0.930 . S
H1701 C1711 0.930 . S
C1702 H1696 0.930 . S
C1702 C1703 1.355 . S
C1702 C1704 1.415 . S
C1703 C1702 1.355 . S
C1703 C1705 1.419 . S
C1704 C1702 1.415 . S
C1704 C1709 1.425 . S
C1704 C1711 1.409 . S
C1705 H1697 0.930 . S
C1705 C1703 1.419 . S
C1705 C1706 1.362 . S
C1706 H1698 0.930 . S
C1706 C1705 1.362 . S
C1706 C1709 1.409 . S
C1707 H1699 0.930 . S
C1707 C1708 1.355 . S
C1707 C1709 1.415 . S
C1708 C1707 1.355 . S
C1708 C1710 1.419 . S
C1709 C1704 1.425 . S
C1709 C1706 1.409 . S
C1709 C1707 1.415 . S
C1710 H1700 0.930 . S
C1710 C1708 1.419 . S
C1710 C1711 1.362 . S
C1711 H1701 0.930 . S
C1711 C1704 1.409 . S
C1711 C1710 1.362 . S
H1712 C1718 0.930 . S
H1713 C1721 0.930 . S
H1714 C1722 0.930 . S
H1715 C1723 0.930 . S
H1716 C1726 0.930 . S
H1717 C1727 0.930 . S
C1718 H1712 0.930 . S
C1718 C1719 1.355 . S
C1718 C1720 1.415 . S
C1719 C1718 1.355 . S
C1719 C1721 1.419 . S
C1720 C1718 1.415 . S
C1720 C1725 1.425 . S
C1720 C1727 1.409 . S
C1721 H1713 0.930 . S
C1721 C1719 1.419 . S
C1721 C1722 1.362 . S
C1722 H1714 0.930 . S
C1722 C1721 1.362 . S
C1722 C1725 1.409 . S
C1723 H1715 0.930 . S
C1723 C1724 1.355 . S
C1723 C1725 1.415 . S
C1724 C1723 1.355 . S
C1724 C1726 1.419 . S
C1725 C1720 1.425 . S
C1725 C1722 1.409 . S
C1725 C1723 1.415 . S
C1726 H1716 0.930 . S
C1726 C1724 1.419 . S
C1726 C1727 1.362 . S
C1727 H1717 0.930 . S
C1727 C1720 1.409 . S
C1727 C1726 1.362 . S
H1728 C1734 0.930 . S
H1729 C1737 0.930 . S
H1730 C1738 0.930 . S
H1731 C1739 0.930 . S
H1732 C1742 0.930 . S
H1733 C1743 0.930 . S
C1734 H1728 0.930 . S
C1734 C1735 1.355 . S
C1734 C1736 1.415 . S
C1735 C1734 1.355 . S
C1735 C1737 1.419 . S
C1736 C1734 1.415 . S
C1736 C1741 1.425 . S
C1736 C1743 1.409 . S
C1737 H1729 0.930 . S
C1737 C1735 1.419 . S
C1737 C1738 1.362 . S
C1738 H1730 0.930 . S
C1738 C1737 1.362 . S
C1738 C1741 1.409 . S
C1739 H1731 0.930 . S
C1739 C1740 1.355 . S
C1739 C1741 1.415 . S
C1740 C1739 1.355 . S
C1740 C1742 1.419 . S
C1741 C1736 1.425 . S
C1741 C1738 1.409 . S
C1741 C1739 1.415 . S
C1742 H1732 0.930 . S
C1742 C1740 1.419 . S
C1742 C1743 1.362 . S
C1743 H1733 0.930 . S
C1743 C1736 1.409 . S
C1743 C1742 1.362 . S
H1744 C1750 0.930 . S
H1745 C1753 0.930 . S
H1746 C1754 0.930 . S
H1747 C1755 0.930 . S
H1748 C1758 0.930 . S
H1749 C1759 0.930 . S
C1750 H1744 0.930 . S
C1750 C1751 1.355 . S
C1750 C1752 1.415 . S
C1751 C1750 1.355 . S
C1751 C1753 1.419 . S
C1752 C1750 1.415 . S
C1752 C1757 1.425 . S
C1752 C1759 1.409 . S
C1753 H1745 0.930 . S
C1753 C1751 1.419 . S
C1753 C1754 1.362 . S
C1754 H1746 0.930 . S
C1754 C1753 1.362 . S
C1754 C1757 1.409 . S
C1755 H1747 0.930 . S
C1755 C1756 1.355 . S
C1755 C1757 1.415 . S
C1756 C1755 1.355 . S
C1756 C1758 1.419 . S
C1757 C1752 1.425 . S
C1757 C1754 1.409 . S
C1757 C1755 1.415 . S
C1758 H1748 0.930 . S
C1758 C1756 1.419 . S
C1758 C1759 1.362 . S
C1759 H1749 0.930 . S
C1759 C1752 1.409 . S
C1759 C1758 1.362 . S
H1760 C1766 0.930 . S
H1761 C1769 0.930 . S
H1762 C1770 0.930 . S
H1763 C1771 0.930 . S
H1764 C1774 0.930 . S
H1765 C1775 0.930 . S
C1766 H1760 0.930 . S
C1766 C1767 1.355 . S
C1766 C1768 1.415 . S
C1767 C1766 1.355 . S
C1767 C1769 1.419 . S
C1768 C1766 1.415 . S
C1768 C1773 1.425 . S
C1768 C1775 1.409 . S
C1769 H1761 0.930 . S
C1769 C1767 1.419 . S
C1769 C1770 1.362 . S
C1770 H1762 0.930 . S
C1770 C1769 1.362 . S
C1770 C1773 1.409 . S
C1771 H1763 0.930 . S
C1771 C1772 1.355 . S
C1771 C1773 1.415 . S
C1772 C1771 1.355 . S
C1772 C1774 1.419 . S
C1773 C1768 1.425 . S
C1773 C1770 1.409 . S
C1773 C1771 1.415 . S
C1774 H1764 0.930 . S
C1774 C1772 1.419 . S
C1774 C1775 1.362 . S
C1775 H1765 0.930 . S
C1775 C1768 1.409 . S
C1775 C1774 1.362 . S
H1776 C1782 0.930 . S
H1777 C1785 0.930 . S
H1778 C1786 0.930 . S
H1779 C1787 0.930 . S
H1780 C1790 0.930 . S
H1781 C1791 0.930 . S
C1782 H1776 0.930 . S
C1782 C1783 1.355 . S
C1782 C1784 1.415 . S
C1783 C1782 1.355 . S
C1783 C1785 1.419 . S
C1784 C1782 1.415 . S
C1784 C1789 1.425 . S
C1784 C1791 1.409 . S
C1785 H1777 0.930 . S
C1785 C1783 1.419 . S
C1785 C1786 1.362 . S
C1786 H1778 0.930 . S
C1786 C1785 1.362 . S
C1786 C1789 1.409 . S
C1787 H1779 0.930 . S
C1787 C1788 1.355 . S
C1787 C1789 1.415 . S
C1788 C1787 1.355 . S
C1788 C1790 1.419 . S
C1789 C1784 1.425 . S
C1789 C1786 1.409 . S
C1789 C1787 1.415 . S
C1790 H1780 0.930 . S
C1790 C1788 1.419 . S
C1790 C1791 1.362 . S
C1791 H1781 0.930 . S
C1791 C1784 1.409 . S
C1791 C1790 1.362 . S
H1792 C1798 0.930 . S
H1793 C1801 0.930 . S
H1794 C1802 0.930 . S
H1795 C1803 0.930 . S
H1796 C1806 0.930 . S
H1797 C1807 0.930 . S
C1798 H1792 0.930 . S
C1798 C1799 1.355 . S
C1798 C1800 1.415 . S
C1799 C1798 1.355 . S
C1799 C1801 1.419 . S
C1800 C1798 1.415 . S
C1800 C1805 1.425 . S
C1800 C1807 1.409 . S
C1801 H1793 0.930 . S
C1801 C1799 1.419 . S
C1801 C1802 1.362 . S
C1802 H1794 0.930 . S
C1802 C1801 1.362 . S
C1802 C1805 1.409 . S
C1803 H1795 0.930 . S
C1803 C1804 1.355 . S
C1803 C1805 1.415 . S
C1804 C1803 1.355 . S
C1804 C1806 1.419 . S
C1805 C1800 1.425 . S
C1805 C1802 1.409 . S
C1805 C1803 1.415 . S
C1806 H1796 0.930 . S
C1806 C1804 1.419 . S
C1806 C1807 1.362 . S
C1807 H1797 0.930 . S
C1807 C1800 1.409 . S
C1807 C1806 1.362 . S
H1808 C1814 0.930 . S
H1809 C1817 0.930 . S
H1810 C1818 0.930 . S
H1811 C1819 0.930 . S
H1812 C1822 0.930 . S
H1813 C1823 0.930 . S
C1814 H1808 0.930 . S
C1814 C1815 1.355 . S
C1814 C1816 1.415 . S
C1815 C1814 1.355 . S
C1815 C1817 1.419 . S
C1816 C1814 1.415 . S
C1816 C1821 1.425 . S
C1816 C1823 1.409 . S
C1817 H1809 0.930 . S
C1817 C1815 1.419 . S
C1817 C1818 1.362 . S
C1818 H1810 0.930 . S
C1818 C1817 1.362 . S
C1818 C1821 1.409 . S
C1819 H1811 0.930 . S
C1819 C1820 1.355 . S
C1819 C1821 1.415 . S
C1820 C1819 1.355 . S
C1820 C1822 1.419 . S
C1821 C1816 1.425 . S
C1821 C1818 1.409 . S
C1821 C1819 1.415 . S
C1822 H1812 0.930 . S
C1822 C1820 1.419 . S
C1822 C1823 1.362 . S
C1823 H1813 0.930 . S
C1823 C1816 1.409 . S
C1823 C1822 1.362 . S
H1824 C1830 0.930 . S
H1825 C1833 0.930 . S
H1826 C1834 0.930 . S
H1827 C1835 0.930 . S
H1828 C1838 0.930 . S
H1829 C1839 0.930 . S
C1830 H1824 0.930 . S
C1830 C1831 1.355 . S
C1830 C1832 1.415 . S
C1831 C1830 1.355 . S
C1831 C1833 1.419 . S
C1832 C1830 1.415 . S
C1832 C1837 1.425 . S
C1832 C1839 1.409 . S
C1833 H1825 0.930 . S
C1833 C1831 1.419 . S
C1833 C1834 1.362 . S
C1834 H1826 0.930 . S
C1834 C1833 1.362 . S
C1834 C1837 1.409 . S
C1835 H1827 0.930 . S
C1835 C1836 1.355 . S
C1835 C1837 1.415 . S
C1836 C1835 1.355 . S
C1836 C1838 1.419 . S
C1837 C1832 1.425 . S
C1837 C1834 1.409 . S
C1837 C1835 1.415 . S
C1838 H1828 0.930 . S
C1838 C1836 1.419 . S
C1838 C1839 1.362 . S
C1839 H1829 0.930 . S
C1839 C1832 1.409 . S
C1839 C1838 1.362 . S
H1840 C1846 0.930 . S
H1841 C1849 0.930 . S
H1842 C1850 0.930 . S
H1843 C1851 0.930 . S
H1844 C1854 0.930 . S
H1845 C1855 0.930 . S
C1846 H1840 0.930 . S
C1846 C1847 1.355 . S
C1846 C1848 1.415 . S
C1847 C1846 1.355 . S
C1847 C1849 1.419 . S
C1848 C1846 1.415 . S
C1848 C1853 1.425 . S
C1848 C1855 1.409 . S
C1849 H1841 0.930 . S
C1849 C1847 1.419 . S
C1849 C1850 1.362 . S
C1850 H1842 0.930 . S
C1850 C1849 1.362 . S
C1850 C1853 1.409 . S
C1851 H1843 0.930 . S
C1851 C1852 1.355 . S
C1851 C1853 1.415 . S
C1852 C1851 1.355 . S
C1852 C1854 1.419 . S
C1853 C1848 1.425 . S
C1853 C1850 1.409 . S
C1853 C1851 1.415 . S
C1854 H1844 0.930 . S
C1854 C1852 1.419 . S
C1854 C1855 1.362 . S
C1855 H1845 0.930 . S
C1855 C1848 1.409 . S
C1855 C1854 1.362 . S
H1856 C1862 0.930 . S
H1857 C1865 0.930 . S
H1858 C1866 0.930 . S
H1859 C1867 0.930 . S
H1860 C1870 0.930 . S
H1861 C1871 0.930 . S
C1862 H1856 0.930 . S
C1862 C1863 1.355 . S
C1862 C1864 1.415 . S
C1863 C1862 1.355 . S
C1863 C1865 1.419 . S
C1864 C1862 1.415 . S
C1864 C1869 1.425 . S
C1864 C1871 1.409 . S
C1865 H1857 0.930 . S
C1865 C1863 1.419 . S
C1865 C1866 1.362 . S
C1866 H1858 0.930 . S
C1866 C1865 1.362 . S
C1866 C1869 1.409 . S
C1867 H1859 0.930 . S
C1867 C1868 1.355 . S
C1867 C1869 1.415 . S
C1868 C1867 1.355 . S
C1868 C1870 1.419 . S
C1869 C1864 1.425 . S
C1869 C1866 1.409 . S
C1869 C1867 1.415 . S
C1870 H1860 0.930 . S
C1870 C1868 1.419 . S
C1870 C1871 1.362 . S
C1871 H1861 0.930 . S
C1871 C1864 1.409 . S
C1871 C1870 1.362 . S
H1872 C1878 0.930 . S
H1873 C1881 0.930 . S
H1874 C1882 0.930 . S
H1875 C1883 0.930 . S
H1876 C1886 0.930 . S
H1877 C1887 0.930 . S
C1878 H1872 0.930 . S
C1878 C1879 1.355 . S
C1878 C1880 1.415 . S
C1879 C1878 1.355 . S
C1879 C1881 1.419 . S
C1880 C1878 1.415 . S
C1880 C1885 1.425 . S
C1880 C1887 1.409 . S
C1881 H1873 0.930 . S
C1881 C1879 1.419 . S
C1881 C1882 1.362 . S
C1882 H1874 0.930 . S
C1882 C1881 1.362 . S
C1882 C1885 1.409 . S
C1883 H1875 0.930 . S
C1883 C1884 1.355 . S
C1883 C1885 1.415 . S
C1884 C1883 1.355 . S
C1884 C1886 1.419 . S
C1885 C1880 1.425 . S
C1885 C1882 1.409 . S
C1885 C1883 1.415 . S
C1886 H1876 0.930 . S
C1886 C1884 1.419 . S
C1886 C1887 1.362 . S
C1887 H1877 0.930 . S
C1887 C1880 1.409 . S
C1887 C1886 1.362 . S
H1888 C1894 0.930 . S
H1889 C1897 0.930 . S
H1890 C1898 0.930 . S
H1891 C1899 0.930 . S
H1892 C1902 0.930 . S
H1893 C1903 0.930 . S
C1894 H1888 0.930 . S
C1894 C1895 1.355 . S
C1894 C1896 1.415 . S
C1895 C1894 1.355 . S
C1895 C1897 1.419 . S
C1896 C1894 1.415 . S
C1896 C1901 1.425 . S
C1896 C1903 1.409 . S
C1897 H1889 0.930 . S
C1897 C1895 1.419 . S
C1897 C1898 1.362 . S
C1898 H1890 0.930 . S
C1898 C1897 1.362 . S
C1898 C1901 1.409 . S
C1899 H1891 0.930 . S
C1899 C1900 1.355 . S
C1899 C1901 1.415 . S
C1900 C1899 1.355 . S
C1900 C1902 1.419 . S
C1901 C1896 1.425 . S
C1901 C1898 1.409 . S
C1901 C1899 1.415 . S
C1902 H1892 0.930 . S
C1902 C1900 1.419 . S
C1902 C1903 1.362 . S
C1903 H1893 0.930 . S
C1903 C1896 1.409 . S
C1903 C1902 1.362 . S
H1904 C1910 0.930 . S
H1905 C1913 0.930 . S
H1906 C1914 0.930 . S
H1907 C1915 0.930 . S
H1908 C1918 0.930 . S
H1909 C1919 0.930 . S
C1910 H1904 0.930 . S
C1910 C1911 1.355 . S
C1910 C1912 1.415 . S
C1911 C1910 1.355 . S
C1911 C1913 1.419 . S
C1912 C1910 1.415 . S
C1912 C1917 1.425 . S
C1912 C1919 1.409 . S
C1913 H1905 0.930 . S
C1913 C1911 1.419 . S
C1913 C1914 1.362 . S
C1914 H1906 0.930 . S
C1914 C1913 1.362 . S
C1914 C1917 1.409 . S
C1915 H1907 0.930 . S
C1915 C1916 1.355 . S
C1915 C1917 1.415 . S
C1916 C1915 1.355 . S
C1916 C1918 1.419 . S
C1917 C1912 1.425 . S
C1917 C1914 1.409 . S
C1917 C1915 1.415 . S
C1918 H1908 0.930 . S
C1918 C1916 1.419 . S
C1918 C1919 1.362 . S
C1919 H1909 0.930 . S
C1919 C1912 1.409 . S
C1919 C1918 1.362 . S
H1920 C1926 0.930 . S
H1921 C1929 0.930 . S
H1922 C1930 0.930 . S
H1923 C1931 0.930 . S
H1924 C1934 0.930 . S
H1925 C1935 0.930 . S
C1926 H1920 0.930 . S
C1926 C1927 1.355 . S
C1926 C1928 1.415 . S
C1927 C1926 1.355 . S
C1927 C1929 1.419 . S
C1928 C1926 1.415 . S
C1928 C1933 1.425 . S
C1928 C1935 1.409 . S
C1929 H1921 0.930 . S
C1929 C1927 1.419 . S
C1929 C1930 1.362 . S
C1930 H1922 0.930 . S
C1930 C1929 1.362 . S
C1930 C1933 1.409 . S
C1931 H1923 0.930 . S
C1931 C1932 1.355 . S
C1931 C1933 1.415 . S
C1932 C1931 1.355 . S
C1932 C1934 1.419 . S
C1933 C1928 1.425 . S
C1933 C1930 1.409 . S
C1933 C1931 1.415 . S
C1934 H1924 0.930 . S
C1934 C1932 1.419 . S
C1934 C1935 1.362 . S
C1935 H1925 0.930 . S
C1935 C1928 1.409 . S
C1935 C1934 1.362 . S
H1936 C1942 0.930 . S
H1937 C1945 0.930 . S
H1938 C1946 0.930 . S
H1939 C1947 0.930 . S
H1940 C1950 0.930 . S
H1941 C1951 0.930 . S
C1942 H1936 0.930 . S
C1942 C1943 1.355 . S
C1942 C1944 1.415 . S
C1943 C1942 1.355 . S
C1943 C1945 1.419 . S
C1944 C1942 1.415 . S
C1944 C1949 1.425 . S
C1944 C1951 1.409 . S
C1945 H1937 0.930 . S
C1945 C1943 1.419 . S
C1945 C1946 1.362 . S
C1946 H1938 0.930 . S
C1946 C1945 1.362 . S
C1946 C1949 1.409 . S
C1947 H1939 0.930 . S
C1947 C1948 1.355 . S
C1947 C1949 1.415 . S
C1948 C1947 1.355 . S
C1948 C1950 1.419 . S
C1949 C1944 1.425 . S
C1949 C1946 1.409 . S
C1949 C1947 1.415 . S
C1950 H1940 0.930 . S
C1950 C1948 1.419 . S
C1950 C1951 1.362 . S
C1951 H1941 0.930 . S
C1951 C1944 1.409 . S
C1951 C1950 1.362 . S
H1952 C1958 0.930 . S
H1953 C1961 0.930 . S
H1954 C1962 0.930 . S
H1955 C1963 0.930 . S
H1956 C1966 0.930 . S
H1957 C1967 0.930 . S
C1958 H1952 0.930 . S
C1958 C1959 1.355 . S
C1958 C1960 1.415 . S
C1959 C1958 1.355 . S
C1959 C1961 1.419 . S
C1960 C1958 1.415 . S
C1960 C1965 1.425 . S
C1960 C1967 1.409 . S
C1961 H1953 0.930 . S
C1961 C1959 1.419 . S
C1961 C1962 1.362 . S
C1962 H1954 0.930 . S
C1962 C1961 1.362 . S
C1962 C1965 1.409 . S
C1963 H1955 0.930 . S
C1963 C1964 1.355 . S
C1963 C1965 1.415 . S
C1964 C1963 1.355 . S
C1964 C1966 1.419 . S
C1965 C1960 1.425 . S
C1965 C1962 1.409 . S
C1965 C1963 1.415 . S
C1966 H1956 0.930 . S
C1966 C1964 1.419 . S
C1966 C1967 1.362 . S
C1967 H1957 0.930 . S
C1967 C1960 1.409 . S
C1967 C1966 1.362 . S
H1968 C1974 0.930 . S
H1969 C1977 0.930 . S
H1970 C1978 0.930 . S
H1971 C1979 0.930 . S
H1972 C1982 0.930 . S
H1973 C1983 0.930 . S
C1974 H1968 0.930 . S
C1974 C1975 1.355 . S
C1974 C1976 1.415 . S
C1975 C1974 1.355 . S
C1975 C1977 1.419 . S
C1976 C1974 1.415 . S
C1976 C1981 1.425 . S
C1976 C1983 1.409 . S
C1977 H1969 0.930 . S
C1977 C1975 1.419 . S
C1977 C1978 1.362 . S
C1978 H1970 0.930 . S
C1978 C1977 1.362 . S
C1978 C1981 1.409 . S
C1979 H1971 0.930 . S
C1979 C1980 1.355 . S
C1979 C1981 1.415 . S
C1980 C1979 1.355 . S
C1980 C1982 1.419 . S
C1981 C1976 1.425 . S
C1981 C1978 1.409 . S
C1981 C1979 1.415 . S
C1982 H1972 0.930 . S
C1982 C1980 1.419 . S
C1982 C1983 1.362 . S
C1983 H1973 0.930 . S
C1983 C1976 1.409 . S
C1983 C1982 1.362 . S
H1984 C1990 0.930 . S
H1985 C1993 0.930 . S
H1986 C1994 0.930 . S
H1987 C1995 0.930 . S
H1988 C1998 0.930 . S
H1989 C1999 0.930 . S
C1990 H1984 0.930 . S
C1990 C1991 1.355 . S
C1990 C1992 1.415 . S
C1991 C1990 1.355 . S
C1991 C1993 1.419 . S
C1992 C1990 1.415 . S
C1992 C1997 1.425 . S
C1992 C1999 1.409 . S
C1993 H1985 0.930 . S
C1993 C1991 1.419 . S
C1993 C1994 1.362 . S
C1994 H1986 0.930 . S
C1994 C1993 1.362 . S
C1994 C1997 1.409 . S
C1995 H1987 0.930 . S
C1995 C1996 1.355 . S
C1995 C1997 1.415 . S
C1996 C1995 1.355 . S
C1996 C1998 1.419 . S
C1997 C1992 1.425 . S
C1997 C1994 1.409 . S
C1997 C1995 1.415 . S
C1998 H1988 0.930 . S
C1998 C1996 1.419 . S
C1998 C1999 1.362 . S
C1999 H1989 0.930 . S
C1999 C1992 1.409 . S
C1999 C1998 1.362 . S
H2000 C2006 0.930 . S
H2001 C2009 0.930 . S
H2002 C2010 0.930 . S
H2003 C2011 0.930 . S
H2004 C2014 0.930 . S
H2005 C2015 0.930 . S
C2006 H2000 0.930 . S
C2006 C2007 1.355 . S
C2006 C2008 1.415 . S
C2007 C2006 1.355 . S
C2007 C2009 1.419 . S
C2008 C2006 1.415 . S
C2008 C2013 1.425 . S
C2008 C2015 1.409 . S
C2009 H2001 0.930 . S
C2009 C2007 1.419 . S
C2009 C2010 1.362 . S
C2010 H2002 0.930 . S
C2010 C2009 1.362 . S
C2010 C2013 1.409 . S
C2011 H2003 0.930 . S
C2011 C2012 1.355 . S
C2011 C2013 1.415 . S
C2012 C2011 1.355 . S
C2012 C2014 1.419 . S
C2013 C2008 1.425 . S
C2013 C2010 1.409 . S
C2013 C2011 1.415 . S
C2014 H2004 0.930 . S
C2014 C2012 1.419 . S
C2014 C2015 1.362 . S
C2015 H2005 0.930 . S
C2015 C2008 1.409 . S
C2015 C2014 1.362 . S
H2016 C2022 0.930 . S
H2017 C2025 0.930 . S
H2018 C2026 0.930 . S
H2019 C2027 0.930 . S
H2020 C2030 0.930 . S
H2021 C2031 0.930 . S
C2022 H2016 0.930 . S
C2022 C2023 1.355 . S
C2022 C2024 1.415 . S
C2023 C2022 1.355 . S
C2023 C2025 1.419 . S
C2024 C2022 1.415 . S
C2024 C2029 1.425 . S
C2024 C2031 1.409 . S
C2025 H2017 0.930 . S
C2025 C2023 1.419 . S
C2025 C2026 1.362 . S
C2026 H2018 0.930 . S
C2026 C2025 1.362 . S
C2026 C2029 1.409 . S
C2027 H2019 0.930 . S
C2027 C2028 1.355 . S
C2027 C2029 1.415 . S
C2028 C2027 1.355 . S
C2028 C2030 1.419 . S
C2029 C2024 1.425 . S
C2029 C2026 1.409 . S
C2029 C2027 1.415 . S
C2030 H2020 0.930 . S
C2030 C2028 1.419 . S
C2030 C2031 1.362 . S
C2031 H2021 0.930 . S
C2031 C2024 1.409 . S
C2031 C2030 1.362 . S
H2032 C2038 0.930 . S
H2033 C2041 0.930 . S
H2034 C2042 0.930 . S
H2035 C2043 0.930 . S
H2036 C2046 0.930 . S
H2037 C2047 0.930 . S
C2038 H2032 0.930 . S
C2038 C2039 1.355 . S
C2038 C2040 1.415 . S
C2039 C2038 1.355 . S
C2039 C2041 1.419 . S
C2040 C2038 1.415 . S
C2040 C2045 1.425 . S
C2040 C2047 1.409 . S
C2041 H2033 0.930 . S
C2041 C2039 1.419 . S
C2041 C2042 1.362 . S
C2042 H2034 0.930 . S
C2042 C2041 1.362 . S
C2042 C2045 1.409 . S
C2043 H2035 0.930 . S
C2043 C2044 1.355 . S
C2043 C2045 1.415 . S
C2044 C2043 1.355 . S
C2044 C2046 1.419 . S
C2045 C2040 1.425 . S
C2045 C2042 1.409 . S
C2045 C2043 1.415 . S
C2046 H2036 0.930 . S
C2046 C2044 1.419 . S
C2046 C2047 1.362 . S
C2047 H2037 0.930 . S
C2047 C2040 1.409 . S
C2047 C2046 1.362 . S
H2048 C2054 0.930 . S
H2049 C2057 0.930 . S
H2050 C2058 0.930 . S
H2051 C2059 0.930 . S
H2052 C2062 0.930 . S
H2053 C2063 0.930 . S
C2054 H2048 0.930 . S
C2054 C2055 1.355 . S
C2054 C2056 1.415 . S
C2055 C2054 1.355 . S
C2055 C2057 1.419 . S
C2056 C2054 1.415 . S
C2056 C2061 1.425 . S
C2056 C2063 1.409 . S
C2057 H2049 0.930 . S
C2057 C2055 1.419 . S
C2057 C2058 1.362 . S
C2058 H2050 0.930 . S
C2058 C2057 1.362 . S
C2058 C2061 1.409 . S
C2059 H2051 0.930 . S
C2059 C2060 1.355 . S
C2059 C2061 1.415 . S
C2060 C2059 1.355 . S
C2060 C2062 1.419 . S
C2061 C2056 1.425 . S
C2061 C2058 1.409 . S
C2061 C2059 1.415 . S
C2062 H2052 0.930 . S
C2062 C2060 1.419 . S
C2062 C2063 1.362 . S
C2063 H2053 0.930 . S
C2063 C2056 1.409 . S
C2063 C2062 1.362 . S
H2064 C2070 0.930 . S
H2065 C2073 0.930 . S
H2066 C2074 0.930 . S
H2067 C2075 0.930 . S
H2068 C2078 0.930 . S
H2069 C2079 0.930 . S
C2070 H2064 0.930 . S
C2070 C2071 1.355 . S
C2070 C2072 1.415 . S
C2071 C2070 1.355 . S
C2071 C2073 1.419 . S
C2072 C2070 1.415 . S
C2072 C2077 1.425 . S
C2072 C2079 1.409 . S
C2073 H2065 0.930 . S
C2073 C2071 1.419 . S
C2073 C2074 1.362 . S
C2074 H2066 0.930 . S
C2074 C2073 1.362 . S
C2074 C2077 1.409 . S
C2075 H2067 0.930 . S
C2075 C2076 1.355 . S
C2075 C2077 1.415 . S
C2076 C2075 1.355 . S
C2076 C2078 1.419 . S
C2077 C2072 1.425 . S
C2077 C2074 1.409 . S
C2077 C2075 1.415 . S
C2078 H2068 0.930 . S
C2078 C2076 1.419 . S
C2078 C2079 1.362 . S
C2079 H2069 0.930 . S
C2079 C2072 1.409 . S
C2079 C2078 1.362 . S
H2080 C2086 0.930 . S
H2081 C2089 0.930 . S
H2082 C2090 0.930 . S
H2083 C2091 0.930 . S
H2084 C2094 0.930 . S
H2085 C2095 0.930 . S
C2086 H2080 0.930 . S
C2086 C2087 1.355 . S
C2086 C2088 1.415 . S
C2087 C2086 1.355 . S
C2087 C2089 1.419 . S
C2088 C2086 1.415 . S
C2088 C2093 1.425 . S
C2088 C2095 1.409 . S
C2089 H2081 0.930 . S
C2089 C2087 1.419 . S
C2089 C2090 1.362 . S
C2090 H2082 0.930 . S
C2090 C2089 1.362 . S
C2090 C2093 1.409 . S
C2091 H2083 0.930 . S
C2091 C2092 1.355 . S
C2091 C2093 1.415 . S
C2092 C2091 1.355 . S
C2092 C2094 1.419 . S
C2093 C2088 1.425 . S
C2093 C2090 1.409 . S
C2093 C2091 1.415 . S
C2094 H2084 0.930 . S
C2094 C2092 1.419 . S
C2094 C2095 1.362 . S
C2095 H2085 0.930 . S
C2095 C2088 1.409 . S
C2095 C2094 1.362 . S
H2096 C2102 0.930 . S
H2097 C2105 0.930 . S
H2098 C2106 0.930 . S
H2099 C2107 0.930 . S
H2100 C2110 0.930 . S
H2101 C2111 0.930 . S
C2102 H2096 0.930 . S
C2102 C2103 1.355 . S
C2102 C2104 1.415 . S
C2103 C2102 1.355 . S
C2103 C2105 1.419 . S
C2104 C2102 1.415 . S
C2104 C2109 1.425 . S
C2104 C2111 1.409 . S
C2105 H2097 0.930 . S
C2105 C2103 1.419 . S
C2105 C2106 1.362 . S
C2106 H2098 0.930 . S
C2106 C2105 1.362 . S
C2106 C2109 1.409 . S
C2107 H2099 0.930 . S
C2107 C2108 1.355 . S
C2107 C2109 1.415 . S
C2108 C2107 1.355 . S
C2108 C2110 1.419 . S
C2109 C2104 1.425 . S
C2109 C2106 1.409 . S
C2109 C2107 1.415 . S
C2110 H2100 0.930 . S
C2110 C2108 1.419 . S
C2110 C2111 1.362 . S
C2111 H2101 0.930 . S
C2111 C2104 1.409 . S
C2111 C2110 1.362 . S
H2112 C2118 0.930 . S
H2113 C2121 0.930 . S
H2114 C2122 0.930 . S
H2115 C2123 0.930 . S
H2116 C2126 0.930 . S
H2117 C2127 0.930 . S
C2118 H2112 0.930 . S
C2118 C2119 1.355 . S
C2118 C2120 1.415 . S
C2119 C2118 1.355 . S
C2119 C2121 1.419 . S
C2120 C2118 1.415 . S
C2120 C2125 1.425 . S
C2120 C2127 1.409 . S
C2121 H2113 0.930 . S
C2121 C2119 1.419 . S
C2121 C2122 1.362 . S
C2122 H2114 0.930 . S
C2122 C2121 1.362 . S
C2122 C2125 1.409 . S
C2123 H2115 0.930 . S
C2123 C2124 1.355 . S
C2123 C2125 1.415 . S
C2124 C2123 1.355 . S
C2124 C2126 1.419 . S
C2125 C2120 1.425 . S
C2125 C2122 1.409 . S
C2125 C2123 1.415 . S
C2126 H2116 0.930 . S
C2126 C2124 1.419 . S
C2126 C2127 1.362 . S
C2127 H2117 0.930 . S
C2127 C2120 1.409 . S
C2127 C2126 1.362 . S
H2128 C2134 0.930 . S
H2129 C2137 0.930 . S
H2130 C2138 0.930 . S
H2131 C2139 0.930 . S
H2132 C2142 0.930 . S
H2133 C2143 0.930 . S
C2134 H2128 0.930 . S
C2134 C2135 1.355 . S
C2134 C2136 1.415 . S
C2135 C2134 1.355 . S
C2135 C2137 1.419 . S
C2136 C2134 1.415 . S
C2136 C2141 1.425 . S
C2136 C2143 1.409 . S
C2137 H2129 0.930 . S
C2137 C2135 1.419 . S
C2137 C2138 1.362 . S
C2138 H2130 0.930 . S
C2138 C2137 1.362 . S
C2138 C2141 1.409 . S
C2139 H2131 0.930 . S
C2139 C2140 1.355 . S
C2139 C2141 1.415 . S
C2140 C2139 1.355 . S
C2140 C2142 1.419 . S
C2141 C2136 1.425 . S
C2141 C2138 1.409 . S
C2141 C2139 1.415 . S
C2142 H2132 0.930 . S
C2142 C2140 1.419 . S
C2142 C2143 1.362 . S
C2143 H2133 0.930 . S
C2143 C2136 1.409 . S
C2143 C2142 1.362 . S
H2144 C2150 0.930 . S
H2145 C2153 0.930 . S
H2146 C2154 0.930 . S
H2147 C2155 0.930 . S
H2148 C2158 0.930 . S
H2149 C2159 0.930 . S
C2150 H2144 0.930 . S
C2150 C2151 1.355 . S
C2150 C2152 1.415 . S
C2151 C2150 1.355 . S
C2151 C2153 1.419 . S
C2152 C2150 1.415 . S
C2152 C2157 1.425 . S
C2152 C2159 1.409 . S
C2153 H2145 0.930 . S
C2153 C2151 1.419 . S
C2153 C2154 1.362 . S
C2154 H2146 0.930 . S
C2154 C2153 1.362 . S
C2154 C2157 1.409 . S
C2155 H2147 0.930 . S
C2155 C2156 1.355 . S
C2155 C2157 1.415 . S
C2156 C2155 1.355 . S
C2156 C2158 1.419 . S
C2157 C2152 1.425 . S
C2157 C2154 1.409 . S
C2157 C2155 1.415 . S
C2158 H2148 0.930 . S
C2158 C2156 1.419 . S
C2158 C2159 1.362 . S
C2159 H2149 0.930 . S
C2159 C2152 1.409 . S
C2159 C2158 1.362 . S
H2160 C2166 0.930 . S
H2161 C2169 0.930 . S
H2162 C2170 0.930 . S
H2163 C2171 0.930 . S
H2164 C2174 0.930 . S
H2165 C2175 0.930 . S
C2166 H2160 0.930 . S
C2166 C2167 1.355 . S
C2166 C2168 1.415 . S
C2167 C2166 1.355 . S
C2167 C2169 1.419 . S
C2168 C2166 1.415 . S
C2168 C2173 1.425 . S
C2168 C2175 1.409 . S
C2169 H2161 0.930 . S
C2169 C2167 1.419 . S
C2169 C2170 1.362 . S
C2170 H2162 0.930 . S
C2170 C2169 1.362 . S
C2170 C2173 1.409 . S
C2171 H2163 0.930 . S
C2171 C2172 1.355 . S
C2171 C2173 1.415 . S
C2172 C2171 1.355 . S
C2172 C2174 1.419 . S
C2173 C2168 1.425 . S
C2173 C2170 1.409 . S
C2173 C2171 1.415 . S
C2174 H2164 0.930 . S
C2174 C2172 1.419 . S
C2174 C2175 1.362 . S
C2175 H2165 0.930 . S
C2175 C2168 1.409 . S
C2175 C2174 1.362 . S
H2176 C2182 0.930 . S
H2177 C2185 0.930 . S
H2178 C2186 0.930 . S
H2179 C2187 0.930 . S
H2180 C2190 0.930 . S
H2181 C2191 0.930 . S
C2182 H2176 0.930 . S
C2182 C2183 1.355 . S
C2182 C2184 1.415 . S
C2183 C2182 1.355 . S
C2183 C2185 1.419 . S
C2184 C2182 1.415 . S
C2184 C2189 1.425 . S
C2184 C2191 1.409 . S
C2185 H2177 0.930 . S
C2185 C2183 1.419 . S
C2185 C2186 1.362 . S
C2186 H2178 0.930 . S
C2186 C2185 1.362 . S
C2186 C2189 1.409 . S
C2187 H2179 0.930 . S
C2187 C2188 1.355 . S
C2187 C2189 1.415 . S
C2188 C2187 1.355 . S
C2188 C2190 1.419 . S
C2189 C2184 1.425 . S
C2189 C2186 1.409 . S
C2189 C2187 1.415 . S
C2190 H2180 0.930 . S
C2190 C2188 1.419 . S
C2190 C2191 1.362 . S
C2191 H2181 0.930 . S
C2191 C2184 1.409 . S
C2191 C2190 1.362 . S
H2192 C2198 0.930 . S
H2193 C2201 0.930 . S
H2194 C2202 0.930 . S
H2195 C2203 0.930 . S
H2196 C2206 0.930 . S
H2197 C2207 0.930 . S
C2198 H2192 0.930 . S
C2198 C2199 1.355 . S
C2198 C2200 1.415 . S
C2199 C2198 1.355 . S
C2199 C2201 1.419 . S
C2200 C2198 1.415 . S
C2200 C2205 1.425 . S
C2200 C2207 1.409 . S
C2201 H2193 0.930 . S
C2201 C2199 1.419 . S
C2201 C2202 1.362 . S
C2202 H2194 0.930 . S
C2202 C2201 1.362 . S
C2202 C2205 1.409 . S
C2203 H2195 0.930 . S
C2203 C2204 1.355 . S
C2203 C2205 1.415 . S
C2204 C2203 1.355 . S
C2204 C2206 1.419 . S
C2205 C2200 1.425 . S
C2205 C2202 1.409 . S
C2205 C2203 1.415 . S
C2206 H2196 0.930 . S
C2206 C2204 1.419 . S
C2206 C2207 1.362 . S
C2207 H2197 0.930 . S
C2207 C2200 1.409 . S
C2207 C2206 1.362 . S
C679 C224 1.495 . S
C684 C0 1.445 . S
C695 C671 1.535 . S
C700 C26 1.470 . S
C711 C40 1.508 . S
C716 C642 1.526 . S
C727 C55 1.438 . S
C732 C656 1.492 . S
C743 C251 1.557 . S
C748 C68 1.540 . S
C759 C71 1.537 . S
C764 C253 1.576 . S
C775 C97 1.553 . S
C780 C266 1.571 . S
C791 C617 1.501 . S
C796 C99 1.453 . S
C807 C112 1.447 . S
C812 C13 1.492 . S
C823 C15 1.528 . S
C828 C138 1.504 . S
C839 C29 1.520 . S
C844 C141 1.477 . S
C855 C42 1.563 . S
C860 C167 1.520 . S
C871 C57 1.530 . S
C876 C169 1.512 . S
C887 C194 1.450 . S
C892 C82 1.498 . S
C903 C84 1.534 . S
C908 C197 1.492 . S
C919 C223 1.455 . S
C924 C110 1.501 . S
C935 C237 1.511 . S
C940 C125 1.529 . S
C951 C180 1.488 . S
C956 C238 1.455 . S
C967 C264 1.484 . S
C972 C183 1.523 . S
C983 C279 1.485 . S
C988 C208 1.522 . S
C999 C547 1.514 . S
C1004 C292 1.470 . S
C1015 C307 1.439 . S
C1020 C476 1.501 . S
C1031 C502 1.531 . S
C1036 C309 1.472 . S
C1047 C463 1.542 . S
C1052 C323 1.514 . S
C1063 C572 1.548 . S
C1068 C349 1.489 . S
C1079 C363 1.504 . S
C1084 C334 1.516 . S
C1095 C376 1.467 . S
C1100 C294 1.515 . S
C1111 C391 1.523 . S
C1116 C320 1.559 . S
C1127 C392 1.440 . S
C1132 C575 1.492 . S
C1143 C589 1.486 . S
C1148 C407 1.466 . S
C1159 C433 1.497 . S
C1164 C602 1.526 . S
C1175 C281 1.519 . S
C1180 C434 1.483 . S
C1191 C336 1.549 . S
C1196 C448 1.493 . S
C1207 C474 1.442 . S
C1212 C350 1.498 . S
C1223 C489 1.548 . S
C1228 C365 1.579 . S
C1239 C491 1.466 . S
C1244 C378 1.504 . S
C1255 C505 1.513 . S
C1260 C405 1.552 . S
C1271 C519 1.480 . S
C1276 C418 1.526 . S
C1287 C420 1.568 . S
C1292 C532 1.531 . S
C1303 C447 1.548 . S
C1308 C558 1.526 . S
C1319 C461 1.564 . S
C1324 C561 1.532 . S
C1335 C516 1.552 . S
C1340 C586 1.528 . S
C1351 C530 1.530 . S
C1356 C600 1.508 . S
C1367 C615 1.455 . S
C1372 C545 1.510 . S
C1383 C628 1.509 . S
C1388 C210 1.537 . S
C1399 C631 1.502 . S
C1404 C152 1.537 . S
C1415 C154 1.496 . S
C1420 C645 1.449 . S
C1431 C658 1.477 . S
C1436 C127 1.509 . S
C1447 C12 1.584 . S
C1452 C390 1.559 . S
C1463 C348 1.737 . S
C1468 C14 1.760 . S
C1479 C28 1.538 . S
C1484 C362 1.524 . S
C1495 C43 1.738 . S
C1500 C377 1.684 . S
C1511 C56 1.620 . S
C1516 C70 1.602 . S
C1527 C96 1.814 . S
C1532 C83 1.835 . S
C1543 C85 1.559 . S
C1548 C98 1.519 . S
C1559 C111 1.832 . S
C1564 C69 1.792 . S
C1575 C124 1.553 . S
C1580 C601 1.522 . S
C1591 C126 1.798 . S
C1596 C614 1.759 . S
C1607 C153 1.718 . S
C1612 C293 1.691 . S
C1623 C155 1.830 . S
C1628 C587 1.783 . S
C1639 C181 1.516 . S
C1644 C644 1.463 . S
C1655 C236 1.721 . S
C1660 C182 1.769 . S
C1671 C209 1.690 . S
C1676 C659 1.635 . S
C1687 C630 1.799 . S
C1692 C211 1.820 . S
C1703 C139 1.539 . S
C1708 C225 1.575 . S
C1719 C250 1.734 . S
C1724 C559 1.689 . S
C1735 C252 1.751 . S
C1740 C504 1.722 . S
C1751 C518 1.727 . S
C1756 C267 1.772 . S
C1767 C280 1.711 . S
C1772 C196 1.690 . S
C1783 C490 1.667 . S
C1788 C295 1.703 . S
C1799 C449 1.706 . S
C1804 C321 1.737 . S
C1815 C488 1.777 . S
C1820 C335 1.823 . S
C1831 C337 1.737 . S
C1836 C54 1.713 . S
C1847 C351 1.777 . S
C1852 C1 1.728 . S
C1863 C27 1.740 . S
C1868 C364 1.774 . S
C1879 C379 1.785 . S
C1884 C41 1.770 . S
C1895 C404 1.672 . S
C1900 C406 1.623 . S
C1911 C432 1.623 . S
C1916 C419 1.672 . S
C1927 C435 1.705 . S
C1932 C421 1.725 . S
C1943 C446 1.693 . S
C1948 C393 1.663 . S
C1959 C265 1.703 . S
C1964 C460 1.724 . S
C1975 C462 1.748 . S
C1980 C278 1.709 . S
C1991 C477 1.564 . S
C1996 C629 1.540 . S
C2007 C503 1.673 . S
C2012 C239 1.632 . S
C2023 C517 1.772 . S
C2028 C308 1.728 . S
C2039 C531 1.750 . S
C2044 C560 1.731 . S
C2055 C322 1.567 . S
C2060 C544 1.596 . S
C2071 C546 1.713 . S
C2076 C306 1.689 . S
C2087 C475 1.705 . S
C2092 C573 1.739 . S
C2103 C222 1.527 . S
C2108 C574 1.574 . S
C2119 C168 1.735 . S
C2124 C588 1.789 . S
C2135 C603 1.513 . S
C2140 C195 1.474 . S
C2151 C616 1.813 . S
C2156 C533 1.768 . S
C2167 C166 1.600 . S
C2172 C643 1.611 . S
C2183 C657 1.763 . S
C2188 C113 1.730 . S
C2199 C140 1.631 . S
C2204 C670 1.688 . S
