# Generated by pormake.
# Topology sml, (6)-cn, num edge types: 1
# Building blocks:
#     Node 0, Type 0, BuildingBlock: KUMJIN_clean_sbu_0, # of connection points: 6
#     Node 1, Type 0, BuildingBlock: KUMJIN_clean_sbu_0, # of connection points: 6
#     Node 2, Type 0, BuildingBlock: KUMJIN_clean_sbu_0, # of connection points: 6
#     Node 3, Type 0, BuildingBlock: KUMJIN_clean_sbu_0, # of connection points: 6
#     Node 4, Type 0, BuildingBlock: KUMJIN_clean_sbu_0, # of connection points: 6
#     Node 5, Type 0, BuildingBlock: KUMJIN_clean_sbu_0, # of connection points: 6
#     Edge 6, Type (0, 0), BuildingBlock: TEMPAE_clean_linker_10, # of connection points: 2
#     Edge 7, Type (0, 0), BuildingBlock: TEMPAE_clean_linker_10, # of connection points: 2
#     Edge 8, Type (0, 0), BuildingBlock: TEMPAE_clean_linker_10, # of connection points: 2
#     Edge 9, Type (0, 0), BuildingBlock: TEMPAE_clean_linker_10, # of connection points: 2
#     Edge 10, Type (0, 0), BuildingBlock: TEMPAE_clean_linker_10, # of connection points: 2
#     Edge 11, Type (0, 0), BuildingBlock: TEMPAE_clean_linker_10, # of connection points: 2
#     Edge 12, Type (0, 0), BuildingBlock: TEMPAE_clean_linker_10, # of connection points: 2
#     Edge 13, Type (0, 0), BuildingBlock: TEMPAE_clean_linker_10, # of connection points: 2
#     Edge 14, Type (0, 0), BuildingBlock: TEMPAE_clean_linker_10, # of connection points: 2
#     Edge 15, Type (0, 0), BuildingBlock: TEMPAE_clean_linker_10, # of connection points: 2
#     Edge 16, Type (0, 0), BuildingBlock: TEMPAE_clean_linker_10, # of connection points: 2
#     Edge 17, Type (0, 0), BuildingBlock: TEMPAE_clean_linker_10, # of connection points: 2
#     Edge 18, Type (0, 0), BuildingBlock: TEMPAE_clean_linker_10, # of connection points: 2
#     Edge 19, Type (0, 0), BuildingBlock: TEMPAE_clean_linker_10, # of connection points: 2
#     Edge 20, Type (0, 0), BuildingBlock: TEMPAE_clean_linker_10, # of connection points: 2
#     Edge 21, Type (0, 0), BuildingBlock: TEMPAE_clean_linker_10, # of connection points: 2
#     Edge 22, Type (0, 0), BuildingBlock: TEMPAE_clean_linker_10, # of connection points: 2
#     Edge 23, Type (0, 0), BuildingBlock: TEMPAE_clean_linker_10, # of connection points: 2
# Relax obj value: 0.028
# Max RMSD: 0.150
# Mean RMSD: 0.150
data_MOF--net-sml--node1-KUMJIN_clean_sbu_0--edge1-TEMPAE_clean_linker_10
_symmetry_space_group_name_H-M    P1
_symmetry_Int_Tables_number       1
_symmetry_cell_setting            triclinic
loop_
_symmetry_equiv_pos_as_xyz
'x, y, z'
_cell_length_a     33.410504
_cell_length_b     33.444557
_cell_length_c     24.276085
_cell_angle_alpha  90.184528
_cell_angle_beta   89.812462
_cell_angle_gamma 120.01814
loop_
_atom_site_label
_atom_site_type_symbol
_atom_site_fract_x
_atom_site_fract_y
_atom_site_fract_z
_atom_type_partial_charge
Eu0 Eu 0.19583 0.43281 0.97534 0.0
C1 C 0.35255 0.40418 0.07645 0.0
C2 C 0.3207 0.32164 0.06712 0.0
C3 C 0.40399 0.37275 0.06675 0.0
C4 C 0.31464 0.36026 0.07331 0.0
C5 C 0.3977 0.41091 0.0743 0.0
C6 C 0.36555 0.32819 0.06309 0.0
C7 C 0.427 0.49218 0.09099 0.0
N8 N 0.3453 0.44025 0.08371 0.0
C9 C 0.38157 0.48368 0.09302 0.0
C10 C 0.43514 0.45569 0.08098 0.0
Eu11 Eu 0.26773 0.42385 0.08562 0.0
N12 N 0.2718 0.35519 0.07726 0.0
C13 C 0.23358 0.3121 0.07857 0.0
C14 C 0.28153 0.27758 0.06589 0.0
C15 C 0.23781 0.27279 0.07216 0.0
H16 H 0.37526 0.51193 0.10069 0.0
H17 H 0.2073 0.23882 0.07195 0.0
H18 H 0.37088 0.29898 0.05801 0.0
H19 H 0.45566 0.52681 0.09721 0.0
H20 H 0.1995 0.30771 0.083 0.0
H21 H 0.23161 0.61048 0.99906 0.0
H22 H 0.2847 0.24706 0.06098 0.0
H23 H 0.0959 0.33903 0.94257 0.0
H24 H 0.25063 0.54904 0.98325 0.0
H25 H 0.01249 0.3137 0.9399 0.0
H26 H 0.43841 0.37724 0.06457 0.0
H27 H 0.15009 0.59059 1.01008 0.0
H28 H 0.06593 0.52984 1.00938 0.0
H29 H 0.47031 0.46225 0.07959 0.0
H30 H 0.00611 0.44892 0.99301 0.0
N31 N 0.18075 0.49447 0.98788 0.0
C32 C 0.21491 0.53973 0.98833 0.0
C33 C 0.15827 0.56338 1.0038 0.0
C34 C 0.12322 0.51718 0.99986 0.0
C35 C 0.20429 0.57475 0.99729 0.0
C36 C 0.13575 0.48314 0.99121 0.0
H37 H 0.98587 0.36823 0.96581 0.0
N38 N 0.11582 0.40675 0.97042 0.0
C39 C 0.03733 0.34865 0.95211 0.0
C40 C 0.10217 0.4378 0.98201 0.0
C41 C 0.08452 0.36309 0.95354 0.0
C42 C 0.02242 0.37949 0.96696 0.0
C43 C 0.05503 0.42495 0.98124 0.0
O44 O 0.18108 0.40149 0.89335 0.0
O45 O 0.23911 0.40314 1.00151 0.0
O46 O 0.31615 0.46428 1.015 0.0
O47 O 0.27139 0.48911 0.96801 0.0
O48 O 0.18009 0.35924 0.95919 0.0
O49 O 0.22256 0.47578 0.90187 0.0
O50 O 0.29378 0.46112 0.16324 0.0
O51 O 0.22484 0.45426 0.06009 0.0
O52 O 0.14574 0.39323 0.04388 0.0
O53 O 0.1902 0.37356 0.10035 0.0
O54 O 0.28714 0.49846 0.09755 0.0
O55 O 0.24223 0.38836 0.16423 0.0
C56 C 0.21722 0.36335 0.98074 0.0
C57 C 0.18181 0.44658 0.81835 0.0
C58 C 0.1783 0.44785 0.71786 0.0
C59 C 0.1981 0.44255 0.76642 0.0
C60 C 0.14186 0.45737 0.72233 0.0
C61 C 0.14543 0.45592 0.82206 0.0
C62 C 0.12559 0.4613 0.7741 0.0
C63 C 0.31076 0.48976 0.97724 0.0
C64 C 0.20353 0.44092 0.86786 0.0
C65 C 0.04218 0.45819 0.99281 0.0
C66 C 0.07624 0.50426 1.00214 0.0
C67 C 0.24932 0.49473 0.07868 0.0
C68 C 0.29026 0.41866 0.24254 0.0
C69 C 0.2742 0.42217 0.29484 0.0
C70 C 0.29484 0.41737 0.34293 0.0
C71 C 0.33188 0.40884 0.33768 0.0
C72 C 0.32701 0.40992 0.23803 0.0
C73 C 0.34768 0.40503 0.28554 0.0
C74 C 0.15043 0.37076 0.08599 0.0
C75 C 0.2684 0.425 0.1936 0.0
H76 H 0.22663 0.43585 0.76393 0.0
H77 H 0.12552 0.46116 0.68582 0.0
H78 H 0.13249 0.45907 0.86184 0.0
H79 H 0.09743 0.46844 0.77704 0.0
H80 H 0.24606 0.42943 0.29801 0.0
H81 H 0.34825 0.40458 0.37386 0.0
H82 H 0.33972 0.40705 0.19799 0.0
H83 H 0.37606 0.39825 0.28198 0.0
Eu84 Eu 0.76232 0.1798 0.29433 0.0
C85 C 0.93962 0.34637 0.39922 0.0
C86 C 0.99474 0.31952 0.3962 0.0
C87 C 0.02188 0.40179 0.39242 0.0
C88 C 0.94874 0.31044 0.39906 0.0
C89 C 0.9761 0.39254 0.39699 0.0
C90 C 0.03119 0.36533 0.39208 0.0
C91 C 0.91963 0.41698 0.40827 0.0
N92 N 0.89512 0.33622 0.40396 0.0
C93 C 0.88476 0.37063 0.41068 0.0
C94 C 0.9655 0.42802 0.40076 0.0
Eu95 Eu 0.83728 0.25719 0.4057 0.0
N96 N 0.91268 0.26663 0.40303 0.0
C97 C 0.92052 0.23041 0.40781 0.0
C98 C 1.00276 0.28233 0.39848 0.0
C99 C 0.96549 0.23763 0.40484 0.0
H100 H 0.84927 0.36212 0.41658 0.0
H101 H 0.97135 0.20865 0.40736 0.0
H102 H 0.06672 0.37297 0.38958 0.0
H103 H 0.91112 0.44412 0.41231 0.0
H104 H 0.8922 0.1956 0.41237 0.0
H105 H 0.61014 0.20027 0.30636 0.0
H106 H 0.03756 0.28782 0.39632 0.0
H107 H 0.76621 0.08358 0.26774 0.0
H108 H 0.69266 0.22548 0.29208 0.0
H109 H 0.71343 0.99897 0.26692 0.0
H110 H 0.05035 0.43701 0.39022 0.0
H111 H 0.55379 0.11777 0.3229 0.0
H112 H 0.53759 0.0358 0.32687 0.0
H113 H 0.99252 0.46393 0.39918 0.0
H114 H 0.5655 0.98071 0.31486 0.0
N115 N 0.68342 0.15833 0.30303 0.0
C116 C 0.6684 0.1894 0.29932 0.0
C117 C 0.58998 0.12868 0.31691 0.0
C118 C 0.60511 0.09649 0.31603 0.0
C119 C 0.62166 0.17525 0.30737 0.0
C120 C 0.65265 0.1126 0.30842 0.0
H121 H 0.63085 0.96663 0.29071 0.0
N122 N 0.71394 0.09862 0.29191 0.0
C123 C 0.70037 0.02185 0.27727 0.0
C124 C 0.66833 0.08168 0.30212 0.0
C125 C 0.73013 0.06973 0.27769 0.0
C126 C 0.65378 0.00371 0.29089 0.0
C127 C 0.63706 0.03372 0.30281 0.0
O128 O 0.78184 0.16476 0.21424 0.0
O129 O 0.83387 0.22735 0.32307 0.0
O130 O 0.84368 0.30302 0.33325 0.0
O131 O 0.77772 0.25367 0.28182 0.0
O132 O 0.82403 0.16897 0.28321 0.0
O133 O 0.74337 0.20106 0.21843 0.0
O134 O 0.82267 0.28344 0.48118 0.0
O135 O 0.76521 0.21105 0.37692 0.0
O136 O 0.75163 0.1332 0.36657 0.0
O137 O 0.81454 0.18108 0.42299 0.0
O138 O 0.77937 0.27336 0.41139 0.0
O139 O 0.84415 0.23229 0.48606 0.0
C140 C 0.85469 0.20732 0.30519 0.0
C141 C 0.73509 0.15766 0.13793 0.0
C142 C 0.72805 0.15172 0.03765 0.0
C143 C 0.75239 0.17529 0.08537 0.0
C144 C 0.68601 0.10996 0.04363 0.0
C145 C 0.69311 0.11613 0.14313 0.0
C146 C 0.66875 0.09241 0.09605 0.0
C147 C 0.81383 0.29477 0.2929 0.0
C148 C 0.7618 0.18317 0.1865 0.0
C149 C 0.59002 0.01744 0.31343 0.0
C150 C 0.57411 0.0488 0.32024 0.0
C151 C 0.7471 0.23473 0.39171 0.0
C152 C 0.85959 0.28102 0.56302 0.0
C153 C 0.84026 0.26298 0.61477 0.0
C154 C 0.86502 0.28329 0.66346 0.0
C155 C 0.9097 0.32205 0.65926 0.0
C156 C 0.90411 0.31955 0.55958 0.0
C157 C 0.929 0.33995 0.60764 0.0
C158 C 0.77844 0.14026 0.40983 0.0
C159 C 0.83259 0.25856 0.51345 0.0
H160 H 0.78522 0.20713 0.08176 0.0
H161 H 0.66616 0.09116 1.00785 0.0
H162 H 0.67926 0.10214 0.18337 0.0
H163 H 0.6363 0.06034 0.10017 0.0
H164 H 0.80609 0.23266 0.61697 0.0
H165 H 0.92952 0.33888 0.69587 0.0
H166 H 0.91954 0.33374 0.51993 0.0
H167 H 0.96334 0.36981 0.60491 0.0
Eu168 Eu 0.58135 0.76102 0.63225 0.0
C169 C 0.60088 0.94278 0.73531 0.0
C170 C 0.68336 0.99562 0.73022 0.0
C171 C 0.63029 0.02537 0.72729 0.0
C172 C 0.64542 0.95029 0.73431 0.0
C173 C 0.59277 0.98027 0.73289 0.0
C174 C 0.67552 0.03302 0.72592 0.0
C175 C 0.51137 0.92614 0.7456 0.0
N176 N 0.5655 0.89889 0.74085 0.0
C177 C 0.52127 0.89019 0.74812 0.0
C178 C 0.54725 0.97137 0.73736 0.0
Eu179 Eu 0.58408 0.83923 0.74309 0.0
N180 N 0.65171 0.91334 0.7384 0.0
C181 C 0.69533 0.91968 0.74204 0.0
C182 C 0.72804 1.00204 0.73132 0.0
C183 C 0.73403 0.96392 0.73781 0.0
H184 H 0.4935 0.85519 0.75455 0.0
H185 H 0.76847 0.96855 0.73942 0.0
H186 H 0.7042 0.06803 0.72238 0.0
H187 H 0.47614 0.91896 0.75011 0.0
H188 H 0.70075 0.89071 0.74666 0.0
H189 H 0.40652 0.61297 0.65054 0.0
H190 H 0.75808 0.03627 0.72809 0.0
H191 H 0.67937 0.76117 0.60329 0.0
H192 H 0.46541 0.69465 0.63541 0.0
H193 H 0.70879 0.7064 0.60157 0.0
H194 H 0.62475 0.05459 0.72492 0.0
H195 H 0.43045 0.55458 0.6637 0.0
H196 H 0.49446 0.53569 0.66506 0.0
H197 H 0.5396 0.99923 0.73566 0.0
H198 H 0.57681 0.56099 0.65085 0.0
N199 N 0.52222 0.683 0.64234 0.0
C200 C 0.47632 0.66954 0.64119 0.0
C201 C 0.45646 0.59043 0.65741 0.0
C202 C 0.50342 0.60401 0.65462 0.0
C203 C 0.44281 0.62326 0.64976 0.0
C204 C 0.53583 0.65112 0.6464 0.0
H205 H 0.65677 0.62435 0.62563 0.0
N206 N 0.61168 0.71057 0.62839 0.0
C207 C 0.67312 0.69445 0.61244 0.0
C208 C 0.58204 0.66531 0.63885 0.0
C209 C 0.65637 0.72534 0.61338 0.0
C210 C 0.64368 0.64817 0.62621 0.0
C211 C 0.59732 0.63292 0.6389 0.0
O212 O 0.61452 0.77966 0.55137 0.0
O213 O 0.60801 0.83329 0.65997 0.0
O214 O 0.54427 0.8458 0.67099 0.0
O215 O 0.52362 0.77776 0.62186 0.0
O216 O 0.65456 0.8209 0.61914 0.0
O217 O 0.53979 0.74251 0.55731 0.0
O218 O 0.5451 0.82784 0.81961 0.0
O219 O 0.55588 0.76637 0.71591 0.0
O220 O 0.61859 0.75054 0.70315 0.0
O221 O 0.63621 0.81463 0.75896 0.0
O222 O 0.50966 0.78269 0.75167 0.0
O223 O 0.61711 0.84637 0.82269 0.0
C224 C 0.64851 0.85267 0.64104 0.0
C225 C 0.57296 0.73386 0.47512 0.0
C226 C 0.57264 0.72869 0.3746 0.0
C227 C 0.57457 0.75283 0.4231 0.0
C228 C 0.56909 0.68508 0.37929 0.0
C229 C 0.56935 0.69039 0.479 0.0
C230 C 0.56744 0.66616 0.43115 0.0
C231 C 0.52096 0.81536 0.63164 0.0
C232 C 0.57556 0.76044 0.52453 0.0
C233 C 0.56562 0.5863 0.6499 0.0
C234 C 0.51875 0.57189 0.65792 0.0
C235 C 0.51467 0.74934 0.73269 0.0
C236 C 0.58693 0.86502 0.90034 0.0
C237 C 0.58402 0.84553 0.95238 0.0
C238 C 0.59052 0.87138 1.00082 0.0
C239 C 0.60022 0.91734 0.99602 0.0
C240 C 0.5967 0.91082 0.89636 0.0
C241 C 0.6033 0.93681 0.94414 0.0
C242 C 0.63982 0.77791 0.74567 0.0
C243 C 0.5802 0.83686 0.85103 0.0
H244 H 0.57802 0.78679 0.42052 0.0
H245 H 0.56701 0.66531 0.34291 0.0
H246 H 0.56804 0.6753 0.51883 0.0
H247 H 0.56459 0.63255 0.43424 0.0
H248 H 0.57729 0.81033 0.95498 0.0
H249 H 0.60488 0.93809 0.03235 0.0
H250 H 0.59925 0.92638 0.85652 0.0
H251 H 0.61072 0.97215 0.94098 0.0
Eu252 Eu 0.8152 0.57635 0.97036 0.0
C253 C 0.65746 0.60353 0.07358 0.0
C254 C 0.68889 0.6861 0.06612 0.0
C255 C 0.60568 0.6346 0.06493 0.0
C256 C 0.6952 0.64759 0.07124 0.0
C257 C 0.61221 0.59654 0.07161 0.0
C258 C 0.64397 0.67931 0.06214 0.0
C259 C 0.5833 0.51524 0.08708 0.0
N260 N 0.66497 0.5676 0.08016 0.0
C261 C 0.62883 0.52403 0.08906 0.0
C262 C 0.57493 0.5516 0.07768 0.0
Eu263 Eu 0.74272 0.58443 0.08173 0.0
N264 N 0.7381 0.65287 0.07516 0.0
C265 C 0.77612 0.69605 0.07769 0.0
C266 C 0.72789 0.7303 0.06599 0.0
C267 C 0.77166 0.73528 0.07236 0.0
H268 H 0.63531 0.49588 0.09628 0.0
H269 H 0.80203 0.76935 0.07307 0.0
H270 H 0.63845 0.70844 0.05783 0.0
H271 H 0.55477 0.48049 0.09289 0.0
H272 H 0.81022 0.70059 0.08229 0.0
H273 H 0.77575 0.39682 0.9806 0.0
H274 H 0.72454 0.76075 0.06197 0.0
H275 H 0.91657 0.67078 0.94438 0.0
H276 H 0.75836 0.45986 0.97132 0.0
H277 H 0.99963 0.69469 0.94084 0.0
H278 H 0.57119 0.6299 0.06287 0.0
H279 H 0.85676 0.41463 0.98922 0.0
H280 H 0.9413 0.47414 0.99039 0.0
H281 H 0.53968 0.54483 0.07634 0.0
H282 H 1.00238 0.5553 0.97947 0.0
N283 N 0.82869 0.51329 0.97719 0.0
C284 C 0.79389 0.46832 0.97537 0.0
C285 C 0.84932 0.44255 0.98582 0.0
C286 C 0.88502 0.48859 0.98444 0.0
C287 C 0.80357 0.43236 0.98063 0.0
C288 C 0.87343 0.52361 0.97952 0.0
H289 H 0.02446 0.63769 0.95969 0.0
N290 N 0.89504 0.60136 0.96587 0.0
C291 C 0.97416 0.65931 0.95044 0.0
C292 C 0.90773 0.56913 0.9736 0.0
C293 C 0.92716 0.64567 0.95237 0.0
C294 C 0.98805 0.62706 0.96129 0.0
C295 C 0.95464 0.58113 0.9722 0.0
O296 O 0.83245 0.61001 0.88986 0.0
O297 O 0.77261 0.60643 0.99831 0.0
O298 O 0.69457 0.5451 1.01077 0.0
O299 O 0.73948 0.52106 0.96187 0.0
O300 O 0.83205 0.65058 0.95684 0.0
O301 O 0.7873 0.5359 0.89519 0.0
O302 O 0.7172 0.54723 0.15942 0.0
O303 O 0.7847 0.55312 0.05437 0.0
O304 O 0.86406 0.61257 0.04113 0.0
O305 O 0.82014 0.6346 0.09562 0.0
O306 O 0.7223 0.50957 0.09252 0.0
O307 O 0.76862 0.61998 0.16026 0.0
C308 C 0.79497 0.64653 0.97873 0.0
C309 C 0.82972 0.5655 0.81281 0.0
C310 C 0.83258 0.56387 0.71229 0.0
C311 C 0.81316 0.56943 0.76124 0.0
C312 C 0.86889 0.55413 0.71601 0.0
C313 C 0.86593 0.55587 0.81579 0.0
C314 C 0.88538 0.55021 0.76744 0.0
C315 C 0.70011 0.52025 0.97205 0.0
C316 C 0.80847 0.57153 0.86272 0.0
C317 C 0.96651 0.54672 0.97982 0.0
C318 C 0.93174 0.50051 0.98599 0.0
C319 C 0.75938 0.51248 0.07205 0.0
C320 C 0.7203 0.59017 0.2384 0.0
C321 C 0.73628 0.58742 0.29086 0.0
C322 C 0.71549 0.59283 0.33866 0.0
C323 C 0.6784 0.60117 0.333 0.0
C324 C 0.68351 0.59877 0.23345 0.0
C325 C 0.66269 0.60425 0.28069 0.0
C326 C 0.8594 0.63562 0.08284 0.0
C327 C 0.74246 0.58348 0.18972 0.0
H328 H 0.78471 0.57627 0.75935 0.0
H329 H 0.88496 0.55016 0.67918 0.0
H330 H 0.87903 0.55271 0.85529 0.0
H331 H 0.91342 0.54287 0.76982 0.0
H332 H 0.7645 0.58034 0.29439 0.0
H333 H 0.66192 0.60586 0.36898 0.0
H334 H 0.6709 0.60114 0.19328 0.0
H335 H 0.63429 0.61092 0.27677 0.0
Eu336 Eu 0.23624 0.81692 0.30059 0.0
C337 C 0.06194 0.66688 0.40177 0.0
C338 C 0.01203 0.7002 0.40106 0.0
C339 C 0.97893 0.61775 0.38766 0.0
C340 C 0.05659 0.70534 0.40587 0.0
C341 C 0.02282 0.62254 0.39395 0.0
C342 C 0.97355 0.65646 0.39135 0.0
C343 C 0.07193 0.58963 0.40577 0.0
N344 N 0.10472 0.67224 0.40829 0.0
C345 C 0.10945 0.63397 0.41391 0.0
C346 C 0.02855 0.58392 0.39467 0.0
Eu347 Eu 0.16717 0.74956 0.41987 0.0
N348 N 0.0944 0.74744 0.41569 0.0
C349 C 0.08894 0.78501 0.42433 0.0
C350 C 0.0071 0.73903 0.40707 0.0
C351 C 0.04564 0.78147 0.41932 0.0
H352 H 0.14237 0.63728 0.42454 0.0
H353 H 0.04205 0.81163 0.42514 0.0
H354 H 0.93925 0.65203 0.38791 0.0
H355 H 0.07644 0.55983 0.40876 0.0
H356 H 0.11736 0.81843 0.43461 0.0
H357 H 0.36246 0.75921 0.31481 0.0
H358 H 0.97356 0.73644 0.40342 0.0
H359 H 0.25412 0.92243 0.27364 0.0
H360 H 0.28482 0.75034 0.30455 0.0
H361 H 0.31918 0.0032 0.27103 0.0
H362 H 0.94871 0.58406 0.3813 0.0
H363 H 0.43115 0.83721 0.32339 0.0
H364 H 0.46443 0.92343 0.32389 0.0
H365 H 0.99938 0.54943 0.38887 0.0
H366 H 0.4525 0.98991 0.31256 0.0
N367 N 0.30933 0.8224 0.30839 0.0
C368 C 0.31459 0.78447 0.30805 0.0
C369 C 0.39719 0.83349 0.3189 0.0
C370 C 0.3917 0.87229 0.3166 0.0
C371 C 0.35851 0.7894 0.31389 0.0
C372 C 0.3467 0.86549 0.31084 0.0
H373 H 0.3986 0.02003 0.29189 0.0
N374 N 0.29644 0.89472 0.29737 0.0
C375 C 0.32549 0.97534 0.28117 0.0
C376 C 0.34002 0.90285 0.30528 0.0
C377 C 0.28883 0.92974 0.28261 0.0
C378 C 0.37025 0.9847 0.29311 0.0
C379 C 0.37813 0.94815 0.3043 0.0
O380 O 0.21958 0.83715 0.22216 0.0
O381 O 0.16547 0.77187 0.33402 0.0
O382 O 0.18316 0.70267 0.36603 0.0
O383 O 0.20326 0.74102 0.28204 0.0
O384 O 0.17733 0.83196 0.2957 0.0
O385 O 0.25048 0.79376 0.22246 0.0
O386 O 0.17656 0.71008 0.4854 0.0
O387 O 0.23698 0.78078 0.37802 0.0
O388 O 0.24625 0.86919 0.36704 0.0
O389 O 0.18819 0.82527 0.43133 0.0
O390 O 0.23551 0.79462 0.46089 0.0
O391 O 0.15192 0.75766 0.50497 0.0
C392 C 0.14601 0.79354 0.31711 0.0
C393 C 0.25973 0.8369 0.14168 0.0
C394 C 0.26341 0.83555 0.04116 0.0
C395 C 0.24089 0.81535 0.09105 0.0
C396 C 0.30531 0.87785 0.04289 0.0
C397 C 0.30165 0.87881 0.14271 0.0
C398 C 0.32427 0.89917 0.09337 0.0
C399 C 0.18888 0.70349 0.3119 0.0
C400 C 0.23448 0.81479 0.19244 0.0
C401 C 0.42286 0.95531 0.31249 0.0
C402 C 0.42964 0.91745 0.31878 0.0
C403 C 0.26197 0.80149 0.41942 0.0
C404 C 0.13687 0.69999 0.57092 0.0
C405 C 0.15427 0.71512 0.62415 0.0
C406 C 0.129 0.69075 0.67097 0.0
C407 C 0.08585 0.65056 0.66346 0.0
C408 C 0.09379 0.66001 0.56412 0.0
C409 C 0.06853 0.63531 0.61035 0.0
C410 C 0.22177 0.86518 0.41193 0.0
C411 C 0.16369 0.72858 0.52406 0.0
H412 H 0.20823 0.78311 0.09054 0.0
H413 H 0.3237 0.89416 1.00527 0.0
H414 H 0.31676 0.89571 0.18142 0.0
H415 H 0.35663 0.93158 0.09424 0.0
H416 H 0.18712 0.74677 0.62907 0.0
H417 H 0.06562 0.6308 0.69857 0.0
H418 H 0.07955 0.64824 0.52341 0.0
H419 H 0.03524 0.60441 0.60505 0.0
Eu420 Eu 0.4328 0.24798 0.63119 0.0
C421 C 0.40638 0.06354 0.73234 0.0
C422 C 0.32391 0.01144 0.72457 0.0
C423 C 0.3764 0.98095 0.72272 0.0
C424 C 0.36203 0.05652 0.72994 0.0
C425 C 0.41407 0.02578 0.7298 0.0
C426 C 0.33139 0.97379 0.72014 0.0
C427 C 0.49526 0.07908 0.74538 0.0
N428 N 0.44192 0.10718 0.73937 0.0
C429 C 0.4858 0.11534 0.74789 0.0
C430 C 0.45929 0.03412 0.73571 0.0
Eu431 Eu 0.42386 0.16716 0.7415 0.0
N432 N 0.35604 0.09366 0.73425 0.0
C433 C 0.31257 0.08781 0.73674 0.0
C434 C 0.27938 0.00549 0.72473 0.0
C435 C 0.2737 0.04383 0.7313 0.0
H436 H 0.51367 0.15015 0.75522 0.0
H437 H 0.23938 0.03954 0.73213 0.0
H438 H 0.30257 0.93895 0.71566 0.0
H439 H 0.53022 0.08579 0.75096 0.0
H440 H 0.30751 0.11703 0.74154 0.0
H441 H 0.60961 0.39211 0.65171 0.0
H442 H 0.2492 0.97145 0.72078 0.0
H443 H 0.33679 0.25141 0.60171 0.0
H444 H 0.54894 0.31107 0.63712 0.0
H445 H 0.31003 0.30823 0.5995 0.0
H446 H 0.38164 0.95152 0.72024 0.0
H447 H 0.58836 0.45274 0.66245 0.0
H448 H 0.52639 0.47448 0.66259 0.0
H449 H 0.4666 0.00602 0.734 0.0
H450 H 0.44474 0.45167 0.64795 0.0
N451 N 0.49361 0.32521 0.64196 0.0
C452 C 0.53912 0.3371 0.64197 0.0
C453 C 0.56152 0.41713 0.65659 0.0
C454 C 0.51501 0.40509 0.6532 0.0
C455 C 0.57366 0.38304 0.65024 0.0
C456 C 0.48148 0.35827 0.64522 0.0
H457 H 0.36406 0.38999 0.62312 0.0
N458 N 0.40499 0.30049 0.6269 0.0
C459 C 0.34541 0.31914 0.61048 0.0
C460 C 0.4357 0.34553 0.63724 0.0
C461 C 0.36068 0.28707 0.61172 0.0
C462 C 0.37598 0.36524 0.624 0.0
C463 C 0.42196 0.3791 0.63682 0.0
O464 O 0.4013 0.23027 0.5495 0.0
O465 O 0.40268 0.17506 0.65779 0.0
O466 O 0.46272 0.15839 0.66969 0.0
O467 O 0.4896 0.22907 0.62452 0.0
O468 O 0.35884 0.19048 0.6161 0.0
O469 O 0.47579 0.26518 0.55731 0.0
O470 O 0.4605 0.17841 0.81954 0.0
O471 O 0.45483 0.24035 0.71539 0.0
O472 O 0.3956 0.25983 0.70179 0.0
O473 O 0.37269 0.1934 0.755 0.0
O474 O 0.49856 0.22234 0.75383 0.0
O475 O 0.38776 0.1576 0.81961 0.0
C476 C 0.36264 0.15744 0.63791 0.0
C477 C 0.44521 0.27613 0.47462 0.0
C478 C 0.44527 0.28185 0.37422 0.0
C479 C 0.44201 0.25684 0.42223 0.0
C480 C 0.45181 0.32665 0.37974 0.0
C481 C 0.45181 0.3208 0.47931 0.0
C482 C 0.4551 0.3459 0.43194 0.0
C483 C 0.48939 0.18983 0.63302 0.0
C484 C 0.44075 0.24856 0.52361 0.0
C485 C 0.45477 0.42547 0.64748 0.0
C486 C 0.50122 0.43845 0.65575 0.0
C487 C 0.49524 0.25635 0.73407 0.0
C488 C 0.41697 0.14006 0.8988 0.0
C489 C 0.42142 0.16039 0.95077 0.0
C490 C 0.41481 0.13485 0.99931 0.0
C491 C 0.40344 0.08835 0.99471 0.0
C492 C 0.40564 0.09377 0.89497 0.0
C493 C 0.3989 0.06807 0.94288 0.0
C494 C 0.37205 0.23191 0.74303 0.0
C495 C 0.42411 0.16806 0.84944 0.0
H496 H 0.43623 0.22199 0.41898 0.0
H497 H 0.45493 0.34704 0.3437 0.0
H498 H 0.45434 0.33614 0.51941 0.0
H499 H 0.46025 0.38042 0.43568 0.0
H500 H 0.42947 0.19604 0.95327 0.0
H501 H 0.39862 0.0678 0.03114 0.0
H502 H 0.402 0.07763 0.85515 0.0
H503 H 0.39026 0.03233 0.93986 0.0
C504 C 0.33724 0.23112 0.83533 0.0
C505 C 0.34593 0.24615 0.78034 0.0
C506 C 0.31627 0.24763 0.87236 0.0
C507 C 0.30266 0.27914 0.85371 0.0
C508 C 0.31041 0.2936 0.79799 0.0
C509 C 0.33244 0.27744 0.76238 0.0
C510 C 0.31018 0.23262 0.93185 0.0
C511 C 0.29592 0.32667 0.77598 0.0
C512 C 0.2125 0.2955 0.9312 0.0
C513 C 0.23972 0.33909 0.95528 0.0
C514 C 0.23258 0.27482 0.89947 0.0
C515 C 0.2812 0.29796 0.89234 0.0
C516 C 0.30899 0.341 0.91871 0.0
C517 C 0.28785 0.36146 0.94863 0.0
C518 C 0.20159 0.22928 0.87135 0.0
C519 C 0.36103 0.36633 0.91377 0.0
H520 H 0.34827 0.20765 0.85012 0.0
H521 H 0.33917 0.28951 0.72038 0.0
H522 H 0.2738 0.21884 0.94505 0.0
H523 H 0.31999 0.20586 0.93918 0.0
H524 H 0.33196 0.26291 0.95834 0.0
H525 H 0.30187 0.33231 0.7309 0.0
H526 H 0.25871 0.31329 0.78455 0.0
H527 H 0.31559 0.36051 0.79711 0.0
H528 H 0.17522 0.27829 0.93554 0.0
H529 H 0.30916 0.39554 0.9657 0.0
H530 H 0.21272 0.20398 0.88134 0.0
H531 H 0.20441 0.23419 0.82601 0.0
H532 H 0.16477 0.21449 0.88344 0.0
H533 H 0.37775 0.39685 0.9415 0.0
H534 H 0.37133 0.37818 0.87075 0.0
H535 H 0.37449 0.34288 0.92379 0.0
C536 C 0.06467 0.32503 0.10009 0.0
C537 C 0.10932 0.34348 0.12167 0.0
C538 C 0.02536 0.30235 0.13382 0.0
C539 C 0.03062 0.29843 0.1911 0.0
C540 C 0.07562 0.31657 0.21328 0.0
C541 C 0.11441 0.33857 0.17825 0.0
C542 C 0.97812 0.28311 0.1081 0.0
C543 C 0.08291 0.31425 0.27424 0.0
C544 C 0.92606 0.2796 0.27455 0.0
C545 C 0.9027 0.23174 0.28328 0.0
C546 C 0.96925 0.30221 0.24801 0.0
C547 C 0.98878 0.27608 0.22735 0.0
C548 C 0.96577 0.22783 0.23689 0.0
C549 C 0.92314 0.20631 0.26493 0.0
C550 C 0.99305 0.35387 0.24022 0.0
C551 C 0.98503 0.19856 0.21511 0.0
H552 H 0.06033 0.32827 0.05664 0.0
H553 H 0.14878 0.35336 0.19558 0.0
H554 H 0.95648 0.24587 0.118 0.0
H555 H 0.96043 0.30094 0.1254 0.0
H556 H 0.97989 0.28721 0.0626 0.0
H557 H 0.11962 0.32632 0.28441 0.0
H558 H 0.07206 0.3362 0.29669 0.0
H559 H 0.06122 0.27845 0.28958 0.0
H560 H 0.91018 0.29944 0.28731 0.0
H561 H 0.90499 0.16923 0.27097 0.0
H562 H 0.99265 0.36188 0.19598 0.0
H563 H 0.02975 0.37022 0.2531 0.0
H564 H 0.97607 0.36969 0.26415 0.0
H565 H 0.98476 0.19883 0.1694 0.0
H566 H 0.9648 0.16219 0.22935 0.0
H567 H 0.02148 0.21304 0.22825 0.0
C568 C 0.77842 0.10777 0.50338 0.0
C569 C 0.76545 0.10061 0.44762 0.0
C570 C 0.76245 0.07045 0.54038 0.0
C571 C 0.73356 0.02481 0.52096 0.0
C572 C 0.72139 0.01738 0.46452 0.0
C573 C 0.73702 0.05528 0.42894 0.0
C574 C 0.77507 0.07999 0.60053 0.0
C575 C 0.69109 0.96933 0.44169 0.0
C576 C 0.71789 0.9188 0.59766 0.0
C577 C 0.67275 0.90016 0.61802 0.0
C578 C 0.73909 0.96056 0.56813 0.0
C579 C 0.71472 0.98456 0.5593 0.0
C580 C 0.67002 0.96703 0.58222 0.0
C581 C 0.64923 0.92458 0.61007 0.0
C582 C 0.78649 0.97759 0.54373 0.0
C583 C 0.64321 0.99202 0.5753 0.0
H584 H 0.79971 0.14264 0.51867 0.0
H585 H 0.72661 0.04923 0.38636 0.0
H586 H 0.74351 0.07057 0.62506 0.0
H587 H 0.78939 0.05843 0.61558 0.0
H588 H 0.80065 0.11689 0.60841 0.0
H589 H 0.68738 0.96925 0.39622 0.0
H590 H 0.70566 0.94694 0.45233 0.0
H591 H 0.65617 0.95372 0.46047 0.0
H592 H 0.73602 0.89978 0.60309 0.0
H593 H 0.61404 0.91008 0.62438 0.0
H594 H 0.80978 0.0144 0.5545 0.0
H595 H 0.7839 0.97529 0.49813 0.0
H596 H 0.80238 0.95719 0.55808 0.0
H597 H 0.66507 0.02901 0.58634 0.0
H598 H 0.61148 0.97683 0.60117 0.0
H599 H 0.63295 0.99036 0.53157 0.0
C600 C 0.67463 0.77942 0.83799 0.0
C601 C 0.66681 0.76487 0.78275 0.0
C602 C 0.69621 0.76355 0.87467 0.0
C603 C 0.71115 0.73313 0.8554 0.0
C604 C 0.70452 0.71942 0.79938 0.0
C605 C 0.68202 0.73499 0.76412 0.0
C606 C 0.70128 0.77783 0.93445 0.0
C607 C 0.72033 0.68744 0.77676 0.0
C608 C 0.80042 0.71566 0.93219 0.0
C609 C 0.77292 0.67145 0.95443 0.0
C610 C 0.78067 0.73709 0.90163 0.0
C611 C 0.73216 0.71398 0.89376 0.0
C612 C 0.70408 0.67028 0.91837 0.0
C613 C 0.7249 0.64916 0.94715 0.0
C614 C 0.81191 0.78336 0.87537 0.0
C615 C 0.65212 0.64487 0.9125 0.0
H616 H 0.66241 0.80188 0.85325 0.0
H617 H 0.67608 0.72337 0.72191 0.0
H618 H 0.6786 0.74729 0.96007 0.0
H619 H 0.73729 0.79096 0.94854 0.0
H620 H 0.69177 0.80482 0.94194 0.0
H621 H 0.71563 0.68279 0.73144 0.0
H622 H 0.75738 0.70109 0.78641 0.0
H623 H 0.70049 0.65306 0.79653 0.0
H624 H 0.83763 0.7328 0.93703 0.0
H625 H 0.7034 0.61465 0.96279 0.0
H626 H 0.80004 0.80808 0.88574 0.0
H627 H 0.81038 0.77945 0.82987 0.0
H628 H 0.84845 0.7983 0.88861 0.0
H629 H 0.63833 0.66798 0.92314 0.0
H630 H 0.63506 0.61382 0.93926 0.0
H631 H 0.64257 0.63379 0.86909 0.0
C632 C 0.0772 0.72237 0.28042 0.0
C633 C 0.09916 0.76974 0.29245 0.0
C634 C 0.03542 0.70039 0.2511 0.0
C635 C 0.01635 0.72686 0.23064 0.0
C636 C 0.03808 0.7746 0.24322 0.0
C637 C 0.07905 0.79539 0.27432 0.0
C638 C 0.01234 0.64906 0.24083 0.0
C639 C 0.01893 0.80402 0.22209 0.0
C640 C 0.9448 0.68035 0.10008 0.0
C641 C 0.89956 0.66169 0.11995 0.0
C642 C 0.983 0.70256 0.13547 0.0
C643 C 0.97585 0.70536 0.19261 0.0
C644 C 0.93017 0.6869 0.21294 0.0
C645 C 0.89266 0.66558 0.17633 0.0
C646 C 0.03108 0.72266 0.11163 0.0
C647 C 0.92028 0.68716 0.27359 0.0
H648 H 0.09318 0.70254 0.29294 0.0
H649 H 0.09628 0.83212 0.28291 0.0
H650 H 0.97556 0.63208 0.25382 0.0
H651 H 0.01295 0.64232 0.19616 0.0
H652 H 0.02952 0.6329 0.26335 0.0
H653 H 0.0392 0.84035 0.23658 0.0
H654 H 0.01899 0.80379 0.17636 0.0
H655 H 0.98253 0.78947 0.23573 0.0
H656 H 0.95047 0.67781 0.05676 0.0
H657 H 0.85778 0.65042 0.19238 0.0
H658 H 0.04835 0.70451 0.12885 0.0
H659 H 0.05221 0.75963 0.12325 0.0
H660 H 0.0308 0.7198 0.066 0.0
H661 H 0.91892 0.65649 0.29285 0.0
H662 H 0.88635 0.68493 0.28067 0.0
H663 H 0.9475 0.71839 0.29471 0.0
C664 C 0.35922 0.08458 0.60503 0.0
C665 C 0.33719 0.11039 0.61375 0.0
C666 C 0.33738 0.04262 0.57602 0.0
C667 C 0.29302 0.02686 0.55315 0.0
C668 C 0.2702 0.05234 0.5626 0.0
C669 C 0.29251 0.09371 0.59295 0.0
C670 C 0.3626 0.01607 0.56825 0.0
C671 C 0.22301 0.0369 0.53873 0.0
C672 C 0.26466 0.95128 0.42538 0.0
C673 C 0.23627 0.90691 0.44674 0.0
C674 C 0.28252 0.99058 0.4593 0.0
C675 C 0.27197 0.98552 0.51633 0.0
C676 C 0.24246 0.94095 0.53806 0.0
C677 C 0.22484 0.90227 0.50304 0.0
C678 C 0.31352 0.0375 0.43423 0.0
C679 C 0.23106 0.93385 0.59872 0.0
H680 H 0.39406 0.09759 0.61964 0.0
H681 H 0.27556 0.11383 0.59901 0.0
H682 H 0.33993 0.97937 0.5799 0.0
H683 H 0.37191 0.01681 0.5242 0.0
H684 H 0.39472 0.03058 0.59319 0.0
H685 H 0.20888 0.05915 0.55229 0.0
H686 H 0.22511 0.03769 0.49308 0.0
H687 H 0.19846 1.00075 0.55094 0.0
H688 H 0.27333 0.95541 0.38215 0.0
H689 H 0.2034 0.86817 0.52039 0.0
H690 H 0.34857 0.05301 0.45247 0.0
H691 H 0.29993 0.061 0.44366 0.0
H692 H 0.31666 0.03578 0.38881 0.0
H693 H 0.26255 0.94135 0.62206 0.0
H694 H 0.2036 0.89795 0.60813 0.0
H695 H 0.21975 0.958 0.61373 0.0
C696 C 0.20564 0.40797 0.65261 0.0
C697 C 0.19558 0.44337 0.66281 0.0
C698 C 0.22188 0.40326 0.60089 0.0
C699 C 0.2284 0.43479 0.55826 0.0
C700 C 0.21855 0.47073 0.56834 0.0
C701 C 0.20215 0.4745 0.62039 0.0
C702 C 0.23178 0.36433 0.59179 0.0
C703 C 0.2256 0.50542 0.52423 0.0
C704 C 0.30915 0.44752 0.44005 0.0
C705 C 0.27785 0.42151 0.39828 0.0
C706 C 0.29356 0.45228 0.4922 0.0
C707 C 0.24547 0.43014 0.50307 0.0
C708 C 0.21369 0.40363 0.46116 0.0
C709 C 0.23026 0.39978 0.40928 0.0
C710 C 0.32857 0.48129 0.53552 0.0
C711 C 0.16216 0.37915 0.47115 0.0
H712 H 0.20016 0.38345 0.68494 0.0
H713 H 0.19509 0.50232 0.62815 0.0
H714 H 0.21038 0.34211 0.55733 0.0
H715 H 0.26852 0.37846 0.57996 0.0
H716 H 0.22463 0.34256 0.62905 0.0
H717 H 0.21669 0.53154 0.53877 0.0
H718 H 0.26218 0.52356 0.51038 0.0
H719 H 0.20399 0.48745 0.48781 0.0
H720 H 0.34594 0.46488 0.43163 0.0
H721 H 0.20589 0.3792 0.37741 0.0
H722 H 0.32464 0.45989 0.57217 0.0
H723 H 0.32247 0.50948 0.54929 0.0
H724 H 0.36469 0.49683 0.52027 0.0
H725 H 0.15303 0.35485 0.50618 0.0
H726 H 0.14206 0.35954 0.43444 0.0
H727 H 0.15142 0.40456 0.48255 0.0
C728 C 0.74473 0.14149 0.93911 0.0
C729 C 0.74667 0.1707 0.98196 0.0
C730 C 0.76307 0.15915 0.88678 0.0
C731 C 0.78395 0.20723 0.87702 0.0
C732 C 0.7856 0.23684 0.9199 0.0
C733 C 0.76694 0.21823 0.97176 0.0
C734 C 0.76062 0.12642 0.84214 0.0
C735 C 0.8072 0.28824 0.91108 0.0
C736 C 0.87102 0.25997 0.76005 0.0
C737 C 0.84428 0.26397 0.7183 0.0
C738 C 0.85182 0.24153 0.8118 0.0
C739 C 0.80468 0.22668 0.82218 0.0
C740 C 0.77747 0.23061 0.78027 0.0
C741 C 0.79758 0.2492 0.72891 0.0
C742 C 0.88196 0.23777 0.85533 0.0
C743 C 0.72713 0.21534 0.78974 0.0
H744 H 0.72963 0.10483 0.94676 0.0
H745 H 0.76792 0.24096 1.00432 0.0
H746 H 0.74288 0.1297 0.80533 0.0
H747 H 0.79606 0.13551 0.8292 0.0
H748 H 0.74197 0.08982 0.85579 0.0
H749 H 0.80518 0.30644 0.94844 0.0
H750 H 0.84408 0.30319 0.89936 0.0
H751 H 0.78967 0.29504 0.87666 0.0
H752 H 0.90693 0.27066 0.752 0.0
H753 H 0.77679 0.25272 0.69719 0.0
H754 H 0.86714 0.20121 0.86804 0.0
H755 H 0.88301 0.25768 0.89247 0.0
H756 H 0.91794 0.2508 0.84073 0.0
H757 H 0.70778 0.17817 0.80068 0.0
H758 H 0.71075 0.22076 0.75294 0.0
H759 H 0.72369 0.23469 0.82491 0.0
C760 C 0.60094 0.7456 0.27662 0.0
C761 C 0.57449 0.74909 0.31944 0.0
C762 C 0.60342 0.76516 0.22466 0.0
C763 C 0.57888 0.78888 0.21517 0.0
C764 C 0.55191 0.79232 0.25808 0.0
C765 C 0.55005 0.77242 0.3096 0.0
C766 C 0.63262 0.76074 0.18004 0.0
C767 C 0.52493 0.81698 0.24958 0.0
C768 C 0.61851 0.87605 0.09805 0.0
C769 C 0.58726 0.85042 0.05602 0.0
C770 C 0.61606 0.85655 0.15004 0.0
C771 C 0.58157 0.81021 0.16039 0.0
C772 C 0.54981 0.78418 0.11828 0.0
C773 C 0.553 0.80458 0.06672 0.0
C774 C 0.65063 0.88547 0.1938 0.0
C775 C 0.51235 0.73476 0.12769 0.0
H776 H 0.6204 0.72817 0.28399 0.0
H777 H 0.52897 0.77471 0.34212 0.0
H778 H 0.61108 0.74347 0.14333 0.0
H779 H 0.66012 0.79555 0.16693 0.0
H780 H 0.6491 0.74071 0.19375 0.0
H781 H 0.50522 0.81617 0.28693 0.0
H782 H 0.54878 0.85354 0.23832 0.0
H783 H 0.50033 0.80088 0.21495 0.0
H784 H 0.64547 0.91125 0.09003 0.0
H785 H 0.52823 0.78469 0.03489 0.0
H786 H 0.67068 0.86883 0.20666 0.0
H787 H 0.63236 0.88782 0.23083 0.0
H788 H 0.67516 0.92103 0.17934 0.0
H789 H 0.52803 0.71347 0.13888 0.0
H790 H 0.49027 0.71929 0.09078 0.0
H791 H 0.49008 0.73303 0.16267 0.0
C792 C 0.80834 0.53723 0.61492 0.0
C793 C 0.81502 0.56832 0.65764 0.0
C794 C 0.79175 0.54101 0.56321 0.0
C795 C 0.78173 0.57687 0.55382 0.0
C796 C 0.78825 0.6083 0.59679 0.0
C797 C 0.80478 0.60363 0.64813 0.0
C798 C 0.78471 0.50645 0.5187 0.0
C799 C 0.77817 0.64713 0.58839 0.0
C800 C 0.77996 0.61161 0.40512 0.0
C801 C 0.73239 0.58945 0.39416 0.0
C802 C 0.79648 0.60822 0.45703 0.0
C803 C 0.76467 0.58162 0.49892 0.0
C804 C 0.71659 0.55924 0.48815 0.0
C805 C 0.70104 0.56361 0.436 0.0
C806 C 0.848 0.63298 0.46691 0.0
C807 C 0.68157 0.53024 0.53154 0.0
H808 H 0.8155 0.50945 0.62216 0.0
H809 H 0.81036 0.62814 0.68068 0.0
H810 H 0.74816 0.4884 0.5049 0.0
H811 H 0.80642 0.52453 0.48235 0.0
H812 H 0.79354 0.48023 0.5328 0.0
H813 H 0.78481 0.6685 0.62606 0.0
H814 H 0.79987 0.66976 0.55438 0.0
H815 H 0.74154 0.63298 0.57624 0.0
H816 H 0.80435 0.63205 0.37315 0.0
H817 H 0.66427 0.54599 0.42759 0.0
H818 H 0.85921 0.60743 0.47502 0.0
H819 H 0.85682 0.65542 0.50387 0.0
H820 H 0.86796 0.65456 0.43123 0.0
H821 H 0.68757 0.50197 0.54487 0.0
H822 H 0.64545 0.51481 0.51651 0.0
H823 H 0.68558 0.5516 0.56841 0.0
C824 C 0.1186 0.70928 0.7687 0.0
C825 C 0.14742 0.70817 0.72722 0.0
C826 C 0.13627 0.72823 0.82086 0.0
C827 C 0.18391 0.7464 0.83194 0.0
C828 C 0.21291 0.74434 0.7907 0.0
C829 C 0.19436 0.72536 0.73892 0.0
C830 C 0.10419 0.72988 0.86363 0.0
C831 C 0.26375 0.76281 0.80099 0.0
C832 C 0.24163 0.83844 0.94293 0.0
C833 C 0.24302 0.81264 0.98758 0.0
C834 C 0.22213 0.81724 0.8923 0.0
C835 C 0.20383 0.76905 0.88592 0.0
C836 C 0.20524 0.7428 0.93079 0.0
C837 C 0.22463 0.76487 0.98109 0.0
C838 C 0.22104 0.84645 0.84564 0.0
C839 C 0.1866 0.69146 0.92557 0.0
H840 H 0.08242 0.69653 0.75986 0.0
H841 H 0.21671 0.724 0.70741 0.0
H842 H 0.10567 0.7129 0.90213 0.0
H843 H 0.11545 0.76634 0.87396 0.0
H844 H 0.06775 0.71271 0.84934 0.0
H845 H 0.28119 0.75687 0.76546 0.0
H846 H 0.28118 0.80046 0.8093 0.0
H847 H 0.26844 0.74619 0.83798 0.0
H848 H 0.25522 0.87523 0.94784 0.0
H849 H 0.22605 0.74479 1.01522 0.0
H850 H 0.1849 0.83306 0.83187 0.0
H851 H 0.24073 0.84446 0.80988 0.0
H852 H 0.23596 0.8833 0.85755 0.0
H853 H 0.14938 0.67373 0.91476 0.0
H854 H 0.1907 0.67611 0.96417 0.0
H855 H 0.20475 0.68451 0.89178 0.0
C856 C 0.41559 0.26625 0.2769 0.0
C857 C 0.44163 0.26112 0.31869 0.0
C858 C 0.41134 0.2463 0.22463 0.0
C859 C 0.43372 0.2206 0.21375 0.0
C860 C 0.46036 0.21561 0.25559 0.0
C861 C 0.46394 0.23586 0.30748 0.0
C862 C 0.38255 0.25239 0.18119 0.0
C863 C 0.48511 0.18885 0.24556 0.0
C864 C 0.38862 0.13249 0.09713 0.0
C865 C 0.41979 0.15673 0.05442 0.0
C866 C 0.39274 0.15284 0.14911 0.0
C867 C 0.42894 0.19859 0.15876 0.0
C868 C 0.46056 0.22325 0.11589 0.0
C869 C 0.45562 0.20205 0.06434 0.0
C870 C 0.3582 0.12542 0.19364 0.0
C871 C 0.49976 0.272 0.12455 0.0
H872 H 0.3978 0.28524 0.28536 0.0
H873 H 0.48469 0.23231 0.33922 0.0
H874 H 0.40386 0.2689 0.14404 0.0
H875 H 0.35373 0.21816 0.16838 0.0
H876 H 0.36786 0.27386 0.19592 0.0
H877 H 0.50499 0.18876 0.28212 0.0
H878 H 0.45976 0.15259 0.2346 0.0
H879 H 0.50925 0.20393 0.21025 0.0
H880 H 0.36047 0.09773 0.08969 0.0
H881 H 0.48028 0.22084 0.0319 0.0
H882 H 0.34006 0.14386 0.20743 0.0
H883 H 0.37634 0.12206 0.22999 0.0
H884 H 0.33203 0.09027 0.17955 0.0
H885 H 0.48588 0.29471 0.13682 0.0
H886 H 0.52127 0.28653 0.08696 0.0
H887 H 0.52225 0.27277 0.15856 0.0
C888 C 0.18469 0.50055 0.12407 0.0
C889 C 0.23067 0.52167 0.10574 0.0
C890 C 0.16958 0.52441 0.15843 0.0
C891 C 0.20134 0.57031 0.17492 0.0
C892 C 0.24727 0.5922 0.15452 0.0
C893 C 0.26134 0.56754 0.1205 0.0
C894 C 0.12031 0.49974 0.17892 0.0
C895 C 0.28203 0.64145 0.16974 0.0
C896 C 0.16952 0.65781 0.22546 0.0
C897 C 0.18201 0.66214 0.28129 0.0
C898 C 0.17209 0.6254 0.19117 0.0
C899 C 0.18744 0.59633 0.21315 0.0
C900 C 0.19612 0.59766 0.27058 0.0
C901 C 0.19326 0.63065 0.30416 0.0
C902 C 0.16165 0.62469 0.13057 0.0
C903 C 0.21171 0.56657 0.29577 0.0
H904 H 0.16101 0.46483 0.11346 0.0
H905 H 0.29692 0.58379 0.10646 0.0
H906 H 0.11978 0.49078 0.22298 0.0
H907 H 0.10487 0.52229 0.17598 0.0
H908 H 0.09834 0.46739 0.15554 0.0
H909 H 0.31606 0.65368 0.14946 0.0
H910 H 0.26885 0.66476 0.1578 0.0
H911 H 0.28725 0.64442 0.21501 0.0
H912 H 0.15978 0.68147 0.20779 0.0
H913 H 0.20274 0.63373 0.34727 0.0
H914 H 0.13726 0.58889 0.11697 0.0
H915 H 0.19394 0.63715 0.10631 0.0
H916 H 0.14649 0.64677 0.1208 0.0
H917 H 0.1896 0.5305 0.28134 0.0
H918 H 0.2108 0.56715 0.34151 0.0
H919 H 0.24765 0.57799 0.28244 0.0
C920 C 0.68137 0.24465 0.4197 0.0
C921 C 0.70015 0.21562 0.41498 0.0
C922 C 0.64194 0.23212 0.45189 0.0
C923 C 0.62144 0.18998 0.48144 0.0
C924 C 0.63862 0.15916 0.47414 0.0
C925 C 0.67781 0.17231 0.44071 0.0
C926 C 0.62411 0.2655 0.45705 0.0
C927 C 0.61781 0.11387 0.50461 0.0
C928 C 0.56724 0.20059 0.61431 0.0
C929 C 0.52097 0.1815 0.59899 0.0
C930 C 0.5998 0.20045 0.57762 0.0
C931 C 0.58567 0.18132 0.52411 0.0
C932 C 0.53827 0.1597 0.50976 0.0
C933 C 0.50642 0.16018 0.54746 0.0
C934 C 0.64986 0.22352 0.59489 0.0
C935 C 0.52165 0.13887 0.45338 0.0
H936 H 0.69873 0.27813 0.39975 0.0
H937 H 0.69258 0.14999 0.43761 0.0
H938 H 0.58617 0.24735 0.45055 0.0
H939 H 0.63094 0.28034 0.49923 0.0
H940 H 0.64074 0.29431 0.42702 0.0
H941 H 0.6298 0.09073 0.48767 0.0
H942 H 0.62792 0.12059 0.54863 0.0
H943 H 0.57951 0.09575 0.50286 0.0
H944 H 0.5783 0.2174 0.6541 0.0
H945 H 0.47051 0.14583 0.53569 0.0
H946 H 0.67011 0.25608 0.57145 0.0
H947 H 0.66457 0.201 0.58529 0.0
H948 H 0.65435 0.23183 0.63958 0.0
H949 H 0.53239 0.16692 0.42265 0.0
H950 H 0.48342 0.11684 0.45186 0.0
H951 H 0.53742 0.11786 0.44088 0.0
C952 C 0.34743 0.50928 0.88507 0.0
C953 C 0.34976 0.51999 0.94122 0.0
C954 C 0.37873 0.54157 0.84721 0.0
C955 C 0.41226 0.58606 0.8659 0.0
C956 C 0.41643 0.59587 0.92325 0.0
C957 C 0.38515 0.5625 0.96037 0.0
C958 C 0.37406 0.5291 0.78684 0.0
C959 C 0.45155 0.64284 0.94498 0.0
C960 C 0.50721 0.67689 0.77413 0.0
C961 C 0.48708 0.70315 0.75812 0.0
C962 C 0.48256 0.63709 0.80685 0.0
C963 C 0.43741 0.6243 0.82541 0.0
C964 C 0.41652 0.64985 0.80747 0.0
C965 C 0.44147 0.68863 0.77383 0.0
C966 C 0.50576 0.61018 0.8234 0.0
C967 C 0.36849 0.63762 0.82599 0.0
H968 H 0.31982 0.47624 0.87047 0.0
H969 H 0.38649 0.57073 1.00381 0.0
H970 H 0.36096 0.54892 0.76408 0.0
H971 H 0.40834 0.5385 0.76919 0.0
H972 H 0.35 0.49168 0.77977 0.0
H973 H 0.4535 0.64356 0.99069 0.0
H974 H 0.4863 0.65346 0.92797 0.0
H975 H 0.44214 0.66876 0.9315 0.0
H976 H 0.54268 0.68825 0.76278 0.0
H977 H 0.42591 0.70896 0.76164 0.0
H978 H 0.48097 0.57249 0.82257 0.0
H979 H 0.51893 0.61966 0.86612 0.0
H980 H 0.53542 0.61775 0.79596 0.0
H981 H 0.34331 0.60139 0.81474 0.0
H982 H 0.35692 0.66047 0.80745 0.0
H983 H 0.36769 0.64043 0.87151 0.0
C984 C 0.81921 0.37132 0.28072 0.0
C985 C 0.81986 0.33324 0.25787 0.0
C986 C 0.81659 0.4039 0.24669 0.0
C987 C 0.81577 0.39865 0.18857 0.0
C988 C 0.8201 0.36203 0.16555 0.0
C989 C 0.8213 0.3293 0.20054 0.0
C990 C 0.81107 0.44181 0.27303 0.0
C991 C 0.82176 0.3565 0.10399 0.0
C992 C 0.74305 0.43739 0.11045 0.0
C993 C 0.77593 0.48208 0.09389 0.0
C994 C 0.75586 0.40978 0.14026 0.0
C995 C 0.80307 0.42673 0.15269 0.0
C996 C 0.83687 0.4709 0.13329 0.0
C997 C 0.82276 0.4986 0.10532 0.0
C998 C 0.71849 0.36314 0.16047 0.0
C999 C 0.88769 0.48956 0.14346 0.0
H1000 H 0.81768 0.37398 0.3251 0.0
H1001 H 0.8223 0.29991 0.18308 0.0
H1002 H 0.83602 0.47577 0.25506 0.0
H1003 H 0.77581 0.43572 0.26463 0.0
H1004 H 0.81625 0.44349 0.31836 0.0
H1005 H 0.82565 0.3264 0.09267 0.0
H1006 H 0.78985 0.35223 0.08452 0.0
H1007 H 0.85129 0.38817 0.08651 0.0
H1008 H 0.70679 0.42467 0.10195 0.0
H1009 H 0.84826 0.53347 0.09361 0.0
H1010 H 0.71937 0.36193 0.20612 0.0
H1011 H 0.72458 0.33557 0.14436 0.0
H1012 H 0.68339 0.35529 0.14766 0.0
H1013 H 0.89575 0.50016 0.1872 0.0
H1014 H 0.90956 0.52 0.11715 0.0
H1015 H 0.89707 0.46259 0.13542 0.0
C1016 C 0.31307 0.77075 0.443 0.0
C1017 C 0.30838 0.80903 0.43075 0.0
C1018 C 0.35209 0.776 0.47104 0.0
C1019 C 0.38763 0.8208 0.48633 0.0
C1020 C 0.38448 0.85984 0.47023 0.0
C1021 C 0.34412 0.85336 0.44417 0.0
C1022 C 0.35343 0.73331 0.48813 0.0
C1023 C 0.42233 0.9083 0.48329 0.0
C1024 C 0.45287 0.82583 0.61691 0.0
C1025 C 0.49027 0.82312 0.59535 0.0
C1026 C 0.41985 0.82655 0.58172 0.0
C1027 C 0.42532 0.82593 0.52371 0.0
C1028 C 0.46479 0.82613 0.50199 0.0
C1029 C 0.49636 0.82386 0.53812 0.0
C1030 C 0.37787 0.82549 0.60667 0.0
C1031 C 0.47307 0.82767 0.44064 0.0
H1032 H 0.28458 0.7364 0.4342 0.0
H1033 H 0.33978 0.88284 0.43604 0.0
H1034 H 0.38638 0.73573 0.47497 0.0
H1035 H 0.35167 0.73045 0.53373 0.0
H1036 H 0.32433 0.70127 0.47048 0.0
H1037 H 0.4196 0.93423 0.45751 0.0
H1038 H 0.41981 0.91613 0.52716 0.0
H1039 H 0.45691 0.91197 0.4768 0.0
H1040 H 0.44813 0.82488 0.66118 0.0
H1041 H 0.5257 0.82218 0.52163 0.0
H1042 H 0.34621 0.79333 0.59397 0.0
H1043 H 0.3747 0.85496 0.59132 0.0
H1044 H 0.37925 0.82699 0.6524 0.0
H1045 H 0.44516 0.79613 0.42077 0.0
H1046 H 0.50679 0.83033 0.43051 0.0
H1047 H 0.47224 0.85763 0.4224 0.0
C1048 C 0.6246 0.44852 0.95717 0.0
C1049 C 0.66097 0.48979 0.93664 0.0
C1050 C 0.59315 0.41432 0.92101 0.0
C1051 C 0.59817 0.42213 0.86329 0.0
C1052 C 0.63262 0.46557 0.84307 0.0
C1053 C 0.66406 0.49867 0.88001 0.0
C1054 C 0.55701 0.36847 0.94431 0.0
C1055 C 0.63791 0.47602 0.78218 0.0
C1056 C 0.56811 0.31639 0.77638 0.0
C1057 C 0.52312 0.30264 0.75908 0.0
C1058 C 0.59313 0.35586 0.80904 0.0
C1059 C 0.57289 0.38275 0.82436 0.0
C1060 C 0.52834 0.37047 0.80444 0.0
C1061 C 0.50362 0.33003 0.7728 0.0
C1062 C 0.64058 0.36763 0.82908 0.0
C1063 C 0.50584 0.39869 0.81833 0.0
H1064 H 0.6227 0.44173 1.00104 0.0
H1065 H 0.69235 0.53085 0.86444 0.0
H1066 H 0.52266 0.35794 0.92632 0.0
H1067 H 0.56582 0.34155 0.93321 0.0
H1068 H 0.55449 0.36948 0.98989 0.0
H1069 H 0.66459 0.51239 0.77342 0.0
H1070 H 0.64763 0.45286 0.76046 0.0
H1071 H 0.60444 0.4694 0.76488 0.0
H1072 H 0.58314 0.29512 0.76601 0.0
H1073 H 0.46855 0.31919 0.76038 0.0
H1074 H 0.64078 0.36656 0.87477 0.0
H1075 H 0.66654 0.40319 0.81638 0.0
H1076 H 0.65154 0.34347 0.81288 0.0
H1077 H 0.49178 0.39044 0.86083 0.0
H1078 H 0.47691 0.39111 0.78982 0.0
H1079 H 0.53128 0.4362 0.81672 0.0
loop_
_geom_bond_atom_site_label_1
_geom_bond_atom_site_label_2
_geom_bond_distance
_geom_bond_site_symmetry_2
_ccdc_geom_bond_type
Eu0 N31 2.657 . S
Eu0 N38 2.609 . S
Eu0 O44 2.558 . S
Eu0 O45 2.612 . S
Eu0 O47 2.339 . S
Eu0 O48 2.563 . S
Eu0 O49 2.419 . S
Eu0 O51 2.380 1_556 S
Eu0 O52 2.432 1_556 S
Eu0 C64 2.848 . S
C1 C4 1.429 . S
C1 C5 1.411 . S
C1 N8 1.377 . S
C2 C4 1.420 . S
C2 C6 1.423 . S
C2 C14 1.392 . S
C3 C5 1.420 . S
C3 C6 1.351 . S
C3 H26 0.931 . S
C4 C1 1.429 . S
C4 C2 1.420 . S
C4 N12 1.362 . S
C5 C1 1.411 . S
C5 C3 1.420 . S
C5 C10 1.395 . S
C6 C2 1.423 . S
C6 C3 1.351 . S
C6 H18 0.930 . S
C7 C9 1.400 . S
C7 C10 1.386 . S
C7 H19 0.930 . S
N8 C1 1.377 . S
N8 C9 1.321 . S
N8 Eu11 2.609 . S
C9 C7 1.400 . S
C9 N8 1.321 . S
C9 H16 0.930 . S
C10 C5 1.395 . S
C10 C7 1.386 . S
C10 H29 0.930 . S
Eu11 N8 2.609 . S
Eu11 N12 2.657 . S
Eu11 O45 2.380 1_554 S
Eu11 O46 2.432 . S
Eu11 O50 2.558 . S
Eu11 O51 2.612 . S
Eu11 O53 2.339 . S
Eu11 O54 2.563 . S
Eu11 O55 2.419 . S
Eu11 C75 2.848 . S
N12 C4 1.362 . S
N12 Eu11 2.657 . S
N12 C13 1.334 . S
C13 N12 1.334 . S
C13 C15 1.413 . S
C13 H20 0.929 . S
C14 C2 1.392 . S
C14 C15 1.367 . S
C14 H22 0.930 . S
C15 C13 1.413 . S
C15 C14 1.367 . S
C15 H17 0.930 . S
H16 C9 0.930 . S
H17 C15 0.930 . S
H18 C6 0.930 . S
H19 C7 0.930 . S
H20 C13 0.929 . S
H21 C35 0.930 . S
H22 C14 0.930 . S
H23 C41 0.930 . S
H24 C32 0.929 . S
H25 C39 0.930 1_655 S
H26 C3 0.931 . S
H27 C33 0.930 . S
H28 C66 0.930 . S
H29 C10 0.930 . S
H30 C65 0.931 . S
N31 Eu0 2.657 . S
N31 C32 1.334 . S
N31 C36 1.362 . S
C32 H24 0.929 . S
C32 N31 1.334 . S
C32 C35 1.413 . S
C33 H27 0.930 . S
C33 C34 1.392 . S
C33 C35 1.367 . S
C34 C33 1.392 . S
C34 C36 1.420 . S
C34 C66 1.423 . S
C35 H21 0.930 . S
C35 C32 1.413 . S
C35 C33 1.367 . S
C36 N31 1.362 . S
C36 C34 1.420 . S
C36 C40 1.429 . S
H37 C42 0.930 1_655 S
N38 Eu0 2.609 . S
N38 C40 1.377 . S
N38 C41 1.321 . S
C39 H25 0.930 1_455 S
C39 C41 1.400 . S
C39 C42 1.386 . S
C40 C36 1.429 . S
C40 N38 1.377 . S
C40 C43 1.411 . S
C41 H23 0.930 . S
C41 N38 1.321 . S
C41 C39 1.400 . S
C42 H37 0.930 1_455 S
C42 C39 1.386 . S
C42 C43 1.395 . S
C43 C40 1.411 . S
C43 C42 1.395 . S
C43 C65 1.420 . S
O44 Eu0 2.558 . S
O44 C64 1.257 . S
O45 Eu0 2.612 . S
O45 Eu11 2.380 1_556 S
O45 C56 1.276 . S
O46 Eu11 2.432 . S
O46 C63 1.264 1_554 S
O47 Eu0 2.339 . S
O47 C63 1.254 . S
O48 Eu0 2.563 . S
O48 C56 1.235 . S
O49 Eu0 2.419 . S
O49 C64 1.249 . S
O50 Eu11 2.558 . S
O50 C75 1.257 . S
O51 Eu0 2.380 1_554 S
O51 Eu11 2.612 . S
O51 C67 1.276 . S
O52 Eu0 2.432 1_554 S
O52 C74 1.264 . S
O53 Eu11 2.339 . S
O53 C74 1.254 . S
O54 Eu11 2.563 . S
O54 C67 1.235 . S
O55 Eu11 2.419 . S
O55 C75 1.249 . S
C56 O45 1.276 . S
C56 O48 1.235 . S
C57 C59 1.393 . S
C57 C61 1.395 . S
C57 C64 1.492 . S
C58 C59 1.392 . S
C58 C60 1.386 . S
C59 C57 1.393 . S
C59 C58 1.392 . S
C59 H76 0.930 . S
C60 C58 1.386 . S
C60 C62 1.395 . S
C60 H77 0.930 . S
C61 C57 1.395 . S
C61 C62 1.379 . S
C61 H78 0.930 . S
C62 C60 1.395 . S
C62 C61 1.379 . S
C62 H79 0.930 . S
C63 O46 1.264 1_556 S
C63 O47 1.254 . S
C64 Eu0 2.848 . S
C64 O44 1.257 . S
C64 O49 1.249 . S
C64 C57 1.492 . S
C65 H30 0.931 . S
C65 C43 1.420 . S
C65 C66 1.351 . S
C66 H28 0.930 . S
C66 C34 1.423 . S
C66 C65 1.351 . S
C67 O51 1.276 . S
C67 O54 1.235 . S
C68 C69 1.393 . S
C68 C72 1.395 . S
C68 C75 1.492 . S
C69 C68 1.393 . S
C69 C70 1.392 . S
C69 H80 0.930 . S
C70 C69 1.392 . S
C70 C71 1.386 . S
C71 C70 1.386 . S
C71 C73 1.395 . S
C71 H81 0.930 . S
C72 C68 1.395 . S
C72 C73 1.379 . S
C72 H82 0.930 . S
C73 C71 1.395 . S
C73 C72 1.379 . S
C73 H83 0.930 . S
C74 O52 1.264 . S
C74 O53 1.254 . S
C75 Eu11 2.848 . S
C75 O50 1.257 . S
C75 O55 1.249 . S
C75 C68 1.492 . S
H76 C59 0.930 . S
H77 C60 0.930 . S
H78 C61 0.930 . S
H79 C62 0.930 . S
H80 C69 0.930 . S
H81 C71 0.930 . S
H82 C72 0.930 . S
H83 C73 0.930 . S
Eu84 N115 2.657 . S
Eu84 N122 2.609 . S
Eu84 O128 2.558 . S
Eu84 O129 2.612 . S
Eu84 O131 2.339 . S
Eu84 O132 2.563 . S
Eu84 O133 2.419 . S
Eu84 O135 2.380 . S
Eu84 O136 2.432 . S
Eu84 C148 2.848 . S
C85 C88 1.429 . S
C85 C89 1.411 . S
C85 N92 1.377 . S
C86 C88 1.420 . S
C86 C90 1.423 1_655 S
C86 C98 1.392 . S
C87 C89 1.420 1_455 S
C87 C90 1.351 . S
C87 H110 0.931 . S
C88 C85 1.429 . S
C88 C86 1.420 . S
C88 N96 1.362 . S
C89 C85 1.411 . S
C89 C87 1.420 1_655 S
C89 C94 1.395 . S
C90 C86 1.423 1_455 S
C90 C87 1.351 . S
C90 H102 0.930 . S
C91 C93 1.400 . S
C91 C94 1.386 . S
C91 H103 0.930 . S
N92 C85 1.377 . S
N92 C93 1.321 . S
N92 Eu95 2.609 . S
C93 C91 1.400 . S
C93 N92 1.321 . S
C93 H100 0.930 . S
C94 C89 1.395 . S
C94 C91 1.386 . S
C94 H113 0.930 1_655 S
Eu95 N92 2.609 . S
Eu95 N96 2.657 . S
Eu95 O129 2.380 . S
Eu95 O130 2.432 . S
Eu95 O134 2.558 . S
Eu95 O135 2.612 . S
Eu95 O137 2.339 . S
Eu95 O138 2.563 . S
Eu95 O139 2.419 . S
Eu95 C159 2.848 . S
N96 C88 1.362 . S
N96 Eu95 2.657 . S
N96 C97 1.334 . S
C97 N96 1.334 . S
C97 C99 1.413 . S
C97 H104 0.929 . S
C98 C86 1.392 . S
C98 C99 1.367 . S
C98 H106 0.930 1_655 S
C99 C97 1.413 . S
C99 C98 1.367 . S
C99 H101 0.930 . S
H100 C93 0.930 . S
H101 C99 0.930 . S
H102 C90 0.930 . S
H103 C91 0.930 . S
H104 C97 0.929 . S
H105 C119 0.930 . S
H106 C98 0.930 1_455 S
H107 C125 0.930 . S
H108 C116 0.929 . S
H109 C123 0.930 1_565 S
H110 C87 0.931 . S
H111 C117 0.930 . S
H112 C150 0.930 . S
H113 C94 0.930 1_455 S
H114 C149 0.931 . S
N115 Eu84 2.657 . S
N115 C116 1.334 . S
N115 C120 1.362 . S
C116 H108 0.929 . S
C116 N115 1.334 . S
C116 C119 1.413 . S
C117 H111 0.930 . S
C117 C118 1.392 . S
C117 C119 1.367 . S
C118 C117 1.392 . S
C118 C120 1.420 . S
C118 C150 1.423 . S
C119 H105 0.930 . S
C119 C116 1.413 . S
C119 C117 1.367 . S
C120 N115 1.362 . S
C120 C118 1.420 . S
C120 C124 1.429 . S
H121 C126 0.930 1_565 S
N122 Eu84 2.609 . S
N122 C124 1.377 . S
N122 C125 1.321 . S
C123 H109 0.930 1_545 S
C123 C125 1.400 . S
C123 C126 1.386 . S
C124 C120 1.429 . S
C124 N122 1.377 . S
C124 C127 1.411 . S
C125 H107 0.930 . S
C125 N122 1.321 . S
C125 C123 1.400 . S
C126 H121 0.930 1_545 S
C126 C123 1.386 . S
C126 C127 1.395 . S
C127 C124 1.411 . S
C127 C126 1.395 . S
C127 C149 1.420 . S
O128 Eu84 2.558 . S
O128 C148 1.257 . S
O129 Eu84 2.612 . S
O129 Eu95 2.380 . S
O129 C140 1.276 . S
O130 Eu95 2.432 . S
O130 C147 1.264 . S
O131 Eu84 2.339 . S
O131 C147 1.254 . S
O132 Eu84 2.563 . S
O132 C140 1.235 . S
O133 Eu84 2.419 . S
O133 C148 1.249 . S
O134 Eu95 2.558 . S
O134 C159 1.257 . S
O135 Eu84 2.380 . S
O135 Eu95 2.612 . S
O135 C151 1.276 . S
O136 Eu84 2.432 . S
O136 C158 1.264 . S
O137 Eu95 2.339 . S
O137 C158 1.254 . S
O138 Eu95 2.563 . S
O138 C151 1.235 . S
O139 Eu95 2.419 . S
O139 C159 1.249 . S
C140 O129 1.276 . S
C140 O132 1.235 . S
C141 C143 1.393 . S
C141 C145 1.395 . S
C141 C148 1.492 . S
C142 C143 1.392 . S
C142 C144 1.386 . S
C143 C141 1.393 . S
C143 C142 1.392 . S
C143 H160 0.930 . S
C144 C142 1.386 . S
C144 C146 1.395 . S
C144 H161 0.930 1_554 S
C145 C141 1.395 . S
C145 C146 1.379 . S
C145 H162 0.930 . S
C146 C144 1.395 . S
C146 C145 1.379 . S
C146 H163 0.930 . S
C147 O130 1.264 . S
C147 O131 1.254 . S
C148 Eu84 2.848 . S
C148 O128 1.257 . S
C148 O133 1.249 . S
C148 C141 1.492 . S
C149 H114 0.931 . S
C149 C127 1.420 . S
C149 C150 1.351 . S
C150 H112 0.930 . S
C150 C118 1.423 . S
C150 C149 1.351 . S
C151 O135 1.276 . S
C151 O138 1.235 . S
C152 C153 1.393 . S
C152 C156 1.395 . S
C152 C159 1.492 . S
C153 C152 1.393 . S
C153 C154 1.392 . S
C153 H164 0.930 . S
C154 C153 1.392 . S
C154 C155 1.386 . S
C155 C154 1.386 . S
C155 C157 1.395 . S
C155 H165 0.930 . S
C156 C152 1.395 . S
C156 C157 1.379 . S
C156 H166 0.930 . S
C157 C155 1.395 . S
C157 C156 1.379 . S
C157 H167 0.930 . S
C158 O136 1.264 . S
C158 O137 1.254 . S
C159 Eu95 2.848 . S
C159 O134 1.257 . S
C159 O139 1.249 . S
C159 C152 1.492 . S
H160 C143 0.930 . S
H161 C144 0.930 1_556 S
H162 C145 0.930 . S
H163 C146 0.930 . S
H164 C153 0.930 . S
H165 C155 0.930 . S
H166 C156 0.930 . S
H167 C157 0.930 . S
Eu168 N199 2.657 . S
Eu168 N206 2.609 . S
Eu168 O212 2.558 . S
Eu168 O213 2.612 . S
Eu168 O215 2.339 . S
Eu168 O216 2.563 . S
Eu168 O217 2.419 . S
Eu168 O219 2.380 . S
Eu168 O220 2.432 . S
Eu168 C232 2.848 . S
C169 C172 1.429 . S
C169 C173 1.411 . S
C169 N176 1.377 . S
C170 C172 1.420 . S
C170 C174 1.423 1_565 S
C170 C182 1.392 . S
C171 C173 1.420 1_545 S
C171 C174 1.351 . S
C171 H194 0.931 . S
C172 C169 1.429 . S
C172 C170 1.420 . S
C172 N180 1.362 . S
C173 C169 1.411 . S
C173 C171 1.420 1_565 S
C173 C178 1.395 . S
C174 C170 1.423 1_545 S
C174 C171 1.351 . S
C174 H186 0.930 . S
C175 C177 1.400 . S
C175 C178 1.386 . S
C175 H187 0.930 . S
N176 C169 1.377 . S
N176 C177 1.321 . S
N176 Eu179 2.609 . S
C177 C175 1.400 . S
C177 N176 1.321 . S
C177 H184 0.930 . S
C178 C173 1.395 . S
C178 C175 1.386 . S
C178 H197 0.930 1_565 S
Eu179 N176 2.609 . S
Eu179 N180 2.657 . S
Eu179 O213 2.380 . S
Eu179 O214 2.432 . S
Eu179 O218 2.558 . S
Eu179 O219 2.612 . S
Eu179 O221 2.339 . S
Eu179 O222 2.563 . S
Eu179 O223 2.419 . S
Eu179 C243 2.848 . S
N180 C172 1.362 . S
N180 Eu179 2.657 . S
N180 C181 1.334 . S
C181 N180 1.334 . S
C181 C183 1.413 . S
C181 H188 0.929 . S
C182 C170 1.392 . S
C182 C183 1.367 . S
C182 H190 0.930 1_565 S
C183 C181 1.413 . S
C183 C182 1.367 . S
C183 H185 0.930 . S
H184 C177 0.930 . S
H185 C183 0.930 . S
H186 C174 0.930 . S
H187 C175 0.930 . S
H188 C181 0.929 . S
H189 C203 0.930 . S
H190 C182 0.930 1_545 S
H191 C209 0.930 . S
H192 C200 0.929 . S
H193 C207 0.930 . S
H194 C171 0.931 . S
H195 C201 0.930 . S
H196 C234 0.930 . S
H197 C178 0.930 1_545 S
H198 C233 0.931 . S
N199 Eu168 2.657 . S
N199 C200 1.334 . S
N199 C204 1.362 . S
C200 H192 0.929 . S
C200 N199 1.334 . S
C200 C203 1.413 . S
C201 H195 0.930 . S
C201 C202 1.392 . S
C201 C203 1.367 . S
C202 C201 1.392 . S
C202 C204 1.420 . S
C202 C234 1.423 . S
C203 H189 0.930 . S
C203 C200 1.413 . S
C203 C201 1.367 . S
C204 N199 1.362 . S
C204 C202 1.420 . S
C204 C208 1.429 . S
H205 C210 0.930 . S
N206 Eu168 2.609 . S
N206 C208 1.377 . S
N206 C209 1.321 . S
C207 H193 0.930 . S
C207 C209 1.400 . S
C207 C210 1.386 . S
C208 C204 1.429 . S
C208 N206 1.377 . S
C208 C211 1.411 . S
C209 H191 0.930 . S
C209 N206 1.321 . S
C209 C207 1.400 . S
C210 H205 0.930 . S
C210 C207 1.386 . S
C210 C211 1.395 . S
C211 C208 1.411 . S
C211 C210 1.395 . S
C211 C233 1.420 . S
O212 Eu168 2.558 . S
O212 C232 1.257 . S
O213 Eu168 2.612 . S
O213 Eu179 2.380 . S
O213 C224 1.276 . S
O214 Eu179 2.432 . S
O214 C231 1.264 . S
O215 Eu168 2.339 . S
O215 C231 1.254 . S
O216 Eu168 2.563 . S
O216 C224 1.235 . S
O217 Eu168 2.419 . S
O217 C232 1.249 . S
O218 Eu179 2.558 . S
O218 C243 1.257 . S
O219 Eu168 2.380 . S
O219 Eu179 2.612 . S
O219 C235 1.276 . S
O220 Eu168 2.432 . S
O220 C242 1.264 . S
O221 Eu179 2.339 . S
O221 C242 1.254 . S
O222 Eu179 2.563 . S
O222 C235 1.235 . S
O223 Eu179 2.419 . S
O223 C243 1.249 . S
C224 O213 1.276 . S
C224 O216 1.235 . S
C225 C227 1.393 . S
C225 C229 1.395 . S
C225 C232 1.492 . S
C226 C227 1.392 . S
C226 C228 1.386 . S
C227 C225 1.393 . S
C227 C226 1.392 . S
C227 H244 0.930 . S
C228 C226 1.386 . S
C228 C230 1.395 . S
C228 H245 0.930 . S
C229 C225 1.395 . S
C229 C230 1.379 . S
C229 H246 0.930 . S
C230 C228 1.395 . S
C230 C229 1.379 . S
C230 H247 0.930 . S
C231 O214 1.264 . S
C231 O215 1.254 . S
C232 Eu168 2.848 . S
C232 O212 1.257 . S
C232 O217 1.249 . S
C232 C225 1.492 . S
C233 H198 0.931 . S
C233 C211 1.420 . S
C233 C234 1.351 . S
C234 H196 0.930 . S
C234 C202 1.423 . S
C234 C233 1.351 . S
C235 O219 1.276 . S
C235 O222 1.235 . S
C236 C237 1.393 . S
C236 C240 1.395 . S
C236 C243 1.492 . S
C237 C236 1.393 . S
C237 C238 1.392 . S
C237 H248 0.930 . S
C238 C237 1.392 . S
C238 C239 1.386 1_556 S
C239 C238 1.386 1_554 S
C239 C241 1.395 1_554 S
C239 H249 0.930 . S
C240 C236 1.395 . S
C240 C241 1.379 . S
C240 H250 0.930 . S
C241 C239 1.395 1_556 S
C241 C240 1.379 . S
C241 H251 0.930 . S
C242 O220 1.264 . S
C242 O221 1.254 . S
C243 Eu179 2.848 . S
C243 O218 1.257 . S
C243 O223 1.249 . S
C243 C236 1.492 . S
H244 C227 0.930 . S
H245 C228 0.930 . S
H246 C229 0.930 . S
H247 C230 0.930 . S
H248 C237 0.930 . S
H249 C239 0.930 . S
H250 C240 0.930 . S
H251 C241 0.930 . S
Eu252 N283 2.657 . S
Eu252 N290 2.609 . S
Eu252 O296 2.558 . S
Eu252 O297 2.612 . S
Eu252 O299 2.339 . S
Eu252 O300 2.563 . S
Eu252 O301 2.419 . S
Eu252 O303 2.380 1_556 S
Eu252 O304 2.432 1_556 S
Eu252 C316 2.848 . S
C253 C256 1.429 . S
C253 C257 1.411 . S
C253 N260 1.377 . S
C254 C256 1.420 . S
C254 C258 1.423 . S
C254 C266 1.392 . S
C255 C257 1.420 . S
C255 C258 1.351 . S
C255 H278 0.931 . S
C256 C253 1.429 . S
C256 C254 1.420 . S
C256 N264 1.362 . S
C257 C253 1.411 . S
C257 C255 1.420 . S
C257 C262 1.395 . S
C258 C254 1.423 . S
C258 C255 1.351 . S
C258 H270 0.930 . S
C259 C261 1.400 . S
C259 C262 1.386 . S
C259 H271 0.930 . S
N260 C253 1.377 . S
N260 C261 1.321 . S
N260 Eu263 2.609 . S
C261 C259 1.400 . S
C261 N260 1.321 . S
C261 H268 0.930 . S
C262 C257 1.395 . S
C262 C259 1.386 . S
C262 H281 0.930 . S
Eu263 N260 2.609 . S
Eu263 N264 2.657 . S
Eu263 O297 2.380 1_554 S
Eu263 O298 2.432 . S
Eu263 O302 2.558 . S
Eu263 O303 2.612 . S
Eu263 O305 2.339 . S
Eu263 O306 2.563 . S
Eu263 O307 2.419 . S
Eu263 C327 2.848 . S
N264 C256 1.362 . S
N264 Eu263 2.657 . S
N264 C265 1.334 . S
C265 N264 1.334 . S
C265 C267 1.413 . S
C265 H272 0.929 . S
C266 C254 1.392 . S
C266 C267 1.367 . S
C266 H274 0.930 . S
C267 C265 1.413 . S
C267 C266 1.367 . S
C267 H269 0.930 . S
H268 C261 0.930 . S
H269 C267 0.930 . S
H270 C258 0.930 . S
H271 C259 0.930 . S
H272 C265 0.929 . S
H273 C287 0.930 . S
H274 C266 0.930 . S
H275 C293 0.930 . S
H276 C284 0.929 . S
H277 C291 0.930 1_455 S
H278 C255 0.931 . S
H279 C285 0.930 . S
H280 C318 0.930 . S
H281 C262 0.930 . S
H282 C317 0.931 . S
N283 Eu252 2.657 . S
N283 C284 1.334 . S
N283 C288 1.362 . S
C284 H276 0.929 . S
C284 N283 1.334 . S
C284 C287 1.413 . S
C285 H279 0.930 . S
C285 C286 1.392 . S
C285 C287 1.367 . S
C286 C285 1.392 . S
C286 C288 1.420 . S
C286 C318 1.423 . S
C287 H273 0.930 . S
C287 C284 1.413 . S
C287 C285 1.367 . S
C288 N283 1.362 . S
C288 C286 1.420 . S
C288 C292 1.429 . S
H289 C294 0.930 1_455 S
N290 Eu252 2.609 . S
N290 C292 1.377 . S
N290 C293 1.321 . S
C291 H277 0.930 1_655 S
C291 C293 1.400 . S
C291 C294 1.386 . S
C292 C288 1.429 . S
C292 N290 1.377 . S
C292 C295 1.411 . S
C293 H275 0.930 . S
C293 N290 1.321 . S
C293 C291 1.400 . S
C294 H289 0.930 1_655 S
C294 C291 1.386 . S
C294 C295 1.395 . S
C295 C292 1.411 . S
C295 C294 1.395 . S
C295 C317 1.420 . S
O296 Eu252 2.558 . S
O296 C316 1.257 . S
O297 Eu252 2.612 . S
O297 Eu263 2.380 1_556 S
O297 C308 1.276 . S
O298 Eu263 2.432 . S
O298 C315 1.264 1_554 S
O299 Eu252 2.339 . S
O299 C315 1.254 . S
O300 Eu252 2.563 . S
O300 C308 1.235 . S
O301 Eu252 2.419 . S
O301 C316 1.249 . S
O302 Eu263 2.558 . S
O302 C327 1.257 . S
O303 Eu252 2.380 1_554 S
O303 Eu263 2.612 . S
O303 C319 1.276 . S
O304 Eu252 2.432 1_554 S
O304 C326 1.264 . S
O305 Eu263 2.339 . S
O305 C326 1.254 . S
O306 Eu263 2.563 . S
O306 C319 1.235 . S
O307 Eu263 2.419 . S
O307 C327 1.249 . S
C308 O297 1.276 . S
C308 O300 1.235 . S
C309 C311 1.393 . S
C309 C313 1.395 . S
C309 C316 1.492 . S
C310 C311 1.392 . S
C310 C312 1.386 . S
C311 C309 1.393 . S
C311 C310 1.392 . S
C311 H328 0.930 . S
C312 C310 1.386 . S
C312 C314 1.395 . S
C312 H329 0.930 . S
C313 C309 1.395 . S
C313 C314 1.379 . S
C313 H330 0.930 . S
C314 C312 1.395 . S
C314 C313 1.379 . S
C314 H331 0.930 . S
C315 O298 1.264 1_556 S
C315 O299 1.254 . S
C316 Eu252 2.848 . S
C316 O296 1.257 . S
C316 O301 1.249 . S
C316 C309 1.492 . S
C317 H282 0.931 . S
C317 C295 1.420 . S
C317 C318 1.351 . S
C318 H280 0.930 . S
C318 C286 1.423 . S
C318 C317 1.351 . S
C319 O303 1.276 . S
C319 O306 1.235 . S
C320 C321 1.393 . S
C320 C324 1.395 . S
C320 C327 1.492 . S
C321 C320 1.393 . S
C321 C322 1.392 . S
C321 H332 0.930 . S
C322 C321 1.392 . S
C322 C323 1.386 . S
C323 C322 1.386 . S
C323 C325 1.395 . S
C323 H333 0.930 . S
C324 C320 1.395 . S
C324 C325 1.379 . S
C324 H334 0.930 . S
C325 C323 1.395 . S
C325 C324 1.379 . S
C325 H335 0.930 . S
C326 O304 1.264 . S
C326 O305 1.254 . S
C327 Eu263 2.848 . S
C327 O302 1.257 . S
C327 O307 1.249 . S
C327 C320 1.492 . S
H328 C311 0.930 . S
H329 C312 0.930 . S
H330 C313 0.930 . S
H331 C314 0.930 . S
H332 C321 0.930 . S
H333 C323 0.930 . S
H334 C324 0.930 . S
H335 C325 0.930 . S
Eu336 N367 2.657 . S
Eu336 N374 2.609 . S
Eu336 O380 2.558 . S
Eu336 O381 2.612 . S
Eu336 O383 2.339 . S
Eu336 O384 2.563 . S
Eu336 O385 2.419 . S
Eu336 O387 2.380 . S
Eu336 O388 2.432 . S
Eu336 C400 2.848 . S
C337 C340 1.429 . S
C337 C341 1.411 . S
C337 N344 1.377 . S
C338 C340 1.420 . S
C338 C342 1.423 1_455 S
C338 C350 1.392 . S
C339 C341 1.420 1_655 S
C339 C342 1.351 . S
C339 H362 0.931 . S
C340 C337 1.429 . S
C340 C338 1.420 . S
C340 N348 1.362 . S
C341 C337 1.411 . S
C341 C339 1.420 1_455 S
C341 C346 1.395 . S
C342 C338 1.423 1_655 S
C342 C339 1.351 . S
C342 H354 0.930 . S
C343 C345 1.400 . S
C343 C346 1.386 . S
C343 H355 0.930 . S
N344 C337 1.377 . S
N344 C345 1.321 . S
N344 Eu347 2.609 . S
C345 C343 1.400 . S
C345 N344 1.321 . S
C345 H352 0.930 . S
C346 C341 1.395 . S
C346 C343 1.386 . S
C346 H365 0.930 1_455 S
Eu347 N344 2.609 . S
Eu347 N348 2.657 . S
Eu347 O381 2.380 . S
Eu347 O382 2.432 . S
Eu347 O386 2.558 . S
Eu347 O387 2.612 . S
Eu347 O389 2.339 . S
Eu347 O390 2.563 . S
Eu347 O391 2.419 . S
Eu347 C411 2.848 . S
N348 C340 1.362 . S
N348 Eu347 2.657 . S
N348 C349 1.334 . S
C349 N348 1.334 . S
C349 C351 1.413 . S
C349 H356 0.929 . S
C350 C338 1.392 . S
C350 C351 1.367 . S
C350 H358 0.930 1_455 S
C351 C349 1.413 . S
C351 C350 1.367 . S
C351 H353 0.930 . S
H352 C345 0.930 . S
H353 C351 0.930 . S
H354 C342 0.930 . S
H355 C343 0.930 . S
H356 C349 0.929 . S
H357 C371 0.930 . S
H358 C350 0.930 1_655 S
H359 C377 0.930 . S
H360 C368 0.929 . S
H361 C375 0.930 1_545 S
H362 C339 0.931 . S
H363 C369 0.930 . S
H364 C402 0.930 . S
H365 C346 0.930 1_655 S
H366 C401 0.931 . S
N367 Eu336 2.657 . S
N367 C368 1.334 . S
N367 C372 1.362 . S
C368 H360 0.929 . S
C368 N367 1.334 . S
C368 C371 1.413 . S
C369 H363 0.930 . S
C369 C370 1.392 . S
C369 C371 1.367 . S
C370 C369 1.392 . S
C370 C372 1.420 . S
C370 C402 1.423 . S
C371 H357 0.930 . S
C371 C368 1.413 . S
C371 C369 1.367 . S
C372 N367 1.362 . S
C372 C370 1.420 . S
C372 C376 1.429 . S
H373 C378 0.930 1_545 S
N374 Eu336 2.609 . S
N374 C376 1.377 . S
N374 C377 1.321 . S
C375 H361 0.930 1_565 S
C375 C377 1.400 . S
C375 C378 1.386 . S
C376 C372 1.429 . S
C376 N374 1.377 . S
C376 C379 1.411 . S
C377 H359 0.930 . S
C377 N374 1.321 . S
C377 C375 1.400 . S
C378 H373 0.930 1_565 S
C378 C375 1.386 . S
C378 C379 1.395 . S
C379 C376 1.411 . S
C379 C378 1.395 . S
C379 C401 1.420 . S
O380 Eu336 2.558 . S
O380 C400 1.257 . S
O381 Eu336 2.612 . S
O381 Eu347 2.380 . S
O381 C392 1.276 . S
O382 Eu347 2.432 . S
O382 C399 1.264 . S
O383 Eu336 2.339 . S
O383 C399 1.254 . S
O384 Eu336 2.563 . S
O384 C392 1.235 . S
O385 Eu336 2.419 . S
O385 C400 1.249 . S
O386 Eu347 2.558 . S
O386 C411 1.257 . S
O387 Eu336 2.380 . S
O387 Eu347 2.612 . S
O387 C403 1.276 . S
O388 Eu336 2.432 . S
O388 C410 1.264 . S
O389 Eu347 2.339 . S
O389 C410 1.254 . S
O390 Eu347 2.563 . S
O390 C403 1.235 . S
O391 Eu347 2.419 . S
O391 C411 1.249 . S
C392 O381 1.276 . S
C392 O384 1.235 . S
C393 C395 1.393 . S
C393 C397 1.395 . S
C393 C400 1.492 . S
C394 C395 1.392 . S
C394 C396 1.386 . S
C395 C393 1.393 . S
C395 C394 1.392 . S
C395 H412 0.930 . S
C396 C394 1.386 . S
C396 C398 1.395 . S
C396 H413 0.930 1_554 S
C397 C393 1.395 . S
C397 C398 1.379 . S
C397 H414 0.930 . S
C398 C396 1.395 . S
C398 C397 1.379 . S
C398 H415 0.930 . S
C399 O382 1.264 . S
C399 O383 1.254 . S
C400 Eu336 2.848 . S
C400 O380 1.257 . S
C400 O385 1.249 . S
C400 C393 1.492 . S
C401 H366 0.931 . S
C401 C379 1.420 . S
C401 C402 1.351 . S
C402 H364 0.930 . S
C402 C370 1.423 . S
C402 C401 1.351 . S
C403 O387 1.276 . S
C403 O390 1.235 . S
C404 C405 1.393 . S
C404 C408 1.395 . S
C404 C411 1.492 . S
C405 C404 1.393 . S
C405 C406 1.392 . S
C405 H416 0.930 . S
C406 C405 1.392 . S
C406 C407 1.386 . S
C407 C406 1.386 . S
C407 C409 1.395 . S
C407 H417 0.930 . S
C408 C404 1.395 . S
C408 C409 1.379 . S
C408 H418 0.930 . S
C409 C407 1.395 . S
C409 C408 1.379 . S
C409 H419 0.930 . S
C410 O388 1.264 . S
C410 O389 1.254 . S
C411 Eu347 2.848 . S
C411 O386 1.257 . S
C411 O391 1.249 . S
C411 C404 1.492 . S
H412 C395 0.930 . S
H413 C396 0.930 1_556 S
H414 C397 0.930 . S
H415 C398 0.930 . S
H416 C405 0.930 . S
H417 C407 0.930 . S
H418 C408 0.930 . S
H419 C409 0.930 . S
Eu420 N451 2.657 . S
Eu420 N458 2.609 . S
Eu420 O464 2.558 . S
Eu420 O465 2.612 . S
Eu420 O467 2.339 . S
Eu420 O468 2.563 . S
Eu420 O469 2.419 . S
Eu420 O471 2.380 . S
Eu420 O472 2.432 . S
Eu420 C484 2.848 . S
C421 C424 1.429 . S
C421 C425 1.411 . S
C421 N428 1.377 . S
C422 C424 1.420 . S
C422 C426 1.423 1_545 S
C422 C434 1.392 . S
C423 C425 1.420 1_565 S
C423 C426 1.351 . S
C423 H446 0.931 . S
C424 C421 1.429 . S
C424 C422 1.420 . S
C424 N432 1.362 . S
C425 C421 1.411 . S
C425 C423 1.420 1_545 S
C425 C430 1.395 . S
C426 C422 1.423 1_565 S
C426 C423 1.351 . S
C426 H438 0.930 . S
C427 C429 1.400 . S
C427 C430 1.386 . S
C427 H439 0.930 . S
N428 C421 1.377 . S
N428 C429 1.321 . S
N428 Eu431 2.609 . S
C429 C427 1.400 . S
C429 N428 1.321 . S
C429 H436 0.930 . S
C430 C425 1.395 . S
C430 C427 1.386 . S
C430 H449 0.930 1_545 S
Eu431 N428 2.609 . S
Eu431 N432 2.657 . S
Eu431 O465 2.380 . S
Eu431 O466 2.432 . S
Eu431 O470 2.558 . S
Eu431 O471 2.612 . S
Eu431 O473 2.339 . S
Eu431 O474 2.563 . S
Eu431 O475 2.419 . S
Eu431 C495 2.848 . S
N432 C424 1.362 . S
N432 Eu431 2.657 . S
N432 C433 1.334 . S
C433 N432 1.334 . S
C433 C435 1.413 . S
C433 H440 0.929 . S
C434 C422 1.392 . S
C434 C435 1.367 . S
C434 H442 0.930 1_545 S
C435 C433 1.413 . S
C435 C434 1.367 . S
C435 H437 0.930 . S
H436 C429 0.930 . S
H437 C435 0.930 . S
H438 C426 0.930 . S
H439 C427 0.930 . S
H440 C433 0.929 . S
H441 C455 0.930 . S
H442 C434 0.930 1_565 S
H443 C461 0.930 . S
H444 C452 0.929 . S
H445 C459 0.930 . S
H446 C423 0.931 . S
H447 C453 0.930 . S
H448 C486 0.930 . S
H449 C430 0.930 1_565 S
H450 C485 0.931 . S
N451 Eu420 2.657 . S
N451 C452 1.334 . S
N451 C456 1.362 . S
C452 H444 0.929 . S
C452 N451 1.334 . S
C452 C455 1.413 . S
C453 H447 0.930 . S
C453 C454 1.392 . S
C453 C455 1.367 . S
C454 C453 1.392 . S
C454 C456 1.420 . S
C454 C486 1.423 . S
C455 H441 0.930 . S
C455 C452 1.413 . S
C455 C453 1.367 . S
C456 N451 1.362 . S
C456 C454 1.420 . S
C456 C460 1.429 . S
H457 C462 0.930 . S
N458 Eu420 2.609 . S
N458 C460 1.377 . S
N458 C461 1.321 . S
C459 H445 0.930 . S
C459 C461 1.400 . S
C459 C462 1.386 . S
C460 C456 1.429 . S
C460 N458 1.377 . S
C460 C463 1.411 . S
C461 H443 0.930 . S
C461 N458 1.321 . S
C461 C459 1.400 . S
C462 H457 0.930 . S
C462 C459 1.386 . S
C462 C463 1.395 . S
C463 C460 1.411 . S
C463 C462 1.395 . S
C463 C485 1.420 . S
O464 Eu420 2.558 . S
O464 C484 1.257 . S
O465 Eu420 2.612 . S
O465 Eu431 2.380 . S
O465 C476 1.276 . S
O466 Eu431 2.432 . S
O466 C483 1.264 . S
O467 Eu420 2.339 . S
O467 C483 1.254 . S
O468 Eu420 2.563 . S
O468 C476 1.235 . S
O469 Eu420 2.419 . S
O469 C484 1.249 . S
O470 Eu431 2.558 . S
O470 C495 1.257 . S
O471 Eu420 2.380 . S
O471 Eu431 2.612 . S
O471 C487 1.276 . S
O472 Eu420 2.432 . S
O472 C494 1.264 . S
O473 Eu431 2.339 . S
O473 C494 1.254 . S
O474 Eu431 2.563 . S
O474 C487 1.235 . S
O475 Eu431 2.419 . S
O475 C495 1.249 . S
C476 O465 1.276 . S
C476 O468 1.235 . S
C477 C479 1.393 . S
C477 C481 1.395 . S
C477 C484 1.492 . S
C478 C479 1.392 . S
C478 C480 1.386 . S
C479 C477 1.393 . S
C479 C478 1.392 . S
C479 H496 0.930 . S
C480 C478 1.386 . S
C480 C482 1.395 . S
C480 H497 0.930 . S
C481 C477 1.395 . S
C481 C482 1.379 . S
C481 H498 0.930 . S
C482 C480 1.395 . S
C482 C481 1.379 . S
C482 H499 0.930 . S
C483 O466 1.264 . S
C483 O467 1.254 . S
C484 Eu420 2.848 . S
C484 O464 1.257 . S
C484 O469 1.249 . S
C484 C477 1.492 . S
C485 H450 0.931 . S
C485 C463 1.420 . S
C485 C486 1.351 . S
C486 H448 0.930 . S
C486 C454 1.423 . S
C486 C485 1.351 . S
C487 O471 1.276 . S
C487 O474 1.235 . S
C488 C489 1.393 . S
C488 C492 1.395 . S
C488 C495 1.492 . S
C489 C488 1.393 . S
C489 C490 1.392 . S
C489 H500 0.930 . S
C490 C489 1.392 . S
C490 C491 1.386 1_556 S
C491 C490 1.386 1_554 S
C491 C493 1.395 1_554 S
C491 H501 0.930 . S
C492 C488 1.395 . S
C492 C493 1.379 . S
C492 H502 0.930 . S
C493 C491 1.395 1_556 S
C493 C492 1.379 . S
C493 H503 0.930 . S
C494 O472 1.264 . S
C494 O473 1.254 . S
C495 Eu431 2.848 . S
C495 O470 1.257 . S
C495 O475 1.249 . S
C495 C488 1.492 . S
H496 C479 0.930 . S
H497 C480 0.930 . S
H498 C481 0.930 . S
H499 C482 0.930 . S
H500 C489 0.930 . S
H501 C491 0.930 . S
H502 C492 0.930 . S
H503 C493 0.930 . S
C504 C505 1.391 . S
C504 C506 1.394 . S
C504 H520 0.931 . S
C505 C504 1.391 . S
C505 C509 1.376 . S
C506 C504 1.394 . S
C506 C507 1.369 . S
C506 C510 1.531 . S
C507 C506 1.369 . S
C507 C508 1.410 . S
C507 C515 1.503 . S
C508 C507 1.410 . S
C508 C509 1.392 . S
C508 C511 1.511 . S
C509 C505 1.376 . S
C509 C508 1.392 . S
C509 H521 0.929 . S
C510 C506 1.531 . S
C510 H522 0.960 . S
C510 H523 0.962 . S
C510 H524 0.960 . S
C511 C508 1.511 . S
C511 H525 0.961 . S
C511 H526 0.961 . S
C511 H527 0.961 . S
C512 C513 1.370 . S
C512 C514 1.363 . S
C512 H528 0.931 . S
C513 C512 1.370 . S
C513 C517 1.408 . S
C514 C512 1.363 . S
C514 C515 1.370 . S
C514 C518 1.524 . S
C515 C507 1.503 . S
C515 C514 1.370 . S
C515 C516 1.403 . S
C516 C515 1.403 . S
C516 C517 1.404 . S
C516 C519 1.539 . S
C517 C513 1.408 . S
C517 C516 1.404 . S
C517 H529 0.930 . S
C518 C514 1.524 . S
C518 H530 0.956 . S
C518 H531 0.961 . S
C518 H532 0.961 . S
C519 C516 1.539 . S
C519 H533 0.958 . S
C519 H534 0.961 . S
C519 H535 0.960 . S
H520 C504 0.931 . S
H521 C509 0.929 . S
H522 C510 0.960 . S
H523 C510 0.962 . S
H524 C510 0.960 . S
H525 C511 0.961 . S
H526 C511 0.961 . S
H527 C511 0.961 . S
H528 C512 0.931 . S
H529 C517 0.930 . S
H530 C518 0.956 . S
H531 C518 0.961 . S
H532 C518 0.961 . S
H533 C519 0.958 . S
H534 C519 0.961 . S
H535 C519 0.960 . S
C536 C537 1.391 . S
C536 C538 1.394 . S
C536 H552 0.931 . S
C537 C536 1.391 . S
C537 C541 1.376 . S
C538 C536 1.394 . S
C538 C539 1.369 . S
C538 C542 1.531 1_455 S
C539 C538 1.369 . S
C539 C540 1.410 . S
C539 C547 1.503 1_455 S
C540 C539 1.410 . S
C540 C541 1.392 . S
C540 C543 1.511 . S
C541 C537 1.376 . S
C541 C540 1.392 . S
C541 H553 0.929 . S
C542 C538 1.531 1_655 S
C542 H554 0.960 . S
C542 H555 0.962 . S
C542 H556 0.960 . S
C543 C540 1.511 . S
C543 H557 0.961 . S
C543 H558 0.961 . S
C543 H559 0.961 . S
C544 C545 1.370 . S
C544 C546 1.363 . S
C544 H560 0.931 . S
C545 C544 1.370 . S
C545 C549 1.408 . S
C546 C544 1.363 . S
C546 C547 1.370 . S
C546 C550 1.524 . S
C547 C539 1.503 1_655 S
C547 C546 1.370 . S
C547 C548 1.403 . S
C548 C547 1.403 . S
C548 C549 1.404 . S
C548 C551 1.539 . S
C549 C545 1.408 . S
C549 C548 1.404 . S
C549 H561 0.930 . S
C550 C546 1.524 . S
C550 H562 0.956 . S
C550 H563 0.961 1_655 S
C550 H564 0.961 . S
C551 C548 1.539 . S
C551 H565 0.958 . S
C551 H566 0.961 . S
C551 H567 0.960 . S
H552 C536 0.931 . S
H553 C541 0.929 . S
H554 C542 0.960 . S
H555 C542 0.962 . S
H556 C542 0.960 . S
H557 C543 0.961 . S
H558 C543 0.961 . S
H559 C543 0.961 . S
H560 C544 0.931 . S
H561 C549 0.930 . S
H562 C550 0.956 . S
H563 C550 0.961 1_455 S
H564 C550 0.961 . S
H565 C551 0.958 . S
H566 C551 0.961 . S
H567 C551 0.960 . S
C568 C569 1.391 . S
C568 C570 1.394 . S
C568 H584 0.931 . S
C569 C568 1.391 . S
C569 C573 1.376 . S
C570 C568 1.394 . S
C570 C571 1.369 . S
C570 C574 1.531 . S
C571 C570 1.369 . S
C571 C572 1.410 . S
C571 C579 1.503 1_545 S
C572 C571 1.410 . S
C572 C573 1.392 . S
C572 C575 1.511 1_545 S
C573 C569 1.376 . S
C573 C572 1.392 . S
C573 H585 0.929 . S
C574 C570 1.531 . S
C574 H586 0.960 . S
C574 H587 0.962 . S
C574 H588 0.960 . S
C575 C572 1.511 1_565 S
C575 H589 0.961 . S
C575 H590 0.961 . S
C575 H591 0.961 . S
C576 C577 1.370 . S
C576 C578 1.363 . S
C576 H592 0.931 . S
C577 C576 1.370 . S
C577 C581 1.408 . S
C578 C576 1.363 . S
C578 C579 1.370 . S
C578 C582 1.524 . S
C579 C571 1.503 1_565 S
C579 C578 1.370 . S
C579 C580 1.403 . S
C580 C579 1.403 . S
C580 C581 1.404 . S
C580 C583 1.539 1_565 S
C581 C577 1.408 . S
C581 C580 1.404 . S
C581 H593 0.930 . S
C582 C578 1.524 . S
C582 H594 0.956 . S
C582 H595 0.961 . S
C582 H596 0.961 . S
C583 C580 1.539 1_545 S
C583 H597 0.958 . S
C583 H598 0.961 1_545 S
C583 H599 0.960 . S
H584 C568 0.931 . S
H585 C573 0.929 . S
H586 C574 0.960 . S
H587 C574 0.962 . S
H588 C574 0.960 . S
H589 C575 0.961 . S
H590 C575 0.961 . S
H591 C575 0.961 . S
H592 C576 0.931 . S
H593 C581 0.930 . S
H594 C582 0.956 . S
H595 C582 0.961 . S
H596 C582 0.961 . S
H597 C583 0.958 . S
H598 C583 0.961 1_565 S
H599 C583 0.960 . S
C600 C601 1.391 . S
C600 C602 1.394 . S
C600 H616 0.931 . S
C601 C600 1.391 . S
C601 C605 1.376 . S
C602 C600 1.394 . S
C602 C603 1.369 . S
C602 C606 1.531 . S
C603 C602 1.369 . S
C603 C604 1.410 . S
C603 C611 1.503 . S
C604 C603 1.410 . S
C604 C605 1.392 . S
C604 C607 1.511 . S
C605 C601 1.376 . S
C605 C604 1.392 . S
C605 H617 0.929 . S
C606 C602 1.531 . S
C606 H618 0.960 . S
C606 H619 0.962 . S
C606 H620 0.960 . S
C607 C604 1.511 . S
C607 H621 0.961 . S
C607 H622 0.961 . S
C607 H623 0.961 . S
C608 C609 1.370 . S
C608 C610 1.363 . S
C608 H624 0.931 . S
C609 C608 1.370 . S
C609 C613 1.408 . S
C610 C608 1.363 . S
C610 C611 1.370 . S
C610 C614 1.524 . S
C611 C603 1.503 . S
C611 C610 1.370 . S
C611 C612 1.403 . S
C612 C611 1.403 . S
C612 C613 1.404 . S
C612 C615 1.539 . S
C613 C609 1.408 . S
C613 C612 1.404 . S
C613 H625 0.930 . S
C614 C610 1.524 . S
C614 H626 0.956 . S
C614 H627 0.961 . S
C614 H628 0.961 . S
C615 C612 1.539 . S
C615 H629 0.958 . S
C615 H630 0.961 . S
C615 H631 0.960 . S
H616 C600 0.931 . S
H617 C605 0.929 . S
H618 C606 0.960 . S
H619 C606 0.962 . S
H620 C606 0.960 . S
H621 C607 0.961 . S
H622 C607 0.961 . S
H623 C607 0.961 . S
H624 C608 0.931 . S
H625 C613 0.930 . S
H626 C614 0.956 . S
H627 C614 0.961 . S
H628 C614 0.961 . S
H629 C615 0.958 . S
H630 C615 0.961 . S
H631 C615 0.960 . S
C632 C633 1.391 . S
C632 C634 1.394 . S
C632 H648 0.931 . S
C633 C632 1.391 . S
C633 C637 1.376 . S
C634 C632 1.394 . S
C634 C635 1.369 . S
C634 C638 1.531 1_455 S
C635 C634 1.369 . S
C635 C636 1.410 . S
C635 C643 1.503 1_455 S
C636 C635 1.410 . S
C636 C637 1.392 . S
C636 C639 1.511 . S
C637 C633 1.376 . S
C637 C636 1.392 . S
C637 H649 0.929 . S
C638 C634 1.531 1_655 S
C638 H650 0.960 . S
C638 H651 0.962 . S
C638 H652 0.960 . S
C639 C636 1.511 . S
C639 H653 0.961 . S
C639 H654 0.961 . S
C639 H655 0.961 . S
C640 C641 1.370 . S
C640 C642 1.363 . S
C640 H656 0.931 . S
C641 C640 1.370 . S
C641 C645 1.408 . S
C642 C640 1.363 . S
C642 C643 1.370 . S
C642 C646 1.524 1_655 S
C643 C635 1.503 1_655 S
C643 C642 1.370 . S
C643 C644 1.403 . S
C644 C643 1.403 . S
C644 C645 1.404 . S
C644 C647 1.539 . S
C645 C641 1.408 . S
C645 C644 1.404 . S
C645 H657 0.930 . S
C646 C642 1.524 1_455 S
C646 H658 0.956 . S
C646 H659 0.961 . S
C646 H660 0.961 1_455 S
C647 C644 1.539 . S
C647 H661 0.958 . S
C647 H662 0.961 . S
C647 H663 0.960 . S
H648 C632 0.931 . S
H649 C637 0.929 . S
H650 C638 0.960 . S
H651 C638 0.962 . S
H652 C638 0.960 . S
H653 C639 0.961 . S
H654 C639 0.961 . S
H655 C639 0.961 . S
H656 C640 0.931 . S
H657 C645 0.930 . S
H658 C646 0.956 . S
H659 C646 0.961 . S
H660 C646 0.961 1_655 S
H661 C647 0.958 . S
H662 C647 0.961 . S
H663 C647 0.960 . S
C664 C665 1.391 . S
C664 C666 1.394 . S
C664 H680 0.931 . S
C665 C664 1.391 . S
C665 C669 1.376 . S
C666 C664 1.394 . S
C666 C667 1.369 . S
C666 C670 1.531 1_545 S
C667 C666 1.369 . S
C667 C668 1.410 . S
C667 C675 1.503 1_545 S
C668 C667 1.410 . S
C668 C669 1.392 . S
C668 C671 1.511 . S
C669 C665 1.376 . S
C669 C668 1.392 . S
C669 H681 0.929 . S
C670 C666 1.531 1_565 S
C670 H682 0.960 . S
C670 H683 0.962 . S
C670 H684 0.960 . S
C671 C668 1.511 . S
C671 H685 0.961 . S
C671 H686 0.961 . S
C671 H687 0.961 . S
C672 C673 1.370 . S
C672 C674 1.363 . S
C672 H688 0.931 . S
C673 C672 1.370 . S
C673 C677 1.408 . S
C674 C672 1.363 . S
C674 C675 1.370 . S
C674 C678 1.524 1_565 S
C675 C667 1.503 1_565 S
C675 C674 1.370 . S
C675 C676 1.403 . S
C676 C675 1.403 . S
C676 C677 1.404 . S
C676 C679 1.539 . S
C677 C673 1.408 . S
C677 C676 1.404 . S
C677 H689 0.930 . S
C678 C674 1.524 1_545 S
C678 H690 0.956 . S
C678 H691 0.961 . S
C678 H692 0.961 . S
C679 C676 1.539 . S
C679 H693 0.958 . S
C679 H694 0.961 . S
C679 H695 0.960 . S
H680 C664 0.931 . S
H681 C669 0.929 . S
H682 C670 0.960 . S
H683 C670 0.962 . S
H684 C670 0.960 . S
H685 C671 0.961 . S
H686 C671 0.961 . S
H687 C671 0.961 . S
H688 C672 0.931 . S
H689 C677 0.930 . S
H690 C678 0.956 . S
H691 C678 0.961 . S
H692 C678 0.961 . S
H693 C679 0.958 . S
H694 C679 0.961 . S
H695 C679 0.960 . S
C696 C697 1.391 . S
C696 C698 1.394 . S
C696 H712 0.931 . S
C697 C696 1.391 . S
C697 C701 1.376 . S
C698 C696 1.394 . S
C698 C699 1.369 . S
C698 C702 1.531 . S
C699 C698 1.369 . S
C699 C700 1.410 . S
C699 C707 1.503 . S
C700 C699 1.410 . S
C700 C701 1.392 . S
C700 C703 1.511 . S
C701 C697 1.376 . S
C701 C700 1.392 . S
C701 H713 0.929 . S
C702 C698 1.531 . S
C702 H714 0.960 . S
C702 H715 0.962 . S
C702 H716 0.960 . S
C703 C700 1.511 . S
C703 H717 0.961 . S
C703 H718 0.961 . S
C703 H719 0.961 . S
C704 C705 1.370 . S
C704 C706 1.363 . S
C704 H720 0.931 . S
C705 C704 1.370 . S
C705 C709 1.408 . S
C706 C704 1.363 . S
C706 C707 1.370 . S
C706 C710 1.524 . S
C707 C699 1.503 . S
C707 C706 1.370 . S
C707 C708 1.403 . S
C708 C707 1.403 . S
C708 C709 1.404 . S
C708 C711 1.539 . S
C709 C705 1.408 . S
C709 C708 1.404 . S
C709 H721 0.930 . S
C710 C706 1.524 . S
C710 H722 0.956 . S
C710 H723 0.961 . S
C710 H724 0.961 . S
C711 C708 1.539 . S
C711 H725 0.958 . S
C711 H726 0.961 . S
C711 H727 0.960 . S
H712 C696 0.931 . S
H713 C701 0.929 . S
H714 C702 0.960 . S
H715 C702 0.962 . S
H716 C702 0.960 . S
H717 C703 0.961 . S
H718 C703 0.961 . S
H719 C703 0.961 . S
H720 C704 0.931 . S
H721 C709 0.930 . S
H722 C710 0.956 . S
H723 C710 0.961 . S
H724 C710 0.961 . S
H725 C711 0.958 . S
H726 C711 0.961 . S
H727 C711 0.960 . S
C728 C729 1.391 . S
C728 C730 1.394 . S
C728 H744 0.931 . S
C729 C728 1.391 . S
C729 C733 1.376 . S
C730 C728 1.394 . S
C730 C731 1.369 . S
C730 C734 1.531 . S
C731 C730 1.369 . S
C731 C732 1.410 . S
C731 C739 1.503 . S
C732 C731 1.410 . S
C732 C733 1.392 . S
C732 C735 1.511 . S
C733 C729 1.376 . S
C733 C732 1.392 . S
C733 H745 0.929 . S
C734 C730 1.531 . S
C734 H746 0.960 . S
C734 H747 0.962 . S
C734 H748 0.960 . S
C735 C732 1.511 . S
C735 H749 0.961 . S
C735 H750 0.961 . S
C735 H751 0.961 . S
C736 C737 1.370 . S
C736 C738 1.363 . S
C736 H752 0.931 . S
C737 C736 1.370 . S
C737 C741 1.408 . S
C738 C736 1.363 . S
C738 C739 1.370 . S
C738 C742 1.524 . S
C739 C731 1.503 . S
C739 C738 1.370 . S
C739 C740 1.403 . S
C740 C739 1.403 . S
C740 C741 1.404 . S
C740 C743 1.539 . S
C741 C737 1.408 . S
C741 C740 1.404 . S
C741 H753 0.930 . S
C742 C738 1.524 . S
C742 H754 0.956 . S
C742 H755 0.961 . S
C742 H756 0.961 . S
C743 C740 1.539 . S
C743 H757 0.958 . S
C743 H758 0.961 . S
C743 H759 0.960 . S
H744 C728 0.931 . S
H745 C733 0.929 . S
H746 C734 0.960 . S
H747 C734 0.962 . S
H748 C734 0.960 . S
H749 C735 0.961 . S
H750 C735 0.961 . S
H751 C735 0.961 . S
H752 C736 0.931 . S
H753 C741 0.930 . S
H754 C742 0.956 . S
H755 C742 0.961 . S
H756 C742 0.961 . S
H757 C743 0.958 . S
H758 C743 0.961 . S
H759 C743 0.960 . S
C760 C761 1.391 . S
C760 C762 1.394 . S
C760 H776 0.931 . S
C761 C760 1.391 . S
C761 C765 1.376 . S
C762 C760 1.394 . S
C762 C763 1.369 . S
C762 C766 1.531 . S
C763 C762 1.369 . S
C763 C764 1.410 . S
C763 C771 1.503 . S
C764 C763 1.410 . S
C764 C765 1.392 . S
C764 C767 1.511 . S
C765 C761 1.376 . S
C765 C764 1.392 . S
C765 H777 0.929 . S
C766 C762 1.531 . S
C766 H778 0.960 . S
C766 H779 0.962 . S
C766 H780 0.960 . S
C767 C764 1.511 . S
C767 H781 0.961 . S
C767 H782 0.961 . S
C767 H783 0.961 . S
C768 C769 1.370 . S
C768 C770 1.363 . S
C768 H784 0.931 . S
C769 C768 1.370 . S
C769 C773 1.408 . S
C770 C768 1.363 . S
C770 C771 1.370 . S
C770 C774 1.524 . S
C771 C763 1.503 . S
C771 C770 1.370 . S
C771 C772 1.403 . S
C772 C771 1.403 . S
C772 C773 1.404 . S
C772 C775 1.539 . S
C773 C769 1.408 . S
C773 C772 1.404 . S
C773 H785 0.930 . S
C774 C770 1.524 . S
C774 H786 0.956 . S
C774 H787 0.961 . S
C774 H788 0.961 . S
C775 C772 1.539 . S
C775 H789 0.958 . S
C775 H790 0.961 . S
C775 H791 0.960 . S
H776 C760 0.931 . S
H777 C765 0.929 . S
H778 C766 0.960 . S
H779 C766 0.962 . S
H780 C766 0.960 . S
H781 C767 0.961 . S
H782 C767 0.961 . S
H783 C767 0.961 . S
H784 C768 0.931 . S
H785 C773 0.930 . S
H786 C774 0.956 . S
H787 C774 0.961 . S
H788 C774 0.961 . S
H789 C775 0.958 . S
H790 C775 0.961 . S
H791 C775 0.960 . S
C792 C793 1.391 . S
C792 C794 1.394 . S
C792 H808 0.931 . S
C793 C792 1.391 . S
C793 C797 1.376 . S
C794 C792 1.394 . S
C794 C795 1.369 . S
C794 C798 1.531 . S
C795 C794 1.369 . S
C795 C796 1.410 . S
C795 C803 1.503 . S
C796 C795 1.410 . S
C796 C797 1.392 . S
C796 C799 1.511 . S
C797 C793 1.376 . S
C797 C796 1.392 . S
C797 H809 0.929 . S
C798 C794 1.531 . S
C798 H810 0.960 . S
C798 H811 0.962 . S
C798 H812 0.960 . S
C799 C796 1.511 . S
C799 H813 0.961 . S
C799 H814 0.961 . S
C799 H815 0.961 . S
C800 C801 1.370 . S
C800 C802 1.363 . S
C800 H816 0.931 . S
C801 C800 1.370 . S
C801 C805 1.408 . S
C802 C800 1.363 . S
C802 C803 1.370 . S
C802 C806 1.524 . S
C803 C795 1.503 . S
C803 C802 1.370 . S
C803 C804 1.403 . S
C804 C803 1.403 . S
C804 C805 1.404 . S
C804 C807 1.539 . S
C805 C801 1.408 . S
C805 C804 1.404 . S
C805 H817 0.930 . S
C806 C802 1.524 . S
C806 H818 0.956 . S
C806 H819 0.961 . S
C806 H820 0.961 . S
C807 C804 1.539 . S
C807 H821 0.958 . S
C807 H822 0.961 . S
C807 H823 0.960 . S
H808 C792 0.931 . S
H809 C797 0.929 . S
H810 C798 0.960 . S
H811 C798 0.962 . S
H812 C798 0.960 . S
H813 C799 0.961 . S
H814 C799 0.961 . S
H815 C799 0.961 . S
H816 C800 0.931 . S
H817 C805 0.930 . S
H818 C806 0.956 . S
H819 C806 0.961 . S
H820 C806 0.961 . S
H821 C807 0.958 . S
H822 C807 0.961 . S
H823 C807 0.960 . S
C824 C825 1.391 . S
C824 C826 1.394 . S
C824 H840 0.931 . S
C825 C824 1.391 . S
C825 C829 1.376 . S
C826 C824 1.394 . S
C826 C827 1.369 . S
C826 C830 1.531 . S
C827 C826 1.369 . S
C827 C828 1.410 . S
C827 C835 1.503 . S
C828 C827 1.410 . S
C828 C829 1.392 . S
C828 C831 1.511 . S
C829 C825 1.376 . S
C829 C828 1.392 . S
C829 H841 0.929 . S
C830 C826 1.531 . S
C830 H842 0.960 . S
C830 H843 0.962 . S
C830 H844 0.960 . S
C831 C828 1.511 . S
C831 H845 0.961 . S
C831 H846 0.961 . S
C831 H847 0.961 . S
C832 C833 1.370 . S
C832 C834 1.363 . S
C832 H848 0.931 . S
C833 C832 1.370 . S
C833 C837 1.408 . S
C834 C832 1.363 . S
C834 C835 1.370 . S
C834 C838 1.524 . S
C835 C827 1.503 . S
C835 C834 1.370 . S
C835 C836 1.403 . S
C836 C835 1.403 . S
C836 C837 1.404 . S
C836 C839 1.539 . S
C837 C833 1.408 . S
C837 C836 1.404 . S
C837 H849 0.930 . S
C838 C834 1.524 . S
C838 H850 0.956 . S
C838 H851 0.961 . S
C838 H852 0.961 . S
C839 C836 1.539 . S
C839 H853 0.958 . S
C839 H854 0.961 . S
C839 H855 0.960 . S
H840 C824 0.931 . S
H841 C829 0.929 . S
H842 C830 0.960 . S
H843 C830 0.962 . S
H844 C830 0.960 . S
H845 C831 0.961 . S
H846 C831 0.961 . S
H847 C831 0.961 . S
H848 C832 0.931 . S
H849 C837 0.930 . S
H850 C838 0.956 . S
H851 C838 0.961 . S
H852 C838 0.961 . S
H853 C839 0.958 . S
H854 C839 0.961 . S
H855 C839 0.960 . S
C856 C857 1.391 . S
C856 C858 1.394 . S
C856 H872 0.931 . S
C857 C856 1.391 . S
C857 C861 1.376 . S
C858 C856 1.394 . S
C858 C859 1.369 . S
C858 C862 1.531 . S
C859 C858 1.369 . S
C859 C860 1.410 . S
C859 C867 1.503 . S
C860 C859 1.410 . S
C860 C861 1.392 . S
C860 C863 1.511 . S
C861 C857 1.376 . S
C861 C860 1.392 . S
C861 H873 0.929 . S
C862 C858 1.531 . S
C862 H874 0.960 . S
C862 H875 0.962 . S
C862 H876 0.960 . S
C863 C860 1.511 . S
C863 H877 0.961 . S
C863 H878 0.961 . S
C863 H879 0.961 . S
C864 C865 1.370 . S
C864 C866 1.363 . S
C864 H880 0.931 . S
C865 C864 1.370 . S
C865 C869 1.408 . S
C866 C864 1.363 . S
C866 C867 1.370 . S
C866 C870 1.524 . S
C867 C859 1.503 . S
C867 C866 1.370 . S
C867 C868 1.403 . S
C868 C867 1.403 . S
C868 C869 1.404 . S
C868 C871 1.539 . S
C869 C865 1.408 . S
C869 C868 1.404 . S
C869 H881 0.930 . S
C870 C866 1.524 . S
C870 H882 0.956 . S
C870 H883 0.961 . S
C870 H884 0.961 . S
C871 C868 1.539 . S
C871 H885 0.958 . S
C871 H886 0.961 . S
C871 H887 0.960 . S
H872 C856 0.931 . S
H873 C861 0.929 . S
H874 C862 0.960 . S
H875 C862 0.962 . S
H876 C862 0.960 . S
H877 C863 0.961 . S
H878 C863 0.961 . S
H879 C863 0.961 . S
H880 C864 0.931 . S
H881 C869 0.930 . S
H882 C870 0.956 . S
H883 C870 0.961 . S
H884 C870 0.961 . S
H885 C871 0.958 . S
H886 C871 0.961 . S
H887 C871 0.960 . S
C888 C889 1.391 . S
C888 C890 1.394 . S
C888 H904 0.931 . S
C889 C888 1.391 . S
C889 C893 1.376 . S
C890 C888 1.394 . S
C890 C891 1.369 . S
C890 C894 1.531 . S
C891 C890 1.369 . S
C891 C892 1.410 . S
C891 C899 1.503 . S
C892 C891 1.410 . S
C892 C893 1.392 . S
C892 C895 1.511 . S
C893 C889 1.376 . S
C893 C892 1.392 . S
C893 H905 0.929 . S
C894 C890 1.531 . S
C894 H906 0.960 . S
C894 H907 0.962 . S
C894 H908 0.960 . S
C895 C892 1.511 . S
C895 H909 0.961 . S
C895 H910 0.961 . S
C895 H911 0.961 . S
C896 C897 1.370 . S
C896 C898 1.363 . S
C896 H912 0.931 . S
C897 C896 1.370 . S
C897 C901 1.408 . S
C898 C896 1.363 . S
C898 C899 1.370 . S
C898 C902 1.524 . S
C899 C891 1.503 . S
C899 C898 1.370 . S
C899 C900 1.403 . S
C900 C899 1.403 . S
C900 C901 1.404 . S
C900 C903 1.539 . S
C901 C897 1.408 . S
C901 C900 1.404 . S
C901 H913 0.930 . S
C902 C898 1.524 . S
C902 H914 0.956 . S
C902 H915 0.961 . S
C902 H916 0.961 . S
C903 C900 1.539 . S
C903 H917 0.958 . S
C903 H918 0.961 . S
C903 H919 0.960 . S
H904 C888 0.931 . S
H905 C893 0.929 . S
H906 C894 0.960 . S
H907 C894 0.962 . S
H908 C894 0.960 . S
H909 C895 0.961 . S
H910 C895 0.961 . S
H911 C895 0.961 . S
H912 C896 0.931 . S
H913 C901 0.930 . S
H914 C902 0.956 . S
H915 C902 0.961 . S
H916 C902 0.961 . S
H917 C903 0.958 . S
H918 C903 0.961 . S
H919 C903 0.960 . S
C920 C921 1.391 . S
C920 C922 1.394 . S
C920 H936 0.931 . S
C921 C920 1.391 . S
C921 C925 1.376 . S
C922 C920 1.394 . S
C922 C923 1.369 . S
C922 C926 1.531 . S
C923 C922 1.369 . S
C923 C924 1.410 . S
C923 C931 1.503 . S
C924 C923 1.410 . S
C924 C925 1.392 . S
C924 C927 1.511 . S
C925 C921 1.376 . S
C925 C924 1.392 . S
C925 H937 0.929 . S
C926 C922 1.531 . S
C926 H938 0.960 . S
C926 H939 0.962 . S
C926 H940 0.960 . S
C927 C924 1.511 . S
C927 H941 0.961 . S
C927 H942 0.961 . S
C927 H943 0.961 . S
C928 C929 1.370 . S
C928 C930 1.363 . S
C928 H944 0.931 . S
C929 C928 1.370 . S
C929 C933 1.408 . S
C930 C928 1.363 . S
C930 C931 1.370 . S
C930 C934 1.524 . S
C931 C923 1.503 . S
C931 C930 1.370 . S
C931 C932 1.403 . S
C932 C931 1.403 . S
C932 C933 1.404 . S
C932 C935 1.539 . S
C933 C929 1.408 . S
C933 C932 1.404 . S
C933 H945 0.930 . S
C934 C930 1.524 . S
C934 H946 0.956 . S
C934 H947 0.961 . S
C934 H948 0.961 . S
C935 C932 1.539 . S
C935 H949 0.958 . S
C935 H950 0.961 . S
C935 H951 0.960 . S
H936 C920 0.931 . S
H937 C925 0.929 . S
H938 C926 0.960 . S
H939 C926 0.962 . S
H940 C926 0.960 . S
H941 C927 0.961 . S
H942 C927 0.961 . S
H943 C927 0.961 . S
H944 C928 0.931 . S
H945 C933 0.930 . S
H946 C934 0.956 . S
H947 C934 0.961 . S
H948 C934 0.961 . S
H949 C935 0.958 . S
H950 C935 0.961 . S
H951 C935 0.960 . S
C952 C953 1.391 . S
C952 C954 1.394 . S
C952 H968 0.931 . S
C953 C952 1.391 . S
C953 C957 1.376 . S
C954 C952 1.394 . S
C954 C955 1.369 . S
C954 C958 1.531 . S
C955 C954 1.369 . S
C955 C956 1.410 . S
C955 C963 1.503 . S
C956 C955 1.410 . S
C956 C957 1.392 . S
C956 C959 1.511 . S
C957 C953 1.376 . S
C957 C956 1.392 . S
C957 H969 0.929 . S
C958 C954 1.531 . S
C958 H970 0.960 . S
C958 H971 0.962 . S
C958 H972 0.960 . S
C959 C956 1.511 . S
C959 H973 0.961 . S
C959 H974 0.961 . S
C959 H975 0.961 . S
C960 C961 1.370 . S
C960 C962 1.363 . S
C960 H976 0.931 . S
C961 C960 1.370 . S
C961 C965 1.408 . S
C962 C960 1.363 . S
C962 C963 1.370 . S
C962 C966 1.524 . S
C963 C955 1.503 . S
C963 C962 1.370 . S
C963 C964 1.403 . S
C964 C963 1.403 . S
C964 C965 1.404 . S
C964 C967 1.539 . S
C965 C961 1.408 . S
C965 C964 1.404 . S
C965 H977 0.930 . S
C966 C962 1.524 . S
C966 H978 0.956 . S
C966 H979 0.961 . S
C966 H980 0.961 . S
C967 C964 1.539 . S
C967 H981 0.958 . S
C967 H982 0.961 . S
C967 H983 0.960 . S
H968 C952 0.931 . S
H969 C957 0.929 . S
H970 C958 0.960 . S
H971 C958 0.962 . S
H972 C958 0.960 . S
H973 C959 0.961 . S
H974 C959 0.961 . S
H975 C959 0.961 . S
H976 C960 0.931 . S
H977 C965 0.930 . S
H978 C966 0.956 . S
H979 C966 0.961 . S
H980 C966 0.961 . S
H981 C967 0.958 . S
H982 C967 0.961 . S
H983 C967 0.960 . S
C984 C985 1.391 . S
C984 C986 1.394 . S
C984 H1000 0.931 . S
C985 C984 1.391 . S
C985 C989 1.376 . S
C986 C984 1.394 . S
C986 C987 1.369 . S
C986 C990 1.531 . S
C987 C986 1.369 . S
C987 C988 1.410 . S
C987 C995 1.503 . S
C988 C987 1.410 . S
C988 C989 1.392 . S
C988 C991 1.511 . S
C989 C985 1.376 . S
C989 C988 1.392 . S
C989 H1001 0.929 . S
C990 C986 1.531 . S
C990 H1002 0.960 . S
C990 H1003 0.962 . S
C990 H1004 0.960 . S
C991 C988 1.511 . S
C991 H1005 0.961 . S
C991 H1006 0.961 . S
C991 H1007 0.961 . S
C992 C993 1.370 . S
C992 C994 1.363 . S
C992 H1008 0.931 . S
C993 C992 1.370 . S
C993 C997 1.408 . S
C994 C992 1.363 . S
C994 C995 1.370 . S
C994 C998 1.524 . S
C995 C987 1.503 . S
C995 C994 1.370 . S
C995 C996 1.403 . S
C996 C995 1.403 . S
C996 C997 1.404 . S
C996 C999 1.539 . S
C997 C993 1.408 . S
C997 C996 1.404 . S
C997 H1009 0.930 . S
C998 C994 1.524 . S
C998 H1010 0.956 . S
C998 H1011 0.961 . S
C998 H1012 0.961 . S
C999 C996 1.539 . S
C999 H1013 0.958 . S
C999 H1014 0.961 . S
C999 H1015 0.960 . S
H1000 C984 0.931 . S
H1001 C989 0.929 . S
H1002 C990 0.960 . S
H1003 C990 0.962 . S
H1004 C990 0.960 . S
H1005 C991 0.961 . S
H1006 C991 0.961 . S
H1007 C991 0.961 . S
H1008 C992 0.931 . S
H1009 C997 0.930 . S
H1010 C998 0.956 . S
H1011 C998 0.961 . S
H1012 C998 0.961 . S
H1013 C999 0.958 . S
H1014 C999 0.961 . S
H1015 C999 0.960 . S
C1016 C1017 1.391 . S
C1016 C1018 1.394 . S
C1016 H1032 0.931 . S
C1017 C1016 1.391 . S
C1017 C1021 1.376 . S
C1018 C1016 1.394 . S
C1018 C1019 1.369 . S
C1018 C1022 1.531 . S
C1019 C1018 1.369 . S
C1019 C1020 1.410 . S
C1019 C1027 1.503 . S
C1020 C1019 1.410 . S
C1020 C1021 1.392 . S
C1020 C1023 1.511 . S
C1021 C1017 1.376 . S
C1021 C1020 1.392 . S
C1021 H1033 0.929 . S
C1022 C1018 1.531 . S
C1022 H1034 0.960 . S
C1022 H1035 0.962 . S
C1022 H1036 0.960 . S
C1023 C1020 1.511 . S
C1023 H1037 0.961 . S
C1023 H1038 0.961 . S
C1023 H1039 0.961 . S
C1024 C1025 1.370 . S
C1024 C1026 1.363 . S
C1024 H1040 0.931 . S
C1025 C1024 1.370 . S
C1025 C1029 1.408 . S
C1026 C1024 1.363 . S
C1026 C1027 1.370 . S
C1026 C1030 1.524 . S
C1027 C1019 1.503 . S
C1027 C1026 1.370 . S
C1027 C1028 1.403 . S
C1028 C1027 1.403 . S
C1028 C1029 1.404 . S
C1028 C1031 1.539 . S
C1029 C1025 1.408 . S
C1029 C1028 1.404 . S
C1029 H1041 0.930 . S
C1030 C1026 1.524 . S
C1030 H1042 0.956 . S
C1030 H1043 0.961 . S
C1030 H1044 0.961 . S
C1031 C1028 1.539 . S
C1031 H1045 0.958 . S
C1031 H1046 0.961 . S
C1031 H1047 0.960 . S
H1032 C1016 0.931 . S
H1033 C1021 0.929 . S
H1034 C1022 0.960 . S
H1035 C1022 0.962 . S
H1036 C1022 0.960 . S
H1037 C1023 0.961 . S
H1038 C1023 0.961 . S
H1039 C1023 0.961 . S
H1040 C1024 0.931 . S
H1041 C1029 0.930 . S
H1042 C1030 0.956 . S
H1043 C1030 0.961 . S
H1044 C1030 0.961 . S
H1045 C1031 0.958 . S
H1046 C1031 0.961 . S
H1047 C1031 0.960 . S
C1048 C1049 1.391 . S
C1048 C1050 1.394 . S
C1048 H1064 0.931 . S
C1049 C1048 1.391 . S
C1049 C1053 1.376 . S
C1050 C1048 1.394 . S
C1050 C1051 1.369 . S
C1050 C1054 1.531 . S
C1051 C1050 1.369 . S
C1051 C1052 1.410 . S
C1051 C1059 1.503 . S
C1052 C1051 1.410 . S
C1052 C1053 1.392 . S
C1052 C1055 1.511 . S
C1053 C1049 1.376 . S
C1053 C1052 1.392 . S
C1053 H1065 0.929 . S
C1054 C1050 1.531 . S
C1054 H1066 0.960 . S
C1054 H1067 0.962 . S
C1054 H1068 0.960 . S
C1055 C1052 1.511 . S
C1055 H1069 0.961 . S
C1055 H1070 0.961 . S
C1055 H1071 0.961 . S
C1056 C1057 1.370 . S
C1056 C1058 1.363 . S
C1056 H1072 0.931 . S
C1057 C1056 1.370 . S
C1057 C1061 1.408 . S
C1058 C1056 1.363 . S
C1058 C1059 1.370 . S
C1058 C1062 1.524 . S
C1059 C1051 1.503 . S
C1059 C1058 1.370 . S
C1059 C1060 1.403 . S
C1060 C1059 1.403 . S
C1060 C1061 1.404 . S
C1060 C1063 1.539 . S
C1061 C1057 1.408 . S
C1061 C1060 1.404 . S
C1061 H1073 0.930 . S
C1062 C1058 1.524 . S
C1062 H1074 0.956 . S
C1062 H1075 0.961 . S
C1062 H1076 0.961 . S
C1063 C1060 1.539 . S
C1063 H1077 0.958 . S
C1063 H1078 0.961 . S
C1063 H1079 0.960 . S
H1064 C1048 0.931 . S
H1065 C1053 0.929 . S
H1066 C1054 0.960 . S
H1067 C1054 0.962 . S
H1068 C1054 0.960 . S
H1069 C1055 0.961 . S
H1070 C1055 0.961 . S
H1071 C1055 0.961 . S
H1072 C1056 0.931 . S
H1073 C1061 0.930 . S
H1074 C1062 0.956 . S
H1075 C1062 0.961 . S
H1076 C1062 0.961 . S
H1077 C1063 0.958 . S
H1078 C1063 0.961 . S
H1079 C1063 0.960 . S
C505 C494 1.436 . S
C513 C56 1.385 . S
C537 C74 1.430 . S
C545 C140 1.392 . S
C569 C158 1.448 . S
C577 C224 1.405 . S
C601 C242 1.446 . S
C609 C308 1.408 . S
C633 C392 1.400 . S
C641 C326 1.440 . S
C665 C476 1.404 . S
C673 C410 1.440 . S
C697 C58 1.281 . S
C705 C70 1.331 . S
C729 C142 1.274 1_556 S
C737 C154 1.331 . S
C761 C226 1.305 . S
C769 C238 1.317 1_554 S
C793 C310 1.345 . S
C801 C322 1.301 . S
C825 C406 1.281 . S
C833 C394 1.327 1_556 S
C857 C478 1.303 . S
C865 C490 1.318 1_554 S
C889 C67 1.330 . S
C897 C399 1.416 . S
C921 C151 1.413 . S
C929 C483 1.441 . S
C953 C63 1.417 . S
C961 C235 1.373 . S
C985 C147 1.440 . S
C993 C319 1.386 . S
C1017 C403 1.371 . S
C1025 C231 1.428 . S
C1049 C315 1.432 . S
C1057 C487 1.381 . S
