# Generated by pormake.
# Topology fng, (5)-cn, num edge types: 1
# Building blocks:
#     Node 0, Type 0, BuildingBlock: BEQFEK_clean_sbu_0, # of connection points: 5
#     Node 1, Type 0, BuildingBlock: BEQFEK_clean_sbu_0, # of connection points: 5
#     Node 2, Type 0, BuildingBlock: BEQFEK_clean_sbu_0, # of connection points: 5
#     Node 3, Type 0, BuildingBlock: BEQFEK_clean_sbu_0, # of connection points: 5
#     Node 4, Type 0, BuildingBlock: BEQFEK_clean_sbu_0, # of connection points: 5
#     Node 5, Type 0, BuildingBlock: BEQFEK_clean_sbu_0, # of connection points: 5
#     Node 6, Type 0, BuildingBlock: BEQFEK_clean_sbu_0, # of connection points: 5
#     Node 7, Type 0, BuildingBlock: BEQFEK_clean_sbu_0, # of connection points: 5
#     Node 8, Type 0, BuildingBlock: BEQFEK_clean_sbu_0, # of connection points: 5
#     Node 9, Type 0, BuildingBlock: BEQFEK_clean_sbu_0, # of connection points: 5
#     Node 10, Type 0, BuildingBlock: BEQFEK_clean_sbu_0, # of connection points: 5
#     Node 11, Type 0, BuildingBlock: BEQFEK_clean_sbu_0, # of connection points: 5
#     Node 12, Type 0, BuildingBlock: BEQFEK_clean_sbu_0, # of connection points: 5
#     Node 13, Type 0, BuildingBlock: BEQFEK_clean_sbu_0, # of connection points: 5
#     Node 14, Type 0, BuildingBlock: BEQFEK_clean_sbu_0, # of connection points: 5
#     Node 15, Type 0, BuildingBlock: BEQFEK_clean_sbu_0, # of connection points: 5
#     Node 16, Type 0, BuildingBlock: BEQFEK_clean_sbu_0, # of connection points: 5
#     Node 17, Type 0, BuildingBlock: BEQFEK_clean_sbu_0, # of connection points: 5
#     Edge 18, Type (0, 0), BuildingBlock: UVAHIK_clean_linker_0, # of connection points: 2
#     Edge 19, Type (0, 0), BuildingBlock: UVAHIK_clean_linker_0, # of connection points: 2
#     Edge 20, Type (0, 0), BuildingBlock: UVAHIK_clean_linker_0, # of connection points: 2
#     Edge 21, Type (0, 0), BuildingBlock: UVAHIK_clean_linker_0, # of connection points: 2
#     Edge 22, Type (0, 0), BuildingBlock: UVAHIK_clean_linker_0, # of connection points: 2
#     Edge 23, Type (0, 0), BuildingBlock: UVAHIK_clean_linker_0, # of connection points: 2
#     Edge 24, Type (0, 0), BuildingBlock: UVAHIK_clean_linker_0, # of connection points: 2
#     Edge 25, Type (0, 0), BuildingBlock: UVAHIK_clean_linker_0, # of connection points: 2
#     Edge 26, Type (0, 0), BuildingBlock: UVAHIK_clean_linker_0, # of connection points: 2
#     Edge 27, Type (0, 0), BuildingBlock: UVAHIK_clean_linker_0, # of connection points: 2
#     Edge 28, Type (0, 0), BuildingBlock: UVAHIK_clean_linker_0, # of connection points: 2
#     Edge 29, Type (0, 0), BuildingBlock: UVAHIK_clean_linker_0, # of connection points: 2
#     Edge 30, Type (0, 0), BuildingBlock: UVAHIK_clean_linker_0, # of connection points: 2
#     Edge 31, Type (0, 0), BuildingBlock: UVAHIK_clean_linker_0, # of connection points: 2
#     Edge 32, Type (0, 0), BuildingBlock: UVAHIK_clean_linker_0, # of connection points: 2
#     Edge 33, Type (0, 0), BuildingBlock: UVAHIK_clean_linker_0, # of connection points: 2
#     Edge 34, Type (0, 0), BuildingBlock: UVAHIK_clean_linker_0, # of connection points: 2
#     Edge 35, Type (0, 0), BuildingBlock: UVAHIK_clean_linker_0, # of connection points: 2
#     Edge 36, Type (0, 0), BuildingBlock: UVAHIK_clean_linker_0, # of connection points: 2
#     Edge 37, Type (0, 0), BuildingBlock: UVAHIK_clean_linker_0, # of connection points: 2
#     Edge 38, Type (0, 0), BuildingBlock: UVAHIK_clean_linker_0, # of connection points: 2
#     Edge 39, Type (0, 0), BuildingBlock: UVAHIK_clean_linker_0, # of connection points: 2
#     Edge 40, Type (0, 0), BuildingBlock: UVAHIK_clean_linker_0, # of connection points: 2
#     Edge 41, Type (0, 0), BuildingBlock: UVAHIK_clean_linker_0, # of connection points: 2
#     Edge 42, Type (0, 0), BuildingBlock: UVAHIK_clean_linker_0, # of connection points: 2
#     Edge 43, Type (0, 0), BuildingBlock: UVAHIK_clean_linker_0, # of connection points: 2
#     Edge 44, Type (0, 0), BuildingBlock: UVAHIK_clean_linker_0, # of connection points: 2
#     Edge 45, Type (0, 0), BuildingBlock: UVAHIK_clean_linker_0, # of connection points: 2
#     Edge 46, Type (0, 0), BuildingBlock: UVAHIK_clean_linker_0, # of connection points: 2
#     Edge 47, Type (0, 0), BuildingBlock: UVAHIK_clean_linker_0, # of connection points: 2
#     Edge 48, Type (0, 0), BuildingBlock: UVAHIK_clean_linker_0, # of connection points: 2
#     Edge 49, Type (0, 0), BuildingBlock: UVAHIK_clean_linker_0, # of connection points: 2
#     Edge 50, Type (0, 0), BuildingBlock: UVAHIK_clean_linker_0, # of connection points: 2
#     Edge 51, Type (0, 0), BuildingBlock: UVAHIK_clean_linker_0, # of connection points: 2
#     Edge 52, Type (0, 0), BuildingBlock: UVAHIK_clean_linker_0, # of connection points: 2
#     Edge 53, Type (0, 0), BuildingBlock: UVAHIK_clean_linker_0, # of connection points: 2
#     Edge 54, Type (0, 0), BuildingBlock: UVAHIK_clean_linker_0, # of connection points: 2
#     Edge 55, Type (0, 0), BuildingBlock: UVAHIK_clean_linker_0, # of connection points: 2
#     Edge 56, Type (0, 0), BuildingBlock: UVAHIK_clean_linker_0, # of connection points: 2
#     Edge 57, Type (0, 0), BuildingBlock: UVAHIK_clean_linker_0, # of connection points: 2
#     Edge 58, Type (0, 0), BuildingBlock: UVAHIK_clean_linker_0, # of connection points: 2
#     Edge 59, Type (0, 0), BuildingBlock: UVAHIK_clean_linker_0, # of connection points: 2
#     Edge 60, Type (0, 0), BuildingBlock: UVAHIK_clean_linker_0, # of connection points: 2
#     Edge 61, Type (0, 0), BuildingBlock: UVAHIK_clean_linker_0, # of connection points: 2
#     Edge 62, Type (0, 0), BuildingBlock: UVAHIK_clean_linker_0, # of connection points: 2
# Relax obj value: 0.312
# Max RMSD: 0.241
# Mean RMSD: 0.241
data_MOF--net-fng--node1-BEQFEK_clean_sbu_0--edge1-UVAHIK_clean_linker_0
_symmetry_space_group_name_H-M    P1
_symmetry_Int_Tables_number       1
_symmetry_cell_setting            triclinic
loop_
_symmetry_equiv_pos_as_xyz
'x, y, z'
_cell_length_a     98.073943
_cell_length_b     98.07247
_cell_length_c     22.259341
_cell_angle_alpha  90.000814
_cell_angle_beta   89.996893
_cell_angle_gamma 119.99781
loop_
_atom_site_label
_atom_site_type_symbol
_atom_site_fract_x
_atom_site_fract_y
_atom_site_fract_z
_atom_type_partial_charge
Co0 Co 0.10808 0.22267 0.05963 0.0
Co1 Co 0.10268 0.20779 0.18748 0.0
C2 C 0.07648 0.19699 0.09888 0.0
O3 O 0.08569 0.20665 0.06001 0.0
O4 O 0.0814 0.19624 0.15087 0.0
C5 C 0.10031 0.23688 0.96768 0.0
O6 O 0.0889 0.23397 0.00564 0.0
C7 C 0.09066 0.20451 0.30825 0.0
C8 C 0.10504 0.19703 0.35977 0.0
C9 C 0.09383 0.20162 0.36602 0.0
N10 N 0.09989 0.20221 0.26995 0.0
N11 N 0.10822 0.19739 0.30073 0.0
C12 C 0.0791 0.20944 0.28916 0.0
H13 H 0.07229 0.20236 0.24993 0.0
H14 H 0.08547 0.22195 0.27494 0.0
H15 H 0.07079 0.20785 0.32591 0.0
C16 C 0.12107 0.25201 0.13062 0.0
N17 N 0.11366 0.2362 0.12635 0.0
N18 N 0.11202 0.23009 0.18036 0.0
C19 C 0.11869 0.24193 0.22065 0.0
C20 C 0.12431 0.25609 0.19058 0.0
C21 C 0.12525 0.26289 0.07806 0.0
H22 H 0.13182 0.26005 0.04447 0.0
H23 H 0.11429 0.2611 0.05653 0.0
H24 H 0.1324 0.27541 0.09156 0.0
O25 O 0.12068 0.21204 0.05879 0.0
O26 O 0.11671 0.20114 0.14954 0.0
H27 H 0.12399 0.23008 0.29028 0.0
H28 H 0.13235 0.25093 0.302 0.0
C29 C 0.12189 0.2401 0.28507 0.0
H30 H 0.11168 0.23806 0.31282 0.0
H31 H 0.1166 0.1951 0.28182 0.0
O32 O 0.11108 0.23402 0.98347 0.0
C33 C 0.123 0.20384 0.09753 0.0
Co34 Co 0.77009 0.88211 0.04159 0.0
Co35 Co 0.78503 0.89099 0.16952 0.0
C36 C 0.79699 0.87746 0.07967 0.0
O37 O 0.78732 0.8773 0.04145 0.0
O38 O 0.79727 0.88206 0.13324 0.0
C39 C 0.75704 0.8599 0.9499 0.0
O40 O 0.76016 0.8518 0.98904 0.0
C41 C 0.7917 0.88478 0.29035 0.0
C42 C 0.79369 0.90499 0.34141 0.0
C43 C 0.79327 0.89073 0.34801 0.0
N44 N 0.79074 0.8948 0.25186 0.0
N45 N 0.79235 0.90708 0.28238 0.0
C46 C 0.79101 0.86978 0.27139 0.0
H47 H 0.80137 0.87273 0.24275 0.0
H48 H 0.78037 0.86266 0.24359 0.0
H49 H 0.79122 0.86283 0.31029 0.0
C50 C 0.7409 0.86469 0.11218 0.0
N51 N 0.75669 0.87331 0.10815 0.0
N52 N 0.7628 0.87702 0.16241 0.0
C53 C 0.75098 0.8708 0.20292 0.0
C54 C 0.73674 0.8628 0.17239 0.0
C55 C 0.73007 0.85991 0.05922 0.0
H56 H 0.73468 0.86956 0.02567 0.0
H57 H 0.72954 0.84944 0.03782 0.0
H58 H 0.718 0.85696 0.07255 0.0
O59 O 0.77913 0.90506 0.04157 0.0
O60 O 0.79093 0.91153 0.13075 0.0
H61 H 0.75984 0.88511 0.28179 0.0
H62 H 0.742 0.86655 0.2946 0.0
C63 C 0.75325 0.87247 0.26957 0.0
H64 H 0.76015 0.86694 0.28369 0.0
H65 H 0.79169 0.91645 0.26332 0.0
O66 O 0.75914 0.87332 0.96501 0.0
C67 C 0.78754 0.91537 0.08052 0.0
Co68 Co 0.1121 0.88425 0.03399 0.0
Co69 Co 0.10262 0.89099 0.15983 0.0
C70 C 0.11519 0.91546 0.06504 0.0
O71 O 0.11587 0.90585 0.02879 0.0
O72 O 0.11068 0.91155 0.11896 0.0
C73 C 0.13393 0.8933 0.9415 0.0
O74 O 0.1417 0.90499 0.97922 0.0
C75 C 0.11045 0.90429 0.27968 0.0
C76 C 0.08877 0.889 0.33076 0.0
C77 C 0.10422 0.90107 0.33728 0.0
N78 N 0.09938 0.89425 0.24144 0.0
N79 N 0.08631 0.8854 0.27193 0.0
C80 C 0.12664 0.91665 0.26067 0.0
H81 H 0.12591 0.92255 0.21934 0.0
H82 H 0.1338 0.91111 0.2498 0.0
H83 H 0.1326 0.92561 0.29638 0.0
C84 C 0.13112 0.87512 0.10897 0.0
N85 N 0.12162 0.88126 0.10235 0.0
N86 N 0.11703 0.88326 0.15561 0.0
C87 C 0.12318 0.87802 0.19781 0.0
C88 C 0.13257 0.87308 0.16975 0.0
C89 C 0.13809 0.87076 0.05781 0.0
H90 H 0.12859 0.86277 0.02676 0.0
H91 H 0.1462 0.88155 0.03245 0.0
H92 H 0.14476 0.86505 0.07345 0.0
O93 O 0.08916 0.86953 0.03609 0.0
O94 O 0.08225 0.87534 0.12355 0.0
H95 H 0.10574 0.87223 0.26677 0.0
H96 H 0.1192 0.86516 0.28093 0.0
C97 C 0.11813 0.87509 0.26227 0.0
H98 H 0.12583 0.88568 0.28913 0.0
H99 H 0.07599 0.87635 0.25309 0.0
O100 O 0.12095 0.8816 0.95826 0.0
C101 C 0.07869 0.86756 0.07454 0.0
Co102 Co 0.22148 0.10673 0.93541 0.0
Co103 Co 0.20664 0.1043 0.8091 0.0
C104 C 0.19478 0.07642 0.88965 0.0
O105 O 0.20464 0.0847 0.92989 0.0
O106 O 0.19434 0.08234 0.83935 0.0
C107 C 0.23411 0.09684 0.02902 0.0
O108 O 0.22932 0.08442 0.99438 0.0
C109 C 0.2023 0.09522 0.684 0.0
C110 C 0.19729 0.11274 0.64285 0.0
C111 C 0.20033 0.10071 0.62909 0.0
N112 N 0.20087 0.10386 0.72767 0.0
N113 N 0.19742 0.11401 0.70305 0.0
C114 C 0.20755 0.08347 0.69513 0.0
H115 H 0.21225 0.08468 0.74135 0.0
H116 H 0.21665 0.08491 0.66211 0.0
H117 H 0.1973 0.07143 0.68996 0.0
C118 C 0.25054 0.11906 0.86315 0.0
N119 N 0.23485 0.11282 0.86804 0.0
N120 N 0.22884 0.11242 0.81472 0.0
C121 C 0.24068 0.11873 0.77428 0.0
C122 C 0.25468 0.12284 0.80349 0.0
C123 C 0.26124 0.1214 0.91482 0.0
H124 H 0.25776 0.10982 0.93541 0.0
H125 H 0.27374 0.12702 0.90058 0.0
H126 H 0.25991 0.12879 0.94947 0.0
O127 O 0.21186 0.12014 0.94348 0.0
O128 O 0.2009 0.11811 0.85412 0.0
H129 H 0.25044 0.13276 0.69425 0.0
H130 H 0.23626 0.1125 0.68134 0.0
C131 C 0.23919 0.12274 0.71059 0.0
H132 H 0.22989 0.12595 0.70682 0.0
H133 H 0.1962 0.12248 0.72704 0.0
O134 O 0.23283 0.10841 0.0105 0.0
C135 C 0.20388 0.12351 0.90751 0.0
Co136 Co 0.88298 0.11166 0.94891 0.0
Co137 Co 0.89014 0.10285 0.82245 0.0
C138 C 0.91514 0.11733 0.91383 0.0
O139 O 0.90522 0.11718 0.95082 0.0
O140 O 0.91121 0.11252 0.8602 0.0
C141 C 0.89126 0.13364 0.04115 0.0
O142 O 0.90256 0.14204 0.00268 0.0
C143 C 0.90336 0.10885 0.7018 0.0
C144 C 0.88541 0.08827 0.65153 0.0
C145 C 0.89908 0.10266 0.64436 0.0
N146 N 0.89245 0.09885 0.74059 0.0
N147 N 0.88197 0.08636 0.71056 0.0
C148 C 0.91749 0.12405 0.72022 0.0
H149 H 0.92492 0.1214 0.7501 0.0
H150 H 0.91379 0.13123 0.74667 0.0
H151 H 0.9247 0.13083 0.68112 0.0
C152 C 0.87098 0.1284 0.87515 0.0
N153 N 0.87836 0.12002 0.88098 0.0
N154 N 0.88119 0.11629 0.82741 0.0
C155 C 0.87563 0.12223 0.78559 0.0
C156 C 0.86899 0.13008 0.81447 0.0
C157 C 0.86468 0.13333 0.92684 0.0
H158 H 0.85957 0.12381 0.96092 0.0
H159 H 0.8745 0.14391 0.94818 0.0
H160 H 0.85556 0.13616 0.9121 0.0
O161 O 0.86965 0.08865 0.94931 0.0
O162 O 0.8758 0.08227 0.86156 0.0
H163 H 0.87111 0.10795 0.70712 0.0
H164 H 0.87143 0.12625 0.6928 0.0
C165 C 0.8768 0.12058 0.7192 0.0
H166 H 0.88934 0.12639 0.70656 0.0
H167 H 0.87201 0.07695 0.72987 0.0
O168 O 0.88013 0.12023 0.02498 0.0
C169 C 0.8683 0.07836 0.91121 0.0
Co170 Co 0.88299 0.77098 0.9469 0.0
Co171 Co 0.89242 0.78507 0.81798 0.0
C172 C 0.87941 0.79825 0.90549 0.0
O173 O 0.87874 0.7886 0.94497 0.0
O174 O 0.88421 0.79811 0.8526 0.0
C175 C 0.8606 0.75873 0.03827 0.0
O176 O 0.85283 0.76218 -0.0012 0.0
C177 C 0.88628 0.79144 0.69688 0.0
C178 C 0.90609 0.79262 0.6455 0.0
C179 C 0.89204 0.79264 0.63912 0.0
N180 N 0.89621 0.7903 0.73529 0.0
N181 N 0.90825 0.79141 0.70458 0.0
C182 C 0.87156 0.7913 0.71603 0.0
H183 H 0.8749 0.80204 0.74284 0.0
H184 H 0.86446 0.78104 0.74566 0.0
H185 H 0.86444 0.79124 0.67726 0.0
C186 C 0.86453 0.74155 0.87856 0.0
N187 N 0.87383 0.75729 0.88138 0.0
N188 N 0.87779 0.76304 0.82668 0.0
C189 C 0.87108 0.75103 0.78711 0.0
C190 C 0.86246 0.73705 0.81874 0.0
C191 C 0.8591 0.73097 0.93233 0.0
H192 H 0.86869 0.73522 0.96605 0.0
H193 H 0.84897 0.73127 0.953 0.0
H194 H 0.85542 0.71863 0.92007 0.0
O195 O 0.90586 0.77925 0.94714 0.0
O196 O 0.91274 0.79035 0.85677 0.0
H197 H 0.88545 0.75921 0.70811 0.0
H198 H 0.86671 0.74152 0.69618 0.0
C199 C 0.8728 0.7529 0.72032 0.0
H200 H 0.86749 0.75992 0.70509 0.0
H201 H 0.9175 0.79052 0.72358 0.0
O202 O 0.87392 0.76046 0.02378 0.0
C203 C 0.91632 0.78703 0.90769 0.0
Co204 Co 0.7681 0.55373 0.40179 0.0
Co205 Co 0.76647 0.53796 0.52504 0.0
C206 C 0.73918 0.52433 0.44164 0.0
O207 O 0.74709 0.53502 0.40343 0.0
O208 O 0.74493 0.52411 0.49263 0.0
C209 C 0.75671 0.5648 0.30702 0.0
O210 O 0.74341 0.55743 0.33697 0.0
C211 C 0.7585 0.53205 0.65145 0.0
C212 C 0.77745 0.52816 0.68533 0.0
C213 C 0.76513 0.53029 0.70379 0.0
N214 N 0.76683 0.53146 0.6047 0.0
N215 N 0.7778 0.52859 0.62499 0.0
C216 C 0.74585 0.53629 0.64582 0.0
H217 H 0.74577 0.54073 0.60004 0.0
H218 H 0.74742 0.54523 0.67982 0.0
H219 H 0.73427 0.52562 0.65413 0.0
C220 C 0.77727 0.58138 0.47863 0.0
N221 N 0.77218 0.56596 0.47157 0.0
N222 N 0.77241 0.55975 0.52375 0.0
C223 C 0.77816 0.57128 0.56555 0.0
C224 C 0.78111 0.58522 0.53847 0.0
C225 C 0.77895 0.59225 0.42837 0.0
H226 H 0.76765 0.58732 0.40366 0.0
H227 H 0.78224 0.60417 0.44496 0.0
H228 H 0.78805 0.5931 0.3965 0.0
O229 O 0.78389 0.547 0.39225 0.0
O230 O 0.78201 0.53502 0.47901 0.0
H231 H 0.79337 0.58126 0.64266 0.0
H232 H 0.77359 0.56642 0.6594 0.0
C233 C 0.7834 0.56985 0.6273 0.0
H234 H 0.7872 0.56096 0.62788 0.0
H235 H 0.78626 0.52813 0.59801 0.0
O236 O 0.76903 0.56555 0.32903 0.0
C237 C 0.78803 0.53941 0.42702 0.0
Co238 Co 0.43848 0.21411 0.38 0.0
Co239 Co 0.45315 0.22751 0.50526 0.0
C240 C 0.4659 0.21187 0.42818 0.0
O241 O 0.45597 0.20985 0.38752 0.0
O242 O 0.46606 0.21829 0.47801 0.0
C243 C 0.42681 0.19113 0.28665 0.0
O244 O 0.43333 0.18459 0.31825 0.0
C245 C 0.45925 0.22623 0.63227 0.0
C246 C 0.46147 0.24853 0.66488 0.0
C247 C 0.46046 0.2346 0.68415 0.0
N248 N 0.45904 0.23463 0.58503 0.0
N249 N 0.46092 0.24817 0.60456 0.0
C250 C 0.45625 0.20971 0.6275 0.0
H251 H 0.45136 0.20466 0.58272 0.0
H252 H 0.44804 0.20214 0.66316 0.0
H253 H 0.46754 0.20984 0.63349 0.0
C254 C 0.4094 0.19801 0.4519 0.0
N255 N 0.42514 0.20712 0.44755 0.0
N256 N 0.43106 0.2129 0.50076 0.0
C257 C 0.41914 0.20778 0.54075 0.0
C258 C 0.40507 0.19813 0.51106 0.0
C259 C 0.39872 0.19068 0.39914 0.0
H260 H 0.40177 0.19966 0.3635 0.0
H261 H 0.40055 0.18121 0.38058 0.0
H262 H 0.38616 0.18567 0.41149 0.0
O263 O 0.44712 0.23693 0.36781 0.0
O264 O 0.45793 0.24625 0.45699 0.0
H265 H 0.42867 0.22516 0.61057 0.0
H266 H 0.4098 0.20839 0.62898 0.0
C267 C 0.42114 0.21223 0.60588 0.0
H268 H 0.42685 0.20644 0.62897 0.0
H269 H 0.46069 0.25667 0.57706 0.0
O270 O 0.42701 0.20336 0.30666 0.0
C271 C 0.45475 0.2484 0.4036 0.0
Co272 Co 0.77957 0.22088 0.36786 0.0
Co273 Co 0.76905 0.22644 0.49321 0.0
C274 C 0.78216 0.25177 0.40203 0.0
O275 O 0.78356 0.24266 0.36519 0.0
O276 O 0.7769 0.24719 0.45477 0.0
C277 C 0.80186 0.23015 0.27528 0.0
O278 O 0.8096 0.2423 0.31104 0.0
C279 C 0.7731 0.23935 0.61387 0.0
C280 C 0.75253 0.22044 0.66114 0.0
C281 C 0.76627 0.23466 0.67017 0.0
N282 N 0.76408 0.22817 0.57402 0.0
N283 N 0.75157 0.2171 0.60217 0.0
C284 C 0.78795 0.25414 0.59751 0.0
H285 H 0.78512 0.2608 0.56442 0.0
H286 H 0.79628 0.25119 0.5753 0.0
H287 H 0.79358 0.26177 0.63713 0.0
C288 C 0.79716 0.21018 0.4435 0.0
N289 N 0.78831 0.21704 0.43682 0.0
N290 N 0.78403 0.21945 0.49001 0.0
C291 C 0.79008 0.21417 0.53245 0.0
C292 C 0.79855 0.20809 0.50439 0.0
C293 C 0.80243 0.20405 0.39229 0.0
H294 H 0.79279 0.19825 0.35898 0.0
H295 H 0.81256 0.21408 0.36967 0.0
H296 H 0.80603 0.19554 0.40761 0.0
O297 O 0.75666 0.20618 0.36514 0.0
O298 O 0.74933 0.2105 0.4543 0.0
H299 H 0.77465 0.20773 0.60838 0.0
H300 H 0.79363 0.20978 0.62549 0.0
C301 C 0.78744 0.21452 0.59857 0.0
H302 H 0.79203 0.22683 0.61282 0.0
H303 H 0.74282 0.20688 0.58171 0.0
O304 O 0.78899 0.21854 0.29339 0.0
C305 C 0.74604 0.20339 0.40392 0.0
Co306 Co 0.88513 0.44284 0.26482 0.0
Co307 Co 0.87003 0.43967 0.13907 0.0
C308 C 0.85742 0.41257 0.22186 0.0
O309 O 0.86732 0.42123 0.26132 0.0
O310 O 0.85728 0.41781 0.16975 0.0
C311 C 0.8973 0.43207 0.35738 0.0
O312 O 0.89115 0.41918 0.32479 0.0
C313 C 0.8642 0.43143 0.01249 0.0
C314 C 0.86122 0.45088 0.97771 0.0
C315 C 0.86289 0.43825 0.95982 0.0
N316 N 0.86389 0.44002 0.05888 0.0
N317 N 0.86153 0.45127 0.03802 0.0
C318 C 0.86769 0.41828 0.01882 0.0
H319 H 0.87258 0.41848 0.064 0.0
H320 H 0.87603 0.41899 0.98363 0.0
H321 H 0.85659 0.40691 0.01314 0.0
C322 C 0.91392 0.45448 0.19229 0.0
N323 N 0.89821 0.44801 0.19686 0.0
N324 N 0.89218 0.44732 0.14336 0.0
C325 C 0.90404 0.45374 0.10298 0.0
C326 C 0.91814 0.45831 0.13271 0.0
C327 C 0.92472 0.45834 0.24497 0.0
H328 H 0.92181 0.46467 0.27935 0.0
H329 H 0.92291 0.44724 0.2654 0.0
H330 H 0.93726 0.46571 0.23189 0.0
O331 O 0.87697 0.4575 0.27288 0.0
O332 O 0.86533 0.45419 0.18427 0.0
H333 H 0.89393 0.46061 0.03199 0.0
H334 H 0.91332 0.46395 0.01511 0.0
C335 C 0.90204 0.45593 0.03759 0.0
H336 H 0.89707 0.44444 0.01457 0.0
H337 H 0.86134 0.45994 0.06462 0.0
O338 O 0.8967 0.44399 0.33845 0.0
C339 C 0.86897 0.46058 0.23596 0.0
Co340 Co 0.55147 0.44286 0.27227 0.0
Co341 Co 0.55775 0.43388 0.14466 0.0
C342 C 0.58197 0.44422 0.23876 0.0
O343 O 0.57251 0.44513 0.27516 0.0
O344 O 0.57827 0.44053 0.18404 0.0
C345 C 0.5621 0.46485 0.36454 0.0
O346 O 0.57346 0.47227 0.32521 0.0
C347 C 0.57135 0.43932 0.02472 0.0
C348 C 0.55222 0.42016 0.97256 0.0
C349 C 0.56685 0.4336 0.9668 0.0
N350 N 0.55971 0.42998 0.06247 0.0
N351 N 0.54848 0.4183 0.0313 0.0
C352 C 0.5864 0.45341 0.04463 0.0
H353 H 0.59297 0.44936 0.07313 0.0
H354 H 0.58384 0.46116 0.07299 0.0
H355 H 0.59399 0.46009 0.00614 0.0
C356 C 0.54311 0.46293 0.20105 0.0
N357 N 0.54897 0.45315 0.20556 0.0
N358 N 0.55157 0.44951 0.15147 0.0
C359 C 0.54746 0.45698 0.1106 0.0
C360 C 0.54196 0.4657 0.1407 0.0
C361 C 0.53707 0.46796 0.25333 0.0
H362 H 0.53129 0.45817 0.28607 0.0
H363 H 0.54714 0.47801 0.27612 0.0
H364 H 0.52857 0.47164 0.23891 0.0
O365 O 0.5359 0.42036 0.26954 0.0
O366 O 0.54117 0.41371 0.18061 0.0
H367 H 0.5416 0.4432 0.0301 0.0
H368 H 0.54468 0.46281 0.01865 0.0
C369 C 0.54863 0.45569 0.044 0.0
H370 H 0.56106 0.46013 0.03197 0.0
H371 H 0.53791 0.40954 0.04968 0.0
O372 O 0.55001 0.452 0.34922 0.0
C373 C 0.53339 0.41005 0.22966 0.0
Co374 Co 0.5492 0.10266 0.30272 0.0
Co375 Co 0.55849 0.11767 0.17486 0.0
C376 C 0.54633 0.13069 0.26648 0.0
O377 O 0.54553 0.1206 0.30407 0.0
O378 O 0.55079 0.13084 0.21277 0.0
C379 C 0.52703 0.09038 0.39453 0.0
O380 O 0.51928 0.09396 0.35538 0.0
C381 C 0.55247 0.12488 0.05449 0.0
C382 C 0.57245 0.12647 0.00296 0.0
C383 C 0.55838 0.12646 0.99673 0.0
N384 N 0.56232 0.12352 0.09263 0.0
N385 N 0.57447 0.1249 0.06185 0.0
C386 C 0.53766 0.12454 0.07384 0.0
H387 H 0.5408 0.13458 0.10454 0.0
H388 H 0.53012 0.11362 0.09963 0.0
H389 H 0.53106 0.12552 0.03524 0.0
C390 C 0.5308 0.07374 0.23147 0.0
N391 N 0.53978 0.0895 0.23586 0.0
N392 N 0.54367 0.09566 0.18171 0.0
C393 C 0.53727 0.08392 0.14097 0.0
C394 C 0.52893 0.06968 0.17117 0.0
C395 C 0.52578 0.06281 0.28415 0.0
H396 H 0.53557 0.06696 0.31697 0.0
H397 H 0.51572 0.06287 0.30669 0.0
H398 H 0.52214 0.05059 0.27033 0.0
O399 O 0.57202 0.11076 0.30193 0.0
O400 O 0.57875 0.12214 0.21202 0.0
H401 H 0.55211 0.09255 0.06331 0.0
H402 H 0.53339 0.07501 0.0492 0.0
C403 C 0.53939 0.08623 0.0744 0.0
H404 H 0.53424 0.09339 0.05931 0.0
H405 H 0.5837 0.12392 0.0806 0.0
O406 O 0.54017 0.0918 0.37928 0.0
C407 C 0.58239 0.11855 0.26224 0.0
Co408 Co 0.43988 0.89119 0.71871 0.0
Co409 Co 0.43741 0.87426 0.84037 0.0
C410 C 0.40945 0.86416 0.76018 0.0
O411 O 0.41771 0.87494 0.72278 0.0
O412 O 0.41546 0.86238 0.80815 0.0
C413 C 0.43117 0.90472 0.62309 0.0
O414 O 0.41778 0.89889 0.6524 0.0
C415 C 0.42918 0.86837 0.96673 0.0
C416 C 0.4465 0.86199 -0.00033 0.0
C417 C 0.43516 0.86553 0.01877 0.0
N418 N 0.43699 0.86705 0.91964 0.0
N419 N 0.44696 0.86272 0.93935 0.0
C420 C 0.41774 0.87422 0.96173 0.0
H421 H 0.41831 0.87922 0.91645 0.0
H422 H 0.42006 0.8832 0.99663 0.0
H423 H 0.40566 0.86422 0.96897 0.0
C424 C 0.45214 0.91895 0.79811 0.0
N425 N 0.44607 0.90341 0.78919 0.0
N426 N 0.44571 0.89655 0.84051 0.0
C427 C 0.45213 0.90774 0.88346 0.0
C428 C 0.45606 0.92215 0.85824 0.0
C429 C 0.45397 0.93035 0.74979 0.0
H430 H 0.46271 0.93107 0.71643 0.0
H431 H 0.44258 0.92597 0.72617 0.0
H432 H 0.45781 0.94225 0.76811 0.0
O433 O 0.45273 0.88102 0.70543 0.0
O434 O 0.45153 0.86956 0.79306 0.0
H435 H 0.46719 0.9162 0.96141 0.0
H436 H 0.44693 0.90261 0.97689 0.0
C437 C 0.45666 0.90533 0.94516 0.0
H438 H 0.45934 0.89564 0.94515 0.0
H439 H 0.45488 0.86141 0.91207 0.0
O440 O 0.44255 0.90386 0.64635 0.0
C441 C 0.45649 0.87297 0.73933 0.0
Co442 Co 0.09917 0.54769 0.69806 0.0
Co443 Co 0.11565 0.55703 0.82293 0.0
C444 C 0.12663 0.54353 0.72784 0.0
O445 O 0.11629 0.54288 0.69188 0.0
O446 O 0.12761 0.54848 0.7813 0.0
C447 C 0.08501 0.52599 0.605 0.0
O448 O 0.08901 0.51776 0.64 0.0
C449 C 0.12186 0.54991 0.94291 0.0
C450 C 0.12919 0.57222 0.99101 0.0
C451 C 0.12564 0.55677 -0.00059 0.0
N452 N 0.12267 0.56067 0.90356 0.0
N453 N 0.12743 0.57409 0.93221 0.0
C454 C 0.11768 0.53349 0.92583 0.0
H455 H 0.12401 0.53378 0.88416 0.0
H456 H 0.10491 0.52639 0.91615 0.0
H457 H 0.12079 0.52775 0.96205 0.0
C458 C 0.07104 0.52974 0.77416 0.0
N459 N 0.08673 0.53871 0.76714 0.0
N460 N 0.09347 0.54305 0.82025 0.0
C461 C 0.08215 0.53723 0.86282 0.0
C462 C 0.06768 0.52839 0.83501 0.0
C463 C 0.05956 0.52318 0.72331 0.0
H464 H 0.06181 0.51487 0.6973 0.0
H465 H 0.0472 0.51683 0.7393 0.0
H466 H 0.06133 0.53288 0.69277 0.0
O467 O 0.10836 0.57082 0.69854 0.0
O468 O 0.12048 0.57739 0.78709 0.0
H469 H 0.07384 0.5413 0.94717 0.0
H470 H 0.08736 0.53415 0.95341 0.0
C471 C 0.08462 0.54211 0.9275 0.0
H472 H 0.09441 0.55437 0.93214 0.0
H473 H 0.12872 0.58429 0.91219 0.0
O474 O 0.08701 0.53911 0.62373 0.0
C475 C 0.11673 0.58116 0.73756 0.0
Co476 Co 0.4433 0.55297 0.74111 0.0
Co477 Co 0.43462 0.55945 0.86876 0.0
C478 C 0.44688 0.58433 0.77676 0.0
O479 O 0.44719 0.5747 0.73946 0.0
O480 O 0.44267 0.58033 0.83089 0.0
C481 C 0.46534 0.56264 0.64897 0.0
O482 O 0.47322 0.57391 0.68822 0.0
C483 C 0.44041 0.57276 0.98911 0.0
C484 C 0.42075 0.554 0.04069 0.0
C485 C 0.43456 0.5683 0.04689 0.0
N486 N 0.43076 0.5614 0.95099 0.0
N487 N 0.4188 0.55041 0.98181 0.0
C488 C 0.45489 0.58753 0.96969 0.0
H489 H 0.45127 0.5946 0.94208 0.0
H490 H 0.46226 0.58461 0.94063 0.0
H491 H 0.46183 0.5948 0.00841 0.0
C492 C 0.46225 0.54308 0.81206 0.0
N493 N 0.45287 0.54941 0.80772 0.0
N494 N 0.4493 0.55203 0.86187 0.0
C495 C 0.45639 0.54745 0.90264 0.0
C496 C 0.46482 0.54165 0.87237 0.0
C497 C 0.46727 0.53711 0.75955 0.0
H498 H 0.45759 0.53167 0.72621 0.0
H499 H 0.47754 0.54716 0.73767 0.0
H500 H 0.47062 0.52833 0.77359 0.0
O501 O 0.42052 0.53827 0.74289 0.0
O502 O 0.41417 0.54404 0.83148 0.0
H503 H 0.44276 0.54228 0.98329 0.0
H504 H 0.46194 0.5443 0.99458 0.0
C505 C 0.45527 0.54877 0.96925 0.0
H506 H 0.46031 0.5613 0.98115 0.0
H507 H 0.40977 0.54006 0.96308 0.0
O508 O 0.45215 0.55101 0.66426 0.0
C509 C 0.41029 0.53634 0.78229 0.0
Co510 Co 0.55306 0.77426 0.59443 0.0
Co511 Co 0.53658 0.76757 0.46931 0.0
C512 C 0.52578 0.74258 0.56162 0.0
O513 O 0.53614 0.75227 0.59751 0.0
O514 O 0.52459 0.74659 0.50842 0.0
C515 C 0.56694 0.76612 0.68737 0.0
O516 O 0.5632 0.7541 0.65156 0.0
C517 C 0.52815 0.75428 0.34899 0.0
C518 C 0.52534 0.77244 0.30108 0.0
C519 C 0.52563 0.75859 0.29252 0.0
N520 N 0.52975 0.76533 0.38848 0.0
N521 N 0.52764 0.77594 0.35994 0.0
C522 C 0.52895 0.73992 0.36596 0.0
H523 H 0.51916 0.73272 0.39731 0.0
H524 H 0.54006 0.74335 0.39044 0.0
H525 H 0.52787 0.73258 0.32634 0.0
C526 C 0.58132 0.78559 0.51843 0.0
N527 N 0.56561 0.77856 0.52531 0.0
N528 N 0.55883 0.77576 0.47219 0.0
C529 C 0.57013 0.78101 0.42957 0.0
C530 C 0.58473 0.78739 0.45751 0.0
C531 C 0.59278 0.79185 0.56944 0.0
H532 H 0.58875 0.79733 0.6034 0.0
H533 H 0.59327 0.78193 0.59123 0.0
H534 H 0.60476 0.80066 0.55396 0.0
O535 O 0.54341 0.78763 0.59706 0.0
O536 O 0.53159 0.78285 0.50794 0.0
H537 H 0.56029 0.78598 0.35239 0.0
H538 H 0.57794 0.78514 0.33632 0.0
C539 C 0.56701 0.77998 0.36339 0.0
H540 H 0.55991 0.76748 0.35048 0.0
H541 H 0.5286 0.786 0.38006 0.0
O542 O 0.56498 0.7773 0.66908 0.0
C543 C 0.53507 0.7898 0.55866 0.0
Co544 Co 0.21636 0.77889 0.62986 0.0
Co545 Co 0.22173 0.76871 0.50296 0.0
C546 C 0.24755 0.78289 0.59295 0.0
O547 O 0.23845 0.7841 0.63029 0.0
O548 O 0.24273 0.77716 0.54094 0.0
C549 C 0.22526 0.80105 0.72205 0.0
O550 O 0.23667 0.80923 0.6837 0.0
C551 C 0.23485 0.7752 0.38256 0.0
C552 C 0.21738 0.75448 0.33155 0.0
C553 C 0.23079 0.76911 0.32492 0.0
N554 N 0.22406 0.7649 0.42097 0.0
N555 N 0.21387 0.75233 0.39051 0.0
C556 C 0.24863 0.79061 0.40152 0.0
H557 H 0.25566 0.78837 0.43501 0.0
H558 H 0.24443 0.79793 0.42396 0.0
H559 H 0.25637 0.79709 0.36308 0.0
C560 C 0.20482 0.79616 0.55674 0.0
N561 N 0.21173 0.78732 0.56215 0.0
N562 N 0.21366 0.78288 0.5085 0.0
C563 C 0.20776 0.7886 0.46715 0.0
C564 C 0.20206 0.79725 0.49638 0.0
C565 C 0.19961 0.80208 0.60881 0.0
H566 H 0.19386 0.79265 0.64297 0.0
H567 H 0.21008 0.81209 0.62988 0.0
H568 H 0.19132 0.80607 0.59464 0.0
O569 O 0.20266 0.75577 0.63129 0.0
O570 O 0.20658 0.74849 0.54123 0.0
H571 H 0.20188 0.77275 0.39276 0.0
H572 H 0.20065 0.79011 0.37574 0.0
C573 C 0.20725 0.78556 0.40103 0.0
H574 H 0.21939 0.79161 0.38336 0.0
H575 H 0.20406 0.74269 0.40949 0.0
O576 O 0.21394 0.78774 0.70595 0.0
C577 C 0.19995 0.74512 0.59261 0.0
Co578 Co 0.21575 0.44049 0.60584 0.0
Co579 Co 0.22913 0.45615 0.48186 0.0
C580 C 0.21154 0.4668 0.55826 0.0
O581 O 0.21018 0.45709 0.59878 0.0
O582 O 0.21826 0.46756 0.50852 0.0
C583 C 0.19299 0.42775 0.70002 0.0
O584 O 0.18583 0.43375 0.66917 0.0
C585 C 0.22748 0.46196 0.35493 0.0
C586 C 0.25064 0.46635 0.32276 0.0
C587 C 0.2362 0.46403 0.30321 0.0
N588 N 0.23622 0.46256 0.40233 0.0
N589 N 0.25023 0.46571 0.38308 0.0
C590 C 0.21048 0.45743 0.35937 0.0
H591 H 0.20561 0.45214 0.40389 0.0
H592 H 0.20347 0.44902 0.32331 0.0
H593 H 0.20948 0.46813 0.35387 0.0
C594 C 0.20118 0.41172 0.53254 0.0
N595 N 0.20972 0.42747 0.53778 0.0
N596 N 0.21573 0.43374 0.48522 0.0
C597 C 0.21139 0.42201 0.44476 0.0
C598 C 0.20192 0.40772 0.47345 0.0
C599 C 0.1937 0.40077 0.5845 0.0
H600 H 0.20251 0.40384 0.6208 0.0
H601 H 0.18399 0.4023 0.60248 0.0
H602 H 0.189 0.38829 0.57153 0.0
O603 O 0.23862 0.45017 0.61842 0.0
O604 O 0.24808 0.46245 0.53163 0.0
H605 H 0.22903 0.43302 0.37646 0.0
H606 H 0.21386 0.41332 0.35775 0.0
C607 C 0.21629 0.42438 0.38011 0.0
H608 H 0.20958 0.42891 0.35559 0.0
H609 H 0.2591 0.4663 0.41076 0.0
O610 O 0.20542 0.42854 0.67898 0.0
C611 C 0.25018 0.45895 0.58458 0.0
C612 C 0.08983 0.22048 0.42859 0.0
C613 C 0.08958 0.20607 0.42333 0.0
C614 C 0.08814 0.22584 0.48458 0.0
C615 C 0.09866 0.23863 0.61128 0.0
H616 H 0.06933 0.21183 0.73357 0.0
C617 C 0.11121 0.24374 0.8638 0.0
C618 C 0.09878 0.23998 0.90396 0.0
C619 C 0.10867 0.24315 0.80197 0.0
C620 C 0.0774 0.21958 0.69962 0.0
H621 H 0.08705 0.18583 0.47195 0.0
H622 H 0.08393 0.19512 0.57023 0.0
H623 H 0.06616 0.20239 0.63015 0.0
H624 H 0.07434 0.23406 0.91118 0.0
H625 H 0.0699 0.23284 0.80296 0.0
H626 H 0.11039 0.25549 0.68142 0.0
C627 C 0.08526 0.20217 0.53083 0.0
C628 C 0.07566 0.21411 0.6407 0.0
C629 C 0.08711 0.19688 0.47481 0.0
C630 C 0.08414 0.23694 0.88131 0.0
C631 C 0.08155 0.23617 0.81944 0.0
C632 C 0.10051 0.24403 0.67037 0.0
C633 C 0.08613 0.21687 0.53631 0.0
C634 C 0.08651 0.22343 0.59639 0.0
C635 C 0.09363 0.23866 0.77935 0.0
C636 C 0.09012 0.23439 0.71531 0.0
H637 H 0.09212 0.22805 0.3901 0.0
H638 H 0.08887 0.23721 0.4877 0.0
H639 H 0.10725 0.24601 0.57796 0.0
H640 H 0.12265 0.24625 0.88002 0.0
H641 H 0.11817 0.24507 0.772 0.0
C642 C 0.77716 0.867 0.41123 0.0
C643 C 0.79023 0.88222 0.40544 0.0
C644 C 0.77246 0.86 0.46766 0.0
C645 C 0.75864 0.85684 0.59303 0.0
H646 H 0.78697 0.85909 0.7191 0.0
C647 C 0.75049 0.86328 0.84464 0.0
C648 C 0.7551 0.85551 0.88584 0.0
C649 C 0.75206 0.86181 0.78302 0.0
C650 C 0.77885 0.85811 0.6841 0.0
H651 H 0.80884 0.90193 0.45345 0.0
H652 H 0.80076 0.88958 0.55251 0.0
H653 H 0.79663 0.86582 0.61596 0.0
H654 H 0.76378 0.83912 0.89491 0.0
H655 H 0.76674 0.8368 0.78711 0.0
H656 H 0.74109 0.84994 0.66174 0.0
C657 C 0.79427 0.88301 0.51325 0.0
C658 C 0.78442 0.86208 0.62533 0.0
C659 C 0.79887 0.89009 0.45678 0.0
C660 C 0.76015 0.84528 0.86424 0.0
C661 C 0.76193 0.844 0.80263 0.0
C662 C 0.75313 0.85307 0.65194 0.0
C663 C 0.78077 0.86809 0.51927 0.0
C664 C 0.77445 0.86181 0.57958 0.0
C665 C 0.75842 0.85269 0.76169 0.0
C666 C 0.76329 0.85401 0.69816 0.0
H667 H 0.77 0.86082 0.37273 0.0
H668 H 0.76201 0.84849 0.4712 0.0
H669 H 0.75075 0.85666 0.55859 0.0
H670 H 0.7465 0.87117 0.86005 0.0
H671 H 0.74933 0.8687 0.75235 0.0
C672 C 0.12986 0.88308 0.8363 0.0
C673 C 0.13806 0.89549 0.87709 0.0
C674 C 0.13117 0.886 0.77458 0.0
C675 C 0.13603 0.91699 0.67496 0.0
H676 H 0.13591 0.88949 0.54956 0.0
C677 C 0.12745 0.90706 0.40172 0.0
C678 C 0.11266 0.90593 0.39519 0.0
C679 C 0.13414 0.90878 0.45849 0.0
C680 C 0.13617 0.89743 0.58398 0.0
H681 H 0.1551 0.92042 0.88511 0.0
H682 H 0.1572 0.92549 0.77729 0.0
H683 H 0.14218 0.88605 0.65281 0.0
H684 H 0.09355 0.90627 0.44249 0.0
H685 H 0.10536 0.90951 0.54203 0.0
H686 H 0.12928 0.92787 0.60666 0.0
C687 C 0.14972 0.91356 0.79319 0.0
C688 C 0.13966 0.89539 0.64296 0.0
C689 C 0.14856 0.91061 0.85486 0.0
C690 C 0.10502 0.90726 0.44627 0.0
C691 C 0.1118 0.90917 0.50307 0.0
C692 C 0.13234 0.91889 0.61613 0.0
C693 C 0.14061 0.90139 0.75271 0.0
C694 C 0.13932 0.90496 0.68914 0.0
C695 C 0.12621 0.90949 0.50977 0.0
C696 C 0.13208 0.90892 0.57037 0.0
H697 H 0.12175 0.87129 0.85211 0.0
H698 H 0.12397 0.87642 0.74429 0.0
H699 H 0.13551 0.92441 0.70988 0.0
H700 H 0.1335 0.90569 0.36364 0.0
H701 H 0.14527 0.90902 0.46253 0.0
C702 C 0.20176 0.08294 0.55112 0.0
C703 C 0.20515 0.09801 0.5695 0.0
C704 C 0.20768 0.08092 0.49673 0.0
C705 C 0.23866 0.10319 0.3836 0.0
H706 H 0.21032 0.071 0.27264 0.0
C707 C 0.24319 0.10953 0.12925 0.0
C708 C 0.23761 0.09607 0.09298 0.0
C709 C 0.24301 0.10821 0.19163 0.0
C710 C 0.21854 0.0798 0.30357 0.0
H711 H 0.21698 0.12271 0.54494 0.0
H712 H 0.22697 0.11918 0.4498 0.0
H713 H 0.20162 0.07136 0.37476 0.0
H714 H 0.22897 0.07092 0.09321 0.0
H715 H 0.22865 0.06865 0.20248 0.0
H716 H 0.2553 0.11208 0.31142 0.0
C717 C 0.22009 0.10895 0.47785 0.0
C718 C 0.21352 0.08003 0.36205 0.0
C719 C 0.21415 0.11094 0.5319 0.0
C720 C 0.23323 0.0815 0.12003 0.0
C721 C 0.23296 0.08016 0.18256 0.0
C722 C 0.24367 0.10297 0.32513 0.0
C723 C 0.21709 0.09397 0.45998 0.0
C724 C 0.22332 0.09208 0.40187 0.0
C725 C 0.23721 0.0934 0.21893 0.0
C726 C 0.23345 0.09162 0.28389 0.0
H727 H 0.1946 0.07273 0.57879 0.0
H728 H 0.20509 0.06922 0.48383 0.0
H729 H 0.24659 0.11241 0.41387 0.0
H730 H 0.24678 0.12094 0.10964 0.0
H731 H 0.24629 0.11863 0.21836 0.0
C732 C 0.90487 0.10298 0.53522 0.0
C733 C 0.90427 0.111 0.58642 0.0
C734 C 0.90685 0.10976 0.47834 0.0
C735 C 0.91695 0.13031 0.36488 0.0
H736 H 0.88502 0.14161 0.33072 0.0
C737 C 0.90882 0.14783 0.12774 0.0
C738 C 0.89361 0.13758 0.10568 0.0
C739 C 0.91188 0.1487 0.1893 0.0
C740 C 0.89411 0.13869 0.33987 0.0
H741 H 0.90529 0.1324 0.61835 0.0
H742 H 0.90872 0.14417 0.51922 0.0
H743 H 0.88852 0.1351 0.43356 0.0
H744 H 0.86942 0.12138 0.13088 0.0
H745 H 0.87472 0.12317 0.23859 0.0
H746 H 0.92219 0.13341 0.27085 0.0
C747 C 0.90791 0.13278 0.52318 0.0
C748 C 0.89618 0.13505 0.39859 0.0
C749 C 0.90614 0.1261 0.58 0.0
C750 C 0.88126 0.12932 0.14661 0.0
C751 C 0.88429 0.13038 0.20823 0.0
C752 C 0.91505 0.13418 0.30631 0.0
C753 C 0.90791 0.12452 0.47176 0.0
C754 C 0.90734 0.13045 0.41131 0.0
C755 C 0.89973 0.13956 0.22983 0.0
C756 C 0.90334 0.13802 0.29308 0.0
H757 H 0.90322 0.09124 0.53901 0.0
H758 H 0.90663 0.10307 0.43927 0.0
H759 H 0.92565 0.12684 0.37365 0.0
H760 H 0.9186 0.15436 0.09734 0.0
H761 H 0.92386 0.15597 0.20502 0.0
C762 C 0.84598 0.76198 0.1235 0.0
C763 C 0.85592 0.75658 0.10198 0.0
C764 C 0.84448 0.76349 0.18516 0.0
C765 C 0.85267 0.75356 0.33556 0.0
H766 H 0.86695 0.79731 0.37351 0.0
C767 C 0.86806 0.77699 0.57665 0.0
C768 C 0.88346 0.78978 0.58199 0.0
C769 C 0.86082 0.77255 0.52057 0.0
C770 C 0.86278 0.78503 0.36359 0.0
H771 H 0.87079 0.74704 0.12771 0.0
H772 H 0.86797 0.74942 0.23542 0.0
H773 H 0.85987 0.788 0.27016 0.0
H774 H 0.90328 0.80813 0.53357 0.0
H775 H 0.89053 0.80048 0.43505 0.0
H776 H 0.85624 0.75075 0.4285 0.0
C777 C 0.86146 0.75262 0.20473 0.0
C778 C 0.85859 0.77966 0.30471 0.0
C779 C 0.86314 0.75133 0.14311 0.0
C780 C 0.89131 0.79838 0.53057 0.0
C781 C 0.884 0.79404 0.47444 0.0
C782 C 0.85666 0.75888 0.39458 0.0
C783 C 0.85267 0.75935 0.22615 0.0
C784 C 0.85398 0.76401 0.2899 0.0
C785 C 0.86884 0.78083 0.46884 0.0
C786 C 0.86222 0.77477 0.4087 0.0
H787 H 0.84024 0.76611 0.09284 0.0
H788 H 0.83755 0.76859 0.20074 0.0
H789 H 0.84913 0.74144 0.32517 0.0
H790 H 0.86189 0.76985 0.61523 0.0
H791 H 0.84914 0.76232 0.51736 0.0
C792 C 0.74272 0.56057 0.20929 0.0
C793 C 0.75669 0.56847 0.24286 0.0
C794 C 0.74334 0.56016 0.14665 0.0
C795 C 0.77059 0.55934 0.04003 0.0
H796 H 0.74076 0.55609 0.91861 0.0
C797 C 0.7772 0.54573 0.79618 0.0
C798 C 0.76355 0.53527 0.76455 0.0
C799 C 0.77612 0.55152 0.85191 0.0
C800 C 0.74908 0.55684 0.95227 0.0
H801 H 0.78196 0.58399 0.23758 0.0
H802 H 0.783 0.58352 0.12827 0.0
H803 H 0.73948 0.56529 0.0198 0.0
H804 H 0.73806 0.52242 0.76638 0.0
H805 H 0.73611 0.53225 0.86543 0.0
H806 H 0.77985 0.55039 0.97428 0.0
C807 C 0.77164 0.57725 0.15027 0.0
C808 C 0.74842 0.5622 0.00988 0.0
C809 C 0.77104 0.57756 0.21276 0.0
C810 C 0.74874 0.53056 0.7899 0.0
C811 C 0.74765 0.53626 0.84625 0.0
C812 C 0.77118 0.55391 0.98297 0.0
C813 C 0.75793 0.56773 0.11697 0.0
C814 C 0.7592 0.56352 0.05423 0.0
C815 C 0.76135 0.54681 0.87782 0.0
C816 C 0.76047 0.5526 0.93837 0.0
H817 H 0.73147 0.55353 0.23133 0.0
H818 H 0.73258 0.55276 0.1221 0.0
H819 H 0.77875 0.55974 0.07374 0.0
H820 H 0.78876 0.54979 0.7771 0.0
H821 H 0.7869 0.55986 0.87442 0.0
C822 C 0.43132 0.18139 0.18952 0.0
C823 C 0.42314 0.1872 0.22274 0.0
C824 C 0.43183 0.18246 0.12689 0.0
C825 C 0.43207 0.21035 0.02065 0.0
H826 H 0.43673 0.18468 0.89899 0.0
C827 C 0.44497 0.23067 0.77686 0.0
C828 C 0.4559 0.22816 0.74528 0.0
C829 C 0.43948 0.22375 0.83274 0.0
C830 C 0.43559 0.192 0.93275 0.0
H831 H 0.40719 0.19643 0.21708 0.0
H832 H 0.40773 0.1979 0.10774 0.0
H833 H 0.42748 0.17383 -0.00026 0.0
H834 H 0.46996 0.21677 0.74754 0.0
H835 H 0.46057 0.20486 0.84677 0.0
H836 H 0.44062 0.22866 0.95534 0.0
C837 C 0.41418 0.19304 0.12994 0.0
C838 C 0.43019 0.18575 0.99009 0.0
C839 C 0.41382 0.19214 0.19241 0.0
C840 C 0.46144 0.21877 0.77097 0.0
C841 C 0.45599 0.21189 0.82741 0.0
C842 C 0.43751 0.21657 0.96385 0.0
C843 C 0.42403 0.18921 0.09696 0.0
C844 C 0.42835 0.19489 0.03448 0.0
C845 C 0.44494 0.21433 0.85878 0.0
C846 C 0.4393 0.20749 0.91919 0.0
H847 H 0.43856 0.17747 0.21187 0.0
H848 H 0.43947 0.17937 0.1026 0.0
H849 H 0.43127 0.21787 0.05442 0.0
H850 H 0.44029 0.23763 0.7576 0.0
H851 H 0.43075 0.22563 0.8552 0.0
C852 C 0.76448 0.23941 0.77876 0.0
C853 C 0.7737 0.24012 0.72944 0.0
C854 C 0.77033 0.24099 0.83704 0.0
C855 C 0.77952 0.22965 0.94661 0.0
H856 H 0.82261 0.25651 -0.00072 0.0
C857 C 0.79802 0.21843 0.17316 0.0
C858 C 0.80526 0.23175 0.21038 0.0
C859 C 0.79742 0.22017 0.11122 0.0
C860 C 0.81055 0.24894 0.9851 0.0
H861 H 0.79639 0.2434 0.70217 0.0
H862 H 0.80656 0.24613 0.80358 0.0
H863 H 0.81457 0.26032 0.8994 0.0
H864 H 0.81902 0.25727 0.21167 0.0
H865 H 0.81765 0.26029 0.10372 0.0
H866 H 0.77527 0.21849 0.03211 0.0
C867 C 0.79499 0.24475 0.79742 0.0
C868 C 0.80596 0.25109 0.92798 0.0
C869 C 0.78916 0.24326 0.73915 0.0
C870 C 0.81331 0.24678 0.18407 0.0
C871 C 0.81254 0.24852 0.1221 0.0
C872 C 0.78408 0.22751 0.00338 0.0
C873 C 0.78541 0.24303 0.84701 0.0
C874 C 0.79036 0.24149 0.90833 0.0
C875 C 0.80386 0.23524 0.08554 0.0
C876 C 0.79963 0.23708 0.02333 0.0
H877 H 0.75249 0.2369 0.77235 0.0
H878 H 0.76277 0.23989 0.87442 0.0
H879 H 0.7675 0.22183 0.93244 0.0
H880 H 0.79193 0.2067 0.19225 0.0
H881 H 0.79105 0.2097 0.08387 0.0
C882 C 0.87951 0.45036 0.87019 0.0
C883 C 0.86826 0.43672 0.89979 0.0
C884 C 0.88549 0.44935 0.81484 0.0
C885 C 0.88973 0.42235 0.71101 0.0
H886 H 0.89371 0.45328 0.59332 0.0
C887 C 0.89337 0.4175 0.45331 0.0
C888 C 0.9012 0.43166 0.42088 0.0
C889 C 0.89315 0.41777 0.51605 0.0
C890 C 0.89304 0.44477 0.62595 0.0
H891 H 0.85441 0.41129 0.89532 0.0
H892 H 0.86458 0.40947 0.79661 0.0
H893 H 0.88448 0.454 0.69328 0.0
H894 H 0.91682 0.45686 0.4277 0.0
H895 H 0.91685 0.45729 0.53719 0.0
H896 H 0.89783 0.41282 0.64188 0.0
C897 C 0.869 0.42094 0.81709 0.0
C898 C 0.88766 0.44514 0.68329 0.0
C899 C 0.86309 0.42196 0.87314 0.0
C900 C 0.91046 0.44582 0.45182 0.0
C901 C 0.91042 0.44606 0.51438 0.0
C902 C 0.89509 0.42193 0.65309 0.0
C903 C 0.88019 0.43467 0.78729 0.0
C904 C 0.88595 0.43397 0.72652 0.0
C905 C 0.9009 0.43219 0.54687 0.0
C906 C 0.89679 0.43317 0.61006 0.0
H907 H 0.88398 0.46187 0.89044 0.0
H908 H 0.89435 0.46011 0.7937 0.0
H909 H 0.88863 0.41367 0.74363 0.0
H910 H 0.88617 0.4064 0.43045 0.0
H911 H 0.88575 0.40688 0.53988 0.0
C912 C 0.57304 0.43357 0.85837 0.0
C913 C 0.57311 0.44196 0.90951 0.0
C914 C 0.57589 0.44057 0.80165 0.0
C915 C 0.58762 0.461 0.68824 0.0
H916 H 0.55828 0.47563 0.65337 0.0
C917 C 0.58054 0.47847 0.44959 0.0
C918 C 0.56503 0.46905 0.42876 0.0
C919 C 0.58383 0.47953 0.511 0.0
C920 C 0.56668 0.47179 0.66271 0.0
H921 H 0.5763 0.46426 0.94165 0.0
H922 H 0.58122 0.47643 0.84264 0.0
H923 H 0.56124 0.46897 0.7566 0.0
H924 H 0.54065 0.45459 0.45589 0.0
H925 H 0.54638 0.45671 0.5633 0.0
H926 H 0.59262 0.46327 0.59401 0.0
C927 C 0.57923 0.46456 0.84657 0.0
C928 C 0.56845 0.46806 0.72167 0.0
C929 C 0.5766 0.45764 0.90329 0.0
C930 C 0.55272 0.46186 0.47066 0.0
C931 C 0.55599 0.46313 0.5321 0.0
C932 C 0.58602 0.46495 0.62942 0.0
C933 C 0.5785 0.45596 0.79514 0.0
C934 C 0.57861 0.46222 0.73464 0.0
C935 C 0.57163 0.47144 0.55259 0.0
C936 C 0.57521 0.46995 0.61593 0.0
H937 H 0.57014 0.4214 0.86203 0.0
H938 H 0.57507 0.43362 0.76257 0.0
H939 H 0.59555 0.45655 0.69721 0.0
H940 H 0.59029 0.48416 0.41843 0.0
H941 H 0.59596 0.48611 0.52583 0.0
C942 C 0.53017 0.08382 0.50011 0.0
C943 C 0.52273 0.08876 0.45868 0.0
C944 C 0.52884 0.0856 0.56166 0.0
C945 C 0.52624 0.11317 0.6601 0.0
H946 H 0.52352 0.08461 0.7861 0.0
C947 C 0.55801 0.13233 0.88809 0.0
C948 C 0.54992 0.12379 0.93932 0.0
C949 C 0.55095 0.12795 0.83153 0.0
C950 C 0.52406 0.09264 0.75153 0.0
H951 H 0.50708 0.09831 0.44921 0.0
H952 H 0.50499 0.10164 0.55687 0.0
H953 H 0.51673 0.07501 0.68292 0.0
H954 H 0.52813 0.10399 0.97173 0.0
H955 H 0.51583 0.09639 0.87309 0.0
H956 H 0.53437 0.131 0.72818 0.0
C957 C 0.51183 0.0964 0.54158 0.0
C958 C 0.52026 0.08716 0.69259 0.0
C959 C 0.51297 0.0944 0.48004 0.0
C960 C 0.53449 0.11108 0.93333 0.0
C961 C 0.52751 0.1066 0.8768 0.0
C962 C 0.53025 0.1187 0.71891 0.0
C963 C 0.52019 0.09252 0.58272 0.0
C964 C 0.52164 0.09746 0.6462 0.0
C965 C 0.53581 0.11476 0.82528 0.0
C966 C 0.52951 0.10856 0.76487 0.0
H967 H 0.53771 0.07937 0.4849 0.0
H968 H 0.53547 0.08258 0.5925 0.0
H969 H 0.52757 0.12139 0.62498 0.0
H970 H 0.56999 0.14202 0.89157 0.0
H971 H 0.55768 0.13432 0.79237 0.0
C972 C 0.41777 0.90154 0.52451 0.0
C973 C 0.43175 0.90802 0.55822 0.0
C974 C 0.41824 0.90033 0.46207 0.0
C975 C 0.44278 0.89411 0.35747 0.0
H976 H 0.41563 0.89542 0.2338 0.0
C977 C 0.44794 0.87928 0.11347 0.0
C978 C 0.43406 0.87049 0.08027 0.0
C979 C 0.44749 0.8852 0.16977 0.0
C980 C 0.42316 0.89486 0.26811 0.0
H981 H 0.45723 0.92031 0.55282 0.0
H982 H 0.45806 0.91847 0.44387 0.0
H983 H 0.41566 0.90564 0.33437 0.0
H984 H 0.40876 0.86057 0.08041 0.0
H985 H 0.40789 0.8707 0.18015 0.0
H986 H 0.44996 0.88293 0.2928 0.0
C987 C 0.44673 0.91388 0.46572 0.0
C988 C 0.42325 0.90081 0.32539 0.0
C989 C 0.44626 0.915 0.52802 0.0
C990 C 0.41964 0.86747 0.10492 0.0
C991 C 0.41917 0.87333 0.16175 0.0
C992 C 0.44261 0.88811 0.30071 0.0
C993 C 0.43271 0.90568 0.43264 0.0
C994 C 0.43314 0.90054 0.3705 0.0
C995 C 0.43312 0.8823 0.19468 0.0
C996 C 0.43286 0.88845 0.25525 0.0
H997 H 0.4064 0.89613 0.54654 0.0
H998 H 0.40725 0.894 0.43768 0.0
H999 H 0.45017 0.89329 0.39179 0.0
H1000 H 0.45927 0.88201 0.09517 0.0
H1001 H 0.45849 0.89229 0.19339 0.0
C1002 C 0.08751 0.51267 0.51373 0.0
C1003 C 0.08246 0.52239 0.54034 0.0
C1004 C 0.08945 0.51281 0.45156 0.0
C1005 C 0.09109 0.51408 0.31436 0.0
H1006 H 0.11242 0.55755 0.26095 0.0
C1007 C 0.10863 0.5345 0.06809 0.0
C1008 C 0.12245 0.549 0.05856 0.0
C1009 C 0.10372 0.52892 0.12629 0.0
C1010 C 0.10666 0.54537 0.27533 0.0
H1011 H 0.07342 0.53814 0.52266 0.0
H1012 H 0.07636 0.53803 0.414 0.0
H1013 H 0.10124 0.55113 0.36094 0.0
H1014 H 0.14245 0.56852 0.1018 0.0
H1015 H 0.13405 0.55861 0.20365 0.0
H1016 H 0.09696 0.50849 0.22848 0.0
C1017 C 0.07939 0.53077 0.44125 0.0
C1018 C 0.09994 0.54163 0.33226 0.0
C1019 C 0.07761 0.53077 0.50338 0.0
C1020 C 0.13177 0.5573 0.10799 0.0
C1021 C 0.1269 0.55169 0.16617 0.0
C1022 C 0.09783 0.51784 0.25703 0.0
C1023 C 0.08621 0.52254 0.41513 0.0
C1024 C 0.09209 0.52597 0.35252 0.0
C1025 C 0.11249 0.53777 0.17594 0.0
C1026 C 0.10579 0.53355 0.2372 0.0
H1027 H 0.09126 0.50601 0.54108 0.0
H1028 H 0.09469 0.50631 0.43279 0.0
H1029 H 0.08512 0.50191 0.32885 0.0
H1030 H 0.10095 0.528 0.0312 0.0
H1031 H 0.0925 0.51824 0.13239 0.0
C1032 C 0.47951 0.58073 0.56364 0.0
C1033 C 0.4696 0.56534 0.58479 0.0
C1034 C 0.48067 0.58395 0.50217 0.0
C1035 C 0.47216 0.56654 0.35085 0.0
H1036 H 0.45842 0.59659 0.31608 0.0
C1037 C 0.43482 0.5745 0.15548 0.0
C1038 C 0.44298 0.57417 0.10428 0.0
C1039 C 0.44182 0.57709 0.21214 0.0
C1040 C 0.46244 0.58832 0.32513 0.0
H1041 H 0.45437 0.54105 0.55822 0.0
H1042 H 0.45666 0.54663 0.45069 0.0
H1043 H 0.46505 0.5935 0.41922 0.0
H1044 H 0.46486 0.57636 0.07195 0.0
H1045 H 0.47704 0.58086 0.1708 0.0
H1046 H 0.46899 0.56094 0.25713 0.0
C1047 C 0.46338 0.55621 0.48167 0.0
C1048 C 0.46635 0.58663 0.3839 0.0
C1049 C 0.46202 0.55302 0.54318 0.0
C1050 C 0.45844 0.57698 0.11037 0.0
C1051 C 0.46536 0.57937 0.167 0.0
C1052 C 0.46848 0.56839 0.29194 0.0
C1053 C 0.47219 0.57178 0.46086 0.0
C1054 C 0.47081 0.57541 0.39749 0.0
C1055 C 0.45697 0.57907 0.21848 0.0
C1056 C 0.46317 0.57898 0.2789 0.0
H1057 H 0.48552 0.59048 0.59461 0.0
H1058 H 0.48763 0.59602 0.48706 0.0
H1059 H 0.47558 0.55782 0.36029 0.0
H1060 H 0.42281 0.57212 0.15191 0.0
H1061 H 0.43503 0.57661 0.25128 0.0
C1062 C 0.54083 0.75109 0.22352 0.0
C1063 C 0.5279 0.75328 0.23338 0.0
C1064 C 0.54535 0.74992 0.16518 0.0
C1065 C 0.55061 0.74427 0.03444 0.0
H1066 H 0.55007 0.77575 0.93075 0.0
C1067 C 0.56263 0.74963 0.77839 0.0
C1068 C 0.56876 0.76463 0.75236 0.0
C1069 C 0.56005 0.74767 0.84029 0.0
C1070 C 0.55055 0.76707 0.95935 0.0
H1071 H 0.50904 0.75507 0.19072 0.0
H1072 H 0.51665 0.7526 0.08857 0.0
H1073 H 0.53881 0.77162 0.03041 0.0
H1074 H 0.57891 0.78952 0.77102 0.0
H1075 H 0.57491 0.78618 0.87926 0.0
H1076 H 0.5627 0.74 0.96302 0.0
C1077 C 0.52345 0.75203 0.12585 0.0
C1078 C 0.54377 0.76445 0.01612 0.0
C1079 C 0.519 0.7533 0.18418 0.0
C1080 C 0.57393 0.7778 0.78985 0.0
C1081 C 0.57153 0.77587 0.85172 0.0
C1082 C 0.55744 0.7469 0.97731 0.0
C1083 C 0.53707 0.751 0.11568 0.0
C1084 C 0.54365 0.75299 0.05427 0.0
C1085 C 0.56372 0.7607 0.87709 0.0
C1086 C 0.55751 0.75837 0.93925 0.0
H1087 H 0.5482 0.75149 0.26039 0.0
H1088 H 0.55599 0.74931 0.15888 0.0
H1089 H 0.5507 0.73535 0.0629 0.0
H1090 H 0.55856 0.73924 0.75061 0.0
H1091 H 0.55404 0.73584 0.85842 0.0
C1092 C 0.23801 0.79274 0.26128 0.0
C1093 C 0.23606 0.77759 0.26725 0.0
C1094 C 0.24009 0.79963 0.20473 0.0
C1095 C 0.22919 0.80257 0.07943 0.0
H1096 H 0.25552 0.8008 0.95326 0.0
C1097 C 0.21506 0.79712 0.82712 0.0
C1098 C 0.22754 0.80511 0.78647 0.0
C1099 C 0.21794 0.79825 0.88884 0.0
C1100 C 0.24829 0.80164 0.98828 0.0
H1101 H 0.23515 0.75796 0.21931 0.0
H1102 H 0.23905 0.77014 0.12008 0.0
H1103 H 0.25844 0.79395 0.05623 0.0
H1104 H 0.25263 0.82153 0.77865 0.0
H1105 H 0.25764 0.82328 0.88657 0.0
H1106 H 0.21849 0.80948 0.01092 0.0
C1107 C 0.23911 0.77671 0.1593 0.0
C1108 C 0.24989 0.79759 0.04695 0.0
C1109 C 0.23684 0.76973 0.21589 0.0
C1110 C 0.24276 0.81521 0.80884 0.0
C1111 C 0.24567 0.81616 0.87054 0.0
C1112 C 0.22744 0.8064 0.02061 0.0
C1113 C 0.24031 0.79154 0.15314 0.0
C1114 C 0.24014 0.79773 0.09278 0.0
C1115 C 0.23337 0.80725 0.91085 0.0
C1116 C 0.23677 0.80567 0.97434 0.0
H1117 H 0.23704 0.79894 0.29972 0.0
H1118 H 0.24099 0.81107 0.2011 0.0
H1119 H 0.22143 0.80264 0.11391 0.0
H1120 H 0.20321 0.78931 0.81113 0.0
H1121 H 0.20826 0.79121 0.919 0.0
C1122 C 0.19568 0.41586 0.79462 0.0
C1123 C 0.18954 0.42415 0.7643 0.0
C1124 C 0.19688 0.41654 0.85702 0.0
C1125 C 0.18814 0.43127 0.997 0.0
H1126 H 0.23202 0.44528 0.03047 0.0
C1127 C 0.21969 0.4637 0.21643 0.0
C1128 C 0.23005 0.45933 0.24175 0.0
C1129 C 0.21309 0.45805 0.15978 0.0
C1130 C 0.21968 0.44118 0.02232 0.0
H1131 H 0.17803 0.43798 0.77541 0.0
H1132 H 0.1804 0.4394 0.88455 0.0
H1133 H 0.22146 0.43537 0.93156 0.0
H1134 H 0.24161 0.44563 0.22838 0.0
H1135 H 0.23009 0.43571 0.13039 0.0
H1136 H 0.18654 0.43733 0.08828 0.0
C1137 C 0.18423 0.43234 0.86024 0.0
C1138 C 0.21359 0.43541 0.96562 0.0
C1139 C 0.18289 0.43154 0.79768 0.0
C1140 C 0.23385 0.4494 0.20946 0.0
C1141 C 0.22722 0.44369 0.15334 0.0
C1142 C 0.19424 0.43698 0.05424 0.0
C1143 C 0.1921 0.42565 0.89 0.0
C1144 C 0.19778 0.43039 0.95226 0.0
C1145 C 0.21677 0.44794 0.12777 0.0
C1146 C 0.2101 0.44199 0.06737 0.0
H1147 H 0.20064 0.40984 0.7699 0.0
H1148 H 0.20263 0.41092 0.87911 0.0
H1149 H 0.17593 0.42754 0.98773 0.0
H1150 H 0.21671 0.47147 0.24035 0.0
H1151 H 0.20526 0.46171 0.14081 0.0
C1152 C 0.20363 0.38652 0.41767 0.0
C1153 C 0.1945 0.39178 0.44744 0.0
C1154 C 0.19645 0.37168 0.39077 0.0
C1155 C 0.16163 0.33271 0.39597 0.0
H1156 H 0.17011 0.32996 0.22753 0.0
C1157 C 0.12485 0.2759 0.26118 0.0
C1158 C 0.1325 0.27189 0.21747 0.0
C1159 C 0.13271 0.29056 0.28927 0.0
C1160 C 0.1678 0.33045 0.27481 0.0
H1161 H 0.17096 0.38563 0.47514 0.0
H1162 H 0.15835 0.35939 0.42931 0.0
H1163 H 0.18366 0.35535 0.27861 0.0
H1164 H 0.15429 0.27955 0.16935 0.0
H1165 H 0.16833 0.30512 0.21957 0.0
H1166 H 0.14608 0.30785 0.39307 0.0
C1167 C 0.17101 0.36683 0.42607 0.0
C1168 C 0.17552 0.345 0.30391 0.0
C1169 C 0.17818 0.38178 0.45212 0.0
C1170 C 0.14814 0.28262 0.20231 0.0
C1171 C 0.15611 0.29723 0.23099 0.0
C1172 C 0.15408 0.31812 0.36719 0.0
C1173 C 0.18007 0.36176 0.39451 0.0
C1174 C 0.17238 0.34626 0.36453 0.0
C1175 C 0.14849 0.30137 0.27496 0.0
C1176 C 0.15694 0.31683 0.30605 0.0
H1177 H 0.21631 0.39393 0.41499 0.0
H1178 H 0.20368 0.36791 0.36737 0.0
H1179 H 0.15918 0.33339 0.44299 0.0
H1180 H 0.11276 0.26768 0.27347 0.0
H1181 H 0.12635 0.29342 0.32198 0.0
C1182 C 0.71667 0.86357 0.23882 0.0
C1183 C 0.72073 0.8553 0.19802 0.0
C1184 C 0.70183 0.85629 0.26558 0.0
C1185 C 0.66748 0.81677 0.29619 0.0
H1186 H 0.64779 0.84134 0.33729 0.0
C1187 C 0.61168 0.79121 0.44336 0.0
C1188 C 0.60041 0.79551 0.42905 0.0
C1189 C 0.62639 0.79866 0.41527 0.0
C1190 C 0.65299 0.83422 0.32554 0.0
H1191 H 0.71238 0.83331 0.15047 0.0
H1192 H 0.68608 0.82068 0.19504 0.0
H1193 H 0.67263 0.85373 0.28368 0.0
H1194 H 0.59575 0.81129 0.37648 0.0
H1195 H 0.62101 0.82373 0.32495 0.0
H1196 H 0.64745 0.79707 0.33553 0.0
C1197 C 0.69453 0.8326 0.20837 0.0
C1198 C 0.66741 0.84141 0.29553 0.0
C1199 C 0.7095 0.83984 0.1823 0.0
C1200 C 0.60416 0.80756 0.38726 0.0
C1201 C 0.61874 0.81484 0.35846 0.0
C1202 C 0.65293 0.80951 0.32542 0.0
C1203 C 0.69058 0.84067 0.25097 0.0
C1204 C 0.67491 0.83282 0.28084 0.0
C1205 C 0.63005 0.81047 0.37195 0.0
C1206 C 0.64554 0.81816 0.34076 0.0
H1207 H 0.72506 0.87565 0.25062 0.0
H1208 H 0.69933 0.86285 0.29861 0.0
H1209 H 0.67299 0.80982 0.28641 0.0
H1210 H 0.60904 0.78199 0.47587 0.0
H1211 H 0.6349 0.79521 0.42778 0.0
C1212 C 0.19973 0.82107 0.47736 0.0
C1213 C 0.19389 0.8049 0.46931 0.0
C1214 C 0.19284 0.82858 0.44702 0.0
C1215 C 0.17105 0.82507 0.30996 0.0
H1216 H 0.16079 0.85434 0.38618 0.0
C1217 C 0.1369 0.85037 0.1864 0.0
C1218 C 0.14087 0.8659 0.19931 0.0
C1219 C 0.14366 0.84311 0.21919 0.0
C1220 C 0.16382 0.84639 0.36395 0.0
H1221 H 0.17573 0.78362 0.42736 0.0
H1222 H 0.1638 0.79677 0.37331 0.0
H1223 H 0.17173 0.84127 0.44622 0.0
H1224 H 0.15498 0.8862 0.25527 0.0
H1225 H 0.16731 0.87381 0.31129 0.0
H1226 H 0.16353 0.83036 0.22751 0.0
C1227 C 0.17383 0.80369 0.40218 0.0
C1228 C 0.17 0.83887 0.39848 0.0
C1229 C 0.18062 0.79618 0.433 0.0
C1230 C 0.15186 0.8742 0.24458 0.0
C1231 C 0.15876 0.86704 0.27695 0.0
C1232 C 0.16505 0.83272 0.27529 0.0
C1233 C 0.18006 0.81999 0.40807 0.0
C1234 C 0.17358 0.82807 0.37183 0.0
C1235 C 0.15458 0.85133 0.26525 0.0
C1236 C 0.16129 0.84343 0.30189 0.0
H1237 H 0.20993 0.82795 0.50552 0.0
H1238 H 0.19785 0.84117 0.45227 0.0
H1239 H 0.17395 0.81696 0.28817 0.0
H1240 H 0.12817 0.84368 0.15241 0.0
H1241 H 0.13997 0.83093 0.20962 0.0
C1242 C 0.38368 0.19934 0.56717 0.0
C1243 C 0.38901 0.19045 0.53616 0.0
C1244 C 0.36897 0.19193 0.59495 0.0
C1245 C 0.3301 0.15734 0.5923 0.0
H1246 H 0.32906 0.16489 0.76286 0.0
C1247 C 0.27343 0.12218 0.73039 0.0
C1248 C 0.27041 0.1301 0.77621 0.0
C1249 C 0.288 0.12934 0.70153 0.0
C1250 C 0.32906 0.16283 0.71508 0.0
H1251 H 0.38299 0.16708 0.50641 0.0
H1252 H 0.35687 0.15406 0.55364 0.0
H1253 H 0.35401 0.17817 0.70888 0.0
H1254 H 0.27982 0.15161 0.82774 0.0
H1255 H 0.3052 0.16449 0.77605 0.0
H1256 H 0.30516 0.14244 0.59748 0.0
C1257 C 0.36423 0.16672 0.55736 0.0
C1258 C 0.34337 0.17038 0.68434 0.0
C1259 C 0.37909 0.17413 0.53046 0.0
C1260 C 0.28209 0.14526 0.793 0.0
C1261 C 0.2966 0.15255 0.76348 0.0
C1262 C 0.31573 0.14998 0.62276 0.0
C1263 C 0.3592 0.17554 0.5908 0.0
C1264 C 0.344 0.16766 0.62281 0.0
C1265 C 0.29973 0.1447 0.71715 0.0
C1266 C 0.31503 0.15258 0.68465 0.0
H1267 H 0.39102 0.21201 0.57068 0.0
H1268 H 0.36521 0.19898 0.61975 0.0
H1269 H 0.33032 0.15518 0.54467 0.0
H1270 H 0.26448 0.11045 0.71689 0.0
H1271 H 0.29006 0.12279 0.66703 0.0
C1272 C 0.84877 0.12925 0.74435 0.0
C1273 C 0.86068 0.13754 0.78668 0.0
C1274 C 0.84178 0.13664 0.7142 0.0
C1275 C 0.8483 0.17641 0.6775 0.0
H1276 H 0.80476 0.1524 0.62639 0.0
C1277 C 0.82103 0.20332 0.52116 0.0
C1278 C 0.8054 0.19927 0.53267 0.0
C1279 C 0.82765 0.19541 0.5505 0.0
C1280 C 0.81689 0.15937 0.64084 0.0
H1281 H 0.87402 0.15964 0.83385 0.0
H1282 H 0.86124 0.17244 0.7835 0.0
H1283 H 0.81593 0.13973 0.68606 0.0
H1284 H 0.78414 0.18337 0.58097 0.0
H1285 H 0.7958 0.17015 0.63465 0.0
H1286 H 0.84899 0.19627 0.63498 0.0
C1287 C 0.85774 0.16044 0.77146 0.0
C1288 C 0.82339 0.15201 0.67439 0.0
C1289 C 0.86493 0.15309 0.80088 0.0
C1290 C 0.79634 0.18691 0.57237 0.0
C1291 C 0.80299 0.17918 0.60243 0.0
C1292 C 0.84171 0.18385 0.64479 0.0
C1293 C 0.84627 0.15239 0.72692 0.0
C1294 C 0.8392 0.1604 0.69294 0.0
C1295 C 0.81877 0.18338 0.59224 0.0
C1296 C 0.82592 0.17541 0.62592 0.0
H1297 H 0.84509 0.11711 0.73363 0.0
H1298 H 0.83314 0.13007 0.67986 0.0
H1299 H 0.86059 0.18321 0.69007 0.0
H1300 H 0.82817 0.21276 0.49021 0.0
H1301 H 0.83973 0.19874 0.54048 0.0
C1302 C 0.86144 0.71574 0.7545 0.0
C1303 C 0.85391 0.72092 0.79439 0.0
C1304 C 0.85311 0.70088 0.72825 0.0
C1305 C 0.81953 0.66161 0.746 0.0
H1306 H 0.82069 0.65968 0.57214 0.0
C1307 C 0.78183 0.6036 0.617 0.0
C1308 C 0.78862 0.60092 0.5663 0.0
C1309 C 0.78924 0.6183 0.64507 0.0
C1310 C 0.82041 0.65995 0.62074 0.0
H1311 H 0.83216 0.7145 0.84107 0.0
H1312 H 0.81757 0.68815 0.79617 0.0
H1313 H 0.83508 0.68503 0.62275 0.0
H1314 H 0.80851 0.61103 0.50566 0.0
H1315 H 0.8218 0.6366 0.55545 0.0
H1316 H 0.80532 0.63653 0.74451 0.0
C1317 C 0.82984 0.69573 0.78453 0.0
C1318 C 0.82859 0.67448 0.6496 0.0
C1319 C 0.83814 0.71073 0.8101 0.0
C1320 C 0.80296 0.61302 0.54414 0.0
C1321 C 0.8105 0.62764 0.57261 0.0
C1322 C 0.81152 0.64702 0.71721 0.0
C1323 C 0.8372 0.69082 0.74255 0.0
C1324 C 0.82826 0.67542 0.71241 0.0
C1325 C 0.80374 0.63048 0.62346 0.0
C1326 C 0.81191 0.64601 0.65419 0.0
H1327 H 0.87374 0.72328 0.74306 0.0
H1328 H 0.85908 0.69722 0.69675 0.0
H1329 H 0.81922 0.66207 0.79458 0.0
H1330 H 0.77076 0.59433 0.63473 0.0
H1331 H 0.78357 0.62011 0.68349 0.0
C1332 C 0.94374 0.45953 0.11326 0.0
C1333 C 0.93414 0.46629 0.10732 0.0
C1334 C 0.95859 0.46664 0.0864 0.0
C1335 C 0.97997 0.49146 0.95987 0.0
H1336 H 0.0176 0.49877 0.04443 0.0
C1337 C 0.04134 0.52575 0.85136 0.0
C1338 C 0.05218 0.52083 0.86437 0.0
C1339 C 0.02701 0.51917 0.88196 0.0
C1340 C 0.00717 0.49659 0.01985 0.0
H1341 H 0.93272 0.48615 0.07258 0.0
H1342 H 0.95856 0.4984 0.0239 0.0
H1343 H 0.99251 0.48716 0.09771 0.0
H1344 H 0.05689 0.50539 0.91881 0.0
H1345 H 0.03158 0.49335 0.97089 0.0
H1346 H 0.99436 0.50039 0.8816 0.0
C1347 C 0.95454 0.48754 0.04866 0.0
C1348 C 0.99285 0.49002 0.05053 0.0
C1349 C 0.9398 0.48054 0.07622 0.0
C1350 C 0.04857 0.50925 0.90809 0.0
C1351 C 0.03417 0.50251 0.93819 0.0
C1352 C 0.99423 0.49781 0.92896 0.0
C1353 C 0.96397 0.48054 0.05292 0.0
C1354 C 0.97916 0.48748 0.02083 0.0
C1355 C 0.02324 0.50746 0.92577 0.0
C1356 C 0.00803 0.50052 0.9586 0.0
H1357 H 0.93958 0.44857 0.13751 0.0
H1358 H 0.96567 0.46102 0.0902 0.0
H1359 H 0.9695 0.48939 0.93581 0.0
H1360 H 0.04411 0.53493 0.81853 0.0
H1361 H 0.01905 0.52351 0.87208 0.0
C1362 C 0.48902 0.53938 0.88015 0.0
C1363 C 0.47354 0.53443 0.89844 0.0
C1364 C 0.49737 0.53277 0.90601 0.0
C1365 C 0.50002 0.51384 0.04216 0.0
H1366 H 0.51876 0.49512 0.94245 0.0
C1367 C 0.53963 0.48986 0.13239 0.0
C1368 C 0.53471 0.47437 0.11441 0.0
C1369 C 0.5329 0.49811 0.1065 0.0
C1370 C 0.51364 0.50038 0.97067 0.0
H1371 H 0.45432 0.51824 0.95547 0.0
H1372 H 0.46911 0.50707 0.00233 0.0
H1373 H 0.50566 0.50807 0.89516 0.0
H1374 H 0.51848 0.45502 0.05797 0.0
H1375 H 0.50714 0.46963 0.01106 0.0
H1376 H 0.50798 0.50613 0.11767 0.0
C1377 C 0.47482 0.51615 0.96853 0.0
C1378 C 0.50624 0.50783 0.94372 0.0
C1379 C 0.46641 0.52255 0.94193 0.0
C1380 C 0.52277 0.46712 0.07122 0.0
C1381 C 0.51627 0.47543 0.0446 0.0
C1382 C 0.50766 0.50664 0.0691 0.0
C1383 C 0.49038 0.52126 0.95097 0.0
C1384 C 0.49917 0.51439 0.97929 0.0
C1385 C 0.52132 0.491 0.06185 0.0
C1386 C 0.5143 0.49965 0.03354 0.0
H1387 H 0.49471 0.5485 0.84648 0.0
H1388 H 0.50936 0.53684 0.89176 0.0
H1389 H 0.49469 0.51891 0.07038 0.0
H1390 H 0.54878 0.49563 0.16589 0.0
H1391 H 0.53693 0.51011 0.12052 0.0
C1392 C 0.53013 0.0497 0.10575 0.0
C1393 C 0.52153 0.05374 0.14507 0.0
C1394 C 0.52284 0.03516 0.07672 0.0
C1395 C 0.49034 0.99495 0.08365 0.0
H1396 H 0.49393 0.99605 0.90993 0.0
C1397 C 0.45559 0.93907 0.94029 0.0
C1398 C 0.46306 0.9374 0.88947 0.0
C1399 C 0.46241 0.95325 0.97184 0.0
C1400 C 0.493 0.99547 0.95844 0.0
H1401 H 0.499 0.04558 0.18829 0.0
H1402 H 0.48622 0.01977 0.13838 0.0
H1403 H 0.50678 0.02054 0.96678 0.0
H1404 H 0.4835 0.94886 0.83186 0.0
H1405 H 0.49579 0.9736 0.88785 0.0
H1406 H 0.47699 0.96989 0.07589 0.0
C1407 C 0.49852 0.028 0.12933 0.0
C1408 C 0.50029 0.00952 0.99088 0.0
C1409 C 0.50578 0.04269 0.15775 0.0
C1410 C 0.47746 0.95005 0.87052 0.0
C1411 C 0.48442 0.96419 0.90253 0.0
C1412 C 0.48323 0.98085 0.05129 0.0
C1413 C 0.50692 0.02429 0.08758 0.0
C1414 C 0.49904 0.00936 0.05371 0.0
C1415 C 0.47699 0.96596 0.95368 0.0
C1416 C 0.48447 0.98094 0.98823 0.0
H1417 H 0.54242 0.05793 0.09659 0.0
H1418 H 0.52961 0.03244 0.0455 0.0
H1419 H 0.48933 0.99456 0.13217 0.0
H1420 H 0.44442 0.92939 0.95543 0.0
H1421 H 0.45619 0.95426 0.01023 0.0
C1422 C 0.13818 0.19042 0.12505 0.0
C1423 C 0.13299 0.19707 0.08109 0.0
C1424 C 0.14733 0.18374 0.10897 0.0
C1425 C 0.17169 0.18201 0.98438 0.0
H1426 H 0.16283 0.14291 0.06105 0.0
C1427 C 0.19111 0.13971 0.88814 0.0
C1428 C 0.19755 0.1335 0.92888 0.0
C1429 C 0.18458 0.14864 0.90875 0.0
C1430 C 0.16555 0.15392 0.03977 0.0
H1431 H 0.13334 0.20194 0.9858 0.0
H1432 H 0.14886 0.18992 0.95763 0.0
H1433 H 0.14883 0.15629 0.09366 0.0
H1434 H 0.20234 0.13196 0.02314 0.0
H1435 H 0.19074 0.14741 0.05897 0.0
H1436 H 0.18805 0.17927 0.92913 0.0
C1437 C 0.14623 0.19019 0.00472 0.0
C1438 C 0.15758 0.16163 0.05854 0.0
C1439 C 0.13723 0.197 0.02085 0.0
C1440 C 0.19748 0.13658 0.99056 0.0
C1441 C 0.19079 0.14535 0.01117 0.0
C1442 C 0.17954 0.17421 0.96521 0.0
C1443 C 0.15136 0.18344 0.04852 0.0
C1444 C 0.16046 0.1757 0.03075 0.0
C1445 C 0.1842 0.15138 0.97049 0.0
C1446 C 0.17646 0.16005 0.99248 0.0
H1447 H 0.13521 0.1904 0.17194 0.0
H1448 H 0.15129 0.17886 0.14397 0.0
H1449 H 0.17443 0.19298 0.96278 0.0
H1450 H 0.19102 0.13759 0.84034 0.0
H1451 H 0.17946 0.15307 0.87651 0.0
C1452 C 0.80635 0.94394 0.09979 0.0
C1453 C 0.79392 0.93219 0.06605 0.0
C1454 C 0.81305 0.95976 0.08353 0.0
C1455 C 0.82072 0.99309 0.05709 0.0
H1456 H 0.82622 0.00317 0.88719 0.0
C1457 C 0.84745 0.05694 0.97402 0.0
C1458 C 0.85812 0.06152 0.9259 0.0
C1459 C 0.83836 0.0411 0.98989 0.0
C1460 C 0.82488 0.00058 0.93482 0.0
H1461 H 0.77833 0.92785 0.99034 0.0
H1462 H 0.7897 0.95545 0.9631 0.0
H1463 H 0.81305 0.97579 0.91882 0.0
H1464 H 0.86748 0.05305 0.85613 0.0
H1465 H 0.85197 0.02547 0.88485 0.0
H1466 H 0.83324 0.01787 0.07314 0.0
C1467 C 0.79459 0.95244 0.00103 0.0
C1468 C 0.81711 0.98485 0.953 0.0
C1469 C 0.78801 0.93662 0.01688 0.0
C1470 C 0.85932 0.04989 0.8933 0.0
C1471 C 0.85034 0.03406 0.90958 0.0
C1472 C 0.82862 0.00881 0.03892 0.0
C1473 C 0.80735 0.96418 0.03359 0.0
C1474 C 0.81502 0.98091 0.01437 0.0
C1475 C 0.83985 0.02949 0.95841 0.0
C1476 C 0.83088 0.01275 0.97756 0.0
H1477 H 0.81121 0.9409 0.13778 0.0
H1478 H 0.82299 0.96845 0.10915 0.0
H1479 H 0.81913 0.99048 0.1047 0.0
H1480 H 0.84613 0.0656 -0.00034 0.0
H1481 H 0.83017 0.03798 0.02693 0.0
C1482 C 0.94506 0.80474 0.88815 0.0
C1483 C 0.933 0.79266 0.92208 0.0
C1484 C 0.9608 0.81072 0.90411 0.0
C1485 C 0.98543 0.81364 0.03457 0.0
H1486 H 0.01851 0.82972 0.91463 0.0
C1487 C 0.05779 0.8457 0.0132 0.0
C1488 C 0.06197 0.85648 0.0608 0.0
C1489 C 0.042 0.83591 -0.00212 0.0
C1490 C 0.00944 0.82507 0.9488 0.0
H1491 H 0.92798 0.77688 -0.00233 0.0
H1492 H 0.95544 0.78697 0.02439 0.0
H1493 H 0.99114 0.81574 0.88291 0.0
H1494 H 0.05284 0.86523 0.13042 0.0
H1495 H 0.0254 0.84856 0.10261 0.0
H1496 H 0.00372 0.82263 0.10048 0.0
C1497 C 0.95275 0.79217 0.98656 0.0
C1498 C 0.99372 0.81725 0.93055 0.0
C1499 C 0.93701 0.78633 0.97107 0.0
C1500 C 0.05001 0.85701 0.09364 0.0
C1501 C 0.03425 0.84736 0.0779 0.0
C1502 C 0.00115 0.8213 0.05283 0.0
C1503 C 0.96484 0.80461 0.95388 0.0
C1504 C 0.98152 0.81171 0.97318 0.0
C1505 C 0.03005 0.83681 0.02941 0.0
C1506 C 0.01335 0.82738 0.01018 0.0
H1507 H 0.94234 0.8099 0.85027 0.0
H1508 H 0.96976 0.82047 0.87845 0.0
H1509 H 0.97638 0.80967 0.06873 0.0
H1510 H 0.06673 0.84489 0.9874 0.0
H1511 H 0.03918 0.82772 0.96104 0.0
C1512 C 0.87086 0.81114 0.98176 0.0
C1513 C 0.87404 0.80943 0.92147 0.0
C1514 C 0.86484 0.8209 0.99691 0.0
C1515 C 0.84055 0.83564 0.93537 0.0
H1516 H 0.85489 0.86381 0.07252 0.0
C1517 C 0.81052 0.87092 -0.00065 0.0
C1518 C 0.80797 0.87209 0.06078 0.0
C1519 C 0.82035 0.86526 0.98076 0.0
C1520 C 0.85065 0.85588 0.03445 0.0
H1521 H 0.87385 0.81703 0.83008 0.0
H1522 H 0.86305 0.83391 0.85666 0.0
H1523 H 0.8692 0.85045 0.04261 0.0
H1524 H 0.81393 0.86851 0.15094 0.0
H1525 H 0.83067 0.85807 0.11853 0.0
H1526 H 0.82165 0.84042 0.92835 0.0
C1527 C 0.86525 0.82766 0.89199 0.0
C1528 C 0.8589 0.84832 0.01719 0.0
C1529 C 0.87146 0.81803 0.87685 0.0
C1530 C 0.8157 0.86777 0.1033 0.0
C1531 C 0.82538 0.86189 0.08465 0.0
C1532 C 0.83221 0.84305 0.95296 0.0
C1533 C 0.86173 0.82903 0.95208 0.0
C1534 C 0.85384 0.83804 0.96777 0.0
C1535 C 0.82768 0.8604 0.0231 0.0
C1536 C 0.83708 0.85317 0.00298 0.0
H1537 H 0.87278 0.80474 0.0173 0.0
H1538 H 0.86208 0.82164 0.04351 0.0
H1539 H 0.83625 0.82757 0.89768 0.0
H1540 H 0.8049 0.87435 0.96542 0.0
H1541 H 0.82212 0.86463 0.93305 0.0
C1542 C 0.18122 0.05429 0.96227 0.0
C1543 C 0.18364 0.05969 0.90258 0.0
C1544 C 0.17112 0.03845 0.97526 0.0
C1545 C 0.15628 -0.00032 0.91225 0.0
H1546 H 0.1269 0.98623 0.04562 0.0
C1547 C 0.12127 0.93467 0.9817 0.0
C1548 C 0.12 0.93149 0.04365 0.0
C1549 C 0.12663 0.94993 0.96087 0.0
C1550 C 0.13514 0.9898 0.00855 0.0
H1551 H 0.17722 0.05275 0.8097 0.0
H1552 H 0.15969 0.02482 0.83261 0.0
H1553 H 0.14065 0.01383 0.0149 0.0
H1554 H 0.12304 0.94173 0.13237 0.0
H1555 H 0.13294 0.96851 0.09614 0.0
H1556 H 0.15147 0.97595 0.90741 0.0
C1557 C 0.1656 0.03297 0.86914 0.0
C1558 C 0.14291 0.00557 0.99079 0.0
C1559 C 0.17557 0.04892 0.85611 0.0
C1560 C 0.12386 0.94382 0.08437 0.0
C1561 C 0.12943 0.95916 0.06352 0.0
C1562 C 0.14864 0.98396 0.93038 0.0
C1563 C 0.16335 0.02762 0.92885 0.0
C1564 C 0.15373 0.01068 0.9431 0.0
C1565 C 0.13106 0.96242 0.00149 0.0
C1566 C 0.13816 0.97887 0.97935 0.0
H1567 H 0.18721 0.0623 -0.00086 0.0
H1568 H 0.16974 0.0346 0.0216 0.0
H1569 H 0.16472 0.00337 0.87585 0.0
H1570 H 0.1182 0.92538 0.94911 0.0
H1571 H 0.12741 0.95194 0.91284 0.0
C1572 C 0.93495 0.12513 0.99603 0.0
C1573 C 0.93149 0.12332 0.93429 0.0
C1574 C 0.95039 0.13127 0.01603 0.0
C1575 C 0.99035 0.14052 0.96716 0.0
H1576 H 0.00358 0.16974 0.10098 0.0
C1577 C 0.0551 0.18489 0.02225 0.0
C1578 C 0.05978 0.18659 0.08278 0.0
C1579 C 0.03931 0.17552 0.00652 0.0
C1580 C -1e-05 0.16144 0.06413 0.0
H1581 H 0.94149 0.12637 0.8451 0.0
H1582 H 0.96858 0.13762 0.87988 0.0
H1583 H 0.97627 0.1567 0.06797 0.0
H1584 H 0.05158 0.17965 0.17425 0.0
H1585 H 0.02382 0.16342 0.14655 0.0
H1586 H 0.01434 0.14584 0.96217 0.0
C1587 C 0.9593 0.13393 0.91298 0.0
C1588 C 0.98434 0.15393 0.0452 0.0
C1589 C 0.94378 0.12758 0.89295 0.0
C1590 C 0.04834 0.17856 0.12725 0.0
C1591 C 0.03247 0.16933 0.11149 0.0
C1592 C 0.00606 0.14818 0.98572 0.0
C1593 C 0.9628 0.13597 0.97479 0.0
C1594 C 0.97934 0.14345 0.99621 0.0
C1595 C 0.02784 0.16779 0.05098 0.0
C1596 C 0.01102 0.15879 0.03408 0.0
H1597 H 0.92572 0.12179 0.02914 0.0
H1598 H 0.95259 0.13235 0.06396 0.0
H1599 H 0.98686 0.13231 0.93003 0.0
H1600 H 0.06363 0.19088 0.98687 0.0
H1601 H 0.03602 0.17467 0.95962 0.0
C1602 C 0.85845 0.47829 0.20914 0.0
C1603 C 0.86364 0.47169 0.25325 0.0
C1604 C 0.85275 0.48826 0.22534 0.0
C1605 C 0.85026 0.51158 0.35238 0.0
H1606 H 0.81274 0.50483 0.26837 0.0
C1607 C 0.80599 0.52864 0.44606 0.0
C1608 C 0.79962 0.53505 0.40589 0.0
C1609 C 0.81602 0.52342 0.42538 0.0
C1610 C 0.82336 0.50704 0.29161 0.0
H1611 H 0.86724 0.47059 0.34885 0.0
H1612 H 0.85678 0.48755 0.3774 0.0
H1613 H 0.82604 0.49081 0.23611 0.0
H1614 H 0.79926 0.54154 0.31289 0.0
H1615 H 0.81668 0.53223 0.27681 0.0
H1616 H 0.84705 0.52735 0.4095 0.0
C1617 C 0.85745 0.48535 0.33013 0.0
C1618 C 0.83102 0.49903 0.27309 0.0
C1619 C 0.86335 0.47553 0.31384 0.0
C1620 C 0.80392 0.5366 0.34496 0.0
C1621 C 0.81384 0.53124 0.32422 0.0
C1622 C 0.84249 0.51949 0.37128 0.0
C1623 C 0.8519 0.49167 0.28609 0.0
C1624 C 0.84447 0.50107 0.3036 0.0
C1625 C 0.81978 0.52438 0.3641 0.0
C1626 C 0.82887 0.51716 0.34139 0.0
H1627 H 0.85874 0.47574 0.16196 0.0
H1628 H 0.84889 0.49319 0.19018 0.0
H1629 H 0.86074 0.51363 0.37623 0.0
H1630 H 0.80299 0.52737 0.49335 0.0
H1631 H 0.82033 0.51805 0.45699 0.0
C1632 C 0.51855 0.3816 0.19932 0.0
C1633 C 0.52197 0.39335 0.24253 0.0
C1634 C 0.50905 0.36571 0.21408 0.0
C1635 C 0.49933 0.34024 0.34362 0.0
H1636 H 0.46569 0.30846 0.24604 0.0
C1637 C 0.46403 0.27663 0.42542 0.0
C1638 C 0.46019 0.26462 0.38314 0.0
C1639 C 0.46986 0.29213 0.40677 0.0
C1640 C 0.47517 0.31718 0.27343 0.0
H1641 H 0.51737 0.39763 0.3341 0.0
H1642 H 0.50096 0.36994 0.35966 0.0
H1643 H 0.47884 0.33609 0.21472 0.0
H1644 H 0.45912 0.25934 0.2881 0.0
H1645 H 0.4699 0.28657 0.25544 0.0
H1646 H 0.49625 0.32155 0.40118 0.0
C1647 C 0.50573 0.37305 0.31462 0.0
C1648 C 0.48262 0.33296 0.25559 0.0
C1649 C 0.5151 0.3889 0.29983 0.0
C1650 C 0.46197 0.26837 0.32168 0.0
C1651 C 0.46805 0.28396 0.30299 0.0
C1652 C 0.49206 0.32451 0.36103 0.0
C1653 C 0.50292 0.36132 0.27236 0.0
C1654 C 0.49471 0.34461 0.29079 0.0
C1655 C 0.47228 0.29605 0.34543 0.0
C1656 C 0.47983 0.31278 0.3264 0.0
H1657 H 0.52358 0.38465 0.15466 0.0
H1658 H 0.50708 0.35685 0.18078 0.0
H1659 H 0.50885 0.34897 0.37091 0.0
H1660 H 0.46254 0.27406 0.47309 0.0
H1661 H 0.47259 0.30106 0.44062 0.0
C1662 C 0.71839 0.18521 0.43656 0.0
C1663 C 0.72947 0.1919 0.39004 0.0
C1664 C 0.70256 0.17499 0.42356 0.0
C1665 C 0.67495 0.15133 0.30091 0.0
H1666 H 0.64517 0.15698 0.39706 0.0
C1667 C 0.61069 0.13112 0.23104 0.0
C1668 C 0.59911 0.12409 0.27586 0.0
C1669 C 0.62659 0.13734 0.24518 0.0
C1670 C 0.65333 0.15512 0.37033 0.0
H1671 H 0.73276 0.19288 0.29348 0.0
H1672 H 0.70501 0.17551 0.27055 0.0
H1673 H 0.67301 0.17179 0.42154 0.0
H1674 H 0.5951 0.11755 0.37015 0.0
H1675 H 0.62285 0.12858 0.39469 0.0
H1676 H 0.6551 0.13508 0.24822 0.0
C1677 C 0.70858 0.17782 0.31719 0.0
C1678 C 0.6693 0.16356 0.38444 0.0
C1679 C 0.72448 0.18787 0.33028 0.0
C1680 C 0.60371 0.12295 0.3346 0.0
C1681 C 0.6196 0.1293 0.34878 0.0
C1682 C 0.65895 0.14301 0.28635 0.0
C1683 C 0.69739 0.17144 0.36368 0.0
C1684 C 0.68033 0.16183 0.34983 0.0
C1685 C 0.63118 0.13676 0.30443 0.0
C1686 C 0.64803 0.14489 0.32088 0.0
H1687 H 0.72194 0.18792 0.48314 0.0
H1688 H 0.69434 0.17 0.46055 0.0
H1689 H 0.6831 0.14953 0.27383 0.0
H1690 H 0.60752 0.13209 0.18528 0.0
H1691 H 0.63532 0.14313 0.21027 0.0
C1692 C 0.53786 0.15043 0.24433 0.0
C1693 C 0.54175 0.14222 0.28621 0.0
C1694 C 0.53244 0.16043 0.26379 0.0
C1695 C 0.51353 0.16697 0.39568 0.0
H1696 H 0.52094 0.20399 0.30626 0.0
C1697 C 0.48571 0.20458 0.46355 0.0
C1698 C 0.47742 0.20669 0.41639 0.0
C1699 C 0.49599 0.1989 0.45175 0.0
C1700 C 0.51884 0.19371 0.33175 0.0
H1701 H 0.54386 0.1387 0.38131 0.0
H1702 H 0.53491 0.15646 0.4151 0.0
H1703 H 0.53485 0.19012 0.27791 0.0
H1704 H 0.47383 0.20508 0.31978 0.0
H1705 H 0.49181 0.19534 0.29943 0.0
H1706 H 0.49744 0.17053 0.44913 0.0
C1707 C 0.53553 0.15483 0.36727 0.0
C1708 C 0.52672 0.18571 0.31535 0.0
C1709 C 0.54073 0.14469 0.34785 0.0
C1710 C 0.47997 0.2035 0.35717 0.0
C1711 C 0.49038 0.19805 0.34538 0.0
C1712 C 0.50581 0.17507 0.41242 0.0
C1713 C 0.53099 0.16257 0.32554 0.0
C1714 C 0.52389 0.17204 0.34632 0.0
C1715 C 0.49833 0.19551 0.39255 0.0
C1716 C 0.50813 0.1883 0.3798 0.0
H1717 H 0.5385 0.14874 0.19656 0.0
H1718 H 0.52885 0.16603 0.23034 0.0
H1719 H 0.51085 0.15636 0.42 0.0
H1720 H 0.48398 0.20695 0.50962 0.0
H1721 H 0.50204 0.19705 0.48886 0.0
C1722 C 0.78783 0.27915 0.42469 0.0
C1723 C 0.78693 0.26798 0.38293 0.0
C1724 C 0.79309 0.29465 0.40686 0.0
C1725 C 0.7995 0.32011 0.27603 0.0
H1726 H 0.83326 0.35208 0.37243 0.0
C1727 C 0.84008 0.38417 0.19431 0.0
C1728 C 0.84612 0.39612 0.23786 0.0
C1729 C 0.83081 0.36841 0.21161 0.0
C1730 C 0.82363 0.34339 0.34554 0.0
H1731 H 0.7903 0.26419 0.28921 0.0
H1732 H 0.79944 0.29124 0.25833 0.0
H1733 H 0.82045 0.32477 0.40421 0.0
H1734 H 0.84628 0.40118 0.33279 0.0
H1735 H 0.82966 0.37391 0.36257 0.0
H1736 H 0.80269 0.33878 0.21727 0.0
C1737 C 0.79604 0.28798 0.30474 0.0
C1738 C 0.81632 0.32772 0.36378 0.0
C1739 C 0.79093 0.27252 0.32262 0.0
C1740 C 0.84201 0.39216 0.29836 0.0
C1741 C 0.83256 0.37652 0.31545 0.0
C1742 C 0.80671 0.33587 0.25802 0.0
C1743 C 0.7974 0.29923 0.34686 0.0
C1744 C 0.80429 0.31592 0.32901 0.0
C1745 C 0.82724 0.36439 0.27263 0.0
C1746 C 0.81894 0.34768 0.29241 0.0
H1747 H 0.78476 0.27602 0.47137 0.0
H1748 H 0.79393 0.3031 0.44011 0.0
H1749 H 0.79016 0.3112 0.24862 0.0
H1750 H 0.84311 0.38694 0.14735 0.0
H1751 H 0.827 0.35937 0.17746 0.0
C1752 C 0.71835 0.50995 0.36488 0.0
C1753 C 0.72306 0.51203 0.42542 0.0
C1754 C 0.70296 0.49902 0.34882 0.0
C1755 C 0.6634 0.48111 0.407 0.0
H1756 H 0.65276 0.45518 0.26386 0.0
C1757 C 0.59979 0.4471 0.32346 0.0
C1758 C 0.59755 0.44781 0.26143 0.0
C1759 C 0.61468 0.4517 0.34642 0.0
C1760 C 0.65555 0.46241 0.30375 0.0
H1761 H 0.71544 0.50395 0.51648 0.0
H1762 H 0.68825 0.48491 0.48823 0.0
H1763 H 0.67992 0.469 0.30008 0.0
H1764 H 0.60903 0.45336 0.17452 0.0
H1765 H 0.63527 0.46198 0.21477 0.0
H1766 H 0.63936 0.47531 0.40933 0.0
C1767 C 0.69661 0.49177 0.4534 0.0
C1768 C 0.67106 0.47024 0.32464 0.0
C1769 C 0.71213 0.50262 0.4695 0.0
C1770 C 0.61042 0.45267 0.22251 0.0
C1771 C 0.62543 0.45752 0.24563 0.0
C1772 C 0.64795 0.47342 0.38589 0.0
C1773 C 0.69187 0.49001 0.39293 0.0
C1774 C 0.67517 0.4799 0.37578 0.0
C1775 C 0.62777 0.45738 0.30802 0.0
C1776 C 0.64388 0.46421 0.33337 0.0
H1777 H 0.72652 0.51694 0.32974 0.0
H1778 H 0.69959 0.49807 0.30199 0.0
H1779 H 0.66629 0.48868 0.44599 0.0
H1780 H 0.59003 0.44315 0.35455 0.0
H1781 H 0.61598 0.45108 0.3945 0.0
C1782 C 0.5234 0.79991 0.63288 0.0
C1783 C 0.52882 0.80017 0.57445 0.0
C1784 C 0.51697 0.80932 0.648 0.0
C1785 C 0.50133 0.83356 0.5791 0.0
H1786 H 0.50242 0.84564 0.74538 0.0
C1787 C 0.46221 0.85789 0.66379 0.0
C1788 C 0.46659 0.8672 0.71566 0.0
C1789 C 0.47116 0.85131 0.64399 0.0
C1790 C 0.50224 0.84276 0.69838 0.0
H1791 H 0.53227 0.81065 0.48623 0.0
H1792 H 0.52213 0.828 0.5134 0.0
H1793 H 0.51633 0.83232 0.71588 0.0
H1794 H 0.48399 0.87775 0.78603 0.0
H1795 H 0.50043 0.86745 0.74908 0.0
H1796 H 0.48827 0.84511 0.56078 0.0
C1797 C 0.52208 0.82004 0.54716 0.0
C1798 C 0.50997 0.83468 0.68159 0.0
C1799 C 0.52803 0.81021 0.53153 0.0
C1800 C 0.48037 0.87043 0.74615 0.0
C1801 C 0.48966 0.86435 0.72517 0.0
C1802 C 0.49404 0.84213 0.59552 0.0
C1803 C 0.51631 0.81963 0.60555 0.0
C1804 C 0.50928 0.82956 0.62204 0.0
C1805 C 0.485 0.85435 0.6746 0.0
C1806 C 0.49404 0.84653 0.65573 0.0
H1807 H 0.52371 0.79209 0.66651 0.0
H1808 H 0.51225 0.80819 0.69281 0.0
H1809 H 0.50034 0.82977 0.53287 0.0
H1810 H 0.4515 0.85519 0.64001 0.0
H1811 H 0.46687 0.84344 0.6058 0.0
C1812 C 0.1846 0.72409 0.6683 0.0
C1813 C 0.18917 0.72846 0.6083 0.0
C1814 C 0.17509 0.70827 0.68368 0.0
C1815 C 0.14702 0.66931 0.62425 0.0
H1816 H 0.16239 0.65386 0.75274 0.0
C1817 C 0.12316 0.60311 0.66532 0.0
C1818 C 0.12267 0.59796 0.72458 0.0
C1819 C 0.12984 0.61914 0.65272 0.0
C1820 C 0.15772 0.65799 0.71756 0.0
H1821 H 0.1869 0.71973 0.5171 0.0
H1822 H 0.17016 0.69207 0.54416 0.0
H1823 H 0.17645 0.68174 0.728 0.0
H1824 H 0.12803 0.60546 0.81747 0.0
H1825 H 0.13919 0.63334 0.79579 0.0
H1826 H 0.12822 0.64559 0.61398 0.0
C1827 C 0.17399 0.70092 0.57912 0.0
C1828 C 0.16583 0.67397 0.70329 0.0
C1829 C 0.18365 0.71673 0.56377 0.0
C1830 C 0.12844 0.60909 0.77122 0.0
C1831 C 0.13491 0.62509 0.75873 0.0
C1832 C 0.13878 0.65333 0.63899 0.0
C1833 C 0.16982 0.69655 0.63932 0.0
C1834 C 0.16065 0.67975 0.65617 0.0
C1835 C 0.13598 0.63034 0.69921 0.0
C1836 C 0.14413 0.64745 0.68547 0.0
H1837 H 0.18863 0.73284 0.70366 0.0
H1838 H 0.17193 0.70518 0.73037 0.0
H1839 H 0.14272 0.67354 0.58804 0.0
H1840 H 0.11886 0.5948 0.62839 0.0
H1841 H 0.13064 0.62275 0.60628 0.0
C1842 C 0.27917 0.47734 0.57616 0.0
C1843 C 0.26639 0.46518 0.60707 0.0
C1844 C 0.29449 0.48331 0.59747 0.0
C1845 C 0.31693 0.48574 0.73447 0.0
H1846 H 0.35121 0.49957 0.62042 0.0
C1847 C 0.38911 0.51419 0.72335 0.0
C1848 C 0.3935 0.52546 0.76919 0.0
C1849 C 0.37332 0.5048 0.70744 0.0
C1850 C 0.34179 0.49554 0.65308 0.0
H1851 H 0.25967 0.44957 0.68413 0.0
H1852 H 0.28646 0.45973 0.72046 0.0
H1853 H 0.32429 0.48674 0.58425 0.0
H1854 H 0.38478 0.53539 0.83568 0.0
H1855 H 0.3573 0.51942 0.80657 0.0
H1856 H 0.33446 0.49418 0.80341 0.0
C1857 C 0.28462 0.4649 0.68051 0.0
C1858 C 0.32633 0.48841 0.63219 0.0
C1859 C 0.26926 0.45903 0.65953 0.0
C1860 C 0.38175 0.52678 0.80022 0.0
C1861 C 0.36597 0.51754 0.78373 0.0
C1862 C 0.33241 0.49273 0.75544 0.0
C1863 C 0.29741 0.47715 0.6498 0.0
C1864 C 0.31374 0.48368 0.67252 0.0
C1865 C 0.36159 0.50662 0.73642 0.0
C1866 C 0.34504 0.49795 0.71492 0.0
H1867 H 0.27735 0.4824 0.53582 0.0
H1868 H 0.30401 0.49296 0.57334 0.0
H1869 H 0.30753 0.48235 0.76681 0.0
H1870 H 0.3979 0.51275 0.69918 0.0
H1871 H 0.37034 0.49625 0.67178 0.0
C1872 C 0.14647 0.53508 0.74741 0.0
C1873 C 0.13759 0.53837 0.70657 0.0
C1874 C 0.1563 0.52956 0.72689 0.0
C1875 C 0.16201 0.50979 0.59571 0.0
H1876 H 0.20079 0.51999 0.67822 0.0
C1877 C 0.20208 0.48497 0.52314 0.0
C1878 C 0.20527 0.47744 0.57025 0.0
C1879 C 0.19549 0.49446 0.53532 0.0
C1880 C 0.19001 0.51711 0.65468 0.0
H1881 H 0.13248 0.53905 0.61206 0.0
H1882 H 0.14994 0.5299 0.5763 0.0
H1883 H 0.18619 0.53304 0.70788 0.0
H1884 H 0.20458 0.47433 0.66703 0.0
H1885 H 0.19331 0.49099 0.68804 0.0
H1886 H 0.16588 0.49382 0.54268 0.0
C1887 C 0.14901 0.53113 0.62424 0.0
C1888 C 0.18159 0.52448 0.67186 0.0
C1889 C 0.13905 0.53644 0.64477 0.0
C1890 C 0.20217 0.47991 0.6297 0.0
C1891 C 0.19585 0.48955 0.64185 0.0
C1892 C 0.17053 0.50256 0.5781 0.0
C1893 C 0.15759 0.52741 0.66505 0.0
C1894 C 0.16731 0.52066 0.64343 0.0
C1895 C 0.19229 0.49677 0.59481 0.0
C1896 C 0.18442 0.50591 0.60827 0.0
H1897 H 0.14555 0.5364 0.79532 0.0
H1898 H 0.16254 0.52658 0.7597 0.0
H1899 H 0.15095 0.50637 0.57336 0.0
H1900 H 0.20434 0.48326 0.4769 0.0
H1901 H 0.19285 0.49994 0.49834 0.0
C1902 C 0.45408 0.60413 0.69472 0.0
C1903 C 0.45193 0.6005 0.75638 0.0
C1904 C 0.45977 0.61954 0.67506 0.0
C1905 C 0.48486 0.65973 0.72437 0.0
H1906 H 0.46848 0.67073 0.58535 0.0
C1907 C 0.51302 0.72363 0.64557 0.0
C1908 C 0.51499 0.72648 0.58345 0.0
C1909 C 0.50356 0.70843 0.66743 0.0
C1910 C 0.47328 0.66782 0.62387 0.0
H1911 H 0.45363 0.61014 0.84559 0.0
H1912 H 0.46382 0.63719 0.81105 0.0
H1913 H 0.45477 0.64369 0.62308 0.0
H1914 H 0.50829 0.71571 0.4954 0.0
H1915 H 0.49212 0.68892 0.53365 0.0
H1916 H 0.50367 0.68352 0.7242 0.0
C1917 C 0.46107 0.62803 0.77815 0.0
C1918 C 0.46538 0.65237 0.64561 0.0
C1919 C 0.4552 0.61256 0.79786 0.0
C1920 C 0.50697 0.71385 0.5435 0.0
C1921 C 0.49764 0.69852 0.56548 0.0
C1922 C 0.49282 0.67508 0.70236 0.0
C1923 C 0.46357 0.63167 0.71662 0.0
C1924 C 0.47116 0.6482 0.6959 0.0
C1925 C 0.49603 0.69563 0.62778 0.0
C1926 C 0.48717 0.67932 0.65173 0.0
H1927 H 0.4516 0.59511 0.66152 0.0
H1928 H 0.46174 0.62205 0.62745 0.0
H1929 H 0.48973 0.65675 0.76251 0.0
H1930 H 0.51885 0.73316 0.67756 0.0
H1931 H 0.50227 0.70671 0.71561 0.0
C1932 C 0.26994 0.79697 0.66441 0.0
C1933 C 0.26398 0.78831 0.61109 0.0
C1934 C 0.28545 0.80233 0.68185 0.0
C1935 C 0.32398 0.81192 0.61966 0.0
H1936 H 0.3355 0.81681 0.78827 0.0
C1937 C 0.38576 0.8569 0.69737 0.0
C1938 C 0.39265 0.85344 0.74601 0.0
C1939 C 0.37013 0.84675 0.68176 0.0
C1940 C 0.3325 0.8153 0.74098 0.0
H1941 H 0.26952 0.77816 0.53493 0.0
H1942 H 0.29661 0.78727 0.56609 0.0
H1943 H 0.30783 0.80216 0.75977 0.0
H1944 H 0.38847 0.83655 0.81666 0.0
H1945 H 0.36103 0.81858 0.78871 0.0
H1946 H 0.34862 0.82487 0.6008 0.0
C1947 C 0.28934 0.79016 0.59383 0.0
C1948 C 0.31663 0.80709 0.72462 0.0
C1949 C 0.27381 0.78491 0.57602 0.0
C1950 C 0.38347 0.83957 0.77907 0.0
C1951 C 0.36777 0.8293 0.76311 0.0
C1952 C 0.33983 0.81999 0.63599 0.0
C1953 C 0.29537 0.79904 0.64677 0.0
C1954 C 0.31217 0.80573 0.66384 0.0
C1955 C 0.36097 0.83276 0.71398 0.0
C1956 C 0.34426 0.82223 0.69687 0.0
H1957 H 0.26271 0.79988 0.6924 0.0
H1958 H 0.28975 0.80943 0.72212 0.0
H1959 H 0.32102 0.81118 0.57246 0.0
H1960 H 0.39241 0.86753 0.67115 0.0
H1961 H 0.36518 0.85002 0.64474 0.0
loop_
_geom_bond_atom_site_label_1
_geom_bond_atom_site_label_2
_geom_bond_distance
_geom_bond_site_symmetry_2
_ccdc_geom_bond_type
Co0 O3 1.970 . S
Co0 N17 1.989 . S
Co0 O25 1.967 . S
Co0 O32 1.920 1_554 S
Co1 O4 1.966 . S
Co1 N10 2.022 . S
Co1 N18 1.993 . S
Co1 O26 1.941 . S
C2 O3 1.258 . S
C2 O4 1.263 . S
O3 Co0 1.970 . S
O3 C2 1.258 . S
O4 Co1 1.966 . S
O4 C2 1.263 . S
C5 O6 1.235 . S
C5 O32 1.289 . S
O6 C5 1.235 . S
C7 C9 1.400 . S
C7 N10 1.351 . S
C7 C12 1.501 . S
C8 C9 1.387 . S
C8 N11 1.341 . S
C9 C7 1.400 . S
C9 C8 1.387 . S
N10 Co1 2.022 . S
N10 C7 1.351 . S
N10 N11 1.365 . S
N11 C8 1.341 . S
N11 N10 1.365 . S
N11 H31 0.862 . S
C12 C7 1.501 . S
C12 H13 0.961 . S
C12 H14 0.961 . S
C12 H15 0.960 . S
H13 C12 0.961 . S
H14 C12 0.961 . S
H15 C12 0.960 . S
C16 N17 1.342 . S
C16 C20 1.401 . S
C16 C21 1.499 . S
N17 Co0 1.989 . S
N17 C16 1.342 . S
N17 N18 1.388 . S
N18 Co1 1.993 . S
N18 N17 1.388 . S
N18 C19 1.346 . S
C19 N18 1.346 . S
C19 C20 1.396 . S
C19 C29 1.510 . S
C20 C16 1.401 . S
C20 C19 1.396 . S
C21 C16 1.499 . S
C21 H22 0.959 . S
C21 H23 0.960 . S
C21 H24 0.961 . S
H22 C21 0.959 . S
H23 C21 0.960 . S
H24 C21 0.961 . S
O25 Co0 1.967 . S
O25 C33 1.258 . S
O26 Co1 1.941 . S
O26 C33 1.266 . S
H27 C29 0.959 . S
H28 C29 0.961 . S
C29 C19 1.510 . S
C29 H27 0.959 . S
C29 H28 0.961 . S
C29 H30 0.960 . S
H30 C29 0.960 . S
H31 N11 0.862 . S
O32 Co0 1.920 1_556 S
O32 C5 1.289 . S
C33 O25 1.258 . S
C33 O26 1.266 . S
Co34 O37 1.970 . S
Co34 N51 1.989 . S
Co34 O59 1.967 . S
Co34 O66 1.920 1_554 S
Co35 O38 1.966 . S
Co35 N44 2.022 . S
Co35 N52 1.993 . S
Co35 O60 1.941 . S
C36 O37 1.258 . S
C36 O38 1.263 . S
O37 Co34 1.970 . S
O37 C36 1.258 . S
O38 Co35 1.966 . S
O38 C36 1.263 . S
C39 O40 1.235 . S
C39 O66 1.289 . S
O40 C39 1.235 . S
C41 C43 1.400 . S
C41 N44 1.351 . S
C41 C46 1.501 . S
C42 C43 1.387 . S
C42 N45 1.341 . S
C43 C41 1.400 . S
C43 C42 1.387 . S
N44 Co35 2.022 . S
N44 C41 1.351 . S
N44 N45 1.365 . S
N45 C42 1.341 . S
N45 N44 1.365 . S
N45 H65 0.862 . S
C46 C41 1.501 . S
C46 H47 0.961 . S
C46 H48 0.961 . S
C46 H49 0.960 . S
H47 C46 0.961 . S
H48 C46 0.961 . S
H49 C46 0.960 . S
C50 N51 1.342 . S
C50 C54 1.401 . S
C50 C55 1.499 . S
N51 Co34 1.989 . S
N51 C50 1.342 . S
N51 N52 1.388 . S
N52 Co35 1.993 . S
N52 N51 1.388 . S
N52 C53 1.346 . S
C53 N52 1.346 . S
C53 C54 1.396 . S
C53 C63 1.510 . S
C54 C50 1.401 . S
C54 C53 1.396 . S
C55 C50 1.499 . S
C55 H56 0.959 . S
C55 H57 0.960 . S
C55 H58 0.961 . S
H56 C55 0.959 . S
H57 C55 0.960 . S
H58 C55 0.961 . S
O59 Co34 1.967 . S
O59 C67 1.258 . S
O60 Co35 1.941 . S
O60 C67 1.266 . S
H61 C63 0.959 . S
H62 C63 0.961 . S
C63 C53 1.510 . S
C63 H61 0.959 . S
C63 H62 0.961 . S
C63 H64 0.960 . S
H64 C63 0.960 . S
H65 N45 0.862 . S
O66 Co34 1.920 1_556 S
O66 C39 1.289 . S
C67 O59 1.258 . S
C67 O60 1.266 . S
Co68 O71 1.970 . S
Co68 N85 1.989 . S
Co68 O93 1.967 . S
Co68 O100 1.920 1_554 S
Co69 O72 1.966 . S
Co69 N78 2.022 . S
Co69 N86 1.993 . S
Co69 O94 1.941 . S
C70 O71 1.258 . S
C70 O72 1.263 . S
O71 Co68 1.970 . S
O71 C70 1.258 . S
O72 Co69 1.966 . S
O72 C70 1.263 . S
C73 O74 1.235 . S
C73 O100 1.289 . S
O74 C73 1.235 . S
C75 C77 1.400 . S
C75 N78 1.351 . S
C75 C80 1.501 . S
C76 C77 1.387 . S
C76 N79 1.341 . S
C77 C75 1.400 . S
C77 C76 1.387 . S
N78 Co69 2.022 . S
N78 C75 1.351 . S
N78 N79 1.365 . S
N79 C76 1.341 . S
N79 N78 1.365 . S
N79 H99 0.862 . S
C80 C75 1.501 . S
C80 H81 0.961 . S
C80 H82 0.961 . S
C80 H83 0.960 . S
H81 C80 0.961 . S
H82 C80 0.961 . S
H83 C80 0.960 . S
C84 N85 1.342 . S
C84 C88 1.401 . S
C84 C89 1.499 . S
N85 Co68 1.989 . S
N85 C84 1.342 . S
N85 N86 1.388 . S
N86 Co69 1.993 . S
N86 N85 1.388 . S
N86 C87 1.346 . S
C87 N86 1.346 . S
C87 C88 1.396 . S
C87 C97 1.510 . S
C88 C84 1.401 . S
C88 C87 1.396 . S
C89 C84 1.499 . S
C89 H90 0.959 . S
C89 H91 0.960 . S
C89 H92 0.961 . S
H90 C89 0.959 . S
H91 C89 0.960 . S
H92 C89 0.961 . S
O93 Co68 1.967 . S
O93 C101 1.258 . S
O94 Co69 1.941 . S
O94 C101 1.266 . S
H95 C97 0.959 . S
H96 C97 0.961 . S
C97 C87 1.510 . S
C97 H95 0.959 . S
C97 H96 0.961 . S
C97 H98 0.960 . S
H98 C97 0.960 . S
H99 N79 0.862 . S
O100 Co68 1.920 1_556 S
O100 C73 1.289 . S
C101 O93 1.258 . S
C101 O94 1.266 . S
Co102 O105 1.970 . S
Co102 N119 1.989 . S
Co102 O127 1.967 . S
Co102 O134 1.920 1_556 S
Co103 O106 1.966 . S
Co103 N112 2.022 . S
Co103 N120 1.993 . S
Co103 O128 1.941 . S
C104 O105 1.258 . S
C104 O106 1.263 . S
O105 Co102 1.970 . S
O105 C104 1.258 . S
O106 Co103 1.966 . S
O106 C104 1.263 . S
C107 O108 1.235 . S
C107 O134 1.289 . S
O108 C107 1.235 . S
C109 C111 1.400 . S
C109 N112 1.351 . S
C109 C114 1.501 . S
C110 C111 1.387 . S
C110 N113 1.341 . S
C111 C109 1.400 . S
C111 C110 1.387 . S
N112 Co103 2.022 . S
N112 C109 1.351 . S
N112 N113 1.365 . S
N113 C110 1.341 . S
N113 N112 1.365 . S
N113 H133 0.862 . S
C114 C109 1.501 . S
C114 H115 0.961 . S
C114 H116 0.961 . S
C114 H117 0.960 . S
H115 C114 0.961 . S
H116 C114 0.961 . S
H117 C114 0.960 . S
C118 N119 1.342 . S
C118 C122 1.401 . S
C118 C123 1.499 . S
N119 Co102 1.989 . S
N119 C118 1.342 . S
N119 N120 1.388 . S
N120 Co103 1.993 . S
N120 N119 1.388 . S
N120 C121 1.346 . S
C121 N120 1.346 . S
C121 C122 1.396 . S
C121 C131 1.510 . S
C122 C118 1.401 . S
C122 C121 1.396 . S
C123 C118 1.499 . S
C123 H124 0.959 . S
C123 H125 0.960 . S
C123 H126 0.961 . S
H124 C123 0.959 . S
H125 C123 0.960 . S
H126 C123 0.961 . S
O127 Co102 1.967 . S
O127 C135 1.258 . S
O128 Co103 1.941 . S
O128 C135 1.266 . S
H129 C131 0.959 . S
H130 C131 0.961 . S
C131 C121 1.510 . S
C131 H129 0.959 . S
C131 H130 0.961 . S
C131 H132 0.960 . S
H132 C131 0.960 . S
H133 N113 0.862 . S
O134 Co102 1.920 1_554 S
O134 C107 1.289 . S
C135 O127 1.258 . S
C135 O128 1.266 . S
Co136 O139 1.970 . S
Co136 N153 1.989 . S
Co136 O161 1.967 . S
Co136 O168 1.920 1_556 S
Co137 O140 1.966 . S
Co137 N146 2.022 . S
Co137 N154 1.993 . S
Co137 O162 1.941 . S
C138 O139 1.258 . S
C138 O140 1.263 . S
O139 Co136 1.970 . S
O139 C138 1.258 . S
O140 Co137 1.966 . S
O140 C138 1.263 . S
C141 O142 1.235 . S
C141 O168 1.289 . S
O142 C141 1.235 . S
C143 C145 1.400 . S
C143 N146 1.351 . S
C143 C148 1.501 . S
C144 C145 1.387 . S
C144 N147 1.341 . S
C145 C143 1.400 . S
C145 C144 1.387 . S
N146 Co137 2.022 . S
N146 C143 1.351 . S
N146 N147 1.365 . S
N147 C144 1.341 . S
N147 N146 1.365 . S
N147 H167 0.862 . S
C148 C143 1.501 . S
C148 H149 0.961 . S
C148 H150 0.961 . S
C148 H151 0.960 . S
H149 C148 0.961 . S
H150 C148 0.961 . S
H151 C148 0.960 . S
C152 N153 1.342 . S
C152 C156 1.401 . S
C152 C157 1.499 . S
N153 Co136 1.989 . S
N153 C152 1.342 . S
N153 N154 1.388 . S
N154 Co137 1.993 . S
N154 N153 1.388 . S
N154 C155 1.346 . S
C155 N154 1.346 . S
C155 C156 1.396 . S
C155 C165 1.510 . S
C156 C152 1.401 . S
C156 C155 1.396 . S
C157 C152 1.499 . S
C157 H158 0.959 . S
C157 H159 0.960 . S
C157 H160 0.961 . S
H158 C157 0.959 . S
H159 C157 0.960 . S
H160 C157 0.961 . S
O161 Co136 1.967 . S
O161 C169 1.258 . S
O162 Co137 1.941 . S
O162 C169 1.266 . S
H163 C165 0.959 . S
H164 C165 0.961 . S
C165 C155 1.510 . S
C165 H163 0.959 . S
C165 H164 0.961 . S
C165 H166 0.960 . S
H166 C165 0.960 . S
H167 N147 0.862 . S
O168 Co136 1.920 1_554 S
O168 C141 1.289 . S
C169 O161 1.258 . S
C169 O162 1.266 . S
Co170 O173 1.970 . S
Co170 N187 1.989 . S
Co170 O195 1.967 . S
Co170 O202 1.920 1_556 S
Co171 O174 1.966 . S
Co171 N180 2.022 . S
Co171 N188 1.993 . S
Co171 O196 1.941 . S
C172 O173 1.258 . S
C172 O174 1.263 . S
O173 Co170 1.970 . S
O173 C172 1.258 . S
O174 Co171 1.966 . S
O174 C172 1.263 . S
C175 O176 1.235 . S
C175 O202 1.289 . S
O176 C175 1.235 . S
C177 C179 1.400 . S
C177 N180 1.351 . S
C177 C182 1.501 . S
C178 C179 1.387 . S
C178 N181 1.341 . S
C179 C177 1.400 . S
C179 C178 1.387 . S
N180 Co171 2.022 . S
N180 C177 1.351 . S
N180 N181 1.365 . S
N181 C178 1.341 . S
N181 N180 1.365 . S
N181 H201 0.862 . S
C182 C177 1.501 . S
C182 H183 0.961 . S
C182 H184 0.961 . S
C182 H185 0.960 . S
H183 C182 0.961 . S
H184 C182 0.961 . S
H185 C182 0.960 . S
C186 N187 1.342 . S
C186 C190 1.401 . S
C186 C191 1.499 . S
N187 Co170 1.989 . S
N187 C186 1.342 . S
N187 N188 1.388 . S
N188 Co171 1.993 . S
N188 N187 1.388 . S
N188 C189 1.346 . S
C189 N188 1.346 . S
C189 C190 1.396 . S
C189 C199 1.510 . S
C190 C186 1.401 . S
C190 C189 1.396 . S
C191 C186 1.499 . S
C191 H192 0.959 . S
C191 H193 0.960 . S
C191 H194 0.961 . S
H192 C191 0.959 . S
H193 C191 0.960 . S
H194 C191 0.961 . S
O195 Co170 1.967 . S
O195 C203 1.258 . S
O196 Co171 1.941 . S
O196 C203 1.266 . S
H197 C199 0.959 . S
H198 C199 0.961 . S
C199 C189 1.510 . S
C199 H197 0.959 . S
C199 H198 0.961 . S
C199 H200 0.960 . S
H200 C199 0.960 . S
H201 N181 0.862 . S
O202 Co170 1.920 1_554 S
O202 C175 1.289 . S
C203 O195 1.258 . S
C203 O196 1.266 . S
Co204 O207 1.970 . S
Co204 N221 1.989 . S
Co204 O229 1.967 . S
Co204 O236 1.920 . S
Co205 O208 1.966 . S
Co205 N214 2.022 . S
Co205 N222 1.993 . S
Co205 O230 1.941 . S
C206 O207 1.258 . S
C206 O208 1.263 . S
O207 Co204 1.970 . S
O207 C206 1.258 . S
O208 Co205 1.966 . S
O208 C206 1.263 . S
C209 O210 1.235 . S
C209 O236 1.289 . S
O210 C209 1.235 . S
C211 C213 1.400 . S
C211 N214 1.351 . S
C211 C216 1.501 . S
C212 C213 1.387 . S
C212 N215 1.341 . S
C213 C211 1.400 . S
C213 C212 1.387 . S
N214 Co205 2.022 . S
N214 C211 1.351 . S
N214 N215 1.365 . S
N215 C212 1.341 . S
N215 N214 1.365 . S
N215 H235 0.862 . S
C216 C211 1.501 . S
C216 H217 0.961 . S
C216 H218 0.961 . S
C216 H219 0.960 . S
H217 C216 0.961 . S
H218 C216 0.961 . S
H219 C216 0.960 . S
C220 N221 1.342 . S
C220 C224 1.401 . S
C220 C225 1.499 . S
N221 Co204 1.989 . S
N221 C220 1.342 . S
N221 N222 1.388 . S
N222 Co205 1.993 . S
N222 N221 1.388 . S
N222 C223 1.346 . S
C223 N222 1.346 . S
C223 C224 1.396 . S
C223 C233 1.510 . S
C224 C220 1.401 . S
C224 C223 1.396 . S
C225 C220 1.499 . S
C225 H226 0.959 . S
C225 H227 0.960 . S
C225 H228 0.961 . S
H226 C225 0.959 . S
H227 C225 0.960 . S
H228 C225 0.961 . S
O229 Co204 1.967 . S
O229 C237 1.258 . S
O230 Co205 1.941 . S
O230 C237 1.266 . S
H231 C233 0.959 . S
H232 C233 0.961 . S
C233 C223 1.510 . S
C233 H231 0.959 . S
C233 H232 0.961 . S
C233 H234 0.960 . S
H234 C233 0.960 . S
H235 N215 0.862 . S
O236 Co204 1.920 . S
O236 C209 1.289 . S
C237 O229 1.258 . S
C237 O230 1.266 . S
Co238 O241 1.970 . S
Co238 N255 1.989 . S
Co238 O263 1.967 . S
Co238 O270 1.920 . S
Co239 O242 1.966 . S
Co239 N248 2.022 . S
Co239 N256 1.993 . S
Co239 O264 1.941 . S
C240 O241 1.258 . S
C240 O242 1.263 . S
O241 Co238 1.970 . S
O241 C240 1.258 . S
O242 Co239 1.966 . S
O242 C240 1.263 . S
C243 O244 1.235 . S
C243 O270 1.289 . S
O244 C243 1.235 . S
C245 C247 1.400 . S
C245 N248 1.351 . S
C245 C250 1.501 . S
C246 C247 1.387 . S
C246 N249 1.341 . S
C247 C245 1.400 . S
C247 C246 1.387 . S
N248 Co239 2.022 . S
N248 C245 1.351 . S
N248 N249 1.365 . S
N249 C246 1.341 . S
N249 N248 1.365 . S
N249 H269 0.862 . S
C250 C245 1.501 . S
C250 H251 0.961 . S
C250 H252 0.961 . S
C250 H253 0.960 . S
H251 C250 0.961 . S
H252 C250 0.961 . S
H253 C250 0.960 . S
C254 N255 1.342 . S
C254 C258 1.401 . S
C254 C259 1.499 . S
N255 Co238 1.989 . S
N255 C254 1.342 . S
N255 N256 1.388 . S
N256 Co239 1.993 . S
N256 N255 1.388 . S
N256 C257 1.346 . S
C257 N256 1.346 . S
C257 C258 1.396 . S
C257 C267 1.510 . S
C258 C254 1.401 . S
C258 C257 1.396 . S
C259 C254 1.499 . S
C259 H260 0.959 . S
C259 H261 0.960 . S
C259 H262 0.961 . S
H260 C259 0.959 . S
H261 C259 0.960 . S
H262 C259 0.961 . S
O263 Co238 1.967 . S
O263 C271 1.258 . S
O264 Co239 1.941 . S
O264 C271 1.266 . S
H265 C267 0.959 . S
H266 C267 0.961 . S
C267 C257 1.510 . S
C267 H265 0.959 . S
C267 H266 0.961 . S
C267 H268 0.960 . S
H268 C267 0.960 . S
H269 N249 0.862 . S
O270 Co238 1.920 . S
O270 C243 1.289 . S
C271 O263 1.258 . S
C271 O264 1.266 . S
Co272 O275 1.970 . S
Co272 N289 1.989 . S
Co272 O297 1.967 . S
Co272 O304 1.920 . S
Co273 O276 1.966 . S
Co273 N282 2.022 . S
Co273 N290 1.993 . S
Co273 O298 1.941 . S
C274 O275 1.258 . S
C274 O276 1.263 . S
O275 Co272 1.970 . S
O275 C274 1.258 . S
O276 Co273 1.966 . S
O276 C274 1.263 . S
C277 O278 1.235 . S
C277 O304 1.289 . S
O278 C277 1.235 . S
C279 C281 1.400 . S
C279 N282 1.351 . S
C279 C284 1.501 . S
C280 C281 1.387 . S
C280 N283 1.341 . S
C281 C279 1.400 . S
C281 C280 1.387 . S
N282 Co273 2.022 . S
N282 C279 1.351 . S
N282 N283 1.365 . S
N283 C280 1.341 . S
N283 N282 1.365 . S
N283 H303 0.862 . S
C284 C279 1.501 . S
C284 H285 0.961 . S
C284 H286 0.961 . S
C284 H287 0.960 . S
H285 C284 0.961 . S
H286 C284 0.961 . S
H287 C284 0.960 . S
C288 N289 1.342 . S
C288 C292 1.401 . S
C288 C293 1.499 . S
N289 Co272 1.989 . S
N289 C288 1.342 . S
N289 N290 1.388 . S
N290 Co273 1.993 . S
N290 N289 1.388 . S
N290 C291 1.346 . S
C291 N290 1.346 . S
C291 C292 1.396 . S
C291 C301 1.510 . S
C292 C288 1.401 . S
C292 C291 1.396 . S
C293 C288 1.499 . S
C293 H294 0.959 . S
C293 H295 0.960 . S
C293 H296 0.961 . S
H294 C293 0.959 . S
H295 C293 0.960 . S
H296 C293 0.961 . S
O297 Co272 1.967 . S
O297 C305 1.258 . S
O298 Co273 1.941 . S
O298 C305 1.266 . S
H299 C301 0.959 . S
H300 C301 0.961 . S
C301 C291 1.510 . S
C301 H299 0.959 . S
C301 H300 0.961 . S
C301 H302 0.960 . S
H302 C301 0.960 . S
H303 N283 0.862 . S
O304 Co272 1.920 . S
O304 C277 1.289 . S
C305 O297 1.258 . S
C305 O298 1.266 . S
Co306 O309 1.970 . S
Co306 N323 1.989 . S
Co306 O331 1.967 . S
Co306 O338 1.920 . S
Co307 O310 1.966 . S
Co307 N316 2.022 . S
Co307 N324 1.993 . S
Co307 O332 1.941 . S
C308 O309 1.258 . S
C308 O310 1.263 . S
O309 Co306 1.970 . S
O309 C308 1.258 . S
O310 Co307 1.966 . S
O310 C308 1.263 . S
C311 O312 1.235 . S
C311 O338 1.289 . S
O312 C311 1.235 . S
C313 C315 1.400 . S
C313 N316 1.351 1_556 S
C313 C318 1.501 1_556 S
C314 C315 1.387 . S
C314 N317 1.341 . S
C315 C313 1.400 . S
C315 C314 1.387 . S
N316 Co307 2.022 . S
N316 C313 1.351 1_554 S
N316 N317 1.365 1_554 S
N317 C314 1.341 . S
N317 N316 1.365 1_556 S
N317 H337 0.862 1_556 S
C318 C313 1.501 1_554 S
C318 H319 0.961 . S
C318 H320 0.961 . S
C318 H321 0.960 1_554 S
H319 C318 0.961 . S
H320 C318 0.961 . S
H321 C318 0.960 1_556 S
C322 N323 1.342 . S
C322 C326 1.401 . S
C322 C327 1.499 . S
N323 Co306 1.989 . S
N323 C322 1.342 . S
N323 N324 1.388 . S
N324 Co307 1.993 . S
N324 N323 1.388 . S
N324 C325 1.346 . S
C325 N324 1.346 . S
C325 C326 1.396 . S
C325 C335 1.510 . S
C326 C322 1.401 . S
C326 C325 1.396 . S
C327 C322 1.499 . S
C327 H328 0.959 . S
C327 H329 0.960 . S
C327 H330 0.961 . S
H328 C327 0.959 . S
H329 C327 0.960 . S
H330 C327 0.961 . S
O331 Co306 1.967 . S
O331 C339 1.258 . S
O332 Co307 1.941 . S
O332 C339 1.266 . S
H333 C335 0.959 . S
H334 C335 0.961 . S
C335 C325 1.510 . S
C335 H333 0.959 . S
C335 H334 0.961 . S
C335 H336 0.960 . S
H336 C335 0.960 . S
H337 N317 0.862 1_554 S
O338 Co306 1.920 . S
O338 C311 1.289 . S
C339 O331 1.258 . S
C339 O332 1.266 . S
Co340 O343 1.970 . S
Co340 N357 1.989 . S
Co340 O365 1.967 . S
Co340 O372 1.920 . S
Co341 O344 1.966 . S
Co341 N350 2.022 . S
Co341 N358 1.993 . S
Co341 O366 1.941 . S
C342 O343 1.258 . S
C342 O344 1.263 . S
O343 Co340 1.970 . S
O343 C342 1.258 . S
O344 Co341 1.966 . S
O344 C342 1.263 . S
C345 O346 1.235 . S
C345 O372 1.289 . S
O346 C345 1.235 . S
C347 C349 1.400 . S
C347 N350 1.351 1_556 S
C347 C352 1.501 1_556 S
C348 C349 1.387 . S
C348 N351 1.341 . S
C349 C347 1.400 . S
C349 C348 1.387 . S
N350 Co341 2.022 . S
N350 C347 1.351 1_554 S
N350 N351 1.365 1_554 S
N351 C348 1.341 . S
N351 N350 1.365 1_556 S
N351 H371 0.862 1_556 S
C352 C347 1.501 1_554 S
C352 H353 0.961 . S
C352 H354 0.961 . S
C352 H355 0.960 1_554 S
H353 C352 0.961 . S
H354 C352 0.961 . S
H355 C352 0.960 1_556 S
C356 N357 1.342 . S
C356 C360 1.401 . S
C356 C361 1.499 . S
N357 Co340 1.989 . S
N357 C356 1.342 . S
N357 N358 1.388 . S
N358 Co341 1.993 . S
N358 N357 1.388 . S
N358 C359 1.346 . S
C359 N358 1.346 . S
C359 C360 1.396 . S
C359 C369 1.510 . S
C360 C356 1.401 . S
C360 C359 1.396 . S
C361 C356 1.499 . S
C361 H362 0.959 . S
C361 H363 0.960 . S
C361 H364 0.961 . S
H362 C361 0.959 . S
H363 C361 0.960 . S
H364 C361 0.961 . S
O365 Co340 1.967 . S
O365 C373 1.258 . S
O366 Co341 1.941 . S
O366 C373 1.266 . S
H367 C369 0.959 . S
H368 C369 0.961 . S
C369 C359 1.510 . S
C369 H367 0.959 . S
C369 H368 0.961 . S
C369 H370 0.960 . S
H370 C369 0.960 . S
H371 N351 0.862 1_554 S
O372 Co340 1.920 . S
O372 C345 1.289 . S
C373 O365 1.258 . S
C373 O366 1.266 . S
Co374 O377 1.970 . S
Co374 N391 1.989 . S
Co374 O399 1.967 . S
Co374 O406 1.920 . S
Co375 O378 1.966 . S
Co375 N384 2.022 . S
Co375 N392 1.993 . S
Co375 O400 1.941 . S
C376 O377 1.258 . S
C376 O378 1.263 . S
O377 Co374 1.970 . S
O377 C376 1.258 . S
O378 Co375 1.966 . S
O378 C376 1.263 . S
C379 O380 1.235 . S
C379 O406 1.289 . S
O380 C379 1.235 . S
C381 C383 1.400 . S
C381 N384 1.351 1_556 S
C381 C386 1.501 1_556 S
C382 C383 1.387 . S
C382 N385 1.341 . S
C383 C381 1.400 . S
C383 C382 1.387 . S
N384 Co375 2.022 . S
N384 C381 1.351 1_554 S
N384 N385 1.365 1_554 S
N385 C382 1.341 . S
N385 N384 1.365 1_556 S
N385 H405 0.862 1_556 S
C386 C381 1.501 1_554 S
C386 H387 0.961 . S
C386 H388 0.961 . S
C386 H389 0.960 1_554 S
H387 C386 0.961 . S
H388 C386 0.961 . S
H389 C386 0.960 1_556 S
C390 N391 1.342 . S
C390 C394 1.401 . S
C390 C395 1.499 . S
N391 Co374 1.989 . S
N391 C390 1.342 . S
N391 N392 1.388 . S
N392 Co375 1.993 . S
N392 N391 1.388 . S
N392 C393 1.346 . S
C393 N392 1.346 . S
C393 C394 1.396 . S
C393 C403 1.510 . S
C394 C390 1.401 . S
C394 C393 1.396 . S
C395 C390 1.499 . S
C395 H396 0.959 . S
C395 H397 0.960 . S
C395 H398 0.961 . S
H396 C395 0.959 . S
H397 C395 0.960 . S
H398 C395 0.961 . S
O399 Co374 1.967 . S
O399 C407 1.258 . S
O400 Co375 1.941 . S
O400 C407 1.266 . S
H401 C403 0.959 . S
H402 C403 0.961 . S
C403 C393 1.510 . S
C403 H401 0.959 . S
C403 H402 0.961 . S
C403 H404 0.960 . S
H404 C403 0.960 . S
H405 N385 0.862 1_554 S
O406 Co374 1.920 . S
O406 C379 1.289 . S
C407 O399 1.258 . S
C407 O400 1.266 . S
Co408 O411 1.970 . S
Co408 N425 1.989 . S
Co408 O433 1.967 . S
Co408 O440 1.920 . S
Co409 O412 1.966 . S
Co409 N418 2.022 . S
Co409 N426 1.993 . S
Co409 O434 1.941 . S
C410 O411 1.258 . S
C410 O412 1.263 . S
O411 Co408 1.970 . S
O411 C410 1.258 . S
O412 Co409 1.966 . S
O412 C410 1.263 . S
C413 O414 1.235 . S
C413 O440 1.289 . S
O414 C413 1.235 . S
C415 C417 1.400 . S
C415 N418 1.351 1_554 S
C415 C420 1.501 1_554 S
C416 C417 1.387 . S
C416 N419 1.341 . S
C417 C415 1.400 . S
C417 C416 1.387 . S
N418 Co409 2.022 . S
N418 C415 1.351 1_556 S
N418 N419 1.365 1_556 S
N419 C416 1.341 . S
N419 N418 1.365 1_554 S
N419 H439 0.862 1_554 S
C420 C415 1.501 1_556 S
C420 H421 0.961 . S
C420 H422 0.961 . S
C420 H423 0.960 1_556 S
H421 C420 0.961 . S
H422 C420 0.961 . S
H423 C420 0.960 1_554 S
C424 N425 1.342 . S
C424 C428 1.401 . S
C424 C429 1.499 . S
N425 Co408 1.989 . S
N425 C424 1.342 . S
N425 N426 1.388 . S
N426 Co409 1.993 . S
N426 N425 1.388 . S
N426 C427 1.346 . S
C427 N426 1.346 . S
C427 C428 1.396 . S
C427 C437 1.510 . S
C428 C424 1.401 . S
C428 C427 1.396 . S
C429 C424 1.499 . S
C429 H430 0.959 . S
C429 H431 0.960 . S
C429 H432 0.961 . S
H430 C429 0.959 . S
H431 C429 0.960 . S
H432 C429 0.961 . S
O433 Co408 1.967 . S
O433 C441 1.258 . S
O434 Co409 1.941 . S
O434 C441 1.266 . S
H435 C437 0.959 . S
H436 C437 0.961 . S
C437 C427 1.510 . S
C437 H435 0.959 . S
C437 H436 0.961 . S
C437 H438 0.960 . S
H438 C437 0.960 . S
H439 N419 0.862 1_556 S
O440 Co408 1.920 . S
O440 C413 1.289 . S
C441 O433 1.258 . S
C441 O434 1.266 . S
Co442 O445 1.970 . S
Co442 N459 1.989 . S
Co442 O467 1.967 . S
Co442 O474 1.920 . S
Co443 O446 1.966 . S
Co443 N452 2.022 . S
Co443 N460 1.993 . S
Co443 O468 1.941 . S
C444 O445 1.258 . S
C444 O446 1.263 . S
O445 Co442 1.970 . S
O445 C444 1.258 . S
O446 Co443 1.966 . S
O446 C444 1.263 . S
C447 O448 1.235 . S
C447 O474 1.289 . S
O448 C447 1.235 . S
C449 C451 1.400 . S
C449 N452 1.351 1_554 S
C449 C454 1.501 1_554 S
C450 C451 1.387 . S
C450 N453 1.341 . S
C451 C449 1.400 . S
C451 C450 1.387 . S
N452 Co443 2.022 . S
N452 C449 1.351 1_556 S
N452 N453 1.365 1_556 S
N453 C450 1.341 . S
N453 N452 1.365 1_554 S
N453 H473 0.862 1_554 S
C454 C449 1.501 1_556 S
C454 H455 0.961 . S
C454 H456 0.961 . S
C454 H457 0.960 1_556 S
H455 C454 0.961 . S
H456 C454 0.961 . S
H457 C454 0.960 1_554 S
C458 N459 1.342 . S
C458 C462 1.401 . S
C458 C463 1.499 . S
N459 Co442 1.989 . S
N459 C458 1.342 . S
N459 N460 1.388 . S
N460 Co443 1.993 . S
N460 N459 1.388 . S
N460 C461 1.346 . S
C461 N460 1.346 . S
C461 C462 1.396 . S
C461 C471 1.510 . S
C462 C458 1.401 . S
C462 C461 1.396 . S
C463 C458 1.499 . S
C463 H464 0.959 . S
C463 H465 0.960 . S
C463 H466 0.961 . S
H464 C463 0.959 . S
H465 C463 0.960 . S
H466 C463 0.961 . S
O467 Co442 1.967 . S
O467 C475 1.258 . S
O468 Co443 1.941 . S
O468 C475 1.266 . S
H469 C471 0.959 . S
H470 C471 0.961 . S
C471 C461 1.510 . S
C471 H469 0.959 . S
C471 H470 0.961 . S
C471 H472 0.960 . S
H472 C471 0.960 . S
H473 N453 0.862 1_556 S
O474 Co442 1.920 . S
O474 C447 1.289 . S
C475 O467 1.258 . S
C475 O468 1.266 . S
Co476 O479 1.970 . S
Co476 N493 1.989 . S
Co476 O501 1.967 . S
Co476 O508 1.920 . S
Co477 O480 1.966 . S
Co477 N486 2.022 . S
Co477 N494 1.993 . S
Co477 O502 1.941 . S
C478 O479 1.258 . S
C478 O480 1.263 . S
O479 Co476 1.970 . S
O479 C478 1.258 . S
O480 Co477 1.966 . S
O480 C478 1.263 . S
C481 O482 1.235 . S
C481 O508 1.289 . S
O482 C481 1.235 . S
C483 C485 1.400 . S
C483 N486 1.351 1_554 S
C483 C488 1.501 1_554 S
C484 C485 1.387 . S
C484 N487 1.341 . S
C485 C483 1.400 . S
C485 C484 1.387 . S
N486 Co477 2.022 . S
N486 C483 1.351 1_556 S
N486 N487 1.365 1_556 S
N487 C484 1.341 . S
N487 N486 1.365 1_554 S
N487 H507 0.862 1_554 S
C488 C483 1.501 1_556 S
C488 H489 0.961 . S
C488 H490 0.961 . S
C488 H491 0.960 1_556 S
H489 C488 0.961 . S
H490 C488 0.961 . S
H491 C488 0.960 1_554 S
C492 N493 1.342 . S
C492 C496 1.401 . S
C492 C497 1.499 . S
N493 Co476 1.989 . S
N493 C492 1.342 . S
N493 N494 1.388 . S
N494 Co477 1.993 . S
N494 N493 1.388 . S
N494 C495 1.346 . S
C495 N494 1.346 . S
C495 C496 1.396 . S
C495 C505 1.510 . S
C496 C492 1.401 . S
C496 C495 1.396 . S
C497 C492 1.499 . S
C497 H498 0.959 . S
C497 H499 0.960 . S
C497 H500 0.961 . S
H498 C497 0.959 . S
H499 C497 0.960 . S
H500 C497 0.961 . S
O501 Co476 1.967 . S
O501 C509 1.258 . S
O502 Co477 1.941 . S
O502 C509 1.266 . S
H503 C505 0.959 . S
H504 C505 0.961 . S
C505 C495 1.510 . S
C505 H503 0.959 . S
C505 H504 0.961 . S
C505 H506 0.960 . S
H506 C505 0.960 . S
H507 N487 0.862 1_556 S
O508 Co476 1.920 . S
O508 C481 1.289 . S
C509 O501 1.258 . S
C509 O502 1.266 . S
Co510 O513 1.970 . S
Co510 N527 1.989 . S
Co510 O535 1.967 . S
Co510 O542 1.920 . S
Co511 O514 1.966 . S
Co511 N520 2.022 . S
Co511 N528 1.993 . S
Co511 O536 1.941 . S
C512 O513 1.258 . S
C512 O514 1.263 . S
O513 Co510 1.970 . S
O513 C512 1.258 . S
O514 Co511 1.966 . S
O514 C512 1.263 . S
C515 O516 1.235 . S
C515 O542 1.289 . S
O516 C515 1.235 . S
C517 C519 1.400 . S
C517 N520 1.351 . S
C517 C522 1.501 . S
C518 C519 1.387 . S
C518 N521 1.341 . S
C519 C517 1.400 . S
C519 C518 1.387 . S
N520 Co511 2.022 . S
N520 C517 1.351 . S
N520 N521 1.365 . S
N521 C518 1.341 . S
N521 N520 1.365 . S
N521 H541 0.862 . S
C522 C517 1.501 . S
C522 H523 0.961 . S
C522 H524 0.961 . S
C522 H525 0.960 . S
H523 C522 0.961 . S
H524 C522 0.961 . S
H525 C522 0.960 . S
C526 N527 1.342 . S
C526 C530 1.401 . S
C526 C531 1.499 . S
N527 Co510 1.989 . S
N527 C526 1.342 . S
N527 N528 1.388 . S
N528 Co511 1.993 . S
N528 N527 1.388 . S
N528 C529 1.346 . S
C529 N528 1.346 . S
C529 C530 1.396 . S
C529 C539 1.510 . S
C530 C526 1.401 . S
C530 C529 1.396 . S
C531 C526 1.499 . S
C531 H532 0.959 . S
C531 H533 0.960 . S
C531 H534 0.961 . S
H532 C531 0.959 . S
H533 C531 0.960 . S
H534 C531 0.961 . S
O535 Co510 1.967 . S
O535 C543 1.258 . S
O536 Co511 1.941 . S
O536 C543 1.266 . S
H537 C539 0.959 . S
H538 C539 0.961 . S
C539 C529 1.510 . S
C539 H537 0.959 . S
C539 H538 0.961 . S
C539 H540 0.960 . S
H540 C539 0.960 . S
H541 N521 0.862 . S
O542 Co510 1.920 . S
O542 C515 1.289 . S
C543 O535 1.258 . S
C543 O536 1.266 . S
Co544 O547 1.970 . S
Co544 N561 1.989 . S
Co544 O569 1.967 . S
Co544 O576 1.920 . S
Co545 O548 1.966 . S
Co545 N554 2.022 . S
Co545 N562 1.993 . S
Co545 O570 1.941 . S
C546 O547 1.258 . S
C546 O548 1.263 . S
O547 Co544 1.970 . S
O547 C546 1.258 . S
O548 Co545 1.966 . S
O548 C546 1.263 . S
C549 O550 1.235 . S
C549 O576 1.289 . S
O550 C549 1.235 . S
C551 C553 1.400 . S
C551 N554 1.351 . S
C551 C556 1.501 . S
C552 C553 1.387 . S
C552 N555 1.341 . S
C553 C551 1.400 . S
C553 C552 1.387 . S
N554 Co545 2.022 . S
N554 C551 1.351 . S
N554 N555 1.365 . S
N555 C552 1.341 . S
N555 N554 1.365 . S
N555 H575 0.862 . S
C556 C551 1.501 . S
C556 H557 0.961 . S
C556 H558 0.961 . S
C556 H559 0.960 . S
H557 C556 0.961 . S
H558 C556 0.961 . S
H559 C556 0.960 . S
C560 N561 1.342 . S
C560 C564 1.401 . S
C560 C565 1.499 . S
N561 Co544 1.989 . S
N561 C560 1.342 . S
N561 N562 1.388 . S
N562 Co545 1.993 . S
N562 N561 1.388 . S
N562 C563 1.346 . S
C563 N562 1.346 . S
C563 C564 1.396 . S
C563 C573 1.510 . S
C564 C560 1.401 . S
C564 C563 1.396 . S
C565 C560 1.499 . S
C565 H566 0.959 . S
C565 H567 0.960 . S
C565 H568 0.961 . S
H566 C565 0.959 . S
H567 C565 0.960 . S
H568 C565 0.961 . S
O569 Co544 1.967 . S
O569 C577 1.258 . S
O570 Co545 1.941 . S
O570 C577 1.266 . S
H571 C573 0.959 . S
H572 C573 0.961 . S
C573 C563 1.510 . S
C573 H571 0.959 . S
C573 H572 0.961 . S
C573 H574 0.960 . S
H574 C573 0.960 . S
H575 N555 0.862 . S
O576 Co544 1.920 . S
O576 C549 1.289 . S
C577 O569 1.258 . S
C577 O570 1.266 . S
Co578 O581 1.970 . S
Co578 N595 1.989 . S
Co578 O603 1.967 . S
Co578 O610 1.920 . S
Co579 O582 1.966 . S
Co579 N588 2.022 . S
Co579 N596 1.993 . S
Co579 O604 1.941 . S
C580 O581 1.258 . S
C580 O582 1.263 . S
O581 Co578 1.970 . S
O581 C580 1.258 . S
O582 Co579 1.966 . S
O582 C580 1.263 . S
C583 O584 1.235 . S
C583 O610 1.289 . S
O584 C583 1.235 . S
C585 C587 1.400 . S
C585 N588 1.351 . S
C585 C590 1.501 . S
C586 C587 1.387 . S
C586 N589 1.341 . S
C587 C585 1.400 . S
C587 C586 1.387 . S
N588 Co579 2.022 . S
N588 C585 1.351 . S
N588 N589 1.365 . S
N589 C586 1.341 . S
N589 N588 1.365 . S
N589 H609 0.862 . S
C590 C585 1.501 . S
C590 H591 0.961 . S
C590 H592 0.961 . S
C590 H593 0.960 . S
H591 C590 0.961 . S
H592 C590 0.961 . S
H593 C590 0.960 . S
C594 N595 1.342 . S
C594 C598 1.401 . S
C594 C599 1.499 . S
N595 Co578 1.989 . S
N595 C594 1.342 . S
N595 N596 1.388 . S
N596 Co579 1.993 . S
N596 N595 1.388 . S
N596 C597 1.346 . S
C597 N596 1.346 . S
C597 C598 1.396 . S
C597 C607 1.510 . S
C598 C594 1.401 . S
C598 C597 1.396 . S
C599 C594 1.499 . S
C599 H600 0.959 . S
C599 H601 0.960 . S
C599 H602 0.961 . S
H600 C599 0.959 . S
H601 C599 0.960 . S
H602 C599 0.961 . S
O603 Co578 1.967 . S
O603 C611 1.258 . S
O604 Co579 1.941 . S
O604 C611 1.266 . S
H605 C607 0.959 . S
H606 C607 0.961 . S
C607 C597 1.510 . S
C607 H605 0.959 . S
C607 H606 0.961 . S
C607 H608 0.960 . S
H608 C607 0.960 . S
H609 N589 0.862 . S
O610 Co578 1.920 . S
O610 C583 1.289 . S
C611 O603 1.258 . S
C611 O604 1.266 . S
C612 C613 1.349 . S
C612 C614 1.327 . S
C612 H637 0.950 . S
C613 C612 1.349 . S
C613 C629 1.349 . S
C614 C612 1.327 . S
C614 C633 1.429 . S
C614 H638 0.950 . S
C615 C632 1.574 . S
C615 C634 1.368 . S
C615 H639 0.949 . S
H616 C620 0.949 . S
C617 C618 1.349 . S
C617 C619 1.327 . S
C617 H640 0.950 . S
C618 C617 1.349 . S
C618 C630 1.349 . S
C619 C617 1.327 . S
C619 C635 1.429 . S
C619 H641 0.950 . S
C620 H616 0.949 . S
C620 C628 1.574 . S
C620 C636 1.368 . S
H621 C629 0.950 . S
H622 C627 0.950 . S
H623 C628 0.949 . S
H624 C630 0.950 . S
H625 C631 0.950 . S
H626 C632 0.949 . S
C627 H622 0.950 . S
C627 C629 1.327 . S
C627 C633 1.429 . S
C628 C620 1.574 . S
C628 H623 0.949 . S
C628 C634 1.368 . S
C629 C613 1.349 . S
C629 H621 0.950 . S
C629 C627 1.327 . S
C630 C618 1.349 . S
C630 H624 0.950 . S
C630 C631 1.327 . S
C631 H625 0.950 . S
C631 C630 1.327 . S
C631 C635 1.429 . S
C632 C615 1.574 . S
C632 H626 0.949 . S
C632 C636 1.368 . S
C633 C614 1.429 . S
C633 C627 1.429 . S
C633 C634 1.523 . S
C634 C615 1.368 . S
C634 C628 1.368 . S
C634 C633 1.523 . S
C635 C619 1.429 . S
C635 C631 1.429 . S
C635 C636 1.523 . S
C636 C620 1.368 . S
C636 C632 1.368 . S
C636 C635 1.523 . S
H637 C612 0.950 . S
H638 C614 0.950 . S
H639 C615 0.949 . S
H640 C617 0.950 . S
H641 C619 0.950 . S
C642 C643 1.349 . S
C642 C644 1.327 . S
C642 H667 0.950 . S
C643 C642 1.349 . S
C643 C659 1.349 . S
C644 C642 1.327 . S
C644 C663 1.429 . S
C644 H668 0.950 . S
C645 C662 1.574 . S
C645 C664 1.368 . S
C645 H669 0.949 . S
H646 C650 0.949 . S
C647 C648 1.349 . S
C647 C649 1.327 . S
C647 H670 0.950 . S
C648 C647 1.349 . S
C648 C660 1.349 . S
C649 C647 1.327 . S
C649 C665 1.429 . S
C649 H671 0.950 . S
C650 H646 0.949 . S
C650 C658 1.574 . S
C650 C666 1.368 . S
H651 C659 0.950 . S
H652 C657 0.950 . S
H653 C658 0.949 . S
H654 C660 0.950 . S
H655 C661 0.950 . S
H656 C662 0.949 . S
C657 H652 0.950 . S
C657 C659 1.327 . S
C657 C663 1.429 . S
C658 C650 1.574 . S
C658 H653 0.949 . S
C658 C664 1.368 . S
C659 C643 1.349 . S
C659 H651 0.950 . S
C659 C657 1.327 . S
C660 C648 1.349 . S
C660 H654 0.950 . S
C660 C661 1.327 . S
C661 H655 0.950 . S
C661 C660 1.327 . S
C661 C665 1.429 . S
C662 C645 1.574 . S
C662 H656 0.949 . S
C662 C666 1.368 . S
C663 C644 1.429 . S
C663 C657 1.429 . S
C663 C664 1.523 . S
C664 C645 1.368 . S
C664 C658 1.368 . S
C664 C663 1.523 . S
C665 C649 1.429 . S
C665 C661 1.429 . S
C665 C666 1.523 . S
C666 C650 1.368 . S
C666 C662 1.368 . S
C666 C665 1.523 . S
H667 C642 0.950 . S
H668 C644 0.950 . S
H669 C645 0.949 . S
H670 C647 0.950 . S
H671 C649 0.950 . S
C672 C673 1.349 . S
C672 C674 1.327 . S
C672 H697 0.950 . S
C673 C672 1.349 . S
C673 C689 1.349 . S
C674 C672 1.327 . S
C674 C693 1.429 . S
C674 H698 0.950 . S
C675 C692 1.574 . S
C675 C694 1.368 . S
C675 H699 0.949 . S
H676 C680 0.949 . S
C677 C678 1.349 . S
C677 C679 1.327 . S
C677 H700 0.950 . S
C678 C677 1.349 . S
C678 C690 1.349 . S
C679 C677 1.327 . S
C679 C695 1.429 . S
C679 H701 0.950 . S
C680 H676 0.949 . S
C680 C688 1.574 . S
C680 C696 1.368 . S
H681 C689 0.950 . S
H682 C687 0.950 . S
H683 C688 0.949 . S
H684 C690 0.950 . S
H685 C691 0.950 . S
H686 C692 0.949 . S
C687 H682 0.950 . S
C687 C689 1.327 . S
C687 C693 1.429 . S
C688 C680 1.574 . S
C688 H683 0.949 . S
C688 C694 1.368 . S
C689 C673 1.349 . S
C689 H681 0.950 . S
C689 C687 1.327 . S
C690 C678 1.349 . S
C690 H684 0.950 . S
C690 C691 1.327 . S
C691 H685 0.950 . S
C691 C690 1.327 . S
C691 C695 1.429 . S
C692 C675 1.574 . S
C692 H686 0.949 . S
C692 C696 1.368 . S
C693 C674 1.429 . S
C693 C687 1.429 . S
C693 C694 1.523 . S
C694 C675 1.368 . S
C694 C688 1.368 . S
C694 C693 1.523 . S
C695 C679 1.429 . S
C695 C691 1.429 . S
C695 C696 1.523 . S
C696 C680 1.368 . S
C696 C692 1.368 . S
C696 C695 1.523 . S
H697 C672 0.950 . S
H698 C674 0.950 . S
H699 C675 0.949 . S
H700 C677 0.950 . S
H701 C679 0.950 . S
C702 C703 1.349 . S
C702 C704 1.327 . S
C702 H727 0.950 . S
C703 C702 1.349 . S
C703 C719 1.349 . S
C704 C702 1.327 . S
C704 C723 1.429 . S
C704 H728 0.950 . S
C705 C722 1.574 . S
C705 C724 1.368 . S
C705 H729 0.949 . S
H706 C710 0.949 . S
C707 C708 1.349 . S
C707 C709 1.327 . S
C707 H730 0.950 . S
C708 C707 1.349 . S
C708 C720 1.349 . S
C709 C707 1.327 . S
C709 C725 1.429 . S
C709 H731 0.950 . S
C710 H706 0.949 . S
C710 C718 1.574 . S
C710 C726 1.368 . S
H711 C719 0.950 . S
H712 C717 0.950 . S
H713 C718 0.949 . S
H714 C720 0.950 . S
H715 C721 0.950 . S
H716 C722 0.949 . S
C717 H712 0.950 . S
C717 C719 1.327 . S
C717 C723 1.429 . S
C718 C710 1.574 . S
C718 H713 0.949 . S
C718 C724 1.368 . S
C719 C703 1.349 . S
C719 H711 0.950 . S
C719 C717 1.327 . S
C720 C708 1.349 . S
C720 H714 0.950 . S
C720 C721 1.327 . S
C721 H715 0.950 . S
C721 C720 1.327 . S
C721 C725 1.429 . S
C722 C705 1.574 . S
C722 H716 0.949 . S
C722 C726 1.368 . S
C723 C704 1.429 . S
C723 C717 1.429 . S
C723 C724 1.523 . S
C724 C705 1.368 . S
C724 C718 1.368 . S
C724 C723 1.523 . S
C725 C709 1.429 . S
C725 C721 1.429 . S
C725 C726 1.523 . S
C726 C710 1.368 . S
C726 C722 1.368 . S
C726 C725 1.523 . S
H727 C702 0.950 . S
H728 C704 0.950 . S
H729 C705 0.949 . S
H730 C707 0.950 . S
H731 C709 0.950 . S
C732 C733 1.349 . S
C732 C734 1.327 . S
C732 H757 0.950 . S
C733 C732 1.349 . S
C733 C749 1.349 . S
C734 C732 1.327 . S
C734 C753 1.429 . S
C734 H758 0.950 . S
C735 C752 1.574 . S
C735 C754 1.368 . S
C735 H759 0.949 . S
H736 C740 0.949 . S
C737 C738 1.349 . S
C737 C739 1.327 . S
C737 H760 0.950 . S
C738 C737 1.349 . S
C738 C750 1.349 . S
C739 C737 1.327 . S
C739 C755 1.429 . S
C739 H761 0.950 . S
C740 H736 0.949 . S
C740 C748 1.574 . S
C740 C756 1.368 . S
H741 C749 0.950 . S
H742 C747 0.950 . S
H743 C748 0.949 . S
H744 C750 0.950 . S
H745 C751 0.950 . S
H746 C752 0.949 . S
C747 H742 0.950 . S
C747 C749 1.327 . S
C747 C753 1.429 . S
C748 C740 1.574 . S
C748 H743 0.949 . S
C748 C754 1.368 . S
C749 C733 1.349 . S
C749 H741 0.950 . S
C749 C747 1.327 . S
C750 C738 1.349 . S
C750 H744 0.950 . S
C750 C751 1.327 . S
C751 H745 0.950 . S
C751 C750 1.327 . S
C751 C755 1.429 . S
C752 C735 1.574 . S
C752 H746 0.949 . S
C752 C756 1.368 . S
C753 C734 1.429 . S
C753 C747 1.429 . S
C753 C754 1.523 . S
C754 C735 1.368 . S
C754 C748 1.368 . S
C754 C753 1.523 . S
C755 C739 1.429 . S
C755 C751 1.429 . S
C755 C756 1.523 . S
C756 C740 1.368 . S
C756 C752 1.368 . S
C756 C755 1.523 . S
H757 C732 0.950 . S
H758 C734 0.950 . S
H759 C735 0.949 . S
H760 C737 0.950 . S
H761 C739 0.950 . S
C762 C763 1.349 . S
C762 C764 1.327 . S
C762 H787 0.950 . S
C763 C762 1.349 . S
C763 C779 1.349 . S
C764 C762 1.327 . S
C764 C783 1.429 . S
C764 H788 0.950 . S
C765 C782 1.574 . S
C765 C784 1.368 . S
C765 H789 0.949 . S
H766 C770 0.949 . S
C767 C768 1.349 . S
C767 C769 1.327 . S
C767 H790 0.950 . S
C768 C767 1.349 . S
C768 C780 1.349 . S
C769 C767 1.327 . S
C769 C785 1.429 . S
C769 H791 0.950 . S
C770 H766 0.949 . S
C770 C778 1.574 . S
C770 C786 1.368 . S
H771 C779 0.950 . S
H772 C777 0.950 . S
H773 C778 0.949 . S
H774 C780 0.950 . S
H775 C781 0.950 . S
H776 C782 0.949 . S
C777 H772 0.950 . S
C777 C779 1.327 . S
C777 C783 1.429 . S
C778 C770 1.574 . S
C778 H773 0.949 . S
C778 C784 1.368 . S
C779 C763 1.349 . S
C779 H771 0.950 . S
C779 C777 1.327 . S
C780 C768 1.349 . S
C780 H774 0.950 . S
C780 C781 1.327 . S
C781 H775 0.950 . S
C781 C780 1.327 . S
C781 C785 1.429 . S
C782 C765 1.574 . S
C782 H776 0.949 . S
C782 C786 1.368 . S
C783 C764 1.429 . S
C783 C777 1.429 . S
C783 C784 1.523 . S
C784 C765 1.368 . S
C784 C778 1.368 . S
C784 C783 1.523 . S
C785 C769 1.429 . S
C785 C781 1.429 . S
C785 C786 1.523 . S
C786 C770 1.368 . S
C786 C782 1.368 . S
C786 C785 1.523 . S
H787 C762 0.950 . S
H788 C764 0.950 . S
H789 C765 0.949 . S
H790 C767 0.950 . S
H791 C769 0.950 . S
C792 C793 1.349 . S
C792 C794 1.327 . S
C792 H817 0.950 . S
C793 C792 1.349 . S
C793 C809 1.349 . S
C794 C792 1.327 . S
C794 C813 1.429 . S
C794 H818 0.950 . S
C795 C812 1.574 1_554 S
C795 C814 1.368 . S
C795 H819 0.949 . S
H796 C800 0.949 . S
C797 C798 1.349 . S
C797 C799 1.327 . S
C797 H820 0.950 . S
C798 C797 1.349 . S
C798 C810 1.349 . S
C799 C797 1.327 . S
C799 C815 1.429 . S
C799 H821 0.950 . S
C800 H796 0.949 . S
C800 C808 1.574 1_556 S
C800 C816 1.368 . S
H801 C809 0.950 . S
H802 C807 0.950 . S
H803 C808 0.949 . S
H804 C810 0.950 . S
H805 C811 0.950 . S
H806 C812 0.949 . S
C807 H802 0.950 . S
C807 C809 1.327 . S
C807 C813 1.429 . S
C808 C800 1.574 1_554 S
C808 H803 0.949 . S
C808 C814 1.368 . S
C809 C793 1.349 . S
C809 H801 0.950 . S
C809 C807 1.327 . S
C810 C798 1.349 . S
C810 H804 0.950 . S
C810 C811 1.327 . S
C811 H805 0.950 . S
C811 C810 1.327 . S
C811 C815 1.429 . S
C812 C795 1.574 1_556 S
C812 H806 0.949 . S
C812 C816 1.368 . S
C813 C794 1.429 . S
C813 C807 1.429 . S
C813 C814 1.523 . S
C814 C795 1.368 . S
C814 C808 1.368 . S
C814 C813 1.523 . S
C815 C799 1.429 . S
C815 C811 1.429 . S
C815 C816 1.523 . S
C816 C800 1.368 . S
C816 C812 1.368 . S
C816 C815 1.523 . S
H817 C792 0.950 . S
H818 C794 0.950 . S
H819 C795 0.949 . S
H820 C797 0.950 . S
H821 C799 0.950 . S
C822 C823 1.349 . S
C822 C824 1.327 . S
C822 H847 0.950 . S
C823 C822 1.349 . S
C823 C839 1.349 . S
C824 C822 1.327 . S
C824 C843 1.429 . S
C824 H848 0.950 . S
C825 C842 1.574 1_554 S
C825 C844 1.368 . S
C825 H849 0.949 . S
H826 C830 0.949 . S
C827 C828 1.349 . S
C827 C829 1.327 . S
C827 H850 0.950 . S
C828 C827 1.349 . S
C828 C840 1.349 . S
C829 C827 1.327 . S
C829 C845 1.429 . S
C829 H851 0.950 . S
C830 H826 0.949 . S
C830 C838 1.574 1_556 S
C830 C846 1.368 . S
H831 C839 0.950 . S
H832 C837 0.950 . S
H833 C838 0.949 . S
H834 C840 0.950 . S
H835 C841 0.950 . S
H836 C842 0.949 . S
C837 H832 0.950 . S
C837 C839 1.327 . S
C837 C843 1.429 . S
C838 C830 1.574 1_554 S
C838 H833 0.949 . S
C838 C844 1.368 . S
C839 C823 1.349 . S
C839 H831 0.950 . S
C839 C837 1.327 . S
C840 C828 1.349 . S
C840 H834 0.950 . S
C840 C841 1.327 . S
C841 H835 0.950 . S
C841 C840 1.327 . S
C841 C845 1.429 . S
C842 C825 1.574 1_556 S
C842 H836 0.949 . S
C842 C846 1.368 . S
C843 C824 1.429 . S
C843 C837 1.429 . S
C843 C844 1.523 . S
C844 C825 1.368 . S
C844 C838 1.368 . S
C844 C843 1.523 . S
C845 C829 1.429 . S
C845 C841 1.429 . S
C845 C846 1.523 . S
C846 C830 1.368 . S
C846 C842 1.368 . S
C846 C845 1.523 . S
H847 C822 0.950 . S
H848 C824 0.950 . S
H849 C825 0.949 . S
H850 C827 0.950 . S
H851 C829 0.950 . S
C852 C853 1.349 . S
C852 C854 1.327 . S
C852 H877 0.950 . S
C853 C852 1.349 . S
C853 C869 1.349 . S
C854 C852 1.327 . S
C854 C873 1.429 . S
C854 H878 0.950 . S
C855 C872 1.574 1_556 S
C855 C874 1.368 . S
C855 H879 0.949 . S
H856 C860 0.949 . S
C857 C858 1.349 . S
C857 C859 1.327 . S
C857 H880 0.950 . S
C858 C857 1.349 . S
C858 C870 1.349 . S
C859 C857 1.327 . S
C859 C875 1.429 . S
C859 H881 0.950 . S
C860 H856 0.949 . S
C860 C868 1.574 1_554 S
C860 C876 1.368 . S
H861 C869 0.950 . S
H862 C867 0.950 . S
H863 C868 0.949 . S
H864 C870 0.950 . S
H865 C871 0.950 . S
H866 C872 0.949 . S
C867 H862 0.950 . S
C867 C869 1.327 . S
C867 C873 1.429 . S
C868 C860 1.574 1_556 S
C868 H863 0.949 . S
C868 C874 1.368 . S
C869 C853 1.349 . S
C869 H861 0.950 . S
C869 C867 1.327 . S
C870 C858 1.349 . S
C870 H864 0.950 . S
C870 C871 1.327 . S
C871 H865 0.950 . S
C871 C870 1.327 . S
C871 C875 1.429 . S
C872 C855 1.574 1_554 S
C872 H866 0.949 . S
C872 C876 1.368 . S
C873 C854 1.429 . S
C873 C867 1.429 . S
C873 C874 1.523 . S
C874 C855 1.368 . S
C874 C868 1.368 . S
C874 C873 1.523 . S
C875 C859 1.429 . S
C875 C871 1.429 . S
C875 C876 1.523 . S
C876 C860 1.368 . S
C876 C872 1.368 . S
C876 C875 1.523 . S
H877 C852 0.950 . S
H878 C854 0.950 . S
H879 C855 0.949 . S
H880 C857 0.950 . S
H881 C859 0.950 . S
C882 C883 1.349 . S
C882 C884 1.327 . S
C882 H907 0.950 . S
C883 C882 1.349 . S
C883 C899 1.349 . S
C884 C882 1.327 . S
C884 C903 1.429 . S
C884 H908 0.950 . S
C885 C902 1.574 . S
C885 C904 1.368 . S
C885 H909 0.949 . S
H886 C890 0.949 . S
C887 C888 1.349 . S
C887 C889 1.327 . S
C887 H910 0.950 . S
C888 C887 1.349 . S
C888 C900 1.349 . S
C889 C887 1.327 . S
C889 C905 1.429 . S
C889 H911 0.950 . S
C890 H886 0.949 . S
C890 C898 1.574 . S
C890 C906 1.368 . S
H891 C899 0.950 . S
H892 C897 0.950 . S
H893 C898 0.949 . S
H894 C900 0.950 . S
H895 C901 0.950 . S
H896 C902 0.949 . S
C897 H892 0.950 . S
C897 C899 1.327 . S
C897 C903 1.429 . S
C898 C890 1.574 . S
C898 H893 0.949 . S
C898 C904 1.368 . S
C899 C883 1.349 . S
C899 H891 0.950 . S
C899 C897 1.327 . S
C900 C888 1.349 . S
C900 H894 0.950 . S
C900 C901 1.327 . S
C901 H895 0.950 . S
C901 C900 1.327 . S
C901 C905 1.429 . S
C902 C885 1.574 . S
C902 H896 0.949 . S
C902 C906 1.368 . S
C903 C884 1.429 . S
C903 C897 1.429 . S
C903 C904 1.523 . S
C904 C885 1.368 . S
C904 C898 1.368 . S
C904 C903 1.523 . S
C905 C889 1.429 . S
C905 C901 1.429 . S
C905 C906 1.523 . S
C906 C890 1.368 . S
C906 C902 1.368 . S
C906 C905 1.523 . S
H907 C882 0.950 . S
H908 C884 0.950 . S
H909 C885 0.949 . S
H910 C887 0.950 . S
H911 C889 0.950 . S
C912 C913 1.349 . S
C912 C914 1.327 . S
C912 H937 0.950 . S
C913 C912 1.349 . S
C913 C929 1.349 . S
C914 C912 1.327 . S
C914 C933 1.429 . S
C914 H938 0.950 . S
C915 C932 1.574 . S
C915 C934 1.368 . S
C915 H939 0.949 . S
H916 C920 0.949 . S
C917 C918 1.349 . S
C917 C919 1.327 . S
C917 H940 0.950 . S
C918 C917 1.349 . S
C918 C930 1.349 . S
C919 C917 1.327 . S
C919 C935 1.429 . S
C919 H941 0.950 . S
C920 H916 0.949 . S
C920 C928 1.574 . S
C920 C936 1.368 . S
H921 C929 0.950 . S
H922 C927 0.950 . S
H923 C928 0.949 . S
H924 C930 0.950 . S
H925 C931 0.950 . S
H926 C932 0.949 . S
C927 H922 0.950 . S
C927 C929 1.327 . S
C927 C933 1.429 . S
C928 C920 1.574 . S
C928 H923 0.949 . S
C928 C934 1.368 . S
C929 C913 1.349 . S
C929 H921 0.950 . S
C929 C927 1.327 . S
C930 C918 1.349 . S
C930 H924 0.950 . S
C930 C931 1.327 . S
C931 H925 0.950 . S
C931 C930 1.327 . S
C931 C935 1.429 . S
C932 C915 1.574 . S
C932 H926 0.949 . S
C932 C936 1.368 . S
C933 C914 1.429 . S
C933 C927 1.429 . S
C933 C934 1.523 . S
C934 C915 1.368 . S
C934 C928 1.368 . S
C934 C933 1.523 . S
C935 C919 1.429 . S
C935 C931 1.429 . S
C935 C936 1.523 . S
C936 C920 1.368 . S
C936 C932 1.368 . S
C936 C935 1.523 . S
H937 C912 0.950 . S
H938 C914 0.950 . S
H939 C915 0.949 . S
H940 C917 0.950 . S
H941 C919 0.950 . S
C942 C943 1.349 . S
C942 C944 1.327 . S
C942 H967 0.950 . S
C943 C942 1.349 . S
C943 C959 1.349 . S
C944 C942 1.327 . S
C944 C963 1.429 . S
C944 H968 0.950 . S
C945 C962 1.574 . S
C945 C964 1.368 . S
C945 H969 0.949 . S
H946 C950 0.949 . S
C947 C948 1.349 . S
C947 C949 1.327 . S
C947 H970 0.950 . S
C948 C947 1.349 . S
C948 C960 1.349 . S
C949 C947 1.327 . S
C949 C965 1.429 . S
C949 H971 0.950 . S
C950 H946 0.949 . S
C950 C958 1.574 . S
C950 C966 1.368 . S
H951 C959 0.950 . S
H952 C957 0.950 . S
H953 C958 0.949 . S
H954 C960 0.950 . S
H955 C961 0.950 . S
H956 C962 0.949 . S
C957 H952 0.950 . S
C957 C959 1.327 . S
C957 C963 1.429 . S
C958 C950 1.574 . S
C958 H953 0.949 . S
C958 C964 1.368 . S
C959 C943 1.349 . S
C959 H951 0.950 . S
C959 C957 1.327 . S
C960 C948 1.349 . S
C960 H954 0.950 . S
C960 C961 1.327 . S
C961 H955 0.950 . S
C961 C960 1.327 . S
C961 C965 1.429 . S
C962 C945 1.574 . S
C962 H956 0.949 . S
C962 C966 1.368 . S
C963 C944 1.429 . S
C963 C957 1.429 . S
C963 C964 1.523 . S
C964 C945 1.368 . S
C964 C958 1.368 . S
C964 C963 1.523 . S
C965 C949 1.429 . S
C965 C961 1.429 . S
C965 C966 1.523 . S
C966 C950 1.368 . S
C966 C962 1.368 . S
C966 C965 1.523 . S
H967 C942 0.950 . S
H968 C944 0.950 . S
H969 C945 0.949 . S
H970 C947 0.950 . S
H971 C949 0.950 . S
C972 C973 1.349 . S
C972 C974 1.327 . S
C972 H997 0.950 . S
C973 C972 1.349 . S
C973 C989 1.349 . S
C974 C972 1.327 . S
C974 C993 1.429 . S
C974 H998 0.950 . S
C975 C992 1.574 . S
C975 C994 1.368 . S
C975 H999 0.949 . S
H976 C980 0.949 . S
C977 C978 1.349 . S
C977 C979 1.327 . S
C977 H1000 0.950 . S
C978 C977 1.349 . S
C978 C990 1.349 . S
C979 C977 1.327 . S
C979 C995 1.429 . S
C979 H1001 0.950 . S
C980 H976 0.949 . S
C980 C988 1.574 . S
C980 C996 1.368 . S
H981 C989 0.950 . S
H982 C987 0.950 . S
H983 C988 0.949 . S
H984 C990 0.950 . S
H985 C991 0.950 . S
H986 C992 0.949 . S
C987 H982 0.950 . S
C987 C989 1.327 . S
C987 C993 1.429 . S
C988 C980 1.574 . S
C988 H983 0.949 . S
C988 C994 1.368 . S
C989 C973 1.349 . S
C989 H981 0.950 . S
C989 C987 1.327 . S
C990 C978 1.349 . S
C990 H984 0.950 . S
C990 C991 1.327 . S
C991 H985 0.950 . S
C991 C990 1.327 . S
C991 C995 1.429 . S
C992 C975 1.574 . S
C992 H986 0.949 . S
C992 C996 1.368 . S
C993 C974 1.429 . S
C993 C987 1.429 . S
C993 C994 1.523 . S
C994 C975 1.368 . S
C994 C988 1.368 . S
C994 C993 1.523 . S
C995 C979 1.429 . S
C995 C991 1.429 . S
C995 C996 1.523 . S
C996 C980 1.368 . S
C996 C992 1.368 . S
C996 C995 1.523 . S
H997 C972 0.950 . S
H998 C974 0.950 . S
H999 C975 0.949 . S
H1000 C977 0.950 . S
H1001 C979 0.950 . S
C1002 C1003 1.349 . S
C1002 C1004 1.327 . S
C1002 H1027 0.950 . S
C1003 C1002 1.349 . S
C1003 C1019 1.349 . S
C1004 C1002 1.327 . S
C1004 C1023 1.429 . S
C1004 H1028 0.950 . S
C1005 C1022 1.574 . S
C1005 C1024 1.368 . S
C1005 H1029 0.949 . S
H1006 C1010 0.949 . S
C1007 C1008 1.349 . S
C1007 C1009 1.327 . S
C1007 H1030 0.950 . S
C1008 C1007 1.349 . S
C1008 C1020 1.349 . S
C1009 C1007 1.327 . S
C1009 C1025 1.429 . S
C1009 H1031 0.950 . S
C1010 H1006 0.949 . S
C1010 C1018 1.574 . S
C1010 C1026 1.368 . S
H1011 C1019 0.950 . S
H1012 C1017 0.950 . S
H1013 C1018 0.949 . S
H1014 C1020 0.950 . S
H1015 C1021 0.950 . S
H1016 C1022 0.949 . S
C1017 H1012 0.950 . S
C1017 C1019 1.327 . S
C1017 C1023 1.429 . S
C1018 C1010 1.574 . S
C1018 H1013 0.949 . S
C1018 C1024 1.368 . S
C1019 C1003 1.349 . S
C1019 H1011 0.950 . S
C1019 C1017 1.327 . S
C1020 C1008 1.349 . S
C1020 H1014 0.950 . S
C1020 C1021 1.327 . S
C1021 H1015 0.950 . S
C1021 C1020 1.327 . S
C1021 C1025 1.429 . S
C1022 C1005 1.574 . S
C1022 H1016 0.949 . S
C1022 C1026 1.368 . S
C1023 C1004 1.429 . S
C1023 C1017 1.429 . S
C1023 C1024 1.523 . S
C1024 C1005 1.368 . S
C1024 C1018 1.368 . S
C1024 C1023 1.523 . S
C1025 C1009 1.429 . S
C1025 C1021 1.429 . S
C1025 C1026 1.523 . S
C1026 C1010 1.368 . S
C1026 C1022 1.368 . S
C1026 C1025 1.523 . S
H1027 C1002 0.950 . S
H1028 C1004 0.950 . S
H1029 C1005 0.949 . S
H1030 C1007 0.950 . S
H1031 C1009 0.950 . S
C1032 C1033 1.349 . S
C1032 C1034 1.327 . S
C1032 H1057 0.950 . S
C1033 C1032 1.349 . S
C1033 C1049 1.349 . S
C1034 C1032 1.327 . S
C1034 C1053 1.429 . S
C1034 H1058 0.950 . S
C1035 C1052 1.574 . S
C1035 C1054 1.368 . S
C1035 H1059 0.949 . S
H1036 C1040 0.949 . S
C1037 C1038 1.349 . S
C1037 C1039 1.327 . S
C1037 H1060 0.950 . S
C1038 C1037 1.349 . S
C1038 C1050 1.349 . S
C1039 C1037 1.327 . S
C1039 C1055 1.429 . S
C1039 H1061 0.950 . S
C1040 H1036 0.949 . S
C1040 C1048 1.574 . S
C1040 C1056 1.368 . S
H1041 C1049 0.950 . S
H1042 C1047 0.950 . S
H1043 C1048 0.949 . S
H1044 C1050 0.950 . S
H1045 C1051 0.950 . S
H1046 C1052 0.949 . S
C1047 H1042 0.950 . S
C1047 C1049 1.327 . S
C1047 C1053 1.429 . S
C1048 C1040 1.574 . S
C1048 H1043 0.949 . S
C1048 C1054 1.368 . S
C1049 C1033 1.349 . S
C1049 H1041 0.950 . S
C1049 C1047 1.327 . S
C1050 C1038 1.349 . S
C1050 H1044 0.950 . S
C1050 C1051 1.327 . S
C1051 H1045 0.950 . S
C1051 C1050 1.327 . S
C1051 C1055 1.429 . S
C1052 C1035 1.574 . S
C1052 H1046 0.949 . S
C1052 C1056 1.368 . S
C1053 C1034 1.429 . S
C1053 C1047 1.429 . S
C1053 C1054 1.523 . S
C1054 C1035 1.368 . S
C1054 C1048 1.368 . S
C1054 C1053 1.523 . S
C1055 C1039 1.429 . S
C1055 C1051 1.429 . S
C1055 C1056 1.523 . S
C1056 C1040 1.368 . S
C1056 C1052 1.368 . S
C1056 C1055 1.523 . S
H1057 C1032 0.950 . S
H1058 C1034 0.950 . S
H1059 C1035 0.949 . S
H1060 C1037 0.950 . S
H1061 C1039 0.950 . S
C1062 C1063 1.349 . S
C1062 C1064 1.327 . S
C1062 H1087 0.950 . S
C1063 C1062 1.349 . S
C1063 C1079 1.349 . S
C1064 C1062 1.327 . S
C1064 C1083 1.429 . S
C1064 H1088 0.950 . S
C1065 C1082 1.574 1_554 S
C1065 C1084 1.368 . S
C1065 H1089 0.949 . S
H1066 C1070 0.949 . S
C1067 C1068 1.349 . S
C1067 C1069 1.327 . S
C1067 H1090 0.950 . S
C1068 C1067 1.349 . S
C1068 C1080 1.349 . S
C1069 C1067 1.327 . S
C1069 C1085 1.429 . S
C1069 H1091 0.950 . S
C1070 H1066 0.949 . S
C1070 C1078 1.574 1_556 S
C1070 C1086 1.368 . S
H1071 C1079 0.950 . S
H1072 C1077 0.950 . S
H1073 C1078 0.949 . S
H1074 C1080 0.950 . S
H1075 C1081 0.950 . S
H1076 C1082 0.949 . S
C1077 H1072 0.950 . S
C1077 C1079 1.327 . S
C1077 C1083 1.429 . S
C1078 C1070 1.574 1_554 S
C1078 H1073 0.949 . S
C1078 C1084 1.368 . S
C1079 C1063 1.349 . S
C1079 H1071 0.950 . S
C1079 C1077 1.327 . S
C1080 C1068 1.349 . S
C1080 H1074 0.950 . S
C1080 C1081 1.327 . S
C1081 H1075 0.950 . S
C1081 C1080 1.327 . S
C1081 C1085 1.429 . S
C1082 C1065 1.574 1_556 S
C1082 H1076 0.949 . S
C1082 C1086 1.368 . S
C1083 C1064 1.429 . S
C1083 C1077 1.429 . S
C1083 C1084 1.523 . S
C1084 C1065 1.368 . S
C1084 C1078 1.368 . S
C1084 C1083 1.523 . S
C1085 C1069 1.429 . S
C1085 C1081 1.429 . S
C1085 C1086 1.523 . S
C1086 C1070 1.368 . S
C1086 C1082 1.368 . S
C1086 C1085 1.523 . S
H1087 C1062 0.950 . S
H1088 C1064 0.950 . S
H1089 C1065 0.949 . S
H1090 C1067 0.950 . S
H1091 C1069 0.950 . S
C1092 C1093 1.349 . S
C1092 C1094 1.327 . S
C1092 H1117 0.950 . S
C1093 C1092 1.349 . S
C1093 C1109 1.349 . S
C1094 C1092 1.327 . S
C1094 C1113 1.429 . S
C1094 H1118 0.950 . S
C1095 C1112 1.574 1_554 S
C1095 C1114 1.368 . S
C1095 H1119 0.949 . S
H1096 C1100 0.949 . S
C1097 C1098 1.349 . S
C1097 C1099 1.327 . S
C1097 H1120 0.950 . S
C1098 C1097 1.349 . S
C1098 C1110 1.349 . S
C1099 C1097 1.327 . S
C1099 C1115 1.429 . S
C1099 H1121 0.950 . S
C1100 H1096 0.949 . S
C1100 C1108 1.574 1_556 S
C1100 C1116 1.368 . S
H1101 C1109 0.950 . S
H1102 C1107 0.950 . S
H1103 C1108 0.949 . S
H1104 C1110 0.950 . S
H1105 C1111 0.950 . S
H1106 C1112 0.949 . S
C1107 H1102 0.950 . S
C1107 C1109 1.327 . S
C1107 C1113 1.429 . S
C1108 C1100 1.574 1_554 S
C1108 H1103 0.949 . S
C1108 C1114 1.368 . S
C1109 C1093 1.349 . S
C1109 H1101 0.950 . S
C1109 C1107 1.327 . S
C1110 C1098 1.349 . S
C1110 H1104 0.950 . S
C1110 C1111 1.327 . S
C1111 H1105 0.950 . S
C1111 C1110 1.327 . S
C1111 C1115 1.429 . S
C1112 C1095 1.574 1_556 S
C1112 H1106 0.949 . S
C1112 C1116 1.368 . S
C1113 C1094 1.429 . S
C1113 C1107 1.429 . S
C1113 C1114 1.523 . S
C1114 C1095 1.368 . S
C1114 C1108 1.368 . S
C1114 C1113 1.523 . S
C1115 C1099 1.429 . S
C1115 C1111 1.429 . S
C1115 C1116 1.523 . S
C1116 C1100 1.368 . S
C1116 C1112 1.368 . S
C1116 C1115 1.523 . S
H1117 C1092 0.950 . S
H1118 C1094 0.950 . S
H1119 C1095 0.949 . S
H1120 C1097 0.950 . S
H1121 C1099 0.950 . S
C1122 C1123 1.349 . S
C1122 C1124 1.327 . S
C1122 H1147 0.950 . S
C1123 C1122 1.349 . S
C1123 C1139 1.349 . S
C1124 C1122 1.327 . S
C1124 C1143 1.429 . S
C1124 H1148 0.950 . S
C1125 C1142 1.574 1_556 S
C1125 C1144 1.368 . S
C1125 H1149 0.949 . S
H1126 C1130 0.949 . S
C1127 C1128 1.349 . S
C1127 C1129 1.327 . S
C1127 H1150 0.950 . S
C1128 C1127 1.349 . S
C1128 C1140 1.349 . S
C1129 C1127 1.327 . S
C1129 C1145 1.429 . S
C1129 H1151 0.950 . S
C1130 H1126 0.949 . S
C1130 C1138 1.574 1_554 S
C1130 C1146 1.368 . S
H1131 C1139 0.950 . S
H1132 C1137 0.950 . S
H1133 C1138 0.949 . S
H1134 C1140 0.950 . S
H1135 C1141 0.950 . S
H1136 C1142 0.949 . S
C1137 H1132 0.950 . S
C1137 C1139 1.327 . S
C1137 C1143 1.429 . S
C1138 C1130 1.574 1_556 S
C1138 H1133 0.949 . S
C1138 C1144 1.368 . S
C1139 C1123 1.349 . S
C1139 H1131 0.950 . S
C1139 C1137 1.327 . S
C1140 C1128 1.349 . S
C1140 H1134 0.950 . S
C1140 C1141 1.327 . S
C1141 H1135 0.950 . S
C1141 C1140 1.327 . S
C1141 C1145 1.429 . S
C1142 C1125 1.574 1_554 S
C1142 H1136 0.949 . S
C1142 C1146 1.368 . S
C1143 C1124 1.429 . S
C1143 C1137 1.429 . S
C1143 C1144 1.523 . S
C1144 C1125 1.368 . S
C1144 C1138 1.368 . S
C1144 C1143 1.523 . S
C1145 C1129 1.429 . S
C1145 C1141 1.429 . S
C1145 C1146 1.523 . S
C1146 C1130 1.368 . S
C1146 C1142 1.368 . S
C1146 C1145 1.523 . S
H1147 C1122 0.950 . S
H1148 C1124 0.950 . S
H1149 C1125 0.949 . S
H1150 C1127 0.950 . S
H1151 C1129 0.950 . S
C1152 C1153 1.349 . S
C1152 C1154 1.327 . S
C1152 H1177 0.950 . S
C1153 C1152 1.349 . S
C1153 C1169 1.349 . S
C1154 C1152 1.327 . S
C1154 C1173 1.429 . S
C1154 H1178 0.950 . S
C1155 C1172 1.574 . S
C1155 C1174 1.368 . S
C1155 H1179 0.949 . S
H1156 C1160 0.949 . S
C1157 C1158 1.349 . S
C1157 C1159 1.327 . S
C1157 H1180 0.950 . S
C1158 C1157 1.349 . S
C1158 C1170 1.349 . S
C1159 C1157 1.327 . S
C1159 C1175 1.429 . S
C1159 H1181 0.950 . S
C1160 H1156 0.949 . S
C1160 C1168 1.574 . S
C1160 C1176 1.368 . S
H1161 C1169 0.950 . S
H1162 C1167 0.950 . S
H1163 C1168 0.949 . S
H1164 C1170 0.950 . S
H1165 C1171 0.950 . S
H1166 C1172 0.949 . S
C1167 H1162 0.950 . S
C1167 C1169 1.327 . S
C1167 C1173 1.429 . S
C1168 C1160 1.574 . S
C1168 H1163 0.949 . S
C1168 C1174 1.368 . S
C1169 C1153 1.349 . S
C1169 H1161 0.950 . S
C1169 C1167 1.327 . S
C1170 C1158 1.349 . S
C1170 H1164 0.950 . S
C1170 C1171 1.327 . S
C1171 H1165 0.950 . S
C1171 C1170 1.327 . S
C1171 C1175 1.429 . S
C1172 C1155 1.574 . S
C1172 H1166 0.949 . S
C1172 C1176 1.368 . S
C1173 C1154 1.429 . S
C1173 C1167 1.429 . S
C1173 C1174 1.523 . S
C1174 C1155 1.368 . S
C1174 C1168 1.368 . S
C1174 C1173 1.523 . S
C1175 C1159 1.429 . S
C1175 C1171 1.429 . S
C1175 C1176 1.523 . S
C1176 C1160 1.368 . S
C1176 C1172 1.368 . S
C1176 C1175 1.523 . S
H1177 C1152 0.950 . S
H1178 C1154 0.950 . S
H1179 C1155 0.949 . S
H1180 C1157 0.950 . S
H1181 C1159 0.950 . S
C1182 C1183 1.349 . S
C1182 C1184 1.327 . S
C1182 H1207 0.950 . S
C1183 C1182 1.349 . S
C1183 C1199 1.349 . S
C1184 C1182 1.327 . S
C1184 C1203 1.429 . S
C1184 H1208 0.950 . S
C1185 C1202 1.574 . S
C1185 C1204 1.368 . S
C1185 H1209 0.949 . S
H1186 C1190 0.949 . S
C1187 C1188 1.349 . S
C1187 C1189 1.327 . S
C1187 H1210 0.950 . S
C1188 C1187 1.349 . S
C1188 C1200 1.349 . S
C1189 C1187 1.327 . S
C1189 C1205 1.429 . S
C1189 H1211 0.950 . S
C1190 H1186 0.949 . S
C1190 C1198 1.574 . S
C1190 C1206 1.368 . S
H1191 C1199 0.950 . S
H1192 C1197 0.950 . S
H1193 C1198 0.949 . S
H1194 C1200 0.950 . S
H1195 C1201 0.950 . S
H1196 C1202 0.949 . S
C1197 H1192 0.950 . S
C1197 C1199 1.327 . S
C1197 C1203 1.429 . S
C1198 C1190 1.574 . S
C1198 H1193 0.949 . S
C1198 C1204 1.368 . S
C1199 C1183 1.349 . S
C1199 H1191 0.950 . S
C1199 C1197 1.327 . S
C1200 C1188 1.349 . S
C1200 H1194 0.950 . S
C1200 C1201 1.327 . S
C1201 H1195 0.950 . S
C1201 C1200 1.327 . S
C1201 C1205 1.429 . S
C1202 C1185 1.574 . S
C1202 H1196 0.949 . S
C1202 C1206 1.368 . S
C1203 C1184 1.429 . S
C1203 C1197 1.429 . S
C1203 C1204 1.523 . S
C1204 C1185 1.368 . S
C1204 C1198 1.368 . S
C1204 C1203 1.523 . S
C1205 C1189 1.429 . S
C1205 C1201 1.429 . S
C1205 C1206 1.523 . S
C1206 C1190 1.368 . S
C1206 C1202 1.368 . S
C1206 C1205 1.523 . S
H1207 C1182 0.950 . S
H1208 C1184 0.950 . S
H1209 C1185 0.949 . S
H1210 C1187 0.950 . S
H1211 C1189 0.950 . S
C1212 C1213 1.349 . S
C1212 C1214 1.327 . S
C1212 H1237 0.950 . S
C1213 C1212 1.349 . S
C1213 C1229 1.349 . S
C1214 C1212 1.327 . S
C1214 C1233 1.429 . S
C1214 H1238 0.950 . S
C1215 C1232 1.574 . S
C1215 C1234 1.368 . S
C1215 H1239 0.949 . S
H1216 C1220 0.949 . S
C1217 C1218 1.349 . S
C1217 C1219 1.327 . S
C1217 H1240 0.950 . S
C1218 C1217 1.349 . S
C1218 C1230 1.349 . S
C1219 C1217 1.327 . S
C1219 C1235 1.429 . S
C1219 H1241 0.950 . S
C1220 H1216 0.949 . S
C1220 C1228 1.574 . S
C1220 C1236 1.368 . S
H1221 C1229 0.950 . S
H1222 C1227 0.950 . S
H1223 C1228 0.949 . S
H1224 C1230 0.950 . S
H1225 C1231 0.950 . S
H1226 C1232 0.949 . S
C1227 H1222 0.950 . S
C1227 C1229 1.327 . S
C1227 C1233 1.429 . S
C1228 C1220 1.574 . S
C1228 H1223 0.949 . S
C1228 C1234 1.368 . S
C1229 C1213 1.349 . S
C1229 H1221 0.950 . S
C1229 C1227 1.327 . S
C1230 C1218 1.349 . S
C1230 H1224 0.950 . S
C1230 C1231 1.327 . S
C1231 H1225 0.950 . S
C1231 C1230 1.327 . S
C1231 C1235 1.429 . S
C1232 C1215 1.574 . S
C1232 H1226 0.949 . S
C1232 C1236 1.368 . S
C1233 C1214 1.429 . S
C1233 C1227 1.429 . S
C1233 C1234 1.523 . S
C1234 C1215 1.368 . S
C1234 C1228 1.368 . S
C1234 C1233 1.523 . S
C1235 C1219 1.429 . S
C1235 C1231 1.429 . S
C1235 C1236 1.523 . S
C1236 C1220 1.368 . S
C1236 C1232 1.368 . S
C1236 C1235 1.523 . S
H1237 C1212 0.950 . S
H1238 C1214 0.950 . S
H1239 C1215 0.949 . S
H1240 C1217 0.950 . S
H1241 C1219 0.950 . S
C1242 C1243 1.349 . S
C1242 C1244 1.327 . S
C1242 H1267 0.950 . S
C1243 C1242 1.349 . S
C1243 C1259 1.349 . S
C1244 C1242 1.327 . S
C1244 C1263 1.429 . S
C1244 H1268 0.950 . S
C1245 C1262 1.574 . S
C1245 C1264 1.368 . S
C1245 H1269 0.949 . S
H1246 C1250 0.949 . S
C1247 C1248 1.349 . S
C1247 C1249 1.327 . S
C1247 H1270 0.950 . S
C1248 C1247 1.349 . S
C1248 C1260 1.349 . S
C1249 C1247 1.327 . S
C1249 C1265 1.429 . S
C1249 H1271 0.950 . S
C1250 H1246 0.949 . S
C1250 C1258 1.574 . S
C1250 C1266 1.368 . S
H1251 C1259 0.950 . S
H1252 C1257 0.950 . S
H1253 C1258 0.949 . S
H1254 C1260 0.950 . S
H1255 C1261 0.950 . S
H1256 C1262 0.949 . S
C1257 H1252 0.950 . S
C1257 C1259 1.327 . S
C1257 C1263 1.429 . S
C1258 C1250 1.574 . S
C1258 H1253 0.949 . S
C1258 C1264 1.368 . S
C1259 C1243 1.349 . S
C1259 H1251 0.950 . S
C1259 C1257 1.327 . S
C1260 C1248 1.349 . S
C1260 H1254 0.950 . S
C1260 C1261 1.327 . S
C1261 H1255 0.950 . S
C1261 C1260 1.327 . S
C1261 C1265 1.429 . S
C1262 C1245 1.574 . S
C1262 H1256 0.949 . S
C1262 C1266 1.368 . S
C1263 C1244 1.429 . S
C1263 C1257 1.429 . S
C1263 C1264 1.523 . S
C1264 C1245 1.368 . S
C1264 C1258 1.368 . S
C1264 C1263 1.523 . S
C1265 C1249 1.429 . S
C1265 C1261 1.429 . S
C1265 C1266 1.523 . S
C1266 C1250 1.368 . S
C1266 C1262 1.368 . S
C1266 C1265 1.523 . S
H1267 C1242 0.950 . S
H1268 C1244 0.950 . S
H1269 C1245 0.949 . S
H1270 C1247 0.950 . S
H1271 C1249 0.950 . S
C1272 C1273 1.349 . S
C1272 C1274 1.327 . S
C1272 H1297 0.950 . S
C1273 C1272 1.349 . S
C1273 C1289 1.349 . S
C1274 C1272 1.327 . S
C1274 C1293 1.429 . S
C1274 H1298 0.950 . S
C1275 C1292 1.574 . S
C1275 C1294 1.368 . S
C1275 H1299 0.949 . S
H1276 C1280 0.949 . S
C1277 C1278 1.349 . S
C1277 C1279 1.327 . S
C1277 H1300 0.950 . S
C1278 C1277 1.349 . S
C1278 C1290 1.349 . S
C1279 C1277 1.327 . S
C1279 C1295 1.429 . S
C1279 H1301 0.950 . S
C1280 H1276 0.949 . S
C1280 C1288 1.574 . S
C1280 C1296 1.368 . S
H1281 C1289 0.950 . S
H1282 C1287 0.950 . S
H1283 C1288 0.949 . S
H1284 C1290 0.950 . S
H1285 C1291 0.950 . S
H1286 C1292 0.949 . S
C1287 H1282 0.950 . S
C1287 C1289 1.327 . S
C1287 C1293 1.429 . S
C1288 C1280 1.574 . S
C1288 H1283 0.949 . S
C1288 C1294 1.368 . S
C1289 C1273 1.349 . S
C1289 H1281 0.950 . S
C1289 C1287 1.327 . S
C1290 C1278 1.349 . S
C1290 H1284 0.950 . S
C1290 C1291 1.327 . S
C1291 H1285 0.950 . S
C1291 C1290 1.327 . S
C1291 C1295 1.429 . S
C1292 C1275 1.574 . S
C1292 H1286 0.949 . S
C1292 C1296 1.368 . S
C1293 C1274 1.429 . S
C1293 C1287 1.429 . S
C1293 C1294 1.523 . S
C1294 C1275 1.368 . S
C1294 C1288 1.368 . S
C1294 C1293 1.523 . S
C1295 C1279 1.429 . S
C1295 C1291 1.429 . S
C1295 C1296 1.523 . S
C1296 C1280 1.368 . S
C1296 C1292 1.368 . S
C1296 C1295 1.523 . S
H1297 C1272 0.950 . S
H1298 C1274 0.950 . S
H1299 C1275 0.949 . S
H1300 C1277 0.950 . S
H1301 C1279 0.950 . S
C1302 C1303 1.349 . S
C1302 C1304 1.327 . S
C1302 H1327 0.950 . S
C1303 C1302 1.349 . S
C1303 C1319 1.349 . S
C1304 C1302 1.327 . S
C1304 C1323 1.429 . S
C1304 H1328 0.950 . S
C1305 C1322 1.574 . S
C1305 C1324 1.368 . S
C1305 H1329 0.949 . S
H1306 C1310 0.949 . S
C1307 C1308 1.349 . S
C1307 C1309 1.327 . S
C1307 H1330 0.950 . S
C1308 C1307 1.349 . S
C1308 C1320 1.349 . S
C1309 C1307 1.327 . S
C1309 C1325 1.429 . S
C1309 H1331 0.950 . S
C1310 H1306 0.949 . S
C1310 C1318 1.574 . S
C1310 C1326 1.368 . S
H1311 C1319 0.950 . S
H1312 C1317 0.950 . S
H1313 C1318 0.949 . S
H1314 C1320 0.950 . S
H1315 C1321 0.950 . S
H1316 C1322 0.949 . S
C1317 H1312 0.950 . S
C1317 C1319 1.327 . S
C1317 C1323 1.429 . S
C1318 C1310 1.574 . S
C1318 H1313 0.949 . S
C1318 C1324 1.368 . S
C1319 C1303 1.349 . S
C1319 H1311 0.950 . S
C1319 C1317 1.327 . S
C1320 C1308 1.349 . S
C1320 H1314 0.950 . S
C1320 C1321 1.327 . S
C1321 H1315 0.950 . S
C1321 C1320 1.327 . S
C1321 C1325 1.429 . S
C1322 C1305 1.574 . S
C1322 H1316 0.949 . S
C1322 C1326 1.368 . S
C1323 C1304 1.429 . S
C1323 C1317 1.429 . S
C1323 C1324 1.523 . S
C1324 C1305 1.368 . S
C1324 C1318 1.368 . S
C1324 C1323 1.523 . S
C1325 C1309 1.429 . S
C1325 C1321 1.429 . S
C1325 C1326 1.523 . S
C1326 C1310 1.368 . S
C1326 C1322 1.368 . S
C1326 C1325 1.523 . S
H1327 C1302 0.950 . S
H1328 C1304 0.950 . S
H1329 C1305 0.949 . S
H1330 C1307 0.950 . S
H1331 C1309 0.950 . S
C1332 C1333 1.349 . S
C1332 C1334 1.327 . S
C1332 H1357 0.950 . S
C1333 C1332 1.349 . S
C1333 C1349 1.349 . S
C1334 C1332 1.327 . S
C1334 C1353 1.429 . S
C1334 H1358 0.950 . S
C1335 C1352 1.574 1_655 S
C1335 C1354 1.368 1_556 S
C1335 H1359 0.949 . S
H1336 C1340 0.949 . S
C1337 C1338 1.349 . S
C1337 C1339 1.327 . S
C1337 H1360 0.950 . S
C1338 C1337 1.349 . S
C1338 C1350 1.349 . S
C1339 C1337 1.327 . S
C1339 C1355 1.429 . S
C1339 H1361 0.950 . S
C1340 H1336 0.949 . S
C1340 C1348 1.574 1_455 S
C1340 C1356 1.368 1_554 S
H1341 C1349 0.950 . S
H1342 C1347 0.950 1_556 S
H1343 C1348 0.949 . S
H1344 C1350 0.950 . S
H1345 C1351 0.950 1_554 S
H1346 C1352 0.949 . S
C1347 H1342 0.950 1_554 S
C1347 C1349 1.327 . S
C1347 C1353 1.429 . S
C1348 C1340 1.574 1_655 S
C1348 H1343 0.949 . S
C1348 C1354 1.368 . S
C1349 C1333 1.349 . S
C1349 H1341 0.950 . S
C1349 C1347 1.327 . S
C1350 C1338 1.349 . S
C1350 H1344 0.950 . S
C1350 C1351 1.327 . S
C1351 H1345 0.950 1_556 S
C1351 C1350 1.327 . S
C1351 C1355 1.429 . S
C1352 C1335 1.574 1_455 S
C1352 H1346 0.949 . S
C1352 C1356 1.368 . S
C1353 C1334 1.429 . S
C1353 C1347 1.429 . S
C1353 C1354 1.523 . S
C1354 C1335 1.368 1_554 S
C1354 C1348 1.368 . S
C1354 C1353 1.523 . S
C1355 C1339 1.429 . S
C1355 C1351 1.429 . S
C1355 C1356 1.523 . S
C1356 C1340 1.368 1_556 S
C1356 C1352 1.368 . S
C1356 C1355 1.523 . S
H1357 C1332 0.950 . S
H1358 C1334 0.950 . S
H1359 C1335 0.949 . S
H1360 C1337 0.950 . S
H1361 C1339 0.950 . S
C1362 C1363 1.349 . S
C1362 C1364 1.327 . S
C1362 H1387 0.950 . S
C1363 C1362 1.349 . S
C1363 C1379 1.349 . S
C1364 C1362 1.327 . S
C1364 C1383 1.429 . S
C1364 H1388 0.950 . S
C1365 C1382 1.574 . S
C1365 C1384 1.368 1_554 S
C1365 H1389 0.949 . S
H1366 C1370 0.949 . S
C1367 C1368 1.349 . S
C1367 C1369 1.327 . S
C1367 H1390 0.950 . S
C1368 C1367 1.349 . S
C1368 C1380 1.349 . S
C1369 C1367 1.327 . S
C1369 C1385 1.429 . S
C1369 H1391 0.950 . S
C1370 H1366 0.949 . S
C1370 C1378 1.574 . S
C1370 C1386 1.368 1_556 S
H1371 C1379 0.950 . S
H1372 C1377 0.950 1_554 S
H1373 C1378 0.949 . S
H1374 C1380 0.950 . S
H1375 C1381 0.950 1_556 S
H1376 C1382 0.949 . S
C1377 H1372 0.950 1_556 S
C1377 C1379 1.327 . S
C1377 C1383 1.429 . S
C1378 C1370 1.574 . S
C1378 H1373 0.949 . S
C1378 C1384 1.368 . S
C1379 C1363 1.349 . S
C1379 H1371 0.950 . S
C1379 C1377 1.327 . S
C1380 C1368 1.349 . S
C1380 H1374 0.950 . S
C1380 C1381 1.327 . S
C1381 H1375 0.950 1_554 S
C1381 C1380 1.327 . S
C1381 C1385 1.429 . S
C1382 C1365 1.574 . S
C1382 H1376 0.949 . S
C1382 C1386 1.368 . S
C1383 C1364 1.429 . S
C1383 C1377 1.429 . S
C1383 C1384 1.523 . S
C1384 C1365 1.368 1_556 S
C1384 C1378 1.368 . S
C1384 C1383 1.523 . S
C1385 C1369 1.429 . S
C1385 C1381 1.429 . S
C1385 C1386 1.523 . S
C1386 C1370 1.368 1_554 S
C1386 C1382 1.368 . S
C1386 C1385 1.523 . S
H1387 C1362 0.950 . S
H1388 C1364 0.950 . S
H1389 C1365 0.949 . S
H1390 C1367 0.950 . S
H1391 C1369 0.950 . S
C1392 C1393 1.349 . S
C1392 C1394 1.327 . S
C1392 H1417 0.950 . S
C1393 C1392 1.349 . S
C1393 C1409 1.349 . S
C1394 C1392 1.327 . S
C1394 C1413 1.429 . S
C1394 H1418 0.950 1_554 S
C1395 C1412 1.574 1_545 S
C1395 C1414 1.368 . S
C1395 H1419 0.949 . S
H1396 C1400 0.949 . S
C1397 C1398 1.349 . S
C1397 C1399 1.327 . S
C1397 H1420 0.950 . S
C1398 C1397 1.349 . S
C1398 C1410 1.349 . S
C1399 C1397 1.327 . S
C1399 C1415 1.429 . S
C1399 H1421 0.950 1_556 S
C1400 H1396 0.949 . S
C1400 C1408 1.574 1_565 S
C1400 C1416 1.368 . S
H1401 C1409 0.950 . S
H1402 C1407 0.950 . S
H1403 C1408 0.949 . S
H1404 C1410 0.950 . S
H1405 C1411 0.950 . S
H1406 C1412 0.949 . S
C1407 H1402 0.950 . S
C1407 C1409 1.327 . S
C1407 C1413 1.429 . S
C1408 C1400 1.574 1_545 S
C1408 H1403 0.949 . S
C1408 C1414 1.368 1_556 S
C1409 C1393 1.349 . S
C1409 H1401 0.950 . S
C1409 C1407 1.327 . S
C1410 C1398 1.349 . S
C1410 H1404 0.950 . S
C1410 C1411 1.327 . S
C1411 H1405 0.950 . S
C1411 C1410 1.327 . S
C1411 C1415 1.429 . S
C1412 C1395 1.574 1_565 S
C1412 H1406 0.949 . S
C1412 C1416 1.368 1_554 S
C1413 C1394 1.429 . S
C1413 C1407 1.429 . S
C1413 C1414 1.523 . S
C1414 C1395 1.368 . S
C1414 C1408 1.368 1_554 S
C1414 C1413 1.523 . S
C1415 C1399 1.429 . S
C1415 C1411 1.429 . S
C1415 C1416 1.523 . S
C1416 C1400 1.368 . S
C1416 C1412 1.368 1_556 S
C1416 C1415 1.523 . S
H1417 C1392 0.950 . S
H1418 C1394 0.950 1_556 S
H1419 C1395 0.949 . S
H1420 C1397 0.950 . S
H1421 C1399 0.950 1_554 S
C1422 C1423 1.349 . S
C1422 C1424 1.327 . S
C1422 H1447 0.950 . S
C1423 C1422 1.349 . S
C1423 C1439 1.349 . S
C1424 C1422 1.327 . S
C1424 C1443 1.429 . S
C1424 H1448 0.950 . S
C1425 C1442 1.574 . S
C1425 C1444 1.368 1_556 S
C1425 H1449 0.949 . S
H1426 C1430 0.949 . S
C1427 C1428 1.349 . S
C1427 C1429 1.327 . S
C1427 H1450 0.950 . S
C1428 C1427 1.349 . S
C1428 C1440 1.349 . S
C1429 C1427 1.327 . S
C1429 C1445 1.429 . S
C1429 H1451 0.950 . S
C1430 H1426 0.949 . S
C1430 C1438 1.574 . S
C1430 C1446 1.368 1_554 S
H1431 C1439 0.950 . S
H1432 C1437 0.950 . S
H1433 C1438 0.949 . S
H1434 C1440 0.950 . S
H1435 C1441 0.950 . S
H1436 C1442 0.949 . S
C1437 H1432 0.950 . S
C1437 C1439 1.327 . S
C1437 C1443 1.429 . S
C1438 C1430 1.574 . S
C1438 H1433 0.949 . S
C1438 C1444 1.368 . S
C1439 C1423 1.349 . S
C1439 H1431 0.950 . S
C1439 C1437 1.327 . S
C1440 C1428 1.349 . S
C1440 H1434 0.950 . S
C1440 C1441 1.327 . S
C1441 H1435 0.950 . S
C1441 C1440 1.327 . S
C1441 C1445 1.429 . S
C1442 C1425 1.574 . S
C1442 H1436 0.949 . S
C1442 C1446 1.368 . S
C1443 C1424 1.429 . S
C1443 C1437 1.429 . S
C1443 C1444 1.523 . S
C1444 C1425 1.368 1_554 S
C1444 C1438 1.368 . S
C1444 C1443 1.523 . S
C1445 C1429 1.429 . S
C1445 C1441 1.429 . S
C1445 C1446 1.523 . S
C1446 C1430 1.368 1_556 S
C1446 C1442 1.368 . S
C1446 C1445 1.523 . S
H1447 C1422 0.950 . S
H1448 C1424 0.950 . S
H1449 C1425 0.949 . S
H1450 C1427 0.950 . S
H1451 C1429 0.950 . S
C1452 C1453 1.349 . S
C1452 C1454 1.327 . S
C1452 H1477 0.950 . S
C1453 C1452 1.349 . S
C1453 C1469 1.349 . S
C1454 C1452 1.327 . S
C1454 C1473 1.429 . S
C1454 H1478 0.950 . S
C1455 C1472 1.574 1_564 S
C1455 C1474 1.368 . S
C1455 H1479 0.949 . S
H1456 C1460 0.949 . S
C1457 C1458 1.349 . S
C1457 C1459 1.327 . S
C1457 H1480 0.950 . S
C1458 C1457 1.349 . S
C1458 C1470 1.349 . S
C1459 C1457 1.327 . S
C1459 C1475 1.429 . S
C1459 H1481 0.950 . S
C1460 H1456 0.949 . S
C1460 C1468 1.574 1_546 S
C1460 C1476 1.368 . S
H1461 C1469 0.950 . S
H1462 C1467 0.950 . S
H1463 C1468 0.949 . S
H1464 C1470 0.950 . S
H1465 C1471 0.950 . S
H1466 C1472 0.949 . S
C1467 H1462 0.950 . S
C1467 C1469 1.327 . S
C1467 C1473 1.429 . S
C1468 C1460 1.574 1_564 S
C1468 H1463 0.949 . S
C1468 C1474 1.368 . S
C1469 C1453 1.349 . S
C1469 H1461 0.950 . S
C1469 C1467 1.327 . S
C1470 C1458 1.349 . S
C1470 H1464 0.950 . S
C1470 C1471 1.327 . S
C1471 H1465 0.950 . S
C1471 C1470 1.327 . S
C1471 C1475 1.429 . S
C1472 C1455 1.574 1_546 S
C1472 H1466 0.949 . S
C1472 C1476 1.368 . S
C1473 C1454 1.429 . S
C1473 C1467 1.429 . S
C1473 C1474 1.523 . S
C1474 C1455 1.368 . S
C1474 C1468 1.368 . S
C1474 C1473 1.523 . S
C1475 C1459 1.429 . S
C1475 C1471 1.429 . S
C1475 C1476 1.523 . S
C1476 C1460 1.368 . S
C1476 C1472 1.368 . S
C1476 C1475 1.523 . S
H1477 C1452 0.950 . S
H1478 C1454 0.950 . S
H1479 C1455 0.949 . S
H1480 C1457 0.950 . S
H1481 C1459 0.950 . S
C1482 C1483 1.349 . S
C1482 C1484 1.327 . S
C1482 H1507 0.950 . S
C1483 C1482 1.349 . S
C1483 C1499 1.349 . S
C1484 C1482 1.327 . S
C1484 C1503 1.429 . S
C1484 H1508 0.950 . S
C1485 C1502 1.574 1_655 S
C1485 C1504 1.368 1_554 S
C1485 H1509 0.949 . S
H1486 C1490 0.949 . S
C1487 C1488 1.349 . S
C1487 C1489 1.327 . S
C1487 H1510 0.950 . S
C1488 C1487 1.349 . S
C1488 C1500 1.349 . S
C1489 C1487 1.327 . S
C1489 C1505 1.429 . S
C1489 H1511 0.950 . S
C1490 H1486 0.949 . S
C1490 C1498 1.574 1_455 S
C1490 C1506 1.368 1_556 S
H1491 C1499 0.950 . S
H1492 C1497 0.950 . S
H1493 C1498 0.949 . S
H1494 C1500 0.950 . S
H1495 C1501 0.950 . S
H1496 C1502 0.949 . S
C1497 H1492 0.950 . S
C1497 C1499 1.327 . S
C1497 C1503 1.429 . S
C1498 C1490 1.574 1_655 S
C1498 H1493 0.949 . S
C1498 C1504 1.368 . S
C1499 C1483 1.349 . S
C1499 H1491 0.950 . S
C1499 C1497 1.327 . S
C1500 C1488 1.349 . S
C1500 H1494 0.950 . S
C1500 C1501 1.327 . S
C1501 H1495 0.950 . S
C1501 C1500 1.327 . S
C1501 C1505 1.429 . S
C1502 C1485 1.574 1_455 S
C1502 H1496 0.949 . S
C1502 C1506 1.368 . S
C1503 C1484 1.429 . S
C1503 C1497 1.429 . S
C1503 C1504 1.523 . S
C1504 C1485 1.368 1_556 S
C1504 C1498 1.368 . S
C1504 C1503 1.523 . S
C1505 C1489 1.429 . S
C1505 C1501 1.429 . S
C1505 C1506 1.523 . S
C1506 C1490 1.368 1_554 S
C1506 C1502 1.368 . S
C1506 C1505 1.523 . S
H1507 C1482 0.950 . S
H1508 C1484 0.950 . S
H1509 C1485 0.949 . S
H1510 C1487 0.950 . S
H1511 C1489 0.950 . S
C1512 C1513 1.349 . S
C1512 C1514 1.327 . S
C1512 H1537 0.950 . S
C1513 C1512 1.349 . S
C1513 C1529 1.349 . S
C1514 C1512 1.327 . S
C1514 C1533 1.429 . S
C1514 H1538 0.949 1_556 S
C1515 C1532 1.574 . S
C1515 C1534 1.368 . S
C1515 H1539 0.949 . S
H1516 C1520 0.949 . S
C1517 C1518 1.349 . S
C1517 C1519 1.327 . S
C1517 H1540 0.950 . S
C1518 C1517 1.349 . S
C1518 C1530 1.349 . S
C1519 C1517 1.327 . S
C1519 C1535 1.429 . S
C1519 H1541 0.949 1_554 S
C1520 H1516 0.949 . S
C1520 C1528 1.574 . S
C1520 C1536 1.368 . S
H1521 C1529 0.950 . S
H1522 C1527 0.950 . S
H1523 C1528 0.949 . S
H1524 C1530 0.950 . S
H1525 C1531 0.950 . S
H1526 C1532 0.949 . S
C1527 H1522 0.950 . S
C1527 C1529 1.327 . S
C1527 C1533 1.429 . S
C1528 C1520 1.574 . S
C1528 H1523 0.949 . S
C1528 C1534 1.368 1_554 S
C1529 C1513 1.349 . S
C1529 H1521 0.950 . S
C1529 C1527 1.327 . S
C1530 C1518 1.349 . S
C1530 H1524 0.950 . S
C1530 C1531 1.327 . S
C1531 H1525 0.950 . S
C1531 C1530 1.327 . S
C1531 C1535 1.429 . S
C1532 C1515 1.574 . S
C1532 H1526 0.949 . S
C1532 C1536 1.368 1_556 S
C1533 C1514 1.429 . S
C1533 C1527 1.429 . S
C1533 C1534 1.523 . S
C1534 C1515 1.368 . S
C1534 C1528 1.368 1_556 S
C1534 C1533 1.523 . S
C1535 C1519 1.429 . S
C1535 C1531 1.429 . S
C1535 C1536 1.523 . S
C1536 C1520 1.368 . S
C1536 C1532 1.368 1_554 S
C1536 C1535 1.523 . S
H1537 C1512 0.950 . S
H1538 C1514 0.949 1_554 S
H1539 C1515 0.949 . S
H1540 C1517 0.950 . S
H1541 C1519 0.949 1_556 S
C1542 C1543 1.349 . S
C1542 C1544 1.327 . S
C1542 H1567 0.950 . S
C1543 C1542 1.349 . S
C1543 C1559 1.349 . S
C1544 C1542 1.327 . S
C1544 C1563 1.429 . S
C1544 H1568 0.950 1_556 S
C1545 C1562 1.574 1_545 S
C1545 C1564 1.368 . S
C1545 H1569 0.949 . S
H1546 C1550 0.949 . S
C1547 C1548 1.349 . S
C1547 C1549 1.327 . S
C1547 H1570 0.950 . S
C1548 C1547 1.349 . S
C1548 C1560 1.349 . S
C1549 C1547 1.327 . S
C1549 C1565 1.429 . S
C1549 H1571 0.950 1_554 S
C1550 H1546 0.949 . S
C1550 C1558 1.574 1_565 S
C1550 C1566 1.368 . S
H1551 C1559 0.950 . S
H1552 C1557 0.950 . S
H1553 C1558 0.949 . S
H1554 C1560 0.950 . S
H1555 C1561 0.950 . S
H1556 C1562 0.949 . S
C1557 H1552 0.950 . S
C1557 C1559 1.327 . S
C1557 C1563 1.429 . S
C1558 C1550 1.574 1_545 S
C1558 H1553 0.949 . S
C1558 C1564 1.368 1_554 S
C1559 C1543 1.349 . S
C1559 H1551 0.950 . S
C1559 C1557 1.327 . S
C1560 C1548 1.349 . S
C1560 H1554 0.950 . S
C1560 C1561 1.327 . S
C1561 H1555 0.950 . S
C1561 C1560 1.327 . S
C1561 C1565 1.429 . S
C1562 C1545 1.574 1_565 S
C1562 H1556 0.949 . S
C1562 C1566 1.368 1_556 S
C1563 C1544 1.429 . S
C1563 C1557 1.429 . S
C1563 C1564 1.523 . S
C1564 C1545 1.368 . S
C1564 C1558 1.368 1_556 S
C1564 C1563 1.523 . S
C1565 C1549 1.429 . S
C1565 C1561 1.429 . S
C1565 C1566 1.523 . S
C1566 C1550 1.368 . S
C1566 C1562 1.368 1_554 S
C1566 C1565 1.523 . S
H1567 C1542 0.950 . S
H1568 C1544 0.950 1_554 S
H1569 C1545 0.949 . S
H1570 C1547 0.950 . S
H1571 C1549 0.950 1_556 S
C1572 C1573 1.349 . S
C1572 C1574 1.327 . S
C1572 H1597 0.950 . S
C1573 C1572 1.349 . S
C1573 C1589 1.349 . S
C1574 C1572 1.327 . S
C1574 C1593 1.429 . S
C1574 H1598 0.950 1_556 S
C1575 C1592 1.574 1_655 S
C1575 C1594 1.368 . S
C1575 H1599 0.949 . S
H1576 C1580 0.949 . S
C1577 C1578 1.349 . S
C1577 C1579 1.327 . S
C1577 H1600 0.950 . S
C1578 C1577 1.349 . S
C1578 C1590 1.349 . S
C1579 C1577 1.327 . S
C1579 C1595 1.429 . S
C1579 H1601 0.950 1_554 S
C1580 H1576 0.949 . S
C1580 C1588 1.574 1_455 S
C1580 C1596 1.368 . S
H1581 C1589 0.950 . S
H1582 C1587 0.950 . S
H1583 C1588 0.949 . S
H1584 C1590 0.950 . S
H1585 C1591 0.950 . S
H1586 C1592 0.949 . S
C1587 H1582 0.950 . S
C1587 C1589 1.327 . S
C1587 C1593 1.429 . S
C1588 C1580 1.574 1_655 S
C1588 H1583 0.949 . S
C1588 C1594 1.368 1_554 S
C1589 C1573 1.349 . S
C1589 H1581 0.950 . S
C1589 C1587 1.327 . S
C1590 C1578 1.349 . S
C1590 H1584 0.950 . S
C1590 C1591 1.327 . S
C1591 H1585 0.950 . S
C1591 C1590 1.327 . S
C1591 C1595 1.429 . S
C1592 C1575 1.574 1_455 S
C1592 H1586 0.949 . S
C1592 C1596 1.368 1_556 S
C1593 C1574 1.429 . S
C1593 C1587 1.429 . S
C1593 C1594 1.523 . S
C1594 C1575 1.368 . S
C1594 C1588 1.368 1_556 S
C1594 C1593 1.523 . S
C1595 C1579 1.429 . S
C1595 C1591 1.429 . S
C1595 C1596 1.523 . S
C1596 C1580 1.368 . S
C1596 C1592 1.368 1_554 S
C1596 C1595 1.523 . S
H1597 C1572 0.950 . S
H1598 C1574 0.950 1_554 S
H1599 C1575 0.949 . S
H1600 C1577 0.950 . S
H1601 C1579 0.950 1_556 S
C1602 C1603 1.349 . S
C1602 C1604 1.327 . S
C1602 H1627 0.950 . S
C1603 C1602 1.349 . S
C1603 C1619 1.349 . S
C1604 C1602 1.327 . S
C1604 C1623 1.429 . S
C1604 H1628 0.950 . S
C1605 C1622 1.574 . S
C1605 C1624 1.368 . S
C1605 H1629 0.949 . S
H1606 C1610 0.949 . S
C1607 C1608 1.349 . S
C1607 C1609 1.327 . S
C1607 H1630 0.950 . S
C1608 C1607 1.349 . S
C1608 C1620 1.349 . S
C1609 C1607 1.327 . S
C1609 C1625 1.429 . S
C1609 H1631 0.950 . S
C1610 H1606 0.949 . S
C1610 C1618 1.574 . S
C1610 C1626 1.368 . S
H1611 C1619 0.950 . S
H1612 C1617 0.950 . S
H1613 C1618 0.949 . S
H1614 C1620 0.950 . S
H1615 C1621 0.950 . S
H1616 C1622 0.949 . S
C1617 H1612 0.950 . S
C1617 C1619 1.327 . S
C1617 C1623 1.429 . S
C1618 C1610 1.574 . S
C1618 H1613 0.949 . S
C1618 C1624 1.368 . S
C1619 C1603 1.349 . S
C1619 H1611 0.950 . S
C1619 C1617 1.327 . S
C1620 C1608 1.349 . S
C1620 H1614 0.950 . S
C1620 C1621 1.327 . S
C1621 H1615 0.950 . S
C1621 C1620 1.327 . S
C1621 C1625 1.429 . S
C1622 C1605 1.574 . S
C1622 H1616 0.949 . S
C1622 C1626 1.368 . S
C1623 C1604 1.429 . S
C1623 C1617 1.429 . S
C1623 C1624 1.523 . S
C1624 C1605 1.368 . S
C1624 C1618 1.368 . S
C1624 C1623 1.523 . S
C1625 C1609 1.429 . S
C1625 C1621 1.429 . S
C1625 C1626 1.523 . S
C1626 C1610 1.368 . S
C1626 C1622 1.368 . S
C1626 C1625 1.523 . S
H1627 C1602 0.950 . S
H1628 C1604 0.950 . S
H1629 C1605 0.949 . S
H1630 C1607 0.950 . S
H1631 C1609 0.950 . S
C1632 C1633 1.349 . S
C1632 C1634 1.327 . S
C1632 H1657 0.950 . S
C1633 C1632 1.349 . S
C1633 C1649 1.349 . S
C1634 C1632 1.327 . S
C1634 C1653 1.429 . S
C1634 H1658 0.950 . S
C1635 C1652 1.574 . S
C1635 C1654 1.368 . S
C1635 H1659 0.949 . S
H1636 C1640 0.949 . S
C1637 C1638 1.349 . S
C1637 C1639 1.327 . S
C1637 H1660 0.950 . S
C1638 C1637 1.349 . S
C1638 C1650 1.349 . S
C1639 C1637 1.327 . S
C1639 C1655 1.429 . S
C1639 H1661 0.950 . S
C1640 H1636 0.949 . S
C1640 C1648 1.574 . S
C1640 C1656 1.368 . S
H1641 C1649 0.950 . S
H1642 C1647 0.950 . S
H1643 C1648 0.949 . S
H1644 C1650 0.950 . S
H1645 C1651 0.950 . S
H1646 C1652 0.949 . S
C1647 H1642 0.950 . S
C1647 C1649 1.327 . S
C1647 C1653 1.429 . S
C1648 C1640 1.574 . S
C1648 H1643 0.949 . S
C1648 C1654 1.368 . S
C1649 C1633 1.349 . S
C1649 H1641 0.950 . S
C1649 C1647 1.327 . S
C1650 C1638 1.349 . S
C1650 H1644 0.950 . S
C1650 C1651 1.327 . S
C1651 H1645 0.950 . S
C1651 C1650 1.327 . S
C1651 C1655 1.429 . S
C1652 C1635 1.574 . S
C1652 H1646 0.949 . S
C1652 C1656 1.368 . S
C1653 C1634 1.429 . S
C1653 C1647 1.429 . S
C1653 C1654 1.523 . S
C1654 C1635 1.368 . S
C1654 C1648 1.368 . S
C1654 C1653 1.523 . S
C1655 C1639 1.429 . S
C1655 C1651 1.429 . S
C1655 C1656 1.523 . S
C1656 C1640 1.368 . S
C1656 C1652 1.368 . S
C1656 C1655 1.523 . S
H1657 C1632 0.950 . S
H1658 C1634 0.950 . S
H1659 C1635 0.949 . S
H1660 C1637 0.950 . S
H1661 C1639 0.950 . S
C1662 C1663 1.349 . S
C1662 C1664 1.327 . S
C1662 H1687 0.950 . S
C1663 C1662 1.349 . S
C1663 C1679 1.349 . S
C1664 C1662 1.327 . S
C1664 C1683 1.429 . S
C1664 H1688 0.950 . S
C1665 C1682 1.574 . S
C1665 C1684 1.368 . S
C1665 H1689 0.949 . S
H1666 C1670 0.949 . S
C1667 C1668 1.349 . S
C1667 C1669 1.327 . S
C1667 H1690 0.950 . S
C1668 C1667 1.349 . S
C1668 C1680 1.349 . S
C1669 C1667 1.327 . S
C1669 C1685 1.429 . S
C1669 H1691 0.950 . S
C1670 H1666 0.949 . S
C1670 C1678 1.574 . S
C1670 C1686 1.368 . S
H1671 C1679 0.950 . S
H1672 C1677 0.950 . S
H1673 C1678 0.949 . S
H1674 C1680 0.950 . S
H1675 C1681 0.950 . S
H1676 C1682 0.949 . S
C1677 H1672 0.950 . S
C1677 C1679 1.327 . S
C1677 C1683 1.429 . S
C1678 C1670 1.574 . S
C1678 H1673 0.949 . S
C1678 C1684 1.368 . S
C1679 C1663 1.349 . S
C1679 H1671 0.950 . S
C1679 C1677 1.327 . S
C1680 C1668 1.349 . S
C1680 H1674 0.950 . S
C1680 C1681 1.327 . S
C1681 H1675 0.950 . S
C1681 C1680 1.327 . S
C1681 C1685 1.429 . S
C1682 C1665 1.574 . S
C1682 H1676 0.949 . S
C1682 C1686 1.368 . S
C1683 C1664 1.429 . S
C1683 C1677 1.429 . S
C1683 C1684 1.523 . S
C1684 C1665 1.368 . S
C1684 C1678 1.368 . S
C1684 C1683 1.523 . S
C1685 C1669 1.429 . S
C1685 C1681 1.429 . S
C1685 C1686 1.523 . S
C1686 C1670 1.368 . S
C1686 C1682 1.368 . S
C1686 C1685 1.523 . S
H1687 C1662 0.950 . S
H1688 C1664 0.950 . S
H1689 C1665 0.949 . S
H1690 C1667 0.950 . S
H1691 C1669 0.950 . S
C1692 C1693 1.349 . S
C1692 C1694 1.327 . S
C1692 H1717 0.950 . S
C1693 C1692 1.349 . S
C1693 C1709 1.349 . S
C1694 C1692 1.327 . S
C1694 C1713 1.429 . S
C1694 H1718 0.950 . S
C1695 C1712 1.574 . S
C1695 C1714 1.368 . S
C1695 H1719 0.949 . S
H1696 C1700 0.949 . S
C1697 C1698 1.349 . S
C1697 C1699 1.327 . S
C1697 H1720 0.950 . S
C1698 C1697 1.349 . S
C1698 C1710 1.349 . S
C1699 C1697 1.327 . S
C1699 C1715 1.429 . S
C1699 H1721 0.950 . S
C1700 H1696 0.949 . S
C1700 C1708 1.574 . S
C1700 C1716 1.368 . S
H1701 C1709 0.950 . S
H1702 C1707 0.950 . S
H1703 C1708 0.949 . S
H1704 C1710 0.950 . S
H1705 C1711 0.950 . S
H1706 C1712 0.949 . S
C1707 H1702 0.950 . S
C1707 C1709 1.327 . S
C1707 C1713 1.429 . S
C1708 C1700 1.574 . S
C1708 H1703 0.949 . S
C1708 C1714 1.368 . S
C1709 C1693 1.349 . S
C1709 H1701 0.950 . S
C1709 C1707 1.327 . S
C1710 C1698 1.349 . S
C1710 H1704 0.950 . S
C1710 C1711 1.327 . S
C1711 H1705 0.950 . S
C1711 C1710 1.327 . S
C1711 C1715 1.429 . S
C1712 C1695 1.574 . S
C1712 H1706 0.949 . S
C1712 C1716 1.368 . S
C1713 C1694 1.429 . S
C1713 C1707 1.429 . S
C1713 C1714 1.523 . S
C1714 C1695 1.368 . S
C1714 C1708 1.368 . S
C1714 C1713 1.523 . S
C1715 C1699 1.429 . S
C1715 C1711 1.429 . S
C1715 C1716 1.523 . S
C1716 C1700 1.368 . S
C1716 C1712 1.368 . S
C1716 C1715 1.523 . S
H1717 C1692 0.950 . S
H1718 C1694 0.950 . S
H1719 C1695 0.949 . S
H1720 C1697 0.950 . S
H1721 C1699 0.950 . S
C1722 C1723 1.349 . S
C1722 C1724 1.327 . S
C1722 H1747 0.950 . S
C1723 C1722 1.349 . S
C1723 C1739 1.349 . S
C1724 C1722 1.327 . S
C1724 C1743 1.429 . S
C1724 H1748 0.950 . S
C1725 C1742 1.574 . S
C1725 C1744 1.368 . S
C1725 H1749 0.949 . S
H1726 C1730 0.949 . S
C1727 C1728 1.349 . S
C1727 C1729 1.327 . S
C1727 H1750 0.950 . S
C1728 C1727 1.349 . S
C1728 C1740 1.349 . S
C1729 C1727 1.327 . S
C1729 C1745 1.429 . S
C1729 H1751 0.950 . S
C1730 H1726 0.949 . S
C1730 C1738 1.574 . S
C1730 C1746 1.368 . S
H1731 C1739 0.950 . S
H1732 C1737 0.950 . S
H1733 C1738 0.949 . S
H1734 C1740 0.950 . S
H1735 C1741 0.950 . S
H1736 C1742 0.949 . S
C1737 H1732 0.950 . S
C1737 C1739 1.327 . S
C1737 C1743 1.429 . S
C1738 C1730 1.574 . S
C1738 H1733 0.949 . S
C1738 C1744 1.368 . S
C1739 C1723 1.349 . S
C1739 H1731 0.950 . S
C1739 C1737 1.327 . S
C1740 C1728 1.349 . S
C1740 H1734 0.950 . S
C1740 C1741 1.327 . S
C1741 H1735 0.950 . S
C1741 C1740 1.327 . S
C1741 C1745 1.429 . S
C1742 C1725 1.574 . S
C1742 H1736 0.949 . S
C1742 C1746 1.368 . S
C1743 C1724 1.429 . S
C1743 C1737 1.429 . S
C1743 C1744 1.523 . S
C1744 C1725 1.368 . S
C1744 C1738 1.368 . S
C1744 C1743 1.523 . S
C1745 C1729 1.429 . S
C1745 C1741 1.429 . S
C1745 C1746 1.523 . S
C1746 C1730 1.368 . S
C1746 C1742 1.368 . S
C1746 C1745 1.523 . S
H1747 C1722 0.950 . S
H1748 C1724 0.950 . S
H1749 C1725 0.949 . S
H1750 C1727 0.950 . S
H1751 C1729 0.950 . S
C1752 C1753 1.349 . S
C1752 C1754 1.327 . S
C1752 H1777 0.950 . S
C1753 C1752 1.349 . S
C1753 C1769 1.349 . S
C1754 C1752 1.327 . S
C1754 C1773 1.429 . S
C1754 H1778 0.950 . S
C1755 C1772 1.574 . S
C1755 C1774 1.368 . S
C1755 H1779 0.949 . S
H1756 C1760 0.949 . S
C1757 C1758 1.349 . S
C1757 C1759 1.327 . S
C1757 H1780 0.950 . S
C1758 C1757 1.349 . S
C1758 C1770 1.349 . S
C1759 C1757 1.327 . S
C1759 C1775 1.429 . S
C1759 H1781 0.950 . S
C1760 H1756 0.949 . S
C1760 C1768 1.574 . S
C1760 C1776 1.368 . S
H1761 C1769 0.950 . S
H1762 C1767 0.950 . S
H1763 C1768 0.949 . S
H1764 C1770 0.950 . S
H1765 C1771 0.950 . S
H1766 C1772 0.949 . S
C1767 H1762 0.950 . S
C1767 C1769 1.327 . S
C1767 C1773 1.429 . S
C1768 C1760 1.574 . S
C1768 H1763 0.949 . S
C1768 C1774 1.368 . S
C1769 C1753 1.349 . S
C1769 H1761 0.950 . S
C1769 C1767 1.327 . S
C1770 C1758 1.349 . S
C1770 H1764 0.950 . S
C1770 C1771 1.327 . S
C1771 H1765 0.950 . S
C1771 C1770 1.327 . S
C1771 C1775 1.429 . S
C1772 C1755 1.574 . S
C1772 H1766 0.949 . S
C1772 C1776 1.368 . S
C1773 C1754 1.429 . S
C1773 C1767 1.429 . S
C1773 C1774 1.523 . S
C1774 C1755 1.368 . S
C1774 C1768 1.368 . S
C1774 C1773 1.523 . S
C1775 C1759 1.429 . S
C1775 C1771 1.429 . S
C1775 C1776 1.523 . S
C1776 C1760 1.368 . S
C1776 C1772 1.368 . S
C1776 C1775 1.523 . S
H1777 C1752 0.950 . S
H1778 C1754 0.950 . S
H1779 C1755 0.949 . S
H1780 C1757 0.950 . S
H1781 C1759 0.950 . S
C1782 C1783 1.349 . S
C1782 C1784 1.327 . S
C1782 H1807 0.950 . S
C1783 C1782 1.349 . S
C1783 C1799 1.349 . S
C1784 C1782 1.327 . S
C1784 C1803 1.429 . S
C1784 H1808 0.950 . S
C1785 C1802 1.574 . S
C1785 C1804 1.368 . S
C1785 H1809 0.949 . S
H1786 C1790 0.949 . S
C1787 C1788 1.349 . S
C1787 C1789 1.327 . S
C1787 H1810 0.950 . S
C1788 C1787 1.349 . S
C1788 C1800 1.349 . S
C1789 C1787 1.327 . S
C1789 C1805 1.429 . S
C1789 H1811 0.950 . S
C1790 H1786 0.949 . S
C1790 C1798 1.574 . S
C1790 C1806 1.368 . S
H1791 C1799 0.950 . S
H1792 C1797 0.950 . S
H1793 C1798 0.949 . S
H1794 C1800 0.950 . S
H1795 C1801 0.950 . S
H1796 C1802 0.949 . S
C1797 H1792 0.950 . S
C1797 C1799 1.327 . S
C1797 C1803 1.429 . S
C1798 C1790 1.574 . S
C1798 H1793 0.949 . S
C1798 C1804 1.368 . S
C1799 C1783 1.349 . S
C1799 H1791 0.950 . S
C1799 C1797 1.327 . S
C1800 C1788 1.349 . S
C1800 H1794 0.950 . S
C1800 C1801 1.327 . S
C1801 H1795 0.950 . S
C1801 C1800 1.327 . S
C1801 C1805 1.429 . S
C1802 C1785 1.574 . S
C1802 H1796 0.949 . S
C1802 C1806 1.368 . S
C1803 C1784 1.429 . S
C1803 C1797 1.429 . S
C1803 C1804 1.523 . S
C1804 C1785 1.368 . S
C1804 C1798 1.368 . S
C1804 C1803 1.523 . S
C1805 C1789 1.429 . S
C1805 C1801 1.429 . S
C1805 C1806 1.523 . S
C1806 C1790 1.368 . S
C1806 C1802 1.368 . S
C1806 C1805 1.523 . S
H1807 C1782 0.950 . S
H1808 C1784 0.950 . S
H1809 C1785 0.949 . S
H1810 C1787 0.950 . S
H1811 C1789 0.950 . S
C1812 C1813 1.349 . S
C1812 C1814 1.327 . S
C1812 H1837 0.950 . S
C1813 C1812 1.349 . S
C1813 C1829 1.349 . S
C1814 C1812 1.327 . S
C1814 C1833 1.429 . S
C1814 H1838 0.950 . S
C1815 C1832 1.574 . S
C1815 C1834 1.368 . S
C1815 H1839 0.949 . S
H1816 C1820 0.949 . S
C1817 C1818 1.349 . S
C1817 C1819 1.327 . S
C1817 H1840 0.950 . S
C1818 C1817 1.349 . S
C1818 C1830 1.349 . S
C1819 C1817 1.327 . S
C1819 C1835 1.429 . S
C1819 H1841 0.950 . S
C1820 H1816 0.949 . S
C1820 C1828 1.574 . S
C1820 C1836 1.368 . S
H1821 C1829 0.950 . S
H1822 C1827 0.950 . S
H1823 C1828 0.949 . S
H1824 C1830 0.950 . S
H1825 C1831 0.950 . S
H1826 C1832 0.949 . S
C1827 H1822 0.950 . S
C1827 C1829 1.327 . S
C1827 C1833 1.429 . S
C1828 C1820 1.574 . S
C1828 H1823 0.949 . S
C1828 C1834 1.368 . S
C1829 C1813 1.349 . S
C1829 H1821 0.950 . S
C1829 C1827 1.327 . S
C1830 C1818 1.349 . S
C1830 H1824 0.950 . S
C1830 C1831 1.327 . S
C1831 H1825 0.950 . S
C1831 C1830 1.327 . S
C1831 C1835 1.429 . S
C1832 C1815 1.574 . S
C1832 H1826 0.949 . S
C1832 C1836 1.368 . S
C1833 C1814 1.429 . S
C1833 C1827 1.429 . S
C1833 C1834 1.523 . S
C1834 C1815 1.368 . S
C1834 C1828 1.368 . S
C1834 C1833 1.523 . S
C1835 C1819 1.429 . S
C1835 C1831 1.429 . S
C1835 C1836 1.523 . S
C1836 C1820 1.368 . S
C1836 C1832 1.368 . S
C1836 C1835 1.523 . S
H1837 C1812 0.950 . S
H1838 C1814 0.950 . S
H1839 C1815 0.949 . S
H1840 C1817 0.950 . S
H1841 C1819 0.950 . S
C1842 C1843 1.349 . S
C1842 C1844 1.327 . S
C1842 H1867 0.950 . S
C1843 C1842 1.349 . S
C1843 C1859 1.349 . S
C1844 C1842 1.327 . S
C1844 C1863 1.429 . S
C1844 H1868 0.950 . S
C1845 C1862 1.574 . S
C1845 C1864 1.368 . S
C1845 H1869 0.949 . S
H1846 C1850 0.949 . S
C1847 C1848 1.349 . S
C1847 C1849 1.327 . S
C1847 H1870 0.950 . S
C1848 C1847 1.349 . S
C1848 C1860 1.349 . S
C1849 C1847 1.327 . S
C1849 C1865 1.429 . S
C1849 H1871 0.950 . S
C1850 H1846 0.949 . S
C1850 C1858 1.574 . S
C1850 C1866 1.368 . S
H1851 C1859 0.950 . S
H1852 C1857 0.950 . S
H1853 C1858 0.949 . S
H1854 C1860 0.950 . S
H1855 C1861 0.950 . S
H1856 C1862 0.949 . S
C1857 H1852 0.950 . S
C1857 C1859 1.327 . S
C1857 C1863 1.429 . S
C1858 C1850 1.574 . S
C1858 H1853 0.949 . S
C1858 C1864 1.368 . S
C1859 C1843 1.349 . S
C1859 H1851 0.950 . S
C1859 C1857 1.327 . S
C1860 C1848 1.349 . S
C1860 H1854 0.950 . S
C1860 C1861 1.327 . S
C1861 H1855 0.950 . S
C1861 C1860 1.327 . S
C1861 C1865 1.429 . S
C1862 C1845 1.574 . S
C1862 H1856 0.949 . S
C1862 C1866 1.368 . S
C1863 C1844 1.429 . S
C1863 C1857 1.429 . S
C1863 C1864 1.523 . S
C1864 C1845 1.368 . S
C1864 C1858 1.368 . S
C1864 C1863 1.523 . S
C1865 C1849 1.429 . S
C1865 C1861 1.429 . S
C1865 C1866 1.523 . S
C1866 C1850 1.368 . S
C1866 C1862 1.368 . S
C1866 C1865 1.523 . S
H1867 C1842 0.950 . S
H1868 C1844 0.950 . S
H1869 C1845 0.949 . S
H1870 C1847 0.950 . S
H1871 C1849 0.950 . S
C1872 C1873 1.349 . S
C1872 C1874 1.327 . S
C1872 H1897 0.950 . S
C1873 C1872 1.349 . S
C1873 C1889 1.349 . S
C1874 C1872 1.327 . S
C1874 C1893 1.429 . S
C1874 H1898 0.950 . S
C1875 C1892 1.574 . S
C1875 C1894 1.368 . S
C1875 H1899 0.949 . S
H1876 C1880 0.949 . S
C1877 C1878 1.349 . S
C1877 C1879 1.327 . S
C1877 H1900 0.950 . S
C1878 C1877 1.349 . S
C1878 C1890 1.349 . S
C1879 C1877 1.327 . S
C1879 C1895 1.429 . S
C1879 H1901 0.950 . S
C1880 H1876 0.949 . S
C1880 C1888 1.574 . S
C1880 C1896 1.368 . S
H1881 C1889 0.950 . S
H1882 C1887 0.950 . S
H1883 C1888 0.949 . S
H1884 C1890 0.950 . S
H1885 C1891 0.950 . S
H1886 C1892 0.949 . S
C1887 H1882 0.950 . S
C1887 C1889 1.327 . S
C1887 C1893 1.429 . S
C1888 C1880 1.574 . S
C1888 H1883 0.949 . S
C1888 C1894 1.368 . S
C1889 C1873 1.349 . S
C1889 H1881 0.950 . S
C1889 C1887 1.327 . S
C1890 C1878 1.349 . S
C1890 H1884 0.950 . S
C1890 C1891 1.327 . S
C1891 H1885 0.950 . S
C1891 C1890 1.327 . S
C1891 C1895 1.429 . S
C1892 C1875 1.574 . S
C1892 H1886 0.949 . S
C1892 C1896 1.368 . S
C1893 C1874 1.429 . S
C1893 C1887 1.429 . S
C1893 C1894 1.523 . S
C1894 C1875 1.368 . S
C1894 C1888 1.368 . S
C1894 C1893 1.523 . S
C1895 C1879 1.429 . S
C1895 C1891 1.429 . S
C1895 C1896 1.523 . S
C1896 C1880 1.368 . S
C1896 C1892 1.368 . S
C1896 C1895 1.523 . S
H1897 C1872 0.950 . S
H1898 C1874 0.950 . S
H1899 C1875 0.949 . S
H1900 C1877 0.950 . S
H1901 C1879 0.950 . S
C1902 C1903 1.349 . S
C1902 C1904 1.327 . S
C1902 H1927 0.950 . S
C1903 C1902 1.349 . S
C1903 C1919 1.349 . S
C1904 C1902 1.327 . S
C1904 C1923 1.429 . S
C1904 H1928 0.950 . S
C1905 C1922 1.574 . S
C1905 C1924 1.368 . S
C1905 H1929 0.949 . S
H1906 C1910 0.949 . S
C1907 C1908 1.349 . S
C1907 C1909 1.327 . S
C1907 H1930 0.950 . S
C1908 C1907 1.349 . S
C1908 C1920 1.349 . S
C1909 C1907 1.327 . S
C1909 C1925 1.429 . S
C1909 H1931 0.950 . S
C1910 H1906 0.949 . S
C1910 C1918 1.574 . S
C1910 C1926 1.368 . S
H1911 C1919 0.950 . S
H1912 C1917 0.950 . S
H1913 C1918 0.949 . S
H1914 C1920 0.950 . S
H1915 C1921 0.950 . S
H1916 C1922 0.949 . S
C1917 H1912 0.950 . S
C1917 C1919 1.327 . S
C1917 C1923 1.429 . S
C1918 C1910 1.574 . S
C1918 H1913 0.949 . S
C1918 C1924 1.368 . S
C1919 C1903 1.349 . S
C1919 H1911 0.950 . S
C1919 C1917 1.327 . S
C1920 C1908 1.349 . S
C1920 H1914 0.950 . S
C1920 C1921 1.327 . S
C1921 H1915 0.950 . S
C1921 C1920 1.327 . S
C1921 C1925 1.429 . S
C1922 C1905 1.574 . S
C1922 H1916 0.949 . S
C1922 C1926 1.368 . S
C1923 C1904 1.429 . S
C1923 C1917 1.429 . S
C1923 C1924 1.523 . S
C1924 C1905 1.368 . S
C1924 C1918 1.368 . S
C1924 C1923 1.523 . S
C1925 C1909 1.429 . S
C1925 C1921 1.429 . S
C1925 C1926 1.523 . S
C1926 C1910 1.368 . S
C1926 C1922 1.368 . S
C1926 C1925 1.523 . S
H1927 C1902 0.950 . S
H1928 C1904 0.950 . S
H1929 C1905 0.949 . S
H1930 C1907 0.950 . S
H1931 C1909 0.950 . S
C1932 C1933 1.349 . S
C1932 C1934 1.327 . S
C1932 H1957 0.950 . S
C1933 C1932 1.349 . S
C1933 C1949 1.349 . S
C1934 C1932 1.327 . S
C1934 C1953 1.429 . S
C1934 H1958 0.950 . S
C1935 C1952 1.574 . S
C1935 C1954 1.368 . S
C1935 H1959 0.949 . S
H1936 C1940 0.949 . S
C1937 C1938 1.349 . S
C1937 C1939 1.327 . S
C1937 H1960 0.950 . S
C1938 C1937 1.349 . S
C1938 C1950 1.349 . S
C1939 C1937 1.327 . S
C1939 C1955 1.429 . S
C1939 H1961 0.950 . S
C1940 H1936 0.949 . S
C1940 C1948 1.574 . S
C1940 C1956 1.368 . S
H1941 C1949 0.950 . S
H1942 C1947 0.950 . S
H1943 C1948 0.949 . S
H1944 C1950 0.950 . S
H1945 C1951 0.950 . S
H1946 C1952 0.949 . S
C1947 H1942 0.950 . S
C1947 C1949 1.327 . S
C1947 C1953 1.429 . S
C1948 C1940 1.574 . S
C1948 H1943 0.949 . S
C1948 C1954 1.368 . S
C1949 C1933 1.349 . S
C1949 H1941 0.950 . S
C1949 C1947 1.327 . S
C1950 C1938 1.349 . S
C1950 H1944 0.950 . S
C1950 C1951 1.327 . S
C1951 H1945 0.950 . S
C1951 C1950 1.327 . S
C1951 C1955 1.429 . S
C1952 C1935 1.574 . S
C1952 H1946 0.949 . S
C1952 C1956 1.368 . S
C1953 C1934 1.429 . S
C1953 C1947 1.429 . S
C1953 C1954 1.523 . S
C1954 C1935 1.368 . S
C1954 C1948 1.368 . S
C1954 C1953 1.523 . S
C1955 C1939 1.429 . S
C1955 C1951 1.429 . S
C1955 C1956 1.523 . S
C1956 C1940 1.368 . S
C1956 C1952 1.368 . S
C1956 C1955 1.523 . S
H1957 C1932 0.950 . S
H1958 C1934 0.950 . S
H1959 C1935 0.949 . S
H1960 C1937 0.950 . S
H1961 C1939 0.950 . S
C613 C9 0.802 . S
C618 C5 0.814 . S
C643 C43 0.802 . S
C648 C39 0.814 . S
C673 C73 0.813 . S
C678 C77 0.802 . S
C703 C111 0.802 . S
C708 C107 0.814 . S
C733 C145 0.802 . S
C738 C141 0.813 . S
C763 C175 0.814 . S
C768 C179 0.802 . S
C793 C209 0.814 . S
C798 C213 0.802 . S
C823 C243 0.814 . S
C828 C247 0.802 . S
C853 C281 0.802 . S
C858 C277 0.813 . S
C883 C315 0.802 . S
C888 C311 0.814 . S
C913 C349 0.802 . S
C918 C345 0.813 . S
C943 C379 0.814 . S
C948 C383 0.802 . S
C973 C413 0.814 . S
C978 C417 0.802 . S
C1003 C447 0.814 . S
C1008 C451 0.802 . S
C1033 C481 0.813 . S
C1038 C485 0.802 . S
C1063 C519 0.802 . S
C1068 C515 0.814 . S
C1093 C553 0.802 . S
C1098 C549 0.813 . S
C1123 C583 0.814 . S
C1128 C587 0.802 . S
C1153 C598 1.845 . S
C1158 C20 1.845 . S
C1183 C54 1.845 . S
C1188 C530 1.845 . S
C1213 C564 1.845 . S
C1218 C88 1.845 . S
C1243 C258 1.845 . S
C1248 C122 1.845 . S
C1273 C156 1.845 . S
C1278 C292 1.845 . S
C1303 C190 1.845 . S
C1308 C224 1.845 . S
C1333 C326 1.845 . S
C1338 C462 1.845 . S
C1363 C496 1.845 . S
C1368 C360 1.845 . S
C1393 C394 1.845 . S
C1398 C428 1.845 . S
C1423 C33 1.159 . S
C1428 C135 1.159 . S
C1453 C67 1.158 . S
C1458 C169 1.158 . S
C1483 C203 1.158 . S
C1488 C101 1.158 . S
C1513 C172 1.731 . S
C1518 C36 1.731 . S
C1543 C104 1.730 . S
C1548 C70 1.730 . S
C1573 C138 1.730 . S
C1578 C2 1.730 . S
C1603 C339 1.159 . S
C1608 C237 1.159 . S
C1633 C373 1.158 . S
C1638 C271 1.158 . S
C1663 C305 1.158 . S
C1668 C407 1.158 . S
C1693 C376 1.731 . S
C1698 C240 1.731 . S
C1723 C274 1.730 . S
C1728 C308 1.730 . S
C1753 C206 1.730 . S
C1758 C342 1.730 . S
C1783 C543 1.159 . S
C1788 C441 1.159 . S
C1813 C577 1.158 . S
C1818 C475 1.158 . S
C1843 C611 1.158 . S
C1848 C509 1.158 . S
C1873 C444 1.731 . S
C1878 C580 1.731 . S
C1903 C478 1.730 . S
C1908 C512 1.730 . S
C1933 C546 1.730 . S
C1938 C410 1.730 . S
