# Generated by pormake.
# Topology uoq, (4)-cn, num edge types: 1
# Building blocks:
#     Node 0, Type 0, BuildingBlock: TATPOV_clean_sbu_0, # of connection points: 4
#     Node 1, Type 0, BuildingBlock: TATPOV_clean_sbu_0, # of connection points: 4
#     Node 2, Type 0, BuildingBlock: TATPOV_clean_sbu_0, # of connection points: 4
#     Node 3, Type 0, BuildingBlock: TATPOV_clean_sbu_0, # of connection points: 4
#     Node 4, Type 0, BuildingBlock: TATPOV_clean_sbu_0, # of connection points: 4
#     Node 5, Type 0, BuildingBlock: TATPOV_clean_sbu_0, # of connection points: 4
#     Node 6, Type 0, BuildingBlock: TATPOV_clean_sbu_0, # of connection points: 4
#     Node 7, Type 0, BuildingBlock: TATPOV_clean_sbu_0, # of connection points: 4
#     Node 8, Type 0, BuildingBlock: TATPOV_clean_sbu_0, # of connection points: 4
#     Node 9, Type 0, BuildingBlock: TATPOV_clean_sbu_0, # of connection points: 4
#     Node 10, Type 0, BuildingBlock: TATPOV_clean_sbu_0, # of connection points: 4
#     Node 11, Type 0, BuildingBlock: TATPOV_clean_sbu_0, # of connection points: 4
#     Edge 12, Type (0, 0), BuildingBlock: XUDNAN_clean_linker_2, # of connection points: 2
#     Edge 13, Type (0, 0), BuildingBlock: XUDNAN_clean_linker_2, # of connection points: 2
#     Edge 14, Type (0, 0), BuildingBlock: XUDNAN_clean_linker_2, # of connection points: 2
#     Edge 15, Type (0, 0), BuildingBlock: XUDNAN_clean_linker_2, # of connection points: 2
#     Edge 16, Type (0, 0), BuildingBlock: XUDNAN_clean_linker_2, # of connection points: 2
#     Edge 17, Type (0, 0), BuildingBlock: XUDNAN_clean_linker_2, # of connection points: 2
#     Edge 18, Type (0, 0), BuildingBlock: XUDNAN_clean_linker_2, # of connection points: 2
#     Edge 19, Type (0, 0), BuildingBlock: XUDNAN_clean_linker_2, # of connection points: 2
#     Edge 20, Type (0, 0), BuildingBlock: XUDNAN_clean_linker_2, # of connection points: 2
#     Edge 21, Type (0, 0), BuildingBlock: XUDNAN_clean_linker_2, # of connection points: 2
#     Edge 22, Type (0, 0), BuildingBlock: XUDNAN_clean_linker_2, # of connection points: 2
#     Edge 23, Type (0, 0), BuildingBlock: XUDNAN_clean_linker_2, # of connection points: 2
#     Edge 24, Type (0, 0), BuildingBlock: XUDNAN_clean_linker_2, # of connection points: 2
#     Edge 25, Type (0, 0), BuildingBlock: XUDNAN_clean_linker_2, # of connection points: 2
#     Edge 26, Type (0, 0), BuildingBlock: XUDNAN_clean_linker_2, # of connection points: 2
#     Edge 27, Type (0, 0), BuildingBlock: XUDNAN_clean_linker_2, # of connection points: 2
#     Edge 28, Type (0, 0), BuildingBlock: XUDNAN_clean_linker_2, # of connection points: 2
#     Edge 29, Type (0, 0), BuildingBlock: XUDNAN_clean_linker_2, # of connection points: 2
#     Edge 30, Type (0, 0), BuildingBlock: XUDNAN_clean_linker_2, # of connection points: 2
#     Edge 31, Type (0, 0), BuildingBlock: XUDNAN_clean_linker_2, # of connection points: 2
#     Edge 32, Type (0, 0), BuildingBlock: XUDNAN_clean_linker_2, # of connection points: 2
#     Edge 33, Type (0, 0), BuildingBlock: XUDNAN_clean_linker_2, # of connection points: 2
#     Edge 34, Type (0, 0), BuildingBlock: XUDNAN_clean_linker_2, # of connection points: 2
#     Edge 35, Type (0, 0), BuildingBlock: XUDNAN_clean_linker_2, # of connection points: 2
# Relax obj value: 0.072
# Max RMSD: 0.061
# Mean RMSD: 0.061
data_MOF--net-uoq--node1-TATPOV_clean_sbu_0--edge1-XUDNAN_clean_linker_2
_symmetry_space_group_name_H-M    P1
_symmetry_Int_Tables_number       1
_symmetry_cell_setting            triclinic
loop_
_symmetry_equiv_pos_as_xyz
'x, y, z'
_cell_length_a     59.389959
_cell_length_b     58.662038
_cell_length_c     24.768379
_cell_angle_alpha  89.914647
_cell_angle_beta   90.275513
_cell_angle_gamma 120.64962
loop_
_atom_site_label
_atom_site_type_symbol
_atom_site_fract_x
_atom_site_fract_y
_atom_site_fract_z
_atom_type_partial_charge
Zn0 Zn 0.29568 0.45995 0.35798 0.0
Zn1 Zn 0.28179 0.43654 0.23736 0.0
O2 O 0.29899 0.41514 0.25478 0.0
O3 O 0.30812 0.43387 0.33594 0.0
O4 O 0.26157 0.42793 0.16539 0.0
O5 O 0.26639 0.46278 0.31836 0.0
O6 O 0.25198 0.4226 0.29327 0.0
C7 C 0.30944 0.41845 0.30154 0.0
C8 C 0.31267 0.49313 0.27271 0.0
O9 O 0.31284 0.47606 0.24139 0.0
O10 O 0.29298 0.48498 0.30308 0.0
C11 C 0.26223 0.44449 0.13098 0.0
O12 O 0.27994 0.46971 0.13628 0.0
C13 C 0.24807 0.43888 0.31889 0.0
Zn14 Zn 0.85782 0.31709 0.65957 0.0
Zn15 Zn 0.83696 0.29533 0.5828 0.0
O16 O 0.87636 0.30363 0.58041 0.0
O17 O 0.89418 0.33669 0.63818 0.0
O18 O 0.81845 0.27383 0.51483 0.0
O19 O 0.84756 0.28585 0.70466 0.0
O20 O 0.81535 0.27029 0.64622 0.0
C21 C 0.89666 0.32213 0.60434 0.0
C22 C 0.83148 0.34073 0.62594 0.0
O23 O 0.83176 0.32846 0.58344 0.0
O24 O 0.83934 0.33642 0.67003 0.0
C25 C 0.81906 0.28496 0.47027 0.0
O26 O 0.83261 0.31096 0.46766 0.0
C27 C 0.82436 0.26884 0.69211 0.0
Zn28 Zn 0.53572 0.86876 0.9827 0.0
Zn29 Zn 0.5341 0.84917 0.89988 0.0
O30 O 0.56626 0.88876 0.89201 0.0
O31 O 0.55419 0.90476 0.95874 0.0
O32 O 0.53276 0.8264 0.83589 0.0
O33 O 0.55497 0.85654 0.02761 0.0
O34 O 0.53766 0.82759 0.96197 0.0
C35 C 0.56893 0.90855 0.9192 0.0
C36 C 0.48531 0.84577 0.94781 0.0
O37 O 0.49669 0.84494 0.90468 0.0
O38 O 0.49792 0.8529 -0.00829 0.0
C39 C 0.54324 0.83062 0.78937 0.0
O40 O 0.55846 0.85507 0.77265 0.0
C41 C 0.54788 0.83389 0.00894 0.0
Zn42 Zn 0.64002 0.52968 0.3809 0.0
Zn43 Zn 0.6785 0.54933 0.23624 0.0
O44 O 0.66372 0.57518 0.2407 0.0
O45 O 0.64962 0.54959 0.30924 0.0
O46 O 0.70401 0.56017 0.17182 0.0
O47 O 0.67816 0.54122 0.39325 0.0
O48 O 0.69854 0.55259 0.31141 0.0
C49 C 0.65179 0.56969 0.28543 0.0
C50 C 0.6386 0.50332 0.27278 0.0
O51 O 0.64929 0.50908 0.2269 0.0
O52 O 0.64479 0.52276 0.3036 0.0
C53 C 0.70235 0.54263 0.13899 0.0
O54 O 0.68423 0.51778 0.14692 0.0
C55 C 0.69852 0.54975 0.36337 0.0
Zn56 Zn 0.11545 0.6693 0.70286 0.0
Zn57 Zn 0.12885 0.69692 0.57923 0.0
O58 O 0.09028 0.68454 0.58098 0.0
O59 O 0.08367 0.66798 0.66421 0.0
O60 O 0.14617 0.71727 0.51007 0.0
O61 O 0.15388 0.69789 0.68817 0.0
O62 O 0.14566 0.72406 0.6409 0.0
C63 C 0.07534 0.67335 0.62136 0.0
C64 C 0.14077 0.65706 0.62163 0.0
O65 O 0.13053 0.66252 0.58235 0.0
O66 O 0.1474 0.67187 0.66281 0.0
C67 C 0.14331 0.70608 0.46457 0.0
O68 O 0.12779 0.68026 0.46113 0.0
C69 C 0.15643 0.72049 0.68173 0.0
Zn70 Zn 0.42322 0.11055 0.97524 0.0
Zn71 Zn 0.42423 0.13821 0.90641 0.0
O72 O 0.39073 0.10008 0.89762 0.0
O73 O 0.40819 0.07812 0.93066 0.0
O74 O 0.42364 0.16233 0.84727 0.0
O75 O 0.40066 0.11807 0.02329 0.0
O76 O 0.41866 0.15427 0.97433 0.0
C77 C 0.38933 0.078 0.907 0.0
C78 C 0.47377 0.14025 0.94879 0.0
O79 O 0.46245 0.14381 0.90821 0.0
O80 O 0.46066 0.12829 0.98998 0.0
C81 C 0.42183 0.15983 0.79606 0.0
O82 O 0.42 0.13867 0.77363 0.0
C83 C 0.40611 0.14168 0.01625 0.0
Zn84 Zn 0.53797 0.67772 0.31018 0.0
Zn85 Zn 0.53504 0.69115 0.40401 0.0
O86 O 0.56524 0.682 0.40544 0.0
O87 O 0.56551 0.66982 0.32147 0.0
O88 O 0.53778 0.71011 0.47517 0.0
O89 O 0.54734 0.71033 0.2722 0.0
O90 O 0.53559 0.71869 0.35016 0.0
C91 C 0.5746 0.67382 0.3688 0.0
C92 C 0.48751 0.64365 0.35667 0.0
O93 O 0.49832 0.65721 0.3993 0.0
O94 O 0.5003 0.64914 0.31313 0.0
C95 C 0.52926 0.69924 0.52083 0.0
O96 O 0.51814 0.67337 0.52478 0.0
C97 C 0.54178 0.72448 0.30081 0.0
Zn98 Zn 0.86544 0.53544 0.59668 0.0
Zn99 Zn 0.84075 0.54999 0.73859 0.0
O100 O 0.88164 0.57534 0.74307 0.0
O101 O 0.87252 0.55168 0.6718 0.0
O102 O 0.82303 0.55966 0.79877 0.0
O103 O 0.84248 0.55082 0.57854 0.0
O104 O 0.82892 0.5568 0.66065 0.0
C105 C 0.88955 0.57132 0.69862 0.0
C106 C 0.83534 0.5044 0.70004 0.0
O107 O 0.82862 0.50945 0.74474 0.0
O108 O 0.84968 0.52435 0.67111 0.0
C109 C 0.80944 0.54301 0.83537 0.0
O110 O 0.80703 0.51948 0.83451 0.0
C111 C 0.82937 0.55777 0.60838 0.0
Zn112 Zn 0.29921 0.862 0.98901 0.0
Zn113 Zn 0.28296 0.84829 0.07265 0.0
O114 O 0.29397 0.88863 0.07103 0.0
O115 O 0.32648 0.89686 0.01831 0.0
O116 O 0.26367 0.82876 0.14113 0.0
O117 O 0.26741 0.85819 0.95357 0.0
O118 O 0.25304 0.82813 0.01711 0.0
C119 C 0.31442 0.90544 0.04548 0.0
C120 C 0.31811 0.83207 0.01808 0.0
O121 O 0.31387 0.84056 0.06222 0.0
O122 O 0.30793 0.83417 0.97502 0.0
C123 C 0.26023 0.83352 0.1896 0.0
O124 O 0.27226 0.85804 0.2074 0.0
C125 C 0.24916 0.83684 0.97294 0.0
Zn126 Zn 0.42778 0.31198 0.31466 0.0
Zn127 Zn 0.42813 0.29446 0.40175 0.0
O128 O 0.40168 0.30826 0.40738 0.0
O129 O 0.39413 0.3106 0.32124 0.0
O130 O 0.42657 0.27574 0.47267 0.0
O131 O 0.42932 0.28559 0.27038 0.0
O132 O 0.41805 0.2637 0.34692 0.0
C133 C 0.38887 0.3119 0.36999 0.0
C134 C 0.47597 0.34479 0.35993 0.0
O135 O 0.46702 0.32553 0.3934 0.0
O136 O 0.46106 0.34543 0.32423 0.0
C137 C 0.42549 0.28365 0.51985 0.0
O138 O 0.42551 0.30594 0.52529 0.0
C139 C 0.42187 0.26443 0.29616 0.0
Zn140 Zn 0.11207 0.44835 0.61242 0.0
Zn141 Zn 0.12458 0.43633 0.73816 0.0
O142 O 0.08589 0.40359 0.73991 0.0
O143 O 0.0906 0.42068 0.66139 0.0
O144 O 0.144 0.43782 0.80924 0.0
O145 O 0.14027 0.44206 0.59647 0.0
O146 O 0.14688 0.43108 0.67916 0.0
C147 C 0.07654 0.40258 0.69332 0.0
C148 C 0.12715 0.48908 0.69412 0.0
O149 O 0.12655 0.47332 0.73098 0.0
O150 O 0.12326 0.48274 0.64467 0.0
C151 C 0.13331 0.42276 0.8498 0.0
O152 O 0.108 0.40577 0.84819 0.0
C153 C 0.15165 0.43421 0.62841 0.0
Zn154 Zn 0.65968 0.12326 -0.00484 0.0
Zn155 Zn 0.67791 0.13836 0.08115 0.0
O156 O 0.66801 0.09836 0.08495 0.0
O157 O 0.63838 0.08689 0.02131 0.0
O158 O 0.69848 0.15948 0.14768 0.0
O159 O 0.69111 0.1329 0.9518 0.0
O160 O 0.70549 0.15912 0.02238 0.0
C161 C 0.64896 0.0803 0.0576 0.0
C162 C 0.63688 0.14923 0.03345 0.0
O163 O 0.64589 0.1444 0.07618 0.0
O164 O 0.64324 0.14502 0.98772 0.0
C165 C 0.70491 0.15495 0.19389 0.0
O166 O 0.69668 0.13045 0.2088 0.0
C167 C 0.70891 0.15353 0.97447 0.0
H168 H 0.30465 0.3719 0.26103 0.0
H169 H 0.34529 0.4334 0.38184 0.0
H170 H 0.3648 0.40883 0.4202 0.0
H171 H 0.29132 0.31641 0.34798 0.0
H172 H 0.2973 0.29848 0.2965 0.0
H173 H 0.28535 0.32019 0.27802 0.0
H174 H 0.32468 0.34634 0.21366 0.0
H175 H 0.33614 0.32415 0.2307 0.0
H176 H 0.35748 0.35938 0.23921 0.0
H177 H 0.37953 0.37796 0.44752 0.0
H178 H 0.39589 0.34681 0.44967 0.0
H179 H 0.34727 0.30555 0.31092 0.0
C180 C 0.31778 0.38021 0.29528 0.0
C181 C 0.32305 0.40438 0.3189 0.0
C182 C 0.3405 0.41468 0.36357 0.0
C183 C 0.35164 0.40083 0.38596 0.0
C184 C 0.34524 0.37661 0.36339 0.0
C185 C 0.32921 0.36656 0.31838 0.0
C186 C 0.32685 0.34069 0.30062 0.0
C187 C 0.29852 0.31758 0.30611 0.0
C188 C 0.3369 0.34279 0.24263 0.0
C189 C 0.34464 0.33838 0.34172 0.0
C190 C 0.35443 0.35893 0.37845 0.0
C191 C 0.37192 0.36163 0.41923 0.0
C192 C 0.38084 0.34364 0.42067 0.0
C193 C 0.37264 0.32371 0.38085 0.0
C194 C 0.35351 0.32042 0.34234 0.0
H195 H 0.92291 0.32067 0.69078 0.0
H196 H 0.92818 0.32967 0.51696 0.0
H197 H 0.97524 0.34355 0.52203 0.0
H198 H 0.97782 0.37636 0.72096 0.0
H199 H -0.01193 0.36452 0.77775 0.0
H200 H 0.95403 0.34851 0.75995 0.0
H201 H 0.95181 0.30337 0.75144 0.0
H202 H -0.01409 0.31922 0.77026 0.0
H203 H 0.97465 0.30057 0.7083 0.0
H204 H 0.02176 0.36367 0.54743 0.0
H205 H 0.06497 0.38954 0.589 0.0
H206 H 0.0303 0.36993 0.74867 0.0
C207 C 0.93381 0.32448 0.6536 0.0
C208 C 0.92212 0.32377 0.60332 0.0
C209 C 0.93679 0.32949 0.55549 0.0
C210 C 0.96345 0.33742 0.55822 0.0
C211 C 0.97469 0.33902 0.60895 0.0
C212 C 0.96024 0.33239 0.6558 0.0
C213 C 0.97748 0.33933 0.70569 0.0
C214 C 0.97415 0.35832 0.74323 0.0
C215 C 0.97214 0.31412 0.7357 0.0
C216 C 0.00421 0.35275 0.6799 0.0
C217 C 0.00199 0.3515 0.62404 0.0
C218 C 0.0237 0.3642 0.59095 0.0
C219 C 0.0482 0.37898 0.61526 0.0
C220 C 0.05099 0.38167 0.67234 0.0
C221 C 0.02878 0.36771 0.7052 0.0
H222 H 0.5628 0.94972 0.90747 0.0
H223 H 0.62186 0.92812 0.92702 0.0
H224 H 0.65085 0.97101 0.97299 0.0
H225 H 0.60293 0.02312 0.90689 0.0
H226 H 0.57906 0.02457 0.94916 0.0
H227 H 0.56888 -0.00233 0.90217 0.0
H228 H 0.54714 0.96518 0.98237 0.0
H229 H 0.55917 0.99192 0.03024 0.0
H230 H 0.5671 0.96628 0.03851 0.0
H231 H 0.67137 0.01672 0.02528 0.0
H232 H 0.68103 0.05901 0.06873 0.0
H233 H 0.6013 0.03935 0.0379 0.0
C234 C 0.5826 0.95488 0.91795 0.0
C235 C 0.59036 0.93599 0.91264 0.0
C236 C 0.61589 0.94273 0.92917 0.0
C237 C 0.63216 0.96677 0.95668 0.0
C238 C 0.62219 0.98328 0.96808 0.0
C239 C 0.59787 0.97741 0.94893 0.0
C240 C 0.58892 -0.00521 0.97408 0.0
C241 C 0.58472 0.01101 0.9305 0.0
C242 C 0.56412 0.97856 0.0083 0.0
C243 C 0.6122 0.01201 0.00938 0.0
C244 C 0.63159 0.00572 0.00501 0.0
C245 C 0.65607 0.02144 0.02958 0.0
C246 C 0.66127 0.04515 0.05531 0.0
C247 C 0.64178 0.05226 0.05706 0.0
C248 C 0.61645 0.03422 0.03787 0.0
H249 H 0.65558 0.61586 0.248 0.0
H250 H 0.62648 0.56029 0.38158 0.0
H251 H 0.61131 0.58709 0.42691 0.0
H252 H 0.67548 0.67657 0.32859 0.0
H253 H 0.66431 0.69061 0.27776 0.0
H254 H 0.67622 0.66903 0.25831 0.0
H255 H 0.63266 0.63821 0.20777 0.0
H256 H 0.62103 0.66005 0.22591 0.0
H257 H 0.60213 0.62542 0.2433 0.0
H258 H 0.59563 0.61734 0.45469 0.0
H259 H 0.57525 0.64509 0.45502 0.0
H260 H 0.61424 0.68115 0.30473 0.0
C261 C 0.6464 0.6096 0.28715 0.0
C262 C 0.64269 0.5862 0.31153 0.0
C263 C 0.63003 0.57835 0.36231 0.0
C264 C 0.62142 0.59355 0.38872 0.0
C265 C 0.62562 0.61667 0.36406 0.0
C266 C 0.63754 0.62454 0.31413 0.0
C267 C 0.63706 0.64861 0.29382 0.0
C268 C 0.66493 0.67263 0.28937 0.0
C269 C 0.62233 0.6427 0.23953 0.0
C270 C 0.62212 0.6523 0.33909 0.0
C271 C 0.61628 0.63412 0.37996 0.0
C272 C 0.60051 0.63209 0.42357 0.0
C273 C 0.58926 0.64812 0.42389 0.0
C274 C 0.59358 0.66545 0.3804 0.0
C275 C 0.61119 0.66844 0.33907 0.0
H276 H 0.93439 0.6088 0.75134 0.0
H277 H 0.90404 0.57462 0.59346 0.0
H278 H 0.94762 0.60187 0.55431 0.0
H279 H -0.01662 0.67642 0.69975 0.0
H280 H 0.00734 0.68085 0.75 0.0
H281 H 0.97291 0.66113 0.76511 0.0
H282 H 0.97854 0.6214 0.79036 0.0
H283 H 0.0129 0.64104 0.77579 0.0
H284 H -0.00695 0.60967 0.74222 0.0
H285 H -0.00507 0.63004 0.53264 0.0
H286 H 0.04336 0.6543 0.53276 0.0
H287 H 0.04368 0.66985 0.70396 0.0
C288 C 0.93688 0.60747 0.7084 0.0
C289 C 0.91574 0.5894 0.67567 0.0
C290 C 0.91986 0.58797 0.61972 0.0
C291 C 0.94458 0.60366 0.59677 0.0
C292 C 0.9651 0.62097 0.63009 0.0
C293 C 0.9616 0.62302 0.68471 0.0
C294 C -0.01255 0.64165 0.7121 0.0
C295 C -0.01221 0.66649 0.73298 0.0
C296 C -0.00668 0.62759 0.75778 0.0
C297 C 0.00604 0.64839 0.66502 0.0
C298 C -0.00733 0.63696 0.61769 0.0
C299 C 0.00566 0.63943 0.56927 0.0
C300 C 0.03314 0.65333 0.56958 0.0
C301 C 0.04714 0.66398 0.61824 0.0
C302 C 0.03338 0.66201 0.66612 0.0
H303 H 0.33975 0.93326 0.95709 0.0
H304 H 0.29906 0.93745 0.09835 0.0
H305 H 0.30592 0.98077 0.06539 0.0
H306 H 0.38821 -0.00152 0.94972 0.0
H307 H 0.38828 -0.00093 0.87693 0.0
H308 H 0.37794 0.96852 0.91178 0.0
H309 H 0.33391 0.94723 0.85877 0.0
H310 H 0.34394 0.97823 0.82517 0.0
H311 H 0.31375 0.96199 0.8625 0.0
H312 H 0.32194 0.02611 0.01862 0.0
H313 H 0.34922 0.06893 0.97228 0.0
H314 H 0.3761 0.03152 0.86059 0.0
C315 C 0.33224 0.94311 0.98177 0.0
C316 C 0.31925 0.93211 0.03098 0.0
C317 C 0.30934 0.94565 0.06083 0.0
C318 C 0.31289 0.97005 0.042 0.0
C319 C 0.32558 0.97999 -0.00745 0.0
C320 C 0.33497 0.96669 0.96311 0.0
C321 C 0.34916 0.9815 0.9129 0.0
C322 C 0.37756 0.98725 0.9129 0.0
C323 C 0.33429 0.96633 0.86182 0.0
C324 C 0.34793 0.00634 0.91974 0.0
C325 C 0.33367 0.00501 0.96507 0.0
C326 C 0.3325 0.027 0.98243 0.0
C327 C 0.34769 0.05119 0.95519 0.0
C328 C 0.36417 0.0532 0.91195 0.0
C329 C 0.36286 0.03016 0.89205 0.0
H330 H 0.18615 0.45737 0.87271 0.0
H331 H 0.11647 0.38807 0.93424 0.0
H332 H 0.14211 0.38567 0.01002 0.0
H333 H 0.23188 0.43657 0.90772 0.0
H334 H 0.25772 0.46901 0.92811 0.0
H335 H 0.23417 0.46575 0.87798 0.0
H336 H 0.22266 0.49523 0.93542 0.0
H337 H 0.24638 0.49879 0.98541 0.0
H338 H 0.21289 0.48645 0.00474 0.0
H339 H 0.17537 0.38892 0.07679 0.0
H340 H 0.2132 0.40083 0.13633 0.0
H341 H 0.26152 0.46957 0.03657 0.0
C342 C 0.17627 0.44174 0.90221 0.0
C343 C 0.14918 0.42277 0.89693 0.0
C344 C 0.1371 0.4028 0.93688 0.0
C345 C 0.15155 0.4012 0.98019 0.0
C346 C 0.17817 0.41984 0.98374 0.0
C347 C 0.19042 0.44 0.94639 0.0
C348 C 0.21924 0.4578 0.96077 0.0
C349 C 0.23679 0.45724 0.91597 0.0
C350 C 0.22566 0.48626 0.97228 0.0
C351 C 0.22117 0.44442 0.01184 0.0
C352 C 0.19728 0.42235 0.02381 0.0
C353 C 0.19415 0.40625 0.068 0.0
C354 C 0.21586 0.4131 0.10144 0.0
C355 C 0.24042 0.43611 0.09128 0.0
C356 C 0.24303 0.45187 0.04555 0.0
H357 H 0.7888 0.23028 0.45955 0.0
H358 H 0.81473 0.30378 0.37224 0.0
H359 H 0.78866 0.27845 0.29334 0.0
H360 H 0.78939 0.1922 0.34384 0.0
H361 H 0.76055 0.16202 0.3647 0.0
H362 H 0.78161 0.1858 0.41455 0.0
H363 H 0.74213 0.1878 0.45271 0.0
H364 H 0.72098 0.16412 0.40282 0.0
H365 H 0.72302 0.19576 0.40819 0.0
H366 H 0.75901 0.24578 0.22479 0.0
H367 H 0.72875 0.20756 0.169 0.0
H368 H 0.72182 0.1543 0.29846 0.0
C369 C 0.78908 0.24104 0.42375 0.0
C370 C 0.80388 0.26914 0.42237 0.0
C371 C 0.80365 0.28236 0.37459 0.0
C372 C 0.78884 0.26812 0.32943 0.0
C373 C 0.77436 0.24057 0.33226 0.0
C374 C 0.77443 0.22708 0.37796 0.0
C375 C 0.75701 0.19732 0.36999 0.0
C376 C 0.7731 0.18353 0.37347 0.0
C377 C 0.73445 0.18556 0.41086 0.0
C378 C 0.74701 0.19628 0.31288 0.0
C379 C 0.75731 0.22153 0.2921 0.0
C380 C 0.75088 0.22591 0.24054 0.0
C381 C 0.73357 0.20397 0.20915 0.0
C382 C 0.72279 0.17777 0.22908 0.0
C383 C 0.72968 0.174 0.28186 0.0
H384 H 0.55858 0.83039 0.68364 0.0
H385 H 0.51892 0.77866 0.81971 0.0
H386 H 0.51267 0.74035 0.76696 0.0
H387 H 0.51709 0.78472 0.58058 0.0
H388 H 0.54323 0.79389 0.53305 0.0
H389 H 0.54539 0.81768 0.58181 0.0
H390 H 0.5898 0.82464 0.61556 0.0
H391 H 0.5877 0.80077 0.56702 0.0
H392 H 0.59188 0.79648 0.63772 0.0
H393 H 0.51046 0.7074 0.70043 0.0
H394 H 0.51055 0.68148 0.62232 0.0
H395 H 0.55077 0.75364 0.52737 0.0
C396 C 0.54861 0.81102 0.70235 0.0
C397 C 0.53926 0.80768 0.75607 0.0
C398 C 0.52623 0.78188 0.77876 0.0
C399 C 0.52264 0.75992 0.74914 0.0
C400 C 0.53208 0.76386 0.69656 0.0
C401 C 0.54467 0.7887 0.6731 0.0
C402 C 0.5523 0.78716 0.61526 0.0
C403 C 0.53868 0.79641 0.57532 0.0
C404 C 0.5822 0.80321 0.60851 0.0
C405 C 0.54182 0.75758 0.60997 0.0
C406 C 0.53044 0.74463 0.65758 0.0
C407 C 0.51928 0.71731 0.66286 0.0
C408 C 0.51945 0.70273 0.61816 0.0
C409 C 0.53058 0.71538 0.56846 0.0
C410 C 0.54208 0.74329 0.56469 0.0
H411 H 0.71315 0.50911 0.08452 0.0
H412 H 0.73336 0.59129 0.08959 0.0
H413 H 0.76308 0.60107 0.0115 0.0
H414 H 0.77776 0.52253 0.05369 0.0
H415 H 0.76606 0.4936 0.01153 0.0
H416 H 0.74627 0.49355 0.06641 0.0
H417 H 0.70786 0.48138 -5e-05 0.0
H418 H 0.7275 0.48129 0.94491 0.0
H419 H 0.7132 0.50197 0.94169 0.0
H420 H 0.79024 0.60077 0.92948 0.0
H421 H 0.81294 0.59104 0.85714 0.0
H422 H 0.77531 0.5094 0.91116 0.0
C423 C 0.72373 0.52921 0.06927 0.0
C424 C 0.72081 0.54941 0.09311 0.0
C425 C 0.73533 0.57548 0.07211 0.0
C426 C 0.75219 0.58118 0.02765 0.0
C427 C 0.75455 0.56065 0.00511 0.0
C428 C 0.7408 0.53524 0.02578 0.0
C429 C 0.74708 0.51668 -0.00394 0.0
C430 C 0.76007 0.50596 0.03419 0.0
C431 C 0.72244 0.494 0.96905 0.0
C432 C 0.76624 0.53535 0.9546 0.0
C433 C 0.77038 0.56066 0.96007 0.0
C434 C 0.78715 0.58102 0.92525 0.0
C435 C 0.79996 0.5753 0.88417 0.0
C436 C 0.79604 0.54947 0.87835 0.0
C437 C 0.77893 0.5294 0.91436 0.0
H438 H 0.17925 0.75987 0.45759 0.0
H439 H 0.1413 0.68753 0.36246 0.0
H440 H 0.16693 0.71237 0.28307 0.0
H441 H 0.1822 0.80388 0.35045 0.0
H442 H 0.21386 0.83081 0.37077 0.0
H443 H 0.19216 0.80752 0.42029 0.0
H444 H 0.22832 0.79764 0.44896 0.0
H445 H 0.25008 0.82078 0.39933 0.0
H446 H 0.24294 0.787 0.39882 0.0
H447 H 0.19727 0.74428 0.21469 0.0
H448 H 0.22939 0.7817 0.15997 0.0
H449 H 0.24808 0.8343 0.29763 0.0
C450 C 0.17622 0.74928 0.41998 0.0
C451 C 0.15819 0.72164 0.41647 0.0
C452 C 0.15492 0.70861 0.36642 0.0
C453 C 0.16944 0.72256 0.32098 0.0
C454 C 0.18717 0.74964 0.32594 0.0
C455 C 0.19057 0.76296 0.37399 0.0
C456 C 0.21111 0.79216 0.36813 0.0
C457 C 0.19911 0.80962 0.37799 0.0
C458 C 0.2345 0.79984 0.40606 0.0
C459 C 0.21877 0.79308 0.30935 0.0
C460 C 0.20469 0.76827 0.286 0.0
C461 C 0.20835 0.76384 0.23245 0.0
C462 C 0.22675 0.78531 0.20169 0.0
C463 C 0.24137 0.8111 0.22423 0.0
C464 C 0.23726 0.81492 0.27902 0.0
H465 H 0.41974 0.16248 0.68453 0.0
H466 H 0.42409 0.20516 0.83108 0.0
H467 H 0.42465 0.24057 0.77652 0.0
H468 H 0.46278 0.21945 0.6054 0.0
H469 H 0.44439 0.20679 0.54357 0.0
H470 H 0.44358 0.18421 0.59392 0.0
H471 H 0.39301 0.16061 0.59651 0.0
H472 H 0.39367 0.18312 0.54612 0.0
H473 H 0.37758 0.17969 0.60967 0.0
H474 H 0.42525 0.27177 0.70672 0.0
H475 H 0.42642 0.29698 0.62599 0.0
H476 H 0.42209 0.23481 0.52362 0.0
C477 C 0.42073 0.17923 0.70518 0.0
C478 C 0.42187 0.18093 0.76234 0.0
C479 C 0.42321 0.20328 0.78753 0.0
C480 C 0.4235 0.22355 0.75683 0.0
C481 C 0.42245 0.22132 0.70078 0.0
C482 C 0.42108 0.19976 0.67506 0.0
C483 C 0.42046 0.20252 0.61411 0.0
C484 C 0.44422 0.20329 0.58771 0.0
C485 C 0.39464 0.18015 0.59021 0.0
C486 C 0.42203 0.22914 0.60974 0.0
C487 C 0.42298 0.23951 0.66029 0.0
C488 C 0.4245 0.26384 0.66689 0.0
C489 C 0.42516 0.27804 0.62068 0.0
C490 C 0.42441 0.26802 0.56827 0.0
C491 C 0.42276 0.24313 0.56301 0.0
H492 H 0.1911 0.47083 0.57249 0.0
H493 H 0.15477 0.38902 0.62279 0.0
H494 H 0.17758 0.38034 0.54869 0.0
H495 H 0.17595 0.45446 0.44149 0.0
H496 H 0.20421 0.48326 0.41417 0.0
H497 H 0.19191 0.48502 0.4792 0.0
H498 H 0.23699 0.50036 0.52399 0.0
H499 H 0.24991 0.49983 0.4587 0.0
H500 H 0.25271 0.4813 0.51382 0.0
H501 H 0.20029 0.38037 0.45896 0.0
H502 H 0.22228 0.38979 0.36969 0.0
H503 H 0.23557 0.46963 0.37571 0.0
C504 C 0.18922 0.45148 0.56983 0.0
C505 C 0.17199 0.43077 0.6038 0.0
C506 C 0.16875 0.4053 0.598 0.0
C507 C 0.18126 0.40018 0.5555 0.0
C508 C 0.19634 0.42069 0.51937 0.0
C509 C 0.20036 0.44589 0.52669 0.0
C510 C 0.21328 0.46352 0.4788 0.0
C511 C 0.19526 0.47205 0.45189 0.0
C512 C 0.23981 0.48767 0.49478 0.0
C513 C 0.21648 0.44464 0.44336 0.0
C514 C 0.20686 0.42004 0.46694 0.0
C515 C 0.20793 0.39962 0.44036 0.0
C516 C 0.22009 0.405 0.38944 0.0
C517 C 0.23055 0.43045 0.36589 0.0
C518 C 0.22782 0.45 0.39271 0.0
H519 H 0.78852 0.21504 0.70211 0.0
H520 H 0.82122 0.29118 0.7827 0.0
H521 H 0.79687 0.26927 0.86495 0.0
H522 H 0.7235 0.18542 0.76532 0.0
H523 H 0.71991 0.15311 0.77147 0.0
H524 H 0.73908 0.17482 0.71739 0.0
H525 H 0.7785 0.17047 0.74811 0.0
H526 H 0.75962 0.14927 0.80308 0.0
H527 H 0.79047 0.17902 0.81646 0.0
H528 H 0.7726 0.24038 0.93942 0.0
H529 H 0.74241 0.2051 0.0007 0.0
H530 H 0.7238 0.14685 0.87388 0.0
C531 C 0.79011 0.22691 0.73697 0.0
C532 C 0.80687 0.25462 0.73686 0.0
C533 C 0.8087 0.26979 0.7828 0.0
C534 C 0.79502 0.25761 0.82961 0.0
C535 C 0.77956 0.23022 0.82969 0.0
C536 C 0.77649 0.21495 0.78461 0.0
C537 C 0.75832 0.1858 0.79658 0.0
C538 C 0.73374 0.17411 0.76056 0.0
C539 C 0.77259 0.17023 0.7907 0.0
C540 C 0.75192 0.1874 0.85517 0.0
C541 C 0.76472 0.21323 0.87335 0.0
C542 C 0.76224 0.21999 0.92586 0.0
C543 C 0.74525 0.19979 0.96049 0.0
C544 C 0.73076 0.17331 0.94197 0.0
C545 C 0.73469 0.16696 0.88909 0.0
H546 H 0.57827 0.83993 0.09674 0.0
H547 H 0.50929 0.78229 0.00807 0.0
H548 H 0.49666 0.75126 0.08453 0.0
H549 H 0.59304 0.79257 0.15442 0.0
H550 H 0.60455 0.8104 0.21729 0.0
H551 H 0.60716 0.82802 0.15598 0.0
H552 H 0.58162 0.84771 0.20196 0.0
H553 H 0.57799 0.82915 0.26265 0.0
H554 H 0.54949 0.82571 0.2288 0.0
H555 H 0.48976 0.72824 0.17121 0.0
H556 H 0.49633 0.70722 0.25105 0.0
H557 H 0.57178 0.77756 0.28046 0.0
C558 C 0.56081 0.82054 0.09315 0.0
C559 C 0.54467 0.8134 0.04691 0.0
C560 C 0.52201 0.78795 0.04313 0.0
C561 C 0.5144 0.77046 0.0867 0.0
C562 C 0.52992 0.77872 0.13301 0.0
C563 C 0.55319 0.80264 0.1358 0.0
C564 C 0.5674 0.80558 0.1885 0.0
C565 C 0.59464 0.80933 0.17843 0.0
C566 C 0.56923 0.8284 0.22247 0.0
C567 C 0.5489 0.77905 0.21399 0.0
C568 C 0.52678 0.76455 0.18232 0.0
C569 C 0.50693 0.7393 0.19643 0.0
C570 C 0.51066 0.7277 0.24209 0.0
C571 C 0.53434 0.74111 0.27164 0.0
C572 C 0.55326 0.76742 0.25903 0.0
H573 H 0.70241 0.5211 0.44366 0.0
H574 H 0.74835 0.59206 0.34839 0.0
H575 H 0.78673 0.60466 0.40818 0.0
H576 H 0.72715 0.54823 0.57218 0.0
H577 H 0.72733 0.51944 0.59717 0.0
H578 H 0.70406 0.51581 0.54605 0.0
H579 H 0.72031 0.49202 0.48281 0.0
H580 H 0.74303 0.49483 0.5344 0.0
H581 H 0.75471 0.50767 0.46775 0.0
H582 H 0.81959 0.60895 0.47932 0.0
H583 H 0.84577 0.60213 0.54879 0.0
H584 H 0.77695 0.52912 0.59813 0.0
C585 C 0.72065 0.53921 0.4351 0.0
C586 C 0.72263 0.55573 0.39179 0.0
C587 C 0.74671 0.5791 0.38124 0.0
C588 C 0.76839 0.58649 0.41529 0.0
C589 C 0.76542 0.57012 0.45902 0.0
C590 C 0.74226 0.54672 0.46824 0.0
C591 C 0.7441 0.532 0.51653 0.0
C592 C 0.72449 0.5287 0.56058 0.0
C593 C 0.74033 0.50505 0.49934 0.0
C594 C 0.77191 0.55098 0.53398 0.0
C595 C 0.78394 0.57287 0.50037 0.0
C596 C 0.81027 0.59213 0.50629 0.0
C597 C 0.82489 0.58828 0.54604 0.0
C598 C 0.81296 0.56562 0.57953 0.0
C599 C 0.78609 0.54715 0.5744 0.0
H600 H 0.18877 0.77408 0.69202 0.0
H601 H 0.13624 0.70274 0.78062 0.0
H602 H 0.14845 0.72801 0.86553 0.0
H603 H 0.23872 0.7964 0.78317 0.0
H604 H 0.2501 0.83122 0.77651 0.0
H605 H 0.23306 0.80908 0.72144 0.0
H606 H 0.19921 0.82457 0.72062 0.0
H607 H 0.21619 0.84675 0.7761 0.0
H608 H 0.18182 0.82253 0.7816 0.0
H609 H 0.17133 0.75808 0.94102 0.0
H610 H 0.20482 0.79109 0.00256 0.0
H611 H 0.24251 0.84355 0.86654 0.0
C612 C 0.17923 0.76417 0.72916 0.0
C613 C 0.16147 0.73671 0.73012 0.0
C614 C 0.14988 0.72391 0.77937 0.0
C615 C 0.1565 0.7381 0.8277 0.0
C616 C 0.17469 0.76508 0.82602 0.0
C617 C 0.18591 0.77808 0.7781 0.0
C618 C 0.2077 0.80621 0.78858 0.0
C619 C 0.23393 0.81098 0.76613 0.0
C620 C 0.2008 0.8262 0.76534 0.0
C621 C 0.20768 0.80649 0.84971 0.0
C622 C 0.18816 0.78274 0.87048 0.0
C623 C 0.18628 0.77708 0.92552 0.0
C624 C 0.20538 0.7959 0.96016 0.0
C625 C 0.22605 0.81993 0.93937 0.0
C626 C 0.22657 0.82562 0.8838 0.0
H627 H 0.43326 0.19443 0.03587 0.0
H628 H 0.36989 0.1199 0.09693 0.0
H629 H 0.36735 0.14294 0.17833 0.0
H630 H 0.46507 0.21715 0.16098 0.0
H631 H 0.47573 0.25146 0.14854 0.0
H632 H 0.47088 0.2297 0.09288 0.0
H633 H 0.43834 0.24113 0.04782 0.0
H634 H 0.44368 0.26352 0.10252 0.0
H635 H 0.41092 0.23751 0.08599 0.0
H636 H 0.3737 0.17424 0.25533 0.0
H637 H 0.38599 0.21213 0.31734 0.0
H638 H 0.44627 0.26441 0.20517 0.0
C639 C 0.4184 0.18305 0.06568 0.0
C640 C 0.40162 0.15553 0.06024 0.0
C641 C 0.38285 0.14112 0.10062 0.0
C642 C 0.38134 0.15397 0.14692 0.0
C643 C 0.39894 0.18105 0.15206 0.0
C644 C 0.41696 0.19541 0.11228 0.0
C645 C 0.43456 0.22396 0.12827 0.0
C646 C 0.46325 0.23096 0.13295 0.0
C647 C 0.43167 0.24262 0.08882 0.0
C648 C 0.42331 0.22357 0.18288 0.0
C649 C 0.40294 0.1987 0.19638 0.0
C650 C 0.38961 0.19384 0.24521 0.0
C651 C 0.39681 0.2153 0.28029 0.0
C652 C 0.41693 0.24099 0.26562 0.0
C653 C 0.43068 0.24492 0.21709 0.0
H654 H 0.35496 0.53258 0.21712 0.0
H655 H 0.32699 0.50283 0.37843 0.0
H656 H 0.36809 0.53796 0.41733 0.0
H657 H 0.42247 0.55359 0.23717 0.0
H658 H 0.4347 0.58383 0.19912 0.0
H659 H 0.40307 0.55569 0.18328 0.0
H660 H 0.38202 0.58467 0.19606 0.0
H661 H 0.41361 0.61285 0.21238 0.0
H662 H 0.38681 0.60211 0.25883 0.0
H663 H 0.41235 0.57621 0.43998 0.0
H664 H 0.45726 0.6153 0.44323 0.0
H665 H 0.45599 0.62171 0.2687 0.0
C666 C 0.35764 0.53347 0.2605 0.0
C667 C 0.33783 0.51471 0.29445 0.0
C668 C 0.34185 0.51676 0.35126 0.0
C669 C 0.36518 0.53675 0.37403 0.0
C670 C 0.38423 0.55507 0.33972 0.0
C671 C 0.3807 0.55384 0.28425 0.0
C672 C 0.40405 0.57676 0.25701 0.0
C673 C 0.41683 0.56686 0.21679 0.0
C674 C 0.39615 0.59519 0.22944 0.0
C675 C 0.42155 0.59014 0.30556 0.0
C676 C 0.40961 0.57755 0.353 0.0
C677 C 0.42195 0.58636 0.40311 0.0
C678 C 0.44737 0.60857 0.40466 0.0
C679 C 0.46014 0.62141 0.35634 0.0
C680 C 0.44684 0.61215 0.30638 0.0
H681 H 0.82927 0.46199 0.75854 0.0
H682 H 0.82374 0.48702 0.59683 0.0
H683 H 0.81568 0.44434 0.56027 0.0
H684 H 0.8662 0.43447 0.72127 0.0
H685 H 0.85203 0.40744 0.76873 0.0
H686 H 0.85229 0.43757 0.78341 0.0
H687 H 0.80191 0.41102 0.79544 0.0
H688 H 0.80154 0.38072 0.781 0.0
H689 H 0.78142 0.38954 0.74193 0.0
H690 H 0.8142 0.40149 0.53985 0.0
H691 H 0.82031 0.36268 0.53818 0.0
H692 H 0.82729 0.36636 0.71296 0.0
C693 C 0.82541 0.458 0.71577 0.0
C694 C 0.82676 0.47749 0.68049 0.0
C695 C 0.82264 0.47215 0.62444 0.0
C696 C 0.81793 0.44795 0.60334 0.0
C697 C 0.81757 0.42935 0.63884 0.0
C698 C 0.82115 0.43408 0.69393 0.0
C699 C 0.82322 0.41242 0.72244 0.0
C700 C 0.85002 0.42365 0.75059 0.0
C701 C 0.80066 0.39754 0.76257 0.0
C702 C 0.82065 0.3951 0.67483 0.0
C703 C 0.81715 0.40494 0.62693 0.0
C704 C 0.81648 0.3933 0.57725 0.0
C705 C 0.81996 0.37129 0.57658 0.0
C706 C 0.82423 0.36142 0.62529 0.0
C707 C 0.8239 0.37322 0.67487 0.0
H708 H 0.46515 0.8675 0.01346 0.0
H709 H 0.44377 0.80971 0.88514 0.0
H710 H 0.39704 0.79627 0.89688 0.0
H711 H 0.41087 0.83012 0.09959 0.0
H712 H 0.40782 0.85803 0.11903 0.0
H713 H 0.43929 0.86301 0.1003 0.0
H714 H 0.44427 0.89676 0.02682 0.0
H715 H 0.41318 0.89244 0.04632 0.0
H716 H 0.41874 0.88727 0.9771 0.0
H717 H 0.35295 0.78932 0.92394 0.0
H718 H 0.31563 0.79348 0.95419 0.0
H719 H 0.36648 0.85578 0.06548 0.0
C720 C 0.45064 0.852 0.98769 0.0
C721 C 0.45789 0.8394 0.94868 0.0
C722 C 0.43851 0.8196 0.91509 0.0
C723 C 0.412 0.81172 0.92193 0.0
C724 C 0.40549 0.82406 0.96213 0.0
C725 C 0.42436 0.84414 -0.00633 0.0
C726 C 0.41264 0.85526 0.03217 0.0
C727 C 0.41797 0.85135 0.09127 0.0
C728 C 0.4228 0.88466 0.01984 0.0
C729 C 0.38397 0.83807 0.01801 0.0
C730 C 0.38024 0.8201 0.97771 0.0
C731 C 0.35562 0.80314 0.95572 0.0
C732 C 0.33453 0.80548 0.97348 0.0
C733 C 0.33815 0.82455 0.01292 0.0
C734 C 0.36301 0.84042 0.03672 0.0
H735 H 0.59865 0.46281 0.21645 0.0
H736 H 0.63685 0.48404 0.37284 0.0
H737 H 0.60151 0.44221 0.41133 0.0
H738 H 0.53737 0.44025 0.26455 0.0
H739 H 0.5202 0.41341 0.21724 0.0
H740 H 0.55104 0.44175 0.19888 0.0
H741 H 0.56994 0.41146 0.17815 0.0
H742 H 0.53892 0.38286 0.19564 0.0
H743 H 0.56845 0.38868 0.22892 0.0
H744 H 0.55897 0.40076 0.43551 0.0
H745 H 0.51277 0.3639 0.44235 0.0
H746 H 0.50227 0.37176 0.27126 0.0
C747 C 0.60003 0.45801 0.25813 0.0
C748 C 0.62046 0.47627 0.2916 0.0
C749 C 0.62128 0.47004 0.34659 0.0
C750 C 0.60138 0.44633 0.36876 0.0
C751 C 0.58075 0.42912 0.33536 0.0
C752 C 0.58003 0.43461 0.28109 0.0
C753 C 0.55421 0.41472 0.25563 0.0
C754 C 0.53987 0.42836 0.23277 0.0
C755 C 0.55812 0.39846 0.21201 0.0
C756 C 0.54028 0.39787 0.30428 0.0
C757 C 0.55596 0.40601 0.34975 0.0
C758 C 0.54659 0.39397 0.39995 0.0
C759 C 0.5204 0.37315 0.4036 0.0
C760 C 0.50398 0.36521 0.35753 0.0
C761 C 0.5143 0.37755 0.30738 0.0
H762 H 0.16589 0.63101 0.59077 0.0
H763 H 0.09919 0.62203 0.67964 0.0
H764 H 0.09173 0.57985 0.71812 0.0
H765 H 0.13617 0.55973 0.55973 0.0
H766 H 0.16717 0.56121 0.56503 0.0
H767 H 0.16607 0.58996 0.54367 0.0
H768 H 0.19863 0.6169 0.62066 0.0
H769 H 0.19892 0.58789 0.64354 0.0
H770 H 0.19024 0.60592 0.68955 0.0
H771 H 0.09308 0.53996 0.75091 0.0
H772 H 0.09745 0.50028 0.76009 0.0
H773 H 0.16276 0.53512 0.64934 0.0
C774 C 0.1493 0.61969 0.61706 0.0
C775 C 0.13293 0.62941 0.63205 0.0
C776 C 0.11171 0.61454 0.66742 0.0
C777 C 0.10752 0.59079 0.6899 0.0
C778 C 0.12468 0.58219 0.67629 0.0
C779 C 0.14467 0.59574 0.63948 0.0
C780 C 0.15972 0.58168 0.63036 0.0
C781 C 0.15711 0.57259 0.57121 0.0
C782 C 0.18859 0.59915 0.64704 0.0
C783 C 0.14531 0.5584 0.6683 0.0
C784 C 0.12536 0.55918 0.69498 0.0
C785 C 0.10873 0.53916 0.73052 0.0
C786 C 0.11162 0.51696 0.73639 0.0
C787 C 0.13085 0.51514 0.70656 0.0
C788 C 0.14846 0.53655 0.67387 0.0
H789 H 0.58561 0.11346 0.03766 0.0
H790 H 0.64106 0.19744 0.02347 0.0
H791 H 0.60516 0.20497 -0.00455 0.0
H792 H 0.55101 0.10866 0.92117 0.0
H793 H 0.51928 0.08429 0.94645 0.0
H794 H 0.54828 0.0859 0.97327 0.0
H795 H 0.536 0.09179 0.07045 0.0
H796 H 0.5064 0.08907 0.04426 0.0
H797 H 0.52871 0.11753 0.08403 0.0
H798 H 0.5629 0.2021 0.96105 0.0
H799 H 0.51745 0.18962 0.93519 0.0
H800 H 0.49157 0.10736 0.96793 0.0
C801 C 0.58988 0.13355 0.03122 0.0
C802 C 0.6157 0.15506 0.03472 0.0
C803 C 0.62108 0.18095 0.02294 0.0
C804 C 0.60091 0.18529 0.00626 0.0
C805 C 0.57568 0.16341 0.00082 0.0
C806 C 0.57012 0.13809 0.01379 0.0
C807 C 0.54197 0.11765 0.00142 0.0
C808 C 0.54005 0.09798 0.95801 0.0
C809 C 0.52741 0.10318 0.05312 0.0
C810 C 0.53243 0.13535 0.97986 0.0
C811 C 0.55206 0.16168 0.97927 0.0
C812 C 0.5474 0.18153 0.96129 0.0
C813 C 0.52172 0.1743 0.94589 0.0
C814 C 0.50135 0.14754 0.94875 0.0
C815 C 0.50701 0.12792 0.96456 0.0
loop_
_geom_bond_atom_site_label_1
_geom_bond_atom_site_label_2
_geom_bond_distance
_geom_bond_site_symmetry_2
_ccdc_geom_bond_type
Zn0 O3 2.031 . S
Zn0 O5 2.049 . S
Zn0 O10 2.067 . S
Zn1 O2 1.962 . S
Zn1 O4 1.986 . S
Zn1 O6 1.996 . S
Zn1 O9 1.943 . S
O2 Zn1 1.962 . S
O2 C7 1.254 . S
O3 Zn0 2.031 . S
O3 C7 1.269 . S
O4 Zn1 1.986 . S
O4 C11 1.262 . S
O5 Zn0 2.049 . S
O5 C13 1.260 . S
O6 Zn1 1.996 . S
O6 C13 1.257 . S
C7 O2 1.254 . S
C7 O3 1.269 . S
C8 O9 1.249 . S
C8 O10 1.270 . S
O9 Zn1 1.943 . S
O9 C8 1.249 . S
O10 Zn0 2.067 . S
O10 C8 1.270 . S
C11 O4 1.262 . S
C11 O12 1.232 . S
O12 C11 1.232 . S
C13 O5 1.260 . S
C13 O6 1.257 . S
Zn14 O17 2.031 . S
Zn14 O19 2.049 . S
Zn14 O24 2.067 . S
Zn15 O16 1.962 . S
Zn15 O18 1.986 . S
Zn15 O20 1.996 . S
Zn15 O23 1.943 . S
O16 Zn15 1.962 . S
O16 C21 1.254 . S
O17 Zn14 2.031 . S
O17 C21 1.269 . S
O18 Zn15 1.986 . S
O18 C25 1.262 . S
O19 Zn14 2.049 . S
O19 C27 1.260 . S
O20 Zn15 1.996 . S
O20 C27 1.257 . S
C21 O16 1.254 . S
C21 O17 1.269 . S
C22 O23 1.249 . S
C22 O24 1.270 . S
O23 Zn15 1.943 . S
O23 C22 1.249 . S
O24 Zn14 2.067 . S
O24 C22 1.270 . S
C25 O18 1.262 . S
C25 O26 1.232 . S
O26 C25 1.232 . S
C27 O19 1.260 . S
C27 O20 1.257 . S
Zn28 O31 2.031 1_554 S
Zn28 O33 2.049 . S
Zn28 O38 2.067 . S
Zn29 O30 1.962 . S
Zn29 O32 1.986 . S
Zn29 O34 1.996 1_556 S
Zn29 O37 1.943 . S
O30 Zn29 1.962 . S
O30 C35 1.254 . S
O31 Zn28 2.031 1_556 S
O31 C35 1.269 . S
O32 Zn29 1.986 . S
O32 C39 1.262 . S
O33 Zn28 2.049 . S
O33 C41 1.260 . S
O34 Zn29 1.996 1_554 S
O34 C41 1.257 . S
C35 O30 1.254 . S
C35 O31 1.269 . S
C36 O37 1.249 . S
C36 O38 1.270 1_556 S
O37 Zn29 1.943 . S
O37 C36 1.249 . S
O38 Zn28 2.067 . S
O38 C36 1.270 1_554 S
C39 O32 1.262 . S
C39 O40 1.232 . S
O40 C39 1.232 . S
C41 O33 1.260 . S
C41 O34 1.257 . S
Zn42 O45 2.031 . S
Zn42 O47 2.049 . S
Zn42 O52 2.067 . S
Zn43 O44 1.962 . S
Zn43 O46 1.986 . S
Zn43 O48 1.996 . S
Zn43 O51 1.943 . S
O44 Zn43 1.962 . S
O44 C49 1.254 . S
O45 Zn42 2.031 . S
O45 C49 1.269 . S
O46 Zn43 1.986 . S
O46 C53 1.262 . S
O47 Zn42 2.049 . S
O47 C55 1.260 . S
O48 Zn43 1.996 . S
O48 C55 1.257 . S
C49 O44 1.254 . S
C49 O45 1.269 . S
C50 O51 1.249 . S
C50 O52 1.270 . S
O51 Zn43 1.943 . S
O51 C50 1.249 . S
O52 Zn42 2.067 . S
O52 C50 1.270 . S
C53 O46 1.262 . S
C53 O54 1.232 . S
O54 C53 1.232 . S
C55 O47 1.260 . S
C55 O48 1.257 . S
Zn56 O59 2.031 . S
Zn56 O61 2.049 . S
Zn56 O66 2.067 . S
Zn57 O58 1.962 . S
Zn57 O60 1.986 . S
Zn57 O62 1.996 . S
Zn57 O65 1.943 . S
O58 Zn57 1.962 . S
O58 C63 1.254 . S
O59 Zn56 2.031 . S
O59 C63 1.269 . S
O60 Zn57 1.986 . S
O60 C67 1.262 . S
O61 Zn56 2.049 . S
O61 C69 1.260 . S
O62 Zn57 1.996 . S
O62 C69 1.257 . S
C63 O58 1.254 . S
C63 O59 1.269 . S
C64 O65 1.249 . S
C64 O66 1.270 . S
O65 Zn57 1.943 . S
O65 C64 1.249 . S
O66 Zn56 2.067 . S
O66 C64 1.270 . S
C67 O60 1.262 . S
C67 O68 1.232 . S
O68 C67 1.232 . S
C69 O61 1.260 . S
C69 O62 1.257 . S
Zn70 O73 2.031 1_554 S
Zn70 O75 2.049 . S
Zn70 O80 2.067 . S
Zn71 O72 1.962 . S
Zn71 O74 1.986 . S
Zn71 O76 1.996 1_556 S
Zn71 O79 1.943 . S
O72 Zn71 1.962 . S
O72 C77 1.254 . S
O73 Zn70 2.031 1_556 S
O73 C77 1.269 . S
O74 Zn71 1.986 . S
O74 C81 1.262 . S
O75 Zn70 2.049 . S
O75 C83 1.260 . S
O76 Zn71 1.996 1_554 S
O76 C83 1.257 . S
C77 O72 1.254 . S
C77 O73 1.269 . S
C78 O79 1.249 . S
C78 O80 1.270 1_556 S
O79 Zn71 1.943 . S
O79 C78 1.249 . S
O80 Zn70 2.067 . S
O80 C78 1.270 1_554 S
C81 O74 1.262 . S
C81 O82 1.232 . S
O82 C81 1.232 . S
C83 O75 1.260 . S
C83 O76 1.257 . S
Zn84 O87 2.031 . S
Zn84 O89 2.049 . S
Zn84 O94 2.067 . S
Zn85 O86 1.962 . S
Zn85 O88 1.986 . S
Zn85 O90 1.996 . S
Zn85 O93 1.943 . S
O86 Zn85 1.962 . S
O86 C91 1.254 . S
O87 Zn84 2.031 . S
O87 C91 1.269 . S
O88 Zn85 1.986 . S
O88 C95 1.262 . S
O89 Zn84 2.049 . S
O89 C97 1.260 . S
O90 Zn85 1.996 . S
O90 C97 1.257 . S
C91 O86 1.254 . S
C91 O87 1.269 . S
C92 O93 1.249 . S
C92 O94 1.270 . S
O93 Zn85 1.943 . S
O93 C92 1.249 . S
O94 Zn84 2.067 . S
O94 C92 1.270 . S
C95 O88 1.262 . S
C95 O96 1.232 . S
O96 C95 1.232 . S
C97 O89 1.260 . S
C97 O90 1.257 . S
Zn98 O101 2.031 . S
Zn98 O103 2.049 . S
Zn98 O108 2.067 . S
Zn99 O100 1.962 . S
Zn99 O102 1.986 . S
Zn99 O104 1.996 . S
Zn99 O107 1.943 . S
O100 Zn99 1.962 . S
O100 C105 1.254 . S
O101 Zn98 2.031 . S
O101 C105 1.269 . S
O102 Zn99 1.986 . S
O102 C109 1.262 . S
O103 Zn98 2.049 . S
O103 C111 1.260 . S
O104 Zn99 1.996 . S
O104 C111 1.257 . S
C105 O100 1.254 . S
C105 O101 1.269 . S
C106 O107 1.249 . S
C106 O108 1.270 . S
O107 Zn99 1.943 . S
O107 C106 1.249 . S
O108 Zn98 2.067 . S
O108 C106 1.270 . S
C109 O102 1.262 . S
C109 O110 1.232 . S
O110 C109 1.232 . S
C111 O103 1.260 . S
C111 O104 1.257 . S
Zn112 O115 2.031 1_556 S
Zn112 O117 2.049 . S
Zn112 O122 2.067 . S
Zn113 O114 1.962 . S
Zn113 O116 1.986 . S
Zn113 O118 1.996 1_554 S
Zn113 O121 1.943 . S
O114 Zn113 1.962 . S
O114 C119 1.254 . S
O115 Zn112 2.031 1_554 S
O115 C119 1.269 . S
O116 Zn113 1.986 . S
O116 C123 1.262 . S
O117 Zn112 2.049 . S
O117 C125 1.260 . S
O118 Zn113 1.996 1_556 S
O118 C125 1.257 . S
C119 O114 1.254 . S
C119 O115 1.269 . S
C120 O121 1.249 . S
C120 O122 1.270 1_554 S
O121 Zn113 1.943 . S
O121 C120 1.249 . S
O122 Zn112 2.067 . S
O122 C120 1.270 1_556 S
C123 O116 1.262 . S
C123 O124 1.232 . S
O124 C123 1.232 . S
C125 O117 1.260 . S
C125 O118 1.257 . S
Zn126 O129 2.031 . S
Zn126 O131 2.049 . S
Zn126 O136 2.067 . S
Zn127 O128 1.962 . S
Zn127 O130 1.986 . S
Zn127 O132 1.996 . S
Zn127 O135 1.943 . S
O128 Zn127 1.962 . S
O128 C133 1.254 . S
O129 Zn126 2.031 . S
O129 C133 1.269 . S
O130 Zn127 1.986 . S
O130 C137 1.262 . S
O131 Zn126 2.049 . S
O131 C139 1.260 . S
O132 Zn127 1.996 . S
O132 C139 1.257 . S
C133 O128 1.254 . S
C133 O129 1.269 . S
C134 O135 1.249 . S
C134 O136 1.270 . S
O135 Zn127 1.943 . S
O135 C134 1.249 . S
O136 Zn126 2.067 . S
O136 C134 1.270 . S
C137 O130 1.262 . S
C137 O138 1.232 . S
O138 C137 1.232 . S
C139 O131 1.260 . S
C139 O132 1.257 . S
Zn140 O143 2.031 . S
Zn140 O145 2.049 . S
Zn140 O150 2.067 . S
Zn141 O142 1.962 . S
Zn141 O144 1.986 . S
Zn141 O146 1.996 . S
Zn141 O149 1.943 . S
O142 Zn141 1.962 . S
O142 C147 1.254 . S
O143 Zn140 2.031 . S
O143 C147 1.269 . S
O144 Zn141 1.986 . S
O144 C151 1.262 . S
O145 Zn140 2.049 . S
O145 C153 1.260 . S
O146 Zn141 1.996 . S
O146 C153 1.257 . S
C147 O142 1.254 . S
C147 O143 1.269 . S
C148 O149 1.249 . S
C148 O150 1.270 . S
O149 Zn141 1.943 . S
O149 C148 1.249 . S
O150 Zn140 2.067 . S
O150 C148 1.270 . S
C151 O144 1.262 . S
C151 O152 1.232 . S
O152 C151 1.232 . S
C153 O145 1.260 . S
C153 O146 1.257 . S
Zn154 O157 2.031 1_556 S
Zn154 O159 2.049 . S
Zn154 O164 2.067 . S
Zn155 O156 1.962 . S
Zn155 O158 1.986 . S
Zn155 O160 1.996 1_554 S
Zn155 O163 1.943 . S
O156 Zn155 1.962 . S
O156 C161 1.254 . S
O157 Zn154 2.031 1_554 S
O157 C161 1.269 . S
O158 Zn155 1.986 . S
O158 C165 1.262 . S
O159 Zn154 2.049 . S
O159 C167 1.260 . S
O160 Zn155 1.996 1_556 S
O160 C167 1.257 . S
C161 O156 1.254 . S
C161 O157 1.269 . S
C162 O163 1.249 . S
C162 O164 1.270 1_554 S
O163 Zn155 1.943 . S
O163 C162 1.249 . S
O164 Zn154 2.067 . S
O164 C162 1.270 1_556 S
C165 O158 1.262 . S
C165 O166 1.232 . S
O166 C165 1.232 . S
C167 O159 1.260 . S
C167 O160 1.257 . S
H168 C180 0.930 . S
H169 C182 0.930 . S
H170 C183 0.930 . S
H171 C187 0.959 . S
H172 C187 0.959 . S
H173 C187 0.961 . S
H174 C188 0.960 . S
H175 C188 0.961 . S
H176 C188 0.959 . S
H177 C191 0.929 . S
H178 C192 0.931 . S
H179 C194 0.930 . S
C180 H168 0.930 . S
C180 C181 1.399 . S
C180 C185 1.399 . S
C181 C180 1.399 . S
C181 C182 1.376 . S
C182 H169 0.930 . S
C182 C181 1.376 . S
C182 C183 1.388 . S
C183 H170 0.930 . S
C183 C182 1.388 . S
C183 C184 1.390 . S
C184 C183 1.390 . S
C184 C185 1.394 . S
C184 C190 1.465 . S
C185 C180 1.399 . S
C185 C184 1.394 . S
C185 C186 1.516 . S
C186 C185 1.516 . S
C186 C187 1.502 . S
C186 C188 1.561 . S
C186 C189 1.526 . S
C187 H171 0.959 . S
C187 H172 0.959 . S
C187 H173 0.961 . S
C187 C186 1.502 . S
C188 H174 0.960 . S
C188 H175 0.961 . S
C188 H176 0.959 . S
C188 C186 1.561 . S
C189 C186 1.526 . S
C189 C190 1.396 . S
C189 C194 1.390 . S
C190 C184 1.465 . S
C190 C189 1.396 . S
C190 C191 1.399 . S
C191 H177 0.929 . S
C191 C190 1.399 . S
C191 C192 1.385 . S
C192 H178 0.931 . S
C192 C191 1.385 . S
C192 C193 1.389 . S
C193 C192 1.389 . S
C193 C194 1.387 . S
C194 H179 0.930 . S
C194 C189 1.390 . S
C194 C193 1.387 . S
H195 C207 0.930 . S
H196 C209 0.930 . S
H197 C210 0.930 . S
H198 C214 0.959 . S
H199 C214 0.959 . S
H200 C214 0.961 . S
H201 C215 0.960 . S
H202 C215 0.961 1_455 S
H203 C215 0.959 . S
H204 C218 0.929 . S
H205 C219 0.931 . S
H206 C221 0.930 . S
C207 H195 0.930 . S
C207 C208 1.399 . S
C207 C212 1.399 . S
C208 C207 1.399 . S
C208 C209 1.376 . S
C209 H196 0.930 . S
C209 C208 1.376 . S
C209 C210 1.388 . S
C210 H197 0.930 . S
C210 C209 1.388 . S
C210 C211 1.390 . S
C211 C210 1.390 . S
C211 C212 1.394 . S
C211 C217 1.465 1_655 S
C212 C207 1.399 . S
C212 C211 1.394 . S
C212 C213 1.516 . S
C213 C212 1.516 . S
C213 C214 1.502 . S
C213 C215 1.561 . S
C213 C216 1.526 1_655 S
C214 H198 0.959 . S
C214 H199 0.959 . S
C214 H200 0.961 . S
C214 C213 1.502 . S
C215 H201 0.960 . S
C215 H202 0.961 1_655 S
C215 H203 0.959 . S
C215 C213 1.561 . S
C216 C213 1.526 1_455 S
C216 C217 1.396 . S
C216 C221 1.390 . S
C217 C211 1.465 1_455 S
C217 C216 1.396 . S
C217 C218 1.399 . S
C218 H204 0.929 . S
C218 C217 1.399 . S
C218 C219 1.385 . S
C219 H205 0.931 . S
C219 C218 1.385 . S
C219 C220 1.389 . S
C220 C219 1.389 . S
C220 C221 1.387 . S
C221 H206 0.930 . S
C221 C216 1.390 . S
C221 C220 1.387 . S
H222 C234 0.930 . S
H223 C236 0.930 . S
H224 C237 0.930 . S
H225 C241 0.959 . S
H226 C241 0.959 . S
H227 C241 0.961 1_565 S
H228 C242 0.960 . S
H229 C242 0.961 1_545 S
H230 C242 0.959 . S
H231 C245 0.929 . S
H232 C246 0.931 . S
H233 C248 0.930 . S
C234 H222 0.930 . S
C234 C235 1.399 . S
C234 C239 1.399 . S
C235 C234 1.399 . S
C235 C236 1.376 . S
C236 H223 0.930 . S
C236 C235 1.376 . S
C236 C237 1.388 1_556 S
C237 H224 0.930 . S
C237 C236 1.388 1_554 S
C237 C238 1.390 . S
C238 C237 1.390 . S
C238 C239 1.394 1_554 S
C238 C244 1.465 1_565 S
C239 C234 1.399 . S
C239 C238 1.394 1_556 S
C239 C240 1.516 1_565 S
C240 C239 1.516 1_545 S
C240 C241 1.502 . S
C240 C242 1.561 1_546 S
C240 C243 1.526 1_556 S
C241 H225 0.959 . S
C241 H226 0.959 . S
C241 H227 0.961 1_545 S
C241 C240 1.502 . S
C242 H228 0.960 . S
C242 H229 0.961 1_565 S
C242 H230 0.959 . S
C242 C240 1.561 1_564 S
C243 C240 1.526 1_554 S
C243 C244 1.396 . S
C243 C248 1.390 . S
C244 C238 1.465 1_545 S
C244 C243 1.396 . S
C244 C245 1.399 . S
C245 H231 0.929 . S
C245 C244 1.399 . S
C245 C246 1.385 . S
C246 H232 0.931 . S
C246 C245 1.385 . S
C246 C247 1.389 . S
C247 C246 1.389 . S
C247 C248 1.387 . S
C248 H233 0.930 . S
C248 C243 1.390 . S
C248 C247 1.387 . S
H249 C261 0.930 . S
H250 C263 0.930 . S
H251 C264 0.930 . S
H252 C268 0.959 . S
H253 C268 0.959 . S
H254 C268 0.961 . S
H255 C269 0.960 . S
H256 C269 0.961 . S
H257 C269 0.959 . S
H258 C272 0.929 . S
H259 C273 0.931 . S
H260 C275 0.930 . S
C261 H249 0.930 . S
C261 C262 1.399 . S
C261 C266 1.399 . S
C262 C261 1.399 . S
C262 C263 1.376 . S
C263 H250 0.930 . S
C263 C262 1.376 . S
C263 C264 1.388 . S
C264 H251 0.930 . S
C264 C263 1.388 . S
C264 C265 1.390 . S
C265 C264 1.390 . S
C265 C266 1.394 . S
C265 C271 1.465 . S
C266 C261 1.399 . S
C266 C265 1.394 . S
C266 C267 1.516 . S
C267 C266 1.516 . S
C267 C268 1.502 . S
C267 C269 1.561 . S
C267 C270 1.526 . S
C268 H252 0.959 . S
C268 H253 0.959 . S
C268 H254 0.961 . S
C268 C267 1.502 . S
C269 H255 0.960 . S
C269 H256 0.961 . S
C269 H257 0.959 . S
C269 C267 1.561 . S
C270 C267 1.526 . S
C270 C271 1.396 . S
C270 C275 1.390 . S
C271 C265 1.465 . S
C271 C270 1.396 . S
C271 C272 1.399 . S
C272 H258 0.929 . S
C272 C271 1.399 . S
C272 C273 1.385 . S
C273 H259 0.931 . S
C273 C272 1.385 . S
C273 C274 1.389 . S
C274 C273 1.389 . S
C274 C275 1.387 . S
C275 H260 0.930 . S
C275 C270 1.390 . S
C275 C274 1.387 . S
H276 C288 0.930 . S
H277 C290 0.930 . S
H278 C291 0.930 . S
H279 C295 0.959 . S
H280 C295 0.959 . S
H281 C295 0.961 1_655 S
H282 C296 0.960 . S
H283 C296 0.961 . S
H284 C296 0.959 . S
H285 C299 0.929 . S
H286 C300 0.931 . S
H287 C302 0.930 . S
C288 H276 0.930 . S
C288 C289 1.399 . S
C288 C293 1.399 . S
C289 C288 1.399 . S
C289 C290 1.376 . S
C290 H277 0.930 . S
C290 C289 1.376 . S
C290 C291 1.388 . S
C291 H278 0.930 . S
C291 C290 1.388 . S
C291 C292 1.390 . S
C292 C291 1.390 . S
C292 C293 1.394 . S
C292 C298 1.465 1_655 S
C293 C288 1.399 . S
C293 C292 1.394 . S
C293 C294 1.516 1_655 S
C294 C293 1.516 1_455 S
C294 C295 1.502 . S
C294 C296 1.561 . S
C294 C297 1.526 . S
C295 H279 0.959 . S
C295 H280 0.959 . S
C295 H281 0.961 1_455 S
C295 C294 1.502 . S
C296 H282 0.960 . S
C296 H283 0.961 . S
C296 H284 0.959 . S
C296 C294 1.561 . S
C297 C294 1.526 . S
C297 C298 1.396 . S
C297 C302 1.390 . S
C298 C292 1.465 1_455 S
C298 C297 1.396 . S
C298 C299 1.399 . S
C299 H285 0.929 . S
C299 C298 1.399 . S
C299 C300 1.385 . S
C300 H286 0.931 . S
C300 C299 1.385 . S
C300 C301 1.389 . S
C301 C300 1.389 . S
C301 C302 1.387 . S
C302 H287 0.930 . S
C302 C297 1.390 . S
C302 C301 1.387 . S
H303 C315 0.930 . S
H304 C317 0.930 . S
H305 C318 0.930 . S
H306 C322 0.959 . S
H307 C322 0.959 1_545 S
H308 C322 0.961 . S
H309 C323 0.960 . S
H310 C323 0.961 . S
H311 C323 0.959 . S
H312 C326 0.929 . S
H313 C327 0.931 . S
H314 C329 0.930 . S
C315 H303 0.930 . S
C315 C316 1.399 1_556 S
C315 C320 1.399 . S
C316 C315 1.399 1_554 S
C316 C317 1.376 . S
C317 H304 0.930 . S
C317 C316 1.376 . S
C317 C318 1.388 . S
C318 H305 0.930 . S
C318 C317 1.388 . S
C318 C319 1.390 . S
C319 C318 1.390 . S
C319 C320 1.394 1_554 S
C319 C325 1.465 1_565 S
C320 C315 1.399 . S
C320 C319 1.394 1_556 S
C320 C321 1.516 . S
C321 C320 1.516 . S
C321 C322 1.502 . S
C321 C323 1.561 . S
C321 C324 1.526 1_565 S
C322 H306 0.959 . S
C322 H307 0.959 1_565 S
C322 H308 0.961 . S
C322 C321 1.502 . S
C323 H309 0.960 . S
C323 H310 0.961 . S
C323 H311 0.959 . S
C323 C321 1.561 . S
C324 C321 1.526 1_545 S
C324 C325 1.396 1_556 S
C324 C329 1.390 . S
C325 C319 1.465 1_545 S
C325 C324 1.396 1_554 S
C325 C326 1.399 . S
C326 H312 0.929 . S
C326 C325 1.399 . S
C326 C327 1.385 . S
C327 H313 0.931 . S
C327 C326 1.385 . S
C327 C328 1.389 1_554 S
C328 C327 1.389 1_556 S
C328 C329 1.387 . S
C329 H314 0.930 . S
C329 C324 1.390 . S
C329 C328 1.387 . S
H330 C342 0.930 . S
H331 C344 0.930 . S
H332 C345 0.930 . S
H333 C349 0.959 . S
H334 C349 0.959 . S
H335 C349 0.961 . S
H336 C350 0.960 . S
H337 C350 0.961 1_554 S
H338 C350 0.959 1_554 S
H339 C353 0.929 . S
H340 C354 0.931 . S
H341 C356 0.930 . S
C342 H330 0.930 . S
C342 C343 1.399 . S
C342 C347 1.399 . S
C343 C342 1.399 . S
C343 C344 1.376 . S
C344 H331 0.930 . S
C344 C343 1.376 . S
C344 C345 1.388 . S
C345 H332 0.930 . S
C345 C344 1.388 . S
C345 C346 1.390 . S
C346 C345 1.390 . S
C346 C347 1.394 . S
C346 C352 1.465 1_556 S
C347 C342 1.399 . S
C347 C346 1.394 . S
C347 C348 1.516 . S
C348 C347 1.516 . S
C348 C349 1.502 . S
C348 C350 1.561 . S
C348 C351 1.526 1_556 S
C349 H333 0.959 . S
C349 H334 0.959 . S
C349 H335 0.961 . S
C349 C348 1.502 . S
C350 H336 0.960 . S
C350 H337 0.961 1_556 S
C350 H338 0.959 1_556 S
C350 C348 1.561 . S
C351 C348 1.526 1_554 S
C351 C352 1.396 . S
C351 C356 1.390 . S
C352 C346 1.465 1_554 S
C352 C351 1.396 . S
C352 C353 1.399 . S
C353 H339 0.929 . S
C353 C352 1.399 . S
C353 C354 1.385 . S
C354 H340 0.931 . S
C354 C353 1.385 . S
C354 C355 1.389 . S
C355 C354 1.389 . S
C355 C356 1.387 . S
C356 H341 0.930 . S
C356 C351 1.390 . S
C356 C355 1.387 . S
H357 C369 0.930 . S
H358 C371 0.930 . S
H359 C372 0.930 . S
H360 C376 0.959 . S
H361 C376 0.959 . S
H362 C376 0.961 . S
H363 C377 0.960 . S
H364 C377 0.961 . S
H365 C377 0.959 . S
H366 C380 0.929 . S
H367 C381 0.931 . S
H368 C383 0.930 . S
C369 H357 0.930 . S
C369 C370 1.399 . S
C369 C374 1.399 . S
C370 C369 1.399 . S
C370 C371 1.376 . S
C371 H358 0.930 . S
C371 C370 1.376 . S
C371 C372 1.388 . S
C372 H359 0.930 . S
C372 C371 1.388 . S
C372 C373 1.390 . S
C373 C372 1.390 . S
C373 C374 1.394 . S
C373 C379 1.465 . S
C374 C369 1.399 . S
C374 C373 1.394 . S
C374 C375 1.516 . S
C375 C374 1.516 . S
C375 C376 1.502 . S
C375 C377 1.561 . S
C375 C378 1.526 . S
C376 H360 0.959 . S
C376 H361 0.959 . S
C376 H362 0.961 . S
C376 C375 1.502 . S
C377 H363 0.960 . S
C377 H364 0.961 . S
C377 H365 0.959 . S
C377 C375 1.561 . S
C378 C375 1.526 . S
C378 C379 1.396 . S
C378 C383 1.390 . S
C379 C373 1.465 . S
C379 C378 1.396 . S
C379 C380 1.399 . S
C380 H366 0.929 . S
C380 C379 1.399 . S
C380 C381 1.385 . S
C381 H367 0.931 . S
C381 C380 1.385 . S
C381 C382 1.389 . S
C382 C381 1.389 . S
C382 C383 1.387 . S
C383 H368 0.930 . S
C383 C378 1.390 . S
C383 C382 1.387 . S
H384 C396 0.930 . S
H385 C398 0.930 . S
H386 C399 0.930 . S
H387 C403 0.959 . S
H388 C403 0.959 . S
H389 C403 0.961 . S
H390 C404 0.960 . S
H391 C404 0.961 . S
H392 C404 0.959 . S
H393 C407 0.929 . S
H394 C408 0.931 . S
H395 C410 0.930 . S
C396 H384 0.930 . S
C396 C397 1.399 . S
C396 C401 1.399 . S
C397 C396 1.399 . S
C397 C398 1.376 . S
C398 H385 0.930 . S
C398 C397 1.376 . S
C398 C399 1.388 . S
C399 H386 0.930 . S
C399 C398 1.388 . S
C399 C400 1.390 . S
C400 C399 1.390 . S
C400 C401 1.394 . S
C400 C406 1.465 . S
C401 C396 1.399 . S
C401 C400 1.394 . S
C401 C402 1.516 . S
C402 C401 1.516 . S
C402 C403 1.502 . S
C402 C404 1.561 . S
C402 C405 1.526 . S
C403 H387 0.959 . S
C403 H388 0.959 . S
C403 H389 0.961 . S
C403 C402 1.502 . S
C404 H390 0.960 . S
C404 H391 0.961 . S
C404 H392 0.959 . S
C404 C402 1.561 . S
C405 C402 1.526 . S
C405 C406 1.396 . S
C405 C410 1.390 . S
C406 C400 1.465 . S
C406 C405 1.396 . S
C406 C407 1.399 . S
C407 H393 0.929 . S
C407 C406 1.399 . S
C407 C408 1.385 . S
C408 H394 0.931 . S
C408 C407 1.385 . S
C408 C409 1.389 . S
C409 C408 1.389 . S
C409 C410 1.387 . S
C410 H395 0.930 . S
C410 C405 1.390 . S
C410 C409 1.387 . S
H411 C423 0.930 . S
H412 C425 0.930 . S
H413 C426 0.930 . S
H414 C430 0.959 . S
H415 C430 0.959 . S
H416 C430 0.961 . S
H417 C431 0.960 1_554 S
H418 C431 0.961 . S
H419 C431 0.959 . S
H420 C434 0.929 . S
H421 C435 0.931 . S
H422 C437 0.930 . S
C423 H411 0.930 . S
C423 C424 1.399 . S
C423 C428 1.399 . S
C424 C423 1.399 . S
C424 C425 1.376 . S
C425 H412 0.930 . S
C425 C424 1.376 . S
C425 C426 1.388 . S
C426 H413 0.930 . S
C426 C425 1.388 . S
C426 C427 1.390 . S
C427 C426 1.390 . S
C427 C428 1.394 . S
C427 C433 1.465 1_554 S
C428 C423 1.399 . S
C428 C427 1.394 . S
C428 C429 1.516 . S
C429 C428 1.516 . S
C429 C430 1.502 . S
C429 C431 1.561 1_554 S
C429 C432 1.526 1_554 S
C430 H414 0.959 . S
C430 H415 0.959 . S
C430 H416 0.961 . S
C430 C429 1.502 . S
C431 H417 0.960 1_556 S
C431 H418 0.961 . S
C431 H419 0.959 . S
C431 C429 1.561 1_556 S
C432 C429 1.526 1_556 S
C432 C433 1.396 . S
C432 C437 1.390 . S
C433 C427 1.465 1_556 S
C433 C432 1.396 . S
C433 C434 1.399 . S
C434 H420 0.929 . S
C434 C433 1.399 . S
C434 C435 1.385 . S
C435 H421 0.931 . S
C435 C434 1.385 . S
C435 C436 1.389 . S
C436 C435 1.389 . S
C436 C437 1.387 . S
C437 H422 0.930 . S
C437 C432 1.390 . S
C437 C436 1.387 . S
H438 C450 0.930 . S
H439 C452 0.930 . S
H440 C453 0.930 . S
H441 C457 0.959 . S
H442 C457 0.959 . S
H443 C457 0.961 . S
H444 C458 0.960 . S
H445 C458 0.961 . S
H446 C458 0.959 . S
H447 C461 0.929 . S
H448 C462 0.931 . S
H449 C464 0.930 . S
C450 H438 0.930 . S
C450 C451 1.399 . S
C450 C455 1.399 . S
C451 C450 1.399 . S
C451 C452 1.376 . S
C452 H439 0.930 . S
C452 C451 1.376 . S
C452 C453 1.388 . S
C453 H440 0.930 . S
C453 C452 1.388 . S
C453 C454 1.390 . S
C454 C453 1.390 . S
C454 C455 1.394 . S
C454 C460 1.465 . S
C455 C450 1.399 . S
C455 C454 1.394 . S
C455 C456 1.516 . S
C456 C455 1.516 . S
C456 C457 1.502 . S
C456 C458 1.561 . S
C456 C459 1.526 . S
C457 H441 0.959 . S
C457 H442 0.959 . S
C457 H443 0.961 . S
C457 C456 1.502 . S
C458 H444 0.960 . S
C458 H445 0.961 . S
C458 H446 0.959 . S
C458 C456 1.561 . S
C459 C456 1.526 . S
C459 C460 1.396 . S
C459 C464 1.390 . S
C460 C454 1.465 . S
C460 C459 1.396 . S
C460 C461 1.399 . S
C461 H447 0.929 . S
C461 C460 1.399 . S
C461 C462 1.385 . S
C462 H448 0.931 . S
C462 C461 1.385 . S
C462 C463 1.389 . S
C463 C462 1.389 . S
C463 C464 1.387 . S
C464 H449 0.930 . S
C464 C459 1.390 . S
C464 C463 1.387 . S
H465 C477 0.930 . S
H466 C479 0.930 . S
H467 C480 0.930 . S
H468 C484 0.959 . S
H469 C484 0.959 . S
H470 C484 0.961 . S
H471 C485 0.960 . S
H472 C485 0.961 . S
H473 C485 0.959 . S
H474 C488 0.929 . S
H475 C489 0.931 . S
H476 C491 0.930 . S
C477 H465 0.930 . S
C477 C478 1.399 . S
C477 C482 1.399 . S
C478 C477 1.399 . S
C478 C479 1.376 . S
C479 H466 0.930 . S
C479 C478 1.376 . S
C479 C480 1.388 . S
C480 H467 0.930 . S
C480 C479 1.388 . S
C480 C481 1.390 . S
C481 C480 1.390 . S
C481 C482 1.394 . S
C481 C487 1.465 . S
C482 C477 1.399 . S
C482 C481 1.394 . S
C482 C483 1.516 . S
C483 C482 1.516 . S
C483 C484 1.502 . S
C483 C485 1.561 . S
C483 C486 1.526 . S
C484 H468 0.959 . S
C484 H469 0.959 . S
C484 H470 0.961 . S
C484 C483 1.502 . S
C485 H471 0.960 . S
C485 H472 0.961 . S
C485 H473 0.959 . S
C485 C483 1.561 . S
C486 C483 1.526 . S
C486 C487 1.396 . S
C486 C491 1.390 . S
C487 C481 1.465 . S
C487 C486 1.396 . S
C487 C488 1.399 . S
C488 H474 0.929 . S
C488 C487 1.399 . S
C488 C489 1.385 . S
C489 H475 0.931 . S
C489 C488 1.385 . S
C489 C490 1.389 . S
C490 C489 1.389 . S
C490 C491 1.387 . S
C491 H476 0.930 . S
C491 C486 1.390 . S
C491 C490 1.387 . S
H492 C504 0.930 . S
H493 C506 0.930 . S
H494 C507 0.930 . S
H495 C511 0.959 . S
H496 C511 0.959 . S
H497 C511 0.961 . S
H498 C512 0.960 . S
H499 C512 0.961 . S
H500 C512 0.959 . S
H501 C515 0.929 . S
H502 C516 0.931 . S
H503 C518 0.930 . S
C504 H492 0.930 . S
C504 C505 1.399 . S
C504 C509 1.399 . S
C505 C504 1.399 . S
C505 C506 1.376 . S
C506 H493 0.930 . S
C506 C505 1.376 . S
C506 C507 1.388 . S
C507 H494 0.930 . S
C507 C506 1.388 . S
C507 C508 1.390 . S
C508 C507 1.390 . S
C508 C509 1.394 . S
C508 C514 1.465 . S
C509 C504 1.399 . S
C509 C508 1.394 . S
C509 C510 1.516 . S
C510 C509 1.516 . S
C510 C511 1.502 . S
C510 C512 1.561 . S
C510 C513 1.526 . S
C511 H495 0.959 . S
C511 H496 0.959 . S
C511 H497 0.961 . S
C511 C510 1.502 . S
C512 H498 0.960 . S
C512 H499 0.961 . S
C512 H500 0.959 . S
C512 C510 1.561 . S
C513 C510 1.526 . S
C513 C514 1.396 . S
C513 C518 1.390 . S
C514 C508 1.465 . S
C514 C513 1.396 . S
C514 C515 1.399 . S
C515 H501 0.929 . S
C515 C514 1.399 . S
C515 C516 1.385 . S
C516 H502 0.931 . S
C516 C515 1.385 . S
C516 C517 1.389 . S
C517 C516 1.389 . S
C517 C518 1.387 . S
C518 H503 0.930 . S
C518 C513 1.390 . S
C518 C517 1.387 . S
H519 C531 0.930 . S
H520 C533 0.930 . S
H521 C534 0.930 . S
H522 C538 0.959 . S
H523 C538 0.959 . S
H524 C538 0.961 . S
H525 C539 0.960 . S
H526 C539 0.961 . S
H527 C539 0.959 . S
H528 C542 0.929 . S
H529 C543 0.931 . S
H530 C545 0.930 . S
C531 H519 0.930 . S
C531 C532 1.399 . S
C531 C536 1.399 . S
C532 C531 1.399 . S
C532 C533 1.376 . S
C533 H520 0.930 . S
C533 C532 1.376 . S
C533 C534 1.388 . S
C534 H521 0.930 . S
C534 C533 1.388 . S
C534 C535 1.390 . S
C535 C534 1.390 . S
C535 C536 1.394 . S
C535 C541 1.465 . S
C536 C531 1.399 . S
C536 C535 1.394 . S
C536 C537 1.516 . S
C537 C536 1.516 . S
C537 C538 1.502 . S
C537 C539 1.561 . S
C537 C540 1.526 . S
C538 H522 0.959 . S
C538 H523 0.959 . S
C538 H524 0.961 . S
C538 C537 1.502 . S
C539 H525 0.960 . S
C539 H526 0.961 . S
C539 H527 0.959 . S
C539 C537 1.561 . S
C540 C537 1.526 . S
C540 C541 1.396 . S
C540 C545 1.390 . S
C541 C535 1.465 . S
C541 C540 1.396 . S
C541 C542 1.399 . S
C542 H528 0.929 . S
C542 C541 1.399 . S
C542 C543 1.385 . S
C543 H529 0.931 . S
C543 C542 1.385 . S
C543 C544 1.389 . S
C544 C543 1.389 . S
C544 C545 1.387 . S
C545 H530 0.930 . S
C545 C540 1.390 . S
C545 C544 1.387 . S
H546 C558 0.930 . S
H547 C560 0.930 . S
H548 C561 0.930 . S
H549 C565 0.959 . S
H550 C565 0.959 . S
H551 C565 0.961 . S
H552 C566 0.960 . S
H553 C566 0.961 . S
H554 C566 0.959 . S
H555 C569 0.929 . S
H556 C570 0.931 . S
H557 C572 0.930 . S
C558 H546 0.930 . S
C558 C559 1.399 . S
C558 C563 1.399 . S
C559 C558 1.399 . S
C559 C560 1.376 . S
C560 H547 0.930 . S
C560 C559 1.376 . S
C560 C561 1.388 . S
C561 H548 0.930 . S
C561 C560 1.388 . S
C561 C562 1.390 . S
C562 C561 1.390 . S
C562 C563 1.394 . S
C562 C568 1.465 . S
C563 C558 1.399 . S
C563 C562 1.394 . S
C563 C564 1.516 . S
C564 C563 1.516 . S
C564 C565 1.502 . S
C564 C566 1.561 . S
C564 C567 1.526 . S
C565 H549 0.959 . S
C565 H550 0.959 . S
C565 H551 0.961 . S
C565 C564 1.502 . S
C566 H552 0.960 . S
C566 H553 0.961 . S
C566 H554 0.959 . S
C566 C564 1.561 . S
C567 C564 1.526 . S
C567 C568 1.396 . S
C567 C572 1.390 . S
C568 C562 1.465 . S
C568 C567 1.396 . S
C568 C569 1.399 . S
C569 H555 0.929 . S
C569 C568 1.399 . S
C569 C570 1.385 . S
C570 H556 0.931 . S
C570 C569 1.385 . S
C570 C571 1.389 . S
C571 C570 1.389 . S
C571 C572 1.387 . S
C572 H557 0.930 . S
C572 C567 1.390 . S
C572 C571 1.387 . S
H573 C585 0.930 . S
H574 C587 0.930 . S
H575 C588 0.930 . S
H576 C592 0.959 . S
H577 C592 0.959 . S
H578 C592 0.961 . S
H579 C593 0.960 . S
H580 C593 0.961 . S
H581 C593 0.959 . S
H582 C596 0.929 . S
H583 C597 0.931 . S
H584 C599 0.930 . S
C585 H573 0.930 . S
C585 C586 1.399 . S
C585 C590 1.399 . S
C586 C585 1.399 . S
C586 C587 1.376 . S
C587 H574 0.930 . S
C587 C586 1.376 . S
C587 C588 1.388 . S
C588 H575 0.930 . S
C588 C587 1.388 . S
C588 C589 1.390 . S
C589 C588 1.390 . S
C589 C590 1.394 . S
C589 C595 1.465 . S
C590 C585 1.399 . S
C590 C589 1.394 . S
C590 C591 1.516 . S
C591 C590 1.516 . S
C591 C592 1.502 . S
C591 C593 1.561 . S
C591 C594 1.526 . S
C592 H576 0.959 . S
C592 H577 0.959 . S
C592 H578 0.961 . S
C592 C591 1.502 . S
C593 H579 0.960 . S
C593 H580 0.961 . S
C593 H581 0.959 . S
C593 C591 1.561 . S
C594 C591 1.526 . S
C594 C595 1.396 . S
C594 C599 1.390 . S
C595 C589 1.465 . S
C595 C594 1.396 . S
C595 C596 1.399 . S
C596 H582 0.929 . S
C596 C595 1.399 . S
C596 C597 1.385 . S
C597 H583 0.931 . S
C597 C596 1.385 . S
C597 C598 1.389 . S
C598 C597 1.389 . S
C598 C599 1.387 . S
C599 H584 0.930 . S
C599 C594 1.390 . S
C599 C598 1.387 . S
H600 C612 0.930 . S
H601 C614 0.930 . S
H602 C615 0.930 . S
H603 C619 0.959 . S
H604 C619 0.959 . S
H605 C619 0.961 . S
H606 C620 0.960 . S
H607 C620 0.961 . S
H608 C620 0.959 . S
H609 C623 0.929 . S
H610 C624 0.931 1_554 S
H611 C626 0.930 . S
C612 H600 0.930 . S
C612 C613 1.399 . S
C612 C617 1.399 . S
C613 C612 1.399 . S
C613 C614 1.376 . S
C614 H601 0.930 . S
C614 C613 1.376 . S
C614 C615 1.388 . S
C615 H602 0.930 . S
C615 C614 1.388 . S
C615 C616 1.390 . S
C616 C615 1.390 . S
C616 C617 1.394 . S
C616 C622 1.465 . S
C617 C612 1.399 . S
C617 C616 1.394 . S
C617 C618 1.516 . S
C618 C617 1.516 . S
C618 C619 1.502 . S
C618 C620 1.561 . S
C618 C621 1.526 . S
C619 H603 0.959 . S
C619 H604 0.959 . S
C619 H605 0.961 . S
C619 C618 1.502 . S
C620 H606 0.960 . S
C620 H607 0.961 . S
C620 H608 0.959 . S
C620 C618 1.561 . S
C621 C618 1.526 . S
C621 C622 1.396 . S
C621 C626 1.390 . S
C622 C616 1.465 . S
C622 C621 1.396 . S
C622 C623 1.399 . S
C623 H609 0.929 . S
C623 C622 1.399 . S
C623 C624 1.385 . S
C624 H610 0.931 1_556 S
C624 C623 1.385 . S
C624 C625 1.389 . S
C625 C624 1.389 . S
C625 C626 1.387 . S
C626 H611 0.930 . S
C626 C621 1.390 . S
C626 C625 1.387 . S
H627 C639 0.930 . S
H628 C641 0.930 . S
H629 C642 0.930 . S
H630 C646 0.959 . S
H631 C646 0.959 . S
H632 C646 0.961 . S
H633 C647 0.960 . S
H634 C647 0.961 . S
H635 C647 0.959 . S
H636 C650 0.929 . S
H637 C651 0.931 . S
H638 C653 0.930 . S
C639 H627 0.930 . S
C639 C640 1.399 . S
C639 C644 1.399 . S
C640 C639 1.399 . S
C640 C641 1.376 . S
C641 H628 0.930 . S
C641 C640 1.376 . S
C641 C642 1.388 . S
C642 H629 0.930 . S
C642 C641 1.388 . S
C642 C643 1.390 . S
C643 C642 1.390 . S
C643 C644 1.394 . S
C643 C649 1.465 . S
C644 C639 1.399 . S
C644 C643 1.394 . S
C644 C645 1.516 . S
C645 C644 1.516 . S
C645 C646 1.502 . S
C645 C647 1.561 . S
C645 C648 1.526 . S
C646 H630 0.959 . S
C646 H631 0.959 . S
C646 H632 0.961 . S
C646 C645 1.502 . S
C647 H633 0.960 . S
C647 H634 0.961 . S
C647 H635 0.959 . S
C647 C645 1.561 . S
C648 C645 1.526 . S
C648 C649 1.396 . S
C648 C653 1.390 . S
C649 C643 1.465 . S
C649 C648 1.396 . S
C649 C650 1.399 . S
C650 H636 0.929 . S
C650 C649 1.399 . S
C650 C651 1.385 . S
C651 H637 0.931 . S
C651 C650 1.385 . S
C651 C652 1.389 . S
C652 C651 1.389 . S
C652 C653 1.387 . S
C653 H638 0.930 . S
C653 C648 1.390 . S
C653 C652 1.387 . S
H654 C666 0.930 . S
H655 C668 0.930 . S
H656 C669 0.930 . S
H657 C673 0.959 . S
H658 C673 0.959 . S
H659 C673 0.961 . S
H660 C674 0.960 . S
H661 C674 0.961 . S
H662 C674 0.959 . S
H663 C677 0.929 . S
H664 C678 0.931 . S
H665 C680 0.930 . S
C666 H654 0.930 . S
C666 C667 1.399 . S
C666 C671 1.399 . S
C667 C666 1.399 . S
C667 C668 1.376 . S
C668 H655 0.930 . S
C668 C667 1.376 . S
C668 C669 1.388 . S
C669 H656 0.930 . S
C669 C668 1.388 . S
C669 C670 1.390 . S
C670 C669 1.390 . S
C670 C671 1.394 . S
C670 C676 1.465 . S
C671 C666 1.399 . S
C671 C670 1.394 . S
C671 C672 1.516 . S
C672 C671 1.516 . S
C672 C673 1.502 . S
C672 C674 1.561 . S
C672 C675 1.526 . S
C673 H657 0.959 . S
C673 H658 0.959 . S
C673 H659 0.961 . S
C673 C672 1.502 . S
C674 H660 0.960 . S
C674 H661 0.961 . S
C674 H662 0.959 . S
C674 C672 1.561 . S
C675 C672 1.526 . S
C675 C676 1.396 . S
C675 C680 1.390 . S
C676 C670 1.465 . S
C676 C675 1.396 . S
C676 C677 1.399 . S
C677 H663 0.929 . S
C677 C676 1.399 . S
C677 C678 1.385 . S
C678 H664 0.931 . S
C678 C677 1.385 . S
C678 C679 1.389 . S
C679 C678 1.389 . S
C679 C680 1.387 . S
C680 H665 0.930 . S
C680 C675 1.390 . S
C680 C679 1.387 . S
H681 C693 0.930 . S
H682 C695 0.930 . S
H683 C696 0.930 . S
H684 C700 0.959 . S
H685 C700 0.959 . S
H686 C700 0.961 . S
H687 C701 0.960 . S
H688 C701 0.961 . S
H689 C701 0.959 . S
H690 C704 0.929 . S
H691 C705 0.931 . S
H692 C707 0.930 . S
C693 H681 0.930 . S
C693 C694 1.399 . S
C693 C698 1.399 . S
C694 C693 1.399 . S
C694 C695 1.376 . S
C695 H682 0.930 . S
C695 C694 1.376 . S
C695 C696 1.388 . S
C696 H683 0.930 . S
C696 C695 1.388 . S
C696 C697 1.390 . S
C697 C696 1.390 . S
C697 C698 1.394 . S
C697 C703 1.465 . S
C698 C693 1.399 . S
C698 C697 1.394 . S
C698 C699 1.516 . S
C699 C698 1.516 . S
C699 C700 1.502 . S
C699 C701 1.561 . S
C699 C702 1.526 . S
C700 H684 0.959 . S
C700 H685 0.959 . S
C700 H686 0.961 . S
C700 C699 1.502 . S
C701 H687 0.960 . S
C701 H688 0.961 . S
C701 H689 0.959 . S
C701 C699 1.561 . S
C702 C699 1.526 . S
C702 C703 1.396 . S
C702 C707 1.390 . S
C703 C697 1.465 . S
C703 C702 1.396 . S
C703 C704 1.399 . S
C704 H690 0.929 . S
C704 C703 1.399 . S
C704 C705 1.385 . S
C705 H691 0.931 . S
C705 C704 1.385 . S
C705 C706 1.389 . S
C706 C705 1.389 . S
C706 C707 1.387 . S
C707 H692 0.930 . S
C707 C702 1.390 . S
C707 C706 1.387 . S
H708 C720 0.930 . S
H709 C722 0.930 . S
H710 C723 0.930 . S
H711 C727 0.959 . S
H712 C727 0.959 . S
H713 C727 0.961 . S
H714 C728 0.960 . S
H715 C728 0.961 . S
H716 C728 0.959 1_556 S
H717 C731 0.929 . S
H718 C732 0.931 . S
H719 C734 0.930 . S
C720 H708 0.930 . S
C720 C721 1.399 1_554 S
C720 C725 1.399 . S
C721 C720 1.399 1_556 S
C721 C722 1.376 . S
C722 H709 0.930 . S
C722 C721 1.376 . S
C722 C723 1.388 . S
C723 H710 0.930 . S
C723 C722 1.388 . S
C723 C724 1.390 . S
C724 C723 1.390 . S
C724 C725 1.394 1_556 S
C724 C730 1.465 . S
C725 C720 1.399 . S
C725 C724 1.394 1_554 S
C725 C726 1.516 . S
C726 C725 1.516 . S
C726 C727 1.502 . S
C726 C728 1.561 . S
C726 C729 1.526 . S
C727 H711 0.959 . S
C727 H712 0.959 . S
C727 H713 0.961 . S
C727 C726 1.502 . S
C728 H714 0.960 . S
C728 H715 0.961 . S
C728 H716 0.959 1_554 S
C728 C726 1.561 . S
C729 C726 1.526 . S
C729 C730 1.396 1_554 S
C729 C734 1.390 . S
C730 C724 1.465 . S
C730 C729 1.396 1_556 S
C730 C731 1.399 . S
C731 H717 0.929 . S
C731 C730 1.399 . S
C731 C732 1.385 . S
C732 H718 0.931 . S
C732 C731 1.385 . S
C732 C733 1.389 1_556 S
C733 C732 1.389 1_554 S
C733 C734 1.387 . S
C734 H719 0.930 . S
C734 C729 1.390 . S
C734 C733 1.387 . S
H735 C747 0.930 . S
H736 C749 0.930 . S
H737 C750 0.930 . S
H738 C754 0.959 . S
H739 C754 0.959 . S
H740 C754 0.961 . S
H741 C755 0.960 . S
H742 C755 0.961 . S
H743 C755 0.959 . S
H744 C758 0.929 . S
H745 C759 0.931 . S
H746 C761 0.930 . S
C747 H735 0.930 . S
C747 C748 1.399 . S
C747 C752 1.399 . S
C748 C747 1.399 . S
C748 C749 1.376 . S
C749 H736 0.930 . S
C749 C748 1.376 . S
C749 C750 1.388 . S
C750 H737 0.930 . S
C750 C749 1.388 . S
C750 C751 1.390 . S
C751 C750 1.390 . S
C751 C752 1.394 . S
C751 C757 1.465 . S
C752 C747 1.399 . S
C752 C751 1.394 . S
C752 C753 1.516 . S
C753 C752 1.516 . S
C753 C754 1.502 . S
C753 C755 1.561 . S
C753 C756 1.526 . S
C754 H738 0.959 . S
C754 H739 0.959 . S
C754 H740 0.961 . S
C754 C753 1.502 . S
C755 H741 0.960 . S
C755 H742 0.961 . S
C755 H743 0.959 . S
C755 C753 1.561 . S
C756 C753 1.526 . S
C756 C757 1.396 . S
C756 C761 1.390 . S
C757 C751 1.465 . S
C757 C756 1.396 . S
C757 C758 1.399 . S
C758 H744 0.929 . S
C758 C757 1.399 . S
C758 C759 1.385 . S
C759 H745 0.931 . S
C759 C758 1.385 . S
C759 C760 1.389 . S
C760 C759 1.389 . S
C760 C761 1.387 . S
C761 H746 0.930 . S
C761 C756 1.390 . S
C761 C760 1.387 . S
H762 C774 0.930 . S
H763 C776 0.930 . S
H764 C777 0.930 . S
H765 C781 0.959 . S
H766 C781 0.959 . S
H767 C781 0.961 . S
H768 C782 0.960 . S
H769 C782 0.961 . S
H770 C782 0.959 . S
H771 C785 0.929 . S
H772 C786 0.931 . S
H773 C788 0.930 . S
C774 H762 0.930 . S
C774 C775 1.399 . S
C774 C779 1.399 . S
C775 C774 1.399 . S
C775 C776 1.376 . S
C776 H763 0.930 . S
C776 C775 1.376 . S
C776 C777 1.388 . S
C777 H764 0.930 . S
C777 C776 1.388 . S
C777 C778 1.390 . S
C778 C777 1.390 . S
C778 C779 1.394 . S
C778 C784 1.465 . S
C779 C774 1.399 . S
C779 C778 1.394 . S
C779 C780 1.516 . S
C780 C779 1.516 . S
C780 C781 1.502 . S
C780 C782 1.561 . S
C780 C783 1.526 . S
C781 H765 0.959 . S
C781 H766 0.959 . S
C781 H767 0.961 . S
C781 C780 1.502 . S
C782 H768 0.960 . S
C782 H769 0.961 . S
C782 H770 0.959 . S
C782 C780 1.561 . S
C783 C780 1.526 . S
C783 C784 1.396 . S
C783 C788 1.390 . S
C784 C778 1.465 . S
C784 C783 1.396 . S
C784 C785 1.399 . S
C785 H771 0.929 . S
C785 C784 1.399 . S
C785 C786 1.385 . S
C786 H772 0.931 . S
C786 C785 1.385 . S
C786 C787 1.389 . S
C787 C786 1.389 . S
C787 C788 1.387 . S
C788 H773 0.930 . S
C788 C783 1.390 . S
C788 C787 1.387 . S
H789 C801 0.930 . S
H790 C803 0.930 . S
H791 C804 0.930 . S
H792 C808 0.959 . S
H793 C808 0.959 . S
H794 C808 0.961 . S
H795 C809 0.960 . S
H796 C809 0.961 . S
H797 C809 0.959 . S
H798 C812 0.929 . S
H799 C813 0.931 . S
H800 C815 0.930 . S
C801 H789 0.930 . S
C801 C802 1.399 . S
C801 C806 1.399 . S
C802 C801 1.399 . S
C802 C803 1.376 . S
C803 H790 0.930 . S
C803 C802 1.376 . S
C803 C804 1.388 . S
C804 H791 0.930 . S
C804 C803 1.388 . S
C804 C805 1.390 . S
C805 C804 1.390 . S
C805 C806 1.394 . S
C805 C811 1.465 1_554 S
C806 C801 1.399 . S
C806 C805 1.394 . S
C806 C807 1.516 . S
C807 C806 1.516 . S
C807 C808 1.502 1_554 S
C807 C809 1.561 . S
C807 C810 1.526 1_554 S
C808 H792 0.959 . S
C808 H793 0.959 . S
C808 H794 0.961 . S
C808 C807 1.502 1_556 S
C809 H795 0.960 . S
C809 H796 0.961 . S
C809 H797 0.959 . S
C809 C807 1.561 . S
C810 C807 1.526 1_556 S
C810 C811 1.396 . S
C810 C815 1.390 . S
C811 C805 1.465 1_556 S
C811 C810 1.396 . S
C811 C812 1.399 . S
C812 H798 0.929 . S
C812 C811 1.399 . S
C812 C813 1.385 . S
C813 H799 0.931 . S
C813 C812 1.385 . S
C813 C814 1.389 . S
C814 C813 1.389 . S
C814 C815 1.387 . S
C815 H800 0.930 . S
C815 C810 1.390 . S
C815 C814 1.387 . S
C181 C7 1.337 . S
C193 C133 1.361 . S
C208 C21 1.388 . S
C220 C147 1.320 . S
C235 C35 1.341 . S
C247 C161 1.376 . S
C262 C49 1.332 . S
C274 C91 1.366 . S
C289 C105 1.327 . S
C301 C63 1.372 . S
C316 C119 1.381 . S
C328 C77 1.336 . S
C343 C151 1.761 . S
C355 C11 1.762 . S
C370 C25 1.763 . S
C382 C165 1.763 . S
C397 C39 1.763 . S
C409 C95 1.762 . S
C424 C53 1.761 . S
C436 C109 1.762 . S
C451 C67 1.763 . S
C463 C123 1.763 . S
C478 C81 1.762 . S
C490 C137 1.762 . S
C505 C153 0.866 . S
C517 C13 0.723 . S
C532 C27 0.680 . S
C544 C167 0.871 . S
C559 C41 0.808 . S
C571 C97 0.735 . S
C586 C55 0.867 . S
C598 C111 0.721 . S
C613 C69 0.681 . S
C625 C125 0.878 . S
C640 C83 0.769 . S
C652 C139 0.831 . S
C667 C8 1.482 . S
C679 C92 1.551 . S
C694 C106 1.486 . S
C706 C22 1.546 . S
C721 C36 1.547 . S
C733 C120 1.486 . S
C748 C50 1.485 . S
C760 C134 1.547 . S
C775 C64 1.487 . S
C787 C148 1.546 . S
C802 C162 1.525 . S
C814 C78 1.507 . S
