# Generated by pormake.
# Topology zfq, (5)-cn, num edge types: 1
# Building blocks:
#     Node 0, Type 0, BuildingBlock: BEQFEK_clean_sbu_0, # of connection points: 5
#     Node 1, Type 0, BuildingBlock: BEQFEK_clean_sbu_0, # of connection points: 5
#     Node 2, Type 0, BuildingBlock: BEQFEK_clean_sbu_0, # of connection points: 5
#     Node 3, Type 0, BuildingBlock: BEQFEK_clean_sbu_0, # of connection points: 5
#     Node 4, Type 0, BuildingBlock: BEQFEK_clean_sbu_0, # of connection points: 5
#     Node 5, Type 0, BuildingBlock: BEQFEK_clean_sbu_0, # of connection points: 5
#     Node 6, Type 0, BuildingBlock: BEQFEK_clean_sbu_0, # of connection points: 5
#     Node 7, Type 0, BuildingBlock: BEQFEK_clean_sbu_0, # of connection points: 5
#     Node 8, Type 0, BuildingBlock: BEQFEK_clean_sbu_0, # of connection points: 5
#     Node 9, Type 0, BuildingBlock: BEQFEK_clean_sbu_0, # of connection points: 5
#     Node 10, Type 0, BuildingBlock: BEQFEK_clean_sbu_0, # of connection points: 5
#     Node 11, Type 0, BuildingBlock: BEQFEK_clean_sbu_0, # of connection points: 5
#     Node 12, Type 0, BuildingBlock: BEQFEK_clean_sbu_0, # of connection points: 5
#     Node 13, Type 0, BuildingBlock: BEQFEK_clean_sbu_0, # of connection points: 5
#     Node 14, Type 0, BuildingBlock: BEQFEK_clean_sbu_0, # of connection points: 5
#     Node 15, Type 0, BuildingBlock: BEQFEK_clean_sbu_0, # of connection points: 5
#     Edge 16, Type (0, 0), BuildingBlock: XIVTED_clean_linker_0, # of connection points: 2
#     Edge 17, Type (0, 0), BuildingBlock: XIVTED_clean_linker_0, # of connection points: 2
#     Edge 18, Type (0, 0), BuildingBlock: XIVTED_clean_linker_0, # of connection points: 2
#     Edge 19, Type (0, 0), BuildingBlock: XIVTED_clean_linker_0, # of connection points: 2
#     Edge 20, Type (0, 0), BuildingBlock: XIVTED_clean_linker_0, # of connection points: 2
#     Edge 21, Type (0, 0), BuildingBlock: XIVTED_clean_linker_0, # of connection points: 2
#     Edge 22, Type (0, 0), BuildingBlock: XIVTED_clean_linker_0, # of connection points: 2
#     Edge 23, Type (0, 0), BuildingBlock: XIVTED_clean_linker_0, # of connection points: 2
#     Edge 24, Type (0, 0), BuildingBlock: XIVTED_clean_linker_0, # of connection points: 2
#     Edge 25, Type (0, 0), BuildingBlock: XIVTED_clean_linker_0, # of connection points: 2
#     Edge 26, Type (0, 0), BuildingBlock: XIVTED_clean_linker_0, # of connection points: 2
#     Edge 27, Type (0, 0), BuildingBlock: XIVTED_clean_linker_0, # of connection points: 2
#     Edge 28, Type (0, 0), BuildingBlock: XIVTED_clean_linker_0, # of connection points: 2
#     Edge 29, Type (0, 0), BuildingBlock: XIVTED_clean_linker_0, # of connection points: 2
#     Edge 30, Type (0, 0), BuildingBlock: XIVTED_clean_linker_0, # of connection points: 2
#     Edge 31, Type (0, 0), BuildingBlock: XIVTED_clean_linker_0, # of connection points: 2
#     Edge 32, Type (0, 0), BuildingBlock: XIVTED_clean_linker_0, # of connection points: 2
#     Edge 33, Type (0, 0), BuildingBlock: XIVTED_clean_linker_0, # of connection points: 2
#     Edge 34, Type (0, 0), BuildingBlock: XIVTED_clean_linker_0, # of connection points: 2
#     Edge 35, Type (0, 0), BuildingBlock: XIVTED_clean_linker_0, # of connection points: 2
#     Edge 36, Type (0, 0), BuildingBlock: XIVTED_clean_linker_0, # of connection points: 2
#     Edge 37, Type (0, 0), BuildingBlock: XIVTED_clean_linker_0, # of connection points: 2
#     Edge 38, Type (0, 0), BuildingBlock: XIVTED_clean_linker_0, # of connection points: 2
#     Edge 39, Type (0, 0), BuildingBlock: XIVTED_clean_linker_0, # of connection points: 2
#     Edge 40, Type (0, 0), BuildingBlock: XIVTED_clean_linker_0, # of connection points: 2
#     Edge 41, Type (0, 0), BuildingBlock: XIVTED_clean_linker_0, # of connection points: 2
#     Edge 42, Type (0, 0), BuildingBlock: XIVTED_clean_linker_0, # of connection points: 2
#     Edge 43, Type (0, 0), BuildingBlock: XIVTED_clean_linker_0, # of connection points: 2
#     Edge 44, Type (0, 0), BuildingBlock: XIVTED_clean_linker_0, # of connection points: 2
#     Edge 45, Type (0, 0), BuildingBlock: XIVTED_clean_linker_0, # of connection points: 2
#     Edge 46, Type (0, 0), BuildingBlock: XIVTED_clean_linker_0, # of connection points: 2
#     Edge 47, Type (0, 0), BuildingBlock: XIVTED_clean_linker_0, # of connection points: 2
#     Edge 48, Type (0, 0), BuildingBlock: XIVTED_clean_linker_0, # of connection points: 2
#     Edge 49, Type (0, 0), BuildingBlock: XIVTED_clean_linker_0, # of connection points: 2
#     Edge 50, Type (0, 0), BuildingBlock: XIVTED_clean_linker_0, # of connection points: 2
#     Edge 51, Type (0, 0), BuildingBlock: XIVTED_clean_linker_0, # of connection points: 2
#     Edge 52, Type (0, 0), BuildingBlock: XIVTED_clean_linker_0, # of connection points: 2
#     Edge 53, Type (0, 0), BuildingBlock: XIVTED_clean_linker_0, # of connection points: 2
#     Edge 54, Type (0, 0), BuildingBlock: XIVTED_clean_linker_0, # of connection points: 2
#     Edge 55, Type (0, 0), BuildingBlock: XIVTED_clean_linker_0, # of connection points: 2
# Relax obj value: 0.119
# Max RMSD: 0.179
# Mean RMSD: 0.179
data_MOF--net-zfq--node1-BEQFEK_clean_sbu_0--edge1-XIVTED_clean_linker_0
_symmetry_space_group_name_H-M    P1
_symmetry_Int_Tables_number       1
_symmetry_cell_setting            triclinic
loop_
_symmetry_equiv_pos_as_xyz
'x, y, z'
_cell_length_a     29.241661
_cell_length_b     29.262572
_cell_length_c     77.086748
_cell_angle_alpha  89.986415
_cell_angle_beta   89.967258
_cell_angle_gamma 90.024453
loop_
_atom_site_label
_atom_site_type_symbol
_atom_site_fract_x
_atom_site_fract_y
_atom_site_fract_z
_atom_type_partial_charge
Co0 Co 0.18632 0.16482 0.14896 0.0
Co1 Co 0.18683 0.16976 0.10821 0.0
C2 C 0.13746 0.23935 0.12891 0.0
O3 O 0.14971 0.21952 0.14288 0.0
O4 O 0.1508 0.22493 0.11416 0.0
C5 C 0.19886 0.20067 0.18331 0.0
O6 O 0.1978 0.24046 0.17543 0.0
C7 C 0.20022 0.19928 0.07179 0.0
C8 C 0.20979 0.13253 0.05886 0.0
C9 C 0.20889 0.17914 0.0558 0.0
N10 N 0.19684 0.16597 0.08377 0.0
N11 N 0.2023 0.12621 0.07591 0.0
C12 C 0.19296 0.24891 0.07562 0.0
H13 H 0.16056 0.25323 0.08289 0.0
H14 H 0.22112 0.26158 0.08397 0.0
H15 H 0.1911 0.26969 0.06361 0.0
C16 C 0.2858 0.15793 0.14321 0.0
N17 N 0.24285 0.16272 0.13725 0.0
N18 N 0.24374 0.16718 0.12029 0.0
C19 C 0.2877 0.16695 0.11494 0.0
C20 C 0.31599 0.16078 0.1293 0.0
C21 C 0.29706 0.1479 0.16178 0.0
H22 H 0.27107 0.1245 0.16734 0.0
H23 H 0.29642 0.18022 0.1693 0.0
H24 H 0.33127 0.13188 0.16305 0.0
O25 O 0.14851 0.1119 0.14293 0.0
O26 O 0.1469 0.11676 0.1142 0.0
H27 H 0.29746 0.14438 0.08883 0.0
H28 H 0.33831 0.18701 0.09581 0.0
C29 C 0.30212 0.17593 0.09661 0.0
H30 H 0.28048 0.20311 0.09096 0.0
H31 H 0.2013 0.0947 0.08224 0.0
O32 O 0.19514 0.16431 0.17441 0.0
C33 C 0.13432 0.09773 0.12829 0.0
Co34 Co 0.17795 0.80977 0.84545 0.0
Co35 Co 0.18511 0.80756 0.88612 0.0
C36 C 0.25424 0.8569 0.86531 0.0
O37 O 0.23356 0.84532 0.85144 0.0
O38 O 0.24048 0.84311 0.8801 0.0
C39 C 0.21048 0.7861 0.81147 0.0
O40 O 0.24668 0.77158 0.81991 0.0
C41 C 0.21408 0.7934 0.92265 0.0
C42 C 0.14675 0.78433 0.93526 0.0
C43 C 0.19327 0.78498 0.93854 0.0
N44 N 0.18119 0.79694 0.91051 0.0
N45 N 0.1411 0.79172 0.91818 0.0
C46 C 0.26396 0.80023 0.91909 0.0
H47 H 0.26882 0.83114 0.91101 0.0
H48 H 0.27729 0.77057 0.9117 0.0
H49 H 0.28382 0.80432 0.93125 0.0
C50 C 0.16832 0.70999 0.8509 0.0
N51 N 0.17509 0.75269 0.85687 0.0
N52 N 0.18108 0.75127 0.87376 0.0
C53 C 0.1802 0.70729 0.879 0.0
C54 C 0.17175 0.67949 0.86468 0.0
C55 C 0.15527 0.69916 0.83258 0.0
H56 H 0.13463 0.72739 0.82704 0.0
H57 H 0.18669 0.69513 0.82466 0.0
H58 H 0.13525 0.66698 0.83189 0.0
O59 O 0.12593 0.84824 0.85199 0.0
O60 O 0.13253 0.84827 0.88067 0.0
H61 H 0.1595 0.69614 0.90525 0.0
H62 H 0.20223 0.65628 0.8976 0.0
C63 C 0.19062 0.69232 0.89714 0.0
H64 H 0.2179 0.71411 0.90266 0.0
H65 H 0.1098 0.79298 0.9117 0.0
O66 O 0.17707 0.80275 0.81991 0.0
C67 C 0.11286 0.86185 0.86686 0.0
Co68 Co 0.8101 0.82296 0.14831 0.0
Co69 Co 0.80814 0.8203 0.10761 0.0
C70 C 0.8579 0.74932 0.12742 0.0
O71 O 0.84599 0.76832 0.14158 0.0
O72 O 0.84432 0.76471 0.11284 0.0
C73 C 0.83314 0.80823 0.18366 0.0
O74 O 0.87308 0.79785 0.17692 0.0
C75 C 0.79406 0.79257 0.0712 0.0
C76 C 0.78324 0.85966 0.05865 0.0
C77 C 0.78472 0.81317 0.05536 0.0
N78 N 0.7973 0.82547 0.08331 0.0
N79 N 0.79108 0.86546 0.0757 0.0
C80 C 0.80237 0.74296 0.07476 0.0
H81 H 0.8366 0.7389 0.08072 0.0
H82 H 0.77675 0.7303 0.08424 0.0
H83 H 0.80115 0.72202 0.0628 0.0
C84 C 0.71057 0.82957 0.14322 0.0
N85 N 0.75329 0.8259 0.13691 0.0
N86 N 0.75168 0.82211 0.11994 0.0
C87 C 0.70747 0.8217 0.11491 0.0
C88 C 0.67977 0.82663 0.12952 0.0
C89 C 0.70005 0.83804 0.16196 0.0
H90 H 0.72523 0.86243 0.16744 0.0
H91 H 0.70292 0.80542 0.16922 0.0
H92 H 0.66518 0.85224 0.1637 0.0
O93 O 0.84823 0.8761 0.14267 0.0
O94 O 0.8482 0.87285 0.11389 0.0
H95 H 0.69614 0.84478 0.08897 0.0
H96 H 0.65635 0.80126 0.09605 0.0
C97 C 0.69237 0.81294 0.09666 0.0
H98 H 0.71426 0.78633 0.09074 0.0
H99 H 0.79184 0.89673 0.0822 0.0
O100 O 0.80082 0.82044 0.17369 0.0
C101 C 0.86166 0.89102 0.12802 0.0
Co102 Co 0.83779 0.18411 0.84818 0.0
Co103 Co 0.83143 0.18327 0.8888 0.0
C104 C 0.76336 0.13328 0.86761 0.0
O105 O 0.78358 0.14619 0.8538 0.0
O106 O 0.77696 0.14649 0.88249 0.0
C107 C 0.80359 0.19555 0.81357 0.0
O108 O 0.76333 0.19251 0.82105 0.0
C109 C 0.80045 0.19461 0.92506 0.0
C110 C 0.86659 0.20464 0.93842 0.0
C111 C 0.81986 0.20267 0.94121 0.0
N112 N 0.83428 0.19251 0.91325 0.0
N113 N 0.87368 0.19827 0.92135 0.0
C114 C 0.75111 0.18645 0.92089 0.0
H115 H 0.73887 0.21322 0.91182 0.0
H116 H 0.72943 0.18597 0.93268 0.0
H117 H 0.74764 0.15307 0.91423 0.0
C118 C 0.84196 0.28343 0.85424 0.0
N119 N 0.83822 0.24027 0.86006 0.0
N120 N 0.83322 0.24061 0.877 0.0
C121 C 0.83203 0.2844 0.88249 0.0
C122 C 0.83777 0.31317 0.86822 0.0
C123 C 0.8522 0.29537 0.83575 0.0
H124 H 0.87672 0.27037 0.83024 0.0
H125 H 0.82016 0.29366 0.82807 0.0
H126 H 0.86705 0.33014 0.83462 0.0
O127 O 0.8913 0.14755 0.8543 0.0
O128 O 0.88546 0.14462 0.88298 0.0
H129 H 0.8535 0.29401 0.90872 0.0
H130 H 0.8101 0.33395 0.90169 0.0
C131 C 0.82208 0.2981 0.90081 0.0
H132 H 0.79525 0.27563 0.90627 0.0
H133 H 0.90545 0.19814 0.91518 0.0
O134 O 0.83948 0.19348 0.82281 0.0
C135 C 0.9053 0.13312 0.86892 0.0
Co136 Co 0.80761 0.17615 0.64913 0.0
Co137 Co 0.80684 0.17899 0.6084 0.0
C138 C 0.8558 0.24999 0.62848 0.0
O139 O 0.84344 0.23076 0.64253 0.0
O140 O 0.84285 0.23471 0.6138 0.0
C141 C 0.83259 0.18726 0.68411 0.0
O142 O 0.87307 0.19234 0.67695 0.0
C143 C 0.79281 0.20603 0.57173 0.0
C144 C 0.7811 0.13858 0.55962 0.0
C145 C 0.78261 0.18493 0.55605 0.0
N146 N 0.79633 0.17354 0.58403 0.0
N147 N 0.78967 0.13334 0.57664 0.0
C148 C 0.80104 0.25581 0.57497 0.0
H149 H 0.83272 0.26016 0.58266 0.0
H150 H 0.77226 0.27003 0.58264 0.0
H151 H 0.80477 0.27523 0.5627 0.0
C152 C 0.70846 0.16822 0.64369 0.0
N153 N 0.75121 0.17293 0.63754 0.0
N154 N 0.74999 0.17684 0.62057 0.0
C155 C 0.7059 0.17634 0.61538 0.0
C156 C 0.67795 0.1706 0.62989 0.0
C157 C 0.69776 0.1589 0.66236 0.0
H158 H 0.72381 0.13554 0.6679 0.0
H159 H 0.69895 0.19146 0.66973 0.0
H160 H 0.66349 0.14314 0.66391 0.0
O161 O 0.84568 0.12299 0.64369 0.0
O162 O 0.84689 0.12647 0.61491 0.0
H163 H 0.69513 0.1528 0.58947 0.0
H164 H 0.65491 0.19604 0.59639 0.0
C165 C 0.69103 0.18471 0.59708 0.0
H166 H 0.71278 0.21146 0.59116 0.0
H167 H 0.79035 0.1023 0.5833 0.0
O168 O 0.79832 0.17931 0.67446 0.0
C169 C 0.85969 0.10816 0.62912 0.0
Co170 Co 0.18162 0.1952 0.34763 0.0
Co171 Co 0.16882 0.1912 0.38799 0.0
C172 C 0.24709 0.14415 0.36964 0.0
O173 O 0.23539 0.15898 0.35477 0.0
O174 O 0.22455 0.15479 0.38318 0.0
C175 C 0.19431 0.17194 0.31287 0.0
O176 O 0.19757 0.1315 0.32018 0.0
C177 C 0.19447 0.21221 0.42386 0.0
C178 C 0.13224 0.1921 0.43826 0.0
C179 C 0.17583 0.20984 0.44042 0.0
N180 N 0.16311 0.19705 0.41249 0.0
N181 N 0.12604 0.185 0.42117 0.0
C182 C 0.24202 0.22603 0.41889 0.0
H183 H 0.25127 0.21202 0.40602 0.0
H184 H 0.24408 0.26379 0.41807 0.0
H185 H 0.26691 0.21421 0.42879 0.0
C186 C 0.17747 0.29508 0.35527 0.0
N187 N 0.17675 0.25091 0.36024 0.0
N188 N 0.16871 0.24889 0.37701 0.0
C189 C 0.16187 0.29144 0.38311 0.0
C190 C 0.16791 0.3224 0.36962 0.0
C191 C 0.18975 0.31046 0.33734 0.0
H192 H 0.21484 0.28659 0.33151 0.0
H193 H 0.20451 0.34539 0.33745 0.0
H194 H 0.15851 0.31045 0.32918 0.0
O195 O 0.12691 0.155 0.35111 0.0
O196 O 0.11758 0.15461 0.37971 0.0
H197 H 0.12666 0.33494 0.40143 0.0
H198 H 0.17469 0.30385 0.41003 0.0
C199 C 0.14518 0.30186 0.40106 0.0
H200 H 0.12183 0.27452 0.40559 0.0
H201 H 0.09656 0.17175 0.41544 0.0
O202 O 0.18704 0.2066 0.32241 0.0
C203 C 0.10556 0.14169 0.36463 0.0
Co204 Co 0.17648 0.82341 0.64802 0.0
Co205 Co 0.18291 0.82798 0.60735 0.0
C206 C 0.13069 0.75388 0.62488 0.0
O207 O 0.14113 0.76931 0.63983 0.0
O208 O 0.14581 0.77264 0.61112 0.0
C209 C 0.19653 0.7844 0.68147 0.0
O210 O 0.21143 0.74937 0.67244 0.0
C211 C 0.20058 0.80436 0.57065 0.0
C212 C 0.21558 0.8725 0.55963 0.0
C213 C 0.21333 0.82654 0.55545 0.0
N214 N 0.19643 0.83581 0.58328 0.0
N215 N 0.20502 0.87646 0.57655 0.0
C216 C 0.19059 0.75459 0.5731 0.0
H217 H 0.15705 0.7506 0.57959 0.0
H218 H 0.21696 0.73925 0.58165 0.0
H219 H 0.18941 0.73594 0.5606 0.0
C220 C 0.27746 0.83267 0.64421 0.0
N221 N 0.23505 0.82846 0.63755 0.0
N222 N 0.23783 0.82732 0.62053 0.0
C223 C 0.28223 0.8287 0.61582 0.0
C224 C 0.309 0.83269 0.63067 0.0
C225 C 0.28719 0.84 0.66307 0.0
H226 H 0.25899 0.85955 0.66917 0.0
H227 H 0.28997 0.80638 0.66963 0.0
H228 H 0.31975 0.85888 0.66491 0.0
O229 O 0.13884 0.87726 0.64265 0.0
O230 O 0.14309 0.88018 0.61392 0.0
H231 H 0.29531 0.85503 0.59042 0.0
H232 H 0.33458 0.81066 0.59708 0.0
C233 C 0.29853 0.82228 0.59757 0.0
H234 H 0.27722 0.79627 0.59101 0.0
H235 H 0.20434 0.90689 0.5836 0.0
O236 O 0.18103 0.81925 0.67359 0.0
C237 C 0.12773 0.89544 0.62826 0.0
Co238 Co 0.82334 0.81759 0.34748 0.0
Co239 Co 0.83522 0.82089 0.38796 0.0
C240 C 0.75854 0.87008 0.36906 0.0
O241 O 0.76986 0.85497 0.35418 0.0
O242 O 0.78083 0.85892 0.3826 0.0
C243 C 0.78814 0.81388 0.31249 0.0
O244 O 0.75018 0.82944 0.31943 0.0
C245 C 0.80551 0.79955 0.42336 0.0
C246 C 0.86714 0.81601 0.4387 0.0
C247 C 0.82266 0.79999 0.44018 0.0
N248 N 0.83852 0.81406 0.41253 0.0
N249 N 0.87522 0.82396 0.42178 0.0
C250 C 0.75802 0.78784 0.41759 0.0
H251 H 0.75052 0.80316 0.40478 0.0
H252 H 0.7548 0.75025 0.41626 0.0
H253 H 0.73255 0.79978 0.42726 0.0
C254 C 0.82408 0.71781 0.35498 0.0
N255 N 0.82627 0.76182 0.36006 0.0
N256 N 0.83417 0.76331 0.37684 0.0
C257 C 0.83934 0.72041 0.38285 0.0
C258 C 0.83251 0.68991 0.36927 0.0
C259 C 0.81114 0.70324 0.33703 0.0
H260 H 0.78587 0.72745 0.33152 0.0
H261 H 0.79621 0.6684 0.33696 0.0
H262 H 0.84204 0.70364 0.32867 0.0
O263 O 0.8783 0.8566 0.35164 0.0
O264 O 0.88801 0.85652 0.38021 0.0
H265 H 0.87878 0.73555 0.40564 0.0
H266 H 0.8722 0.67538 0.40125 0.0
C267 C 0.8548 0.70906 0.40087 0.0
H268 H 0.8248 0.70784 0.40964 0.0
H269 H 0.90578 0.83619 0.41653 0.0
O270 O 0.82235 0.80573 0.32218 0.0
C271 C 0.90002 0.86945 0.36512 0.0
Co272 Co 0.6837 0.67329 0.6463 0.0
Co273 Co 0.67588 0.67379 0.60561 0.0
C274 C 0.62949 0.74465 0.62789 0.0
O275 O 0.64566 0.72735 0.64173 0.0
O276 O 0.63932 0.72807 0.61305 0.0
C277 C 0.69222 0.70381 0.68161 0.0
O278 O 0.68052 0.74361 0.6751 0.0
C279 C 0.69525 0.70702 0.57029 0.0
C280 C 0.67839 0.64606 0.55463 0.0
C281 C 0.69479 0.6904 0.55337 0.0
N282 N 0.68055 0.6737 0.58095 0.0
N283 N 0.67021 0.63752 0.57149 0.0
C284 C 0.70744 0.75411 0.57632 0.0
H285 H 0.69069 0.76173 0.58888 0.0
H286 H 0.74492 0.75644 0.57828 0.0
H287 H 0.69719 0.77993 0.56652 0.0
C288 C 0.78246 0.67301 0.63757 0.0
N289 N 0.73805 0.6735 0.63295 0.0
N290 N 0.73493 0.67067 0.61597 0.0
C291 C 0.7773 0.666 0.60928 0.0
C292 C 0.80904 0.66791 0.62271 0.0
C293 C 0.79867 0.68035 0.65577 0.0
H294 H 0.77593 0.70497 0.66247 0.0
H295 H 0.8341 0.69382 0.65609 0.0
H296 H 0.79738 0.64742 0.6629 0.0
O297 O 0.64471 0.61953 0.64085 0.0
O298 O 0.63945 0.62011 0.61212 0.0
H299 H 0.75964 0.63289 0.58534 0.0
H300 H 0.82022 0.63731 0.5892 0.0
C301 C 0.78693 0.65509 0.59065 0.0
H302 H 0.78807 0.68717 0.58302 0.0
H303 H 0.65811 0.60674 0.57657 0.0
O304 O 0.69692 0.66975 0.67153 0.0
C305 C 0.62915 0.60288 0.62676 0.0
Co306 Co 0.67244 0.31766 0.34898 0.0
Co307 Co 0.66025 0.32115 0.38944 0.0
C308 C 0.7372 0.37018 0.37065 0.0
O309 O 0.72572 0.3552 0.35577 0.0
O310 O 0.71503 0.35893 0.38423 0.0
C311 C 0.70711 0.31532 0.31382 0.0
O312 O 0.74418 0.33357 0.32049 0.0
C313 C 0.68784 0.29998 0.42516 0.0
C314 C 0.62568 0.3182 0.43993 0.0
C315 C 0.6697 0.30138 0.44183 0.0
N316 N 0.65579 0.31477 0.414 0.0
N317 N 0.61877 0.32571 0.42291 0.0
C318 C 0.73552 0.28739 0.41992 0.0
H319 H 0.74407 0.30216 0.40709 0.0
H320 H 0.73833 0.24972 0.41886 0.0
H321 H 0.76044 0.29932 0.42978 0.0
C322 C 0.67181 0.21799 0.35656 0.0
N323 N 0.66942 0.26199 0.36163 0.0
N324 N 0.6613 0.2635 0.37839 0.0
C325 C 0.65606 0.2206 0.3844 0.0
C326 C 0.66318 0.19009 0.37084 0.0
C327 C 0.68527 0.20344 0.33866 0.0
H328 H 0.71032 0.22794 0.33317 0.0
H329 H 0.70065 0.16881 0.33867 0.0
H330 H 0.65451 0.20331 0.33023 0.0
O331 O 0.61732 0.35656 0.35292 0.0
O332 O 0.60772 0.35671 0.38149 0.0
H333 H 0.61637 0.23582 0.40714 0.0
H334 H 0.62262 0.17563 0.40268 0.0
C335 C 0.64023 0.20923 0.40237 0.0
H336 H 0.67007 0.20773 0.4112 0.0
H337 H 0.58879 0.33839 0.41737 0.0
O338 O 0.67376 0.30534 0.3237 0.0
C339 C 0.59559 0.36943 0.3664 0.0
Co340 Co 0.30724 0.3258 0.64991 0.0
Co341 Co 0.30568 0.32133 0.60924 0.0
C342 C 0.35475 0.25098 0.62934 0.0
O343 O 0.34309 0.27087 0.64337 0.0
O344 O 0.34104 0.26557 0.61467 0.0
C345 C 0.284 0.29018 0.68342 0.0
O346 O 0.26956 0.25462 0.67458 0.0
C347 C 0.29211 0.29502 0.57245 0.0
C348 C 0.27907 0.36273 0.56071 0.0
C349 C 0.28152 0.31657 0.55689 0.0
N350 N 0.29494 0.32707 0.58492 0.0
N351 N 0.28749 0.36743 0.57776 0.0
C352 C 0.30131 0.2453 0.57539 0.0
H353 H 0.33245 0.24126 0.58341 0.0
H354 H 0.27226 0.22994 0.58259 0.0
H355 H 0.30644 0.22672 0.56301 0.0
C356 C 0.20736 0.33539 0.64436 0.0
N357 N 0.25024 0.3292 0.63845 0.0
N358 N 0.2492 0.32417 0.62151 0.0
C359 C 0.20531 0.32505 0.61616 0.0
C360 C 0.17715 0.33266 0.63045 0.0
C361 C 0.19612 0.34707 0.66278 0.0
H362 H 0.22429 0.36723 0.66863 0.0
H363 H 0.19193 0.31508 0.67034 0.0
H364 H 0.16392 0.36702 0.66359 0.0
O365 O 0.34566 0.37848 0.64411 0.0
O366 O 0.3463 0.37349 0.61538 0.0
H367 H 0.19408 0.34658 0.59001 0.0
H368 H 0.15487 0.3029 0.59736 0.0
C369 C 0.19074 0.3151 0.59793 0.0
H370 H 0.21302 0.2884 0.59229 0.0
H371 H 0.28757 0.3982 0.5846 0.0
O372 O 0.30012 0.32448 0.67537 0.0
C373 C 0.35958 0.3924 0.62939 0.0
Co374 Co 0.31471 0.6955 0.34733 0.0
Co375 Co 0.32849 0.6926 0.38764 0.0
C376 C 0.24969 0.64507 0.36973 0.0
O377 O 0.26099 0.6597 0.35478 0.0
O378 O 0.27252 0.65604 0.38316 0.0
C379 C 0.30106 0.67206 0.31256 0.0
O380 O 0.29738 0.63155 0.31979 0.0
C381 C 0.30381 0.71604 0.42338 0.0
C382 C 0.36597 0.69609 0.4378 0.0
C383 C 0.32274 0.71472 0.4399 0.0
N384 N 0.33468 0.69952 0.41209 0.0
N385 N 0.37171 0.68754 0.42078 0.0
C386 C 0.25641 0.73026 0.41839 0.0
H387 H 0.24665 0.71523 0.40574 0.0
H388 H 0.25504 0.76796 0.41708 0.0
H389 H 0.23152 0.7198 0.42852 0.0
C390 C 0.31996 0.7954 0.35442 0.0
N391 N 0.32021 0.75145 0.35965 0.0
N392 N 0.3288 0.74996 0.37638 0.0
C393 C 0.33652 0.79267 0.38219 0.0
C394 C 0.3305 0.82315 0.36854 0.0
C395 C 0.3073 0.81018 0.33646 0.0
H396 H 0.2814 0.7866 0.33096 0.0
H397 H 0.29332 0.84542 0.33641 0.0
H398 H 0.33817 0.80906 0.3281 0.0
O399 O 0.3692 0.65514 0.35077 0.0
O400 O 0.3793 0.65533 0.37933 0.0
H401 H 0.37351 0.83627 0.39995 0.0
H402 H 0.32521 0.80667 0.4091 0.0
C403 C 0.35425 0.80358 0.39994 0.0
H404 H 0.37719 0.77597 0.40451 0.0
H405 H 0.40088 0.67347 0.4151 0.0
O406 O 0.3089 0.70651 0.32213 0.0
C407 C 0.39076 0.64192 0.36425 0.0
Co408 Co 0.30913 0.66022 0.14847 0.0
Co409 Co 0.3089 0.66589 0.10779 0.0
C410 C 0.35855 0.73489 0.12864 0.0
O411 O 0.34622 0.71482 0.14256 0.0
O412 O 0.34513 0.72083 0.11386 0.0
C413 C 0.29673 0.69546 0.1829 0.0
O414 O 0.29854 0.73541 0.17515 0.0
C415 C 0.29744 0.69621 0.07149 0.0
C416 C 0.28671 0.63003 0.05826 0.0
C417 C 0.2892 0.67666 0.05537 0.0
N418 N 0.29919 0.66256 0.08336 0.0
N419 N 0.29297 0.62313 0.07534 0.0
C420 C 0.30634 0.74543 0.07556 0.0
H421 H 0.28043 0.75786 0.08496 0.0
H422 H 0.3061 0.76715 0.06378 0.0
H423 H 0.34031 0.74857 0.0818 0.0
C424 C 0.20956 0.6551 0.14268 0.0
N425 N 0.25264 0.65886 0.13673 0.0
N426 N 0.2519 0.6637 0.11979 0.0
C427 C 0.20798 0.6648 0.11444 0.0
C428 C 0.17949 0.65913 0.12879 0.0
C429 C 0.19795 0.64533 0.16124 0.0
H430 H 0.22318 0.62113 0.16679 0.0
H431 H 0.19957 0.67758 0.16878 0.0
H432 H 0.16325 0.63036 0.16251 0.0
O433 O 0.34662 0.60718 0.14237 0.0
O434 O 0.34837 0.61256 0.11366 0.0
H435 H 0.19745 0.64348 0.08823 0.0
H436 H 0.15813 0.68725 0.09543 0.0
C437 C 0.19391 0.67491 0.09617 0.0
H438 H 0.21654 0.70149 0.09063 0.0
H439 H 0.29281 0.59147 0.08158 0.0
O440 O 0.30002 0.65925 0.17389 0.0
C441 C 0.36078 0.5932 0.1277 0.0
Co442 Co 0.67299 0.68216 0.84594 0.0
Co443 Co 0.67508 0.68391 0.88666 0.0
C444 C 0.74601 0.63376 0.86698 0.0
O445 O 0.72723 0.64577 0.85278 0.0
O446 O 0.73052 0.64742 0.88153 0.0
C447 C 0.68767 0.65923 0.8105 0.0
O448 O 0.69626 0.61872 0.81709 0.0
C449 C 0.70208 0.69765 0.92319 0.0
C450 C 0.63471 0.70902 0.93549 0.0
C451 C 0.68113 0.70722 0.93894 0.0
N452 N 0.66944 0.69461 0.91095 0.0
N453 N 0.62929 0.70113 0.91842 0.0
C454 C 0.75177 0.68904 0.91981 0.0
H455 H 0.76499 0.71494 0.91056 0.0
H456 H 0.7723 0.68957 0.93188 0.0
H457 H 0.75575 0.65506 0.91365 0.0
C458 C 0.6672 0.78177 0.85117 0.0
N459 N 0.67041 0.73896 0.85741 0.0
N460 N 0.67396 0.74038 0.87439 0.0
C461 C 0.67462 0.78448 0.8795 0.0
C462 C 0.67011 0.81237 0.86493 0.0
C463 C 0.65923 0.79258 0.83243 0.0
H464 H 0.63486 0.7676 0.8268 0.0
H465 H 0.69203 0.78971 0.82527 0.0
H466 H 0.64521 0.82752 0.83072 0.0
O467 O 0.61922 0.6445 0.8514 0.0
O468 O 0.62226 0.64451 0.88019 0.0
H469 H 0.65124 0.79572 0.90542 0.0
H470 H 0.69525 0.83517 0.89849 0.0
C471 C 0.68324 0.79929 0.8978 0.0
H472 H 0.70961 0.77714 0.90372 0.0
H473 H 0.59816 0.70061 0.91181 0.0
O474 O 0.67644 0.69168 0.82058 0.0
C475 C 0.60402 0.63126 0.86604 0.0
Co476 Co 0.68673 0.31993 0.14929 0.0
Co477 Co 0.68623 0.31614 0.10859 0.0
C478 C 0.63797 0.2455 0.1291 0.0
O479 O 0.65058 0.26496 0.14309 0.0
O480 O 0.65078 0.26049 0.11436 0.0
C481 C 0.66582 0.30611 0.18487 0.0
O482 O 0.62559 0.29535 0.17848 0.0
C483 C 0.69847 0.28788 0.07211 0.0
C484 C 0.70681 0.35497 0.05928 0.0
C485 C 0.70622 0.3084 0.05613 0.0
N486 N 0.69527 0.32093 0.08417 0.0
N487 N 0.69998 0.36091 0.07639 0.0
C488 C 0.69173 0.23813 0.07588 0.0
H489 H 0.71889 0.22613 0.08483 0.0
H490 H 0.69181 0.21716 0.06391 0.0
H491 H 0.65846 0.23331 0.08252 0.0
C492 C 0.78584 0.32802 0.1432 0.0
N493 N 0.74283 0.32308 0.13734 0.0
N494 N 0.74343 0.31884 0.12037 0.0
C495 C 0.78729 0.31938 0.1149 0.0
C496 C 0.81582 0.32545 0.12921 0.0
C497 C 0.79731 0.33779 0.16176 0.0
H498 H 0.77168 0.36156 0.16733 0.0
H499 H 0.79608 0.30547 0.16928 0.0
H500 H 0.83176 0.35332 0.16305 0.0
O501 O 0.64802 0.37275 0.14384 0.0
O502 O 0.64626 0.36848 0.11509 0.0
H503 H 0.79667 0.34256 0.08885 0.0
H504 H 0.83754 0.29972 0.09559 0.0
C505 C 0.80139 0.31081 0.09652 0.0
H506 H 0.77958 0.28382 0.09082 0.0
H507 H 0.69891 0.39228 0.08281 0.0
O508 O 0.69758 0.31814 0.1746 0.0
C509 C 0.63359 0.38707 0.12925 0.0
Co510 Co 0.32517 0.30952 0.84654 0.0
Co511 Co 0.32234 0.30839 0.88724 0.0
C512 C 0.25112 0.3572 0.86725 0.0
O513 O 0.27035 0.34517 0.85315 0.0
O514 O 0.26649 0.34399 0.88187 0.0
C515 C 0.28803 0.28618 0.8134 0.0
O516 O 0.25295 0.27207 0.82261 0.0
C517 C 0.29399 0.29438 0.92366 0.0
C518 C 0.36103 0.28523 0.93645 0.0
C519 C 0.31442 0.28577 0.9396 0.0
N520 N 0.32712 0.2981 0.91163 0.0
N521 N 0.36707 0.29288 0.91939 0.0
C522 C 0.24425 0.30149 0.91993 0.0
H523 H 0.23226 0.27505 0.91067 0.0
H524 H 0.22313 0.30059 0.93186 0.0
H525 H 0.23958 0.33523 0.91365 0.0
C526 C 0.3348 0.20997 0.85203 0.0
N527 N 0.32891 0.25273 0.85804 0.0
N528 N 0.32485 0.25161 0.87502 0.0
C529 C 0.32617 0.20765 0.88031 0.0
C530 C 0.3328 0.17963 0.8659 0.0
C531 C 0.34583 0.19895 0.83353 0.0
H532 H 0.36599 0.22706 0.82764 0.0
H533 H 0.31357 0.19501 0.82611 0.0
H534 H 0.36562 0.1667 0.83255 0.0
O535 O 0.37803 0.34778 0.85215 0.0
O536 O 0.37483 0.34887 0.88093 0.0
H537 H 0.34981 0.19775 0.90627 0.0
H538 H 0.30731 0.15662 0.89942 0.0
C539 C 0.318 0.19291 0.89865 0.0
H540 H 0.29079 0.21418 0.9045 0.0
H541 H 0.3985 0.29419 0.91299 0.0
O542 O 0.32293 0.30225 0.82109 0.0
C543 C 0.39296 0.36182 0.8667 0.0
H544 H 0.19826 0.27107 0.20682 0.0
H545 H 0.20852 0.10428 0.28909 0.0
H546 H 0.20724 0.12408 0.20338 0.0
H547 H 0.18931 0.25016 0.29326 0.0
H548 H 0.21315 0.1119 0.25766 0.0
H549 H 0.20016 0.26508 0.23847 0.0
C550 C 0.20086 0.23756 0.2127 0.0
C551 C 0.20232 0.19799 0.20242 0.0
C552 C 0.20799 0.1423 0.26543 0.0
C553 C 0.20443 0.19091 0.23862 0.0
C554 C 0.20535 0.13798 0.2834 0.0
C555 C 0.19828 0.17662 0.29383 0.0
C556 C 0.20356 0.1856 0.25775 0.0
C557 C 0.1946 0.21942 0.28571 0.0
C558 C 0.20185 0.23417 0.23078 0.0
C559 C 0.20574 0.15549 0.21077 0.0
N560 N 0.19717 0.22275 0.26814 0.0
N561 N 0.20655 0.1531 0.22835 0.0
H562 H 0.1541 0.84285 0.70388 0.0
H563 H 0.26799 0.74009 0.78941 0.0
H564 H 0.24286 0.72504 0.70271 0.0
H565 H 0.14858 0.82679 0.78992 0.0
H566 H 0.26456 0.73834 0.75764 0.0
H567 H 0.1572 0.84205 0.7355 0.0
C568 C 0.1743 0.81681 0.71027 0.0
C569 C 0.19823 0.78391 0.70064 0.0
C570 C 0.23907 0.75758 0.76474 0.0
C571 C 0.20208 0.78297 0.73688 0.0
C572 C 0.24107 0.75872 0.78286 0.0
C573 C 0.20856 0.78369 0.79233 0.0
C574 C 0.20468 0.78207 0.75607 0.0
C575 C 0.17432 0.80704 0.78316 0.0
C576 C 0.17591 0.81628 0.72834 0.0
C577 C 0.22375 0.75092 0.70964 0.0
N578 N 0.17346 0.80588 0.76556 0.0
N579 N 0.22521 0.75141 0.72729 0.0
H580 H 0.72383 0.83263 0.28763 0.0
H581 H 0.89423 0.7819 0.20861 0.0
H582 H 0.86198 0.78335 0.29401 0.0
H583 H 0.75545 0.82908 0.20191 0.0
H584 H 0.88194 0.77952 0.23992 0.0
H585 H 0.73346 0.82836 0.25617 0.0
C586 C 0.7561 0.82066 0.28243 0.0
C587 C 0.79225 0.80861 0.29348 0.0
C588 C 0.85412 0.7903 0.23161 0.0
C589 C 0.80357 0.80385 0.25749 0.0
C590 C 0.86114 0.79172 0.21372 0.0
C591 C 0.8259 0.80592 0.20262 0.0
C592 C 0.81156 0.80325 0.23849 0.0
C593 C 0.78367 0.81807 0.20998 0.0
C594 C 0.76159 0.8183 0.26446 0.0
C595 C 0.83324 0.79324 0.286 0.0
N596 N 0.77773 0.81659 0.22745 0.0
N597 N 0.83784 0.79151 0.26848 0.0
H598 H 0.75359 0.18024 0.70308 0.0
H599 H 0.88113 0.20774 0.7943 0.0
H600 H 0.89884 0.20285 0.70841 0.0
H601 H 0.73506 0.19047 0.78937 0.0
H602 H 0.8877 0.20837 0.76277 0.0
H603 H 0.74559 0.18569 0.73458 0.0
C604 C 0.7838 0.18638 0.71087 0.0
C605 C 0.82701 0.19092 0.70311 0.0
C606 C 0.85416 0.20461 0.76856 0.0
C607 C 0.81805 0.19723 0.73915 0.0
C608 C 0.85038 0.20424 0.78658 0.0
C609 C 0.80749 0.19876 0.79449 0.0
C610 C 0.81482 0.19928 0.75833 0.0
C611 C 0.76882 0.19466 0.78383 0.0
C612 C 0.77918 0.18956 0.72885 0.0
C613 C 0.8649 0.19899 0.71383 0.0
N614 N 0.77343 0.19476 0.76628 0.0
N615 N 0.85954 0.20177 0.7313 0.0
H616 H 0.71567 0.6263 0.69946 0.0
H617 H 0.67339 0.73901 0.79272 0.0
H618 H 0.67883 0.76777 0.70704 0.0
H619 H 0.71006 0.59747 0.78519 0.0
H620 H 0.6784 0.75097 0.76143 0.0
H621 H 0.71758 0.61602 0.73089 0.0
C622 C 0.70823 0.65529 0.70772 0.0
C623 C 0.69679 0.69791 0.70059 0.0
C624 C 0.68545 0.71731 0.76662 0.0
C625 C 0.69872 0.68629 0.73661 0.0
C626 C 0.68253 0.71042 0.78449 0.0
C627 C 0.69112 0.66708 0.79159 0.0
C628 C 0.69698 0.6806 0.75572 0.0
C629 C 0.703 0.6314 0.78029 0.0
C630 C 0.70927 0.64937 0.72568 0.0
C631 C 0.68765 0.73426 0.71195 0.0
N632 N 0.70546 0.63893 0.76292 0.0
N633 N 0.68859 0.72756 0.72939 0.0
H634 H 0.63501 0.27901 0.29589 0.0
H635 H 0.74399 0.32887 0.20248 0.0
H636 H 0.7692 0.33754 0.2885 0.0
H637 H 0.60629 0.27965 0.21037 0.0
H638 H 0.75597 0.32743 0.23385 0.0
H639 H 0.62628 0.27366 0.2645 0.0
C640 C 0.66277 0.29055 0.28767 0.0
C641 C 0.70279 0.30907 0.29486 0.0
C642 C 0.72318 0.31686 0.22871 0.0
C643 C 0.69292 0.30314 0.25883 0.0
C644 C 0.71628 0.31768 0.2108 0.0
C645 C 0.67396 0.30458 0.20379 0.0
C646 C 0.68753 0.30277 0.2397 0.0
C647 C 0.6394 0.29025 0.2152 0.0
C648 C 0.65771 0.28754 0.26973 0.0
C649 C 0.73768 0.32322 0.28355 0.0
N650 N 0.64692 0.28982 0.23258 0.0
N651 N 0.73184 0.32015 0.26609 0.0
H652 H 0.22675 0.24139 0.79247 0.0
H653 H 0.32599 0.35006 0.70536 0.0
H654 H 0.34612 0.32816 0.79073 0.0
H655 H 0.24012 0.23 0.70512 0.0
H656 H 0.32644 0.34831 0.73697 0.0
H657 H 0.22454 0.24186 0.76065 0.0
C658 C 0.25248 0.26047 0.78541 0.0
C659 C 0.28666 0.2848 0.79425 0.0
C660 C 0.30752 0.32231 0.73001 0.0
C661 C 0.28402 0.28581 0.75801 0.0
C662 C 0.30705 0.3234 0.71196 0.0
C663 C 0.28308 0.29002 0.70258 0.0
C664 C 0.28343 0.28791 0.73882 0.0
C665 C 0.25922 0.25626 0.71185 0.0
C666 C 0.25124 0.26062 0.76728 0.0
C667 C 0.31922 0.30884 0.78446 0.0
N668 N 0.25987 0.25612 0.7295 0.0
N669 N 0.31692 0.30895 0.76689 0.0
H670 H 0.30619 0.75066 0.29322 0.0
H671 H 0.28579 0.61862 0.20264 0.0
H672 H 0.28667 0.60491 0.28856 0.0
H673 H 0.29905 0.76519 0.20666 0.0
H674 H 0.2836 0.61358 0.23419 0.0
H675 H 0.30151 0.75735 0.26163 0.0
C676 C 0.30082 0.72009 0.28557 0.0
C677 C 0.29704 0.67711 0.29354 0.0
C678 C 0.28683 0.6469 0.2282 0.0
C679 C 0.29167 0.68454 0.25742 0.0
C680 C 0.28811 0.6498 0.21016 0.0
C681 C 0.2929 0.69238 0.20199 0.0
C682 C 0.29056 0.68684 0.2382 0.0
C683 C 0.29544 0.73164 0.21241 0.0
C684 C 0.2981 0.72394 0.26754 0.0
C685 C 0.28994 0.63871 0.28298 0.0
N686 N 0.29449 0.7279 0.22999 0.0
N687 N 0.28765 0.64332 0.26548 0.0
H688 H 0.09685 0.05178 0.15575 0.0
H689 H 0.90287 0.92906 0.09942 0.0
H690 H 0.08735 0.06495 0.10004 0.0
H691 H 0.90547 0.93105 0.15545 0.0
H692 H 0.97104 0.97744 0.09908 0.0
H693 H 0.02919 0.00334 0.15547 0.0
C694 C 0.0809 0.04408 0.14341 0.0
C695 C 0.09778 0.06275 0.1279 0.0
C696 C 0.95646 0.96751 0.11143 0.0
C697 C 0.01964 0.00764 0.12754 0.0
C698 C 0.91735 0.94011 0.11165 0.0
C699 C 0.89842 0.92576 0.1275 0.0
C700 C 0.97689 0.98046 0.12716 0.0
C701 C 0.9188 0.94113 0.14292 0.0
C702 C 0.04198 0.01664 0.14329 0.0
C703 C 0.07555 0.0514 0.11233 0.0
N704 N 0.95706 0.96734 0.14235 0.0
N705 N 0.03745 0.02476 0.11256 0.0
H706 H 0.95366 0.09904 0.84148 0.0
H707 H 0.07769 0.9028 0.89603 0.0
H708 H 0.93744 0.08465 0.89693 0.0
H709 H 0.07079 0.90629 0.84006 0.0
H710 H 0.02958 0.97113 0.89711 0.0
H711 H 0.00287 0.03208 0.84135 0.0
C712 C 0.96087 0.08217 0.85369 0.0
C713 C 0.94103 0.09739 0.86923 0.0
C714 C 0.0384 0.95668 0.88462 0.0
C715 C 0.99704 0.02004 0.8691 0.0
C716 C 0.06564 0.91752 0.88398 0.0
C717 C 0.07848 0.89879 0.86792 0.0
C718 C 0.02422 0.97737 0.8691 0.0
C719 C 0.06188 0.91945 0.85274 0.0
C720 C 0.98874 0.04364 0.85357 0.0
C721 C 0.95187 0.07409 0.88463 0.0
N722 N 0.03594 0.95777 0.85372 0.0
N723 N 0.97896 0.03635 0.88416 0.0
H724 H 0.8974 0.06314 0.65675 0.0
H725 H 0.08946 0.93812 0.60007 0.0
H726 H 0.90581 0.07388 0.60094 0.0
H727 H 0.08275 0.93269 0.65602 0.0
H728 H 0.02276 0.98834 0.6 0.0
H729 H 0.96408 0.01333 0.65649 0.0
C730 C 0.91291 0.05464 0.6444 0.0
C731 C 0.89596 0.07293 0.62884 0.0
C732 C 0.03608 0.97636 0.61229 0.0
C733 C 0.97296 0.01627 0.62849 0.0
C734 C 0.07438 0.9479 0.61235 0.0
C735 C 0.09172 0.93095 0.62808 0.0
C736 C 0.0149 0.98788 0.62804 0.0
C737 C 0.0706 0.94477 0.64357 0.0
C738 C 0.95124 0.02638 0.64428 0.0
C739 C 0.91764 0.06063 0.61326 0.0
N740 N 0.03318 0.97217 0.64315 0.0
N741 N 0.95517 0.03325 0.61349 0.0
H742 H 0.05112 0.10906 0.39051 0.0
H743 H 0.93165 0.91224 0.33559 0.0
H744 H 0.08037 0.09116 0.33598 0.0
H745 H 0.94788 0.91 0.3913 0.0
H746 H 0.98006 0.98069 0.33438 0.0
H747 H 0.00328 0.04129 0.38976 0.0
C748 C 0.04709 0.09121 0.37829 0.0
C749 C 0.07026 0.10566 0.36332 0.0
C750 C 0.97325 0.96479 0.34681 0.0
C751 C 0.01567 0.02735 0.36247 0.0
C752 C 0.94588 0.92562 0.34752 0.0
C753 C 0.93534 0.90546 0.3636 0.0
C754 C 0.98959 0.98405 0.36228 0.0
C755 C 0.95472 0.92437 0.37862 0.0
C756 C 0.02001 0.05221 0.37793 0.0
C757 C 0.06324 0.08119 0.34785 0.0
N758 N 0.98042 0.96282 0.3776 0.0
N759 N 0.03669 0.04295 0.34783 0.0
H760 H 0.40181 0.42781 0.60061 0.0
H761 H 0.58935 0.56463 0.65555 0.0
H762 H 0.40245 0.43476 0.65659 0.0
H763 H 0.58661 0.56044 0.59954 0.0
H764 H 0.5226 0.51455 0.65621 0.0
H765 H 0.4695 0.47656 0.59997 0.0
C766 C 0.41581 0.44 0.61277 0.0
C767 C 0.3964 0.42701 0.62868 0.0
C768 C 0.53679 0.52438 0.64378 0.0
C769 C 0.4744 0.48229 0.62804 0.0
C770 C 0.57516 0.55271 0.64339 0.0
C771 C 0.59354 0.56702 0.62746 0.0
C772 C 0.51663 0.51027 0.62814 0.0
C773 C 0.57355 0.5505 0.61213 0.0
C774 C 0.45468 0.4676 0.61239 0.0
C775 C 0.41618 0.44383 0.64401 0.0
N776 N 0.53602 0.52325 0.61286 0.0
N777 N 0.45423 0.47038 0.6433 0.0
H778 H 0.41805 0.59413 0.33518 0.0
H779 H 0.54362 0.40554 0.39239 0.0
H780 H 0.44133 0.60487 0.39038 0.0
H781 H 0.56691 0.41538 0.33716 0.0
H782 H 0.49521 0.47285 0.39088 0.0
H783 H 0.46572 0.52505 0.3347 0.0
C784 C 0.43367 0.58248 0.34712 0.0
C785 C 0.42537 0.60524 0.36287 0.0
C786 C 0.51075 0.46021 0.37906 0.0
C787 C 0.47866 0.52598 0.36243 0.0
C788 C 0.53814 0.42147 0.37988 0.0
C789 C 0.55987 0.40498 0.36491 0.0
C790 C 0.50468 0.48271 0.36316 0.0
C791 C 0.55103 0.42704 0.34905 0.0
C792 C 0.46057 0.54294 0.34684 0.0
C793 C 0.44638 0.58844 0.37795 0.0
N794 N 0.52425 0.46506 0.34859 0.0
N795 N 0.47158 0.54965 0.37737 0.0
H796 H 0.59215 0.42891 0.15685 0.0
H797 H 0.40547 0.5586 0.09923 0.0
H798 H 0.58985 0.42302 0.10085 0.0
H799 H 0.4005 0.54918 0.15513 0.0
H800 H 0.47351 0.51007 0.0993 0.0
H801 H 0.52421 0.47696 0.1562 0.0
C802 C 0.57774 0.43816 0.14439 0.0
C803 C 0.59672 0.42167 0.12888 0.0
C804 C 0.45728 0.5184 0.11153 0.0
C805 C 0.5183 0.47626 0.12808 0.0
C806 C 0.41824 0.54586 0.1115 0.0
C807 C 0.39727 0.55823 0.12721 0.0
C808 C 0.47558 0.50339 0.12737 0.0
C809 C 0.41549 0.54073 0.1427 0.0
C810 C 0.53865 0.46533 0.14404 0.0
C811 C 0.57638 0.43483 0.11314 0.0
N812 N 0.45375 0.51452 0.14239 0.0
N813 N 0.53812 0.46119 0.11315 0.0
H814 H 0.43784 0.3991 0.83895 0.0
H815 H 0.56455 0.59171 0.89467 0.0
H816 H 0.42701 0.40884 0.89472 0.0
H817 H 0.56387 0.58724 0.83865 0.0
H818 H 0.51474 0.52467 0.89518 0.0
H819 H 0.48712 0.46614 0.83893 0.0
C820 C 0.4462 0.41499 0.85124 0.0
C821 C 0.42802 0.39831 0.86687 0.0
C822 C 0.52527 0.53858 0.88279 0.0
C823 C 0.48414 0.47573 0.86688 0.0
C824 C 0.55351 0.57704 0.88247 0.0
C825 C 0.56863 0.59513 0.86658 0.0
C826 C 0.5122 0.51792 0.86712 0.0
C827 C 0.55319 0.57456 0.85121 0.0
C828 C 0.47415 0.45354 0.85119 0.0
C829 C 0.44019 0.42045 0.88236 0.0
N830 N 0.52612 0.53691 0.85187 0.0
N831 N 0.46733 0.45818 0.88196 0.0
H832 H 0.24177 0.22931 0.94614 0.0
H833 H 0.26365 0.25318 0.0493 0.0
H834 H 0.34014 0.31654 0.97141 0.0
H835 H 0.17905 0.15262 0.02398 0.0
H836 H 0.28462 0.28414 0.0209 0.0
H837 H 0.21095 0.20811 0.97453 0.0
C838 C 0.25613 0.24483 0.95766 0.0
C839 C 0.29287 0.27545 0.95647 0.0
C840 C 0.26102 0.25566 0.02155 0.0
C841 C 0.25883 0.25033 0.98899 0.0
C842 C 0.24864 0.23834 0.03776 0.0
C843 C 0.21888 0.2009 0.03894 0.0
C844 C 0.24372 0.23516 0.00643 0.0
C845 C 0.20189 0.18175 0.02358 0.0
C846 C 0.23891 0.23232 0.97387 0.0
C847 C 0.31152 0.29307 0.97182 0.0
N848 N 0.21454 0.19907 0.00795 0.0
N849 N 0.2943 0.28027 0.98746 0.0
H850 H 0.23568 0.75114 0.0485 0.0
H851 H 0.26741 0.73085 0.94561 0.0
H852 H 0.32237 0.65118 0.02389 0.0
H853 H 0.16501 0.81498 0.97011 0.0
H854 H 0.29647 0.70969 0.97427 0.0
H855 H 0.21785 0.78328 0.02 0.0
C856 C 0.25182 0.7367 0.03711 0.0
C857 C 0.28122 0.69908 0.03851 0.0
C858 C 0.26802 0.73325 0.97338 0.0
C859 C 0.25999 0.73466 0.00586 0.0
C860 C 0.25178 0.74573 0.95703 0.0
C861 C 0.21428 0.77529 0.95554 0.0
C862 C 0.24639 0.75029 0.98832 0.0
C863 C 0.19416 0.79223 0.97074 0.0
C864 C 0.24124 0.75468 0.02083 0.0
C865 C 0.29976 0.68043 0.02331 0.0
N866 N 0.21043 0.77946 0.98651 0.0
N867 N 0.28883 0.69839 0.0076 0.0
H868 H 0.75472 0.76217 0.94565 0.0
H869 H 0.72918 0.74 0.04874 0.0
H870 H 0.65337 0.67782 0.97069 0.0
H871 H 0.81523 0.83975 0.02362 0.0
H872 H 0.70845 0.70926 0.02029 0.0
H873 H 0.78481 0.78344 0.97413 0.0
C874 C 0.73953 0.7473 0.95716 0.0
C875 C 0.70217 0.71747 0.95588 0.0
C876 C 0.73229 0.73752 0.021 0.0
C877 C 0.7354 0.74264 0.98847 0.0
C878 C 0.74452 0.7547 0.03723 0.0
C879 C 0.77467 0.79179 0.03847 0.0
C880 C 0.75016 0.75781 0.00592 0.0
C881 C 0.79212 0.81086 0.02316 0.0
C882 C 0.75633 0.75985 0.97341 0.0
C883 C 0.68248 0.70066 0.97118 0.0
N884 N 0.77964 0.79364 0.0075 0.0
N885 N 0.69934 0.71345 0.98686 0.0
H886 H 0.84467 0.17003 0.9728 0.0
H887 H 0.67417 0.33389 0.0245 0.0
H888 H 0.74581 0.25715 0.94778 0.0
H889 H 0.76307 0.23637 0.04936 0.0
H890 H 0.69678 0.30325 0.99622 0.0
H891 H 0.8122 0.19067 0.00099 0.0
C892 C 0.81564 0.193 0.97328 0.0
C893 C 0.7973 0.2113 0.958 0.0
C894 C 0.71083 0.28804 0.00786 0.0
C895 C 0.76051 0.23579 0.99012 0.0
C896 C 0.69795 0.30553 0.02397 0.0
C897 C 0.71615 0.28699 0.03923 0.0
C898 C 0.74284 0.25232 0.00702 0.0
C899 C 0.74724 0.25072 0.0379 0.0
C900 C 0.79711 0.20477 0.98934 0.0
C901 C 0.7601 0.24131 0.95925 0.0
N902 N 0.75984 0.23473 0.02206 0.0
N903 N 0.74308 0.25287 0.97506 0.0
H904 H 0.80678 0.15412 0.52408 0.0
H905 H 0.65709 0.34046 0.47348 0.0
H906 H 0.73073 0.26109 0.54952 0.0
H907 H 0.72844 0.22984 0.44828 0.0
H908 H 0.68826 0.31533 0.50132 0.0
H909 H 0.78315 0.18486 0.49595 0.0
C910 C 0.78559 0.18447 0.52371 0.0
C911 C 0.77152 0.20571 0.53911 0.0
C912 C 0.69754 0.29686 0.48966 0.0
C913 C 0.74375 0.24071 0.50705 0.0
C914 C 0.67972 0.31116 0.47378 0.0
C915 C 0.69087 0.28777 0.45847 0.0
C916 C 0.72636 0.25852 0.49029 0.0
C917 C 0.72009 0.24988 0.45961 0.0
C918 C 0.77208 0.20199 0.50768 0.0
C919 C 0.74362 0.24457 0.53796 0.0
N920 N 0.7367 0.23636 0.47525 0.0
N921 N 0.73055 0.26075 0.5222 0.0
H922 H 0.23297 0.28226 0.44745 0.0
H923 H 0.23201 0.23912 0.54983 0.0
H924 H 0.16322 0.16923 0.47182 0.0
H925 H 0.30455 0.34985 0.52516 0.0
H926 H 0.21057 0.21 0.52127 0.0
H927 H 0.26347 0.30465 0.47559 0.0
C928 C 0.22491 0.26146 0.45863 0.0
C929 C 0.19632 0.22316 0.45721 0.0
C930 C 0.23167 0.24034 0.52208 0.0
C931 C 0.22988 0.24961 0.48964 0.0
C932 C 0.24439 0.25665 0.53838 0.0
C933 C 0.27101 0.29633 0.53981 0.0
C934 C 0.24521 0.26422 0.50711 0.0
C935 C 0.28427 0.31892 0.52458 0.0
C936 C 0.24192 0.27463 0.47477 0.0
C937 C 0.18532 0.19889 0.47234 0.0
N938 N 0.27121 0.30257 0.50886 0.0
N939 N 0.20209 0.21253 0.48794 0.0
H940 H 0.26475 0.75017 0.549 0.0
H941 H 0.26699 0.78863 0.44628 0.0
H942 H 0.19317 0.85996 0.52344 0.0
H943 H 0.3353 0.67646 0.47171 0.0
H944 H 0.2369 0.81337 0.47423 0.0
H945 H 0.28823 0.72071 0.52072 0.0
C946 C 0.2531 0.76746 0.5374 0.0
C947 C 0.22593 0.80682 0.53849 0.0
C948 C 0.25809 0.78306 0.47369 0.0
C949 C 0.25403 0.77433 0.50611 0.0
C950 C 0.27484 0.76854 0.45766 0.0
C951 C 0.30281 0.72972 0.45659 0.0
C952 C 0.26973 0.75884 0.48879 0.0
C953 C 0.31363 0.70644 0.47196 0.0
C954 C 0.26696 0.75095 0.52125 0.0
C955 C 0.21372 0.8292 0.5231 0.0
N956 N 0.29705 0.72132 0.48742 0.0
N957 N 0.2278 0.81262 0.50753 0.0
H958 H 0.75883 0.73201 0.44571 0.0
H959 H 0.76455 0.75293 0.54849 0.0
H960 H 0.8373 0.8352 0.47242 0.0
H961 H 0.66251 0.67517 0.52082 0.0
H962 H 0.79222 0.78321 0.52098 0.0
H963 H 0.72409 0.71003 0.47313 0.0
C964 C 0.76796 0.75093 0.45722 0.0
C965 C 0.80011 0.78649 0.45662 0.0
C966 C 0.76333 0.76004 0.52095 0.0
C967 C 0.76176 0.75999 0.48833 0.0
C968 C 0.74704 0.74313 0.53673 0.0
C969 C 0.71034 0.71221 0.53706 0.0
C970 C 0.74334 0.74531 0.50537 0.0
C971 C 0.69077 0.69907 0.5212 0.0
C972 C 0.74844 0.73791 0.47298 0.0
C973 C 0.81241 0.8078 0.47226 0.0
N974 N 0.70761 0.71552 0.50601 0.0
N975 N 0.79329 0.79418 0.48749 0.0
H976 H 0.59412 0.21386 0.15809 0.0
H977 H 0.3768 0.11812 0.10734 0.0
H978 H 0.59303 0.20267 0.10221 0.0
H979 H 0.37072 0.2041 0.15274 0.0
H980 H 0.46077 0.12425 0.10781 0.0
H981 H 0.51753 0.18104 0.15891 0.0
C982 C 0.57846 0.20334 0.146 0.0
C983 C 0.59967 0.21234 0.13 0.0
C984 C 0.44082 0.14108 0.11778 0.0
C985 C 0.51193 0.17473 0.13097 0.0
C986 C 0.39307 0.13802 0.11744 0.0
C987 C 0.36672 0.16095 0.12995 0.0
C988 C 0.46215 0.16623 0.13098 0.0
C989 C 0.38956 0.18532 0.14299 0.0
C990 C 0.53458 0.18486 0.14652 0.0
C991 C 0.5777 0.19719 0.11482 0.0
N992 N 0.43591 0.1873 0.14317 0.0
N993 N 0.53457 0.17982 0.11564 0.0
H994 H 0.2105 0.6243 0.84028 0.0
H995 H 0.21087 0.40305 0.8945 0.0
H996 H 0.13081 0.6192 0.88736 0.0
H997 H 0.21666 0.3999 0.83852 0.0
H998 H 0.17802 0.47985 0.89297 0.0
H999 H 0.21227 0.54121 0.83974 0.0
C1000 C 0.19263 0.60572 0.85036 0.0
C1001 C 0.17055 0.62882 0.8639 0.0
C1002 C 0.18537 0.46174 0.88104 0.0
C1003 C 0.17382 0.53335 0.86369 0.0
C1004 C 0.204 0.41778 0.88188 0.0
C1005 C 0.21781 0.39537 0.86663 0.0
C1006 C 0.18128 0.48344 0.86488 0.0
C1007 C 0.20761 0.41617 0.85066 0.0
C1008 C 0.19378 0.55818 0.85007 0.0
C1009 C 0.14907 0.60273 0.87687 0.0
N1010 N 0.19115 0.4595 0.85022 0.0
N1011 N 0.15192 0.55629 0.87663 0.0
H1012 H 0.4014 0.78044 0.10188 0.0
H1013 H 0.62875 0.7789 0.15289 0.0
H1014 H 0.40448 0.76373 0.15754 0.0
H1015 H 0.61568 0.86796 0.10856 0.0
H1016 H 0.54585 0.7723 0.1542 0.0
H1017 H 0.47773 0.8147 0.10315 0.0
C1018 C 0.41743 0.78507 0.11441 0.0
C1019 C 0.39685 0.76803 0.12958 0.0
C1020 C 0.56101 0.79384 0.14432 0.0
C1021 C 0.48435 0.80621 0.131 0.0
C1022 C 0.60839 0.79773 0.14359 0.0
C1023 C 0.62919 0.82413 0.13062 0.0
C1024 C 0.53406 0.81543 0.1317 0.0
C1025 C 0.60099 0.84665 0.1186 0.0
C1026 C 0.46108 0.80455 0.1151 0.0
C1027 C 0.41925 0.77545 0.14545 0.0
N1028 N 0.55476 0.84122 0.11924 0.0
N1029 N 0.46225 0.79287 0.14569 0.0
H1030 H 0.77949 0.58927 0.83847 0.0
H1031 H 0.87765 0.37526 0.89043 0.0
H1032 H 0.78738 0.5898 0.89444 0.0
H1033 H 0.79298 0.36641 0.84474 0.0
H1034 H 0.86911 0.45899 0.88983 0.0
H1035 H 0.81349 0.51326 0.83824 0.0
C1036 C 0.78948 0.57409 0.85071 0.0
C1037 C 0.7793 0.59558 0.86655 0.0
C1038 C 0.85308 0.43848 0.87984 0.0
C1039 C 0.81826 0.5085 0.86626 0.0
C1040 C 0.85752 0.39087 0.88025 0.0
C1041 C 0.83576 0.36382 0.86766 0.0
C1042 C 0.82776 0.45896 0.86649 0.0
C1043 C 0.81096 0.38583 0.85453 0.0
C1044 C 0.80865 0.53054 0.85054 0.0
C1045 C 0.79381 0.57423 0.88194 0.0
N1046 N 0.80771 0.43205 0.85427 0.0
N1047 N 0.81189 0.53139 0.88145 0.0
H1048 H 0.39854 0.20824 0.60215 0.0
H1049 H 0.62464 0.21544 0.65332 0.0
H1050 H 0.40021 0.21982 0.65801 0.0
H1051 H 0.61589 0.12767 0.60848 0.0
H1052 H 0.54153 0.21822 0.65456 0.0
H1053 H 0.47584 0.17624 0.60318 0.0
C1054 C 0.41445 0.20283 0.61466 0.0
C1055 C 0.39321 0.21801 0.62998 0.0
C1056 C 0.55772 0.1978 0.64457 0.0
C1057 C 0.48179 0.18248 0.63113 0.0
C1058 C 0.60522 0.19611 0.64388 0.0
C1059 C 0.62727 0.17115 0.63082 0.0
C1060 C 0.53184 0.17548 0.63181 0.0
C1061 C 0.6002 0.14793 0.61861 0.0
C1062 C 0.45867 0.18469 0.61521 0.0
C1063 C 0.4155 0.20964 0.64581 0.0
N1064 N 0.55376 0.15123 0.61921 0.0
N1065 N 0.45904 0.19364 0.64594 0.0
H1066 H 0.20553 0.37447 0.39513 0.0
H1067 H 0.20149 0.60354 0.34346 0.0
H1068 H 0.13132 0.38541 0.34697 0.0
H1069 H 0.22433 0.59744 0.39877 0.0
H1070 H 0.16906 0.52663 0.34455 0.0
H1071 H 0.20861 0.45734 0.39691 0.0
C1072 C 0.18919 0.39435 0.38505 0.0
C1073 C 0.16813 0.37296 0.37088 0.0
C1074 C 0.18013 0.54262 0.3565 0.0
C1075 C 0.17272 0.46828 0.37256 0.0
C1076 C 0.1985 0.58668 0.35592 0.0
C1077 C 0.21689 0.6066 0.37098 0.0
C1078 C 0.1807 0.51828 0.37219 0.0
C1079 C 0.21155 0.58317 0.38675 0.0
C1080 C 0.19104 0.44178 0.38605 0.0
C1081 C 0.14862 0.40057 0.35796 0.0
N1082 N 0.195 0.53984 0.38687 0.0
N1083 N 0.15193 0.4469 0.35897 0.0
H1084 H 0.58791 0.77454 0.65759 0.0
H1085 H 0.37003 0.8795 0.61014 0.0
H1086 H 0.58237 0.78865 0.60183 0.0
H1087 H 0.36344 0.78749 0.65381 0.0
H1088 H 0.45381 0.87219 0.61024 0.0
H1089 H 0.51208 0.80874 0.65959 0.0
C1090 C 0.57147 0.78599 0.64577 0.0
C1091 C 0.59118 0.77756 0.62945 0.0
C1092 C 0.43381 0.85434 0.61994 0.0
C1093 C 0.50443 0.81691 0.6318 0.0
C1094 C 0.38616 0.8581 0.61983 0.0
C1095 C 0.35966 0.83344 0.63182 0.0
C1096 C 0.45499 0.82683 0.63246 0.0
C1097 C 0.38238 0.8074 0.64442 0.0
C1098 C 0.52804 0.80527 0.64697 0.0
C1099 C 0.56818 0.79373 0.61466 0.0
N1100 N 0.42872 0.80467 0.64438 0.0
N1101 N 0.52559 0.81206 0.61616 0.0
H1102 H 0.86775 0.62674 0.34643 0.0
H1103 H 0.76449 0.41647 0.39972 0.0
H1104 H 0.79277 0.63799 0.39445 0.0
H1105 H 0.78436 0.41235 0.3442 0.0
H1106 H 0.79986 0.4919 0.40036 0.0
H1107 H 0.85855 0.54326 0.34769 0.0
C1108 C 0.84961 0.61167 0.35726 0.0
C1109 C 0.83066 0.63934 0.37029 0.0
C1110 C 0.79722 0.47406 0.38809 0.0
C1111 C 0.82149 0.54434 0.37209 0.0
C1112 C 0.77728 0.43082 0.3877 0.0
C1113 C 0.77027 0.40845 0.37181 0.0
C1114 C 0.81049 0.49502 0.37251 0.0
C1115 C 0.78828 0.42865 0.35672 0.0
C1116 C 0.84477 0.56416 0.35804 0.0
C1117 C 0.80844 0.61804 0.38424 0.0
N1118 N 0.80687 0.47123 0.35739 0.0
N1119 N 0.80437 0.57188 0.38475 0.0
H1120 H 0.08693 0.70656 0.65092 0.0
H1121 H 0.86124 0.71193 0.59862 0.0
H1122 H 0.08558 0.72734 0.59544 0.0
H1123 H 0.8721 0.62474 0.64357 0.0
H1124 H 0.94431 0.71649 0.59732 0.0
H1125 H 0.01054 0.67275 0.64895 0.0
C1126 C 0.07125 0.70288 0.63827 0.0
C1127 C 0.0924 0.72088 0.62338 0.0
C1128 C 0.92861 0.69578 0.60733 0.0
C1129 C 0.00477 0.68323 0.62116 0.0
C1130 C 0.88111 0.69305 0.60806 0.0
C1131 C 0.85964 0.66809 0.62128 0.0
C1132 C 0.95499 0.67438 0.62019 0.0
C1133 C 0.88727 0.64523 0.63339 0.0
C1134 C 0.02757 0.68365 0.63718 0.0
C1135 C 0.07048 0.7147 0.60733 0.0
N1136 N 0.93359 0.64956 0.63276 0.0
N1137 N 0.02739 0.69751 0.60671 0.0
H1138 H 0.71139 0.91247 0.34268 0.0
H1139 H 0.70287 0.13871 0.39614 0.0
H1140 H 0.73141 0.91617 0.39818 0.0
H1141 H 0.62921 0.12645 0.3479 0.0
H1142 H 0.71043 0.05601 0.39724 0.0
H1143 H 0.67602 0.98808 0.34419 0.0
C1144 C 0.7073 0.92854 0.35524 0.0
C1145 C 0.72551 0.90834 0.37027 0.0
C1146 C 0.69202 0.07122 0.38651 0.0
C1147 C 0.68592 0.99512 0.37198 0.0
C1148 C 0.68755 0.11854 0.38591 0.0
C1149 C 0.66545 0.13955 0.37189 0.0
C1150 C 0.67524 0.04456 0.37278 0.0
C1151 C 0.6473 0.11164 0.35877 0.0
C1152 C 0.68721 0.97182 0.35607 0.0
C1153 C 0.71878 0.93072 0.38619 0.0
N1154 N 0.65319 0.06552 0.35939 0.0
N1155 N 0.7005 0.97332 0.38657 0.0
H1156 H 0.11826 0.37481 0.60765 0.0
H1157 H 0.89687 0.28497 0.65745 0.0
H1158 H 0.1204 0.29377 0.65441 0.0
H1159 H 0.90281 0.29026 0.60148 0.0
H1160 H 0.97314 0.3184 0.6587 0.0
H1161 H 0.03428 0.36982 0.6075 0.0
C1162 C 0.10114 0.35629 0.61794 0.0
C1163 C 0.12643 0.33419 0.63097 0.0
C1164 C 0.9572 0.31319 0.64617 0.0
C1165 C 0.0309 0.33031 0.63126 0.0
C1166 C 0.91352 0.29433 0.6454 0.0
C1167 C 0.8938 0.28348 0.6293 0.0
C1168 C 0.98115 0.3218 0.63077 0.0
C1169 C 0.91697 0.29721 0.61418 0.0
C1170 C 0.05337 0.35389 0.6179 0.0
C1171 C 0.10246 0.3118 0.64424 0.0
N1172 N 0.95992 0.31495 0.61526 0.0
N1173 N 0.05609 0.31037 0.64403 0.0
H1174 H 0.27621 0.09909 0.39873 0.0
H1175 H 0.36745 0.88412 0.34517 0.0
H1176 H 0.29287 0.10128 0.34305 0.0
H1177 H 0.2954 0.87735 0.39396 0.0
H1178 H 0.36279 0.96798 0.34634 0.0
H1179 H 0.31004 0.02297 0.39939 0.0
C1180 C 0.28807 0.08419 0.38668 0.0
C1181 C 0.28039 0.10614 0.37075 0.0
C1182 C 0.3487 0.94794 0.35688 0.0
C1183 C 0.31873 0.01883 0.37147 0.0
C1184 C 0.35092 0.90023 0.35615 0.0
C1185 C 0.33142 0.87374 0.36942 0.0
C1186 C 0.32752 0.96909 0.37112 0.0
C1187 C 0.3114 0.89633 0.38355 0.0
C1188 C 0.30712 0.04057 0.38708 0.0
C1189 C 0.29728 0.08529 0.3556 0.0
N1190 N 0.30985 0.94262 0.384 0.0
N1191 N 0.31485 0.04231 0.35629 0.0
H1192 H 0.9022 0.70801 0.10001 0.0
H1193 H 0.12704 0.70468 0.15232 0.0
H1194 H 0.90236 0.71609 0.15596 0.0
H1195 H 0.11662 0.61961 0.10679 0.0
H1196 H 0.04404 0.71071 0.15312 0.0
H1197 H 0.97872 0.67413 0.1011 0.0
C1198 C 0.91761 0.70151 0.11254 0.0
C1199 C 0.89616 0.71609 0.1279 0.0
C1200 C 0.05983 0.69018 0.14308 0.0
C1201 C 0.98387 0.67842 0.12913 0.0
C1202 C 0.10726 0.68661 0.14264 0.0
C1203 C 0.12883 0.66147 0.12951 0.0
C1204 C 0.03361 0.66958 0.13 0.0
C1205 C 0.10135 0.63996 0.11699 0.0
C1206 C 0.96137 0.68228 0.11312 0.0
C1207 C 0.91782 0.70637 0.14375 0.0
N1208 N 0.05506 0.64509 0.11735 0.0
N1209 N 0.96094 0.6893 0.14392 0.0
H1210 H 0.71838 0.86373 0.84181 0.0
H1211 H 0.71753 0.08931 0.89405 0.0
H1212 H 0.62868 0.87609 0.886 0.0
H1213 H 0.73539 0.08812 0.83842 0.0
H1214 H 0.68306 0.01317 0.89228 0.0
H1215 H 0.72576 0.94658 0.84093 0.0
C1216 C 0.69958 0.88392 0.85116 0.0
C1217 C 0.67283 0.86294 0.86398 0.0
C1218 C 0.69353 0.03019 0.88045 0.0
C1219 C 0.6824 0.95796 0.86342 0.0
C1220 C 0.71313 0.07372 0.88142 0.0
C1221 C 0.73048 0.09481 0.86641 0.0
C1222 C 0.69207 0.00751 0.86442 0.0
C1223 C 0.7234 0.07296 0.8504 0.0
C1224 C 0.70392 0.93127 0.85069 0.0
C1225 C 0.65029 0.89091 0.87608 0.0
N1226 N 0.70584 0.03005 0.84988 0.0
N1227 N 0.65617 0.93707 0.8757 0.0
H1228 H 0.87676 0.36806 0.10724 0.0
H1229 H 0.09356 0.27087 0.15789 0.0
H1230 H 0.87038 0.28137 0.15246 0.0
H1231 H 0.09269 0.28232 0.10201 0.0
H1232 H 0.01715 0.30408 0.15869 0.0
H1233 H 0.96073 0.36152 0.10766 0.0
C1234 C 0.89297 0.34793 0.1173 0.0
C1235 C 0.86654 0.32496 0.12978 0.0
C1236 C 0.03422 0.30022 0.1463 0.0
C1237 C 0.96194 0.31919 0.13075 0.0
C1238 C 0.07799 0.28152 0.14579 0.0
C1239 C 0.09919 0.2725 0.1298 0.0
C1240 C 0.01167 0.31052 0.13074 0.0
C1241 C 0.07735 0.28782 0.11461 0.0
C1242 C 0.94071 0.34463 0.1176 0.0
C1243 C 0.88929 0.30023 0.14275 0.0
N1244 N 0.03431 0.30538 0.11542 0.0
N1245 N 0.93561 0.29804 0.1429 0.0
H1246 H 0.28499 0.90151 0.83635 0.0
H1247 H 0.37665 0.11946 0.88783 0.0
H1248 H 0.2976 0.90139 0.89219 0.0
H1249 H 0.29136 0.12428 0.84221 0.0
H1250 H 0.37263 0.03543 0.88707 0.0
H1251 H 0.31688 0.97848 0.83569 0.0
C1252 C 0.29566 0.91699 0.84846 0.0
C1253 C 0.28726 0.89533 0.86441 0.0
C1254 C 0.35549 0.05515 0.87712 0.0
C1255 C 0.32368 0.98353 0.86364 0.0
C1256 C 0.35733 0.10293 0.87762 0.0
C1257 C 0.33394 0.12895 0.86514 0.0
C1258 C 0.33112 0.03347 0.86378 0.0
C1259 C 0.31046 0.10577 0.85195 0.0
C1260 C 0.31359 0.96109 0.84804 0.0
C1261 C 0.3026 0.91707 0.87961 0.0
N1262 N 0.30964 0.05943 0.85162 0.0
N1263 N 0.31931 0.96045 0.87889 0.0
loop_
_geom_bond_atom_site_label_1
_geom_bond_atom_site_label_2
_geom_bond_distance
_geom_bond_site_symmetry_2
_ccdc_geom_bond_type
Co0 O3 1.970 . S
Co0 N17 1.989 . S
Co0 O25 1.967 . S
Co0 O32 1.920 . S
Co1 O4 1.966 . S
Co1 N10 2.022 . S
Co1 N18 1.993 . S
Co1 O26 1.941 . S
C2 O3 1.258 . S
C2 O4 1.263 . S
O3 Co0 1.970 . S
O3 C2 1.258 . S
O4 Co1 1.966 . S
O4 C2 1.263 . S
C5 O6 1.235 . S
C5 O32 1.289 . S
O6 C5 1.235 . S
C7 C9 1.400 . S
C7 N10 1.351 . S
C7 C12 1.501 . S
C8 C9 1.387 . S
C8 N11 1.341 . S
C9 C7 1.400 . S
C9 C8 1.387 . S
N10 Co1 2.022 . S
N10 C7 1.351 . S
N10 N11 1.365 . S
N11 C8 1.341 . S
N11 N10 1.365 . S
N11 H31 0.862 . S
C12 C7 1.501 . S
C12 H13 0.961 . S
C12 H14 0.961 . S
C12 H15 0.960 . S
H13 C12 0.961 . S
H14 C12 0.961 . S
H15 C12 0.960 . S
C16 N17 1.342 . S
C16 C20 1.401 . S
C16 C21 1.499 . S
N17 Co0 1.989 . S
N17 C16 1.342 . S
N17 N18 1.388 . S
N18 Co1 1.993 . S
N18 N17 1.388 . S
N18 C19 1.346 . S
C19 N18 1.346 . S
C19 C20 1.396 . S
C19 C29 1.510 . S
C20 C16 1.401 . S
C20 C19 1.396 . S
C21 C16 1.499 . S
C21 H22 0.959 . S
C21 H23 0.960 . S
C21 H24 0.961 . S
H22 C21 0.959 . S
H23 C21 0.960 . S
H24 C21 0.961 . S
O25 Co0 1.967 . S
O25 C33 1.258 . S
O26 Co1 1.941 . S
O26 C33 1.266 . S
H27 C29 0.959 . S
H28 C29 0.961 . S
C29 C19 1.510 . S
C29 H27 0.959 . S
C29 H28 0.961 . S
C29 H30 0.960 . S
H30 C29 0.960 . S
H31 N11 0.862 . S
O32 Co0 1.920 . S
O32 C5 1.289 . S
C33 O25 1.258 . S
C33 O26 1.266 . S
Co34 O37 1.970 . S
Co34 N51 1.989 . S
Co34 O59 1.967 . S
Co34 O66 1.920 . S
Co35 O38 1.966 . S
Co35 N44 2.022 . S
Co35 N52 1.993 . S
Co35 O60 1.941 . S
C36 O37 1.258 . S
C36 O38 1.263 . S
O37 Co34 1.970 . S
O37 C36 1.258 . S
O38 Co35 1.966 . S
O38 C36 1.263 . S
C39 O40 1.235 . S
C39 O66 1.289 . S
O40 C39 1.235 . S
C41 C43 1.400 . S
C41 N44 1.351 . S
C41 C46 1.501 . S
C42 C43 1.387 . S
C42 N45 1.341 . S
C43 C41 1.400 . S
C43 C42 1.387 . S
N44 Co35 2.022 . S
N44 C41 1.351 . S
N44 N45 1.365 . S
N45 C42 1.341 . S
N45 N44 1.365 . S
N45 H65 0.862 . S
C46 C41 1.501 . S
C46 H47 0.961 . S
C46 H48 0.961 . S
C46 H49 0.960 . S
H47 C46 0.961 . S
H48 C46 0.961 . S
H49 C46 0.960 . S
C50 N51 1.342 . S
C50 C54 1.401 . S
C50 C55 1.499 . S
N51 Co34 1.989 . S
N51 C50 1.342 . S
N51 N52 1.388 . S
N52 Co35 1.993 . S
N52 N51 1.388 . S
N52 C53 1.346 . S
C53 N52 1.346 . S
C53 C54 1.396 . S
C53 C63 1.510 . S
C54 C50 1.401 . S
C54 C53 1.396 . S
C55 C50 1.499 . S
C55 H56 0.959 . S
C55 H57 0.960 . S
C55 H58 0.961 . S
H56 C55 0.959 . S
H57 C55 0.960 . S
H58 C55 0.961 . S
O59 Co34 1.967 . S
O59 C67 1.258 . S
O60 Co35 1.941 . S
O60 C67 1.266 . S
H61 C63 0.959 . S
H62 C63 0.961 . S
C63 C53 1.510 . S
C63 H61 0.959 . S
C63 H62 0.961 . S
C63 H64 0.960 . S
H64 C63 0.960 . S
H65 N45 0.862 . S
O66 Co34 1.920 . S
O66 C39 1.289 . S
C67 O59 1.258 . S
C67 O60 1.266 . S
Co68 O71 1.970 . S
Co68 N85 1.989 . S
Co68 O93 1.967 . S
Co68 O100 1.920 . S
Co69 O72 1.966 . S
Co69 N78 2.022 . S
Co69 N86 1.993 . S
Co69 O94 1.941 . S
C70 O71 1.258 . S
C70 O72 1.263 . S
O71 Co68 1.970 . S
O71 C70 1.258 . S
O72 Co69 1.966 . S
O72 C70 1.263 . S
C73 O74 1.235 . S
C73 O100 1.289 . S
O74 C73 1.235 . S
C75 C77 1.400 . S
C75 N78 1.351 . S
C75 C80 1.501 . S
C76 C77 1.387 . S
C76 N79 1.341 . S
C77 C75 1.400 . S
C77 C76 1.387 . S
N78 Co69 2.022 . S
N78 C75 1.351 . S
N78 N79 1.365 . S
N79 C76 1.341 . S
N79 N78 1.365 . S
N79 H99 0.862 . S
C80 C75 1.501 . S
C80 H81 0.961 . S
C80 H82 0.961 . S
C80 H83 0.960 . S
H81 C80 0.961 . S
H82 C80 0.961 . S
H83 C80 0.960 . S
C84 N85 1.342 . S
C84 C88 1.401 . S
C84 C89 1.499 . S
N85 Co68 1.989 . S
N85 C84 1.342 . S
N85 N86 1.388 . S
N86 Co69 1.993 . S
N86 N85 1.388 . S
N86 C87 1.346 . S
C87 N86 1.346 . S
C87 C88 1.396 . S
C87 C97 1.510 . S
C88 C84 1.401 . S
C88 C87 1.396 . S
C89 C84 1.499 . S
C89 H90 0.959 . S
C89 H91 0.960 . S
C89 H92 0.961 . S
H90 C89 0.959 . S
H91 C89 0.960 . S
H92 C89 0.961 . S
O93 Co68 1.967 . S
O93 C101 1.258 . S
O94 Co69 1.941 . S
O94 C101 1.266 . S
H95 C97 0.959 . S
H96 C97 0.961 . S
C97 C87 1.510 . S
C97 H95 0.959 . S
C97 H96 0.961 . S
C97 H98 0.960 . S
H98 C97 0.960 . S
H99 N79 0.862 . S
O100 Co68 1.920 . S
O100 C73 1.289 . S
C101 O93 1.258 . S
C101 O94 1.266 . S
Co102 O105 1.970 . S
Co102 N119 1.989 . S
Co102 O127 1.967 . S
Co102 O134 1.920 . S
Co103 O106 1.966 . S
Co103 N112 2.022 . S
Co103 N120 1.993 . S
Co103 O128 1.941 . S
C104 O105 1.258 . S
C104 O106 1.263 . S
O105 Co102 1.970 . S
O105 C104 1.258 . S
O106 Co103 1.966 . S
O106 C104 1.263 . S
C107 O108 1.235 . S
C107 O134 1.289 . S
O108 C107 1.235 . S
C109 C111 1.400 . S
C109 N112 1.351 . S
C109 C114 1.501 . S
C110 C111 1.387 . S
C110 N113 1.341 . S
C111 C109 1.400 . S
C111 C110 1.387 . S
N112 Co103 2.022 . S
N112 C109 1.351 . S
N112 N113 1.365 . S
N113 C110 1.341 . S
N113 N112 1.365 . S
N113 H133 0.862 . S
C114 C109 1.501 . S
C114 H115 0.961 . S
C114 H116 0.961 . S
C114 H117 0.960 . S
H115 C114 0.961 . S
H116 C114 0.961 . S
H117 C114 0.960 . S
C118 N119 1.342 . S
C118 C122 1.401 . S
C118 C123 1.499 . S
N119 Co102 1.989 . S
N119 C118 1.342 . S
N119 N120 1.388 . S
N120 Co103 1.993 . S
N120 N119 1.388 . S
N120 C121 1.346 . S
C121 N120 1.346 . S
C121 C122 1.396 . S
C121 C131 1.510 . S
C122 C118 1.401 . S
C122 C121 1.396 . S
C123 C118 1.499 . S
C123 H124 0.959 . S
C123 H125 0.960 . S
C123 H126 0.961 . S
H124 C123 0.959 . S
H125 C123 0.960 . S
H126 C123 0.961 . S
O127 Co102 1.967 . S
O127 C135 1.258 . S
O128 Co103 1.941 . S
O128 C135 1.266 . S
H129 C131 0.959 . S
H130 C131 0.961 . S
C131 C121 1.510 . S
C131 H129 0.959 . S
C131 H130 0.961 . S
C131 H132 0.960 . S
H132 C131 0.960 . S
H133 N113 0.862 . S
O134 Co102 1.920 . S
O134 C107 1.289 . S
C135 O127 1.258 . S
C135 O128 1.266 . S
Co136 O139 1.970 . S
Co136 N153 1.989 . S
Co136 O161 1.967 . S
Co136 O168 1.920 . S
Co137 O140 1.966 . S
Co137 N146 2.022 . S
Co137 N154 1.993 . S
Co137 O162 1.941 . S
C138 O139 1.258 . S
C138 O140 1.263 . S
O139 Co136 1.970 . S
O139 C138 1.258 . S
O140 Co137 1.966 . S
O140 C138 1.263 . S
C141 O142 1.235 . S
C141 O168 1.289 . S
O142 C141 1.235 . S
C143 C145 1.400 . S
C143 N146 1.351 . S
C143 C148 1.501 . S
C144 C145 1.387 . S
C144 N147 1.341 . S
C145 C143 1.400 . S
C145 C144 1.387 . S
N146 Co137 2.022 . S
N146 C143 1.351 . S
N146 N147 1.365 . S
N147 C144 1.341 . S
N147 N146 1.365 . S
N147 H167 0.862 . S
C148 C143 1.501 . S
C148 H149 0.961 . S
C148 H150 0.961 . S
C148 H151 0.960 . S
H149 C148 0.961 . S
H150 C148 0.961 . S
H151 C148 0.960 . S
C152 N153 1.342 . S
C152 C156 1.401 . S
C152 C157 1.499 . S
N153 Co136 1.989 . S
N153 C152 1.342 . S
N153 N154 1.388 . S
N154 Co137 1.993 . S
N154 N153 1.388 . S
N154 C155 1.346 . S
C155 N154 1.346 . S
C155 C156 1.396 . S
C155 C165 1.510 . S
C156 C152 1.401 . S
C156 C155 1.396 . S
C157 C152 1.499 . S
C157 H158 0.959 . S
C157 H159 0.960 . S
C157 H160 0.961 . S
H158 C157 0.959 . S
H159 C157 0.960 . S
H160 C157 0.961 . S
O161 Co136 1.967 . S
O161 C169 1.258 . S
O162 Co137 1.941 . S
O162 C169 1.266 . S
H163 C165 0.959 . S
H164 C165 0.961 . S
C165 C155 1.510 . S
C165 H163 0.959 . S
C165 H164 0.961 . S
C165 H166 0.960 . S
H166 C165 0.960 . S
H167 N147 0.862 . S
O168 Co136 1.920 . S
O168 C141 1.289 . S
C169 O161 1.258 . S
C169 O162 1.266 . S
Co170 O173 1.970 . S
Co170 N187 1.989 . S
Co170 O195 1.967 . S
Co170 O202 1.920 . S
Co171 O174 1.966 . S
Co171 N180 2.022 . S
Co171 N188 1.993 . S
Co171 O196 1.941 . S
C172 O173 1.258 . S
C172 O174 1.263 . S
O173 Co170 1.970 . S
O173 C172 1.258 . S
O174 Co171 1.966 . S
O174 C172 1.263 . S
C175 O176 1.235 . S
C175 O202 1.289 . S
O176 C175 1.235 . S
C177 C179 1.400 . S
C177 N180 1.351 . S
C177 C182 1.501 . S
C178 C179 1.387 . S
C178 N181 1.341 . S
C179 C177 1.400 . S
C179 C178 1.387 . S
N180 Co171 2.022 . S
N180 C177 1.351 . S
N180 N181 1.365 . S
N181 C178 1.341 . S
N181 N180 1.365 . S
N181 H201 0.862 . S
C182 C177 1.501 . S
C182 H183 0.961 . S
C182 H184 0.961 . S
C182 H185 0.960 . S
H183 C182 0.961 . S
H184 C182 0.961 . S
H185 C182 0.960 . S
C186 N187 1.342 . S
C186 C190 1.401 . S
C186 C191 1.499 . S
N187 Co170 1.989 . S
N187 C186 1.342 . S
N187 N188 1.388 . S
N188 Co171 1.993 . S
N188 N187 1.388 . S
N188 C189 1.346 . S
C189 N188 1.346 . S
C189 C190 1.396 . S
C189 C199 1.510 . S
C190 C186 1.401 . S
C190 C189 1.396 . S
C191 C186 1.499 . S
C191 H192 0.959 . S
C191 H193 0.960 . S
C191 H194 0.961 . S
H192 C191 0.959 . S
H193 C191 0.960 . S
H194 C191 0.961 . S
O195 Co170 1.967 . S
O195 C203 1.258 . S
O196 Co171 1.941 . S
O196 C203 1.266 . S
H197 C199 0.959 . S
H198 C199 0.961 . S
C199 C189 1.510 . S
C199 H197 0.959 . S
C199 H198 0.961 . S
C199 H200 0.960 . S
H200 C199 0.960 . S
H201 N181 0.862 . S
O202 Co170 1.920 . S
O202 C175 1.289 . S
C203 O195 1.258 . S
C203 O196 1.266 . S
Co204 O207 1.970 . S
Co204 N221 1.989 . S
Co204 O229 1.967 . S
Co204 O236 1.920 . S
Co205 O208 1.966 . S
Co205 N214 2.022 . S
Co205 N222 1.993 . S
Co205 O230 1.941 . S
C206 O207 1.258 . S
C206 O208 1.263 . S
O207 Co204 1.970 . S
O207 C206 1.258 . S
O208 Co205 1.966 . S
O208 C206 1.263 . S
C209 O210 1.235 . S
C209 O236 1.289 . S
O210 C209 1.235 . S
C211 C213 1.400 . S
C211 N214 1.351 . S
C211 C216 1.501 . S
C212 C213 1.387 . S
C212 N215 1.341 . S
C213 C211 1.400 . S
C213 C212 1.387 . S
N214 Co205 2.022 . S
N214 C211 1.351 . S
N214 N215 1.365 . S
N215 C212 1.341 . S
N215 N214 1.365 . S
N215 H235 0.862 . S
C216 C211 1.501 . S
C216 H217 0.961 . S
C216 H218 0.961 . S
C216 H219 0.960 . S
H217 C216 0.961 . S
H218 C216 0.961 . S
H219 C216 0.960 . S
C220 N221 1.342 . S
C220 C224 1.401 . S
C220 C225 1.499 . S
N221 Co204 1.989 . S
N221 C220 1.342 . S
N221 N222 1.388 . S
N222 Co205 1.993 . S
N222 N221 1.388 . S
N222 C223 1.346 . S
C223 N222 1.346 . S
C223 C224 1.396 . S
C223 C233 1.510 . S
C224 C220 1.401 . S
C224 C223 1.396 . S
C225 C220 1.499 . S
C225 H226 0.959 . S
C225 H227 0.960 . S
C225 H228 0.961 . S
H226 C225 0.959 . S
H227 C225 0.960 . S
H228 C225 0.961 . S
O229 Co204 1.967 . S
O229 C237 1.258 . S
O230 Co205 1.941 . S
O230 C237 1.266 . S
H231 C233 0.959 . S
H232 C233 0.961 . S
C233 C223 1.510 . S
C233 H231 0.959 . S
C233 H232 0.961 . S
C233 H234 0.960 . S
H234 C233 0.960 . S
H235 N215 0.862 . S
O236 Co204 1.920 . S
O236 C209 1.289 . S
C237 O229 1.258 . S
C237 O230 1.266 . S
Co238 O241 1.970 . S
Co238 N255 1.989 . S
Co238 O263 1.967 . S
Co238 O270 1.920 . S
Co239 O242 1.966 . S
Co239 N248 2.022 . S
Co239 N256 1.993 . S
Co239 O264 1.941 . S
C240 O241 1.258 . S
C240 O242 1.263 . S
O241 Co238 1.970 . S
O241 C240 1.258 . S
O242 Co239 1.966 . S
O242 C240 1.263 . S
C243 O244 1.235 . S
C243 O270 1.289 . S
O244 C243 1.235 . S
C245 C247 1.400 . S
C245 N248 1.351 . S
C245 C250 1.501 . S
C246 C247 1.387 . S
C246 N249 1.341 . S
C247 C245 1.400 . S
C247 C246 1.387 . S
N248 Co239 2.022 . S
N248 C245 1.351 . S
N248 N249 1.365 . S
N249 C246 1.341 . S
N249 N248 1.365 . S
N249 H269 0.862 . S
C250 C245 1.501 . S
C250 H251 0.961 . S
C250 H252 0.961 . S
C250 H253 0.960 . S
H251 C250 0.961 . S
H252 C250 0.961 . S
H253 C250 0.960 . S
C254 N255 1.342 . S
C254 C258 1.401 . S
C254 C259 1.499 . S
N255 Co238 1.989 . S
N255 C254 1.342 . S
N255 N256 1.388 . S
N256 Co239 1.993 . S
N256 N255 1.388 . S
N256 C257 1.346 . S
C257 N256 1.346 . S
C257 C258 1.396 . S
C257 C267 1.510 . S
C258 C254 1.401 . S
C258 C257 1.396 . S
C259 C254 1.499 . S
C259 H260 0.959 . S
C259 H261 0.960 . S
C259 H262 0.961 . S
H260 C259 0.959 . S
H261 C259 0.960 . S
H262 C259 0.961 . S
O263 Co238 1.967 . S
O263 C271 1.258 . S
O264 Co239 1.941 . S
O264 C271 1.266 . S
H265 C267 0.959 . S
H266 C267 0.961 . S
C267 C257 1.510 . S
C267 H265 0.959 . S
C267 H266 0.961 . S
C267 H268 0.960 . S
H268 C267 0.960 . S
H269 N249 0.862 . S
O270 Co238 1.920 . S
O270 C243 1.289 . S
C271 O263 1.258 . S
C271 O264 1.266 . S
Co272 O275 1.970 . S
Co272 N289 1.989 . S
Co272 O297 1.967 . S
Co272 O304 1.920 . S
Co273 O276 1.966 . S
Co273 N282 2.022 . S
Co273 N290 1.993 . S
Co273 O298 1.941 . S
C274 O275 1.258 . S
C274 O276 1.263 . S
O275 Co272 1.970 . S
O275 C274 1.258 . S
O276 Co273 1.966 . S
O276 C274 1.263 . S
C277 O278 1.235 . S
C277 O304 1.289 . S
O278 C277 1.235 . S
C279 C281 1.400 . S
C279 N282 1.351 . S
C279 C284 1.501 . S
C280 C281 1.387 . S
C280 N283 1.341 . S
C281 C279 1.400 . S
C281 C280 1.387 . S
N282 Co273 2.022 . S
N282 C279 1.351 . S
N282 N283 1.365 . S
N283 C280 1.341 . S
N283 N282 1.365 . S
N283 H303 0.862 . S
C284 C279 1.501 . S
C284 H285 0.961 . S
C284 H286 0.961 . S
C284 H287 0.960 . S
H285 C284 0.961 . S
H286 C284 0.961 . S
H287 C284 0.960 . S
C288 N289 1.342 . S
C288 C292 1.401 . S
C288 C293 1.499 . S
N289 Co272 1.989 . S
N289 C288 1.342 . S
N289 N290 1.388 . S
N290 Co273 1.993 . S
N290 N289 1.388 . S
N290 C291 1.346 . S
C291 N290 1.346 . S
C291 C292 1.396 . S
C291 C301 1.510 . S
C292 C288 1.401 . S
C292 C291 1.396 . S
C293 C288 1.499 . S
C293 H294 0.959 . S
C293 H295 0.960 . S
C293 H296 0.961 . S
H294 C293 0.959 . S
H295 C293 0.960 . S
H296 C293 0.961 . S
O297 Co272 1.967 . S
O297 C305 1.258 . S
O298 Co273 1.941 . S
O298 C305 1.266 . S
H299 C301 0.959 . S
H300 C301 0.961 . S
C301 C291 1.510 . S
C301 H299 0.959 . S
C301 H300 0.961 . S
C301 H302 0.960 . S
H302 C301 0.960 . S
H303 N283 0.862 . S
O304 Co272 1.920 . S
O304 C277 1.289 . S
C305 O297 1.258 . S
C305 O298 1.266 . S
Co306 O309 1.970 . S
Co306 N323 1.989 . S
Co306 O331 1.967 . S
Co306 O338 1.920 . S
Co307 O310 1.966 . S
Co307 N316 2.022 . S
Co307 N324 1.993 . S
Co307 O332 1.941 . S
C308 O309 1.258 . S
C308 O310 1.263 . S
O309 Co306 1.970 . S
O309 C308 1.258 . S
O310 Co307 1.966 . S
O310 C308 1.263 . S
C311 O312 1.235 . S
C311 O338 1.289 . S
O312 C311 1.235 . S
C313 C315 1.400 . S
C313 N316 1.351 . S
C313 C318 1.501 . S
C314 C315 1.387 . S
C314 N317 1.341 . S
C315 C313 1.400 . S
C315 C314 1.387 . S
N316 Co307 2.022 . S
N316 C313 1.351 . S
N316 N317 1.365 . S
N317 C314 1.341 . S
N317 N316 1.365 . S
N317 H337 0.862 . S
C318 C313 1.501 . S
C318 H319 0.961 . S
C318 H320 0.961 . S
C318 H321 0.960 . S
H319 C318 0.961 . S
H320 C318 0.961 . S
H321 C318 0.960 . S
C322 N323 1.342 . S
C322 C326 1.401 . S
C322 C327 1.499 . S
N323 Co306 1.989 . S
N323 C322 1.342 . S
N323 N324 1.388 . S
N324 Co307 1.993 . S
N324 N323 1.388 . S
N324 C325 1.346 . S
C325 N324 1.346 . S
C325 C326 1.396 . S
C325 C335 1.510 . S
C326 C322 1.401 . S
C326 C325 1.396 . S
C327 C322 1.499 . S
C327 H328 0.959 . S
C327 H329 0.960 . S
C327 H330 0.961 . S
H328 C327 0.959 . S
H329 C327 0.960 . S
H330 C327 0.961 . S
O331 Co306 1.967 . S
O331 C339 1.258 . S
O332 Co307 1.941 . S
O332 C339 1.266 . S
H333 C335 0.959 . S
H334 C335 0.961 . S
C335 C325 1.510 . S
C335 H333 0.959 . S
C335 H334 0.961 . S
C335 H336 0.960 . S
H336 C335 0.960 . S
H337 N317 0.862 . S
O338 Co306 1.920 . S
O338 C311 1.289 . S
C339 O331 1.258 . S
C339 O332 1.266 . S
Co340 O343 1.970 . S
Co340 N357 1.989 . S
Co340 O365 1.967 . S
Co340 O372 1.920 . S
Co341 O344 1.966 . S
Co341 N350 2.022 . S
Co341 N358 1.993 . S
Co341 O366 1.941 . S
C342 O343 1.258 . S
C342 O344 1.263 . S
O343 Co340 1.970 . S
O343 C342 1.258 . S
O344 Co341 1.966 . S
O344 C342 1.263 . S
C345 O346 1.235 . S
C345 O372 1.289 . S
O346 C345 1.235 . S
C347 C349 1.400 . S
C347 N350 1.351 . S
C347 C352 1.501 . S
C348 C349 1.387 . S
C348 N351 1.341 . S
C349 C347 1.400 . S
C349 C348 1.387 . S
N350 Co341 2.022 . S
N350 C347 1.351 . S
N350 N351 1.365 . S
N351 C348 1.341 . S
N351 N350 1.365 . S
N351 H371 0.862 . S
C352 C347 1.501 . S
C352 H353 0.961 . S
C352 H354 0.961 . S
C352 H355 0.960 . S
H353 C352 0.961 . S
H354 C352 0.961 . S
H355 C352 0.960 . S
C356 N357 1.342 . S
C356 C360 1.401 . S
C356 C361 1.499 . S
N357 Co340 1.989 . S
N357 C356 1.342 . S
N357 N358 1.388 . S
N358 Co341 1.993 . S
N358 N357 1.388 . S
N358 C359 1.346 . S
C359 N358 1.346 . S
C359 C360 1.396 . S
C359 C369 1.510 . S
C360 C356 1.401 . S
C360 C359 1.396 . S
C361 C356 1.499 . S
C361 H362 0.959 . S
C361 H363 0.960 . S
C361 H364 0.961 . S
H362 C361 0.959 . S
H363 C361 0.960 . S
H364 C361 0.961 . S
O365 Co340 1.967 . S
O365 C373 1.258 . S
O366 Co341 1.941 . S
O366 C373 1.266 . S
H367 C369 0.959 . S
H368 C369 0.961 . S
C369 C359 1.510 . S
C369 H367 0.959 . S
C369 H368 0.961 . S
C369 H370 0.960 . S
H370 C369 0.960 . S
H371 N351 0.862 . S
O372 Co340 1.920 . S
O372 C345 1.289 . S
C373 O365 1.258 . S
C373 O366 1.266 . S
Co374 O377 1.970 . S
Co374 N391 1.989 . S
Co374 O399 1.967 . S
Co374 O406 1.920 . S
Co375 O378 1.966 . S
Co375 N384 2.022 . S
Co375 N392 1.993 . S
Co375 O400 1.941 . S
C376 O377 1.258 . S
C376 O378 1.263 . S
O377 Co374 1.970 . S
O377 C376 1.258 . S
O378 Co375 1.966 . S
O378 C376 1.263 . S
C379 O380 1.235 . S
C379 O406 1.289 . S
O380 C379 1.235 . S
C381 C383 1.400 . S
C381 N384 1.351 . S
C381 C386 1.501 . S
C382 C383 1.387 . S
C382 N385 1.341 . S
C383 C381 1.400 . S
C383 C382 1.387 . S
N384 Co375 2.022 . S
N384 C381 1.351 . S
N384 N385 1.365 . S
N385 C382 1.341 . S
N385 N384 1.365 . S
N385 H405 0.862 . S
C386 C381 1.501 . S
C386 H387 0.961 . S
C386 H388 0.961 . S
C386 H389 0.960 . S
H387 C386 0.961 . S
H388 C386 0.961 . S
H389 C386 0.960 . S
C390 N391 1.342 . S
C390 C394 1.401 . S
C390 C395 1.499 . S
N391 Co374 1.989 . S
N391 C390 1.342 . S
N391 N392 1.388 . S
N392 Co375 1.993 . S
N392 N391 1.388 . S
N392 C393 1.346 . S
C393 N392 1.346 . S
C393 C394 1.396 . S
C393 C403 1.510 . S
C394 C390 1.401 . S
C394 C393 1.396 . S
C395 C390 1.499 . S
C395 H396 0.959 . S
C395 H397 0.960 . S
C395 H398 0.961 . S
H396 C395 0.959 . S
H397 C395 0.960 . S
H398 C395 0.961 . S
O399 Co374 1.967 . S
O399 C407 1.258 . S
O400 Co375 1.941 . S
O400 C407 1.266 . S
H401 C403 0.959 . S
H402 C403 0.961 . S
C403 C393 1.510 . S
C403 H401 0.959 . S
C403 H402 0.961 . S
C403 H404 0.960 . S
H404 C403 0.960 . S
H405 N385 0.862 . S
O406 Co374 1.920 . S
O406 C379 1.289 . S
C407 O399 1.258 . S
C407 O400 1.266 . S
Co408 O411 1.970 . S
Co408 N425 1.989 . S
Co408 O433 1.967 . S
Co408 O440 1.920 . S
Co409 O412 1.966 . S
Co409 N418 2.022 . S
Co409 N426 1.993 . S
Co409 O434 1.941 . S
C410 O411 1.258 . S
C410 O412 1.263 . S
O411 Co408 1.970 . S
O411 C410 1.258 . S
O412 Co409 1.966 . S
O412 C410 1.263 . S
C413 O414 1.235 . S
C413 O440 1.289 . S
O414 C413 1.235 . S
C415 C417 1.400 . S
C415 N418 1.351 . S
C415 C420 1.501 . S
C416 C417 1.387 . S
C416 N419 1.341 . S
C417 C415 1.400 . S
C417 C416 1.387 . S
N418 Co409 2.022 . S
N418 C415 1.351 . S
N418 N419 1.365 . S
N419 C416 1.341 . S
N419 N418 1.365 . S
N419 H439 0.862 . S
C420 C415 1.501 . S
C420 H421 0.961 . S
C420 H422 0.961 . S
C420 H423 0.960 . S
H421 C420 0.961 . S
H422 C420 0.961 . S
H423 C420 0.960 . S
C424 N425 1.342 . S
C424 C428 1.401 . S
C424 C429 1.499 . S
N425 Co408 1.989 . S
N425 C424 1.342 . S
N425 N426 1.388 . S
N426 Co409 1.993 . S
N426 N425 1.388 . S
N426 C427 1.346 . S
C427 N426 1.346 . S
C427 C428 1.396 . S
C427 C437 1.510 . S
C428 C424 1.401 . S
C428 C427 1.396 . S
C429 C424 1.499 . S
C429 H430 0.959 . S
C429 H431 0.960 . S
C429 H432 0.961 . S
H430 C429 0.959 . S
H431 C429 0.960 . S
H432 C429 0.961 . S
O433 Co408 1.967 . S
O433 C441 1.258 . S
O434 Co409 1.941 . S
O434 C441 1.266 . S
H435 C437 0.959 . S
H436 C437 0.961 . S
C437 C427 1.510 . S
C437 H435 0.959 . S
C437 H436 0.961 . S
C437 H438 0.960 . S
H438 C437 0.960 . S
H439 N419 0.862 . S
O440 Co408 1.920 . S
O440 C413 1.289 . S
C441 O433 1.258 . S
C441 O434 1.266 . S
Co442 O445 1.970 . S
Co442 N459 1.989 . S
Co442 O467 1.967 . S
Co442 O474 1.920 . S
Co443 O446 1.966 . S
Co443 N452 2.022 . S
Co443 N460 1.993 . S
Co443 O468 1.941 . S
C444 O445 1.258 . S
C444 O446 1.263 . S
O445 Co442 1.970 . S
O445 C444 1.258 . S
O446 Co443 1.966 . S
O446 C444 1.263 . S
C447 O448 1.235 . S
C447 O474 1.289 . S
O448 C447 1.235 . S
C449 C451 1.400 . S
C449 N452 1.351 . S
C449 C454 1.501 . S
C450 C451 1.387 . S
C450 N453 1.341 . S
C451 C449 1.400 . S
C451 C450 1.387 . S
N452 Co443 2.022 . S
N452 C449 1.351 . S
N452 N453 1.365 . S
N453 C450 1.341 . S
N453 N452 1.365 . S
N453 H473 0.862 . S
C454 C449 1.501 . S
C454 H455 0.961 . S
C454 H456 0.961 . S
C454 H457 0.960 . S
H455 C454 0.961 . S
H456 C454 0.961 . S
H457 C454 0.960 . S
C458 N459 1.342 . S
C458 C462 1.401 . S
C458 C463 1.499 . S
N459 Co442 1.989 . S
N459 C458 1.342 . S
N459 N460 1.388 . S
N460 Co443 1.993 . S
N460 N459 1.388 . S
N460 C461 1.346 . S
C461 N460 1.346 . S
C461 C462 1.396 . S
C461 C471 1.510 . S
C462 C458 1.401 . S
C462 C461 1.396 . S
C463 C458 1.499 . S
C463 H464 0.959 . S
C463 H465 0.960 . S
C463 H466 0.961 . S
H464 C463 0.959 . S
H465 C463 0.960 . S
H466 C463 0.961 . S
O467 Co442 1.967 . S
O467 C475 1.258 . S
O468 Co443 1.941 . S
O468 C475 1.266 . S
H469 C471 0.959 . S
H470 C471 0.961 . S
C471 C461 1.510 . S
C471 H469 0.959 . S
C471 H470 0.961 . S
C471 H472 0.960 . S
H472 C471 0.960 . S
H473 N453 0.862 . S
O474 Co442 1.920 . S
O474 C447 1.289 . S
C475 O467 1.258 . S
C475 O468 1.266 . S
Co476 O479 1.970 . S
Co476 N493 1.989 . S
Co476 O501 1.967 . S
Co476 O508 1.920 . S
Co477 O480 1.966 . S
Co477 N486 2.022 . S
Co477 N494 1.993 . S
Co477 O502 1.941 . S
C478 O479 1.258 . S
C478 O480 1.263 . S
O479 Co476 1.970 . S
O479 C478 1.258 . S
O480 Co477 1.966 . S
O480 C478 1.263 . S
C481 O482 1.235 . S
C481 O508 1.289 . S
O482 C481 1.235 . S
C483 C485 1.400 . S
C483 N486 1.351 . S
C483 C488 1.501 . S
C484 C485 1.387 . S
C484 N487 1.341 . S
C485 C483 1.400 . S
C485 C484 1.387 . S
N486 Co477 2.022 . S
N486 C483 1.351 . S
N486 N487 1.365 . S
N487 C484 1.341 . S
N487 N486 1.365 . S
N487 H507 0.862 . S
C488 C483 1.501 . S
C488 H489 0.961 . S
C488 H490 0.961 . S
C488 H491 0.960 . S
H489 C488 0.961 . S
H490 C488 0.961 . S
H491 C488 0.960 . S
C492 N493 1.342 . S
C492 C496 1.401 . S
C492 C497 1.499 . S
N493 Co476 1.989 . S
N493 C492 1.342 . S
N493 N494 1.388 . S
N494 Co477 1.993 . S
N494 N493 1.388 . S
N494 C495 1.346 . S
C495 N494 1.346 . S
C495 C496 1.396 . S
C495 C505 1.510 . S
C496 C492 1.401 . S
C496 C495 1.396 . S
C497 C492 1.499 . S
C497 H498 0.959 . S
C497 H499 0.960 . S
C497 H500 0.961 . S
H498 C497 0.959 . S
H499 C497 0.960 . S
H500 C497 0.961 . S
O501 Co476 1.967 . S
O501 C509 1.258 . S
O502 Co477 1.941 . S
O502 C509 1.266 . S
H503 C505 0.959 . S
H504 C505 0.961 . S
C505 C495 1.510 . S
C505 H503 0.959 . S
C505 H504 0.961 . S
C505 H506 0.960 . S
H506 C505 0.960 . S
H507 N487 0.862 . S
O508 Co476 1.920 . S
O508 C481 1.289 . S
C509 O501 1.258 . S
C509 O502 1.266 . S
Co510 O513 1.970 . S
Co510 N527 1.989 . S
Co510 O535 1.967 . S
Co510 O542 1.920 . S
Co511 O514 1.966 . S
Co511 N520 2.022 . S
Co511 N528 1.993 . S
Co511 O536 1.941 . S
C512 O513 1.258 . S
C512 O514 1.263 . S
O513 Co510 1.970 . S
O513 C512 1.258 . S
O514 Co511 1.966 . S
O514 C512 1.263 . S
C515 O516 1.235 . S
C515 O542 1.289 . S
O516 C515 1.235 . S
C517 C519 1.400 . S
C517 N520 1.351 . S
C517 C522 1.501 . S
C518 C519 1.387 . S
C518 N521 1.341 . S
C519 C517 1.400 . S
C519 C518 1.387 . S
N520 Co511 2.022 . S
N520 C517 1.351 . S
N520 N521 1.365 . S
N521 C518 1.341 . S
N521 N520 1.365 . S
N521 H541 0.862 . S
C522 C517 1.501 . S
C522 H523 0.961 . S
C522 H524 0.961 . S
C522 H525 0.960 . S
H523 C522 0.961 . S
H524 C522 0.961 . S
H525 C522 0.960 . S
C526 N527 1.342 . S
C526 C530 1.401 . S
C526 C531 1.499 . S
N527 Co510 1.989 . S
N527 C526 1.342 . S
N527 N528 1.388 . S
N528 Co511 1.993 . S
N528 N527 1.388 . S
N528 C529 1.346 . S
C529 N528 1.346 . S
C529 C530 1.396 . S
C529 C539 1.510 . S
C530 C526 1.401 . S
C530 C529 1.396 . S
C531 C526 1.499 . S
C531 H532 0.959 . S
C531 H533 0.960 . S
C531 H534 0.961 . S
H532 C531 0.959 . S
H533 C531 0.960 . S
H534 C531 0.961 . S
O535 Co510 1.967 . S
O535 C543 1.258 . S
O536 Co511 1.941 . S
O536 C543 1.266 . S
H537 C539 0.959 . S
H538 C539 0.961 . S
C539 C529 1.510 . S
C539 H537 0.959 . S
C539 H538 0.961 . S
C539 H540 0.960 . S
H540 C539 0.960 . S
H541 N521 0.862 . S
O542 Co510 1.920 . S
O542 C515 1.289 . S
C543 O535 1.258 . S
C543 O536 1.266 . S
H544 C550 0.930 . S
H545 C554 0.930 . S
H546 C559 0.929 . S
H547 C557 0.929 . S
H548 C552 0.929 . S
H549 C558 0.929 . S
C550 H544 0.930 . S
C550 C551 1.367 . S
C550 C558 1.378 . S
C551 C550 1.367 . S
C551 C559 1.433 . S
C552 H548 0.929 . S
C552 C554 1.378 . S
C552 C556 1.350 . S
C553 C556 1.463 . S
C553 C558 1.350 . S
C553 N561 1.427 . S
C554 H545 0.930 . S
C554 C552 1.378 . S
C554 C555 1.367 . S
C555 C554 1.367 . S
C555 C557 1.433 . S
C556 C552 1.350 . S
C556 C553 1.463 . S
C556 N560 1.427 . S
C557 H547 0.929 . S
C557 C555 1.433 . S
C557 N560 1.384 . S
C558 H549 0.929 . S
C558 C550 1.378 . S
C558 C553 1.350 . S
C559 H546 0.929 . S
C559 C551 1.433 . S
C559 N561 1.384 . S
N560 C556 1.427 . S
N560 C557 1.384 . S
N561 C553 1.427 . S
N561 C559 1.384 . S
H562 C568 0.930 . S
H563 C572 0.930 . S
H564 C577 0.929 . S
H565 C575 0.929 . S
H566 C570 0.929 . S
H567 C576 0.929 . S
C568 H562 0.930 . S
C568 C569 1.367 . S
C568 C576 1.378 . S
C569 C568 1.367 . S
C569 C577 1.433 . S
C570 H566 0.929 . S
C570 C572 1.378 . S
C570 C574 1.350 . S
C571 C574 1.463 . S
C571 C576 1.350 . S
C571 N579 1.427 . S
C572 H563 0.930 . S
C572 C570 1.378 . S
C572 C573 1.367 . S
C573 C572 1.367 . S
C573 C575 1.433 . S
C574 C570 1.350 . S
C574 C571 1.463 . S
C574 N578 1.427 . S
C575 H565 0.929 . S
C575 C573 1.433 . S
C575 N578 1.384 . S
C576 H567 0.929 . S
C576 C568 1.378 . S
C576 C571 1.350 . S
C577 H564 0.929 . S
C577 C569 1.433 . S
C577 N579 1.384 . S
N578 C574 1.427 . S
N578 C575 1.384 . S
N579 C571 1.427 . S
N579 C577 1.384 . S
H580 C586 0.930 . S
H581 C590 0.930 . S
H582 C595 0.929 . S
H583 C593 0.929 . S
H584 C588 0.929 . S
H585 C594 0.929 . S
C586 H580 0.930 . S
C586 C587 1.367 . S
C586 C594 1.378 . S
C587 C586 1.367 . S
C587 C595 1.433 . S
C588 H584 0.929 . S
C588 C590 1.378 . S
C588 C592 1.350 . S
C589 C592 1.463 . S
C589 C594 1.350 . S
C589 N597 1.427 . S
C590 H581 0.930 . S
C590 C588 1.378 . S
C590 C591 1.367 . S
C591 C590 1.367 . S
C591 C593 1.433 . S
C592 C588 1.350 . S
C592 C589 1.463 . S
C592 N596 1.427 . S
C593 H583 0.929 . S
C593 C591 1.433 . S
C593 N596 1.384 . S
C594 H585 0.929 . S
C594 C586 1.378 . S
C594 C589 1.350 . S
C595 H582 0.929 . S
C595 C587 1.433 . S
C595 N597 1.384 . S
N596 C592 1.427 . S
N596 C593 1.384 . S
N597 C589 1.427 . S
N597 C595 1.384 . S
H598 C604 0.930 . S
H599 C608 0.930 . S
H600 C613 0.929 . S
H601 C611 0.929 . S
H602 C606 0.929 . S
H603 C612 0.929 . S
C604 H598 0.930 . S
C604 C605 1.367 . S
C604 C612 1.378 . S
C605 C604 1.367 . S
C605 C613 1.433 . S
C606 H602 0.929 . S
C606 C608 1.378 . S
C606 C610 1.350 . S
C607 C610 1.463 . S
C607 C612 1.350 . S
C607 N615 1.427 . S
C608 H599 0.930 . S
C608 C606 1.378 . S
C608 C609 1.367 . S
C609 C608 1.367 . S
C609 C611 1.433 . S
C610 C606 1.350 . S
C610 C607 1.463 . S
C610 N614 1.427 . S
C611 H601 0.929 . S
C611 C609 1.433 . S
C611 N614 1.384 . S
C612 H603 0.929 . S
C612 C604 1.378 . S
C612 C607 1.350 . S
C613 H600 0.929 . S
C613 C605 1.433 . S
C613 N615 1.384 . S
N614 C610 1.427 . S
N614 C611 1.384 . S
N615 C607 1.427 . S
N615 C613 1.384 . S
H616 C622 0.930 . S
H617 C626 0.930 . S
H618 C631 0.929 . S
H619 C629 0.929 . S
H620 C624 0.929 . S
H621 C630 0.929 . S
C622 H616 0.930 . S
C622 C623 1.367 . S
C622 C630 1.378 . S
C623 C622 1.367 . S
C623 C631 1.433 . S
C624 H620 0.929 . S
C624 C626 1.378 . S
C624 C628 1.350 . S
C625 C628 1.463 . S
C625 C630 1.350 . S
C625 N633 1.427 . S
C626 H617 0.930 . S
C626 C624 1.378 . S
C626 C627 1.367 . S
C627 C626 1.367 . S
C627 C629 1.433 . S
C628 C624 1.350 . S
C628 C625 1.463 . S
C628 N632 1.427 . S
C629 H619 0.929 . S
C629 C627 1.433 . S
C629 N632 1.384 . S
C630 H621 0.929 . S
C630 C622 1.378 . S
C630 C625 1.350 . S
C631 H618 0.929 . S
C631 C623 1.433 . S
C631 N633 1.384 . S
N632 C628 1.427 . S
N632 C629 1.384 . S
N633 C625 1.427 . S
N633 C631 1.384 . S
H634 C640 0.930 . S
H635 C644 0.930 . S
H636 C649 0.929 . S
H637 C647 0.929 . S
H638 C642 0.929 . S
H639 C648 0.929 . S
C640 H634 0.930 . S
C640 C641 1.367 . S
C640 C648 1.378 . S
C641 C640 1.367 . S
C641 C649 1.433 . S
C642 H638 0.929 . S
C642 C644 1.378 . S
C642 C646 1.350 . S
C643 C646 1.463 . S
C643 C648 1.350 . S
C643 N651 1.427 . S
C644 H635 0.930 . S
C644 C642 1.378 . S
C644 C645 1.367 . S
C645 C644 1.367 . S
C645 C647 1.433 . S
C646 C642 1.350 . S
C646 C643 1.463 . S
C646 N650 1.427 . S
C647 H637 0.929 . S
C647 C645 1.433 . S
C647 N650 1.384 . S
C648 H639 0.929 . S
C648 C640 1.378 . S
C648 C643 1.350 . S
C649 H636 0.929 . S
C649 C641 1.433 . S
C649 N651 1.384 . S
N650 C646 1.427 . S
N650 C647 1.384 . S
N651 C643 1.427 . S
N651 C649 1.384 . S
H652 C658 0.930 . S
H653 C662 0.930 . S
H654 C667 0.929 . S
H655 C665 0.929 . S
H656 C660 0.929 . S
H657 C666 0.929 . S
C658 H652 0.930 . S
C658 C659 1.367 . S
C658 C666 1.378 . S
C659 C658 1.367 . S
C659 C667 1.433 . S
C660 H656 0.929 . S
C660 C662 1.378 . S
C660 C664 1.350 . S
C661 C664 1.463 . S
C661 C666 1.350 . S
C661 N669 1.427 . S
C662 H653 0.930 . S
C662 C660 1.378 . S
C662 C663 1.367 . S
C663 C662 1.367 . S
C663 C665 1.433 . S
C664 C660 1.350 . S
C664 C661 1.463 . S
C664 N668 1.427 . S
C665 H655 0.929 . S
C665 C663 1.433 . S
C665 N668 1.384 . S
C666 H657 0.929 . S
C666 C658 1.378 . S
C666 C661 1.350 . S
C667 H654 0.929 . S
C667 C659 1.433 . S
C667 N669 1.384 . S
N668 C664 1.427 . S
N668 C665 1.384 . S
N669 C661 1.427 . S
N669 C667 1.384 . S
H670 C676 0.930 . S
H671 C680 0.930 . S
H672 C685 0.929 . S
H673 C683 0.929 . S
H674 C678 0.929 . S
H675 C684 0.929 . S
C676 H670 0.930 . S
C676 C677 1.367 . S
C676 C684 1.378 . S
C677 C676 1.367 . S
C677 C685 1.433 . S
C678 H674 0.929 . S
C678 C680 1.378 . S
C678 C682 1.350 . S
C679 C682 1.463 . S
C679 C684 1.350 . S
C679 N687 1.427 . S
C680 H671 0.930 . S
C680 C678 1.378 . S
C680 C681 1.367 . S
C681 C680 1.367 . S
C681 C683 1.433 . S
C682 C678 1.350 . S
C682 C679 1.463 . S
C682 N686 1.427 . S
C683 H673 0.929 . S
C683 C681 1.433 . S
C683 N686 1.384 . S
C684 H675 0.929 . S
C684 C676 1.378 . S
C684 C679 1.350 . S
C685 H672 0.929 . S
C685 C677 1.433 . S
C685 N687 1.384 . S
N686 C682 1.427 . S
N686 C683 1.384 . S
N687 C679 1.427 . S
N687 C685 1.384 . S
H688 C694 0.930 . S
H689 C698 0.930 . S
H690 C703 0.929 . S
H691 C701 0.929 . S
H692 C696 0.929 1_455 S
H693 C702 0.929 1_655 S
C694 H688 0.930 . S
C694 C695 1.367 . S
C694 C702 1.378 . S
C695 C694 1.367 . S
C695 C703 1.433 . S
C696 H692 0.929 1_655 S
C696 C698 1.378 . S
C696 C700 1.350 . S
C697 C700 1.463 1_445 S
C697 C702 1.350 . S
C697 N705 1.427 . S
C698 H689 0.930 . S
C698 C696 1.378 . S
C698 C699 1.367 . S
C699 C698 1.367 . S
C699 C701 1.433 . S
C700 C696 1.350 . S
C700 C697 1.463 1_665 S
C700 N704 1.427 . S
C701 H691 0.929 . S
C701 C699 1.433 . S
C701 N704 1.384 . S
C702 H693 0.929 1_455 S
C702 C694 1.378 . S
C702 C697 1.350 . S
C703 H690 0.929 . S
C703 C695 1.433 . S
C703 N705 1.384 . S
N704 C700 1.427 . S
N704 C701 1.384 . S
N705 C697 1.427 . S
N705 C703 1.384 . S
H706 C712 0.930 . S
H707 C716 0.930 . S
H708 C721 0.929 . S
H709 C719 0.929 . S
H710 C714 0.927 . S
H711 C720 0.927 . S
C712 H706 0.930 . S
C712 C713 1.367 . S
C712 C720 1.378 . S
C713 C712 1.367 . S
C713 C721 1.433 . S
C714 H710 0.927 . S
C714 C716 1.378 . S
C714 C718 1.350 . S
C715 C718 1.463 1_645 S
C715 C720 1.350 . S
C715 N723 1.427 . S
C716 H707 0.930 . S
C716 C714 1.378 . S
C716 C717 1.367 . S
C717 C716 1.367 . S
C717 C719 1.433 . S
C718 C714 1.350 . S
C718 C715 1.463 1_465 S
C718 N722 1.427 . S
C719 H709 0.929 . S
C719 C717 1.433 . S
C719 N722 1.384 . S
C720 H711 0.927 . S
C720 C712 1.378 . S
C720 C715 1.350 . S
C721 H708 0.929 . S
C721 C713 1.433 . S
C721 N723 1.384 . S
N722 C718 1.427 . S
N722 C719 1.384 . S
N723 C715 1.427 . S
N723 C721 1.384 . S
H724 C730 0.930 . S
H725 C734 0.930 . S
H726 C739 0.929 . S
H727 C737 0.929 . S
H728 C732 0.929 . S
H729 C738 0.929 . S
C730 H724 0.930 . S
C730 C731 1.367 . S
C730 C738 1.378 . S
C731 C730 1.367 . S
C731 C739 1.433 . S
C732 H728 0.929 . S
C732 C734 1.378 . S
C732 C736 1.350 . S
C733 C736 1.463 1_645 S
C733 C738 1.350 . S
C733 N741 1.427 . S
C734 H725 0.930 . S
C734 C732 1.378 . S
C734 C735 1.367 . S
C735 C734 1.367 . S
C735 C737 1.433 . S
C736 C732 1.350 . S
C736 C733 1.463 1_465 S
C736 N740 1.427 . S
C737 H727 0.929 . S
C737 C735 1.433 . S
C737 N740 1.384 . S
C738 H729 0.929 . S
C738 C730 1.378 . S
C738 C733 1.350 . S
C739 H726 0.929 . S
C739 C731 1.433 . S
C739 N741 1.384 . S
N740 C736 1.427 . S
N740 C737 1.384 . S
N741 C733 1.427 . S
N741 C739 1.384 . S
H742 C748 0.930 . S
H743 C752 0.930 . S
H744 C757 0.929 . S
H745 C755 0.929 . S
H746 C750 0.929 1_545 S
H747 C756 0.929 1_565 S
C748 H742 0.930 . S
C748 C749 1.367 . S
C748 C756 1.378 . S
C749 C748 1.367 . S
C749 C757 1.433 . S
C750 H746 0.929 1_565 S
C750 C752 1.378 . S
C750 C754 1.350 . S
C751 C754 1.463 1_445 S
C751 C756 1.350 . S
C751 N759 1.427 . S
C752 H743 0.930 . S
C752 C750 1.378 . S
C752 C753 1.367 . S
C753 C752 1.367 . S
C753 C755 1.433 . S
C754 C750 1.350 . S
C754 C751 1.463 1_665 S
C754 N758 1.427 . S
C755 H745 0.929 . S
C755 C753 1.433 . S
C755 N758 1.384 . S
C756 H747 0.929 1_545 S
C756 C748 1.378 . S
C756 C751 1.350 . S
C757 H744 0.929 . S
C757 C749 1.433 . S
C757 N759 1.384 . S
N758 C754 1.427 . S
N758 C755 1.384 . S
N759 C751 1.427 . S
N759 C757 1.384 . S
H760 C766 0.930 . S
H761 C770 0.930 . S
H762 C775 0.929 . S
H763 C773 0.929 . S
H764 C768 0.929 . S
H765 C774 0.929 . S
C766 H760 0.930 . S
C766 C767 1.367 . S
C766 C774 1.378 . S
C767 C766 1.367 . S
C767 C775 1.433 . S
C768 H764 0.929 . S
C768 C770 1.378 . S
C768 C772 1.350 . S
C769 C772 1.463 . S
C769 C774 1.350 . S
C769 N777 1.427 . S
C770 H761 0.930 . S
C770 C768 1.378 . S
C770 C771 1.367 . S
C771 C770 1.367 . S
C771 C773 1.433 . S
C772 C768 1.350 . S
C772 C769 1.463 . S
C772 N776 1.427 . S
C773 H763 0.929 . S
C773 C771 1.433 . S
C773 N776 1.384 . S
C774 H765 0.929 . S
C774 C766 1.378 . S
C774 C769 1.350 . S
C775 H762 0.929 . S
C775 C767 1.433 . S
C775 N777 1.384 . S
N776 C772 1.427 . S
N776 C773 1.384 . S
N777 C769 1.427 . S
N777 C775 1.384 . S
H778 C784 0.930 . S
H779 C788 0.930 . S
H780 C793 0.929 . S
H781 C791 0.929 . S
H782 C786 0.929 . S
H783 C792 0.929 . S
C784 H778 0.930 . S
C784 C785 1.367 . S
C784 C792 1.378 . S
C785 C784 1.367 . S
C785 C793 1.433 . S
C786 H782 0.929 . S
C786 C788 1.378 . S
C786 C790 1.350 . S
C787 C790 1.463 . S
C787 C792 1.350 . S
C787 N795 1.427 . S
C788 H779 0.930 . S
C788 C786 1.378 . S
C788 C789 1.367 . S
C789 C788 1.367 . S
C789 C791 1.433 . S
C790 C786 1.350 . S
C790 C787 1.463 . S
C790 N794 1.427 . S
C791 H781 0.929 . S
C791 C789 1.433 . S
C791 N794 1.384 . S
C792 H783 0.929 . S
C792 C784 1.378 . S
C792 C787 1.350 . S
C793 H780 0.929 . S
C793 C785 1.433 . S
C793 N795 1.384 . S
N794 C790 1.427 . S
N794 C791 1.384 . S
N795 C787 1.427 . S
N795 C793 1.384 . S
H796 C802 0.930 . S
H797 C806 0.930 . S
H798 C811 0.929 . S
H799 C809 0.929 . S
H800 C804 0.929 . S
H801 C810 0.929 . S
C802 H796 0.930 . S
C802 C803 1.367 . S
C802 C810 1.378 . S
C803 C802 1.367 . S
C803 C811 1.433 . S
C804 H800 0.929 . S
C804 C806 1.378 . S
C804 C808 1.350 . S
C805 C808 1.463 . S
C805 C810 1.350 . S
C805 N813 1.427 . S
C806 H797 0.930 . S
C806 C804 1.378 . S
C806 C807 1.367 . S
C807 C806 1.367 . S
C807 C809 1.433 . S
C808 C804 1.350 . S
C808 C805 1.463 . S
C808 N812 1.427 . S
C809 H799 0.929 . S
C809 C807 1.433 . S
C809 N812 1.384 . S
C810 H801 0.929 . S
C810 C802 1.378 . S
C810 C805 1.350 . S
C811 H798 0.929 . S
C811 C803 1.433 . S
C811 N813 1.384 . S
N812 C808 1.427 . S
N812 C809 1.384 . S
N813 C805 1.427 . S
N813 C811 1.384 . S
H814 C820 0.930 . S
H815 C824 0.930 . S
H816 C829 0.929 . S
H817 C827 0.929 . S
H818 C822 0.929 . S
H819 C828 0.929 . S
C820 H814 0.930 . S
C820 C821 1.367 . S
C820 C828 1.378 . S
C821 C820 1.367 . S
C821 C829 1.433 . S
C822 H818 0.929 . S
C822 C824 1.378 . S
C822 C826 1.350 . S
C823 C826 1.463 . S
C823 C828 1.350 . S
C823 N831 1.427 . S
C824 H815 0.930 . S
C824 C822 1.378 . S
C824 C825 1.367 . S
C825 C824 1.367 . S
C825 C827 1.433 . S
C826 C822 1.350 . S
C826 C823 1.463 . S
C826 N830 1.427 . S
C827 H817 0.929 . S
C827 C825 1.433 . S
C827 N830 1.384 . S
C828 H819 0.929 . S
C828 C820 1.378 . S
C828 C823 1.350 . S
C829 H816 0.929 . S
C829 C821 1.433 . S
C829 N831 1.384 . S
N830 C826 1.427 . S
N830 C827 1.384 . S
N831 C823 1.427 . S
N831 C829 1.384 . S
H832 C838 0.930 . S
H833 C842 0.930 . S
H834 C847 0.929 . S
H835 C845 0.929 . S
H836 C840 0.929 . S
H837 C846 0.929 . S
C838 H832 0.930 . S
C838 C839 1.367 . S
C838 C846 1.378 . S
C839 C838 1.367 . S
C839 C847 1.433 . S
C840 H836 0.929 . S
C840 C842 1.378 . S
C840 C844 1.350 . S
C841 C844 1.463 1_556 S
C841 C846 1.350 . S
C841 N849 1.427 . S
C842 H833 0.930 . S
C842 C840 1.378 . S
C842 C843 1.367 . S
C843 C842 1.367 . S
C843 C845 1.433 . S
C844 C840 1.350 . S
C844 C841 1.463 1_554 S
C844 N848 1.427 . S
C845 H835 0.929 . S
C845 C843 1.433 . S
C845 N848 1.384 . S
C846 H837 0.929 . S
C846 C838 1.378 . S
C846 C841 1.350 . S
C847 H834 0.929 . S
C847 C839 1.433 . S
C847 N849 1.384 . S
N848 C844 1.427 . S
N848 C845 1.384 . S
N849 C841 1.427 . S
N849 C847 1.384 . S
H850 C856 0.930 . S
H851 C860 0.930 . S
H852 C865 0.929 . S
H853 C863 0.929 . S
H854 C858 0.929 . S
H855 C864 0.929 . S
C856 H850 0.930 . S
C856 C857 1.367 . S
C856 C864 1.378 . S
C857 C856 1.367 . S
C857 C865 1.433 . S
C858 H854 0.929 . S
C858 C860 1.378 . S
C858 C862 1.350 . S
C859 C862 1.463 1_554 S
C859 C864 1.350 . S
C859 N867 1.427 . S
C860 H851 0.930 . S
C860 C858 1.378 . S
C860 C861 1.367 . S
C861 C860 1.367 . S
C861 C863 1.433 . S
C862 C858 1.350 . S
C862 C859 1.463 1_556 S
C862 N866 1.427 . S
C863 H853 0.929 . S
C863 C861 1.433 . S
C863 N866 1.384 . S
C864 H855 0.929 . S
C864 C856 1.378 . S
C864 C859 1.350 . S
C865 H852 0.929 . S
C865 C857 1.433 . S
C865 N867 1.384 . S
N866 C862 1.427 . S
N866 C863 1.384 . S
N867 C859 1.427 . S
N867 C865 1.384 . S
H868 C874 0.930 . S
H869 C878 0.930 . S
H870 C883 0.929 . S
H871 C881 0.929 . S
H872 C876 0.929 . S
H873 C882 0.929 . S
C874 H868 0.930 . S
C874 C875 1.367 . S
C874 C882 1.378 . S
C875 C874 1.367 . S
C875 C883 1.433 . S
C876 H872 0.929 . S
C876 C878 1.378 . S
C876 C880 1.350 . S
C877 C880 1.463 1_556 S
C877 C882 1.350 . S
C877 N885 1.427 . S
C878 H869 0.930 . S
C878 C876 1.378 . S
C878 C879 1.367 . S
C879 C878 1.367 . S
C879 C881 1.433 . S
C880 C876 1.350 . S
C880 C877 1.463 1_554 S
C880 N884 1.427 . S
C881 H871 0.929 . S
C881 C879 1.433 . S
C881 N884 1.384 . S
C882 H873 0.929 . S
C882 C874 1.378 . S
C882 C877 1.350 . S
C883 H870 0.929 . S
C883 C875 1.433 . S
C883 N885 1.384 . S
N884 C880 1.427 . S
N884 C881 1.384 . S
N885 C877 1.427 . S
N885 C883 1.384 . S
H886 C892 0.930 . S
H887 C896 0.930 . S
H888 C901 0.929 . S
H889 C899 0.929 . S
H890 C894 0.929 . S
H891 C900 0.929 . S
C892 H886 0.930 . S
C892 C893 1.367 . S
C892 C900 1.378 . S
C893 C892 1.367 . S
C893 C901 1.433 . S
C894 H890 0.929 . S
C894 C896 1.378 . S
C894 C898 1.350 . S
C895 C898 1.463 1_556 S
C895 C900 1.350 . S
C895 N903 1.427 . S
C896 H887 0.930 . S
C896 C894 1.378 . S
C896 C897 1.367 . S
C897 C896 1.367 . S
C897 C899 1.433 . S
C898 C894 1.350 . S
C898 C895 1.463 1_554 S
C898 N902 1.427 . S
C899 H889 0.929 . S
C899 C897 1.433 . S
C899 N902 1.384 . S
C900 H891 0.929 . S
C900 C892 1.378 . S
C900 C895 1.350 . S
C901 H888 0.929 . S
C901 C893 1.433 . S
C901 N903 1.384 . S
N902 C898 1.427 . S
N902 C899 1.384 . S
N903 C895 1.427 . S
N903 C901 1.384 . S
H904 C910 0.930 . S
H905 C914 0.930 . S
H906 C919 0.929 . S
H907 C917 0.929 . S
H908 C912 0.929 . S
H909 C918 0.929 . S
C910 H904 0.930 . S
C910 C911 1.367 . S
C910 C918 1.378 . S
C911 C910 1.367 . S
C911 C919 1.433 . S
C912 H908 0.929 . S
C912 C914 1.378 . S
C912 C916 1.350 . S
C913 C916 1.463 . S
C913 C918 1.350 . S
C913 N921 1.427 . S
C914 H905 0.930 . S
C914 C912 1.378 . S
C914 C915 1.367 . S
C915 C914 1.367 . S
C915 C917 1.433 . S
C916 C912 1.350 . S
C916 C913 1.463 . S
C916 N920 1.427 . S
C917 H907 0.929 . S
C917 C915 1.433 . S
C917 N920 1.384 . S
C918 H909 0.929 . S
C918 C910 1.378 . S
C918 C913 1.350 . S
C919 H906 0.929 . S
C919 C911 1.433 . S
C919 N921 1.384 . S
N920 C916 1.427 . S
N920 C917 1.384 . S
N921 C913 1.427 . S
N921 C919 1.384 . S
H922 C928 0.930 . S
H923 C932 0.930 . S
H924 C937 0.929 . S
H925 C935 0.929 . S
H926 C930 0.929 . S
H927 C936 0.929 . S
C928 H922 0.930 . S
C928 C929 1.367 . S
C928 C936 1.378 . S
C929 C928 1.367 . S
C929 C937 1.433 . S
C930 H926 0.929 . S
C930 C932 1.378 . S
C930 C934 1.350 . S
C931 C934 1.463 . S
C931 C936 1.350 . S
C931 N939 1.427 . S
C932 H923 0.930 . S
C932 C930 1.378 . S
C932 C933 1.367 . S
C933 C932 1.367 . S
C933 C935 1.433 . S
C934 C930 1.350 . S
C934 C931 1.463 . S
C934 N938 1.427 . S
C935 H925 0.929 . S
C935 C933 1.433 . S
C935 N938 1.384 . S
C936 H927 0.929 . S
C936 C928 1.378 . S
C936 C931 1.350 . S
C937 H924 0.929 . S
C937 C929 1.433 . S
C937 N939 1.384 . S
N938 C934 1.427 . S
N938 C935 1.384 . S
N939 C931 1.427 . S
N939 C937 1.384 . S
H940 C946 0.930 . S
H941 C950 0.930 . S
H942 C955 0.929 . S
H943 C953 0.929 . S
H944 C948 0.929 . S
H945 C954 0.929 . S
C946 H940 0.930 . S
C946 C947 1.367 . S
C946 C954 1.378 . S
C947 C946 1.367 . S
C947 C955 1.433 . S
C948 H944 0.929 . S
C948 C950 1.378 . S
C948 C952 1.350 . S
C949 C952 1.463 . S
C949 C954 1.350 . S
C949 N957 1.427 . S
C950 H941 0.930 . S
C950 C948 1.378 . S
C950 C951 1.367 . S
C951 C950 1.367 . S
C951 C953 1.433 . S
C952 C948 1.350 . S
C952 C949 1.463 . S
C952 N956 1.427 . S
C953 H943 0.929 . S
C953 C951 1.433 . S
C953 N956 1.384 . S
C954 H945 0.929 . S
C954 C946 1.378 . S
C954 C949 1.350 . S
C955 H942 0.929 . S
C955 C947 1.433 . S
C955 N957 1.384 . S
N956 C952 1.427 . S
N956 C953 1.384 . S
N957 C949 1.427 . S
N957 C955 1.384 . S
H958 C964 0.930 . S
H959 C968 0.930 . S
H960 C973 0.929 . S
H961 C971 0.929 . S
H962 C966 0.929 . S
H963 C972 0.929 . S
C964 H958 0.930 . S
C964 C965 1.367 . S
C964 C972 1.378 . S
C965 C964 1.367 . S
C965 C973 1.433 . S
C966 H962 0.929 . S
C966 C968 1.378 . S
C966 C970 1.350 . S
C967 C970 1.463 . S
C967 C972 1.350 . S
C967 N975 1.427 . S
C968 H959 0.930 . S
C968 C966 1.378 . S
C968 C969 1.367 . S
C969 C968 1.367 . S
C969 C971 1.433 . S
C970 C966 1.350 . S
C970 C967 1.463 . S
C970 N974 1.427 . S
C971 H961 0.929 . S
C971 C969 1.433 . S
C971 N974 1.384 . S
C972 H963 0.929 . S
C972 C964 1.378 . S
C972 C967 1.350 . S
C973 H960 0.929 . S
C973 C965 1.433 . S
C973 N975 1.384 . S
N974 C970 1.427 . S
N974 C971 1.384 . S
N975 C967 1.427 . S
N975 C973 1.384 . S
H976 C982 0.930 . S
H977 C986 0.930 . S
H978 C991 0.929 . S
H979 C989 0.929 . S
H980 C984 0.929 . S
H981 C990 0.929 . S
C982 H976 0.930 . S
C982 C983 1.367 . S
C982 C990 1.378 . S
C983 C982 1.367 . S
C983 C991 1.433 . S
C984 H980 0.929 . S
C984 C986 1.378 . S
C984 C988 1.350 . S
C985 C988 1.463 . S
C985 C990 1.350 . S
C985 N993 1.427 . S
C986 H977 0.930 . S
C986 C984 1.378 . S
C986 C987 1.367 . S
C987 C986 1.367 . S
C987 C989 1.433 . S
C988 C984 1.350 . S
C988 C985 1.463 . S
C988 N992 1.427 . S
C989 H979 0.929 . S
C989 C987 1.433 . S
C989 N992 1.384 . S
C990 H981 0.929 . S
C990 C982 1.378 . S
C990 C985 1.350 . S
C991 H978 0.929 . S
C991 C983 1.433 . S
C991 N993 1.384 . S
N992 C988 1.427 . S
N992 C989 1.384 . S
N993 C985 1.427 . S
N993 C991 1.384 . S
H994 C1000 0.930 . S
H995 C1004 0.930 . S
H996 C1009 0.929 . S
H997 C1007 0.929 . S
H998 C1002 0.929 . S
H999 C1008 0.929 . S
C1000 H994 0.930 . S
C1000 C1001 1.367 . S
C1000 C1008 1.378 . S
C1001 C1000 1.367 . S
C1001 C1009 1.433 . S
C1002 H998 0.929 . S
C1002 C1004 1.378 . S
C1002 C1006 1.350 . S
C1003 C1006 1.463 . S
C1003 C1008 1.350 . S
C1003 N1011 1.427 . S
C1004 H995 0.930 . S
C1004 C1002 1.378 . S
C1004 C1005 1.367 . S
C1005 C1004 1.367 . S
C1005 C1007 1.433 . S
C1006 C1002 1.350 . S
C1006 C1003 1.463 . S
C1006 N1010 1.427 . S
C1007 H997 0.929 . S
C1007 C1005 1.433 . S
C1007 N1010 1.384 . S
C1008 H999 0.929 . S
C1008 C1000 1.378 . S
C1008 C1003 1.350 . S
C1009 H996 0.929 . S
C1009 C1001 1.433 . S
C1009 N1011 1.384 . S
N1010 C1006 1.427 . S
N1010 C1007 1.384 . S
N1011 C1003 1.427 . S
N1011 C1009 1.384 . S
H1012 C1018 0.930 . S
H1013 C1022 0.930 . S
H1014 C1027 0.929 . S
H1015 C1025 0.929 . S
H1016 C1020 0.929 . S
H1017 C1026 0.929 . S
C1018 H1012 0.930 . S
C1018 C1019 1.367 . S
C1018 C1026 1.378 . S
C1019 C1018 1.367 . S
C1019 C1027 1.433 . S
C1020 H1016 0.929 . S
C1020 C1022 1.378 . S
C1020 C1024 1.350 . S
C1021 C1024 1.463 . S
C1021 C1026 1.350 . S
C1021 N1029 1.427 . S
C1022 H1013 0.930 . S
C1022 C1020 1.378 . S
C1022 C1023 1.367 . S
C1023 C1022 1.367 . S
C1023 C1025 1.433 . S
C1024 C1020 1.350 . S
C1024 C1021 1.463 . S
C1024 N1028 1.427 . S
C1025 H1015 0.929 . S
C1025 C1023 1.433 . S
C1025 N1028 1.384 . S
C1026 H1017 0.929 . S
C1026 C1018 1.378 . S
C1026 C1021 1.350 . S
C1027 H1014 0.929 . S
C1027 C1019 1.433 . S
C1027 N1029 1.384 . S
N1028 C1024 1.427 . S
N1028 C1025 1.384 . S
N1029 C1021 1.427 . S
N1029 C1027 1.384 . S
H1030 C1036 0.930 . S
H1031 C1040 0.930 . S
H1032 C1045 0.929 . S
H1033 C1043 0.929 . S
H1034 C1038 0.929 . S
H1035 C1044 0.929 . S
C1036 H1030 0.930 . S
C1036 C1037 1.367 . S
C1036 C1044 1.378 . S
C1037 C1036 1.367 . S
C1037 C1045 1.433 . S
C1038 H1034 0.929 . S
C1038 C1040 1.378 . S
C1038 C1042 1.350 . S
C1039 C1042 1.463 . S
C1039 C1044 1.350 . S
C1039 N1047 1.427 . S
C1040 H1031 0.930 . S
C1040 C1038 1.378 . S
C1040 C1041 1.367 . S
C1041 C1040 1.367 . S
C1041 C1043 1.433 . S
C1042 C1038 1.350 . S
C1042 C1039 1.463 . S
C1042 N1046 1.427 . S
C1043 H1033 0.929 . S
C1043 C1041 1.433 . S
C1043 N1046 1.384 . S
C1044 H1035 0.929 . S
C1044 C1036 1.378 . S
C1044 C1039 1.350 . S
C1045 H1032 0.929 . S
C1045 C1037 1.433 . S
C1045 N1047 1.384 . S
N1046 C1042 1.427 . S
N1046 C1043 1.384 . S
N1047 C1039 1.427 . S
N1047 C1045 1.384 . S
H1048 C1054 0.930 . S
H1049 C1058 0.930 . S
H1050 C1063 0.929 . S
H1051 C1061 0.929 . S
H1052 C1056 0.929 . S
H1053 C1062 0.929 . S
C1054 H1048 0.930 . S
C1054 C1055 1.367 . S
C1054 C1062 1.378 . S
C1055 C1054 1.367 . S
C1055 C1063 1.433 . S
C1056 H1052 0.929 . S
C1056 C1058 1.378 . S
C1056 C1060 1.350 . S
C1057 C1060 1.463 . S
C1057 C1062 1.350 . S
C1057 N1065 1.427 . S
C1058 H1049 0.930 . S
C1058 C1056 1.378 . S
C1058 C1059 1.367 . S
C1059 C1058 1.367 . S
C1059 C1061 1.433 . S
C1060 C1056 1.350 . S
C1060 C1057 1.463 . S
C1060 N1064 1.427 . S
C1061 H1051 0.929 . S
C1061 C1059 1.433 . S
C1061 N1064 1.384 . S
C1062 H1053 0.929 . S
C1062 C1054 1.378 . S
C1062 C1057 1.350 . S
C1063 H1050 0.929 . S
C1063 C1055 1.433 . S
C1063 N1065 1.384 . S
N1064 C1060 1.427 . S
N1064 C1061 1.384 . S
N1065 C1057 1.427 . S
N1065 C1063 1.384 . S
H1066 C1072 0.930 . S
H1067 C1076 0.930 . S
H1068 C1081 0.929 . S
H1069 C1079 0.929 . S
H1070 C1074 0.929 . S
H1071 C1080 0.929 . S
C1072 H1066 0.930 . S
C1072 C1073 1.367 . S
C1072 C1080 1.378 . S
C1073 C1072 1.367 . S
C1073 C1081 1.433 . S
C1074 H1070 0.929 . S
C1074 C1076 1.378 . S
C1074 C1078 1.350 . S
C1075 C1078 1.463 . S
C1075 C1080 1.350 . S
C1075 N1083 1.427 . S
C1076 H1067 0.930 . S
C1076 C1074 1.378 . S
C1076 C1077 1.367 . S
C1077 C1076 1.367 . S
C1077 C1079 1.433 . S
C1078 C1074 1.350 . S
C1078 C1075 1.463 . S
C1078 N1082 1.427 . S
C1079 H1069 0.929 . S
C1079 C1077 1.433 . S
C1079 N1082 1.384 . S
C1080 H1071 0.929 . S
C1080 C1072 1.378 . S
C1080 C1075 1.350 . S
C1081 H1068 0.929 . S
C1081 C1073 1.433 . S
C1081 N1083 1.384 . S
N1082 C1078 1.427 . S
N1082 C1079 1.384 . S
N1083 C1075 1.427 . S
N1083 C1081 1.384 . S
H1084 C1090 0.930 . S
H1085 C1094 0.930 . S
H1086 C1099 0.929 . S
H1087 C1097 0.929 . S
H1088 C1092 0.929 . S
H1089 C1098 0.929 . S
C1090 H1084 0.930 . S
C1090 C1091 1.367 . S
C1090 C1098 1.378 . S
C1091 C1090 1.367 . S
C1091 C1099 1.433 . S
C1092 H1088 0.929 . S
C1092 C1094 1.378 . S
C1092 C1096 1.350 . S
C1093 C1096 1.463 . S
C1093 C1098 1.350 . S
C1093 N1101 1.427 . S
C1094 H1085 0.930 . S
C1094 C1092 1.378 . S
C1094 C1095 1.367 . S
C1095 C1094 1.367 . S
C1095 C1097 1.433 . S
C1096 C1092 1.350 . S
C1096 C1093 1.463 . S
C1096 N1100 1.427 . S
C1097 H1087 0.929 . S
C1097 C1095 1.433 . S
C1097 N1100 1.384 . S
C1098 H1089 0.929 . S
C1098 C1090 1.378 . S
C1098 C1093 1.350 . S
C1099 H1086 0.929 . S
C1099 C1091 1.433 . S
C1099 N1101 1.384 . S
N1100 C1096 1.427 . S
N1100 C1097 1.384 . S
N1101 C1093 1.427 . S
N1101 C1099 1.384 . S
H1102 C1108 0.930 . S
H1103 C1112 0.930 . S
H1104 C1117 0.929 . S
H1105 C1115 0.929 . S
H1106 C1110 0.929 . S
H1107 C1116 0.929 . S
C1108 H1102 0.930 . S
C1108 C1109 1.367 . S
C1108 C1116 1.378 . S
C1109 C1108 1.367 . S
C1109 C1117 1.433 . S
C1110 H1106 0.929 . S
C1110 C1112 1.378 . S
C1110 C1114 1.350 . S
C1111 C1114 1.463 . S
C1111 C1116 1.350 . S
C1111 N1119 1.427 . S
C1112 H1103 0.930 . S
C1112 C1110 1.378 . S
C1112 C1113 1.367 . S
C1113 C1112 1.367 . S
C1113 C1115 1.433 . S
C1114 C1110 1.350 . S
C1114 C1111 1.463 . S
C1114 N1118 1.427 . S
C1115 H1105 0.929 . S
C1115 C1113 1.433 . S
C1115 N1118 1.384 . S
C1116 H1107 0.929 . S
C1116 C1108 1.378 . S
C1116 C1111 1.350 . S
C1117 H1104 0.929 . S
C1117 C1109 1.433 . S
C1117 N1119 1.384 . S
N1118 C1114 1.427 . S
N1118 C1115 1.384 . S
N1119 C1111 1.427 . S
N1119 C1117 1.384 . S
H1120 C1126 0.930 . S
H1121 C1130 0.930 . S
H1122 C1135 0.929 . S
H1123 C1133 0.929 . S
H1124 C1128 0.929 . S
H1125 C1134 0.929 . S
C1126 H1120 0.930 . S
C1126 C1127 1.367 . S
C1126 C1134 1.378 1_455 S
C1127 C1126 1.367 . S
C1127 C1135 1.433 . S
C1128 H1124 0.929 . S
C1128 C1130 1.378 . S
C1128 C1132 1.350 . S
C1129 C1132 1.463 . S
C1129 C1134 1.350 . S
C1129 N1137 1.427 . S
C1130 H1121 0.930 . S
C1130 C1128 1.378 . S
C1130 C1131 1.367 . S
C1131 C1130 1.367 . S
C1131 C1133 1.433 . S
C1132 C1128 1.350 . S
C1132 C1129 1.463 . S
C1132 N1136 1.427 . S
C1133 H1123 0.929 . S
C1133 C1131 1.433 . S
C1133 N1136 1.384 . S
C1134 H1125 0.929 . S
C1134 C1126 1.378 1_655 S
C1134 C1129 1.350 . S
C1135 H1122 0.929 . S
C1135 C1127 1.433 . S
C1135 N1137 1.384 1_455 S
N1136 C1132 1.427 . S
N1136 C1133 1.384 . S
N1137 C1129 1.427 . S
N1137 C1135 1.384 1_655 S
H1138 C1144 0.930 . S
H1139 C1148 0.930 . S
H1140 C1153 0.929 . S
H1141 C1151 0.929 . S
H1142 C1146 0.929 . S
H1143 C1152 0.929 . S
C1144 H1138 0.930 . S
C1144 C1145 1.367 . S
C1144 C1152 1.378 1_565 S
C1145 C1144 1.367 . S
C1145 C1153 1.433 . S
C1146 H1142 0.929 . S
C1146 C1148 1.378 . S
C1146 C1150 1.350 . S
C1147 C1150 1.463 . S
C1147 C1152 1.350 . S
C1147 N1155 1.427 . S
C1148 H1139 0.930 . S
C1148 C1146 1.378 . S
C1148 C1149 1.367 . S
C1149 C1148 1.367 . S
C1149 C1151 1.433 . S
C1150 C1146 1.350 . S
C1150 C1147 1.463 . S
C1150 N1154 1.427 . S
C1151 H1141 0.929 . S
C1151 C1149 1.433 . S
C1151 N1154 1.384 . S
C1152 H1143 0.929 . S
C1152 C1144 1.378 1_545 S
C1152 C1147 1.350 . S
C1153 H1140 0.929 . S
C1153 C1145 1.433 . S
C1153 N1155 1.384 1_565 S
N1154 C1150 1.427 . S
N1154 C1151 1.384 . S
N1155 C1147 1.427 . S
N1155 C1153 1.384 1_545 S
H1156 C1162 0.930 . S
H1157 C1166 0.930 . S
H1158 C1171 0.929 . S
H1159 C1169 0.929 . S
H1160 C1164 0.929 . S
H1161 C1170 0.929 . S
C1162 H1156 0.930 . S
C1162 C1163 1.367 . S
C1162 C1170 1.378 . S
C1163 C1162 1.367 . S
C1163 C1171 1.433 . S
C1164 H1160 0.929 . S
C1164 C1166 1.378 1_455 S
C1164 C1168 1.350 . S
C1165 C1168 1.463 . S
C1165 C1170 1.350 . S
C1165 N1173 1.427 . S
C1166 H1157 0.930 . S
C1166 C1164 1.378 1_655 S
C1166 C1167 1.367 . S
C1167 C1166 1.367 . S
C1167 C1169 1.433 . S
C1168 C1164 1.350 . S
C1168 C1165 1.463 . S
C1168 N1172 1.427 . S
C1169 H1159 0.929 . S
C1169 C1167 1.433 . S
C1169 N1172 1.384 1_655 S
C1170 H1161 0.929 . S
C1170 C1162 1.378 . S
C1170 C1165 1.350 . S
C1171 H1158 0.929 . S
C1171 C1163 1.433 . S
C1171 N1173 1.384 . S
N1172 C1168 1.427 . S
N1172 C1169 1.384 1_455 S
N1173 C1165 1.427 . S
N1173 C1171 1.384 . S
H1174 C1180 0.930 . S
H1175 C1184 0.930 . S
H1176 C1189 0.929 . S
H1177 C1187 0.929 . S
H1178 C1182 0.929 . S
H1179 C1188 0.929 . S
C1180 H1174 0.930 . S
C1180 C1181 1.367 . S
C1180 C1188 1.378 1_545 S
C1181 C1180 1.367 . S
C1181 C1189 1.433 . S
C1182 H1178 0.929 . S
C1182 C1184 1.378 . S
C1182 C1186 1.350 . S
C1183 C1186 1.463 . S
C1183 C1188 1.350 . S
C1183 N1191 1.427 . S
C1184 H1175 0.930 . S
C1184 C1182 1.378 . S
C1184 C1185 1.367 . S
C1185 C1184 1.367 . S
C1185 C1187 1.433 . S
C1186 C1182 1.350 . S
C1186 C1183 1.463 . S
C1186 N1190 1.427 . S
C1187 H1177 0.929 . S
C1187 C1185 1.433 . S
C1187 N1190 1.384 . S
C1188 H1179 0.929 . S
C1188 C1180 1.378 1_565 S
C1188 C1183 1.350 . S
C1189 H1176 0.929 . S
C1189 C1181 1.433 . S
C1189 N1191 1.384 1_545 S
N1190 C1186 1.427 . S
N1190 C1187 1.384 . S
N1191 C1183 1.427 . S
N1191 C1189 1.384 1_565 S
H1192 C1198 0.930 . S
H1193 C1202 0.930 . S
H1194 C1207 0.929 . S
H1195 C1205 0.929 . S
H1196 C1200 0.929 . S
H1197 C1206 0.929 . S
C1198 H1192 0.930 . S
C1198 C1199 1.367 . S
C1198 C1206 1.378 1_655 S
C1199 C1198 1.367 . S
C1199 C1207 1.433 . S
C1200 H1196 0.929 . S
C1200 C1202 1.378 . S
C1200 C1204 1.350 . S
C1201 C1204 1.463 . S
C1201 C1206 1.350 . S
C1201 N1209 1.427 . S
C1202 H1193 0.930 . S
C1202 C1200 1.378 . S
C1202 C1203 1.367 . S
C1203 C1202 1.367 . S
C1203 C1205 1.433 . S
C1204 C1200 1.350 . S
C1204 C1201 1.463 . S
C1204 N1208 1.427 . S
C1205 H1195 0.929 . S
C1205 C1203 1.433 . S
C1205 N1208 1.384 . S
C1206 H1197 0.929 . S
C1206 C1198 1.378 1_455 S
C1206 C1201 1.350 . S
C1207 H1194 0.929 . S
C1207 C1199 1.433 . S
C1207 N1209 1.384 1_655 S
N1208 C1204 1.427 . S
N1208 C1205 1.384 . S
N1209 C1201 1.427 . S
N1209 C1207 1.384 1_455 S
H1210 C1216 0.930 . S
H1211 C1220 0.930 . S
H1212 C1225 0.929 . S
H1213 C1223 0.929 . S
H1214 C1218 0.929 . S
H1215 C1224 0.929 . S
C1216 H1210 0.930 . S
C1216 C1217 1.367 . S
C1216 C1224 1.378 . S
C1217 C1216 1.367 . S
C1217 C1225 1.433 . S
C1218 H1214 0.929 . S
C1218 C1220 1.378 1_565 S
C1218 C1222 1.350 . S
C1219 C1222 1.463 . S
C1219 C1224 1.350 . S
C1219 N1227 1.427 . S
C1220 H1211 0.930 . S
C1220 C1218 1.378 1_545 S
C1220 C1221 1.367 . S
C1221 C1220 1.367 . S
C1221 C1223 1.433 . S
C1222 C1218 1.350 . S
C1222 C1219 1.463 . S
C1222 N1226 1.427 . S
C1223 H1213 0.929 . S
C1223 C1221 1.433 . S
C1223 N1226 1.384 1_545 S
C1224 H1215 0.929 . S
C1224 C1216 1.378 . S
C1224 C1219 1.350 . S
C1225 H1212 0.929 . S
C1225 C1217 1.433 . S
C1225 N1227 1.384 . S
N1226 C1222 1.427 . S
N1226 C1223 1.384 1_565 S
N1227 C1219 1.427 . S
N1227 C1225 1.384 . S
H1228 C1234 0.930 . S
H1229 C1238 0.930 . S
H1230 C1243 0.929 . S
H1231 C1241 0.929 . S
H1232 C1236 0.929 . S
H1233 C1242 0.929 . S
C1234 H1228 0.930 . S
C1234 C1235 1.367 . S
C1234 C1242 1.378 . S
C1235 C1234 1.367 . S
C1235 C1243 1.433 . S
C1236 H1232 0.929 . S
C1236 C1238 1.378 1_655 S
C1236 C1240 1.350 . S
C1237 C1240 1.463 . S
C1237 C1242 1.350 . S
C1237 N1245 1.427 . S
C1238 H1229 0.930 . S
C1238 C1236 1.378 1_455 S
C1238 C1239 1.367 . S
C1239 C1238 1.367 . S
C1239 C1241 1.433 . S
C1240 C1236 1.350 . S
C1240 C1237 1.463 . S
C1240 N1244 1.427 . S
C1241 H1231 0.929 . S
C1241 C1239 1.433 . S
C1241 N1244 1.384 1_455 S
C1242 H1233 0.929 . S
C1242 C1234 1.378 . S
C1242 C1237 1.350 . S
C1243 H1230 0.929 . S
C1243 C1235 1.433 . S
C1243 N1245 1.384 . S
N1244 C1240 1.427 . S
N1244 C1241 1.384 1_655 S
N1245 C1237 1.427 . S
N1245 C1243 1.384 . S
H1246 C1252 0.930 . S
H1247 C1256 0.930 . S
H1248 C1261 0.929 . S
H1249 C1259 0.929 . S
H1250 C1254 0.929 . S
H1251 C1260 0.929 . S
C1252 H1246 0.930 . S
C1252 C1253 1.367 . S
C1252 C1260 1.378 1_565 S
C1253 C1252 1.367 . S
C1253 C1261 1.433 . S
C1254 H1250 0.929 . S
C1254 C1256 1.378 . S
C1254 C1258 1.350 . S
C1255 C1258 1.463 . S
C1255 C1260 1.350 . S
C1255 N1263 1.427 . S
C1256 H1247 0.930 . S
C1256 C1254 1.378 . S
C1256 C1257 1.367 . S
C1257 C1256 1.367 . S
C1257 C1259 1.433 . S
C1258 C1254 1.350 . S
C1258 C1255 1.463 . S
C1258 N1262 1.427 . S
C1259 H1249 0.929 . S
C1259 C1257 1.433 . S
C1259 N1262 1.384 . S
C1260 H1251 0.929 . S
C1260 C1252 1.378 1_545 S
C1260 C1255 1.350 . S
C1261 H1248 0.929 . S
C1261 C1253 1.433 . S
C1261 N1263 1.384 1_565 S
N1262 C1258 1.427 . S
N1262 C1259 1.384 . S
N1263 C1255 1.427 . S
N1263 C1261 1.384 1_545 S
C551 C5 1.681 . S
C555 C175 1.683 . S
C569 C209 1.683 . S
C573 C39 1.678 . S
C587 C243 1.680 . S
C591 C73 1.683 . S
C605 C141 1.677 . S
C609 C107 1.680 . S
C623 C277 1.679 . S
C627 C447 1.678 . S
C641 C311 1.681 . S
C645 C481 1.677 . S
C659 C515 1.678 . S
C663 C345 1.683 . S
C677 C379 1.678 . S
C681 C413 1.678 . S
C695 C33 1.190 . S
C699 C101 1.189 . S
C713 C135 1.199 . S
C717 C67 1.198 . S
C731 C169 1.194 . S
C735 C237 1.194 . S
C749 C203 1.187 . S
C753 C271 1.188 . S
C767 C373 1.198 . S
C771 C305 1.198 . S
C785 C407 1.187 . S
C789 C339 1.187 . S
C803 C509 1.195 . S
C807 C441 1.194 . S
C821 C543 1.196 . S
C825 C475 1.195 . S
C839 C519 1.545 . S
C843 C9 1.558 . S
C857 C417 1.555 . S
C861 C43 1.552 . S
C875 C451 1.545 . S
C879 C77 1.558 . S
C893 C111 1.549 . S
C897 C485 1.547 . S
C911 C145 1.545 . S
C915 C315 1.552 . S
C929 C179 1.551 . S
C933 C349 1.555 . S
C947 C213 1.547 . S
C951 C383 1.558 . S
C965 C247 1.546 . S
C969 C281 1.558 . S
C983 C478 0.969 . S
C987 C20 0.986 . S
C1001 C54 0.986 . S
C1005 C512 0.975 . S
C1019 C410 0.969 . S
C1023 C88 0.986 . S
C1037 C444 0.961 . S
C1041 C122 0.985 . S
C1055 C342 0.976 . S
C1059 C156 0.987 . S
C1073 C190 0.986 . S
C1077 C376 0.973 . S
C1091 C274 0.961 . S
C1095 C224 0.985 . S
C1109 C258 0.985 . S
C1113 C308 0.963 . S
C1127 C206 0.978 . S
C1131 C292 0.987 . S
C1145 C240 0.976 . S
C1149 C326 0.987 . S
C1163 C360 0.985 . S
C1167 C138 0.960 . S
C1181 C172 0.965 . S
C1185 C394 0.986 . S
C1199 C70 0.973 . S
C1203 C428 0.986 . S
C1217 C462 0.986 . S
C1221 C104 0.968 . S
C1235 C496 0.986 . S
C1239 C2 0.963 . S
C1253 C36 0.964 . S
C1257 C530 0.986 . S
