# Generated by pormake.
# Topology pcb, (4)-cn, num edge types: 1
# Building blocks:
#     Node 0, Type 0, BuildingBlock: UXUYUI_clean_sbu_0, # of connection points: 4
#     Node 1, Type 0, BuildingBlock: UXUYUI_clean_sbu_0, # of connection points: 4
#     Node 2, Type 0, BuildingBlock: UXUYUI_clean_sbu_0, # of connection points: 4
#     Node 3, Type 0, BuildingBlock: UXUYUI_clean_sbu_0, # of connection points: 4
#     Node 4, Type 0, BuildingBlock: UXUYUI_clean_sbu_0, # of connection points: 4
#     Node 5, Type 0, BuildingBlock: UXUYUI_clean_sbu_0, # of connection points: 4
#     Node 6, Type 0, BuildingBlock: UXUYUI_clean_sbu_0, # of connection points: 4
#     Node 7, Type 0, BuildingBlock: UXUYUI_clean_sbu_0, # of connection points: 4
#     Node 8, Type 0, BuildingBlock: UXUYUI_clean_sbu_0, # of connection points: 4
#     Node 9, Type 0, BuildingBlock: UXUYUI_clean_sbu_0, # of connection points: 4
#     Node 10, Type 0, BuildingBlock: UXUYUI_clean_sbu_0, # of connection points: 4
#     Node 11, Type 0, BuildingBlock: UXUYUI_clean_sbu_0, # of connection points: 4
#     Node 12, Type 0, BuildingBlock: UXUYUI_clean_sbu_0, # of connection points: 4
#     Node 13, Type 0, BuildingBlock: UXUYUI_clean_sbu_0, # of connection points: 4
#     Node 14, Type 0, BuildingBlock: UXUYUI_clean_sbu_0, # of connection points: 4
#     Node 15, Type 0, BuildingBlock: UXUYUI_clean_sbu_0, # of connection points: 4
#     Edge 16, Type (0, 0), BuildingBlock: KIFKEQ_clean_linker_1, # of connection points: 2
#     Edge 17, Type (0, 0), BuildingBlock: KIFKEQ_clean_linker_1, # of connection points: 2
#     Edge 18, Type (0, 0), BuildingBlock: KIFKEQ_clean_linker_1, # of connection points: 2
#     Edge 19, Type (0, 0), BuildingBlock: KIFKEQ_clean_linker_1, # of connection points: 2
#     Edge 20, Type (0, 0), BuildingBlock: KIFKEQ_clean_linker_1, # of connection points: 2
#     Edge 21, Type (0, 0), BuildingBlock: KIFKEQ_clean_linker_1, # of connection points: 2
#     Edge 22, Type (0, 0), BuildingBlock: KIFKEQ_clean_linker_1, # of connection points: 2
#     Edge 23, Type (0, 0), BuildingBlock: KIFKEQ_clean_linker_1, # of connection points: 2
#     Edge 24, Type (0, 0), BuildingBlock: KIFKEQ_clean_linker_1, # of connection points: 2
#     Edge 25, Type (0, 0), BuildingBlock: KIFKEQ_clean_linker_1, # of connection points: 2
#     Edge 26, Type (0, 0), BuildingBlock: KIFKEQ_clean_linker_1, # of connection points: 2
#     Edge 27, Type (0, 0), BuildingBlock: KIFKEQ_clean_linker_1, # of connection points: 2
#     Edge 28, Type (0, 0), BuildingBlock: KIFKEQ_clean_linker_1, # of connection points: 2
#     Edge 29, Type (0, 0), BuildingBlock: KIFKEQ_clean_linker_1, # of connection points: 2
#     Edge 30, Type (0, 0), BuildingBlock: KIFKEQ_clean_linker_1, # of connection points: 2
#     Edge 31, Type (0, 0), BuildingBlock: KIFKEQ_clean_linker_1, # of connection points: 2
#     Edge 32, Type (0, 0), BuildingBlock: KIFKEQ_clean_linker_1, # of connection points: 2
#     Edge 33, Type (0, 0), BuildingBlock: KIFKEQ_clean_linker_1, # of connection points: 2
#     Edge 34, Type (0, 0), BuildingBlock: KIFKEQ_clean_linker_1, # of connection points: 2
#     Edge 35, Type (0, 0), BuildingBlock: KIFKEQ_clean_linker_1, # of connection points: 2
#     Edge 36, Type (0, 0), BuildingBlock: KIFKEQ_clean_linker_1, # of connection points: 2
#     Edge 37, Type (0, 0), BuildingBlock: KIFKEQ_clean_linker_1, # of connection points: 2
#     Edge 38, Type (0, 0), BuildingBlock: KIFKEQ_clean_linker_1, # of connection points: 2
#     Edge 39, Type (0, 0), BuildingBlock: KIFKEQ_clean_linker_1, # of connection points: 2
#     Edge 40, Type (0, 0), BuildingBlock: KIFKEQ_clean_linker_1, # of connection points: 2
#     Edge 41, Type (0, 0), BuildingBlock: KIFKEQ_clean_linker_1, # of connection points: 2
#     Edge 42, Type (0, 0), BuildingBlock: KIFKEQ_clean_linker_1, # of connection points: 2
#     Edge 43, Type (0, 0), BuildingBlock: KIFKEQ_clean_linker_1, # of connection points: 2
#     Edge 44, Type (0, 0), BuildingBlock: KIFKEQ_clean_linker_1, # of connection points: 2
#     Edge 45, Type (0, 0), BuildingBlock: KIFKEQ_clean_linker_1, # of connection points: 2
#     Edge 46, Type (0, 0), BuildingBlock: KIFKEQ_clean_linker_1, # of connection points: 2
#     Edge 47, Type (0, 0), BuildingBlock: KIFKEQ_clean_linker_1, # of connection points: 2
# Relax obj value: 0.233
# Max RMSD: 0.082
# Mean RMSD: 0.081
data_MOF--net-pcb--node1-UXUYUI_clean_sbu_0--edge1-KIFKEQ_clean_linker_1
_symmetry_space_group_name_H-M    P1
_symmetry_Int_Tables_number       1
_symmetry_cell_setting            triclinic
loop_
_symmetry_equiv_pos_as_xyz
'x, y, z'
_cell_length_a     69.810563
_cell_length_b     69.541271
_cell_length_c     69.705893
_cell_angle_alpha  90.040691
_cell_angle_beta   89.965365
_cell_angle_gamma 90.110287
loop_
_atom_site_label
_atom_site_type_symbol
_atom_site_fract_x
_atom_site_fract_y
_atom_site_fract_z
_atom_type_partial_charge
Li0 Li 0.15597 0.15805 0.13585 0.0
Li1 Li 0.16352 0.16736 0.16866 0.0
Li2 Li 0.15425 0.13475 0.16205 0.0
Li3 Li 0.13174 0.16162 0.16018 0.0
C4 C 0.19469 0.15493 0.14663 0.0
N5 N 0.23005 0.16879 0.13529 0.0
C6 C 0.19699 0.17439 0.14207 0.0
C7 C 0.21039 0.14255 0.14545 0.0
C8 C 0.21498 0.18111 0.13637 0.0
C9 C 0.22814 0.14983 0.13966 0.0
C10 C 0.13589 0.19677 0.14808 0.0
C11 C 0.1153 0.22027 0.16303 0.0
N12 N 0.1092 0.22599 0.14541 0.0
C13 C 0.12962 0.20309 0.13013 0.0
C14 C 0.12887 0.20563 0.16466 0.0
C15 C 0.11606 0.2178 0.12907 0.0
C16 C 0.14359 0.16289 0.09869 0.0
N17 N 0.15994 0.16014 0.10887 0.0
C18 C 0.17834 0.15879 0.07996 0.0
C19 C 0.17713 0.15785 0.09994 0.0
C20 C 0.16166 0.1618 0.06912 0.0
C21 C 0.14412 0.16388 0.07874 0.0
H22 H 0.13005 0.16412 0.10613 0.0
H23 H 0.18987 0.15489 0.10813 0.0
C24 C 0.1941 0.17243 0.19398 0.0
N25 N 0.18045 0.182 0.18393 0.0
C26 C 0.20659 0.18248 0.20593 0.0
C27 C 0.19119 0.21209 0.19632 0.0
C28 C 0.17892 0.20144 0.18465 0.0
C29 C 0.20514 0.20257 0.20729 0.0
H30 H 0.19511 0.15696 0.19285 0.0
H31 H 0.16823 0.20868 0.17613 0.0
C32 C 0.1346 0.12549 0.12872 0.0
N33 N 0.13387 0.09606 0.10209 0.0
C34 C 0.11718 0.11923 0.12106 0.0
C35 C 0.15167 0.1168 0.12282 0.0
C36 C 0.11711 0.10433 0.10761 0.0
C37 C 0.15099 0.10194 0.10935 0.0
C38 C 0.15094 0.15342 0.20151 0.0
C39 C 0.16142 0.13875 0.21028 0.0
C40 C 0.14711 0.17031 0.2117 0.0
C41 C 0.16818 0.14136 0.22897 0.0
C42 C 0.15416 0.1724 0.23033 0.0
N43 N 0.16448 0.15801 0.23851 0.0
C44 C 0.17462 0.1011 0.17199 0.0
C45 C 0.14111 0.09727 0.16795 0.0
C46 C 0.17668 0.0815 0.17577 0.0
N47 N 0.15705 0.10848 0.16811 0.0
C48 C 0.14252 0.0776 0.17138 0.0
C49 C 0.16051 0.0694 0.1753 0.0
H50 H 0.187 0.11046 0.17215 0.0
H51 H 0.12733 0.10361 0.16478 0.0
C52 C 0.09436 0.16741 0.14767 0.0
N53 N 0.10566 0.16787 0.16351 0.0
C54 C 0.07474 0.1707 0.14929 0.0
C55 C 0.0789 0.17543 0.18342 0.0
C56 C 0.09842 0.17185 0.18116 0.0
C57 C 0.06671 0.17459 0.16738 0.0
H58 H 0.10059 0.1641 0.13385 0.0
H59 H 0.10778 0.17203 0.19349 0.0
O60 O 0.17732 0.14799 0.15261 0.0
O61 O 0.14895 0.18215 0.14942 0.0
O62 O 0.13483 0.1402 0.14178 0.0
O63 O 0.14446 0.15122 0.18308 0.0
H64 H 0.18505 0.18423 0.14285 0.0
H65 H 0.20887 0.12747 0.14895 0.0
H66 H 0.21695 0.19612 0.13279 0.0
H67 H 0.24041 0.1404 0.13866 0.0
H68 H 0.1096 0.22707 0.17577 0.0
H69 H 0.13525 0.19685 0.11712 0.0
H70 H 0.13364 0.20106 0.17866 0.0
H71 H 0.11102 0.22275 0.11526 0.0
H72 H 0.19208 0.15671 0.07307 0.0
H73 H 0.13093 0.16631 0.07095 0.0
H74 H 0.21702 0.17455 0.21424 0.0
H75 H 0.18987 0.2276 0.19663 0.0
H76 H 0.10385 0.12585 0.12545 0.0
H77 H 0.1653 0.12147 0.12852 0.0
H78 H 0.10373 0.09933 0.10156 0.0
H79 H 0.16408 0.09509 0.10466 0.0
H80 H 0.16443 0.12553 0.20275 0.0
H81 H 0.13901 0.18181 0.20523 0.0
H82 H 0.17641 0.13017 0.23587 0.0
H83 H 0.15146 0.18548 0.23829 0.0
H84 H 0.19078 0.07592 0.17902 0.0
H85 H 0.1297 0.06886 0.17047 0.0
H86 H 0.06592 0.16955 0.13657 0.0
H87 H 0.0734 0.17864 0.19759 0.0
Li88 Li 0.82566 0.1647 0.16702 0.0
Li89 Li 0.83294 0.13427 0.15437 0.0
Li90 Li 0.85779 0.15822 0.15781 0.0
Li91 Li 0.83302 0.16096 0.13182 0.0
C92 C 0.8384 0.14748 0.19714 0.0
N93 N 0.82773 0.15261 0.235 0.0
C94 C 0.82513 0.13504 0.20566 0.0
C95 C 0.84632 0.16245 0.20795 0.0
C96 C 0.81993 0.13787 0.22481 0.0
C97 C 0.8407 0.16485 0.22704 0.0
C98 C 0.79647 0.13805 0.14325 0.0
C99 C 0.7749 0.12226 0.12124 0.0
N100 N 0.76735 0.11204 0.13606 0.0
C101 C 0.78843 0.12745 0.15827 0.0
C102 C 0.78962 0.13548 0.12457 0.0
C103 C 0.77376 0.11434 0.15434 0.0
C104 C 0.81521 0.19797 0.18706 0.0
N105 N 0.81054 0.17918 0.18445 0.0
C106 C 0.78552 0.18148 0.20771 0.0
C107 C 0.79586 0.17088 0.19424 0.0
C108 C 0.79024 0.20086 0.21092 0.0
C109 C 0.80522 0.20913 0.20029 0.0
H110 H 0.82669 0.20433 0.17887 0.0
H111 H 0.79235 0.15597 0.19186 0.0
C112 C 0.83659 0.09741 0.17059 0.0
N113 N 0.82914 0.10702 0.15536 0.0
C114 C 0.8354 0.07742 0.17152 0.0
C115 C 0.81924 0.07748 0.14087 0.0
C116 C 0.82078 0.09747 0.14052 0.0
C117 C 0.82666 0.06718 0.15651 0.0
H118 H 0.84394 0.10524 0.18178 0.0
H119 H 0.8157 0.10531 0.12818 0.0
C120 C 0.85553 0.19535 0.14872 0.0
N121 N 0.88326 0.2236 0.14537 0.0
C122 C 0.86032 0.20274 0.13069 0.0
C123 C 0.86469 0.20254 0.16506 0.0
C124 C 0.8744 0.21697 0.12929 0.0
C125 C 0.87873 0.21674 0.16306 0.0
C126 C 0.86065 0.12447 0.13 0.0
C127 C 0.87393 0.11531 0.14185 0.0
C128 C 0.85477 0.11564 0.11297 0.0
C129 C 0.88103 0.09731 0.13651 0.0
C130 C 0.86221 0.09764 0.10814 0.0
N131 N 0.87506 0.08891 0.11992 0.0
C132 C 0.8922 0.15816 0.17946 0.0
C133 C 0.89489 0.16906 0.14733 0.0
C134 C 0.91175 0.16118 0.18243 0.0
N135 N 0.88421 0.16231 0.16218 0.0
C136 C 0.91439 0.17255 0.14973 0.0
C137 C 0.92303 0.16857 0.16746 0.0
H138 H 0.88346 0.15234 0.19086 0.0
H139 H 0.8882 0.17172 0.1336 0.0
C140 C 0.81309 0.17855 0.10068 0.0
N141 N 0.82915 0.16911 0.10635 0.0
C142 C 0.81097 0.18415 0.08153 0.0
C143 C 0.84216 0.17062 0.07478 0.0
C144 C 0.84361 0.16523 0.09393 0.0
C145 C 0.82566 0.18015 0.06832 0.0
H146 H 0.8019 0.18158 0.11099 0.0
H147 H 0.85631 0.15792 0.09895 0.0
O148 O 0.84346 0.14514 0.1783 0.0
O149 O 0.81081 0.15102 0.14677 0.0
O150 O 0.84193 0.1812 0.15034 0.0
O151 O 0.8531 0.14181 0.13528 0.0
H152 H 0.81867 0.12349 0.19752 0.0
H153 H 0.85655 0.17226 0.20162 0.0
H154 H 0.80959 0.12842 0.23153 0.0
H155 H 0.84663 0.17646 0.23551 0.0
H156 H 0.76951 0.12008 0.10685 0.0
H157 H 0.79373 0.129 0.17274 0.0
H158 H 0.7957 0.14348 0.11275 0.0
H159 H 0.76753 0.10593 0.16582 0.0
H160 H 0.77416 0.1745 0.21569 0.0
H161 H 0.80905 0.22413 0.20198 0.0
H162 H 0.84176 0.07003 0.18361 0.0
H163 H 0.81241 0.07017 0.12897 0.0
H164 H 0.85328 0.19756 0.11789 0.0
H165 H 0.86119 0.19705 0.17913 0.0
H166 H 0.8783 0.22274 0.11541 0.0
H167 H 0.88604 0.22229 0.17558 0.0
H168 H 0.87851 0.1219 0.15515 0.0
H169 H 0.84435 0.12248 0.10374 0.0
H170 H 0.89122 0.08998 0.1456 0.0
H171 H 0.8577 0.09056 0.09508 0.0
H172 H 0.91797 0.15785 0.19626 0.0
H173 H 0.92272 0.17789 0.13774 0.0
H174 H 0.79807 0.19155 0.07712 0.0
H175 H 0.85369 0.16697 0.06504 0.0
Li176 Li 0.83746 0.85577 0.15436 0.0
Li177 Li 0.86139 0.82988 0.15626 0.0
Li178 Li 0.83619 0.8286 0.1324 0.0
Li179 Li 0.82962 0.82448 0.16634 0.0
C180 C 0.85683 0.86015 0.11957 0.0
N181 N 0.85715 0.8847 0.08844 0.0
C182 C 0.87414 0.86504 0.11076 0.0
C183 C 0.83967 0.8677 0.11254 0.0
C184 C 0.874 0.87749 0.09503 0.0
C185 C 0.84014 0.8801 0.0968 0.0
C186 C 0.84209 0.84407 0.19602 0.0
C187 C 0.84222 0.83181 0.22838 0.0
N188 N 0.8289 0.84515 0.23339 0.0
C189 C 0.82852 0.85776 0.20152 0.0
C190 C 0.84913 0.83108 0.20957 0.0
C191 C 0.822 0.85804 0.22047 0.0
C192 C 0.81695 0.89065 0.1517 0.0
N193 N 0.83402 0.88258 0.15636 0.0
C194 C 0.84759 0.91336 0.16309 0.0
C195 C 0.8492 0.8934 0.16205 0.0
C196 C 0.83018 0.9222 0.15815 0.0
C197 C 0.8147 0.91057 0.15248 0.0
H198 H 0.80518 0.88163 0.14716 0.0
H199 H 0.86262 0.88649 0.16555 0.0
C200 C 0.89727 0.81629 0.14503 0.0
N201 N 0.8878 0.82524 0.15951 0.0
C202 C 0.91701 0.81361 0.14612 0.0
C203 C 0.9169 0.82964 0.17693 0.0
C204 C 0.89707 0.83175 0.17536 0.0
C205 C 0.92718 0.82067 0.16205 0.0
H206 H 0.88948 0.81145 0.13251 0.0
H207 H 0.88913 0.83905 0.18652 0.0
C208 C 0.79774 0.83127 0.14346 0.0
N209 N 0.76336 0.81303 0.13579 0.0
C210 C 0.79736 0.81158 0.13932 0.0
C211 C 0.78061 0.84163 0.14379 0.0
C212 C 0.77985 0.80265 0.13545 0.0
C213 C 0.76338 0.83216 0.13985 0.0
C214 C 0.8564 0.79192 0.15141 0.0
C215 C 0.85908 0.77928 0.13605 0.0
C216 C 0.86562 0.78837 0.16884 0.0
C217 C 0.87128 0.76353 0.13826 0.0
C218 C 0.87772 0.77249 0.17049 0.0
N219 N 0.8803 0.76051 0.15528 0.0
C220 C 0.84667 0.81362 0.09717 0.0
C221 C 0.81554 0.82718 0.09688 0.0
C222 C 0.84567 0.80994 0.07755 0.0
N223 N 0.83173 0.82201 0.1064 0.0
C224 C 0.81396 0.82387 0.07719 0.0
C225 C 0.82926 0.81533 0.06723 0.0
H226 H 0.85961 0.81031 0.105 0.0
H227 H 0.80416 0.83455 0.10435 0.0
C228 C 0.79831 0.82134 0.19137 0.0
N229 N 0.81355 0.81163 0.18409 0.0
C230 C 0.78578 0.8123 0.20408 0.0
C231 C 0.80479 0.78338 0.20139 0.0
C232 C 0.81693 0.79299 0.18875 0.0
C233 C 0.78895 0.79305 0.20921 0.0
H234 H 0.79584 0.8361 0.1872 0.0
H235 H 0.82887 0.78546 0.18245 0.0
O236 O 0.85677 0.84787 0.13489 0.0
O237 O 0.84836 0.84333 0.17744 0.0
O238 O 0.81465 0.84037 0.14767 0.0
O239 O 0.84464 0.80753 0.14943 0.0
H240 H 0.88753 0.85925 0.11601 0.0
H241 H 0.82613 0.86397 0.1191 0.0
H242 H 0.8873 0.88141 0.08807 0.0
H243 H 0.82697 0.88604 0.0912 0.0
H244 H 0.84746 0.82177 0.23899 0.0
H245 H 0.82287 0.86789 0.19122 0.0
H246 H 0.85978 0.82053 0.20563 0.0
H247 H 0.81139 0.86846 0.22489 0.0
H248 H 0.85995 0.92181 0.16728 0.0
H249 H 0.801 0.91679 0.14874 0.0
H250 H 0.92423 0.80631 0.13446 0.0
H251 H 0.92412 0.8356 0.18933 0.0
H252 H 0.81038 0.80324 0.13904 0.0
H253 H 0.78058 0.85682 0.14715 0.0
H254 H 0.77936 0.78744 0.13219 0.0
H255 H 0.75003 0.84001 0.14005 0.0
H256 H 0.8517 0.78148 0.1226 0.0
H257 H 0.8636 0.79791 0.18091 0.0
H258 H 0.87352 0.75367 0.12646 0.0
H259 H 0.88508 0.7697 0.18385 0.0
H260 H 0.85776 0.80324 0.07049 0.0
H261 H 0.80124 0.82868 0.06974 0.0
H262 H 0.77381 0.8203 0.20988 0.0
H263 H 0.80752 0.76841 0.20467 0.0
Li264 Li 0.1376 0.8335 0.15756 0.0
Li265 Li 0.17144 0.82776 0.16333 0.0
Li266 Li 0.16077 0.86003 0.1579 0.0
Li267 Li 0.1614 0.83562 0.1324 0.0
C268 C 0.14912 0.83403 0.19622 0.0
N269 N 0.14093 0.81528 0.2302 0.0
C270 C 0.14664 0.81406 0.19644 0.0
C271 C 0.14747 0.84443 0.2133 0.0
C272 C 0.14252 0.80486 0.21376 0.0
C273 C 0.14329 0.8347 0.23032 0.0
C274 C 0.1531 0.79878 0.13331 0.0
C275 C 0.16899 0.77957 0.10927 0.0
N276 N 0.15186 0.77169 0.10429 0.0
C277 C 0.1357 0.79028 0.12813 0.0
C278 C 0.16993 0.79319 0.12399 0.0
C279 C 0.13535 0.77669 0.11337 0.0
C280 C 0.10109 0.82616 0.14501 0.0
N281 N 0.1112 0.82786 0.16158 0.0
C282 C 0.08248 0.82512 0.1801 0.0
C283 C 0.10234 0.82742 0.17898 0.0
C284 C 0.07172 0.82373 0.16316 0.0
C285 C 0.08126 0.82408 0.14546 0.0
H286 H 0.10846 0.82696 0.13138 0.0
H287 H 0.11044 0.82949 0.19198 0.0
C288 C 0.19702 0.8213 0.19378 0.0
N289 N 0.1885 0.81299 0.17833 0.0
C290 C 0.20863 0.81041 0.20585 0.0
C291 C 0.20235 0.78263 0.18589 0.0
C292 C 0.19094 0.79408 0.17418 0.0
C293 C 0.21127 0.79075 0.20205 0.0
H294 H 0.19451 0.83633 0.19688 0.0
H295 H 0.18363 0.78777 0.16207 0.0
C296 C 0.12586 0.86671 0.13951 0.0
N297 N 0.09535 0.89186 0.1416 0.0
C298 C 0.11678 0.87288 0.12277 0.0
C299 C 0.11939 0.87327 0.15734 0.0
C300 C 0.10139 0.88562 0.12412 0.0
C301 C 0.10396 0.886 0.15809 0.0
C302 C 0.2019 0.84616 0.15173 0.0
C303 C 0.20924 0.85938 0.16494 0.0
C304 C 0.2137 0.83158 0.14462 0.0
C305 C 0.22821 0.85762 0.17105 0.0
C306 C 0.23259 0.83028 0.15111 0.0
N307 N 0.23939 0.84321 0.16409 0.0
C308 C 0.16729 0.8928 0.18128 0.0
C309 C 0.16065 0.8989 0.14845 0.0
C310 C 0.16811 0.91251 0.18511 0.0
N311 N 0.16349 0.88649 0.16321 0.0
C312 C 0.16094 0.91866 0.1517 0.0
C313 C 0.16458 0.92561 0.17023 0.0
H314 H 0.16951 0.88253 0.19269 0.0
H315 H 0.15777 0.89341 0.13422 0.0
C316 C 0.14813 0.82863 0.09547 0.0
N317 N 0.16423 0.83265 0.10563 0.0
C318 C 0.14893 0.82701 0.07557 0.0
C319 C 0.18292 0.83376 0.07697 0.0
C320 C 0.18146 0.83516 0.0969 0.0
C321 C 0.16645 0.82982 0.06603 0.0
H322 H 0.13462 0.82682 0.10288 0.0
H323 H 0.19397 0.83856 0.10539 0.0
O324 O 0.15363 0.84339 0.17956 0.0
O325 O 0.15369 0.81232 0.14758 0.0
O326 O 0.14077 0.85401 0.13838 0.0
O327 O 0.18325 0.84746 0.14585 0.0
H328 H 0.14785 0.80572 0.18341 0.0
H329 H 0.1494 0.85988 0.21339 0.0
H330 H 0.14057 0.78943 0.21414 0.0
H331 H 0.14195 0.84258 0.24364 0.0
H332 H 0.18188 0.77529 0.1018 0.0
H333 H 0.1226 0.79403 0.13549 0.0
H334 H 0.18353 0.79948 0.1279 0.0
H335 H 0.12195 0.77008 0.10916 0.0
H336 H 0.07553 0.82521 0.194 0.0
H337 H 0.07344 0.823 0.13208 0.0
H338 H 0.21536 0.81727 0.21807 0.0
H339 H 0.20367 0.76746 0.18264 0.0
H340 H 0.12157 0.86783 0.10887 0.0
H341 H 0.12615 0.86855 0.17047 0.0
H342 H 0.09423 0.89053 0.11127 0.0
H343 H 0.0988 0.8912 0.17178 0.0
H344 H 0.20035 0.87078 0.17055 0.0
H345 H 0.20833 0.82131 0.13431 0.0
H346 H 0.23404 0.86769 0.18136 0.0
H347 H 0.24183 0.81899 0.14583 0.0
H348 H 0.17091 0.91746 0.19957 0.0
H349 H 0.15833 0.92841 0.13988 0.0
H350 H 0.13595 0.82365 0.06776 0.0
H351 H 0.19665 0.83627 0.07018 0.0
Li352 Li 0.15849 0.86495 0.83061 0.0
Li353 Li 0.15746 0.84093 0.85626 0.0
Li354 Li 0.16426 0.83181 0.82324 0.0
Li355 Li 0.13223 0.8418 0.83299 0.0
C356 C 0.1979 0.8433 0.83762 0.0
N357 N 0.23494 0.83074 0.8316 0.0
C358 C 0.20718 0.83235 0.8516 0.0
C359 C 0.20751 0.84804 0.82067 0.0
C360 C 0.22591 0.82611 0.84827 0.0
C361 C 0.22621 0.84149 0.81787 0.0
C362 C 0.13734 0.87007 0.86903 0.0
C363 C 0.12553 0.86854 0.90154 0.0
N364 N 0.13516 0.88504 0.9057 0.0
C365 C 0.14708 0.88704 0.87363 0.0
C366 C 0.1264 0.86077 0.88307 0.0
C367 C 0.14579 0.89438 0.89225 0.0
C368 C 0.15018 0.90286 0.81984 0.0
N369 N 0.16469 0.89076 0.82456 0.0
C370 C 0.18755 0.91622 0.82206 0.0
C371 C 0.18311 0.89699 0.82576 0.0
C372 C 0.17287 0.92897 0.81692 0.0
C373 C 0.15401 0.92208 0.81568 0.0
H374 H 0.1356 0.89761 0.81958 0.0
H375 H 0.1943 0.88713 0.82992 0.0
C376 C 0.15604 0.82007 0.89076 0.0
N377 N 0.16338 0.83607 0.88233 0.0
C378 C 0.15824 0.81717 0.91041 0.0
C379 C 0.17641 0.84677 0.91215 0.0
C380 C 0.17386 0.84909 0.89243 0.0
C381 C 0.16817 0.83085 0.92143 0.0
H382 H 0.14808 0.8098 0.88231 0.0
H383 H 0.17963 0.86162 0.88526 0.0
C384 C 0.14455 0.86198 0.79522 0.0
N385 N 0.1403 0.88888 0.76641 0.0
C386 C 0.12652 0.86973 0.79131 0.0
C387 C 0.16039 0.86775 0.78437 0.0
C388 C 0.12467 0.88335 0.77669 0.0
C389 C 0.15796 0.88142 0.7699 0.0
C390 C 0.1336 0.80489 0.8401 0.0
C391 C 0.13421 0.79221 0.82453 0.0
C392 C 0.11873 0.80342 0.85347 0.0
C393 C 0.11984 0.77834 0.82255 0.0
C394 C 0.10461 0.78939 0.85096 0.0
N395 N 0.10545 0.77724 0.83568 0.0
C396 C 0.18984 0.8016 0.81587 0.0
C397 C 0.17541 0.81513 0.78825 0.0
C398 C 0.20035 0.78889 0.80458 0.0
N399 N 0.17801 0.81461 0.80754 0.0
C400 C 0.18531 0.8024 0.77641 0.0
C401 C 0.19817 0.78914 0.78452 0.0
H402 H 0.19119 0.80118 0.83131 0.0
H403 H 0.1655 0.82531 0.78207 0.0
C404 C 0.09317 0.84623 0.84131 0.0
N405 N 0.10568 0.83811 0.8288 0.0
C406 C 0.07356 0.84309 0.83929 0.0
C407 C 0.08004 0.82375 0.81118 0.0
C408 C 0.09957 0.82726 0.81376 0.0
C409 C 0.06679 0.83156 0.82419 0.0
H410 H 0.09841 0.85508 0.8529 0.0
H411 H 0.1099 0.82114 0.80395 0.0
O412 O 0.17953 0.84941 0.84056 0.0
O413 O 0.13873 0.86244 0.85099 0.0
O414 O 0.1467 0.84881 0.80962 0.0
O415 O 0.14734 0.8188 0.8421 0.0
H416 H 0.19995 0.82855 0.8648 0.0
H417 H 0.20054 0.85653 0.80973 0.0
H418 H 0.23323 0.81753 0.85891 0.0
H419 H 0.23377 0.84493 0.80476 0.0
H420 H 0.11728 0.86139 0.91258 0.0
H421 H 0.15567 0.89439 0.863 0.0
H422 H 0.11898 0.84749 0.87985 0.0
H423 H 0.15331 0.90746 0.89602 0.0
H424 H 0.20225 0.9211 0.82326 0.0
H425 H 0.14227 0.93161 0.81214 0.0
H426 H 0.15197 0.80452 0.91696 0.0
H427 H 0.18405 0.85772 0.92014 0.0
H428 H 0.11412 0.86545 0.79959 0.0
H429 H 0.17442 0.86184 0.78719 0.0
H430 H 0.11083 0.88956 0.77357 0.0
H431 H 0.17011 0.88612 0.76147 0.0
H432 H 0.14555 0.79315 0.81401 0.0
H433 H 0.1179 0.81326 0.86548 0.0
H434 H 0.12009 0.76848 0.81054 0.0
H435 H 0.09294 0.78821 0.8611 0.0
H436 H 0.21023 0.77917 0.81155 0.0
H437 H 0.18273 0.80284 0.76111 0.0
H438 H 0.0638 0.84973 0.84938 0.0
H439 H 0.0754 0.81473 0.79939 0.0
Li440 Li 0.15581 0.15749 0.85819 0.0
Li441 Li 0.15923 0.13534 0.8312 0.0
Li442 Li 0.16178 0.17109 0.82664 0.0
Li443 Li 0.13083 0.15555 0.83202 0.0
C444 C 0.19442 0.15592 0.85306 0.0
N445 N 0.22603 0.16091 0.87643 0.0
C446 C 0.2067 0.14051 0.85676 0.0
C447 C 0.19846 0.17395 0.86095 0.0
C448 C 0.22254 0.14329 0.86869 0.0
C449 C 0.21443 0.17617 0.87281 0.0
C450 C 0.135 0.11694 0.8551 0.0
C451 C 0.12053 0.08652 0.84676 0.0
N452 N 0.12797 0.07861 0.86296 0.0
C453 C 0.14228 0.10856 0.87179 0.0
C454 C 0.12384 0.10589 0.84261 0.0
C455 C 0.13864 0.08914 0.87546 0.0
C456 C 0.14912 0.1744 0.89405 0.0
N457 N 0.15949 0.16064 0.88493 0.0
C458 C 0.17326 0.15046 0.91458 0.0
C459 C 0.17149 0.14881 0.89472 0.0
C460 C 0.1625 0.16436 0.92445 0.0
C461 C 0.15048 0.17659 0.91388 0.0
H462 H 0.13949 0.18344 0.88595 0.0
H463 H 0.17929 0.13773 0.88718 0.0
C464 C 0.16552 0.10382 0.80619 0.0
N465 N 0.16825 0.11054 0.8243 0.0
C466 C 0.16962 0.08469 0.80178 0.0
C467 C 0.18044 0.08014 0.83441 0.0
C468 C 0.17593 0.09928 0.83823 0.0
C469 C 0.17685 0.07254 0.81611 0.0
H470 H 0.15966 0.11314 0.7953 0.0
H471 H 0.17784 0.10496 0.85254 0.0
C472 C 0.13934 0.19806 0.84482 0.0
N473 N 0.13496 0.23756 0.84376 0.0
C474 C 0.12445 0.20627 0.83424 0.0
C475 C 0.15175 0.20995 0.85519 0.0
C476 C 0.12254 0.22626 0.8338 0.0
C477 C 0.14938 0.22988 0.85437 0.0
C478 C 0.13784 0.15082 0.79381 0.0
C479 C 0.13846 0.16586 0.78053 0.0
C480 C 0.12608 0.13492 0.79025 0.0
C481 C 0.12704 0.16491 0.76411 0.0
C482 C 0.11486 0.1345 0.77368 0.0
N483 N 0.11554 0.14939 0.76106 0.0
C484 C 0.19454 0.19016 0.81365 0.0
C485 C 0.16567 0.20581 0.80502 0.0
C486 C 0.20532 0.20457 0.80492 0.0
N487 N 0.1751 0.19113 0.81376 0.0
C488 C 0.17589 0.22047 0.79593 0.0
C489 C 0.19598 0.21997 0.79594 0.0
H490 H 0.20171 0.1781 0.82018 0.0
H491 H 0.15022 0.20603 0.80486 0.0
C492 C 0.09307 0.14659 0.84081 0.0
N493 N 0.10391 0.15594 0.82756 0.0
C494 C 0.07323 0.14582 0.8389 0.0
C495 C 0.07587 0.16481 0.80999 0.0
C496 C 0.09573 0.16513 0.81241 0.0
C497 C 0.06439 0.15495 0.82331 0.0
H498 H 0.09985 0.1398 0.85297 0.0
H499 H 0.10457 0.17283 0.80228 0.0
O500 O 0.17868 0.15342 0.84158 0.0
O501 O 0.13872 0.13586 0.85106 0.0
O502 O 0.14144 0.17849 0.84536 0.0
O503 O 0.14893 0.15155 0.81001 0.0
H504 H 0.20411 0.12656 0.85044 0.0
H505 H 0.1894 0.18611 0.85787 0.0
H506 H 0.23209 0.13145 0.87175 0.0
H507 H 0.21763 0.19003 0.87909 0.0
H508 H 0.11202 0.0778 0.83714 0.0
H509 H 0.15076 0.11689 0.88173 0.0
H510 H 0.11773 0.11221 0.82987 0.0
H511 H 0.14433 0.08245 0.88824 0.0
H512 H 0.18244 0.14051 0.92218 0.0
H513 H 0.14206 0.18762 0.92089 0.0
H514 H 0.16681 0.07933 0.78746 0.0
H515 H 0.18578 0.07115 0.8459 0.0
H516 H 0.11459 0.19735 0.8263 0.0
H517 H 0.16299 0.2039 0.86391 0.0
H518 H 0.11118 0.23279 0.82552 0.0
H519 H 0.15896 0.23923 0.86225 0.0
H520 H 0.1477 0.1781 0.78281 0.0
H521 H 0.1256 0.12302 0.80017 0.0
H522 H 0.12733 0.17649 0.75376 0.0
H523 H 0.10562 0.12232 0.77083 0.0
H524 H 0.22079 0.20344 0.80482 0.0
H525 H 0.1682 0.23208 0.78905 0.0
H526 H 0.06487 0.13843 0.84973 0.0
H527 H 0.06959 0.17205 0.79777 0.0
Li528 Li 0.82581 0.13091 0.83777 0.0
Li529 Li 0.82952 0.15666 0.86161 0.0
Li530 Li 0.82193 0.16337 0.82717 0.0
Li531 Li 0.85403 0.15333 0.83611 0.0
C532 C 0.79028 0.13874 0.84953 0.0
N533 N 0.75831 0.11598 0.85525 0.0
C534 C 0.78375 0.13504 0.86812 0.0
C535 C 0.78041 0.13108 0.83384 0.0
C536 C 0.76759 0.12345 0.87072 0.0
C537 C 0.76432 0.11954 0.83703 0.0
C538 C 0.85816 0.12815 0.87097 0.0
C539 C 0.88491 0.13235 0.89249 0.0
N540 N 0.88119 0.11484 0.90034 0.0
C541 C 0.85476 0.11009 0.87911 0.0
C542 C 0.87348 0.13929 0.87759 0.0
C543 C 0.8665 0.10366 0.894 0.0
C544 C 0.82204 0.09567 0.81808 0.0
N545 N 0.8184 0.10485 0.83489 0.0
C546 C 0.80634 0.07593 0.84884 0.0
C547 C 0.81064 0.09546 0.85011 0.0
C548 C 0.81047 0.06585 0.83185 0.0
C549 C 0.81817 0.07605 0.81623 0.0
H550 H 0.8285 0.10344 0.8063 0.0
H551 H 0.80821 0.10305 0.86342 0.0
C552 C 0.82189 0.18206 0.89258 0.0
N553 N 0.8254 0.16347 0.88761 0.0
C554 C 0.8203 0.1872 0.91191 0.0
C555 C 0.82526 0.15387 0.92043 0.0
C556 C 0.8265 0.14937 0.90102 0.0
C557 C 0.82246 0.17303 0.92605 0.0
H558 H 0.82079 0.19294 0.88155 0.0
H559 H 0.82851 0.13462 0.89666 0.0
C560 C 0.83617 0.14645 0.79589 0.0
N561 N 0.8324 0.1541 0.7572 0.0
C562 C 0.85105 0.15545 0.7859 0.0
C563 C 0.81949 0.1411 0.78618 0.0
C564 C 0.84884 0.15924 0.76634 0.0
C565 C 0.81782 0.14518 0.76663 0.0
C566 C 0.85159 0.19223 0.84902 0.0
C567 C 0.8529 0.20799 0.83665 0.0
C568 C 0.8617 0.19245 0.86632 0.0
C569 C 0.86467 0.2235 0.84158 0.0
C570 C 0.8733 0.20822 0.87075 0.0
N571 N 0.87456 0.22328 0.85838 0.0
C572 C 0.78861 0.17998 0.81224 0.0
C573 C 0.8173 0.19041 0.79726 0.0
C574 C 0.77772 0.19137 0.79997 0.0
N575 N 0.80798 0.17959 0.81055 0.0
C576 C 0.80698 0.20196 0.78462 0.0
C577 C 0.7869 0.20246 0.78585 0.0
H578 H 0.78159 0.17148 0.82315 0.0
H579 H 0.83274 0.18993 0.79636 0.0
C580 C 0.89035 0.13758 0.83272 0.0
N581 N 0.88068 0.1544 0.83081 0.0
C582 C 0.91015 0.13707 0.83023 0.0
C583 C 0.9096 0.17104 0.8229 0.0
C584 C 0.88977 0.1709 0.82559 0.0
C585 C 0.92007 0.15401 0.82553 0.0
H586 H 0.88268 0.1246 0.83647 0.0
H587 H 0.88173 0.18396 0.82362 0.0
O588 O 0.80616 0.14994 0.84671 0.0
O589 O 0.84673 0.13465 0.85639 0.0
O590 O 0.83801 0.14278 0.81507 0.0
O591 O 0.8401 0.17695 0.84438 0.0
H592 H 0.79112 0.14098 0.88042 0.0
H593 H 0.7852 0.13391 0.81936 0.0
H594 H 0.76243 0.12038 0.88503 0.0
H595 H 0.75663 0.11341 0.82503 0.0
H596 H 0.8968 0.14085 0.89774 0.0
H597 H 0.84312 0.10116 0.87406 0.0
H598 H 0.87674 0.153 0.87111 0.0
H599 H 0.86393 0.08978 0.90051 0.0
H600 H 0.80018 0.06875 0.86117 0.0
H601 H 0.82188 0.06884 0.80297 0.0
H602 H 0.81809 0.20212 0.91577 0.0
H603 H 0.8266 0.14251 0.93098 0.0
H604 H 0.86409 0.1596 0.79319 0.0
H605 H 0.80792 0.13398 0.79367 0.0
H606 H 0.86018 0.16631 0.75845 0.0
H607 H 0.80493 0.14125 0.75895 0.0
H608 H 0.84501 0.20823 0.82332 0.0
H609 H 0.86045 0.1807 0.87636 0.0
H610 H 0.86592 0.23572 0.83206 0.0
H611 H 0.88124 0.20853 0.88408 0.0
H612 H 0.7623 0.19164 0.80166 0.0
H613 H 0.81462 0.21015 0.77385 0.0
H614 H 0.91762 0.12355 0.83201 0.0
H615 H 0.91669 0.18441 0.81927 0.0
Li616 Li 0.83192 0.85722 0.83452 0.0
Li617 Li 0.83413 0.8311 0.85786 0.0
Li618 Li 0.85801 0.83349 0.83108 0.0
Li619 Li 0.82528 0.82296 0.82575 0.0
C620 C 0.8649 0.86634 0.85786 0.0
N621 N 0.88906 0.89597 0.86871 0.0
C622 C 0.86415 0.87371 0.87651 0.0
C623 C 0.87822 0.87382 0.84486 0.0
C624 C 0.87639 0.88876 0.88168 0.0
C625 C 0.89024 0.88884 0.85058 0.0
C626 C 0.79727 0.84004 0.85755 0.0
C627 C 0.77689 0.82312 0.87985 0.0
N628 N 0.77003 0.84023 0.88634 0.0
C629 C 0.78989 0.85745 0.86431 0.0
C630 C 0.79059 0.82272 0.86525 0.0
C631 C 0.77617 0.85724 0.87891 0.0
C632 C 0.81832 0.89035 0.81478 0.0
N633 N 0.82473 0.88332 0.8318 0.0
C634 C 0.821 0.91398 0.84668 0.0
C635 C 0.82588 0.89461 0.84765 0.0
C636 C 0.81471 0.92182 0.82922 0.0
C637 C 0.81332 0.90973 0.81312 0.0
H638 H 0.81715 0.88092 0.80249 0.0
H639 H 0.83043 0.88851 0.86113 0.0
C640 C 0.83545 0.80772 0.89102 0.0
N641 N 0.83119 0.82552 0.88426 0.0
C642 C 0.83369 0.80371 0.91057 0.0
C643 C 0.82302 0.83639 0.91569 0.0
C644 C 0.82509 0.83978 0.8961 0.0
C645 C 0.82746 0.81819 0.92316 0.0
H646 H 0.8404 0.79671 0.88127 0.0
H647 H 0.82199 0.85385 0.89032 0.0
C648 C 0.84812 0.85019 0.79491 0.0
N649 N 0.86483 0.86523 0.76221 0.0
C650 C 0.84753 0.83993 0.77766 0.0
C651 C 0.85694 0.86824 0.79542 0.0
C652 C 0.85613 0.84774 0.76131 0.0
C653 C 0.86538 0.87556 0.77877 0.0
C654 C 0.8444 0.79162 0.83634 0.0
C655 C 0.8581 0.78428 0.82368 0.0
C656 C 0.82981 0.77963 0.84315 0.0
C657 C 0.85682 0.7651 0.81783 0.0
C658 C 0.82899 0.76055 0.83692 0.0
N659 N 0.84239 0.75374 0.82448 0.0
C660 C 0.89541 0.82691 0.84117 0.0
C661 C 0.89187 0.8297 0.80746 0.0
C662 C 0.91509 0.82425 0.83923 0.0
N663 N 0.8843 0.82974 0.82545 0.0
C664 C 0.91154 0.82721 0.80485 0.0
C665 C 0.9234 0.82451 0.82088 0.0
H666 H 0.88894 0.82693 0.85528 0.0
H667 H 0.88274 0.83156 0.79514 0.0
C668 C 0.79098 0.80486 0.81466 0.0
N669 N 0.80998 0.80634 0.81073 0.0
C670 C 0.77961 0.79187 0.80453 0.0
C671 C 0.80752 0.7825 0.78622 0.0
C672 C 0.81835 0.79567 0.79672 0.0
C673 C 0.78791 0.78041 0.79018 0.0
H674 H 0.78466 0.81371 0.82569 0.0
H675 H 0.8335 0.79713 0.79394 0.0
O676 O 0.85304 0.85151 0.85262 0.0
O677 O 0.81092 0.83997 0.84344 0.0
O678 O 0.83975 0.8427 0.81104 0.0
O679 O 0.84529 0.81042 0.84204 0.0
H680 H 0.85416 0.86796 0.88688 0.0
H681 H 0.8795 0.86795 0.83058 0.0
H682 H 0.87584 0.89469 0.89602 0.0
H683 H 0.90058 0.89476 0.84062 0.0
H684 H 0.77173 0.80983 0.88605 0.0
H685 H 0.7947 0.87097 0.85838 0.0
H686 H 0.7961 0.80913 0.86016 0.0
H687 H 0.7704 0.87061 0.88434 0.0
H688 H 0.82245 0.92279 0.85942 0.0
H689 H 0.80831 0.91515 0.79946 0.0
H690 H 0.83717 0.78947 0.91577 0.0
H691 H 0.81848 0.84804 0.92495 0.0
H692 H 0.84057 0.82607 0.77688 0.0
H693 H 0.85709 0.87665 0.80844 0.0
H694 H 0.85588 0.83989 0.74791 0.0
H695 H 0.87228 0.8895 0.779 0.0
H696 H 0.86951 0.79333 0.81829 0.0
H697 H 0.81915 0.78503 0.85302 0.0
H698 H 0.86725 0.75927 0.80795 0.0
H699 H 0.8177 0.75115 0.84196 0.0
H700 H 0.92375 0.82246 0.85198 0.0
H701 H 0.91741 0.82729 0.79046 0.0
H702 H 0.76446 0.79093 0.80778 0.0
H703 H 0.81449 0.77382 0.77537 0.0
Li704 Li 0.66241 0.66326 0.66766 0.0
Li705 Li 0.65687 0.65809 0.63475 0.0
Li706 Li 0.62994 0.65734 0.65745 0.0
Li707 Li 0.65576 0.63112 0.65683 0.0
C708 C 0.64304 0.69806 0.65328 0.0
N709 N 0.63568 0.73674 0.65868 0.0
C710 C 0.6528 0.71187 0.64243 0.0
C711 C 0.62933 0.70395 0.66667 0.0
C712 C 0.64893 0.73135 0.64544 0.0
C713 C 0.62587 0.72356 0.66925 0.0
C714 C 0.6951 0.65531 0.64517 0.0
C715 C 0.72868 0.65261 0.63753 0.0
N716 N 0.72968 0.67203 0.6354 0.0
C717 C 0.69646 0.67522 0.64292 0.0
C718 C 0.71132 0.64389 0.64248 0.0
C719 C 0.71407 0.68341 0.63798 0.0
C720 C 0.69443 0.66792 0.69142 0.0
N721 N 0.67785 0.67658 0.68598 0.0
C722 C 0.68439 0.70339 0.70635 0.0
C723 C 0.67253 0.69382 0.69342 0.0
C724 C 0.70186 0.69506 0.71179 0.0
C725 C 0.70675 0.67698 0.70432 0.0
H726 H 0.69809 0.65394 0.68572 0.0
H727 H 0.65912 0.70021 0.68942 0.0
C728 C 0.65162 0.67836 0.60054 0.0
N729 N 0.66278 0.66492 0.60915 0.0
C730 C 0.65372 0.68215 0.58102 0.0
C731 C 0.67918 0.65863 0.57977 0.0
C732 C 0.67657 0.65528 0.59933 0.0
C733 C 0.66739 0.67194 0.57031 0.0
H734 H 0.64059 0.68558 0.60871 0.0
H735 H 0.68495 0.64438 0.60648 0.0
C736 C 0.64711 0.64789 0.69807 0.0
N737 N 0.65495 0.65541 0.73619 0.0
C738 C 0.661 0.63721 0.70775 0.0
C739 C 0.63704 0.66224 0.70782 0.0
C740 C 0.6648 0.64127 0.72701 0.0
C741 C 0.64126 0.66586 0.72708 0.0
C742 C 0.63335 0.63379 0.61827 0.0
C743 C 0.61881 0.643 0.60804 0.0
C744 C 0.64531 0.6207 0.6089 0.0
C745 C 0.61659 0.63908 0.58851 0.0
C746 C 0.64261 0.61716 0.58936 0.0
N747 N 0.62844 0.62637 0.57965 0.0
C748 C 0.59467 0.67457 0.64885 0.0
C749 C 0.59417 0.6532 0.67535 0.0
C750 C 0.57518 0.6783 0.65107 0.0
N751 N 0.60366 0.66219 0.6609 0.0
C752 C 0.57466 0.65649 0.6781 0.0
C753 C 0.5649 0.66912 0.6658 0.0
H754 H 0.6027 0.68157 0.63754 0.0
H755 H 0.60176 0.64336 0.68464 0.0
C756 C 0.67625 0.59828 0.66875 0.0
N757 N 0.6602 0.6046 0.65972 0.0
C758 C 0.67967 0.57857 0.6705 0.0
C759 C 0.65021 0.57244 0.65324 0.0
C760 C 0.64717 0.5922 0.65216 0.0
C761 C 0.66663 0.56548 0.66249 0.0
H762 H 0.68642 0.60855 0.67445 0.0
H763 H 0.63451 0.5977 0.64513 0.0
O764 O 0.64627 0.6789 0.65011 0.0
O765 O 0.67804 0.64691 0.65005 0.0
O766 O 0.6436 0.64452 0.67906 0.0
O767 O 0.6362 0.63795 0.63724 0.0
H768 H 0.66316 0.70763 0.63169 0.0
H769 H 0.62159 0.69354 0.67517 0.0
H770 H 0.65642 0.74217 0.63718 0.0
H771 H 0.6154 0.7283 0.67967 0.0
H772 H 0.74136 0.64395 0.6354 0.0
H773 H 0.68412 0.68426 0.64512 0.0
H774 H 0.71049 0.62843 0.6442 0.0
H775 H 0.71532 0.69882 0.63623 0.0
H776 H 0.68011 0.71737 0.71168 0.0
H777 H 0.71992 0.66989 0.70843 0.0
H778 H 0.64446 0.69265 0.5743 0.0
H779 H 0.68968 0.65023 0.57199 0.0
H780 H 0.66893 0.62607 0.70041 0.0
H781 H 0.6262 0.6706 0.70056 0.0
H782 H 0.67563 0.63322 0.73464 0.0
H783 H 0.63367 0.67702 0.73477 0.0
H784 H 0.60949 0.65323 0.61506 0.0
H785 H 0.65678 0.61362 0.61657 0.0
H786 H 0.60548 0.64621 0.58037 0.0
H787 H 0.65185 0.60718 0.58189 0.0
H788 H 0.56826 0.68831 0.64141 0.0
H789 H 0.56722 0.6489 0.68945 0.0
H790 H 0.69252 0.57362 0.67765 0.0
H791 H 0.6398 0.56268 0.64704 0.0
Li792 Li 0.33361 0.63424 0.65936 0.0
Li793 Li 0.32442 0.66696 0.66735 0.0
Li794 Li 0.33364 0.65936 0.63482 0.0
Li795 Li 0.3568 0.66004 0.6617 0.0
C796 C 0.29429 0.64315 0.65653 0.0
N797 N 0.2597 0.63144 0.67196 0.0
C798 C 0.29331 0.63683 0.67556 0.0
C799 C 0.27766 0.64355 0.64539 0.0
C800 C 0.2757 0.63097 0.68308 0.0
C801 C 0.26032 0.63755 0.65344 0.0
C802 C 0.35254 0.65048 0.69794 0.0
C803 C 0.37081 0.66961 0.72033 0.0
N804 N 0.37757 0.65324 0.72856 0.0
C805 C 0.35942 0.63387 0.70684 0.0
C806 C 0.35806 0.66849 0.70494 0.0
C807 C 0.37214 0.63556 0.72222 0.0
C808 C 0.34666 0.59775 0.66843 0.0
N809 N 0.33086 0.60721 0.66215 0.0
C810 C 0.31454 0.57747 0.65676 0.0
C811 C 0.315 0.59752 0.65619 0.0
C812 C 0.33063 0.5673 0.66334 0.0
C813 C 0.34679 0.57774 0.66938 0.0
H814 H 0.3594 0.60578 0.67216 0.0
H815 H 0.30295 0.60525 0.65034 0.0
C816 C 0.29432 0.69335 0.6731 0.0
N817 N 0.30695 0.68157 0.68207 0.0
C818 C 0.28167 0.70454 0.68379 0.0
C819 C 0.29425 0.69008 0.71268 0.0
C820 C 0.30695 0.67952 0.70144 0.0
C821 C 0.28156 0.70307 0.70392 0.0
H822 H 0.29416 0.69415 0.65762 0.0
H823 H 0.31667 0.66952 0.70816 0.0
C824 C 0.35654 0.62591 0.62849 0.0
N825 N 0.36127 0.59559 0.60333 0.0
C826 C 0.37459 0.61765 0.626 0.0
C827 C 0.34086 0.61871 0.61826 0.0
C828 C 0.3767 0.60234 0.61319 0.0
C829 C 0.34356 0.60339 0.60559 0.0
C830 C 0.33582 0.70015 0.651 0.0
C831 C 0.32493 0.70747 0.63585 0.0
C832 C 0.3401 0.71197 0.66667 0.0
C833 C 0.31813 0.72633 0.63684 0.0
C834 C 0.333 0.73073 0.66714 0.0
N835 N 0.32223 0.73746 0.65236 0.0
C836 C 0.31255 0.66643 0.60093 0.0
C837 C 0.346 0.6621 0.59676 0.0
C838 C 0.30994 0.66785 0.58113 0.0
N839 N 0.33034 0.66345 0.60825 0.0
C840 C 0.34401 0.66305 0.57689 0.0
C841 C 0.32578 0.66577 0.56891 0.0
H842 H 0.30039 0.66744 0.61049 0.0
H843 H 0.35997 0.65975 0.60304 0.0
C844 C 0.39413 0.64983 0.67145 0.0
N845 N 0.38266 0.66509 0.6676 0.0
C846 C 0.41367 0.65258 0.67447 0.0
C847 C 0.4091 0.68675 0.66984 0.0
C848 C 0.38962 0.68332 0.66693 0.0
C849 C 0.42144 0.67121 0.67339 0.0
H850 H 0.38812 0.63548 0.6717 0.0
H851 H 0.38012 0.69514 0.66371 0.0
O852 O 0.3113 0.64928 0.64888 0.0
O853 O 0.34032 0.64916 0.68263 0.0
O854 O 0.35418 0.64064 0.64128 0.0
O855 O 0.34253 0.68166 0.6503 0.0
H856 H 0.30597 0.6364 0.68445 0.0
H857 H 0.27814 0.64843 0.63066 0.0
H858 H 0.27474 0.62604 0.69777 0.0
H859 H 0.24735 0.63777 0.64497 0.0
H860 H 0.37533 0.68347 0.72574 0.0
H861 H 0.35488 0.61981 0.70208 0.0
H862 H 0.35262 0.68146 0.69848 0.0
H863 H 0.37764 0.6228 0.72916 0.0
H864 H 0.30197 0.57002 0.65148 0.0
H865 H 0.3595 0.57056 0.6746 0.0
H866 H 0.2723 0.7144 0.67632 0.0
H867 H 0.29433 0.68794 0.72806 0.0
H868 H 0.38683 0.62299 0.63393 0.0
H869 H 0.32673 0.62478 0.62021 0.0
H870 H 0.3906 0.5958 0.6111 0.0
H871 H 0.33156 0.59766 0.5976 0.0
H872 H 0.32164 0.69869 0.62352 0.0
H873 H 0.34878 0.70677 0.67836 0.0
H874 H 0.30956 0.7321 0.62528 0.0
H875 H 0.33608 0.73996 0.67926 0.0
H876 H 0.29567 0.66986 0.5754 0.0
H877 H 0.35654 0.66152 0.56785 0.0
H878 H 0.4227 0.64016 0.67686 0.0
H879 H 0.4145 0.70133 0.66904 0.0
Li880 Li 0.33791 0.3554 0.65831 0.0
Li881 Li 0.35947 0.32773 0.6611 0.0
Li882 Li 0.33469 0.32767 0.63694 0.0
Li883 Li 0.32769 0.32501 0.67107 0.0
C884 C 0.35727 0.35732 0.62349 0.0
N885 N 0.35874 0.38081 0.59158 0.0
C886 C 0.37473 0.36078 0.61431 0.0
C887 C 0.34054 0.36578 0.61643 0.0
C888 C 0.37518 0.37271 0.5982 0.0
C889 C 0.34159 0.37762 0.60029 0.0
C890 C 0.34146 0.34389 0.70046 0.0
C891 C 0.33875 0.3303 0.73219 0.0
N892 N 0.32839 0.34585 0.73786 0.0
C893 C 0.33093 0.35981 0.70666 0.0
C894 C 0.34555 0.32909 0.71338 0.0
C895 C 0.32441 0.36051 0.7256 0.0
C896 C 0.31888 0.39093 0.66229 0.0
N897 N 0.33616 0.38243 0.65948 0.0
C898 C 0.35168 0.41295 0.65745 0.0
C899 C 0.35243 0.39292 0.65719 0.0
C900 C 0.33403 0.42217 0.66033 0.0
C901 C 0.31749 0.41094 0.66288 0.0
H902 H 0.30622 0.38215 0.66414 0.0
H903 H 0.36597 0.38569 0.65506 0.0
C904 C 0.39597 0.31619 0.6495 0.0
N905 N 0.38544 0.32123 0.66509 0.0
C906 C 0.41546 0.31232 0.65141 0.0
C907 C 0.41279 0.31861 0.68544 0.0
C908 C 0.39334 0.3224 0.68286 0.0
C909 C 0.42417 0.31373 0.66953 0.0
H910 H 0.38925 0.31555 0.63553 0.0
H911 H 0.38461 0.32658 0.69496 0.0
C912 C 0.2964 0.3343 0.64783 0.0
N913 N 0.26025 0.31994 0.6402 0.0
C914 C 0.29334 0.31443 0.64689 0.0
C915 C 0.28105 0.34684 0.64493 0.0
C916 C 0.27496 0.30746 0.64302 0.0
C917 C 0.2629 0.3393 0.64106 0.0
C918 C 0.35368 0.2911 0.65518 0.0
C919 C 0.35838 0.28122 0.63837 0.0
C920 C 0.36162 0.28524 0.67262 0.0
C921 C 0.37134 0.26596 0.63921 0.0
C922 C 0.37455 0.26994 0.67288 0.0
N923 N 0.37913 0.2607 0.6563 0.0
C924 C 0.34572 0.31611 0.6006 0.0
C925 C 0.31258 0.32324 0.60205 0.0
C926 C 0.34456 0.31296 0.58088 0.0
N927 N 0.32988 0.32114 0.61076 0.0
C928 C 0.31075 0.32015 0.58235 0.0
C929 C 0.32693 0.31515 0.57146 0.0
H930 H 0.35942 0.31518 0.60776 0.0
H931 H 0.30027 0.32791 0.6101 0.0
C932 C 0.29675 0.3254 0.69683 0.0
N933 N 0.31063 0.31408 0.68913 0.0
C934 C 0.28386 0.31781 0.71012 0.0
C935 C 0.29965 0.28702 0.707 0.0
C936 C 0.31223 0.29522 0.69381 0.0
C937 C 0.28525 0.29837 0.71537 0.0
H938 H 0.29574 0.34033 0.69263 0.0
H939 H 0.32315 0.28649 0.68716 0.0
O940 O 0.35663 0.34544 0.63912 0.0
O941 O 0.34765 0.34279 0.68185 0.0
O942 O 0.31416 0.34154 0.65198 0.0
O943 O 0.34121 0.30628 0.6546 0.0
H944 H 0.38778 0.35426 0.61956 0.0
H945 H 0.32687 0.36319 0.62328 0.0
H946 H 0.3886 0.37552 0.59094 0.0
H947 H 0.32876 0.38424 0.59467 0.0
H948 H 0.34166 0.31887 0.74228 0.0
H949 H 0.32768 0.37144 0.69694 0.0
H950 H 0.35369 0.31668 0.70891 0.0
H951 H 0.31615 0.3727 0.73054 0.0
H952 H 0.36477 0.42113 0.65564 0.0
H953 H 0.30362 0.41756 0.66501 0.0
H954 H 0.42373 0.30893 0.6387 0.0
H955 H 0.41888 0.3197 0.69968 0.0
H956 H 0.30498 0.30445 0.64907 0.0
H957 H 0.28315 0.36224 0.64563 0.0
H958 H 0.2724 0.29214 0.64224 0.0
H959 H 0.2509 0.34885 0.63876 0.0
H960 H 0.35201 0.28516 0.62483 0.0
H961 H 0.35807 0.29261 0.68579 0.0
H962 H 0.37517 0.25825 0.62628 0.0
H963 H 0.38097 0.26542 0.68625 0.0
H964 H 0.35751 0.30958 0.57301 0.0
H965 H 0.29686 0.32196 0.57568 0.0
H966 H 0.27304 0.32707 0.7163 0.0
H967 H 0.30096 0.27187 0.71034 0.0
Li968 Li 0.63236 0.33236 0.65497 0.0
Li969 Li 0.66511 0.32248 0.66199 0.0
Li970 Li 0.65719 0.35641 0.65355 0.0
Li971 Li 0.65714 0.33142 0.6288 0.0
C972 C 0.63733 0.34077 0.69193 0.0
N973 N 0.61299 0.33933 0.72317 0.0
C974 C 0.63913 0.32606 0.70546 0.0
C975 C 0.62332 0.35488 0.69441 0.0
C976 C 0.62665 0.32555 0.72113 0.0
C977 C 0.61109 0.35385 0.71026 0.0
C978 C 0.64801 0.29071 0.64159 0.0
C979 C 0.66362 0.26346 0.62699 0.0
N980 N 0.65087 0.25151 0.63572 0.0
C981 C 0.6349 0.27818 0.6502 0.0
C982 C 0.66235 0.28332 0.6297 0.0
C983 C 0.63666 0.2584 0.64715 0.0
C984 C 0.59319 0.33606 0.64818 0.0
N985 N 0.60607 0.32741 0.65992 0.0
C986 C 0.58095 0.31121 0.67676 0.0
C987 C 0.6004 0.31507 0.67396 0.0
C988 C 0.56735 0.31988 0.66474 0.0
C989 C 0.57367 0.3325 0.65036 0.0
H990 H 0.59808 0.34555 0.63694 0.0
H991 H 0.61096 0.30801 0.6828 0.0
C992 C 0.69811 0.31418 0.68293 0.0
N993 N 0.68093 0.30682 0.6774 0.0
C994 C 0.71051 0.30327 0.69417 0.0
C995 C 0.6871 0.27758 0.69413 0.0
C996 C 0.67514 0.28902 0.68296 0.0
C997 C 0.70507 0.28467 0.6998 0.0
H998 H 0.70219 0.32852 0.67852 0.0
H999 H 0.66116 0.28377 0.67897 0.0
C1000 C 0.63221 0.36861 0.62708 0.0
N1001 N 0.62282 0.40464 0.61335 0.0
C1002 C 0.63833 0.37437 0.60887 0.0
C1003 C 0.62109 0.38106 0.63819 0.0
C1004 C 0.63347 0.39267 0.6022 0.0
C1005 C 0.61657 0.39925 0.63104 0.0
C1006 C 0.69671 0.33778 0.63681 0.0
C1007 C 0.70763 0.35356 0.63087 0.0
C1008 C 0.7042 0.31924 0.63504 0.0
C1009 C 0.72574 0.35048 0.62289 0.0
C1010 C 0.72237 0.31676 0.62702 0.0
N1011 N 0.73266 0.3323 0.62113 0.0
C1012 C 0.66115 0.39043 0.67555 0.0
C1013 C 0.66954 0.39319 0.64273 0.0
C1014 C 0.66468 0.40999 0.67843 0.0
N1015 N 0.66336 0.38256 0.65785 0.0
C1016 C 0.67294 0.41282 0.64485 0.0
C1017 C 0.67037 0.42156 0.66287 0.0
H1018 H 0.65649 0.38155 0.6874 0.0
H1019 H 0.6714 0.38647 0.62886 0.0
C1020 C 0.6475 0.31462 0.59393 0.0
N1021 N 0.66071 0.32619 0.60243 0.0
C1022 C 0.64807 0.31149 0.57418 0.0
C1023 C 0.67602 0.332 0.57236 0.0
C1024 C 0.67486 0.3348 0.59214 0.0
C1025 C 0.66233 0.32044 0.56312 0.0
H1026 H 0.63624 0.3082 0.60248 0.0
H1027 H 0.68479 0.34443 0.59911 0.0
O1028 O 0.64933 0.34143 0.67643 0.0
O1029 O 0.64641 0.31013 0.64439 0.0
O1030 O 0.63703 0.35084 0.63395 0.0
O1031 O 0.67895 0.34059 0.64465 0.0
H1032 H 0.64997 0.31509 0.70383 0.0
H1033 H 0.62184 0.36645 0.68417 0.0
H1034 H 0.62782 0.3142 0.73166 0.0
H1035 H 0.6001 0.36461 0.71229 0.0
H1036 H 0.67468 0.25755 0.61786 0.0
H1037 H 0.62358 0.28364 0.65927 0.0
H1038 H 0.67225 0.29279 0.62243 0.0
H1039 H 0.6267 0.24853 0.65385 0.0
H1040 H 0.57664 0.30122 0.68788 0.0
H1041 H 0.56361 0.33962 0.64091 0.0
H1042 H 0.72427 0.30923 0.69822 0.0
H1043 H 0.68222 0.26346 0.69855 0.0
H1044 H 0.64684 0.36489 0.60003 0.0
H1045 H 0.61611 0.37676 0.65224 0.0
H1046 H 0.63821 0.39736 0.58819 0.0
H1047 H 0.6081 0.40909 0.63954 0.0
H1048 H 0.70216 0.36802 0.63231 0.0
H1049 H 0.69622 0.30691 0.64004 0.0
H1050 H 0.73429 0.36256 0.61812 0.0
H1051 H 0.72832 0.30248 0.62556 0.0
H1052 H 0.66288 0.41597 0.69266 0.0
H1053 H 0.67698 0.42109 0.63234 0.0
H1054 H 0.6373 0.3024 0.5676 0.0
H1055 H 0.68701 0.33947 0.56428 0.0
Li1056 Li 0.65794 0.36243 0.32772 0.0
Li1057 Li 0.65437 0.33821 0.35306 0.0
Li1058 Li 0.66777 0.33022 0.32204 0.0
Li1059 Li 0.63362 0.33712 0.32519 0.0
C1060 C 0.69682 0.34307 0.34177 0.0
N1061 N 0.73432 0.33051 0.34144 0.0
C1062 C 0.70322 0.3302 0.35575 0.0
C1063 C 0.7095 0.34967 0.32772 0.0
C1064 C 0.72224 0.324 0.35532 0.0
C1065 C 0.7284 0.3431 0.32776 0.0
C1066 C 0.6285 0.36491 0.36105 0.0
C1067 C 0.60792 0.36212 0.3887 0.0
N1068 N 0.61505 0.37898 0.39557 0.0
C1069 C 0.63554 0.38228 0.3683 0.0
C1070 C 0.61449 0.35479 0.37123 0.0
C1071 C 0.62858 0.38914 0.38581 0.0
C1072 C 0.64647 0.39907 0.31676 0.0
N1073 N 0.66174 0.38898 0.32335 0.0
C1074 C 0.68037 0.41769 0.32592 0.0
C1075 C 0.67854 0.39777 0.32785 0.0
C1076 C 0.66476 0.42857 0.31924 0.0
C1077 C 0.64775 0.4189 0.31432 0.0
H1078 H 0.63318 0.39169 0.31366 0.0
H1079 H 0.69031 0.3894 0.33344 0.0
C1080 C 0.6514 0.31629 0.38703 0.0
N1081 N 0.65618 0.33377 0.37976 0.0
C1082 C 0.6528 0.31287 0.4067 0.0
C1083 C 0.66434 0.34541 0.41091 0.0
C1084 C 0.66284 0.34814 0.39116 0.0
C1085 C 0.65923 0.32758 0.41894 0.0
H1086 H 0.64669 0.30494 0.37757 0.0
H1087 H 0.66695 0.36175 0.38488 0.0
C1088 C 0.65068 0.35909 0.29063 0.0
N1089 N 0.64858 0.38668 0.26221 0.0
C1090 C 0.63299 0.3639 0.28259 0.0
C1091 C 0.66733 0.36818 0.28409 0.0
C1092 C 0.63223 0.37791 0.26826 0.0
C1093 C 0.66596 0.38214 0.26975 0.0
C1094 C 0.63702 0.29999 0.33519 0.0
C1095 C 0.64126 0.28599 0.32143 0.0
C1096 C 0.62081 0.29785 0.34678 0.0
C1097 C 0.62915 0.27009 0.31947 0.0
C1098 C 0.60903 0.28177 0.34434 0.0
N1099 N 0.61342 0.26834 0.33086 0.0
C1100 C 0.69219 0.29857 0.31989 0.0
C1101 C 0.69193 0.31805 0.29196 0.0
C1102 C 0.70514 0.28593 0.31141 0.0
N1103 N 0.68584 0.31415 0.31004 0.0
C1104 C 0.70496 0.30586 0.28296 0.0
C1105 C 0.71157 0.28948 0.29266 0.0
H1106 H 0.687 0.29588 0.33427 0.0
H1107 H 0.68649 0.33047 0.28446 0.0
C1108 C 0.59522 0.34596 0.32199 0.0
N1109 N 0.60822 0.33245 0.3167 0.0
C1110 C 0.57606 0.34395 0.31689 0.0
C1111 C 0.58392 0.31418 0.30077 0.0
C1112 C 0.6031 0.31702 0.30582 0.0
C1113 C 0.57022 0.32778 0.30639 0.0
H1114 H 0.59974 0.35833 0.33023 0.0
H1115 H 0.61382 0.30685 0.30118 0.0
O1116 O 0.67814 0.34893 0.34166 0.0
O1117 O 0.63534 0.35779 0.34409 0.0
O1118 O 0.65169 0.34556 0.30483 0.0
O1119 O 0.64872 0.31565 0.33735 0.0
H1120 H 0.69356 0.32489 0.36668 0.0
H1121 H 0.70474 0.35958 0.31676 0.0
H1122 H 0.72738 0.31396 0.36598 0.0
H1123 H 0.73835 0.34798 0.31689 0.0
H1124 H 0.59716 0.35438 0.3968 0.0
H1125 H 0.64641 0.39028 0.36062 0.0
H1126 H 0.60883 0.34139 0.36575 0.0
H1127 H 0.63397 0.4025 0.39166 0.0
H1128 H 0.69365 0.42451 0.33022 0.0
H1129 H 0.63544 0.42656 0.30883 0.0
H1130 H 0.6491 0.29878 0.4122 0.0
H1131 H 0.66921 0.35722 0.4198 0.0
H1132 H 0.61997 0.35697 0.28741 0.0
H1133 H 0.68112 0.36472 0.29023 0.0
H1134 H 0.61863 0.38184 0.26197 0.0
H1135 H 0.6787 0.3894 0.26467 0.0
H1136 H 0.65365 0.28746 0.31222 0.0
H1137 H 0.61728 0.30857 0.35745 0.0
H1138 H 0.63223 0.25918 0.30885 0.0
H1139 H 0.59639 0.27999 0.35315 0.0
H1140 H 0.71002 0.27351 0.31938 0.0
H1141 H 0.70941 0.30893 0.26839 0.0
H1142 H 0.56582 0.35468 0.32154 0.0
H1143 H 0.57985 0.30162 0.29252 0.0
Li1144 Li 0.65769 0.66286 0.36052 0.0
Li1145 Li 0.65794 0.63836 0.33565 0.0
Li1146 Li 0.6634 0.67226 0.32911 0.0
Li1147 Li 0.63151 0.66268 0.33677 0.0
C1148 C 0.6938 0.65495 0.35757 0.0
N1149 N 0.72178 0.65586 0.38559 0.0
C1150 C 0.70172 0.63784 0.3644 0.0
C1151 C 0.70039 0.67254 0.36473 0.0
C1152 C 0.71579 0.63859 0.37863 0.0
C1153 C 0.71446 0.6727 0.37897 0.0
C1154 C 0.62524 0.62807 0.35664 0.0
C1155 C 0.60465 0.60533 0.34054 0.0
N1156 N 0.59836 0.59889 0.35786 0.0
C1157 C 0.61859 0.62123 0.37427 0.0
C1158 C 0.61824 0.62007 0.33962 0.0
C1159 C 0.60499 0.60647 0.37459 0.0
C1160 C 0.6622 0.68452 0.39452 0.0
N1161 N 0.66257 0.66654 0.38693 0.0
C1162 C 0.66862 0.65279 0.41767 0.0
C1163 C 0.66574 0.65079 0.39798 0.0
C1164 C 0.66808 0.67119 0.42603 0.0
C1165 C 0.665 0.68721 0.41415 0.0
H1166 H 0.65948 0.69675 0.38539 0.0
H1167 H 0.66577 0.63665 0.39148 0.0
C1168 C 0.66086 0.60517 0.31224 0.0
N1169 N 0.66288 0.61216 0.33034 0.0
C1170 C 0.66301 0.58554 0.30868 0.0
C1171 C 0.66941 0.58075 0.34244 0.0
C1172 C 0.66693 0.60043 0.34537 0.0
C1173 C 0.66729 0.57309 0.32393 0.0
H1174 H 0.65708 0.61474 0.30065 0.0
H1175 H 0.66774 0.60632 0.35971 0.0
C1176 C 0.64544 0.70363 0.34188 0.0
N1177 N 0.6452 0.74167 0.33039 0.0
C1178 C 0.63032 0.71071 0.3308 0.0
C1179 C 0.66034 0.71597 0.34725 0.0
C1180 C 0.63047 0.72997 0.32512 0.0
C1181 C 0.65999 0.73512 0.34124 0.0
C1182 C 0.65145 0.65803 0.29612 0.0
C1183 C 0.639 0.66842 0.28435 0.0
C1184 C 0.6693 0.65231 0.28905 0.0
C1185 C 0.64469 0.673 0.26568 0.0
C1186 C 0.67446 0.65721 0.27032 0.0
N1187 N 0.66215 0.66736 0.25912 0.0
C1188 C 0.6975 0.68823 0.31483 0.0
C1189 C 0.66957 0.70208 0.3014 0.0
C1190 C 0.7091 0.70049 0.30411 0.0
N1191 N 0.67812 0.68938 0.31349 0.0
C1192 C 0.68063 0.71458 0.29034 0.0
C1193 C 0.70067 0.71394 0.29175 0.0
H1194 H 0.70399 0.6777 0.32413 0.0
H1195 H 0.65416 0.70254 0.3003 0.0
C1196 C 0.59534 0.67474 0.3483 0.0
N1197 N 0.60485 0.66573 0.33387 0.0
C1198 C 0.5755 0.67677 0.34749 0.0
C1199 C 0.57563 0.66015 0.31698 0.0
C1200 C 0.59551 0.65849 0.31837 0.0
C1201 C 0.56536 0.6693 0.33174 0.0
H1202 H 0.60324 0.68026 0.36047 0.0
H1203 H 0.60345 0.65111 0.30728 0.0
O1204 O 0.67973 0.65453 0.34388 0.0
O1205 O 0.63862 0.64245 0.35616 0.0
O1206 O 0.6455 0.6848 0.34762 0.0
O1207 O 0.64628 0.65365 0.31453 0.0
H1208 H 0.69712 0.62412 0.35877 0.0
H1209 H 0.69455 0.68592 0.35949 0.0
H1210 H 0.72196 0.62544 0.38413 0.0
H1211 H 0.71954 0.68621 0.38477 0.0
H1212 H 0.59912 0.599 0.32748 0.0
H1213 H 0.62392 0.62726 0.38757 0.0
H1214 H 0.62327 0.62512 0.32584 0.0
H1215 H 0.59971 0.60103 0.38813 0.0
H1216 H 0.67064 0.64004 0.42633 0.0
H1217 H 0.66465 0.70164 0.41998 0.0
H1218 H 0.66117 0.58012 0.29423 0.0
H1219 H 0.67228 0.57154 0.35463 0.0
H1220 H 0.61871 0.70142 0.32639 0.0
H1221 H 0.67213 0.71081 0.35583 0.0
H1222 H 0.61893 0.7356 0.31646 0.0
H1223 H 0.6715 0.74478 0.34519 0.0
H1224 H 0.62522 0.67313 0.28966 0.0
H1225 H 0.67915 0.6444 0.29806 0.0
H1226 H 0.63525 0.68112 0.25644 0.0
H1227 H 0.68828 0.65299 0.2647 0.0
H1228 H 0.72452 0.69926 0.30529 0.0
H1229 H 0.67358 0.72478 0.28099 0.0
H1230 H 0.56819 0.68412 0.35906 0.0
H1231 H 0.56836 0.65392 0.30475 0.0
Li1232 Li 0.33018 0.6538 0.35944 0.0
Li1233 Li 0.33268 0.63033 0.33315 0.0
Li1234 Li 0.35533 0.6567 0.33523 0.0
Li1235 Li 0.32189 0.66162 0.32697 0.0
C1236 C 0.36539 0.6363 0.36746 0.0
N1237 N 0.39378 0.63759 0.39501 0.0
C1238 C 0.3751 0.61954 0.37261 0.0
C1239 C 0.37014 0.65374 0.37627 0.0
C1240 C 0.38941 0.62049 0.38659 0.0
C1241 C 0.38453 0.65409 0.39018 0.0
C1242 C 0.2906 0.64717 0.34178 0.0
C1243 C 0.26093 0.64575 0.3241 0.0
N1244 N 0.25284 0.658 0.33696 0.0
C1245 C 0.28193 0.6596 0.35492 0.0
C1246 C 0.27997 0.64004 0.32633 0.0
C1247 C 0.26284 0.66495 0.35221 0.0
C1248 C 0.32002 0.67408 0.39322 0.0
N1249 N 0.32489 0.65669 0.38583 0.0
C1250 C 0.32427 0.64239 0.4169 0.0
C1251 C 0.32681 0.64093 0.39713 0.0
C1252 C 0.31939 0.66021 0.42511 0.0
C1253 C 0.31706 0.67616 0.41293 0.0
H1254 H 0.3185 0.68633 0.3838 0.0
H1255 H 0.33075 0.6273 0.39079 0.0
C1256 C 0.34687 0.59445 0.32164 0.0
N1257 N 0.33092 0.60378 0.32775 0.0
C1258 C 0.34636 0.57469 0.31836 0.0
C1259 C 0.31306 0.57449 0.32799 0.0
C1260 C 0.31417 0.59432 0.33087 0.0
C1261 C 0.32935 0.56437 0.3218 0.0
H1262 H 0.36003 0.60239 0.31947 0.0
H1263 H 0.3018 0.60212 0.336 0.0
C1264 C 0.34191 0.69474 0.33761 0.0
N1265 N 0.34993 0.7304 0.32204 0.0
C1266 C 0.34713 0.69637 0.3183 0.0
C1267 C 0.34075 0.71126 0.34897 0.0
C1268 C 0.35112 0.71452 0.3107 0.0
C1269 C 0.34488 0.72915 0.34084 0.0
C1270 C 0.34307 0.63554 0.29676 0.0
C1271 C 0.36071 0.63303 0.28762 0.0
C1272 C 0.32697 0.62572 0.28995 0.0
C1273 C 0.36205 0.62034 0.27213 0.0
C1274 C 0.32888 0.61313 0.27444 0.0
N1275 N 0.34624 0.6107 0.26594 0.0
C1276 C 0.39286 0.64764 0.3266 0.0
C1277 C 0.38949 0.68004 0.3366 0.0
C1278 C 0.41264 0.64985 0.32501 0.0
N1279 N 0.38172 0.66266 0.33209 0.0
C1280 C 0.40924 0.68289 0.33525 0.0
C1281 C 0.42108 0.66765 0.32942 0.0
H1282 H 0.38635 0.63377 0.32388 0.0
H1283 H 0.38051 0.69158 0.3417 0.0
C1284 C 0.2956 0.69157 0.32061 0.0
N1285 N 0.30545 0.67712 0.31199 0.0
C1286 C 0.28426 0.70391 0.30971 0.0
C1287 C 0.29363 0.68632 0.28127 0.0
C1288 C 0.3047 0.6743 0.29273 0.0
C1289 C 0.28328 0.70142 0.28973 0.0
H1290 H 0.29678 0.69367 0.33594 0.0
H1291 H 0.31305 0.66303 0.28619 0.0
O1292 O 0.35151 0.63559 0.35362 0.0
O1293 O 0.30938 0.64204 0.34402 0.0
O1294 O 0.33755 0.67719 0.34537 0.0
O1295 O 0.34153 0.64782 0.31207 0.0
H1296 H 0.37164 0.60596 0.36584 0.0
H1297 H 0.36286 0.66689 0.37237 0.0
H1298 H 0.39704 0.60763 0.39074 0.0
H1299 H 0.38835 0.66747 0.39711 0.0
H1300 H 0.25258 0.64044 0.31214 0.0
H1301 H 0.28989 0.66523 0.36697 0.0
H1302 H 0.28634 0.63023 0.31614 0.0
H1303 H 0.256 0.67467 0.3622 0.0
H1304 H 0.32662 0.62977 0.42566 0.0
H1305 H 0.31303 0.6901 0.41853 0.0
H1306 H 0.35919 0.56757 0.31331 0.0
H1307 H 0.29975 0.56713 0.33116 0.0
H1308 H 0.3481 0.68381 0.30923 0.0
H1309 H 0.33669 0.71027 0.36393 0.0
H1310 H 0.35517 0.71598 0.29579 0.0
H1311 H 0.34404 0.74205 0.34948 0.0
H1312 H 0.37322 0.64092 0.29227 0.0
H1313 H 0.31318 0.62764 0.2967 0.0
H1314 H 0.37563 0.6182 0.26498 0.0
H1315 H 0.31655 0.60529 0.26918 0.0
H1316 H 0.42127 0.63758 0.32096 0.0
H1317 H 0.41519 0.69683 0.33885 0.0
H1318 H 0.27641 0.71528 0.31682 0.0
H1319 H 0.29362 0.68413 0.26589 0.0
Li1320 Li 0.33874 0.35492 0.33629 0.0
Li1321 Li 0.33973 0.33084 0.36179 0.0
Li1322 Li 0.36389 0.33121 0.33483 0.0
Li1323 Li 0.33112 0.3205 0.32928 0.0
C1324 C 0.36403 0.36876 0.3612 0.0
N1325 N 0.37246 0.40597 0.37238 0.0
C1326 C 0.35742 0.37576 0.37879 0.0
C1327 C 0.3752 0.38059 0.34944 0.0
C1328 C 0.36178 0.39463 0.38416 0.0
C1329 C 0.37921 0.39939 0.35529 0.0
C1330 C 0.30043 0.33635 0.35585 0.0
C1331 C 0.2765 0.31535 0.36951 0.0
N1332 N 0.2664 0.33097 0.37544 0.0
C1333 C 0.28968 0.35219 0.36187 0.0
C1334 C 0.29368 0.31779 0.35952 0.0
C1335 C 0.27257 0.34917 0.37184 0.0
C1336 C 0.33635 0.38808 0.31312 0.0
N1337 N 0.33262 0.38094 0.33087 0.0
C1338 C 0.32303 0.41192 0.34204 0.0
C1339 C 0.32571 0.3923 0.34514 0.0
C1340 C 0.32756 0.41985 0.32408 0.0
C1341 C 0.33399 0.40763 0.3094 0.0
H1342 H 0.34152 0.37869 0.30193 0.0
H1343 H 0.32292 0.38624 0.35914 0.0
C1344 C 0.34656 0.31204 0.39676 0.0
N1345 N 0.33608 0.32615 0.38834 0.0
C1346 C 0.34456 0.30828 0.41632 0.0
C1347 C 0.32125 0.33388 0.41824 0.0
C1348 C 0.32366 0.33709 0.39864 0.0
C1349 C 0.33181 0.31933 0.42734 0.0
H1350 H 0.35658 0.30378 0.38828 0.0
H1351 H 0.31597 0.34863 0.39175 0.0
C1352 C 0.35717 0.33895 0.29752 0.0
N1353 N 0.37954 0.33835 0.26478 0.0
C1354 C 0.35401 0.32503 0.28339 0.0
C1355 C 0.37154 0.35273 0.29485 0.0
C1356 C 0.36551 0.32493 0.26697 0.0
C1357 C 0.38274 0.35214 0.27825 0.0
C1358 C 0.34958 0.28946 0.34789 0.0
C1359 C 0.36276 0.27815 0.33788 0.0
C1360 C 0.33585 0.28058 0.35951 0.0
C1361 C 0.36163 0.25814 0.3392 0.0
C1362 C 0.33518 0.26052 0.36048 0.0
N1363 N 0.34796 0.24981 0.35036 0.0
C1364 C 0.40324 0.3366 0.33919 0.0
C1365 C 0.39522 0.31585 0.31341 0.0
C1366 C 0.42259 0.33548 0.3345 0.0
N1367 N 0.39 0.32715 0.32846 0.0
C1368 C 0.41446 0.3144 0.30812 0.0
C1369 C 0.4284 0.32455 0.31856 0.0
H1370 H 0.39873 0.34519 0.35129 0.0
H1371 H 0.38443 0.3083 0.30523 0.0
C1372 C 0.29682 0.30884 0.31201 0.0
N1373 N 0.3154 0.30378 0.31479 0.0
C1374 C 0.28474 0.29713 0.3012 0.0
C1375 C 0.31131 0.27554 0.29575 0.0
C1376 C 0.32284 0.2876 0.30681 0.0
C1377 C 0.292 0.28026 0.2929 0.0
H1378 H 0.29144 0.3221 0.31802 0.0
H1379 H 0.33781 0.28428 0.30861 0.0
O1380 O 0.35958 0.35044 0.35552 0.0
O1381 O 0.31731 0.33907 0.34621 0.0
O1382 O 0.34612 0.33918 0.31376 0.0
O1383 O 0.35056 0.30911 0.34679 0.0
H1384 H 0.3489 0.36679 0.38814 0.0
H1385 H 0.38063 0.37536 0.3359 0.0
H1386 H 0.35663 0.40027 0.39767 0.0
H1387 H 0.3877 0.40875 0.34625 0.0
H1388 H 0.27115 0.30105 0.37247 0.0
H1389 H 0.29451 0.36667 0.35894 0.0
H1390 H 0.30147 0.30539 0.35447 0.0
H1391 H 0.26418 0.36131 0.37668 0.0
H1392 H 0.31822 0.4209 0.35379 0.0
H1393 H 0.3374 0.41319 0.29529 0.0
H1394 H 0.35291 0.29686 0.42271 0.0
H1395 H 0.31161 0.34305 0.42625 0.0
H1396 H 0.34281 0.31443 0.28503 0.0
H1397 H 0.37412 0.36368 0.30554 0.0
H1398 H 0.36327 0.31418 0.25597 0.0
H1399 H 0.394 0.36262 0.2761 0.0
H1400 H 0.37367 0.28473 0.32905 0.0
H1401 H 0.32597 0.28903 0.36793 0.0
H1402 H 0.37164 0.24923 0.33138 0.0
H1403 H 0.32458 0.25348 0.36937 0.0
H1404 H 0.4329 0.34315 0.34325 0.0
H1405 H 0.41829 0.30586 0.29571 0.0
H1406 H 0.27 0.30144 0.29899 0.0
H1407 H 0.31743 0.26267 0.2895 0.0
H1408 H 0.30034 0.26483 0.25795 0.0
H1409 H 0.25567 0.26817 0.30071 0.0
H1410 H 0.27942 0.24567 0.23747 0.0
H1411 H 0.23481 0.24867 0.28043 0.0
H1412 H 0.19603 0.23311 0.23019 0.0
H1413 H 0.21729 0.25153 0.25088 0.0
H1414 H 0.26444 0.21457 0.23504 0.0
H1415 H 0.24339 0.1968 0.21351 0.0
C1416 C 0.28612 0.26122 0.26306 0.0
C1417 C 0.27958 0.26799 0.28087 0.0
C1418 C 0.27415 0.25023 0.25136 0.0
C1419 C 0.25544 0.24569 0.25731 0.0
C1420 C 0.24903 0.25222 0.27529 0.0
C1421 C 0.26096 0.26332 0.28692 0.0
C1422 C 0.21098 0.22906 0.23094 0.0
C1423 C 0.21804 0.21354 0.22015 0.0
C1424 C 0.22311 0.23945 0.24301 0.0
C1425 C 0.24254 0.23447 0.24465 0.0
C1426 C 0.24958 0.21889 0.23394 0.0
C1427 C 0.23747 0.20856 0.22178 0.0
H1428 H 0.7088 0.25039 0.29196 0.0
H1429 H 0.74328 0.29769 0.27128 0.0
H1430 H 0.72882 0.22784 0.2741 0.0
H1431 H 0.76305 0.27519 0.25311 0.0
H1432 H 0.80434 0.22747 0.23615 0.0
H1433 H 0.78622 0.24823 0.25775 0.0
H1434 H 0.7336 0.2213 0.23918 0.0
H1435 H 0.75161 0.20075 0.21738 0.0
C1436 C 0.7208 0.25592 0.28377 0.0
C1437 C 0.72448 0.27577 0.28292 0.0
C1438 C 0.73212 0.24305 0.27344 0.0
C1439 C 0.74741 0.24979 0.26218 0.0
C1440 C 0.75144 0.26959 0.2618 0.0
C1441 C 0.74004 0.28247 0.27203 0.0
C1442 C 0.7889 0.22603 0.23663 0.0
C1443 C 0.77939 0.21256 0.22496 0.0
C1444 C 0.77856 0.23787 0.24903 0.0
C1445 C 0.75853 0.23638 0.25009 0.0
C1446 C 0.74906 0.22257 0.23883 0.0
C1447 C 0.75939 0.2108 0.22636 0.0
H1448 H 0.79795 0.76843 0.23831 0.0
H1449 H 0.74983 0.79466 0.20952 0.0
H1450 H 0.77602 0.75026 0.25857 0.0
H1451 H 0.72787 0.77706 0.23035 0.0
H1452 H 0.69661 0.72339 0.25396 0.0
H1453 H 0.71754 0.74378 0.23466 0.0
H1454 H 0.75296 0.75451 0.28438 0.0
H1455 H 0.7321 0.73401 0.30362 0.0
C1456 C 0.78269 0.77037 0.23638 0.0
C1457 C 0.77561 0.7829 0.22227 0.0
C1458 C 0.77012 0.76014 0.24813 0.0
C1459 C 0.75022 0.76224 0.24605 0.0
C1460 C 0.74314 0.775 0.23216 0.0
C1461 C 0.75571 0.78524 0.22039 0.0
C1462 C 0.70874 0.73031 0.2608 0.0
C1463 C 0.7128 0.72704 0.28025 0.0
C1464 C 0.72071 0.742 0.24977 0.0
C1465 C 0.73694 0.75069 0.258 0.0
C1466 C 0.74075 0.74775 0.27756 0.0
C1467 C 0.72881 0.73602 0.28857 0.0
H1468 H 0.26099 0.69264 0.25871 0.0
H1469 H 0.28035 0.7405 0.2933 0.0
H1470 H 0.24408 0.71483 0.23767 0.0
H1471 H 0.2631 0.76264 0.27239 0.0
H1472 H 0.21181 0.79174 0.24128 0.0
H1473 H 0.22922 0.7705 0.26295 0.0
H1474 H 0.25336 0.74063 0.2143 0.0
H1475 H 0.23626 0.76204 0.1926 0.0
C1476 C 0.26168 0.70789 0.26179 0.0
C1477 C 0.27208 0.71481 0.27762 0.0
C1478 C 0.252 0.72058 0.24975 0.0
C1479 C 0.25241 0.74044 0.25336 0.0
C1480 C 0.26244 0.74737 0.26939 0.0
C1481 C 0.27224 0.73468 0.28138 0.0
C1482 C 0.22108 0.78086 0.2352 0.0
C1483 C 0.22262 0.77854 0.21522 0.0
C1484 C 0.23098 0.76867 0.24761 0.0
C1485 C 0.2425 0.75386 0.24028 0.0
C1486 C 0.24431 0.75173 0.22033 0.0
C1487 C 0.23451 0.76398 0.20792 0.0
H1488 H 0.24505 0.71507 0.69517 0.0
H1489 H 0.28839 0.7186 0.73947 0.0
H1490 H 0.22427 0.73587 0.71423 0.0
H1491 H 0.26695 0.73827 0.75882 0.0
H1492 H 0.20908 0.75204 0.79247 0.0
H1493 H 0.22902 0.73094 0.77292 0.0
H1494 H 0.23153 0.77408 0.72861 0.0
H1495 H 0.21268 0.79586 0.74849 0.0
C1496 C 0.25021 0.72024 0.70888 0.0
C1497 C 0.26849 0.71512 0.71571 0.0
C1498 C 0.23822 0.732 0.7198 0.0
C1499 C 0.24411 0.73846 0.7379 0.0
C1500 C 0.26213 0.7332 0.74493 0.0
C1501 C 0.2743 0.72182 0.73387 0.0
C1502 C 0.21407 0.75723 0.77871 0.0
C1503 C 0.20933 0.77579 0.77218 0.0
C1504 C 0.22532 0.74505 0.76749 0.0
C1505 C 0.23164 0.751 0.74938 0.0
C1506 C 0.22659 0.76922 0.74253 0.0
C1507 C 0.2157 0.78159 0.7539 0.0
H1508 H 0.18998 0.23455 0.76016 0.0
H1509 H 0.22759 0.23883 0.80914 0.0
H1510 H 0.21086 0.25615 0.7422 0.0
H1511 H 0.24834 0.26075 0.79135 0.0
H1512 H 0.29301 0.27314 0.74425 0.0
H1513 H 0.27028 0.25672 0.76501 0.0
H1514 H 0.2238 0.28832 0.73899 0.0
H1515 H 0.24654 0.30413 0.71756 0.0
C1516 C 0.20249 0.24048 0.76721 0.0
C1517 C 0.2073 0.23489 0.78594 0.0
C1518 C 0.21444 0.25289 0.75696 0.0
C1519 C 0.23136 0.26003 0.7653 0.0
C1520 C 0.23561 0.25518 0.78439 0.0
C1521 C 0.22374 0.24268 0.79459 0.0
C1522 C 0.27794 0.27655 0.74294 0.0
C1523 C 0.27155 0.28977 0.72914 0.0
C1524 C 0.26492 0.26735 0.75502 0.0
C1525 C 0.24521 0.27121 0.75364 0.0
C1526 C 0.23887 0.2849 0.74026 0.0
C1527 C 0.25192 0.29409 0.72813 0.0
H1528 H 0.79498 0.23886 0.77328 0.0
H1529 H 0.75318 0.19321 0.76826 0.0
H1530 H 0.77613 0.25864 0.75149 0.0
H1531 H 0.7339 0.2133 0.74725 0.0
H1532 H 0.71354 0.24669 0.69524 0.0
H1533 H 0.73412 0.22682 0.71533 0.0
H1534 H 0.746 0.27594 0.75147 0.0
H1535 H 0.7256 0.29583 0.73122 0.0
C1536 C 0.78181 0.23303 0.76748 0.0
C1537 C 0.77556 0.21448 0.77251 0.0
C1538 C 0.7709 0.24444 0.75518 0.0
C1539 C 0.7535 0.23755 0.74769 0.0
C1540 C 0.74734 0.21895 0.75261 0.0
C1541 C 0.75826 0.20753 0.76485 0.0
C1542 C 0.72052 0.25319 0.70752 0.0
C1543 C 0.71794 0.27277 0.71172 0.0
C1544 C 0.73228 0.24183 0.71903 0.0
C1545 C 0.74163 0.2498 0.73502 0.0
C1546 C 0.73921 0.26944 0.73909 0.0
C1547 C 0.72751 0.28083 0.72752 0.0
H1548 H 0.76086 0.75578 0.80428 0.0
H1549 H 0.78838 0.77355 0.75164 0.0
H1550 H 0.74075 0.73343 0.78627 0.0
H1551 H 0.76824 0.75131 0.73363 0.0
H1552 H 0.74072 0.6982 0.70858 0.0
H1553 H 0.76234 0.71715 0.72853 0.0
H1554 H 0.71445 0.7353 0.76339 0.0
H1555 H 0.69296 0.71571 0.74395 0.0
C1556 C 0.76254 0.75495 0.78885 0.0
C1557 C 0.77612 0.76644 0.77934 0.0
C1558 C 0.75105 0.74216 0.77855 0.0
C1559 C 0.75291 0.74063 0.75854 0.0
C1560 C 0.76669 0.75194 0.74908 0.0
C1561 C 0.77819 0.7647 0.75938 0.0
C1562 C 0.73487 0.70594 0.72073 0.0
C1563 C 0.71513 0.70554 0.72466 0.0
C1564 C 0.74722 0.71697 0.73201 0.0
C1565 C 0.74007 0.72782 0.74743 0.0
C1566 C 0.72041 0.72698 0.75169 0.0
C1567 C 0.70807 0.71594 0.74043 0.0
H1568 H 0.19365 0.1611 0.94815 0.0
H1569 H 0.13234 0.16964 0.94881 0.0
H1570 H 0.19387 0.16058 0.98318 0.0
H1571 H 0.1327 0.16991 0.9837 0.0
H1572 H 0.13691 0.14499 0.0439 0.0
H1573 H 0.13758 0.14641 0.00903 0.0
H1574 H 0.18884 0.18126 0.01134 0.0
H1575 H 0.18817 0.1798 0.04636 0.0
C1576 C 0.18025 0.16296 0.95577 0.0
C1577 C 0.16297 0.16535 0.9457 0.0
C1578 C 0.18041 0.16286 0.97582 0.0
C1579 C 0.16329 0.1651 0.98619 0.0
C1580 C 0.14609 0.16788 0.97611 0.0
C1581 C 0.14593 0.16798 0.95611 0.0
C1582 C 0.14823 0.15309 0.03698 0.0
C1583 C 0.16242 0.16239 0.04788 0.0
C1584 C 0.14861 0.15392 0.017 0.0
C1585 C 0.16318 0.16407 0.00744 0.0
C1586 C 0.17753 0.17318 0.01831 0.0
C1587 C 0.17715 0.17234 0.03834 0.0
H1588 H 0.8495 0.16345 0.95207 0.0
H1589 H 0.79599 0.19389 0.94622 0.0
H1590 H 0.8494 0.16972 0.98645 0.0
H1591 H 0.79582 0.2002 0.98095 0.0
H1592 H 0.7941 0.17557 0.04547 0.0
H1593 H 0.79279 0.17806 0.01052 0.0
H1594 H 0.85153 0.19757 0.00965 0.0
H1595 H 0.85281 0.19534 0.04454 0.0
C1596 C 0.83777 0.1716 0.9582 0.0
C1597 C 0.82269 0.17809 0.94662 0.0
C1598 C 0.83779 0.17535 0.97782 0.0
C1599 C 0.82264 0.18552 0.98632 0.0
C1600 C 0.80765 0.19231 0.9747 0.0
C1601 C 0.80778 0.18878 0.95492 0.0
C1602 C 0.80654 0.18093 0.03786 0.0
C1603 C 0.82367 0.18493 0.0477 0.0
C1604 C 0.80579 0.18235 0.01786 0.0
C1605 C 0.82215 0.18774 0.00742 0.0
C1606 C 0.83882 0.19307 0.01737 0.0
C1607 C 0.83955 0.19173 0.0373 0.0
H1608 H 0.79924 0.8292 0.94803 0.0
H1609 H 0.85351 0.79955 0.94559 0.0
H1610 H 0.79923 0.82636 0.98294 0.0
H1611 H 0.85325 0.79626 0.98043 0.0
H1612 H 0.85824 0.82165 0.04166 0.0
H1613 H 0.857 0.81969 0.00688 0.0
H1614 H 0.79749 0.80285 0.00981 0.0
H1615 H 0.79876 0.80452 0.04481 0.0
C1616 C 0.81106 0.82192 0.95495 0.0
C1617 C 0.82644 0.81472 0.94411 0.0
C1618 C 0.81096 0.82012 0.9749 0.0
C1619 C 0.82629 0.81118 0.9844 0.0
C1620 C 0.84134 0.80341 0.9735 0.0
C1621 C 0.8414 0.80512 0.95355 0.0
C1622 C 0.84498 0.81714 0.03496 0.0
C1623 C 0.82861 0.81318 0.04605 0.0
C1624 C 0.84428 0.81604 0.015 0.0
C1625 C 0.82717 0.81107 0.00563 0.0
C1626 C 0.81083 0.80689 0.01666 0.0
C1627 C 0.81155 0.80789 0.03668 0.0
H1628 H 0.19447 0.81425 0.04315 0.0
H1629 H 0.1405 0.84452 0.04077 0.0
H1630 H 0.19559 0.81363 0.00809 0.0
H1631 H 0.14154 0.84365 0.00592 0.0
H1632 H 0.19864 0.83742 0.94539 0.0
H1633 H 0.19874 0.83658 0.98049 0.0
H1634 H 0.13926 0.81934 0.9802 0.0
H1635 H 0.13899 0.8207 0.94531 0.0
C1636 C 0.18291 0.82084 0.03517 0.0
C1637 C 0.16732 0.82931 0.04476 0.0
C1638 C 0.18355 0.82046 0.01512 0.0
C1639 C 0.16859 0.82846 0.0043 0.0
C1640 C 0.1531 0.83703 0.01389 0.0
C1641 C 0.15249 0.83749 0.03386 0.0
C1642 C 0.18561 0.83346 0.95286 0.0
C1643 C 0.16881 0.82914 0.94261 0.0
C1644 C 0.18571 0.83281 0.97291 0.0
C1645 C 0.16898 0.82798 0.98305 0.0
C1646 C 0.15231 0.82332 0.97277 0.0
C1647 C 0.15223 0.82389 0.95278 0.0
H1648 H 0.04413 0.16151 0.19679 0.0
H1649 H 0.04146 0.19215 0.14291 0.0
H1650 H 0.00943 0.16257 0.19917 0.0
H1651 H 0.00671 0.19198 0.14462 0.0
H1652 H 0.94425 0.20008 0.15782 0.0
H1653 H 0.97895 0.20393 0.16006 0.0
H1654 H 0.98334 0.14684 0.18425 0.0
H1655 H 0.94868 0.14338 0.18256 0.0
C1656 C 0.03619 0.16866 0.18553 0.0
C1657 C 0.04563 0.17663 0.16958 0.0
C1658 C 0.01623 0.169 0.18677 0.0
C1659 C 0.00522 0.17714 0.17199 0.0
C1660 C 0.0147 0.18572 0.15636 0.0
C1661 C 0.03466 0.18556 0.15523 0.0
C1662 C 0.9527 0.18845 0.16373 0.0
C1663 C 0.94386 0.17142 0.16997 0.0
C1664 C 0.97255 0.1906 0.16496 0.0
C1665 C 0.98398 0.17566 0.17225 0.0
C1666 C 0.975 0.15879 0.17888 0.0
C1667 C 0.95514 0.15674 0.17785 0.0
H1668 H 0.81285 0.94516 0.13157 0.0
H1669 H 0.84355 0.94722 0.18533 0.0
H1670 H 0.81067 0.98016 0.13154 0.0
H1671 H 0.84191 0.98226 0.18499 0.0
H1672 H 0.8188 0.04377 0.18708 0.0
H1673 H 0.81866 0.00869 0.18782 0.0
H1674 H 0.8328 0.00736 0.12749 0.0
H1675 H 0.83307 0.04238 0.12676 0.0
C1676 C 0.81901 0.95308 0.14344 0.0
C1677 C 0.82838 0.94344 0.15845 0.0
C1678 C 0.81795 0.97313 0.14332 0.0
C1679 C 0.82618 0.98396 0.15822 0.0
C1680 C 0.83528 0.9743 0.17338 0.0
C1681 C 0.8364 0.95426 0.17348 0.0
C1682 C 0.82196 0.03598 0.174 0.0
C1683 C 0.82593 0.04586 0.15686 0.0
C1684 C 0.82187 0.0159 0.17443 0.0
C1685 C 0.82571 0.00527 0.15771 0.0
C1686 C 0.82949 0.01514 0.14054 0.0
C1687 C 0.82962 0.03521 0.14012 0.0
H1688 H 0.95057 0.81452 0.1932 0.0
H1689 H 0.95209 0.82488 0.13205 0.0
H1690 H 0.98547 0.8153 0.19408 0.0
H1691 H 0.98676 0.82428 0.13274 0.0
H1692 H 0.04685 0.84558 0.14279 0.0
H1693 H 0.01204 0.84429 0.14314 0.0
H1694 H 0.01402 0.79847 0.18501 0.0
H1695 H 0.04904 0.80029 0.18504 0.0
C1696 C 0.95831 0.81684 0.17993 0.0
C1697 C 0.94845 0.81971 0.16257 0.0
C1698 C 0.97834 0.81703 0.1804 0.0
C1699 C 0.98895 0.81998 0.1635 0.0
C1700 C 0.97907 0.82233 0.1461 0.0
C1701 C 0.95912 0.82234 0.14566 0.0
C1702 C 0.03982 0.83519 0.15201 0.0
C1703 C 0.05057 0.82292 0.16377 0.0
C1704 C 0.01987 0.83438 0.15217 0.0
C1705 C 0.0102 0.82111 0.16393 0.0
C1706 C 0.021 0.80898 0.17591 0.0
C1707 C 0.04102 0.80995 0.1759 0.0
H1708 H 0.13551 0.04494 0.19346 0.0
H1709 H 0.18969 0.04589 0.1633 0.0
H1710 H 0.13682 0.00991 0.19461 0.0
H1711 H 0.19125 0.01094 0.16529 0.0
H1712 H 0.19242 0.9477 0.18671 0.0
H1713 H 0.19229 0.98281 0.19078 0.0
H1714 H 0.13556 0.98523 0.16626 0.0
H1715 H 0.13583 0.95034 0.16195 0.0
C1716 C 0.14774 0.03775 0.18718 0.0
C1717 C 0.16237 0.04829 0.17806 0.0
C1718 C 0.14853 0.01771 0.18799 0.0
C1719 C 0.16411 0.00782 0.18 0.0
C1720 C 0.17918 0.01829 0.17173 0.0
C1721 C 0.17828 0.03833 0.17065 0.0
C1722 C 0.1799 0.95581 0.18239 0.0
C1723 C 0.16417 0.94648 0.17395 0.0
C1724 C 0.17986 0.97579 0.18464 0.0
C1725 C 0.1639 0.98662 0.17886 0.0
C1726 C 0.14795 0.97717 0.17098 0.0
C1727 C 0.14815 0.95729 0.1684 0.0
H1728 H 0.94704 0.799 0.83881 0.0
H1729 H 0.94717 0.84586 0.79819 0.0
H1730 H 0.98195 0.79813 0.83787 0.0
H1731 H 0.98209 0.84517 0.79739 0.0
H1732 H 0.04529 0.83157 0.79131 0.0
H1733 H 0.01067 0.82703 0.7885 0.0
H1734 H 0.00681 0.81919 0.84989 0.0
H1735 H 0.04132 0.82298 0.85256 0.0
C1736 C 0.95456 0.80906 0.82963 0.0
C1737 C 0.94442 0.82262 0.81872 0.0
C1738 C 0.97453 0.80858 0.8291 0.0
C1739 C 0.9848 0.82171 0.81771 0.0
C1740 C 0.97461 0.83472 0.80615 0.0
C1741 C 0.95461 0.83515 0.80663 0.0
C1742 C 0.03704 0.82856 0.80414 0.0
C1743 C 0.04599 0.82778 0.82218 0.0
C1744 C 0.01722 0.82613 0.80255 0.0
C1745 C 0.00599 0.8228 0.81897 0.0
C1746 C 0.01505 0.82151 0.83692 0.0
C1747 C 0.03481 0.82394 0.8385 0.0
H1748 H 0.16189 0.95135 0.78683 0.0
H1749 H 0.19259 0.95303 0.8405 0.0
H1750 H 0.16576 0.98609 0.78351 0.0
H1751 H 0.19579 0.98779 0.83777 0.0
H1752 H 0.20736 0.04965 0.82503 0.0
H1753 H 0.20929 0.01468 0.8223 0.0
H1754 H 0.15242 0.01359 0.79767 0.0
H1755 H 0.15095 0.04843 0.79976 0.0
C1756 C 0.16953 0.95921 0.79786 0.0
C1757 C 0.17688 0.94962 0.81395 0.0
C1758 C 0.17168 0.9791 0.79604 0.0
C1759 C 0.18092 0.98984 0.81046 0.0
C1760 C 0.18885 0.98003 0.82622 0.0
C1761 C 0.18695 0.96011 0.82787 0.0
C1762 C 0.19544 0.04186 0.81879 0.0
C1763 C 0.17902 0.05168 0.8126 0.0
C1764 C 0.19647 0.02185 0.81731 0.0
C1765 C 0.18096 0.01123 0.80989 0.0
C1766 C 0.1648 0.02123 0.80314 0.0
C1767 C 0.1639 0.04122 0.80439 0.0
H1768 H 0.04071 0.12411 0.82808 0.0
H1769 H 0.0404 0.18461 0.8141 0.0
H1770 H 0.00582 0.12362 0.82723 0.0
H1771 H 0.00542 0.18419 0.81341 0.0
H1772 H 0.94246 0.17184 0.79852 0.0
H1773 H 0.97742 0.17174 0.79633 0.0
H1774 H 0.98028 0.13621 0.84707 0.0
H1775 H 0.94551 0.13623 0.84918 0.0
C1776 C 0.03316 0.13731 0.82485 0.0
C1777 C 0.04326 0.15444 0.82132 0.0
C1778 C 0.01318 0.13704 0.82439 0.0
C1779 C 0.00285 0.15391 0.82045 0.0
C1780 C 0.01297 0.17091 0.81632 0.0
C1781 C 0.03299 0.17117 0.81672 0.0
C1782 C 0.9506 0.16408 0.80922 0.0
C1783 C 0.94125 0.15395 0.82396 0.0
C1784 C 0.9706 0.16402 0.80797 0.0
C1785 C 0.98161 0.15387 0.82145 0.0
C1786 C 0.97221 0.14383 0.83622 0.0
C1787 C 0.95228 0.14385 0.83744 0.0
H1788 H 0.79514 0.94382 0.8551 0.0
H1789 H 0.8242 0.94682 0.80042 0.0
H1790 H 0.79132 0.97866 0.85496 0.0
H1791 H 0.82019 0.98169 0.80023 0.0
H1792 H 0.79817 0.04389 0.80138 0.0
H1793 H 0.79633 0.00881 0.79957 0.0
H1794 H 0.81531 0.0049 0.85838 0.0
H1795 H 0.81759 0.03967 0.86012 0.0
C1796 C 0.80061 0.95191 0.843 0.0
C1797 C 0.81022 0.94261 0.8279 0.0
C1798 C 0.79838 0.97184 0.8429 0.0
C1799 C 0.80564 0.98289 0.82768 0.0
C1800 C 0.81433 0.97352 0.81208 0.0
C1801 C 0.81662 0.95355 0.8122 0.0
C1802 C 0.80197 0.03553 0.81391 0.0
C1803 C 0.80799 0.04464 0.83091 0.0
C1804 C 0.80086 0.01547 0.81287 0.0
C1805 C 0.80558 0.00415 0.82886 0.0
C1806 C 0.81122 0.01326 0.84594 0.0
C1807 C 0.81248 0.03323 0.84693 0.0
H1808 H 0.64712 0.6948 0.44923 0.0
H1809 H 0.69255 0.6527 0.45051 0.0
H1810 H 0.64827 0.6972 0.48405 0.0
H1811 H 0.69317 0.65455 0.48547 0.0
H1812 H 0.69947 0.67395 0.54769 0.0
H1813 H 0.70087 0.6756 0.51268 0.0
H1814 H 0.63902 0.67616 0.51037 0.0
H1815 H 0.63763 0.6745 0.54518 0.0
C1816 C 0.6575 0.68622 0.45693 0.0
C1817 C 0.66971 0.67351 0.44711 0.0
C1818 C 0.65801 0.68744 0.4769 0.0
C1819 C 0.67071 0.67597 0.48751 0.0
C1820 C 0.68332 0.66368 0.47768 0.0
C1821 C 0.68281 0.66246 0.45769 0.0
C1822 C 0.6862 0.67446 0.53967 0.0
C1823 C 0.66845 0.67416 0.54919 0.0
C1824 C 0.687 0.6754 0.51965 0.0
C1825 C 0.67006 0.67605 0.50878 0.0
C1826 C 0.65234 0.67604 0.51834 0.0
C1827 C 0.65154 0.6751 0.53831 0.0
H1828 H 0.30783 0.69246 0.54655 0.0
H1829 H 0.33798 0.63837 0.54412 0.0
H1830 H 0.30423 0.69192 0.51148 0.0
H1831 H 0.33415 0.63769 0.50926 0.0
H1832 H 0.30457 0.63407 0.4506 0.0
H1833 H 0.30481 0.63587 0.48553 0.0
H1834 H 0.32939 0.69275 0.48266 0.0
H1835 H 0.33006 0.69076 0.44773 0.0
C1836 C 0.31356 0.68045 0.53849 0.0
C1837 C 0.32325 0.6655 0.54789 0.0
C1838 C 0.31156 0.68017 0.51853 0.0
C1839 C 0.31885 0.66473 0.50779 0.0
C1840 C 0.32827 0.64966 0.51727 0.0
C1841 C 0.33058 0.65012 0.53713 0.0
C1842 C 0.31015 0.64694 0.45735 0.0
C1843 C 0.31753 0.66217 0.44628 0.0
C1844 C 0.31015 0.64798 0.47734 0.0
C1845 C 0.3172 0.6644 0.48668 0.0
C1846 C 0.32375 0.68 0.47573 0.0
C1847 C 0.32404 0.67885 0.45572 0.0
H1848 H 0.29922 0.32004 0.44923 0.0
H1849 H 0.36045 0.31179 0.45299 0.0
H1850 H 0.29671 0.31704 0.48403 0.0
H1851 H 0.35788 0.30861 0.48767 0.0
H1852 H 0.34461 0.28875 0.54827 0.0
H1853 H 0.34476 0.28775 0.51326 0.0
H1854 H 0.30683 0.33673 0.51178 0.0
H1855 H 0.30682 0.33788 0.54667 0.0
C1856 C 0.31213 0.31757 0.45747 0.0
C1857 C 0.33005 0.31624 0.44834 0.0
C1858 C 0.31068 0.31582 0.47738 0.0
C1859 C 0.3271 0.31262 0.48857 0.0
C1860 C 0.34493 0.31079 0.4794 0.0
C1861 C 0.3464 0.31261 0.45952 0.0
C1862 C 0.3363 0.29929 0.54046 0.0
C1863 C 0.32576 0.31343 0.55027 0.0
C1864 C 0.33637 0.2987 0.52043 0.0
C1865 C 0.32585 0.31219 0.50979 0.0
C1866 C 0.31486 0.32596 0.51959 0.0
C1867 C 0.31484 0.3266 0.5396 0.0
H1868 H 0.68708 0.34016 0.44361 0.0
H1869 H 0.63415 0.30786 0.44186 0.0
H1870 H 0.688 0.33673 0.47833 0.0
H1871 H 0.63564 0.30351 0.47647 0.0
H1872 H 0.63151 0.32312 0.53935 0.0
H1873 H 0.63131 0.32306 0.50447 0.0
H1874 H 0.69258 0.31415 0.50406 0.0
H1875 H 0.69277 0.31453 0.5391 0.0
C1876 C 0.67569 0.33225 0.45062 0.0
C1877 C 0.66046 0.32444 0.43996 0.0
C1878 C 0.67636 0.33003 0.47051 0.0
C1879 C 0.66188 0.31986 0.4802 0.0
C1880 C 0.6469 0.31164 0.46948 0.0
C1881 C 0.64617 0.31394 0.44961 0.0
C1882 C 0.64489 0.32083 0.53181 0.0
C1883 C 0.66216 0.31885 0.54194 0.0
C1884 C 0.64478 0.32078 0.51181 0.0
C1885 C 0.66194 0.31863 0.50146 0.0
C1886 C 0.67916 0.31615 0.51161 0.0
C1887 C 0.67928 0.31632 0.53165 0.0
H1888 H 0.54435 0.67365 0.69899 0.0
H1889 H 0.53816 0.67126 0.63735 0.0
H1890 H 0.50965 0.67678 0.70234 0.0
H1891 H 0.50363 0.67444 0.6407 0.0
H1892 H 0.44365 0.69449 0.65102 0.0
H1893 H 0.47848 0.69675 0.65056 0.0
H1894 H 0.48162 0.65599 0.69719 0.0
H1895 H 0.44673 0.65427 0.69813 0.0
C1896 C 0.53559 0.6738 0.68617 0.0
C1897 C 0.54399 0.67216 0.66791 0.0
C1898 C 0.51575 0.67562 0.6881 0.0
C1899 C 0.50393 0.67588 0.67179 0.0
C1900 C 0.51238 0.67464 0.65353 0.0
C1901 C 0.53218 0.6728 0.65161 0.0
C1902 C 0.45175 0.68636 0.66148 0.0
C1903 C 0.44245 0.67411 0.67455 0.0
C1904 C 0.4717 0.68749 0.66106 0.0
C1905 C 0.48279 0.6764 0.6737 0.0
C1906 C 0.47347 0.66479 0.68734 0.0
C1907 C 0.45351 0.66365 0.68774 0.0
H1908 H 0.30134 0.54253 0.6723 0.0
H1909 H 0.36045 0.54367 0.6538 0.0
H1910 H 0.30159 0.50752 0.67097 0.0
H1911 H 0.36104 0.50877 0.65364 0.0
H1912 H 0.35034 0.44726 0.63514 0.0
H1913 H 0.34901 0.48226 0.63574 0.0
H1914 H 0.31429 0.47998 0.68708 0.0
H1915 H 0.31526 0.44491 0.68612 0.0
C1916 C 0.3144 0.53533 0.668 0.0
C1917 C 0.33087 0.54594 0.66317 0.0
C1918 C 0.31461 0.51524 0.66747 0.0
C1919 C 0.33133 0.50531 0.6622 0.0
C1920 C 0.34783 0.51593 0.65751 0.0
C1921 C 0.34758 0.53599 0.6579 0.0
C1922 C 0.34248 0.45428 0.64657 0.0
C1923 C 0.33295 0.44341 0.66061 0.0
C1924 C 0.34175 0.47433 0.64696 0.0
C1925 C 0.33163 0.48396 0.66152 0.0
C1926 C 0.32199 0.47303 0.67551 0.0
C1927 C 0.32258 0.45296 0.675 0.0
H1928 H 0.54643 0.31866 0.69791 0.0
H1929 H 0.54162 0.3118 0.63651 0.0
H1930 H 0.5118 0.31407 0.7011 0.0
H1931 H 0.50711 0.30763 0.63963 0.0
H1932 H 0.44725 0.28717 0.65198 0.0
H1933 H 0.48219 0.28585 0.65242 0.0
H1934 H 0.48355 0.33368 0.69196 0.0
H1935 H 0.44873 0.33516 0.69139 0.0
C1936 C 0.53799 0.31596 0.68515 0.0
C1937 C 0.54665 0.31575 0.66695 0.0
C1938 C 0.51819 0.31346 0.68696 0.0
C1939 C 0.50675 0.31054 0.67062 0.0
C1940 C 0.51555 0.30966 0.65251 0.0
C1941 C 0.53528 0.31228 0.65069 0.0
C1942 C 0.45501 0.29735 0.66082 0.0
C1943 C 0.44521 0.31137 0.67152 0.0
C1944 C 0.475 0.29656 0.66111 0.0
C1945 C 0.48559 0.30973 0.67214 0.0
C1946 C 0.47577 0.32318 0.6835 0.0
C1947 C 0.4558 0.32401 0.68317 0.0
H1948 H 0.66768 0.54018 0.63289 0.0
H1949 H 0.67309 0.5439 0.69446 0.0
H1950 H 0.67132 0.50523 0.63459 0.0
H1951 H 0.67641 0.50878 0.69621 0.0
H1952 H 0.64957 0.44607 0.68566 0.0
H1953 H 0.6516 0.48101 0.68707 0.0
H1954 H 0.69767 0.48025 0.64583 0.0
H1955 H 0.69645 0.4452 0.64502 0.0
C1956 C 0.66976 0.53346 0.64675 0.0
C1957 C 0.67007 0.54459 0.66355 0.0
C1958 C 0.67196 0.51356 0.64772 0.0
C1959 C 0.67416 0.50442 0.66553 0.0
C1960 C 0.67471 0.51556 0.68233 0.0
C1961 C 0.67289 0.53555 0.68133 0.0
C1962 C 0.66053 0.45321 0.67728 0.0
C1963 C 0.67275 0.44272 0.66509 0.0
C1964 C 0.66161 0.47325 0.67807 0.0
C1965 C 0.67471 0.48322 0.66648 0.0
C1966 C 0.68733 0.47283 0.65475 0.0
C1967 C 0.68649 0.45278 0.65421 0.0
H1968 H 0.45361 0.35449 0.3182 0.0
H1969 H 0.44941 0.29374 0.30575 0.0
H1970 H 0.48761 0.35367 0.31135 0.0
H1971 H 0.48349 0.29312 0.29779 0.0
H1972 H 0.54823 0.2968 0.31547 0.0
H1973 H 0.51331 0.29497 0.3148 0.0
H1974 H 0.51121 0.3506 0.28719 0.0
H1975 H 0.54608 0.35265 0.28868 0.0
C1976 C 0.45995 0.34096 0.31387 0.0
C1977 C 0.44885 0.32412 0.31281 0.0
C1978 C 0.47943 0.34055 0.30959 0.0
C1979 C 0.48832 0.32333 0.30394 0.0
C1980 C 0.47712 0.30658 0.30227 0.0
C1981 C 0.45756 0.30698 0.30666 0.0
C1982 C 0.54024 0.30839 0.30887 0.0
C1983 C 0.54969 0.32495 0.30233 0.0
C1984 C 0.52025 0.30735 0.30843 0.0
C1985 C 0.50943 0.3228 0.30124 0.0
C1986 C 0.51909 0.33868 0.29329 0.0
C1987 C 0.53902 0.33982 0.294 0.0
H1988 H 0.63644 0.45441 0.32757 0.0
H1989 H 0.6955 0.45121 0.30903 0.0
H1990 H 0.63801 0.48928 0.3264 0.0
H1991 H 0.69716 0.48634 0.30861 0.0
H1992 H 0.69454 0.54827 0.3371 0.0
H1993 H 0.69471 0.51317 0.33425 0.0
H1994 H 0.64252 0.51554 0.30113 0.0
H1995 H 0.6423 0.55056 0.30404 0.0
C1996 C 0.6497 0.46108 0.32299 0.0
C1997 C 0.66581 0.44991 0.31826 0.0
C1998 C 0.65059 0.4811 0.3224 0.0
C1999 C 0.66767 0.49045 0.31733 0.0
C2000 C 0.68384 0.47942 0.31267 0.0
C2001 C 0.68289 0.45933 0.31301 0.0
C2002 C 0.68321 0.54125 0.3291 0.0
C2003 C 0.66838 0.55207 0.32083 0.0
C2004 C 0.68339 0.52124 0.32735 0.0
C2005 C 0.66859 0.5117 0.31753 0.0
C2006 C 0.65402 0.52256 0.30888 0.0
C2007 C 0.65398 0.54257 0.31042 0.0
H2008 H 0.54006 0.66388 0.36114 0.0
H2009 H 0.54272 0.67737 0.30068 0.0
H2010 H 0.50525 0.66518 0.35995 0.0
H2011 H 0.50778 0.67857 0.29949 0.0
H2012 H 0.4458 0.65445 0.30201 0.0
H2013 H 0.48071 0.65601 0.30227 0.0
H2014 H 0.47891 0.68798 0.35541 0.0
H2015 H 0.44404 0.68586 0.35548 0.0
C2016 C 0.53322 0.66738 0.34765 0.0
C2017 C 0.54416 0.67055 0.33101 0.0
C2018 C 0.51327 0.66813 0.34697 0.0
C2019 C 0.50378 0.67202 0.32964 0.0
C2020 C 0.51469 0.67531 0.31301 0.0
C2021 C 0.53468 0.6746 0.31369 0.0
C2022 C 0.45288 0.6618 0.31374 0.0
C2023 C 0.44218 0.66994 0.32877 0.0
C2024 C 0.47285 0.66287 0.31379 0.0
C2025 C 0.48255 0.67206 0.3289 0.0
C2026 C 0.47184 0.68061 0.34368 0.0
C2027 C 0.45186 0.67958 0.34361 0.0
H2028 H 0.35447 0.44261 0.30718 0.0
H2029 H 0.29894 0.44455 0.33448 0.0
H2030 H 0.35442 0.4776 0.30443 0.0
H2031 H 0.29901 0.47965 0.33193 0.0
H2032 H 0.30001 0.54164 0.30837 0.0
H2033 H 0.29884 0.50655 0.30709 0.0
H2034 H 0.35649 0.5039 0.32927 0.0
H2035 H 0.35756 0.53879 0.33114 0.0
C2036 C 0.34213 0.45051 0.31233 0.0
C2037 C 0.32671 0.4409 0.32108 0.0
C2038 C 0.34218 0.47052 0.3109 0.0
C2039 C 0.32675 0.4813 0.31804 0.0
C2040 C 0.31103 0.47166 0.3262 0.0
C2041 C 0.31106 0.45163 0.3278 0.0
C2042 C 0.3124 0.53359 0.31308 0.0
C2043 C 0.32888 0.54308 0.31986 0.0
C2044 C 0.31173 0.51351 0.31227 0.0
C2045 C 0.32759 0.50256 0.31802 0.0
C2046 C 0.34416 0.51201 0.32446 0.0
C2047 C 0.34478 0.53203 0.32545 0.0
loop_
_geom_bond_atom_site_label_1
_geom_bond_atom_site_label_2
_geom_bond_distance
_geom_bond_site_symmetry_2
_ccdc_geom_bond_type
Li0 N17 1.990 . S
Li0 O60 1.956 . S
Li0 O61 1.970 . S
Li0 O62 1.961 . S
Li1 N25 1.990 . S
Li1 O60 1.970 . S
Li1 O61 1.956 . S
Li1 O63 1.961 . S
Li2 N47 1.990 . S
Li2 O60 1.961 . S
Li2 O62 1.956 . S
Li2 O63 1.970 . S
Li3 N53 1.990 . S
Li3 O61 1.961 . S
Li3 O62 1.970 . S
Li3 O63 1.956 . S
C4 C6 1.348 . S
C4 C7 1.356 . S
C4 O60 1.325 . S
N5 C8 1.314 . S
N5 C9 1.279 . S
C6 C4 1.348 . S
C6 C8 1.353 . S
C6 H64 0.929 . S
C7 C4 1.356 . S
C7 C9 1.358 . S
C7 H65 0.930 . S
C8 N5 1.314 . S
C8 C6 1.353 . S
C8 H66 0.930 . S
C9 N5 1.279 . S
C9 C7 1.358 . S
C9 H67 0.930 . S
C10 C13 1.348 . S
C10 C14 1.356 . S
C10 O61 1.325 . S
C11 N12 1.279 . S
C11 C14 1.358 . S
C11 H68 0.930 . S
N12 C11 1.279 . S
N12 C15 1.314 . S
C13 C10 1.348 . S
C13 C15 1.353 . S
C13 H69 0.929 . S
C14 C10 1.356 . S
C14 C11 1.358 . S
C14 H70 0.930 . S
C15 N12 1.314 . S
C15 C13 1.353 . S
C15 H71 0.930 . S
C16 N17 1.314 . S
C16 C21 1.353 . S
C16 H22 0.930 . S
N17 Li0 1.990 . S
N17 C16 1.314 . S
N17 C19 1.279 . S
C18 C19 1.358 . S
C18 C20 1.356 . S
C18 H72 0.930 . S
C19 N17 1.279 . S
C19 C18 1.358 . S
C19 H23 0.930 . S
C20 C18 1.356 . S
C20 C21 1.348 . S
C21 C16 1.353 . S
C21 C20 1.348 . S
C21 H73 0.929 . S
H22 C16 0.930 . S
H23 C19 0.930 . S
C24 N25 1.314 . S
C24 C26 1.353 . S
C24 H30 0.930 . S
N25 Li1 1.990 . S
N25 C24 1.314 . S
N25 C28 1.279 . S
C26 C24 1.353 . S
C26 C29 1.348 . S
C26 H74 0.929 . S
C27 C28 1.358 . S
C27 C29 1.356 . S
C27 H75 0.930 . S
C28 N25 1.279 . S
C28 C27 1.358 . S
C28 H31 0.930 . S
C29 C26 1.348 . S
C29 C27 1.356 . S
H30 C24 0.930 . S
H31 C28 0.930 . S
C32 C34 1.348 . S
C32 C35 1.356 . S
C32 O62 1.325 . S
N33 C36 1.314 . S
N33 C37 1.279 . S
C34 C32 1.348 . S
C34 C36 1.353 . S
C34 H76 0.929 . S
C35 C32 1.356 . S
C35 C37 1.358 . S
C35 H77 0.930 . S
C36 N33 1.314 . S
C36 C34 1.353 . S
C36 H78 0.930 . S
C37 N33 1.279 . S
C37 C35 1.358 . S
C37 H79 0.930 . S
C38 C39 1.348 . S
C38 C40 1.356 . S
C38 O63 1.325 . S
C39 C38 1.348 . S
C39 C41 1.353 . S
C39 H80 0.929 . S
C40 C38 1.356 . S
C40 C42 1.358 . S
C40 H81 0.930 . S
C41 C39 1.353 . S
C41 N43 1.314 . S
C41 H82 0.930 . S
C42 C40 1.358 . S
C42 N43 1.279 . S
C42 H83 0.930 . S
N43 C41 1.314 . S
N43 C42 1.279 . S
C44 C46 1.353 . S
C44 N47 1.314 . S
C44 H50 0.930 . S
C45 N47 1.279 . S
C45 C48 1.358 . S
C45 H51 0.930 . S
C46 C44 1.353 . S
C46 C49 1.348 . S
C46 H84 0.929 . S
N47 Li2 1.990 . S
N47 C44 1.314 . S
N47 C45 1.279 . S
C48 C45 1.358 . S
C48 C49 1.356 . S
C48 H85 0.930 . S
C49 C46 1.348 . S
C49 C48 1.356 . S
H50 C44 0.930 . S
H51 C45 0.930 . S
C52 N53 1.314 . S
C52 C54 1.353 . S
C52 H58 0.930 . S
N53 Li3 1.990 . S
N53 C52 1.314 . S
N53 C56 1.279 . S
C54 C52 1.353 . S
C54 C57 1.348 . S
C54 H86 0.929 . S
C55 C56 1.358 . S
C55 C57 1.356 . S
C55 H87 0.930 . S
C56 N53 1.279 . S
C56 C55 1.358 . S
C56 H59 0.930 . S
C57 C54 1.348 . S
C57 C55 1.356 . S
H58 C52 0.930 . S
H59 C56 0.930 . S
O60 Li0 1.956 . S
O60 Li1 1.970 . S
O60 Li2 1.961 . S
O60 C4 1.325 . S
O61 Li0 1.970 . S
O61 Li1 1.956 . S
O61 Li3 1.961 . S
O61 C10 1.325 . S
O62 Li0 1.961 . S
O62 Li2 1.956 . S
O62 Li3 1.970 . S
O62 C32 1.325 . S
O63 Li1 1.961 . S
O63 Li2 1.970 . S
O63 Li3 1.956 . S
O63 C38 1.325 . S
H64 C6 0.929 . S
H65 C7 0.930 . S
H66 C8 0.930 . S
H67 C9 0.930 . S
H68 C11 0.930 . S
H69 C13 0.929 . S
H70 C14 0.930 . S
H71 C15 0.930 . S
H72 C18 0.930 . S
H73 C21 0.929 . S
H74 C26 0.929 . S
H75 C27 0.930 . S
H76 C34 0.929 . S
H77 C35 0.930 . S
H78 C36 0.930 . S
H79 C37 0.930 . S
H80 C39 0.929 . S
H81 C40 0.930 . S
H82 C41 0.930 . S
H83 C42 0.930 . S
H84 C46 0.929 . S
H85 C48 0.930 . S
H86 C54 0.929 . S
H87 C55 0.930 . S
Li88 N105 1.990 . S
Li88 O148 1.956 . S
Li88 O149 1.970 . S
Li88 O150 1.961 . S
Li89 N113 1.990 . S
Li89 O148 1.970 . S
Li89 O149 1.956 . S
Li89 O151 1.961 . S
Li90 N135 1.990 . S
Li90 O148 1.961 . S
Li90 O150 1.956 . S
Li90 O151 1.970 . S
Li91 N141 1.990 . S
Li91 O149 1.961 . S
Li91 O150 1.970 . S
Li91 O151 1.956 . S
C92 C94 1.348 . S
C92 C95 1.356 . S
C92 O148 1.325 . S
N93 C96 1.314 . S
N93 C97 1.279 . S
C94 C92 1.348 . S
C94 C96 1.353 . S
C94 H152 0.929 . S
C95 C92 1.356 . S
C95 C97 1.358 . S
C95 H153 0.930 . S
C96 N93 1.314 . S
C96 C94 1.353 . S
C96 H154 0.930 . S
C97 N93 1.279 . S
C97 C95 1.358 . S
C97 H155 0.930 . S
C98 C101 1.348 . S
C98 C102 1.356 . S
C98 O149 1.325 . S
C99 N100 1.279 . S
C99 C102 1.358 . S
C99 H156 0.930 . S
N100 C99 1.279 . S
N100 C103 1.314 . S
C101 C98 1.348 . S
C101 C103 1.353 . S
C101 H157 0.929 . S
C102 C98 1.356 . S
C102 C99 1.358 . S
C102 H158 0.930 . S
C103 N100 1.314 . S
C103 C101 1.353 . S
C103 H159 0.930 . S
C104 N105 1.314 . S
C104 C109 1.353 . S
C104 H110 0.930 . S
N105 Li88 1.990 . S
N105 C104 1.314 . S
N105 C107 1.279 . S
C106 C107 1.358 . S
C106 C108 1.356 . S
C106 H160 0.930 . S
C107 N105 1.279 . S
C107 C106 1.358 . S
C107 H111 0.930 . S
C108 C106 1.356 . S
C108 C109 1.348 . S
C109 C104 1.353 . S
C109 C108 1.348 . S
C109 H161 0.929 . S
H110 C104 0.930 . S
H111 C107 0.930 . S
C112 N113 1.314 . S
C112 C114 1.353 . S
C112 H118 0.930 . S
N113 Li89 1.990 . S
N113 C112 1.314 . S
N113 C116 1.279 . S
C114 C112 1.353 . S
C114 C117 1.348 . S
C114 H162 0.929 . S
C115 C116 1.358 . S
C115 C117 1.356 . S
C115 H163 0.930 . S
C116 N113 1.279 . S
C116 C115 1.358 . S
C116 H119 0.930 . S
C117 C114 1.348 . S
C117 C115 1.356 . S
H118 C112 0.930 . S
H119 C116 0.930 . S
C120 C122 1.348 . S
C120 C123 1.356 . S
C120 O150 1.325 . S
N121 C124 1.314 . S
N121 C125 1.279 . S
C122 C120 1.348 . S
C122 C124 1.353 . S
C122 H164 0.929 . S
C123 C120 1.356 . S
C123 C125 1.358 . S
C123 H165 0.930 . S
C124 N121 1.314 . S
C124 C122 1.353 . S
C124 H166 0.930 . S
C125 N121 1.279 . S
C125 C123 1.358 . S
C125 H167 0.930 . S
C126 C127 1.348 . S
C126 C128 1.356 . S
C126 O151 1.325 . S
C127 C126 1.348 . S
C127 C129 1.353 . S
C127 H168 0.929 . S
C128 C126 1.356 . S
C128 C130 1.358 . S
C128 H169 0.930 . S
C129 C127 1.353 . S
C129 N131 1.314 . S
C129 H170 0.930 . S
C130 C128 1.358 . S
C130 N131 1.279 . S
C130 H171 0.930 . S
N131 C129 1.314 . S
N131 C130 1.279 . S
C132 C134 1.353 . S
C132 N135 1.314 . S
C132 H138 0.930 . S
C133 N135 1.279 . S
C133 C136 1.358 . S
C133 H139 0.930 . S
C134 C132 1.353 . S
C134 C137 1.348 . S
C134 H172 0.929 . S
N135 Li90 1.990 . S
N135 C132 1.314 . S
N135 C133 1.279 . S
C136 C133 1.358 . S
C136 C137 1.356 . S
C136 H173 0.930 . S
C137 C134 1.348 . S
C137 C136 1.356 . S
H138 C132 0.930 . S
H139 C133 0.930 . S
C140 N141 1.314 . S
C140 C142 1.353 . S
C140 H146 0.930 . S
N141 Li91 1.990 . S
N141 C140 1.314 . S
N141 C144 1.279 . S
C142 C140 1.353 . S
C142 C145 1.348 . S
C142 H174 0.929 . S
C143 C144 1.358 . S
C143 C145 1.356 . S
C143 H175 0.930 . S
C144 N141 1.279 . S
C144 C143 1.358 . S
C144 H147 0.930 . S
C145 C142 1.348 . S
C145 C143 1.356 . S
H146 C140 0.930 . S
H147 C144 0.930 . S
O148 Li88 1.956 . S
O148 Li89 1.970 . S
O148 Li90 1.961 . S
O148 C92 1.325 . S
O149 Li88 1.970 . S
O149 Li89 1.956 . S
O149 Li91 1.961 . S
O149 C98 1.325 . S
O150 Li88 1.961 . S
O150 Li90 1.956 . S
O150 Li91 1.970 . S
O150 C120 1.325 . S
O151 Li89 1.961 . S
O151 Li90 1.970 . S
O151 Li91 1.956 . S
O151 C126 1.325 . S
H152 C94 0.929 . S
H153 C95 0.930 . S
H154 C96 0.930 . S
H155 C97 0.930 . S
H156 C99 0.930 . S
H157 C101 0.929 . S
H158 C102 0.930 . S
H159 C103 0.930 . S
H160 C106 0.930 . S
H161 C109 0.929 . S
H162 C114 0.929 . S
H163 C115 0.930 . S
H164 C122 0.929 . S
H165 C123 0.930 . S
H166 C124 0.930 . S
H167 C125 0.930 . S
H168 C127 0.929 . S
H169 C128 0.930 . S
H170 C129 0.930 . S
H171 C130 0.930 . S
H172 C134 0.929 . S
H173 C136 0.930 . S
H174 C142 0.929 . S
H175 C143 0.930 . S
Li176 N193 1.990 . S
Li176 O236 1.956 . S
Li176 O237 1.970 . S
Li176 O238 1.961 . S
Li177 N201 1.990 . S
Li177 O236 1.970 . S
Li177 O237 1.956 . S
Li177 O239 1.961 . S
Li178 N223 1.990 . S
Li178 O236 1.961 . S
Li178 O238 1.956 . S
Li178 O239 1.970 . S
Li179 N229 1.990 . S
Li179 O237 1.961 . S
Li179 O238 1.970 . S
Li179 O239 1.956 . S
C180 C182 1.348 . S
C180 C183 1.356 . S
C180 O236 1.325 . S
N181 C184 1.314 . S
N181 C185 1.279 . S
C182 C180 1.348 . S
C182 C184 1.353 . S
C182 H240 0.929 . S
C183 C180 1.356 . S
C183 C185 1.358 . S
C183 H241 0.930 . S
C184 N181 1.314 . S
C184 C182 1.353 . S
C184 H242 0.930 . S
C185 N181 1.279 . S
C185 C183 1.358 . S
C185 H243 0.930 . S
C186 C189 1.348 . S
C186 C190 1.356 . S
C186 O237 1.325 . S
C187 N188 1.279 . S
C187 C190 1.358 . S
C187 H244 0.930 . S
N188 C187 1.279 . S
N188 C191 1.314 . S
C189 C186 1.348 . S
C189 C191 1.353 . S
C189 H245 0.929 . S
C190 C186 1.356 . S
C190 C187 1.358 . S
C190 H246 0.930 . S
C191 N188 1.314 . S
C191 C189 1.353 . S
C191 H247 0.930 . S
C192 N193 1.314 . S
C192 C197 1.353 . S
C192 H198 0.930 . S
N193 Li176 1.990 . S
N193 C192 1.314 . S
N193 C195 1.279 . S
C194 C195 1.358 . S
C194 C196 1.356 . S
C194 H248 0.930 . S
C195 N193 1.279 . S
C195 C194 1.358 . S
C195 H199 0.930 . S
C196 C194 1.356 . S
C196 C197 1.348 . S
C197 C192 1.353 . S
C197 C196 1.348 . S
C197 H249 0.929 . S
H198 C192 0.930 . S
H199 C195 0.930 . S
C200 N201 1.314 . S
C200 C202 1.353 . S
C200 H206 0.930 . S
N201 Li177 1.990 . S
N201 C200 1.314 . S
N201 C204 1.279 . S
C202 C200 1.353 . S
C202 C205 1.348 . S
C202 H250 0.929 . S
C203 C204 1.358 . S
C203 C205 1.356 . S
C203 H251 0.930 . S
C204 N201 1.279 . S
C204 C203 1.358 . S
C204 H207 0.930 . S
C205 C202 1.348 . S
C205 C203 1.356 . S
H206 C200 0.930 . S
H207 C204 0.930 . S
C208 C210 1.348 . S
C208 C211 1.356 . S
C208 O238 1.325 . S
N209 C212 1.314 . S
N209 C213 1.279 . S
C210 C208 1.348 . S
C210 C212 1.353 . S
C210 H252 0.929 . S
C211 C208 1.356 . S
C211 C213 1.358 . S
C211 H253 0.930 . S
C212 N209 1.314 . S
C212 C210 1.353 . S
C212 H254 0.930 . S
C213 N209 1.279 . S
C213 C211 1.358 . S
C213 H255 0.930 . S
C214 C215 1.348 . S
C214 C216 1.356 . S
C214 O239 1.325 . S
C215 C214 1.348 . S
C215 C217 1.353 . S
C215 H256 0.929 . S
C216 C214 1.356 . S
C216 C218 1.358 . S
C216 H257 0.930 . S
C217 C215 1.353 . S
C217 N219 1.314 . S
C217 H258 0.930 . S
C218 C216 1.358 . S
C218 N219 1.279 . S
C218 H259 0.930 . S
N219 C217 1.314 . S
N219 C218 1.279 . S
C220 C222 1.353 . S
C220 N223 1.314 . S
C220 H226 0.930 . S
C221 N223 1.279 . S
C221 C224 1.358 . S
C221 H227 0.930 . S
C222 C220 1.353 . S
C222 C225 1.348 . S
C222 H260 0.929 . S
N223 Li178 1.990 . S
N223 C220 1.314 . S
N223 C221 1.279 . S
C224 C221 1.358 . S
C224 C225 1.356 . S
C224 H261 0.930 . S
C225 C222 1.348 . S
C225 C224 1.356 . S
H226 C220 0.930 . S
H227 C221 0.930 . S
C228 N229 1.314 . S
C228 C230 1.353 . S
C228 H234 0.930 . S
N229 Li179 1.990 . S
N229 C228 1.314 . S
N229 C232 1.279 . S
C230 C228 1.353 . S
C230 C233 1.348 . S
C230 H262 0.929 . S
C231 C232 1.358 . S
C231 C233 1.356 . S
C231 H263 0.930 . S
C232 N229 1.279 . S
C232 C231 1.358 . S
C232 H235 0.930 . S
C233 C230 1.348 . S
C233 C231 1.356 . S
H234 C228 0.930 . S
H235 C232 0.930 . S
O236 Li176 1.956 . S
O236 Li177 1.970 . S
O236 Li178 1.961 . S
O236 C180 1.325 . S
O237 Li176 1.970 . S
O237 Li177 1.956 . S
O237 Li179 1.961 . S
O237 C186 1.325 . S
O238 Li176 1.961 . S
O238 Li178 1.956 . S
O238 Li179 1.970 . S
O238 C208 1.325 . S
O239 Li177 1.961 . S
O239 Li178 1.970 . S
O239 Li179 1.956 . S
O239 C214 1.325 . S
H240 C182 0.929 . S
H241 C183 0.930 . S
H242 C184 0.930 . S
H243 C185 0.930 . S
H244 C187 0.930 . S
H245 C189 0.929 . S
H246 C190 0.930 . S
H247 C191 0.930 . S
H248 C194 0.930 . S
H249 C197 0.929 . S
H250 C202 0.929 . S
H251 C203 0.930 . S
H252 C210 0.929 . S
H253 C211 0.930 . S
H254 C212 0.930 . S
H255 C213 0.930 . S
H256 C215 0.929 . S
H257 C216 0.930 . S
H258 C217 0.930 . S
H259 C218 0.930 . S
H260 C222 0.929 . S
H261 C224 0.930 . S
H262 C230 0.929 . S
H263 C231 0.930 . S
Li264 N281 1.990 . S
Li264 O324 1.956 . S
Li264 O325 1.970 . S
Li264 O326 1.961 . S
Li265 N289 1.990 . S
Li265 O324 1.970 . S
Li265 O325 1.956 . S
Li265 O327 1.961 . S
Li266 N311 1.990 . S
Li266 O324 1.961 . S
Li266 O326 1.956 . S
Li266 O327 1.970 . S
Li267 N317 1.990 . S
Li267 O325 1.961 . S
Li267 O326 1.970 . S
Li267 O327 1.956 . S
C268 C270 1.348 . S
C268 C271 1.356 . S
C268 O324 1.325 . S
N269 C272 1.314 . S
N269 C273 1.279 . S
C270 C268 1.348 . S
C270 C272 1.353 . S
C270 H328 0.929 . S
C271 C268 1.356 . S
C271 C273 1.358 . S
C271 H329 0.930 . S
C272 N269 1.314 . S
C272 C270 1.353 . S
C272 H330 0.930 . S
C273 N269 1.279 . S
C273 C271 1.358 . S
C273 H331 0.930 . S
C274 C277 1.348 . S
C274 C278 1.356 . S
C274 O325 1.325 . S
C275 N276 1.279 . S
C275 C278 1.358 . S
C275 H332 0.930 . S
N276 C275 1.279 . S
N276 C279 1.314 . S
C277 C274 1.348 . S
C277 C279 1.353 . S
C277 H333 0.929 . S
C278 C274 1.356 . S
C278 C275 1.358 . S
C278 H334 0.930 . S
C279 N276 1.314 . S
C279 C277 1.353 . S
C279 H335 0.930 . S
C280 N281 1.314 . S
C280 C285 1.353 . S
C280 H286 0.930 . S
N281 Li264 1.990 . S
N281 C280 1.314 . S
N281 C283 1.279 . S
C282 C283 1.358 . S
C282 C284 1.356 . S
C282 H336 0.930 . S
C283 N281 1.279 . S
C283 C282 1.358 . S
C283 H287 0.930 . S
C284 C282 1.356 . S
C284 C285 1.348 . S
C285 C280 1.353 . S
C285 C284 1.348 . S
C285 H337 0.929 . S
H286 C280 0.930 . S
H287 C283 0.930 . S
C288 N289 1.314 . S
C288 C290 1.353 . S
C288 H294 0.930 . S
N289 Li265 1.990 . S
N289 C288 1.314 . S
N289 C292 1.279 . S
C290 C288 1.353 . S
C290 C293 1.348 . S
C290 H338 0.929 . S
C291 C292 1.358 . S
C291 C293 1.356 . S
C291 H339 0.930 . S
C292 N289 1.279 . S
C292 C291 1.358 . S
C292 H295 0.930 . S
C293 C290 1.348 . S
C293 C291 1.356 . S
H294 C288 0.930 . S
H295 C292 0.930 . S
C296 C298 1.348 . S
C296 C299 1.356 . S
C296 O326 1.325 . S
N297 C300 1.314 . S
N297 C301 1.279 . S
C298 C296 1.348 . S
C298 C300 1.353 . S
C298 H340 0.929 . S
C299 C296 1.356 . S
C299 C301 1.358 . S
C299 H341 0.930 . S
C300 N297 1.314 . S
C300 C298 1.353 . S
C300 H342 0.930 . S
C301 N297 1.279 . S
C301 C299 1.358 . S
C301 H343 0.930 . S
C302 C303 1.348 . S
C302 C304 1.356 . S
C302 O327 1.325 . S
C303 C302 1.348 . S
C303 C305 1.353 . S
C303 H344 0.929 . S
C304 C302 1.356 . S
C304 C306 1.358 . S
C304 H345 0.930 . S
C305 C303 1.353 . S
C305 N307 1.314 . S
C305 H346 0.930 . S
C306 C304 1.358 . S
C306 N307 1.279 . S
C306 H347 0.930 . S
N307 C305 1.314 . S
N307 C306 1.279 . S
C308 C310 1.353 . S
C308 N311 1.314 . S
C308 H314 0.930 . S
C309 N311 1.279 . S
C309 C312 1.358 . S
C309 H315 0.930 . S
C310 C308 1.353 . S
C310 C313 1.348 . S
C310 H348 0.929 . S
N311 Li266 1.990 . S
N311 C308 1.314 . S
N311 C309 1.279 . S
C312 C309 1.358 . S
C312 C313 1.356 . S
C312 H349 0.930 . S
C313 C310 1.348 . S
C313 C312 1.356 . S
H314 C308 0.930 . S
H315 C309 0.930 . S
C316 N317 1.314 . S
C316 C318 1.353 . S
C316 H322 0.930 . S
N317 Li267 1.990 . S
N317 C316 1.314 . S
N317 C320 1.279 . S
C318 C316 1.353 . S
C318 C321 1.348 . S
C318 H350 0.929 . S
C319 C320 1.358 . S
C319 C321 1.356 . S
C319 H351 0.930 . S
C320 N317 1.279 . S
C320 C319 1.358 . S
C320 H323 0.930 . S
C321 C318 1.348 . S
C321 C319 1.356 . S
H322 C316 0.930 . S
H323 C320 0.930 . S
O324 Li264 1.956 . S
O324 Li265 1.970 . S
O324 Li266 1.961 . S
O324 C268 1.325 . S
O325 Li264 1.970 . S
O325 Li265 1.956 . S
O325 Li267 1.961 . S
O325 C274 1.325 . S
O326 Li264 1.961 . S
O326 Li266 1.956 . S
O326 Li267 1.970 . S
O326 C296 1.325 . S
O327 Li265 1.961 . S
O327 Li266 1.970 . S
O327 Li267 1.956 . S
O327 C302 1.325 . S
H328 C270 0.929 . S
H329 C271 0.930 . S
H330 C272 0.930 . S
H331 C273 0.930 . S
H332 C275 0.930 . S
H333 C277 0.929 . S
H334 C278 0.930 . S
H335 C279 0.930 . S
H336 C282 0.930 . S
H337 C285 0.929 . S
H338 C290 0.929 . S
H339 C291 0.930 . S
H340 C298 0.929 . S
H341 C299 0.930 . S
H342 C300 0.930 . S
H343 C301 0.930 . S
H344 C303 0.929 . S
H345 C304 0.930 . S
H346 C305 0.930 . S
H347 C306 0.930 . S
H348 C310 0.929 . S
H349 C312 0.930 . S
H350 C318 0.929 . S
H351 C319 0.930 . S
Li352 N369 1.990 . S
Li352 O412 1.956 . S
Li352 O413 1.970 . S
Li352 O414 1.961 . S
Li353 N377 1.990 . S
Li353 O412 1.970 . S
Li353 O413 1.956 . S
Li353 O415 1.961 . S
Li354 N399 1.990 . S
Li354 O412 1.961 . S
Li354 O414 1.956 . S
Li354 O415 1.970 . S
Li355 N405 1.990 . S
Li355 O413 1.961 . S
Li355 O414 1.970 . S
Li355 O415 1.956 . S
C356 C358 1.348 . S
C356 C359 1.356 . S
C356 O412 1.325 . S
N357 C360 1.314 . S
N357 C361 1.279 . S
C358 C356 1.348 . S
C358 C360 1.353 . S
C358 H416 0.929 . S
C359 C356 1.356 . S
C359 C361 1.358 . S
C359 H417 0.930 . S
C360 N357 1.314 . S
C360 C358 1.353 . S
C360 H418 0.930 . S
C361 N357 1.279 . S
C361 C359 1.358 . S
C361 H419 0.930 . S
C362 C365 1.348 . S
C362 C366 1.356 . S
C362 O413 1.325 . S
C363 N364 1.279 . S
C363 C366 1.358 . S
C363 H420 0.930 . S
N364 C363 1.279 . S
N364 C367 1.314 . S
C365 C362 1.348 . S
C365 C367 1.353 . S
C365 H421 0.929 . S
C366 C362 1.356 . S
C366 C363 1.358 . S
C366 H422 0.930 . S
C367 N364 1.314 . S
C367 C365 1.353 . S
C367 H423 0.930 . S
C368 N369 1.314 . S
C368 C373 1.353 . S
C368 H374 0.930 . S
N369 Li352 1.990 . S
N369 C368 1.314 . S
N369 C371 1.279 . S
C370 C371 1.358 . S
C370 C372 1.356 . S
C370 H424 0.930 . S
C371 N369 1.279 . S
C371 C370 1.358 . S
C371 H375 0.930 . S
C372 C370 1.356 . S
C372 C373 1.348 . S
C373 C368 1.353 . S
C373 C372 1.348 . S
C373 H425 0.929 . S
H374 C368 0.930 . S
H375 C371 0.930 . S
C376 N377 1.314 . S
C376 C378 1.353 . S
C376 H382 0.930 . S
N377 Li353 1.990 . S
N377 C376 1.314 . S
N377 C380 1.279 . S
C378 C376 1.353 . S
C378 C381 1.348 . S
C378 H426 0.929 . S
C379 C380 1.358 . S
C379 C381 1.356 . S
C379 H427 0.930 . S
C380 N377 1.279 . S
C380 C379 1.358 . S
C380 H383 0.930 . S
C381 C378 1.348 . S
C381 C379 1.356 . S
H382 C376 0.930 . S
H383 C380 0.930 . S
C384 C386 1.348 . S
C384 C387 1.356 . S
C384 O414 1.325 . S
N385 C388 1.314 . S
N385 C389 1.279 . S
C386 C384 1.348 . S
C386 C388 1.353 . S
C386 H428 0.929 . S
C387 C384 1.356 . S
C387 C389 1.358 . S
C387 H429 0.930 . S
C388 N385 1.314 . S
C388 C386 1.353 . S
C388 H430 0.930 . S
C389 N385 1.279 . S
C389 C387 1.358 . S
C389 H431 0.930 . S
C390 C391 1.348 . S
C390 C392 1.356 . S
C390 O415 1.325 . S
C391 C390 1.348 . S
C391 C393 1.353 . S
C391 H432 0.929 . S
C392 C390 1.356 . S
C392 C394 1.358 . S
C392 H433 0.930 . S
C393 C391 1.353 . S
C393 N395 1.314 . S
C393 H434 0.930 . S
C394 C392 1.358 . S
C394 N395 1.279 . S
C394 H435 0.930 . S
N395 C393 1.314 . S
N395 C394 1.279 . S
C396 C398 1.353 . S
C396 N399 1.314 . S
C396 H402 0.930 . S
C397 N399 1.279 . S
C397 C400 1.358 . S
C397 H403 0.930 . S
C398 C396 1.353 . S
C398 C401 1.348 . S
C398 H436 0.929 . S
N399 Li354 1.990 . S
N399 C396 1.314 . S
N399 C397 1.279 . S
C400 C397 1.358 . S
C400 C401 1.356 . S
C400 H437 0.930 . S
C401 C398 1.348 . S
C401 C400 1.356 . S
H402 C396 0.930 . S
H403 C397 0.930 . S
C404 N405 1.314 . S
C404 C406 1.353 . S
C404 H410 0.930 . S
N405 Li355 1.990 . S
N405 C404 1.314 . S
N405 C408 1.279 . S
C406 C404 1.353 . S
C406 C409 1.348 . S
C406 H438 0.929 . S
C407 C408 1.358 . S
C407 C409 1.356 . S
C407 H439 0.930 . S
C408 N405 1.279 . S
C408 C407 1.358 . S
C408 H411 0.930 . S
C409 C406 1.348 . S
C409 C407 1.356 . S
H410 C404 0.930 . S
H411 C408 0.930 . S
O412 Li352 1.956 . S
O412 Li353 1.970 . S
O412 Li354 1.961 . S
O412 C356 1.325 . S
O413 Li352 1.970 . S
O413 Li353 1.956 . S
O413 Li355 1.961 . S
O413 C362 1.325 . S
O414 Li352 1.961 . S
O414 Li354 1.956 . S
O414 Li355 1.970 . S
O414 C384 1.325 . S
O415 Li353 1.961 . S
O415 Li354 1.970 . S
O415 Li355 1.956 . S
O415 C390 1.325 . S
H416 C358 0.929 . S
H417 C359 0.930 . S
H418 C360 0.930 . S
H419 C361 0.930 . S
H420 C363 0.930 . S
H421 C365 0.929 . S
H422 C366 0.930 . S
H423 C367 0.930 . S
H424 C370 0.930 . S
H425 C373 0.929 . S
H426 C378 0.929 . S
H427 C379 0.930 . S
H428 C386 0.929 . S
H429 C387 0.930 . S
H430 C388 0.930 . S
H431 C389 0.930 . S
H432 C391 0.929 . S
H433 C392 0.930 . S
H434 C393 0.930 . S
H435 C394 0.930 . S
H436 C398 0.929 . S
H437 C400 0.930 . S
H438 C406 0.929 . S
H439 C407 0.930 . S
Li440 N457 1.990 . S
Li440 O500 1.956 . S
Li440 O501 1.970 . S
Li440 O502 1.961 . S
Li441 N465 1.990 . S
Li441 O500 1.970 . S
Li441 O501 1.956 . S
Li441 O503 1.961 . S
Li442 N487 1.990 . S
Li442 O500 1.961 . S
Li442 O502 1.956 . S
Li442 O503 1.970 . S
Li443 N493 1.990 . S
Li443 O501 1.961 . S
Li443 O502 1.970 . S
Li443 O503 1.956 . S
C444 C446 1.348 . S
C444 C447 1.356 . S
C444 O500 1.325 . S
N445 C448 1.314 . S
N445 C449 1.279 . S
C446 C444 1.348 . S
C446 C448 1.353 . S
C446 H504 0.929 . S
C447 C444 1.356 . S
C447 C449 1.358 . S
C447 H505 0.930 . S
C448 N445 1.314 . S
C448 C446 1.353 . S
C448 H506 0.930 . S
C449 N445 1.279 . S
C449 C447 1.358 . S
C449 H507 0.930 . S
C450 C453 1.348 . S
C450 C454 1.356 . S
C450 O501 1.325 . S
C451 N452 1.279 . S
C451 C454 1.358 . S
C451 H508 0.930 . S
N452 C451 1.279 . S
N452 C455 1.314 . S
C453 C450 1.348 . S
C453 C455 1.353 . S
C453 H509 0.929 . S
C454 C450 1.356 . S
C454 C451 1.358 . S
C454 H510 0.930 . S
C455 N452 1.314 . S
C455 C453 1.353 . S
C455 H511 0.930 . S
C456 N457 1.314 . S
C456 C461 1.353 . S
C456 H462 0.930 . S
N457 Li440 1.990 . S
N457 C456 1.314 . S
N457 C459 1.279 . S
C458 C459 1.358 . S
C458 C460 1.356 . S
C458 H512 0.930 . S
C459 N457 1.279 . S
C459 C458 1.358 . S
C459 H463 0.930 . S
C460 C458 1.356 . S
C460 C461 1.348 . S
C461 C456 1.353 . S
C461 C460 1.348 . S
C461 H513 0.929 . S
H462 C456 0.930 . S
H463 C459 0.930 . S
C464 N465 1.314 . S
C464 C466 1.353 . S
C464 H470 0.930 . S
N465 Li441 1.990 . S
N465 C464 1.314 . S
N465 C468 1.279 . S
C466 C464 1.353 . S
C466 C469 1.348 . S
C466 H514 0.929 . S
C467 C468 1.358 . S
C467 C469 1.356 . S
C467 H515 0.930 . S
C468 N465 1.279 . S
C468 C467 1.358 . S
C468 H471 0.930 . S
C469 C466 1.348 . S
C469 C467 1.356 . S
H470 C464 0.930 . S
H471 C468 0.930 . S
C472 C474 1.348 . S
C472 C475 1.356 . S
C472 O502 1.325 . S
N473 C476 1.314 . S
N473 C477 1.279 . S
C474 C472 1.348 . S
C474 C476 1.353 . S
C474 H516 0.929 . S
C475 C472 1.356 . S
C475 C477 1.358 . S
C475 H517 0.930 . S
C476 N473 1.314 . S
C476 C474 1.353 . S
C476 H518 0.930 . S
C477 N473 1.279 . S
C477 C475 1.358 . S
C477 H519 0.930 . S
C478 C479 1.348 . S
C478 C480 1.356 . S
C478 O503 1.325 . S
C479 C478 1.348 . S
C479 C481 1.353 . S
C479 H520 0.929 . S
C480 C478 1.356 . S
C480 C482 1.358 . S
C480 H521 0.930 . S
C481 C479 1.353 . S
C481 N483 1.314 . S
C481 H522 0.930 . S
C482 C480 1.358 . S
C482 N483 1.279 . S
C482 H523 0.930 . S
N483 C481 1.314 . S
N483 C482 1.279 . S
C484 C486 1.353 . S
C484 N487 1.314 . S
C484 H490 0.930 . S
C485 N487 1.279 . S
C485 C488 1.358 . S
C485 H491 0.930 . S
C486 C484 1.353 . S
C486 C489 1.348 . S
C486 H524 0.929 . S
N487 Li442 1.990 . S
N487 C484 1.314 . S
N487 C485 1.279 . S
C488 C485 1.358 . S
C488 C489 1.356 . S
C488 H525 0.930 . S
C489 C486 1.348 . S
C489 C488 1.356 . S
H490 C484 0.930 . S
H491 C485 0.930 . S
C492 N493 1.314 . S
C492 C494 1.353 . S
C492 H498 0.930 . S
N493 Li443 1.990 . S
N493 C492 1.314 . S
N493 C496 1.279 . S
C494 C492 1.353 . S
C494 C497 1.348 . S
C494 H526 0.929 . S
C495 C496 1.358 . S
C495 C497 1.356 . S
C495 H527 0.930 . S
C496 N493 1.279 . S
C496 C495 1.358 . S
C496 H499 0.930 . S
C497 C494 1.348 . S
C497 C495 1.356 . S
H498 C492 0.930 . S
H499 C496 0.930 . S
O500 Li440 1.956 . S
O500 Li441 1.970 . S
O500 Li442 1.961 . S
O500 C444 1.325 . S
O501 Li440 1.970 . S
O501 Li441 1.956 . S
O501 Li443 1.961 . S
O501 C450 1.325 . S
O502 Li440 1.961 . S
O502 Li442 1.956 . S
O502 Li443 1.970 . S
O502 C472 1.325 . S
O503 Li441 1.961 . S
O503 Li442 1.970 . S
O503 Li443 1.956 . S
O503 C478 1.325 . S
H504 C446 0.929 . S
H505 C447 0.930 . S
H506 C448 0.930 . S
H507 C449 0.930 . S
H508 C451 0.930 . S
H509 C453 0.929 . S
H510 C454 0.930 . S
H511 C455 0.930 . S
H512 C458 0.930 . S
H513 C461 0.929 . S
H514 C466 0.929 . S
H515 C467 0.930 . S
H516 C474 0.929 . S
H517 C475 0.930 . S
H518 C476 0.930 . S
H519 C477 0.930 . S
H520 C479 0.929 . S
H521 C480 0.930 . S
H522 C481 0.930 . S
H523 C482 0.930 . S
H524 C486 0.929 . S
H525 C488 0.930 . S
H526 C494 0.929 . S
H527 C495 0.930 . S
Li528 N545 1.990 . S
Li528 O588 1.956 . S
Li528 O589 1.970 . S
Li528 O590 1.961 . S
Li529 N553 1.990 . S
Li529 O588 1.970 . S
Li529 O589 1.956 . S
Li529 O591 1.961 . S
Li530 N575 1.990 . S
Li530 O588 1.961 . S
Li530 O590 1.956 . S
Li530 O591 1.970 . S
Li531 N581 1.990 . S
Li531 O589 1.961 . S
Li531 O590 1.970 . S
Li531 O591 1.956 . S
C532 C534 1.348 . S
C532 C535 1.356 . S
C532 O588 1.325 . S
N533 C536 1.314 . S
N533 C537 1.279 . S
C534 C532 1.348 . S
C534 C536 1.353 . S
C534 H592 0.929 . S
C535 C532 1.356 . S
C535 C537 1.358 . S
C535 H593 0.930 . S
C536 N533 1.314 . S
C536 C534 1.353 . S
C536 H594 0.930 . S
C537 N533 1.279 . S
C537 C535 1.358 . S
C537 H595 0.930 . S
C538 C541 1.348 . S
C538 C542 1.356 . S
C538 O589 1.325 . S
C539 N540 1.279 . S
C539 C542 1.358 . S
C539 H596 0.930 . S
N540 C539 1.279 . S
N540 C543 1.314 . S
C541 C538 1.348 . S
C541 C543 1.353 . S
C541 H597 0.929 . S
C542 C538 1.356 . S
C542 C539 1.358 . S
C542 H598 0.930 . S
C543 N540 1.314 . S
C543 C541 1.353 . S
C543 H599 0.930 . S
C544 N545 1.314 . S
C544 C549 1.353 . S
C544 H550 0.930 . S
N545 Li528 1.990 . S
N545 C544 1.314 . S
N545 C547 1.279 . S
C546 C547 1.358 . S
C546 C548 1.356 . S
C546 H600 0.930 . S
C547 N545 1.279 . S
C547 C546 1.358 . S
C547 H551 0.930 . S
C548 C546 1.356 . S
C548 C549 1.348 . S
C549 C544 1.353 . S
C549 C548 1.348 . S
C549 H601 0.929 . S
H550 C544 0.930 . S
H551 C547 0.930 . S
C552 N553 1.314 . S
C552 C554 1.353 . S
C552 H558 0.930 . S
N553 Li529 1.990 . S
N553 C552 1.314 . S
N553 C556 1.279 . S
C554 C552 1.353 . S
C554 C557 1.348 . S
C554 H602 0.929 . S
C555 C556 1.358 . S
C555 C557 1.356 . S
C555 H603 0.930 . S
C556 N553 1.279 . S
C556 C555 1.358 . S
C556 H559 0.930 . S
C557 C554 1.348 . S
C557 C555 1.356 . S
H558 C552 0.930 . S
H559 C556 0.930 . S
C560 C562 1.348 . S
C560 C563 1.356 . S
C560 O590 1.325 . S
N561 C564 1.314 . S
N561 C565 1.279 . S
C562 C560 1.348 . S
C562 C564 1.353 . S
C562 H604 0.929 . S
C563 C560 1.356 . S
C563 C565 1.358 . S
C563 H605 0.930 . S
C564 N561 1.314 . S
C564 C562 1.353 . S
C564 H606 0.930 . S
C565 N561 1.279 . S
C565 C563 1.358 . S
C565 H607 0.930 . S
C566 C567 1.348 . S
C566 C568 1.356 . S
C566 O591 1.325 . S
C567 C566 1.348 . S
C567 C569 1.353 . S
C567 H608 0.929 . S
C568 C566 1.356 . S
C568 C570 1.358 . S
C568 H609 0.930 . S
C569 C567 1.353 . S
C569 N571 1.314 . S
C569 H610 0.930 . S
C570 C568 1.358 . S
C570 N571 1.279 . S
C570 H611 0.930 . S
N571 C569 1.314 . S
N571 C570 1.279 . S
C572 C574 1.353 . S
C572 N575 1.314 . S
C572 H578 0.930 . S
C573 N575 1.279 . S
C573 C576 1.358 . S
C573 H579 0.930 . S
C574 C572 1.353 . S
C574 C577 1.348 . S
C574 H612 0.929 . S
N575 Li530 1.990 . S
N575 C572 1.314 . S
N575 C573 1.279 . S
C576 C573 1.358 . S
C576 C577 1.356 . S
C576 H613 0.930 . S
C577 C574 1.348 . S
C577 C576 1.356 . S
H578 C572 0.930 . S
H579 C573 0.930 . S
C580 N581 1.314 . S
C580 C582 1.353 . S
C580 H586 0.930 . S
N581 Li531 1.990 . S
N581 C580 1.314 . S
N581 C584 1.279 . S
C582 C580 1.353 . S
C582 C585 1.348 . S
C582 H614 0.929 . S
C583 C584 1.358 . S
C583 C585 1.356 . S
C583 H615 0.930 . S
C584 N581 1.279 . S
C584 C583 1.358 . S
C584 H587 0.930 . S
C585 C582 1.348 . S
C585 C583 1.356 . S
H586 C580 0.930 . S
H587 C584 0.930 . S
O588 Li528 1.956 . S
O588 Li529 1.970 . S
O588 Li530 1.961 . S
O588 C532 1.325 . S
O589 Li528 1.970 . S
O589 Li529 1.956 . S
O589 Li531 1.961 . S
O589 C538 1.325 . S
O590 Li528 1.961 . S
O590 Li530 1.956 . S
O590 Li531 1.970 . S
O590 C560 1.325 . S
O591 Li529 1.961 . S
O591 Li530 1.970 . S
O591 Li531 1.956 . S
O591 C566 1.325 . S
H592 C534 0.929 . S
H593 C535 0.930 . S
H594 C536 0.930 . S
H595 C537 0.930 . S
H596 C539 0.930 . S
H597 C541 0.929 . S
H598 C542 0.930 . S
H599 C543 0.930 . S
H600 C546 0.930 . S
H601 C549 0.929 . S
H602 C554 0.929 . S
H603 C555 0.930 . S
H604 C562 0.929 . S
H605 C563 0.930 . S
H606 C564 0.930 . S
H607 C565 0.930 . S
H608 C567 0.929 . S
H609 C568 0.930 . S
H610 C569 0.930 . S
H611 C570 0.930 . S
H612 C574 0.929 . S
H613 C576 0.930 . S
H614 C582 0.929 . S
H615 C583 0.930 . S
Li616 N633 1.990 . S
Li616 O676 1.956 . S
Li616 O677 1.970 . S
Li616 O678 1.961 . S
Li617 N641 1.990 . S
Li617 O676 1.970 . S
Li617 O677 1.956 . S
Li617 O679 1.961 . S
Li618 N663 1.990 . S
Li618 O676 1.961 . S
Li618 O678 1.956 . S
Li618 O679 1.970 . S
Li619 N669 1.990 . S
Li619 O677 1.961 . S
Li619 O678 1.970 . S
Li619 O679 1.956 . S
C620 C622 1.348 . S
C620 C623 1.356 . S
C620 O676 1.325 . S
N621 C624 1.314 . S
N621 C625 1.279 . S
C622 C620 1.348 . S
C622 C624 1.353 . S
C622 H680 0.929 . S
C623 C620 1.356 . S
C623 C625 1.358 . S
C623 H681 0.930 . S
C624 N621 1.314 . S
C624 C622 1.353 . S
C624 H682 0.930 . S
C625 N621 1.279 . S
C625 C623 1.358 . S
C625 H683 0.930 . S
C626 C629 1.348 . S
C626 C630 1.356 . S
C626 O677 1.325 . S
C627 N628 1.279 . S
C627 C630 1.358 . S
C627 H684 0.930 . S
N628 C627 1.279 . S
N628 C631 1.314 . S
C629 C626 1.348 . S
C629 C631 1.353 . S
C629 H685 0.929 . S
C630 C626 1.356 . S
C630 C627 1.358 . S
C630 H686 0.930 . S
C631 N628 1.314 . S
C631 C629 1.353 . S
C631 H687 0.930 . S
C632 N633 1.314 . S
C632 C637 1.353 . S
C632 H638 0.930 . S
N633 Li616 1.990 . S
N633 C632 1.314 . S
N633 C635 1.279 . S
C634 C635 1.358 . S
C634 C636 1.356 . S
C634 H688 0.930 . S
C635 N633 1.279 . S
C635 C634 1.358 . S
C635 H639 0.930 . S
C636 C634 1.356 . S
C636 C637 1.348 . S
C637 C632 1.353 . S
C637 C636 1.348 . S
C637 H689 0.929 . S
H638 C632 0.930 . S
H639 C635 0.930 . S
C640 N641 1.314 . S
C640 C642 1.353 . S
C640 H646 0.930 . S
N641 Li617 1.990 . S
N641 C640 1.314 . S
N641 C644 1.279 . S
C642 C640 1.353 . S
C642 C645 1.348 . S
C642 H690 0.929 . S
C643 C644 1.358 . S
C643 C645 1.356 . S
C643 H691 0.930 . S
C644 N641 1.279 . S
C644 C643 1.358 . S
C644 H647 0.930 . S
C645 C642 1.348 . S
C645 C643 1.356 . S
H646 C640 0.930 . S
H647 C644 0.930 . S
C648 C650 1.348 . S
C648 C651 1.356 . S
C648 O678 1.325 . S
N649 C652 1.314 . S
N649 C653 1.279 . S
C650 C648 1.348 . S
C650 C652 1.353 . S
C650 H692 0.929 . S
C651 C648 1.356 . S
C651 C653 1.358 . S
C651 H693 0.930 . S
C652 N649 1.314 . S
C652 C650 1.353 . S
C652 H694 0.930 . S
C653 N649 1.279 . S
C653 C651 1.358 . S
C653 H695 0.930 . S
C654 C655 1.348 . S
C654 C656 1.356 . S
C654 O679 1.325 . S
C655 C654 1.348 . S
C655 C657 1.353 . S
C655 H696 0.929 . S
C656 C654 1.356 . S
C656 C658 1.358 . S
C656 H697 0.930 . S
C657 C655 1.353 . S
C657 N659 1.314 . S
C657 H698 0.930 . S
C658 C656 1.358 . S
C658 N659 1.279 . S
C658 H699 0.930 . S
N659 C657 1.314 . S
N659 C658 1.279 . S
C660 C662 1.353 . S
C660 N663 1.314 . S
C660 H666 0.930 . S
C661 N663 1.279 . S
C661 C664 1.358 . S
C661 H667 0.930 . S
C662 C660 1.353 . S
C662 C665 1.348 . S
C662 H700 0.929 . S
N663 Li618 1.990 . S
N663 C660 1.314 . S
N663 C661 1.279 . S
C664 C661 1.358 . S
C664 C665 1.356 . S
C664 H701 0.930 . S
C665 C662 1.348 . S
C665 C664 1.356 . S
H666 C660 0.930 . S
H667 C661 0.930 . S
C668 N669 1.314 . S
C668 C670 1.353 . S
C668 H674 0.930 . S
N669 Li619 1.990 . S
N669 C668 1.314 . S
N669 C672 1.279 . S
C670 C668 1.353 . S
C670 C673 1.348 . S
C670 H702 0.929 . S
C671 C672 1.358 . S
C671 C673 1.356 . S
C671 H703 0.930 . S
C672 N669 1.279 . S
C672 C671 1.358 . S
C672 H675 0.930 . S
C673 C670 1.348 . S
C673 C671 1.356 . S
H674 C668 0.930 . S
H675 C672 0.930 . S
O676 Li616 1.956 . S
O676 Li617 1.970 . S
O676 Li618 1.961 . S
O676 C620 1.325 . S
O677 Li616 1.970 . S
O677 Li617 1.956 . S
O677 Li619 1.961 . S
O677 C626 1.325 . S
O678 Li616 1.961 . S
O678 Li618 1.956 . S
O678 Li619 1.970 . S
O678 C648 1.325 . S
O679 Li617 1.961 . S
O679 Li618 1.970 . S
O679 Li619 1.956 . S
O679 C654 1.325 . S
H680 C622 0.929 . S
H681 C623 0.930 . S
H682 C624 0.930 . S
H683 C625 0.930 . S
H684 C627 0.930 . S
H685 C629 0.929 . S
H686 C630 0.930 . S
H687 C631 0.930 . S
H688 C634 0.930 . S
H689 C637 0.929 . S
H690 C642 0.929 . S
H691 C643 0.930 . S
H692 C650 0.929 . S
H693 C651 0.930 . S
H694 C652 0.930 . S
H695 C653 0.930 . S
H696 C655 0.929 . S
H697 C656 0.930 . S
H698 C657 0.930 . S
H699 C658 0.930 . S
H700 C662 0.929 . S
H701 C664 0.930 . S
H702 C670 0.929 . S
H703 C671 0.930 . S
Li704 N721 1.990 . S
Li704 O764 1.956 . S
Li704 O765 1.970 . S
Li704 O766 1.961 . S
Li705 N729 1.990 . S
Li705 O764 1.970 . S
Li705 O765 1.956 . S
Li705 O767 1.961 . S
Li706 N751 1.990 . S
Li706 O764 1.961 . S
Li706 O766 1.956 . S
Li706 O767 1.970 . S
Li707 N757 1.990 . S
Li707 O765 1.961 . S
Li707 O766 1.970 . S
Li707 O767 1.956 . S
C708 C710 1.348 . S
C708 C711 1.356 . S
C708 O764 1.325 . S
N709 C712 1.314 . S
N709 C713 1.279 . S
C710 C708 1.348 . S
C710 C712 1.353 . S
C710 H768 0.929 . S
C711 C708 1.356 . S
C711 C713 1.358 . S
C711 H769 0.930 . S
C712 N709 1.314 . S
C712 C710 1.353 . S
C712 H770 0.930 . S
C713 N709 1.279 . S
C713 C711 1.358 . S
C713 H771 0.930 . S
C714 C717 1.348 . S
C714 C718 1.356 . S
C714 O765 1.325 . S
C715 N716 1.279 . S
C715 C718 1.358 . S
C715 H772 0.930 . S
N716 C715 1.279 . S
N716 C719 1.314 . S
C717 C714 1.348 . S
C717 C719 1.353 . S
C717 H773 0.929 . S
C718 C714 1.356 . S
C718 C715 1.358 . S
C718 H774 0.930 . S
C719 N716 1.314 . S
C719 C717 1.353 . S
C719 H775 0.930 . S
C720 N721 1.314 . S
C720 C725 1.353 . S
C720 H726 0.930 . S
N721 Li704 1.990 . S
N721 C720 1.314 . S
N721 C723 1.279 . S
C722 C723 1.358 . S
C722 C724 1.356 . S
C722 H776 0.930 . S
C723 N721 1.279 . S
C723 C722 1.358 . S
C723 H727 0.930 . S
C724 C722 1.356 . S
C724 C725 1.348 . S
C725 C720 1.353 . S
C725 C724 1.348 . S
C725 H777 0.929 . S
H726 C720 0.930 . S
H727 C723 0.930 . S
C728 N729 1.314 . S
C728 C730 1.353 . S
C728 H734 0.930 . S
N729 Li705 1.990 . S
N729 C728 1.314 . S
N729 C732 1.279 . S
C730 C728 1.353 . S
C730 C733 1.348 . S
C730 H778 0.929 . S
C731 C732 1.358 . S
C731 C733 1.356 . S
C731 H779 0.930 . S
C732 N729 1.279 . S
C732 C731 1.358 . S
C732 H735 0.930 . S
C733 C730 1.348 . S
C733 C731 1.356 . S
H734 C728 0.930 . S
H735 C732 0.930 . S
C736 C738 1.348 . S
C736 C739 1.356 . S
C736 O766 1.325 . S
N737 C740 1.314 . S
N737 C741 1.279 . S
C738 C736 1.348 . S
C738 C740 1.353 . S
C738 H780 0.929 . S
C739 C736 1.356 . S
C739 C741 1.358 . S
C739 H781 0.930 . S
C740 N737 1.314 . S
C740 C738 1.353 . S
C740 H782 0.930 . S
C741 N737 1.279 . S
C741 C739 1.358 . S
C741 H783 0.930 . S
C742 C743 1.348 . S
C742 C744 1.356 . S
C742 O767 1.325 . S
C743 C742 1.348 . S
C743 C745 1.353 . S
C743 H784 0.929 . S
C744 C742 1.356 . S
C744 C746 1.358 . S
C744 H785 0.930 . S
C745 C743 1.353 . S
C745 N747 1.314 . S
C745 H786 0.930 . S
C746 C744 1.358 . S
C746 N747 1.279 . S
C746 H787 0.930 . S
N747 C745 1.314 . S
N747 C746 1.279 . S
C748 C750 1.353 . S
C748 N751 1.314 . S
C748 H754 0.930 . S
C749 N751 1.279 . S
C749 C752 1.358 . S
C749 H755 0.930 . S
C750 C748 1.353 . S
C750 C753 1.348 . S
C750 H788 0.929 . S
N751 Li706 1.990 . S
N751 C748 1.314 . S
N751 C749 1.279 . S
C752 C749 1.358 . S
C752 C753 1.356 . S
C752 H789 0.930 . S
C753 C750 1.348 . S
C753 C752 1.356 . S
H754 C748 0.930 . S
H755 C749 0.930 . S
C756 N757 1.314 . S
C756 C758 1.353 . S
C756 H762 0.930 . S
N757 Li707 1.990 . S
N757 C756 1.314 . S
N757 C760 1.279 . S
C758 C756 1.353 . S
C758 C761 1.348 . S
C758 H790 0.929 . S
C759 C760 1.358 . S
C759 C761 1.356 . S
C759 H791 0.930 . S
C760 N757 1.279 . S
C760 C759 1.358 . S
C760 H763 0.930 . S
C761 C758 1.348 . S
C761 C759 1.356 . S
H762 C756 0.930 . S
H763 C760 0.930 . S
O764 Li704 1.956 . S
O764 Li705 1.970 . S
O764 Li706 1.961 . S
O764 C708 1.325 . S
O765 Li704 1.970 . S
O765 Li705 1.956 . S
O765 Li707 1.961 . S
O765 C714 1.325 . S
O766 Li704 1.961 . S
O766 Li706 1.956 . S
O766 Li707 1.970 . S
O766 C736 1.325 . S
O767 Li705 1.961 . S
O767 Li706 1.970 . S
O767 Li707 1.956 . S
O767 C742 1.325 . S
H768 C710 0.929 . S
H769 C711 0.930 . S
H770 C712 0.930 . S
H771 C713 0.930 . S
H772 C715 0.930 . S
H773 C717 0.929 . S
H774 C718 0.930 . S
H775 C719 0.930 . S
H776 C722 0.930 . S
H777 C725 0.929 . S
H778 C730 0.929 . S
H779 C731 0.930 . S
H780 C738 0.929 . S
H781 C739 0.930 . S
H782 C740 0.930 . S
H783 C741 0.930 . S
H784 C743 0.929 . S
H785 C744 0.930 . S
H786 C745 0.930 . S
H787 C746 0.930 . S
H788 C750 0.929 . S
H789 C752 0.930 . S
H790 C758 0.929 . S
H791 C759 0.930 . S
Li792 N809 1.990 . S
Li792 O852 1.956 . S
Li792 O853 1.970 . S
Li792 O854 1.961 . S
Li793 N817 1.990 . S
Li793 O852 1.970 . S
Li793 O853 1.956 . S
Li793 O855 1.961 . S
Li794 N839 1.990 . S
Li794 O852 1.961 . S
Li794 O854 1.956 . S
Li794 O855 1.970 . S
Li795 N845 1.990 . S
Li795 O853 1.961 . S
Li795 O854 1.970 . S
Li795 O855 1.956 . S
C796 C798 1.348 . S
C796 C799 1.356 . S
C796 O852 1.325 . S
N797 C800 1.314 . S
N797 C801 1.279 . S
C798 C796 1.348 . S
C798 C800 1.353 . S
C798 H856 0.929 . S
C799 C796 1.356 . S
C799 C801 1.358 . S
C799 H857 0.930 . S
C800 N797 1.314 . S
C800 C798 1.353 . S
C800 H858 0.930 . S
C801 N797 1.279 . S
C801 C799 1.358 . S
C801 H859 0.930 . S
C802 C805 1.348 . S
C802 C806 1.356 . S
C802 O853 1.325 . S
C803 N804 1.279 . S
C803 C806 1.358 . S
C803 H860 0.930 . S
N804 C803 1.279 . S
N804 C807 1.314 . S
C805 C802 1.348 . S
C805 C807 1.353 . S
C805 H861 0.929 . S
C806 C802 1.356 . S
C806 C803 1.358 . S
C806 H862 0.930 . S
C807 N804 1.314 . S
C807 C805 1.353 . S
C807 H863 0.930 . S
C808 N809 1.314 . S
C808 C813 1.353 . S
C808 H814 0.930 . S
N809 Li792 1.990 . S
N809 C808 1.314 . S
N809 C811 1.279 . S
C810 C811 1.358 . S
C810 C812 1.356 . S
C810 H864 0.930 . S
C811 N809 1.279 . S
C811 C810 1.358 . S
C811 H815 0.930 . S
C812 C810 1.356 . S
C812 C813 1.348 . S
C813 C808 1.353 . S
C813 C812 1.348 . S
C813 H865 0.929 . S
H814 C808 0.930 . S
H815 C811 0.930 . S
C816 N817 1.314 . S
C816 C818 1.353 . S
C816 H822 0.930 . S
N817 Li793 1.990 . S
N817 C816 1.314 . S
N817 C820 1.279 . S
C818 C816 1.353 . S
C818 C821 1.348 . S
C818 H866 0.929 . S
C819 C820 1.358 . S
C819 C821 1.356 . S
C819 H867 0.930 . S
C820 N817 1.279 . S
C820 C819 1.358 . S
C820 H823 0.930 . S
C821 C818 1.348 . S
C821 C819 1.356 . S
H822 C816 0.930 . S
H823 C820 0.930 . S
C824 C826 1.348 . S
C824 C827 1.356 . S
C824 O854 1.325 . S
N825 C828 1.314 . S
N825 C829 1.279 . S
C826 C824 1.348 . S
C826 C828 1.353 . S
C826 H868 0.929 . S
C827 C824 1.356 . S
C827 C829 1.358 . S
C827 H869 0.930 . S
C828 N825 1.314 . S
C828 C826 1.353 . S
C828 H870 0.930 . S
C829 N825 1.279 . S
C829 C827 1.358 . S
C829 H871 0.930 . S
C830 C831 1.348 . S
C830 C832 1.356 . S
C830 O855 1.325 . S
C831 C830 1.348 . S
C831 C833 1.353 . S
C831 H872 0.929 . S
C832 C830 1.356 . S
C832 C834 1.358 . S
C832 H873 0.930 . S
C833 C831 1.353 . S
C833 N835 1.314 . S
C833 H874 0.930 . S
C834 C832 1.358 . S
C834 N835 1.279 . S
C834 H875 0.930 . S
N835 C833 1.314 . S
N835 C834 1.279 . S
C836 C838 1.353 . S
C836 N839 1.314 . S
C836 H842 0.930 . S
C837 N839 1.279 . S
C837 C840 1.358 . S
C837 H843 0.930 . S
C838 C836 1.353 . S
C838 C841 1.348 . S
C838 H876 0.929 . S
N839 Li794 1.990 . S
N839 C836 1.314 . S
N839 C837 1.279 . S
C840 C837 1.358 . S
C840 C841 1.356 . S
C840 H877 0.930 . S
C841 C838 1.348 . S
C841 C840 1.356 . S
H842 C836 0.930 . S
H843 C837 0.930 . S
C844 N845 1.314 . S
C844 C846 1.353 . S
C844 H850 0.930 . S
N845 Li795 1.990 . S
N845 C844 1.314 . S
N845 C848 1.279 . S
C846 C844 1.353 . S
C846 C849 1.348 . S
C846 H878 0.929 . S
C847 C848 1.358 . S
C847 C849 1.356 . S
C847 H879 0.930 . S
C848 N845 1.279 . S
C848 C847 1.358 . S
C848 H851 0.930 . S
C849 C846 1.348 . S
C849 C847 1.356 . S
H850 C844 0.930 . S
H851 C848 0.930 . S
O852 Li792 1.956 . S
O852 Li793 1.970 . S
O852 Li794 1.961 . S
O852 C796 1.325 . S
O853 Li792 1.970 . S
O853 Li793 1.956 . S
O853 Li795 1.961 . S
O853 C802 1.325 . S
O854 Li792 1.961 . S
O854 Li794 1.956 . S
O854 Li795 1.970 . S
O854 C824 1.325 . S
O855 Li793 1.961 . S
O855 Li794 1.970 . S
O855 Li795 1.956 . S
O855 C830 1.325 . S
H856 C798 0.929 . S
H857 C799 0.930 . S
H858 C800 0.930 . S
H859 C801 0.930 . S
H860 C803 0.930 . S
H861 C805 0.929 . S
H862 C806 0.930 . S
H863 C807 0.930 . S
H864 C810 0.930 . S
H865 C813 0.929 . S
H866 C818 0.929 . S
H867 C819 0.930 . S
H868 C826 0.929 . S
H869 C827 0.930 . S
H870 C828 0.930 . S
H871 C829 0.930 . S
H872 C831 0.929 . S
H873 C832 0.930 . S
H874 C833 0.930 . S
H875 C834 0.930 . S
H876 C838 0.929 . S
H877 C840 0.930 . S
H878 C846 0.929 . S
H879 C847 0.930 . S
Li880 N897 1.990 . S
Li880 O940 1.956 . S
Li880 O941 1.970 . S
Li880 O942 1.961 . S
Li881 N905 1.990 . S
Li881 O940 1.970 . S
Li881 O941 1.956 . S
Li881 O943 1.961 . S
Li882 N927 1.990 . S
Li882 O940 1.961 . S
Li882 O942 1.956 . S
Li882 O943 1.970 . S
Li883 N933 1.990 . S
Li883 O941 1.961 . S
Li883 O942 1.970 . S
Li883 O943 1.956 . S
C884 C886 1.348 . S
C884 C887 1.356 . S
C884 O940 1.325 . S
N885 C888 1.314 . S
N885 C889 1.279 . S
C886 C884 1.348 . S
C886 C888 1.353 . S
C886 H944 0.929 . S
C887 C884 1.356 . S
C887 C889 1.358 . S
C887 H945 0.930 . S
C888 N885 1.314 . S
C888 C886 1.353 . S
C888 H946 0.930 . S
C889 N885 1.279 . S
C889 C887 1.358 . S
C889 H947 0.930 . S
C890 C893 1.348 . S
C890 C894 1.356 . S
C890 O941 1.325 . S
C891 N892 1.279 . S
C891 C894 1.358 . S
C891 H948 0.930 . S
N892 C891 1.279 . S
N892 C895 1.314 . S
C893 C890 1.348 . S
C893 C895 1.353 . S
C893 H949 0.929 . S
C894 C890 1.356 . S
C894 C891 1.358 . S
C894 H950 0.930 . S
C895 N892 1.314 . S
C895 C893 1.353 . S
C895 H951 0.930 . S
C896 N897 1.314 . S
C896 C901 1.353 . S
C896 H902 0.930 . S
N897 Li880 1.990 . S
N897 C896 1.314 . S
N897 C899 1.279 . S
C898 C899 1.358 . S
C898 C900 1.356 . S
C898 H952 0.930 . S
C899 N897 1.279 . S
C899 C898 1.358 . S
C899 H903 0.930 . S
C900 C898 1.356 . S
C900 C901 1.348 . S
C901 C896 1.353 . S
C901 C900 1.348 . S
C901 H953 0.929 . S
H902 C896 0.930 . S
H903 C899 0.930 . S
C904 N905 1.314 . S
C904 C906 1.353 . S
C904 H910 0.930 . S
N905 Li881 1.990 . S
N905 C904 1.314 . S
N905 C908 1.279 . S
C906 C904 1.353 . S
C906 C909 1.348 . S
C906 H954 0.929 . S
C907 C908 1.358 . S
C907 C909 1.356 . S
C907 H955 0.930 . S
C908 N905 1.279 . S
C908 C907 1.358 . S
C908 H911 0.930 . S
C909 C906 1.348 . S
C909 C907 1.356 . S
H910 C904 0.930 . S
H911 C908 0.930 . S
C912 C914 1.348 . S
C912 C915 1.356 . S
C912 O942 1.325 . S
N913 C916 1.314 . S
N913 C917 1.279 . S
C914 C912 1.348 . S
C914 C916 1.353 . S
C914 H956 0.929 . S
C915 C912 1.356 . S
C915 C917 1.358 . S
C915 H957 0.930 . S
C916 N913 1.314 . S
C916 C914 1.353 . S
C916 H958 0.930 . S
C917 N913 1.279 . S
C917 C915 1.358 . S
C917 H959 0.930 . S
C918 C919 1.348 . S
C918 C920 1.356 . S
C918 O943 1.325 . S
C919 C918 1.348 . S
C919 C921 1.353 . S
C919 H960 0.929 . S
C920 C918 1.356 . S
C920 C922 1.358 . S
C920 H961 0.930 . S
C921 C919 1.353 . S
C921 N923 1.314 . S
C921 H962 0.930 . S
C922 C920 1.358 . S
C922 N923 1.279 . S
C922 H963 0.930 . S
N923 C921 1.314 . S
N923 C922 1.279 . S
C924 C926 1.353 . S
C924 N927 1.314 . S
C924 H930 0.930 . S
C925 N927 1.279 . S
C925 C928 1.358 . S
C925 H931 0.930 . S
C926 C924 1.353 . S
C926 C929 1.348 . S
C926 H964 0.929 . S
N927 Li882 1.990 . S
N927 C924 1.314 . S
N927 C925 1.279 . S
C928 C925 1.358 . S
C928 C929 1.356 . S
C928 H965 0.930 . S
C929 C926 1.348 . S
C929 C928 1.356 . S
H930 C924 0.930 . S
H931 C925 0.930 . S
C932 N933 1.314 . S
C932 C934 1.353 . S
C932 H938 0.930 . S
N933 Li883 1.990 . S
N933 C932 1.314 . S
N933 C936 1.279 . S
C934 C932 1.353 . S
C934 C937 1.348 . S
C934 H966 0.929 . S
C935 C936 1.358 . S
C935 C937 1.356 . S
C935 H967 0.930 . S
C936 N933 1.279 . S
C936 C935 1.358 . S
C936 H939 0.930 . S
C937 C934 1.348 . S
C937 C935 1.356 . S
H938 C932 0.930 . S
H939 C936 0.930 . S
O940 Li880 1.956 . S
O940 Li881 1.970 . S
O940 Li882 1.961 . S
O940 C884 1.325 . S
O941 Li880 1.970 . S
O941 Li881 1.956 . S
O941 Li883 1.961 . S
O941 C890 1.325 . S
O942 Li880 1.961 . S
O942 Li882 1.956 . S
O942 Li883 1.970 . S
O942 C912 1.325 . S
O943 Li881 1.961 . S
O943 Li882 1.970 . S
O943 Li883 1.956 . S
O943 C918 1.325 . S
H944 C886 0.929 . S
H945 C887 0.930 . S
H946 C888 0.930 . S
H947 C889 0.930 . S
H948 C891 0.930 . S
H949 C893 0.929 . S
H950 C894 0.930 . S
H951 C895 0.930 . S
H952 C898 0.930 . S
H953 C901 0.929 . S
H954 C906 0.929 . S
H955 C907 0.930 . S
H956 C914 0.929 . S
H957 C915 0.930 . S
H958 C916 0.930 . S
H959 C917 0.930 . S
H960 C919 0.929 . S
H961 C920 0.930 . S
H962 C921 0.930 . S
H963 C922 0.930 . S
H964 C926 0.929 . S
H965 C928 0.930 . S
H966 C934 0.929 . S
H967 C935 0.930 . S
Li968 N985 1.990 . S
Li968 O1028 1.956 . S
Li968 O1029 1.970 . S
Li968 O1030 1.961 . S
Li969 N993 1.990 . S
Li969 O1028 1.970 . S
Li969 O1029 1.956 . S
Li969 O1031 1.961 . S
Li970 N1015 1.990 . S
Li970 O1028 1.961 . S
Li970 O1030 1.956 . S
Li970 O1031 1.970 . S
Li971 N1021 1.990 . S
Li971 O1029 1.961 . S
Li971 O1030 1.970 . S
Li971 O1031 1.956 . S
C972 C974 1.348 . S
C972 C975 1.356 . S
C972 O1028 1.325 . S
N973 C976 1.314 . S
N973 C977 1.279 . S
C974 C972 1.348 . S
C974 C976 1.353 . S
C974 H1032 0.929 . S
C975 C972 1.356 . S
C975 C977 1.358 . S
C975 H1033 0.930 . S
C976 N973 1.314 . S
C976 C974 1.353 . S
C976 H1034 0.930 . S
C977 N973 1.279 . S
C977 C975 1.358 . S
C977 H1035 0.930 . S
C978 C981 1.348 . S
C978 C982 1.356 . S
C978 O1029 1.325 . S
C979 N980 1.279 . S
C979 C982 1.358 . S
C979 H1036 0.930 . S
N980 C979 1.279 . S
N980 C983 1.314 . S
C981 C978 1.348 . S
C981 C983 1.353 . S
C981 H1037 0.929 . S
C982 C978 1.356 . S
C982 C979 1.358 . S
C982 H1038 0.930 . S
C983 N980 1.314 . S
C983 C981 1.353 . S
C983 H1039 0.930 . S
C984 N985 1.314 . S
C984 C989 1.353 . S
C984 H990 0.930 . S
N985 Li968 1.990 . S
N985 C984 1.314 . S
N985 C987 1.279 . S
C986 C987 1.358 . S
C986 C988 1.356 . S
C986 H1040 0.930 . S
C987 N985 1.279 . S
C987 C986 1.358 . S
C987 H991 0.930 . S
C988 C986 1.356 . S
C988 C989 1.348 . S
C989 C984 1.353 . S
C989 C988 1.348 . S
C989 H1041 0.929 . S
H990 C984 0.930 . S
H991 C987 0.930 . S
C992 N993 1.314 . S
C992 C994 1.353 . S
C992 H998 0.930 . S
N993 Li969 1.990 . S
N993 C992 1.314 . S
N993 C996 1.279 . S
C994 C992 1.353 . S
C994 C997 1.348 . S
C994 H1042 0.929 . S
C995 C996 1.358 . S
C995 C997 1.356 . S
C995 H1043 0.930 . S
C996 N993 1.279 . S
C996 C995 1.358 . S
C996 H999 0.930 . S
C997 C994 1.348 . S
C997 C995 1.356 . S
H998 C992 0.930 . S
H999 C996 0.930 . S
C1000 C1002 1.348 . S
C1000 C1003 1.356 . S
C1000 O1030 1.325 . S
N1001 C1004 1.314 . S
N1001 C1005 1.279 . S
C1002 C1000 1.348 . S
C1002 C1004 1.353 . S
C1002 H1044 0.929 . S
C1003 C1000 1.356 . S
C1003 C1005 1.358 . S
C1003 H1045 0.930 . S
C1004 N1001 1.314 . S
C1004 C1002 1.353 . S
C1004 H1046 0.930 . S
C1005 N1001 1.279 . S
C1005 C1003 1.358 . S
C1005 H1047 0.930 . S
C1006 C1007 1.348 . S
C1006 C1008 1.356 . S
C1006 O1031 1.325 . S
C1007 C1006 1.348 . S
C1007 C1009 1.353 . S
C1007 H1048 0.929 . S
C1008 C1006 1.356 . S
C1008 C1010 1.358 . S
C1008 H1049 0.930 . S
C1009 C1007 1.353 . S
C1009 N1011 1.314 . S
C1009 H1050 0.930 . S
C1010 C1008 1.358 . S
C1010 N1011 1.279 . S
C1010 H1051 0.930 . S
N1011 C1009 1.314 . S
N1011 C1010 1.279 . S
C1012 C1014 1.353 . S
C1012 N1015 1.314 . S
C1012 H1018 0.930 . S
C1013 N1015 1.279 . S
C1013 C1016 1.358 . S
C1013 H1019 0.930 . S
C1014 C1012 1.353 . S
C1014 C1017 1.348 . S
C1014 H1052 0.929 . S
N1015 Li970 1.990 . S
N1015 C1012 1.314 . S
N1015 C1013 1.279 . S
C1016 C1013 1.358 . S
C1016 C1017 1.356 . S
C1016 H1053 0.930 . S
C1017 C1014 1.348 . S
C1017 C1016 1.356 . S
H1018 C1012 0.930 . S
H1019 C1013 0.930 . S
C1020 N1021 1.314 . S
C1020 C1022 1.353 . S
C1020 H1026 0.930 . S
N1021 Li971 1.990 . S
N1021 C1020 1.314 . S
N1021 C1024 1.279 . S
C1022 C1020 1.353 . S
C1022 C1025 1.348 . S
C1022 H1054 0.929 . S
C1023 C1024 1.358 . S
C1023 C1025 1.356 . S
C1023 H1055 0.930 . S
C1024 N1021 1.279 . S
C1024 C1023 1.358 . S
C1024 H1027 0.930 . S
C1025 C1022 1.348 . S
C1025 C1023 1.356 . S
H1026 C1020 0.930 . S
H1027 C1024 0.930 . S
O1028 Li968 1.956 . S
O1028 Li969 1.970 . S
O1028 Li970 1.961 . S
O1028 C972 1.325 . S
O1029 Li968 1.970 . S
O1029 Li969 1.956 . S
O1029 Li971 1.961 . S
O1029 C978 1.325 . S
O1030 Li968 1.961 . S
O1030 Li970 1.956 . S
O1030 Li971 1.970 . S
O1030 C1000 1.325 . S
O1031 Li969 1.961 . S
O1031 Li970 1.970 . S
O1031 Li971 1.956 . S
O1031 C1006 1.325 . S
H1032 C974 0.929 . S
H1033 C975 0.930 . S
H1034 C976 0.930 . S
H1035 C977 0.930 . S
H1036 C979 0.930 . S
H1037 C981 0.929 . S
H1038 C982 0.930 . S
H1039 C983 0.930 . S
H1040 C986 0.930 . S
H1041 C989 0.929 . S
H1042 C994 0.929 . S
H1043 C995 0.930 . S
H1044 C1002 0.929 . S
H1045 C1003 0.930 . S
H1046 C1004 0.930 . S
H1047 C1005 0.930 . S
H1048 C1007 0.929 . S
H1049 C1008 0.930 . S
H1050 C1009 0.930 . S
H1051 C1010 0.930 . S
H1052 C1014 0.929 . S
H1053 C1016 0.930 . S
H1054 C1022 0.929 . S
H1055 C1023 0.930 . S
Li1056 N1073 1.990 . S
Li1056 O1116 1.956 . S
Li1056 O1117 1.970 . S
Li1056 O1118 1.961 . S
Li1057 N1081 1.990 . S
Li1057 O1116 1.970 . S
Li1057 O1117 1.956 . S
Li1057 O1119 1.961 . S
Li1058 N1103 1.990 . S
Li1058 O1116 1.961 . S
Li1058 O1118 1.956 . S
Li1058 O1119 1.970 . S
Li1059 N1109 1.990 . S
Li1059 O1117 1.961 . S
Li1059 O1118 1.970 . S
Li1059 O1119 1.956 . S
C1060 C1062 1.348 . S
C1060 C1063 1.356 . S
C1060 O1116 1.325 . S
N1061 C1064 1.314 . S
N1061 C1065 1.279 . S
C1062 C1060 1.348 . S
C1062 C1064 1.353 . S
C1062 H1120 0.929 . S
C1063 C1060 1.356 . S
C1063 C1065 1.358 . S
C1063 H1121 0.930 . S
C1064 N1061 1.314 . S
C1064 C1062 1.353 . S
C1064 H1122 0.930 . S
C1065 N1061 1.279 . S
C1065 C1063 1.358 . S
C1065 H1123 0.930 . S
C1066 C1069 1.348 . S
C1066 C1070 1.356 . S
C1066 O1117 1.325 . S
C1067 N1068 1.279 . S
C1067 C1070 1.358 . S
C1067 H1124 0.930 . S
N1068 C1067 1.279 . S
N1068 C1071 1.314 . S
C1069 C1066 1.348 . S
C1069 C1071 1.353 . S
C1069 H1125 0.929 . S
C1070 C1066 1.356 . S
C1070 C1067 1.358 . S
C1070 H1126 0.930 . S
C1071 N1068 1.314 . S
C1071 C1069 1.353 . S
C1071 H1127 0.930 . S
C1072 N1073 1.314 . S
C1072 C1077 1.353 . S
C1072 H1078 0.930 . S
N1073 Li1056 1.990 . S
N1073 C1072 1.314 . S
N1073 C1075 1.279 . S
C1074 C1075 1.358 . S
C1074 C1076 1.356 . S
C1074 H1128 0.930 . S
C1075 N1073 1.279 . S
C1075 C1074 1.358 . S
C1075 H1079 0.930 . S
C1076 C1074 1.356 . S
C1076 C1077 1.348 . S
C1077 C1072 1.353 . S
C1077 C1076 1.348 . S
C1077 H1129 0.929 . S
H1078 C1072 0.930 . S
H1079 C1075 0.930 . S
C1080 N1081 1.314 . S
C1080 C1082 1.353 . S
C1080 H1086 0.930 . S
N1081 Li1057 1.990 . S
N1081 C1080 1.314 . S
N1081 C1084 1.279 . S
C1082 C1080 1.353 . S
C1082 C1085 1.348 . S
C1082 H1130 0.929 . S
C1083 C1084 1.358 . S
C1083 C1085 1.356 . S
C1083 H1131 0.930 . S
C1084 N1081 1.279 . S
C1084 C1083 1.358 . S
C1084 H1087 0.930 . S
C1085 C1082 1.348 . S
C1085 C1083 1.356 . S
H1086 C1080 0.930 . S
H1087 C1084 0.930 . S
C1088 C1090 1.348 . S
C1088 C1091 1.356 . S
C1088 O1118 1.325 . S
N1089 C1092 1.314 . S
N1089 C1093 1.279 . S
C1090 C1088 1.348 . S
C1090 C1092 1.353 . S
C1090 H1132 0.929 . S
C1091 C1088 1.356 . S
C1091 C1093 1.358 . S
C1091 H1133 0.930 . S
C1092 N1089 1.314 . S
C1092 C1090 1.353 . S
C1092 H1134 0.930 . S
C1093 N1089 1.279 . S
C1093 C1091 1.358 . S
C1093 H1135 0.930 . S
C1094 C1095 1.348 . S
C1094 C1096 1.356 . S
C1094 O1119 1.325 . S
C1095 C1094 1.348 . S
C1095 C1097 1.353 . S
C1095 H1136 0.929 . S
C1096 C1094 1.356 . S
C1096 C1098 1.358 . S
C1096 H1137 0.930 . S
C1097 C1095 1.353 . S
C1097 N1099 1.314 . S
C1097 H1138 0.930 . S
C1098 C1096 1.358 . S
C1098 N1099 1.279 . S
C1098 H1139 0.930 . S
N1099 C1097 1.314 . S
N1099 C1098 1.279 . S
C1100 C1102 1.353 . S
C1100 N1103 1.314 . S
C1100 H1106 0.930 . S
C1101 N1103 1.279 . S
C1101 C1104 1.358 . S
C1101 H1107 0.930 . S
C1102 C1100 1.353 . S
C1102 C1105 1.348 . S
C1102 H1140 0.929 . S
N1103 Li1058 1.990 . S
N1103 C1100 1.314 . S
N1103 C1101 1.279 . S
C1104 C1101 1.358 . S
C1104 C1105 1.356 . S
C1104 H1141 0.930 . S
C1105 C1102 1.348 . S
C1105 C1104 1.356 . S
H1106 C1100 0.930 . S
H1107 C1101 0.930 . S
C1108 N1109 1.314 . S
C1108 C1110 1.353 . S
C1108 H1114 0.930 . S
N1109 Li1059 1.990 . S
N1109 C1108 1.314 . S
N1109 C1112 1.279 . S
C1110 C1108 1.353 . S
C1110 C1113 1.348 . S
C1110 H1142 0.929 . S
C1111 C1112 1.358 . S
C1111 C1113 1.356 . S
C1111 H1143 0.930 . S
C1112 N1109 1.279 . S
C1112 C1111 1.358 . S
C1112 H1115 0.930 . S
C1113 C1110 1.348 . S
C1113 C1111 1.356 . S
H1114 C1108 0.930 . S
H1115 C1112 0.930 . S
O1116 Li1056 1.956 . S
O1116 Li1057 1.970 . S
O1116 Li1058 1.961 . S
O1116 C1060 1.325 . S
O1117 Li1056 1.970 . S
O1117 Li1057 1.956 . S
O1117 Li1059 1.961 . S
O1117 C1066 1.325 . S
O1118 Li1056 1.961 . S
O1118 Li1058 1.956 . S
O1118 Li1059 1.970 . S
O1118 C1088 1.325 . S
O1119 Li1057 1.961 . S
O1119 Li1058 1.970 . S
O1119 Li1059 1.956 . S
O1119 C1094 1.325 . S
H1120 C1062 0.929 . S
H1121 C1063 0.930 . S
H1122 C1064 0.930 . S
H1123 C1065 0.930 . S
H1124 C1067 0.930 . S
H1125 C1069 0.929 . S
H1126 C1070 0.930 . S
H1127 C1071 0.930 . S
H1128 C1074 0.930 . S
H1129 C1077 0.929 . S
H1130 C1082 0.929 . S
H1131 C1083 0.930 . S
H1132 C1090 0.929 . S
H1133 C1091 0.930 . S
H1134 C1092 0.930 . S
H1135 C1093 0.930 . S
H1136 C1095 0.929 . S
H1137 C1096 0.930 . S
H1138 C1097 0.930 . S
H1139 C1098 0.930 . S
H1140 C1102 0.929 . S
H1141 C1104 0.930 . S
H1142 C1110 0.929 . S
H1143 C1111 0.930 . S
Li1144 N1161 1.990 . S
Li1144 O1204 1.956 . S
Li1144 O1205 1.970 . S
Li1144 O1206 1.961 . S
Li1145 N1169 1.990 . S
Li1145 O1204 1.970 . S
Li1145 O1205 1.956 . S
Li1145 O1207 1.961 . S
Li1146 N1191 1.990 . S
Li1146 O1204 1.961 . S
Li1146 O1206 1.956 . S
Li1146 O1207 1.970 . S
Li1147 N1197 1.990 . S
Li1147 O1205 1.961 . S
Li1147 O1206 1.970 . S
Li1147 O1207 1.956 . S
C1148 C1150 1.348 . S
C1148 C1151 1.356 . S
C1148 O1204 1.325 . S
N1149 C1152 1.314 . S
N1149 C1153 1.279 . S
C1150 C1148 1.348 . S
C1150 C1152 1.353 . S
C1150 H1208 0.929 . S
C1151 C1148 1.356 . S
C1151 C1153 1.358 . S
C1151 H1209 0.930 . S
C1152 N1149 1.314 . S
C1152 C1150 1.353 . S
C1152 H1210 0.930 . S
C1153 N1149 1.279 . S
C1153 C1151 1.358 . S
C1153 H1211 0.930 . S
C1154 C1157 1.348 . S
C1154 C1158 1.356 . S
C1154 O1205 1.325 . S
C1155 N1156 1.279 . S
C1155 C1158 1.358 . S
C1155 H1212 0.930 . S
N1156 C1155 1.279 . S
N1156 C1159 1.314 . S
C1157 C1154 1.348 . S
C1157 C1159 1.353 . S
C1157 H1213 0.929 . S
C1158 C1154 1.356 . S
C1158 C1155 1.358 . S
C1158 H1214 0.930 . S
C1159 N1156 1.314 . S
C1159 C1157 1.353 . S
C1159 H1215 0.930 . S
C1160 N1161 1.314 . S
C1160 C1165 1.353 . S
C1160 H1166 0.930 . S
N1161 Li1144 1.990 . S
N1161 C1160 1.314 . S
N1161 C1163 1.279 . S
C1162 C1163 1.358 . S
C1162 C1164 1.356 . S
C1162 H1216 0.930 . S
C1163 N1161 1.279 . S
C1163 C1162 1.358 . S
C1163 H1167 0.930 . S
C1164 C1162 1.356 . S
C1164 C1165 1.348 . S
C1165 C1160 1.353 . S
C1165 C1164 1.348 . S
C1165 H1217 0.929 . S
H1166 C1160 0.930 . S
H1167 C1163 0.930 . S
C1168 N1169 1.314 . S
C1168 C1170 1.353 . S
C1168 H1174 0.930 . S
N1169 Li1145 1.990 . S
N1169 C1168 1.314 . S
N1169 C1172 1.279 . S
C1170 C1168 1.353 . S
C1170 C1173 1.348 . S
C1170 H1218 0.929 . S
C1171 C1172 1.358 . S
C1171 C1173 1.356 . S
C1171 H1219 0.930 . S
C1172 N1169 1.279 . S
C1172 C1171 1.358 . S
C1172 H1175 0.930 . S
C1173 C1170 1.348 . S
C1173 C1171 1.356 . S
H1174 C1168 0.930 . S
H1175 C1172 0.930 . S
C1176 C1178 1.348 . S
C1176 C1179 1.356 . S
C1176 O1206 1.325 . S
N1177 C1180 1.314 . S
N1177 C1181 1.279 . S
C1178 C1176 1.348 . S
C1178 C1180 1.353 . S
C1178 H1220 0.929 . S
C1179 C1176 1.356 . S
C1179 C1181 1.358 . S
C1179 H1221 0.930 . S
C1180 N1177 1.314 . S
C1180 C1178 1.353 . S
C1180 H1222 0.930 . S
C1181 N1177 1.279 . S
C1181 C1179 1.358 . S
C1181 H1223 0.930 . S
C1182 C1183 1.348 . S
C1182 C1184 1.356 . S
C1182 O1207 1.325 . S
C1183 C1182 1.348 . S
C1183 C1185 1.353 . S
C1183 H1224 0.929 . S
C1184 C1182 1.356 . S
C1184 C1186 1.358 . S
C1184 H1225 0.930 . S
C1185 C1183 1.353 . S
C1185 N1187 1.314 . S
C1185 H1226 0.930 . S
C1186 C1184 1.358 . S
C1186 N1187 1.279 . S
C1186 H1227 0.930 . S
N1187 C1185 1.314 . S
N1187 C1186 1.279 . S
C1188 C1190 1.353 . S
C1188 N1191 1.314 . S
C1188 H1194 0.930 . S
C1189 N1191 1.279 . S
C1189 C1192 1.358 . S
C1189 H1195 0.930 . S
C1190 C1188 1.353 . S
C1190 C1193 1.348 . S
C1190 H1228 0.929 . S
N1191 Li1146 1.990 . S
N1191 C1188 1.314 . S
N1191 C1189 1.279 . S
C1192 C1189 1.358 . S
C1192 C1193 1.356 . S
C1192 H1229 0.930 . S
C1193 C1190 1.348 . S
C1193 C1192 1.356 . S
H1194 C1188 0.930 . S
H1195 C1189 0.930 . S
C1196 N1197 1.314 . S
C1196 C1198 1.353 . S
C1196 H1202 0.930 . S
N1197 Li1147 1.990 . S
N1197 C1196 1.314 . S
N1197 C1200 1.279 . S
C1198 C1196 1.353 . S
C1198 C1201 1.348 . S
C1198 H1230 0.929 . S
C1199 C1200 1.358 . S
C1199 C1201 1.356 . S
C1199 H1231 0.930 . S
C1200 N1197 1.279 . S
C1200 C1199 1.358 . S
C1200 H1203 0.930 . S
C1201 C1198 1.348 . S
C1201 C1199 1.356 . S
H1202 C1196 0.930 . S
H1203 C1200 0.930 . S
O1204 Li1144 1.956 . S
O1204 Li1145 1.970 . S
O1204 Li1146 1.961 . S
O1204 C1148 1.325 . S
O1205 Li1144 1.970 . S
O1205 Li1145 1.956 . S
O1205 Li1147 1.961 . S
O1205 C1154 1.325 . S
O1206 Li1144 1.961 . S
O1206 Li1146 1.956 . S
O1206 Li1147 1.970 . S
O1206 C1176 1.325 . S
O1207 Li1145 1.961 . S
O1207 Li1146 1.970 . S
O1207 Li1147 1.956 . S
O1207 C1182 1.325 . S
H1208 C1150 0.929 . S
H1209 C1151 0.930 . S
H1210 C1152 0.930 . S
H1211 C1153 0.930 . S
H1212 C1155 0.930 . S
H1213 C1157 0.929 . S
H1214 C1158 0.930 . S
H1215 C1159 0.930 . S
H1216 C1162 0.930 . S
H1217 C1165 0.929 . S
H1218 C1170 0.929 . S
H1219 C1171 0.930 . S
H1220 C1178 0.929 . S
H1221 C1179 0.930 . S
H1222 C1180 0.930 . S
H1223 C1181 0.930 . S
H1224 C1183 0.929 . S
H1225 C1184 0.930 . S
H1226 C1185 0.930 . S
H1227 C1186 0.930 . S
H1228 C1190 0.929 . S
H1229 C1192 0.930 . S
H1230 C1198 0.929 . S
H1231 C1199 0.930 . S
Li1232 N1249 1.990 . S
Li1232 O1292 1.956 . S
Li1232 O1293 1.970 . S
Li1232 O1294 1.961 . S
Li1233 N1257 1.990 . S
Li1233 O1292 1.970 . S
Li1233 O1293 1.956 . S
Li1233 O1295 1.961 . S
Li1234 N1279 1.990 . S
Li1234 O1292 1.961 . S
Li1234 O1294 1.956 . S
Li1234 O1295 1.970 . S
Li1235 N1285 1.990 . S
Li1235 O1293 1.961 . S
Li1235 O1294 1.970 . S
Li1235 O1295 1.956 . S
C1236 C1238 1.348 . S
C1236 C1239 1.356 . S
C1236 O1292 1.325 . S
N1237 C1240 1.314 . S
N1237 C1241 1.279 . S
C1238 C1236 1.348 . S
C1238 C1240 1.353 . S
C1238 H1296 0.929 . S
C1239 C1236 1.356 . S
C1239 C1241 1.358 . S
C1239 H1297 0.930 . S
C1240 N1237 1.314 . S
C1240 C1238 1.353 . S
C1240 H1298 0.930 . S
C1241 N1237 1.279 . S
C1241 C1239 1.358 . S
C1241 H1299 0.930 . S
C1242 C1245 1.348 . S
C1242 C1246 1.356 . S
C1242 O1293 1.325 . S
C1243 N1244 1.279 . S
C1243 C1246 1.358 . S
C1243 H1300 0.930 . S
N1244 C1243 1.279 . S
N1244 C1247 1.314 . S
C1245 C1242 1.348 . S
C1245 C1247 1.353 . S
C1245 H1301 0.929 . S
C1246 C1242 1.356 . S
C1246 C1243 1.358 . S
C1246 H1302 0.930 . S
C1247 N1244 1.314 . S
C1247 C1245 1.353 . S
C1247 H1303 0.930 . S
C1248 N1249 1.314 . S
C1248 C1253 1.353 . S
C1248 H1254 0.930 . S
N1249 Li1232 1.990 . S
N1249 C1248 1.314 . S
N1249 C1251 1.279 . S
C1250 C1251 1.358 . S
C1250 C1252 1.356 . S
C1250 H1304 0.930 . S
C1251 N1249 1.279 . S
C1251 C1250 1.358 . S
C1251 H1255 0.930 . S
C1252 C1250 1.356 . S
C1252 C1253 1.348 . S
C1253 C1248 1.353 . S
C1253 C1252 1.348 . S
C1253 H1305 0.929 . S
H1254 C1248 0.930 . S
H1255 C1251 0.930 . S
C1256 N1257 1.314 . S
C1256 C1258 1.353 . S
C1256 H1262 0.930 . S
N1257 Li1233 1.990 . S
N1257 C1256 1.314 . S
N1257 C1260 1.279 . S
C1258 C1256 1.353 . S
C1258 C1261 1.348 . S
C1258 H1306 0.929 . S
C1259 C1260 1.358 . S
C1259 C1261 1.356 . S
C1259 H1307 0.930 . S
C1260 N1257 1.279 . S
C1260 C1259 1.358 . S
C1260 H1263 0.930 . S
C1261 C1258 1.348 . S
C1261 C1259 1.356 . S
H1262 C1256 0.930 . S
H1263 C1260 0.930 . S
C1264 C1266 1.348 . S
C1264 C1267 1.356 . S
C1264 O1294 1.325 . S
N1265 C1268 1.314 . S
N1265 C1269 1.279 . S
C1266 C1264 1.348 . S
C1266 C1268 1.353 . S
C1266 H1308 0.929 . S
C1267 C1264 1.356 . S
C1267 C1269 1.358 . S
C1267 H1309 0.930 . S
C1268 N1265 1.314 . S
C1268 C1266 1.353 . S
C1268 H1310 0.930 . S
C1269 N1265 1.279 . S
C1269 C1267 1.358 . S
C1269 H1311 0.930 . S
C1270 C1271 1.348 . S
C1270 C1272 1.356 . S
C1270 O1295 1.325 . S
C1271 C1270 1.348 . S
C1271 C1273 1.353 . S
C1271 H1312 0.929 . S
C1272 C1270 1.356 . S
C1272 C1274 1.358 . S
C1272 H1313 0.930 . S
C1273 C1271 1.353 . S
C1273 N1275 1.314 . S
C1273 H1314 0.930 . S
C1274 C1272 1.358 . S
C1274 N1275 1.279 . S
C1274 H1315 0.930 . S
N1275 C1273 1.314 . S
N1275 C1274 1.279 . S
C1276 C1278 1.353 . S
C1276 N1279 1.314 . S
C1276 H1282 0.930 . S
C1277 N1279 1.279 . S
C1277 C1280 1.358 . S
C1277 H1283 0.930 . S
C1278 C1276 1.353 . S
C1278 C1281 1.348 . S
C1278 H1316 0.929 . S
N1279 Li1234 1.990 . S
N1279 C1276 1.314 . S
N1279 C1277 1.279 . S
C1280 C1277 1.358 . S
C1280 C1281 1.356 . S
C1280 H1317 0.930 . S
C1281 C1278 1.348 . S
C1281 C1280 1.356 . S
H1282 C1276 0.930 . S
H1283 C1277 0.930 . S
C1284 N1285 1.314 . S
C1284 C1286 1.353 . S
C1284 H1290 0.930 . S
N1285 Li1235 1.990 . S
N1285 C1284 1.314 . S
N1285 C1288 1.279 . S
C1286 C1284 1.353 . S
C1286 C1289 1.348 . S
C1286 H1318 0.929 . S
C1287 C1288 1.358 . S
C1287 C1289 1.356 . S
C1287 H1319 0.930 . S
C1288 N1285 1.279 . S
C1288 C1287 1.358 . S
C1288 H1291 0.930 . S
C1289 C1286 1.348 . S
C1289 C1287 1.356 . S
H1290 C1284 0.930 . S
H1291 C1288 0.930 . S
O1292 Li1232 1.956 . S
O1292 Li1233 1.970 . S
O1292 Li1234 1.961 . S
O1292 C1236 1.325 . S
O1293 Li1232 1.970 . S
O1293 Li1233 1.956 . S
O1293 Li1235 1.961 . S
O1293 C1242 1.325 . S
O1294 Li1232 1.961 . S
O1294 Li1234 1.956 . S
O1294 Li1235 1.970 . S
O1294 C1264 1.325 . S
O1295 Li1233 1.961 . S
O1295 Li1234 1.970 . S
O1295 Li1235 1.956 . S
O1295 C1270 1.325 . S
H1296 C1238 0.929 . S
H1297 C1239 0.930 . S
H1298 C1240 0.930 . S
H1299 C1241 0.930 . S
H1300 C1243 0.930 . S
H1301 C1245 0.929 . S
H1302 C1246 0.930 . S
H1303 C1247 0.930 . S
H1304 C1250 0.930 . S
H1305 C1253 0.929 . S
H1306 C1258 0.929 . S
H1307 C1259 0.930 . S
H1308 C1266 0.929 . S
H1309 C1267 0.930 . S
H1310 C1268 0.930 . S
H1311 C1269 0.930 . S
H1312 C1271 0.929 . S
H1313 C1272 0.930 . S
H1314 C1273 0.930 . S
H1315 C1274 0.930 . S
H1316 C1278 0.929 . S
H1317 C1280 0.930 . S
H1318 C1286 0.929 . S
H1319 C1287 0.930 . S
Li1320 N1337 1.990 . S
Li1320 O1380 1.956 . S
Li1320 O1381 1.970 . S
Li1320 O1382 1.961 . S
Li1321 N1345 1.990 . S
Li1321 O1380 1.970 . S
Li1321 O1381 1.956 . S
Li1321 O1383 1.961 . S
Li1322 N1367 1.990 . S
Li1322 O1380 1.961 . S
Li1322 O1382 1.956 . S
Li1322 O1383 1.970 . S
Li1323 N1373 1.990 . S
Li1323 O1381 1.961 . S
Li1323 O1382 1.970 . S
Li1323 O1383 1.956 . S
C1324 C1326 1.348 . S
C1324 C1327 1.356 . S
C1324 O1380 1.325 . S
N1325 C1328 1.314 . S
N1325 C1329 1.279 . S
C1326 C1324 1.348 . S
C1326 C1328 1.353 . S
C1326 H1384 0.929 . S
C1327 C1324 1.356 . S
C1327 C1329 1.358 . S
C1327 H1385 0.930 . S
C1328 N1325 1.314 . S
C1328 C1326 1.353 . S
C1328 H1386 0.930 . S
C1329 N1325 1.279 . S
C1329 C1327 1.358 . S
C1329 H1387 0.930 . S
C1330 C1333 1.348 . S
C1330 C1334 1.356 . S
C1330 O1381 1.325 . S
C1331 N1332 1.279 . S
C1331 C1334 1.358 . S
C1331 H1388 0.930 . S
N1332 C1331 1.279 . S
N1332 C1335 1.314 . S
C1333 C1330 1.348 . S
C1333 C1335 1.353 . S
C1333 H1389 0.929 . S
C1334 C1330 1.356 . S
C1334 C1331 1.358 . S
C1334 H1390 0.930 . S
C1335 N1332 1.314 . S
C1335 C1333 1.353 . S
C1335 H1391 0.930 . S
C1336 N1337 1.314 . S
C1336 C1341 1.353 . S
C1336 H1342 0.930 . S
N1337 Li1320 1.990 . S
N1337 C1336 1.314 . S
N1337 C1339 1.279 . S
C1338 C1339 1.358 . S
C1338 C1340 1.356 . S
C1338 H1392 0.930 . S
C1339 N1337 1.279 . S
C1339 C1338 1.358 . S
C1339 H1343 0.930 . S
C1340 C1338 1.356 . S
C1340 C1341 1.348 . S
C1341 C1336 1.353 . S
C1341 C1340 1.348 . S
C1341 H1393 0.929 . S
H1342 C1336 0.930 . S
H1343 C1339 0.930 . S
C1344 N1345 1.314 . S
C1344 C1346 1.353 . S
C1344 H1350 0.930 . S
N1345 Li1321 1.990 . S
N1345 C1344 1.314 . S
N1345 C1348 1.279 . S
C1346 C1344 1.353 . S
C1346 C1349 1.348 . S
C1346 H1394 0.929 . S
C1347 C1348 1.358 . S
C1347 C1349 1.356 . S
C1347 H1395 0.930 . S
C1348 N1345 1.279 . S
C1348 C1347 1.358 . S
C1348 H1351 0.930 . S
C1349 C1346 1.348 . S
C1349 C1347 1.356 . S
H1350 C1344 0.930 . S
H1351 C1348 0.930 . S
C1352 C1354 1.348 . S
C1352 C1355 1.356 . S
C1352 O1382 1.325 . S
N1353 C1356 1.314 . S
N1353 C1357 1.279 . S
C1354 C1352 1.348 . S
C1354 C1356 1.353 . S
C1354 H1396 0.929 . S
C1355 C1352 1.356 . S
C1355 C1357 1.358 . S
C1355 H1397 0.930 . S
C1356 N1353 1.314 . S
C1356 C1354 1.353 . S
C1356 H1398 0.930 . S
C1357 N1353 1.279 . S
C1357 C1355 1.358 . S
C1357 H1399 0.930 . S
C1358 C1359 1.348 . S
C1358 C1360 1.356 . S
C1358 O1383 1.325 . S
C1359 C1358 1.348 . S
C1359 C1361 1.353 . S
C1359 H1400 0.929 . S
C1360 C1358 1.356 . S
C1360 C1362 1.358 . S
C1360 H1401 0.930 . S
C1361 C1359 1.353 . S
C1361 N1363 1.314 . S
C1361 H1402 0.930 . S
C1362 C1360 1.358 . S
C1362 N1363 1.279 . S
C1362 H1403 0.930 . S
N1363 C1361 1.314 . S
N1363 C1362 1.279 . S
C1364 C1366 1.353 . S
C1364 N1367 1.314 . S
C1364 H1370 0.930 . S
C1365 N1367 1.279 . S
C1365 C1368 1.358 . S
C1365 H1371 0.930 . S
C1366 C1364 1.353 . S
C1366 C1369 1.348 . S
C1366 H1404 0.929 . S
N1367 Li1322 1.990 . S
N1367 C1364 1.314 . S
N1367 C1365 1.279 . S
C1368 C1365 1.358 . S
C1368 C1369 1.356 . S
C1368 H1405 0.930 . S
C1369 C1366 1.348 . S
C1369 C1368 1.356 . S
H1370 C1364 0.930 . S
H1371 C1365 0.930 . S
C1372 N1373 1.314 . S
C1372 C1374 1.353 . S
C1372 H1378 0.930 . S
N1373 Li1323 1.990 . S
N1373 C1372 1.314 . S
N1373 C1376 1.279 . S
C1374 C1372 1.353 . S
C1374 C1377 1.348 . S
C1374 H1406 0.929 . S
C1375 C1376 1.358 . S
C1375 C1377 1.356 . S
C1375 H1407 0.930 . S
C1376 N1373 1.279 . S
C1376 C1375 1.358 . S
C1376 H1379 0.930 . S
C1377 C1374 1.348 . S
C1377 C1375 1.356 . S
H1378 C1372 0.930 . S
H1379 C1376 0.930 . S
O1380 Li1320 1.956 . S
O1380 Li1321 1.970 . S
O1380 Li1322 1.961 . S
O1380 C1324 1.325 . S
O1381 Li1320 1.970 . S
O1381 Li1321 1.956 . S
O1381 Li1323 1.961 . S
O1381 C1330 1.325 . S
O1382 Li1320 1.961 . S
O1382 Li1322 1.956 . S
O1382 Li1323 1.970 . S
O1382 C1352 1.325 . S
O1383 Li1321 1.961 . S
O1383 Li1322 1.970 . S
O1383 Li1323 1.956 . S
O1383 C1358 1.325 . S
H1384 C1326 0.929 . S
H1385 C1327 0.930 . S
H1386 C1328 0.930 . S
H1387 C1329 0.930 . S
H1388 C1331 0.930 . S
H1389 C1333 0.929 . S
H1390 C1334 0.930 . S
H1391 C1335 0.930 . S
H1392 C1338 0.930 . S
H1393 C1341 0.929 . S
H1394 C1346 0.929 . S
H1395 C1347 0.930 . S
H1396 C1354 0.929 . S
H1397 C1355 0.930 . S
H1398 C1356 0.930 . S
H1399 C1357 0.930 . S
H1400 C1359 0.929 . S
H1401 C1360 0.930 . S
H1402 C1361 0.930 . S
H1403 C1362 0.930 . S
H1404 C1366 0.929 . S
H1405 C1368 0.930 . S
H1406 C1374 0.929 . S
H1407 C1375 0.930 . S
H1408 C1416 0.950 . S
H1409 C1421 0.950 . S
H1410 C1418 0.950 . S
H1411 C1420 0.950 . S
H1412 C1422 0.950 . S
H1413 C1424 0.950 . S
H1414 C1426 0.950 . S
H1415 C1427 0.950 . S
C1416 H1408 0.950 . S
C1416 C1417 1.386 . S
C1416 C1418 1.391 . S
C1417 C1416 1.386 . S
C1417 C1421 1.393 . S
C1418 H1410 0.950 . S
C1418 C1416 1.391 . S
C1418 C1419 1.400 . S
C1419 C1418 1.400 . S
C1419 C1420 1.398 . S
C1419 C1425 1.491 . S
C1420 H1411 0.950 . S
C1420 C1419 1.398 . S
C1420 C1421 1.391 . S
C1421 H1409 0.950 . S
C1421 C1417 1.393 . S
C1421 C1420 1.391 . S
C1422 H1412 0.950 . S
C1422 C1423 1.386 . S
C1422 C1424 1.391 . S
C1423 C1422 1.386 . S
C1423 C1427 1.393 . S
C1424 H1413 0.950 . S
C1424 C1422 1.391 . S
C1424 C1425 1.400 . S
C1425 C1419 1.491 . S
C1425 C1424 1.400 . S
C1425 C1426 1.398 . S
C1426 H1414 0.950 . S
C1426 C1425 1.398 . S
C1426 C1427 1.391 . S
C1427 H1415 0.950 . S
C1427 C1423 1.393 . S
C1427 C1426 1.391 . S
H1428 C1436 0.950 . S
H1429 C1441 0.950 . S
H1430 C1438 0.950 . S
H1431 C1440 0.950 . S
H1432 C1442 0.950 . S
H1433 C1444 0.950 . S
H1434 C1446 0.950 . S
H1435 C1447 0.950 . S
C1436 H1428 0.950 . S
C1436 C1437 1.386 . S
C1436 C1438 1.391 . S
C1437 C1436 1.386 . S
C1437 C1441 1.393 . S
C1438 H1430 0.950 . S
C1438 C1436 1.391 . S
C1438 C1439 1.400 . S
C1439 C1438 1.400 . S
C1439 C1440 1.398 . S
C1439 C1445 1.491 . S
C1440 H1431 0.950 . S
C1440 C1439 1.398 . S
C1440 C1441 1.391 . S
C1441 H1429 0.950 . S
C1441 C1437 1.393 . S
C1441 C1440 1.391 . S
C1442 H1432 0.950 . S
C1442 C1443 1.386 . S
C1442 C1444 1.391 . S
C1443 C1442 1.386 . S
C1443 C1447 1.393 . S
C1444 H1433 0.950 . S
C1444 C1442 1.391 . S
C1444 C1445 1.400 . S
C1445 C1439 1.491 . S
C1445 C1444 1.400 . S
C1445 C1446 1.398 . S
C1446 H1434 0.950 . S
C1446 C1445 1.398 . S
C1446 C1447 1.391 . S
C1447 H1435 0.950 . S
C1447 C1443 1.393 . S
C1447 C1446 1.391 . S
H1448 C1456 0.950 . S
H1449 C1461 0.950 . S
H1450 C1458 0.950 . S
H1451 C1460 0.950 . S
H1452 C1462 0.950 . S
H1453 C1464 0.950 . S
H1454 C1466 0.950 . S
H1455 C1467 0.950 . S
C1456 H1448 0.950 . S
C1456 C1457 1.386 . S
C1456 C1458 1.391 . S
C1457 C1456 1.386 . S
C1457 C1461 1.393 . S
C1458 H1450 0.950 . S
C1458 C1456 1.391 . S
C1458 C1459 1.400 . S
C1459 C1458 1.400 . S
C1459 C1460 1.398 . S
C1459 C1465 1.491 . S
C1460 H1451 0.950 . S
C1460 C1459 1.398 . S
C1460 C1461 1.391 . S
C1461 H1449 0.950 . S
C1461 C1457 1.393 . S
C1461 C1460 1.391 . S
C1462 H1452 0.950 . S
C1462 C1463 1.386 . S
C1462 C1464 1.391 . S
C1463 C1462 1.386 . S
C1463 C1467 1.393 . S
C1464 H1453 0.950 . S
C1464 C1462 1.391 . S
C1464 C1465 1.400 . S
C1465 C1459 1.491 . S
C1465 C1464 1.400 . S
C1465 C1466 1.398 . S
C1466 H1454 0.950 . S
C1466 C1465 1.398 . S
C1466 C1467 1.391 . S
C1467 H1455 0.950 . S
C1467 C1463 1.393 . S
C1467 C1466 1.391 . S
H1468 C1476 0.950 . S
H1469 C1481 0.950 . S
H1470 C1478 0.950 . S
H1471 C1480 0.950 . S
H1472 C1482 0.950 . S
H1473 C1484 0.950 . S
H1474 C1486 0.950 . S
H1475 C1487 0.950 . S
C1476 H1468 0.950 . S
C1476 C1477 1.386 . S
C1476 C1478 1.391 . S
C1477 C1476 1.386 . S
C1477 C1481 1.393 . S
C1478 H1470 0.950 . S
C1478 C1476 1.391 . S
C1478 C1479 1.400 . S
C1479 C1478 1.400 . S
C1479 C1480 1.398 . S
C1479 C1485 1.491 . S
C1480 H1471 0.950 . S
C1480 C1479 1.398 . S
C1480 C1481 1.391 . S
C1481 H1469 0.950 . S
C1481 C1477 1.393 . S
C1481 C1480 1.391 . S
C1482 H1472 0.950 . S
C1482 C1483 1.386 . S
C1482 C1484 1.391 . S
C1483 C1482 1.386 . S
C1483 C1487 1.393 . S
C1484 H1473 0.950 . S
C1484 C1482 1.391 . S
C1484 C1485 1.400 . S
C1485 C1479 1.491 . S
C1485 C1484 1.400 . S
C1485 C1486 1.398 . S
C1486 H1474 0.950 . S
C1486 C1485 1.398 . S
C1486 C1487 1.391 . S
C1487 H1475 0.950 . S
C1487 C1483 1.393 . S
C1487 C1486 1.391 . S
H1488 C1496 0.950 . S
H1489 C1501 0.950 . S
H1490 C1498 0.950 . S
H1491 C1500 0.950 . S
H1492 C1502 0.950 . S
H1493 C1504 0.950 . S
H1494 C1506 0.950 . S
H1495 C1507 0.950 . S
C1496 H1488 0.950 . S
C1496 C1497 1.386 . S
C1496 C1498 1.391 . S
C1497 C1496 1.386 . S
C1497 C1501 1.393 . S
C1498 H1490 0.950 . S
C1498 C1496 1.391 . S
C1498 C1499 1.400 . S
C1499 C1498 1.400 . S
C1499 C1500 1.398 . S
C1499 C1505 1.491 . S
C1500 H1491 0.950 . S
C1500 C1499 1.398 . S
C1500 C1501 1.391 . S
C1501 H1489 0.950 . S
C1501 C1497 1.393 . S
C1501 C1500 1.391 . S
C1502 H1492 0.950 . S
C1502 C1503 1.386 . S
C1502 C1504 1.391 . S
C1503 C1502 1.386 . S
C1503 C1507 1.393 . S
C1504 H1493 0.950 . S
C1504 C1502 1.391 . S
C1504 C1505 1.400 . S
C1505 C1499 1.491 . S
C1505 C1504 1.400 . S
C1505 C1506 1.398 . S
C1506 H1494 0.950 . S
C1506 C1505 1.398 . S
C1506 C1507 1.391 . S
C1507 H1495 0.950 . S
C1507 C1503 1.393 . S
C1507 C1506 1.391 . S
H1508 C1516 0.950 . S
H1509 C1521 0.950 . S
H1510 C1518 0.950 . S
H1511 C1520 0.950 . S
H1512 C1522 0.950 . S
H1513 C1524 0.950 . S
H1514 C1526 0.950 . S
H1515 C1527 0.950 . S
C1516 H1508 0.950 . S
C1516 C1517 1.386 . S
C1516 C1518 1.391 . S
C1517 C1516 1.386 . S
C1517 C1521 1.393 . S
C1518 H1510 0.950 . S
C1518 C1516 1.391 . S
C1518 C1519 1.400 . S
C1519 C1518 1.400 . S
C1519 C1520 1.398 . S
C1519 C1525 1.491 . S
C1520 H1511 0.950 . S
C1520 C1519 1.398 . S
C1520 C1521 1.391 . S
C1521 H1509 0.950 . S
C1521 C1517 1.393 . S
C1521 C1520 1.391 . S
C1522 H1512 0.950 . S
C1522 C1523 1.386 . S
C1522 C1524 1.391 . S
C1523 C1522 1.386 . S
C1523 C1527 1.393 . S
C1524 H1513 0.950 . S
C1524 C1522 1.391 . S
C1524 C1525 1.400 . S
C1525 C1519 1.491 . S
C1525 C1524 1.400 . S
C1525 C1526 1.398 . S
C1526 H1514 0.950 . S
C1526 C1525 1.398 . S
C1526 C1527 1.391 . S
C1527 H1515 0.950 . S
C1527 C1523 1.393 . S
C1527 C1526 1.391 . S
H1528 C1536 0.950 . S
H1529 C1541 0.950 . S
H1530 C1538 0.950 . S
H1531 C1540 0.950 . S
H1532 C1542 0.950 . S
H1533 C1544 0.950 . S
H1534 C1546 0.950 . S
H1535 C1547 0.950 . S
C1536 H1528 0.950 . S
C1536 C1537 1.386 . S
C1536 C1538 1.391 . S
C1537 C1536 1.386 . S
C1537 C1541 1.393 . S
C1538 H1530 0.950 . S
C1538 C1536 1.391 . S
C1538 C1539 1.400 . S
C1539 C1538 1.400 . S
C1539 C1540 1.398 . S
C1539 C1545 1.491 . S
C1540 H1531 0.950 . S
C1540 C1539 1.398 . S
C1540 C1541 1.391 . S
C1541 H1529 0.950 . S
C1541 C1537 1.393 . S
C1541 C1540 1.391 . S
C1542 H1532 0.950 . S
C1542 C1543 1.386 . S
C1542 C1544 1.391 . S
C1543 C1542 1.386 . S
C1543 C1547 1.393 . S
C1544 H1533 0.950 . S
C1544 C1542 1.391 . S
C1544 C1545 1.400 . S
C1545 C1539 1.491 . S
C1545 C1544 1.400 . S
C1545 C1546 1.398 . S
C1546 H1534 0.950 . S
C1546 C1545 1.398 . S
C1546 C1547 1.391 . S
C1547 H1535 0.950 . S
C1547 C1543 1.393 . S
C1547 C1546 1.391 . S
H1548 C1556 0.950 . S
H1549 C1561 0.950 . S
H1550 C1558 0.950 . S
H1551 C1560 0.950 . S
H1552 C1562 0.950 . S
H1553 C1564 0.950 . S
H1554 C1566 0.950 . S
H1555 C1567 0.950 . S
C1556 H1548 0.950 . S
C1556 C1557 1.386 . S
C1556 C1558 1.391 . S
C1557 C1556 1.386 . S
C1557 C1561 1.393 . S
C1558 H1550 0.950 . S
C1558 C1556 1.391 . S
C1558 C1559 1.400 . S
C1559 C1558 1.400 . S
C1559 C1560 1.398 . S
C1559 C1565 1.491 . S
C1560 H1551 0.950 . S
C1560 C1559 1.398 . S
C1560 C1561 1.391 . S
C1561 H1549 0.950 . S
C1561 C1557 1.393 . S
C1561 C1560 1.391 . S
C1562 H1552 0.950 . S
C1562 C1563 1.386 . S
C1562 C1564 1.391 . S
C1563 C1562 1.386 . S
C1563 C1567 1.393 . S
C1564 H1553 0.950 . S
C1564 C1562 1.391 . S
C1564 C1565 1.400 . S
C1565 C1559 1.491 . S
C1565 C1564 1.400 . S
C1565 C1566 1.398 . S
C1566 H1554 0.950 . S
C1566 C1565 1.398 . S
C1566 C1567 1.391 . S
C1567 H1555 0.950 . S
C1567 C1563 1.393 . S
C1567 C1566 1.391 . S
H1568 C1576 0.950 . S
H1569 C1581 0.950 . S
H1570 C1578 0.950 . S
H1571 C1580 0.950 . S
H1572 C1582 0.950 . S
H1573 C1584 0.950 . S
H1574 C1586 0.950 . S
H1575 C1587 0.950 . S
C1576 H1568 0.950 . S
C1576 C1577 1.386 . S
C1576 C1578 1.391 . S
C1577 C1576 1.386 . S
C1577 C1581 1.393 . S
C1578 H1570 0.950 . S
C1578 C1576 1.391 . S
C1578 C1579 1.400 . S
C1579 C1578 1.400 . S
C1579 C1580 1.398 . S
C1579 C1585 1.491 1_556 S
C1580 H1571 0.950 . S
C1580 C1579 1.398 . S
C1580 C1581 1.391 . S
C1581 H1569 0.950 . S
C1581 C1577 1.393 . S
C1581 C1580 1.391 . S
C1582 H1572 0.950 . S
C1582 C1583 1.386 . S
C1582 C1584 1.391 . S
C1583 C1582 1.386 . S
C1583 C1587 1.393 . S
C1584 H1573 0.950 . S
C1584 C1582 1.391 . S
C1584 C1585 1.400 . S
C1585 C1579 1.491 1_554 S
C1585 C1584 1.400 . S
C1585 C1586 1.398 . S
C1586 H1574 0.950 . S
C1586 C1585 1.398 . S
C1586 C1587 1.391 . S
C1587 H1575 0.950 . S
C1587 C1583 1.393 . S
C1587 C1586 1.391 . S
H1588 C1596 0.950 . S
H1589 C1601 0.950 . S
H1590 C1598 0.950 . S
H1591 C1600 0.950 . S
H1592 C1602 0.950 . S
H1593 C1604 0.950 . S
H1594 C1606 0.950 . S
H1595 C1607 0.950 . S
C1596 H1588 0.950 . S
C1596 C1597 1.386 . S
C1596 C1598 1.391 . S
C1597 C1596 1.386 . S
C1597 C1601 1.393 . S
C1598 H1590 0.950 . S
C1598 C1596 1.391 . S
C1598 C1599 1.400 . S
C1599 C1598 1.400 . S
C1599 C1600 1.398 . S
C1599 C1605 1.491 1_556 S
C1600 H1591 0.950 . S
C1600 C1599 1.398 . S
C1600 C1601 1.391 . S
C1601 H1589 0.950 . S
C1601 C1597 1.393 . S
C1601 C1600 1.391 . S
C1602 H1592 0.950 . S
C1602 C1603 1.386 . S
C1602 C1604 1.391 . S
C1603 C1602 1.386 . S
C1603 C1607 1.393 . S
C1604 H1593 0.950 . S
C1604 C1602 1.391 . S
C1604 C1605 1.400 . S
C1605 C1599 1.491 1_554 S
C1605 C1604 1.400 . S
C1605 C1606 1.398 . S
C1606 H1594 0.950 . S
C1606 C1605 1.398 . S
C1606 C1607 1.391 . S
C1607 H1595 0.950 . S
C1607 C1603 1.393 . S
C1607 C1606 1.391 . S
H1608 C1616 0.950 . S
H1609 C1621 0.950 . S
H1610 C1618 0.950 . S
H1611 C1620 0.950 . S
H1612 C1622 0.950 . S
H1613 C1624 0.950 . S
H1614 C1626 0.950 . S
H1615 C1627 0.950 . S
C1616 H1608 0.950 . S
C1616 C1617 1.386 . S
C1616 C1618 1.391 . S
C1617 C1616 1.386 . S
C1617 C1621 1.393 . S
C1618 H1610 0.950 . S
C1618 C1616 1.391 . S
C1618 C1619 1.400 . S
C1619 C1618 1.400 . S
C1619 C1620 1.398 . S
C1619 C1625 1.491 1_556 S
C1620 H1611 0.950 . S
C1620 C1619 1.398 . S
C1620 C1621 1.391 . S
C1621 H1609 0.950 . S
C1621 C1617 1.393 . S
C1621 C1620 1.391 . S
C1622 H1612 0.950 . S
C1622 C1623 1.386 . S
C1622 C1624 1.391 . S
C1623 C1622 1.386 . S
C1623 C1627 1.393 . S
C1624 H1613 0.950 . S
C1624 C1622 1.391 . S
C1624 C1625 1.400 . S
C1625 C1619 1.491 1_554 S
C1625 C1624 1.400 . S
C1625 C1626 1.398 . S
C1626 H1614 0.950 . S
C1626 C1625 1.398 . S
C1626 C1627 1.391 . S
C1627 H1615 0.950 . S
C1627 C1623 1.393 . S
C1627 C1626 1.391 . S
H1628 C1636 0.950 . S
H1629 C1641 0.950 . S
H1630 C1638 0.950 . S
H1631 C1640 0.950 . S
H1632 C1642 0.950 . S
H1633 C1644 0.950 . S
H1634 C1646 0.950 . S
H1635 C1647 0.950 . S
C1636 H1628 0.950 . S
C1636 C1637 1.386 . S
C1636 C1638 1.391 . S
C1637 C1636 1.386 . S
C1637 C1641 1.393 . S
C1638 H1630 0.950 . S
C1638 C1636 1.391 . S
C1638 C1639 1.400 . S
C1639 C1638 1.400 . S
C1639 C1640 1.398 . S
C1639 C1645 1.491 1_554 S
C1640 H1631 0.950 . S
C1640 C1639 1.398 . S
C1640 C1641 1.391 . S
C1641 H1629 0.950 . S
C1641 C1637 1.393 . S
C1641 C1640 1.391 . S
C1642 H1632 0.950 . S
C1642 C1643 1.386 . S
C1642 C1644 1.391 . S
C1643 C1642 1.386 . S
C1643 C1647 1.393 . S
C1644 H1633 0.950 . S
C1644 C1642 1.391 . S
C1644 C1645 1.400 . S
C1645 C1639 1.491 1_556 S
C1645 C1644 1.400 . S
C1645 C1646 1.398 . S
C1646 H1634 0.950 . S
C1646 C1645 1.398 . S
C1646 C1647 1.391 . S
C1647 H1635 0.950 . S
C1647 C1643 1.393 . S
C1647 C1646 1.391 . S
H1648 C1656 0.950 . S
H1649 C1661 0.950 . S
H1650 C1658 0.950 . S
H1651 C1660 0.950 . S
H1652 C1662 0.950 . S
H1653 C1664 0.950 . S
H1654 C1666 0.950 . S
H1655 C1667 0.950 . S
C1656 H1648 0.950 . S
C1656 C1657 1.386 . S
C1656 C1658 1.391 . S
C1657 C1656 1.386 . S
C1657 C1661 1.393 . S
C1658 H1650 0.950 . S
C1658 C1656 1.391 . S
C1658 C1659 1.400 . S
C1659 C1658 1.400 . S
C1659 C1660 1.398 . S
C1659 C1665 1.491 1_455 S
C1660 H1651 0.950 . S
C1660 C1659 1.398 . S
C1660 C1661 1.391 . S
C1661 H1649 0.950 . S
C1661 C1657 1.393 . S
C1661 C1660 1.391 . S
C1662 H1652 0.950 . S
C1662 C1663 1.386 . S
C1662 C1664 1.391 . S
C1663 C1662 1.386 . S
C1663 C1667 1.393 . S
C1664 H1653 0.950 . S
C1664 C1662 1.391 . S
C1664 C1665 1.400 . S
C1665 C1659 1.491 1_655 S
C1665 C1664 1.400 . S
C1665 C1666 1.398 . S
C1666 H1654 0.950 . S
C1666 C1665 1.398 . S
C1666 C1667 1.391 . S
C1667 H1655 0.950 . S
C1667 C1663 1.393 . S
C1667 C1666 1.391 . S
H1668 C1676 0.950 . S
H1669 C1681 0.950 . S
H1670 C1678 0.950 . S
H1671 C1680 0.950 . S
H1672 C1682 0.950 . S
H1673 C1684 0.950 . S
H1674 C1686 0.950 . S
H1675 C1687 0.950 . S
C1676 H1668 0.950 . S
C1676 C1677 1.386 . S
C1676 C1678 1.391 . S
C1677 C1676 1.386 . S
C1677 C1681 1.393 . S
C1678 H1670 0.950 . S
C1678 C1676 1.391 . S
C1678 C1679 1.400 . S
C1679 C1678 1.400 . S
C1679 C1680 1.398 . S
C1679 C1685 1.491 1_565 S
C1680 H1671 0.950 . S
C1680 C1679 1.398 . S
C1680 C1681 1.391 . S
C1681 H1669 0.950 . S
C1681 C1677 1.393 . S
C1681 C1680 1.391 . S
C1682 H1672 0.950 . S
C1682 C1683 1.386 . S
C1682 C1684 1.391 . S
C1683 C1682 1.386 . S
C1683 C1687 1.393 . S
C1684 H1673 0.950 . S
C1684 C1682 1.391 . S
C1684 C1685 1.400 . S
C1685 C1679 1.491 1_545 S
C1685 C1684 1.400 . S
C1685 C1686 1.398 . S
C1686 H1674 0.950 . S
C1686 C1685 1.398 . S
C1686 C1687 1.391 . S
C1687 H1675 0.950 . S
C1687 C1683 1.393 . S
C1687 C1686 1.391 . S
H1688 C1696 0.950 . S
H1689 C1701 0.950 . S
H1690 C1698 0.950 . S
H1691 C1700 0.950 . S
H1692 C1702 0.950 . S
H1693 C1704 0.950 . S
H1694 C1706 0.950 . S
H1695 C1707 0.950 . S
C1696 H1688 0.950 . S
C1696 C1697 1.386 . S
C1696 C1698 1.391 . S
C1697 C1696 1.386 . S
C1697 C1701 1.393 . S
C1698 H1690 0.950 . S
C1698 C1696 1.391 . S
C1698 C1699 1.400 . S
C1699 C1698 1.400 . S
C1699 C1700 1.398 . S
C1699 C1705 1.491 1_655 S
C1700 H1691 0.950 . S
C1700 C1699 1.398 . S
C1700 C1701 1.391 . S
C1701 H1689 0.950 . S
C1701 C1697 1.393 . S
C1701 C1700 1.391 . S
C1702 H1692 0.950 . S
C1702 C1703 1.386 . S
C1702 C1704 1.391 . S
C1703 C1702 1.386 . S
C1703 C1707 1.393 . S
C1704 H1693 0.950 . S
C1704 C1702 1.391 . S
C1704 C1705 1.400 . S
C1705 C1699 1.491 1_455 S
C1705 C1704 1.400 . S
C1705 C1706 1.398 . S
C1706 H1694 0.950 . S
C1706 C1705 1.398 . S
C1706 C1707 1.391 . S
C1707 H1695 0.950 . S
C1707 C1703 1.393 . S
C1707 C1706 1.391 . S
H1708 C1716 0.950 . S
H1709 C1721 0.950 . S
H1710 C1718 0.950 . S
H1711 C1720 0.950 . S
H1712 C1722 0.950 . S
H1713 C1724 0.950 . S
H1714 C1726 0.950 . S
H1715 C1727 0.950 . S
C1716 H1708 0.950 . S
C1716 C1717 1.386 . S
C1716 C1718 1.391 . S
C1717 C1716 1.386 . S
C1717 C1721 1.393 . S
C1718 H1710 0.950 . S
C1718 C1716 1.391 . S
C1718 C1719 1.400 . S
C1719 C1718 1.400 . S
C1719 C1720 1.398 . S
C1719 C1725 1.491 1_545 S
C1720 H1711 0.950 . S
C1720 C1719 1.398 . S
C1720 C1721 1.391 . S
C1721 H1709 0.950 . S
C1721 C1717 1.393 . S
C1721 C1720 1.391 . S
C1722 H1712 0.950 . S
C1722 C1723 1.386 . S
C1722 C1724 1.391 . S
C1723 C1722 1.386 . S
C1723 C1727 1.393 . S
C1724 H1713 0.950 . S
C1724 C1722 1.391 . S
C1724 C1725 1.400 . S
C1725 C1719 1.491 1_565 S
C1725 C1724 1.400 . S
C1725 C1726 1.398 . S
C1726 H1714 0.950 . S
C1726 C1725 1.398 . S
C1726 C1727 1.391 . S
C1727 H1715 0.950 . S
C1727 C1723 1.393 . S
C1727 C1726 1.391 . S
H1728 C1736 0.950 . S
H1729 C1741 0.950 . S
H1730 C1738 0.950 . S
H1731 C1740 0.950 . S
H1732 C1742 0.950 . S
H1733 C1744 0.950 . S
H1734 C1746 0.950 . S
H1735 C1747 0.950 . S
C1736 H1728 0.950 . S
C1736 C1737 1.386 . S
C1736 C1738 1.391 . S
C1737 C1736 1.386 . S
C1737 C1741 1.393 . S
C1738 H1730 0.950 . S
C1738 C1736 1.391 . S
C1738 C1739 1.400 . S
C1739 C1738 1.400 . S
C1739 C1740 1.398 . S
C1739 C1745 1.491 1_655 S
C1740 H1731 0.950 . S
C1740 C1739 1.398 . S
C1740 C1741 1.391 . S
C1741 H1729 0.950 . S
C1741 C1737 1.393 . S
C1741 C1740 1.391 . S
C1742 H1732 0.950 . S
C1742 C1743 1.386 . S
C1742 C1744 1.391 . S
C1743 C1742 1.386 . S
C1743 C1747 1.393 . S
C1744 H1733 0.950 . S
C1744 C1742 1.391 . S
C1744 C1745 1.400 . S
C1745 C1739 1.491 1_455 S
C1745 C1744 1.400 . S
C1745 C1746 1.398 . S
C1746 H1734 0.950 . S
C1746 C1745 1.398 . S
C1746 C1747 1.391 . S
C1747 H1735 0.950 . S
C1747 C1743 1.393 . S
C1747 C1746 1.391 . S
H1748 C1756 0.950 . S
H1749 C1761 0.950 . S
H1750 C1758 0.950 . S
H1751 C1760 0.950 . S
H1752 C1762 0.950 . S
H1753 C1764 0.950 . S
H1754 C1766 0.950 . S
H1755 C1767 0.950 . S
C1756 H1748 0.950 . S
C1756 C1757 1.386 . S
C1756 C1758 1.391 . S
C1757 C1756 1.386 . S
C1757 C1761 1.393 . S
C1758 H1750 0.950 . S
C1758 C1756 1.391 . S
C1758 C1759 1.400 . S
C1759 C1758 1.400 . S
C1759 C1760 1.398 . S
C1759 C1765 1.491 1_565 S
C1760 H1751 0.950 . S
C1760 C1759 1.398 . S
C1760 C1761 1.391 . S
C1761 H1749 0.950 . S
C1761 C1757 1.393 . S
C1761 C1760 1.391 . S
C1762 H1752 0.950 . S
C1762 C1763 1.386 . S
C1762 C1764 1.391 . S
C1763 C1762 1.386 . S
C1763 C1767 1.393 . S
C1764 H1753 0.950 . S
C1764 C1762 1.391 . S
C1764 C1765 1.400 . S
C1765 C1759 1.491 1_545 S
C1765 C1764 1.400 . S
C1765 C1766 1.398 . S
C1766 H1754 0.950 . S
C1766 C1765 1.398 . S
C1766 C1767 1.391 . S
C1767 H1755 0.950 . S
C1767 C1763 1.393 . S
C1767 C1766 1.391 . S
H1768 C1776 0.950 . S
H1769 C1781 0.950 . S
H1770 C1778 0.950 . S
H1771 C1780 0.950 . S
H1772 C1782 0.950 . S
H1773 C1784 0.950 . S
H1774 C1786 0.950 . S
H1775 C1787 0.950 . S
C1776 H1768 0.950 . S
C1776 C1777 1.386 . S
C1776 C1778 1.391 . S
C1777 C1776 1.386 . S
C1777 C1781 1.393 . S
C1778 H1770 0.950 . S
C1778 C1776 1.391 . S
C1778 C1779 1.400 . S
C1779 C1778 1.400 . S
C1779 C1780 1.398 . S
C1779 C1785 1.491 1_455 S
C1780 H1771 0.950 . S
C1780 C1779 1.398 . S
C1780 C1781 1.391 . S
C1781 H1769 0.950 . S
C1781 C1777 1.393 . S
C1781 C1780 1.391 . S
C1782 H1772 0.950 . S
C1782 C1783 1.386 . S
C1782 C1784 1.391 . S
C1783 C1782 1.386 . S
C1783 C1787 1.393 . S
C1784 H1773 0.950 . S
C1784 C1782 1.391 . S
C1784 C1785 1.400 . S
C1785 C1779 1.491 1_655 S
C1785 C1784 1.400 . S
C1785 C1786 1.398 . S
C1786 H1774 0.950 . S
C1786 C1785 1.398 . S
C1786 C1787 1.391 . S
C1787 H1775 0.950 . S
C1787 C1783 1.393 . S
C1787 C1786 1.391 . S
H1788 C1796 0.950 . S
H1789 C1801 0.950 . S
H1790 C1798 0.950 . S
H1791 C1800 0.950 . S
H1792 C1802 0.950 . S
H1793 C1804 0.950 . S
H1794 C1806 0.950 . S
H1795 C1807 0.950 . S
C1796 H1788 0.950 . S
C1796 C1797 1.386 . S
C1796 C1798 1.391 . S
C1797 C1796 1.386 . S
C1797 C1801 1.393 . S
C1798 H1790 0.950 . S
C1798 C1796 1.391 . S
C1798 C1799 1.400 . S
C1799 C1798 1.400 . S
C1799 C1800 1.398 . S
C1799 C1805 1.491 1_565 S
C1800 H1791 0.950 . S
C1800 C1799 1.398 . S
C1800 C1801 1.391 . S
C1801 H1789 0.950 . S
C1801 C1797 1.393 . S
C1801 C1800 1.391 . S
C1802 H1792 0.950 . S
C1802 C1803 1.386 . S
C1802 C1804 1.391 . S
C1803 C1802 1.386 . S
C1803 C1807 1.393 . S
C1804 H1793 0.950 . S
C1804 C1802 1.391 . S
C1804 C1805 1.400 . S
C1805 C1799 1.491 1_545 S
C1805 C1804 1.400 . S
C1805 C1806 1.398 . S
C1806 H1794 0.950 . S
C1806 C1805 1.398 . S
C1806 C1807 1.391 . S
C1807 H1795 0.950 . S
C1807 C1803 1.393 . S
C1807 C1806 1.391 . S
H1808 C1816 0.950 . S
H1809 C1821 0.950 . S
H1810 C1818 0.950 . S
H1811 C1820 0.950 . S
H1812 C1822 0.950 . S
H1813 C1824 0.950 . S
H1814 C1826 0.950 . S
H1815 C1827 0.950 . S
C1816 H1808 0.950 . S
C1816 C1817 1.386 . S
C1816 C1818 1.391 . S
C1817 C1816 1.386 . S
C1817 C1821 1.393 . S
C1818 H1810 0.950 . S
C1818 C1816 1.391 . S
C1818 C1819 1.400 . S
C1819 C1818 1.400 . S
C1819 C1820 1.398 . S
C1819 C1825 1.491 . S
C1820 H1811 0.950 . S
C1820 C1819 1.398 . S
C1820 C1821 1.391 . S
C1821 H1809 0.950 . S
C1821 C1817 1.393 . S
C1821 C1820 1.391 . S
C1822 H1812 0.950 . S
C1822 C1823 1.386 . S
C1822 C1824 1.391 . S
C1823 C1822 1.386 . S
C1823 C1827 1.393 . S
C1824 H1813 0.950 . S
C1824 C1822 1.391 . S
C1824 C1825 1.400 . S
C1825 C1819 1.491 . S
C1825 C1824 1.400 . S
C1825 C1826 1.398 . S
C1826 H1814 0.950 . S
C1826 C1825 1.398 . S
C1826 C1827 1.391 . S
C1827 H1815 0.950 . S
C1827 C1823 1.393 . S
C1827 C1826 1.391 . S
H1828 C1836 0.950 . S
H1829 C1841 0.950 . S
H1830 C1838 0.950 . S
H1831 C1840 0.950 . S
H1832 C1842 0.950 . S
H1833 C1844 0.950 . S
H1834 C1846 0.950 . S
H1835 C1847 0.950 . S
C1836 H1828 0.950 . S
C1836 C1837 1.386 . S
C1836 C1838 1.391 . S
C1837 C1836 1.386 . S
C1837 C1841 1.393 . S
C1838 H1830 0.950 . S
C1838 C1836 1.391 . S
C1838 C1839 1.400 . S
C1839 C1838 1.400 . S
C1839 C1840 1.398 . S
C1839 C1845 1.491 . S
C1840 H1831 0.950 . S
C1840 C1839 1.398 . S
C1840 C1841 1.391 . S
C1841 H1829 0.950 . S
C1841 C1837 1.393 . S
C1841 C1840 1.391 . S
C1842 H1832 0.950 . S
C1842 C1843 1.386 . S
C1842 C1844 1.391 . S
C1843 C1842 1.386 . S
C1843 C1847 1.393 . S
C1844 H1833 0.950 . S
C1844 C1842 1.391 . S
C1844 C1845 1.400 . S
C1845 C1839 1.491 . S
C1845 C1844 1.400 . S
C1845 C1846 1.398 . S
C1846 H1834 0.950 . S
C1846 C1845 1.398 . S
C1846 C1847 1.391 . S
C1847 H1835 0.950 . S
C1847 C1843 1.393 . S
C1847 C1846 1.391 . S
H1848 C1856 0.950 . S
H1849 C1861 0.950 . S
H1850 C1858 0.950 . S
H1851 C1860 0.950 . S
H1852 C1862 0.950 . S
H1853 C1864 0.950 . S
H1854 C1866 0.950 . S
H1855 C1867 0.950 . S
C1856 H1848 0.950 . S
C1856 C1857 1.386 . S
C1856 C1858 1.391 . S
C1857 C1856 1.386 . S
C1857 C1861 1.393 . S
C1858 H1850 0.950 . S
C1858 C1856 1.391 . S
C1858 C1859 1.400 . S
C1859 C1858 1.400 . S
C1859 C1860 1.398 . S
C1859 C1865 1.491 . S
C1860 H1851 0.950 . S
C1860 C1859 1.398 . S
C1860 C1861 1.391 . S
C1861 H1849 0.950 . S
C1861 C1857 1.393 . S
C1861 C1860 1.391 . S
C1862 H1852 0.950 . S
C1862 C1863 1.386 . S
C1862 C1864 1.391 . S
C1863 C1862 1.386 . S
C1863 C1867 1.393 . S
C1864 H1853 0.950 . S
C1864 C1862 1.391 . S
C1864 C1865 1.400 . S
C1865 C1859 1.491 . S
C1865 C1864 1.400 . S
C1865 C1866 1.398 . S
C1866 H1854 0.950 . S
C1866 C1865 1.398 . S
C1866 C1867 1.391 . S
C1867 H1855 0.950 . S
C1867 C1863 1.393 . S
C1867 C1866 1.391 . S
H1868 C1876 0.950 . S
H1869 C1881 0.950 . S
H1870 C1878 0.950 . S
H1871 C1880 0.950 . S
H1872 C1882 0.950 . S
H1873 C1884 0.950 . S
H1874 C1886 0.950 . S
H1875 C1887 0.950 . S
C1876 H1868 0.950 . S
C1876 C1877 1.386 . S
C1876 C1878 1.391 . S
C1877 C1876 1.386 . S
C1877 C1881 1.393 . S
C1878 H1870 0.950 . S
C1878 C1876 1.391 . S
C1878 C1879 1.400 . S
C1879 C1878 1.400 . S
C1879 C1880 1.398 . S
C1879 C1885 1.491 . S
C1880 H1871 0.950 . S
C1880 C1879 1.398 . S
C1880 C1881 1.391 . S
C1881 H1869 0.950 . S
C1881 C1877 1.393 . S
C1881 C1880 1.391 . S
C1882 H1872 0.950 . S
C1882 C1883 1.386 . S
C1882 C1884 1.391 . S
C1883 C1882 1.386 . S
C1883 C1887 1.393 . S
C1884 H1873 0.950 . S
C1884 C1882 1.391 . S
C1884 C1885 1.400 . S
C1885 C1879 1.491 . S
C1885 C1884 1.400 . S
C1885 C1886 1.398 . S
C1886 H1874 0.950 . S
C1886 C1885 1.398 . S
C1886 C1887 1.391 . S
C1887 H1875 0.950 . S
C1887 C1883 1.393 . S
C1887 C1886 1.391 . S
H1888 C1896 0.950 . S
H1889 C1901 0.950 . S
H1890 C1898 0.950 . S
H1891 C1900 0.950 . S
H1892 C1902 0.950 . S
H1893 C1904 0.950 . S
H1894 C1906 0.950 . S
H1895 C1907 0.950 . S
C1896 H1888 0.950 . S
C1896 C1897 1.386 . S
C1896 C1898 1.391 . S
C1897 C1896 1.386 . S
C1897 C1901 1.393 . S
C1898 H1890 0.950 . S
C1898 C1896 1.391 . S
C1898 C1899 1.400 . S
C1899 C1898 1.400 . S
C1899 C1900 1.398 . S
C1899 C1905 1.491 . S
C1900 H1891 0.950 . S
C1900 C1899 1.398 . S
C1900 C1901 1.391 . S
C1901 H1889 0.950 . S
C1901 C1897 1.393 . S
C1901 C1900 1.391 . S
C1902 H1892 0.950 . S
C1902 C1903 1.386 . S
C1902 C1904 1.391 . S
C1903 C1902 1.386 . S
C1903 C1907 1.393 . S
C1904 H1893 0.950 . S
C1904 C1902 1.391 . S
C1904 C1905 1.400 . S
C1905 C1899 1.491 . S
C1905 C1904 1.400 . S
C1905 C1906 1.398 . S
C1906 H1894 0.950 . S
C1906 C1905 1.398 . S
C1906 C1907 1.391 . S
C1907 H1895 0.950 . S
C1907 C1903 1.393 . S
C1907 C1906 1.391 . S
H1908 C1916 0.950 . S
H1909 C1921 0.950 . S
H1910 C1918 0.950 . S
H1911 C1920 0.950 . S
H1912 C1922 0.950 . S
H1913 C1924 0.950 . S
H1914 C1926 0.950 . S
H1915 C1927 0.950 . S
C1916 H1908 0.950 . S
C1916 C1917 1.386 . S
C1916 C1918 1.391 . S
C1917 C1916 1.386 . S
C1917 C1921 1.393 . S
C1918 H1910 0.950 . S
C1918 C1916 1.391 . S
C1918 C1919 1.400 . S
C1919 C1918 1.400 . S
C1919 C1920 1.398 . S
C1919 C1925 1.491 . S
C1920 H1911 0.950 . S
C1920 C1919 1.398 . S
C1920 C1921 1.391 . S
C1921 H1909 0.950 . S
C1921 C1917 1.393 . S
C1921 C1920 1.391 . S
C1922 H1912 0.950 . S
C1922 C1923 1.386 . S
C1922 C1924 1.391 . S
C1923 C1922 1.386 . S
C1923 C1927 1.393 . S
C1924 H1913 0.950 . S
C1924 C1922 1.391 . S
C1924 C1925 1.400 . S
C1925 C1919 1.491 . S
C1925 C1924 1.400 . S
C1925 C1926 1.398 . S
C1926 H1914 0.950 . S
C1926 C1925 1.398 . S
C1926 C1927 1.391 . S
C1927 H1915 0.950 . S
C1927 C1923 1.393 . S
C1927 C1926 1.391 . S
H1928 C1936 0.950 . S
H1929 C1941 0.950 . S
H1930 C1938 0.950 . S
H1931 C1940 0.950 . S
H1932 C1942 0.950 . S
H1933 C1944 0.950 . S
H1934 C1946 0.950 . S
H1935 C1947 0.950 . S
C1936 H1928 0.950 . S
C1936 C1937 1.386 . S
C1936 C1938 1.391 . S
C1937 C1936 1.386 . S
C1937 C1941 1.393 . S
C1938 H1930 0.950 . S
C1938 C1936 1.391 . S
C1938 C1939 1.400 . S
C1939 C1938 1.400 . S
C1939 C1940 1.398 . S
C1939 C1945 1.491 . S
C1940 H1931 0.950 . S
C1940 C1939 1.398 . S
C1940 C1941 1.391 . S
C1941 H1929 0.950 . S
C1941 C1937 1.393 . S
C1941 C1940 1.391 . S
C1942 H1932 0.950 . S
C1942 C1943 1.386 . S
C1942 C1944 1.391 . S
C1943 C1942 1.386 . S
C1943 C1947 1.393 . S
C1944 H1933 0.950 . S
C1944 C1942 1.391 . S
C1944 C1945 1.400 . S
C1945 C1939 1.491 . S
C1945 C1944 1.400 . S
C1945 C1946 1.398 . S
C1946 H1934 0.950 . S
C1946 C1945 1.398 . S
C1946 C1947 1.391 . S
C1947 H1935 0.950 . S
C1947 C1943 1.393 . S
C1947 C1946 1.391 . S
H1948 C1956 0.950 . S
H1949 C1961 0.950 . S
H1950 C1958 0.950 . S
H1951 C1960 0.950 . S
H1952 C1962 0.950 . S
H1953 C1964 0.950 . S
H1954 C1966 0.950 . S
H1955 C1967 0.950 . S
C1956 H1948 0.950 . S
C1956 C1957 1.386 . S
C1956 C1958 1.391 . S
C1957 C1956 1.386 . S
C1957 C1961 1.393 . S
C1958 H1950 0.950 . S
C1958 C1956 1.391 . S
C1958 C1959 1.400 . S
C1959 C1958 1.400 . S
C1959 C1960 1.398 . S
C1959 C1965 1.491 . S
C1960 H1951 0.950 . S
C1960 C1959 1.398 . S
C1960 C1961 1.391 . S
C1961 H1949 0.950 . S
C1961 C1957 1.393 . S
C1961 C1960 1.391 . S
C1962 H1952 0.950 . S
C1962 C1963 1.386 . S
C1962 C1964 1.391 . S
C1963 C1962 1.386 . S
C1963 C1967 1.393 . S
C1964 H1953 0.950 . S
C1964 C1962 1.391 . S
C1964 C1965 1.400 . S
C1965 C1959 1.491 . S
C1965 C1964 1.400 . S
C1965 C1966 1.398 . S
C1966 H1954 0.950 . S
C1966 C1965 1.398 . S
C1966 C1967 1.391 . S
C1967 H1955 0.950 . S
C1967 C1963 1.393 . S
C1967 C1966 1.391 . S
H1968 C1976 0.950 . S
H1969 C1981 0.950 . S
H1970 C1978 0.950 . S
H1971 C1980 0.950 . S
H1972 C1982 0.950 . S
H1973 C1984 0.950 . S
H1974 C1986 0.950 . S
H1975 C1987 0.950 . S
C1976 H1968 0.950 . S
C1976 C1977 1.386 . S
C1976 C1978 1.391 . S
C1977 C1976 1.386 . S
C1977 C1981 1.393 . S
C1978 H1970 0.950 . S
C1978 C1976 1.391 . S
C1978 C1979 1.400 . S
C1979 C1978 1.400 . S
C1979 C1980 1.398 . S
C1979 C1985 1.491 . S
C1980 H1971 0.950 . S
C1980 C1979 1.398 . S
C1980 C1981 1.391 . S
C1981 H1969 0.950 . S
C1981 C1977 1.393 . S
C1981 C1980 1.391 . S
C1982 H1972 0.950 . S
C1982 C1983 1.386 . S
C1982 C1984 1.391 . S
C1983 C1982 1.386 . S
C1983 C1987 1.393 . S
C1984 H1973 0.950 . S
C1984 C1982 1.391 . S
C1984 C1985 1.400 . S
C1985 C1979 1.491 . S
C1985 C1984 1.400 . S
C1985 C1986 1.398 . S
C1986 H1974 0.950 . S
C1986 C1985 1.398 . S
C1986 C1987 1.391 . S
C1987 H1975 0.950 . S
C1987 C1983 1.393 . S
C1987 C1986 1.391 . S
H1988 C1996 0.950 . S
H1989 C2001 0.950 . S
H1990 C1998 0.950 . S
H1991 C2000 0.950 . S
H1992 C2002 0.950 . S
H1993 C2004 0.950 . S
H1994 C2006 0.950 . S
H1995 C2007 0.950 . S
C1996 H1988 0.950 . S
C1996 C1997 1.386 . S
C1996 C1998 1.391 . S
C1997 C1996 1.386 . S
C1997 C2001 1.393 . S
C1998 H1990 0.950 . S
C1998 C1996 1.391 . S
C1998 C1999 1.400 . S
C1999 C1998 1.400 . S
C1999 C2000 1.398 . S
C1999 C2005 1.491 . S
C2000 H1991 0.950 . S
C2000 C1999 1.398 . S
C2000 C2001 1.391 . S
C2001 H1989 0.950 . S
C2001 C1997 1.393 . S
C2001 C2000 1.391 . S
C2002 H1992 0.950 . S
C2002 C2003 1.386 . S
C2002 C2004 1.391 . S
C2003 C2002 1.386 . S
C2003 C2007 1.393 . S
C2004 H1993 0.950 . S
C2004 C2002 1.391 . S
C2004 C2005 1.400 . S
C2005 C1999 1.491 . S
C2005 C2004 1.400 . S
C2005 C2006 1.398 . S
C2006 H1994 0.950 . S
C2006 C2005 1.398 . S
C2006 C2007 1.391 . S
C2007 H1995 0.950 . S
C2007 C2003 1.393 . S
C2007 C2006 1.391 . S
H2008 C2016 0.950 . S
H2009 C2021 0.950 . S
H2010 C2018 0.950 . S
H2011 C2020 0.950 . S
H2012 C2022 0.950 . S
H2013 C2024 0.950 . S
H2014 C2026 0.950 . S
H2015 C2027 0.950 . S
C2016 H2008 0.950 . S
C2016 C2017 1.386 . S
C2016 C2018 1.391 . S
C2017 C2016 1.386 . S
C2017 C2021 1.393 . S
C2018 H2010 0.950 . S
C2018 C2016 1.391 . S
C2018 C2019 1.400 . S
C2019 C2018 1.400 . S
C2019 C2020 1.398 . S
C2019 C2025 1.491 . S
C2020 H2011 0.950 . S
C2020 C2019 1.398 . S
C2020 C2021 1.391 . S
C2021 H2009 0.950 . S
C2021 C2017 1.393 . S
C2021 C2020 1.391 . S
C2022 H2012 0.950 . S
C2022 C2023 1.386 . S
C2022 C2024 1.391 . S
C2023 C2022 1.386 . S
C2023 C2027 1.393 . S
C2024 H2013 0.950 . S
C2024 C2022 1.391 . S
C2024 C2025 1.400 . S
C2025 C2019 1.491 . S
C2025 C2024 1.400 . S
C2025 C2026 1.398 . S
C2026 H2014 0.950 . S
C2026 C2025 1.398 . S
C2026 C2027 1.391 . S
C2027 H2015 0.950 . S
C2027 C2023 1.393 . S
C2027 C2026 1.391 . S
H2028 C2036 0.950 . S
H2029 C2041 0.950 . S
H2030 C2038 0.950 . S
H2031 C2040 0.950 . S
H2032 C2042 0.950 . S
H2033 C2044 0.950 . S
H2034 C2046 0.950 . S
H2035 C2047 0.950 . S
C2036 H2028 0.950 . S
C2036 C2037 1.386 . S
C2036 C2038 1.391 . S
C2037 C2036 1.386 . S
C2037 C2041 1.393 . S
C2038 H2030 0.950 . S
C2038 C2036 1.391 . S
C2038 C2039 1.400 . S
C2039 C2038 1.400 . S
C2039 C2040 1.398 . S
C2039 C2045 1.491 . S
C2040 H2031 0.950 . S
C2040 C2039 1.398 . S
C2040 C2041 1.391 . S
C2041 H2029 0.950 . S
C2041 C2037 1.393 . S
C2041 C2040 1.391 . S
C2042 H2032 0.950 . S
C2042 C2043 1.386 . S
C2042 C2044 1.391 . S
C2043 C2042 1.386 . S
C2043 C2047 1.393 . S
C2044 H2033 0.950 . S
C2044 C2042 1.391 . S
C2044 C2045 1.400 . S
C2045 C2039 1.491 . S
C2045 C2044 1.400 . S
C2045 C2046 1.398 . S
C2046 H2034 0.950 . S
C2046 C2045 1.398 . S
C2046 C2047 1.391 . S
C2047 H2035 0.950 . S
C2047 C2043 1.393 . S
C2047 C2046 1.391 . S
C1417 C1377 0.492 . S
C1423 C29 0.494 . S
C1437 C1105 0.495 . S
C1443 C108 0.494 . S
C1457 C233 0.496 . S
C1463 C1193 0.498 . S
C1477 C1289 0.498 . S
C1483 C293 0.499 . S
C1497 C821 0.499 . S
C1503 C401 0.495 . S
C1517 C489 0.495 . S
C1523 C937 0.495 . S
C1537 C577 0.496 . S
C1543 C997 0.500 . S
C1557 C673 0.497 . S
C1563 C724 0.495 . S
C1577 C460 1.474 . S
C1583 C20 1.462 . S
C1597 C557 1.472 . S
C1603 C145 1.464 . S
C1617 C645 1.478 . S
C1623 C225 1.468 . S
C1637 C321 1.477 . S
C1643 C381 1.476 . S
C1657 C57 1.486 . S
C1663 C137 1.476 . S
C1677 C196 1.476 . S
C1683 C117 1.462 . S
C1697 C205 1.478 . S
C1703 C284 1.469 . S
C1717 C49 1.454 . S
C1723 C313 1.462 . S
C1737 C665 1.465 . S
C1743 C409 1.454 . S
C1757 C372 1.477 . S
C1763 C469 1.483 . S
C1777 C497 1.471 . S
C1783 C585 1.468 . S
C1797 C636 1.482 . S
C1803 C548 1.495 . S
C1817 C1164 1.470 . S
C1823 C733 1.467 . S
C1837 C841 1.466 . S
C1843 C1252 1.473 . S
C1857 C1349 1.481 . S
C1863 C929 1.465 . S
C1877 C1085 1.469 . S
C1883 C1025 1.482 . S
C1897 C753 1.485 . S
C1903 C849 1.478 . S
C1917 C812 1.468 . S
C1923 C900 1.469 . S
C1937 C988 1.465 . S
C1943 C909 1.481 . S
C1957 C761 1.465 . S
C1963 C1017 1.451 . S
C1977 C1369 1.454 . S
C1983 C1113 1.465 . S
C1997 C1076 1.480 . S
C2003 C1173 1.478 . S
C2017 C1201 1.473 . S
C2023 C1281 1.465 . S
C2037 C1340 1.488 . S
C2043 C1261 1.490 . S
