# Generated by pormake.
# Topology ums, (4)-cn, num edge types: 1
# Building blocks:
#     Node 0, Type 0, BuildingBlock: TATPOV_clean_sbu_0, # of connection points: 4
#     Node 1, Type 0, BuildingBlock: TATPOV_clean_sbu_0, # of connection points: 4
#     Node 2, Type 0, BuildingBlock: TATPOV_clean_sbu_0, # of connection points: 4
#     Node 3, Type 0, BuildingBlock: TATPOV_clean_sbu_0, # of connection points: 4
#     Node 4, Type 0, BuildingBlock: TATPOV_clean_sbu_0, # of connection points: 4
#     Node 5, Type 0, BuildingBlock: TATPOV_clean_sbu_0, # of connection points: 4
#     Node 6, Type 0, BuildingBlock: TATPOV_clean_sbu_0, # of connection points: 4
#     Node 7, Type 0, BuildingBlock: TATPOV_clean_sbu_0, # of connection points: 4
#     Node 8, Type 0, BuildingBlock: TATPOV_clean_sbu_0, # of connection points: 4
#     Node 9, Type 0, BuildingBlock: TATPOV_clean_sbu_0, # of connection points: 4
#     Node 10, Type 0, BuildingBlock: TATPOV_clean_sbu_0, # of connection points: 4
#     Node 11, Type 0, BuildingBlock: TATPOV_clean_sbu_0, # of connection points: 4
#     Node 12, Type 0, BuildingBlock: TATPOV_clean_sbu_0, # of connection points: 4
#     Node 13, Type 0, BuildingBlock: TATPOV_clean_sbu_0, # of connection points: 4
#     Node 14, Type 0, BuildingBlock: TATPOV_clean_sbu_0, # of connection points: 4
#     Node 15, Type 0, BuildingBlock: TATPOV_clean_sbu_0, # of connection points: 4
#     Node 16, Type 0, BuildingBlock: TATPOV_clean_sbu_0, # of connection points: 4
#     Node 17, Type 0, BuildingBlock: TATPOV_clean_sbu_0, # of connection points: 4
#     Node 18, Type 0, BuildingBlock: TATPOV_clean_sbu_0, # of connection points: 4
#     Node 19, Type 0, BuildingBlock: TATPOV_clean_sbu_0, # of connection points: 4
#     Node 20, Type 0, BuildingBlock: TATPOV_clean_sbu_0, # of connection points: 4
#     Node 21, Type 0, BuildingBlock: TATPOV_clean_sbu_0, # of connection points: 4
#     Node 22, Type 0, BuildingBlock: TATPOV_clean_sbu_0, # of connection points: 4
#     Node 23, Type 0, BuildingBlock: TATPOV_clean_sbu_0, # of connection points: 4
#     Node 24, Type 0, BuildingBlock: TATPOV_clean_sbu_0, # of connection points: 4
#     Node 25, Type 0, BuildingBlock: TATPOV_clean_sbu_0, # of connection points: 4
#     Node 26, Type 0, BuildingBlock: TATPOV_clean_sbu_0, # of connection points: 4
#     Node 27, Type 0, BuildingBlock: TATPOV_clean_sbu_0, # of connection points: 4
#     Node 28, Type 0, BuildingBlock: TATPOV_clean_sbu_0, # of connection points: 4
#     Node 29, Type 0, BuildingBlock: TATPOV_clean_sbu_0, # of connection points: 4
#     Node 30, Type 0, BuildingBlock: TATPOV_clean_sbu_0, # of connection points: 4
#     Node 31, Type 0, BuildingBlock: TATPOV_clean_sbu_0, # of connection points: 4
#     Node 32, Type 0, BuildingBlock: TATPOV_clean_sbu_0, # of connection points: 4
#     Node 33, Type 0, BuildingBlock: TATPOV_clean_sbu_0, # of connection points: 4
#     Node 34, Type 0, BuildingBlock: TATPOV_clean_sbu_0, # of connection points: 4
#     Node 35, Type 0, BuildingBlock: TATPOV_clean_sbu_0, # of connection points: 4
#     Edge 36, Type (0, 0), BuildingBlock: AJUNOK_clean_linker_0, # of connection points: 2
#     Edge 37, Type (0, 0), BuildingBlock: AJUNOK_clean_linker_0, # of connection points: 2
#     Edge 38, Type (0, 0), BuildingBlock: AJUNOK_clean_linker_0, # of connection points: 2
#     Edge 39, Type (0, 0), BuildingBlock: AJUNOK_clean_linker_0, # of connection points: 2
#     Edge 40, Type (0, 0), BuildingBlock: AJUNOK_clean_linker_0, # of connection points: 2
#     Edge 41, Type (0, 0), BuildingBlock: AJUNOK_clean_linker_0, # of connection points: 2
#     Edge 42, Type (0, 0), BuildingBlock: AJUNOK_clean_linker_0, # of connection points: 2
#     Edge 43, Type (0, 0), BuildingBlock: AJUNOK_clean_linker_0, # of connection points: 2
#     Edge 44, Type (0, 0), BuildingBlock: AJUNOK_clean_linker_0, # of connection points: 2
#     Edge 45, Type (0, 0), BuildingBlock: AJUNOK_clean_linker_0, # of connection points: 2
#     Edge 46, Type (0, 0), BuildingBlock: AJUNOK_clean_linker_0, # of connection points: 2
#     Edge 47, Type (0, 0), BuildingBlock: AJUNOK_clean_linker_0, # of connection points: 2
#     Edge 48, Type (0, 0), BuildingBlock: AJUNOK_clean_linker_0, # of connection points: 2
#     Edge 49, Type (0, 0), BuildingBlock: AJUNOK_clean_linker_0, # of connection points: 2
#     Edge 50, Type (0, 0), BuildingBlock: AJUNOK_clean_linker_0, # of connection points: 2
#     Edge 51, Type (0, 0), BuildingBlock: AJUNOK_clean_linker_0, # of connection points: 2
#     Edge 52, Type (0, 0), BuildingBlock: AJUNOK_clean_linker_0, # of connection points: 2
#     Edge 53, Type (0, 0), BuildingBlock: AJUNOK_clean_linker_0, # of connection points: 2
#     Edge 54, Type (0, 0), BuildingBlock: AJUNOK_clean_linker_0, # of connection points: 2
#     Edge 55, Type (0, 0), BuildingBlock: AJUNOK_clean_linker_0, # of connection points: 2
#     Edge 56, Type (0, 0), BuildingBlock: AJUNOK_clean_linker_0, # of connection points: 2
#     Edge 57, Type (0, 0), BuildingBlock: AJUNOK_clean_linker_0, # of connection points: 2
#     Edge 58, Type (0, 0), BuildingBlock: AJUNOK_clean_linker_0, # of connection points: 2
#     Edge 59, Type (0, 0), BuildingBlock: AJUNOK_clean_linker_0, # of connection points: 2
#     Edge 60, Type (0, 0), BuildingBlock: AJUNOK_clean_linker_0, # of connection points: 2
#     Edge 61, Type (0, 0), BuildingBlock: AJUNOK_clean_linker_0, # of connection points: 2
#     Edge 62, Type (0, 0), BuildingBlock: AJUNOK_clean_linker_0, # of connection points: 2
#     Edge 63, Type (0, 0), BuildingBlock: AJUNOK_clean_linker_0, # of connection points: 2
#     Edge 64, Type (0, 0), BuildingBlock: AJUNOK_clean_linker_0, # of connection points: 2
#     Edge 65, Type (0, 0), BuildingBlock: AJUNOK_clean_linker_0, # of connection points: 2
#     Edge 66, Type (0, 0), BuildingBlock: AJUNOK_clean_linker_0, # of connection points: 2
#     Edge 67, Type (0, 0), BuildingBlock: AJUNOK_clean_linker_0, # of connection points: 2
#     Edge 68, Type (0, 0), BuildingBlock: AJUNOK_clean_linker_0, # of connection points: 2
#     Edge 69, Type (0, 0), BuildingBlock: AJUNOK_clean_linker_0, # of connection points: 2
#     Edge 70, Type (0, 0), BuildingBlock: AJUNOK_clean_linker_0, # of connection points: 2
#     Edge 71, Type (0, 0), BuildingBlock: AJUNOK_clean_linker_0, # of connection points: 2
#     Edge 72, Type (0, 0), BuildingBlock: AJUNOK_clean_linker_0, # of connection points: 2
#     Edge 73, Type (0, 0), BuildingBlock: AJUNOK_clean_linker_0, # of connection points: 2
#     Edge 74, Type (0, 0), BuildingBlock: AJUNOK_clean_linker_0, # of connection points: 2
#     Edge 75, Type (0, 0), BuildingBlock: AJUNOK_clean_linker_0, # of connection points: 2
#     Edge 76, Type (0, 0), BuildingBlock: AJUNOK_clean_linker_0, # of connection points: 2
#     Edge 77, Type (0, 0), BuildingBlock: AJUNOK_clean_linker_0, # of connection points: 2
#     Edge 78, Type (0, 0), BuildingBlock: AJUNOK_clean_linker_0, # of connection points: 2
#     Edge 79, Type (0, 0), BuildingBlock: AJUNOK_clean_linker_0, # of connection points: 2
#     Edge 80, Type (0, 0), BuildingBlock: AJUNOK_clean_linker_0, # of connection points: 2
#     Edge 81, Type (0, 0), BuildingBlock: AJUNOK_clean_linker_0, # of connection points: 2
#     Edge 82, Type (0, 0), BuildingBlock: AJUNOK_clean_linker_0, # of connection points: 2
#     Edge 83, Type (0, 0), BuildingBlock: AJUNOK_clean_linker_0, # of connection points: 2
#     Edge 84, Type (0, 0), BuildingBlock: AJUNOK_clean_linker_0, # of connection points: 2
#     Edge 85, Type (0, 0), BuildingBlock: AJUNOK_clean_linker_0, # of connection points: 2
#     Edge 86, Type (0, 0), BuildingBlock: AJUNOK_clean_linker_0, # of connection points: 2
#     Edge 87, Type (0, 0), BuildingBlock: AJUNOK_clean_linker_0, # of connection points: 2
#     Edge 88, Type (0, 0), BuildingBlock: AJUNOK_clean_linker_0, # of connection points: 2
#     Edge 89, Type (0, 0), BuildingBlock: AJUNOK_clean_linker_0, # of connection points: 2
#     Edge 90, Type (0, 0), BuildingBlock: AJUNOK_clean_linker_0, # of connection points: 2
#     Edge 91, Type (0, 0), BuildingBlock: AJUNOK_clean_linker_0, # of connection points: 2
#     Edge 92, Type (0, 0), BuildingBlock: AJUNOK_clean_linker_0, # of connection points: 2
#     Edge 93, Type (0, 0), BuildingBlock: AJUNOK_clean_linker_0, # of connection points: 2
#     Edge 94, Type (0, 0), BuildingBlock: AJUNOK_clean_linker_0, # of connection points: 2
#     Edge 95, Type (0, 0), BuildingBlock: AJUNOK_clean_linker_0, # of connection points: 2
#     Edge 96, Type (0, 0), BuildingBlock: AJUNOK_clean_linker_0, # of connection points: 2
#     Edge 97, Type (0, 0), BuildingBlock: AJUNOK_clean_linker_0, # of connection points: 2
#     Edge 98, Type (0, 0), BuildingBlock: AJUNOK_clean_linker_0, # of connection points: 2
#     Edge 99, Type (0, 0), BuildingBlock: AJUNOK_clean_linker_0, # of connection points: 2
#     Edge 100, Type (0, 0), BuildingBlock: AJUNOK_clean_linker_0, # of connection points: 2
#     Edge 101, Type (0, 0), BuildingBlock: AJUNOK_clean_linker_0, # of connection points: 2
#     Edge 102, Type (0, 0), BuildingBlock: AJUNOK_clean_linker_0, # of connection points: 2
#     Edge 103, Type (0, 0), BuildingBlock: AJUNOK_clean_linker_0, # of connection points: 2
#     Edge 104, Type (0, 0), BuildingBlock: AJUNOK_clean_linker_0, # of connection points: 2
#     Edge 105, Type (0, 0), BuildingBlock: AJUNOK_clean_linker_0, # of connection points: 2
#     Edge 106, Type (0, 0), BuildingBlock: AJUNOK_clean_linker_0, # of connection points: 2
#     Edge 107, Type (0, 0), BuildingBlock: AJUNOK_clean_linker_0, # of connection points: 2
# Relax obj value: 0.119
# Max RMSD: 0.108
# Mean RMSD: 0.108
data_MOF--net-ums--node1-TATPOV_clean_sbu_0--edge1-AJUNOK_clean_linker_0
_symmetry_space_group_name_H-M    P1
_symmetry_Int_Tables_number       1
_symmetry_cell_setting            triclinic
loop_
_symmetry_equiv_pos_as_xyz
'x, y, z'
_cell_length_a     74.347049
_cell_length_b     74.514944
_cell_length_c     17.666285
_cell_angle_alpha  90.020532
_cell_angle_beta   89.906853
_cell_angle_gamma 119.89579
loop_
_atom_site_label
_atom_site_type_symbol
_atom_site_fract_x
_atom_site_fract_y
_atom_site_fract_z
_atom_type_partial_charge
Zn0 Zn 0.13839 0.25278 0.0414 0.0
Zn1 Zn 0.17704 0.25038 0.08919 0.0
O2 O 0.19191 0.27907 0.03945 0.0
O3 O 0.16376 0.27831 -0.00693 0.0
O4 O 0.19719 0.24352 0.14093 0.0
O5 O 0.13374 0.25718 0.14836 0.0
O6 O 0.15919 0.25117 0.17771 0.0
C7 C 0.18345 0.28718 -0.00039 0.0
C8 C 0.14654 0.22472 0.9821 0.0
O9 O 0.1645 0.22917 0.00335 0.0
O10 O 0.13474 0.22407 0.03434 0.0
C11 C 0.208 0.23745 0.10493 0.0
O12 O 0.20786 0.23771 0.03057 0.0
C13 C 0.14446 0.25435 0.19757 0.0
Zn14 Zn 0.78898 0.88561 0.11013 0.0
Zn15 Zn 0.79065 0.92728 0.15247 0.0
O16 O 0.76289 0.91255 0.09618 0.0
O17 O 0.76324 0.88427 0.05861 0.0
O18 O 0.79472 0.95385 0.20019 0.0
O19 O 0.78418 0.87798 0.21882 0.0
O20 O 0.78907 0.90924 0.24389 0.0
C21 C 0.75462 0.89539 0.06013 0.0
C22 C 0.81705 0.92251 0.04997 0.0
O23 O 0.81419 0.9368 0.07474 0.0
O24 O 0.81761 0.91086 0.10029 0.0
C25 C 0.80056 0.97028 0.16179 0.0
O26 O 0.80246 0.96953 0.08806 0.0
C27 C 0.7861 0.89162 0.2661 0.0
Zn28 Zn 0.11666 0.87765 0.08465 0.0
Zn29 Zn 0.07898 0.8434 0.13258 0.0
O30 O 0.09258 0.82648 0.10467 0.0
O31 O 0.11745 0.85233 0.03949 0.0
O32 O 0.04974 0.82443 0.17136 0.0
O33 O 0.12662 0.88524 0.18882 0.0
O34 O 0.09488 0.86208 0.22448 0.0
C35 C 0.10782 0.83329 0.05856 0.0
C36 C 0.08653 0.87301 0.0067 0.0
O37 O 0.07638 0.85439 0.02897 0.0
O38 O 0.09562 0.88628 0.05755 0.0
C39 C 0.03771 0.80634 0.14595 0.0
O40 O 0.04439 0.7992 0.09123 0.0
C41 C 0.11316 0.87667 0.2403 0.0
Zn42 Zn 0.25838 0.14009 0.38509 0.0
Zn43 Zn 0.24814 0.16366 0.34558 0.0
O44 O 0.27692 0.18318 0.39342 0.0
O45 O 0.27563 0.15931 0.46905 0.0
O46 O 0.23731 0.18224 0.3078 0.0
O47 O 0.27235 0.13959 0.29096 0.0
O48 O 0.24996 0.14833 0.24924 0.0
C49 C 0.28413 0.17818 0.45011 0.0
C50 C 0.22141 0.12602 0.44105 0.0
O51 O 0.22815 0.14529 0.43067 0.0
O52 O 0.22881 0.1175 0.39959 0.0
C53 C 0.24506 0.19303 0.2483 0.0
O54 O 0.2601 0.19197 0.21323 0.0
C55 C 0.26243 0.14154 0.23679 0.0
Zn56 Zn 0.87671 0.13702 0.2984 0.0
Zn57 Zn 0.85683 0.09803 0.28544 0.0
O58 O 0.83354 0.10563 0.30773 0.0
O59 O 0.85196 0.13958 0.31839 0.0
O60 O 0.84117 0.06751 0.25785 0.0
O61 O 0.89033 0.14403 0.20083 0.0
O62 O 0.87444 0.11014 0.18732 0.0
C63 C 0.83463 0.12308 0.31921 0.0
C64 C 0.89067 0.11808 0.40309 0.0
O65 O 0.87567 0.10119 0.37768 0.0
O66 O 0.89371 0.13528 0.37865 0.0
C67 C 0.83323 0.05185 0.30154 0.0
O68 O 0.83456 0.05476 0.37511 0.0
C69 C 0.88705 0.12832 0.16323 0.0
Zn70 Zn 0.88166 0.73542 0.3858 0.0
Zn71 Zn 0.91774 0.75227 0.35641 0.0
O72 O 0.91253 0.72401 0.40206 0.0
O73 O 0.88288 0.71536 0.4577 0.0
O74 O 0.94779 0.76708 0.3213 0.0
O75 O 0.86924 0.72697 0.28531 0.0
O76 O 0.9014 0.75051 0.25808 0.0
C77 C 0.89794 0.71225 0.44724 0.0
C78 C 0.90021 0.77398 0.45018 0.0
O79 O 0.91589 0.77172 0.4376 0.0
O80 O 0.8829 0.76102 0.42259 0.0
C81 C 0.95331 0.75944 0.26769 0.0
O82 O 0.93934 0.7418 0.23778 0.0
C83 C 0.88243 0.73936 0.23858 0.0
Zn84 Zn 0.84425 0.72789 0.79368 0.0
Zn85 Zn 0.82637 0.7476 0.82194 0.0
O86 O 0.80296 0.71633 0.81254 0.0
O87 O 0.8194 0.70209 0.75869 0.0
O88 O 0.81153 0.76438 0.82767 0.0
O89 O 0.8656 0.74744 0.7255 0.0
O90 O 0.8481 0.76391 0.73588 0.0
C91 C 0.80273 0.70045 0.78397 0.0
C92 C 0.85137 0.74211 0.94421 0.0
O93 O 0.84129 0.75104 0.92394 0.0
O94 O 0.85368 0.73022 0.89933 0.0
C95 C 0.79633 0.76073 0.78461 0.0
O96 O 0.78868 0.74441 0.74031 0.0
C97 C 0.86342 0.76269 0.70899 0.0
Zn98 Zn 0.28401 0.12862 0.78641 0.0
Zn99 Zn 0.26597 0.09033 0.80317 0.0
O100 O 0.29767 0.10105 0.78688 0.0
O101 O 0.30928 0.13154 0.73471 0.0
O102 O 0.25342 0.05899 0.80185 0.0
O103 O 0.26109 0.12911 0.73112 0.0
O104 O 0.24855 0.0956 0.72308 0.0
C105 C 0.31242 0.11712 0.75561 0.0
C106 C 0.27187 0.11658 0.9383 0.0
O107 O 0.2613 0.09861 0.90925 0.0
O108 O 0.28451 0.13178 0.89851 0.0
C109 C 0.23511 0.04667 0.77841 0.0
O110 O 0.22321 0.05427 0.75873 0.0
C111 C 0.24741 0.11167 0.70665 0.0
Zn112 Zn 0.91723 0.18229 0.75338 0.0
Zn113 Zn 0.95224 0.19204 0.77855 0.0
O114 O 0.94486 0.21472 0.81606 0.0
O115 O 0.91704 0.20881 0.75374 0.0
O116 O 0.98362 0.20646 0.76833 0.0
O117 O 0.90928 0.16491 0.66508 0.0
O118 O 0.94125 0.17164 0.68506 0.0
C119 C 0.93128 0.21985 0.79968 0.0
C120 C 0.92441 0.16242 0.8847 0.0
O121 O 0.94353 0.17241 0.86675 0.0
O122 O 0.91128 0.16524 0.8487 0.0
C123 C 0.99368 0.22335 0.73171 0.0
O124 O 0.98351 0.232 0.70329 0.0
C125 C 0.92398 0.16165 0.65015 0.0
Zn126 Zn 0.73195 0.86637 0.6964 0.0
Zn127 Zn 0.74047 0.83619 0.70336 0.0
O128 O 0.70778 0.82067 0.70387 0.0
O129 O 0.70172 0.8467 0.70328 0.0
O130 O 0.74855 0.81396 0.72119 0.0
O131 O 0.74856 0.88197 0.78466 0.0
O132 O 0.75712 0.85769 0.78741 0.0
C133 C 0.69497 0.82742 0.70434 0.0
C134 C 0.7545 0.86475 0.56738 0.0
O135 O 0.75296 0.84874 0.59965 0.0
O136 O 0.74637 0.87449 0.59683 0.0
C137 C 0.76758 0.81993 0.73411 0.0
O138 O 0.78105 0.83985 0.73163 0.0
C139 C 0.75935 0.87479 0.81209 0.0
Zn140 Zn 0.16667 0.87944 0.66014 0.0
Zn141 Zn 0.17968 0.91868 0.65676 0.0
O142 O 0.20587 0.91555 0.63869 0.0
O143 O 0.19506 0.88264 0.65957 0.0
O144 O 0.19142 0.94945 0.67325 0.0
O145 O 0.14936 0.87269 0.75218 0.0
O146 O 0.1585 0.9056 0.74555 0.0
C147 C 0.20959 0.90062 0.64374 0.0
C148 C 0.15193 0.89343 0.53208 0.0
O149 O 0.16283 0.91147 0.55995 0.0
O150 O 0.15173 0.87795 0.56271 0.0
C151 C 0.2052 0.95888 0.72367 0.0
O152 O 0.21177 0.94835 0.76321 0.0
C153 C 0.1474 0.88769 0.77495 0.0
Zn154 Zn 0.16479 0.3072 0.62925 0.0
Zn155 Zn 0.12419 0.29246 0.63369 0.0
O156 O 0.13671 0.32463 0.63222 0.0
O157 O 0.17031 0.33622 0.63763 0.0
O158 O 0.09317 0.28027 0.65156 0.0
O159 O 0.16581 0.2914 0.71725 0.0
O160 O 0.13199 0.27822 0.71801 0.0
C161 C 0.15534 0.33973 0.63471 0.0
C162 C 0.14264 0.28268 0.49897 0.0
O163 O 0.12661 0.28129 0.53082 0.0
O164 O 0.16037 0.29319 0.52881 0.0
C165 C 0.08229 0.26091 0.6644 0.0
O166 O 0.09136 0.24965 0.66134 0.0
C167 C 0.1482 0.27858 0.74359 0.0
Zn168 Zn 0.82134 0.60146 0.54656 0.0
Zn169 Zn 0.84035 0.58321 0.51575 0.0
O170 O 0.8625 0.61505 0.52322 0.0
O171 O 0.84526 0.62831 0.5779 0.0
O172 O 0.85767 0.56871 0.50735 0.0
O173 O 0.80142 0.58204 0.61804 0.0
O174 O 0.81977 0.56648 0.60539 0.0
C175 C 0.86207 0.63067 0.55112 0.0
C176 C 0.81261 0.58639 0.39775 0.0
O177 O 0.82399 0.57862 0.41528 0.0
O178 O 0.81014 0.598 0.4435 0.0
C179 C 0.87393 0.5748 0.54769 0.0
O180 O 0.87973 0.59097 0.59174 0.0
C181 C 0.80438 0.56726 0.63422 0.0
Zn182 Zn 0.39836 0.20652 0.51862 0.0
Zn183 Zn 0.41481 0.24525 0.4909 0.0
O184 O 0.38342 0.23442 0.51032 0.0
O185 O 0.37154 0.20321 0.55655 0.0
O186 O 0.42703 0.27636 0.48862 0.0
O187 O 0.42078 0.20886 0.58379 0.0
O188 O 0.43409 0.24242 0.56934 0.0
C189 C 0.36847 0.21783 0.53771 0.0
C190 C 0.41201 0.21686 0.36569 0.0
O191 O 0.41867 0.23549 0.38692 0.0
O192 O 0.40179 0.20189 0.41036 0.0
C193 C 0.44662 0.28816 0.48926 0.0
O194 O 0.45845 0.27976 0.48291 0.0
C195 C 0.43525 0.2271 0.59564 0.0
Zn196 Zn 0.7843 0.19532 0.42781 0.0
Zn197 Zn 0.75076 0.16173 0.47353 0.0
O198 O 0.76651 0.14648 0.45089 0.0
O199 O 0.78795 0.17223 0.37703 0.0
O200 O 0.72109 0.14058 0.50348 0.0
O201 O 0.79605 0.20494 0.52777 0.0
O202 O 0.76464 0.18169 0.56598 0.0
C203 C 0.78061 0.15369 0.40015 0.0
C204 C 0.75558 0.19103 0.34861 0.0
O205 O 0.74884 0.17234 0.36759 0.0
O206 O 0.76316 0.20408 0.401 0.0
C207 C 0.71161 0.14378 0.55729 0.0
O208 O 0.7214 0.16116 0.5955 0.0
C209 C 0.78262 0.19719 0.5796 0.0
Zn210 Zn 0.95671 0.48502 0.6157 0.0
Zn211 Zn 0.94434 0.51158 0.60865 0.0
O212 O 0.9772 0.52995 0.6046 0.0
O213 O 0.98612 0.50588 0.60357 0.0
O214 O 0.93293 0.53147 0.59374 0.0
O215 O 0.94051 0.46731 0.53167 0.0
O216 O 0.92876 0.4891 0.52536 0.0
C217 C 0.99125 0.52478 0.60192 0.0
C218 C 0.93488 0.48428 0.74785 0.0
O219 O 0.93366 0.49878 0.7142 0.0
O220 O 0.94449 0.47615 0.71744 0.0
C221 C 0.9138 0.5243 0.57785 0.0
O222 O 0.90176 0.50416 0.5722 0.0
C223 C 0.92831 0.47256 0.50295 0.0
Zn224 Zn 0.53958 0.44552 0.72423 0.0
Zn225 Zn 0.51386 0.4109 0.6714 0.0
O226 O 0.49242 0.41871 0.70793 0.0
O227 O 0.51473 0.44074 0.78995 0.0
O228 O 0.49933 0.38238 0.62418 0.0
O229 O 0.54562 0.46175 0.63075 0.0
O230 O 0.53242 0.43024 0.58507 0.0
C231 C 0.49623 0.43034 0.76573 0.0
C232 C 0.5465 0.41863 0.7858 0.0
O233 O 0.52747 0.40791 0.768 0.0
O234 O 0.55789 0.43274 0.74031 0.0
C235 C 0.48105 0.37295 0.59729 0.0
O236 O 0.46946 0.38165 0.6016 0.0
C237 C 0.54275 0.44985 0.5756 0.0
Zn238 Zn 0.54112 0.04742 0.67476 0.0
Zn239 Zn 0.58249 0.06885 0.67578 0.0
O240 O 0.5757 0.03815 0.67069 0.0
O241 O 0.54173 0.02122 0.65617 0.0
O242 O 0.61385 0.08601 0.66778 0.0
O243 O 0.53884 0.06393 0.59116 0.0
O244 O 0.57295 0.08144 0.59111 0.0
C245 C 0.55871 0.02123 0.66086 0.0
C246 C 0.55841 0.07059 0.81182 0.0
O247 O 0.57571 0.07632 0.77899 0.0
O248 O 0.54157 0.0578 0.78006 0.0
C249 C 0.62327 0.08619 0.60733 0.0
O250 O 0.61238 0.07426 0.55083 0.0
C251 C 0.55567 0.07863 0.56586 0.0
Zn252 Zn 0.55758 0.09986 0.26914 0.0
Zn253 Zn 0.51769 0.09932 0.22143 0.0
O254 O 0.50525 0.07113 0.27249 0.0
O255 O 0.53392 0.07397 0.32246 0.0
O256 O 0.49445 0.10286 0.17767 0.0
O257 O 0.56141 0.09472 0.16249 0.0
O258 O 0.53529 0.09947 0.12929 0.0
C259 C 0.51426 0.06405 0.3144 0.0
C260 C 0.54819 0.12703 0.32591 0.0
O261 O 0.52959 0.1207 0.30712 0.0
O262 O 0.55983 0.12803 0.27256 0.0
C263 C 0.49942 0.11755 0.13074 0.0
O264 O 0.51904 0.12898 0.11168 0.0
C265 C 0.5505 0.09675 0.11191 0.0
Zn266 Zn 0.90586 0.45813 0.20834 0.0
Zn267 Zn 0.90378 0.41747 0.15582 0.0
O268 O 0.93207 0.43173 0.20847 0.0
O269 O 0.93112 0.45842 0.25994 0.0
O270 O 0.89969 0.39116 0.1048 0.0
O271 O 0.91135 0.46774 0.10238 0.0
O272 O 0.90434 0.43626 0.06788 0.0
C273 C 0.94005 0.44773 0.25096 0.0
C274 C 0.87679 0.42125 0.2597 0.0
O275 O 0.88156 0.40793 0.23897 0.0
O276 O 0.87709 0.4329 0.20775 0.0
C277 C 0.89144 0.37393 0.13975 0.0
O278 O 0.8864 0.37346 0.21132 0.0
C279 C 0.90806 0.45454 0.05118 0.0
Zn280 Zn 0.53499 0.47867 0.14317 0.0
Zn281 Zn 0.57352 0.50488 0.13026 0.0
O282 O 0.55776 0.52189 0.1222 0.0
O283 O 0.52494 0.49776 0.11357 0.0
O284 O 0.60389 0.52518 0.10469 0.0
O285 O 0.53392 0.45744 0.0752 0.0
O286 O 0.56686 0.48014 0.05803 0.0
C287 C 0.53865 0.51669 0.11423 0.0
C288 C 0.55772 0.48314 0.27814 0.0
O289 O 0.5735 0.49562 0.23939 0.0
O290 O 0.53965 0.4749 0.25072 0.0
C291 C 0.61703 0.51893 0.10491 0.0
O292 O 0.6107 0.49968 0.12469 0.0
C293 C 0.55117 0.46229 0.04545 0.0
Zn294 Zn 0.4214 0.19655 0.91282 0.0
Zn295 Zn 0.43373 0.17349 0.94117 0.0
O296 O 0.40539 0.15273 0.89263 0.0
O297 O 0.40256 0.17694 0.83227 0.0
O298 O 0.44832 0.15773 0.97042 0.0
O299 O 0.41005 0.19787 0.01123 0.0
O300 O 0.43075 0.18593 0.0426 0.0
C301 C 0.39637 0.15793 0.84299 0.0
C302 C 0.45894 0.21353 0.8526 0.0
O303 O 0.45338 0.19444 0.86078 0.0
O304 O 0.44942 0.22057 0.89027 0.0
C305 C 0.44224 0.14423 0.0228 0.0
O306 O 0.42486 0.13925 0.05856 0.0
C307 C 0.41975 0.19403 0.06123 0.0
Zn308 Zn 0.83812 0.21138 -0.00189 0.0
Zn309 Zn 0.84626 0.2491 -0.00464 0.0
O310 O 0.87412 0.24942 0.97494 0.0
O311 O 0.86775 0.21785 -0.00156 0.0
O312 O 0.85493 0.27876 0.02265 0.0
O313 O 0.81957 0.20134 0.0871 0.0
O314 O 0.82495 0.2331 0.081 0.0
C315 C 0.88039 0.23633 0.97966 0.0
C316 C 0.82112 0.22315 0.86917 0.0
O317 O 0.82974 0.24126 0.89772 0.0
O318 O 0.82319 0.20892 0.89997 0.0
C319 C 0.86916 0.29526 -0.00767 0.0
O320 O 0.87933 0.29387 0.93382 0.0
C321 C 0.81533 0.21492 0.10919 0.0
Zn322 Zn 0.78356 0.59842 0.96313 0.0
Zn323 Zn 0.74683 0.57933 0.98365 0.0
O324 O 0.75183 0.60755 0.93642 0.0
O325 O 0.78331 0.61899 0.89214 0.0
O326 O 0.71582 0.56298 0.01087 0.0
O327 O 0.79396 0.60578 0.06654 0.0
O328 O 0.76196 0.58067 0.08574 0.0
C329 C 0.76716 0.62049 0.89636 0.0
C330 C 0.76817 0.5605 0.8937 0.0
O331 O 0.75143 0.56106 0.90429 0.0
O332 O 0.78475 0.57432 0.92329 0.0
C333 C 0.70395 0.57077 0.01269 0.0
O334 O 0.71175 0.59043 -0.00409 0.0
C335 C 0.78047 0.59229 0.10972 0.0
Zn336 Zn 0.48578 0.90578 0.77558 0.0
Zn337 Zn 0.51532 0.90019 0.82222 0.0
O338 O 0.53377 0.92994 0.78518 0.0
O339 O 0.5093 0.92754 0.70868 0.0
O340 O 0.53314 0.88871 0.86308 0.0
O341 O 0.4801 0.91463 0.87241 0.0
O342 O 0.49792 0.90033 0.91459 0.0
C343 C 0.52808 0.93716 0.73058 0.0
C344 C 0.48166 0.87358 0.71221 0.0
O345 O 0.501 0.88313 0.72655 0.0
O346 O 0.47016 0.87459 0.76207 0.0
C347 C 0.55203 0.89481 0.84717 0.0
O348 O 0.56187 0.9103 0.79974 0.0
C349 C 0.48593 0.90776 0.92663 0.0
Zn350 Zn 0.11432 0.56452 0.72416 0.0
Zn351 Zn 0.11285 0.6036 0.77763 0.0
O352 O 0.08486 0.58851 0.72321 0.0
O353 O 0.08766 0.5623 0.67717 0.0
O354 O 0.11596 0.62899 0.83218 0.0
O355 O 0.11023 0.55491 0.83092 0.0
O356 O 0.11268 0.58474 0.86364 0.0
C357 C 0.07769 0.57207 0.68325 0.0
C358 C 0.14049 0.60243 0.6687 0.0
O359 O 0.13573 0.61507 0.69711 0.0
O360 O 0.14224 0.59073 0.71576 0.0
C361 C 0.12113 0.64586 0.79761 0.0
O362 O 0.12294 0.6463 0.72357 0.0
C363 C 0.11108 0.56736 0.88152 0.0
Zn364 Zn 0.46507 0.51364 0.83643 0.0
Zn365 Zn 0.42529 0.49166 0.84299 0.0
O366 O 0.43622 0.47034 0.84429 0.0
O367 O 0.4701 0.49034 0.85344 0.0
O368 O 0.39402 0.47397 0.86482 0.0
O369 O 0.46918 0.53315 0.91755 0.0
O370 O 0.43515 0.51532 0.92436 0.0
C371 C 0.45432 0.47249 0.85058 0.0
C372 C 0.4451 0.51667 0.70213 0.0
O373 O 0.42837 0.50422 0.73664 0.0
O374 O 0.46253 0.52232 0.73241 0.0
C375 C 0.38018 0.47723 0.8361 0.0
O376 O 0.3859 0.49239 0.78711 0.0
C377 C 0.45249 0.53064 0.94564 0.0
Zn378 Zn 0.63434 0.80867 0.97909 0.0
Zn379 Zn 0.62291 0.83715 0.9684 0.0
O380 O 0.65538 0.85451 0.9666 0.0
O381 O 0.66409 0.83027 0.96537 0.0
O382 O 0.61236 0.85712 0.94624 0.0
O383 O 0.61684 0.79126 0.89443 0.0
O384 O 0.60675 0.81436 0.88893 0.0
C385 C 0.66932 0.84924 0.96492 0.0
C386 C 0.61206 0.81111 0.10974 0.0
O387 O 0.6117 0.8257 0.07347 0.0
O388 O 0.62115 0.80207 0.08204 0.0
C389 C 0.59298 0.85004 0.95568 0.0
O390 O 0.58163 0.83102 0.98083 0.0
C391 C 0.60518 0.79734 0.86662 0.0
Zn392 Zn 0.19846 0.80583 0.02667 0.0
Zn393 Zn 0.17706 0.76818 -0.01156 0.0
O394 O 0.15567 0.77894 -0.00475 0.0
O395 O 0.17635 0.81257 0.00703 0.0
O396 O 0.16069 0.73971 0.94082 0.0
O397 O 0.22135 0.81379 0.9548 0.0
O398 O 0.20149 0.78225 0.91215 0.0
C399 C 0.15834 0.79725 -0.00107 0.0
C400 C 0.19837 0.77883 0.13939 0.0
O401 O 0.18838 0.76465 0.09085 0.0
O402 O 0.20267 0.79726 0.1273 0.0
C403 C 0.15256 0.72215 0.97327 0.0
O404 O 0.15394 0.72137 0.0472 0.0
C405 C 0.21823 0.79968 0.90834 0.0
Zn406 Zn 0.20803 0.40308 0.90947 0.0
Zn407 Zn 0.24783 0.41961 0.90492 0.0
O408 O 0.23647 0.38727 0.90814 0.0
O409 O 0.20267 0.37435 0.90194 0.0
O410 O 0.27913 0.43311 0.88473 0.0
O411 O 0.20464 0.41738 0.82207 0.0
O412 O 0.23869 0.43317 0.82023 0.0
C413 C 0.21811 0.37162 0.90555 0.0
C414 C 0.22822 0.42831 0.03941 0.0
O415 O 0.2448 0.43083 0.00799 0.0
O416 O 0.21075 0.41663 0.00947 0.0
C417 C 0.29219 0.43049 0.92279 0.0
O418 O 0.28554 0.41791 0.9812 0.0
C419 C 0.22168 0.43131 0.79548 0.0
Zn420 Zn 0.23213 0.46047 0.49465 0.0
Zn421 Zn 0.19149 0.45999 0.45057 0.0
O422 O 0.17896 0.4316 0.5019 0.0
O423 O 0.20826 0.43404 0.54381 0.0
O424 O 0.16871 0.4647 0.40685 0.0
O425 O 0.23604 0.45685 0.38611 0.0
O426 O 0.20875 0.46002 0.35743 0.0
C427 C 0.1885 0.42427 0.53963 0.0
C428 C 0.22184 0.48606 0.56089 0.0
O429 O 0.20424 0.48164 0.5352 0.0
O430 O 0.23511 0.48864 0.5114 0.0
C431 C 0.15264 0.46184 0.44298 0.0
O432 O 0.14954 0.45416 0.51178 0.0
C433 C 0.22424 0.45805 0.33721 0.0
Zn434 Zn 0.57218 0.78846 0.56396 0.0
Zn435 Zn 0.57372 0.74844 0.52243 0.0
O436 O 0.60113 0.76397 0.58071 0.0
O437 O 0.59911 0.79172 0.61267 0.0
O438 O 0.57028 0.72225 0.47314 0.0
O439 O 0.57605 0.7957 0.45401 0.0
O440 O 0.5756 0.76631 0.43116 0.0
C441 C 0.60871 0.78153 0.61375 0.0
C442 C 0.54617 0.75143 0.62853 0.0
O443 O 0.54889 0.73807 0.59431 0.0
O444 O 0.54373 0.76361 0.58585 0.0
C445 C 0.56156 0.70481 0.50674 0.0
O446 O 0.55681 0.70414 0.57868 0.0
C447 C 0.57684 0.78311 0.4078 0.0
Zn448 Zn 0.24101 0.83413 0.5113 0.0
Zn449 Zn 0.2755 0.84435 0.48934 0.0
O450 O 0.27169 0.87003 0.51574 0.0
O451 O 0.24098 0.85887 0.46721 0.0
O452 O 0.30563 0.85532 0.45801 0.0
O453 O 0.22728 0.80741 0.4592 0.0
O454 O 0.2577 0.82306 0.40397 0.0
C455 C 0.25701 0.8734 0.49734 0.0
C456 C 0.25917 0.82791 0.63801 0.0
O457 O 0.27192 0.82863 0.58841 0.0
O458 O 0.24585 0.83304 0.62117 0.0
C459 C 0.3193 0.87431 0.45017 0.0
O460 O 0.31407 0.88849 0.46272 0.0
C461 C 0.23895 0.80803 0.40633 0.0
Zn462 Zn 0.05838 0.53643 0.31354 0.0
Zn463 Zn 0.07346 0.51174 0.32533 0.0
O464 O 0.04086 0.49215 0.32903 0.0
O465 O 0.02938 0.51426 0.33209 0.0
O466 O 0.08609 0.49343 0.34999 0.0
O467 O 0.07534 0.5561 0.39287 0.0
O468 O 0.08851 0.53559 0.40385 0.0
C469 C 0.02578 0.4958 0.33282 0.0
C470 C 0.08087 0.53637 0.18163 0.0
O471 O 0.0837 0.52329 0.21855 0.0
O472 O 0.06996 0.54344 0.20933 0.0
C473 C 0.10446 0.49868 0.3287 0.0
O474 O 0.11461 0.51534 0.28669 0.0
C475 C 0.08834 0.55208 0.42262 0.0
Zn476 Zn 0.44972 0.54651 0.24118 0.0
Zn477 Zn 0.48669 0.58674 0.29963 0.0
O478 O 0.50214 0.57405 0.24717 0.0
O479 O 0.47556 0.54764 0.19014 0.0
O480 O 0.50742 0.61243 0.35659 0.0
O481 O 0.44425 0.53546 0.34577 0.0
O482 O 0.46775 0.56688 0.38414 0.0
C483 C 0.49504 0.55874 0.20156 0.0
C484 C 0.45688 0.58335 0.19255 0.0
O485 O 0.47483 0.59652 0.21481 0.0
O486 O 0.44526 0.57125 0.24312 0.0
C487 C 0.5205 0.62946 0.32595 0.0
O488 O 0.5214 0.63078 0.25172 0.0
C489 C 0.45332 0.54837 0.39858 0.0
Zn490 Zn 0.48905 0.94732 0.36808 0.0
Zn491 Zn 0.45016 0.93137 0.36448 0.0
O492 O 0.46273 0.96349 0.37758 0.0
O493 O 0.49575 0.97545 0.40099 0.0
O494 O 0.41907 0.92027 0.37397 0.0
O495 O 0.48935 0.92673 0.43606 0.0
O496 O 0.45562 0.91364 0.44298 0.0
C497 C 0.48069 0.97865 0.39343 0.0
C498 C 0.47273 0.92954 0.22556 0.0
O499 O 0.45533 0.92396 0.25756 0.0
O500 O 0.48954 0.94102 0.25985 0.0
C501 C 0.40599 0.90099 0.37798 0.0
O502 O 0.41276 0.88777 0.37287 0.0
C503 C 0.47195 0.91303 0.46083 0.0
C504 C 0.24105 0.21245 0.14007 0.0
C505 C 0.23649 0.20562 0.21564 0.0
C506 C 0.23224 0.22321 0.10569 0.0
C507 C 0.21866 0.22786 0.14554 0.0
H508 H 0.25111 0.209 0.10621 0.0
H509 H 0.23589 0.22763 0.04683 0.0
S510 S 0.20287 0.21486 0.34686 0.0
N511 N 0.21828 0.20524 0.33068 0.0
N512 N 0.2019 0.22565 0.26652 0.0
C513 C 0.21455 0.2218 0.22214 0.0
C514 C 0.22338 0.21063 0.25697 0.0
C515 C 0.82245 0.02813 0.18925 0.0
C516 C 0.82348 0.03061 0.2685 0.0
C517 C 0.8145 0.00858 0.15573 0.0
C518 C 0.80717 0.99051 0.19975 0.0
H519 H 0.82815 0.04147 0.15228 0.0
H520 H 0.81447 0.00774 0.09452 0.0
S521 S 0.80526 0.98815 0.40996 0.0
N522 N 0.8156 0.01302 0.39034 0.0
N523 N 0.80066 0.97629 0.3274 0.0
C524 C 0.80753 0.99262 0.27916 0.0
C525 C 0.81567 0.01262 0.31343 0.0
C526 C 0.98904 0.7907 0.26369 0.0
C527 C 0.97492 0.77069 0.23732 0.0
C528 C 1.00924 0.80196 0.23426 0.0
C529 C 0.01629 0.79373 0.17714 0.0
H530 H 0.98444 0.7979 0.30702 0.0
H531 H 0.01935 0.81735 0.25634 0.0
S532 S 0.98575 0.74161 0.09028 0.0
N533 N 0.96969 0.74287 0.15182 0.0
N534 N 1.00754 0.76396 0.09674 0.0
C535 C 1.00243 0.7736 0.15095 0.0
C536 C 0.98182 0.76213 0.18091 0.0
C537 C 0.76922 0.76959 0.7448 0.0
C538 C 0.78867 0.77574 0.77802 0.0
C539 C 0.76228 0.7838 0.7324 0.0
C540 C 0.77468 0.80485 0.75135 0.0
H541 H 0.75929 0.75366 0.72756 0.0
H542 H 0.74729 0.7783 0.70605 0.0
S543 S 0.82671 0.8289 0.84159 0.0
N544 N 0.81996 0.80431 0.8317 0.0
N545 N 0.80721 0.83099 0.80713 0.0
C546 C 0.79405 0.81114 0.7856 0.0
C547 C 0.80095 0.79662 0.79933 0.0
C548 C 0.20977 0.01208 0.72407 0.0
C549 C 0.2277 0.02424 0.76749 0.0
C550 C 0.20276 0.99109 0.70986 0.0
C551 C 0.21322 0.98125 0.73907 0.0
H552 H 0.20115 0.01885 0.6998 0.0
H553 H 0.18891 0.98251 0.67594 0.0
S554 S 0.26089 1.00601 0.85708 0.0
N555 N 0.25575 0.02478 0.84002 0.0
N556 N 0.2425 0.98535 0.81392 0.0
C557 C 0.2311 0.99316 0.78314 0.0
C558 C 0.23835 0.01462 0.79713 0.0
C559 C 0.04898 0.26184 0.67026 0.0
C560 C 0.05983 0.25116 0.68354 0.0
C561 C 0.02771 0.2528 0.68661 0.0
C562 C 0.0164 0.23276 0.71782 0.0
H563 H 0.05689 0.27725 0.64606 0.0
H564 H 0.02009 0.26164 0.67444 0.0
S565 S 0.03767 0.19846 0.76633 0.0
N566 N 0.05767 0.21952 0.73158 0.0
N567 N 0.01791 0.20269 0.76293 0.0
C568 C 0.02715 0.22204 0.73266 0.0
C569 C 0.04876 0.23117 0.71532 0.0
C570 C 0.87542 0.54219 0.52551 0.0
C571 C 0.88517 0.56285 0.55058 0.0
C572 C 0.88494 0.53006 0.53377 0.0
C573 C 0.90477 0.53809 0.56665 0.0
H574 H 0.86003 0.53508 0.50109 0.0
H575 H 0.87654 0.51414 0.51459 0.0
S576 S 0.93763 0.59178 0.63698 0.0
N577 N 0.91631 0.59113 0.60671 0.0
N578 N 0.93419 0.56843 0.62141 0.0
C579 C 0.915 0.55894 0.58972 0.0
C580 C 0.90521 0.57126 0.58198 0.0
C581 C 0.4429 0.3185 0.52934 0.0
C582 C 0.45583 0.31049 0.50849 0.0
C583 C 0.45117 0.33885 0.55613 0.0
C584 C 0.47272 0.35201 0.56362 0.0
H585 H 0.42618 0.30882 0.52706 0.0
H586 H 0.44053 0.34406 0.57319 0.0
S587 S 0.51349 0.33954 0.50846 0.0
N588 N 0.49145 0.3181 0.49113 0.0
N589 N 0.50691 0.35617 0.54175 0.0
C590 C 0.48587 0.34452 0.53997 0.0
C591 C 0.47746 0.32385 0.5123 0.0
C592 C 0.67759 0.11272 0.52194 0.0
C593 C 0.68942 0.12865 0.5738 0.0
C594 C 0.65638 0.09897 0.53391 0.0
C595 C 0.64604 0.10039 0.5986 0.0
H596 H 0.68465 0.11106 0.4707 0.0
H597 H 0.64799 0.08722 0.4915 0.0
S598 S 0.67012 0.13864 0.75418 0.0
N599 N 0.6893 0.14453 0.6941 0.0
N600 N 0.64956 0.11868 0.71671 0.0
C601 C 0.65779 0.11592 0.65196 0.0
C602 C 0.67939 0.13003 0.63952 0.0
C603 C 0.48993 0.13846 0.04614 0.0
C604 C 0.48383 0.12272 0.10082 0.0
C605 C 0.47621 0.14481 0.01997 0.0
C606 C 0.45574 0.13583 0.04753 0.0
H607 H 0.50559 0.14624 0.02385 0.0
H608 H 0.48194 0.15727 0.97894 0.0
S609 S 0.43143 0.09298 0.18739 0.0
N610 N 0.45545 0.09749 0.17886 0.0
N611 N 0.42968 0.10951 0.12994 0.0
C612 C 0.44919 0.11964 0.10065 0.0
C613 C 0.46319 0.11307 0.12713 0.0
C614 C 0.86796 0.31639 0.10036 0.0
C615 C 0.87504 0.31568 0.02705 0.0
C616 C 0.87357 0.33524 0.1361 0.0
C617 C 0.88635 0.35432 0.10001 0.0
H618 H 0.85812 0.30223 0.13114 0.0
H619 H 0.86763 0.33477 0.19253 0.0
S620 S 0.9089 0.36118 0.90721 0.0
N621 N 0.89553 0.33584 0.91919 0.0
N622 N 0.9059 0.37131 -0.01392 0.0
C623 C 0.89349 0.3539 0.02643 0.0
C624 C 0.8879 0.33462 -0.00988 0.0
C625 C 0.65349 0.52572 0.08847 0.0
C626 C 0.63908 0.53271 0.08151 0.0
C627 C 0.67427 0.53803 0.06583 0.0
C628 C 0.68167 0.55794 0.03522 0.0
H629 H 0.64873 0.51056 0.11175 0.0
H630 H 0.68463 0.53186 0.0729 0.0
S631 S 0.65024 0.58341 0.00229 0.0
N632 N 0.63373 0.56081 0.04002 0.0
N633 N 0.67265 0.5839 -0.00244 0.0
C634 C 0.66743 0.56512 0.02753 0.0
C635 C 0.64622 0.55255 0.0506 0.0
C636 C 0.58307 0.88985 0.85744 0.0
C637 C 0.56261 0.88398 0.87943 0.0
C638 C 0.59302 0.87925 0.88401 0.0
C639 C 0.58292 0.86224 0.93341 0.0
H640 H 0.59141 0.90256 0.81831 0.0
H641 H 0.60857 0.8841 0.86401 0.0
S642 S 0.53 0.84162 0.01365 0.0
N643 N 0.53313 0.8607 0.95776 0.0
N644 N 0.55175 0.84085 0.00717 0.0
C645 C 0.56272 0.85659 0.95771 0.0
C646 C 0.55261 0.86741 0.93092 0.0
C647 C 0.12833 0.66514 0.92075 0.0
C648 C 0.12732 0.66524 0.84111 0.0
C649 C 0.13599 0.68348 0.96292 0.0
C650 C 0.14297 0.70276 0.92742 0.0
H651 H 0.12366 0.65084 0.95102 0.0
H652 H 0.13684 0.68252 0.02386 0.0
S653 S 0.14207 0.71141 0.72051 0.0
N654 N 0.13283 0.68625 0.72867 0.0
N655 N 0.14717 0.7206 0.80759 0.0
C656 C 0.14135 0.70301 0.84793 0.0
C657 C 0.13354 0.68431 0.80496 0.0
C658 C 0.32155 0.45544 0.83923 0.0
C659 C 0.3147 0.4418 0.90153 0.0
C660 C 0.34259 0.46658 0.81847 0.0
C661 C 0.35786 0.46459 0.85871 0.0
H662 H 0.31058 0.45768 0.80611 0.0
H663 H 0.34688 0.47689 0.77025 0.0
S664 S 0.34837 0.43096 0.02655 0.0
N665 N 0.32515 0.42697 0.00346 0.0
N666 N 0.36455 0.4478 0.96429 0.0
C667 C 0.35127 0.45089 0.92084 0.0
C668 C 0.32979 0.43957 0.94224 0.0
C669 C 0.13399 0.49148 0.32065 0.0
C670 C 0.11517 0.48734 0.35489 0.0
C671 C 0.14552 0.48257 0.34773 0.0
C672 C 0.13891 0.46928 0.41094 0.0
H673 H 0.14012 0.50199 0.27301 0.0
H674 H 0.16009 0.4867 0.32003 0.0
S675 S 0.09002 0.45226 0.51846 0.0
N676 N 0.08989 0.46806 0.45326 0.0
N677 N 0.11159 0.4515 0.50454 0.0
C678 C 0.11977 0.46446 0.44435 0.0
C679 C 0.10791 0.47341 0.41626 0.0
C680 C 0.54394 0.66785 0.33904 0.0
C681 C 0.53304 0.6482 0.37329 0.0
C682 C 0.55399 0.686 0.38254 0.0
C683 C 0.5536 0.68531 0.46227 0.0
H684 H 0.54414 0.66937 0.27803 0.0
H685 H 0.56144 0.70072 0.35316 0.0
S686 S 0.52967 0.6376 0.57989 0.0
N687 N 0.52426 0.62907 0.49199 0.0
N688 N 0.54312 0.66308 0.57352 0.0
C689 C 0.54378 0.66569 0.49721 0.0
C690 C 0.53352 0.6472 0.45288 0.0
C691 C 0.37712 0.90808 0.40927 0.0
C692 C 0.38362 0.89368 0.39286 0.0
C693 C 0.35636 0.90166 0.42692 0.0
C694 C 0.34109 0.88055 0.42895 0.0
H695 H 0.38821 0.92452 0.40955 0.0
H696 H 0.35235 0.91345 0.43987 0.0
S697 S 0.34965 0.83651 0.38649 0.0
N698 N 0.3728 0.85723 0.3771 0.0
N699 N 0.33389 0.84521 0.41011 0.0
C700 C 0.34727 0.86596 0.41128 0.0
C701 C 0.36846 0.8725 0.39331 0.0
C702 C 0.16428 0.26139 0.81552 0.0
C703 C 0.1466 0.26302 0.79939 0.0
C704 C 0.16372 0.24747 0.86969 0.0
C705 C 0.1455 0.2348 0.91098 0.0
H706 H 0.17893 0.27132 0.78754 0.0
H707 H 0.17807 0.24767 0.88237 0.0
S708 S 0.09398 0.23031 0.88056 0.0
N709 N 0.10964 0.24878 0.8219 0.0
N710 N 0.10854 0.22248 0.92368 0.0
C711 C 0.12725 0.23495 0.89063 0.0
C712 C 0.12783 0.24919 0.83539 0.0
C713 C 0.79398 0.91938 0.94128 0.0
C714 C 0.80547 0.91195 0.98015 0.0
C715 C 0.77926 0.90724 0.88699 0.0
C716 C 0.77557 0.88729 0.86839 0.0
H717 H 0.79545 0.93418 0.95571 0.0
H718 H 0.77034 0.91344 0.86086 0.0
S719 S 0.80446 0.86239 0.94304 0.0
N720 N 0.81449 0.88475 -0.01218 0.0
N721 N 0.78651 0.86177 0.88649 0.0
C722 C 0.78813 0.88037 0.90226 0.0
C723 C 0.80326 0.89282 0.95735 0.0
C724 C 0.11485 0.89689 0.91893 0.0
C725 C 0.09851 0.87672 0.93502 0.0
C726 C 0.13051 0.90035 0.86691 0.0
C727 C 0.1305 0.88381 0.82873 0.0
H728 H 0.11626 0.91005 0.95008 0.0
H729 H 0.14308 0.91605 0.85852 0.0
S730 S 0.08904 0.82854 0.83776 0.0
N731 N 0.08162 0.84036 0.89864 0.0
N732 N 0.11113 0.84682 0.80193 0.0
C733 C 0.11338 0.86377 0.83938 0.0
C734 C 0.09729 0.86027 0.89166 0.0
C735 C 0.22966 0.12854 0.64437 0.0
C736 C 0.23179 0.11089 0.6529 0.0
C737 C 0.22114 0.13161 0.57852 0.0
C738 C 0.21521 0.11741 0.5184 0.0
H739 H 0.23651 0.14105 0.68513 0.0
H740 H 0.22242 0.14662 0.57036 0.0
S741 S 0.20868 0.06478 0.52821 0.0
N742 N 0.22061 0.07602 0.60781 0.0
N743 N 0.20464 0.08192 0.48351 0.0
C744 C 0.21274 0.09776 0.53411 0.0
C745 C 0.22142 0.09458 0.60124 0.0
C746 C 0.89177 0.11373 0.53865 0.0
C747 C 0.90266 0.11906 0.47005 0.0
C748 C 0.90011 0.12667 0.60152 0.0
C749 C 0.9197 0.14476 0.59752 0.0
H750 H 0.87554 0.10185 0.54017 0.0
H751 H 0.89025 0.12377 0.65057 0.0
S752 S 0.95711 0.16033 0.43958 0.0
N753 N 0.93604 0.13966 0.40819 0.0
N754 N 0.95186 0.16393 0.52737 0.0
C755 C 0.93231 0.14764 0.53476 0.0
C756 C 0.92377 0.13447 0.4707 0.0
C757 C 0.89821 0.78041 0.65045 0.0
C758 C 0.87802 0.77761 0.65356 0.0
C759 C 0.90903 0.78492 0.58186 0.0
C760 C 0.89949 0.78607 0.51504 0.0
H761 H 0.90444 0.77629 0.69859 0.0
H762 H 0.92285 0.78354 0.57942 0.0
S763 S 0.85176 0.78983 0.50143 0.0
N764 N 0.85253 0.78371 0.5908 0.0
N765 N 0.87303 0.79238 0.46148 0.0
C766 C 0.88206 0.78872 0.52185 0.0
C767 C 0.87096 0.78403 0.59157 0.0
C768 C 0.87966 0.74589 0.02818 0.0
C769 C 0.86029 0.74481 0.02003 0.0
C770 C 0.88719 0.74488 0.09957 0.0
C771 C 0.87528 0.74215 0.16456 0.0
H772 H 0.8888 0.74699 0.97873 0.0
H773 H 0.90196 0.74534 0.1036 0.0
S774 S 0.82444 0.74021 0.17395 0.0
N775 N 0.83014 0.74247 0.08279 0.0
N776 N 0.84401 0.74006 0.21749 0.0
C777 C 0.85628 0.7419 0.15747 0.0
C778 C 0.84886 0.7434 0.08492 0.0
C779 C 0.24959 0.1167 0.04295 0.0
C780 C 0.26909 0.1206 0.01717 0.0
C781 C 0.24753 0.124 0.11378 0.0
C782 C 0.26486 0.13499 0.16096 0.0
H783 H 0.23606 0.10871 0.00701 0.0
H784 H 0.23232 0.12089 0.13198 0.0
S785 S 0.31913 0.14869 0.11899 0.0
N786 N 0.30589 0.13599 0.0433 0.0
N787 N 0.30199 0.14911 0.17747 0.0
C788 C 0.28432 0.13852 0.13619 0.0
C789 C 0.28645 0.13147 0.06387 0.0
C790 C 0.91902 0.14763 0.08824 0.0
C791 C 0.89813 0.13181 0.09159 0.0
C792 C 0.92854 0.15607 0.01898 0.0
C793 C 0.91721 0.14912 0.95165 0.0
H794 H 0.92756 0.15457 0.13982 0.0
H795 H 0.94405 0.16939 0.01893 0.0
S796 S 0.86353 0.10528 0.92963 0.0
N797 N 0.86756 0.10726 0.02197 0.0
N798 N 0.88533 0.12336 0.89088 0.0
C799 C 0.89709 0.13178 0.95375 0.0
C800 C 0.88753 0.123 0.02428 0.0
C801 C 0.77356 0.86502 0.36889 0.0
C802 C 0.78174 0.88587 0.34693 0.0
C803 C 0.76568 0.85836 0.44187 0.0
C804 C 0.76563 0.8723 0.49507 0.0
H805 H 0.77226 0.8535 0.3285 0.0
H806 H 0.75863 0.84204 0.4553 0.0
S807 S 0.7889 0.92912 0.47135 0.0
N808 N 0.79201 0.92087 0.38832 0.0
N809 N 0.77708 0.90829 0.52518 0.0
C810 C 0.77521 0.89342 0.47594 0.0
C811 C 0.78333 0.90023 0.40194 0.0
C812 C 0.1375 0.90142 0.33549 0.0
C813 C 0.11992 0.88211 0.31947 0.0
C814 C 0.14716 0.90549 0.40626 0.0
C815 C 0.13974 0.89025 0.46282 0.0
H816 H 0.14442 0.91317 0.29192 0.0
H817 H 0.16119 0.92019 0.41511 0.0
S818 S 0.09249 0.83836 0.45349 0.0
N819 N 0.0941 0.84853 0.36901 0.0
N820 N 0.11241 0.8561 0.50196 0.0
C821 C 0.12134 0.87144 0.44949 0.0
C822 C 0.11134 0.8674 0.3778 0.0
C823 C 0.12657 0.27059 0.37202 0.0
C824 C 0.14101 0.27227 0.42653 0.0
C825 C 0.12698 0.26354 0.29896 0.0
C826 C 0.14174 0.25778 0.27828 0.0
H827 H 0.11562 0.27579 0.38455 0.0
H828 H 0.11623 0.26352 0.25763 0.0
S829 S 0.18012 0.25547 0.40636 0.0
N830 N 0.16846 0.26493 0.45919 0.0
N831 N 0.16914 0.25144 0.32226 0.0
C832 C 0.15508 0.25773 0.3346 0.0
C833 C 0.15476 0.26509 0.40864 0.0
C834 C 0.81535 0.58911 0.25815 0.0
C835 C 0.80294 0.58337 0.32317 0.0
C836 C 0.80771 0.59171 0.18917 0.0
C837 C 0.78733 0.58834 0.18285 0.0
H838 H 0.83141 0.59288 0.2616 0.0
H839 H 0.81801 0.59677 0.14063 0.0
S840 S 0.74812 0.57101 0.33586 0.0
N841 N 0.76902 0.57307 0.37693 0.0
N842 N 0.75444 0.57731 0.24617 0.0
C843 C 0.77438 0.58131 0.24651 0.0
C844 C 0.78227 0.57903 0.31707 0.0
C845 C 0.41582 0.21699 0.15336 0.0
C846 C 0.41917 0.20025 0.13959 0.0
C847 C 0.41447 0.223 0.2271 0.0
C848 C 0.41601 0.21216 0.28914 0.0
H849 H 0.41413 0.22549 0.10677 0.0
H850 H 0.41145 0.23566 0.23549 0.0
S851 S 0.42603 0.1681 0.28378 0.0
N852 N 0.42512 0.17371 0.19396 0.0
N853 N 0.42215 0.1847 0.33309 0.0
C854 C 0.4199 0.19576 0.27635 0.0
C855 C 0.42162 0.18988 0.20132 0.0
C856 C 0.79767 0.22407 0.20988 0.0
C857 C 0.79792 0.20913 0.16229 0.0
C858 C 0.78213 0.21845 0.26464 0.0
C859 C 0.76637 0.19762 0.27431 0.0
H860 H 0.81009 0.24002 0.20738 0.0
H861 H 0.78348 0.23033 0.30338 0.0
S862 S 0.75678 0.15394 0.14794 0.0
N863 N 0.77862 0.17365 0.11635 0.0
N864 N 0.7496 0.16299 0.22018 0.0
C865 C 0.76511 0.18306 0.22076 0.0
C866 C 0.78094 0.1888 0.16496 0.0
C867 C 0.92075 0.45638 0.84398 0.0
C868 C 0.92512 0.47632 0.82212 0.0
C869 C 0.91394 0.44897 0.9169 0.0
C870 C 0.91138 0.46127 0.97125 0.0
H871 H 0.92317 0.44653 0.80503 0.0
H872 H 0.91165 0.43385 0.93151 0.0
S873 S 0.91792 0.51352 0.93925 0.0
N874 N 0.92432 0.50742 0.85762 0.0
N875 N 0.91148 0.49355 -0.00429 0.0
C876 C 0.91433 0.48073 0.94868 0.0
C877 C 0.92119 0.48824 0.87382 0.0
C878 C 0.57021 0.45393 0.94768 0.0
C879 C 0.55261 0.44747 -0.00638 0.0
C880 C 0.56975 0.44191 0.88608 0.0
C881 C 0.5514 0.42346 0.86714 0.0
H882 H 0.58377 0.46907 0.95526 0.0
H883 H 0.58285 0.44856 0.84755 0.0
S884 S 0.50466 0.39596 -0.01161 0.0
N885 N 0.51903 0.41844 0.03066 0.0
N886 N 0.51809 0.39616 0.91359 0.0
C887 C 0.53541 0.41504 0.92124 0.0
C888 C 0.53589 0.42716 0.9843 0.0
C889 C 0.53879 0.07758 0.9107 0.0
C890 C 0.55758 0.07917 0.88626 0.0
C891 C 0.537 0.08453 0.98225 0.0
C892 C 0.55385 0.0931 0.03245 0.0
H893 H 0.52519 0.07061 0.87476 0.0
H894 H 0.52201 0.08228 -0.00052 0.0
S895 S 0.60701 0.10267 -0.00655 0.0
N896 N 0.59384 0.09147 0.91581 0.0
N897 N 0.59041 0.10439 0.05096 0.0
C898 C 0.573 0.09567 0.00762 0.0
C899 C 0.57488 0.08875 0.93435 0.0
C900 C 0.534 0.1048 0.44164 0.0
C901 C 0.55126 0.1187 0.39816 0.0
C902 C 0.53575 0.09216 0.49614 0.0
C903 C 0.55486 0.09317 0.51065 0.0
H904 H 0.5187 0.10253 0.43012 0.0
H905 H 0.52179 0.0811 0.52558 0.0
S906 S 0.60554 0.13012 0.42388 0.0
N907 N 0.58867 0.13505 0.38169 0.0
N908 N 0.59195 0.11132 0.48471 0.0
C909 C 0.57259 0.10835 0.47282 0.0
C910 C 0.57081 0.12121 0.41697 0.0
C911 C 0.89822 0.42623 0.37527 0.0
C912 C 0.88571 0.43173 0.33279 0.0
C913 C 0.91163 0.43946 0.4307 0.0
C914 C 0.9129 0.45859 0.44693 0.0
H915 H 0.89881 0.41232 0.36231 0.0
H916 H 0.92158 0.43485 0.45923 0.0
S917 S 0.87999 0.47795 0.36369 0.0
N918 N 0.87282 0.45587 0.31955 0.0
N919 N 0.89821 0.48085 0.42386 0.0
C920 C 0.89906 0.46334 0.41011 0.0
C921 C 0.88531 0.4498 0.35358 0.0
C922 C 0.55865 0.48028 0.48858 0.0
C923 C 0.55048 0.45884 0.50002 0.0
C924 C 0.56316 0.48881 0.4158 0.0
C925 C 0.55981 0.47617 0.3528 0.0
H926 H 0.56047 0.4904 0.53555 0.0
H927 H 0.56781 0.505 0.40843 0.0
S928 S 0.54212 0.42011 0.35188 0.0
N929 N 0.54187 0.42583 0.44205 0.0
N930 N 0.55025 0.44203 0.30527 0.0
C931 C 0.55334 0.45519 0.36353 0.0
C932 C 0.54871 0.44645 0.43732 0.0
C933 C 0.45997 0.24561 0.70044 0.0
C934 C 0.45238 0.23006 0.64513 0.0
C935 C 0.46868 0.24305 0.76703 0.0
C936 C 0.46848 0.22426 0.78063 0.0
H937 H 0.45673 0.25824 0.6971 0.0
H938 H 0.47143 0.25369 0.81323 0.0
S939 S 0.46143 0.18551 0.63539 0.0
N940 N 0.45371 0.20041 0.59413 0.0
N941 N 0.46949 0.1954 0.72058 0.0
C942 C 0.46652 0.21197 0.71757 0.0
C943 C 0.45791 0.2146 0.64962 0.0
C944 C 0.78274 0.19128 0.71773 0.0
C945 C 0.78895 0.20515 0.65681 0.0
C946 C 0.79262 0.19764 0.78786 0.0
C947 C 0.80873 0.21813 0.79952 0.0
H948 H 0.77128 0.17511 0.7098 0.0
H949 H 0.78817 0.18619 0.83239 0.0
S950 S 0.82814 0.26112 0.66109 0.0
N951 N 0.81033 0.24078 0.61454 0.0
N952 N 0.82868 0.25279 0.74721 0.0
C953 C 0.81376 0.23257 0.74105 0.0
C954 C 0.80391 0.22603 0.66931 0.0
C955 C 0.78938 0.54813 0.82852 0.0
C956 C 0.77053 0.54845 0.83185 0.0
C957 C 0.7996 0.5506 0.75927 0.0
C958 C 0.79075 0.55268 0.69234 0.0
H959 H 0.79794 0.54964 0.87998 0.0
H960 H 0.81559 0.55407 0.75985 0.0
S961 S 0.7375 0.54401 0.6685 0.0
N962 N 0.74039 0.54345 0.761 0.0
N963 N 0.75927 0.54732 0.63055 0.0
C964 C 0.76982 0.54767 0.69382 0.0
C965 C 0.7596 0.54553 0.76421 0.0
C966 C 0.48945 0.89547 0.51954 0.0
C967 C 0.47137 0.89695 0.51147 0.0
C968 C 0.49146 0.88414 0.57849 0.0
C969 C 0.47563 0.87431 0.63268 0.0
H970 H 0.50282 0.90436 0.4835 0.0
H971 H 0.50646 0.88533 0.58672 0.0
S972 S 0.42242 0.86678 0.61893 0.0
N973 N 0.43531 0.88276 0.54888 0.0
N974 N 0.43903 0.86132 0.6603 0.0
C975 C 0.45615 0.87244 0.61661 0.0
C976 C 0.4541 0.88404 0.55633 0.0
C977 C 0.13049 0.5746 0.57191 0.0
C978 C 0.13005 0.59239 0.5965 0.0
C979 C 0.11728 0.5619 0.51476 0.0
C980 C 0.10326 0.56658 0.47902 0.0
H981 H 0.14039 0.56982 0.5998 0.0
H982 H 0.11768 0.54797 0.50021 0.0
S983 S 0.09855 0.61337 0.5123 0.0
N984 N 0.11638 0.61555 0.57287 0.0
N985 N 0.0915 0.59168 0.46575 0.0
C986 C 0.10381 0.58521 0.49864 0.0
C987 C 0.11732 0.59819 0.55682 0.0
C988 C 0.46192 0.54456 0.60669 0.0
C989 C 0.44492 0.5253 0.62732 0.0
C990 C 0.46385 0.55242 0.53368 0.0
C991 C 0.44897 0.54122 0.47797 0.0
H992 H 0.47419 0.55348 0.64685 0.0
H993 H 0.47764 0.56696 0.52014 0.0
S994 S 0.40024 0.49114 0.50574 0.0
N995 N 0.41193 0.49608 0.58876 0.0
N996 N 0.41556 0.51075 0.45034 0.0
C997 C 0.43124 0.52246 0.49894 0.0
C998 C 0.4292 0.51454 0.57398 0.0
C999 C 0.59768 0.78474 0.21184 0.0
C1000 C 0.60126 0.80385 0.18311 0.0
C1001 C 0.58853 0.77761 0.28252 0.0
C1002 C 0.58273 0.78937 0.32805 0.0
H1003 H 0.60227 0.77523 0.1801 0.0
H1004 H 0.58681 0.76309 0.30261 0.0
S1005 S 0.58655 0.83944 0.27533 0.0
N1006 N 0.59663 0.83363 0.20248 0.0
N1007 N 0.57949 0.8203 0.33639 0.0
C1008 C 0.58519 0.80804 0.29845 0.0
C1009 C 0.59445 0.81526 0.22579 0.0
C1010 C 0.20764 0.78013 0.34215 0.0
C1011 C 0.22939 0.79341 0.34253 0.0
C1012 C 0.19698 0.77152 0.27469 0.0
C1013 C 0.20782 0.77555 0.20632 0.0
H1014 H 0.19847 0.77816 0.39244 0.0
H1015 H 0.18019 0.764 0.27473 0.0
S1016 S 0.26483 0.80337 0.18045 0.0
N1017 N 0.2615 0.80588 0.27151 0.0
N1018 N 0.24132 0.78925 0.14482 0.0
C1019 C 0.22958 0.78561 0.20816 0.0
C1020 C 0.24048 0.79474 0.27645 0.0
C1021 C 0.24433 0.44324 0.16458 0.0
C1022 C 0.22885 0.43889 0.11076 0.0
C1023 C 0.24338 0.45067 0.23645 0.0
C1024 C 0.22698 0.45414 0.25684 0.0
H1025 H 0.25668 0.43994 0.15252 0.0
H1026 H 0.25515 0.45285 0.27726 0.0
S1027 S 0.18477 0.44876 0.13016 0.0
N1028 N 0.19825 0.44118 0.07832 0.0
N1029 N 0.19647 0.45519 0.21313 0.0
C1030 C 0.21234 0.45139 0.20113 0.0
C1031 C 0.21325 0.44371 0.12821 0.0
C1032 C 0.24009 0.46047 0.70317 0.0
C1033 C 0.22168 0.44634 0.74025 0.0
C1034 C 0.24025 0.47437 0.64944 0.0
C1035 C 0.22197 0.47461 0.62988 0.0
H1036 H 0.25442 0.46049 0.71423 0.0
H1037 H 0.2547 0.48436 0.62036 0.0
S1038 S 0.17028 0.443 0.71991 0.0
N1039 N 0.1851 0.43511 0.76034 0.0
N1040 N 0.18549 0.46127 0.65989 0.0
C1041 C 0.20378 0.46166 0.67099 0.0
C1042 C 0.20358 0.44742 0.72545 0.0
C1043 C 0.57638 0.79141 0.77922 0.0
C1044 C 0.58917 0.7844 0.81032 0.0
C1045 C 0.56163 0.77995 0.72399 0.0
C1046 C 0.55923 0.76111 0.69655 0.0
H1047 H 0.57801 0.8061 0.79637 0.0
H1048 H 0.55264 0.7864 0.70037 0.0
S1049 S 0.58665 0.73432 0.7682 0.0
N1050 N 0.59687 0.75624 0.81594 0.0
N1051 N 0.569 0.73461 0.71256 0.0
C1052 C 0.57082 0.75313 0.73139 0.0
C1053 C 0.58593 0.76487 0.78761 0.0
C1054 C 0.25071 0.82452 0.84148 0.0
C1055 C 0.23336 0.80442 0.84655 0.0
C1056 C 0.26224 0.83145 0.77475 0.0
C1057 C 0.25696 0.81841 0.71177 0.0
H1058 H 0.25432 0.83566 0.88657 0.0
H1059 H 0.27365 0.84774 0.7695 0.0
S1060 S 0.21677 0.76305 0.70199 0.0
N1061 N 0.2143 0.77038 0.7878 0.0
N1062 N 0.23622 0.78365 0.66211 0.0
C1063 C 0.2418 0.79752 0.7197 0.0
C1064 C 0.22984 0.79043 0.78734 0.0
C1065 C 0.10204 0.57178 0.01287 0.0
C1066 C 0.10679 0.56039 0.9612 0.0
C1067 C 0.09421 0.56396 0.08448 0.0
C1068 C 0.09098 0.54454 0.10797 0.0
H1069 H 0.10346 0.58647 -0.00298 0.0
H1070 H 0.09024 0.57314 0.1212 0.0
S1071 S 0.10367 0.50983 -0.0013 0.0
N1072 N 0.1097 0.52954 0.94136 0.0
N1073 N 0.09505 0.51497 0.07732 0.0
C1074 C 0.09698 0.53357 0.05926 0.0
C1075 C 0.10485 0.54147 -0.01446 0.0
C1076 C 0.43548 0.5422 0.04118 0.0
C1077 C 0.45335 0.54599 0.00108 0.0
C1078 C 0.43643 0.55571 0.09816 0.0
C1079 C 0.45533 0.57343 0.11793 0.0
H1080 H 0.42079 0.52829 0.03073 0.0
H1081 H 0.42246 0.55147 0.13041 0.0
S1082 S 0.50576 0.5926 0.01896 0.0
N1083 N 0.48991 0.5705 0.97687 0.0
N1084 N 0.49162 0.59579 0.08385 0.0
C1085 C 0.47288 0.57849 0.07302 0.0
C1086 C 0.47194 0.5647 0.01512 0.0
C1087 C 0.49395 0.91288 0.06361 0.0
C1088 C 0.48038 0.91027 0.00423 0.0
C1089 C 0.49089 0.91863 0.13549 0.0
C1090 C 0.474 0.92164 0.15084 0.0
H1091 H 0.50758 0.91147 0.0538 0.0
H1092 H 0.50213 0.9211 0.17913 0.0
S1093 S 0.43259 0.91422 0.01705 0.0
N1094 N 0.4484 0.90936 0.96658 0.0
N1095 N 0.44256 0.9199 0.10306 0.0
C1096 C 0.45957 0.91782 0.09341 0.0
C1097 C 0.46282 0.91223 0.01962 0.0
C1098 C 0.19566 0.3341 0.88114 0.0
C1099 C 0.21373 0.35001 0.9147 0.0
C1100 C 0.18696 0.31358 0.90534 0.0
C1101 C 0.19596 0.30795 0.96403 0.0
H1102 H 0.18731 0.33774 0.83925 0.0
H1103 H 0.17231 0.30228 0.88086 0.0
S1104 S 0.24516 0.3433 0.06283 0.0
N1105 N 0.24174 0.35851 0.00363 0.0
N1106 N 0.22546 0.31969 0.04892 0.0
C1107 C 0.21515 0.32336 -0.00684 0.0
C1108 C 0.22404 0.34445 0.96845 0.0
C1109 C 0.7269 0.86976 0.97514 0.0
C1110 C 0.73397 0.88707 0.02313 0.0
C1111 C 0.70632 0.85884 0.95046 0.0
C1112 C 0.69174 0.86459 0.97303 0.0
H1113 H 0.73703 0.8638 0.95954 0.0
H1114 H 0.70149 0.84497 0.91707 0.0
S1115 S 0.70282 0.91054 0.08869 0.0
N1116 N 0.72524 0.911 0.08454 0.0
N1117 N 0.68633 0.89019 0.03879 0.0
C1118 C 0.69892 0.88291 0.01536 0.0
C1119 C 0.72006 0.89418 0.0404 0.0
C1120 C 0.14309 0.81836 0.95691 0.0
C1121 C 0.14092 0.80142 -0.00094 0.0
C1122 C 0.13091 0.82738 0.97242 0.0
C1123 C 0.11625 0.82003 0.03167 0.0
H1124 H 0.1553 0.8256 0.91494 0.0
H1125 H 0.13403 0.84109 0.94077 0.0
S1126 S 0.10251 0.77396 0.15116 0.0
N1127 N 0.12138 0.77594 0.09594 0.0
N1128 N 0.09842 0.793 0.12611 0.0
C1129 C 0.11254 0.80183 0.06948 0.0
C1130 C 0.12493 0.79251 0.05299 0.0
C1131 C 0.3105 0.18675 0.55124 0.0
C1132 C 0.30426 0.19296 0.4857 0.0
C1133 C 0.3313 0.19666 0.57356 0.0
C1134 C 0.3467 0.21326 0.53158 0.0
H1135 H 0.29954 0.17307 0.58222 0.0
H1136 H 0.33557 0.19012 0.6203 0.0
S1137 S 0.33777 0.23869 0.36666 0.0
N1138 N 0.31455 0.21915 0.38744 0.0
N1139 N 0.35374 0.23791 0.42977 0.0
C1140 C 0.3403 0.22139 0.47214 0.0
C1141 C 0.31903 0.21118 0.44905 0.0
C1142 C 0.79182 0.12714 0.41804 0.0
C1143 C 0.79005 0.14153 0.37132 0.0
C1144 C 0.8048 0.11916 0.39754 0.0
C1145 C 0.81608 0.12515 0.32939 0.0
H1146 H 0.78443 0.12327 0.47316 0.0
H1147 H 0.80726 0.10962 0.43771 0.0
S1148 S 0.81407 0.15933 0.18178 0.0
N1149 N 0.79866 0.15914 0.24954 0.0
N1150 N 0.82276 0.14406 0.21156 0.0
C1151 C 0.81294 0.13794 0.27954 0.0
C1152 C 0.79997 0.14614 0.30031 0.0
C1153 C 0.88843 0.68836 0.55629 0.0
C1154 C 0.89671 0.69371 0.48282 0.0
C1155 C 0.8798 0.66803 0.58297 0.0
C1156 C 0.87889 0.65221 0.53678 0.0
H1157 H 0.88692 0.69954 0.59095 0.0
H1158 H 0.87188 0.66429 0.63713 0.0
S1159 S 0.90229 0.65918 0.34572 0.0
N1160 N 0.90665 0.68249 0.3691 0.0
N1161 N 0.8902 0.64407 0.41879 0.0
C1162 C 0.88954 0.65793 0.46706 0.0
C1163 C 0.89848 0.67877 0.44001 0.0
C1164 C 0.7762 0.67435 0.87141 0.0
C1165 C 0.78542 0.67922 0.79894 0.0
C1166 C 0.76741 0.6541 0.90059 0.0
C1167 C 0.7675 0.63823 0.8578 0.0
H1168 H 0.77803 0.6866 0.90917 0.0
H1169 H 0.76271 0.65145 0.95948 0.0
S1170 S 0.78475 0.64186 0.65881 0.0
N1171 N 0.79022 0.66563 0.68034 0.0
N1172 N 0.77385 0.62779 0.7352 0.0
C1173 C 0.77402 0.64235 0.78206 0.0
C1174 C 0.78288 0.66281 0.75244 0.0
C1175 C 0.36154 0.12587 0.84939 0.0
C1176 C 0.37666 0.14257 0.80694 0.0
C1177 C 0.34059 0.11558 0.82707 0.0
C1178 C 0.33421 0.12174 0.76177 0.0
H1179 H 0.36549 0.12208 0.90382 0.0
H1180 H 0.32917 0.10426 0.86535 0.0
S1181 S 0.36875 0.16058 0.62091 0.0
N1182 N 0.38452 0.16179 0.68892 0.0
N1183 N 0.34527 0.14257 0.64727 0.0
C1184 C 0.34961 0.13652 0.71407 0.0
C1185 C 0.37083 0.14693 0.73666 0.0
C1186 C 0.92436 0.22746 0.9291 0.0
C1187 C 0.92705 0.23283 0.85185 0.0
C1188 C 0.91091 0.23099 0.97452 0.0
C1189 C 0.90028 0.24061 0.94485 0.0
H1190 H 0.93041 0.21804 0.95206 0.0
H1191 H 0.90727 0.22437 0.03089 0.0
S1192 S 0.90602 0.26194 0.75108 0.0
N1193 N 0.92077 0.25115 0.75125 0.0
N1194 N 0.89634 0.25875 0.83745 0.0
C1195 C 0.90532 0.24878 0.87109 0.0
C1196 C 0.91854 0.24465 0.82429 0.0
C1197 C 0.664 0.79418 0.6601 0.0
C1198 C 0.67218 0.81339 0.69725 0.0
C1199 C 0.64307 0.78325 0.63706 0.0
C1200 C 0.62964 0.79123 0.64976 0.0
H1201 H 0.67408 0.78816 0.64453 0.0
H1202 H 0.63775 0.76904 0.60542 0.0
S1203 S 0.64288 0.83946 0.75566 0.0
N1204 N 0.66451 0.83841 0.75527 0.0
N1205 N 0.62583 0.81867 0.70938 0.0
C1206 C 0.63739 0.80972 0.69178 0.0
C1207 C 0.65846 0.82056 0.71623 0.0
C1208 C 0.23296 0.90599 0.53565 0.0
C1209 C 0.22901 0.90253 0.61374 0.0
C1210 C 0.24507 0.89915 0.49771 0.0
C1211 C 0.25411 0.88923 0.53711 0.0
H1212 H 0.22458 0.91162 0.50219 0.0
H1213 H 0.24551 0.89962 0.43641 0.0
S1214 S 0.25178 0.88041 0.74434 0.0
N1215 N 0.23727 0.89117 0.73053 0.0
N1216 N 0.261 0.87943 0.66027 0.0
C1217 C 0.25263 0.88841 0.61662 0.0
C1218 C 0.23975 0.89473 0.65477 0.0
C1219 C 0.18783 0.39778 0.62752 0.0
C1220 C 0.17716 0.40347 0.57575 0.0
C1221 C 0.17963 0.37733 0.65177 0.0
C1222 C 0.16038 0.36154 0.62524 0.0
H1223 H 0.20325 0.409 0.64655 0.0
H1224 H 0.18908 0.37368 0.68826 0.0
S1225 S 0.12464 0.36852 0.49823 0.0
N1226 N 0.14504 0.39196 0.50596 0.0
N1227 N 0.12966 0.35328 0.55127 0.0
C1228 C 0.14862 0.36719 0.57888 0.0
C1229 C 0.15702 0.3882 0.55412 0.0
C1230 C 0.04253 0.56938 0.67037 0.0
C1231 C 0.05661 0.5628 0.64857 0.0
C1232 C 0.02143 0.55816 0.64926 0.0
C1233 C 0.01379 0.5401 0.60514 0.0
H1234 H 0.04748 0.5825 0.70794 0.0
H1235 H 1.01084 0.56279 0.67221 0.0
S1236 S 0.04462 0.51814 0.52296 0.0
N1237 N 0.06147 0.53818 0.57301 0.0
N1238 N 0.02242 0.51786 0.53166 0.0
C1239 C 0.02809 0.53458 0.57711 0.0
C1240 C 0.04933 0.5457 0.59929 0.0
C1241 C 0.45368 0.44412 0.77433 0.0
C1242 C 0.45813 0.45495 0.84329 0.0
C1243 C 0.46461 0.43405 0.75218 0.0
C1244 C 0.48033 0.43463 0.79836 0.0
H1245 H 0.44337 0.44529 0.73392 0.0
H1246 H 0.46212 0.42756 0.69573 0.0
S1247 S 0.49405 0.45676 -0.00817 0.0
N1248 N 0.47653 0.46264 0.96263 0.0
N1249 N 0.49677 0.44349 0.92226 0.0
C1250 C 0.48295 0.4432 0.87129 0.0
C1251 C 0.47192 0.45345 0.89343 0.0
C1252 C 0.55566 0.97412 0.75028 0.0
C1253 C 0.54172 0.95841 0.7013 0.0
C1254 C 0.56351 0.99515 0.73252 0.0
C1255 C 0.55767 1.00098 0.66529 0.0
H1256 H 0.55893 0.97021 0.80567 0.0
H1257 H 0.57244 0.00671 0.77488 0.0
S1258 S 0.5262 0.96621 0.51024 0.0
N1259 N 0.52588 0.95041 0.57645 0.0
N1260 N 0.54042 0.98984 0.54413 0.0
C1261 C 0.54585 0.98558 0.61233 0.0
C1262 C 0.53795 0.96428 0.63003 0.0
C1263 C 0.51224 0.0368 0.40199 0.0
C1264 C 0.50243 0.043 0.34828 0.0
C1265 C 0.50389 0.016 0.42223 0.0
C1266 C 0.48533 1.00046 0.38986 0.0
H1267 H 0.52717 0.04792 0.42537 0.0
H1268 H 0.5128 0.01192 0.45985 0.0
S1269 S 0.45147 0.00885 0.25771 0.0
N1270 N 0.47151 0.03222 0.27167 0.0
N1271 N 0.45582 0.99303 0.3099 0.0
C1272 C 0.4742 0.00664 0.34241 0.0
C1273 C 0.48276 0.02793 0.32153 0.0
C1274 C 0.98859 0.4826 0.36221 0.0
C1275 C 1.00375 0.47917 0.32831 0.0
C1276 C 0.9677 0.4711 0.34118 0.0
C1277 C 0.96103 0.4557 0.28491 0.0
H1278 H 0.99311 0.49526 0.40176 0.0
H1279 H 0.95695 0.47525 0.36605 0.0
S1280 S 0.9941 0.43844 0.18751 0.0
N1281 N 1.01034 0.45756 0.24281 0.0
N1282 N 0.97098 0.43582 0.20291 0.0
C1283 C 0.97569 0.45071 0.25593 0.0
C1284 C 0.99708 0.46248 0.27775 0.0
C1285 C 0.51199 0.52669 0.08754 0.0
C1286 C 0.53136 0.53193 0.1192 0.0
C1287 C 0.50113 0.53665 0.11026 0.0
C1288 C 0.50908 0.55219 0.16616 0.0
H1289 H 0.50448 0.5138 0.04857 0.0
H1290 H 0.48579 0.5312 0.08693 0.0
S1291 S 0.56088 0.57417 0.2567 0.0
N1292 N 0.55938 0.55561 0.20133 0.0
N1293 N 0.53898 0.57441 0.24439 0.0
C1294 C 0.52938 0.55905 0.19253 0.0
C1295 C 0.54052 0.5489 0.16893 0.0
loop_
_geom_bond_atom_site_label_1
_geom_bond_atom_site_label_2
_geom_bond_distance
_geom_bond_site_symmetry_2
_ccdc_geom_bond_type
Zn0 O3 2.031 . S
Zn0 O5 2.049 . S
Zn0 O10 2.067 . S
Zn1 O2 1.962 . S
Zn1 O4 1.986 . S
Zn1 O6 1.996 . S
Zn1 O9 1.943 . S
O2 Zn1 1.962 . S
O2 C7 1.254 . S
O3 Zn0 2.031 . S
O3 C7 1.269 . S
O4 Zn1 1.986 . S
O4 C11 1.262 . S
O5 Zn0 2.049 . S
O5 C13 1.260 . S
O6 Zn1 1.996 . S
O6 C13 1.257 . S
C7 O2 1.254 . S
C7 O3 1.269 . S
C8 O9 1.249 . S
C8 O10 1.270 . S
O9 Zn1 1.943 . S
O9 C8 1.249 . S
O10 Zn0 2.067 . S
O10 C8 1.270 . S
C11 O4 1.262 . S
C11 O12 1.232 . S
O12 C11 1.232 . S
C13 O5 1.260 . S
C13 O6 1.257 . S
Zn14 O17 2.031 . S
Zn14 O19 2.049 . S
Zn14 O24 2.067 . S
Zn15 O16 1.962 . S
Zn15 O18 1.986 . S
Zn15 O20 1.996 . S
Zn15 O23 1.943 . S
O16 Zn15 1.962 . S
O16 C21 1.254 . S
O17 Zn14 2.031 . S
O17 C21 1.269 . S
O18 Zn15 1.986 . S
O18 C25 1.262 . S
O19 Zn14 2.049 . S
O19 C27 1.260 . S
O20 Zn15 1.996 . S
O20 C27 1.257 . S
C21 O16 1.254 . S
C21 O17 1.269 . S
C22 O23 1.249 . S
C22 O24 1.270 . S
O23 Zn15 1.943 . S
O23 C22 1.249 . S
O24 Zn14 2.067 . S
O24 C22 1.270 . S
C25 O18 1.262 . S
C25 O26 1.232 . S
O26 C25 1.232 . S
C27 O19 1.260 . S
C27 O20 1.257 . S
Zn28 O31 2.031 . S
Zn28 O33 2.049 . S
Zn28 O38 2.067 . S
Zn29 O30 1.962 . S
Zn29 O32 1.986 . S
Zn29 O34 1.996 . S
Zn29 O37 1.943 . S
O30 Zn29 1.962 . S
O30 C35 1.254 . S
O31 Zn28 2.031 . S
O31 C35 1.269 . S
O32 Zn29 1.986 . S
O32 C39 1.262 . S
O33 Zn28 2.049 . S
O33 C41 1.260 . S
O34 Zn29 1.996 . S
O34 C41 1.257 . S
C35 O30 1.254 . S
C35 O31 1.269 . S
C36 O37 1.249 . S
C36 O38 1.270 . S
O37 Zn29 1.943 . S
O37 C36 1.249 . S
O38 Zn28 2.067 . S
O38 C36 1.270 . S
C39 O32 1.262 . S
C39 O40 1.232 . S
O40 C39 1.232 . S
C41 O33 1.260 . S
C41 O34 1.257 . S
Zn42 O45 2.031 . S
Zn42 O47 2.049 . S
Zn42 O52 2.067 . S
Zn43 O44 1.962 . S
Zn43 O46 1.986 . S
Zn43 O48 1.996 . S
Zn43 O51 1.943 . S
O44 Zn43 1.962 . S
O44 C49 1.254 . S
O45 Zn42 2.031 . S
O45 C49 1.269 . S
O46 Zn43 1.986 . S
O46 C53 1.262 . S
O47 Zn42 2.049 . S
O47 C55 1.260 . S
O48 Zn43 1.996 . S
O48 C55 1.257 . S
C49 O44 1.254 . S
C49 O45 1.269 . S
C50 O51 1.249 . S
C50 O52 1.270 . S
O51 Zn43 1.943 . S
O51 C50 1.249 . S
O52 Zn42 2.067 . S
O52 C50 1.270 . S
C53 O46 1.262 . S
C53 O54 1.232 . S
O54 C53 1.232 . S
C55 O47 1.260 . S
C55 O48 1.257 . S
Zn56 O59 2.031 . S
Zn56 O61 2.049 . S
Zn56 O66 2.067 . S
Zn57 O58 1.962 . S
Zn57 O60 1.986 . S
Zn57 O62 1.996 . S
Zn57 O65 1.943 . S
O58 Zn57 1.962 . S
O58 C63 1.254 . S
O59 Zn56 2.031 . S
O59 C63 1.269 . S
O60 Zn57 1.986 . S
O60 C67 1.262 . S
O61 Zn56 2.049 . S
O61 C69 1.260 . S
O62 Zn57 1.996 . S
O62 C69 1.257 . S
C63 O58 1.254 . S
C63 O59 1.269 . S
C64 O65 1.249 . S
C64 O66 1.270 . S
O65 Zn57 1.943 . S
O65 C64 1.249 . S
O66 Zn56 2.067 . S
O66 C64 1.270 . S
C67 O60 1.262 . S
C67 O68 1.232 . S
O68 C67 1.232 . S
C69 O61 1.260 . S
C69 O62 1.257 . S
Zn70 O73 2.031 . S
Zn70 O75 2.049 . S
Zn70 O80 2.067 . S
Zn71 O72 1.962 . S
Zn71 O74 1.986 . S
Zn71 O76 1.996 . S
Zn71 O79 1.943 . S
O72 Zn71 1.962 . S
O72 C77 1.254 . S
O73 Zn70 2.031 . S
O73 C77 1.269 . S
O74 Zn71 1.986 . S
O74 C81 1.262 . S
O75 Zn70 2.049 . S
O75 C83 1.260 . S
O76 Zn71 1.996 . S
O76 C83 1.257 . S
C77 O72 1.254 . S
C77 O73 1.269 . S
C78 O79 1.249 . S
C78 O80 1.270 . S
O79 Zn71 1.943 . S
O79 C78 1.249 . S
O80 Zn70 2.067 . S
O80 C78 1.270 . S
C81 O74 1.262 . S
C81 O82 1.232 . S
O82 C81 1.232 . S
C83 O75 1.260 . S
C83 O76 1.257 . S
Zn84 O87 2.031 . S
Zn84 O89 2.049 . S
Zn84 O94 2.067 . S
Zn85 O86 1.962 . S
Zn85 O88 1.986 . S
Zn85 O90 1.996 . S
Zn85 O93 1.943 . S
O86 Zn85 1.962 . S
O86 C91 1.254 . S
O87 Zn84 2.031 . S
O87 C91 1.269 . S
O88 Zn85 1.986 . S
O88 C95 1.262 . S
O89 Zn84 2.049 . S
O89 C97 1.260 . S
O90 Zn85 1.996 . S
O90 C97 1.257 . S
C91 O86 1.254 . S
C91 O87 1.269 . S
C92 O93 1.249 . S
C92 O94 1.270 . S
O93 Zn85 1.943 . S
O93 C92 1.249 . S
O94 Zn84 2.067 . S
O94 C92 1.270 . S
C95 O88 1.262 . S
C95 O96 1.232 . S
O96 C95 1.232 . S
C97 O89 1.260 . S
C97 O90 1.257 . S
Zn98 O101 2.031 . S
Zn98 O103 2.049 . S
Zn98 O108 2.067 . S
Zn99 O100 1.962 . S
Zn99 O102 1.986 . S
Zn99 O104 1.996 . S
Zn99 O107 1.943 . S
O100 Zn99 1.962 . S
O100 C105 1.254 . S
O101 Zn98 2.031 . S
O101 C105 1.269 . S
O102 Zn99 1.986 . S
O102 C109 1.262 . S
O103 Zn98 2.049 . S
O103 C111 1.260 . S
O104 Zn99 1.996 . S
O104 C111 1.257 . S
C105 O100 1.254 . S
C105 O101 1.269 . S
C106 O107 1.249 . S
C106 O108 1.270 . S
O107 Zn99 1.943 . S
O107 C106 1.249 . S
O108 Zn98 2.067 . S
O108 C106 1.270 . S
C109 O102 1.262 . S
C109 O110 1.232 . S
O110 C109 1.232 . S
C111 O103 1.260 . S
C111 O104 1.257 . S
Zn112 O115 2.031 . S
Zn112 O117 2.049 . S
Zn112 O122 2.067 . S
Zn113 O114 1.962 . S
Zn113 O116 1.986 . S
Zn113 O118 1.996 . S
Zn113 O121 1.943 . S
O114 Zn113 1.962 . S
O114 C119 1.254 . S
O115 Zn112 2.031 . S
O115 C119 1.269 . S
O116 Zn113 1.986 . S
O116 C123 1.262 . S
O117 Zn112 2.049 . S
O117 C125 1.260 . S
O118 Zn113 1.996 . S
O118 C125 1.257 . S
C119 O114 1.254 . S
C119 O115 1.269 . S
C120 O121 1.249 . S
C120 O122 1.270 . S
O121 Zn113 1.943 . S
O121 C120 1.249 . S
O122 Zn112 2.067 . S
O122 C120 1.270 . S
C123 O116 1.262 . S
C123 O124 1.232 . S
O124 C123 1.232 . S
C125 O117 1.260 . S
C125 O118 1.257 . S
Zn126 O129 2.031 . S
Zn126 O131 2.049 . S
Zn126 O136 2.067 . S
Zn127 O128 1.962 . S
Zn127 O130 1.986 . S
Zn127 O132 1.996 . S
Zn127 O135 1.943 . S
O128 Zn127 1.962 . S
O128 C133 1.254 . S
O129 Zn126 2.031 . S
O129 C133 1.269 . S
O130 Zn127 1.986 . S
O130 C137 1.262 . S
O131 Zn126 2.049 . S
O131 C139 1.260 . S
O132 Zn127 1.996 . S
O132 C139 1.257 . S
C133 O128 1.254 . S
C133 O129 1.269 . S
C134 O135 1.249 . S
C134 O136 1.270 . S
O135 Zn127 1.943 . S
O135 C134 1.249 . S
O136 Zn126 2.067 . S
O136 C134 1.270 . S
C137 O130 1.262 . S
C137 O138 1.232 . S
O138 C137 1.232 . S
C139 O131 1.260 . S
C139 O132 1.257 . S
Zn140 O143 2.031 . S
Zn140 O145 2.049 . S
Zn140 O150 2.067 . S
Zn141 O142 1.962 . S
Zn141 O144 1.986 . S
Zn141 O146 1.996 . S
Zn141 O149 1.943 . S
O142 Zn141 1.962 . S
O142 C147 1.254 . S
O143 Zn140 2.031 . S
O143 C147 1.269 . S
O144 Zn141 1.986 . S
O144 C151 1.262 . S
O145 Zn140 2.049 . S
O145 C153 1.260 . S
O146 Zn141 1.996 . S
O146 C153 1.257 . S
C147 O142 1.254 . S
C147 O143 1.269 . S
C148 O149 1.249 . S
C148 O150 1.270 . S
O149 Zn141 1.943 . S
O149 C148 1.249 . S
O150 Zn140 2.067 . S
O150 C148 1.270 . S
C151 O144 1.262 . S
C151 O152 1.232 . S
O152 C151 1.232 . S
C153 O145 1.260 . S
C153 O146 1.257 . S
Zn154 O157 2.031 . S
Zn154 O159 2.049 . S
Zn154 O164 2.067 . S
Zn155 O156 1.962 . S
Zn155 O158 1.986 . S
Zn155 O160 1.996 . S
Zn155 O163 1.943 . S
O156 Zn155 1.962 . S
O156 C161 1.254 . S
O157 Zn154 2.031 . S
O157 C161 1.269 . S
O158 Zn155 1.986 . S
O158 C165 1.262 . S
O159 Zn154 2.049 . S
O159 C167 1.260 . S
O160 Zn155 1.996 . S
O160 C167 1.257 . S
C161 O156 1.254 . S
C161 O157 1.269 . S
C162 O163 1.249 . S
C162 O164 1.270 . S
O163 Zn155 1.943 . S
O163 C162 1.249 . S
O164 Zn154 2.067 . S
O164 C162 1.270 . S
C165 O158 1.262 . S
C165 O166 1.232 . S
O166 C165 1.232 . S
C167 O159 1.260 . S
C167 O160 1.257 . S
Zn168 O171 2.031 . S
Zn168 O173 2.049 . S
Zn168 O178 2.067 . S
Zn169 O170 1.962 . S
Zn169 O172 1.986 . S
Zn169 O174 1.996 . S
Zn169 O177 1.943 . S
O170 Zn169 1.962 . S
O170 C175 1.254 . S
O171 Zn168 2.031 . S
O171 C175 1.269 . S
O172 Zn169 1.986 . S
O172 C179 1.262 . S
O173 Zn168 2.049 . S
O173 C181 1.260 . S
O174 Zn169 1.996 . S
O174 C181 1.257 . S
C175 O170 1.254 . S
C175 O171 1.269 . S
C176 O177 1.249 . S
C176 O178 1.270 . S
O177 Zn169 1.943 . S
O177 C176 1.249 . S
O178 Zn168 2.067 . S
O178 C176 1.270 . S
C179 O172 1.262 . S
C179 O180 1.232 . S
O180 C179 1.232 . S
C181 O173 1.260 . S
C181 O174 1.257 . S
Zn182 O185 2.031 . S
Zn182 O187 2.049 . S
Zn182 O192 2.067 . S
Zn183 O184 1.962 . S
Zn183 O186 1.986 . S
Zn183 O188 1.996 . S
Zn183 O191 1.943 . S
O184 Zn183 1.962 . S
O184 C189 1.254 . S
O185 Zn182 2.031 . S
O185 C189 1.269 . S
O186 Zn183 1.986 . S
O186 C193 1.262 . S
O187 Zn182 2.049 . S
O187 C195 1.260 . S
O188 Zn183 1.996 . S
O188 C195 1.257 . S
C189 O184 1.254 . S
C189 O185 1.269 . S
C190 O191 1.249 . S
C190 O192 1.270 . S
O191 Zn183 1.943 . S
O191 C190 1.249 . S
O192 Zn182 2.067 . S
O192 C190 1.270 . S
C193 O186 1.262 . S
C193 O194 1.232 . S
O194 C193 1.232 . S
C195 O187 1.260 . S
C195 O188 1.257 . S
Zn196 O199 2.031 . S
Zn196 O201 2.049 . S
Zn196 O206 2.067 . S
Zn197 O198 1.962 . S
Zn197 O200 1.986 . S
Zn197 O202 1.996 . S
Zn197 O205 1.943 . S
O198 Zn197 1.962 . S
O198 C203 1.254 . S
O199 Zn196 2.031 . S
O199 C203 1.269 . S
O200 Zn197 1.986 . S
O200 C207 1.262 . S
O201 Zn196 2.049 . S
O201 C209 1.260 . S
O202 Zn197 1.996 . S
O202 C209 1.257 . S
C203 O198 1.254 . S
C203 O199 1.269 . S
C204 O205 1.249 . S
C204 O206 1.270 . S
O205 Zn197 1.943 . S
O205 C204 1.249 . S
O206 Zn196 2.067 . S
O206 C204 1.270 . S
C207 O200 1.262 . S
C207 O208 1.232 . S
O208 C207 1.232 . S
C209 O201 1.260 . S
C209 O202 1.257 . S
Zn210 O213 2.031 . S
Zn210 O215 2.049 . S
Zn210 O220 2.067 . S
Zn211 O212 1.962 . S
Zn211 O214 1.986 . S
Zn211 O216 1.996 . S
Zn211 O219 1.943 . S
O212 Zn211 1.962 . S
O212 C217 1.254 . S
O213 Zn210 2.031 . S
O213 C217 1.269 . S
O214 Zn211 1.986 . S
O214 C221 1.262 . S
O215 Zn210 2.049 . S
O215 C223 1.260 . S
O216 Zn211 1.996 . S
O216 C223 1.257 . S
C217 O212 1.254 . S
C217 O213 1.269 . S
C218 O219 1.249 . S
C218 O220 1.270 . S
O219 Zn211 1.943 . S
O219 C218 1.249 . S
O220 Zn210 2.067 . S
O220 C218 1.270 . S
C221 O214 1.262 . S
C221 O222 1.232 . S
O222 C221 1.232 . S
C223 O215 1.260 . S
C223 O216 1.257 . S
Zn224 O227 2.031 . S
Zn224 O229 2.049 . S
Zn224 O234 2.067 . S
Zn225 O226 1.962 . S
Zn225 O228 1.986 . S
Zn225 O230 1.996 . S
Zn225 O233 1.943 . S
O226 Zn225 1.962 . S
O226 C231 1.254 . S
O227 Zn224 2.031 . S
O227 C231 1.269 . S
O228 Zn225 1.986 . S
O228 C235 1.262 . S
O229 Zn224 2.049 . S
O229 C237 1.260 . S
O230 Zn225 1.996 . S
O230 C237 1.257 . S
C231 O226 1.254 . S
C231 O227 1.269 . S
C232 O233 1.249 . S
C232 O234 1.270 . S
O233 Zn225 1.943 . S
O233 C232 1.249 . S
O234 Zn224 2.067 . S
O234 C232 1.270 . S
C235 O228 1.262 . S
C235 O236 1.232 . S
O236 C235 1.232 . S
C237 O229 1.260 . S
C237 O230 1.257 . S
Zn238 O241 2.031 . S
Zn238 O243 2.049 . S
Zn238 O248 2.067 . S
Zn239 O240 1.962 . S
Zn239 O242 1.986 . S
Zn239 O244 1.996 . S
Zn239 O247 1.943 . S
O240 Zn239 1.962 . S
O240 C245 1.254 . S
O241 Zn238 2.031 . S
O241 C245 1.269 . S
O242 Zn239 1.986 . S
O242 C249 1.262 . S
O243 Zn238 2.049 . S
O243 C251 1.260 . S
O244 Zn239 1.996 . S
O244 C251 1.257 . S
C245 O240 1.254 . S
C245 O241 1.269 . S
C246 O247 1.249 . S
C246 O248 1.270 . S
O247 Zn239 1.943 . S
O247 C246 1.249 . S
O248 Zn238 2.067 . S
O248 C246 1.270 . S
C249 O242 1.262 . S
C249 O250 1.232 . S
O250 C249 1.232 . S
C251 O243 1.260 . S
C251 O244 1.257 . S
Zn252 O255 2.031 . S
Zn252 O257 2.049 . S
Zn252 O262 2.067 . S
Zn253 O254 1.962 . S
Zn253 O256 1.986 . S
Zn253 O258 1.996 . S
Zn253 O261 1.943 . S
O254 Zn253 1.962 . S
O254 C259 1.254 . S
O255 Zn252 2.031 . S
O255 C259 1.269 . S
O256 Zn253 1.986 . S
O256 C263 1.262 . S
O257 Zn252 2.049 . S
O257 C265 1.260 . S
O258 Zn253 1.996 . S
O258 C265 1.257 . S
C259 O254 1.254 . S
C259 O255 1.269 . S
C260 O261 1.249 . S
C260 O262 1.270 . S
O261 Zn253 1.943 . S
O261 C260 1.249 . S
O262 Zn252 2.067 . S
O262 C260 1.270 . S
C263 O256 1.262 . S
C263 O264 1.232 . S
O264 C263 1.232 . S
C265 O257 1.260 . S
C265 O258 1.257 . S
Zn266 O269 2.031 . S
Zn266 O271 2.049 . S
Zn266 O276 2.067 . S
Zn267 O268 1.962 . S
Zn267 O270 1.986 . S
Zn267 O272 1.996 . S
Zn267 O275 1.943 . S
O268 Zn267 1.962 . S
O268 C273 1.254 . S
O269 Zn266 2.031 . S
O269 C273 1.269 . S
O270 Zn267 1.986 . S
O270 C277 1.262 . S
O271 Zn266 2.049 . S
O271 C279 1.260 . S
O272 Zn267 1.996 . S
O272 C279 1.257 . S
C273 O268 1.254 . S
C273 O269 1.269 . S
C274 O275 1.249 . S
C274 O276 1.270 . S
O275 Zn267 1.943 . S
O275 C274 1.249 . S
O276 Zn266 2.067 . S
O276 C274 1.270 . S
C277 O270 1.262 . S
C277 O278 1.232 . S
O278 C277 1.232 . S
C279 O271 1.260 . S
C279 O272 1.257 . S
Zn280 O283 2.031 . S
Zn280 O285 2.049 . S
Zn280 O290 2.067 . S
Zn281 O282 1.962 . S
Zn281 O284 1.986 . S
Zn281 O286 1.996 . S
Zn281 O289 1.943 . S
O282 Zn281 1.962 . S
O282 C287 1.254 . S
O283 Zn280 2.031 . S
O283 C287 1.269 . S
O284 Zn281 1.986 . S
O284 C291 1.262 . S
O285 Zn280 2.049 . S
O285 C293 1.260 . S
O286 Zn281 1.996 . S
O286 C293 1.257 . S
C287 O282 1.254 . S
C287 O283 1.269 . S
C288 O289 1.249 . S
C288 O290 1.270 . S
O289 Zn281 1.943 . S
O289 C288 1.249 . S
O290 Zn280 2.067 . S
O290 C288 1.270 . S
C291 O284 1.262 . S
C291 O292 1.232 . S
O292 C291 1.232 . S
C293 O285 1.260 . S
C293 O286 1.257 . S
Zn294 O297 2.031 1_554 S
Zn294 O299 2.049 . S
Zn294 O304 2.067 1_554 S
Zn295 O296 1.962 . S
Zn295 O298 1.986 . S
Zn295 O300 1.996 . S
Zn295 O303 1.943 1_554 S
O296 Zn295 1.962 . S
O296 C301 1.254 1_554 S
O297 Zn294 2.031 1_556 S
O297 C301 1.269 . S
O298 Zn295 1.986 . S
O298 C305 1.262 . S
O299 Zn294 2.049 . S
O299 C307 1.260 . S
O300 Zn295 1.996 . S
O300 C307 1.257 . S
C301 O296 1.254 1_556 S
C301 O297 1.269 . S
C302 O303 1.249 . S
C302 O304 1.270 . S
O303 Zn295 1.943 1_556 S
O303 C302 1.249 . S
O304 Zn294 2.067 1_556 S
O304 C302 1.270 . S
C305 O298 1.262 . S
C305 O306 1.232 1_554 S
O306 C305 1.232 1_556 S
C307 O299 1.260 . S
C307 O300 1.257 . S
Zn308 O311 2.031 1_554 S
Zn308 O313 2.049 . S
Zn308 O318 2.067 1_554 S
Zn309 O310 1.962 . S
Zn309 O312 1.986 . S
Zn309 O314 1.996 . S
Zn309 O317 1.943 1_554 S
O310 Zn309 1.962 . S
O310 C315 1.254 1_554 S
O311 Zn308 2.031 1_556 S
O311 C315 1.269 . S
O312 Zn309 1.986 . S
O312 C319 1.262 . S
O313 Zn308 2.049 . S
O313 C321 1.260 . S
O314 Zn309 1.996 . S
O314 C321 1.257 . S
C315 O310 1.254 1_556 S
C315 O311 1.269 . S
C316 O317 1.249 . S
C316 O318 1.270 . S
O317 Zn309 1.943 1_556 S
O317 C316 1.249 . S
O318 Zn308 2.067 1_556 S
O318 C316 1.270 . S
C319 O312 1.262 . S
C319 O320 1.232 1_554 S
O320 C319 1.232 1_556 S
C321 O313 1.260 . S
C321 O314 1.257 . S
Zn322 O325 2.031 1_554 S
Zn322 O327 2.049 . S
Zn322 O332 2.067 1_554 S
Zn323 O324 1.962 . S
Zn323 O326 1.986 . S
Zn323 O328 1.996 . S
Zn323 O331 1.943 1_554 S
O324 Zn323 1.962 . S
O324 C329 1.254 1_554 S
O325 Zn322 2.031 1_556 S
O325 C329 1.269 . S
O326 Zn323 1.986 . S
O326 C333 1.262 . S
O327 Zn322 2.049 . S
O327 C335 1.260 . S
O328 Zn323 1.996 . S
O328 C335 1.257 . S
C329 O324 1.254 1_556 S
C329 O325 1.269 . S
C330 O331 1.249 . S
C330 O332 1.270 . S
O331 Zn323 1.943 1_556 S
O331 C330 1.249 . S
O332 Zn322 2.067 1_556 S
O332 C330 1.270 . S
C333 O326 1.262 . S
C333 O334 1.232 1_554 S
O334 C333 1.232 1_556 S
C335 O327 1.260 . S
C335 O328 1.257 . S
Zn336 O339 2.031 . S
Zn336 O341 2.049 . S
Zn336 O346 2.067 . S
Zn337 O338 1.962 . S
Zn337 O340 1.986 . S
Zn337 O342 1.996 . S
Zn337 O345 1.943 . S
O338 Zn337 1.962 . S
O338 C343 1.254 . S
O339 Zn336 2.031 . S
O339 C343 1.269 . S
O340 Zn337 1.986 . S
O340 C347 1.262 . S
O341 Zn336 2.049 . S
O341 C349 1.260 . S
O342 Zn337 1.996 . S
O342 C349 1.257 . S
C343 O338 1.254 . S
C343 O339 1.269 . S
C344 O345 1.249 . S
C344 O346 1.270 . S
O345 Zn337 1.943 . S
O345 C344 1.249 . S
O346 Zn336 2.067 . S
O346 C344 1.270 . S
C347 O340 1.262 . S
C347 O348 1.232 . S
O348 C347 1.232 . S
C349 O341 1.260 . S
C349 O342 1.257 . S
Zn350 O353 2.031 . S
Zn350 O355 2.049 . S
Zn350 O360 2.067 . S
Zn351 O352 1.962 . S
Zn351 O354 1.986 . S
Zn351 O356 1.996 . S
Zn351 O359 1.943 . S
O352 Zn351 1.962 . S
O352 C357 1.254 . S
O353 Zn350 2.031 . S
O353 C357 1.269 . S
O354 Zn351 1.986 . S
O354 C361 1.262 . S
O355 Zn350 2.049 . S
O355 C363 1.260 . S
O356 Zn351 1.996 . S
O356 C363 1.257 . S
C357 O352 1.254 . S
C357 O353 1.269 . S
C358 O359 1.249 . S
C358 O360 1.270 . S
O359 Zn351 1.943 . S
O359 C358 1.249 . S
O360 Zn350 2.067 . S
O360 C358 1.270 . S
C361 O354 1.262 . S
C361 O362 1.232 . S
O362 C361 1.232 . S
C363 O355 1.260 . S
C363 O356 1.257 . S
Zn364 O367 2.031 . S
Zn364 O369 2.049 . S
Zn364 O374 2.067 . S
Zn365 O366 1.962 . S
Zn365 O368 1.986 . S
Zn365 O370 1.996 . S
Zn365 O373 1.943 . S
O366 Zn365 1.962 . S
O366 C371 1.254 . S
O367 Zn364 2.031 . S
O367 C371 1.269 . S
O368 Zn365 1.986 . S
O368 C375 1.262 . S
O369 Zn364 2.049 . S
O369 C377 1.260 . S
O370 Zn365 1.996 . S
O370 C377 1.257 . S
C371 O366 1.254 . S
C371 O367 1.269 . S
C372 O373 1.249 . S
C372 O374 1.270 . S
O373 Zn365 1.943 . S
O373 C372 1.249 . S
O374 Zn364 2.067 . S
O374 C372 1.270 . S
C375 O368 1.262 . S
C375 O376 1.232 . S
O376 C375 1.232 . S
C377 O369 1.260 . S
C377 O370 1.257 . S
Zn378 O381 2.031 1_556 S
Zn378 O383 2.049 . S
Zn378 O388 2.067 1_556 S
Zn379 O380 1.962 . S
Zn379 O382 1.986 . S
Zn379 O384 1.996 . S
Zn379 O387 1.943 1_556 S
O380 Zn379 1.962 . S
O380 C385 1.254 1_556 S
O381 Zn378 2.031 1_554 S
O381 C385 1.269 . S
O382 Zn379 1.986 . S
O382 C389 1.262 . S
O383 Zn378 2.049 . S
O383 C391 1.260 . S
O384 Zn379 1.996 . S
O384 C391 1.257 . S
C385 O380 1.254 1_554 S
C385 O381 1.269 . S
C386 O387 1.249 . S
C386 O388 1.270 . S
O387 Zn379 1.943 1_554 S
O387 C386 1.249 . S
O388 Zn378 2.067 1_554 S
O388 C386 1.270 . S
C389 O382 1.262 . S
C389 O390 1.232 1_556 S
O390 C389 1.232 1_554 S
C391 O383 1.260 . S
C391 O384 1.257 . S
Zn392 O395 2.031 1_556 S
Zn392 O397 2.049 . S
Zn392 O402 2.067 1_556 S
Zn393 O394 1.962 . S
Zn393 O396 1.986 . S
Zn393 O398 1.996 . S
Zn393 O401 1.943 1_556 S
O394 Zn393 1.962 . S
O394 C399 1.254 1_556 S
O395 Zn392 2.031 1_554 S
O395 C399 1.269 . S
O396 Zn393 1.986 . S
O396 C403 1.262 . S
O397 Zn392 2.049 . S
O397 C405 1.260 . S
O398 Zn393 1.996 . S
O398 C405 1.257 . S
C399 O394 1.254 1_554 S
C399 O395 1.269 . S
C400 O401 1.249 . S
C400 O402 1.270 . S
O401 Zn393 1.943 1_554 S
O401 C400 1.249 . S
O402 Zn392 2.067 1_554 S
O402 C400 1.270 . S
C403 O396 1.262 . S
C403 O404 1.232 1_556 S
O404 C403 1.232 1_554 S
C405 O397 1.260 . S
C405 O398 1.257 . S
Zn406 O409 2.031 1_556 S
Zn406 O411 2.049 . S
Zn406 O416 2.067 1_556 S
Zn407 O408 1.962 . S
Zn407 O410 1.986 . S
Zn407 O412 1.996 . S
Zn407 O415 1.943 1_556 S
O408 Zn407 1.962 . S
O408 C413 1.254 1_556 S
O409 Zn406 2.031 1_554 S
O409 C413 1.269 . S
O410 Zn407 1.986 . S
O410 C417 1.262 . S
O411 Zn406 2.049 . S
O411 C419 1.260 . S
O412 Zn407 1.996 . S
O412 C419 1.257 . S
C413 O408 1.254 1_554 S
C413 O409 1.269 . S
C414 O415 1.249 . S
C414 O416 1.270 . S
O415 Zn407 1.943 1_554 S
O415 C414 1.249 . S
O416 Zn406 2.067 1_554 S
O416 C414 1.270 . S
C417 O410 1.262 . S
C417 O418 1.232 1_556 S
O418 C417 1.232 1_554 S
C419 O411 1.260 . S
C419 O412 1.257 . S
Zn420 O423 2.031 . S
Zn420 O425 2.049 . S
Zn420 O430 2.067 . S
Zn421 O422 1.962 . S
Zn421 O424 1.986 . S
Zn421 O426 1.996 . S
Zn421 O429 1.943 . S
O422 Zn421 1.962 . S
O422 C427 1.254 . S
O423 Zn420 2.031 . S
O423 C427 1.269 . S
O424 Zn421 1.986 . S
O424 C431 1.262 . S
O425 Zn420 2.049 . S
O425 C433 1.260 . S
O426 Zn421 1.996 . S
O426 C433 1.257 . S
C427 O422 1.254 . S
C427 O423 1.269 . S
C428 O429 1.249 . S
C428 O430 1.270 . S
O429 Zn421 1.943 . S
O429 C428 1.249 . S
O430 Zn420 2.067 . S
O430 C428 1.270 . S
C431 O424 1.262 . S
C431 O432 1.232 . S
O432 C431 1.232 . S
C433 O425 1.260 . S
C433 O426 1.257 . S
Zn434 O437 2.031 . S
Zn434 O439 2.049 . S
Zn434 O444 2.067 . S
Zn435 O436 1.962 . S
Zn435 O438 1.986 . S
Zn435 O440 1.996 . S
Zn435 O443 1.943 . S
O436 Zn435 1.962 . S
O436 C441 1.254 . S
O437 Zn434 2.031 . S
O437 C441 1.269 . S
O438 Zn435 1.986 . S
O438 C445 1.262 . S
O439 Zn434 2.049 . S
O439 C447 1.260 . S
O440 Zn435 1.996 . S
O440 C447 1.257 . S
C441 O436 1.254 . S
C441 O437 1.269 . S
C442 O443 1.249 . S
C442 O444 1.270 . S
O443 Zn435 1.943 . S
O443 C442 1.249 . S
O444 Zn434 2.067 . S
O444 C442 1.270 . S
C445 O438 1.262 . S
C445 O446 1.232 . S
O446 C445 1.232 . S
C447 O439 1.260 . S
C447 O440 1.257 . S
Zn448 O451 2.031 . S
Zn448 O453 2.049 . S
Zn448 O458 2.067 . S
Zn449 O450 1.962 . S
Zn449 O452 1.986 . S
Zn449 O454 1.996 . S
Zn449 O457 1.943 . S
O450 Zn449 1.962 . S
O450 C455 1.254 . S
O451 Zn448 2.031 . S
O451 C455 1.269 . S
O452 Zn449 1.986 . S
O452 C459 1.262 . S
O453 Zn448 2.049 . S
O453 C461 1.260 . S
O454 Zn449 1.996 . S
O454 C461 1.257 . S
C455 O450 1.254 . S
C455 O451 1.269 . S
C456 O457 1.249 . S
C456 O458 1.270 . S
O457 Zn449 1.943 . S
O457 C456 1.249 . S
O458 Zn448 2.067 . S
O458 C456 1.270 . S
C459 O452 1.262 . S
C459 O460 1.232 . S
O460 C459 1.232 . S
C461 O453 1.260 . S
C461 O454 1.257 . S
Zn462 O465 2.031 . S
Zn462 O467 2.049 . S
Zn462 O472 2.067 . S
Zn463 O464 1.962 . S
Zn463 O466 1.986 . S
Zn463 O468 1.996 . S
Zn463 O471 1.943 . S
O464 Zn463 1.962 . S
O464 C469 1.254 . S
O465 Zn462 2.031 . S
O465 C469 1.269 . S
O466 Zn463 1.986 . S
O466 C473 1.262 . S
O467 Zn462 2.049 . S
O467 C475 1.260 . S
O468 Zn463 1.996 . S
O468 C475 1.257 . S
C469 O464 1.254 . S
C469 O465 1.269 . S
C470 O471 1.249 . S
C470 O472 1.270 . S
O471 Zn463 1.943 . S
O471 C470 1.249 . S
O472 Zn462 2.067 . S
O472 C470 1.270 . S
C473 O466 1.262 . S
C473 O474 1.232 . S
O474 C473 1.232 . S
C475 O467 1.260 . S
C475 O468 1.257 . S
Zn476 O479 2.031 . S
Zn476 O481 2.049 . S
Zn476 O486 2.067 . S
Zn477 O478 1.962 . S
Zn477 O480 1.986 . S
Zn477 O482 1.996 . S
Zn477 O485 1.943 . S
O478 Zn477 1.962 . S
O478 C483 1.254 . S
O479 Zn476 2.031 . S
O479 C483 1.269 . S
O480 Zn477 1.986 . S
O480 C487 1.262 . S
O481 Zn476 2.049 . S
O481 C489 1.260 . S
O482 Zn477 1.996 . S
O482 C489 1.257 . S
C483 O478 1.254 . S
C483 O479 1.269 . S
C484 O485 1.249 . S
C484 O486 1.270 . S
O485 Zn477 1.943 . S
O485 C484 1.249 . S
O486 Zn476 2.067 . S
O486 C484 1.270 . S
C487 O480 1.262 . S
C487 O488 1.232 . S
O488 C487 1.232 . S
C489 O481 1.260 . S
C489 O482 1.257 . S
Zn490 O493 2.031 . S
Zn490 O495 2.049 . S
Zn490 O500 2.067 . S
Zn491 O492 1.962 . S
Zn491 O494 1.986 . S
Zn491 O496 1.996 . S
Zn491 O499 1.943 . S
O492 Zn491 1.962 . S
O492 C497 1.254 . S
O493 Zn490 2.031 . S
O493 C497 1.269 . S
O494 Zn491 1.986 . S
O494 C501 1.262 . S
O495 Zn490 2.049 . S
O495 C503 1.260 . S
O496 Zn491 1.996 . S
O496 C503 1.257 . S
C497 O492 1.254 . S
C497 O493 1.269 . S
C498 O499 1.249 . S
C498 O500 1.270 . S
O499 Zn491 1.943 . S
O499 C498 1.249 . S
O500 Zn490 2.067 . S
O500 C498 1.270 . S
C501 O494 1.262 . S
C501 O502 1.232 . S
O502 C501 1.232 . S
C503 O495 1.260 . S
C503 O496 1.257 . S
C504 C505 1.369 . S
C504 C506 1.419 . S
C504 H508 0.930 . S
C505 C504 1.369 . S
C505 C514 1.429 . S
C506 C504 1.419 . S
C506 C507 1.363 . S
C506 H509 0.929 . S
C507 C506 1.363 . S
C507 C513 1.428 . S
H508 C504 0.930 . S
H509 C506 0.929 . S
S510 N511 1.613 . S
S510 N512 1.610 . S
N511 S510 1.613 . S
N511 C514 1.350 . S
N512 S510 1.610 . S
N512 C513 1.351 . S
C513 C507 1.428 . S
C513 N512 1.351 . S
C513 C514 1.434 . S
C514 C505 1.429 . S
C514 N511 1.350 . S
C514 C513 1.434 . S
C515 C516 1.369 . S
C515 C517 1.419 1_545 S
C515 H519 0.930 . S
C516 C515 1.369 . S
C516 C525 1.429 . S
C517 C515 1.419 1_565 S
C517 C518 1.363 . S
C517 H520 0.929 . S
C518 C517 1.363 . S
C518 C524 1.428 . S
H519 C515 0.930 . S
H520 C517 0.929 . S
S521 N522 1.613 1_565 S
S521 N523 1.610 . S
N522 S521 1.613 1_545 S
N522 C525 1.350 . S
N523 S521 1.610 . S
N523 C524 1.351 . S
C524 C518 1.428 . S
C524 N523 1.351 . S
C524 C525 1.434 1_565 S
C525 C516 1.429 . S
C525 N522 1.350 . S
C525 C524 1.434 1_545 S
C526 C527 1.369 . S
C526 C528 1.419 1_655 S
C526 H530 0.930 . S
C527 C526 1.369 . S
C527 C536 1.429 . S
C528 C526 1.419 1_455 S
C528 C529 1.363 . S
C528 H531 0.929 . S
C529 C528 1.363 . S
C529 C535 1.428 . S
H530 C526 0.930 . S
H531 C528 0.929 . S
S532 N533 1.664 . S
S532 N534 1.594 1_655 S
N533 S532 1.664 . S
N533 C536 1.350 . S
N534 S532 1.594 1_455 S
N534 C535 1.351 . S
C535 C529 1.428 . S
C535 N534 1.351 . S
C535 C536 1.434 1_455 S
C536 C527 1.429 . S
C536 N533 1.350 . S
C536 C535 1.434 1_655 S
C537 C538 1.369 . S
C537 C539 1.419 . S
C537 H541 0.930 . S
C538 C537 1.369 . S
C538 C547 1.429 . S
C539 C537 1.419 . S
C539 C540 1.363 . S
C539 H542 0.929 . S
C540 C539 1.363 . S
C540 C546 1.428 . S
H541 C537 0.930 . S
H542 C539 0.929 . S
S543 N544 1.613 . S
S543 N545 1.610 . S
N544 S543 1.613 . S
N544 C547 1.350 . S
N545 S543 1.610 . S
N545 C546 1.351 . S
C546 C540 1.428 . S
C546 N545 1.351 . S
C546 C547 1.434 . S
C547 C538 1.429 . S
C547 N544 1.350 . S
C547 C546 1.434 . S
C548 C549 1.369 . S
C548 C550 1.419 1_545 S
C548 H552 0.930 . S
C549 C548 1.369 . S
C549 C558 1.429 . S
C550 C548 1.419 1_565 S
C550 C551 1.363 . S
C550 H553 0.929 . S
C551 C550 1.363 . S
C551 C557 1.428 . S
H552 C548 0.930 . S
H553 C550 0.929 . S
S554 N555 1.613 . S
S554 N556 1.610 1_545 S
N555 S554 1.613 . S
N555 C558 1.350 . S
N556 S554 1.610 1_565 S
N556 C557 1.351 . S
C557 C551 1.428 . S
C557 N556 1.351 . S
C557 C558 1.434 1_565 S
C558 C549 1.429 . S
C558 N555 1.350 . S
C558 C557 1.434 1_545 S
C559 C560 1.369 . S
C559 C561 1.419 1_455 S
C559 H563 0.930 . S
C560 C559 1.369 . S
C560 C569 1.429 . S
C561 C559 1.419 1_655 S
C561 C562 1.363 . S
C561 H564 0.929 . S
C562 C561 1.363 . S
C562 C568 1.428 . S
H563 C559 0.930 . S
H564 C561 0.929 . S
S565 N566 1.613 1_655 S
S565 N567 1.610 . S
N566 S565 1.613 1_455 S
N566 C569 1.350 . S
N567 S565 1.610 . S
N567 C568 1.351 . S
C568 C562 1.428 . S
C568 N567 1.351 . S
C568 C569 1.434 1_655 S
C569 C560 1.429 . S
C569 N566 1.350 . S
C569 C568 1.434 1_455 S
C570 C571 1.369 . S
C570 C572 1.419 . S
C570 H574 0.930 . S
C571 C570 1.369 . S
C571 C580 1.429 . S
C572 C570 1.419 . S
C572 C573 1.363 . S
C572 H575 0.929 . S
C573 C572 1.363 . S
C573 C579 1.428 . S
H574 C570 0.930 . S
H575 C572 0.929 . S
S576 N577 1.613 . S
S576 N578 1.610 . S
N577 S576 1.613 . S
N577 C580 1.350 . S
N578 S576 1.610 . S
N578 C579 1.351 . S
C579 C573 1.428 . S
C579 N578 1.351 . S
C579 C580 1.434 . S
C580 C571 1.429 . S
C580 N577 1.350 . S
C580 C579 1.434 . S
C581 C582 1.369 . S
C581 C583 1.419 . S
C581 H585 0.930 . S
C582 C581 1.369 . S
C582 C591 1.429 . S
C583 C581 1.419 . S
C583 C584 1.363 . S
C583 H586 0.929 . S
C584 C583 1.363 . S
C584 C590 1.428 . S
H585 C581 0.930 . S
H586 C583 0.929 . S
S587 N588 1.613 . S
S587 N589 1.610 . S
N588 S587 1.613 . S
N588 C591 1.350 . S
N589 S587 1.610 . S
N589 C590 1.351 . S
C590 C584 1.428 . S
C590 N589 1.351 . S
C590 C591 1.434 . S
C591 C582 1.429 . S
C591 N588 1.350 . S
C591 C590 1.434 . S
C592 C593 1.369 . S
C592 C594 1.419 . S
C592 H596 0.930 . S
C593 C592 1.369 . S
C593 C602 1.429 . S
C594 C592 1.419 . S
C594 C595 1.363 . S
C594 H597 0.929 . S
C595 C594 1.363 . S
C595 C601 1.428 . S
H596 C592 0.930 . S
H597 C594 0.929 . S
S598 N599 1.613 . S
S598 N600 1.610 . S
N599 S598 1.613 . S
N599 C602 1.350 . S
N600 S598 1.610 . S
N600 C601 1.351 . S
C601 C595 1.428 . S
C601 N600 1.351 . S
C601 C602 1.434 . S
C602 C593 1.429 . S
C602 N599 1.350 . S
C602 C601 1.434 . S
C603 C604 1.369 . S
C603 C605 1.419 . S
C603 H607 0.930 . S
C604 C603 1.369 . S
C604 C613 1.429 . S
C605 C603 1.419 . S
C605 C606 1.363 . S
C605 H608 0.929 . S
C606 C605 1.363 . S
C606 C612 1.428 . S
H607 C603 0.930 . S
H608 C605 0.929 . S
S609 N610 1.613 . S
S609 N611 1.610 . S
N610 S609 1.613 . S
N610 C613 1.350 1_556 S
N611 S609 1.610 . S
N611 C612 1.351 1_556 S
C612 C606 1.428 . S
C612 N611 1.351 1_554 S
C612 C613 1.434 . S
C613 C604 1.429 . S
C613 N610 1.350 1_554 S
C613 C612 1.434 . S
C614 C615 1.369 . S
C614 C616 1.419 . S
C614 H618 0.930 . S
C615 C614 1.369 . S
C615 C624 1.429 . S
C616 C614 1.419 . S
C616 C617 1.363 . S
C616 H619 0.929 . S
C617 C616 1.363 . S
C617 C623 1.428 . S
H618 C614 0.930 . S
H619 C616 0.929 . S
S620 N621 1.613 . S
S620 N622 1.610 1_556 S
N621 S620 1.613 . S
N621 C624 1.350 1_556 S
N622 S620 1.610 1_554 S
N622 C623 1.351 . S
C623 C617 1.428 . S
C623 N622 1.351 . S
C623 C624 1.434 . S
C624 C615 1.429 . S
C624 N621 1.350 1_554 S
C624 C623 1.434 . S
C625 C626 1.369 . S
C625 C627 1.419 . S
C625 H629 0.930 . S
C626 C625 1.369 . S
C626 C635 1.429 . S
C627 C625 1.419 . S
C627 C628 1.363 . S
C627 H630 0.929 . S
C628 C627 1.363 . S
C628 C634 1.428 . S
H629 C625 0.930 . S
H630 C627 0.929 . S
S631 N632 1.613 . S
S631 N633 1.610 . S
N632 S631 1.613 . S
N632 C635 1.350 . S
N633 S631 1.610 . S
N633 C634 1.351 . S
C634 C628 1.428 . S
C634 N633 1.351 . S
C634 C635 1.434 . S
C635 C626 1.429 . S
C635 N632 1.350 . S
C635 C634 1.434 . S
C636 C637 1.369 . S
C636 C638 1.419 . S
C636 H640 0.930 . S
C637 C636 1.369 . S
C637 C646 1.429 . S
C638 C636 1.419 . S
C638 C639 1.363 . S
C638 H641 0.929 . S
C639 C638 1.363 . S
C639 C645 1.428 . S
H640 C636 0.930 . S
H641 C638 0.929 . S
S642 N643 1.613 1_554 S
S642 N644 1.610 . S
N643 S642 1.613 1_556 S
N643 C646 1.350 . S
N644 S642 1.610 . S
N644 C645 1.351 1_554 S
C645 C639 1.428 . S
C645 N644 1.351 1_556 S
C645 C646 1.434 . S
C646 C637 1.429 . S
C646 N643 1.350 . S
C646 C645 1.434 . S
C647 C648 1.369 . S
C647 C649 1.419 . S
C647 H651 0.930 1_556 S
C648 C647 1.369 . S
C648 C657 1.429 . S
C649 C647 1.419 . S
C649 C650 1.363 . S
C649 H652 0.929 1_556 S
C650 C649 1.363 . S
C650 C656 1.428 . S
H651 C647 0.930 1_554 S
H652 C649 0.929 1_554 S
S653 N654 1.613 . S
S653 N655 1.610 . S
N654 S653 1.613 . S
N654 C657 1.350 . S
N655 S653 1.610 . S
N655 C656 1.351 . S
C656 C650 1.428 . S
C656 N655 1.351 . S
C656 C657 1.434 . S
C657 C648 1.429 . S
C657 N654 1.350 . S
C657 C656 1.434 . S
C658 C659 1.369 . S
C658 C660 1.419 . S
C658 H662 0.930 . S
C659 C658 1.369 . S
C659 C668 1.429 . S
C660 C658 1.419 . S
C660 C661 1.363 . S
C660 H663 0.929 . S
C661 C660 1.363 . S
C661 C667 1.428 . S
H662 C658 0.930 . S
H663 C660 0.929 . S
S664 N665 1.613 . S
S664 N666 1.610 . S
N665 S664 1.613 . S
N665 C668 1.350 1_554 S
N666 S664 1.610 . S
N666 C667 1.351 1_554 S
C667 C661 1.428 . S
C667 N666 1.351 1_556 S
C667 C668 1.434 . S
C668 C659 1.429 . S
C668 N665 1.350 1_556 S
C668 C667 1.434 . S
C669 C670 1.369 . S
C669 C671 1.419 . S
C669 H673 0.930 . S
C670 C669 1.369 . S
C670 C679 1.429 . S
C671 C669 1.419 . S
C671 C672 1.363 . S
C671 H674 0.929 . S
C672 C671 1.363 . S
C672 C678 1.428 . S
H673 C669 0.930 . S
H674 C671 0.929 . S
S675 N676 1.613 . S
S675 N677 1.610 . S
N676 S675 1.613 . S
N676 C679 1.350 . S
N677 S675 1.610 . S
N677 C678 1.351 . S
C678 C672 1.428 . S
C678 N677 1.351 . S
C678 C679 1.434 . S
C679 C670 1.429 . S
C679 N676 1.350 . S
C679 C678 1.434 . S
C680 C681 1.369 . S
C680 C682 1.419 . S
C680 H684 0.930 . S
C681 C680 1.369 . S
C681 C690 1.429 . S
C682 C680 1.419 . S
C682 C683 1.363 . S
C682 H685 0.929 . S
C683 C682 1.363 . S
C683 C689 1.428 . S
H684 C680 0.930 . S
H685 C682 0.929 . S
S686 N687 1.613 . S
S686 N688 1.610 . S
N687 S686 1.613 . S
N687 C690 1.350 . S
N688 S686 1.610 . S
N688 C689 1.351 . S
C689 C683 1.428 . S
C689 N688 1.351 . S
C689 C690 1.434 . S
C690 C681 1.429 . S
C690 N687 1.350 . S
C690 C689 1.434 . S
C691 C692 1.369 . S
C691 C693 1.419 . S
C691 H695 0.930 . S
C692 C691 1.369 . S
C692 C701 1.429 . S
C693 C691 1.419 . S
C693 C694 1.363 . S
C693 H696 0.929 . S
C694 C693 1.363 . S
C694 C700 1.428 . S
H695 C691 0.930 . S
H696 C693 0.929 . S
S697 N698 1.613 . S
S697 N699 1.610 . S
N698 S697 1.613 . S
N698 C701 1.350 . S
N699 S697 1.610 . S
N699 C700 1.351 . S
C700 C694 1.428 . S
C700 N699 1.351 . S
C700 C701 1.434 . S
C701 C692 1.429 . S
C701 N698 1.350 . S
C701 C700 1.434 . S
C702 C703 1.369 . S
C702 C704 1.419 . S
C702 H706 0.930 . S
C703 C702 1.369 . S
C703 C712 1.429 . S
C704 C702 1.419 . S
C704 C705 1.363 1_556 S
C704 H707 0.929 1_556 S
C705 C704 1.363 1_554 S
C705 C711 1.428 1_554 S
H706 C702 0.930 . S
H707 C704 0.929 1_554 S
S708 N709 1.613 . S
S708 N710 1.610 . S
N709 S708 1.613 . S
N709 C712 1.350 . S
N710 S708 1.610 . S
N710 C711 1.351 . S
C711 C705 1.428 1_556 S
C711 N710 1.351 . S
C711 C712 1.434 . S
C712 C703 1.429 . S
C712 N709 1.350 . S
C712 C711 1.434 . S
C713 C714 1.369 1_556 S
C713 C715 1.419 . S
C713 H717 0.930 . S
C714 C713 1.369 1_554 S
C714 C723 1.429 . S
C715 C713 1.419 . S
C715 C716 1.363 . S
C715 H718 0.929 . S
C716 C715 1.363 . S
C716 C722 1.428 . S
H717 C713 0.930 . S
H718 C715 0.929 . S
S719 N720 1.613 . S
S719 N721 1.610 1_554 S
N720 S719 1.613 . S
N720 C723 1.350 . S
N721 S719 1.610 1_556 S
N721 C722 1.351 . S
C722 C716 1.428 . S
C722 N721 1.351 . S
C722 C723 1.434 1_556 S
C723 C714 1.429 . S
C723 N720 1.350 . S
C723 C722 1.434 1_554 S
C724 C725 1.369 . S
C724 C726 1.419 1_554 S
C724 H728 0.930 . S
C725 C724 1.369 . S
C725 C734 1.429 1_554 S
C726 C724 1.419 1_556 S
C726 C727 1.363 . S
C726 H729 0.929 . S
C727 C726 1.363 . S
C727 C733 1.428 . S
H728 C724 0.930 . S
H729 C726 0.929 . S
S730 N731 1.613 . S
S730 N732 1.610 . S
N731 S730 1.613 . S
N731 C734 1.350 . S
N732 S730 1.610 . S
N732 C733 1.351 . S
C733 C727 1.428 . S
C733 N732 1.351 . S
C733 C734 1.434 . S
C734 C725 1.429 1_556 S
C734 N731 1.350 . S
C734 C733 1.434 . S
C735 C736 1.369 . S
C735 C737 1.419 . S
C735 H739 0.930 . S
C736 C735 1.369 . S
C736 C745 1.429 . S
C737 C735 1.419 . S
C737 C738 1.363 . S
C737 H740 0.929 . S
C738 C737 1.363 . S
C738 C744 1.428 . S
H739 C735 0.930 . S
H740 C737 0.929 . S
S741 N742 1.613 . S
S741 N743 1.610 . S
N742 S741 1.613 . S
N742 C745 1.350 . S
N743 S741 1.610 . S
N743 C744 1.351 . S
C744 C738 1.428 . S
C744 N743 1.351 . S
C744 C745 1.434 . S
C745 C736 1.429 . S
C745 N742 1.350 . S
C745 C744 1.434 . S
C746 C747 1.369 . S
C746 C748 1.419 . S
C746 H750 0.930 . S
C747 C746 1.369 . S
C747 C756 1.429 . S
C748 C746 1.419 . S
C748 C749 1.363 . S
C748 H751 0.929 . S
C749 C748 1.363 . S
C749 C755 1.428 . S
H750 C746 0.930 . S
H751 C748 0.929 . S
S752 N753 1.613 . S
S752 N754 1.610 . S
N753 S752 1.613 . S
N753 C756 1.350 . S
N754 S752 1.610 . S
N754 C755 1.351 . S
C755 C749 1.428 . S
C755 N754 1.351 . S
C755 C756 1.434 . S
C756 C747 1.429 . S
C756 N753 1.350 . S
C756 C755 1.434 . S
C757 C758 1.369 . S
C757 C759 1.419 . S
C757 H761 0.930 . S
C758 C757 1.369 . S
C758 C767 1.429 . S
C759 C757 1.419 . S
C759 C760 1.363 . S
C759 H762 0.929 . S
C760 C759 1.363 . S
C760 C766 1.428 . S
H761 C757 0.930 . S
H762 C759 0.929 . S
S763 N764 1.613 . S
S763 N765 1.610 . S
N764 S763 1.613 . S
N764 C767 1.350 . S
N765 S763 1.610 . S
N765 C766 1.351 . S
C766 C760 1.428 . S
C766 N765 1.351 . S
C766 C767 1.434 . S
C767 C758 1.429 . S
C767 N764 1.350 . S
C767 C766 1.434 . S
C768 C769 1.369 1_554 S
C768 C770 1.419 . S
C768 H772 0.930 1_554 S
C769 C768 1.369 1_556 S
C769 C778 1.429 1_556 S
C770 C768 1.419 . S
C770 C771 1.363 . S
C770 H773 0.929 . S
C771 C770 1.363 . S
C771 C777 1.428 . S
H772 C768 0.930 1_556 S
H773 C770 0.929 . S
S774 N775 1.613 . S
S774 N776 1.610 . S
N775 S774 1.613 . S
N775 C778 1.350 . S
N776 S774 1.610 . S
N776 C777 1.351 . S
C777 C771 1.428 . S
C777 N776 1.351 . S
C777 C778 1.434 . S
C778 C769 1.429 1_554 S
C778 N775 1.350 . S
C778 C777 1.434 . S
C779 C780 1.369 1_554 S
C779 C781 1.419 . S
C779 H783 0.930 . S
C780 C779 1.369 1_556 S
C780 C789 1.428 . S
C781 C779 1.419 . S
C781 C782 1.363 . S
C781 H784 0.929 . S
C782 C781 1.363 . S
C782 C788 1.428 . S
H783 C779 0.930 . S
H784 C781 0.929 . S
S785 N786 1.608 1_554 S
S785 N787 1.619 . S
N786 S785 1.608 1_556 S
N786 C789 1.349 . S
N787 S785 1.619 . S
N787 C788 1.351 . S
C788 C782 1.428 . S
C788 N787 1.351 . S
C788 C789 1.435 1_554 S
C789 C780 1.428 . S
C789 N786 1.349 . S
C789 C788 1.435 1_556 S
C790 C791 1.369 . S
C790 C792 1.419 . S
C790 H794 0.930 . S
C791 C790 1.369 . S
C791 C800 1.429 . S
C792 C790 1.419 . S
C792 C793 1.363 1_554 S
C792 H795 0.929 . S
C793 C792 1.363 1_556 S
C793 C799 1.428 . S
H794 C790 0.930 . S
H795 C792 0.929 . S
S796 N797 1.613 1_556 S
S796 N798 1.610 . S
N797 S796 1.613 1_554 S
N797 C800 1.350 . S
N798 S796 1.610 . S
N798 C799 1.351 . S
C799 C793 1.428 . S
C799 N798 1.351 . S
C799 C800 1.434 1_556 S
C800 C791 1.429 . S
C800 N797 1.350 . S
C800 C799 1.434 1_554 S
C801 C802 1.369 . S
C801 C803 1.419 . S
C801 H805 0.930 . S
C802 C801 1.369 . S
C802 C811 1.429 . S
C803 C801 1.419 . S
C803 C804 1.363 . S
C803 H806 0.929 . S
C804 C803 1.363 . S
C804 C810 1.428 . S
H805 C801 0.930 . S
H806 C803 0.929 . S
S807 N808 1.613 . S
S807 N809 1.610 . S
N808 S807 1.613 . S
N808 C811 1.350 . S
N809 S807 1.610 . S
N809 C810 1.351 . S
C810 C804 1.428 . S
C810 N809 1.351 . S
C810 C811 1.434 . S
C811 C802 1.429 . S
C811 N808 1.350 . S
C811 C810 1.434 . S
C812 C813 1.369 . S
C812 C814 1.419 . S
C812 H816 0.930 . S
C813 C812 1.369 . S
C813 C822 1.429 . S
C814 C812 1.419 . S
C814 C815 1.363 . S
C814 H817 0.929 . S
C815 C814 1.363 . S
C815 C821 1.428 . S
H816 C812 0.930 . S
H817 C814 0.929 . S
S818 N819 1.613 . S
S818 N820 1.610 . S
N819 S818 1.613 . S
N819 C822 1.350 . S
N820 S818 1.610 . S
N820 C821 1.351 . S
C821 C815 1.428 . S
C821 N820 1.351 . S
C821 C822 1.434 . S
C822 C813 1.429 . S
C822 N819 1.350 . S
C822 C821 1.434 . S
C823 C824 1.369 . S
C823 C825 1.419 . S
C823 H827 0.930 . S
C824 C823 1.369 . S
C824 C833 1.429 . S
C825 C823 1.419 . S
C825 C826 1.363 . S
C825 H828 0.929 . S
C826 C825 1.363 . S
C826 C832 1.428 . S
H827 C823 0.930 . S
H828 C825 0.929 . S
S829 N830 1.613 . S
S829 N831 1.610 . S
N830 S829 1.613 . S
N830 C833 1.350 . S
N831 S829 1.610 . S
N831 C832 1.351 . S
C832 C826 1.428 . S
C832 N831 1.351 . S
C832 C833 1.434 . S
C833 C824 1.429 . S
C833 N830 1.350 . S
C833 C832 1.434 . S
C834 C835 1.369 . S
C834 C836 1.419 . S
C834 H838 0.930 . S
C835 C834 1.369 . S
C835 C844 1.429 . S
C836 C834 1.419 . S
C836 C837 1.363 . S
C836 H839 0.929 . S
C837 C836 1.363 . S
C837 C843 1.428 . S
H838 C834 0.930 . S
H839 C836 0.929 . S
S840 N841 1.613 . S
S840 N842 1.610 . S
N841 S840 1.613 . S
N841 C844 1.350 . S
N842 S840 1.610 . S
N842 C843 1.351 . S
C843 C837 1.428 . S
C843 N842 1.351 . S
C843 C844 1.434 . S
C844 C835 1.429 . S
C844 N841 1.350 . S
C844 C843 1.434 . S
C845 C846 1.369 . S
C845 C847 1.419 . S
C845 H849 0.930 . S
C846 C845 1.369 . S
C846 C855 1.429 . S
C847 C845 1.419 . S
C847 C848 1.363 . S
C847 H850 0.929 . S
C848 C847 1.363 . S
C848 C854 1.428 . S
H849 C845 0.930 . S
H850 C847 0.929 . S
S851 N852 1.613 . S
S851 N853 1.610 . S
N852 S851 1.613 . S
N852 C855 1.350 . S
N853 S851 1.610 . S
N853 C854 1.351 . S
C854 C848 1.428 . S
C854 N853 1.351 . S
C854 C855 1.434 . S
C855 C846 1.429 . S
C855 N852 1.350 . S
C855 C854 1.434 . S
C856 C857 1.369 . S
C856 C858 1.419 . S
C856 H860 0.930 . S
C857 C856 1.369 . S
C857 C866 1.429 . S
C858 C856 1.419 . S
C858 C859 1.363 . S
C858 H861 0.929 . S
C859 C858 1.363 . S
C859 C865 1.428 . S
H860 C856 0.930 . S
H861 C858 0.929 . S
S862 N863 1.613 . S
S862 N864 1.610 . S
N863 S862 1.613 . S
N863 C866 1.350 . S
N864 S862 1.610 . S
N864 C865 1.351 . S
C865 C859 1.428 . S
C865 N864 1.351 . S
C865 C866 1.434 . S
C866 C857 1.429 . S
C866 N863 1.350 . S
C866 C865 1.434 . S
C867 C868 1.369 . S
C867 C869 1.419 . S
C867 H871 0.930 . S
C868 C867 1.369 . S
C868 C877 1.429 . S
C869 C867 1.419 . S
C869 C870 1.363 . S
C869 H872 0.929 . S
C870 C869 1.363 . S
C870 C876 1.428 . S
H871 C867 0.930 . S
H872 C869 0.929 . S
S873 N874 1.613 . S
S873 N875 1.610 . S
N874 S873 1.613 . S
N874 C877 1.350 . S
N875 S873 1.610 . S
N875 C876 1.351 . S
C876 C870 1.428 . S
C876 N875 1.351 . S
C876 C877 1.434 . S
C877 C868 1.429 . S
C877 N874 1.350 . S
C877 C876 1.434 . S
C878 C879 1.369 . S
C878 C880 1.419 . S
C878 H882 0.930 . S
C879 C878 1.369 . S
C879 C888 1.429 . S
C880 C878 1.419 . S
C880 C881 1.363 . S
C880 H883 0.929 . S
C881 C880 1.363 . S
C881 C887 1.428 . S
H882 C878 0.930 . S
H883 C880 0.929 . S
S884 N885 1.614 . S
S884 N886 1.610 . S
N885 S884 1.614 . S
N885 C888 1.352 . S
N886 S884 1.610 . S
N886 C887 1.351 . S
C887 C881 1.428 . S
C887 N886 1.351 . S
C887 C888 1.434 . S
C888 C879 1.429 . S
C888 N885 1.352 . S
C888 C887 1.434 . S
C889 C890 1.369 . S
C889 C891 1.419 . S
C889 H893 0.930 . S
C890 C889 1.369 . S
C890 C899 1.429 . S
C891 C889 1.419 . S
C891 C892 1.363 . S
C891 H894 0.929 . S
C892 C891 1.363 . S
C892 C898 1.428 . S
H893 C889 0.930 . S
H894 C891 0.929 . S
S895 N896 1.613 . S
S895 N897 1.610 1_556 S
N896 S895 1.613 . S
N896 C899 1.350 . S
N897 S895 1.610 1_554 S
N897 C898 1.351 1_554 S
C898 C892 1.428 . S
C898 N897 1.351 1_556 S
C898 C899 1.434 . S
C899 C890 1.429 . S
C899 N896 1.350 . S
C899 C898 1.434 . S
C900 C901 1.369 . S
C900 C902 1.419 . S
C900 H904 0.930 . S
C901 C900 1.369 . S
C901 C910 1.429 . S
C902 C900 1.419 . S
C902 C903 1.363 . S
C902 H905 0.929 . S
C903 C902 1.363 . S
C903 C909 1.428 . S
H904 C900 0.930 . S
H905 C902 0.929 . S
S906 N907 1.613 . S
S906 N908 1.610 . S
N907 S906 1.613 . S
N907 C910 1.350 . S
N908 S906 1.610 . S
N908 C909 1.351 . S
C909 C903 1.428 . S
C909 N908 1.351 . S
C909 C910 1.434 . S
C910 C901 1.429 . S
C910 N907 1.350 . S
C910 C909 1.434 . S
C911 C912 1.369 . S
C911 C913 1.419 . S
C911 H915 0.930 . S
C912 C911 1.369 . S
C912 C921 1.429 . S
C913 C911 1.419 . S
C913 C914 1.363 . S
C913 H916 0.929 . S
C914 C913 1.363 . S
C914 C920 1.428 . S
H915 C911 0.930 . S
H916 C913 0.929 . S
S917 N918 1.613 . S
S917 N919 1.610 . S
N918 S917 1.613 . S
N918 C921 1.350 . S
N919 S917 1.610 . S
N919 C920 1.351 . S
C920 C914 1.428 . S
C920 N919 1.351 . S
C920 C921 1.434 . S
C921 C912 1.429 . S
C921 N918 1.350 . S
C921 C920 1.434 . S
C922 C923 1.369 . S
C922 C924 1.419 . S
C922 H926 0.930 . S
C923 C922 1.369 . S
C923 C932 1.429 . S
C924 C922 1.419 . S
C924 C925 1.363 . S
C924 H927 0.929 . S
C925 C924 1.363 . S
C925 C931 1.428 . S
H926 C922 0.930 . S
H927 C924 0.929 . S
S928 N929 1.613 . S
S928 N930 1.610 . S
N929 S928 1.613 . S
N929 C932 1.350 . S
N930 S928 1.610 . S
N930 C931 1.351 . S
C931 C925 1.428 . S
C931 N930 1.351 . S
C931 C932 1.434 . S
C932 C923 1.429 . S
C932 N929 1.350 . S
C932 C931 1.434 . S
C933 C934 1.369 . S
C933 C935 1.419 . S
C933 H937 0.930 . S
C934 C933 1.369 . S
C934 C943 1.429 . S
C935 C933 1.419 . S
C935 C936 1.363 . S
C935 H938 0.929 . S
C936 C935 1.363 . S
C936 C942 1.428 . S
H937 C933 0.930 . S
H938 C935 0.929 . S
S939 N940 1.613 . S
S939 N941 1.610 . S
N940 S939 1.613 . S
N940 C943 1.350 . S
N941 S939 1.610 . S
N941 C942 1.351 . S
C942 C936 1.428 . S
C942 N941 1.351 . S
C942 C943 1.434 . S
C943 C934 1.429 . S
C943 N940 1.350 . S
C943 C942 1.434 . S
C944 C945 1.369 . S
C944 C946 1.419 . S
C944 H948 0.930 . S
C945 C944 1.369 . S
C945 C954 1.429 . S
C946 C944 1.419 . S
C946 C947 1.363 . S
C946 H949 0.929 . S
C947 C946 1.363 . S
C947 C953 1.428 . S
H948 C944 0.930 . S
H949 C946 0.929 . S
S950 N951 1.613 . S
S950 N952 1.610 . S
N951 S950 1.613 . S
N951 C954 1.350 . S
N952 S950 1.610 . S
N952 C953 1.351 . S
C953 C947 1.428 . S
C953 N952 1.351 . S
C953 C954 1.434 . S
C954 C945 1.429 . S
C954 N951 1.350 . S
C954 C953 1.434 . S
C955 C956 1.369 . S
C955 C957 1.419 . S
C955 H959 0.930 . S
C956 C955 1.369 . S
C956 C965 1.429 . S
C957 C955 1.419 . S
C957 C958 1.363 . S
C957 H960 0.929 . S
C958 C957 1.363 . S
C958 C964 1.428 . S
H959 C955 0.930 . S
H960 C957 0.929 . S
S961 N962 1.613 . S
S961 N963 1.610 . S
N962 S961 1.613 . S
N962 C965 1.350 . S
N963 S961 1.610 . S
N963 C964 1.351 . S
C964 C958 1.428 . S
C964 N963 1.351 . S
C964 C965 1.434 . S
C965 C956 1.429 . S
C965 N962 1.350 . S
C965 C964 1.434 . S
C966 C967 1.369 . S
C966 C968 1.419 . S
C966 H970 0.930 . S
C967 C966 1.369 . S
C967 C976 1.429 . S
C968 C966 1.419 . S
C968 C969 1.363 . S
C968 H971 0.929 . S
C969 C968 1.363 . S
C969 C975 1.428 . S
H970 C966 0.930 . S
H971 C968 0.929 . S
S972 N973 1.613 . S
S972 N974 1.610 . S
N973 S972 1.613 . S
N973 C976 1.350 . S
N974 S972 1.610 . S
N974 C975 1.351 . S
C975 C969 1.428 . S
C975 N974 1.351 . S
C975 C976 1.434 . S
C976 C967 1.429 . S
C976 N973 1.350 . S
C976 C975 1.434 . S
C977 C978 1.369 . S
C977 C979 1.419 . S
C977 H981 0.930 . S
C978 C977 1.369 . S
C978 C987 1.429 . S
C979 C977 1.419 . S
C979 C980 1.363 . S
C979 H982 0.929 . S
C980 C979 1.363 . S
C980 C986 1.428 . S
H981 C977 0.930 . S
H982 C979 0.929 . S
S983 N984 1.613 . S
S983 N985 1.610 . S
N984 S983 1.613 . S
N984 C987 1.350 . S
N985 S983 1.610 . S
N985 C986 1.351 . S
C986 C980 1.428 . S
C986 N985 1.351 . S
C986 C987 1.434 . S
C987 C978 1.429 . S
C987 N984 1.350 . S
C987 C986 1.434 . S
C988 C989 1.369 . S
C988 C990 1.419 . S
C988 H992 0.930 . S
C989 C988 1.369 . S
C989 C998 1.429 . S
C990 C988 1.419 . S
C990 C991 1.363 . S
C990 H993 0.929 . S
C991 C990 1.363 . S
C991 C997 1.428 . S
H992 C988 0.930 . S
H993 C990 0.929 . S
S994 N995 1.613 . S
S994 N996 1.610 . S
N995 S994 1.613 . S
N995 C998 1.350 . S
N996 S994 1.610 . S
N996 C997 1.351 . S
C997 C991 1.428 . S
C997 N996 1.351 . S
C997 C998 1.434 . S
C998 C989 1.429 . S
C998 N995 1.350 . S
C998 C997 1.434 . S
C999 C1000 1.369 . S
C999 C1001 1.419 . S
C999 H1003 0.930 . S
C1000 C999 1.369 . S
C1000 C1009 1.429 . S
C1001 C999 1.419 . S
C1001 C1002 1.363 . S
C1001 H1004 0.929 . S
C1002 C1001 1.363 . S
C1002 C1008 1.428 . S
H1003 C999 0.930 . S
H1004 C1001 0.929 . S
S1005 N1006 1.613 . S
S1005 N1007 1.610 . S
N1006 S1005 1.613 . S
N1006 C1009 1.350 . S
N1007 S1005 1.610 . S
N1007 C1008 1.351 . S
C1008 C1002 1.428 . S
C1008 N1007 1.351 . S
C1008 C1009 1.434 . S
C1009 C1000 1.429 . S
C1009 N1006 1.350 . S
C1009 C1008 1.434 . S
C1010 C1011 1.369 . S
C1010 C1012 1.419 . S
C1010 H1014 0.930 . S
C1011 C1010 1.369 . S
C1011 C1020 1.429 . S
C1012 C1010 1.419 . S
C1012 C1013 1.363 . S
C1012 H1015 0.929 . S
C1013 C1012 1.363 . S
C1013 C1019 1.428 . S
H1014 C1010 0.930 . S
H1015 C1012 0.929 . S
S1016 N1017 1.613 . S
S1016 N1018 1.610 . S
N1017 S1016 1.613 . S
N1017 C1020 1.350 . S
N1018 S1016 1.610 . S
N1018 C1019 1.351 . S
C1019 C1013 1.428 . S
C1019 N1018 1.351 . S
C1019 C1020 1.434 . S
C1020 C1011 1.429 . S
C1020 N1017 1.350 . S
C1020 C1019 1.434 . S
C1021 C1022 1.369 . S
C1021 C1023 1.419 . S
C1021 H1025 0.930 . S
C1022 C1021 1.369 . S
C1022 C1031 1.429 . S
C1023 C1021 1.419 . S
C1023 C1024 1.363 . S
C1023 H1026 0.929 . S
C1024 C1023 1.363 . S
C1024 C1030 1.428 . S
H1025 C1021 0.930 . S
H1026 C1023 0.929 . S
S1027 N1028 1.613 . S
S1027 N1029 1.610 . S
N1028 S1027 1.613 . S
N1028 C1031 1.350 . S
N1029 S1027 1.610 . S
N1029 C1030 1.351 . S
C1030 C1024 1.428 . S
C1030 N1029 1.351 . S
C1030 C1031 1.434 . S
C1031 C1022 1.429 . S
C1031 N1028 1.350 . S
C1031 C1030 1.434 . S
C1032 C1033 1.369 . S
C1032 C1034 1.419 . S
C1032 H1036 0.930 . S
C1033 C1032 1.369 . S
C1033 C1042 1.429 . S
C1034 C1032 1.419 . S
C1034 C1035 1.363 . S
C1034 H1037 0.929 . S
C1035 C1034 1.363 . S
C1035 C1041 1.428 . S
H1036 C1032 0.930 . S
H1037 C1034 0.929 . S
S1038 N1039 1.613 . S
S1038 N1040 1.610 . S
N1039 S1038 1.613 . S
N1039 C1042 1.350 . S
N1040 S1038 1.610 . S
N1040 C1041 1.351 . S
C1041 C1035 1.428 . S
C1041 N1040 1.351 . S
C1041 C1042 1.434 . S
C1042 C1033 1.429 . S
C1042 N1039 1.350 . S
C1042 C1041 1.434 . S
C1043 C1044 1.369 . S
C1043 C1045 1.419 . S
C1043 H1047 0.930 . S
C1044 C1043 1.369 . S
C1044 C1053 1.429 . S
C1045 C1043 1.419 . S
C1045 C1046 1.363 . S
C1045 H1048 0.929 . S
C1046 C1045 1.363 . S
C1046 C1052 1.428 . S
H1047 C1043 0.930 . S
H1048 C1045 0.929 . S
S1049 N1050 1.613 . S
S1049 N1051 1.610 . S
N1050 S1049 1.613 . S
N1050 C1053 1.350 . S
N1051 S1049 1.610 . S
N1051 C1052 1.351 . S
C1052 C1046 1.428 . S
C1052 N1051 1.351 . S
C1052 C1053 1.434 . S
C1053 C1044 1.429 . S
C1053 N1050 1.350 . S
C1053 C1052 1.434 . S
C1054 C1055 1.369 . S
C1054 C1056 1.419 . S
C1054 H1058 0.930 . S
C1055 C1054 1.369 . S
C1055 C1064 1.429 . S
C1056 C1054 1.419 . S
C1056 C1057 1.363 . S
C1056 H1059 0.929 . S
C1057 C1056 1.363 . S
C1057 C1063 1.428 . S
H1058 C1054 0.930 . S
H1059 C1056 0.929 . S
S1060 N1061 1.613 . S
S1060 N1062 1.610 . S
N1061 S1060 1.613 . S
N1061 C1064 1.350 . S
N1062 S1060 1.610 . S
N1062 C1063 1.351 . S
C1063 C1057 1.428 . S
C1063 N1062 1.351 . S
C1063 C1064 1.434 . S
C1064 C1055 1.429 . S
C1064 N1061 1.350 . S
C1064 C1063 1.434 . S
C1065 C1066 1.369 . S
C1065 C1067 1.419 . S
C1065 H1069 0.930 . S
C1066 C1065 1.369 . S
C1066 C1075 1.429 . S
C1067 C1065 1.419 . S
C1067 C1068 1.363 . S
C1067 H1070 0.929 . S
C1068 C1067 1.363 . S
C1068 C1074 1.428 . S
H1069 C1065 0.930 . S
H1070 C1067 0.929 . S
S1071 N1072 1.609 1_554 S
S1071 N1073 1.610 . S
N1072 S1071 1.609 1_556 S
N1072 C1075 1.342 1_556 S
N1073 S1071 1.610 . S
N1073 C1074 1.351 . S
C1074 C1068 1.428 . S
C1074 N1073 1.351 . S
C1074 C1075 1.434 . S
C1075 C1066 1.429 . S
C1075 N1072 1.342 1_554 S
C1075 C1074 1.434 . S
C1076 C1077 1.369 . S
C1076 C1078 1.419 . S
C1076 H1080 0.930 . S
C1077 C1076 1.369 . S
C1077 C1086 1.429 . S
C1078 C1076 1.419 . S
C1078 C1079 1.363 . S
C1078 H1081 0.929 . S
C1079 C1078 1.363 . S
C1079 C1085 1.428 . S
H1080 C1076 0.930 . S
H1081 C1078 0.929 . S
S1082 N1083 1.613 . S
S1082 N1084 1.610 1_556 S
N1083 S1082 1.613 . S
N1083 C1086 1.350 1_556 S
N1084 S1082 1.610 1_554 S
N1084 C1085 1.351 . S
C1085 C1079 1.428 . S
C1085 N1084 1.351 . S
C1085 C1086 1.434 . S
C1086 C1077 1.429 . S
C1086 N1083 1.350 1_554 S
C1086 C1085 1.434 . S
C1087 C1088 1.369 . S
C1087 C1089 1.419 . S
C1087 H1091 0.930 . S
C1088 C1087 1.369 . S
C1088 C1097 1.429 . S
C1089 C1087 1.419 . S
C1089 C1090 1.363 . S
C1089 H1092 0.929 . S
C1090 C1089 1.363 . S
C1090 C1096 1.428 . S
H1091 C1087 0.930 . S
H1092 C1089 0.929 . S
S1093 N1094 1.615 . S
S1093 N1095 1.610 . S
N1094 S1093 1.615 . S
N1094 C1097 1.353 . S
N1095 S1093 1.610 . S
N1095 C1096 1.351 . S
C1096 C1090 1.428 . S
C1096 N1095 1.351 . S
C1096 C1097 1.434 . S
C1097 C1088 1.429 . S
C1097 N1094 1.353 . S
C1097 C1096 1.434 . S
C1098 C1099 1.369 . S
C1098 C1100 1.419 . S
C1098 H1102 0.930 1_554 S
C1099 C1098 1.369 . S
C1099 C1108 1.429 . S
C1100 C1098 1.419 . S
C1100 C1101 1.363 . S
C1100 H1103 0.929 . S
C1101 C1100 1.363 . S
C1101 C1107 1.428 . S
H1102 C1098 0.930 1_556 S
H1103 C1100 0.929 . S
S1104 N1105 1.613 . S
S1104 N1106 1.610 . S
N1105 S1104 1.613 . S
N1105 C1108 1.350 . S
N1106 S1104 1.610 . S
N1106 C1107 1.351 . S
C1107 C1101 1.428 . S
C1107 N1106 1.351 . S
C1107 C1108 1.434 . S
C1108 C1099 1.429 . S
C1108 N1105 1.350 . S
C1108 C1107 1.434 . S
C1109 C1110 1.369 . S
C1109 C1111 1.419 . S
C1109 H1113 0.930 . S
C1110 C1109 1.369 . S
C1110 C1119 1.429 . S
C1111 C1109 1.419 . S
C1111 C1112 1.363 . S
C1111 H1114 0.929 1_554 S
C1112 C1111 1.363 . S
C1112 C1118 1.428 . S
H1113 C1109 0.930 . S
H1114 C1111 0.929 1_556 S
S1115 N1116 1.613 . S
S1115 N1117 1.610 . S
N1116 S1115 1.613 . S
N1116 C1119 1.350 . S
N1117 S1115 1.610 . S
N1117 C1118 1.351 . S
C1118 C1112 1.428 . S
C1118 N1117 1.351 . S
C1118 C1119 1.434 . S
C1119 C1110 1.429 . S
C1119 N1116 1.350 . S
C1119 C1118 1.434 . S
C1120 C1121 1.369 . S
C1120 C1122 1.419 . S
C1120 H1124 0.930 . S
C1121 C1120 1.369 . S
C1121 C1130 1.429 . S
C1122 C1120 1.419 . S
C1122 C1123 1.363 . S
C1122 H1125 0.929 . S
C1123 C1122 1.363 . S
C1123 C1129 1.428 . S
H1124 C1120 0.930 . S
H1125 C1122 0.929 . S
S1126 N1127 1.613 . S
S1126 N1128 1.610 . S
N1127 S1126 1.613 . S
N1127 C1130 1.350 . S
N1128 S1126 1.610 . S
N1128 C1129 1.351 . S
C1129 C1123 1.428 . S
C1129 N1128 1.351 . S
C1129 C1130 1.434 . S
C1130 C1121 1.429 . S
C1130 N1127 1.350 . S
C1130 C1129 1.434 . S
C1131 C1132 1.369 . S
C1131 C1133 1.419 . S
C1131 H1135 0.930 . S
C1132 C1131 1.369 . S
C1132 C1141 1.429 . S
C1133 C1131 1.419 . S
C1133 C1134 1.363 . S
C1133 H1136 0.929 . S
C1134 C1133 1.363 . S
C1134 C1140 1.428 . S
H1135 C1131 0.930 . S
H1136 C1133 0.929 . S
S1137 N1138 1.613 . S
S1137 N1139 1.610 . S
N1138 S1137 1.613 . S
N1138 C1141 1.350 . S
N1139 S1137 1.610 . S
N1139 C1140 1.351 . S
C1140 C1134 1.428 . S
C1140 N1139 1.351 . S
C1140 C1141 1.434 . S
C1141 C1132 1.429 . S
C1141 N1138 1.350 . S
C1141 C1140 1.434 . S
C1142 C1143 1.369 . S
C1142 C1144 1.419 . S
C1142 H1146 0.930 . S
C1143 C1142 1.369 . S
C1143 C1152 1.429 . S
C1144 C1142 1.419 . S
C1144 C1145 1.363 . S
C1144 H1147 0.929 . S
C1145 C1144 1.363 . S
C1145 C1151 1.428 . S
H1146 C1142 0.930 . S
H1147 C1144 0.929 . S
S1148 N1149 1.613 . S
S1148 N1150 1.610 . S
N1149 S1148 1.613 . S
N1149 C1152 1.350 . S
N1150 S1148 1.610 . S
N1150 C1151 1.351 . S
C1151 C1145 1.428 . S
C1151 N1150 1.351 . S
C1151 C1152 1.434 . S
C1152 C1143 1.429 . S
C1152 N1149 1.350 . S
C1152 C1151 1.434 . S
C1153 C1154 1.369 . S
C1153 C1155 1.419 . S
C1153 H1157 0.930 . S
C1154 C1153 1.369 . S
C1154 C1163 1.429 . S
C1155 C1153 1.419 . S
C1155 C1156 1.363 . S
C1155 H1158 0.929 . S
C1156 C1155 1.363 . S
C1156 C1162 1.428 . S
H1157 C1153 0.930 . S
H1158 C1155 0.929 . S
S1159 N1160 1.613 . S
S1159 N1161 1.610 . S
N1160 S1159 1.613 . S
N1160 C1163 1.350 . S
N1161 S1159 1.610 . S
N1161 C1162 1.351 . S
C1162 C1156 1.428 . S
C1162 N1161 1.351 . S
C1162 C1163 1.434 . S
C1163 C1154 1.429 . S
C1163 N1160 1.350 . S
C1163 C1162 1.434 . S
C1164 C1165 1.369 . S
C1164 C1166 1.419 . S
C1164 H1168 0.930 . S
C1165 C1164 1.369 . S
C1165 C1174 1.429 . S
C1166 C1164 1.419 . S
C1166 C1167 1.363 . S
C1166 H1169 0.929 1_556 S
C1167 C1166 1.363 . S
C1167 C1173 1.428 . S
H1168 C1164 0.930 . S
H1169 C1166 0.929 1_554 S
S1170 N1171 1.613 . S
S1170 N1172 1.610 . S
N1171 S1170 1.613 . S
N1171 C1174 1.350 . S
N1172 S1170 1.610 . S
N1172 C1173 1.351 . S
C1173 C1167 1.428 . S
C1173 N1172 1.351 . S
C1173 C1174 1.434 . S
C1174 C1165 1.429 . S
C1174 N1171 1.350 . S
C1174 C1173 1.434 . S
C1175 C1176 1.369 . S
C1175 C1177 1.419 . S
C1175 H1179 0.930 1_556 S
C1176 C1175 1.369 . S
C1176 C1185 1.429 . S
C1177 C1175 1.419 . S
C1177 C1178 1.363 . S
C1177 H1180 0.929 . S
C1178 C1177 1.363 . S
C1178 C1184 1.428 . S
H1179 C1175 0.930 1_554 S
H1180 C1177 0.929 . S
S1181 N1182 1.613 . S
S1181 N1183 1.610 . S
N1182 S1181 1.613 . S
N1182 C1185 1.350 . S
N1183 S1181 1.610 . S
N1183 C1184 1.351 . S
C1184 C1178 1.428 . S
C1184 N1183 1.351 . S
C1184 C1185 1.434 . S
C1185 C1176 1.429 . S
C1185 N1182 1.350 . S
C1185 C1184 1.434 . S
C1186 C1187 1.369 . S
C1186 C1188 1.419 . S
C1186 H1190 0.930 . S
C1187 C1186 1.369 . S
C1187 C1196 1.429 . S
C1188 C1186 1.419 . S
C1188 C1189 1.363 . S
C1188 H1191 0.929 1_556 S
C1189 C1188 1.363 . S
C1189 C1195 1.428 . S
H1190 C1186 0.930 . S
H1191 C1188 0.929 1_554 S
S1192 N1193 1.613 . S
S1192 N1194 1.610 . S
N1193 S1192 1.613 . S
N1193 C1196 1.350 . S
N1194 S1192 1.610 . S
N1194 C1195 1.351 . S
C1195 C1189 1.428 . S
C1195 N1194 1.351 . S
C1195 C1196 1.434 . S
C1196 C1187 1.429 . S
C1196 N1193 1.350 . S
C1196 C1195 1.434 . S
C1197 C1198 1.369 . S
C1197 C1199 1.419 . S
C1197 H1201 0.930 . S
C1198 C1197 1.369 . S
C1198 C1207 1.429 . S
C1199 C1197 1.419 . S
C1199 C1200 1.363 . S
C1199 H1202 0.929 . S
C1200 C1199 1.363 . S
C1200 C1206 1.428 . S
H1201 C1197 0.930 . S
H1202 C1199 0.929 . S
S1203 N1204 1.613 . S
S1203 N1205 1.610 . S
N1204 S1203 1.613 . S
N1204 C1207 1.350 . S
N1205 S1203 1.610 . S
N1205 C1206 1.351 . S
C1206 C1200 1.428 . S
C1206 N1205 1.351 . S
C1206 C1207 1.434 . S
C1207 C1198 1.429 . S
C1207 N1204 1.350 . S
C1207 C1206 1.434 . S
C1208 C1209 1.369 . S
C1208 C1210 1.419 . S
C1208 H1212 0.930 . S
C1209 C1208 1.369 . S
C1209 C1218 1.429 . S
C1210 C1208 1.419 . S
C1210 C1211 1.363 . S
C1210 H1213 0.929 . S
C1211 C1210 1.363 . S
C1211 C1217 1.428 . S
H1212 C1208 0.930 . S
H1213 C1210 0.929 . S
S1214 N1215 1.613 . S
S1214 N1216 1.610 . S
N1215 S1214 1.613 . S
N1215 C1218 1.350 . S
N1216 S1214 1.610 . S
N1216 C1217 1.351 . S
C1217 C1211 1.428 . S
C1217 N1216 1.351 . S
C1217 C1218 1.434 . S
C1218 C1209 1.429 . S
C1218 N1215 1.350 . S
C1218 C1217 1.434 . S
C1219 C1220 1.369 . S
C1219 C1221 1.419 . S
C1219 H1223 0.930 . S
C1220 C1219 1.369 . S
C1220 C1229 1.429 . S
C1221 C1219 1.419 . S
C1221 C1222 1.363 . S
C1221 H1224 0.929 . S
C1222 C1221 1.363 . S
C1222 C1228 1.428 . S
H1223 C1219 0.930 . S
H1224 C1221 0.929 . S
S1225 N1226 1.613 . S
S1225 N1227 1.610 . S
N1226 S1225 1.613 . S
N1226 C1229 1.350 . S
N1227 S1225 1.610 . S
N1227 C1228 1.351 . S
C1228 C1222 1.428 . S
C1228 N1227 1.351 . S
C1228 C1229 1.434 . S
C1229 C1220 1.429 . S
C1229 N1226 1.350 . S
C1229 C1228 1.434 . S
C1230 C1231 1.369 . S
C1230 C1232 1.419 1_455 S
C1230 H1234 0.930 . S
C1231 C1230 1.369 . S
C1231 C1240 1.429 . S
C1232 C1230 1.419 1_655 S
C1232 C1233 1.363 . S
C1232 H1235 0.929 . S
C1233 C1232 1.363 . S
C1233 C1239 1.428 . S
H1234 C1230 0.930 . S
H1235 C1232 0.929 . S
S1236 N1237 1.612 1_655 S
S1236 N1238 1.614 . S
N1237 S1236 1.612 1_455 S
N1237 C1240 1.350 . S
N1238 S1236 1.614 . S
N1238 C1239 1.351 . S
C1239 C1233 1.428 . S
C1239 N1238 1.351 . S
C1239 C1240 1.434 1_655 S
C1240 C1231 1.429 . S
C1240 N1237 1.350 . S
C1240 C1239 1.434 1_455 S
C1241 C1242 1.369 . S
C1241 C1243 1.419 . S
C1241 H1245 0.930 . S
C1242 C1241 1.369 . S
C1242 C1251 1.429 . S
C1243 C1241 1.419 . S
C1243 C1244 1.363 . S
C1243 H1246 0.929 . S
C1244 C1243 1.363 . S
C1244 C1250 1.428 . S
H1245 C1241 0.930 . S
H1246 C1243 0.929 . S
S1247 N1248 1.613 . S
S1247 N1249 1.610 . S
N1248 S1247 1.613 . S
N1248 C1251 1.350 . S
N1249 S1247 1.610 . S
N1249 C1250 1.351 . S
C1250 C1244 1.428 . S
C1250 N1249 1.351 . S
C1250 C1251 1.434 . S
C1251 C1242 1.429 . S
C1251 N1248 1.350 . S
C1251 C1250 1.434 . S
C1252 C1253 1.369 . S
C1252 C1254 1.419 1_565 S
C1252 H1256 0.930 . S
C1253 C1252 1.369 . S
C1253 C1262 1.429 . S
C1254 C1252 1.419 1_545 S
C1254 C1255 1.363 . S
C1254 H1257 0.929 . S
C1255 C1254 1.363 . S
C1255 C1261 1.428 . S
H1256 C1252 0.930 . S
H1257 C1254 0.929 . S
S1258 N1259 1.613 . S
S1258 N1260 1.610 1_565 S
N1259 S1258 1.613 . S
N1259 C1262 1.350 . S
N1260 S1258 1.610 1_545 S
N1260 C1261 1.351 . S
C1261 C1255 1.428 . S
C1261 N1260 1.351 . S
C1261 C1262 1.434 1_545 S
C1262 C1253 1.429 . S
C1262 N1259 1.350 . S
C1262 C1261 1.434 1_565 S
C1263 C1264 1.369 . S
C1263 C1265 1.419 1_545 S
C1263 H1267 0.930 . S
C1264 C1263 1.369 . S
C1264 C1273 1.429 . S
C1265 C1263 1.419 1_565 S
C1265 C1266 1.363 . S
C1265 H1268 0.929 . S
C1266 C1265 1.363 . S
C1266 C1272 1.428 . S
H1267 C1263 0.930 . S
H1268 C1265 0.929 . S
S1269 N1270 1.613 1_565 S
S1269 N1271 1.610 . S
N1270 S1269 1.613 1_545 S
N1270 C1273 1.350 . S
N1271 S1269 1.610 . S
N1271 C1272 1.351 . S
C1272 C1266 1.428 . S
C1272 N1271 1.351 . S
C1272 C1273 1.434 1_565 S
C1273 C1264 1.429 . S
C1273 N1270 1.350 . S
C1273 C1272 1.434 1_545 S
C1274 C1275 1.369 . S
C1274 C1276 1.419 1_455 S
C1274 H1278 0.930 . S
C1275 C1274 1.369 . S
C1275 C1284 1.429 . S
C1276 C1274 1.419 1_655 S
C1276 C1277 1.363 . S
C1276 H1279 0.929 . S
C1277 C1276 1.363 . S
C1277 C1283 1.428 . S
H1278 C1274 0.930 . S
H1279 C1276 0.929 . S
S1280 N1281 1.613 . S
S1280 N1282 1.610 1_455 S
N1281 S1280 1.613 . S
N1281 C1284 1.350 . S
N1282 S1280 1.610 1_655 S
N1282 C1283 1.351 . S
C1283 C1277 1.428 . S
C1283 N1282 1.351 . S
C1283 C1284 1.434 1_655 S
C1284 C1275 1.429 . S
C1284 N1281 1.350 . S
C1284 C1283 1.434 1_455 S
C1285 C1286 1.369 . S
C1285 C1287 1.419 . S
C1285 H1289 0.930 . S
C1286 C1285 1.369 . S
C1286 C1295 1.429 . S
C1287 C1285 1.419 . S
C1287 C1288 1.363 . S
C1287 H1290 0.929 . S
C1288 C1287 1.363 . S
C1288 C1294 1.428 . S
H1289 C1285 0.930 . S
H1290 C1287 0.929 . S
S1291 N1292 1.613 . S
S1291 N1293 1.610 . S
N1292 S1291 1.613 . S
N1292 C1295 1.350 . S
N1293 S1291 1.610 . S
N1293 C1294 1.351 . S
C1294 C1288 1.428 . S
C1294 N1293 1.351 . S
C1294 C1295 1.434 . S
C1295 C1286 1.429 . S
C1295 N1292 1.350 . S
C1295 C1294 1.434 . S
C505 C53 1.321 . S
C507 C11 1.322 . S
C516 C67 1.320 . S
C518 C25 1.318 . S
C527 C81 1.319 . S
C529 C39 1.318 . S
C538 C95 1.321 . S
C540 C137 1.322 . S
C549 C109 1.318 . S
C551 C151 1.320 . S
C560 C165 1.322 . S
C562 C123 1.320 . S
C571 C179 1.320 . S
C573 C221 1.318 . S
C582 C193 1.321 . S
C584 C235 1.322 . S
C593 C207 1.322 . S
C595 C249 1.322 . S
C604 C263 1.318 . S
C606 C305 1.321 . S
C615 C319 1.322 . S
C617 C277 1.320 . S
C626 C291 1.322 . S
C628 C333 1.321 . S
C637 C347 1.319 . S
C639 C389 1.322 . S
C648 C361 1.322 . S
C650 C403 1.319 . S
C659 C417 1.322 . S
C661 C375 1.320 . S
C670 C473 1.320 . S
C672 C431 1.322 . S
C681 C487 1.319 . S
C683 C445 1.321 . S
C692 C501 1.318 . S
C694 C459 1.319 . S
C703 C167 1.282 . S
C705 C8 1.319 . S
C714 C22 1.320 . S
C716 C139 1.280 . S
C725 C36 1.316 . S
C727 C153 1.270 . S
C736 C111 1.280 . S
C738 C50 1.315 . S
C747 C64 1.312 . S
C749 C125 1.276 . S
C758 C97 1.282 . S
C760 C78 1.316 . S
C769 C92 1.318 . S
C771 C83 1.269 . S
C780 C106 1.314 . S
C782 C55 1.271 . S
C791 C69 1.282 . S
C793 C120 1.315 . S
C802 C27 1.280 . S
C804 C134 1.320 . S
C813 C41 1.280 . S
C815 C148 1.314 . S
C824 C162 1.312 . S
C826 C13 1.274 . S
C835 C176 1.315 . S
C837 C335 1.280 . S
C846 C307 1.277 . S
C848 C190 1.313 . S
C857 C321 1.270 . S
C859 C204 1.320 . S
C868 C218 1.323 . S
C870 C279 1.276 1_556 S
C879 C293 1.269 1_556 S
C881 C232 1.319 . S
C890 C246 1.316 . S
C892 C265 1.270 1_556 S
C901 C260 1.313 . S
C903 C251 1.279 . S
C912 C274 1.313 . S
C914 C223 1.279 . S
C923 C237 1.281 . S
C925 C288 1.315 . S
C934 C195 1.273 . S
C936 C302 1.322 . S
C945 C209 1.270 . S
C947 C316 1.315 . S
C956 C330 1.323 . S
C958 C181 1.273 . S
C967 C503 1.281 . S
C969 C344 1.315 . S
C978 C358 1.323 . S
C980 C475 1.274 . S
C989 C372 1.317 . S
C991 C489 1.270 . S
C1000 C386 1.313 . S
C1002 C447 1.271 . S
C1011 C461 1.281 . S
C1013 C400 1.315 . S
C1022 C414 1.319 . S
C1024 C433 1.281 . S
C1033 C419 1.271 . S
C1035 C428 1.321 . S
C1044 C391 1.279 . S
C1046 C442 1.321 . S
C1055 C405 1.282 . S
C1057 C456 1.316 . S
C1066 C363 1.274 1_554 S
C1068 C470 1.322 . S
C1077 C377 1.271 1_554 S
C1079 C484 1.321 . S
C1088 C349 1.268 1_554 S
C1090 C498 1.317 . S
C1099 C413 1.442 . S
C1101 C7 1.442 . S
C1110 C21 1.442 . S
C1112 C385 1.442 . S
C1121 C399 1.447 . S
C1123 C35 1.446 . S
C1132 C49 1.440 . S
C1134 C189 1.441 . S
C1143 C203 1.447 . S
C1145 C63 1.446 . S
C1154 C77 1.442 . S
C1156 C175 1.442 . S
C1165 C91 1.443 . S
C1167 C329 1.443 . S
C1176 C301 1.440 . S
C1178 C105 1.441 . S
C1187 C119 1.444 . S
C1189 C315 1.443 . S
C1198 C133 1.441 . S
C1200 C441 1.441 . S
C1209 C147 1.441 . S
C1211 C455 1.441 . S
C1220 C427 1.447 . S
C1222 C161 1.446 . S
C1231 C357 1.440 . S
C1233 C217 1.441 . S
C1242 C371 1.440 . S
C1244 C231 1.441 . S
C1253 C343 1.443 . S
C1255 C245 1.444 . S
C1264 C259 1.447 . S
C1266 C497 1.445 . S
C1275 C469 1.443 . S
C1277 C273 1.444 . S
C1286 C287 1.440 . S
C1288 C483 1.441 . S
