# Generated by pormake.
# Topology uki, (4)-cn, num edge types: 1
# Building blocks:
#     Node 0, Type 0, BuildingBlock: CEKHIL_clean_sbu_0, # of connection points: 4
#     Node 1, Type 0, BuildingBlock: CEKHIL_clean_sbu_0, # of connection points: 4
#     Node 2, Type 0, BuildingBlock: CEKHIL_clean_sbu_0, # of connection points: 4
#     Node 3, Type 0, BuildingBlock: CEKHIL_clean_sbu_0, # of connection points: 4
#     Node 4, Type 0, BuildingBlock: CEKHIL_clean_sbu_0, # of connection points: 4
#     Node 5, Type 0, BuildingBlock: CEKHIL_clean_sbu_0, # of connection points: 4
#     Node 6, Type 0, BuildingBlock: CEKHIL_clean_sbu_0, # of connection points: 4
#     Node 7, Type 0, BuildingBlock: CEKHIL_clean_sbu_0, # of connection points: 4
#     Node 8, Type 0, BuildingBlock: CEKHIL_clean_sbu_0, # of connection points: 4
#     Node 9, Type 0, BuildingBlock: CEKHIL_clean_sbu_0, # of connection points: 4
#     Node 10, Type 0, BuildingBlock: CEKHIL_clean_sbu_0, # of connection points: 4
#     Node 11, Type 0, BuildingBlock: CEKHIL_clean_sbu_0, # of connection points: 4
#     Node 12, Type 0, BuildingBlock: CEKHIL_clean_sbu_0, # of connection points: 4
#     Node 13, Type 0, BuildingBlock: CEKHIL_clean_sbu_0, # of connection points: 4
#     Node 14, Type 0, BuildingBlock: CEKHIL_clean_sbu_0, # of connection points: 4
#     Node 15, Type 0, BuildingBlock: CEKHIL_clean_sbu_0, # of connection points: 4
#     Edge 16, Type (0, 0), BuildingBlock: UVAHIK_clean_linker_0, # of connection points: 2
#     Edge 17, Type (0, 0), BuildingBlock: UVAHIK_clean_linker_0, # of connection points: 2
#     Edge 18, Type (0, 0), BuildingBlock: UVAHIK_clean_linker_0, # of connection points: 2
#     Edge 19, Type (0, 0), BuildingBlock: UVAHIK_clean_linker_0, # of connection points: 2
#     Edge 20, Type (0, 0), BuildingBlock: UVAHIK_clean_linker_0, # of connection points: 2
#     Edge 21, Type (0, 0), BuildingBlock: UVAHIK_clean_linker_0, # of connection points: 2
#     Edge 22, Type (0, 0), BuildingBlock: UVAHIK_clean_linker_0, # of connection points: 2
#     Edge 23, Type (0, 0), BuildingBlock: UVAHIK_clean_linker_0, # of connection points: 2
#     Edge 24, Type (0, 0), BuildingBlock: UVAHIK_clean_linker_0, # of connection points: 2
#     Edge 25, Type (0, 0), BuildingBlock: UVAHIK_clean_linker_0, # of connection points: 2
#     Edge 26, Type (0, 0), BuildingBlock: UVAHIK_clean_linker_0, # of connection points: 2
#     Edge 27, Type (0, 0), BuildingBlock: UVAHIK_clean_linker_0, # of connection points: 2
#     Edge 28, Type (0, 0), BuildingBlock: UVAHIK_clean_linker_0, # of connection points: 2
#     Edge 29, Type (0, 0), BuildingBlock: UVAHIK_clean_linker_0, # of connection points: 2
#     Edge 30, Type (0, 0), BuildingBlock: UVAHIK_clean_linker_0, # of connection points: 2
#     Edge 31, Type (0, 0), BuildingBlock: UVAHIK_clean_linker_0, # of connection points: 2
#     Edge 32, Type (0, 0), BuildingBlock: UVAHIK_clean_linker_0, # of connection points: 2
#     Edge 33, Type (0, 0), BuildingBlock: UVAHIK_clean_linker_0, # of connection points: 2
#     Edge 34, Type (0, 0), BuildingBlock: UVAHIK_clean_linker_0, # of connection points: 2
#     Edge 35, Type (0, 0), BuildingBlock: UVAHIK_clean_linker_0, # of connection points: 2
#     Edge 36, Type (0, 0), BuildingBlock: UVAHIK_clean_linker_0, # of connection points: 2
#     Edge 37, Type (0, 0), BuildingBlock: UVAHIK_clean_linker_0, # of connection points: 2
#     Edge 38, Type (0, 0), BuildingBlock: UVAHIK_clean_linker_0, # of connection points: 2
#     Edge 39, Type (0, 0), BuildingBlock: UVAHIK_clean_linker_0, # of connection points: 2
#     Edge 40, Type (0, 0), BuildingBlock: UVAHIK_clean_linker_0, # of connection points: 2
#     Edge 41, Type (0, 0), BuildingBlock: UVAHIK_clean_linker_0, # of connection points: 2
#     Edge 42, Type (0, 0), BuildingBlock: UVAHIK_clean_linker_0, # of connection points: 2
#     Edge 43, Type (0, 0), BuildingBlock: UVAHIK_clean_linker_0, # of connection points: 2
#     Edge 44, Type (0, 0), BuildingBlock: UVAHIK_clean_linker_0, # of connection points: 2
#     Edge 45, Type (0, 0), BuildingBlock: UVAHIK_clean_linker_0, # of connection points: 2
#     Edge 46, Type (0, 0), BuildingBlock: UVAHIK_clean_linker_0, # of connection points: 2
#     Edge 47, Type (0, 0), BuildingBlock: UVAHIK_clean_linker_0, # of connection points: 2
# Relax obj value: 0.101
# Max RMSD: 0.197
# Mean RMSD: 0.197
data_MOF--net-uki--node1-CEKHIL_clean_sbu_0--edge1-UVAHIK_clean_linker_0
_symmetry_space_group_name_H-M    P1
_symmetry_Int_Tables_number       1
_symmetry_cell_setting            triclinic
loop_
_symmetry_equiv_pos_as_xyz
'x, y, z'
_cell_length_a     39.238113
_cell_length_b     39.200442
_cell_length_c     92.934619
_cell_angle_alpha  89.999387
_cell_angle_beta   90.001537
_cell_angle_gamma 90.024114
loop_
_atom_site_label
_atom_site_type_symbol
_atom_site_fract_x
_atom_site_fract_y
_atom_site_fract_z
_atom_type_partial_charge
Co0 Co 0.13427 0.20626 0.28793 0.0
O1 O 0.1736 0.18502 0.29634 0.0
O2 O 0.12628 0.19734 0.30819 0.0
C3 C 0.16211 0.24835 0.27629 0.0
O4 O 0.08931 0.2295 0.28273 0.0
Co5 Co 0.12673 0.20752 0.25462 0.0
O6 O 0.09311 0.24362 0.2593 0.0
C7 C 0.10649 0.14569 0.27067 0.0
C8 C 0.15727 0.18546 0.30846 0.0
C9 C 0.07848 0.24558 0.27153 0.0
O10 O 0.11428 0.1605 0.2826 0.0
O11 O 0.11143 0.15941 0.25833 0.0
O12 O 0.15531 0.25095 0.28991 0.0
O13 O 0.1559 0.21885 0.27064 0.0
Co14 Co 0.20811 0.86375 0.71049 0.0
O15 O 0.18651 0.82462 0.70199 0.0
O16 O 0.19871 0.87231 0.69033 0.0
C17 C 0.25019 0.83523 0.72183 0.0
O18 O 0.23166 0.90863 0.71571 0.0
Co19 Co 0.21015 0.87079 0.74384 0.0
O20 O 0.24562 0.90508 0.73917 0.0
C21 C 0.14778 0.89047 0.72813 0.0
C22 C 0.18677 0.84132 0.68995 0.0
C23 C 0.24756 0.91967 0.72693 0.0
O24 O 0.16261 0.8837 0.71611 0.0
O25 O 0.16166 0.88501 0.7404 0.0
O26 O 0.2525 0.84229 0.70823 0.0
O27 O 0.22101 0.84189 0.72766 0.0
Co28 Co 0.86359 0.79363 0.28769 0.0
O29 O 0.82206 0.80743 0.29686 0.0
O30 O 0.87168 0.80291 0.30797 0.0
C31 C 0.84249 0.74784 0.27605 0.0
O32 O 0.91124 0.77875 0.2814 0.0
Co33 Co 0.86566 0.79715 0.25421 0.0
O34 O 0.91003 0.7742 0.25719 0.0
C35 C 0.8785 0.85958 0.27095 0.0
C36 C 0.83917 0.80947 0.30875 0.0
C37 C 0.92525 0.7712 0.26926 0.0
O38 O 0.87516 0.84241 0.28268 0.0
O39 O 0.87327 0.84673 0.25848 0.0
O40 O 0.85101 0.74591 0.28951 0.0
O41 O 0.84238 0.77826 0.27067 0.0
Co42 Co 0.79332 0.13537 0.71278 0.0
O43 O 0.81254 0.17516 0.7039 0.0
O44 O 0.80201 0.12668 0.69254 0.0
C45 C 0.75052 0.16195 0.72442 0.0
O46 O 0.77237 0.08963 0.71856 0.0
Co47 Co 0.79383 0.12966 0.74615 0.0
O48 O 0.76002 0.09324 0.74216 0.0
C49 C 0.85586 0.11177 0.72985 0.0
C50 C 0.81265 0.15813 0.69194 0.0
C51 C 0.75798 0.07809 0.73005 0.0
O52 O 0.84006 0.11787 0.71799 0.0
O53 O 0.84255 0.11686 0.74225 0.0
O54 O 0.74772 0.15422 0.71089 0.0
O55 O 0.78042 0.15738 0.72994 0.0
Co56 Co 0.12927 0.29269 0.95952 0.0
O57 O 0.16996 0.3119 0.95129 0.0
O58 O 0.12143 0.30476 0.93956 0.0
C59 C 0.15432 0.24727 0.96995 0.0
O60 O 0.08273 0.27238 0.96436 0.0
Co61 Co 0.12153 0.28697 0.99268 0.0
O62 O 0.08563 0.25369 0.98722 0.0
C63 C 0.10616 0.3525 0.97831 0.0
C64 C 0.15327 0.3141 0.93928 0.0
C65 C 0.07087 0.25508 0.97502 0.0
O66 O 0.11304 0.33898 0.96602 0.0
O67 O 0.10975 0.33658 0.99025 0.0
O68 O 0.14675 0.24699 0.95636 0.0
O69 O 0.15026 0.27624 0.9764 0.0
Co70 Co 0.2876 0.86399 0.038 0.0
O71 O 0.30686 0.82429 0.04697 0.0
O72 O 0.29692 0.87309 0.05816 0.0
C73 C 0.24427 0.83734 0.02673 0.0
O74 O 0.26654 0.90965 0.03213 0.0
Co75 Co 0.28688 0.86876 0.00457 0.0
O76 O 0.25272 0.90473 0.0087 0.0
C77 C 0.34951 0.88714 0.02039 0.0
C78 C 0.3072 0.84154 0.05887 0.0
C79 C 0.25125 0.92041 0.02071 0.0
O80 O 0.33423 0.88128 0.0324 0.0
O81 O 0.33568 0.88173 0.00811 0.0
O82 O 0.24199 0.84531 0.04025 0.0
O83 O 0.27402 0.84165 0.02103 0.0
Co84 Co 0.86307 0.70762 0.96249 0.0
O85 O 0.82324 0.68778 0.95381 0.0
O86 O 0.87179 0.69758 0.94241 0.0
C87 C 0.83672 0.7513 0.97366 0.0
O88 O 0.90875 0.7291 0.96785 0.0
Co89 Co 0.86961 0.70959 0.99581 0.0
O90 O 0.90604 0.74303 0.99131 0.0
C91 C 0.88727 0.64636 0.98029 0.0
C92 C 0.84036 0.68699 0.94187 0.0
C93 C 0.92067 0.7443 0.97907 0.0
O94 O 0.88074 0.66125 0.96825 0.0
O95 O 0.8825 0.6606 0.99253 0.0
O96 O 0.84415 0.75306 0.96007 0.0
O97 O 0.84137 0.72177 0.97956 0.0
Co98 Co 0.70281 0.13322 0.03736 0.0
O99 O 0.68174 0.17239 0.04606 0.0
O100 O 0.69315 0.12417 0.05746 0.0
C101 C 0.74537 0.16158 0.02629 0.0
O102 O 0.72571 0.08817 0.03196 0.0
Co103 Co 0.70493 0.12691 0.00403 0.0
O104 O 0.73876 0.09083 0.0084 0.0
C105 C 0.64212 0.10791 0.01956 0.0
C106 C 0.6817 0.15531 0.05802 0.0
C107 C 0.74066 0.07634 0.02066 0.0
O108 O 0.65707 0.11416 0.0316 0.0
O109 O 0.65611 0.1134 0.00732 0.0
O110 O 0.74741 0.15394 0.03984 0.0
O111 O 0.71622 0.15545 0.0203 0.0
Co112 Co 0.63127 0.70873 0.79009 0.0
O113 O 0.67139 0.68696 0.79762 0.0
O114 O 0.62445 0.69684 0.81013 0.0
C115 C 0.65848 0.75255 0.77934 0.0
O116 O 0.5856 0.73172 0.78603 0.0
Co117 Co 0.62089 0.71592 0.75707 0.0
O118 O 0.58727 0.75085 0.76321 0.0
C119 C 0.60345 0.6508 0.77144 0.0
C120 C 0.65565 0.68558 0.80988 0.0
C121 C 0.57357 0.74978 0.77563 0.0
O122 O 0.61179 0.66362 0.78371 0.0
O123 O 0.60702 0.66685 0.75952 0.0
O124 O 0.65199 0.75325 0.79303 0.0
O125 O 0.65166 0.72407 0.77292 0.0
Co126 Co 0.70803 0.36513 0.21001 0.0
O127 O 0.68786 0.32455 0.20219 0.0
O128 O 0.69621 0.37223 0.18995 0.0
C129 C 0.7528 0.33978 0.22072 0.0
O130 O 0.72958 0.41139 0.2146 0.0
Co131 Co 0.71273 0.37339 0.24322 0.0
O132 O 0.74685 0.40836 0.23767 0.0
C133 C 0.64824 0.38995 0.22845 0.0
C134 C 0.68596 0.34062 0.19003 0.0
C135 C 0.74666 0.42293 0.2254 0.0
O136 O 0.66212 0.38273 0.21628 0.0
O137 O 0.66353 0.38609 0.24052 0.0
O138 O 0.75329 0.34649 0.20705 0.0
O139 O 0.72382 0.34446 0.22706 0.0
Co140 Co 0.36761 0.29196 0.78762 0.0
O141 O 0.32631 0.30997 0.7957 0.0
O142 O 0.3745 0.30344 0.80773 0.0
C143 C 0.34419 0.24631 0.77672 0.0
O144 O 0.41465 0.27274 0.78279 0.0
Co145 Co 0.37545 0.28898 0.75438 0.0
O146 O 0.41319 0.25754 0.75944 0.0
C147 C 0.38884 0.35376 0.76948 0.0
C148 C 0.34249 0.31223 0.80782 0.0
C149 C 0.42752 0.25754 0.77175 0.0
O150 O 0.38292 0.33894 0.78158 0.0
O151 O 0.38522 0.33882 0.75731 0.0
O152 O 0.3512 0.24573 0.79036 0.0
O153 O 0.34737 0.27572 0.77053 0.0
Co154 Co 0.29255 0.63102 0.21228 0.0
O155 O 0.30977 0.67228 0.20383 0.0
O156 O 0.3017 0.62406 0.19195 0.0
C157 C 0.24847 0.65465 0.22409 0.0
O158 O 0.27365 0.58403 0.21749 0.0
Co159 Co 0.29287 0.62324 0.24558 0.0
O160 O 0.26074 0.58562 0.24109 0.0
C161 C 0.35595 0.60964 0.22928 0.0
C162 C 0.31059 0.65607 0.19167 0.0
C163 C 0.25941 0.57128 0.22878 0.0
O164 O 0.34004 0.61547 0.21741 0.0
O165 O 0.34224 0.61353 0.24168 0.0
O166 O 0.24609 0.6475 0.2105 0.0
O167 O 0.27849 0.65141 0.22966 0.0
Co168 Co 0.63348 0.79253 0.4634 0.0
O169 O 0.67393 0.80965 0.45426 0.0
O170 O 0.62438 0.80257 0.44331 0.0
C171 C 0.65759 0.74744 0.47437 0.0
O172 O 0.58694 0.77387 0.46942 0.0
Co173 Co 0.62958 0.7924 0.49677 0.0
O174 O 0.5908 0.76123 0.493 0.0
C175 C 0.61429 0.85583 0.48105 0.0
C176 C 0.65641 0.81107 0.44245 0.0
C177 C 0.57514 0.76 0.48098 0.0
O178 O 0.61904 0.84002 0.46908 0.0
O179 O 0.61921 0.84193 0.49335 0.0
O180 O 0.64921 0.74608 0.46088 0.0
O181 O 0.65553 0.77731 0.48026 0.0
Co182 Co 0.79096 0.36282 0.53864 0.0
O183 O 0.81251 0.3233 0.54683 0.0
O184 O 0.80183 0.37112 0.55866 0.0
C185 C 0.74777 0.33486 0.52781 0.0
O186 O 0.76779 0.40808 0.53382 0.0
Co187 Co 0.78646 0.37051 0.50539 0.0
O188 O 0.75178 0.40516 0.51059 0.0
C189 C 0.85027 0.38917 0.52029 0.0
C190 C 0.81321 0.33993 0.55889 0.0
C191 C 0.75115 0.41958 0.52289 0.0
O192 O 0.83632 0.38215 0.53247 0.0
O193 O 0.83535 0.38432 0.5082 0.0
O194 O 0.74648 0.34196 0.54144 0.0
O195 O 0.77655 0.34129 0.52159 0.0
Co196 Co 0.3643 0.20357 0.46133 0.0
O197 O 0.32408 0.18356 0.45303 0.0
O198 O 0.37258 0.19184 0.44138 0.0
C199 C 0.33845 0.2484 0.47181 0.0
O200 O 0.41034 0.22484 0.46623 0.0
Co201 Co 0.37188 0.20919 0.4945 0.0
O202 O 0.40693 0.24343 0.48909 0.0
C203 C 0.38947 0.1444 0.47998 0.0
C204 C 0.34095 0.18182 0.44105 0.0
C205 C 0.42175 0.2424 0.4769 0.0
O206 O 0.38162 0.15765 0.46775 0.0
O207 O 0.38572 0.16015 0.49196 0.0
O208 O 0.34591 0.24889 0.45821 0.0
O209 O 0.34293 0.21946 0.47824 0.0
Co210 Co 0.20513 0.63269 0.53755 0.0
O211 O 0.18461 0.67267 0.54573 0.0
O212 O 0.19434 0.62483 0.55767 0.0
C213 C 0.24895 0.65937 0.52661 0.0
O214 O 0.22718 0.58694 0.53257 0.0
Co215 Co 0.20858 0.62549 0.50428 0.0
O216 O 0.24307 0.59051 0.50934 0.0
C217 C 0.14485 0.60767 0.5194 0.0
C218 C 0.18356 0.65625 0.55783 0.0
C219 C 0.24365 0.57567 0.52155 0.0
O220 O 0.15921 0.61445 0.53153 0.0
O221 O 0.15957 0.61232 0.50725 0.0
O222 O 0.25023 0.65219 0.54023 0.0
O223 O 0.21979 0.65411 0.52051 0.0
C224 C 0.16413 0.3114 0.27335 0.0
C225 C 0.16997 0.27884 0.26756 0.0
C226 C 0.16985 0.34053 0.26511 0.0
C227 C 0.22114 0.37571 0.23681 0.0
H228 H 0.15261 0.44701 0.23688 0.0
C229 C 0.25201 0.513 0.21781 0.0
C230 C 0.24232 0.53769 0.22799 0.0
C231 C 0.23907 0.47969 0.21867 0.0
C232 C 0.172 0.42735 0.2367 0.0
H233 H 0.18669 0.25118 0.24864 0.0
H234 H 0.19796 0.30274 0.23428 0.0
H235 H 0.13857 0.39065 0.2463 0.0
H236 H 0.20981 0.54755 0.2464 0.0
H237 H 0.18755 0.49007 0.24794 0.0
H238 H 0.2553 0.41304 0.22812 0.0
C239 C 0.18846 0.30538 0.24517 0.0
C240 C 0.1639 0.3951 0.24205 0.0
C241 C 0.18206 0.27601 0.25336 0.0
C242 C 0.21802 0.52904 0.23847 0.0
C243 C 0.20497 0.49606 0.23926 0.0
C244 C 0.22939 0.40818 0.23157 0.0
C245 C 0.18203 0.33787 0.25095 0.0
C246 C 0.18875 0.36939 0.24265 0.0
C247 C 0.21589 0.47072 0.2296 0.0
C248 C 0.20527 0.43474 0.23201 0.0
H249 H 0.15462 0.31445 0.28421 0.0
H250 H 0.16513 0.3653 0.26989 0.0
H251 H 0.24075 0.35629 0.2372 0.0
H252 H 0.27073 0.51896 0.20962 0.0
H253 H 0.24779 0.46078 0.21102 0.0
C254 C 0.53489 0.79892 0.77156 0.0
C255 C 0.54002 0.76607 0.7771 0.0
C256 C 0.50193 0.81126 0.76939 0.0
C257 C 0.40888 0.78976 0.77335 0.0
H258 H 0.40442 0.83521 0.73637 0.0
C259 C 0.28139 0.82864 0.7453 0.0
C260 C 0.28067 0.82563 0.73024 0.0
C261 C 0.31178 0.82318 0.75289 0.0
C262 C 0.4051 0.82228 0.74666 0.0
H263 H 0.5152 0.72107 0.78557 0.0
H264 H 0.45755 0.74173 0.78114 0.0
H265 H 0.45921 0.82438 0.7472 0.0
H266 H 0.31047 0.81249 0.7114 0.0
H267 H 0.36279 0.80178 0.72456 0.0
H268 H 0.35441 0.78591 0.77218 0.0
C269 C 0.4787 0.75862 0.77887 0.0
C270 C 0.43668 0.81667 0.75308 0.0
C271 C 0.51177 0.74667 0.78141 0.0
C272 C 0.31033 0.81547 0.72299 0.0
C273 C 0.34045 0.80964 0.73055 0.0
C274 C 0.37712 0.79508 0.76681 0.0
C275 C 0.4734 0.79047 0.7722 0.0
C276 C 0.43917 0.79988 0.76642 0.0
C277 C 0.34186 0.8143 0.74554 0.0
C278 C 0.37497 0.81075 0.75322 0.0
H279 H 0.55641 0.81437 0.76823 0.0
H280 H 0.49893 0.83641 0.76474 0.0
H281 H 0.40968 0.77716 0.78371 0.0
H282 H 0.25886 0.83636 0.75118 0.0
H283 H 0.31195 0.82702 0.76443 0.0
C284 C 0.74954 0.48393 0.21731 0.0
C285 C 0.7644 0.45604 0.22444 0.0
C286 C 0.76183 0.51707 0.21974 0.0
C287 C 0.79926 0.56191 0.24975 0.0
H288 H 0.81514 0.63825 0.22408 0.0
C289 C 0.85116 0.68587 0.27226 0.0
C290 C 0.83708 0.71669 0.26745 0.0
C291 C 0.84473 0.65556 0.26496 0.0
C292 C 0.81043 0.61722 0.23137 0.0
H293 H 0.80588 0.44017 0.2383 0.0
H294 H 0.82754 0.49758 0.24232 0.0
H295 H 0.80043 0.582 0.21408 0.0
H296 H 0.80648 0.74041 0.25084 0.0
H297 H 0.79391 0.68671 0.23825 0.0
H298 H 0.80799 0.59645 0.26702 0.0
C299 C 0.806 0.49416 0.23516 0.0
C300 C 0.80217 0.58509 0.22564 0.0
C301 C 0.79367 0.46131 0.23283 0.0
C302 C 0.81744 0.71686 0.25481 0.0
C303 C 0.81044 0.68619 0.24758 0.0
C304 C 0.80709 0.59377 0.25543 0.0
C305 C 0.78914 0.52249 0.22927 0.0
C306 C 0.79714 0.55704 0.23482 0.0
C307 C 0.82339 0.65505 0.25281 0.0
C308 C 0.81345 0.62174 0.24636 0.0
H309 H 0.72686 0.48049 0.21082 0.0
H310 H 0.74841 0.53852 0.21506 0.0
H311 H 0.79452 0.541 0.25711 0.0
H312 H 0.86707 0.68509 0.28179 0.0
H313 H 0.8561 0.63231 0.26903 0.0
C314 C 0.4861 0.25245 0.78261 0.0
C315 C 0.46134 0.24106 0.77278 0.0
C316 C 0.51962 0.24013 0.78181 0.0
C317 C 0.57277 0.17217 0.76485 0.0
H318 H 0.64221 0.2424 0.76248 0.0
C319 C 0.68762 0.16269 0.7277 0.0
C320 C 0.72017 0.16981 0.7332 0.0
C321 C 0.65864 0.16872 0.73598 0.0
C322 C 0.62325 0.22242 0.7634 0.0
H323 H 0.45161 0.20625 0.75511 0.0
H324 H 0.50944 0.18503 0.7537 0.0
H325 H 0.5855 0.25675 0.77161 0.0
H326 H 0.74801 0.18911 0.75163 0.0
H327 H 0.69669 0.20087 0.76604 0.0
H328 H 0.60984 0.13845 0.75571 0.0
C329 C 0.50335 0.2033 0.76205 0.0
C330 C 0.59081 0.23056 0.76866 0.0
C331 C 0.47016 0.21573 0.76277 0.0
C332 C 0.72317 0.18345 0.74714 0.0
C333 C 0.69394 0.19015 0.75536 0.0
C334 C 0.60498 0.16417 0.75947 0.0
C335 C 0.52872 0.21589 0.77131 0.0
C336 C 0.56481 0.2058 0.76889 0.0
C337 C 0.66146 0.18249 0.74987 0.0
C338 C 0.63009 0.18949 0.7582 0.0
H339 H 0.48002 0.27202 0.79042 0.0
H340 H 0.53856 0.25015 0.78916 0.0
H341 H 0.55355 0.15234 0.76519 0.0
H342 H 0.68446 0.15202 0.71703 0.0
H343 H 0.63386 0.16303 0.73142 0.0
C344 C 0.24567 0.98109 0.02922 0.0
C345 C 0.23393 0.95389 0.02067 0.0
C346 C 0.23451 0.0145 0.02648 0.0
C347 C 0.21169 0.06305 0.99531 0.0
H348 H 0.17388 0.13324 0.01998 0.0
C349 C 0.15692 0.18398 0.97085 0.0
C350 C 0.16267 0.2154 0.97765 0.0
C351 C 0.16496 0.15352 0.97775 0.0
C352 C 0.1849 0.11404 0.01302 0.0
H353 H 0.19864 0.93966 0.00373 0.0
H354 H 0.17936 0.99757 0.99903 0.0
H355 H 0.18782 0.07691 0.03007 0.0
H356 H 0.18057 0.23964 0.9972 0.0
H357 H 0.19581 0.18599 0.00921 0.0
H358 H 0.20971 0.09952 0.97835 0.0
C359 C 0.19753 0.9933 0.00762 0.0
C360 C 0.19271 0.08186 0.01879 0.0
C361 C 0.20859 0.96018 0.01033 0.0
C362 C 0.17607 0.21572 0.99168 0.0
C363 C 0.18457 0.18503 0.99858 0.0
C364 C 0.20436 0.09503 0.98962 0.0
C365 C 0.21151 0.0209 0.0152 0.0
C366 C 0.20538 0.05591 0.00986 0.0
C367 C 0.17953 0.15357 0.99158 0.0
C368 C 0.19002 0.1207 0.99827 0.0
H369 H 0.26523 0.97696 0.03725 0.0
H370 H 0.24559 0.03546 0.03247 0.0
H371 H 0.22219 0.04368 0.98828 0.0
H372 H 0.14601 0.18283 0.96015 0.0
H373 H 0.15973 0.12981 0.97219 0.0
C374 C 0.18121 0.83685 0.02396 0.0
C375 C 0.2135 0.83025 0.01808 0.0
C376 C 0.15187 0.83193 0.01578 0.0
C377 C 0.11569 0.78192 0.98715 0.0
H378 H 0.04503 0.85107 0.98811 0.0
C379 C 0.97858 0.75284 0.96802 0.0
C380 C 0.95399 0.7619 0.97833 0.0
C381 C 0.01181 0.76583 0.96895 0.0
C382 C 0.06451 0.83152 0.98768 0.0
H383 H 0.24047 0.81302 0.99907 0.0
H384 H 0.18856 0.80327 0.98481 0.0
H385 H 0.10155 0.86408 0.99758 0.0
H386 H 0.94419 0.79351 0.99704 0.0
H387 H 0.00159 0.81583 0.9987 0.0
H388 H 0.07808 0.74861 0.97813 0.0
C389 C 0.18627 0.81269 0.99572 0.0
C390 C 0.09685 0.83902 0.99307 0.0
C391 C 0.21585 0.81821 0.00387 0.0
C392 C 0.96262 0.78578 0.989 0.0
C393 C 0.99555 0.79886 0.98986 0.0
C394 C 0.08316 0.77428 0.98187 0.0
C395 C 0.15406 0.81986 0.00159 0.0
C396 C 0.12233 0.81391 0.99334 0.0
C397 C 0.02083 0.7884 0.98009 0.0
C398 C 0.05684 0.79861 0.98262 0.0
H399 H 0.17853 0.8463 0.03485 0.0
H400 H 0.12732 0.83716 0.02064 0.0
H401 H 0.13492 0.7621 0.98728 0.0
H402 H 0.97267 0.73447 0.95967 0.0
H403 H 0.03065 0.75752 0.96119 0.0
C404 C 0.83493 0.81455 0.97584 0.0
C405 C 0.82928 0.78241 0.98207 0.0
C406 C 0.82949 0.84427 0.98375 0.0
C407 C 0.77975 0.88104 0.01239 0.0
H408 H 0.84768 0.95283 0.01055 0.0
C409 C 0.75002 0.01832 0.03159 0.0
C410 C 0.75857 0.04313 0.02128 0.0
C411 C 0.76309 0.98511 0.03049 0.0
C412 C 0.82845 0.93306 0.01121 0.0
H413 H 0.81316 0.75612 0.00143 0.0
H414 H 0.80254 0.80864 0.01521 0.0
H415 H 0.86111 0.89624 0.00125 0.0
H416 H 0.78932 0.05327 0.00235 0.0
H417 H 0.81176 0.99596 0.0004 0.0
H418 H 0.74631 0.9184 0.02152 0.0
C419 C 0.81161 0.81053 0.00423 0.0
C420 C 0.8362 0.90067 0.00592 0.0
C421 C 0.81765 0.78059 0.99636 0.0
C422 C 0.78201 0.03471 0.01042 0.0
C423 C 0.79516 0.0018 0.00938 0.0
C424 C 0.77184 0.91364 0.01758 0.0
C425 C 0.81784 0.84261 0.99801 0.0
C426 C 0.81155 0.8747 0.006 0.0
C427 C 0.78523 0.97631 0.01916 0.0
C428 C 0.79571 0.94036 0.01654 0.0
H429 H 0.844 0.81685 0.96488 0.0
H430 H 0.83401 0.86867 0.97861 0.0
H431 H 0.76028 0.86145 0.01254 0.0
H432 H 0.73197 0.02404 0.04007 0.0
H433 H 0.7552 0.96612 0.03827 0.0
C434 C 0.77799 0.16919 0.0032 0.0
C435 C 0.77585 0.17264 0.01822 0.0
C436 C 0.80865 0.17626 0.99603 0.0
C437 C 0.90107 0.1822 0.00376 0.0
H438 H 0.90722 0.22598 0.96646 0.0
C439 C 0.03187 0.20659 0.97983 0.0
C440 C 0.03703 0.23914 0.97399 0.0
C441 C -0.00108 0.19425 0.98201 0.0
C442 C 0.90595 0.2138 0.9769 0.0
H443 H 0.80316 0.18826 0.03739 0.0
H444 H 0.85583 0.2017 0.02495 0.0
H445 H 0.85128 0.21542 0.97719 0.0
H446 H 0.01226 0.28364 0.96505 0.0
H447 H 0.95449 0.26291 0.96946 0.0
H448 H 0.95525 0.18213 0.00404 0.0
C449 C 0.83452 0.19231 0.01869 0.0
C450 C 0.87385 0.20744 0.98298 0.0
C451 C 0.8042 0.18486 0.02583 0.0
C452 C 0.00881 0.25829 0.96946 0.0
C453 C 0.9757 0.24631 0.97199 0.0
C454 C 0.93295 0.18879 0.99779 0.0
C455 C 0.83751 0.18719 0.00377 0.0
C456 C 0.87111 0.19213 0.99662 0.0
C457 C 0.97038 0.21471 0.97886 0.0
C458 C 0.93597 0.20499 0.98434 0.0
H459 H 0.75647 0.15983 0.99706 0.0
H460 H 0.81008 0.17202 0.98453 0.0
H461 H 0.9 0.16964 0.01413 0.0
H462 H 0.05336 0.1913 0.9833 0.0
H463 H 0.9959 0.1693 0.98685 0.0
C464 C 0.67353 0.7836 0.75652 0.0
C465 C 0.66964 0.78347 0.77156 0.0
C466 C 0.6835 0.81345 0.74934 0.0
C467 C 0.72586 0.89618 0.75614 0.0
H468 H 0.67839 0.92811 0.72206 0.0
C469 C 0.7191 0.03548 0.74122 0.0
C470 C 0.74139 0.04417 0.72996 0.0
C471 C 0.70897 0.00178 0.74326 0.0
C472 C 0.69211 0.9191 0.73144 0.0
H473 H 0.67286 0.81446 0.79085 0.0
H474 H 0.6899 0.86617 0.77843 0.0
H475 H 0.66497 0.87154 0.73207 0.0
H476 H 0.76816 0.02476 0.71125 0.0
H477 H 0.75008 0.96527 0.71488 0.0
H478 H 0.75175 0.94424 0.75592 0.0
C479 C 0.68583 0.84326 0.77214 0.0
C480 C 0.68455 0.88685 0.73715 0.0
C481 C 0.67585 0.81362 0.77927 0.0
C482 C 0.75096 0.01883 0.72001 0.0
C483 C 0.74069 0.98488 0.72207 0.0
C484 C 0.73321 0.92826 0.7505 0.0
C485 C 0.68995 0.84355 0.75712 0.0
C486 C 0.70072 0.8755 0.74981 0.0
C487 C 0.72065 0.9761 0.73402 0.0
C488 C 0.71589 0.94025 0.73832 0.0
H489 H 0.66879 0.76073 0.7503 0.0
H490 H 0.68655 0.81288 0.73776 0.0
H491 H 0.73929 0.88791 0.76571 0.0
H492 H 0.71088 0.05445 0.74896 0.0
H493 H 0.69342 0.99544 0.75252 0.0
C494 C 0.0183 0.25211 0.28029 0.0
C495 C 0.04576 0.26412 0.27198 0.0
C496 C 0.98519 0.26414 0.27769 0.0
C497 C 0.93832 0.29013 0.24655 0.0
H498 H 0.86585 0.32228 0.27145 0.0
C499 C 0.81593 0.34103 0.22216 0.0
C500 C 0.78468 0.33284 0.22861 0.0
C501 C 0.84648 0.33438 0.22921 0.0
C502 C 0.88574 0.3129 0.26441 0.0
H503 H 0.06093 0.30083 0.25575 0.0
H504 H 0.00349 0.32179 0.25131 0.0
H505 H 0.9222 0.30913 0.28167 0.0
H506 H 0.7607 0.31227 0.24773 0.0
H507 H 0.81463 0.29922 0.25997 0.0
H508 H 0.90251 0.29267 0.22938 0.0
C509 C 0.00732 0.30272 0.2596 0.0
C510 C 0.91792 0.30557 0.27026 0.0
C511 C 0.04015 0.29072 0.26215 0.0
C512 C 0.78454 0.31856 0.24248 0.0
C513 C 0.81536 0.31134 0.24951 0.0
C514 C 0.90636 0.29695 0.24078 0.0
C515 C 0.97937 0.28832 0.2668 0.0
C516 C 0.94463 0.29484 0.26127 0.0
C517 C 0.84672 0.3187 0.24282 0.0
C518 C 0.87983 0.3092 0.24953 0.0
H519 H 0.02195 0.23155 0.28793 0.0
H520 H 0.96398 0.25269 0.28338 0.0
H521 H 0.95826 0.28102 0.23945 0.0
H522 H 0.81686 0.3528 0.21162 0.0
H523 H 0.87003 0.34146 0.22392 0.0
C524 C 0.29242 0.95832 0.73635 0.0
C525 C 0.26598 0.95252 0.72646 0.0
C526 C 0.30442 0.99122 0.73882 0.0
C527 C 0.3076 0.08049 0.72767 0.0
H528 H 0.29656 0.09691 0.76857 0.0
C529 C 0.32248 0.21449 0.75503 0.0
C530 C 0.33744 0.21442 0.76877 0.0
C531 C 0.31491 0.18359 0.74809 0.0
C532 C 0.30031 0.09278 0.75716 0.0
H533 H 0.23363 0.9761 0.71039 0.0
H534 H 0.25478 0.03421 0.7148 0.0
H535 H 0.28398 0.041 0.75881 0.0
H536 H 0.35829 0.18226 0.78559 0.0
H537 H 0.34627 0.12898 0.77343 0.0
H538 H 0.32467 0.13248 0.72616 0.0
C539 C 0.2661 0.01308 0.72059 0.0
C540 C 0.29296 0.06071 0.75156 0.0
C541 C 0.25406 0.97988 0.71807 0.0
C542 C 0.34604 0.18316 0.77515 0.0
C543 C 0.339 0.15254 0.76818 0.0
C544 C 0.31543 0.11279 0.73334 0.0
C545 C 0.29019 0.0191 0.73149 0.0
C546 C 0.29704 0.05402 0.73684 0.0
C547 C 0.32255 0.15223 0.75474 0.0
C548 C 0.31242 0.11905 0.74822 0.0
H549 H 0.30245 0.93763 0.74282 0.0
H550 H 0.32345 0.99516 0.74711 0.0
H551 H 0.3107 0.07593 0.71625 0.0
H552 H 0.31582 0.23832 0.74985 0.0
H553 H 0.30222 0.18426 0.73775 0.0
C554 C 0.97565 0.73907 0.27939 0.0
C555 C 0.96112 0.75985 0.2687 0.0
C556 C 0.00835 0.72516 0.27739 0.0
C557 C 0.08625 0.71246 0.27095 0.0
H558 H 0.09681 0.67885 0.23196 0.0
C559 C 0.21704 0.6843 0.24395 0.0
C560 C 0.21773 0.66011 0.23283 0.0
C561 C 0.18629 0.69188 0.25095 0.0
C562 C 0.09437 0.68737 0.243 0.0
H563 H 0.97037 0.78494 0.24826 0.0
H564 H 0.02687 0.76142 0.24493 0.0
H565 H 0.04253 0.70141 0.23958 0.0
H566 H 0.18829 0.62226 0.22129 0.0
H567 H 0.1353 0.63402 0.23389 0.0
H568 H 0.13852 0.69818 0.27427 0.0
C569 C 0.01293 0.75483 0.25461 0.0
C570 C 0.06323 0.70081 0.2473 0.0
C571 C 0.98055 0.76834 0.25653 0.0
C572 C 0.1881 0.64172 0.22958 0.0
C573 C 0.15774 0.64856 0.23679 0.0
C574 C 0.1177 0.69876 0.26663 0.0
C575 C 0.02673 0.73211 0.26471 0.0
C576 C 0.05901 0.71433 0.26117 0.0
C577 C 0.15602 0.67478 0.24711 0.0
C578 C 0.12224 0.68652 0.2525 0.0
H579 H 0.9612 0.73228 0.2889 0.0
H580 H 0.01853 0.70782 0.28537 0.0
H581 H 0.08362 0.72267 0.28173 0.0
H582 H 0.23978 0.69858 0.24668 0.0
H583 H 0.18595 0.71228 0.25879 0.0
C584 C 0.70637 0.45939 0.51431 0.0
C585 C 0.73356 0.45282 0.52373 0.0
C586 C 0.69496 0.49262 0.51214 0.0
C587 C 0.69552 0.58193 0.52346 0.0
H588 H 0.70228 0.5981 0.48238 0.0
C589 C 0.68124 0.71604 0.49584 0.0
C590 C 0.66419 0.71584 0.48254 0.0
C591 C 0.68881 0.68519 0.50283 0.0
C592 C 0.69981 0.59405 0.49386 0.0
H593 H 0.76798 0.47537 0.53931 0.0
H594 H 0.74793 0.53403 0.53539 0.0
H595 H 0.71451 0.54188 0.49188 0.0
H596 H 0.63948 0.68367 0.46667 0.0
H597 H 0.65162 0.63059 0.47891 0.0
H598 H 0.68012 0.6344 0.52529 0.0
C599 C 0.73552 0.51327 0.52975 0.0
C600 C 0.70691 0.5618 0.4993 0.0
C601 C 0.74693 0.47976 0.53199 0.0
C602 C 0.6534 0.68463 0.47673 0.0
C603 C 0.66047 0.65413 0.48375 0.0
C604 C 0.68799 0.61445 0.51795 0.0
C605 C 0.71059 0.52003 0.51927 0.0
C606 C 0.70423 0.55518 0.51409 0.0
C607 C 0.67911 0.65384 0.49666 0.0
C608 C 0.6894 0.62059 0.50302 0.0
H609 H 0.69525 0.43905 0.50796 0.0
H610 H 0.67526 0.49713 0.50419 0.0
H611 H 0.69359 0.57744 0.53493 0.0
H612 H 0.68957 0.73986 0.50059 0.0
H613 H 0.70316 0.68582 0.51278 0.0
C614 C 0.68828 0.3131 0.52759 0.0
C615 C 0.71679 0.32463 0.51989 0.0
C616 C 0.6577 0.30629 0.52053 0.0
C617 C 0.61814 0.29162 0.48479 0.0
H618 H 0.53685 0.31651 0.506 0.0
C619 C 0.48373 0.24026 0.47121 0.0
C620 C 0.45532 0.25888 0.47591 0.0
C621 C 0.51668 0.25258 0.47373 0.0
C622 C 0.55912 0.31 0.4997 0.0
H623 H 0.73608 0.33695 0.49866 0.0
H624 H 0.68209 0.32598 0.4863 0.0
H625 H 0.59213 0.32893 0.51606 0.0
H626 H 0.43845 0.30619 0.48552 0.0
H627 H 0.49566 0.32886 0.48906 0.0
H628 H 0.58475 0.27342 0.46823 0.0
C629 C 0.68356 0.32174 0.49779 0.0
C630 C 0.59102 0.31653 0.50566 0.0
C631 C 0.71446 0.32814 0.50488 0.0
C632 C 0.46011 0.29131 0.48192 0.0
C633 C 0.49292 0.30403 0.4841 0.0
C634 C 0.58604 0.28541 0.47871 0.0
C635 C 0.65462 0.31137 0.5056 0.0
C636 C 0.62095 0.30668 0.49848 0.0
C637 C 0.52168 0.28404 0.48077 0.0
C638 C 0.55605 0.29398 0.48621 0.0
H639 H 0.68944 0.3097 0.53915 0.0
H640 H 0.63631 0.29731 0.52685 0.0
H641 H 0.64067 0.2837 0.47895 0.0
H642 H 0.48056 0.21501 0.46666 0.0
H643 H 0.53805 0.23632 0.47107 0.0
C644 C 0.24761 0.51503 0.53014 0.0
C645 C 0.26117 0.54237 0.52217 0.0
C646 C 0.25908 0.48164 0.52763 0.0
C647 C 0.2879 0.43449 0.49691 0.0
H648 H 0.31557 0.36115 0.52233 0.0
C649 C 0.34023 0.31156 0.47341 0.0
C650 C 0.33095 0.2803 0.47962 0.0
C651 C 0.33302 0.34214 0.48037 0.0
C652 C 0.30744 0.38127 0.51513 0.0
H653 H 0.29983 0.55694 0.50668 0.0
H654 H 0.31985 0.49904 0.50244 0.0
H655 H 0.30194 0.4176 0.53237 0.0
H656 H 0.30777 0.25633 0.49819 0.0
H657 H 0.29372 0.31031 0.51023 0.0
H658 H 0.2922 0.39883 0.47973 0.0
C659 C 0.3 0.50317 0.51036 0.0
C660 C 0.29982 0.41352 0.52088 0.0
C661 C 0.28856 0.53628 0.5128 0.0
C662 C 0.31496 0.28017 0.49314 0.0
C663 C 0.30716 0.31104 0.50006 0.0
C664 C 0.295 0.40246 0.49122 0.0
C665 C 0.28424 0.47541 0.51719 0.0
C666 C 0.29075 0.44055 0.51173 0.0
C667 C 0.31565 0.34242 0.49361 0.0
C668 C 0.30568 0.37561 0.50017 0.0
H669 H 0.22641 0.51905 0.5374 0.0
H670 H 0.24657 0.46059 0.53303 0.0
H671 H 0.28008 0.45467 0.48965 0.0
H672 H 0.35332 0.31246 0.46315 0.0
H673 H 0.341 0.36569 0.47529 0.0
C674 C 0.51684 0.75053 0.47024 0.0
C675 C 0.54128 0.74326 0.48087 0.0
C676 C 0.48365 0.73743 0.47139 0.0
C677 C 0.43229 0.67249 0.49113 0.0
H678 H 0.35854 0.7379 0.48794 0.0
C679 C 0.31209 0.66412 0.52516 0.0
C680 C 0.28021 0.66766 0.51847 0.0
C681 C 0.34202 0.6704 0.51755 0.0
C682 C 0.37878 0.71918 0.48861 0.0
H683 H 0.55053 0.71511 0.50061 0.0
H684 H 0.49332 0.69279 0.50265 0.0
H685 H 0.41559 0.75325 0.47943 0.0
H686 H 0.25459 0.68097 0.49858 0.0
H687 H 0.30747 0.69297 0.48527 0.0
H688 H 0.39601 0.63927 0.50111 0.0
C689 C 0.49948 0.70831 0.49336 0.0
C690 C 0.41141 0.72789 0.4837 0.0
C691 C 0.53233 0.72144 0.49226 0.0
C692 C 0.27886 0.67809 0.504 0.0
C693 C 0.30899 0.68494 0.4964 0.0
C694 C 0.39988 0.66397 0.49613 0.0
C695 C 0.47453 0.71652 0.48309 0.0
C696 C 0.43881 0.70508 0.48543 0.0
C697 C 0.34083 0.68076 0.5031 0.0
C698 C 0.37313 0.68766 0.49538 0.0
H699 H 0.52295 0.76729 0.46134 0.0
H700 H 0.46501 0.74405 0.46326 0.0
H701 H 0.45264 0.65404 0.49231 0.0
H702 H 0.31403 0.65607 0.53628 0.0
H703 H 0.36621 0.66748 0.52303 0.0
C704 C 0.28803 0.16822 0.42725 0.0
C705 C 0.32361 0.17237 0.42746 0.0
C706 C 0.27069 0.16372 0.41426 0.0
C707 C 0.2811 0.1805 0.37528 0.0
H708 H 0.19647 0.12972 0.37244 0.0
C709 C 0.20949 0.16712 0.32169 0.0
C710 C 0.17473 0.17585 0.322 0.0
C711 C 0.22757 0.16205 0.33444 0.0
C712 C 0.22002 0.14407 0.37311 0.0
H713 H 0.36913 0.17317 0.41428 0.0
H714 H 0.33905 0.16412 0.3916 0.0
H715 H 0.22949 0.12776 0.39472 0.0
H716 H 0.13132 0.18451 0.33595 0.0
H717 H 0.16302 0.17518 0.35835 0.0
H718 H 0.27168 0.19655 0.35364 0.0
C719 C 0.32435 0.16537 0.40144 0.0
C720 C 0.23894 0.14306 0.38588 0.0
C721 C 0.34168 0.17025 0.41446 0.0
C722 C 0.15806 0.17782 0.33536 0.0
C723 C 0.17618 0.1724 0.34817 0.0
C724 C 0.26241 0.18115 0.36249 0.0
C725 C 0.28851 0.16288 0.40113 0.0
C726 C 0.26958 0.16159 0.3872 0.0
C727 C 0.21131 0.16527 0.34782 0.0
C728 C 0.23153 0.16321 0.36131 0.0
H729 H 0.27328 0.16983 0.43708 0.0
H730 H 0.24314 0.16237 0.41451 0.0
H731 H 0.30407 0.19573 0.37593 0.0
H732 H 0.22313 0.16525 0.31159 0.0
H733 H 0.2545 0.15612 0.33384 0.0
C734 C 0.17509 0.65756 0.58468 0.0
C735 C 0.17383 0.67408 0.57127 0.0
C736 C 0.17009 0.67608 0.59742 0.0
C737 C 0.18228 0.76211 0.61141 0.0
H738 H 0.12778 0.73219 0.64381 0.0
C739 C 0.17601 0.84241 0.66328 0.0
C740 C 0.177 0.82435 0.67632 0.0
C741 C 0.17028 0.82523 0.65029 0.0
C742 C 0.14341 0.74079 0.63492 0.0
H743 H 0.16466 0.72261 0.56068 0.0
H744 H 0.15627 0.75466 0.58282 0.0
H745 H 0.128 0.69871 0.62163 0.0
H746 H 0.17176 0.77425 0.686 0.0
H747 H 0.16294 0.74433 0.66348 0.0
H748 H 0.19897 0.80325 0.6247 0.0
C749 C 0.16135 0.72755 0.58351 0.0
C750 C 0.14341 0.72161 0.62221 0.0
C751 C 0.16601 0.70908 0.57083 0.0
C752 C 0.17104 0.78899 0.67615 0.0
C753 C 0.16573 0.77179 0.66318 0.0
C754 C 0.18266 0.78101 0.62415 0.0
C755 C 0.16407 0.71144 0.59694 0.0
C756 C 0.16294 0.73204 0.61034 0.0
C757 C 0.16583 0.78954 0.65003 0.0
C758 C 0.16341 0.77054 0.63613 0.0
H759 H 0.18106 0.63064 0.58537 0.0
H760 H 0.17242 0.66304 0.60765 0.0
H761 H 0.19798 0.77051 0.6025 0.0
H762 H 0.18033 0.8697 0.66308 0.0
H763 H 0.16982 0.83991 0.64042 0.0
C764 C 0.70882 0.82417 0.42824 0.0
C765 C 0.67339 0.81888 0.42859 0.0
C766 C 0.72599 0.82766 0.41516 0.0
C767 C 0.71687 0.80606 0.3766 0.0
H768 H 0.79777 0.86223 0.37263 0.0
C769 C 0.78577 0.82107 0.32244 0.0
C770 C 0.82133 0.81655 0.32248 0.0
C771 C 0.76779 0.82459 0.3353 0.0
C772 C 0.77535 0.84628 0.37363 0.0
H773 H 0.62796 0.81459 0.41547 0.0
H774 H 0.6578 0.82161 0.39257 0.0
H775 H 0.76491 0.86409 0.39495 0.0
H776 H 0.86606 0.81343 0.33609 0.0
H777 H 0.83445 0.81994 0.35872 0.0
H778 H 0.72721 0.78848 0.35525 0.0
C779 C 0.67248 0.82225 0.40243 0.0
C780 C 0.75648 0.84728 0.38641 0.0
C781 C 0.65528 0.81852 0.41556 0.0
C782 C 0.83869 0.81688 0.33571 0.0
C783 C 0.82061 0.82068 0.34864 0.0
C784 C 0.73553 0.80531 0.3638 0.0
C785 C 0.70819 0.8262 0.40205 0.0
C786 C 0.72711 0.82697 0.38812 0.0
C787 C 0.78487 0.82392 0.34856 0.0
C788 C 0.76507 0.82526 0.36219 0.0
H789 H 0.72362 0.82449 0.43808 0.0
H790 H 0.75347 0.83017 0.41536 0.0
H791 H 0.6949 0.78949 0.37758 0.0
H792 H 0.77154 0.82112 0.31245 0.0
H793 H 0.74036 0.82758 0.33486 0.0
C794 C 0.8306 0.20996 0.67834 0.0
C795 C 0.82183 0.17517 0.67826 0.0
C796 C 0.83542 0.22765 0.66548 0.0
C797 C 0.85238 0.21925 0.62678 0.0
H798 H 0.80049 0.30317 0.62396 0.0
C799 C 0.82747 0.28709 0.57263 0.0
C800 C 0.82301 0.32266 0.57244 0.0
C801 C 0.83225 0.26976 0.58561 0.0
C802 C 0.81579 0.28024 0.6246 0.0
H803 H 0.8129 0.13126 0.66459 0.0
H804 H 0.82169 0.16233 0.64197 0.0
H805 H 0.80015 0.27103 0.64631 0.0
H806 H 0.82204 0.36822 0.58562 0.0
H807 H 0.83168 0.33819 0.60827 0.0
H808 H 0.86831 0.22857 0.60511 0.0
C809 C 0.82471 0.17579 0.65207 0.0
C810 C 0.8154 0.26168 0.63742 0.0
C811 C 0.81959 0.15805 0.665 0.0
C812 C 0.82516 0.34077 0.58544 0.0
C813 C 0.83038 0.32346 0.59843 0.0
C814 C 0.85314 0.23807 0.61398 0.0
C815 C 0.83184 0.21098 0.6522 0.0
C816 C 0.83346 0.23088 0.63863 0.0
C817 C 0.8331 0.2876 0.59873 0.0
C818 C 0.83456 0.26869 0.61266 0.0
H819 H 0.83275 0.22392 0.68836 0.0
H820 H 0.84138 0.25462 0.66591 0.0
H821 H 0.8668 0.19574 0.62747 0.0
H822 H 0.82583 0.27233 0.5628 0.0
H823 H 0.83377 0.2422 0.58535 0.0
C824 C 0.20648 0.32819 0.92575 0.0
C825 C 0.17097 0.32337 0.92575 0.0
C826 C 0.22424 0.33262 0.91285 0.0
C827 C 0.216 0.31416 0.87395 0.0
H828 H 0.29881 0.3679 0.87127 0.0
C829 C 0.28881 0.32782 0.82065 0.0
C830 C 0.32405 0.32139 0.82119 0.0
C831 C 0.27009 0.33246 0.83327 0.0
C832 C 0.27581 0.35268 0.8719 0.0
H833 H 0.12602 0.32117 0.91225 0.0
H834 H 0.15686 0.32992 0.88971 0.0
H835 H 0.26501 0.36939 0.89335 0.0
H836 H 0.36752 0.31631 0.83542 0.0
H837 H 0.33467 0.32475 0.85757 0.0
H838 H 0.22676 0.29759 0.8525 0.0
C839 C 0.17116 0.32937 0.89967 0.0
C840 C 0.25642 0.35346 0.88455 0.0
C841 C 0.15339 0.32465 0.9126 0.0
C842 C 0.34042 0.32123 0.83465 0.0
C843 C 0.32163 0.32614 0.84732 0.0
C844 C 0.23517 0.31367 0.86129 0.0
C845 C 0.20694 0.33262 0.8996 0.0
C846 C 0.22639 0.33393 0.8858 0.0
C847 C 0.28612 0.33101 0.84676 0.0
C848 C 0.26541 0.33271 0.86014 0.0
H849 H 0.22086 0.32725 0.93569 0.0
H850 H 0.25174 0.33459 0.91328 0.0
H851 H 0.19353 0.29819 0.87457 0.0
H852 H 0.27537 0.32829 0.81047 0.0
H853 H 0.24287 0.3367 0.83247 0.0
C854 C 0.31783 0.65781 0.16474 0.0
C855 C 0.31838 0.67448 0.17813 0.0
C856 C 0.3218 0.67643 0.15196 0.0
C857 C 0.30733 0.76224 0.1376 0.0
H858 H 0.36366 0.73301 0.10566 0.0
C859 C 0.31606 0.84273 0.08569 0.0
C860 C 0.31589 0.82464 0.07266 0.0
C861 C 0.32088 0.82556 0.09877 0.0
C862 C 0.34751 0.74141 0.11442 0.0
H863 H 0.32478 0.72359 0.1886 0.0
H864 H 0.33145 0.75581 0.16641 0.0
H865 H 0.36304 0.69971 0.12787 0.0
H866 H 0.3216 0.77445 0.06309 0.0
H867 H 0.32898 0.74463 0.08571 0.0
H868 H 0.29073 0.80315 0.12413 0.0
C869 C 0.32772 0.72846 0.16576 0.0
C870 C 0.34725 0.72231 0.12715 0.0
C871 C 0.32408 0.7099 0.17848 0.0
C872 C 0.32169 0.78925 0.07294 0.0
C873 C 0.32617 0.77209 0.08596 0.0
C874 C 0.30726 0.7811 0.12484 0.0
C875 C 0.32605 0.71208 0.15234 0.0
C876 C 0.32708 0.73249 0.13887 0.0
C877 C 0.32533 0.78987 0.0991 0.0
C878 C 0.3272 0.77089 0.11302 0.0
H879 H 0.31346 0.63057 0.16411 0.0
H880 H 0.32027 0.66313 0.14177 0.0
H881 H 0.29114 0.77048 0.14638 0.0
H882 H 0.3118 0.87002 0.08583 0.0
H883 H 0.32072 0.84025 0.10863 0.0
C884 C 0.78822 0.6718 0.92784 0.0
C885 C 0.82361 0.67728 0.92819 0.0
C886 C 0.77137 0.66631 0.91481 0.0
C887 C 0.7817 0.68222 0.87578 0.0
H888 H 0.69921 0.62797 0.87315 0.0
C889 C 0.70899 0.66765 0.82245 0.0
C890 C 0.67398 0.67517 0.82311 0.0
C891 C 0.72778 0.66248 0.83502 0.0
C892 C 0.72218 0.64325 0.87375 0.0
H893 H 0.86935 0.67963 0.91517 0.0
H894 H 0.84013 0.66896 0.8924 0.0
H895 H 0.73234 0.62774 0.8954 0.0
H896 H 0.63089 0.68138 0.83746 0.0
H897 H 0.66379 0.67193 0.8595 0.0
H898 H 0.77153 0.69759 0.85411 0.0
C899 C 0.82519 0.66985 0.90219 0.0
C900 C 0.74115 0.64324 0.88651 0.0
C901 C 0.84203 0.6757 0.91525 0.0
C902 C 0.65781 0.67564 0.8366 0.0
C903 C 0.67663 0.67015 0.84921 0.0
C904 C 0.76296 0.68189 0.863 0.0
C905 C 0.7895 0.66579 0.90176 0.0
C906 C 0.77092 0.66316 0.88778 0.0
C907 C 0.71198 0.6644 0.84855 0.0
C908 C 0.73277 0.66276 0.86189 0.0
H909 H 0.77321 0.67296 0.93761 0.0
H910 H 0.74389 0.66383 0.91497 0.0
H911 H 0.80401 0.69842 0.87638 0.0
H912 H 0.72225 0.66696 0.81223 0.0
H913 H 0.75489 0.65763 0.83417 0.0
C914 C 0.67212 0.15377 0.08475 0.0
C915 C 0.67231 0.17201 0.07175 0.0
C916 C 0.66708 0.17075 0.09784 0.0
C917 C 0.64079 0.25478 0.1137 0.0
H918 H 0.69835 0.22555 0.14527 0.0
C919 C 0.67552 0.33867 0.16331 0.0
C920 C 0.67576 0.32231 0.17677 0.0
C921 C 0.66979 0.3199 0.1507 0.0
C922 C 0.68181 0.23381 0.13661 0.0
H923 H 0.66622 0.22219 0.06224 0.0
H924 H 0.65849 0.25176 0.08492 0.0
H925 H 0.69768 0.19282 0.12306 0.0
H926 H 0.66864 0.2737 0.18757 0.0
H927 H 0.65896 0.2412 0.16565 0.0
H928 H 0.62614 0.29667 0.12723 0.0
C929 C 0.66145 0.22431 0.08512 0.0
C930 C 0.68125 0.21491 0.12387 0.0
C931 C 0.66613 0.20731 0.07206 0.0
C932 C 0.66881 0.28713 0.17739 0.0
C933 C 0.66342 0.26841 0.16482 0.0
C934 C 0.64169 0.27393 0.12642 0.0
C935 C 0.66247 0.20641 0.09823 0.0
C936 C 0.66094 0.22524 0.11218 0.0
C937 C 0.66452 0.28442 0.15132 0.0
C938 C 0.66234 0.26371 0.13797 0.0
H939 H 0.67663 0.12651 0.08485 0.0
H940 H 0.66733 0.15596 0.10768 0.0
H941 H 0.62436 0.26325 0.10505 0.0
H942 H 0.6808 0.36572 0.16249 0.0
H943 H 0.67091 0.33289 0.14042 0.0
C944 C 0.90629 0.90687 0.28497 0.0
C945 C 0.89432 0.89399 0.27176 0.0
C946 C 0.92781 0.93534 0.28536 0.0
C947 C 0.99094 0.9778 0.26244 0.0
H948 H 0.98851 0.04965 0.29107 0.0
C949 C 0.07521 0.09788 0.25851 0.0
C950 C 0.08739 0.11297 0.27125 0.0
C951 C 0.05284 0.07019 0.25903 0.0
C952 C 0.98987 0.02947 0.28313 0.0
H953 H 0.89345 0.90294 0.24869 0.0
H954 H 0.93056 0.95263 0.24943 0.0
H955 H 0.94439 0.00566 0.29109 0.0
H956 H 0.08677 0.10937 0.29456 0.0
H957 H 0.04829 0.06055 0.29544 0.0
H958 H 0.03648 0.00119 0.25454 0.0
C959 C 0.92392 0.9402 0.25946 0.0
C960 C 0.96446 0.00439 0.2831 0.0
C961 C 0.90235 0.91185 0.25907 0.0
C962 C 0.07786 0.09853 0.28452 0.0
C963 C 0.05549 0.07073 0.28504 0.0
C964 C 0.0164 0.00271 0.26251 0.0
C965 C 0.93786 0.95152 0.27254 0.0
C966 C 0.96454 0.97846 0.27266 0.0
C967 C 0.04212 0.05669 0.2723 0.0
C968 C 0.01607 0.02904 0.27278 0.0
H969 H 0.90064 0.89388 0.29498 0.0
H970 H 0.93809 0.94347 0.29562 0.0
H971 H 0.9922 0.9577 0.25446 0.0
H972 H 0.08186 0.10825 0.24808 0.0
H973 H 0.04286 0.06028 0.249 0.0
C974 C 0.90361 0.08495 0.7158 0.0
C975 C 0.88951 0.09449 0.72914 0.0
C976 C 0.93251 0.06411 0.7152 0.0
C977 C 0.00407 0.0302 0.7371 0.0
H978 H 0.00154 0.95541 0.70978 0.0
C979 C 0.09889 0.919 0.7407 0.0
C980 C 0.11469 0.90887 0.7278 0.0
C981 C 0.07072 0.94078 0.7405 0.0
C982 C 0.00277 0.97632 0.71738 0.0
H983 H 0.89598 0.09078 0.75229 0.0
H984 H 0.94603 0.05445 0.75121 0.0
H985 H 0.9557 0.99747 0.70991 0.0
H986 H 0.11188 0.91239 0.70451 0.0
H987 H 0.06271 0.95036 0.7042 0.0
H988 H 0.05095 0.0089 0.74465 0.0
C989 C 0.93491 0.06321 0.74121 0.0
C990 C 0.97658 0.00053 0.71743 0.0
C991 C 0.90606 0.08404 0.74182 0.0
C992 C 0.10044 0.91964 0.71466 0.0
C993 C 0.07219 0.94141 0.71447 0.0
C994 C 0.03017 0.00598 0.73708 0.0
C995 C 0.94804 0.05236 0.7279 0.0
C996 C 0.97682 0.02767 0.72734 0.0
C997 C 0.05757 0.95291 0.7274 0.0
C998 C 0.02972 0.97862 0.72729 0.0
H999 H 0.8917 0.09259 0.7058 0.0
H1000 H 0.94236 0.05676 0.70477 0.0
H1001 H 0.00536 0.05105 0.74473 0.0
H1002 H 0.10893 0.91108 0.75103 0.0
H1003 H 0.05957 0.94859 0.75064 0.0
C1004 C 0.07931 0.4013 0.99165 0.0
C1005 C 0.0894 0.38648 0.97853 0.0
C1006 C 0.05843 0.43019 0.99183 0.0
C1007 C 0.02453 0.50065 0.96931 0.0
H1008 H 0.94923 0.49765 0.99633 0.0
C1009 C 0.91479 0.59817 0.96676 0.0
C1010 C 0.90482 0.61278 0.97994 0.0
C1011 C 0.93604 0.56954 0.96647 0.0
C1012 C 0.97026 0.49904 0.9888 0.0
H1013 H 0.0869 0.39187 0.9553 0.0
H1014 H 0.05046 0.44205 0.95564 0.0
H1015 H 0.99129 0.45193 0.99628 0.0
H1016 H 0.9081 0.60739 0.00316 0.0
H1017 H 0.94508 0.55765 0.00261 0.0
H1018 H 0.00344 0.54777 0.96183 0.0
C1019 C 0.05877 0.43138 0.9658 0.0
C1020 C 0.99447 0.47289 0.98881 0.0
C1021 C 0.07968 0.40249 0.96562 0.0
C1022 C 0.91521 0.59692 0.9928 0.0
C1023 C 0.93641 0.56828 0.9925 0.0
C1024 C 0.0003 0.52681 0.96931 0.0
C1025 C 0.04713 0.44501 0.9789 0.0
C1026 C 0.02195 0.47339 0.97908 0.0
C1027 C 0.94775 0.55475 0.97933 0.0
C1028 C 0.97287 0.52633 0.97906 0.0
H1029 H 0.08645 0.38989 0.00183 0.0
H1030 H 0.05056 0.44051 0.00211 0.0
H1031 H 0.04556 0.50203 0.96179 0.0
H1032 H 0.90723 0.60954 0.95663 0.0
H1033 H 0.94377 0.55932 0.95614 0.0
C1034 C 0.39907 0.91455 0.00782 0.0
C1035 C 0.3831 0.90463 0.02072 0.0
C1036 C 0.42775 0.93567 0.00802 0.0
C1037 C 0.46985 -7e-05 0.03092 0.0
H1038 H 0.54351 0.99051 0.00342 0.0
C1039 C 0.5941 0.07998 0.03304 0.0
C1040 C 0.60871 0.09007 0.01987 0.0
C1041 C 0.56553 0.05865 0.0333 0.0
C1042 C 0.52291 0.99376 0.01105 0.0
H1043 H 0.38617 0.90781 0.04401 0.0
H1044 H 0.4366 0.94413 0.04434 0.0
H1045 H 0.49794 0.9483 0.00387 0.0
H1046 H 0.60325 0.08714 0.99665 0.0
H1047 H 0.55326 0.05036 0.99716 0.0
H1048 H 0.49497 0.04539 0.03811 0.0
C1049 C 0.42639 0.93613 0.03405 0.0
C1050 C 0.49683 0.96949 0.01134 0.0
C1051 C 0.39765 0.915 0.03385 0.0
C1052 C 0.59292 0.07974 0.007 0.0
C1053 C 0.56439 0.05839 0.00727 0.0
C1054 C 0.496 0.02418 0.03065 0.0
C1055 C 0.44131 0.94735 0.02113 0.0
C1056 C 0.4699 0.97232 0.02124 0.0
C1057 C 0.5509 0.04689 0.02042 0.0
C1058 C 0.52276 0.02147 0.02066 0.0
H1059 H 0.38865 0.90716 0.99748 0.0
H1060 H 0.4384 0.94399 0.99786 0.0
H1061 H 0.4492 0.00325 0.03852 0.0
H1062 H 0.6055 0.08741 0.04318 0.0
H1063 H 0.55584 0.05018 0.04361 0.0
C1064 C 0.41437 0.40329 0.78281 0.0
C1065 C 0.40454 0.38825 0.76969 0.0
C1066 C 0.43446 0.43276 0.78296 0.0
C1067 C 0.49672 0.47793 0.7602 0.0
H1068 H 0.48782 0.54961 0.78869 0.0
C1069 C 0.57434 0.60325 0.75813 0.0
C1070 C 0.58552 0.61743 0.77122 0.0
C1071 C 0.5532 0.57456 0.758 0.0
C1072 C 0.49091 0.52956 0.78078 0.0
H1073 H 0.40629 0.39397 0.74646 0.0
H1074 H 0.44074 0.44563 0.74678 0.0
H1075 H 0.4464 0.5032 0.78816 0.0
H1076 H 0.58439 0.61127 0.79445 0.0
H1077 H 0.54788 0.56099 0.79417 0.0
H1078 H 0.54121 0.50427 0.75283 0.0
C1079 C 0.43362 0.4341 0.75694 0.0
C1080 C 0.46709 0.50302 0.78044 0.0
C1081 C 0.41358 0.40461 0.75677 0.0
C1082 C 0.57624 0.6012 0.78415 0.0
C1083 C 0.55501 0.57253 0.78401 0.0
C1084 C 0.52049 0.50447 0.76053 0.0
C1085 C 0.44513 0.44795 0.77002 0.0
C1086 C 0.46969 0.47689 0.77015 0.0
C1087 C 0.54267 0.55931 0.77095 0.0
C1088 C 0.5179 0.53059 0.77082 0.0
H1089 H 0.40793 0.39148 0.79298 0.0
H1090 H 0.44297 0.44265 0.79323 0.0
H1091 H 0.49992 0.45785 0.75232 0.0
H1092 H 0.58091 0.615 0.74796 0.0
H1093 H 0.54401 0.56516 0.74776 0.0
C1094 C 0.60034 0.41955 0.24127 0.0
C1095 C 0.6146 0.40729 0.22838 0.0
C1096 C 0.5717 0.44071 0.24103 0.0
C1097 C 0.52736 0.50115 0.21712 0.0
H1098 H 0.45701 0.49729 0.24636 0.0
C1099 C 0.40319 0.58155 0.21541 0.0
C1100 C 0.39008 0.59338 0.2286 0.0
C1101 C 0.43195 0.56047 0.21509 0.0
C1102 C 0.47671 0.499 0.23822 0.0
H1103 H 0.60845 0.40616 0.20516 0.0
H1104 H 0.55818 0.44259 0.20481 0.0
H1105 H 0.50204 0.45455 0.24622 0.0
H1106 H 0.39867 0.59438 0.25168 0.0
H1107 H 0.44897 0.55815 0.25105 0.0
H1108 H 0.50187 0.54561 0.20912 0.0
C1109 C 0.56968 0.43642 0.21507 0.0
C1110 C 0.50246 0.47441 0.23812 0.0
C1111 C 0.59835 0.41525 0.2153 0.0
C1112 C 0.40777 0.58549 0.24134 0.0
C1113 C 0.43648 0.56446 0.241 0.0
C1114 C 0.50153 0.52573 0.21721 0.0
C1115 C 0.55654 0.45008 0.22791 0.0
C1116 C 0.5282 0.47526 0.22761 0.0
C1117 C 0.44823 0.55081 0.22793 0.0
C1118 C 0.47603 0.52506 0.22782 0.0
H1119 H 0.6121 0.41403 0.25155 0.0
H1120 H 0.56238 0.45093 0.25112 0.0
H1121 H 0.54711 0.5029 0.20902 0.0
H1122 H 0.39029 0.58707 0.20538 0.0
H1123 H 0.44034 0.55036 0.20484 0.0
C1124 C 0.41731 0.09554 0.46704 0.0
C1125 C 0.40775 0.11121 0.48006 0.0
C1126 C 0.43967 0.06777 0.467 0.0
C1127 C 0.50753 0.02952 0.48922 0.0
H1128 H 0.49927 0.95352 0.46278 0.0
C1129 C 0.58864 0.90672 0.49339 0.0
C1130 C 0.5981 0.89007 0.48058 0.0
C1131 C 0.56776 0.9356 0.49301 0.0
C1132 C 0.50224 0.97484 0.47008 0.0
H1133 H 0.41267 0.10832 0.5033 0.0
H1134 H 0.45109 0.05959 0.50319 0.0
H1135 H 0.45567 0.99779 0.46298 0.0
H1136 H 0.5949 0.89245 0.45727 0.0
H1137 H 0.55891 0.94302 0.45666 0.0
H1138 H 0.55401 0.00646 0.49636 0.0
C1139 C 0.44193 0.06936 0.493 0.0
C1140 C 0.47715 0.00015 0.47023 0.0
C1141 C 0.41958 0.09712 0.49306 0.0
C1142 C 0.58796 0.90437 0.46736 0.0
C1143 C 0.56704 0.93322 0.467 0.0
C1144 C 0.5326 0.0042 0.48907 0.0
C1145 C 0.45298 0.05495 0.47996 0.0
C1146 C 0.4794 0.02773 0.47986 0.0
C1147 C 0.55585 0.94855 0.47983 0.0
C1148 C 0.53021 0.97649 0.47953 0.0
H1149 H 0.40878 0.10563 0.45681 0.0
H1150 H 0.44773 0.05737 0.45675 0.0
H1151 H 0.51044 0.05079 0.49656 0.0
H1152 H 0.59597 0.89656 0.50377 0.0
H1153 H 0.55955 0.94671 0.5031 0.0
C1154 C 0.89917 0.41674 0.53332 0.0
C1155 C 0.88368 0.40702 0.52029 0.0
C1156 C 0.92793 0.43781 0.53334 0.0
C1157 C 0.99735 0.47149 0.51032 0.0
H1158 H 0.99707 0.54653 0.53753 0.0
C1159 C 0.09567 0.58009 0.50659 0.0
C1160 C 0.11126 0.59017 0.51954 0.0
C1161 C 0.06687 0.55909 0.50671 0.0
C1162 C 0.9977 0.52555 0.52995 0.0
H1163 H 0.88753 0.41068 0.49703 0.0
H1164 H 0.93751 0.44738 0.4971 0.0
H1165 H 0.95079 0.50499 0.53789 0.0
H1166 H 0.10752 0.58729 0.54283 0.0
H1167 H 0.05747 0.55062 0.54301 0.0
H1168 H 0.04425 0.49201 0.50239 0.0
C1169 C 0.92747 0.43862 0.50731 0.0
C1170 C 0.97123 0.50167 0.53018 0.0
C1171 C 0.89869 0.4176 0.50728 0.0
C1172 C 0.09625 0.5801 0.53263 0.0
C1173 C 0.06745 0.55908 0.53274 0.0
C1174 C 0.02382 0.49536 0.51009 0.0
C1175 C 0.94198 0.4496 0.52034 0.0
C1176 C 0.97072 0.47436 0.52036 0.0
C1177 C 0.05291 0.54765 0.51978 0.0
C1178 C 0.02429 0.52273 0.51989 0.0
H1179 H 0.88846 0.40902 0.54356 0.0
H1180 H 0.93889 0.44529 0.54357 0.0
H1181 H 0.99796 0.45053 0.50273 0.0
H1182 H 0.10632 0.58746 0.4963 0.0
H1183 H 0.05586 0.55134 0.49653 0.0
loop_
_geom_bond_atom_site_label_1
_geom_bond_atom_site_label_2
_geom_bond_distance
_geom_bond_site_symmetry_2
_ccdc_geom_bond_type
Co0 O1 2.216 . S
Co0 O2 2.091 . S
Co0 O4 2.004 . S
Co0 O10 2.021 . S
Co0 O12 2.137 . S
Co0 O13 2.244 . S
O1 Co0 2.216 . S
O1 C8 1.247 . S
O2 Co0 2.091 . S
O2 C8 1.261 . S
C3 O12 1.247 . S
C3 O13 1.272 . S
O4 Co0 2.004 . S
O4 C9 1.259 . S
Co5 O6 2.061 . S
Co5 O11 2.052 . S
Co5 O13 2.135 . S
O6 Co5 2.061 . S
O6 C9 1.235 . S
C7 O10 1.238 . S
C7 O11 1.241 . S
C8 O1 1.247 . S
C8 O2 1.261 . S
C9 O4 1.259 . S
C9 O6 1.235 . S
O10 Co0 2.021 . S
O10 C7 1.238 . S
O11 Co5 2.052 . S
O11 C7 1.241 . S
O12 Co0 2.137 . S
O12 C3 1.247 . S
O13 Co0 2.244 . S
O13 C3 1.272 . S
O13 Co5 2.135 . S
Co14 O15 2.216 . S
Co14 O16 2.091 . S
Co14 O18 2.004 . S
Co14 O24 2.021 . S
Co14 O26 2.137 . S
Co14 O27 2.244 . S
O15 Co14 2.216 . S
O15 C22 1.247 . S
O16 Co14 2.091 . S
O16 C22 1.261 . S
C17 O26 1.247 . S
C17 O27 1.272 . S
O18 Co14 2.004 . S
O18 C23 1.259 . S
Co19 O20 2.061 . S
Co19 O25 2.052 . S
Co19 O27 2.135 . S
O20 Co19 2.061 . S
O20 C23 1.235 . S
C21 O24 1.238 . S
C21 O25 1.241 . S
C22 O15 1.247 . S
C22 O16 1.261 . S
C23 O18 1.259 . S
C23 O20 1.235 . S
O24 Co14 2.021 . S
O24 C21 1.238 . S
O25 Co19 2.052 . S
O25 C21 1.241 . S
O26 Co14 2.137 . S
O26 C17 1.247 . S
O27 Co14 2.244 . S
O27 C17 1.272 . S
O27 Co19 2.135 . S
Co28 O29 2.216 . S
Co28 O30 2.091 . S
Co28 O32 2.004 . S
Co28 O38 2.021 . S
Co28 O40 2.137 . S
Co28 O41 2.244 . S
O29 Co28 2.216 . S
O29 C36 1.247 . S
O30 Co28 2.091 . S
O30 C36 1.261 . S
C31 O40 1.247 . S
C31 O41 1.272 . S
O32 Co28 2.004 . S
O32 C37 1.259 . S
Co33 O34 2.061 . S
Co33 O39 2.052 . S
Co33 O41 2.135 . S
O34 Co33 2.061 . S
O34 C37 1.235 . S
C35 O38 1.238 . S
C35 O39 1.241 . S
C36 O29 1.247 . S
C36 O30 1.261 . S
C37 O32 1.259 . S
C37 O34 1.235 . S
O38 Co28 2.021 . S
O38 C35 1.238 . S
O39 Co33 2.052 . S
O39 C35 1.241 . S
O40 Co28 2.137 . S
O40 C31 1.247 . S
O41 Co28 2.244 . S
O41 C31 1.272 . S
O41 Co33 2.135 . S
Co42 O43 2.216 . S
Co42 O44 2.091 . S
Co42 O46 2.004 . S
Co42 O52 2.021 . S
Co42 O54 2.137 . S
Co42 O55 2.244 . S
O43 Co42 2.216 . S
O43 C50 1.247 . S
O44 Co42 2.091 . S
O44 C50 1.261 . S
C45 O54 1.247 . S
C45 O55 1.272 . S
O46 Co42 2.004 . S
O46 C51 1.259 . S
Co47 O48 2.061 . S
Co47 O53 2.052 . S
Co47 O55 2.135 . S
O48 Co47 2.061 . S
O48 C51 1.235 . S
C49 O52 1.238 . S
C49 O53 1.241 . S
C50 O43 1.247 . S
C50 O44 1.261 . S
C51 O46 1.259 . S
C51 O48 1.235 . S
O52 Co42 2.021 . S
O52 C49 1.238 . S
O53 Co47 2.052 . S
O53 C49 1.241 . S
O54 Co42 2.137 . S
O54 C45 1.247 . S
O55 Co42 2.244 . S
O55 C45 1.272 . S
O55 Co47 2.135 . S
Co56 O57 2.216 . S
Co56 O58 2.091 . S
Co56 O60 2.004 . S
Co56 O66 2.021 . S
Co56 O68 2.137 . S
Co56 O69 2.244 . S
O57 Co56 2.216 . S
O57 C64 1.247 . S
O58 Co56 2.091 . S
O58 C64 1.261 . S
C59 O68 1.247 . S
C59 O69 1.272 . S
O60 Co56 2.004 . S
O60 C65 1.259 . S
Co61 O62 2.061 . S
Co61 O67 2.052 . S
Co61 O69 2.135 . S
O62 Co61 2.061 . S
O62 C65 1.235 . S
C63 O66 1.238 . S
C63 O67 1.241 . S
C64 O57 1.247 . S
C64 O58 1.261 . S
C65 O60 1.259 . S
C65 O62 1.235 . S
O66 Co56 2.021 . S
O66 C63 1.238 . S
O67 Co61 2.052 . S
O67 C63 1.241 . S
O68 Co56 2.137 . S
O68 C59 1.247 . S
O69 Co56 2.244 . S
O69 C59 1.272 . S
O69 Co61 2.135 . S
Co70 O71 2.216 . S
Co70 O72 2.091 . S
Co70 O74 2.004 . S
Co70 O80 2.021 . S
Co70 O82 2.137 . S
Co70 O83 2.244 . S
O71 Co70 2.216 . S
O71 C78 1.247 . S
O72 Co70 2.091 . S
O72 C78 1.261 . S
C73 O82 1.247 . S
C73 O83 1.272 . S
O74 Co70 2.004 . S
O74 C79 1.259 . S
Co75 O76 2.061 . S
Co75 O81 2.052 . S
Co75 O83 2.135 . S
O76 Co75 2.061 . S
O76 C79 1.235 . S
C77 O80 1.238 . S
C77 O81 1.241 . S
C78 O71 1.247 . S
C78 O72 1.261 . S
C79 O74 1.259 . S
C79 O76 1.235 . S
O80 Co70 2.021 . S
O80 C77 1.238 . S
O81 Co75 2.052 . S
O81 C77 1.241 . S
O82 Co70 2.137 . S
O82 C73 1.247 . S
O83 Co70 2.244 . S
O83 C73 1.272 . S
O83 Co75 2.135 . S
Co84 O85 2.216 . S
Co84 O86 2.091 . S
Co84 O88 2.004 . S
Co84 O94 2.021 . S
Co84 O96 2.137 . S
Co84 O97 2.244 . S
O85 Co84 2.216 . S
O85 C92 1.247 . S
O86 Co84 2.091 . S
O86 C92 1.261 . S
C87 O96 1.247 . S
C87 O97 1.272 . S
O88 Co84 2.004 . S
O88 C93 1.259 . S
Co89 O90 2.061 . S
Co89 O95 2.052 . S
Co89 O97 2.135 . S
O90 Co89 2.061 . S
O90 C93 1.235 . S
C91 O94 1.238 . S
C91 O95 1.241 . S
C92 O85 1.247 . S
C92 O86 1.261 . S
C93 O88 1.259 . S
C93 O90 1.235 . S
O94 Co84 2.021 . S
O94 C91 1.238 . S
O95 Co89 2.052 . S
O95 C91 1.241 . S
O96 Co84 2.137 . S
O96 C87 1.247 . S
O97 Co84 2.244 . S
O97 C87 1.272 . S
O97 Co89 2.135 . S
Co98 O99 2.216 . S
Co98 O100 2.091 . S
Co98 O102 2.004 . S
Co98 O108 2.021 . S
Co98 O110 2.137 . S
Co98 O111 2.244 . S
O99 Co98 2.216 . S
O99 C106 1.247 . S
O100 Co98 2.091 . S
O100 C106 1.261 . S
C101 O110 1.247 . S
C101 O111 1.272 . S
O102 Co98 2.004 . S
O102 C107 1.259 . S
Co103 O104 2.061 . S
Co103 O109 2.052 . S
Co103 O111 2.135 . S
O104 Co103 2.061 . S
O104 C107 1.235 . S
C105 O108 1.238 . S
C105 O109 1.241 . S
C106 O99 1.247 . S
C106 O100 1.261 . S
C107 O102 1.259 . S
C107 O104 1.235 . S
O108 Co98 2.021 . S
O108 C105 1.238 . S
O109 Co103 2.052 . S
O109 C105 1.241 . S
O110 Co98 2.137 . S
O110 C101 1.247 . S
O111 Co98 2.244 . S
O111 C101 1.272 . S
O111 Co103 2.135 . S
Co112 O113 2.216 . S
Co112 O114 2.091 . S
Co112 O116 2.004 . S
Co112 O122 2.021 . S
Co112 O124 2.137 . S
Co112 O125 2.244 . S
O113 Co112 2.216 . S
O113 C120 1.247 . S
O114 Co112 2.091 . S
O114 C120 1.261 . S
C115 O124 1.247 . S
C115 O125 1.272 . S
O116 Co112 2.004 . S
O116 C121 1.259 . S
Co117 O118 2.061 . S
Co117 O123 2.052 . S
Co117 O125 2.135 . S
O118 Co117 2.061 . S
O118 C121 1.235 . S
C119 O122 1.238 . S
C119 O123 1.241 . S
C120 O113 1.247 . S
C120 O114 1.261 . S
C121 O116 1.259 . S
C121 O118 1.235 . S
O122 Co112 2.021 . S
O122 C119 1.238 . S
O123 Co117 2.052 . S
O123 C119 1.241 . S
O124 Co112 2.137 . S
O124 C115 1.247 . S
O125 Co112 2.244 . S
O125 C115 1.272 . S
O125 Co117 2.135 . S
Co126 O127 2.216 . S
Co126 O128 2.091 . S
Co126 O130 2.004 . S
Co126 O136 2.021 . S
Co126 O138 2.137 . S
Co126 O139 2.244 . S
O127 Co126 2.216 . S
O127 C134 1.247 . S
O128 Co126 2.091 . S
O128 C134 1.261 . S
C129 O138 1.247 . S
C129 O139 1.272 . S
O130 Co126 2.004 . S
O130 C135 1.259 . S
Co131 O132 2.061 . S
Co131 O137 2.052 . S
Co131 O139 2.135 . S
O132 Co131 2.061 . S
O132 C135 1.235 . S
C133 O136 1.238 . S
C133 O137 1.241 . S
C134 O127 1.247 . S
C134 O128 1.261 . S
C135 O130 1.259 . S
C135 O132 1.235 . S
O136 Co126 2.021 . S
O136 C133 1.238 . S
O137 Co131 2.052 . S
O137 C133 1.241 . S
O138 Co126 2.137 . S
O138 C129 1.247 . S
O139 Co126 2.244 . S
O139 C129 1.272 . S
O139 Co131 2.135 . S
Co140 O141 2.216 . S
Co140 O142 2.091 . S
Co140 O144 2.004 . S
Co140 O150 2.021 . S
Co140 O152 2.137 . S
Co140 O153 2.244 . S
O141 Co140 2.216 . S
O141 C148 1.247 . S
O142 Co140 2.091 . S
O142 C148 1.261 . S
C143 O152 1.247 . S
C143 O153 1.272 . S
O144 Co140 2.004 . S
O144 C149 1.259 . S
Co145 O146 2.061 . S
Co145 O151 2.052 . S
Co145 O153 2.135 . S
O146 Co145 2.061 . S
O146 C149 1.235 . S
C147 O150 1.238 . S
C147 O151 1.241 . S
C148 O141 1.247 . S
C148 O142 1.261 . S
C149 O144 1.259 . S
C149 O146 1.235 . S
O150 Co140 2.021 . S
O150 C147 1.238 . S
O151 Co145 2.052 . S
O151 C147 1.241 . S
O152 Co140 2.137 . S
O152 C143 1.247 . S
O153 Co140 2.244 . S
O153 C143 1.272 . S
O153 Co145 2.135 . S
Co154 O155 2.216 . S
Co154 O156 2.091 . S
Co154 O158 2.004 . S
Co154 O164 2.021 . S
Co154 O166 2.137 . S
Co154 O167 2.244 . S
O155 Co154 2.216 . S
O155 C162 1.247 . S
O156 Co154 2.091 . S
O156 C162 1.261 . S
C157 O166 1.247 . S
C157 O167 1.272 . S
O158 Co154 2.004 . S
O158 C163 1.259 . S
Co159 O160 2.061 . S
Co159 O165 2.052 . S
Co159 O167 2.135 . S
O160 Co159 2.061 . S
O160 C163 1.235 . S
C161 O164 1.238 . S
C161 O165 1.241 . S
C162 O155 1.247 . S
C162 O156 1.261 . S
C163 O158 1.259 . S
C163 O160 1.235 . S
O164 Co154 2.021 . S
O164 C161 1.238 . S
O165 Co159 2.052 . S
O165 C161 1.241 . S
O166 Co154 2.137 . S
O166 C157 1.247 . S
O167 Co154 2.244 . S
O167 C157 1.272 . S
O167 Co159 2.135 . S
Co168 O169 2.216 . S
Co168 O170 2.091 . S
Co168 O172 2.004 . S
Co168 O178 2.021 . S
Co168 O180 2.137 . S
Co168 O181 2.244 . S
O169 Co168 2.216 . S
O169 C176 1.247 . S
O170 Co168 2.091 . S
O170 C176 1.261 . S
C171 O180 1.247 . S
C171 O181 1.272 . S
O172 Co168 2.004 . S
O172 C177 1.259 . S
Co173 O174 2.061 . S
Co173 O179 2.052 . S
Co173 O181 2.135 . S
O174 Co173 2.061 . S
O174 C177 1.235 . S
C175 O178 1.238 . S
C175 O179 1.241 . S
C176 O169 1.247 . S
C176 O170 1.261 . S
C177 O172 1.259 . S
C177 O174 1.235 . S
O178 Co168 2.021 . S
O178 C175 1.238 . S
O179 Co173 2.052 . S
O179 C175 1.241 . S
O180 Co168 2.137 . S
O180 C171 1.247 . S
O181 Co168 2.244 . S
O181 C171 1.272 . S
O181 Co173 2.135 . S
Co182 O183 2.216 . S
Co182 O184 2.091 . S
Co182 O186 2.004 . S
Co182 O192 2.021 . S
Co182 O194 2.137 . S
Co182 O195 2.244 . S
O183 Co182 2.216 . S
O183 C190 1.247 . S
O184 Co182 2.091 . S
O184 C190 1.261 . S
C185 O194 1.247 . S
C185 O195 1.272 . S
O186 Co182 2.004 . S
O186 C191 1.259 . S
Co187 O188 2.061 . S
Co187 O193 2.052 . S
Co187 O195 2.135 . S
O188 Co187 2.061 . S
O188 C191 1.235 . S
C189 O192 1.238 . S
C189 O193 1.241 . S
C190 O183 1.247 . S
C190 O184 1.261 . S
C191 O186 1.259 . S
C191 O188 1.235 . S
O192 Co182 2.021 . S
O192 C189 1.238 . S
O193 Co187 2.052 . S
O193 C189 1.241 . S
O194 Co182 2.137 . S
O194 C185 1.247 . S
O195 Co182 2.244 . S
O195 C185 1.272 . S
O195 Co187 2.135 . S
Co196 O197 2.216 . S
Co196 O198 2.091 . S
Co196 O200 2.004 . S
Co196 O206 2.021 . S
Co196 O208 2.137 . S
Co196 O209 2.244 . S
O197 Co196 2.216 . S
O197 C204 1.247 . S
O198 Co196 2.091 . S
O198 C204 1.261 . S
C199 O208 1.247 . S
C199 O209 1.272 . S
O200 Co196 2.004 . S
O200 C205 1.259 . S
Co201 O202 2.061 . S
Co201 O207 2.052 . S
Co201 O209 2.135 . S
O202 Co201 2.061 . S
O202 C205 1.235 . S
C203 O206 1.238 . S
C203 O207 1.241 . S
C204 O197 1.247 . S
C204 O198 1.261 . S
C205 O200 1.259 . S
C205 O202 1.235 . S
O206 Co196 2.021 . S
O206 C203 1.238 . S
O207 Co201 2.052 . S
O207 C203 1.241 . S
O208 Co196 2.137 . S
O208 C199 1.247 . S
O209 Co196 2.244 . S
O209 C199 1.272 . S
O209 Co201 2.135 . S
Co210 O211 2.216 . S
Co210 O212 2.091 . S
Co210 O214 2.004 . S
Co210 O220 2.021 . S
Co210 O222 2.137 . S
Co210 O223 2.244 . S
O211 Co210 2.216 . S
O211 C218 1.247 . S
O212 Co210 2.091 . S
O212 C218 1.261 . S
C213 O222 1.247 . S
C213 O223 1.272 . S
O214 Co210 2.004 . S
O214 C219 1.259 . S
Co215 O216 2.061 . S
Co215 O221 2.052 . S
Co215 O223 2.135 . S
O216 Co215 2.061 . S
O216 C219 1.235 . S
C217 O220 1.238 . S
C217 O221 1.241 . S
C218 O211 1.247 . S
C218 O212 1.261 . S
C219 O214 1.259 . S
C219 O216 1.235 . S
O220 Co210 2.021 . S
O220 C217 1.238 . S
O221 Co215 2.052 . S
O221 C217 1.241 . S
O222 Co210 2.137 . S
O222 C213 1.247 . S
O223 Co210 2.244 . S
O223 C213 1.272 . S
O223 Co215 2.135 . S
C224 C225 1.349 . S
C224 C226 1.327 . S
C224 H249 0.950 . S
C225 C224 1.349 . S
C225 C241 1.349 . S
C226 C224 1.327 . S
C226 C245 1.429 . S
C226 H250 0.950 . S
C227 C244 1.574 . S
C227 C246 1.368 . S
C227 H251 0.949 . S
H228 C232 0.949 . S
C229 C230 1.349 . S
C229 C231 1.327 . S
C229 H252 0.950 . S
C230 C229 1.349 . S
C230 C242 1.349 . S
C231 C229 1.327 . S
C231 C247 1.429 . S
C231 H253 0.950 . S
C232 H228 0.949 . S
C232 C240 1.574 . S
C232 C248 1.368 . S
H233 C241 0.950 . S
H234 C239 0.950 . S
H235 C240 0.949 . S
H236 C242 0.950 . S
H237 C243 0.950 . S
H238 C244 0.949 . S
C239 H234 0.950 . S
C239 C241 1.327 . S
C239 C245 1.429 . S
C240 C232 1.574 . S
C240 H235 0.949 . S
C240 C246 1.368 . S
C241 C225 1.349 . S
C241 H233 0.950 . S
C241 C239 1.327 . S
C242 C230 1.349 . S
C242 H236 0.950 . S
C242 C243 1.327 . S
C243 H237 0.950 . S
C243 C242 1.327 . S
C243 C247 1.429 . S
C244 C227 1.574 . S
C244 H238 0.949 . S
C244 C248 1.368 . S
C245 C226 1.429 . S
C245 C239 1.429 . S
C245 C246 1.523 . S
C246 C227 1.368 . S
C246 C240 1.368 . S
C246 C245 1.523 . S
C247 C231 1.429 . S
C247 C243 1.429 . S
C247 C248 1.523 . S
C248 C232 1.368 . S
C248 C244 1.368 . S
C248 C247 1.523 . S
H249 C224 0.950 . S
H250 C226 0.950 . S
H251 C227 0.949 . S
H252 C229 0.950 . S
H253 C231 0.950 . S
C254 C255 1.349 . S
C254 C256 1.327 . S
C254 H279 0.950 . S
C255 C254 1.349 . S
C255 C271 1.349 . S
C256 C254 1.327 . S
C256 C275 1.429 . S
C256 H280 0.950 . S
C257 C274 1.574 . S
C257 C276 1.368 . S
C257 H281 0.949 . S
H258 C262 0.949 . S
C259 C260 1.349 . S
C259 C261 1.327 . S
C259 H282 0.950 . S
C260 C259 1.349 . S
C260 C272 1.349 . S
C261 C259 1.327 . S
C261 C277 1.429 . S
C261 H283 0.950 . S
C262 H258 0.949 . S
C262 C270 1.574 . S
C262 C278 1.368 . S
H263 C271 0.950 . S
H264 C269 0.950 . S
H265 C270 0.949 . S
H266 C272 0.950 . S
H267 C273 0.950 . S
H268 C274 0.949 . S
C269 H264 0.950 . S
C269 C271 1.327 . S
C269 C275 1.429 . S
C270 C262 1.574 . S
C270 H265 0.949 . S
C270 C276 1.368 . S
C271 C255 1.349 . S
C271 H263 0.950 . S
C271 C269 1.327 . S
C272 C260 1.349 . S
C272 H266 0.950 . S
C272 C273 1.327 . S
C273 H267 0.950 . S
C273 C272 1.327 . S
C273 C277 1.429 . S
C274 C257 1.574 . S
C274 H268 0.949 . S
C274 C278 1.368 . S
C275 C256 1.429 . S
C275 C269 1.429 . S
C275 C276 1.523 . S
C276 C257 1.368 . S
C276 C270 1.368 . S
C276 C275 1.523 . S
C277 C261 1.429 . S
C277 C273 1.429 . S
C277 C278 1.523 . S
C278 C262 1.368 . S
C278 C274 1.368 . S
C278 C277 1.523 . S
H279 C254 0.950 . S
H280 C256 0.950 . S
H281 C257 0.949 . S
H282 C259 0.950 . S
H283 C261 0.950 . S
C284 C285 1.349 . S
C284 C286 1.327 . S
C284 H309 0.950 . S
C285 C284 1.349 . S
C285 C301 1.349 . S
C286 C284 1.327 . S
C286 C305 1.429 . S
C286 H310 0.950 . S
C287 C304 1.574 . S
C287 C306 1.368 . S
C287 H311 0.949 . S
H288 C292 0.949 . S
C289 C290 1.349 . S
C289 C291 1.327 . S
C289 H312 0.950 . S
C290 C289 1.349 . S
C290 C302 1.349 . S
C291 C289 1.327 . S
C291 C307 1.429 . S
C291 H313 0.950 . S
C292 H288 0.949 . S
C292 C300 1.574 . S
C292 C308 1.368 . S
H293 C301 0.950 . S
H294 C299 0.950 . S
H295 C300 0.949 . S
H296 C302 0.950 . S
H297 C303 0.950 . S
H298 C304 0.949 . S
C299 H294 0.950 . S
C299 C301 1.327 . S
C299 C305 1.429 . S
C300 C292 1.574 . S
C300 H295 0.949 . S
C300 C306 1.368 . S
C301 C285 1.349 . S
C301 H293 0.950 . S
C301 C299 1.327 . S
C302 C290 1.349 . S
C302 H296 0.950 . S
C302 C303 1.327 . S
C303 H297 0.950 . S
C303 C302 1.327 . S
C303 C307 1.429 . S
C304 C287 1.574 . S
C304 H298 0.949 . S
C304 C308 1.368 . S
C305 C286 1.429 . S
C305 C299 1.429 . S
C305 C306 1.523 . S
C306 C287 1.368 . S
C306 C300 1.368 . S
C306 C305 1.523 . S
C307 C291 1.429 . S
C307 C303 1.429 . S
C307 C308 1.523 . S
C308 C292 1.368 . S
C308 C304 1.368 . S
C308 C307 1.523 . S
H309 C284 0.950 . S
H310 C286 0.950 . S
H311 C287 0.949 . S
H312 C289 0.950 . S
H313 C291 0.950 . S
C314 C315 1.349 . S
C314 C316 1.327 . S
C314 H339 0.950 . S
C315 C314 1.349 . S
C315 C331 1.349 . S
C316 C314 1.327 . S
C316 C335 1.429 . S
C316 H340 0.950 . S
C317 C334 1.574 . S
C317 C336 1.368 . S
C317 H341 0.949 . S
H318 C322 0.949 . S
C319 C320 1.349 . S
C319 C321 1.327 . S
C319 H342 0.950 . S
C320 C319 1.349 . S
C320 C332 1.349 . S
C321 C319 1.327 . S
C321 C337 1.429 . S
C321 H343 0.950 . S
C322 H318 0.949 . S
C322 C330 1.574 . S
C322 C338 1.368 . S
H323 C331 0.950 . S
H324 C329 0.950 . S
H325 C330 0.949 . S
H326 C332 0.950 . S
H327 C333 0.950 . S
H328 C334 0.949 . S
C329 H324 0.950 . S
C329 C331 1.327 . S
C329 C335 1.429 . S
C330 C322 1.574 . S
C330 H325 0.949 . S
C330 C336 1.368 . S
C331 C315 1.349 . S
C331 H323 0.950 . S
C331 C329 1.327 . S
C332 C320 1.349 . S
C332 H326 0.950 . S
C332 C333 1.327 . S
C333 H327 0.950 . S
C333 C332 1.327 . S
C333 C337 1.429 . S
C334 C317 1.574 . S
C334 H328 0.949 . S
C334 C338 1.368 . S
C335 C316 1.429 . S
C335 C329 1.429 . S
C335 C336 1.523 . S
C336 C317 1.368 . S
C336 C330 1.368 . S
C336 C335 1.523 . S
C337 C321 1.429 . S
C337 C333 1.429 . S
C337 C338 1.523 . S
C338 C322 1.368 . S
C338 C334 1.368 . S
C338 C337 1.523 . S
H339 C314 0.950 . S
H340 C316 0.950 . S
H341 C317 0.949 . S
H342 C319 0.950 . S
H343 C321 0.950 . S
C344 C345 1.349 1_545 S
C344 C346 1.327 . S
C344 H369 0.950 . S
C345 C344 1.349 1_565 S
C345 C361 1.349 . S
C346 C344 1.327 . S
C346 C365 1.429 . S
C346 H370 0.950 . S
C347 C364 1.587 . S
C347 C366 1.345 1_556 S
C347 H371 0.960 . S
H348 C352 0.949 . S
C349 C350 1.349 . S
C349 C351 1.327 . S
C349 H372 0.950 . S
C350 C349 1.349 . S
C350 C362 1.349 . S
C351 C349 1.327 . S
C351 C367 1.429 . S
C351 H373 0.950 . S
C352 H348 0.949 . S
C352 C360 1.574 . S
C352 C368 1.335 1_554 S
H353 C361 0.950 . S
H354 C359 0.950 . S
H355 C360 0.949 . S
H356 C362 0.950 . S
H357 C363 0.950 1_554 S
H358 C364 0.949 . S
C359 H354 0.950 . S
C359 C361 1.327 1_545 S
C359 C365 1.429 . S
C360 C352 1.574 . S
C360 H355 0.949 . S
C360 C366 1.368 . S
C361 C345 1.349 . S
C361 H353 0.950 . S
C361 C359 1.327 1_565 S
C362 C350 1.349 . S
C362 H356 0.950 . S
C362 C363 1.327 . S
C363 H357 0.950 1_556 S
C363 C362 1.327 . S
C363 C367 1.429 . S
C364 C347 1.587 . S
C364 H358 0.949 . S
C364 C368 1.389 . S
C365 C346 1.429 . S
C365 C359 1.429 . S
C365 C366 1.523 . S
C366 C347 1.345 1_554 S
C366 C360 1.368 . S
C366 C365 1.523 . S
C367 C351 1.429 . S
C367 C363 1.429 . S
C367 C368 1.541 . S
C368 C352 1.335 1_556 S
C368 C364 1.389 . S
C368 C367 1.541 . S
H369 C344 0.950 . S
H370 C346 0.950 . S
H371 C347 0.960 . S
H372 C349 0.950 . S
H373 C351 0.950 . S
C374 C375 1.349 . S
C374 C376 1.327 . S
C374 H399 0.950 . S
C375 C374 1.349 . S
C375 C391 1.349 . S
C376 C374 1.327 . S
C376 C395 1.429 . S
C376 H400 0.950 . S
C377 C394 1.574 . S
C377 C396 1.326 1_556 S
C377 H401 0.949 . S
H378 C382 0.949 . S
C379 C380 1.349 1_455 S
C379 C381 1.327 . S
C379 H402 0.950 . S
C380 C379 1.349 1_655 S
C380 C392 1.356 . S
C381 C379 1.327 . S
C381 C397 1.429 . S
C381 H403 0.950 . S
C382 H378 0.949 . S
C382 C390 1.574 . S
C382 C398 1.368 1_554 S
H383 C391 0.933 1_556 S
H384 C389 1.013 . S
H385 C390 0.949 . S
H386 C392 0.966 . S
H387 C393 0.913 1_554 S
H388 C394 0.949 . S
C389 H384 1.013 . S
C389 C391 1.301 1_556 S
C389 C395 1.396 1_556 S
C390 C382 1.574 . S
C390 H385 0.949 . S
C390 C396 1.398 . S
C391 C375 1.349 . S
C391 H383 0.933 1_554 S
C391 C389 1.301 1_554 S
C392 C380 1.356 . S
C392 H386 0.966 . S
C392 C393 1.305 1_655 S
C393 H387 0.913 1_556 S
C393 C392 1.305 1_455 S
C393 C397 1.429 . S
C394 C377 1.574 . S
C394 H388 0.949 . S
C394 C398 1.368 . S
C395 C376 1.429 . S
C395 C389 1.396 1_554 S
C395 C396 1.541 . S
C396 C377 1.326 1_554 S
C396 C390 1.398 . S
C396 C395 1.541 . S
C397 C381 1.429 . S
C397 C393 1.429 . S
C397 C398 1.523 . S
C398 C382 1.368 1_556 S
C398 C394 1.368 . S
C398 C397 1.523 . S
H399 C374 0.950 . S
H400 C376 0.950 . S
H401 C377 0.949 . S
H402 C379 0.950 . S
H403 C381 0.950 . S
C404 C405 1.349 . S
C404 C406 1.327 . S
C404 H429 0.950 . S
C405 C404 1.349 . S
C405 C421 1.349 . S
C406 C404 1.327 . S
C406 C425 1.429 . S
C406 H430 0.950 . S
C407 C424 1.574 . S
C407 C426 1.331 1_554 S
C407 H431 0.949 . S
H408 C412 0.949 . S
C409 C410 1.349 1_565 S
C409 C411 1.327 . S
C409 H432 0.950 1_565 S
C410 C409 1.349 1_545 S
C410 C422 1.349 1_545 S
C411 C409 1.327 . S
C411 C427 1.429 . S
C411 H433 0.950 . S
C412 H408 0.949 . S
C412 C420 1.574 . S
C412 C428 1.368 1_556 S
H413 C421 0.950 . S
H414 C419 0.907 1_554 S
H415 C420 0.949 . S
H416 C422 0.950 1_545 S
H417 C423 0.950 . S
H418 C424 0.949 . S
C419 H414 0.907 1_556 S
C419 C421 1.349 . S
C419 C425 1.450 . S
C420 C412 1.574 . S
C420 H415 0.949 . S
C420 C426 1.393 . S
C421 C405 1.349 . S
C421 H413 0.950 . S
C421 C419 1.349 . S
C422 C410 1.349 1_565 S
C422 H416 0.950 1_565 S
C422 C423 1.327 . S
C423 H417 0.950 . S
C423 C422 1.327 . S
C423 C427 1.429 . S
C424 C407 1.574 . S
C424 H418 0.949 . S
C424 C428 1.368 . S
C425 C406 1.429 . S
C425 C419 1.450 . S
C425 C426 1.541 . S
C426 C407 1.331 1_556 S
C426 C420 1.393 . S
C426 C425 1.541 . S
C427 C411 1.429 . S
C427 C423 1.429 . S
C427 C428 1.523 . S
C428 C412 1.368 1_554 S
C428 C424 1.368 . S
C428 C427 1.523 . S
H429 C404 0.950 . S
H430 C406 0.950 . S
H431 C407 0.949 . S
H432 C409 0.950 1_545 S
H433 C411 0.950 . S
C434 C435 1.349 . S
C434 C436 1.327 1_554 S
C434 H459 0.950 1_554 S
C435 C434 1.349 . S
C435 C451 1.349 . S
C436 C434 1.327 1_556 S
C436 C455 1.429 1_556 S
C436 H460 0.950 . S
C437 C454 1.574 . S
C437 C456 1.400 . S
C437 H461 0.949 . S
H438 C442 0.949 . S
C439 C440 1.349 . S
C439 C441 1.327 1_455 S
C439 H462 0.950 . S
C440 C439 1.349 . S
C440 C452 1.349 1_455 S
C441 C439 1.327 1_655 S
C441 C457 1.429 . S
C441 H463 0.950 1_556 S
C442 H438 0.949 . S
C442 C450 1.574 . S
C442 C458 1.368 . S
H443 C451 0.950 . S
H444 C449 0.950 . S
H445 C450 0.949 . S
H446 C452 0.950 . S
H447 C453 0.950 . S
H448 C454 0.949 . S
C449 H444 0.950 . S
C449 C451 1.327 . S
C449 C455 1.429 . S
C450 C442 1.574 . S
C450 H445 0.949 . S
C450 C456 1.323 1_556 S
C451 C435 1.349 . S
C451 H443 0.950 . S
C451 C449 1.327 . S
C452 C440 1.349 1_655 S
C452 H446 0.950 . S
C452 C453 1.327 . S
C453 H447 0.950 . S
C453 C452 1.327 . S
C453 C457 1.429 . S
C454 C437 1.574 . S
C454 H448 0.949 . S
C454 C458 1.368 1_554 S
C455 C436 1.429 1_554 S
C455 C449 1.429 . S
C455 C456 1.541 . S
C456 C437 1.400 . S
C456 C450 1.323 1_554 S
C456 C455 1.541 . S
C457 C441 1.429 . S
C457 C453 1.429 . S
C457 C458 1.523 . S
C458 C442 1.368 . S
C458 C454 1.368 1_556 S
C458 C457 1.523 . S
H459 C434 0.950 1_556 S
H460 C436 0.950 . S
H461 C437 0.949 . S
H462 C439 0.950 . S
H463 C441 0.950 1_554 S
C464 C465 1.349 . S
C464 C466 1.327 . S
C464 H489 0.950 . S
C465 C464 1.349 . S
C465 C481 1.349 . S
C466 C464 1.327 . S
C466 C485 1.429 . S
C466 H490 0.950 . S
C467 C484 1.574 . S
C467 C486 1.368 . S
C467 H491 0.949 . S
H468 C472 0.949 . S
C469 C470 1.349 . S
C469 C471 1.327 1_545 S
C469 H492 0.950 . S
C470 C469 1.349 . S
C470 C482 1.349 1_545 S
C471 C469 1.327 1_565 S
C471 C487 1.429 . S
C471 H493 0.950 . S
C472 H468 0.949 . S
C472 C480 1.574 . S
C472 C488 1.368 . S
H473 C481 0.950 . S
H474 C479 0.950 . S
H475 C480 0.949 . S
H476 C482 0.950 . S
H477 C483 0.950 . S
H478 C484 0.949 . S
C479 H474 0.950 . S
C479 C481 1.327 . S
C479 C485 1.429 . S
C480 C472 1.574 . S
C480 H475 0.949 . S
C480 C486 1.368 . S
C481 C465 1.349 . S
C481 H473 0.950 . S
C481 C479 1.327 . S
C482 C470 1.349 1_565 S
C482 H476 0.950 . S
C482 C483 1.327 . S
C483 H477 0.950 . S
C483 C482 1.327 . S
C483 C487 1.429 . S
C484 C467 1.574 . S
C484 H478 0.949 . S
C484 C488 1.368 . S
C485 C466 1.429 . S
C485 C479 1.429 . S
C485 C486 1.523 . S
C486 C467 1.368 . S
C486 C480 1.368 . S
C486 C485 1.523 . S
C487 C471 1.429 . S
C487 C483 1.429 . S
C487 C488 1.523 . S
C488 C472 1.368 . S
C488 C484 1.368 . S
C488 C487 1.523 . S
H489 C464 0.950 . S
H490 C466 0.950 . S
H491 C467 0.949 . S
H492 C469 0.950 . S
H493 C471 0.950 . S
C494 C495 1.349 1_655 S
C494 C496 1.327 . S
C494 H519 0.950 . S
C495 C494 1.349 1_455 S
C495 C511 1.349 . S
C496 C494 1.327 . S
C496 C515 1.429 . S
C496 H520 0.950 . S
C497 C514 1.574 . S
C497 C516 1.368 . S
C497 H521 0.949 . S
H498 C502 0.949 . S
C499 C500 1.349 . S
C499 C501 1.327 . S
C499 H522 0.950 . S
C500 C499 1.349 . S
C500 C512 1.349 . S
C501 C499 1.327 . S
C501 C517 1.429 . S
C501 H523 0.950 . S
C502 H498 0.949 . S
C502 C510 1.574 . S
C502 C518 1.368 . S
H503 C511 0.950 . S
H504 C509 0.950 . S
H505 C510 0.949 . S
H506 C512 0.950 . S
H507 C513 0.950 . S
H508 C514 0.949 . S
C509 H504 0.950 . S
C509 C511 1.327 1_655 S
C509 C515 1.429 . S
C510 C502 1.574 . S
C510 H505 0.949 . S
C510 C516 1.368 . S
C511 C495 1.349 . S
C511 H503 0.950 . S
C511 C509 1.327 1_455 S
C512 C500 1.349 . S
C512 H506 0.950 . S
C512 C513 1.327 . S
C513 H507 0.950 . S
C513 C512 1.327 . S
C513 C517 1.429 . S
C514 C497 1.574 . S
C514 H508 0.949 . S
C514 C518 1.368 . S
C515 C496 1.429 . S
C515 C509 1.429 . S
C515 C516 1.523 . S
C516 C497 1.368 . S
C516 C510 1.368 . S
C516 C515 1.523 . S
C517 C501 1.429 . S
C517 C513 1.429 . S
C517 C518 1.523 . S
C518 C502 1.368 . S
C518 C514 1.368 . S
C518 C517 1.523 . S
H519 C494 0.950 . S
H520 C496 0.950 . S
H521 C497 0.949 . S
H522 C499 0.950 . S
H523 C501 0.950 . S
C524 C525 1.349 . S
C524 C526 1.327 1_565 S
C524 H549 0.950 . S
C525 C524 1.349 . S
C525 C541 1.349 1_565 S
C526 C524 1.327 1_545 S
C526 C545 1.429 . S
C526 H550 0.950 . S
C527 C544 1.574 . S
C527 C546 1.368 . S
C527 H551 0.949 . S
H528 C532 0.949 . S
C529 C530 1.349 . S
C529 C531 1.327 . S
C529 H552 0.950 . S
C530 C529 1.349 . S
C530 C542 1.349 . S
C531 C529 1.327 . S
C531 C547 1.429 . S
C531 H553 0.950 . S
C532 H528 0.949 . S
C532 C540 1.574 . S
C532 C548 1.368 . S
H533 C541 0.950 . S
H534 C539 0.950 . S
H535 C540 0.949 . S
H536 C542 0.950 . S
H537 C543 0.950 . S
H538 C544 0.949 . S
C539 H534 0.950 . S
C539 C541 1.327 . S
C539 C545 1.429 . S
C540 C532 1.574 . S
C540 H535 0.949 . S
C540 C546 1.368 . S
C541 C525 1.349 1_545 S
C541 H533 0.950 . S
C541 C539 1.327 . S
C542 C530 1.349 . S
C542 H536 0.950 . S
C542 C543 1.327 . S
C543 H537 0.950 . S
C543 C542 1.327 . S
C543 C547 1.429 . S
C544 C527 1.574 . S
C544 H538 0.949 . S
C544 C548 1.368 . S
C545 C526 1.429 . S
C545 C539 1.429 . S
C545 C546 1.523 . S
C546 C527 1.368 . S
C546 C540 1.368 . S
C546 C545 1.523 . S
C547 C531 1.429 . S
C547 C543 1.429 . S
C547 C548 1.523 . S
C548 C532 1.368 . S
C548 C544 1.368 . S
C548 C547 1.523 . S
H549 C524 0.950 . S
H550 C526 0.950 . S
H551 C527 0.949 . S
H552 C529 0.950 . S
H553 C531 0.950 . S
C554 C555 1.349 . S
C554 C556 1.327 1_655 S
C554 H579 0.950 . S
C555 C554 1.349 . S
C555 C571 1.349 1_655 S
C556 C554 1.327 1_455 S
C556 C575 1.429 . S
C556 H580 0.950 . S
C557 C574 1.574 . S
C557 C576 1.368 . S
C557 H581 0.949 . S
H558 C562 0.949 . S
C559 C560 1.349 . S
C559 C561 1.327 . S
C559 H582 0.950 . S
C560 C559 1.349 . S
C560 C572 1.349 . S
C561 C559 1.327 . S
C561 C577 1.429 . S
C561 H583 0.950 . S
C562 H558 0.949 . S
C562 C570 1.574 . S
C562 C578 1.368 . S
H563 C571 0.950 . S
H564 C569 0.950 . S
H565 C570 0.949 . S
H566 C572 0.950 . S
H567 C573 0.950 . S
H568 C574 0.949 . S
C569 H564 0.950 . S
C569 C571 1.327 . S
C569 C575 1.429 . S
C570 C562 1.574 . S
C570 H565 0.949 . S
C570 C576 1.368 . S
C571 C555 1.349 1_455 S
C571 H563 0.950 . S
C571 C569 1.327 . S
C572 C560 1.349 . S
C572 H566 0.950 . S
C572 C573 1.327 . S
C573 H567 0.950 . S
C573 C572 1.327 . S
C573 C577 1.429 . S
C574 C557 1.574 . S
C574 H568 0.949 . S
C574 C578 1.368 . S
C575 C556 1.429 . S
C575 C569 1.429 . S
C575 C576 1.523 . S
C576 C557 1.368 . S
C576 C570 1.368 . S
C576 C575 1.523 . S
C577 C561 1.429 . S
C577 C573 1.429 . S
C577 C578 1.523 . S
C578 C562 1.368 . S
C578 C574 1.368 . S
C578 C577 1.523 . S
H579 C554 0.950 . S
H580 C556 0.950 . S
H581 C557 0.949 . S
H582 C559 0.950 . S
H583 C561 0.950 . S
C584 C585 1.349 . S
C584 C586 1.327 . S
C584 H609 0.950 . S
C585 C584 1.349 . S
C585 C601 1.349 . S
C586 C584 1.327 . S
C586 C605 1.429 . S
C586 H610 0.950 . S
C587 C604 1.574 . S
C587 C606 1.368 . S
C587 H611 0.949 . S
H588 C592 0.949 . S
C589 C590 1.349 . S
C589 C591 1.327 . S
C589 H612 0.950 . S
C590 C589 1.349 . S
C590 C602 1.349 . S
C591 C589 1.327 . S
C591 C607 1.429 . S
C591 H613 0.950 . S
C592 H588 0.949 . S
C592 C600 1.574 . S
C592 C608 1.368 . S
H593 C601 0.950 . S
H594 C599 0.950 . S
H595 C600 0.949 . S
H596 C602 0.950 . S
H597 C603 0.950 . S
H598 C604 0.949 . S
C599 H594 0.950 . S
C599 C601 1.327 . S
C599 C605 1.429 . S
C600 C592 1.574 . S
C600 H595 0.949 . S
C600 C606 1.368 . S
C601 C585 1.349 . S
C601 H593 0.950 . S
C601 C599 1.327 . S
C602 C590 1.349 . S
C602 H596 0.950 . S
C602 C603 1.327 . S
C603 H597 0.950 . S
C603 C602 1.327 . S
C603 C607 1.429 . S
C604 C587 1.574 . S
C604 H598 0.949 . S
C604 C608 1.368 . S
C605 C586 1.429 . S
C605 C599 1.429 . S
C605 C606 1.523 . S
C606 C587 1.368 . S
C606 C600 1.368 . S
C606 C605 1.523 . S
C607 C591 1.429 . S
C607 C603 1.429 . S
C607 C608 1.523 . S
C608 C592 1.368 . S
C608 C604 1.368 . S
C608 C607 1.523 . S
H609 C584 0.950 . S
H610 C586 0.950 . S
H611 C587 0.949 . S
H612 C589 0.950 . S
H613 C591 0.950 . S
C614 C615 1.349 . S
C614 C616 1.327 . S
C614 H639 0.950 . S
C615 C614 1.349 . S
C615 C631 1.349 . S
C616 C614 1.327 . S
C616 C635 1.429 . S
C616 H640 0.950 . S
C617 C634 1.574 . S
C617 C636 1.368 . S
C617 H641 0.949 . S
H618 C622 0.949 . S
C619 C620 1.349 . S
C619 C621 1.327 . S
C619 H642 0.950 . S
C620 C619 1.349 . S
C620 C632 1.349 . S
C621 C619 1.327 . S
C621 C637 1.429 . S
C621 H643 0.950 . S
C622 H618 0.949 . S
C622 C630 1.574 . S
C622 C638 1.368 . S
H623 C631 0.950 . S
H624 C629 0.950 . S
H625 C630 0.949 . S
H626 C632 0.950 . S
H627 C633 0.950 . S
H628 C634 0.949 . S
C629 H624 0.950 . S
C629 C631 1.327 . S
C629 C635 1.429 . S
C630 C622 1.574 . S
C630 H625 0.949 . S
C630 C636 1.368 . S
C631 C615 1.349 . S
C631 H623 0.950 . S
C631 C629 1.327 . S
C632 C620 1.349 . S
C632 H626 0.950 . S
C632 C633 1.327 . S
C633 H627 0.950 . S
C633 C632 1.327 . S
C633 C637 1.429 . S
C634 C617 1.574 . S
C634 H628 0.949 . S
C634 C638 1.368 . S
C635 C616 1.429 . S
C635 C629 1.429 . S
C635 C636 1.523 . S
C636 C617 1.368 . S
C636 C630 1.368 . S
C636 C635 1.523 . S
C637 C621 1.429 . S
C637 C633 1.429 . S
C637 C638 1.523 . S
C638 C622 1.368 . S
C638 C634 1.368 . S
C638 C637 1.523 . S
H639 C614 0.950 . S
H640 C616 0.950 . S
H641 C617 0.949 . S
H642 C619 0.950 . S
H643 C621 0.950 . S
C644 C645 1.349 . S
C644 C646 1.327 . S
C644 H669 0.950 . S
C645 C644 1.349 . S
C645 C661 1.349 . S
C646 C644 1.327 . S
C646 C665 1.429 . S
C646 H670 0.950 . S
C647 C664 1.574 . S
C647 C666 1.368 . S
C647 H671 0.949 . S
H648 C652 0.949 . S
C649 C650 1.349 . S
C649 C651 1.327 . S
C649 H672 0.950 . S
C650 C649 1.349 . S
C650 C662 1.349 . S
C651 C649 1.327 . S
C651 C667 1.429 . S
C651 H673 0.950 . S
C652 H648 0.949 . S
C652 C660 1.574 . S
C652 C668 1.368 . S
H653 C661 0.950 . S
H654 C659 0.950 . S
H655 C660 0.949 . S
H656 C662 0.950 . S
H657 C663 0.950 . S
H658 C664 0.949 . S
C659 H654 0.950 . S
C659 C661 1.327 . S
C659 C665 1.429 . S
C660 C652 1.574 . S
C660 H655 0.949 . S
C660 C666 1.368 . S
C661 C645 1.349 . S
C661 H653 0.950 . S
C661 C659 1.327 . S
C662 C650 1.349 . S
C662 H656 0.950 . S
C662 C663 1.327 . S
C663 H657 0.950 . S
C663 C662 1.327 . S
C663 C667 1.429 . S
C664 C647 1.574 . S
C664 H658 0.949 . S
C664 C668 1.368 . S
C665 C646 1.429 . S
C665 C659 1.429 . S
C665 C666 1.523 . S
C666 C647 1.368 . S
C666 C660 1.368 . S
C666 C665 1.523 . S
C667 C651 1.429 . S
C667 C663 1.429 . S
C667 C668 1.523 . S
C668 C652 1.368 . S
C668 C664 1.368 . S
C668 C667 1.523 . S
H669 C644 0.950 . S
H670 C646 0.950 . S
H671 C647 0.949 . S
H672 C649 0.950 . S
H673 C651 0.950 . S
C674 C675 1.349 . S
C674 C676 1.327 . S
C674 H699 0.950 . S
C675 C674 1.349 . S
C675 C691 1.349 . S
C676 C674 1.327 . S
C676 C695 1.429 . S
C676 H700 0.950 . S
C677 C694 1.574 . S
C677 C696 1.368 . S
C677 H701 0.949 . S
H678 C682 0.949 . S
C679 C680 1.349 . S
C679 C681 1.327 . S
C679 H702 0.950 . S
C680 C679 1.349 . S
C680 C692 1.349 . S
C681 C679 1.327 . S
C681 C697 1.429 . S
C681 H703 0.950 . S
C682 H678 0.949 . S
C682 C690 1.574 . S
C682 C698 1.368 . S
H683 C691 0.950 . S
H684 C689 0.950 . S
H685 C690 0.949 . S
H686 C692 0.950 . S
H687 C693 0.950 . S
H688 C694 0.949 . S
C689 H684 0.950 . S
C689 C691 1.327 . S
C689 C695 1.429 . S
C690 C682 1.574 . S
C690 H685 0.949 . S
C690 C696 1.368 . S
C691 C675 1.349 . S
C691 H683 0.950 . S
C691 C689 1.327 . S
C692 C680 1.349 . S
C692 H686 0.950 . S
C692 C693 1.327 . S
C693 H687 0.950 . S
C693 C692 1.327 . S
C693 C697 1.429 . S
C694 C677 1.574 . S
C694 H688 0.949 . S
C694 C698 1.368 . S
C695 C676 1.429 . S
C695 C689 1.429 . S
C695 C696 1.523 . S
C696 C677 1.368 . S
C696 C690 1.368 . S
C696 C695 1.523 . S
C697 C681 1.429 . S
C697 C693 1.429 . S
C697 C698 1.523 . S
C698 C682 1.368 . S
C698 C694 1.368 . S
C698 C697 1.523 . S
H699 C674 0.950 . S
H700 C676 0.950 . S
H701 C677 0.949 . S
H702 C679 0.950 . S
H703 C681 0.950 . S
C704 C705 1.349 . S
C704 C706 1.327 . S
C704 H729 0.950 . S
C705 C704 1.349 . S
C705 C721 1.349 . S
C706 C704 1.327 . S
C706 C725 1.429 . S
C706 H730 0.950 . S
C707 C724 1.574 . S
C707 C726 1.368 . S
C707 H731 0.949 . S
H708 C712 0.949 . S
C709 C710 1.349 . S
C709 C711 1.327 . S
C709 H732 0.950 . S
C710 C709 1.349 . S
C710 C722 1.349 . S
C711 C709 1.327 . S
C711 C727 1.429 . S
C711 H733 0.950 . S
C712 H708 0.949 . S
C712 C720 1.574 . S
C712 C728 1.368 . S
H713 C721 0.950 . S
H714 C719 0.950 . S
H715 C720 0.949 . S
H716 C722 0.950 . S
H717 C723 0.950 . S
H718 C724 0.949 . S
C719 H714 0.950 . S
C719 C721 1.327 . S
C719 C725 1.429 . S
C720 C712 1.574 . S
C720 H715 0.949 . S
C720 C726 1.368 . S
C721 C705 1.349 . S
C721 H713 0.950 . S
C721 C719 1.327 . S
C722 C710 1.349 . S
C722 H716 0.950 . S
C722 C723 1.327 . S
C723 H717 0.950 . S
C723 C722 1.327 . S
C723 C727 1.429 . S
C724 C707 1.574 . S
C724 H718 0.949 . S
C724 C728 1.368 . S
C725 C706 1.429 . S
C725 C719 1.429 . S
C725 C726 1.523 . S
C726 C707 1.368 . S
C726 C720 1.368 . S
C726 C725 1.523 . S
C727 C711 1.429 . S
C727 C723 1.429 . S
C727 C728 1.523 . S
C728 C712 1.368 . S
C728 C724 1.368 . S
C728 C727 1.523 . S
H729 C704 0.950 . S
H730 C706 0.950 . S
H731 C707 0.949 . S
H732 C709 0.950 . S
H733 C711 0.950 . S
C734 C735 1.349 . S
C734 C736 1.327 . S
C734 H759 0.950 . S
C735 C734 1.349 . S
C735 C751 1.349 . S
C736 C734 1.327 . S
C736 C755 1.429 . S
C736 H760 0.950 . S
C737 C754 1.574 . S
C737 C756 1.368 . S
C737 H761 0.949 . S
H738 C742 0.949 . S
C739 C740 1.349 . S
C739 C741 1.327 . S
C739 H762 0.950 . S
C740 C739 1.349 . S
C740 C752 1.349 . S
C741 C739 1.327 . S
C741 C757 1.429 . S
C741 H763 0.950 . S
C742 H738 0.949 . S
C742 C750 1.574 . S
C742 C758 1.368 . S
H743 C751 0.950 . S
H744 C749 0.950 . S
H745 C750 0.949 . S
H746 C752 0.950 . S
H747 C753 0.950 . S
H748 C754 0.949 . S
C749 H744 0.950 . S
C749 C751 1.327 . S
C749 C755 1.429 . S
C750 C742 1.574 . S
C750 H745 0.949 . S
C750 C756 1.368 . S
C751 C735 1.349 . S
C751 H743 0.950 . S
C751 C749 1.327 . S
C752 C740 1.349 . S
C752 H746 0.950 . S
C752 C753 1.327 . S
C753 H747 0.950 . S
C753 C752 1.327 . S
C753 C757 1.429 . S
C754 C737 1.574 . S
C754 H748 0.949 . S
C754 C758 1.368 . S
C755 C736 1.429 . S
C755 C749 1.429 . S
C755 C756 1.523 . S
C756 C737 1.368 . S
C756 C750 1.368 . S
C756 C755 1.523 . S
C757 C741 1.429 . S
C757 C753 1.429 . S
C757 C758 1.523 . S
C758 C742 1.368 . S
C758 C754 1.368 . S
C758 C757 1.523 . S
H759 C734 0.950 . S
H760 C736 0.950 . S
H761 C737 0.949 . S
H762 C739 0.950 . S
H763 C741 0.950 . S
C764 C765 1.349 . S
C764 C766 1.327 . S
C764 H789 0.950 . S
C765 C764 1.349 . S
C765 C781 1.349 . S
C766 C764 1.327 . S
C766 C785 1.429 . S
C766 H790 0.950 . S
C767 C784 1.574 . S
C767 C786 1.368 . S
C767 H791 0.949 . S
H768 C772 0.949 . S
C769 C770 1.349 . S
C769 C771 1.327 . S
C769 H792 0.950 . S
C770 C769 1.349 . S
C770 C782 1.349 . S
C771 C769 1.327 . S
C771 C787 1.429 . S
C771 H793 0.950 . S
C772 H768 0.949 . S
C772 C780 1.574 . S
C772 C788 1.368 . S
H773 C781 0.950 . S
H774 C779 0.950 . S
H775 C780 0.949 . S
H776 C782 0.950 . S
H777 C783 0.950 . S
H778 C784 0.949 . S
C779 H774 0.950 . S
C779 C781 1.327 . S
C779 C785 1.429 . S
C780 C772 1.574 . S
C780 H775 0.949 . S
C780 C786 1.368 . S
C781 C765 1.349 . S
C781 H773 0.950 . S
C781 C779 1.327 . S
C782 C770 1.349 . S
C782 H776 0.950 . S
C782 C783 1.327 . S
C783 H777 0.950 . S
C783 C782 1.327 . S
C783 C787 1.429 . S
C784 C767 1.574 . S
C784 H778 0.949 . S
C784 C788 1.368 . S
C785 C766 1.429 . S
C785 C779 1.429 . S
C785 C786 1.523 . S
C786 C767 1.368 . S
C786 C780 1.368 . S
C786 C785 1.523 . S
C787 C771 1.429 . S
C787 C783 1.429 . S
C787 C788 1.523 . S
C788 C772 1.368 . S
C788 C784 1.368 . S
C788 C787 1.523 . S
H789 C764 0.950 . S
H790 C766 0.950 . S
H791 C767 0.949 . S
H792 C769 0.950 . S
H793 C771 0.950 . S
C794 C795 1.349 . S
C794 C796 1.327 . S
C794 H819 0.950 . S
C795 C794 1.349 . S
C795 C811 1.349 . S
C796 C794 1.327 . S
C796 C815 1.429 . S
C796 H820 0.950 . S
C797 C814 1.574 . S
C797 C816 1.368 . S
C797 H821 0.949 . S
H798 C802 0.949 . S
C799 C800 1.349 . S
C799 C801 1.327 . S
C799 H822 0.950 . S
C800 C799 1.349 . S
C800 C812 1.349 . S
C801 C799 1.327 . S
C801 C817 1.429 . S
C801 H823 0.950 . S
C802 H798 0.949 . S
C802 C810 1.574 . S
C802 C818 1.368 . S
H803 C811 0.950 . S
H804 C809 0.950 . S
H805 C810 0.949 . S
H806 C812 0.950 . S
H807 C813 0.950 . S
H808 C814 0.949 . S
C809 H804 0.950 . S
C809 C811 1.327 . S
C809 C815 1.429 . S
C810 C802 1.574 . S
C810 H805 0.949 . S
C810 C816 1.368 . S
C811 C795 1.349 . S
C811 H803 0.950 . S
C811 C809 1.327 . S
C812 C800 1.349 . S
C812 H806 0.950 . S
C812 C813 1.327 . S
C813 H807 0.950 . S
C813 C812 1.327 . S
C813 C817 1.429 . S
C814 C797 1.574 . S
C814 H808 0.949 . S
C814 C818 1.368 . S
C815 C796 1.429 . S
C815 C809 1.429 . S
C815 C816 1.523 . S
C816 C797 1.368 . S
C816 C810 1.368 . S
C816 C815 1.523 . S
C817 C801 1.429 . S
C817 C813 1.429 . S
C817 C818 1.523 . S
C818 C802 1.368 . S
C818 C814 1.368 . S
C818 C817 1.523 . S
H819 C794 0.950 . S
H820 C796 0.950 . S
H821 C797 0.949 . S
H822 C799 0.950 . S
H823 C801 0.950 . S
C824 C825 1.349 . S
C824 C826 1.327 . S
C824 H849 0.950 . S
C825 C824 1.349 . S
C825 C841 1.349 . S
C826 C824 1.327 . S
C826 C845 1.429 . S
C826 H850 0.950 . S
C827 C844 1.574 . S
C827 C846 1.368 . S
C827 H851 0.949 . S
H828 C832 0.949 . S
C829 C830 1.349 . S
C829 C831 1.327 . S
C829 H852 0.950 . S
C830 C829 1.349 . S
C830 C842 1.349 . S
C831 C829 1.327 . S
C831 C847 1.429 . S
C831 H853 0.950 . S
C832 H828 0.949 . S
C832 C840 1.574 . S
C832 C848 1.368 . S
H833 C841 0.950 . S
H834 C839 0.950 . S
H835 C840 0.949 . S
H836 C842 0.950 . S
H837 C843 0.950 . S
H838 C844 0.949 . S
C839 H834 0.950 . S
C839 C841 1.327 . S
C839 C845 1.429 . S
C840 C832 1.574 . S
C840 H835 0.949 . S
C840 C846 1.368 . S
C841 C825 1.349 . S
C841 H833 0.950 . S
C841 C839 1.327 . S
C842 C830 1.349 . S
C842 H836 0.950 . S
C842 C843 1.327 . S
C843 H837 0.950 . S
C843 C842 1.327 . S
C843 C847 1.429 . S
C844 C827 1.574 . S
C844 H838 0.949 . S
C844 C848 1.368 . S
C845 C826 1.429 . S
C845 C839 1.429 . S
C845 C846 1.523 . S
C846 C827 1.368 . S
C846 C840 1.368 . S
C846 C845 1.523 . S
C847 C831 1.429 . S
C847 C843 1.429 . S
C847 C848 1.523 . S
C848 C832 1.368 . S
C848 C844 1.368 . S
C848 C847 1.523 . S
H849 C824 0.950 . S
H850 C826 0.950 . S
H851 C827 0.949 . S
H852 C829 0.950 . S
H853 C831 0.950 . S
C854 C855 1.349 . S
C854 C856 1.327 . S
C854 H879 0.950 . S
C855 C854 1.349 . S
C855 C871 1.349 . S
C856 C854 1.327 . S
C856 C875 1.429 . S
C856 H880 0.950 . S
C857 C874 1.574 . S
C857 C876 1.368 . S
C857 H881 0.949 . S
H858 C862 0.949 . S
C859 C860 1.349 . S
C859 C861 1.327 . S
C859 H882 0.950 . S
C860 C859 1.349 . S
C860 C872 1.349 . S
C861 C859 1.327 . S
C861 C877 1.429 . S
C861 H883 0.950 . S
C862 H858 0.949 . S
C862 C870 1.574 . S
C862 C878 1.368 . S
H863 C871 0.950 . S
H864 C869 0.950 . S
H865 C870 0.949 . S
H866 C872 0.950 . S
H867 C873 0.950 . S
H868 C874 0.949 . S
C869 H864 0.950 . S
C869 C871 1.327 . S
C869 C875 1.429 . S
C870 C862 1.574 . S
C870 H865 0.949 . S
C870 C876 1.368 . S
C871 C855 1.349 . S
C871 H863 0.950 . S
C871 C869 1.327 . S
C872 C860 1.349 . S
C872 H866 0.950 . S
C872 C873 1.327 . S
C873 H867 0.950 . S
C873 C872 1.327 . S
C873 C877 1.429 . S
C874 C857 1.574 . S
C874 H868 0.949 . S
C874 C878 1.368 . S
C875 C856 1.429 . S
C875 C869 1.429 . S
C875 C876 1.523 . S
C876 C857 1.368 . S
C876 C870 1.368 . S
C876 C875 1.523 . S
C877 C861 1.429 . S
C877 C873 1.429 . S
C877 C878 1.523 . S
C878 C862 1.368 . S
C878 C874 1.368 . S
C878 C877 1.523 . S
H879 C854 0.950 . S
H880 C856 0.950 . S
H881 C857 0.949 . S
H882 C859 0.950 . S
H883 C861 0.950 . S
C884 C885 1.349 . S
C884 C886 1.327 . S
C884 H909 0.950 . S
C885 C884 1.349 . S
C885 C901 1.349 . S
C886 C884 1.327 . S
C886 C905 1.429 . S
C886 H910 0.950 . S
C887 C904 1.574 . S
C887 C906 1.368 . S
C887 H911 0.949 . S
H888 C892 0.949 . S
C889 C890 1.349 . S
C889 C891 1.327 . S
C889 H912 0.950 . S
C890 C889 1.349 . S
C890 C902 1.349 . S
C891 C889 1.327 . S
C891 C907 1.429 . S
C891 H913 0.950 . S
C892 H888 0.949 . S
C892 C900 1.574 . S
C892 C908 1.368 . S
H893 C901 0.950 . S
H894 C899 0.950 . S
H895 C900 0.949 . S
H896 C902 0.950 . S
H897 C903 0.950 . S
H898 C904 0.949 . S
C899 H894 0.950 . S
C899 C901 1.327 . S
C899 C905 1.429 . S
C900 C892 1.574 . S
C900 H895 0.949 . S
C900 C906 1.368 . S
C901 C885 1.349 . S
C901 H893 0.950 . S
C901 C899 1.327 . S
C902 C890 1.349 . S
C902 H896 0.950 . S
C902 C903 1.327 . S
C903 H897 0.950 . S
C903 C902 1.327 . S
C903 C907 1.429 . S
C904 C887 1.574 . S
C904 H898 0.949 . S
C904 C908 1.368 . S
C905 C886 1.429 . S
C905 C899 1.429 . S
C905 C906 1.523 . S
C906 C887 1.368 . S
C906 C900 1.368 . S
C906 C905 1.523 . S
C907 C891 1.429 . S
C907 C903 1.429 . S
C907 C908 1.523 . S
C908 C892 1.368 . S
C908 C904 1.368 . S
C908 C907 1.523 . S
H909 C884 0.950 . S
H910 C886 0.950 . S
H911 C887 0.949 . S
H912 C889 0.950 . S
H913 C891 0.950 . S
C914 C915 1.349 . S
C914 C916 1.327 . S
C914 H939 0.950 . S
C915 C914 1.349 . S
C915 C931 1.349 . S
C916 C914 1.327 . S
C916 C935 1.429 . S
C916 H940 0.950 . S
C917 C934 1.574 . S
C917 C936 1.368 . S
C917 H941 0.949 . S
H918 C922 0.949 . S
C919 C920 1.349 . S
C919 C921 1.327 . S
C919 H942 0.950 . S
C920 C919 1.349 . S
C920 C932 1.349 . S
C921 C919 1.327 . S
C921 C937 1.429 . S
C921 H943 0.950 . S
C922 H918 0.949 . S
C922 C930 1.574 . S
C922 C938 1.368 . S
H923 C931 0.950 . S
H924 C929 0.950 . S
H925 C930 0.949 . S
H926 C932 0.950 . S
H927 C933 0.950 . S
H928 C934 0.949 . S
C929 H924 0.950 . S
C929 C931 1.327 . S
C929 C935 1.429 . S
C930 C922 1.574 . S
C930 H925 0.949 . S
C930 C936 1.368 . S
C931 C915 1.349 . S
C931 H923 0.950 . S
C931 C929 1.327 . S
C932 C920 1.349 . S
C932 H926 0.950 . S
C932 C933 1.327 . S
C933 H927 0.950 . S
C933 C932 1.327 . S
C933 C937 1.429 . S
C934 C917 1.574 . S
C934 H928 0.949 . S
C934 C938 1.368 . S
C935 C916 1.429 . S
C935 C929 1.429 . S
C935 C936 1.523 . S
C936 C917 1.368 . S
C936 C930 1.368 . S
C936 C935 1.523 . S
C937 C921 1.429 . S
C937 C933 1.429 . S
C937 C938 1.523 . S
C938 C922 1.368 . S
C938 C934 1.368 . S
C938 C937 1.523 . S
H939 C914 0.950 . S
H940 C916 0.950 . S
H941 C917 0.949 . S
H942 C919 0.950 . S
H943 C921 0.950 . S
C944 C945 1.349 . S
C944 C946 1.327 . S
C944 H969 0.950 . S
C945 C944 1.349 . S
C945 C961 1.349 . S
C946 C944 1.327 . S
C946 C965 1.429 . S
C946 H970 0.950 . S
C947 C964 1.574 1_565 S
C947 C966 1.368 . S
C947 H971 0.949 . S
H948 C952 0.949 . S
C949 C950 1.349 . S
C949 C951 1.327 . S
C949 H972 0.950 . S
C950 C949 1.349 . S
C950 C962 1.349 . S
C951 C949 1.327 . S
C951 C967 1.429 . S
C951 H973 0.950 . S
C952 H948 0.949 . S
C952 C960 1.574 1_545 S
C952 C968 1.368 . S
H953 C961 0.950 . S
H954 C959 0.950 . S
H955 C960 0.949 . S
H956 C962 0.950 . S
H957 C963 0.950 . S
H958 C964 0.949 . S
C959 H954 0.950 . S
C959 C961 1.327 . S
C959 C965 1.429 . S
C960 C952 1.574 1_565 S
C960 H955 0.949 . S
C960 C966 1.368 1_455 S
C961 C945 1.349 . S
C961 H953 0.950 . S
C961 C959 1.327 . S
C962 C950 1.349 . S
C962 H956 0.950 . S
C962 C963 1.327 . S
C963 H957 0.950 . S
C963 C962 1.327 . S
C963 C967 1.429 . S
C964 C947 1.574 1_545 S
C964 H958 0.949 . S
C964 C968 1.368 1_655 S
C965 C946 1.429 . S
C965 C959 1.429 . S
C965 C966 1.523 . S
C966 C947 1.368 . S
C966 C960 1.368 1_655 S
C966 C965 1.523 . S
C967 C951 1.429 . S
C967 C963 1.429 . S
C967 C968 1.523 . S
C968 C952 1.368 . S
C968 C964 1.368 1_455 S
C968 C967 1.523 . S
H969 C944 0.950 . S
H970 C946 0.950 . S
H971 C947 0.949 . S
H972 C949 0.950 . S
H973 C951 0.950 . S
C974 C975 1.349 . S
C974 C976 1.327 . S
C974 H999 0.950 . S
C975 C974 1.349 . S
C975 C991 1.349 . S
C976 C974 1.327 . S
C976 C995 1.429 . S
C976 H1000 0.950 . S
C977 C994 1.574 1_655 S
C977 C996 1.368 1_565 S
C977 H1001 0.949 . S
H978 C982 0.949 . S
C979 C980 1.349 . S
C979 C981 1.327 . S
C979 H1002 0.950 . S
C980 C979 1.349 . S
C980 C992 1.349 . S
C981 C979 1.327 . S
C981 C997 1.429 . S
C981 H1003 0.950 . S
C982 H978 0.949 . S
C982 C990 1.574 1_455 S
C982 C998 1.368 1_545 S
H983 C991 0.950 . S
H984 C989 0.950 . S
H985 C990 0.949 . S
H986 C992 0.950 . S
H987 C993 0.950 . S
H988 C994 0.949 . S
C989 H984 0.950 . S
C989 C991 1.327 . S
C989 C995 1.429 . S
C990 C982 1.574 1_655 S
C990 H985 0.949 . S
C990 C996 1.368 . S
C991 C975 1.349 . S
C991 H983 0.950 . S
C991 C989 1.327 . S
C992 C980 1.349 . S
C992 H986 0.950 . S
C992 C993 1.327 . S
C993 H987 0.950 . S
C993 C992 1.327 . S
C993 C997 1.429 . S
C994 C977 1.574 1_455 S
C994 H988 0.949 . S
C994 C998 1.368 . S
C995 C976 1.429 . S
C995 C989 1.429 . S
C995 C996 1.523 . S
C996 C977 1.368 1_545 S
C996 C990 1.368 . S
C996 C995 1.523 . S
C997 C981 1.429 . S
C997 C993 1.429 . S
C997 C998 1.523 . S
C998 C982 1.368 1_565 S
C998 C994 1.368 . S
C998 C997 1.523 . S
H999 C974 0.950 . S
H1000 C976 0.950 . S
H1001 C977 0.949 . S
H1002 C979 0.950 . S
H1003 C981 0.950 . S
C1004 C1005 1.349 . S
C1004 C1006 1.327 . S
C1004 H1029 0.950 . S
C1005 C1004 1.349 . S
C1005 C1021 1.349 . S
C1006 C1004 1.327 . S
C1006 C1025 1.429 . S
C1006 H1030 0.950 . S
C1007 C1024 1.574 . S
C1007 C1026 1.368 1_655 S
C1007 H1031 0.949 . S
H1008 C1012 0.949 . S
C1009 C1010 1.349 . S
C1009 C1011 1.327 . S
C1009 H1032 0.950 . S
C1010 C1009 1.349 . S
C1010 C1022 1.349 . S
C1011 C1009 1.327 . S
C1011 C1027 1.429 . S
C1011 H1033 0.950 . S
C1012 H1008 0.949 . S
C1012 C1020 1.574 . S
C1012 C1028 1.368 1_455 S
H1013 C1021 0.950 . S
H1014 C1019 0.950 . S
H1015 C1020 0.949 . S
H1016 C1022 0.950 . S
H1017 C1023 0.950 . S
H1018 C1024 0.949 . S
C1019 H1014 0.950 . S
C1019 C1021 1.327 . S
C1019 C1025 1.429 . S
C1020 C1012 1.574 . S
C1020 H1015 0.949 . S
C1020 C1026 1.368 . S
C1021 C1005 1.349 . S
C1021 H1013 0.950 . S
C1021 C1019 1.327 . S
C1022 C1010 1.349 . S
C1022 H1016 0.950 . S
C1022 C1023 1.327 . S
C1023 H1017 0.950 . S
C1023 C1022 1.327 . S
C1023 C1027 1.429 . S
C1024 C1007 1.574 . S
C1024 H1018 0.949 . S
C1024 C1028 1.368 . S
C1025 C1006 1.429 . S
C1025 C1019 1.429 . S
C1025 C1026 1.523 . S
C1026 C1007 1.368 1_455 S
C1026 C1020 1.368 . S
C1026 C1025 1.523 . S
C1027 C1011 1.429 . S
C1027 C1023 1.429 . S
C1027 C1028 1.523 . S
C1028 C1012 1.368 1_655 S
C1028 C1024 1.368 . S
C1028 C1027 1.523 . S
H1029 C1004 0.950 . S
H1030 C1006 0.950 . S
H1031 C1007 0.949 . S
H1032 C1009 0.950 . S
H1033 C1011 0.950 . S
C1034 C1035 1.349 . S
C1034 C1036 1.327 . S
C1034 H1059 0.950 . S
C1035 C1034 1.349 . S
C1035 C1051 1.349 . S
C1036 C1034 1.327 . S
C1036 C1055 1.429 . S
C1036 H1060 0.950 . S
C1037 C1054 1.574 . S
C1037 C1056 1.368 . S
C1037 H1061 0.949 . S
H1038 C1042 0.949 . S
C1039 C1040 1.349 . S
C1039 C1041 1.327 . S
C1039 H1062 0.950 . S
C1040 C1039 1.349 . S
C1040 C1052 1.349 . S
C1041 C1039 1.327 . S
C1041 C1057 1.429 . S
C1041 H1063 0.950 . S
C1042 H1038 0.949 . S
C1042 C1050 1.574 . S
C1042 C1058 1.368 . S
H1043 C1051 0.950 . S
H1044 C1049 0.950 . S
H1045 C1050 0.949 . S
H1046 C1052 0.950 . S
H1047 C1053 0.950 . S
H1048 C1054 0.949 . S
C1049 H1044 0.950 . S
C1049 C1051 1.327 . S
C1049 C1055 1.429 . S
C1050 C1042 1.574 . S
C1050 H1045 0.949 . S
C1050 C1056 1.368 1_545 S
C1051 C1035 1.349 . S
C1051 H1043 0.950 . S
C1051 C1049 1.327 . S
C1052 C1040 1.349 . S
C1052 H1046 0.950 . S
C1052 C1053 1.327 . S
C1053 H1047 0.950 . S
C1053 C1052 1.327 . S
C1053 C1057 1.429 . S
C1054 C1037 1.574 . S
C1054 H1048 0.949 . S
C1054 C1058 1.368 1_565 S
C1055 C1036 1.429 . S
C1055 C1049 1.429 . S
C1055 C1056 1.523 . S
C1056 C1037 1.368 . S
C1056 C1050 1.368 1_565 S
C1056 C1055 1.523 . S
C1057 C1041 1.429 . S
C1057 C1053 1.429 . S
C1057 C1058 1.523 . S
C1058 C1042 1.368 . S
C1058 C1054 1.368 1_545 S
C1058 C1057 1.523 . S
H1059 C1034 0.950 . S
H1060 C1036 0.950 . S
H1061 C1037 0.949 . S
H1062 C1039 0.950 . S
H1063 C1041 0.950 . S
C1064 C1065 1.349 . S
C1064 C1066 1.327 . S
C1064 H1089 0.950 . S
C1065 C1064 1.349 . S
C1065 C1081 1.349 . S
C1066 C1064 1.327 . S
C1066 C1085 1.429 . S
C1066 H1090 0.950 . S
C1067 C1084 1.574 . S
C1067 C1086 1.368 . S
C1067 H1091 0.949 . S
H1068 C1072 0.949 . S
C1069 C1070 1.349 . S
C1069 C1071 1.327 . S
C1069 H1092 0.950 . S
C1070 C1069 1.349 . S
C1070 C1082 1.349 . S
C1071 C1069 1.327 . S
C1071 C1087 1.429 . S
C1071 H1093 0.950 . S
C1072 H1068 0.949 . S
C1072 C1080 1.574 . S
C1072 C1088 1.368 . S
H1073 C1081 0.950 . S
H1074 C1079 0.950 . S
H1075 C1080 0.949 . S
H1076 C1082 0.950 . S
H1077 C1083 0.950 . S
H1078 C1084 0.949 . S
C1079 H1074 0.950 . S
C1079 C1081 1.327 . S
C1079 C1085 1.429 . S
C1080 C1072 1.574 . S
C1080 H1075 0.949 . S
C1080 C1086 1.368 . S
C1081 C1065 1.349 . S
C1081 H1073 0.950 . S
C1081 C1079 1.327 . S
C1082 C1070 1.349 . S
C1082 H1076 0.950 . S
C1082 C1083 1.327 . S
C1083 H1077 0.950 . S
C1083 C1082 1.327 . S
C1083 C1087 1.429 . S
C1084 C1067 1.574 . S
C1084 H1078 0.949 . S
C1084 C1088 1.368 . S
C1085 C1066 1.429 . S
C1085 C1079 1.429 . S
C1085 C1086 1.523 . S
C1086 C1067 1.368 . S
C1086 C1080 1.368 . S
C1086 C1085 1.523 . S
C1087 C1071 1.429 . S
C1087 C1083 1.429 . S
C1087 C1088 1.523 . S
C1088 C1072 1.368 . S
C1088 C1084 1.368 . S
C1088 C1087 1.523 . S
H1089 C1064 0.950 . S
H1090 C1066 0.950 . S
H1091 C1067 0.949 . S
H1092 C1069 0.950 . S
H1093 C1071 0.950 . S
C1094 C1095 1.349 . S
C1094 C1096 1.327 . S
C1094 H1119 0.950 . S
C1095 C1094 1.349 . S
C1095 C1111 1.349 . S
C1096 C1094 1.327 . S
C1096 C1115 1.429 . S
C1096 H1120 0.950 . S
C1097 C1114 1.574 . S
C1097 C1116 1.368 . S
C1097 H1121 0.949 . S
H1098 C1102 0.949 . S
C1099 C1100 1.349 . S
C1099 C1101 1.327 . S
C1099 H1122 0.950 . S
C1100 C1099 1.349 . S
C1100 C1112 1.349 . S
C1101 C1099 1.327 . S
C1101 C1117 1.429 . S
C1101 H1123 0.950 . S
C1102 H1098 0.949 . S
C1102 C1110 1.574 . S
C1102 C1118 1.368 . S
H1103 C1111 0.950 . S
H1104 C1109 0.950 . S
H1105 C1110 0.949 . S
H1106 C1112 0.950 . S
H1107 C1113 0.950 . S
H1108 C1114 0.949 . S
C1109 H1104 0.950 . S
C1109 C1111 1.327 . S
C1109 C1115 1.429 . S
C1110 C1102 1.574 . S
C1110 H1105 0.949 . S
C1110 C1116 1.368 . S
C1111 C1095 1.349 . S
C1111 H1103 0.950 . S
C1111 C1109 1.327 . S
C1112 C1100 1.349 . S
C1112 H1106 0.950 . S
C1112 C1113 1.327 . S
C1113 H1107 0.950 . S
C1113 C1112 1.327 . S
C1113 C1117 1.429 . S
C1114 C1097 1.574 . S
C1114 H1108 0.949 . S
C1114 C1118 1.368 . S
C1115 C1096 1.429 . S
C1115 C1109 1.429 . S
C1115 C1116 1.523 . S
C1116 C1097 1.368 . S
C1116 C1110 1.368 . S
C1116 C1115 1.523 . S
C1117 C1101 1.429 . S
C1117 C1113 1.429 . S
C1117 C1118 1.523 . S
C1118 C1102 1.368 . S
C1118 C1114 1.368 . S
C1118 C1117 1.523 . S
H1119 C1094 0.950 . S
H1120 C1096 0.950 . S
H1121 C1097 0.949 . S
H1122 C1099 0.950 . S
H1123 C1101 0.950 . S
C1124 C1125 1.349 . S
C1124 C1126 1.327 . S
C1124 H1149 0.950 . S
C1125 C1124 1.349 . S
C1125 C1141 1.349 . S
C1126 C1124 1.327 . S
C1126 C1145 1.429 . S
C1126 H1150 0.950 . S
C1127 C1144 1.574 1_545 S
C1127 C1146 1.368 . S
C1127 H1151 0.949 . S
H1128 C1132 0.949 . S
C1129 C1130 1.349 . S
C1129 C1131 1.327 . S
C1129 H1152 0.950 . S
C1130 C1129 1.349 . S
C1130 C1142 1.349 . S
C1131 C1129 1.327 . S
C1131 C1147 1.429 . S
C1131 H1153 0.950 . S
C1132 H1128 0.949 . S
C1132 C1140 1.574 1_565 S
C1132 C1148 1.368 . S
H1133 C1141 0.950 . S
H1134 C1139 0.950 . S
H1135 C1140 0.949 . S
H1136 C1142 0.950 . S
H1137 C1143 0.950 . S
H1138 C1144 0.949 . S
C1139 H1134 0.950 . S
C1139 C1141 1.327 . S
C1139 C1145 1.429 . S
C1140 C1132 1.574 1_545 S
C1140 H1135 0.949 . S
C1140 C1146 1.368 . S
C1141 C1125 1.349 . S
C1141 H1133 0.950 . S
C1141 C1139 1.327 . S
C1142 C1130 1.349 . S
C1142 H1136 0.950 . S
C1142 C1143 1.327 . S
C1143 H1137 0.950 . S
C1143 C1142 1.327 . S
C1143 C1147 1.429 . S
C1144 C1127 1.574 1_565 S
C1144 H1138 0.949 . S
C1144 C1148 1.368 . S
C1145 C1126 1.429 . S
C1145 C1139 1.429 . S
C1145 C1146 1.523 . S
C1146 C1127 1.368 . S
C1146 C1140 1.368 . S
C1146 C1145 1.523 . S
C1147 C1131 1.429 . S
C1147 C1143 1.429 . S
C1147 C1148 1.523 . S
C1148 C1132 1.368 . S
C1148 C1144 1.368 . S
C1148 C1147 1.523 . S
H1149 C1124 0.950 . S
H1150 C1126 0.950 . S
H1151 C1127 0.949 . S
H1152 C1129 0.950 . S
H1153 C1131 0.950 . S
C1154 C1155 1.349 . S
C1154 C1156 1.327 . S
C1154 H1179 0.950 . S
C1155 C1154 1.349 . S
C1155 C1171 1.349 . S
C1156 C1154 1.327 . S
C1156 C1175 1.429 . S
C1156 H1180 0.950 . S
C1157 C1174 1.574 1_655 S
C1157 C1176 1.368 . S
C1157 H1181 0.949 . S
H1158 C1162 0.949 . S
C1159 C1160 1.349 . S
C1159 C1161 1.327 . S
C1159 H1182 0.950 . S
C1160 C1159 1.349 . S
C1160 C1172 1.349 . S
C1161 C1159 1.327 . S
C1161 C1177 1.429 . S
C1161 H1183 0.950 . S
C1162 H1158 0.949 . S
C1162 C1170 1.574 1_455 S
C1162 C1178 1.368 . S
H1163 C1171 0.950 . S
H1164 C1169 0.950 . S
H1165 C1170 0.949 . S
H1166 C1172 0.950 . S
H1167 C1173 0.950 . S
H1168 C1174 0.949 . S
C1169 H1164 0.950 . S
C1169 C1171 1.327 . S
C1169 C1175 1.429 . S
C1170 C1162 1.574 1_655 S
C1170 H1165 0.949 . S
C1170 C1176 1.368 . S
C1171 C1155 1.349 . S
C1171 H1163 0.950 . S
C1171 C1169 1.327 . S
C1172 C1160 1.349 . S
C1172 H1166 0.950 . S
C1172 C1173 1.327 . S
C1173 H1167 0.950 . S
C1173 C1172 1.327 . S
C1173 C1177 1.429 . S
C1174 C1157 1.574 1_455 S
C1174 H1168 0.949 . S
C1174 C1178 1.368 . S
C1175 C1156 1.429 . S
C1175 C1169 1.429 . S
C1175 C1176 1.523 . S
C1176 C1157 1.368 . S
C1176 C1170 1.368 . S
C1176 C1175 1.523 . S
C1177 C1161 1.429 . S
C1177 C1173 1.429 . S
C1177 C1178 1.523 . S
C1178 C1162 1.368 . S
C1178 C1174 1.368 . S
C1178 C1177 1.523 . S
H1179 C1154 0.950 . S
H1180 C1156 0.950 . S
H1181 C1157 0.949 . S
H1182 C1159 0.950 . S
H1183 C1161 0.950 . S
C225 C3 1.054 . S
C230 C163 1.056 . S
C255 C121 1.055 . S
C260 C17 1.054 . S
C285 C135 1.056 . S
C290 C31 1.054 . S
C315 C149 1.055 . S
C320 C45 1.054 . S
C345 C79 1.056 . S
C350 C59 1.054 . S
C375 C73 1.054 . S
C380 C93 1.056 . S
C405 C87 1.054 . S
C410 C107 1.056 . S
C435 C101 1.054 . S
C440 C65 1.056 . S
C465 C115 1.054 . S
C470 C51 1.055 . S
C495 C9 1.055 . S
C500 C129 1.054 . S
C525 C23 1.055 . S
C530 C143 1.054 . S
C555 C37 1.056 . S
C560 C157 1.054 . S
C585 C191 1.056 . S
C590 C171 1.054 . S
C615 C185 1.054 . S
C620 C205 1.055 . S
C645 C219 1.055 . S
C650 C199 1.054 . S
C675 C177 1.056 . S
C680 C213 1.054 . S
C705 C204 1.600 . S
C710 C8 1.600 . S
C735 C218 1.600 . S
C740 C22 1.600 . S
C765 C176 1.600 . S
C770 C36 1.600 . S
C795 C50 1.600 . S
C800 C190 1.600 . S
C825 C64 1.600 . S
C830 C148 1.600 . S
C855 C162 1.600 . S
C860 C78 1.600 . S
C885 C92 1.600 . S
C890 C120 1.600 . S
C915 C106 1.600 . S
C920 C134 1.600 . S
C945 C35 1.086 . S
C950 C7 1.086 . S
C975 C49 1.086 . S
C980 C21 1.086 . S
C1005 C63 1.086 . S
C1010 C91 1.086 . S
C1035 C77 1.086 . S
C1040 C105 1.086 . S
C1065 C147 1.086 . S
C1070 C119 1.086 . S
C1095 C133 1.086 . S
C1100 C161 1.086 . S
C1125 C203 1.086 . S
C1130 C175 1.086 . S
C1155 C189 1.086 . S
C1160 C217 1.086 . S
