# Generated by pormake.
# Topology uoh, (4)-cn, num edge types: 1
# Building blocks:
#     Node 0, Type 0, BuildingBlock: GALJAG_clean_sbu_0, # of connection points: 4
#     Node 1, Type 0, BuildingBlock: GALJAG_clean_sbu_0, # of connection points: 4
#     Node 2, Type 0, BuildingBlock: GALJAG_clean_sbu_0, # of connection points: 4
#     Node 3, Type 0, BuildingBlock: GALJAG_clean_sbu_0, # of connection points: 4
#     Node 4, Type 0, BuildingBlock: GALJAG_clean_sbu_0, # of connection points: 4
#     Node 5, Type 0, BuildingBlock: GALJAG_clean_sbu_0, # of connection points: 4
#     Node 6, Type 0, BuildingBlock: GALJAG_clean_sbu_0, # of connection points: 4
#     Node 7, Type 0, BuildingBlock: GALJAG_clean_sbu_0, # of connection points: 4
#     Node 8, Type 0, BuildingBlock: GALJAG_clean_sbu_0, # of connection points: 4
#     Node 9, Type 0, BuildingBlock: GALJAG_clean_sbu_0, # of connection points: 4
#     Node 10, Type 0, BuildingBlock: GALJAG_clean_sbu_0, # of connection points: 4
#     Node 11, Type 0, BuildingBlock: GALJAG_clean_sbu_0, # of connection points: 4
#     Node 12, Type 0, BuildingBlock: GALJAG_clean_sbu_0, # of connection points: 4
#     Node 13, Type 0, BuildingBlock: GALJAG_clean_sbu_0, # of connection points: 4
#     Node 14, Type 0, BuildingBlock: GALJAG_clean_sbu_0, # of connection points: 4
#     Node 15, Type 0, BuildingBlock: GALJAG_clean_sbu_0, # of connection points: 4
#     Node 16, Type 0, BuildingBlock: GALJAG_clean_sbu_0, # of connection points: 4
#     Node 17, Type 0, BuildingBlock: GALJAG_clean_sbu_0, # of connection points: 4
#     Node 18, Type 0, BuildingBlock: GALJAG_clean_sbu_0, # of connection points: 4
#     Node 19, Type 0, BuildingBlock: GALJAG_clean_sbu_0, # of connection points: 4
#     Node 20, Type 0, BuildingBlock: GALJAG_clean_sbu_0, # of connection points: 4
#     Node 21, Type 0, BuildingBlock: GALJAG_clean_sbu_0, # of connection points: 4
#     Node 22, Type 0, BuildingBlock: GALJAG_clean_sbu_0, # of connection points: 4
#     Node 23, Type 0, BuildingBlock: GALJAG_clean_sbu_0, # of connection points: 4
#     Node 24, Type 0, BuildingBlock: GALJAG_clean_sbu_0, # of connection points: 4
#     Node 25, Type 0, BuildingBlock: GALJAG_clean_sbu_0, # of connection points: 4
#     Node 26, Type 0, BuildingBlock: GALJAG_clean_sbu_0, # of connection points: 4
#     Node 27, Type 0, BuildingBlock: GALJAG_clean_sbu_0, # of connection points: 4
#     Node 28, Type 0, BuildingBlock: GALJAG_clean_sbu_0, # of connection points: 4
#     Node 29, Type 0, BuildingBlock: GALJAG_clean_sbu_0, # of connection points: 4
#     Node 30, Type 0, BuildingBlock: GALJAG_clean_sbu_0, # of connection points: 4
#     Node 31, Type 0, BuildingBlock: GALJAG_clean_sbu_0, # of connection points: 4
#     Node 32, Type 0, BuildingBlock: GALJAG_clean_sbu_0, # of connection points: 4
#     Node 33, Type 0, BuildingBlock: GALJAG_clean_sbu_0, # of connection points: 4
#     Node 34, Type 0, BuildingBlock: GALJAG_clean_sbu_0, # of connection points: 4
#     Node 35, Type 0, BuildingBlock: GALJAG_clean_sbu_0, # of connection points: 4
#     Edge 36, Type (0, 0), BuildingBlock: KIFKEQ_clean_linker_1, # of connection points: 2
#     Edge 37, Type (0, 0), BuildingBlock: KIFKEQ_clean_linker_1, # of connection points: 2
#     Edge 38, Type (0, 0), BuildingBlock: KIFKEQ_clean_linker_1, # of connection points: 2
#     Edge 39, Type (0, 0), BuildingBlock: KIFKEQ_clean_linker_1, # of connection points: 2
#     Edge 40, Type (0, 0), BuildingBlock: KIFKEQ_clean_linker_1, # of connection points: 2
#     Edge 41, Type (0, 0), BuildingBlock: KIFKEQ_clean_linker_1, # of connection points: 2
#     Edge 42, Type (0, 0), BuildingBlock: KIFKEQ_clean_linker_1, # of connection points: 2
#     Edge 43, Type (0, 0), BuildingBlock: KIFKEQ_clean_linker_1, # of connection points: 2
#     Edge 44, Type (0, 0), BuildingBlock: KIFKEQ_clean_linker_1, # of connection points: 2
#     Edge 45, Type (0, 0), BuildingBlock: KIFKEQ_clean_linker_1, # of connection points: 2
#     Edge 46, Type (0, 0), BuildingBlock: KIFKEQ_clean_linker_1, # of connection points: 2
#     Edge 47, Type (0, 0), BuildingBlock: KIFKEQ_clean_linker_1, # of connection points: 2
#     Edge 48, Type (0, 0), BuildingBlock: KIFKEQ_clean_linker_1, # of connection points: 2
#     Edge 49, Type (0, 0), BuildingBlock: KIFKEQ_clean_linker_1, # of connection points: 2
#     Edge 50, Type (0, 0), BuildingBlock: KIFKEQ_clean_linker_1, # of connection points: 2
#     Edge 51, Type (0, 0), BuildingBlock: KIFKEQ_clean_linker_1, # of connection points: 2
#     Edge 52, Type (0, 0), BuildingBlock: KIFKEQ_clean_linker_1, # of connection points: 2
#     Edge 53, Type (0, 0), BuildingBlock: KIFKEQ_clean_linker_1, # of connection points: 2
#     Edge 54, Type (0, 0), BuildingBlock: KIFKEQ_clean_linker_1, # of connection points: 2
#     Edge 55, Type (0, 0), BuildingBlock: KIFKEQ_clean_linker_1, # of connection points: 2
#     Edge 56, Type (0, 0), BuildingBlock: KIFKEQ_clean_linker_1, # of connection points: 2
#     Edge 57, Type (0, 0), BuildingBlock: KIFKEQ_clean_linker_1, # of connection points: 2
#     Edge 58, Type (0, 0), BuildingBlock: KIFKEQ_clean_linker_1, # of connection points: 2
#     Edge 59, Type (0, 0), BuildingBlock: KIFKEQ_clean_linker_1, # of connection points: 2
#     Edge 60, Type (0, 0), BuildingBlock: KIFKEQ_clean_linker_1, # of connection points: 2
#     Edge 61, Type (0, 0), BuildingBlock: KIFKEQ_clean_linker_1, # of connection points: 2
#     Edge 62, Type (0, 0), BuildingBlock: KIFKEQ_clean_linker_1, # of connection points: 2
#     Edge 63, Type (0, 0), BuildingBlock: KIFKEQ_clean_linker_1, # of connection points: 2
#     Edge 64, Type (0, 0), BuildingBlock: KIFKEQ_clean_linker_1, # of connection points: 2
#     Edge 65, Type (0, 0), BuildingBlock: KIFKEQ_clean_linker_1, # of connection points: 2
#     Edge 66, Type (0, 0), BuildingBlock: KIFKEQ_clean_linker_1, # of connection points: 2
#     Edge 67, Type (0, 0), BuildingBlock: KIFKEQ_clean_linker_1, # of connection points: 2
#     Edge 68, Type (0, 0), BuildingBlock: KIFKEQ_clean_linker_1, # of connection points: 2
#     Edge 69, Type (0, 0), BuildingBlock: KIFKEQ_clean_linker_1, # of connection points: 2
#     Edge 70, Type (0, 0), BuildingBlock: KIFKEQ_clean_linker_1, # of connection points: 2
#     Edge 71, Type (0, 0), BuildingBlock: KIFKEQ_clean_linker_1, # of connection points: 2
#     Edge 72, Type (0, 0), BuildingBlock: KIFKEQ_clean_linker_1, # of connection points: 2
#     Edge 73, Type (0, 0), BuildingBlock: KIFKEQ_clean_linker_1, # of connection points: 2
#     Edge 74, Type (0, 0), BuildingBlock: KIFKEQ_clean_linker_1, # of connection points: 2
#     Edge 75, Type (0, 0), BuildingBlock: KIFKEQ_clean_linker_1, # of connection points: 2
#     Edge 76, Type (0, 0), BuildingBlock: KIFKEQ_clean_linker_1, # of connection points: 2
#     Edge 77, Type (0, 0), BuildingBlock: KIFKEQ_clean_linker_1, # of connection points: 2
#     Edge 78, Type (0, 0), BuildingBlock: KIFKEQ_clean_linker_1, # of connection points: 2
#     Edge 79, Type (0, 0), BuildingBlock: KIFKEQ_clean_linker_1, # of connection points: 2
#     Edge 80, Type (0, 0), BuildingBlock: KIFKEQ_clean_linker_1, # of connection points: 2
#     Edge 81, Type (0, 0), BuildingBlock: KIFKEQ_clean_linker_1, # of connection points: 2
#     Edge 82, Type (0, 0), BuildingBlock: KIFKEQ_clean_linker_1, # of connection points: 2
#     Edge 83, Type (0, 0), BuildingBlock: KIFKEQ_clean_linker_1, # of connection points: 2
#     Edge 84, Type (0, 0), BuildingBlock: KIFKEQ_clean_linker_1, # of connection points: 2
#     Edge 85, Type (0, 0), BuildingBlock: KIFKEQ_clean_linker_1, # of connection points: 2
#     Edge 86, Type (0, 0), BuildingBlock: KIFKEQ_clean_linker_1, # of connection points: 2
#     Edge 87, Type (0, 0), BuildingBlock: KIFKEQ_clean_linker_1, # of connection points: 2
#     Edge 88, Type (0, 0), BuildingBlock: KIFKEQ_clean_linker_1, # of connection points: 2
#     Edge 89, Type (0, 0), BuildingBlock: KIFKEQ_clean_linker_1, # of connection points: 2
#     Edge 90, Type (0, 0), BuildingBlock: KIFKEQ_clean_linker_1, # of connection points: 2
#     Edge 91, Type (0, 0), BuildingBlock: KIFKEQ_clean_linker_1, # of connection points: 2
#     Edge 92, Type (0, 0), BuildingBlock: KIFKEQ_clean_linker_1, # of connection points: 2
#     Edge 93, Type (0, 0), BuildingBlock: KIFKEQ_clean_linker_1, # of connection points: 2
#     Edge 94, Type (0, 0), BuildingBlock: KIFKEQ_clean_linker_1, # of connection points: 2
#     Edge 95, Type (0, 0), BuildingBlock: KIFKEQ_clean_linker_1, # of connection points: 2
#     Edge 96, Type (0, 0), BuildingBlock: KIFKEQ_clean_linker_1, # of connection points: 2
#     Edge 97, Type (0, 0), BuildingBlock: KIFKEQ_clean_linker_1, # of connection points: 2
#     Edge 98, Type (0, 0), BuildingBlock: KIFKEQ_clean_linker_1, # of connection points: 2
#     Edge 99, Type (0, 0), BuildingBlock: KIFKEQ_clean_linker_1, # of connection points: 2
#     Edge 100, Type (0, 0), BuildingBlock: KIFKEQ_clean_linker_1, # of connection points: 2
#     Edge 101, Type (0, 0), BuildingBlock: KIFKEQ_clean_linker_1, # of connection points: 2
#     Edge 102, Type (0, 0), BuildingBlock: KIFKEQ_clean_linker_1, # of connection points: 2
#     Edge 103, Type (0, 0), BuildingBlock: KIFKEQ_clean_linker_1, # of connection points: 2
#     Edge 104, Type (0, 0), BuildingBlock: KIFKEQ_clean_linker_1, # of connection points: 2
#     Edge 105, Type (0, 0), BuildingBlock: KIFKEQ_clean_linker_1, # of connection points: 2
#     Edge 106, Type (0, 0), BuildingBlock: KIFKEQ_clean_linker_1, # of connection points: 2
#     Edge 107, Type (0, 0), BuildingBlock: KIFKEQ_clean_linker_1, # of connection points: 2
# Relax obj value: 0.044
# Max RMSD: 0.095
# Mean RMSD: 0.095
data_MOF--net-uoh--node1-GALJAG_clean_sbu_0--edge1-KIFKEQ_clean_linker_1
_symmetry_space_group_name_H-M    P1
_symmetry_Int_Tables_number       1
_symmetry_cell_setting            triclinic
loop_
_symmetry_equiv_pos_as_xyz
'x, y, z'
_cell_length_a     88.580598
_cell_length_b     88.668318
_cell_length_c     29.241473
_cell_angle_alpha  89.975076
_cell_angle_beta   89.982682
_cell_angle_gamma 120.03759
loop_
_atom_site_label
_atom_site_type_symbol
_atom_site_fract_x
_atom_site_fract_y
_atom_site_fract_z
_atom_type_partial_charge
In0 In 0.23106 0.13766 0.20144 0.0
O1 O 0.23292 0.16387 0.21244 0.0
O2 O 0.20766 0.14104 0.21002 0.0
C3 C 0.265 0.14908 0.18591 0.0
C4 C 0.2248 0.12513 0.28753 0.0
C5 C 0.21855 0.12241 0.11975 0.0
O6 O 0.25849 0.1588 0.18077 0.0
O7 O 0.25444 0.13382 0.19925 0.0
O8 O 0.22059 0.11431 0.15259 0.0
O9 O 0.2222 0.13775 0.12883 0.0
C10 C 0.21657 0.15736 0.21537 0.0
O11 O 0.21651 0.11556 0.25387 0.0
O12 O 0.23629 0.14043 0.27716 0.0
In13 In 0.85586 0.09432 0.20167 0.0
O14 O 0.82953 0.07001 0.21101 0.0
O15 O 0.8517 0.06705 0.19844 0.0
C16 C 0.84617 0.11868 0.20082 0.0
C17 C 0.871 0.09868 0.28447 0.0
C18 C 0.86714 0.09619 0.11513 0.0
O19 O 0.83529 0.10264 0.20457 0.0
O20 O 0.86185 0.12239 0.19817 0.0
O21 O 0.87752 0.10091 0.14879 0.0
O22 O 0.8514 0.09058 0.12549 0.0
C23 C 0.83551 0.05978 0.20644 0.0
O24 O 0.87989 0.10642 0.2494 0.0
O25 O 0.85493 0.08915 0.27751 0.0
In26 In 0.89889 0.75686 0.19369 0.0
O27 O 0.88784 0.76928 0.24296 0.0
O28 O 0.90454 0.76059 0.2696 0.0
C29 C 0.89555 0.76609 0.1079 0.0
C30 C 0.9336 0.77173 0.19595 0.0
C31 C 0.87469 0.72274 0.19437 0.0
O32 O 0.89097 0.77146 0.14242 0.0
O33 O 0.90153 0.7562 0.11703 0.0
O34 O 0.89068 0.72807 0.18806 0.0
O35 O 0.87101 0.73458 0.20089 0.0
C36 C 0.89547 0.7676 0.27755 0.0
O37 O 0.9237 0.75555 0.20226 0.0
O38 O 0.9259 0.78023 0.18813 0.0
In39 In 0.1314 0.23242 0.30497 0.0
O40 O 0.15849 0.23591 0.29661 0.0
O41 O 0.13737 0.21065 0.31326 0.0
C42 C 0.13828 0.26541 0.29979 0.0
C43 C 0.11679 0.22032 0.22247 0.0
C44 C 0.12236 0.22607 0.39362 0.0
O45 O 0.15006 0.26136 0.29763 0.0
O46 O 0.12291 0.25272 0.30388 0.0
O47 O 0.11251 0.21594 0.36256 0.0
O48 O 0.1362 0.2391 0.37954 0.0
C49 C 0.1534 0.22004 0.30424 0.0
O50 O 0.1074 0.2169 0.25798 0.0
O51 O 0.13292 0.22973 0.22928 0.0
In52 In 0.75577 0.89921 0.30993 0.0
O53 O 0.75488 0.92403 0.29822 0.0
O54 O 0.77977 0.92563 0.30117 0.0
C55 C 0.7218 0.87657 0.32507 0.0
C56 C 0.76132 0.89241 0.22363 0.0
C57 C 0.7682 0.89703 0.39239 0.0
O58 O 0.72816 0.89282 0.32912 0.0
O59 O 0.73253 0.87191 0.31311 0.0
O60 O 0.76731 0.88743 0.35927 0.0
O61 O 0.76337 0.90785 0.38328 0.0
C62 C 0.77129 0.93347 0.29544 0.0
O63 O 0.76908 0.89025 0.25725 0.0
O64 O 0.75075 0.89744 0.23411 0.0
In65 In 0.0911 0.864 0.31464 0.0
O66 O 0.08609 0.87883 0.25787 0.0
O67 O 0.11088 0.88095 0.2598 0.0
C68 C 0.08942 0.87399 0.4007 0.0
C69 C 0.05823 0.84052 0.29258 0.0
C70 C 0.11365 0.85237 0.32597 0.0
O71 O 0.09679 0.88497 0.3689 0.0
O72 O 0.08291 0.85833 0.38864 0.0
O73 O 0.09876 0.84299 0.30827 0.0
O74 O 0.11703 0.86746 0.3375 0.0
C75 C 0.10067 0.88453 0.23888 0.0
O76 O 0.07075 0.83794 0.28366 0.0
O77 O 0.06242 0.85457 0.31324 0.0
In78 In 0.75186 0.85207 0.80567 0.0
O79 O 0.75104 0.82643 0.79322 0.0
O80 O 0.77557 0.84884 0.8094 0.0
C81 C 0.71749 0.84138 0.80515 0.0
C82 C 0.76282 0.8672 0.72296 0.0
C83 C 0.76074 0.86366 0.89232 0.0
O84 O 0.72316 0.83093 0.8095 0.0
O85 O 0.72913 0.85712 0.8006 0.0
O86 O 0.76581 0.87401 0.85859 0.0
O87 O 0.75139 0.8478 0.882 0.0
C88 C 0.76728 0.83285 0.79907 0.0
O89 O 0.76434 0.87615 0.75821 0.0
O90 O 0.75572 0.85106 0.72969 0.0
In91 In 0.13219 0.89914 0.81419 0.0
O92 O 0.10856 0.88965 0.76609 0.0
O93 O 0.13424 0.90121 0.73798 0.0
C94 C 0.12261 0.89686 0.90229 0.0
C95 C 0.15132 0.93374 0.80635 0.0
C96 C 0.14051 0.87399 0.81172 0.0
O97 O 0.11206 0.89471 0.87029 0.0
O98 O 0.13746 0.89994 0.88942 0.0
O99 O 0.15191 0.88998 0.81379 0.0
O100 O 0.12489 0.87071 0.81049 0.0
C101 C 0.11813 0.89464 0.73062 0.0
O102 O 0.15827 0.92428 0.80758 0.0
O103 O 0.13495 0.92574 0.81079 0.0
In104 In 0.09353 0.22644 0.80771 0.0
O105 O 0.07064 0.23136 0.79832 0.0
O106 O 0.06865 0.2082 0.77087 0.0
C107 C 0.1161 0.26053 0.81994 0.0
C108 C 0.10582 0.21844 0.73234 0.0
C109 C 0.08966 0.21232 0.89211 0.0
O110 O 0.10169 0.25505 0.79954 0.0
O111 O 0.11907 0.24878 0.83396 0.0
O112 O 0.09962 0.21156 0.86244 0.0
O113 O 0.08144 0.21963 0.87858 0.0
C114 C 0.06163 0.21741 0.77626 0.0
O115 O 0.09356 0.20695 0.75612 0.0
O116 O 0.11255 0.23365 0.74827 0.0
In117 In 0.85523 0.76096 0.69142 0.0
O118 O 0.82878 0.75868 0.70103 0.0
O119 O 0.85132 0.78414 0.6989 0.0
C120 C 0.84453 0.72692 0.68078 0.0
C121 C 0.86758 0.768 0.77773 0.0
C122 C 0.87016 0.77287 0.60873 0.0
O123 O 0.83457 0.73302 0.67341 0.0
O124 O 0.85973 0.73797 0.69339 0.0
O125 O 0.87865 0.77187 0.64222 0.0
O126 O 0.85457 0.76846 0.61755 0.0
C127 C 0.83497 0.77498 0.70383 0.0
O128 O 0.87742 0.77552 0.74379 0.0
O129 O 0.85207 0.757 0.76762 0.0
In130 In 0.23323 0.09444 0.70313 0.0
O131 O 0.23246 0.06851 0.70833 0.0
O132 O 0.20855 0.06885 0.71397 0.0
C133 C 0.26763 0.1174 0.69729 0.0
C134 C 0.22561 0.10016 0.78806 0.0
C135 C 0.22226 0.09612 0.61823 0.0
O136 O 0.26161 0.10114 0.6968 0.0
O137 O 0.25631 0.12199 0.70114 0.0
O138 O 0.21976 0.10358 0.65187 0.0
O139 O 0.23001 0.08787 0.62786 0.0
C140 C 0.21615 0.06001 0.71503 0.0
O141 O 0.22148 0.10584 0.75326 0.0
O142 O 0.2339 0.09235 0.77973 0.0
In143 In 0.89965 0.13861 0.69911 0.0
O144 O 0.9247 0.16477 0.70433 0.0
O145 O 0.92621 0.14144 0.70617 0.0
C146 C 0.8755 0.14835 0.69079 0.0
C147 C 0.89467 0.12606 0.78503 0.0
C148 C 0.89751 0.12483 0.61555 0.0
O149 O 0.89162 0.1591 0.68707 0.0
O150 O 0.8717 0.13288 0.69879 0.0
O151 O 0.88874 0.11551 0.64903 0.0
O152 O 0.90725 0.14073 0.62458 0.0
C153 C 0.93421 0.1579 0.70759 0.0
O154 O 0.89155 0.11623 0.75067 0.0
O155 O 0.89989 0.14179 0.77562 0.0
In156 In 0.8985 0.47087 0.52506 0.0
O157 O 0.89993 0.49668 0.53961 0.0
O158 O 0.87483 0.47384 0.53365 0.0
C159 C 0.93223 0.48178 0.50803 0.0
C160 C 0.893 0.458 0.6107 0.0
C161 C 0.88588 0.45725 0.4421 0.0
O162 O 0.92606 0.49188 0.50588 0.0
O163 O 0.92143 0.4663 0.51932 0.0
O164 O 0.88541 0.44779 0.47519 0.0
O165 O 0.89222 0.47314 0.45159 0.0
C166 C 0.88355 0.49003 0.54123 0.0
O167 O 0.88466 0.44846 0.57702 0.0
O168 O 0.9042 0.47344 0.60047 0.0
In169 In 0.51418 0.4216 0.53047 0.0
O170 O 0.48797 0.39658 0.53579 0.0
O171 O 0.51121 0.3949 0.53368 0.0
C172 C 0.50528 0.44638 0.5254 0.0
C173 C 0.52665 0.42591 0.61634 0.0
C174 C 0.527 0.42436 0.44532 0.0
O175 O 0.49417 0.43037 0.52189 0.0
O176 O 0.52077 0.44981 0.53171 0.0
O177 O 0.53699 0.43097 0.47948 0.0
O178 O 0.51095 0.41649 0.4546 0.0
C179 C 0.49476 0.38696 0.53646 0.0
O180 O 0.5365 0.42909 0.58191 0.0
O181 O 0.51095 0.42096 0.60695 0.0
In182 In 0.56044 0.09009 0.53895 0.0
O183 O 0.58577 0.08953 0.544 0.0
O184 O 0.58654 0.11389 0.55155 0.0
C185 C 0.53611 0.05634 0.5303 0.0
C186 C 0.55391 0.09716 0.62361 0.0
C187 C 0.55989 0.10108 0.45357 0.0
O188 O 0.55206 0.06128 0.53618 0.0
O189 O 0.53251 0.06842 0.52899 0.0
O190 O 0.55183 0.10342 0.48609 0.0
O191 O 0.56823 0.09356 0.46462 0.0
C192 C 0.59484 0.10573 0.55151 0.0
O193 O 0.552 0.10459 0.58884 0.0
O194 O 0.55838 0.08602 0.61496 0.0
In195 In 0.8001 0.56661 0.64352 0.0
O196 O 0.82643 0.56853 0.63435 0.0
O197 O 0.8039 0.54329 0.64182 0.0
C198 C 0.80904 0.60034 0.64809 0.0
C199 C 0.78624 0.55753 0.55912 0.0
C200 C 0.78871 0.55659 0.72956 0.0
O201 O 0.82019 0.59549 0.64532 0.0
O202 O 0.79336 0.58816 0.64856 0.0
O203 O 0.77822 0.55247 0.69625 0.0
O204 O 0.80462 0.56559 0.71908 0.0
C205 C 0.82019 0.55222 0.63562 0.0
O206 O 0.77681 0.55158 0.59452 0.0
O207 O 0.80209 0.56808 0.56687 0.0
In208 In 0.42867 0.22849 0.63731 0.0
O209 O 0.42304 0.25094 0.62918 0.0
O210 O 0.44575 0.2531 0.59797 0.0
C211 C 0.3948 0.20523 0.65103 0.0
C212 C 0.43724 0.2166 0.56229 0.0
C213 C 0.4434 0.23304 0.72105 0.0
O214 O 0.39978 0.21941 0.62996 0.0
O215 O 0.40692 0.20279 0.66486 0.0
O216 O 0.44389 0.2228 0.69184 0.0
O217 O 0.43612 0.24126 0.70729 0.0
C218 C 0.43645 0.25992 0.60502 0.0
O219 O 0.44854 0.2289 0.58629 0.0
O220 O 0.42193 0.20962 0.5778 0.0
In221 In 0.75723 0.18887 0.63771 0.0
O222 O 0.73193 0.16285 0.63306 0.0
O223 O 0.73125 0.18636 0.62219 0.0
C224 C 0.78185 0.18003 0.64907 0.0
C225 C 0.7642 0.20193 0.55253 0.0
C226 C 0.75733 0.20088 0.72213 0.0
O227 O 0.76604 0.16879 0.64219 0.0
O228 O 0.78514 0.19562 0.65006 0.0
O229 O 0.76552 0.2111 0.68936 0.0
O230 O 0.74902 0.18495 0.71173 0.0
C231 C 0.72295 0.16991 0.62333 0.0
O232 O 0.7652 0.21129 0.58645 0.0
O233 O 0.76046 0.1866 0.56235 0.0
In234 In 0.42364 0.19159 0.13503 0.0
O235 O 0.42184 0.16509 0.13048 0.0
O236 O 0.447 0.18797 0.13343 0.0
C237 C 0.39043 0.18414 0.13226 0.0
C238 C 0.43378 0.20587 0.05165 0.0
C239 C 0.4303 0.2002 0.22375 0.0
O240 O 0.39473 0.17258 0.12839 0.0
O241 O 0.40297 0.19956 0.13686 0.0
O242 O 0.43948 0.21083 0.19264 0.0
O243 O 0.4181 0.18578 0.20971 0.0
C244 C 0.43823 0.17159 0.13009 0.0
O245 O 0.43851 0.21534 0.08724 0.0
O246 O 0.42388 0.18982 0.05886 0.0
In247 In 0.79887 0.23145 0.13869 0.0
O248 O 0.82476 0.25659 0.13042 0.0
O249 O 0.80113 0.25733 0.12287 0.0
C250 C 0.80936 0.20818 0.15321 0.0
C251 C 0.78612 0.22411 0.05323 0.0
C252 C 0.78549 0.23093 0.22173 0.0
O253 O 0.81983 0.22441 0.1539 0.0
O254 O 0.79371 0.20377 0.14483 0.0
O255 O 0.77594 0.22175 0.18906 0.0
O256 O 0.80137 0.24042 0.21183 0.0
C257 C 0.8176 0.26555 0.12177 0.0
O258 O 0.7765 0.22269 0.08696 0.0
O259 O 0.80163 0.22851 0.06331 0.0
In260 In 0.75519 0.56415 0.14577 0.0
O261 O 0.73062 0.56576 0.13563 0.0
O262 O 0.72831 0.54061 0.13972 0.0
C263 C 0.78025 0.59751 0.15708 0.0
C264 C 0.76152 0.55748 0.06026 0.0
C265 C 0.75543 0.55264 0.23065 0.0
O266 O 0.76438 0.59308 0.15232 0.0
O267 O 0.78342 0.58514 0.15581 0.0
O268 O 0.76223 0.54909 0.1972 0.0
O269 O 0.74851 0.56167 0.22075 0.0
C270 C 0.72078 0.5494 0.13424 0.0
O271 O 0.76413 0.55036 0.0946 0.0
O272 O 0.75632 0.56799 0.06969 0.0
In273 In 0.51853 0.09039 0.03652 0.0
O274 O 0.49264 0.08989 0.04244 0.0
O275 O 0.51629 0.11359 0.05684 0.0
C276 C 0.50957 0.05713 0.02059 0.0
C277 C 0.53157 0.09497 0.12153 0.0
C278 C 0.53072 0.10372 0.95312 0.0
O279 O 0.49835 0.06157 0.02925 0.0
O280 O 0.52519 0.06943 0.02031 0.0
O281 O 0.54088 0.10533 0.98563 0.0
O282 O 0.51474 0.09584 0.96336 0.0
C283 C 0.49984 0.10565 0.05511 0.0
O284 O 0.54105 0.10366 0.08806 0.0
O285 O 0.51612 0.08376 0.11127 0.0
In286 In 0.89982 0.42711 0.02699 0.0
O287 O 0.88578 0.43585 0.07772 0.0
O288 O 0.90457 0.4296 0.10277 0.0
C289 C 0.88898 0.42859 0.94199 0.0
C290 C 0.88304 0.39266 0.03923 0.0
C291 C 0.93396 0.45033 0.0189 0.0
O292 O 0.8871 0.43675 0.97504 0.0
O293 O 0.89599 0.41969 0.95231 0.0
O294 O 0.92839 0.43436 0.02639 0.0
O295 O 0.92231 0.45449 0.01533 0.0
C296 C 0.89351 0.43412 0.11208 0.0
O297 O 0.89917 0.40115 0.03006 0.0
O298 O 0.8755 0.40153 0.0409 0.0
In299 In 0.56037 0.4671 0.02884 0.0
O300 O 0.58492 0.4931 0.041 0.0
O301 O 0.58732 0.47043 0.03351 0.0
C302 C 0.53674 0.4773 0.01633 0.0
C303 C 0.55441 0.45453 0.11491 0.0
C304 C 0.55836 0.45345 0.94522 0.0
O305 O 0.55293 0.48768 0.01275 0.0
O306 O 0.53251 0.46187 0.0267 0.0
O307 O 0.55063 0.44388 0.97941 0.0
O308 O 0.56714 0.46951 0.95384 0.0
C309 C 0.59481 0.48664 0.04079 0.0
O310 O 0.55209 0.44475 0.08088 0.0
O311 O 0.55915 0.47011 0.10496 0.0
In312 In 0.55669 0.7928 0.85949 0.0
O313 O 0.53841 0.77222 0.91136 0.0
O314 O 0.56573 0.78422 0.92191 0.0
C315 C 0.54217 0.782 0.77582 0.0
C316 C 0.54652 0.81479 0.89081 0.0
C317 C 0.59041 0.8039 0.84218 0.0
O318 O 0.54161 0.77147 0.80582 0.0
O319 O 0.54943 0.79762 0.78876 0.0
O320 O 0.58543 0.81354 0.86085 0.0
O321 O 0.57835 0.78869 0.83244 0.0
C322 C 0.55067 0.7739 0.93682 0.0
O323 O 0.5609 0.82026 0.87033 0.0
O324 O 0.53745 0.79848 0.89463 0.0
In325 In 0.18414 0.75799 0.85552 0.0
O326 O 0.20621 0.76735 0.90878 0.0
O327 O 0.18067 0.76049 0.93096 0.0
C328 C 0.19837 0.75939 0.77315 0.0
C329 C 0.16607 0.72353 0.867 0.0
C330 C 0.17333 0.78095 0.84012 0.0
O331 O 0.20742 0.76876 0.80626 0.0
O332 O 0.18251 0.74922 0.78216 0.0
O333 O 0.16274 0.7651 0.84874 0.0
O334 O 0.18917 0.78507 0.83959 0.0
C335 C 0.19623 0.76551 0.94196 0.0
O336 O 0.15865 0.73216 0.85716 0.0
O337 O 0.1825 0.73233 0.87018 0.0
In338 In 0.22637 0.42233 0.86871 0.0
O339 O 0.21815 0.43699 0.91901 0.0
O340 O 0.22456 0.41846 0.94496 0.0
C341 C 0.22435 0.4329 0.78362 0.0
C342 C 0.26086 0.43805 0.88082 0.0
C343 C 0.20319 0.3882 0.8593 0.0
O344 O 0.21626 0.43474 0.81692 0.0
O345 O 0.23345 0.4261 0.79374 0.0
O346 O 0.21946 0.39414 0.85857 0.0
O347 O 0.19865 0.39949 0.86493 0.0
C348 C 0.2201 0.42959 0.95377 0.0
O349 O 0.25135 0.42164 0.88037 0.0
O350 O 0.25297 0.44641 0.87412 0.0
In351 In 0.46818 0.89825 0.96891 0.0
O352 O 0.4941 0.89889 0.96389 0.0
O353 O 0.47063 0.87418 0.96798 0.0
C354 C 0.47812 0.93233 0.971 0.0
C355 C 0.45486 0.88897 0.88408 0.0
C356 C 0.45547 0.88841 0.05432 0.0
O357 O 0.48888 0.92701 0.97505 0.0
O358 O 0.46251 0.92051 0.96528 0.0
O359 O 0.44547 0.88408 0.01993 0.0
O360 O 0.47147 0.8975 0.04523 0.0
C361 C 0.48707 0.88245 0.96455 0.0
O362 O 0.4451 0.88589 0.91863 0.0
O363 O 0.47096 0.89677 0.89254 0.0
In364 In 0.09482 0.5636 0.97221 0.0
O365 O 0.11195 0.55911 0.92113 0.0
O366 O 0.08543 0.55023 0.90408 0.0
C367 C 0.10876 0.56646 0.05599 0.0
C368 C 0.10663 0.5963 0.94329 0.0
C369 C 0.06143 0.54006 0.98961 0.0
O370 O 0.10986 0.55704 0.02523 0.0
O371 O 0.10102 0.57446 0.04392 0.0
O372 O 0.06646 0.55597 0.98269 0.0
O373 O 0.0733 0.53611 0.98814 0.0
C374 C 0.09986 0.55199 0.89189 0.0
O375 O 0.09117 0.58692 0.95739 0.0
O376 O 0.11592 0.58924 0.94457 0.0
In377 In 0.42257 0.5236 0.96848 0.0
O378 O 0.3983 0.49739 0.95728 0.0
O379 O 0.39526 0.51942 0.97109 0.0
C380 C 0.44685 0.51377 0.96965 0.0
C381 C 0.42761 0.53964 0.8867 0.0
C382 C 0.42369 0.5341 0.05552 0.0
O383 O 0.43081 0.50297 0.96508 0.0
O384 O 0.45058 0.52943 0.97285 0.0
O385 O 0.42879 0.54477 0.02248 0.0
O386 O 0.41812 0.51847 0.04434 0.0
C387 C 0.38803 0.50331 0.96221 0.0
O388 O 0.43538 0.54806 0.92227 0.0
O389 O 0.41768 0.52357 0.89265 0.0
In390 In 0.09124 0.52614 0.46681 0.0
O391 O 0.10639 0.55003 0.41933 0.0
O392 O 0.09715 0.52459 0.39287 0.0
C393 C 0.09748 0.53819 0.55316 0.0
C394 C 0.10135 0.50241 0.47466 0.0
C395 C 0.05798 0.51815 0.45656 0.0
O396 O 0.10917 0.5449 0.5227 0.0
O397 O 0.083 0.52599 0.5396 0.0
O398 O 0.06247 0.5067 0.45887 0.0
O399 O 0.07038 0.53374 0.45852 0.0
C400 C 0.10518 0.5407 0.3852 0.0
O401 O 0.08613 0.49837 0.46225 0.0
O402 O 0.1112 0.51829 0.48426 0.0
In403 In 0.46617 0.56556 0.47175 0.0
O404 O 0.44344 0.55744 0.42088 0.0
O405 O 0.46821 0.56282 0.39585 0.0
C406 C 0.45362 0.56567 0.55557 0.0
C407 C 0.4864 0.59967 0.45671 0.0
C408 C 0.475 0.54101 0.48551 0.0
O409 O 0.44374 0.55669 0.52314 0.0
O410 O 0.46954 0.57472 0.54527 0.0
O411 O 0.48629 0.55688 0.48011 0.0
O412 O 0.45939 0.53762 0.48381 0.0
C413 C 0.45275 0.55876 0.38656 0.0
O414 O 0.4927 0.58972 0.46161 0.0
O415 O 0.47002 0.59242 0.46081 0.0
In416 In 0.42192 0.89637 0.4707 0.0
O417 O 0.42915 0.88154 0.41835 0.0
O418 O 0.42314 0.90063 0.39456 0.0
C419 C 0.42507 0.88424 0.55275 0.0
C420 C 0.38758 0.8823 0.4589 0.0
C421 C 0.44523 0.93036 0.48287 0.0
O422 O 0.43476 0.8857 0.51929 0.0
O423 O 0.41364 0.88833 0.54421 0.0
O424 O 0.42912 0.92418 0.48982 0.0
O425 O 0.44944 0.91944 0.46964 0.0
C426 C 0.42722 0.88932 0.38444 0.0
O427 O 0.3977 0.89861 0.46109 0.0
O428 O 0.3948 0.87319 0.46393 0.0
In429 In 0.18199 0.42398 0.36652 0.0
O430 O 0.1559 0.42212 0.38028 0.0
O431 O 0.17876 0.44732 0.37824 0.0
C432 C 0.17175 0.39043 0.35007 0.0
C433 C 0.19484 0.42921 0.45215 0.0
C434 C 0.19538 0.43673 0.28322 0.0
O435 O 0.16129 0.39619 0.34852 0.0
O436 O 0.18725 0.40155 0.3603 0.0
O437 O 0.20498 0.43759 0.31636 0.0
O438 O 0.17943 0.43002 0.29284 0.0
C439 C 0.16248 0.43841 0.38459 0.0
O440 O 0.20435 0.43784 0.41866 0.0
O441 O 0.17947 0.41785 0.4417 0.0
In442 In 0.56302 0.75948 0.36436 0.0
O443 O 0.54742 0.768 0.41088 0.0
O444 O 0.55957 0.75475 0.4399 0.0
C445 C 0.55709 0.76307 0.2759 0.0
C446 C 0.55082 0.72509 0.36385 0.0
C447 C 0.59611 0.78547 0.37128 0.0
O448 O 0.54649 0.76181 0.30683 0.0
O449 O 0.57036 0.76273 0.28995 0.0
O450 O 0.59196 0.7696 0.37203 0.0
O451 O 0.58348 0.78825 0.36769 0.0
C452 C 0.55037 0.7617 0.44644 0.0
O453 O 0.56658 0.73592 0.37278 0.0
O454 O 0.54149 0.7317 0.35403 0.0
In455 In 0.22674 0.80387 0.3607 0.0
O456 O 0.2515 0.82955 0.37385 0.0
O457 O 0.25376 0.80728 0.35726 0.0
C458 C 0.20293 0.81436 0.36035 0.0
C459 C 0.22251 0.78851 0.44299 0.0
C460 C 0.22434 0.79253 0.27397 0.0
O461 O 0.21908 0.82488 0.35665 0.0
O462 O 0.19886 0.79863 0.36492 0.0
O463 O 0.21861 0.78205 0.3074 0.0
O464 O 0.23116 0.80838 0.28463 0.0
C465 C 0.2614 0.82324 0.36792 0.0
O466 O 0.21531 0.77963 0.40749 0.0
O467 O 0.23132 0.8047 0.43676 0.0
H468 H 0.22407 0.12741 0.82703 0.0
H469 H 0.21607 0.07617 0.85495 0.0
H470 H 0.21937 0.13083 0.90775 0.0
H471 H 0.21 0.0788 0.93464 0.0
H472 H 0.22524 0.09851 0.08099 0.0
H473 H 0.22449 0.09198 1.00015 0.0
H474 H 0.20179 0.12431 0.97112 0.0
H475 H 0.20381 0.13174 0.05197 0.0
C476 C 0.22088 0.11674 0.8504 0.0
C477 C 0.22067 0.10166 0.83518 0.0
C478 C 0.21805 0.11858 0.89669 0.0
C479 C 0.21448 0.10516 0.92836 0.0
C480 C 0.21326 0.08967 0.912 0.0
C481 C 0.21659 0.08807 0.86617 0.0
C482 C 0.21979 0.10393 0.05734 0.0
C483 C 0.21466 0.11566 0.07259 0.0
C484 C 0.21928 0.10016 0.01078 0.0
C485 C 0.21322 0.10773 0.97846 0.0
C486 C 0.207 0.11859 0.99449 0.0
C487 C 0.20793 0.12269 0.04094 0.0
H488 H 0.90725 0.14609 0.86092 0.0
H489 H 0.87729 0.09246 0.81731 0.0
H490 H 0.90232 0.13683 0.94048 0.0
H491 H 0.87229 0.08312 0.89762 0.0
H492 H 0.8466 0.08138 0.04082 0.0
H493 H 0.85496 0.0868 0.96053 0.0
H494 H 0.90869 0.12033 0.99981 0.0
H495 H 0.90028 0.11488 0.0806 0.0
C496 C 0.89972 0.13228 0.86838 0.0
C497 C 0.89251 0.11999 0.83292 0.0
C498 C 0.89705 0.12697 0.914 0.0
C499 C 0.88695 0.10925 0.92531 0.0
C500 C 0.88007 0.09688 0.88985 0.0
C501 C 0.88295 0.1022 0.84398 0.0
C502 C 0.86025 0.08971 0.03235 0.0
C503 C 0.87278 0.09786 0.06694 0.0
C504 C 0.86504 0.0927 0.98633 0.0
C505 C 0.88246 0.10404 0.97387 0.0
C506 C 0.89514 0.11162 0.00847 0.0
C507 C 0.89035 0.10847 0.05464 0.0
H508 H 0.87626 0.78019 0.07523 0.0
H509 H 0.91078 0.76164 0.03261 0.0
H510 H 0.87121 0.78429 0.99486 0.0
H511 H 0.9058 0.76573 0.95284 0.0
H512 H 0.90102 0.78446 0.81174 0.0
H513 H 0.90969 0.78768 0.89253 0.0
H514 H 0.85553 0.76251 0.93265 0.0
H515 H 0.84695 0.75927 0.8527 0.0
C516 C 0.88295 0.77724 0.04877 0.0
C517 C 0.89376 0.77043 0.06012 0.0
C518 C 0.88004 0.77954 0.00284 0.0
C519 C 0.88809 0.77529 0.96755 0.0
C520 C 0.89955 0.76929 0.97917 0.0
C521 C 0.90228 0.76681 0.0249 0.0
C522 C 0.89104 0.77983 0.83794 0.0
C523 C 0.87332 0.77147 0.82596 0.0
C524 C 0.89597 0.78163 0.88408 0.0
C525 C 0.88328 0.77536 0.91892 0.0
C526 C 0.86563 0.76767 0.90673 0.0
C527 C 0.86072 0.76567 0.86085 0.0
H528 H 0.13502 0.2503 0.46024 0.0
H529 H 0.10188 0.19507 0.43844 0.0
H530 H 0.1315 0.24598 0.54211 0.0
H531 H 0.09894 0.19044 0.52145 0.0
H532 H 0.08321 0.19425 0.67221 0.0
H533 H 0.08684 0.19445 0.58946 0.0
H534 H 0.14042 0.23576 0.60355 0.0
H535 H 0.13631 0.23621 0.68576 0.0
C536 C 0.12702 0.23717 0.47315 0.0
C537 C 0.11875 0.22302 0.44305 0.0
C538 C 0.12518 0.23463 0.52026 0.0
C539 C 0.11529 0.21779 0.53879 0.0
C540 C 0.10665 0.2036 0.50853 0.0
C541 C 0.10829 0.20622 0.46101 0.0
C542 C 0.09588 0.20304 0.65757 0.0
C543 C 0.10946 0.21532 0.68518 0.0
C544 C 0.09797 0.20319 0.61007 0.0
C545 C 0.11379 0.21545 0.58946 0.0
C546 C 0.12784 0.22657 0.6179 0.0
C547 C 0.12561 0.22669 0.66513 0.0
H548 H 0.76464 0.86745 0.43088 0.0
H549 H 0.78077 0.92106 0.46063 0.0
H550 H 0.76627 0.86202 0.51167 0.0
H551 H 0.78362 0.91611 0.54133 0.0
H552 H 0.76188 0.8949 0.68495 0.0
H553 H 0.76634 0.9035 0.60462 0.0
H554 H 0.78154 0.86495 0.57725 0.0
H555 H 0.77577 0.85567 0.65669 0.0
C556 C 0.7691 0.87822 0.45466 0.0
C557 C 0.77248 0.89463 0.43962 0.0
C558 C 0.77012 0.87517 0.50118 0.0
C559 C 0.77494 0.88858 0.53367 0.0
C560 C 0.77939 0.90531 0.51784 0.0
C561 C 0.77797 0.90823 0.47146 0.0
C562 C 0.7664 0.88849 0.66168 0.0
C563 C 0.76831 0.87454 0.6767 0.0
C564 C 0.76906 0.89344 0.61555 0.0
C565 C 0.77411 0.88479 0.58377 0.0
C566 C 0.77713 0.87159 0.6 0.0
C567 C 0.77401 0.86636 0.6457 0.0
H568 H 0.08415 0.8769 0.70014 0.0
H569 H 0.13731 0.90964 0.65484 0.0
H570 H 0.07419 0.87385 0.62052 0.0
H571 H 0.12753 0.90648 0.57632 0.0
H572 H 0.10704 0.90647 0.43922 0.0
H573 H 0.11127 0.9133 0.52088 0.0
H574 H 0.07714 0.85892 0.55293 0.0
H575 H 0.07267 0.8522 0.47175 0.0
C576 C 0.09365 0.88354 0.67331 0.0
C577 C 0.1115 0.89334 0.68361 0.0
C578 C 0.08798 0.8818 0.62783 0.0
C579 C 0.10007 0.88999 0.59212 0.0
C580 C 0.11782 0.90025 0.60293 0.0
C581 C 0.12346 0.90188 0.64802 0.0
C582 C 0.10015 0.89607 0.46377 0.0
C583 C 0.08975 0.87878 0.44918 0.0
C584 C 0.10262 0.89995 0.51049 0.0
C585 C 0.09472 0.88661 0.54337 0.0
C586 C 0.08332 0.86952 0.5286 0.0
C587 C 0.08088 0.86565 0.482 0.0
H588 H 0.75175 0.90349 0.14862 0.0
H589 H 0.77762 0.87531 0.18949 0.0
H590 H 0.75497 0.89813 0.06868 0.0
H591 H 0.78082 0.86984 0.10868 0.0
H592 H 0.75605 0.84341 0.96674 0.0
H593 H 0.75934 0.85183 0.04703 0.0
H594 H 0.77737 0.90512 0.00753 0.0
H595 H 0.77408 0.89665 0.92678 0.0
C596 C 0.75824 0.89622 0.14047 0.0
C597 C 0.76431 0.88969 0.17534 0.0
C598 C 0.76024 0.8933 0.09459 0.0
C599 C 0.7682 0.88362 0.08236 0.0
C600 C 0.77458 0.87731 0.11717 0.0
C601 C 0.77278 0.88045 0.16331 0.0
C602 C 0.76094 0.85698 0.97514 0.0
C603 C 0.76465 0.86936 0.9405 0.0
C604 C 0.76295 0.86181 0.02116 0.0
C605 C 0.76855 0.87911 0.0336 0.0
C606 C 0.7729 0.89165 0.99891 0.0
C607 C 0.77107 0.88683 0.95275 0.0
H608 H 0.13216 0.90307 0.19662 0.0
H609 H 0.07687 0.88072 0.17431 0.0
H610 H 0.13737 0.90863 0.11493 0.0
H611 H 0.08186 0.88523 0.09231 0.0
H612 H 0.09739 0.90165 0.94345 0.0
H613 H 0.09261 0.90252 0.0258 0.0
H614 H 0.13353 0.89062 0.05305 0.0
H615 H 0.13873 0.89064 0.97183 0.0
C616 C 0.12115 0.8996 0.17423 0.0
C617 C 0.10413 0.89136 0.1917 0.0
C618 C 0.12407 0.90255 0.1273 0.0
C619 C 0.10999 0.8969 0.09664 0.0
C620 C 0.09304 0.8898 0.11465 0.0
C621 C 0.09017 0.88719 0.16177 0.0
C622 C 0.10528 0.89922 0.96731 0.0
C623 C 0.11846 0.89616 0.95138 0.0
C624 C 0.10258 0.89972 0.01445 0.0
C625 C 0.11288 0.89694 0.04637 0.0
C626 C 0.12573 0.89344 0.02988 0.0
C627 C 0.12858 0.89322 0.98314 0.0
H628 H 0.0717 0.21627 0.96218 0.0
H629 H 0.10702 0.19737 0.93156 0.0
H630 H 0.07557 0.21371 0.04357 0.0
H631 H 0.11044 0.19419 0.01326 0.0
H632 H 0.13574 0.22284 0.14758 0.0
H633 H 0.12612 0.2161 0.0692 0.0
H634 H 0.07288 0.19711 0.11206 0.0
H635 H 0.08277 0.20436 0.19167 0.0
C636 C 0.07994 0.21111 0.97285 0.0
C637 C 0.08932 0.20732 0.94051 0.0
C638 C 0.08205 0.20952 0.01963 0.0
C639 C 0.09354 0.20401 0.03508 0.0
C640 C 0.10179 0.19885 0.00252 0.0
C641 C 0.09977 0.20057 0.9557 0.0
C642 C 0.12193 0.21707 0.14056 0.0
C643 C 0.11003 0.21431 0.1758 0.0
C644 C 0.11636 0.21298 0.09545 0.0
C645 C 0.0987 0.20598 0.08413 0.0
C646 C 0.08662 0.2026 0.1196 0.0
C647 C 0.09223 0.20668 0.16514 0.0
H648 H 0.86723 0.76755 0.31534 0.0
H649 H 0.91944 0.77862 0.34546 0.0
H650 H 0.86285 0.77161 0.39569 0.0
H651 H 0.91574 0.78401 0.42507 0.0
H652 H 0.89548 0.76792 0.57112 0.0
H653 H 0.90273 0.7692 0.49053 0.0
H654 H 0.86774 0.7886 0.45918 0.0
H655 H 0.85967 0.78604 0.53962 0.0
C656 C 0.87793 0.77134 0.33907 0.0
C657 C 0.89359 0.77262 0.32442 0.0
C658 C 0.8755 0.77378 0.38526 0.0
C659 C 0.88887 0.77799 0.4176 0.0
C660 C 0.90492 0.78027 0.4019 0.0
C661 C 0.90714 0.77736 0.35607 0.0
C662 C 0.88959 0.77273 0.54699 0.0
C663 C 0.87697 0.7768 0.56151 0.0
C664 C 0.89378 0.77355 0.50056 0.0
C665 C 0.88573 0.77886 0.46763 0.0
C666 C 0.87388 0.78396 0.48295 0.0
C667 C 0.86938 0.78272 0.52922 0.0
H668 H 0.22228 0.07744 0.54463 0.0
H669 H 0.21263 0.11882 0.58393 0.0
H670 H 0.21951 0.08296 0.46433 0.0
H671 H 0.20975 0.12431 0.50321 0.0
H672 H 0.23696 0.1456 0.36265 0.0
H673 H 0.23242 0.13686 0.44245 0.0
H674 H 0.20004 0.0831 0.40221 0.0
H675 H 0.20462 0.09193 0.32145 0.0
C676 C 0.21925 0.08752 0.5361 0.0
C677 C 0.21788 0.09785 0.5705 0.0
C678 C 0.21753 0.09059 0.49008 0.0
C679 C 0.21455 0.10415 0.47744 0.0
C680 C 0.21224 0.11388 0.51198 0.0
C681 C 0.21381 0.1107 0.55814 0.0
C682 C 0.22878 0.1319 0.37069 0.0
C683 C 0.22126 0.11941 0.33577 0.0
C684 C 0.22602 0.12692 0.41651 0.0
C685 C 0.21579 0.10931 0.42866 0.0
C686 C 0.20802 0.09678 0.3938 0.0
C687 C 0.21063 0.10181 0.34768 0.0
H688 H 0.86896 0.09768 0.57624 0.0
H689 H 0.92195 0.13764 0.54848 0.0
H690 H 0.86452 0.0903 0.49539 0.0
H691 H 0.91811 0.12957 0.46798 0.0
H692 H 0.89746 0.12818 0.32271 0.0
H693 H 0.90535 0.13295 0.40341 0.0
H694 H 0.86905 0.0785 0.43092 0.0
H695 H 0.86038 0.07429 0.35092 0.0
C696 C 0.87982 0.1045 0.5529 0.0
C697 C 0.89573 0.11828 0.5684 0.0
C698 C 0.87736 0.10025 0.5064 0.0
C699 C 0.89092 0.10942 0.47452 0.0
C700 C 0.90719 0.12251 0.49094 0.0
C701 C 0.90948 0.12704 0.53721 0.0
C702 C 0.89143 0.11724 0.34608 0.0
C703 C 0.87824 0.10094 0.33091 0.0
C704 C 0.89597 0.1199 0.39245 0.0
C705 C 0.88769 0.10616 0.42434 0.0
C706 C 0.87534 0.08955 0.40803 0.0
C707 C 0.8705 0.08706 0.36203 0.0
H708 H 0.87107 0.4447 0.14431 0.0
H709 H 0.90685 0.42785 0.18827 0.0
H710 H 0.86483 0.44762 0.22461 0.0
H711 H 0.90077 0.43084 0.26753 0.0
H712 H 0.87944 0.42594 0.40702 0.0
H713 H 0.87777 0.41829 0.32607 0.0
H714 H 0.88135 0.46715 0.28901 0.0
H715 H 0.88276 0.47464 0.36956 0.0
C716 C 0.87757 0.44162 0.17103 0.0
C717 C 0.88953 0.43617 0.16 0.0
C718 C 0.87398 0.44325 0.2169 0.0
C719 C 0.88218 0.43929 0.25241 0.0
C720 C 0.89395 0.43365 0.2411 0.0
C721 C 0.8976 0.43214 0.19555 0.0
C722 C 0.87943 0.43482 0.38158 0.0
C723 C 0.88146 0.45097 0.39452 0.0
C724 C 0.87859 0.43051 0.33526 0.0
C725 C 0.87969 0.44224 0.30115 0.0
C726 C 0.8804 0.4578 0.31437 0.0
C727 C 0.88132 0.46213 0.36057 0.0
H728 H 0.53999 0.42111 0.14828 0.0
H729 H 0.56401 0.47492 0.19048 0.0
H730 H 0.5355 0.41209 0.22884 0.0
H731 H 0.55951 0.46599 0.27015 0.0
H732 H 0.55967 0.44669 0.41166 0.0
H733 H 0.56827 0.45251 0.33105 0.0
H734 H 0.51656 0.41263 0.29086 0.0
H735 H 0.50807 0.40678 0.37092 0.0
C736 C 0.5444 0.43098 0.17468 0.0
C737 C 0.5522 0.44869 0.16308 0.0
C738 C 0.54183 0.42584 0.22072 0.0
C739 C 0.54721 0.43834 0.25587 0.0
C740 C 0.55545 0.45605 0.24403 0.0
C741 C 0.55786 0.46115 0.19826 0.0
C742 C 0.55028 0.43898 0.38556 0.0
C743 C 0.53317 0.42643 0.39752 0.0
C744 C 0.55515 0.44235 0.33946 0.0
C745 C 0.54304 0.4331 0.30458 0.0
C746 C 0.52624 0.41987 0.31681 0.0
C747 C 0.52134 0.41662 0.36273 0.0
H748 H 0.57975 0.10156 0.38214 0.0
H749 H 0.53666 0.10933 0.41598 0.0
H750 H 0.57443 0.1031 0.30096 0.0
H751 H 0.53136 0.11095 0.33445 0.0
H752 H 0.51132 0.08155 0.1967 0.0
H753 H 0.51996 0.08694 0.27646 0.0
H754 H 0.57338 0.12146 0.23602 0.0
H755 H 0.56465 0.11607 0.15525 0.0
C756 C 0.56935 0.10395 0.3722 0.0
C757 C 0.55846 0.10511 0.40532 0.0
C758 C 0.56638 0.10494 0.3257 0.0
C759 C 0.55238 0.10696 0.3114 0.0
C760 C 0.54214 0.10917 0.34459 0.0
C761 C 0.54521 0.10834 0.39119 0.0
C762 C 0.52493 0.09032 0.20464 0.0
C763 C 0.53734 0.0983 0.16969 0.0
C764 C 0.52983 0.09357 0.25042 0.0
C765 C 0.54731 0.10477 0.26249 0.0
C766 C 0.5598 0.11278 0.22762 0.0
C767 C 0.55483 0.10967 0.18151 0.0
H768 H 0.80908 0.56058 0.8032 0.0
H769 H 0.75575 0.54302 0.76462 0.0
H770 H 0.80088 0.5572 0.88364 0.0
H771 H 0.74748 0.53951 0.84548 0.0
H772 H 0.74981 0.56605 0.98481 0.0
H773 H 0.75465 0.56197 0.90522 0.0
H774 H 0.7833 0.53663 0.94667 0.0
H775 H 0.7784 0.54077 0.02729 0.0
C776 C 0.79553 0.55572 0.81193 0.0
C777 C 0.78308 0.55227 0.77767 0.0
C778 C 0.79082 0.55365 0.85804 0.0
C779 C 0.77357 0.5482 0.87089 0.0
C780 C 0.76092 0.54391 0.83654 0.0
C781 C 0.76563 0.54586 0.7903 0.0
C782 C 0.75704 0.55948 0.97709 0.0
C783 C 0.76387 0.55386 0.01229 0.0
C784 C 0.75965 0.55698 0.93139 0.0
C785 C 0.76928 0.54892 0.91964 0.0
C786 C 0.77585 0.54294 0.95479 0.0
C787 C 0.77305 0.54528 1.00082 0.0
H788 H 0.45702 0.21466 0.76151 0.0
H789 H 0.44072 0.25217 0.79013 0.0
H790 H 0.45943 0.21098 0.84344 0.0
H791 H 0.44264 0.24814 0.87185 0.0
H792 H 0.45152 0.2399 0.02097 0.0
H793 H 0.45911 0.24972 0.9413 0.0
H794 H 0.4359 0.19611 0.89759 0.0
H795 H 0.42865 0.18649 0.97593 0.0
C796 C 0.4543 0.22237 0.78526 0.0
C797 C 0.4484 0.23347 0.76945 0.0
C798 C 0.45558 0.22021 0.83218 0.0
C799 C 0.45089 0.22902 0.86419 0.0
C800 C 0.44641 0.2412 0.84822 0.0
C801 C 0.4452 0.24342 0.8013 0.0
C802 C 0.44825 0.23031 0.99422 0.0
C803 C 0.43937 0.21245 0.00463 0.0
C804 C 0.45256 0.2359 0.9487 0.0
C805 C 0.44824 0.2237 0.9131 0.0
C806 C 0.43978 0.2059 0.92407 0.0
C807 C 0.43541 0.20037 0.96911 0.0
H808 H 0.73759 0.18182 0.79413 0.0
H809 H 0.78032 0.23269 0.75848 0.0
H810 H 0.74303 0.18913 0.87502 0.0
H811 H 0.7857 0.24006 0.83972 0.0
H812 H 0.80635 0.23165 0.97774 0.0
H813 H 0.79752 0.22825 0.89811 0.0
H814 H 0.74402 0.2084 0.93941 0.0
H815 H 0.75294 0.21182 0.02 0.0
C816 C 0.74792 0.19471 0.8036 0.0
C817 C 0.75869 0.20662 0.77007 0.0
C818 C 0.75095 0.19892 0.84995 0.0
C819 C 0.7649 0.21508 0.86369 0.0
C820 C 0.77498 0.22741 0.83005 0.0
C821 C 0.77186 0.22324 0.7836 0.0
C822 C 0.79269 0.22659 0.96999 0.0
C823 C 0.78031 0.22187 0.00513 0.0
C824 C 0.78767 0.22485 0.92429 0.0
C825 C 0.77011 0.21822 0.9125 0.0
C826 C 0.75766 0.21354 0.94758 0.0
C827 C 0.76274 0.21547 0.99359 0.0
H828 H 0.42069 0.18597 0.51605 0.0
H829 H 0.46084 0.23981 0.50208 0.0
H830 H 0.42148 0.18192 0.43393 0.0
H831 H 0.46085 0.23623 0.41941 0.0
H832 H 0.46097 0.22204 0.26837 0.0
H833 H 0.46561 0.22503 0.35136 0.0
H834 H 0.41048 0.18962 0.3723 0.0
H835 H 0.40624 0.18603 0.29049 0.0
C836 C 0.42989 0.19686 0.49534 0.0
C837 C 0.44066 0.21318 0.51523 0.0
C838 C 0.43018 0.19466 0.44814 0.0
C839 C 0.44082 0.2089 0.41956 0.0
C840 C 0.4525 0.22495 0.44006 0.0
C841 C 0.45253 0.22701 0.48754 0.0
C842 C 0.44992 0.21501 0.29102 0.0
C843 C 0.43328 0.20374 0.27318 0.0
C844 C 0.45254 0.21667 0.33853 0.0
C845 C 0.4385 0.20729 0.36889 0.0
C846 C 0.42178 0.19655 0.35043 0.0
C847 C 0.41926 0.19466 0.30334 0.0
H848 H 0.75866 0.1822 0.47701 0.0
H849 H 0.77351 0.23451 0.51938 0.0
H850 H 0.76107 0.19086 0.39747 0.0
H851 H 0.7759 0.24325 0.43879 0.0
H852 H 0.80288 0.2522 0.29304 0.0
H853 H 0.79575 0.24654 0.37395 0.0
H854 H 0.74722 0.20035 0.33932 0.0
H855 H 0.75448 0.20594 0.25805 0.0
C856 C 0.76241 0.19558 0.46931 0.0
C857 C 0.76602 0.20772 0.50447 0.0
C858 C 0.76357 0.20048 0.42363 0.0
C859 C 0.76847 0.21767 0.41184 0.0
C860 C 0.77207 0.22988 0.44694 0.0
C861 C 0.77076 0.22491 0.49295 0.0
C862 C 0.79051 0.24104 0.30265 0.0
C863 C 0.77934 0.22935 0.26933 0.0
C864 C 0.78638 0.23786 0.34902 0.0
C865 C 0.77105 0.22288 0.36299 0.0
C866 C 0.75927 0.21188 0.32949 0.0
C867 C 0.76335 0.21512 0.28301 0.0
H868 H 0.80565 0.56437 0.48238 0.0
H869 H 0.75224 0.53988 0.52897 0.0
H870 H 0.79581 0.55873 0.40362 0.0
H871 H 0.74226 0.53407 0.44921 0.0
H872 H 0.73875 0.55599 0.30452 0.0
H873 H 0.74412 0.55312 0.38477 0.0
H874 H 0.78021 0.53605 0.34576 0.0
H875 H 0.77497 0.53916 0.26504 0.0
C876 C 0.79175 0.5576 0.47577 0.0
C877 C 0.7797 0.55273 0.51183 0.0
C878 C 0.7861 0.55419 0.43054 0.0
C879 C 0.76826 0.5459 0.42011 0.0
C880 C 0.75612 0.54055 0.45623 0.0
C881 C 0.7618 0.54385 0.5018 0.0
C882 C 0.74761 0.55133 0.31302 0.0
C883 C 0.75664 0.54804 0.27854 0.0
C884 C 0.75057 0.54955 0.35906 0.0
C885 C 0.7627 0.54451 0.37164 0.0
C886 C 0.77094 0.54017 0.33707 0.0
C887 C 0.7679 0.54188 0.2909 0.0
H888 H 0.563 0.08654 0.70022 0.0
H889 H 0.54083 0.11766 0.65469 0.0
H890 H 0.55975 0.09274 0.77918 0.0
H891 H 0.53756 0.12397 0.73475 0.0
H892 H 0.51144 0.10389 0.881 0.0
H893 H 0.51896 0.10606 0.80022 0.0
H894 H 0.57063 0.11655 0.83612 0.0
H895 H 0.56301 0.11417 0.91723 0.0
C896 C 0.55749 0.0948 0.70711 0.0
C897 C 0.55202 0.10149 0.67125 0.0
C898 C 0.55583 0.09853 0.75245 0.0
C899 C 0.54855 0.10898 0.76322 0.0
C900 C 0.54322 0.11587 0.72739 0.0
C901 C 0.54506 0.11226 0.6817 0.0
C902 C 0.52453 0.10704 0.8717 0.0
C903 C 0.53656 0.1086 0.90536 0.0
C904 C 0.52887 0.10839 0.82538 0.0
C905 C 0.5453 0.11124 0.81183 0.0
C906 C 0.55776 0.11408 0.84562 0.0
C907 C 0.55345 0.11281 0.89202 0.0
H908 H 0.87232 0.42483 0.64447 0.0
H909 H 0.9061 0.47823 0.68595 0.0
H910 H 0.86754 0.41594 0.7252 0.0
H911 H 0.90138 0.46943 0.76565 0.0
H912 H 0.88067 0.45209 0.9065 0.0
H913 H 0.87842 0.45768 0.82554 0.0
H914 H 0.8862 0.41492 0.78839 0.0
H915 H 0.88831 0.40926 0.86903 0.0
C916 C 0.87865 0.43463 0.67074 0.0
C917 C 0.88967 0.45219 0.6589 0.0
C918 C 0.87592 0.42957 0.71684 0.0
C919 C 0.88397 0.44202 0.75176 0.0
C920 C 0.89473 0.45957 0.73968 0.0
C921 C 0.89759 0.46457 0.69388 0.0
C922 C 0.88154 0.44368 0.88105 0.0
C923 C 0.88487 0.43038 0.89402 0.0
C924 C 0.88034 0.44693 0.83474 0.0
C925 C 0.88232 0.43684 0.80062 0.0
C926 C 0.88452 0.42285 0.81382 0.0
C927 C 0.88585 0.41969 0.86003 0.0
H928 H 0.50656 0.4163 0.69267 0.0
H929 H 0.56015 0.43954 0.64843 0.0
H930 H 0.51588 0.42063 0.77197 0.0
H931 H 0.56957 0.44373 0.72856 0.0
H932 H 0.57657 0.47146 0.87027 0.0
H933 H 0.57025 0.4627 0.79059 0.0
H934 H 0.52896 0.41193 0.83268 0.0
H935 H 0.53516 0.42087 0.91288 0.0
C936 C 0.52036 0.4222 0.69992 0.0
C937 C 0.53264 0.42774 0.66428 0.0
C938 C 0.52569 0.4245 0.74549 0.0
C939 C 0.54346 0.43247 0.75667 0.0
C940 C 0.55577 0.43764 0.72102 0.0
C941 C 0.5504 0.43523 0.6752 0.0
C942 C 0.56632 0.45832 0.86259 0.0
C943 C 0.55621 0.44691 0.89779 0.0
C944 C 0.56279 0.45326 0.81686 0.0
C945 C 0.54901 0.43667 0.80522 0.0
C946 C 0.53952 0.42489 0.84056 0.0
C947 C 0.54312 0.42995 0.88646 0.0
H948 H 0.52723 0.7495 0.7375 0.0
H949 H 0.54595 0.80352 0.70493 0.0
H950 H 0.52402 0.74252 0.65604 0.0
H951 H 0.54341 0.79674 0.6238 0.0
H952 H 0.53445 0.77986 0.47634 0.0
H953 H 0.52705 0.78269 0.55565 0.0
H954 H 0.54567 0.74835 0.59995 0.0
H955 H 0.55251 0.74526 0.5218 0.0
C956 C 0.53038 0.75982 0.71298 0.0
C957 C 0.5371 0.77708 0.72757 0.0
C958 C 0.52865 0.75586 0.66628 0.0
C959 C 0.53378 0.76913 0.63324 0.0
C960 C 0.53924 0.78617 0.6481 0.0
C961 C 0.54082 0.79008 0.69474 0.0
C962 C 0.53665 0.77274 0.50311 0.0
C963 C 0.54421 0.76249 0.49292 0.0
C964 C 0.53249 0.77439 0.5485 0.0
C965 C 0.53575 0.76573 0.58432 0.0
C966 C 0.54265 0.75496 0.57345 0.0
C967 C 0.54679 0.75335 0.52847 0.0
H968 H 0.19373 0.76103 0.48122 0.0
H969 H 0.24729 0.79952 0.50836 0.0
H970 H 0.18971 0.75239 0.5615 0.0
H971 H 0.2439 0.79014 0.5877 0.0
H972 H 0.225 0.78843 0.73431 0.0
H973 H 0.23205 0.79351 0.65347 0.0
H974 H 0.19405 0.73966 0.62476 0.0
H975 H 0.18625 0.73512 0.70552 0.0
C976 C 0.20477 0.76724 0.50423 0.0
C977 C 0.22073 0.78102 0.48897 0.0
C978 C 0.20256 0.76226 0.55032 0.0
C979 C 0.21642 0.77071 0.58178 0.0
C980 C 0.23273 0.78369 0.56523 0.0
C981 C 0.23477 0.78896 0.51959 0.0
C982 C 0.21841 0.77764 0.71072 0.0
C983 C 0.20503 0.76144 0.726 0.0
C984 C 0.22248 0.78048 0.66417 0.0
C985 C 0.21352 0.76704 0.63193 0.0
C986 C 0.20092 0.75049 0.64805 0.0
C987 C 0.19657 0.74779 0.69446 0.0
H988 H 0.22792 0.45011 0.48631 0.0
H989 H 0.17455 0.41554 0.52719 0.0
H990 H 0.23669 0.45467 0.56712 0.0
H991 H 0.18322 0.42006 0.60699 0.0
H992 H 0.20032 0.44057 0.74839 0.0
H993 H 0.19459 0.44276 0.66748 0.0
H994 H 0.23799 0.43601 0.62985 0.0
H995 H 0.24377 0.43394 0.7104 0.0
C996 C 0.2181 0.44355 0.51247 0.0
C997 C 0.20059 0.43238 0.50042 0.0
C998 C 0.22309 0.44616 0.55862 0.0
C999 C 0.21061 0.43782 0.59341 0.0
C1000 C 0.1931 0.42691 0.58113 0.0
C1001 C 0.18817 0.42418 0.53528 0.0
C1002 C 0.20882 0.4399 0.72284 0.0
C1003 C 0.22236 0.43689 0.73566 0.0
C1004 C 0.2055 0.44106 0.67655 0.0
C1005 C 0.21575 0.43939 0.6423 0.0
C1006 C 0.22994 0.43746 0.65536 0.0
C1007 C 0.23316 0.43616 0.70153 0.0
H1008 H 0.47469 0.89082 0.12905 0.0
H1009 H 0.42243 0.87655 0.08744 0.0
H1010 H 0.46588 0.88748 0.20898 0.0
H1011 H 0.41355 0.87317 0.16794 0.0
H1012 H 0.41688 0.89956 0.30922 0.0
H1013 H 0.4216 0.89549 0.22939 0.0
H1014 H 0.44689 0.86674 0.27008 0.0
H1015 H 0.44211 0.87083 0.35077 0.0
C1016 C 0.46122 0.8867 0.13702 0.0
C1017 C 0.44927 0.88412 0.10205 0.0
C1018 C 0.45615 0.88465 0.18284 0.0
C1019 C 0.43905 0.88014 0.19477 0.0
C1020 C 0.42687 0.8768 0.15971 0.0
C1021 C 0.43191 0.87866 0.1137 0.0
C1022 C 0.42333 0.89223 0.30124 0.0
C1023 C 0.42929 0.88565 0.33625 0.0
C1024 C 0.42586 0.88975 0.25542 0.0
C1025 C 0.43457 0.88076 0.24342 0.0
C1026 C 0.44019 0.87378 0.27839 0.0
C1027 C 0.43745 0.8761 0.32447 0.0
H1028 H 0.12563 0.55046 0.09253 0.0
H1029 H 0.10416 0.58323 0.12761 0.0
H1030 H 0.13053 0.54768 0.17357 0.0
H1031 H 0.10827 0.57988 0.20816 0.0
H1032 H 0.11916 0.57435 0.35359 0.0
H1033 H 0.12574 0.58405 0.27387 0.0
H1034 H 0.11102 0.53159 0.23285 0.0
H1035 H 0.10516 0.52224 0.31165 0.0
C1036 C 0.12217 0.55723 0.11751 0.0
C1037 C 0.11427 0.56682 0.10382 0.0
C1038 C 0.12488 0.55559 0.16395 0.0
C1039 C 0.11953 0.56332 0.19759 0.0
C1040 C 0.11272 0.57386 0.18344 0.0
C1041 C 0.11019 0.57565 0.13712 0.0
C1042 C 0.11771 0.56505 0.32748 0.0
C1043 C 0.11143 0.54751 0.33874 0.0
C1044 C 0.12138 0.57055 0.28182 0.0
C1045 C 0.11879 0.55858 0.24673 0.0
C1046 C 0.11344 0.54128 0.25873 0.0
C1047 C 0.10986 0.53585 0.30408 0.0
H1048 H 0.44298 0.56674 0.09214 0.0
H1049 H 0.40754 0.51308 0.12831 0.0
H1050 H 0.44814 0.57427 0.17346 0.0
H1051 H 0.41262 0.5206 0.20923 0.0
H1052 H 0.41907 0.54301 0.35428 0.0
H1053 H 0.40979 0.53861 0.27378 0.0
H1054 H 0.46372 0.56553 0.23121 0.0
H1055 H 0.4729 0.56973 0.31072 0.0
C1056 C 0.43605 0.55665 0.11742 0.0
C1057 C 0.42502 0.53931 0.10398 0.0
C1058 C 0.43903 0.56093 0.16388 0.0
C1059 C 0.43083 0.54799 0.19761 0.0
C1060 C 0.419 0.53086 0.18405 0.0
C1061 C 0.41621 0.52655 0.13771 0.0
C1062 C 0.42887 0.54805 0.3276 0.0
C1063 C 0.44668 0.55656 0.33869 0.0
C1064 C 0.42359 0.54555 0.28168 0.0
C1065 C 0.43605 0.55184 0.2463 0.0
C1066 C 0.45382 0.56077 0.25766 0.0
C1067 C 0.45906 0.563 0.30326 0.0
H1068 H 0.12879 0.5701 0.83844 0.0
H1069 H 0.0766 0.52586 0.83861 0.0
H1070 H 0.13003 0.56803 0.75506 0.0
H1071 H 0.07805 0.52314 0.75623 0.0
H1072 H 0.07362 0.53652 0.61301 0.0
H1073 H 0.07628 0.5397 0.69546 0.0
H1074 H 0.13016 0.55253 0.68664 0.0
H1075 H 0.12757 0.55008 0.60299 0.0
C1076 C 0.11786 0.55956 0.82074 0.0
C1077 C 0.10255 0.5482 0.84461 0.0
C1078 C 0.11852 0.5584 0.77303 0.0
C1079 C 0.10394 0.54574 0.74877 0.0
C1080 C 0.08928 0.53346 0.77356 0.0
C1081 C 0.0885 0.53483 0.82083 0.0
C1082 C 0.08611 0.54029 0.62865 0.0
C1083 C 0.10036 0.54298 0.60185 0.0
C1084 C 0.0876 0.54189 0.67598 0.0
C1085 C 0.10328 0.54582 0.69792 0.0
C1086 C 0.11787 0.54941 0.67087 0.0
C1087 C 0.11644 0.54808 0.62306 0.0
H1088 H 0.45795 0.56485 0.84856 0.0
H1089 H 0.40319 0.53128 0.82126 0.0
H1090 H 0.463 0.57303 0.76801 0.0
H1091 H 0.40775 0.54035 0.74156 0.0
H1092 H 0.42535 0.53856 0.59579 0.0
H1093 H 0.41829 0.53461 0.67673 0.0
H1094 H 0.46093 0.58669 0.70354 0.0
H1095 H 0.46862 0.58997 0.62269 0.0
C1096 C 0.44692 0.55971 0.82545 0.0
C1097 C 0.43024 0.54736 0.84077 0.0
C1098 C 0.44974 0.56442 0.77918 0.0
C1099 C 0.43582 0.55717 0.74757 0.0
C1100 C 0.41892 0.54579 0.76416 0.0
C1101 C 0.41623 0.54073 0.81001 0.0
C1102 C 0.43302 0.54923 0.61899 0.0
C1103 C 0.44757 0.5645 0.60312 0.0
C1104 C 0.42894 0.54705 0.66559 0.0
C1105 C 0.43909 0.56029 0.69733 0.0
C1106 C 0.45306 0.576 0.68066 0.0
C1107 C 0.45738 0.57799 0.6342 0.0
H1108 H 0.42616 0.88789 0.8461 0.0
H1109 H 0.4691 0.87961 0.81584 0.0
H1110 H 0.41801 0.88398 0.76553 0.0
H1111 H 0.46033 0.8743 0.73602 0.0
H1112 H 0.45569 0.8904 0.59059 0.0
H1113 H 0.46162 0.8891 0.67115 0.0
H1114 H 0.40671 0.86713 0.70149 0.0
H1115 H 0.4012 0.86975 0.6211 0.0
C1116 C 0.43355 0.88476 0.82225 0.0
C1117 C 0.44833 0.88422 0.8369 0.0
C1118 C 0.42885 0.88239 0.77596 0.0
C1119 C 0.43859 0.87897 0.74356 0.0
C1120 C 0.45279 0.87744 0.75925 0.0
C1121 C 0.45775 0.88031 0.80517 0.0
C1122 C 0.44488 0.88502 0.61449 0.0
C1123 C 0.42802 0.88025 0.59975 0.0
C1124 C 0.44823 0.88419 0.66088 0.0
C1125 C 0.43469 0.87814 0.69353 0.0
C1126 C 0.4176 0.87233 0.67794 0.0
C1127 C 0.41436 0.87361 0.63172 0.0
H1128 H 0.22728 0.44472 0.24871 0.0
H1129 H 0.17736 0.43828 0.20981 0.0
H1130 H 0.23528 0.44659 0.16797 0.0
H1131 H 0.18522 0.4399 0.12943 0.0
H1132 H 0.20801 0.45093 0.98501 0.0
H1133 H 0.20446 0.45699 0.06504 0.0
H1134 H 0.22417 0.42363 0.10959 0.0
H1135 H 0.22777 0.41774 0.0306 0.0
C1136 C 0.21818 0.44407 0.22299 0.0
C1137 C 0.20163 0.44114 0.23553 0.0
C1138 C 0.2227 0.44503 0.17677 0.0
C1139 C 0.21078 0.44315 0.14229 0.0
C1140 C 0.19473 0.44148 0.15506 0.0
C1141 C 0.19019 0.44045 0.20117 0.0
C1142 C 0.21164 0.445 0.01203 0.0
C1143 C 0.21804 0.43377 1.00153 0.0
C1144 C 0.20962 0.44846 0.05776 0.0
C1145 C 0.21417 0.44089 0.09367 0.0
C1146 C 0.22086 0.42994 0.08288 0.0
C1147 C 0.22273 0.4264 0.03747 0.0
H1148 H 0.57096 0.76456 0.98432 0.0
H1149 H 0.52493 0.7692 0.9961 0.0
H1150 H 0.57053 0.75986 0.06641 0.0
H1151 H 0.52504 0.76568 0.07894 0.0
H1152 H 0.52613 0.75052 0.22941 0.0
H1153 H 0.52226 0.74969 0.1462 0.0
H1154 H 0.57831 0.77811 0.12918 0.0
H1155 H 0.58196 0.77801 0.21122 0.0
C1156 C 0.56059 0.76431 0.00457 0.0
C1157 C 0.54801 0.76724 0.98405 0.0
C1158 C 0.56046 0.7619 0.05176 0.0
C1159 C 0.54808 0.76295 0.07978 0.0
C1160 C 0.53478 0.76476 0.05868 0.0
C1161 C 0.53467 0.76674 0.01115 0.0
C1162 C 0.53754 0.75665 0.2076 0.0
C1163 C 0.55433 0.76423 0.22657 0.0
C1164 C 0.53536 0.75617 0.15995 0.0
C1165 C 0.54996 0.76349 0.1306 0.0
C1166 C 0.56672 0.77173 0.15024 0.0
C1167 C 0.56885 0.7719 0.19745 0.0
H1168 H 0.2411 0.81274 0.20042 0.0
H1169 H 0.20339 0.75994 0.23848 0.0
H1170 H 0.23582 0.80481 0.11982 0.0
H1171 H 0.19806 0.75198 0.15743 0.0
H1172 H 0.17533 0.75587 0.01666 0.0
H1173 H 0.1838 0.76073 0.09674 0.0
H1174 H 0.23807 0.78616 0.05759 0.0
H1175 H 0.22953 0.78119 0.97667 0.0
C1176 C 0.23185 0.79936 0.19152 0.0
C1177 C 0.22253 0.78698 0.22569 0.0
C1178 C 0.22893 0.7948 0.14534 0.0
C1179 C 0.21647 0.77781 0.13232 0.0
C1180 C 0.20764 0.76522 0.16653 0.0
C1181 C 0.21073 0.76974 0.21285 0.0
C1182 C 0.18909 0.76244 0.02501 0.0
C1183 C 0.20179 0.76828 0.99036 0.0
C1184 C 0.19392 0.76505 0.07097 0.0
C1185 C 0.21158 0.77374 0.08346 0.0
C1186 C 0.22434 0.77946 0.04888 0.0
C1187 C 0.21948 0.77662 0.00267 0.0
H1188 H 0.14666 0.18789 0.33022 0.0
H1189 H 0.18541 0.23501 0.26357 0.0
H1190 H 0.16318 0.17366 0.31042 0.0
H1191 H 0.20174 0.22057 0.24239 0.0
H1192 H 0.23265 0.19128 0.24336 0.0
H1193 H 0.21864 0.2075 0.26956 0.0
H1194 H 0.16814 0.16301 0.23943 0.0
H1195 H 0.18206 0.14675 0.21463 0.0
C1196 C 0.15881 0.19524 0.31166 0.0
C1197 C 0.16471 0.21247 0.29805 0.0
C1198 C 0.16819 0.18706 0.29998 0.0
C1199 C 0.18357 0.19589 0.27404 0.0
C1200 C 0.18996 0.21345 0.26249 0.0
C1201 C 0.18061 0.2217 0.27455 0.0
C1202 C 0.21856 0.18506 0.24212 0.0
C1203 C 0.20841 0.16776 0.22723 0.0
C1204 C 0.21056 0.19433 0.25706 0.0
C1205 C 0.19229 0.18644 0.25717 0.0
C1206 C 0.18222 0.1693 0.24089 0.0
C1207 C 0.19019 0.16004 0.22626 0.0
H1208 H 0.80592 0.957 0.29966 0.0
H1209 H 0.75621 0.95178 0.26388 0.0
H1210 H 0.82062 0.98737 0.27594 0.0
H1211 H 0.77097 0.98207 0.23842 0.0
H1212 H 0.80299 0.04213 0.24373 0.0
H1213 H 0.78689 0.01148 0.2655 0.0
H1214 H 0.82773 0.00421 0.2076 0.0
H1215 H 0.84408 0.03498 0.18754 0.0
C1216 C 0.79815 0.96237 0.28663 0.0
C1217 C 0.77995 0.95208 0.28357 0.0
C1218 C 0.80658 0.97972 0.27261 0.0
C1219 C 0.79699 0.9871 0.25472 0.0
C1220 C 0.77872 0.97684 0.25237 0.0
C1221 C 0.77027 0.95949 0.26686 0.0
C1222 C 0.8084 0.03391 0.23526 0.0
C1223 C 0.82481 0.04091 0.21428 0.0
C1224 C 0.79917 0.01634 0.24761 0.0
C1225 C 0.80612 0.00544 0.2388 0.0
C1226 C 0.82221 0.01235 0.21591 0.0
C1227 C 0.8315 0.02993 0.20404 0.0
H1228 H 0.95306 0.75754 0.22572 0.0
H1229 H 0.95707 0.80568 0.1792 0.0
H1230 H 0.98405 0.7733 0.24601 0.0
H1231 H 0.9879 0.82127 0.19888 0.0
H1232 H 0.03057 0.84505 0.30607 0.0
H1233 H 0.00115 0.82744 0.27704 0.0
H1234 H 0.01537 0.79207 0.21512 0.0
H1235 H 0.04519 0.80986 0.2446 0.0
C1236 C 0.96064 0.7714 0.21901 0.0
C1237 C 0.95265 0.78046 0.20158 0.0
C1238 C 0.97834 0.78038 0.23046 0.0
C1239 C 0.98823 0.79851 0.22467 0.0
C1240 C 0.98045 0.80733 0.2045 0.0
C1241 C 0.96283 0.7984 0.19312 0.0
C1242 C 0.02747 0.83349 0.28646 0.0
C1243 C 0.04018 0.82886 0.27741 0.0
C1244 C 0.01065 0.82349 0.26952 0.0
C1245 C 0.0061 0.80858 0.24322 0.0
C1246 C 0.01861 0.80356 0.23523 0.0
C1247 C 0.0356 0.8137 0.25205 0.0
H1248 H 0.80116 0.75819 0.73276 0.0
H1249 H 0.84454 0.80928 0.70209 0.0
H1250 H 0.78424 0.77135 0.75908 0.0
H1251 H 0.82749 0.82242 0.72678 0.0
H1252 H 0.80091 0.84245 0.81867 0.0
H1253 H 0.81667 0.82769 0.79617 0.0
H1254 H 0.76981 0.78664 0.7337 0.0
H1255 H 0.75392 0.80115 0.75776 0.0
C1256 C 0.80697 0.77221 0.73102 0.0
C1257 C 0.82416 0.78273 0.71555 0.0
C1258 C 0.79728 0.77976 0.74601 0.0
C1259 C 0.80458 0.79795 0.74549 0.0
C1260 C 0.82162 0.80839 0.72868 0.0
C1261 C 0.83134 0.80087 0.7141 0.0
C1262 C 0.79394 0.83016 0.80063 0.0
C1263 C 0.77623 0.82296 0.7898 0.0
C1264 C 0.803 0.82178 0.78735 0.0
C1265 C 0.79457 0.80612 0.7625 0.0
C1266 C 0.77667 0.79862 0.75306 0.0
C1267 C 0.76757 0.80694 0.76675 0.0
H1268 H 0.18496 0.04239 0.75771 0.0
H1269 H 0.22656 0.03608 0.70166 0.0
H1270 H 0.17002 0.01231 0.78303 0.0
H1271 H 0.2111 0.00546 0.7247 0.0
H1272 H 0.18664 0.95559 0.8095 0.0
H1273 H 0.20273 0.9864 0.78829 0.0
H1274 H 0.15405 0.98414 0.75483 0.0
H1275 H 0.13816 0.95389 0.77834 0.0
C1276 C 0.19074 0.03442 0.75008 0.0
C1277 C 0.20682 0.04146 0.72744 0.0
C1278 C 0.18215 0.01714 0.76446 0.0
C1279 C 0.18927 0.00637 0.75566 0.0
C1280 C 0.20536 0.01344 0.73267 0.0
C1281 C 0.21414 0.03089 0.71903 0.0
C1282 C 0.17947 0.96183 0.7981 0.0
C1283 C 0.16119 0.95247 0.79592 0.0
C1284 C 0.18865 0.9794 0.78551 0.0
C1285 C 0.1797 0.9878 0.76986 0.0
C1286 C 0.16139 0.97828 0.76769 0.0
C1287 C 0.15225 0.96088 0.781 0.0
H1288 H 0.95634 0.14542 0.71767 0.0
H1289 H 0.95498 0.19342 0.71127 0.0
H1290 H 0.98759 0.16179 0.72975 0.0
H1291 H 0.98664 0.21001 0.72243 0.0
H1292 H 0.03912 0.22834 0.80376 0.0
H1293 H 0.00832 0.21533 0.78276 0.0
H1294 H 0.01395 0.18088 0.68864 0.0
H1295 H 0.04435 0.19341 0.71069 0.0
C1296 C 0.96277 0.15951 0.7184 0.0
C1297 C 0.95325 0.16815 0.71346 0.0
C1298 C 0.98072 0.16892 0.72499 0.0
C1299 C 0.98961 0.18721 0.72655 0.0
C1300 C 0.98011 0.19592 0.72155 0.0
C1301 C 0.96204 0.18645 0.71499 0.0
C1302 C 0.03376 0.21815 0.77816 0.0
C1303 C 0.04394 0.21163 0.75942 0.0
C1304 C 0.01619 0.21076 0.76599 0.0
C1305 C 0.00867 0.19688 0.73467 0.0
C1306 C 0.01926 0.19125 0.71376 0.0
C1307 C 0.03667 0.19846 0.72625 0.0
H1308 H 0.81102 0.51847 0.65035 0.0
H1309 H 0.85309 0.56745 0.60054 0.0
H1310 H 0.82724 0.50409 0.62889 0.0
H1311 H 0.86912 0.55295 0.57735 0.0
H1312 H 0.89887 0.52283 0.57688 0.0
H1313 H 0.88433 0.53844 0.60345 0.0
H1314 H 0.83478 0.49559 0.55904 0.0
H1315 H 0.84921 0.47982 0.53418 0.0
C1316 C 0.82378 0.52616 0.63492 0.0
C1317 C 0.83079 0.54402 0.62683 0.0
C1318 C 0.83301 0.51791 0.62226 0.0
C1319 C 0.84934 0.52732 0.60072 0.0
C1320 C 0.85662 0.54535 0.59413 0.0
C1321 C 0.84744 0.55365 0.60728 0.0
C1322 C 0.88488 0.51684 0.57263 0.0
C1323 C 0.87512 0.50011 0.55371 0.0
C1324 C 0.87657 0.52578 0.58774 0.0
C1325 C 0.85838 0.51817 0.58382 0.0
C1326 C 0.84875 0.50163 0.56362 0.0
C1327 C 0.85702 0.49266 0.54897 0.0
H1328 H 0.42612 0.28248 0.63598 0.0
H1329 H 0.45853 0.27672 0.5352 0.0
H1330 H 0.43861 0.31314 0.61436 0.0
H1331 H 0.4705 0.30697 0.51256 0.0
H1332 H 0.5071 0.36456 0.5402 0.0
H1333 H 0.49073 0.33331 0.5518 0.0
H1334 H 0.44268 0.33476 0.55512 0.0
H1335 H 0.45929 0.36642 0.54445 0.0
C1336 C 0.4356 0.28768 0.60854 0.0
C1337 C 0.44164 0.27742 0.58779 0.0
C1338 C 0.44269 0.30517 0.59602 0.0
C1339 C 0.45577 0.31252 0.56234 0.0
C1340 C 0.46079 0.3018 0.53945 0.0
C1341 C 0.45389 0.28447 0.55228 0.0
C1342 C 0.49304 0.35824 0.5431 0.0
C1343 C 0.48446 0.3679 0.5414 0.0
C1344 C 0.48363 0.34029 0.54941 0.0
C1345 C 0.46539 0.33154 0.55392 0.0
C1346 C 0.45674 0.34118 0.55193 0.0
C1347 C 0.46622 0.35924 0.54564 0.0
H1348 H 0.61703 0.09289 0.54149 0.0
H1349 H 0.61488 0.1384 0.58442 0.0
H1350 H 0.6483 0.10799 0.55801 0.0
H1351 H 0.64572 0.15315 0.60259 0.0
H1352 H 0.7036 0.18207 0.5835 0.0
H1353 H 0.67285 0.16596 0.56425 0.0
H1354 H 0.66914 0.11903 0.61999 0.0
H1355 H 0.70033 0.13518 0.63758 0.0
C1356 C 0.62324 0.10607 0.55462 0.0
C1357 C 0.61363 0.11456 0.5613 0.0
C1358 C 0.64109 0.11467 0.56439 0.0
C1359 C 0.64952 0.13181 0.58134 0.0
C1360 C 0.63974 0.14011 0.58859 0.0
C1361 C 0.62203 0.13162 0.57838 0.0
C1362 C 0.69622 0.16832 0.59171 0.0
C1363 C 0.70427 0.15988 0.61237 0.0
C1364 C 0.67857 0.15909 0.58086 0.0
C1365 C 0.66848 0.14125 0.59107 0.0
C1366 C 0.67659 0.13273 0.61133 0.0
C1367 C 0.69439 0.14197 0.6217 0.0
H1368 H 0.47224 0.18361 0.11097 0.0
H1369 H 0.42324 0.13606 0.13182 0.0
H1370 H 0.48629 0.16685 0.09391 0.0
H1371 H 0.43756 0.11907 0.11665 0.0
H1372 H 0.46595 0.09574 0.03504 0.0
H1373 H 0.45038 0.11107 0.0557 0.0
H1374 H 0.49589 0.14938 0.1292 0.0
H1375 H 0.51153 0.13463 0.10668 0.0
C1376 C 0.46453 0.16953 0.11265 0.0
C1377 C 0.44668 0.16112 0.12288 0.0
C1378 C 0.47261 0.15989 0.1031 0.0
C1379 C 0.4631 0.14159 0.10426 0.0
C1380 C 0.44522 0.13314 0.11499 0.0
C1381 C 0.43705 0.14284 0.12402 0.0
C1382 C 0.47254 0.10746 0.05557 0.0
C1383 C 0.48998 0.11419 0.0687 0.0
C1384 C 0.46361 0.11615 0.06772 0.0
C1385 C 0.47195 0.13156 0.09372 0.0
C1386 C 0.48921 0.13783 0.10814 0.0
C1387 C 0.49817 0.12934 0.09539 0.0
H1388 H 0.85079 0.3738 0.07601 0.0
H1389 H 0.89442 0.3694 0.02682 0.0
H1390 H 0.83554 0.34319 0.09659 0.0
H1391 H 0.87879 0.33836 0.04572 0.0
H1392 H 0.85267 0.2878 0.13029 0.0
H1393 H 0.86889 0.31865 0.10965 0.0
H1394 H 0.8211 0.31539 0.06219 0.0
H1395 H 0.80494 0.28496 0.08456 0.0
C1396 C 0.85702 0.36619 0.06904 0.0
C1397 C 0.87374 0.37392 0.04964 0.0
C1398 C 0.84824 0.34861 0.08064 0.0
C1399 C 0.85588 0.33828 0.07252 0.0
C1400 C 0.87263 0.34601 0.05292 0.0
C1401 C 0.88152 0.36372 0.04177 0.0
C1402 C 0.84569 0.29377 0.11561 0.0
C1403 C 0.82756 0.2841 0.1094 0.0
C1404 C 0.85497 0.31137 0.10345 0.0
C1405 C 0.84628 0.31951 0.08446 0.0
C1406 C 0.82816 0.30965 0.07765 0.0
C1407 C 0.8189 0.29218 0.09029 0.0
H1408 H 0.70296 0.56469 0.10055 0.0
H1409 H 0.69651 0.51521 0.1438 0.0
H1410 H 0.67255 0.55015 0.07589 0.0
H1411 H 0.66604 0.50077 0.12096 0.0
H1412 H 0.61247 0.51932 0.07706 0.0
H1413 H 0.64287 0.53507 0.10171 0.0
H1414 H 0.6497 0.49294 0.0519 0.0
H1415 H 0.61922 0.477 0.02903 0.0
C1416 C 0.69494 0.55075 0.10546 0.0
C1417 C 0.70206 0.54104 0.12379 0.0
C1418 C 0.67753 0.54242 0.09145 0.0
C1419 C 0.66692 0.52426 0.09594 0.0
C1420 C 0.67396 0.51471 0.11591 0.0
C1421 C 0.69137 0.52299 0.1294 0.0
C1422 C 0.62055 0.51353 0.07112 0.0
C1423 C 0.61352 0.49693 0.05143 0.0
C1424 C 0.63796 0.52256 0.08512 0.0
C1425 C 0.64866 0.51517 0.07927 0.0
C1426 C 0.64171 0.49881 0.05798 0.0
C1427 C 0.62429 0.48974 0.04449 0.0
H1428 H 0.52253 0.89681 0.96053 0.0
H1429 H 0.47415 0.8477 0.9559 0.0
H1430 H 0.53878 0.88152 0.94834 0.0
H1431 H 0.49016 0.83257 0.94232 0.0
H1432 H 0.52163 0.8069 0.95478 0.0
H1433 H 0.50895 0.82439 0.97871 0.0
H1434 H 0.5441 0.86583 0.88841 0.0
H1435 H 0.55733 0.84844 0.86589 0.0
C1436 C 0.5154 0.88277 0.95703 0.0
C1437 C 0.4971 0.87342 0.95927 0.0
C1438 C 0.52467 0.87403 0.9498 0.0
C1439 C 0.51578 0.85582 0.94457 0.0
C1440 C 0.49747 0.84656 0.94719 0.0
C1441 C 0.48826 0.85524 0.95467 0.0
C1442 C 0.52678 0.81983 0.94043 0.0
C1443 C 0.54028 0.82627 0.90807 0.0
C1444 C 0.51946 0.82982 0.95396 0.0
C1445 C 0.52529 0.84637 0.93482 0.0
C1446 C 0.53938 0.85316 0.90397 0.0
C1447 C 0.54689 0.8432 0.89088 0.0
H1448 H 0.09301 0.61776 0.95534 0.0
H1449 H 0.13615 0.61529 0.89439 0.0
H1450 H 0.10661 0.64855 0.934 0.0
H1451 H 0.14936 0.64564 0.87176 0.0
H1452 H 0.17932 0.70363 0.89697 0.0
H1453 H 0.16375 0.67261 0.91261 0.0
H1454 H 0.11544 0.66944 0.87075 0.0
H1455 H 0.1311 0.70087 0.85628 0.0
C1456 C 0.10525 0.62374 0.93682 0.0
C1457 C 0.11369 0.61429 0.9271 0.0
C1458 C 0.11298 0.6413 0.92441 0.0
C1459 C 0.12918 0.64957 0.90178 0.0
C1460 C 0.1371 0.63977 0.89019 0.0
C1461 C 0.1295 0.62237 0.90297 0.0
C1462 C 0.16539 0.69633 0.89092 0.0
C1463 C 0.15642 0.70462 0.87524 0.0
C1464 C 0.15647 0.67852 0.89963 0.0
C1465 C 0.13839 0.66853 0.89245 0.0
C1466 C 0.12936 0.67682 0.87685 0.0
C1467 C 0.13832 0.69476 0.86835 0.0
H1468 H 0.28429 0.47259 0.8731 0.0
H1469 H 0.27964 0.42346 0.91228 0.0
H1470 H 0.31495 0.48762 0.89427 0.0
H1471 H 0.31027 0.43857 0.93506 0.0
H1472 H 0.37031 0.4707 0.92561 0.0
H1473 H 0.33948 0.45437 0.90525 0.0
H1474 H 0.33235 0.49541 0.962 0.0
H1475 H 0.36325 0.51194 0.98078 0.0
C1476 C 0.28985 0.46502 0.8863 0.0
C1477 C 0.27962 0.44688 0.89112 0.0
C1478 C 0.30737 0.47364 0.89883 0.0
C1479 C 0.315 0.46432 0.9169 0.0
C1480 C 0.30482 0.44611 0.92093 0.0
C1481 C 0.28729 0.43746 0.90799 0.0
C1482 C 0.36208 0.47612 0.93406 0.0
C1483 C 0.36914 0.49262 0.95446 0.0
C1484 C 0.34443 0.46676 0.92253 0.0
C1485 C 0.3335 0.47368 0.93153 0.0
C1486 C 0.3405 0.4899 0.9536 0.0
C1487 C 0.35816 0.49931 0.96473 0.0
H1488 H 0.13184 0.50698 0.50886 0.0
H1489 H 0.08613 0.4707 0.4328 0.0
H1490 H 0.14559 0.48979 0.49125 0.0
H1491 H 0.10009 0.45374 0.41396 0.0
H1492 H 0.1737 0.47292 0.39166 0.0
H1493 H 0.15754 0.48649 0.41987 0.0
H1494 H 0.11213 0.43569 0.44042 0.0
H1495 H 0.1283 0.42205 0.41101 0.0
C1496 C 0.12464 0.49518 0.48895 0.0
C1497 C 0.10804 0.49026 0.47167 0.0
C1498 C 0.13255 0.48541 0.47857 0.0
C1499 C 0.12407 0.47066 0.45034 0.0
C1500 C 0.10694 0.46504 0.43581 0.0
C1501 C 0.09896 0.47476 0.44654 0.0
C1502 C 0.16025 0.46464 0.40201 0.0
C1503 C 0.15223 0.44645 0.39915 0.0
C1504 C 0.15104 0.4724 0.41865 0.0
C1505 C 0.13365 0.46214 0.43305 0.0
C1506 C 0.12551 0.44392 0.4295 0.0
C1507 C 0.13475 0.43613 0.41266 0.0
H1508 H 0.52072 0.61715 0.43128 0.0
H1509 H 0.47609 0.62373 0.45275 0.0
H1510 H 0.53747 0.64716 0.40357 0.0
H1511 H 0.49286 0.65369 0.42643 0.0
H1512 H 0.51911 0.6996 0.33504 0.0
H1513 H 0.50452 0.66887 0.35538 0.0
H1514 H 0.55045 0.67735 0.42892 0.0
H1515 H 0.56526 0.70808 0.4072 0.0
C1516 C 0.51458 0.62508 0.43059 0.0
C1517 C 0.4971 0.61813 0.44394 0.0
C1518 C 0.52416 0.64224 0.41476 0.0
C1519 C 0.5164 0.6527 0.41217 0.0
C1520 C 0.49907 0.64582 0.42686 0.0
C1521 C 0.48951 0.62872 0.44239 0.0
C1522 C 0.52618 0.69483 0.35487 0.0
C1523 C 0.54322 0.7062 0.36994 0.0
C1524 C 0.51779 0.67728 0.36686 0.0
C1525 C 0.52621 0.67078 0.3946 0.0
C1526 C 0.54364 0.68196 0.40745 0.0
C1527 C 0.55211 0.69955 0.39507 0.0
H1528 H 0.37025 0.89877 0.43005 0.0
H1529 H 0.36292 0.848 0.4626 0.0
H1530 H 0.33992 0.88527 0.40523 0.0
H1531 H 0.33253 0.83456 0.43937 0.0
H1532 H 0.28551 0.81377 0.3485 0.0
H1533 H 0.31614 0.82883 0.37025 0.0
H1534 H 0.31025 0.86989 0.43201 0.0
H1535 H 0.2797 0.85506 0.40875 0.0
C1536 C 0.36207 0.88475 0.43251 0.0
C1537 C 0.36892 0.87441 0.44802 0.0
C1538 C 0.34471 0.87702 0.41839 0.0
C1539 C 0.33386 0.85882 0.41983 0.0
C1540 C 0.34064 0.84858 0.43675 0.0
C1541 C 0.358 0.85628 0.45048 0.0
C1542 C 0.29083 0.82611 0.36626 0.0
C1543 C 0.28025 0.83323 0.37709 0.0
C1544 C 0.30833 0.83467 0.3791 0.0
C1545 C 0.31558 0.85043 0.40348 0.0
C1546 C 0.3051 0.85783 0.41301 0.0
C1547 C 0.28761 0.84932 0.39978 0.0
H1548 H 0.28201 0.13135 0.20307 0.0
H1549 H 0.28951 0.17972 0.14704 0.0
H1550 H 0.31227 0.14039 0.18678 0.0
H1551 H 0.31982 0.18862 0.12929 0.0
H1552 H 0.37779 0.20555 0.15539 0.0
H1553 H 0.34736 0.19748 0.1664 0.0
H1554 H 0.33123 0.14488 0.12366 0.0
H1555 H 0.36165 0.15284 0.1142 0.0
C1556 C 0.29013 0.1439 0.187 0.0
C1557 C 0.28343 0.15484 0.17632 0.0
C1558 C 0.30745 0.14902 0.17729 0.0
C1559 C 0.31844 0.16516 0.15633 0.0
C1560 C 0.31173 0.17617 0.1458 0.0
C1561 C 0.29439 0.17106 0.15581 0.0
C1562 C 0.36771 0.19231 0.14799 0.0
C1563 C 0.37206 0.17977 0.13434 0.0
C1564 C 0.35028 0.1877 0.15409 0.0
C1565 C 0.33687 0.17048 0.14636 0.0
C1566 C 0.34126 0.15815 0.13089 0.0
C1567 C 0.35867 0.16273 0.12516 0.0
H1568 H 0.79066 0.17324 0.13827 0.0
H1569 H 0.84041 0.214 0.18782 0.0
H1570 H 0.79969 0.15183 0.1517 0.0
H1571 H 0.84925 0.19249 0.20328 0.0
H1572 H 0.86645 0.1526 0.17585 0.0
H1573 H 0.85758 0.17428 0.16543 0.0
H1574 H 0.80538 0.13676 0.20962 0.0
H1575 H 0.81416 0.11486 0.21801 0.0
C1576 C 0.80349 0.17758 0.15243 0.0
C1577 C 0.81487 0.19527 0.16185 0.0
C1578 C 0.80863 0.16529 0.16051 0.0
C1579 C 0.82519 0.17039 0.17875 0.0
C1580 C 0.83651 0.18812 0.18854 0.0
C1581 C 0.83143 0.20044 0.1799 0.0
C1582 C 0.8531 0.14903 0.18352 0.0
C1583 C 0.84096 0.13204 0.19755 0.0
C1584 C 0.84803 0.16149 0.17783 0.0
C1585 C 0.83074 0.1573 0.18657 0.0
C1586 C 0.81871 0.14037 0.20171 0.0
C1587 C 0.82375 0.12784 0.20686 0.0
H1588 H 0.81384 0.60929 0.18297 0.0
H1589 H 0.77786 0.62681 0.14673 0.0
H1590 H 0.83672 0.63935 0.19512 0.0
H1591 H 0.8009 0.65695 0.15693 0.0
H1592 H 0.84069 0.70805 0.22005 0.0
H1593 H 0.81796 0.67763 0.21339 0.0
H1594 H 0.85535 0.66532 0.15488 0.0
H1595 H 0.8782 0.69564 0.16346 0.0
C1596 C 0.81088 0.61961 0.17728 0.0
C1597 C 0.79409 0.61574 0.16393 0.0
C1598 C 0.82402 0.63685 0.18398 0.0
C1599 C 0.8207 0.65062 0.17698 0.0
C1600 C 0.80386 0.64669 0.16346 0.0
C1601 C 0.79067 0.62942 0.15727 0.0
C1602 C 0.84405 0.69879 0.20609 0.0
C1603 C 0.86118 0.70418 0.19223 0.0
C1604 C 0.831 0.68138 0.20191 0.0
C1605 C 0.83476 0.66901 0.18326 0.0
C1606 C 0.85201 0.67442 0.16997 0.0
C1607 C 0.8651 0.69181 0.17466 0.0
H1608 H 0.14079 0.36526 0.31453 0.0
H1609 H 0.19069 0.37439 0.36344 0.0
H1610 H 0.13231 0.3351 0.29707 0.0
H1611 H 0.18205 0.34421 0.34776 0.0
H1612 H 0.16914 0.29424 0.27862 0.0
H1613 H 0.17679 0.32458 0.28672 0.0
H1614 H 0.12451 0.30811 0.33385 0.0
H1615 H 0.11672 0.27775 0.32389 0.0
C1616 C 0.14988 0.36076 0.32181 0.0
C1617 C 0.16639 0.37213 0.34027 0.0
C1618 C 0.14501 0.34349 0.31199 0.0
C1619 C 0.15652 0.33724 0.32081 0.0
C1620 C 0.173 0.34866 0.33958 0.0
C1621 C 0.17791 0.36593 0.34896 0.0
C1622 C 0.15925 0.29714 0.2902 0.0
C1623 C 0.14238 0.28368 0.30086 0.0
C1624 C 0.16365 0.31451 0.29519 0.0
C1625 C 0.15134 0.3188 0.31153 0.0
C1626 C 0.13428 0.30529 0.32078 0.0
C1627 C 0.12982 0.2879 0.31527 0.0
H1628 H 0.60877 0.81977 0.35081 0.0
H1629 H 0.62479 0.783 0.39094 0.0
H1630 H 0.63926 0.84234 0.342 0.0
H1631 H 0.65524 0.80565 0.38391 0.0
H1632 H 0.69696 0.88249 0.36282 0.0
H1633 H 0.66657 0.86095 0.37939 0.0
H1634 H 0.67469 0.82053 0.32261 0.0
H1635 H 0.70501 0.84187 0.30769 0.0
C1636 C 0.61883 0.81662 0.35855 0.0
C1637 C 0.61445 0.79962 0.37112 0.0
C1638 C 0.6363 0.82956 0.3537 0.0
C1639 C 0.64971 0.82576 0.36172 0.0
C1640 C 0.64524 0.80892 0.37638 0.0
C1641 C 0.62781 0.79596 0.38074 0.0
C1642 C 0.69219 0.86899 0.35399 0.0
C1643 C 0.70333 0.86383 0.33409 0.0
C1644 C 0.67479 0.85666 0.36332 0.0
C1645 C 0.66821 0.83898 0.35265 0.0
C1646 C 0.67939 0.83395 0.33228 0.0
C1647 C 0.69676 0.84621 0.32333 0.0
H1648 H 0.20841 0.84694 0.34311 0.0
H1649 H 0.16773 0.79419 0.37123 0.0
H1650 H 0.18655 0.85579 0.33521 0.0
H1651 H 0.14586 0.80311 0.36457 0.0
H1652 H 0.14499 0.86959 0.3691 0.0
H1653 H 0.16626 0.86017 0.37962 0.0
H1654 H 0.13251 0.8124 0.30731 0.0
H1655 H 0.11095 0.82168 0.2979 0.0
C1656 C 0.1948 0.83728 0.34804 0.0
C1657 C 0.18977 0.81988 0.35776 0.0
C1658 C 0.18227 0.84235 0.34373 0.0
C1659 C 0.16444 0.83016 0.34925 0.0
C1660 C 0.15945 0.81278 0.35945 0.0
C1661 C 0.17199 0.80769 0.3636 0.0
C1662 C 0.14209 0.85706 0.35552 0.0
C1663 C 0.12633 0.84638 0.33256 0.0
C1664 C 0.15433 0.8517 0.36133 0.0
C1665 C 0.15114 0.83557 0.34411 0.0
C1666 C 0.13528 0.82481 0.32146 0.0
C1667 C 0.12298 0.83016 0.31582 0.0
H1668 H 0.6903 0.80879 0.82261 0.0
H1669 H 0.70245 0.86136 0.79204 0.0
H1670 H 0.65952 0.79992 0.82973 0.0
H1671 H 0.67163 0.85242 0.7979 0.0
H1672 H 0.61881 0.83472 0.86703 0.0
H1673 H 0.64947 0.84371 0.85594 0.0
H1674 H 0.63447 0.79525 0.78615 0.0
H1675 H 0.60384 0.7861 0.79839 0.0
C1676 C 0.68635 0.8184 0.81693 0.0
C1677 C 0.69876 0.83577 0.80693 0.0
C1678 C 0.66871 0.81331 0.82077 0.0
C1679 C 0.66311 0.82547 0.81449 0.0
C1680 C 0.67553 0.84279 0.80367 0.0
C1681 C 0.69318 0.84789 0.80002 0.0
C1682 C 0.62209 0.82603 0.84919 0.0
C1683 C 0.60895 0.80969 0.83372 0.0
C1684 C 0.63965 0.83121 0.84259 0.0
C1685 C 0.64443 0.82019 0.82019 0.0
C1686 C 0.63124 0.80394 0.80414 0.0
C1687 C 0.61369 0.79874 0.81091 0.0
H1688 H 0.19262 0.81311 0.80288 0.0
H1689 H 0.14173 0.77796 0.85893 0.0
H1690 H 0.18429 0.83515 0.79183 0.0
H1691 H 0.13356 0.80032 0.84989 0.0
H1692 H 0.11927 0.83938 0.79409 0.0
H1693 H 0.12681 0.81643 0.79698 0.0
H1694 H 0.17948 0.85451 0.83605 0.0
H1695 H 0.17209 0.87742 0.83114 0.0
C1696 C 0.17965 0.81014 0.81302 0.0
C1697 C 0.16784 0.79389 0.83198 0.0
C1698 C 0.1749 0.82281 0.80697 0.0
C1699 C 0.15831 0.81961 0.82041 0.0
C1700 C 0.14637 0.80318 0.83864 0.0
C1701 C 0.15106 0.79039 0.8441 0.0
C1702 C 0.13247 0.8428 0.80298 0.0
C1703 C 0.14511 0.86016 0.81231 0.0
C1704 C 0.13677 0.82965 0.80495 0.0
C1705 C 0.15376 0.83359 0.81678 0.0
C1706 C 0.16637 0.85101 0.82595 0.0
C1707 C 0.16212 0.86416 0.82344 0.0
H1708 H 0.16776 0.37244 0.86383 0.0
H1709 H 0.20979 0.36181 0.84225 0.0
H1710 H 0.14661 0.34154 0.85503 0.0
H1711 H 0.18864 0.33096 0.83228 0.0
H1712 H 0.14697 0.27509 0.86589 0.0
H1713 H 0.1679 0.30596 0.87601 0.0
H1714 H 0.13481 0.31906 0.79707 0.0
H1715 H 0.11366 0.28815 0.78797 0.0
C1716 C 0.17246 0.3635 0.857 0.0
C1717 C 0.19041 0.36951 0.85379 0.0
C1718 C 0.16035 0.34581 0.85168 0.0
C1719 C 0.16593 0.33378 0.84292 0.0
C1720 C 0.18391 0.33985 0.83965 0.0
C1721 C 0.19603 0.35753 0.8451 0.0
C1722 C 0.14416 0.28457 0.85079 0.0
C1723 C 0.12869 0.27923 0.82617 0.0
C1724 C 0.1562 0.30226 0.85633 0.0
C1725 C 0.15305 0.31498 0.83726 0.0
C1726 C 0.13753 0.3096 0.8127 0.0
C1727 C 0.12546 0.2919 0.80727 0.0
H1728 H 0.81433 0.7013 0.64281 0.0
H1729 H 0.86227 0.71068 0.70646 0.0
H1730 H 0.80563 0.67066 0.63267 0.0
H1731 H 0.85337 0.68007 0.69799 0.0
H1732 H 0.84125 0.62868 0.63557 0.0
H1733 H 0.84953 0.65926 0.64134 0.0
H1734 H 0.79627 0.64429 0.67472 0.0
H1735 H 0.78791 0.61369 0.66718 0.0
C1736 C 0.82294 0.69677 0.65489 0.0
C1737 C 0.83899 0.70834 0.67527 0.0
C1738 C 0.81793 0.67921 0.64932 0.0
C1739 C 0.82883 0.6729 0.66438 0.0
C1740 C 0.84481 0.68453 0.68515 0.0
C1741 C 0.84987 0.70206 0.69032 0.0
C1742 C 0.83132 0.63195 0.64399 0.0
C1743 C 0.81396 0.61884 0.65104 0.0
C1744 C 0.83607 0.64947 0.64758 0.0
C1745 C 0.82359 0.65425 0.65879 0.0
C1746 C 0.80617 0.64108 0.66545 0.0
C1747 C 0.80139 0.62355 0.66143 0.0
H1748 H 0.2942 0.11085 0.68172 0.0
H1749 H 0.28331 0.15274 0.70176 0.0
H1750 H 0.32503 0.1321 0.6706 0.0
H1751 H 0.31413 0.17396 0.69184 0.0
H1752 H 0.36649 0.20665 0.62017 0.0
H1753 H 0.3358 0.18523 0.63192 0.0
H1754 H 0.35054 0.15356 0.71158 0.0
H1755 H 0.38123 0.17478 0.6988 0.0
C1756 C 0.29843 0.1246 0.68412 0.0
C1757 C 0.28637 0.13015 0.69247 0.0
C1758 C 0.31609 0.13677 0.67798 0.0
C1759 C 0.32203 0.15473 0.6802 0.0
C1760 C 0.30994 0.16023 0.68916 0.0
C1761 C 0.2923 0.14808 0.69515 0.0
C1762 C 0.36316 0.19511 0.64017 0.0
C1763 C 0.37623 0.19237 0.65854 0.0
C1764 C 0.34558 0.18289 0.64715 0.0
C1765 C 0.34072 0.1677 0.67278 0.0
C1766 C 0.35384 0.165 0.69118 0.0
C1767 C 0.37142 0.17721 0.68409 0.0
H1768 H 0.84101 0.12866 0.71079 0.0
H1769 H 0.87952 0.17913 0.65915 0.0
H1770 H 0.81846 0.13646 0.70172 0.0
H1771 H 0.85685 0.18675 0.64825 0.0
H1772 H 0.81521 0.20122 0.6776 0.0
H1773 H 0.83788 0.19369 0.6889 0.0
H1774 H 0.80225 0.14105 0.64438 0.0
H1775 H 0.77939 0.14847 0.63489 0.0
C1776 C 0.84462 0.14141 0.69723 0.0
C1777 C 0.862 0.1533 0.68567 0.0
C1778 C 0.83168 0.14583 0.6917 0.0
C1779 C 0.83579 0.1622 0.67401 0.0
C1780 C 0.85324 0.17413 0.66257 0.0
C1781 C 0.86623 0.16975 0.66857 0.0
C1782 C 0.81224 0.18803 0.67031 0.0
C1783 C 0.79555 0.17541 0.65545 0.0
C1784 C 0.82526 0.18374 0.67649 0.0
C1785 C 0.82192 0.16677 0.6675 0.0
C1786 C 0.8052 0.15417 0.65238 0.0
C1787 C 0.79212 0.15843 0.64666 0.0
H1788 H 0.02973 0.48646 0.43863 0.0
H1789 H 0.04467 0.53936 0.47456 0.0
H1790 H -0.00089 0.47797 0.44634 0.0
H1791 H 0.01408 0.53078 0.4843 0.0
H1792 H 0.95636 0.51224 0.46803 0.0
H1793 H 0.98657 0.52127 0.44917 0.0
H1794 H 0.97968 0.47334 0.50716 0.0
H1795 H 0.9494 0.4641 0.5241 0.0
C1796 C 0.02643 0.49629 0.44798 0.0
C1797 C 0.03954 0.51354 0.45624 0.0
C1798 C 0.0089 0.49141 0.45279 0.0
C1799 C 0.00411 0.50363 0.46664 0.0
C1800 C 0.01726 0.52106 0.47319 0.0
C1801 C 0.0348 0.52598 0.46778 0.0
C1802 C 0.96135 0.50366 0.47661 0.0
C1803 C 0.95058 0.48748 0.49749 0.0
C1804 C 0.97866 0.50885 0.46597 0.0
C1805 C 0.98557 0.49801 0.47645 0.0
C1806 C 0.97472 0.48186 0.49763 0.0
C1807 C 0.9574 0.47661 0.50776 0.0
H1808 H 0.45356 0.50775 0.51402 0.0
H1809 H 0.50671 0.54347 0.47379 0.0
H1810 H 0.46086 0.48499 0.52603 0.0
H1811 H 0.51392 0.52049 0.48378 0.0
H1812 H 0.52547 0.48068 0.54701 0.0
H1813 H 0.51812 0.50361 0.53952 0.0
H1814 H 0.46759 0.46614 0.48528 0.0
H1815 H 0.47473 0.44312 0.49478 0.0
C1816 C 0.46679 0.51068 0.50745 0.0
C1817 C 0.47958 0.52735 0.49296 0.0
C1818 C 0.47096 0.4976 0.51403 0.0
C1819 C 0.48797 0.50084 0.50569 0.0
C1820 C 0.50076 0.51759 0.49124 0.0
C1821 C 0.49663 0.53074 0.48523 0.0
C1822 C 0.51277 0.47737 0.53369 0.0
C1823 C 0.50065 0.46014 0.52151 0.0
C1824 C 0.50859 0.49052 0.52907 0.0
C1825 C 0.49228 0.48677 0.51162 0.0
C1826 C 0.48016 0.46947 0.49955 0.0
C1827 C 0.48427 0.45628 0.50473 0.0
H1828 H 0.50208 0.04325 0.50663 0.0
H1829 H 0.53981 0.02782 0.54142 0.0
H1830 H 0.47999 0.01283 0.49522 0.0
H1831 H 0.51758 -0.00268 0.53159 0.0
H1832 H 0.47961 0.94679 0.4603 0.0
H1833 H 0.50138 0.97723 0.47219 0.0
H1834 H 0.46227 0.98603 0.53509 0.0
H1835 H 0.44033 0.95561 0.52165 0.0
C1836 C 0.5056 0.03332 0.51223 0.0
C1837 C 0.52267 0.03788 0.52475 0.0
C1838 C 0.49291 0.01588 0.50597 0.0
C1839 C 0.497 0.00261 0.51243 0.0
C1840 C 0.51406 0.00722 0.52556 0.0
C1841 C 0.52678 0.02468 0.53147 0.0
C1842 C 0.47566 0.95524 0.47659 0.0
C1843 C 0.45828 0.94886 0.49002 0.0
C1844 C 0.48817 0.97267 0.48373 0.0
C1845 C 0.48361 0.98408 0.50482 0.0
C1846 C 0.46618 0.97766 0.51822 0.0
C1847 C 0.45363 0.96022 0.51074 0.0
H1848 H 0.53072 0.0456 0.98771 0.0
H1849 H 0.47799 0.02773 0.03281 0.0
H1850 H 0.52327 0.01566 0.97257 0.0
H1851 H 0.47064 -0.00234 0.01946 0.0
H1852 H 0.45827 0.94699 0.9512 0.0
H1853 H 0.46598 0.9773 0.96071 0.0
H1854 H 0.51677 0.98956 0.01114 0.0
H1855 H 0.50923 0.95935 0.99981 0.0
C1856 C 0.51755 0.03523 0.99466 0.0
C1857 C 0.50492 0.03896 0.01146 0.0
C1858 C 0.5133 0.01805 0.98624 0.0
C1859 C 0.49637 0.00421 0.99489 0.0
C1860 C 0.48374 0.008 0.01168 0.0
C1861 C 0.48795 0.02521 0.01964 0.0
C1862 C 0.47113 0.95622 0.964 0.0
C1863 C 0.48316 0.95085 0.97478 0.0
C1864 C 0.4755 0.97356 0.9698 0.0
C1865 C 0.49196 0.98589 0.98699 0.0
C1866 C 0.50407 0.9805 0.99723 0.0
C1867 C 0.49974 0.96317 0.99095 0.0
H1868 H 0.9615 0.44671 0.04522 0.0
H1869 H 0.94853 0.48315 0.98439 0.0
H1870 H 0.9924 0.4685 0.04117 0.0
H1871 H 0.97937 0.50466 0.97807 0.0
H1872 H 0.03468 0.54559 0.01135 0.0
H1873 H 0.00398 0.52383 0.02071 0.0
H1874 H 0.01578 0.48309 0.99015 0.0
H1875 H 0.04654 0.50484 0.9832 0.0
C1876 C 0.9653 0.45934 0.03054 0.0
C1877 C 0.95267 0.46328 0.01519 0.0
C1878 C 0.98301 0.47181 0.02797 0.0
C1879 C 0.98846 0.4884 0.00933 0.0
C1880 C 0.97571 0.49219 0.99353 0.0
C1881 C 0.95802 0.47982 0.99678 0.0
C1882 C 0.03067 0.53196 0.00698 0.0
C1883 C 0.04295 0.52688 0.99661 0.0
C1884 C 0.01306 0.51948 0.01196 0.0
C1885 C 0.00731 0.50165 0.00592 0.0
C1886 C 0.01971 0.49663 0.99582 0.0
C1887 C 0.03735 0.50911 0.99156 0.0
H1888 H 0.54212 0.50791 0.9799 0.0
H1889 H 0.50192 0.45879 0.03437 0.0
H1890 H 0.52043 0.51657 0.96519 0.0
H1891 H 0.48031 0.46766 0.02147 0.0
H1892 H 0.44283 0.48159 0.95432 0.0
H1893 H 0.46474 0.4728 0.96313 0.0
H1894 H 0.50258 0.52524 0.00418 0.0
H1895 H 0.48089 0.5341 0.99356 0.0
C1896 C 0.52865 0.49903 0.98907 0.0
C1897 C 0.52369 0.48269 0.0083 0.0
C1898 C 0.51623 0.50401 0.98084 0.0
C1899 C 0.4986 0.49282 0.99216 0.0
C1900 C 0.4937 0.47648 0.01156 0.0
C1901 C 0.5061 0.47144 0.01932 0.0
C1902 C 0.45588 0.49123 0.96489 0.0
C1903 C 0.46018 0.50851 0.97324 0.0
C1904 C 0.46841 0.48618 0.97028 0.0
C1905 C 0.48543 0.49829 0.98457 0.0
C1906 C 0.48971 0.51563 0.99244 0.0
C1907 C 0.47724 0.52069 0.98661 0.0
loop_
_geom_bond_atom_site_label_1
_geom_bond_atom_site_label_2
_geom_bond_distance
_geom_bond_site_symmetry_2
_ccdc_geom_bond_type
In0 O1 2.294 . S
In0 O2 2.326 . S
In0 O6 2.266 . S
In0 O7 2.326 . S
In0 O8 2.266 . S
In0 O9 2.326 . S
In0 O11 2.294 . S
In0 O12 2.326 . S
O1 In0 2.294 . S
O1 C10 1.240 . S
O2 In0 2.326 . S
O2 C10 1.252 . S
C3 O6 1.252 . S
C3 O7 1.260 . S
C4 O11 1.240 . S
C4 O12 1.252 . S
C5 O8 1.252 . S
C5 O9 1.260 . S
O6 In0 2.266 . S
O6 C3 1.252 . S
O7 In0 2.326 . S
O7 C3 1.260 . S
O8 In0 2.266 . S
O8 C5 1.252 . S
O9 In0 2.326 . S
O9 C5 1.260 . S
C10 O1 1.240 . S
C10 O2 1.252 . S
O11 In0 2.294 . S
O11 C4 1.240 . S
O12 In0 2.326 . S
O12 C4 1.252 . S
In13 O14 2.294 . S
In13 O15 2.326 . S
In13 O19 2.266 . S
In13 O20 2.326 . S
In13 O21 2.266 . S
In13 O22 2.326 . S
In13 O24 2.294 . S
In13 O25 2.326 . S
O14 In13 2.294 . S
O14 C23 1.240 . S
O15 In13 2.326 . S
O15 C23 1.252 . S
C16 O19 1.252 . S
C16 O20 1.260 . S
C17 O24 1.240 . S
C17 O25 1.252 . S
C18 O21 1.252 . S
C18 O22 1.260 . S
O19 In13 2.266 . S
O19 C16 1.252 . S
O20 In13 2.326 . S
O20 C16 1.260 . S
O21 In13 2.266 . S
O21 C18 1.252 . S
O22 In13 2.326 . S
O22 C18 1.260 . S
C23 O14 1.240 . S
C23 O15 1.252 . S
O24 In13 2.294 . S
O24 C17 1.240 . S
O25 In13 2.326 . S
O25 C17 1.252 . S
In26 O27 2.294 . S
In26 O28 2.326 . S
In26 O32 2.266 . S
In26 O33 2.326 . S
In26 O34 2.266 . S
In26 O35 2.326 . S
In26 O37 2.294 . S
In26 O38 2.326 . S
O27 In26 2.294 . S
O27 C36 1.240 . S
O28 In26 2.326 . S
O28 C36 1.252 . S
C29 O32 1.252 . S
C29 O33 1.260 . S
C30 O37 1.240 . S
C30 O38 1.252 . S
C31 O34 1.252 . S
C31 O35 1.260 . S
O32 In26 2.266 . S
O32 C29 1.252 . S
O33 In26 2.326 . S
O33 C29 1.260 . S
O34 In26 2.266 . S
O34 C31 1.252 . S
O35 In26 2.326 . S
O35 C31 1.260 . S
C36 O27 1.240 . S
C36 O28 1.252 . S
O37 In26 2.294 . S
O37 C30 1.240 . S
O38 In26 2.326 . S
O38 C30 1.252 . S
In39 O40 2.294 . S
In39 O41 2.326 . S
In39 O45 2.266 . S
In39 O46 2.326 . S
In39 O47 2.266 . S
In39 O48 2.326 . S
In39 O50 2.294 . S
In39 O51 2.326 . S
O40 In39 2.294 . S
O40 C49 1.240 . S
O41 In39 2.326 . S
O41 C49 1.252 . S
C42 O45 1.252 . S
C42 O46 1.260 . S
C43 O50 1.240 . S
C43 O51 1.252 . S
C44 O47 1.252 . S
C44 O48 1.260 . S
O45 In39 2.266 . S
O45 C42 1.252 . S
O46 In39 2.326 . S
O46 C42 1.260 . S
O47 In39 2.266 . S
O47 C44 1.252 . S
O48 In39 2.326 . S
O48 C44 1.260 . S
C49 O40 1.240 . S
C49 O41 1.252 . S
O50 In39 2.294 . S
O50 C43 1.240 . S
O51 In39 2.326 . S
O51 C43 1.252 . S
In52 O53 2.294 . S
In52 O54 2.326 . S
In52 O58 2.266 . S
In52 O59 2.326 . S
In52 O60 2.266 . S
In52 O61 2.326 . S
In52 O63 2.294 . S
In52 O64 2.326 . S
O53 In52 2.294 . S
O53 C62 1.240 . S
O54 In52 2.326 . S
O54 C62 1.252 . S
C55 O58 1.252 . S
C55 O59 1.260 . S
C56 O63 1.240 . S
C56 O64 1.252 . S
C57 O60 1.252 . S
C57 O61 1.260 . S
O58 In52 2.266 . S
O58 C55 1.252 . S
O59 In52 2.326 . S
O59 C55 1.260 . S
O60 In52 2.266 . S
O60 C57 1.252 . S
O61 In52 2.326 . S
O61 C57 1.260 . S
C62 O53 1.240 . S
C62 O54 1.252 . S
O63 In52 2.294 . S
O63 C56 1.240 . S
O64 In52 2.326 . S
O64 C56 1.252 . S
In65 O66 2.294 . S
In65 O67 2.326 . S
In65 O71 2.266 . S
In65 O72 2.326 . S
In65 O73 2.266 . S
In65 O74 2.326 . S
In65 O76 2.294 . S
In65 O77 2.326 . S
O66 In65 2.294 . S
O66 C75 1.240 . S
O67 In65 2.326 . S
O67 C75 1.252 . S
C68 O71 1.252 . S
C68 O72 1.260 . S
C69 O76 1.240 . S
C69 O77 1.252 . S
C70 O73 1.252 . S
C70 O74 1.260 . S
O71 In65 2.266 . S
O71 C68 1.252 . S
O72 In65 2.326 . S
O72 C68 1.260 . S
O73 In65 2.266 . S
O73 C70 1.252 . S
O74 In65 2.326 . S
O74 C70 1.260 . S
C75 O66 1.240 . S
C75 O67 1.252 . S
O76 In65 2.294 . S
O76 C69 1.240 . S
O77 In65 2.326 . S
O77 C69 1.252 . S
In78 O79 2.294 . S
In78 O80 2.326 . S
In78 O84 2.266 . S
In78 O85 2.326 . S
In78 O86 2.266 . S
In78 O87 2.326 . S
In78 O89 2.294 . S
In78 O90 2.326 . S
O79 In78 2.294 . S
O79 C88 1.240 . S
O80 In78 2.326 . S
O80 C88 1.252 . S
C81 O84 1.252 . S
C81 O85 1.260 . S
C82 O89 1.240 . S
C82 O90 1.252 . S
C83 O86 1.252 . S
C83 O87 1.260 . S
O84 In78 2.266 . S
O84 C81 1.252 . S
O85 In78 2.326 . S
O85 C81 1.260 . S
O86 In78 2.266 . S
O86 C83 1.252 . S
O87 In78 2.326 . S
O87 C83 1.260 . S
C88 O79 1.240 . S
C88 O80 1.252 . S
O89 In78 2.294 . S
O89 C82 1.240 . S
O90 In78 2.326 . S
O90 C82 1.252 . S
In91 O92 2.294 . S
In91 O93 2.326 . S
In91 O97 2.266 . S
In91 O98 2.326 . S
In91 O99 2.266 . S
In91 O100 2.326 . S
In91 O102 2.294 . S
In91 O103 2.326 . S
O92 In91 2.294 . S
O92 C101 1.240 . S
O93 In91 2.326 . S
O93 C101 1.252 . S
C94 O97 1.252 . S
C94 O98 1.260 . S
C95 O102 1.240 . S
C95 O103 1.252 . S
C96 O99 1.252 . S
C96 O100 1.260 . S
O97 In91 2.266 . S
O97 C94 1.252 . S
O98 In91 2.326 . S
O98 C94 1.260 . S
O99 In91 2.266 . S
O99 C96 1.252 . S
O100 In91 2.326 . S
O100 C96 1.260 . S
C101 O92 1.240 . S
C101 O93 1.252 . S
O102 In91 2.294 . S
O102 C95 1.240 . S
O103 In91 2.326 . S
O103 C95 1.252 . S
In104 O105 2.294 . S
In104 O106 2.326 . S
In104 O110 2.266 . S
In104 O111 2.326 . S
In104 O112 2.266 . S
In104 O113 2.326 . S
In104 O115 2.294 . S
In104 O116 2.326 . S
O105 In104 2.294 . S
O105 C114 1.240 . S
O106 In104 2.326 . S
O106 C114 1.252 . S
C107 O110 1.252 . S
C107 O111 1.260 . S
C108 O115 1.240 . S
C108 O116 1.252 . S
C109 O112 1.252 . S
C109 O113 1.260 . S
O110 In104 2.266 . S
O110 C107 1.252 . S
O111 In104 2.326 . S
O111 C107 1.260 . S
O112 In104 2.266 . S
O112 C109 1.252 . S
O113 In104 2.326 . S
O113 C109 1.260 . S
C114 O105 1.240 . S
C114 O106 1.252 . S
O115 In104 2.294 . S
O115 C108 1.240 . S
O116 In104 2.326 . S
O116 C108 1.252 . S
In117 O118 2.294 . S
In117 O119 2.326 . S
In117 O123 2.266 . S
In117 O124 2.326 . S
In117 O125 2.266 . S
In117 O126 2.326 . S
In117 O128 2.294 . S
In117 O129 2.326 . S
O118 In117 2.294 . S
O118 C127 1.240 . S
O119 In117 2.326 . S
O119 C127 1.252 . S
C120 O123 1.252 . S
C120 O124 1.260 . S
C121 O128 1.240 . S
C121 O129 1.252 . S
C122 O125 1.252 . S
C122 O126 1.260 . S
O123 In117 2.266 . S
O123 C120 1.252 . S
O124 In117 2.326 . S
O124 C120 1.260 . S
O125 In117 2.266 . S
O125 C122 1.252 . S
O126 In117 2.326 . S
O126 C122 1.260 . S
C127 O118 1.240 . S
C127 O119 1.252 . S
O128 In117 2.294 . S
O128 C121 1.240 . S
O129 In117 2.326 . S
O129 C121 1.252 . S
In130 O131 2.294 . S
In130 O132 2.326 . S
In130 O136 2.266 . S
In130 O137 2.326 . S
In130 O138 2.266 . S
In130 O139 2.326 . S
In130 O141 2.294 . S
In130 O142 2.326 . S
O131 In130 2.294 . S
O131 C140 1.240 . S
O132 In130 2.326 . S
O132 C140 1.252 . S
C133 O136 1.252 . S
C133 O137 1.260 . S
C134 O141 1.240 . S
C134 O142 1.252 . S
C135 O138 1.252 . S
C135 O139 1.260 . S
O136 In130 2.266 . S
O136 C133 1.252 . S
O137 In130 2.326 . S
O137 C133 1.260 . S
O138 In130 2.266 . S
O138 C135 1.252 . S
O139 In130 2.326 . S
O139 C135 1.260 . S
C140 O131 1.240 . S
C140 O132 1.252 . S
O141 In130 2.294 . S
O141 C134 1.240 . S
O142 In130 2.326 . S
O142 C134 1.252 . S
In143 O144 2.294 . S
In143 O145 2.326 . S
In143 O149 2.266 . S
In143 O150 2.326 . S
In143 O151 2.266 . S
In143 O152 2.326 . S
In143 O154 2.294 . S
In143 O155 2.326 . S
O144 In143 2.294 . S
O144 C153 1.240 . S
O145 In143 2.326 . S
O145 C153 1.252 . S
C146 O149 1.252 . S
C146 O150 1.260 . S
C147 O154 1.240 . S
C147 O155 1.252 . S
C148 O151 1.252 . S
C148 O152 1.260 . S
O149 In143 2.266 . S
O149 C146 1.252 . S
O150 In143 2.326 . S
O150 C146 1.260 . S
O151 In143 2.266 . S
O151 C148 1.252 . S
O152 In143 2.326 . S
O152 C148 1.260 . S
C153 O144 1.240 . S
C153 O145 1.252 . S
O154 In143 2.294 . S
O154 C147 1.240 . S
O155 In143 2.326 . S
O155 C147 1.252 . S
In156 O157 2.294 . S
In156 O158 2.326 . S
In156 O162 2.266 . S
In156 O163 2.326 . S
In156 O164 2.266 . S
In156 O165 2.326 . S
In156 O167 2.294 . S
In156 O168 2.326 . S
O157 In156 2.294 . S
O157 C166 1.240 . S
O158 In156 2.326 . S
O158 C166 1.252 . S
C159 O162 1.252 . S
C159 O163 1.260 . S
C160 O167 1.240 . S
C160 O168 1.252 . S
C161 O164 1.252 . S
C161 O165 1.260 . S
O162 In156 2.266 . S
O162 C159 1.252 . S
O163 In156 2.326 . S
O163 C159 1.260 . S
O164 In156 2.266 . S
O164 C161 1.252 . S
O165 In156 2.326 . S
O165 C161 1.260 . S
C166 O157 1.240 . S
C166 O158 1.252 . S
O167 In156 2.294 . S
O167 C160 1.240 . S
O168 In156 2.326 . S
O168 C160 1.252 . S
In169 O170 2.294 . S
In169 O171 2.326 . S
In169 O175 2.266 . S
In169 O176 2.326 . S
In169 O177 2.266 . S
In169 O178 2.326 . S
In169 O180 2.294 . S
In169 O181 2.326 . S
O170 In169 2.294 . S
O170 C179 1.240 . S
O171 In169 2.326 . S
O171 C179 1.252 . S
C172 O175 1.252 . S
C172 O176 1.260 . S
C173 O180 1.240 . S
C173 O181 1.252 . S
C174 O177 1.252 . S
C174 O178 1.260 . S
O175 In169 2.266 . S
O175 C172 1.252 . S
O176 In169 2.326 . S
O176 C172 1.260 . S
O177 In169 2.266 . S
O177 C174 1.252 . S
O178 In169 2.326 . S
O178 C174 1.260 . S
C179 O170 1.240 . S
C179 O171 1.252 . S
O180 In169 2.294 . S
O180 C173 1.240 . S
O181 In169 2.326 . S
O181 C173 1.252 . S
In182 O183 2.294 . S
In182 O184 2.326 . S
In182 O188 2.266 . S
In182 O189 2.326 . S
In182 O190 2.266 . S
In182 O191 2.326 . S
In182 O193 2.294 . S
In182 O194 2.326 . S
O183 In182 2.294 . S
O183 C192 1.240 . S
O184 In182 2.326 . S
O184 C192 1.252 . S
C185 O188 1.252 . S
C185 O189 1.260 . S
C186 O193 1.240 . S
C186 O194 1.252 . S
C187 O190 1.252 . S
C187 O191 1.260 . S
O188 In182 2.266 . S
O188 C185 1.252 . S
O189 In182 2.326 . S
O189 C185 1.260 . S
O190 In182 2.266 . S
O190 C187 1.252 . S
O191 In182 2.326 . S
O191 C187 1.260 . S
C192 O183 1.240 . S
C192 O184 1.252 . S
O193 In182 2.294 . S
O193 C186 1.240 . S
O194 In182 2.326 . S
O194 C186 1.252 . S
In195 O196 2.294 . S
In195 O197 2.326 . S
In195 O201 2.266 . S
In195 O202 2.326 . S
In195 O203 2.266 . S
In195 O204 2.326 . S
In195 O206 2.294 . S
In195 O207 2.326 . S
O196 In195 2.294 . S
O196 C205 1.240 . S
O197 In195 2.326 . S
O197 C205 1.252 . S
C198 O201 1.252 . S
C198 O202 1.260 . S
C199 O206 1.240 . S
C199 O207 1.252 . S
C200 O203 1.252 . S
C200 O204 1.260 . S
O201 In195 2.266 . S
O201 C198 1.252 . S
O202 In195 2.326 . S
O202 C198 1.260 . S
O203 In195 2.266 . S
O203 C200 1.252 . S
O204 In195 2.326 . S
O204 C200 1.260 . S
C205 O196 1.240 . S
C205 O197 1.252 . S
O206 In195 2.294 . S
O206 C199 1.240 . S
O207 In195 2.326 . S
O207 C199 1.252 . S
In208 O209 2.294 . S
In208 O210 2.326 . S
In208 O214 2.266 . S
In208 O215 2.326 . S
In208 O216 2.266 . S
In208 O217 2.326 . S
In208 O219 2.294 . S
In208 O220 2.326 . S
O209 In208 2.294 . S
O209 C218 1.240 . S
O210 In208 2.326 . S
O210 C218 1.252 . S
C211 O214 1.252 . S
C211 O215 1.260 . S
C212 O219 1.240 . S
C212 O220 1.252 . S
C213 O216 1.252 . S
C213 O217 1.260 . S
O214 In208 2.266 . S
O214 C211 1.252 . S
O215 In208 2.326 . S
O215 C211 1.260 . S
O216 In208 2.266 . S
O216 C213 1.252 . S
O217 In208 2.326 . S
O217 C213 1.260 . S
C218 O209 1.240 . S
C218 O210 1.252 . S
O219 In208 2.294 . S
O219 C212 1.240 . S
O220 In208 2.326 . S
O220 C212 1.252 . S
In221 O222 2.294 . S
In221 O223 2.326 . S
In221 O227 2.266 . S
In221 O228 2.326 . S
In221 O229 2.266 . S
In221 O230 2.326 . S
In221 O232 2.294 . S
In221 O233 2.326 . S
O222 In221 2.294 . S
O222 C231 1.240 . S
O223 In221 2.326 . S
O223 C231 1.252 . S
C224 O227 1.252 . S
C224 O228 1.260 . S
C225 O232 1.240 . S
C225 O233 1.252 . S
C226 O229 1.252 . S
C226 O230 1.260 . S
O227 In221 2.266 . S
O227 C224 1.252 . S
O228 In221 2.326 . S
O228 C224 1.260 . S
O229 In221 2.266 . S
O229 C226 1.252 . S
O230 In221 2.326 . S
O230 C226 1.260 . S
C231 O222 1.240 . S
C231 O223 1.252 . S
O232 In221 2.294 . S
O232 C225 1.240 . S
O233 In221 2.326 . S
O233 C225 1.252 . S
In234 O235 2.294 . S
In234 O236 2.326 . S
In234 O240 2.266 . S
In234 O241 2.326 . S
In234 O242 2.266 . S
In234 O243 2.326 . S
In234 O245 2.294 . S
In234 O246 2.326 . S
O235 In234 2.294 . S
O235 C244 1.240 . S
O236 In234 2.326 . S
O236 C244 1.252 . S
C237 O240 1.252 . S
C237 O241 1.260 . S
C238 O245 1.240 . S
C238 O246 1.252 . S
C239 O242 1.252 . S
C239 O243 1.260 . S
O240 In234 2.266 . S
O240 C237 1.252 . S
O241 In234 2.326 . S
O241 C237 1.260 . S
O242 In234 2.266 . S
O242 C239 1.252 . S
O243 In234 2.326 . S
O243 C239 1.260 . S
C244 O235 1.240 . S
C244 O236 1.252 . S
O245 In234 2.294 . S
O245 C238 1.240 . S
O246 In234 2.326 . S
O246 C238 1.252 . S
In247 O248 2.294 . S
In247 O249 2.326 . S
In247 O253 2.266 . S
In247 O254 2.326 . S
In247 O255 2.266 . S
In247 O256 2.326 . S
In247 O258 2.294 . S
In247 O259 2.326 . S
O248 In247 2.294 . S
O248 C257 1.240 . S
O249 In247 2.326 . S
O249 C257 1.252 . S
C250 O253 1.252 . S
C250 O254 1.260 . S
C251 O258 1.240 . S
C251 O259 1.252 . S
C252 O255 1.252 . S
C252 O256 1.260 . S
O253 In247 2.266 . S
O253 C250 1.252 . S
O254 In247 2.326 . S
O254 C250 1.260 . S
O255 In247 2.266 . S
O255 C252 1.252 . S
O256 In247 2.326 . S
O256 C252 1.260 . S
C257 O248 1.240 . S
C257 O249 1.252 . S
O258 In247 2.294 . S
O258 C251 1.240 . S
O259 In247 2.326 . S
O259 C251 1.252 . S
In260 O261 2.294 . S
In260 O262 2.326 . S
In260 O266 2.266 . S
In260 O267 2.326 . S
In260 O268 2.266 . S
In260 O269 2.326 . S
In260 O271 2.294 . S
In260 O272 2.326 . S
O261 In260 2.294 . S
O261 C270 1.240 . S
O262 In260 2.326 . S
O262 C270 1.252 . S
C263 O266 1.252 . S
C263 O267 1.260 . S
C264 O271 1.240 . S
C264 O272 1.252 . S
C265 O268 1.252 . S
C265 O269 1.260 . S
O266 In260 2.266 . S
O266 C263 1.252 . S
O267 In260 2.326 . S
O267 C263 1.260 . S
O268 In260 2.266 . S
O268 C265 1.252 . S
O269 In260 2.326 . S
O269 C265 1.260 . S
C270 O261 1.240 . S
C270 O262 1.252 . S
O271 In260 2.294 . S
O271 C264 1.240 . S
O272 In260 2.326 . S
O272 C264 1.252 . S
In273 O274 2.294 . S
In273 O275 2.326 . S
In273 O279 2.266 . S
In273 O280 2.326 . S
In273 O281 2.266 1_554 S
In273 O282 2.326 1_554 S
In273 O284 2.294 . S
In273 O285 2.326 . S
O274 In273 2.294 . S
O274 C283 1.240 . S
O275 In273 2.326 . S
O275 C283 1.252 . S
C276 O279 1.252 . S
C276 O280 1.260 . S
C277 O284 1.240 . S
C277 O285 1.252 . S
C278 O281 1.252 . S
C278 O282 1.260 . S
O279 In273 2.266 . S
O279 C276 1.252 . S
O280 In273 2.326 . S
O280 C276 1.260 . S
O281 In273 2.266 1_556 S
O281 C278 1.252 . S
O282 In273 2.326 1_556 S
O282 C278 1.260 . S
C283 O274 1.240 . S
C283 O275 1.252 . S
O284 In273 2.294 . S
O284 C277 1.240 . S
O285 In273 2.326 . S
O285 C277 1.252 . S
In286 O287 2.294 . S
In286 O288 2.326 . S
In286 O292 2.266 1_554 S
In286 O293 2.326 1_554 S
In286 O294 2.266 . S
In286 O295 2.326 . S
In286 O297 2.294 . S
In286 O298 2.326 . S
O287 In286 2.294 . S
O287 C296 1.240 . S
O288 In286 2.326 . S
O288 C296 1.252 . S
C289 O292 1.252 . S
C289 O293 1.260 . S
C290 O297 1.240 . S
C290 O298 1.252 . S
C291 O294 1.252 . S
C291 O295 1.260 . S
O292 In286 2.266 1_556 S
O292 C289 1.252 . S
O293 In286 2.326 1_556 S
O293 C289 1.260 . S
O294 In286 2.266 . S
O294 C291 1.252 . S
O295 In286 2.326 . S
O295 C291 1.260 . S
C296 O287 1.240 . S
C296 O288 1.252 . S
O297 In286 2.294 . S
O297 C290 1.240 . S
O298 In286 2.326 . S
O298 C290 1.252 . S
In299 O300 2.294 . S
In299 O301 2.326 . S
In299 O305 2.266 . S
In299 O306 2.326 . S
In299 O307 2.266 1_554 S
In299 O308 2.326 1_554 S
In299 O310 2.294 . S
In299 O311 2.326 . S
O300 In299 2.294 . S
O300 C309 1.240 . S
O301 In299 2.326 . S
O301 C309 1.252 . S
C302 O305 1.252 . S
C302 O306 1.260 . S
C303 O310 1.240 . S
C303 O311 1.252 . S
C304 O307 1.252 . S
C304 O308 1.260 . S
O305 In299 2.266 . S
O305 C302 1.252 . S
O306 In299 2.326 . S
O306 C302 1.260 . S
O307 In299 2.266 1_556 S
O307 C304 1.252 . S
O308 In299 2.326 1_556 S
O308 C304 1.260 . S
C309 O300 1.240 . S
C309 O301 1.252 . S
O310 In299 2.294 . S
O310 C303 1.240 . S
O311 In299 2.326 . S
O311 C303 1.252 . S
In312 O313 2.294 . S
In312 O314 2.326 . S
In312 O318 2.266 . S
In312 O319 2.326 . S
In312 O320 2.266 . S
In312 O321 2.326 . S
In312 O323 2.294 . S
In312 O324 2.326 . S
O313 In312 2.294 . S
O313 C322 1.240 . S
O314 In312 2.326 . S
O314 C322 1.252 . S
C315 O318 1.252 . S
C315 O319 1.260 . S
C316 O323 1.240 . S
C316 O324 1.252 . S
C317 O320 1.252 . S
C317 O321 1.260 . S
O318 In312 2.266 . S
O318 C315 1.252 . S
O319 In312 2.326 . S
O319 C315 1.260 . S
O320 In312 2.266 . S
O320 C317 1.252 . S
O321 In312 2.326 . S
O321 C317 1.260 . S
C322 O313 1.240 . S
C322 O314 1.252 . S
O323 In312 2.294 . S
O323 C316 1.240 . S
O324 In312 2.326 . S
O324 C316 1.252 . S
In325 O326 2.294 . S
In325 O327 2.326 . S
In325 O331 2.266 . S
In325 O332 2.326 . S
In325 O333 2.266 . S
In325 O334 2.326 . S
In325 O336 2.294 . S
In325 O337 2.326 . S
O326 In325 2.294 . S
O326 C335 1.240 . S
O327 In325 2.326 . S
O327 C335 1.252 . S
C328 O331 1.252 . S
C328 O332 1.260 . S
C329 O336 1.240 . S
C329 O337 1.252 . S
C330 O333 1.252 . S
C330 O334 1.260 . S
O331 In325 2.266 . S
O331 C328 1.252 . S
O332 In325 2.326 . S
O332 C328 1.260 . S
O333 In325 2.266 . S
O333 C330 1.252 . S
O334 In325 2.326 . S
O334 C330 1.260 . S
C335 O326 1.240 . S
C335 O327 1.252 . S
O336 In325 2.294 . S
O336 C329 1.240 . S
O337 In325 2.326 . S
O337 C329 1.252 . S
In338 O339 2.294 . S
In338 O340 2.326 . S
In338 O344 2.266 . S
In338 O345 2.326 . S
In338 O346 2.266 . S
In338 O347 2.326 . S
In338 O349 2.294 . S
In338 O350 2.326 . S
O339 In338 2.294 . S
O339 C348 1.240 . S
O340 In338 2.326 . S
O340 C348 1.252 . S
C341 O344 1.252 . S
C341 O345 1.260 . S
C342 O349 1.240 . S
C342 O350 1.252 . S
C343 O346 1.252 . S
C343 O347 1.260 . S
O344 In338 2.266 . S
O344 C341 1.252 . S
O345 In338 2.326 . S
O345 C341 1.260 . S
O346 In338 2.266 . S
O346 C343 1.252 . S
O347 In338 2.326 . S
O347 C343 1.260 . S
C348 O339 1.240 . S
C348 O340 1.252 . S
O349 In338 2.294 . S
O349 C342 1.240 . S
O350 In338 2.326 . S
O350 C342 1.252 . S
In351 O352 2.294 . S
In351 O353 2.326 . S
In351 O357 2.266 . S
In351 O358 2.326 . S
In351 O359 2.266 1_556 S
In351 O360 2.326 1_556 S
In351 O362 2.294 . S
In351 O363 2.326 . S
O352 In351 2.294 . S
O352 C361 1.240 . S
O353 In351 2.326 . S
O353 C361 1.252 . S
C354 O357 1.252 . S
C354 O358 1.260 . S
C355 O362 1.240 . S
C355 O363 1.252 . S
C356 O359 1.252 . S
C356 O360 1.260 . S
O357 In351 2.266 . S
O357 C354 1.252 . S
O358 In351 2.326 . S
O358 C354 1.260 . S
O359 In351 2.266 1_554 S
O359 C356 1.252 . S
O360 In351 2.326 1_554 S
O360 C356 1.260 . S
C361 O352 1.240 . S
C361 O353 1.252 . S
O362 In351 2.294 . S
O362 C355 1.240 . S
O363 In351 2.326 . S
O363 C355 1.252 . S
In364 O365 2.294 . S
In364 O366 2.326 . S
In364 O370 2.266 1_556 S
In364 O371 2.326 1_556 S
In364 O372 2.266 . S
In364 O373 2.326 . S
In364 O375 2.294 . S
In364 O376 2.326 . S
O365 In364 2.294 . S
O365 C374 1.240 . S
O366 In364 2.326 . S
O366 C374 1.252 . S
C367 O370 1.252 . S
C367 O371 1.260 . S
C368 O375 1.240 . S
C368 O376 1.252 . S
C369 O372 1.252 . S
C369 O373 1.260 . S
O370 In364 2.266 1_554 S
O370 C367 1.252 . S
O371 In364 2.326 1_554 S
O371 C367 1.260 . S
O372 In364 2.266 . S
O372 C369 1.252 . S
O373 In364 2.326 . S
O373 C369 1.260 . S
C374 O365 1.240 . S
C374 O366 1.252 . S
O375 In364 2.294 . S
O375 C368 1.240 . S
O376 In364 2.326 . S
O376 C368 1.252 . S
In377 O378 2.294 . S
In377 O379 2.326 . S
In377 O383 2.266 . S
In377 O384 2.326 . S
In377 O385 2.266 1_556 S
In377 O386 2.326 1_556 S
In377 O388 2.294 . S
In377 O389 2.326 . S
O378 In377 2.294 . S
O378 C387 1.240 . S
O379 In377 2.326 . S
O379 C387 1.252 . S
C380 O383 1.252 . S
C380 O384 1.260 . S
C381 O388 1.240 . S
C381 O389 1.252 . S
C382 O385 1.252 . S
C382 O386 1.260 . S
O383 In377 2.266 . S
O383 C380 1.252 . S
O384 In377 2.326 . S
O384 C380 1.260 . S
O385 In377 2.266 1_554 S
O385 C382 1.252 . S
O386 In377 2.326 1_554 S
O386 C382 1.260 . S
C387 O378 1.240 . S
C387 O379 1.252 . S
O388 In377 2.294 . S
O388 C381 1.240 . S
O389 In377 2.326 . S
O389 C381 1.252 . S
In390 O391 2.294 . S
In390 O392 2.326 . S
In390 O396 2.266 . S
In390 O397 2.326 . S
In390 O398 2.266 . S
In390 O399 2.326 . S
In390 O401 2.294 . S
In390 O402 2.326 . S
O391 In390 2.294 . S
O391 C400 1.240 . S
O392 In390 2.326 . S
O392 C400 1.252 . S
C393 O396 1.252 . S
C393 O397 1.260 . S
C394 O401 1.240 . S
C394 O402 1.252 . S
C395 O398 1.252 . S
C395 O399 1.260 . S
O396 In390 2.266 . S
O396 C393 1.252 . S
O397 In390 2.326 . S
O397 C393 1.260 . S
O398 In390 2.266 . S
O398 C395 1.252 . S
O399 In390 2.326 . S
O399 C395 1.260 . S
C400 O391 1.240 . S
C400 O392 1.252 . S
O401 In390 2.294 . S
O401 C394 1.240 . S
O402 In390 2.326 . S
O402 C394 1.252 . S
In403 O404 2.294 . S
In403 O405 2.326 . S
In403 O409 2.266 . S
In403 O410 2.326 . S
In403 O411 2.266 . S
In403 O412 2.326 . S
In403 O414 2.294 . S
In403 O415 2.326 . S
O404 In403 2.294 . S
O404 C413 1.240 . S
O405 In403 2.326 . S
O405 C413 1.252 . S
C406 O409 1.252 . S
C406 O410 1.260 . S
C407 O414 1.240 . S
C407 O415 1.252 . S
C408 O411 1.252 . S
C408 O412 1.260 . S
O409 In403 2.266 . S
O409 C406 1.252 . S
O410 In403 2.326 . S
O410 C406 1.260 . S
O411 In403 2.266 . S
O411 C408 1.252 . S
O412 In403 2.326 . S
O412 C408 1.260 . S
C413 O404 1.240 . S
C413 O405 1.252 . S
O414 In403 2.294 . S
O414 C407 1.240 . S
O415 In403 2.326 . S
O415 C407 1.252 . S
In416 O417 2.294 . S
In416 O418 2.326 . S
In416 O422 2.266 . S
In416 O423 2.326 . S
In416 O424 2.266 . S
In416 O425 2.326 . S
In416 O427 2.294 . S
In416 O428 2.326 . S
O417 In416 2.294 . S
O417 C426 1.240 . S
O418 In416 2.326 . S
O418 C426 1.252 . S
C419 O422 1.252 . S
C419 O423 1.260 . S
C420 O427 1.240 . S
C420 O428 1.252 . S
C421 O424 1.252 . S
C421 O425 1.260 . S
O422 In416 2.266 . S
O422 C419 1.252 . S
O423 In416 2.326 . S
O423 C419 1.260 . S
O424 In416 2.266 . S
O424 C421 1.252 . S
O425 In416 2.326 . S
O425 C421 1.260 . S
C426 O417 1.240 . S
C426 O418 1.252 . S
O427 In416 2.294 . S
O427 C420 1.240 . S
O428 In416 2.326 . S
O428 C420 1.252 . S
In429 O430 2.294 . S
In429 O431 2.326 . S
In429 O435 2.266 . S
In429 O436 2.326 . S
In429 O437 2.266 . S
In429 O438 2.326 . S
In429 O440 2.294 . S
In429 O441 2.326 . S
O430 In429 2.294 . S
O430 C439 1.240 . S
O431 In429 2.326 . S
O431 C439 1.252 . S
C432 O435 1.252 . S
C432 O436 1.260 . S
C433 O440 1.240 . S
C433 O441 1.252 . S
C434 O437 1.252 . S
C434 O438 1.260 . S
O435 In429 2.266 . S
O435 C432 1.252 . S
O436 In429 2.326 . S
O436 C432 1.260 . S
O437 In429 2.266 . S
O437 C434 1.252 . S
O438 In429 2.326 . S
O438 C434 1.260 . S
C439 O430 1.240 . S
C439 O431 1.252 . S
O440 In429 2.294 . S
O440 C433 1.240 . S
O441 In429 2.326 . S
O441 C433 1.252 . S
In442 O443 2.294 . S
In442 O444 2.326 . S
In442 O448 2.266 . S
In442 O449 2.326 . S
In442 O450 2.266 . S
In442 O451 2.326 . S
In442 O453 2.294 . S
In442 O454 2.326 . S
O443 In442 2.294 . S
O443 C452 1.240 . S
O444 In442 2.326 . S
O444 C452 1.252 . S
C445 O448 1.252 . S
C445 O449 1.260 . S
C446 O453 1.240 . S
C446 O454 1.252 . S
C447 O450 1.252 . S
C447 O451 1.260 . S
O448 In442 2.266 . S
O448 C445 1.252 . S
O449 In442 2.326 . S
O449 C445 1.260 . S
O450 In442 2.266 . S
O450 C447 1.252 . S
O451 In442 2.326 . S
O451 C447 1.260 . S
C452 O443 1.240 . S
C452 O444 1.252 . S
O453 In442 2.294 . S
O453 C446 1.240 . S
O454 In442 2.326 . S
O454 C446 1.252 . S
In455 O456 2.294 . S
In455 O457 2.326 . S
In455 O461 2.266 . S
In455 O462 2.326 . S
In455 O463 2.266 . S
In455 O464 2.326 . S
In455 O466 2.294 . S
In455 O467 2.326 . S
O456 In455 2.294 . S
O456 C465 1.240 . S
O457 In455 2.326 . S
O457 C465 1.252 . S
C458 O461 1.252 . S
C458 O462 1.260 . S
C459 O466 1.240 . S
C459 O467 1.252 . S
C460 O463 1.252 . S
C460 O464 1.260 . S
O461 In455 2.266 . S
O461 C458 1.252 . S
O462 In455 2.326 . S
O462 C458 1.260 . S
O463 In455 2.266 . S
O463 C460 1.252 . S
O464 In455 2.326 . S
O464 C460 1.260 . S
C465 O456 1.240 . S
C465 O457 1.252 . S
O466 In455 2.294 . S
O466 C459 1.240 . S
O467 In455 2.326 . S
O467 C459 1.252 . S
H468 C476 0.950 . S
H469 C481 0.950 . S
H470 C478 0.950 . S
H471 C480 0.950 . S
H472 C482 0.950 . S
H473 C484 0.950 1_556 S
H474 C486 0.950 1_556 S
H475 C487 0.950 . S
C476 H468 0.950 . S
C476 C477 1.386 . S
C476 C478 1.391 . S
C477 C476 1.386 . S
C477 C481 1.393 . S
C478 H470 0.950 . S
C478 C476 1.391 . S
C478 C479 1.400 . S
C479 C478 1.400 . S
C479 C480 1.398 . S
C479 C485 1.491 . S
C480 H471 0.950 . S
C480 C479 1.398 . S
C480 C481 1.391 . S
C481 H469 0.950 . S
C481 C477 1.393 . S
C481 C480 1.391 . S
C482 H472 0.950 . S
C482 C483 1.386 . S
C482 C484 1.391 . S
C483 C482 1.386 . S
C483 C487 1.393 . S
C484 H473 0.950 1_554 S
C484 C482 1.391 . S
C484 C485 1.400 1_554 S
C485 C479 1.491 . S
C485 C484 1.400 1_556 S
C485 C486 1.398 1_556 S
C486 H474 0.950 1_554 S
C486 C485 1.398 1_554 S
C486 C487 1.391 . S
C487 H475 0.950 . S
C487 C483 1.393 . S
C487 C486 1.391 . S
H488 C496 0.950 . S
H489 C501 0.950 . S
H490 C498 0.950 . S
H491 C500 0.950 . S
H492 C502 0.950 . S
H493 C504 0.950 1_556 S
H494 C506 0.950 1_556 S
H495 C507 0.950 . S
C496 H488 0.950 . S
C496 C497 1.386 . S
C496 C498 1.391 . S
C497 C496 1.386 . S
C497 C501 1.393 . S
C498 H490 0.950 . S
C498 C496 1.391 . S
C498 C499 1.400 . S
C499 C498 1.400 . S
C499 C500 1.398 . S
C499 C505 1.491 . S
C500 H491 0.950 . S
C500 C499 1.398 . S
C500 C501 1.391 . S
C501 H489 0.950 . S
C501 C497 1.393 . S
C501 C500 1.391 . S
C502 H492 0.950 . S
C502 C503 1.386 . S
C502 C504 1.391 . S
C503 C502 1.386 . S
C503 C507 1.393 . S
C504 H493 0.950 1_554 S
C504 C502 1.391 . S
C504 C505 1.400 1_554 S
C505 C499 1.491 . S
C505 C504 1.400 1_556 S
C505 C506 1.398 1_556 S
C506 H494 0.950 1_554 S
C506 C505 1.398 1_554 S
C506 C507 1.391 . S
C507 H495 0.950 . S
C507 C503 1.393 . S
C507 C506 1.391 . S
H508 C516 0.950 . S
H509 C521 0.950 . S
H510 C518 0.950 1_556 S
H511 C520 0.950 1_556 S
H512 C522 0.950 . S
H513 C524 0.950 . S
H514 C526 0.950 . S
H515 C527 0.950 . S
C516 H508 0.950 . S
C516 C517 1.386 . S
C516 C518 1.391 . S
C517 C516 1.386 . S
C517 C521 1.393 . S
C518 H510 0.950 1_554 S
C518 C516 1.391 . S
C518 C519 1.400 1_554 S
C519 C518 1.400 1_556 S
C519 C520 1.398 1_556 S
C519 C525 1.491 . S
C520 H511 0.950 1_554 S
C520 C519 1.398 1_554 S
C520 C521 1.391 . S
C521 H509 0.950 . S
C521 C517 1.393 . S
C521 C520 1.391 . S
C522 H512 0.950 . S
C522 C523 1.386 . S
C522 C524 1.391 . S
C523 C522 1.386 . S
C523 C527 1.393 . S
C524 H513 0.950 . S
C524 C522 1.391 . S
C524 C525 1.400 . S
C525 C519 1.491 . S
C525 C524 1.400 . S
C525 C526 1.398 . S
C526 H514 0.950 . S
C526 C525 1.398 . S
C526 C527 1.391 . S
C527 H515 0.950 . S
C527 C523 1.393 . S
C527 C526 1.391 . S
H528 C536 0.950 . S
H529 C541 0.950 . S
H530 C538 0.950 . S
H531 C540 0.950 . S
H532 C542 0.950 . S
H533 C544 0.950 . S
H534 C546 0.950 . S
H535 C547 0.950 . S
C536 H528 0.950 . S
C536 C537 1.386 . S
C536 C538 1.391 . S
C537 C536 1.386 . S
C537 C541 1.393 . S
C538 H530 0.950 . S
C538 C536 1.391 . S
C538 C539 1.400 . S
C539 C538 1.400 . S
C539 C540 1.398 . S
C539 C545 1.491 . S
C540 H531 0.950 . S
C540 C539 1.398 . S
C540 C541 1.391 . S
C541 H529 0.950 . S
C541 C537 1.393 . S
C541 C540 1.391 . S
C542 H532 0.950 . S
C542 C543 1.386 . S
C542 C544 1.391 . S
C543 C542 1.386 . S
C543 C547 1.393 . S
C544 H533 0.950 . S
C544 C542 1.391 . S
C544 C545 1.400 . S
C545 C539 1.491 . S
C545 C544 1.400 . S
C545 C546 1.398 . S
C546 H534 0.950 . S
C546 C545 1.398 . S
C546 C547 1.391 . S
C547 H535 0.950 . S
C547 C543 1.393 . S
C547 C546 1.391 . S
H548 C556 0.950 . S
H549 C561 0.950 . S
H550 C558 0.950 . S
H551 C560 0.950 . S
H552 C562 0.950 . S
H553 C564 0.950 . S
H554 C566 0.950 . S
H555 C567 0.950 . S
C556 H548 0.950 . S
C556 C557 1.386 . S
C556 C558 1.391 . S
C557 C556 1.386 . S
C557 C561 1.393 . S
C558 H550 0.950 . S
C558 C556 1.391 . S
C558 C559 1.400 . S
C559 C558 1.400 . S
C559 C560 1.398 . S
C559 C565 1.491 . S
C560 H551 0.950 . S
C560 C559 1.398 . S
C560 C561 1.391 . S
C561 H549 0.950 . S
C561 C557 1.393 . S
C561 C560 1.391 . S
C562 H552 0.950 . S
C562 C563 1.386 . S
C562 C564 1.391 . S
C563 C562 1.386 . S
C563 C567 1.393 . S
C564 H553 0.950 . S
C564 C562 1.391 . S
C564 C565 1.400 . S
C565 C559 1.491 . S
C565 C564 1.400 . S
C565 C566 1.398 . S
C566 H554 0.950 . S
C566 C565 1.398 . S
C566 C567 1.391 . S
C567 H555 0.950 . S
C567 C563 1.393 . S
C567 C566 1.391 . S
H568 C576 0.950 . S
H569 C581 0.950 . S
H570 C578 0.950 . S
H571 C580 0.950 . S
H572 C582 0.950 . S
H573 C584 0.950 . S
H574 C586 0.950 . S
H575 C587 0.950 . S
C576 H568 0.950 . S
C576 C577 1.386 . S
C576 C578 1.391 . S
C577 C576 1.386 . S
C577 C581 1.393 . S
C578 H570 0.950 . S
C578 C576 1.391 . S
C578 C579 1.400 . S
C579 C578 1.400 . S
C579 C580 1.398 . S
C579 C585 1.491 . S
C580 H571 0.950 . S
C580 C579 1.398 . S
C580 C581 1.391 . S
C581 H569 0.950 . S
C581 C577 1.393 . S
C581 C580 1.391 . S
C582 H572 0.950 . S
C582 C583 1.386 . S
C582 C584 1.391 . S
C583 C582 1.386 . S
C583 C587 1.393 . S
C584 H573 0.950 . S
C584 C582 1.391 . S
C584 C585 1.400 . S
C585 C579 1.491 . S
C585 C584 1.400 . S
C585 C586 1.398 . S
C586 H574 0.950 . S
C586 C585 1.398 . S
C586 C587 1.391 . S
C587 H575 0.950 . S
C587 C583 1.393 . S
C587 C586 1.391 . S
H588 C596 0.950 . S
H589 C601 0.950 . S
H590 C598 0.950 . S
H591 C600 0.950 . S
H592 C602 0.950 . S
H593 C604 0.950 1_554 S
H594 C606 0.950 1_554 S
H595 C607 0.950 . S
C596 H588 0.950 . S
C596 C597 1.386 . S
C596 C598 1.391 . S
C597 C596 1.386 . S
C597 C601 1.393 . S
C598 H590 0.950 . S
C598 C596 1.391 . S
C598 C599 1.400 . S
C599 C598 1.400 . S
C599 C600 1.398 . S
C599 C605 1.491 . S
C600 H591 0.950 . S
C600 C599 1.398 . S
C600 C601 1.391 . S
C601 H589 0.950 . S
C601 C597 1.393 . S
C601 C600 1.391 . S
C602 H592 0.950 . S
C602 C603 1.386 . S
C602 C604 1.391 . S
C603 C602 1.386 . S
C603 C607 1.393 . S
C604 H593 0.950 1_556 S
C604 C602 1.391 . S
C604 C605 1.400 1_556 S
C605 C599 1.491 . S
C605 C604 1.400 1_554 S
C605 C606 1.398 1_554 S
C606 H594 0.950 1_556 S
C606 C605 1.398 1_556 S
C606 C607 1.391 . S
C607 H595 0.950 . S
C607 C603 1.393 . S
C607 C606 1.391 . S
H608 C616 0.950 . S
H609 C621 0.950 . S
H610 C618 0.950 . S
H611 C620 0.950 . S
H612 C622 0.950 . S
H613 C624 0.950 1_554 S
H614 C626 0.950 1_554 S
H615 C627 0.950 . S
C616 H608 0.950 . S
C616 C617 1.386 . S
C616 C618 1.391 . S
C617 C616 1.386 . S
C617 C621 1.393 . S
C618 H610 0.950 . S
C618 C616 1.391 . S
C618 C619 1.400 . S
C619 C618 1.400 . S
C619 C620 1.398 . S
C619 C625 1.491 . S
C620 H611 0.950 . S
C620 C619 1.398 . S
C620 C621 1.391 . S
C621 H609 0.950 . S
C621 C617 1.393 . S
C621 C620 1.391 . S
C622 H612 0.950 . S
C622 C623 1.386 . S
C622 C624 1.391 . S
C623 C622 1.386 . S
C623 C627 1.393 . S
C624 H613 0.950 1_556 S
C624 C622 1.391 . S
C624 C625 1.400 1_556 S
C625 C619 1.491 . S
C625 C624 1.400 1_554 S
C625 C626 1.398 1_554 S
C626 H614 0.950 1_556 S
C626 C625 1.398 1_556 S
C626 C627 1.391 . S
C627 H615 0.950 . S
C627 C623 1.393 . S
C627 C626 1.391 . S
H628 C636 0.950 . S
H629 C641 0.950 . S
H630 C638 0.950 1_554 S
H631 C640 0.950 1_554 S
H632 C642 0.950 . S
H633 C644 0.950 . S
H634 C646 0.950 . S
H635 C647 0.950 . S
C636 H628 0.950 . S
C636 C637 1.386 . S
C636 C638 1.391 . S
C637 C636 1.386 . S
C637 C641 1.393 . S
C638 H630 0.950 1_556 S
C638 C636 1.391 . S
C638 C639 1.400 1_556 S
C639 C638 1.400 1_554 S
C639 C640 1.398 1_554 S
C639 C645 1.491 . S
C640 H631 0.950 1_556 S
C640 C639 1.398 1_556 S
C640 C641 1.391 . S
C641 H629 0.950 . S
C641 C637 1.393 . S
C641 C640 1.391 . S
C642 H632 0.950 . S
C642 C643 1.386 . S
C642 C644 1.391 . S
C643 C642 1.386 . S
C643 C647 1.393 . S
C644 H633 0.950 . S
C644 C642 1.391 . S
C644 C645 1.400 . S
C645 C639 1.491 . S
C645 C644 1.400 . S
C645 C646 1.398 . S
C646 H634 0.950 . S
C646 C645 1.398 . S
C646 C647 1.391 . S
C647 H635 0.950 . S
C647 C643 1.393 . S
C647 C646 1.391 . S
H648 C656 0.950 . S
H649 C661 0.950 . S
H650 C658 0.950 . S
H651 C660 0.950 . S
H652 C662 0.950 . S
H653 C664 0.950 . S
H654 C666 0.950 . S
H655 C667 0.950 . S
C656 H648 0.950 . S
C656 C657 1.386 . S
C656 C658 1.391 . S
C657 C656 1.386 . S
C657 C661 1.393 . S
C658 H650 0.950 . S
C658 C656 1.391 . S
C658 C659 1.400 . S
C659 C658 1.400 . S
C659 C660 1.398 . S
C659 C665 1.491 . S
C660 H651 0.950 . S
C660 C659 1.398 . S
C660 C661 1.391 . S
C661 H649 0.950 . S
C661 C657 1.393 . S
C661 C660 1.391 . S
C662 H652 0.950 . S
C662 C663 1.386 . S
C662 C664 1.391 . S
C663 C662 1.386 . S
C663 C667 1.393 . S
C664 H653 0.950 . S
C664 C662 1.391 . S
C664 C665 1.400 . S
C665 C659 1.491 . S
C665 C664 1.400 . S
C665 C666 1.398 . S
C666 H654 0.950 . S
C666 C665 1.398 . S
C666 C667 1.391 . S
C667 H655 0.950 . S
C667 C663 1.393 . S
C667 C666 1.391 . S
H668 C676 0.950 . S
H669 C681 0.950 . S
H670 C678 0.950 . S
H671 C680 0.950 . S
H672 C682 0.950 . S
H673 C684 0.950 . S
H674 C686 0.950 . S
H675 C687 0.950 . S
C676 H668 0.950 . S
C676 C677 1.386 . S
C676 C678 1.391 . S
C677 C676 1.386 . S
C677 C681 1.393 . S
C678 H670 0.950 . S
C678 C676 1.391 . S
C678 C679 1.400 . S
C679 C678 1.400 . S
C679 C680 1.398 . S
C679 C685 1.491 . S
C680 H671 0.950 . S
C680 C679 1.398 . S
C680 C681 1.391 . S
C681 H669 0.950 . S
C681 C677 1.393 . S
C681 C680 1.391 . S
C682 H672 0.950 . S
C682 C683 1.386 . S
C682 C684 1.391 . S
C683 C682 1.386 . S
C683 C687 1.393 . S
C684 H673 0.950 . S
C684 C682 1.391 . S
C684 C685 1.400 . S
C685 C679 1.491 . S
C685 C684 1.400 . S
C685 C686 1.398 . S
C686 H674 0.950 . S
C686 C685 1.398 . S
C686 C687 1.391 . S
C687 H675 0.950 . S
C687 C683 1.393 . S
C687 C686 1.391 . S
H688 C696 0.950 . S
H689 C701 0.950 . S
H690 C698 0.950 . S
H691 C700 0.950 . S
H692 C702 0.950 . S
H693 C704 0.950 . S
H694 C706 0.950 . S
H695 C707 0.950 . S
C696 H688 0.950 . S
C696 C697 1.386 . S
C696 C698 1.391 . S
C697 C696 1.386 . S
C697 C701 1.393 . S
C698 H690 0.950 . S
C698 C696 1.391 . S
C698 C699 1.400 . S
C699 C698 1.400 . S
C699 C700 1.398 . S
C699 C705 1.491 . S
C700 H691 0.950 . S
C700 C699 1.398 . S
C700 C701 1.391 . S
C701 H689 0.950 . S
C701 C697 1.393 . S
C701 C700 1.391 . S
C702 H692 0.950 . S
C702 C703 1.386 . S
C702 C704 1.391 . S
C703 C702 1.386 . S
C703 C707 1.393 . S
C704 H693 0.950 . S
C704 C702 1.391 . S
C704 C705 1.400 . S
C705 C699 1.491 . S
C705 C704 1.400 . S
C705 C706 1.398 . S
C706 H694 0.950 . S
C706 C705 1.398 . S
C706 C707 1.391 . S
C707 H695 0.950 . S
C707 C703 1.393 . S
C707 C706 1.391 . S
H708 C716 0.950 . S
H709 C721 0.950 . S
H710 C718 0.950 . S
H711 C720 0.950 . S
H712 C722 0.950 . S
H713 C724 0.950 . S
H714 C726 0.950 . S
H715 C727 0.950 . S
C716 H708 0.950 . S
C716 C717 1.386 . S
C716 C718 1.391 . S
C717 C716 1.386 . S
C717 C721 1.393 . S
C718 H710 0.950 . S
C718 C716 1.391 . S
C718 C719 1.400 . S
C719 C718 1.400 . S
C719 C720 1.398 . S
C719 C725 1.491 . S
C720 H711 0.950 . S
C720 C719 1.398 . S
C720 C721 1.391 . S
C721 H709 0.950 . S
C721 C717 1.393 . S
C721 C720 1.391 . S
C722 H712 0.950 . S
C722 C723 1.386 . S
C722 C724 1.391 . S
C723 C722 1.386 . S
C723 C727 1.393 . S
C724 H713 0.950 . S
C724 C722 1.391 . S
C724 C725 1.400 . S
C725 C719 1.491 . S
C725 C724 1.400 . S
C725 C726 1.398 . S
C726 H714 0.950 . S
C726 C725 1.398 . S
C726 C727 1.391 . S
C727 H715 0.950 . S
C727 C723 1.393 . S
C727 C726 1.391 . S
H728 C736 0.950 . S
H729 C741 0.950 . S
H730 C738 0.950 . S
H731 C740 0.950 . S
H732 C742 0.950 . S
H733 C744 0.950 . S
H734 C746 0.950 . S
H735 C747 0.950 . S
C736 H728 0.950 . S
C736 C737 1.386 . S
C736 C738 1.391 . S
C737 C736 1.386 . S
C737 C741 1.393 . S
C738 H730 0.950 . S
C738 C736 1.391 . S
C738 C739 1.400 . S
C739 C738 1.400 . S
C739 C740 1.398 . S
C739 C745 1.491 . S
C740 H731 0.950 . S
C740 C739 1.398 . S
C740 C741 1.391 . S
C741 H729 0.950 . S
C741 C737 1.393 . S
C741 C740 1.391 . S
C742 H732 0.950 . S
C742 C743 1.386 . S
C742 C744 1.391 . S
C743 C742 1.386 . S
C743 C747 1.393 . S
C744 H733 0.950 . S
C744 C742 1.391 . S
C744 C745 1.400 . S
C745 C739 1.491 . S
C745 C744 1.400 . S
C745 C746 1.398 . S
C746 H734 0.950 . S
C746 C745 1.398 . S
C746 C747 1.391 . S
C747 H735 0.950 . S
C747 C743 1.393 . S
C747 C746 1.391 . S
H748 C756 0.950 . S
H749 C761 0.950 . S
H750 C758 0.950 . S
H751 C760 0.950 . S
H752 C762 0.950 . S
H753 C764 0.950 . S
H754 C766 0.950 . S
H755 C767 0.950 . S
C756 H748 0.950 . S
C756 C757 1.386 . S
C756 C758 1.391 . S
C757 C756 1.386 . S
C757 C761 1.393 . S
C758 H750 0.950 . S
C758 C756 1.391 . S
C758 C759 1.400 . S
C759 C758 1.400 . S
C759 C760 1.398 . S
C759 C765 1.491 . S
C760 H751 0.950 . S
C760 C759 1.398 . S
C760 C761 1.391 . S
C761 H749 0.950 . S
C761 C757 1.393 . S
C761 C760 1.391 . S
C762 H752 0.950 . S
C762 C763 1.386 . S
C762 C764 1.391 . S
C763 C762 1.386 . S
C763 C767 1.393 . S
C764 H753 0.950 . S
C764 C762 1.391 . S
C764 C765 1.400 . S
C765 C759 1.491 . S
C765 C764 1.400 . S
C765 C766 1.398 . S
C766 H754 0.950 . S
C766 C765 1.398 . S
C766 C767 1.391 . S
C767 H755 0.950 . S
C767 C763 1.393 . S
C767 C766 1.391 . S
H768 C776 0.950 . S
H769 C781 0.950 . S
H770 C778 0.950 . S
H771 C780 0.950 . S
H772 C782 0.950 . S
H773 C784 0.950 . S
H774 C786 0.950 . S
H775 C787 0.950 . S
C776 H768 0.950 . S
C776 C777 1.386 . S
C776 C778 1.391 . S
C777 C776 1.386 . S
C777 C781 1.393 . S
C778 H770 0.950 . S
C778 C776 1.391 . S
C778 C779 1.400 . S
C779 C778 1.400 . S
C779 C780 1.398 . S
C779 C785 1.491 . S
C780 H771 0.950 . S
C780 C779 1.398 . S
C780 C781 1.391 . S
C781 H769 0.950 . S
C781 C777 1.393 . S
C781 C780 1.391 . S
C782 H772 0.950 . S
C782 C783 1.386 . S
C782 C784 1.391 . S
C783 C782 1.386 . S
C783 C787 1.393 . S
C784 H773 0.950 . S
C784 C782 1.391 . S
C784 C785 1.400 . S
C785 C779 1.491 . S
C785 C784 1.400 . S
C785 C786 1.398 . S
C786 H774 0.950 . S
C786 C785 1.398 . S
C786 C787 1.391 . S
C787 H775 0.950 . S
C787 C783 1.393 . S
C787 C786 1.391 . S
H788 C796 0.950 . S
H789 C801 0.950 . S
H790 C798 0.950 . S
H791 C800 0.950 . S
H792 C802 0.950 . S
H793 C804 0.950 . S
H794 C806 0.950 . S
H795 C807 0.950 . S
C796 H788 0.950 . S
C796 C797 1.386 . S
C796 C798 1.391 . S
C797 C796 1.386 . S
C797 C801 1.393 . S
C798 H790 0.950 . S
C798 C796 1.391 . S
C798 C799 1.400 . S
C799 C798 1.400 . S
C799 C800 1.398 . S
C799 C805 1.491 . S
C800 H791 0.950 . S
C800 C799 1.398 . S
C800 C801 1.391 . S
C801 H789 0.950 . S
C801 C797 1.393 . S
C801 C800 1.391 . S
C802 H792 0.950 . S
C802 C803 1.386 . S
C802 C804 1.391 . S
C803 C802 1.386 . S
C803 C807 1.393 . S
C804 H793 0.950 . S
C804 C802 1.391 . S
C804 C805 1.400 . S
C805 C799 1.491 . S
C805 C804 1.400 . S
C805 C806 1.398 . S
C806 H794 0.950 . S
C806 C805 1.398 . S
C806 C807 1.391 . S
C807 H795 0.950 . S
C807 C803 1.393 . S
C807 C806 1.391 . S
H808 C816 0.950 . S
H809 C821 0.950 . S
H810 C818 0.950 . S
H811 C820 0.950 . S
H812 C822 0.950 . S
H813 C824 0.950 . S
H814 C826 0.950 . S
H815 C827 0.950 . S
C816 H808 0.950 . S
C816 C817 1.386 . S
C816 C818 1.391 . S
C817 C816 1.386 . S
C817 C821 1.393 . S
C818 H810 0.950 . S
C818 C816 1.391 . S
C818 C819 1.400 . S
C819 C818 1.400 . S
C819 C820 1.398 . S
C819 C825 1.491 . S
C820 H811 0.950 . S
C820 C819 1.398 . S
C820 C821 1.391 . S
C821 H809 0.950 . S
C821 C817 1.393 . S
C821 C820 1.391 . S
C822 H812 0.950 . S
C822 C823 1.386 . S
C822 C824 1.391 . S
C823 C822 1.386 . S
C823 C827 1.393 . S
C824 H813 0.950 . S
C824 C822 1.391 . S
C824 C825 1.400 . S
C825 C819 1.491 . S
C825 C824 1.400 . S
C825 C826 1.398 . S
C826 H814 0.950 . S
C826 C825 1.398 . S
C826 C827 1.391 . S
C827 H815 0.950 . S
C827 C823 1.393 . S
C827 C826 1.391 . S
H828 C836 0.950 . S
H829 C841 0.950 . S
H830 C838 0.950 . S
H831 C840 0.950 . S
H832 C842 0.950 . S
H833 C844 0.950 . S
H834 C846 0.950 . S
H835 C847 0.950 . S
C836 H828 0.950 . S
C836 C837 1.386 . S
C836 C838 1.391 . S
C837 C836 1.386 . S
C837 C841 1.393 . S
C838 H830 0.950 . S
C838 C836 1.391 . S
C838 C839 1.400 . S
C839 C838 1.400 . S
C839 C840 1.398 . S
C839 C845 1.491 . S
C840 H831 0.950 . S
C840 C839 1.398 . S
C840 C841 1.391 . S
C841 H829 0.950 . S
C841 C837 1.393 . S
C841 C840 1.391 . S
C842 H832 0.950 . S
C842 C843 1.386 . S
C842 C844 1.391 . S
C843 C842 1.386 . S
C843 C847 1.393 . S
C844 H833 0.950 . S
C844 C842 1.391 . S
C844 C845 1.400 . S
C845 C839 1.491 . S
C845 C844 1.400 . S
C845 C846 1.398 . S
C846 H834 0.950 . S
C846 C845 1.398 . S
C846 C847 1.391 . S
C847 H835 0.950 . S
C847 C843 1.393 . S
C847 C846 1.391 . S
H848 C856 0.950 . S
H849 C861 0.950 . S
H850 C858 0.950 . S
H851 C860 0.950 . S
H852 C862 0.950 . S
H853 C864 0.950 . S
H854 C866 0.950 . S
H855 C867 0.950 . S
C856 H848 0.950 . S
C856 C857 1.386 . S
C856 C858 1.391 . S
C857 C856 1.386 . S
C857 C861 1.393 . S
C858 H850 0.950 . S
C858 C856 1.391 . S
C858 C859 1.400 . S
C859 C858 1.400 . S
C859 C860 1.398 . S
C859 C865 1.491 . S
C860 H851 0.950 . S
C860 C859 1.398 . S
C860 C861 1.391 . S
C861 H849 0.950 . S
C861 C857 1.393 . S
C861 C860 1.391 . S
C862 H852 0.950 . S
C862 C863 1.386 . S
C862 C864 1.391 . S
C863 C862 1.386 . S
C863 C867 1.393 . S
C864 H853 0.950 . S
C864 C862 1.391 . S
C864 C865 1.400 . S
C865 C859 1.491 . S
C865 C864 1.400 . S
C865 C866 1.398 . S
C866 H854 0.950 . S
C866 C865 1.398 . S
C866 C867 1.391 . S
C867 H855 0.950 . S
C867 C863 1.393 . S
C867 C866 1.391 . S
H868 C876 0.950 . S
H869 C881 0.950 . S
H870 C878 0.950 . S
H871 C880 0.950 . S
H872 C882 0.950 . S
H873 C884 0.950 . S
H874 C886 0.950 . S
H875 C887 0.950 . S
C876 H868 0.950 . S
C876 C877 1.386 . S
C876 C878 1.391 . S
C877 C876 1.386 . S
C877 C881 1.393 . S
C878 H870 0.950 . S
C878 C876 1.391 . S
C878 C879 1.400 . S
C879 C878 1.400 . S
C879 C880 1.398 . S
C879 C885 1.491 . S
C880 H871 0.950 . S
C880 C879 1.398 . S
C880 C881 1.391 . S
C881 H869 0.950 . S
C881 C877 1.393 . S
C881 C880 1.391 . S
C882 H872 0.950 . S
C882 C883 1.386 . S
C882 C884 1.391 . S
C883 C882 1.386 . S
C883 C887 1.393 . S
C884 H873 0.950 . S
C884 C882 1.391 . S
C884 C885 1.400 . S
C885 C879 1.491 . S
C885 C884 1.400 . S
C885 C886 1.398 . S
C886 H874 0.950 . S
C886 C885 1.398 . S
C886 C887 1.391 . S
C887 H875 0.950 . S
C887 C883 1.393 . S
C887 C886 1.391 . S
H888 C896 0.950 . S
H889 C901 0.950 . S
H890 C898 0.950 . S
H891 C900 0.950 . S
H892 C902 0.950 . S
H893 C904 0.950 . S
H894 C906 0.950 . S
H895 C907 0.950 . S
C896 H888 0.950 . S
C896 C897 1.386 . S
C896 C898 1.391 . S
C897 C896 1.386 . S
C897 C901 1.393 . S
C898 H890 0.950 . S
C898 C896 1.391 . S
C898 C899 1.400 . S
C899 C898 1.400 . S
C899 C900 1.398 . S
C899 C905 1.491 . S
C900 H891 0.950 . S
C900 C899 1.398 . S
C900 C901 1.391 . S
C901 H889 0.950 . S
C901 C897 1.393 . S
C901 C900 1.391 . S
C902 H892 0.950 . S
C902 C903 1.386 . S
C902 C904 1.391 . S
C903 C902 1.386 . S
C903 C907 1.393 . S
C904 H893 0.950 . S
C904 C902 1.391 . S
C904 C905 1.400 . S
C905 C899 1.491 . S
C905 C904 1.400 . S
C905 C906 1.398 . S
C906 H894 0.950 . S
C906 C905 1.398 . S
C906 C907 1.391 . S
C907 H895 0.950 . S
C907 C903 1.393 . S
C907 C906 1.391 . S
H908 C916 0.950 . S
H909 C921 0.950 . S
H910 C918 0.950 . S
H911 C920 0.950 . S
H912 C922 0.950 . S
H913 C924 0.950 . S
H914 C926 0.950 . S
H915 C927 0.950 . S
C916 H908 0.950 . S
C916 C917 1.386 . S
C916 C918 1.391 . S
C917 C916 1.386 . S
C917 C921 1.393 . S
C918 H910 0.950 . S
C918 C916 1.391 . S
C918 C919 1.400 . S
C919 C918 1.400 . S
C919 C920 1.398 . S
C919 C925 1.491 . S
C920 H911 0.950 . S
C920 C919 1.398 . S
C920 C921 1.391 . S
C921 H909 0.950 . S
C921 C917 1.393 . S
C921 C920 1.391 . S
C922 H912 0.950 . S
C922 C923 1.386 . S
C922 C924 1.391 . S
C923 C922 1.386 . S
C923 C927 1.393 . S
C924 H913 0.950 . S
C924 C922 1.391 . S
C924 C925 1.400 . S
C925 C919 1.491 . S
C925 C924 1.400 . S
C925 C926 1.398 . S
C926 H914 0.950 . S
C926 C925 1.398 . S
C926 C927 1.391 . S
C927 H915 0.950 . S
C927 C923 1.393 . S
C927 C926 1.391 . S
H928 C936 0.950 . S
H929 C941 0.950 . S
H930 C938 0.950 . S
H931 C940 0.950 . S
H932 C942 0.950 . S
H933 C944 0.950 . S
H934 C946 0.950 . S
H935 C947 0.950 . S
C936 H928 0.950 . S
C936 C937 1.386 . S
C936 C938 1.391 . S
C937 C936 1.386 . S
C937 C941 1.393 . S
C938 H930 0.950 . S
C938 C936 1.391 . S
C938 C939 1.400 . S
C939 C938 1.400 . S
C939 C940 1.398 . S
C939 C945 1.491 . S
C940 H931 0.950 . S
C940 C939 1.398 . S
C940 C941 1.391 . S
C941 H929 0.950 . S
C941 C937 1.393 . S
C941 C940 1.391 . S
C942 H932 0.950 . S
C942 C943 1.386 . S
C942 C944 1.391 . S
C943 C942 1.386 . S
C943 C947 1.393 . S
C944 H933 0.950 . S
C944 C942 1.391 . S
C944 C945 1.400 . S
C945 C939 1.491 . S
C945 C944 1.400 . S
C945 C946 1.398 . S
C946 H934 0.950 . S
C946 C945 1.398 . S
C946 C947 1.391 . S
C947 H935 0.950 . S
C947 C943 1.393 . S
C947 C946 1.391 . S
H948 C956 0.950 . S
H949 C961 0.950 . S
H950 C958 0.950 . S
H951 C960 0.950 . S
H952 C962 0.950 . S
H953 C964 0.950 . S
H954 C966 0.950 . S
H955 C967 0.950 . S
C956 H948 0.950 . S
C956 C957 1.386 . S
C956 C958 1.391 . S
C957 C956 1.386 . S
C957 C961 1.393 . S
C958 H950 0.950 . S
C958 C956 1.391 . S
C958 C959 1.400 . S
C959 C958 1.400 . S
C959 C960 1.398 . S
C959 C965 1.491 . S
C960 H951 0.950 . S
C960 C959 1.398 . S
C960 C961 1.391 . S
C961 H949 0.950 . S
C961 C957 1.393 . S
C961 C960 1.391 . S
C962 H952 0.950 . S
C962 C963 1.386 . S
C962 C964 1.391 . S
C963 C962 1.386 . S
C963 C967 1.393 . S
C964 H953 0.950 . S
C964 C962 1.391 . S
C964 C965 1.400 . S
C965 C959 1.491 . S
C965 C964 1.400 . S
C965 C966 1.398 . S
C966 H954 0.950 . S
C966 C965 1.398 . S
C966 C967 1.391 . S
C967 H955 0.950 . S
C967 C963 1.393 . S
C967 C966 1.391 . S
H968 C976 0.950 . S
H969 C981 0.950 . S
H970 C978 0.950 . S
H971 C980 0.950 . S
H972 C982 0.950 . S
H973 C984 0.950 . S
H974 C986 0.950 . S
H975 C987 0.950 . S
C976 H968 0.950 . S
C976 C977 1.386 . S
C976 C978 1.391 . S
C977 C976 1.386 . S
C977 C981 1.393 . S
C978 H970 0.950 . S
C978 C976 1.391 . S
C978 C979 1.400 . S
C979 C978 1.400 . S
C979 C980 1.398 . S
C979 C985 1.491 . S
C980 H971 0.950 . S
C980 C979 1.398 . S
C980 C981 1.391 . S
C981 H969 0.950 . S
C981 C977 1.393 . S
C981 C980 1.391 . S
C982 H972 0.950 . S
C982 C983 1.386 . S
C982 C984 1.391 . S
C983 C982 1.386 . S
C983 C987 1.393 . S
C984 H973 0.950 . S
C984 C982 1.391 . S
C984 C985 1.400 . S
C985 C979 1.491 . S
C985 C984 1.400 . S
C985 C986 1.398 . S
C986 H974 0.950 . S
C986 C985 1.398 . S
C986 C987 1.391 . S
C987 H975 0.950 . S
C987 C983 1.393 . S
C987 C986 1.391 . S
H988 C996 0.950 . S
H989 C1001 0.950 . S
H990 C998 0.950 . S
H991 C1000 0.950 . S
H992 C1002 0.950 . S
H993 C1004 0.950 . S
H994 C1006 0.950 . S
H995 C1007 0.950 . S
C996 H988 0.950 . S
C996 C997 1.386 . S
C996 C998 1.391 . S
C997 C996 1.386 . S
C997 C1001 1.393 . S
C998 H990 0.950 . S
C998 C996 1.391 . S
C998 C999 1.400 . S
C999 C998 1.400 . S
C999 C1000 1.398 . S
C999 C1005 1.491 . S
C1000 H991 0.950 . S
C1000 C999 1.398 . S
C1000 C1001 1.391 . S
C1001 H989 0.950 . S
C1001 C997 1.393 . S
C1001 C1000 1.391 . S
C1002 H992 0.950 . S
C1002 C1003 1.386 . S
C1002 C1004 1.391 . S
C1003 C1002 1.386 . S
C1003 C1007 1.393 . S
C1004 H993 0.950 . S
C1004 C1002 1.391 . S
C1004 C1005 1.400 . S
C1005 C999 1.491 . S
C1005 C1004 1.400 . S
C1005 C1006 1.398 . S
C1006 H994 0.950 . S
C1006 C1005 1.398 . S
C1006 C1007 1.391 . S
C1007 H995 0.950 . S
C1007 C1003 1.393 . S
C1007 C1006 1.391 . S
H1008 C1016 0.950 . S
H1009 C1021 0.950 . S
H1010 C1018 0.950 . S
H1011 C1020 0.950 . S
H1012 C1022 0.950 . S
H1013 C1024 0.950 . S
H1014 C1026 0.950 . S
H1015 C1027 0.950 . S
C1016 H1008 0.950 . S
C1016 C1017 1.386 . S
C1016 C1018 1.391 . S
C1017 C1016 1.386 . S
C1017 C1021 1.393 . S
C1018 H1010 0.950 . S
C1018 C1016 1.391 . S
C1018 C1019 1.400 . S
C1019 C1018 1.400 . S
C1019 C1020 1.398 . S
C1019 C1025 1.491 . S
C1020 H1011 0.950 . S
C1020 C1019 1.398 . S
C1020 C1021 1.391 . S
C1021 H1009 0.950 . S
C1021 C1017 1.393 . S
C1021 C1020 1.391 . S
C1022 H1012 0.950 . S
C1022 C1023 1.386 . S
C1022 C1024 1.391 . S
C1023 C1022 1.386 . S
C1023 C1027 1.393 . S
C1024 H1013 0.950 . S
C1024 C1022 1.391 . S
C1024 C1025 1.400 . S
C1025 C1019 1.491 . S
C1025 C1024 1.400 . S
C1025 C1026 1.398 . S
C1026 H1014 0.950 . S
C1026 C1025 1.398 . S
C1026 C1027 1.391 . S
C1027 H1015 0.950 . S
C1027 C1023 1.393 . S
C1027 C1026 1.391 . S
H1028 C1036 0.950 . S
H1029 C1041 0.950 . S
H1030 C1038 0.950 . S
H1031 C1040 0.950 . S
H1032 C1042 0.950 . S
H1033 C1044 0.950 . S
H1034 C1046 0.950 . S
H1035 C1047 0.950 . S
C1036 H1028 0.950 . S
C1036 C1037 1.386 . S
C1036 C1038 1.391 . S
C1037 C1036 1.386 . S
C1037 C1041 1.393 . S
C1038 H1030 0.950 . S
C1038 C1036 1.391 . S
C1038 C1039 1.400 . S
C1039 C1038 1.400 . S
C1039 C1040 1.398 . S
C1039 C1045 1.491 . S
C1040 H1031 0.950 . S
C1040 C1039 1.398 . S
C1040 C1041 1.391 . S
C1041 H1029 0.950 . S
C1041 C1037 1.393 . S
C1041 C1040 1.391 . S
C1042 H1032 0.950 . S
C1042 C1043 1.386 . S
C1042 C1044 1.391 . S
C1043 C1042 1.386 . S
C1043 C1047 1.393 . S
C1044 H1033 0.950 . S
C1044 C1042 1.391 . S
C1044 C1045 1.400 . S
C1045 C1039 1.491 . S
C1045 C1044 1.400 . S
C1045 C1046 1.398 . S
C1046 H1034 0.950 . S
C1046 C1045 1.398 . S
C1046 C1047 1.391 . S
C1047 H1035 0.950 . S
C1047 C1043 1.393 . S
C1047 C1046 1.391 . S
H1048 C1056 0.950 . S
H1049 C1061 0.950 . S
H1050 C1058 0.950 . S
H1051 C1060 0.950 . S
H1052 C1062 0.950 . S
H1053 C1064 0.950 . S
H1054 C1066 0.950 . S
H1055 C1067 0.950 . S
C1056 H1048 0.950 . S
C1056 C1057 1.386 . S
C1056 C1058 1.391 . S
C1057 C1056 1.386 . S
C1057 C1061 1.393 . S
C1058 H1050 0.950 . S
C1058 C1056 1.391 . S
C1058 C1059 1.400 . S
C1059 C1058 1.400 . S
C1059 C1060 1.398 . S
C1059 C1065 1.491 . S
C1060 H1051 0.950 . S
C1060 C1059 1.398 . S
C1060 C1061 1.391 . S
C1061 H1049 0.950 . S
C1061 C1057 1.393 . S
C1061 C1060 1.391 . S
C1062 H1052 0.950 . S
C1062 C1063 1.386 . S
C1062 C1064 1.391 . S
C1063 C1062 1.386 . S
C1063 C1067 1.393 . S
C1064 H1053 0.950 . S
C1064 C1062 1.391 . S
C1064 C1065 1.400 . S
C1065 C1059 1.491 . S
C1065 C1064 1.400 . S
C1065 C1066 1.398 . S
C1066 H1054 0.950 . S
C1066 C1065 1.398 . S
C1066 C1067 1.391 . S
C1067 H1055 0.950 . S
C1067 C1063 1.393 . S
C1067 C1066 1.391 . S
H1068 C1076 0.950 . S
H1069 C1081 0.950 . S
H1070 C1078 0.950 . S
H1071 C1080 0.950 . S
H1072 C1082 0.950 . S
H1073 C1084 0.950 . S
H1074 C1086 0.950 . S
H1075 C1087 0.950 . S
C1076 H1068 0.950 . S
C1076 C1077 1.386 . S
C1076 C1078 1.391 . S
C1077 C1076 1.386 . S
C1077 C1081 1.393 . S
C1078 H1070 0.950 . S
C1078 C1076 1.391 . S
C1078 C1079 1.400 . S
C1079 C1078 1.400 . S
C1079 C1080 1.398 . S
C1079 C1085 1.491 . S
C1080 H1071 0.950 . S
C1080 C1079 1.398 . S
C1080 C1081 1.391 . S
C1081 H1069 0.950 . S
C1081 C1077 1.393 . S
C1081 C1080 1.391 . S
C1082 H1072 0.950 . S
C1082 C1083 1.386 . S
C1082 C1084 1.391 . S
C1083 C1082 1.386 . S
C1083 C1087 1.393 . S
C1084 H1073 0.950 . S
C1084 C1082 1.391 . S
C1084 C1085 1.400 . S
C1085 C1079 1.491 . S
C1085 C1084 1.400 . S
C1085 C1086 1.398 . S
C1086 H1074 0.950 . S
C1086 C1085 1.398 . S
C1086 C1087 1.391 . S
C1087 H1075 0.950 . S
C1087 C1083 1.393 . S
C1087 C1086 1.391 . S
H1088 C1096 0.950 . S
H1089 C1101 0.950 . S
H1090 C1098 0.950 . S
H1091 C1100 0.950 . S
H1092 C1102 0.950 . S
H1093 C1104 0.950 . S
H1094 C1106 0.950 . S
H1095 C1107 0.950 . S
C1096 H1088 0.950 . S
C1096 C1097 1.386 . S
C1096 C1098 1.391 . S
C1097 C1096 1.386 . S
C1097 C1101 1.393 . S
C1098 H1090 0.950 . S
C1098 C1096 1.391 . S
C1098 C1099 1.400 . S
C1099 C1098 1.400 . S
C1099 C1100 1.398 . S
C1099 C1105 1.491 . S
C1100 H1091 0.950 . S
C1100 C1099 1.398 . S
C1100 C1101 1.391 . S
C1101 H1089 0.950 . S
C1101 C1097 1.393 . S
C1101 C1100 1.391 . S
C1102 H1092 0.950 . S
C1102 C1103 1.386 . S
C1102 C1104 1.391 . S
C1103 C1102 1.386 . S
C1103 C1107 1.393 . S
C1104 H1093 0.950 . S
C1104 C1102 1.391 . S
C1104 C1105 1.400 . S
C1105 C1099 1.491 . S
C1105 C1104 1.400 . S
C1105 C1106 1.398 . S
C1106 H1094 0.950 . S
C1106 C1105 1.398 . S
C1106 C1107 1.391 . S
C1107 H1095 0.950 . S
C1107 C1103 1.393 . S
C1107 C1106 1.391 . S
H1108 C1116 0.950 . S
H1109 C1121 0.950 . S
H1110 C1118 0.950 . S
H1111 C1120 0.950 . S
H1112 C1122 0.950 . S
H1113 C1124 0.950 . S
H1114 C1126 0.950 . S
H1115 C1127 0.950 . S
C1116 H1108 0.950 . S
C1116 C1117 1.386 . S
C1116 C1118 1.391 . S
C1117 C1116 1.386 . S
C1117 C1121 1.393 . S
C1118 H1110 0.950 . S
C1118 C1116 1.391 . S
C1118 C1119 1.400 . S
C1119 C1118 1.400 . S
C1119 C1120 1.398 . S
C1119 C1125 1.491 . S
C1120 H1111 0.950 . S
C1120 C1119 1.398 . S
C1120 C1121 1.391 . S
C1121 H1109 0.950 . S
C1121 C1117 1.393 . S
C1121 C1120 1.391 . S
C1122 H1112 0.950 . S
C1122 C1123 1.386 . S
C1122 C1124 1.391 . S
C1123 C1122 1.386 . S
C1123 C1127 1.393 . S
C1124 H1113 0.950 . S
C1124 C1122 1.391 . S
C1124 C1125 1.400 . S
C1125 C1119 1.491 . S
C1125 C1124 1.400 . S
C1125 C1126 1.398 . S
C1126 H1114 0.950 . S
C1126 C1125 1.398 . S
C1126 C1127 1.391 . S
C1127 H1115 0.950 . S
C1127 C1123 1.393 . S
C1127 C1126 1.391 . S
H1128 C1136 0.950 . S
H1129 C1141 0.950 . S
H1130 C1138 0.950 . S
H1131 C1140 0.950 . S
H1132 C1142 0.950 . S
H1133 C1144 0.950 . S
H1134 C1146 0.950 . S
H1135 C1147 0.950 . S
C1136 H1128 0.950 . S
C1136 C1137 1.386 . S
C1136 C1138 1.391 . S
C1137 C1136 1.386 . S
C1137 C1141 1.393 . S
C1138 H1130 0.950 . S
C1138 C1136 1.391 . S
C1138 C1139 1.400 . S
C1139 C1138 1.400 . S
C1139 C1140 1.398 . S
C1139 C1145 1.491 . S
C1140 H1131 0.950 . S
C1140 C1139 1.398 . S
C1140 C1141 1.391 . S
C1141 H1129 0.950 . S
C1141 C1137 1.393 . S
C1141 C1140 1.391 . S
C1142 H1132 0.950 . S
C1142 C1143 1.386 . S
C1142 C1144 1.391 . S
C1143 C1142 1.386 . S
C1143 C1147 1.393 . S
C1144 H1133 0.950 . S
C1144 C1142 1.391 . S
C1144 C1145 1.400 . S
C1145 C1139 1.491 . S
C1145 C1144 1.400 . S
C1145 C1146 1.398 . S
C1146 H1134 0.950 . S
C1146 C1145 1.398 . S
C1146 C1147 1.391 . S
C1147 H1135 0.950 . S
C1147 C1143 1.393 . S
C1147 C1146 1.391 . S
H1148 C1156 0.950 . S
H1149 C1161 0.950 . S
H1150 C1158 0.950 . S
H1151 C1160 0.950 . S
H1152 C1162 0.950 . S
H1153 C1164 0.950 . S
H1154 C1166 0.950 . S
H1155 C1167 0.950 . S
C1156 H1148 0.950 . S
C1156 C1157 1.386 . S
C1156 C1158 1.391 . S
C1157 C1156 1.386 . S
C1157 C1161 1.393 . S
C1158 H1150 0.950 . S
C1158 C1156 1.391 . S
C1158 C1159 1.400 . S
C1159 C1158 1.400 . S
C1159 C1160 1.398 . S
C1159 C1165 1.491 . S
C1160 H1151 0.950 . S
C1160 C1159 1.398 . S
C1160 C1161 1.391 . S
C1161 H1149 0.950 . S
C1161 C1157 1.393 . S
C1161 C1160 1.391 . S
C1162 H1152 0.950 . S
C1162 C1163 1.386 . S
C1162 C1164 1.391 . S
C1163 C1162 1.386 . S
C1163 C1167 1.393 . S
C1164 H1153 0.950 . S
C1164 C1162 1.391 . S
C1164 C1165 1.400 . S
C1165 C1159 1.491 . S
C1165 C1164 1.400 . S
C1165 C1166 1.398 . S
C1166 H1154 0.950 . S
C1166 C1165 1.398 . S
C1166 C1167 1.391 . S
C1167 H1155 0.950 . S
C1167 C1163 1.393 . S
C1167 C1166 1.391 . S
H1168 C1176 0.950 . S
H1169 C1181 0.950 . S
H1170 C1178 0.950 . S
H1171 C1180 0.950 . S
H1172 C1182 0.950 . S
H1173 C1184 0.950 . S
H1174 C1186 0.950 . S
H1175 C1187 0.950 . S
C1176 H1168 0.950 . S
C1176 C1177 1.386 . S
C1176 C1178 1.391 . S
C1177 C1176 1.386 . S
C1177 C1181 1.393 . S
C1178 H1170 0.950 . S
C1178 C1176 1.391 . S
C1178 C1179 1.400 . S
C1179 C1178 1.400 . S
C1179 C1180 1.398 . S
C1179 C1185 1.491 . S
C1180 H1171 0.950 . S
C1180 C1179 1.398 . S
C1180 C1181 1.391 . S
C1181 H1169 0.950 . S
C1181 C1177 1.393 . S
C1181 C1180 1.391 . S
C1182 H1172 0.950 . S
C1182 C1183 1.386 . S
C1182 C1184 1.391 . S
C1183 C1182 1.386 . S
C1183 C1187 1.393 . S
C1184 H1173 0.950 . S
C1184 C1182 1.391 . S
C1184 C1185 1.400 . S
C1185 C1179 1.491 . S
C1185 C1184 1.400 . S
C1185 C1186 1.398 . S
C1186 H1174 0.950 . S
C1186 C1185 1.398 . S
C1186 C1187 1.391 . S
C1187 H1175 0.950 . S
C1187 C1183 1.393 . S
C1187 C1186 1.391 . S
H1188 C1196 0.950 . S
H1189 C1201 0.950 . S
H1190 C1198 0.950 . S
H1191 C1200 0.950 . S
H1192 C1202 0.950 . S
H1193 C1204 0.950 . S
H1194 C1206 0.950 . S
H1195 C1207 0.950 . S
C1196 H1188 0.950 . S
C1196 C1197 1.386 . S
C1196 C1198 1.391 . S
C1197 C1196 1.386 . S
C1197 C1201 1.393 . S
C1198 H1190 0.950 . S
C1198 C1196 1.391 . S
C1198 C1199 1.400 . S
C1199 C1198 1.400 . S
C1199 C1200 1.398 . S
C1199 C1205 1.491 . S
C1200 H1191 0.950 . S
C1200 C1199 1.398 . S
C1200 C1201 1.391 . S
C1201 H1189 0.950 . S
C1201 C1197 1.393 . S
C1201 C1200 1.391 . S
C1202 H1192 0.950 . S
C1202 C1203 1.386 . S
C1202 C1204 1.391 . S
C1203 C1202 1.386 . S
C1203 C1207 1.393 . S
C1204 H1193 0.950 . S
C1204 C1202 1.391 . S
C1204 C1205 1.400 . S
C1205 C1199 1.491 . S
C1205 C1204 1.400 . S
C1205 C1206 1.398 . S
C1206 H1194 0.950 . S
C1206 C1205 1.398 . S
C1206 C1207 1.391 . S
C1207 H1195 0.950 . S
C1207 C1203 1.393 . S
C1207 C1206 1.391 . S
H1208 C1216 0.950 . S
H1209 C1221 0.950 . S
H1210 C1218 0.950 . S
H1211 C1220 0.950 . S
H1212 C1222 0.950 . S
H1213 C1224 0.950 . S
H1214 C1226 0.950 . S
H1215 C1227 0.950 . S
C1216 H1208 0.950 . S
C1216 C1217 1.386 . S
C1216 C1218 1.391 . S
C1217 C1216 1.386 . S
C1217 C1221 1.393 . S
C1218 H1210 0.950 . S
C1218 C1216 1.391 . S
C1218 C1219 1.400 . S
C1219 C1218 1.400 . S
C1219 C1220 1.398 . S
C1219 C1225 1.491 1_565 S
C1220 H1211 0.950 . S
C1220 C1219 1.398 . S
C1220 C1221 1.391 . S
C1221 H1209 0.950 . S
C1221 C1217 1.393 . S
C1221 C1220 1.391 . S
C1222 H1212 0.950 . S
C1222 C1223 1.386 . S
C1222 C1224 1.391 . S
C1223 C1222 1.386 . S
C1223 C1227 1.393 . S
C1224 H1213 0.950 . S
C1224 C1222 1.391 . S
C1224 C1225 1.400 . S
C1225 C1219 1.491 1_545 S
C1225 C1224 1.400 . S
C1225 C1226 1.398 . S
C1226 H1214 0.950 . S
C1226 C1225 1.398 . S
C1226 C1227 1.391 . S
C1227 H1215 0.950 . S
C1227 C1223 1.393 . S
C1227 C1226 1.391 . S
H1228 C1236 0.950 . S
H1229 C1241 0.950 . S
H1230 C1238 0.950 . S
H1231 C1240 0.950 . S
H1232 C1242 0.950 . S
H1233 C1244 0.950 . S
H1234 C1246 0.950 . S
H1235 C1247 0.950 . S
C1236 H1228 0.950 . S
C1236 C1237 1.386 . S
C1236 C1238 1.391 . S
C1237 C1236 1.386 . S
C1237 C1241 1.393 . S
C1238 H1230 0.950 . S
C1238 C1236 1.391 . S
C1238 C1239 1.400 . S
C1239 C1238 1.400 . S
C1239 C1240 1.398 . S
C1239 C1245 1.491 1_655 S
C1240 H1231 0.950 . S
C1240 C1239 1.398 . S
C1240 C1241 1.391 . S
C1241 H1229 0.950 . S
C1241 C1237 1.393 . S
C1241 C1240 1.391 . S
C1242 H1232 0.950 . S
C1242 C1243 1.386 . S
C1242 C1244 1.391 . S
C1243 C1242 1.386 . S
C1243 C1247 1.393 . S
C1244 H1233 0.950 . S
C1244 C1242 1.391 . S
C1244 C1245 1.400 . S
C1245 C1239 1.491 1_455 S
C1245 C1244 1.400 . S
C1245 C1246 1.398 . S
C1246 H1234 0.950 . S
C1246 C1245 1.398 . S
C1246 C1247 1.391 . S
C1247 H1235 0.950 . S
C1247 C1243 1.393 . S
C1247 C1246 1.391 . S
H1248 C1256 0.950 . S
H1249 C1261 0.950 . S
H1250 C1258 0.950 . S
H1251 C1260 0.950 . S
H1252 C1262 0.950 . S
H1253 C1264 0.950 . S
H1254 C1266 0.950 . S
H1255 C1267 0.950 . S
C1256 H1248 0.950 . S
C1256 C1257 1.386 . S
C1256 C1258 1.391 . S
C1257 C1256 1.386 . S
C1257 C1261 1.393 . S
C1258 H1250 0.950 . S
C1258 C1256 1.391 . S
C1258 C1259 1.400 . S
C1259 C1258 1.400 . S
C1259 C1260 1.398 . S
C1259 C1265 1.491 . S
C1260 H1251 0.950 . S
C1260 C1259 1.398 . S
C1260 C1261 1.391 . S
C1261 H1249 0.950 . S
C1261 C1257 1.393 . S
C1261 C1260 1.391 . S
C1262 H1252 0.950 . S
C1262 C1263 1.386 . S
C1262 C1264 1.391 . S
C1263 C1262 1.386 . S
C1263 C1267 1.393 . S
C1264 H1253 0.950 . S
C1264 C1262 1.391 . S
C1264 C1265 1.400 . S
C1265 C1259 1.491 . S
C1265 C1264 1.400 . S
C1265 C1266 1.398 . S
C1266 H1254 0.950 . S
C1266 C1265 1.398 . S
C1266 C1267 1.391 . S
C1267 H1255 0.950 . S
C1267 C1263 1.393 . S
C1267 C1266 1.391 . S
H1268 C1276 0.950 . S
H1269 C1281 0.950 . S
H1270 C1278 0.950 . S
H1271 C1280 0.950 . S
H1272 C1282 0.950 . S
H1273 C1284 0.950 . S
H1274 C1286 0.950 . S
H1275 C1287 0.950 . S
C1276 H1268 0.950 . S
C1276 C1277 1.386 . S
C1276 C1278 1.391 . S
C1277 C1276 1.386 . S
C1277 C1281 1.393 . S
C1278 H1270 0.950 . S
C1278 C1276 1.391 . S
C1278 C1279 1.400 . S
C1279 C1278 1.400 . S
C1279 C1280 1.398 . S
C1279 C1285 1.491 1_545 S
C1280 H1271 0.950 . S
C1280 C1279 1.398 . S
C1280 C1281 1.391 . S
C1281 H1269 0.950 . S
C1281 C1277 1.393 . S
C1281 C1280 1.391 . S
C1282 H1272 0.950 . S
C1282 C1283 1.386 . S
C1282 C1284 1.391 . S
C1283 C1282 1.386 . S
C1283 C1287 1.393 . S
C1284 H1273 0.950 . S
C1284 C1282 1.391 . S
C1284 C1285 1.400 . S
C1285 C1279 1.491 1_565 S
C1285 C1284 1.400 . S
C1285 C1286 1.398 . S
C1286 H1274 0.950 . S
C1286 C1285 1.398 . S
C1286 C1287 1.391 . S
C1287 H1275 0.950 . S
C1287 C1283 1.393 . S
C1287 C1286 1.391 . S
H1288 C1296 0.950 . S
H1289 C1301 0.950 . S
H1290 C1298 0.950 . S
H1291 C1300 0.950 . S
H1292 C1302 0.950 . S
H1293 C1304 0.950 . S
H1294 C1306 0.950 . S
H1295 C1307 0.950 . S
C1296 H1288 0.950 . S
C1296 C1297 1.386 . S
C1296 C1298 1.391 . S
C1297 C1296 1.386 . S
C1297 C1301 1.393 . S
C1298 H1290 0.950 . S
C1298 C1296 1.391 . S
C1298 C1299 1.400 . S
C1299 C1298 1.400 . S
C1299 C1300 1.398 . S
C1299 C1305 1.491 1_655 S
C1300 H1291 0.950 . S
C1300 C1299 1.398 . S
C1300 C1301 1.391 . S
C1301 H1289 0.950 . S
C1301 C1297 1.393 . S
C1301 C1300 1.391 . S
C1302 H1292 0.950 . S
C1302 C1303 1.386 . S
C1302 C1304 1.391 . S
C1303 C1302 1.386 . S
C1303 C1307 1.393 . S
C1304 H1293 0.950 . S
C1304 C1302 1.391 . S
C1304 C1305 1.400 . S
C1305 C1299 1.491 1_455 S
C1305 C1304 1.400 . S
C1305 C1306 1.398 . S
C1306 H1294 0.950 . S
C1306 C1305 1.398 . S
C1306 C1307 1.391 . S
C1307 H1295 0.950 . S
C1307 C1303 1.393 . S
C1307 C1306 1.391 . S
H1308 C1316 0.950 . S
H1309 C1321 0.950 . S
H1310 C1318 0.950 . S
H1311 C1320 0.950 . S
H1312 C1322 0.950 . S
H1313 C1324 0.950 . S
H1314 C1326 0.950 . S
H1315 C1327 0.950 . S
C1316 H1308 0.950 . S
C1316 C1317 1.386 . S
C1316 C1318 1.391 . S
C1317 C1316 1.386 . S
C1317 C1321 1.393 . S
C1318 H1310 0.950 . S
C1318 C1316 1.391 . S
C1318 C1319 1.400 . S
C1319 C1318 1.400 . S
C1319 C1320 1.398 . S
C1319 C1325 1.491 . S
C1320 H1311 0.950 . S
C1320 C1319 1.398 . S
C1320 C1321 1.391 . S
C1321 H1309 0.950 . S
C1321 C1317 1.393 . S
C1321 C1320 1.391 . S
C1322 H1312 0.950 . S
C1322 C1323 1.386 . S
C1322 C1324 1.391 . S
C1323 C1322 1.386 . S
C1323 C1327 1.393 . S
C1324 H1313 0.950 . S
C1324 C1322 1.391 . S
C1324 C1325 1.400 . S
C1325 C1319 1.491 . S
C1325 C1324 1.400 . S
C1325 C1326 1.398 . S
C1326 H1314 0.950 . S
C1326 C1325 1.398 . S
C1326 C1327 1.391 . S
C1327 H1315 0.950 . S
C1327 C1323 1.393 . S
C1327 C1326 1.391 . S
H1328 C1336 0.950 . S
H1329 C1341 0.950 . S
H1330 C1338 0.950 . S
H1331 C1340 0.950 . S
H1332 C1342 0.950 . S
H1333 C1344 0.950 . S
H1334 C1346 0.950 . S
H1335 C1347 0.950 . S
C1336 H1328 0.950 . S
C1336 C1337 1.386 . S
C1336 C1338 1.391 . S
C1337 C1336 1.386 . S
C1337 C1341 1.393 . S
C1338 H1330 0.950 . S
C1338 C1336 1.391 . S
C1338 C1339 1.400 . S
C1339 C1338 1.400 . S
C1339 C1340 1.398 . S
C1339 C1345 1.491 . S
C1340 H1331 0.950 . S
C1340 C1339 1.398 . S
C1340 C1341 1.391 . S
C1341 H1329 0.950 . S
C1341 C1337 1.393 . S
C1341 C1340 1.391 . S
C1342 H1332 0.950 . S
C1342 C1343 1.386 . S
C1342 C1344 1.391 . S
C1343 C1342 1.386 . S
C1343 C1347 1.393 . S
C1344 H1333 0.950 . S
C1344 C1342 1.391 . S
C1344 C1345 1.400 . S
C1345 C1339 1.491 . S
C1345 C1344 1.400 . S
C1345 C1346 1.398 . S
C1346 H1334 0.950 . S
C1346 C1345 1.398 . S
C1346 C1347 1.391 . S
C1347 H1335 0.950 . S
C1347 C1343 1.393 . S
C1347 C1346 1.391 . S
H1348 C1356 0.950 . S
H1349 C1361 0.950 . S
H1350 C1358 0.950 . S
H1351 C1360 0.950 . S
H1352 C1362 0.950 . S
H1353 C1364 0.950 . S
H1354 C1366 0.950 . S
H1355 C1367 0.950 . S
C1356 H1348 0.950 . S
C1356 C1357 1.386 . S
C1356 C1358 1.391 . S
C1357 C1356 1.386 . S
C1357 C1361 1.393 . S
C1358 H1350 0.950 . S
C1358 C1356 1.391 . S
C1358 C1359 1.400 . S
C1359 C1358 1.400 . S
C1359 C1360 1.398 . S
C1359 C1365 1.491 . S
C1360 H1351 0.950 . S
C1360 C1359 1.398 . S
C1360 C1361 1.391 . S
C1361 H1349 0.950 . S
C1361 C1357 1.393 . S
C1361 C1360 1.391 . S
C1362 H1352 0.950 . S
C1362 C1363 1.386 . S
C1362 C1364 1.391 . S
C1363 C1362 1.386 . S
C1363 C1367 1.393 . S
C1364 H1353 0.950 . S
C1364 C1362 1.391 . S
C1364 C1365 1.400 . S
C1365 C1359 1.491 . S
C1365 C1364 1.400 . S
C1365 C1366 1.398 . S
C1366 H1354 0.950 . S
C1366 C1365 1.398 . S
C1366 C1367 1.391 . S
C1367 H1355 0.950 . S
C1367 C1363 1.393 . S
C1367 C1366 1.391 . S
H1368 C1376 0.950 . S
H1369 C1381 0.950 . S
H1370 C1378 0.950 . S
H1371 C1380 0.950 . S
H1372 C1382 0.954 . S
H1373 C1384 0.950 . S
H1374 C1386 0.950 . S
H1375 C1387 0.950 . S
C1376 H1368 0.950 . S
C1376 C1377 1.386 . S
C1376 C1378 1.391 . S
C1377 C1376 1.386 . S
C1377 C1381 1.393 . S
C1378 H1370 0.950 . S
C1378 C1376 1.391 . S
C1378 C1379 1.400 . S
C1379 C1378 1.400 . S
C1379 C1380 1.398 . S
C1379 C1385 1.491 . S
C1380 H1371 0.950 . S
C1380 C1379 1.398 . S
C1380 C1381 1.391 . S
C1381 H1369 0.950 . S
C1381 C1377 1.393 . S
C1381 C1380 1.391 . S
C1382 H1372 0.954 . S
C1382 C1383 1.386 . S
C1382 C1384 1.391 . S
C1383 C1382 1.386 . S
C1383 C1387 1.393 . S
C1384 H1373 0.950 . S
C1384 C1382 1.391 . S
C1384 C1385 1.400 . S
C1385 C1379 1.491 . S
C1385 C1384 1.400 . S
C1385 C1386 1.398 . S
C1386 H1374 0.950 . S
C1386 C1385 1.398 . S
C1386 C1387 1.391 . S
C1387 H1375 0.950 . S
C1387 C1383 1.393 . S
C1387 C1386 1.391 . S
H1388 C1396 0.950 . S
H1389 C1401 0.950 . S
H1390 C1398 0.950 . S
H1391 C1400 0.950 . S
H1392 C1402 0.950 . S
H1393 C1404 0.950 . S
H1394 C1406 0.950 . S
H1395 C1407 0.950 . S
C1396 H1388 0.950 . S
C1396 C1397 1.386 . S
C1396 C1398 1.391 . S
C1397 C1396 1.386 . S
C1397 C1401 1.393 . S
C1398 H1390 0.950 . S
C1398 C1396 1.391 . S
C1398 C1399 1.400 . S
C1399 C1398 1.400 . S
C1399 C1400 1.398 . S
C1399 C1405 1.491 . S
C1400 H1391 0.950 . S
C1400 C1399 1.398 . S
C1400 C1401 1.391 . S
C1401 H1389 0.950 . S
C1401 C1397 1.393 . S
C1401 C1400 1.391 . S
C1402 H1392 0.950 . S
C1402 C1403 1.386 . S
C1402 C1404 1.391 . S
C1403 C1402 1.386 . S
C1403 C1407 1.393 . S
C1404 H1393 0.950 . S
C1404 C1402 1.391 . S
C1404 C1405 1.400 . S
C1405 C1399 1.491 . S
C1405 C1404 1.400 . S
C1405 C1406 1.398 . S
C1406 H1394 0.950 . S
C1406 C1405 1.398 . S
C1406 C1407 1.391 . S
C1407 H1395 0.950 . S
C1407 C1403 1.393 . S
C1407 C1406 1.391 . S
H1408 C1416 0.950 . S
H1409 C1421 0.950 . S
H1410 C1418 0.950 . S
H1411 C1420 0.950 . S
H1412 C1422 0.950 . S
H1413 C1424 0.950 . S
H1414 C1426 0.950 . S
H1415 C1427 0.950 1_556 S
C1416 H1408 0.950 . S
C1416 C1417 1.386 . S
C1416 C1418 1.391 . S
C1417 C1416 1.386 . S
C1417 C1421 1.393 . S
C1418 H1410 0.950 . S
C1418 C1416 1.391 . S
C1418 C1419 1.400 . S
C1419 C1418 1.400 . S
C1419 C1420 1.398 . S
C1419 C1425 1.491 . S
C1420 H1411 0.950 . S
C1420 C1419 1.398 . S
C1420 C1421 1.391 . S
C1421 H1409 0.950 . S
C1421 C1417 1.393 . S
C1421 C1420 1.391 . S
C1422 H1412 0.950 . S
C1422 C1423 1.386 . S
C1422 C1424 1.391 . S
C1423 C1422 1.386 . S
C1423 C1427 1.393 . S
C1424 H1413 0.950 . S
C1424 C1422 1.391 . S
C1424 C1425 1.400 . S
C1425 C1419 1.491 . S
C1425 C1424 1.400 . S
C1425 C1426 1.398 . S
C1426 H1414 0.950 . S
C1426 C1425 1.398 . S
C1426 C1427 1.391 . S
C1427 H1415 0.950 1_554 S
C1427 C1423 1.393 . S
C1427 C1426 1.391 . S
H1428 C1436 0.950 . S
H1429 C1441 0.950 . S
H1430 C1438 0.950 . S
H1431 C1440 0.950 . S
H1432 C1442 0.950 . S
H1433 C1444 0.950 . S
H1434 C1446 0.950 . S
H1435 C1447 0.950 . S
C1436 H1428 0.950 . S
C1436 C1437 1.386 . S
C1436 C1438 1.391 . S
C1437 C1436 1.386 . S
C1437 C1441 1.393 . S
C1438 H1430 0.950 . S
C1438 C1436 1.391 . S
C1438 C1439 1.400 . S
C1439 C1438 1.400 . S
C1439 C1440 1.398 . S
C1439 C1445 1.491 . S
C1440 H1431 0.950 . S
C1440 C1439 1.398 . S
C1440 C1441 1.391 . S
C1441 H1429 0.950 . S
C1441 C1437 1.393 . S
C1441 C1440 1.391 . S
C1442 H1432 0.950 . S
C1442 C1443 1.386 . S
C1442 C1444 1.391 . S
C1443 C1442 1.386 . S
C1443 C1447 1.393 . S
C1444 H1433 0.950 . S
C1444 C1442 1.391 . S
C1444 C1445 1.400 . S
C1445 C1439 1.491 . S
C1445 C1444 1.400 . S
C1445 C1446 1.398 . S
C1446 H1434 0.950 . S
C1446 C1445 1.398 . S
C1446 C1447 1.391 . S
C1447 H1435 0.950 . S
C1447 C1443 1.393 . S
C1447 C1446 1.391 . S
H1448 C1456 0.950 . S
H1449 C1461 0.950 . S
H1450 C1458 0.950 . S
H1451 C1460 0.950 . S
H1452 C1462 0.950 . S
H1453 C1464 0.950 . S
H1454 C1466 0.950 . S
H1455 C1467 0.950 . S
C1456 H1448 0.950 . S
C1456 C1457 1.386 . S
C1456 C1458 1.391 . S
C1457 C1456 1.386 . S
C1457 C1461 1.393 . S
C1458 H1450 0.950 . S
C1458 C1456 1.391 . S
C1458 C1459 1.400 . S
C1459 C1458 1.400 . S
C1459 C1460 1.398 . S
C1459 C1465 1.491 . S
C1460 H1451 0.950 . S
C1460 C1459 1.398 . S
C1460 C1461 1.391 . S
C1461 H1449 0.950 . S
C1461 C1457 1.393 . S
C1461 C1460 1.391 . S
C1462 H1452 0.950 . S
C1462 C1463 1.386 . S
C1462 C1464 1.391 . S
C1463 C1462 1.386 . S
C1463 C1467 1.393 . S
C1464 H1453 0.950 . S
C1464 C1462 1.391 . S
C1464 C1465 1.400 . S
C1465 C1459 1.491 . S
C1465 C1464 1.400 . S
C1465 C1466 1.398 . S
C1466 H1454 0.950 . S
C1466 C1465 1.398 . S
C1466 C1467 1.391 . S
C1467 H1455 0.950 . S
C1467 C1463 1.393 . S
C1467 C1466 1.391 . S
H1468 C1476 0.950 . S
H1469 C1481 0.950 . S
H1470 C1478 0.950 . S
H1471 C1480 0.950 . S
H1472 C1482 0.950 . S
H1473 C1484 0.950 . S
H1474 C1486 0.950 . S
H1475 C1487 0.950 . S
C1476 H1468 0.950 . S
C1476 C1477 1.386 . S
C1476 C1478 1.391 . S
C1477 C1476 1.386 . S
C1477 C1481 1.393 . S
C1478 H1470 0.950 . S
C1478 C1476 1.391 . S
C1478 C1479 1.400 . S
C1479 C1478 1.400 . S
C1479 C1480 1.398 . S
C1479 C1485 1.491 . S
C1480 H1471 0.950 . S
C1480 C1479 1.398 . S
C1480 C1481 1.391 . S
C1481 H1469 0.950 . S
C1481 C1477 1.393 . S
C1481 C1480 1.391 . S
C1482 H1472 0.950 . S
C1482 C1483 1.386 . S
C1482 C1484 1.391 . S
C1483 C1482 1.386 . S
C1483 C1487 1.393 . S
C1484 H1473 0.950 . S
C1484 C1482 1.391 . S
C1484 C1485 1.400 . S
C1485 C1479 1.491 . S
C1485 C1484 1.400 . S
C1485 C1486 1.398 . S
C1486 H1474 0.950 . S
C1486 C1485 1.398 . S
C1486 C1487 1.391 . S
C1487 H1475 0.950 . S
C1487 C1483 1.393 . S
C1487 C1486 1.391 . S
H1488 C1496 0.950 . S
H1489 C1501 0.950 . S
H1490 C1498 0.950 . S
H1491 C1500 0.950 . S
H1492 C1502 0.950 . S
H1493 C1504 0.950 . S
H1494 C1506 0.950 . S
H1495 C1507 0.950 . S
C1496 H1488 0.950 . S
C1496 C1497 1.386 . S
C1496 C1498 1.391 . S
C1497 C1496 1.386 . S
C1497 C1501 1.393 . S
C1498 H1490 0.950 . S
C1498 C1496 1.391 . S
C1498 C1499 1.400 . S
C1499 C1498 1.400 . S
C1499 C1500 1.398 . S
C1499 C1505 1.491 . S
C1500 H1491 0.950 . S
C1500 C1499 1.398 . S
C1500 C1501 1.391 . S
C1501 H1489 0.950 . S
C1501 C1497 1.393 . S
C1501 C1500 1.391 . S
C1502 H1492 0.950 . S
C1502 C1503 1.386 . S
C1502 C1504 1.391 . S
C1503 C1502 1.386 . S
C1503 C1507 1.393 . S
C1504 H1493 0.950 . S
C1504 C1502 1.391 . S
C1504 C1505 1.400 . S
C1505 C1499 1.491 . S
C1505 C1504 1.400 . S
C1505 C1506 1.398 . S
C1506 H1494 0.950 . S
C1506 C1505 1.398 . S
C1506 C1507 1.391 . S
C1507 H1495 0.950 . S
C1507 C1503 1.393 . S
C1507 C1506 1.391 . S
H1508 C1516 0.950 . S
H1509 C1521 0.950 . S
H1510 C1518 0.950 . S
H1511 C1520 0.950 . S
H1512 C1522 0.950 . S
H1513 C1524 0.950 . S
H1514 C1526 0.950 . S
H1515 C1527 0.950 . S
C1516 H1508 0.950 . S
C1516 C1517 1.386 . S
C1516 C1518 1.391 . S
C1517 C1516 1.386 . S
C1517 C1521 1.393 . S
C1518 H1510 0.950 . S
C1518 C1516 1.391 . S
C1518 C1519 1.400 . S
C1519 C1518 1.400 . S
C1519 C1520 1.398 . S
C1519 C1525 1.491 . S
C1520 H1511 0.950 . S
C1520 C1519 1.398 . S
C1520 C1521 1.391 . S
C1521 H1509 0.950 . S
C1521 C1517 1.393 . S
C1521 C1520 1.391 . S
C1522 H1512 0.950 . S
C1522 C1523 1.386 . S
C1522 C1524 1.391 . S
C1523 C1522 1.386 . S
C1523 C1527 1.393 . S
C1524 H1513 0.950 . S
C1524 C1522 1.391 . S
C1524 C1525 1.400 . S
C1525 C1519 1.491 . S
C1525 C1524 1.400 . S
C1525 C1526 1.398 . S
C1526 H1514 0.950 . S
C1526 C1525 1.398 . S
C1526 C1527 1.391 . S
C1527 H1515 0.950 . S
C1527 C1523 1.393 . S
C1527 C1526 1.391 . S
H1528 C1536 0.950 . S
H1529 C1541 0.950 . S
H1530 C1538 0.950 . S
H1531 C1540 0.950 . S
H1532 C1542 0.950 . S
H1533 C1544 0.950 . S
H1534 C1546 0.950 . S
H1535 C1547 0.950 . S
C1536 H1528 0.950 . S
C1536 C1537 1.386 . S
C1536 C1538 1.391 . S
C1537 C1536 1.386 . S
C1537 C1541 1.393 . S
C1538 H1530 0.950 . S
C1538 C1536 1.391 . S
C1538 C1539 1.400 . S
C1539 C1538 1.400 . S
C1539 C1540 1.398 . S
C1539 C1545 1.491 . S
C1540 H1531 0.950 . S
C1540 C1539 1.398 . S
C1540 C1541 1.391 . S
C1541 H1529 0.950 . S
C1541 C1537 1.393 . S
C1541 C1540 1.391 . S
C1542 H1532 0.950 . S
C1542 C1543 1.386 . S
C1542 C1544 1.391 . S
C1543 C1542 1.386 . S
C1543 C1547 1.393 . S
C1544 H1533 0.950 . S
C1544 C1542 1.391 . S
C1544 C1545 1.400 . S
C1545 C1539 1.491 . S
C1545 C1544 1.400 . S
C1545 C1546 1.398 . S
C1546 H1534 0.950 . S
C1546 C1545 1.398 . S
C1546 C1547 1.391 . S
C1547 H1535 0.950 . S
C1547 C1543 1.393 . S
C1547 C1546 1.391 . S
H1548 C1556 0.950 . S
H1549 C1561 0.950 . S
H1550 C1558 0.950 . S
H1551 C1560 0.950 . S
H1552 C1562 0.950 . S
H1553 C1564 0.950 . S
H1554 C1566 0.950 . S
H1555 C1567 0.950 . S
C1556 H1548 0.950 . S
C1556 C1557 1.386 . S
C1556 C1558 1.391 . S
C1557 C1556 1.386 . S
C1557 C1561 1.393 . S
C1558 H1550 0.950 . S
C1558 C1556 1.391 . S
C1558 C1559 1.400 . S
C1559 C1558 1.400 . S
C1559 C1560 1.398 . S
C1559 C1565 1.491 . S
C1560 H1551 0.950 . S
C1560 C1559 1.398 . S
C1560 C1561 1.391 . S
C1561 H1549 0.950 . S
C1561 C1557 1.393 . S
C1561 C1560 1.391 . S
C1562 H1552 0.950 . S
C1562 C1563 1.386 . S
C1562 C1564 1.391 . S
C1563 C1562 1.386 . S
C1563 C1567 1.393 . S
C1564 H1553 0.950 . S
C1564 C1562 1.391 . S
C1564 C1565 1.400 . S
C1565 C1559 1.491 . S
C1565 C1564 1.400 . S
C1565 C1566 1.398 . S
C1566 H1554 0.950 . S
C1566 C1565 1.398 . S
C1566 C1567 1.391 . S
C1567 H1555 0.950 . S
C1567 C1563 1.393 . S
C1567 C1566 1.391 . S
H1568 C1576 0.950 . S
H1569 C1581 0.950 . S
H1570 C1578 0.950 . S
H1571 C1580 0.950 . S
H1572 C1582 0.950 . S
H1573 C1584 0.950 . S
H1574 C1586 0.950 . S
H1575 C1587 0.950 . S
C1576 H1568 0.950 . S
C1576 C1577 1.386 . S
C1576 C1578 1.391 . S
C1577 C1576 1.386 . S
C1577 C1581 1.393 . S
C1578 H1570 0.950 . S
C1578 C1576 1.391 . S
C1578 C1579 1.400 . S
C1579 C1578 1.400 . S
C1579 C1580 1.398 . S
C1579 C1585 1.491 . S
C1580 H1571 0.950 . S
C1580 C1579 1.398 . S
C1580 C1581 1.391 . S
C1581 H1569 0.950 . S
C1581 C1577 1.393 . S
C1581 C1580 1.391 . S
C1582 H1572 0.950 . S
C1582 C1583 1.386 . S
C1582 C1584 1.391 . S
C1583 C1582 1.386 . S
C1583 C1587 1.393 . S
C1584 H1573 0.950 . S
C1584 C1582 1.391 . S
C1584 C1585 1.400 . S
C1585 C1579 1.491 . S
C1585 C1584 1.400 . S
C1585 C1586 1.398 . S
C1586 H1574 0.950 . S
C1586 C1585 1.398 . S
C1586 C1587 1.391 . S
C1587 H1575 0.950 . S
C1587 C1583 1.393 . S
C1587 C1586 1.391 . S
H1588 C1596 0.950 . S
H1589 C1601 0.950 . S
H1590 C1598 0.950 . S
H1591 C1600 0.950 . S
H1592 C1602 0.950 . S
H1593 C1604 0.950 . S
H1594 C1606 0.950 . S
H1595 C1607 0.950 . S
C1596 H1588 0.950 . S
C1596 C1597 1.386 . S
C1596 C1598 1.391 . S
C1597 C1596 1.386 . S
C1597 C1601 1.393 . S
C1598 H1590 0.950 . S
C1598 C1596 1.391 . S
C1598 C1599 1.400 . S
C1599 C1598 1.400 . S
C1599 C1600 1.398 . S
C1599 C1605 1.491 . S
C1600 H1591 0.950 . S
C1600 C1599 1.398 . S
C1600 C1601 1.391 . S
C1601 H1589 0.950 . S
C1601 C1597 1.393 . S
C1601 C1600 1.391 . S
C1602 H1592 0.950 . S
C1602 C1603 1.386 . S
C1602 C1604 1.391 . S
C1603 C1602 1.386 . S
C1603 C1607 1.393 . S
C1604 H1593 0.950 . S
C1604 C1602 1.391 . S
C1604 C1605 1.400 . S
C1605 C1599 1.491 . S
C1605 C1604 1.400 . S
C1605 C1606 1.398 . S
C1606 H1594 0.950 . S
C1606 C1605 1.398 . S
C1606 C1607 1.391 . S
C1607 H1595 0.950 . S
C1607 C1603 1.393 . S
C1607 C1606 1.391 . S
H1608 C1616 0.950 . S
H1609 C1621 0.950 . S
H1610 C1618 0.950 . S
H1611 C1620 0.950 . S
H1612 C1622 0.950 . S
H1613 C1624 0.950 . S
H1614 C1626 0.950 . S
H1615 C1627 0.950 . S
C1616 H1608 0.950 . S
C1616 C1617 1.386 . S
C1616 C1618 1.391 . S
C1617 C1616 1.386 . S
C1617 C1621 1.393 . S
C1618 H1610 0.950 . S
C1618 C1616 1.391 . S
C1618 C1619 1.400 . S
C1619 C1618 1.400 . S
C1619 C1620 1.398 . S
C1619 C1625 1.491 . S
C1620 H1611 0.950 . S
C1620 C1619 1.398 . S
C1620 C1621 1.391 . S
C1621 H1609 0.950 . S
C1621 C1617 1.393 . S
C1621 C1620 1.391 . S
C1622 H1612 0.950 . S
C1622 C1623 1.386 . S
C1622 C1624 1.391 . S
C1623 C1622 1.386 . S
C1623 C1627 1.393 . S
C1624 H1613 0.950 . S
C1624 C1622 1.391 . S
C1624 C1625 1.400 . S
C1625 C1619 1.491 . S
C1625 C1624 1.400 . S
C1625 C1626 1.398 . S
C1626 H1614 0.950 . S
C1626 C1625 1.398 . S
C1626 C1627 1.391 . S
C1627 H1615 0.950 . S
C1627 C1623 1.393 . S
C1627 C1626 1.391 . S
H1628 C1636 0.950 . S
H1629 C1641 0.950 . S
H1630 C1638 0.950 . S
H1631 C1640 0.950 . S
H1632 C1642 0.950 . S
H1633 C1644 0.950 . S
H1634 C1646 0.950 . S
H1635 C1647 0.950 . S
C1636 H1628 0.950 . S
C1636 C1637 1.386 . S
C1636 C1638 1.391 . S
C1637 C1636 1.386 . S
C1637 C1641 1.393 . S
C1638 H1630 0.950 . S
C1638 C1636 1.391 . S
C1638 C1639 1.400 . S
C1639 C1638 1.400 . S
C1639 C1640 1.398 . S
C1639 C1645 1.491 . S
C1640 H1631 0.950 . S
C1640 C1639 1.398 . S
C1640 C1641 1.391 . S
C1641 H1629 0.950 . S
C1641 C1637 1.393 . S
C1641 C1640 1.391 . S
C1642 H1632 0.950 . S
C1642 C1643 1.386 . S
C1642 C1644 1.391 . S
C1643 C1642 1.386 . S
C1643 C1647 1.393 . S
C1644 H1633 0.950 . S
C1644 C1642 1.391 . S
C1644 C1645 1.400 . S
C1645 C1639 1.491 . S
C1645 C1644 1.400 . S
C1645 C1646 1.398 . S
C1646 H1634 0.950 . S
C1646 C1645 1.398 . S
C1646 C1647 1.391 . S
C1647 H1635 0.950 . S
C1647 C1643 1.393 . S
C1647 C1646 1.391 . S
H1648 C1656 0.950 . S
H1649 C1661 0.950 . S
H1650 C1658 0.950 . S
H1651 C1660 0.950 . S
H1652 C1662 0.950 . S
H1653 C1664 0.950 . S
H1654 C1666 0.950 . S
H1655 C1667 0.950 . S
C1656 H1648 0.950 . S
C1656 C1657 1.386 . S
C1656 C1658 1.391 . S
C1657 C1656 1.386 . S
C1657 C1661 1.393 . S
C1658 H1650 0.950 . S
C1658 C1656 1.391 . S
C1658 C1659 1.400 . S
C1659 C1658 1.400 . S
C1659 C1660 1.398 . S
C1659 C1665 1.491 . S
C1660 H1651 0.950 . S
C1660 C1659 1.398 . S
C1660 C1661 1.391 . S
C1661 H1649 0.950 . S
C1661 C1657 1.393 . S
C1661 C1660 1.391 . S
C1662 H1652 0.950 . S
C1662 C1663 1.386 . S
C1662 C1664 1.391 . S
C1663 C1662 1.386 . S
C1663 C1667 1.393 . S
C1664 H1653 0.950 . S
C1664 C1662 1.391 . S
C1664 C1665 1.400 . S
C1665 C1659 1.491 . S
C1665 C1664 1.400 . S
C1665 C1666 1.398 . S
C1666 H1654 0.950 . S
C1666 C1665 1.398 . S
C1666 C1667 1.391 . S
C1667 H1655 0.950 . S
C1667 C1663 1.393 . S
C1667 C1666 1.391 . S
H1668 C1676 0.950 . S
H1669 C1681 0.950 . S
H1670 C1678 0.950 . S
H1671 C1680 0.950 . S
H1672 C1682 0.950 . S
H1673 C1684 0.950 . S
H1674 C1686 0.950 . S
H1675 C1687 0.950 . S
C1676 H1668 0.950 . S
C1676 C1677 1.386 . S
C1676 C1678 1.391 . S
C1677 C1676 1.386 . S
C1677 C1681 1.393 . S
C1678 H1670 0.950 . S
C1678 C1676 1.391 . S
C1678 C1679 1.400 . S
C1679 C1678 1.400 . S
C1679 C1680 1.398 . S
C1679 C1685 1.491 . S
C1680 H1671 0.950 . S
C1680 C1679 1.398 . S
C1680 C1681 1.391 . S
C1681 H1669 0.950 . S
C1681 C1677 1.393 . S
C1681 C1680 1.391 . S
C1682 H1672 0.950 . S
C1682 C1683 1.386 . S
C1682 C1684 1.391 . S
C1683 C1682 1.386 . S
C1683 C1687 1.393 . S
C1684 H1673 0.950 . S
C1684 C1682 1.391 . S
C1684 C1685 1.400 . S
C1685 C1679 1.491 . S
C1685 C1684 1.400 . S
C1685 C1686 1.398 . S
C1686 H1674 0.950 . S
C1686 C1685 1.398 . S
C1686 C1687 1.391 . S
C1687 H1675 0.950 . S
C1687 C1683 1.393 . S
C1687 C1686 1.391 . S
H1688 C1696 0.950 . S
H1689 C1701 0.950 . S
H1690 C1698 0.950 . S
H1691 C1700 0.950 . S
H1692 C1702 0.950 . S
H1693 C1704 0.950 . S
H1694 C1706 0.950 . S
H1695 C1707 0.950 . S
C1696 H1688 0.950 . S
C1696 C1697 1.386 . S
C1696 C1698 1.391 . S
C1697 C1696 1.386 . S
C1697 C1701 1.393 . S
C1698 H1690 0.950 . S
C1698 C1696 1.391 . S
C1698 C1699 1.400 . S
C1699 C1698 1.400 . S
C1699 C1700 1.398 . S
C1699 C1705 1.491 . S
C1700 H1691 0.950 . S
C1700 C1699 1.398 . S
C1700 C1701 1.391 . S
C1701 H1689 0.950 . S
C1701 C1697 1.393 . S
C1701 C1700 1.391 . S
C1702 H1692 0.950 . S
C1702 C1703 1.386 . S
C1702 C1704 1.391 . S
C1703 C1702 1.386 . S
C1703 C1707 1.393 . S
C1704 H1693 0.950 . S
C1704 C1702 1.391 . S
C1704 C1705 1.400 . S
C1705 C1699 1.491 . S
C1705 C1704 1.400 . S
C1705 C1706 1.398 . S
C1706 H1694 0.950 . S
C1706 C1705 1.398 . S
C1706 C1707 1.391 . S
C1707 H1695 0.950 . S
C1707 C1703 1.393 . S
C1707 C1706 1.391 . S
H1708 C1716 0.950 . S
H1709 C1721 0.950 . S
H1710 C1718 0.950 . S
H1711 C1720 0.950 . S
H1712 C1722 0.950 . S
H1713 C1724 0.950 . S
H1714 C1726 0.950 . S
H1715 C1727 0.950 . S
C1716 H1708 0.950 . S
C1716 C1717 1.386 . S
C1716 C1718 1.391 . S
C1717 C1716 1.386 . S
C1717 C1721 1.393 . S
C1718 H1710 0.950 . S
C1718 C1716 1.391 . S
C1718 C1719 1.400 . S
C1719 C1718 1.400 . S
C1719 C1720 1.398 . S
C1719 C1725 1.491 . S
C1720 H1711 0.950 . S
C1720 C1719 1.398 . S
C1720 C1721 1.391 . S
C1721 H1709 0.950 . S
C1721 C1717 1.393 . S
C1721 C1720 1.391 . S
C1722 H1712 0.950 . S
C1722 C1723 1.386 . S
C1722 C1724 1.391 . S
C1723 C1722 1.386 . S
C1723 C1727 1.393 . S
C1724 H1713 0.950 . S
C1724 C1722 1.391 . S
C1724 C1725 1.400 . S
C1725 C1719 1.491 . S
C1725 C1724 1.400 . S
C1725 C1726 1.398 . S
C1726 H1714 0.950 . S
C1726 C1725 1.398 . S
C1726 C1727 1.391 . S
C1727 H1715 0.950 . S
C1727 C1723 1.393 . S
C1727 C1726 1.391 . S
H1728 C1736 0.950 . S
H1729 C1741 0.950 . S
H1730 C1738 0.950 . S
H1731 C1740 0.950 . S
H1732 C1742 0.950 . S
H1733 C1744 0.950 . S
H1734 C1746 0.950 . S
H1735 C1747 0.950 . S
C1736 H1728 0.950 . S
C1736 C1737 1.386 . S
C1736 C1738 1.391 . S
C1737 C1736 1.386 . S
C1737 C1741 1.393 . S
C1738 H1730 0.950 . S
C1738 C1736 1.391 . S
C1738 C1739 1.400 . S
C1739 C1738 1.400 . S
C1739 C1740 1.398 . S
C1739 C1745 1.491 . S
C1740 H1731 0.950 . S
C1740 C1739 1.398 . S
C1740 C1741 1.391 . S
C1741 H1729 0.950 . S
C1741 C1737 1.393 . S
C1741 C1740 1.391 . S
C1742 H1732 0.950 . S
C1742 C1743 1.386 . S
C1742 C1744 1.391 . S
C1743 C1742 1.386 . S
C1743 C1747 1.393 . S
C1744 H1733 0.950 . S
C1744 C1742 1.391 . S
C1744 C1745 1.400 . S
C1745 C1739 1.491 . S
C1745 C1744 1.400 . S
C1745 C1746 1.398 . S
C1746 H1734 0.950 . S
C1746 C1745 1.398 . S
C1746 C1747 1.391 . S
C1747 H1735 0.950 . S
C1747 C1743 1.393 . S
C1747 C1746 1.391 . S
H1748 C1756 0.950 . S
H1749 C1761 0.950 . S
H1750 C1758 0.950 . S
H1751 C1760 0.950 . S
H1752 C1762 0.950 . S
H1753 C1764 0.950 . S
H1754 C1766 0.950 . S
H1755 C1767 0.950 . S
C1756 H1748 0.950 . S
C1756 C1757 1.386 . S
C1756 C1758 1.391 . S
C1757 C1756 1.386 . S
C1757 C1761 1.393 . S
C1758 H1750 0.950 . S
C1758 C1756 1.391 . S
C1758 C1759 1.400 . S
C1759 C1758 1.400 . S
C1759 C1760 1.398 . S
C1759 C1765 1.491 . S
C1760 H1751 0.950 . S
C1760 C1759 1.398 . S
C1760 C1761 1.391 . S
C1761 H1749 0.950 . S
C1761 C1757 1.393 . S
C1761 C1760 1.391 . S
C1762 H1752 0.950 . S
C1762 C1763 1.386 . S
C1762 C1764 1.391 . S
C1763 C1762 1.386 . S
C1763 C1767 1.393 . S
C1764 H1753 0.950 . S
C1764 C1762 1.391 . S
C1764 C1765 1.400 . S
C1765 C1759 1.491 . S
C1765 C1764 1.400 . S
C1765 C1766 1.398 . S
C1766 H1754 0.950 . S
C1766 C1765 1.398 . S
C1766 C1767 1.391 . S
C1767 H1755 0.950 . S
C1767 C1763 1.393 . S
C1767 C1766 1.391 . S
H1768 C1776 0.950 . S
H1769 C1781 0.950 . S
H1770 C1778 0.950 . S
H1771 C1780 0.950 . S
H1772 C1782 0.950 . S
H1773 C1784 0.950 . S
H1774 C1786 0.950 . S
H1775 C1787 0.950 . S
C1776 H1768 0.950 . S
C1776 C1777 1.386 . S
C1776 C1778 1.391 . S
C1777 C1776 1.386 . S
C1777 C1781 1.393 . S
C1778 H1770 0.950 . S
C1778 C1776 1.391 . S
C1778 C1779 1.400 . S
C1779 C1778 1.400 . S
C1779 C1780 1.398 . S
C1779 C1785 1.491 . S
C1780 H1771 0.950 . S
C1780 C1779 1.398 . S
C1780 C1781 1.391 . S
C1781 H1769 0.950 . S
C1781 C1777 1.393 . S
C1781 C1780 1.391 . S
C1782 H1772 0.950 . S
C1782 C1783 1.386 . S
C1782 C1784 1.391 . S
C1783 C1782 1.386 . S
C1783 C1787 1.393 . S
C1784 H1773 0.950 . S
C1784 C1782 1.391 . S
C1784 C1785 1.400 . S
C1785 C1779 1.491 . S
C1785 C1784 1.400 . S
C1785 C1786 1.398 . S
C1786 H1774 0.950 . S
C1786 C1785 1.398 . S
C1786 C1787 1.391 . S
C1787 H1775 0.950 . S
C1787 C1783 1.393 . S
C1787 C1786 1.391 . S
H1788 C1796 0.950 . S
H1789 C1801 0.950 . S
H1790 C1798 0.950 . S
H1791 C1800 0.950 . S
H1792 C1802 0.950 . S
H1793 C1804 0.950 . S
H1794 C1806 0.950 . S
H1795 C1807 0.950 . S
C1796 H1788 0.950 . S
C1796 C1797 1.386 . S
C1796 C1798 1.391 . S
C1797 C1796 1.386 . S
C1797 C1801 1.393 . S
C1798 H1790 0.950 . S
C1798 C1796 1.391 . S
C1798 C1799 1.400 . S
C1799 C1798 1.400 . S
C1799 C1800 1.398 . S
C1799 C1805 1.491 1_455 S
C1800 H1791 0.950 . S
C1800 C1799 1.398 . S
C1800 C1801 1.391 . S
C1801 H1789 0.950 . S
C1801 C1797 1.393 . S
C1801 C1800 1.391 . S
C1802 H1792 0.950 . S
C1802 C1803 1.386 . S
C1802 C1804 1.391 . S
C1803 C1802 1.386 . S
C1803 C1807 1.393 . S
C1804 H1793 0.950 . S
C1804 C1802 1.391 . S
C1804 C1805 1.400 . S
C1805 C1799 1.491 1_655 S
C1805 C1804 1.400 . S
C1805 C1806 1.398 . S
C1806 H1794 0.950 . S
C1806 C1805 1.398 . S
C1806 C1807 1.391 . S
C1807 H1795 0.950 . S
C1807 C1803 1.393 . S
C1807 C1806 1.391 . S
H1808 C1816 0.950 . S
H1809 C1821 0.950 . S
H1810 C1818 0.950 . S
H1811 C1820 0.950 . S
H1812 C1822 0.950 . S
H1813 C1824 0.950 . S
H1814 C1826 0.950 . S
H1815 C1827 0.950 . S
C1816 H1808 0.950 . S
C1816 C1817 1.386 . S
C1816 C1818 1.391 . S
C1817 C1816 1.386 . S
C1817 C1821 1.393 . S
C1818 H1810 0.950 . S
C1818 C1816 1.391 . S
C1818 C1819 1.400 . S
C1819 C1818 1.400 . S
C1819 C1820 1.398 . S
C1819 C1825 1.491 . S
C1820 H1811 0.950 . S
C1820 C1819 1.398 . S
C1820 C1821 1.391 . S
C1821 H1809 0.950 . S
C1821 C1817 1.393 . S
C1821 C1820 1.391 . S
C1822 H1812 0.950 . S
C1822 C1823 1.386 . S
C1822 C1824 1.391 . S
C1823 C1822 1.386 . S
C1823 C1827 1.393 . S
C1824 H1813 0.950 . S
C1824 C1822 1.391 . S
C1824 C1825 1.400 . S
C1825 C1819 1.491 . S
C1825 C1824 1.400 . S
C1825 C1826 1.398 . S
C1826 H1814 0.950 . S
C1826 C1825 1.398 . S
C1826 C1827 1.391 . S
C1827 H1815 0.950 . S
C1827 C1823 1.393 . S
C1827 C1826 1.391 . S
H1828 C1836 0.950 . S
H1829 C1841 0.950 . S
H1830 C1838 0.950 . S
H1831 C1840 0.950 . S
H1832 C1842 0.950 . S
H1833 C1844 0.950 . S
H1834 C1846 0.950 . S
H1835 C1847 0.950 . S
C1836 H1828 0.950 . S
C1836 C1837 1.386 . S
C1836 C1838 1.391 . S
C1837 C1836 1.386 . S
C1837 C1841 1.393 . S
C1838 H1830 0.950 . S
C1838 C1836 1.391 . S
C1838 C1839 1.400 . S
C1839 C1838 1.400 . S
C1839 C1840 1.398 . S
C1839 C1845 1.491 1_545 S
C1840 H1831 0.950 . S
C1840 C1839 1.398 . S
C1840 C1841 1.391 . S
C1841 H1829 0.950 . S
C1841 C1837 1.393 . S
C1841 C1840 1.391 . S
C1842 H1832 0.950 . S
C1842 C1843 1.386 . S
C1842 C1844 1.391 . S
C1843 C1842 1.386 . S
C1843 C1847 1.393 . S
C1844 H1833 0.950 . S
C1844 C1842 1.391 . S
C1844 C1845 1.400 . S
C1845 C1839 1.491 1_565 S
C1845 C1844 1.400 . S
C1845 C1846 1.398 . S
C1846 H1834 0.950 . S
C1846 C1845 1.398 . S
C1846 C1847 1.391 . S
C1847 H1835 0.950 . S
C1847 C1843 1.393 . S
C1847 C1846 1.391 . S
H1848 C1856 0.950 . S
H1849 C1861 0.950 . S
H1850 C1858 0.950 . S
H1851 C1860 0.950 . S
H1852 C1862 0.950 . S
H1853 C1864 0.950 . S
H1854 C1866 0.950 . S
H1855 C1867 0.950 . S
C1856 H1848 0.950 . S
C1856 C1857 1.386 . S
C1856 C1858 1.391 . S
C1857 C1856 1.386 . S
C1857 C1861 1.393 . S
C1858 H1850 0.950 . S
C1858 C1856 1.391 . S
C1858 C1859 1.400 . S
C1859 C1858 1.400 . S
C1859 C1860 1.398 . S
C1859 C1865 1.491 1_544 S
C1860 H1851 0.950 . S
C1860 C1859 1.398 . S
C1860 C1861 1.391 . S
C1861 H1849 0.950 . S
C1861 C1857 1.393 . S
C1861 C1860 1.391 . S
C1862 H1852 0.950 . S
C1862 C1863 1.386 . S
C1862 C1864 1.391 . S
C1863 C1862 1.386 . S
C1863 C1867 1.393 . S
C1864 H1853 0.950 . S
C1864 C1862 1.391 . S
C1864 C1865 1.400 . S
C1865 C1859 1.491 1_566 S
C1865 C1864 1.400 . S
C1865 C1866 1.398 . S
C1866 H1854 0.950 . S
C1866 C1865 1.398 . S
C1866 C1867 1.391 . S
C1867 H1855 0.950 . S
C1867 C1863 1.393 . S
C1867 C1866 1.391 . S
H1868 C1876 0.950 . S
H1869 C1881 0.950 . S
H1870 C1878 0.950 . S
H1871 C1880 0.950 . S
H1872 C1882 0.950 . S
H1873 C1884 0.950 . S
H1874 C1886 0.950 . S
H1875 C1887 0.950 . S
C1876 H1868 0.950 . S
C1876 C1877 1.386 . S
C1876 C1878 1.391 . S
C1877 C1876 1.386 . S
C1877 C1881 1.393 1_554 S
C1878 H1870 0.950 . S
C1878 C1876 1.391 . S
C1878 C1879 1.400 . S
C1879 C1878 1.400 . S
C1879 C1880 1.398 1_554 S
C1879 C1885 1.491 1_654 S
C1880 H1871 0.950 . S
C1880 C1879 1.398 1_556 S
C1880 C1881 1.391 . S
C1881 H1869 0.950 . S
C1881 C1877 1.393 1_556 S
C1881 C1880 1.391 . S
C1882 H1872 0.950 . S
C1882 C1883 1.386 . S
C1882 C1884 1.391 . S
C1883 C1882 1.386 . S
C1883 C1887 1.393 1_556 S
C1884 H1873 0.950 . S
C1884 C1882 1.391 . S
C1884 C1885 1.400 . S
C1885 C1879 1.491 1_456 S
C1885 C1884 1.400 . S
C1885 C1886 1.398 1_556 S
C1886 H1874 0.950 . S
C1886 C1885 1.398 1_554 S
C1886 C1887 1.391 . S
C1887 H1875 0.950 . S
C1887 C1883 1.393 1_554 S
C1887 C1886 1.391 . S
H1888 C1896 0.950 . S
H1889 C1901 0.950 . S
H1890 C1898 0.950 . S
H1891 C1900 0.945 1_556 S
H1892 C1902 0.950 . S
H1893 C1904 0.950 . S
H1894 C1906 0.945 1_554 S
H1895 C1907 0.950 . S
C1896 H1888 0.950 . S
C1896 C1897 1.386 . S
C1896 C1898 1.391 . S
C1897 C1896 1.386 . S
C1897 C1901 1.393 . S
C1898 H1890 0.950 . S
C1898 C1896 1.391 . S
C1898 C1899 1.400 . S
C1899 C1898 1.400 . S
C1899 C1900 1.400 . S
C1899 C1905 1.491 1_554 S
C1900 H1891 0.945 1_554 S
C1900 C1899 1.400 . S
C1900 C1901 1.395 . S
C1901 H1889 0.950 . S
C1901 C1897 1.393 . S
C1901 C1900 1.395 . S
C1902 H1892 0.950 . S
C1902 C1903 1.386 . S
C1902 C1904 1.391 . S
C1903 C1902 1.386 . S
C1903 C1907 1.393 . S
C1904 H1893 0.950 . S
C1904 C1902 1.391 . S
C1904 C1905 1.400 . S
C1905 C1899 1.491 1_556 S
C1905 C1904 1.400 . S
C1905 C1906 1.400 . S
C1906 H1894 0.945 1_556 S
C1906 C1905 1.400 . S
C1906 C1907 1.395 . S
C1907 H1895 0.950 . S
C1907 C1903 1.393 . S
C1907 C1906 1.395 . S
C477 C134 1.352 . S
C483 C5 1.340 . S
C497 C147 1.343 . S
C503 C18 1.348 . S
C517 C29 1.358 . S
C523 C121 1.351 . S
C537 C44 1.353 . S
C543 C108 1.361 . S
C557 C57 1.353 . S
C563 C82 1.345 . S
C577 C101 1.356 . S
C583 C68 1.342 . S
C597 C56 1.361 . S
C603 C83 1.353 . S
C617 C75 1.343 . S
C623 C94 1.342 . S
C637 C109 1.358 . S
C643 C43 1.357 . S
C657 C36 1.346 . S
C663 C122 1.354 . S
C677 C135 1.358 . S
C683 C4 1.351 . S
C697 C148 1.341 . S
C703 C17 1.354 . S
C717 C296 1.347 . S
C723 C161 1.339 . S
C737 C303 1.356 . S
C743 C174 1.343 . S
C757 C187 1.350 . S
C763 C277 1.361 . S
C777 C200 1.352 . S
C783 C264 1.361 1_556 S
C797 C213 1.358 . S
C803 C238 1.350 1_556 S
C817 C226 1.347 . S
C823 C251 1.360 1_556 S
C837 C212 1.343 . S
C843 C239 1.344 . S
C857 C225 1.347 . S
C863 C252 1.339 . S
C877 C199 1.351 . S
C883 C265 1.339 . S
C897 C186 1.360 . S
C903 C278 1.347 . S
C917 C160 1.349 . S
C923 C289 1.357 . S
C937 C173 1.352 . S
C943 C304 1.340 . S
C957 C315 1.358 . S
C963 C452 1.352 . S
C977 C459 1.352 . S
C983 C328 1.340 . S
C997 C433 1.357 . S
C1003 C341 1.343 . S
C1017 C356 1.339 . S
C1023 C426 1.348 . S
C1037 C367 1.346 . S
C1043 C400 1.343 . S
C1057 C382 1.358 . S
C1063 C413 1.354 . S
C1077 C374 1.358 . S
C1083 C393 1.357 . S
C1097 C381 1.346 . S
C1103 C406 1.354 . S
C1117 C355 1.345 . S
C1123 C419 1.353 . S
C1137 C434 1.342 . S
C1143 C348 1.344 1_554 S
C1157 C322 1.343 1_554 S
C1163 C445 1.343 . S
C1177 C460 1.358 . S
C1183 C335 1.353 1_554 S
C1197 C49 1.567 . S
C1203 C10 1.569 . S
C1217 C62 1.568 . S
C1223 C23 1.567 . S
C1237 C30 1.568 . S
C1243 C69 1.569 . S
C1257 C127 1.568 . S
C1263 C88 1.568 . S
C1277 C140 1.568 . S
C1283 C95 1.570 . S
C1297 C153 1.567 . S
C1303 C114 1.570 . S
C1317 C205 1.567 . S
C1323 C166 1.569 . S
C1337 C218 1.570 . S
C1343 C179 1.567 . S
C1357 C192 1.569 . S
C1363 C231 1.568 . S
C1377 C244 1.567 . S
C1383 C283 1.570 . S
C1397 C290 1.569 . S
C1403 C257 1.568 . S
C1417 C270 1.570 . S
C1423 C309 1.567 . S
C1437 C361 1.569 . S
C1443 C316 1.568 . S
C1457 C368 1.569 . S
C1463 C329 1.569 . S
C1477 C342 1.567 . S
C1483 C387 1.568 . S
C1497 C394 1.567 . S
C1503 C439 1.569 . S
C1517 C407 1.568 . S
C1523 C446 1.567 . S
C1537 C420 1.569 . S
C1543 C465 1.567 . S
C1557 C3 1.554 . S
C1563 C237 1.554 . S
C1577 C250 1.553 . S
C1583 C16 1.553 . S
C1597 C263 1.554 . S
C1603 C31 1.554 . S
C1617 C432 1.555 . S
C1623 C42 1.555 . S
C1637 C447 1.553 . S
C1643 C55 1.553 . S
C1657 C458 1.553 . S
C1663 C70 1.553 . S
C1677 C81 1.553 . S
C1683 C317 1.553 . S
C1697 C330 1.554 . S
C1703 C96 1.554 . S
C1717 C343 1.554 . S
C1723 C107 1.554 . S
C1737 C120 1.554 . S
C1743 C198 1.554 . S
C1757 C133 1.554 . S
C1763 C211 1.554 . S
C1777 C146 1.553 . S
C1783 C224 1.553 . S
C1797 C395 1.554 . S
C1803 C159 1.554 . S
C1817 C408 1.553 . S
C1823 C172 1.553 . S
C1837 C185 1.554 . S
C1843 C421 1.554 . S
C1857 C276 1.554 . S
C1863 C354 1.554 . S
C1877 C291 1.554 . S
C1883 C369 1.554 . S
C1897 C302 1.554 . S
C1903 C380 1.554 . S
