# Generated by pormake.
# Topology unw, (4)-cn, num edge types: 1
# Building blocks:
#     Node 0, Type 0, BuildingBlock: ICAMEG_clean_sbu_1, # of connection points: 4
#     Node 1, Type 0, BuildingBlock: ICAMEG_clean_sbu_1, # of connection points: 4
#     Node 2, Type 0, BuildingBlock: ICAMEG_clean_sbu_1, # of connection points: 4
#     Node 3, Type 0, BuildingBlock: ICAMEG_clean_sbu_1, # of connection points: 4
#     Node 4, Type 0, BuildingBlock: ICAMEG_clean_sbu_1, # of connection points: 4
#     Node 5, Type 0, BuildingBlock: ICAMEG_clean_sbu_1, # of connection points: 4
#     Node 6, Type 0, BuildingBlock: ICAMEG_clean_sbu_1, # of connection points: 4
#     Node 7, Type 0, BuildingBlock: ICAMEG_clean_sbu_1, # of connection points: 4
#     Node 8, Type 0, BuildingBlock: ICAMEG_clean_sbu_1, # of connection points: 4
#     Node 9, Type 0, BuildingBlock: ICAMEG_clean_sbu_1, # of connection points: 4
#     Node 10, Type 0, BuildingBlock: ICAMEG_clean_sbu_1, # of connection points: 4
#     Node 11, Type 0, BuildingBlock: ICAMEG_clean_sbu_1, # of connection points: 4
#     Node 12, Type 0, BuildingBlock: ICAMEG_clean_sbu_1, # of connection points: 4
#     Node 13, Type 0, BuildingBlock: ICAMEG_clean_sbu_1, # of connection points: 4
#     Node 14, Type 0, BuildingBlock: ICAMEG_clean_sbu_1, # of connection points: 4
#     Node 15, Type 0, BuildingBlock: ICAMEG_clean_sbu_1, # of connection points: 4
#     Node 16, Type 0, BuildingBlock: ICAMEG_clean_sbu_1, # of connection points: 4
#     Node 17, Type 0, BuildingBlock: ICAMEG_clean_sbu_1, # of connection points: 4
#     Node 18, Type 0, BuildingBlock: ICAMEG_clean_sbu_1, # of connection points: 4
#     Node 19, Type 0, BuildingBlock: ICAMEG_clean_sbu_1, # of connection points: 4
#     Node 20, Type 0, BuildingBlock: ICAMEG_clean_sbu_1, # of connection points: 4
#     Node 21, Type 0, BuildingBlock: ICAMEG_clean_sbu_1, # of connection points: 4
#     Node 22, Type 0, BuildingBlock: ICAMEG_clean_sbu_1, # of connection points: 4
#     Node 23, Type 0, BuildingBlock: ICAMEG_clean_sbu_1, # of connection points: 4
#     Edge 24, Type (0, 0), BuildingBlock: KIFKEQ_clean_linker_1, # of connection points: 2
#     Edge 25, Type (0, 0), BuildingBlock: KIFKEQ_clean_linker_1, # of connection points: 2
#     Edge 26, Type (0, 0), BuildingBlock: KIFKEQ_clean_linker_1, # of connection points: 2
#     Edge 27, Type (0, 0), BuildingBlock: KIFKEQ_clean_linker_1, # of connection points: 2
#     Edge 28, Type (0, 0), BuildingBlock: KIFKEQ_clean_linker_1, # of connection points: 2
#     Edge 29, Type (0, 0), BuildingBlock: KIFKEQ_clean_linker_1, # of connection points: 2
#     Edge 30, Type (0, 0), BuildingBlock: KIFKEQ_clean_linker_1, # of connection points: 2
#     Edge 31, Type (0, 0), BuildingBlock: KIFKEQ_clean_linker_1, # of connection points: 2
#     Edge 32, Type (0, 0), BuildingBlock: KIFKEQ_clean_linker_1, # of connection points: 2
#     Edge 33, Type (0, 0), BuildingBlock: KIFKEQ_clean_linker_1, # of connection points: 2
#     Edge 34, Type (0, 0), BuildingBlock: KIFKEQ_clean_linker_1, # of connection points: 2
#     Edge 35, Type (0, 0), BuildingBlock: KIFKEQ_clean_linker_1, # of connection points: 2
#     Edge 36, Type (0, 0), BuildingBlock: KIFKEQ_clean_linker_1, # of connection points: 2
#     Edge 37, Type (0, 0), BuildingBlock: KIFKEQ_clean_linker_1, # of connection points: 2
#     Edge 38, Type (0, 0), BuildingBlock: KIFKEQ_clean_linker_1, # of connection points: 2
#     Edge 39, Type (0, 0), BuildingBlock: KIFKEQ_clean_linker_1, # of connection points: 2
#     Edge 40, Type (0, 0), BuildingBlock: KIFKEQ_clean_linker_1, # of connection points: 2
#     Edge 41, Type (0, 0), BuildingBlock: KIFKEQ_clean_linker_1, # of connection points: 2
#     Edge 42, Type (0, 0), BuildingBlock: KIFKEQ_clean_linker_1, # of connection points: 2
#     Edge 43, Type (0, 0), BuildingBlock: KIFKEQ_clean_linker_1, # of connection points: 2
#     Edge 44, Type (0, 0), BuildingBlock: KIFKEQ_clean_linker_1, # of connection points: 2
#     Edge 45, Type (0, 0), BuildingBlock: KIFKEQ_clean_linker_1, # of connection points: 2
#     Edge 46, Type (0, 0), BuildingBlock: KIFKEQ_clean_linker_1, # of connection points: 2
#     Edge 47, Type (0, 0), BuildingBlock: KIFKEQ_clean_linker_1, # of connection points: 2
#     Edge 48, Type (0, 0), BuildingBlock: KIFKEQ_clean_linker_1, # of connection points: 2
#     Edge 49, Type (0, 0), BuildingBlock: KIFKEQ_clean_linker_1, # of connection points: 2
#     Edge 50, Type (0, 0), BuildingBlock: KIFKEQ_clean_linker_1, # of connection points: 2
#     Edge 51, Type (0, 0), BuildingBlock: KIFKEQ_clean_linker_1, # of connection points: 2
#     Edge 52, Type (0, 0), BuildingBlock: KIFKEQ_clean_linker_1, # of connection points: 2
#     Edge 53, Type (0, 0), BuildingBlock: KIFKEQ_clean_linker_1, # of connection points: 2
#     Edge 54, Type (0, 0), BuildingBlock: KIFKEQ_clean_linker_1, # of connection points: 2
#     Edge 55, Type (0, 0), BuildingBlock: KIFKEQ_clean_linker_1, # of connection points: 2
#     Edge 56, Type (0, 0), BuildingBlock: KIFKEQ_clean_linker_1, # of connection points: 2
#     Edge 57, Type (0, 0), BuildingBlock: KIFKEQ_clean_linker_1, # of connection points: 2
#     Edge 58, Type (0, 0), BuildingBlock: KIFKEQ_clean_linker_1, # of connection points: 2
#     Edge 59, Type (0, 0), BuildingBlock: KIFKEQ_clean_linker_1, # of connection points: 2
#     Edge 60, Type (0, 0), BuildingBlock: KIFKEQ_clean_linker_1, # of connection points: 2
#     Edge 61, Type (0, 0), BuildingBlock: KIFKEQ_clean_linker_1, # of connection points: 2
#     Edge 62, Type (0, 0), BuildingBlock: KIFKEQ_clean_linker_1, # of connection points: 2
#     Edge 63, Type (0, 0), BuildingBlock: KIFKEQ_clean_linker_1, # of connection points: 2
#     Edge 64, Type (0, 0), BuildingBlock: KIFKEQ_clean_linker_1, # of connection points: 2
#     Edge 65, Type (0, 0), BuildingBlock: KIFKEQ_clean_linker_1, # of connection points: 2
#     Edge 66, Type (0, 0), BuildingBlock: KIFKEQ_clean_linker_1, # of connection points: 2
#     Edge 67, Type (0, 0), BuildingBlock: KIFKEQ_clean_linker_1, # of connection points: 2
#     Edge 68, Type (0, 0), BuildingBlock: KIFKEQ_clean_linker_1, # of connection points: 2
#     Edge 69, Type (0, 0), BuildingBlock: KIFKEQ_clean_linker_1, # of connection points: 2
#     Edge 70, Type (0, 0), BuildingBlock: KIFKEQ_clean_linker_1, # of connection points: 2
#     Edge 71, Type (0, 0), BuildingBlock: KIFKEQ_clean_linker_1, # of connection points: 2
# Relax obj value: 0.236
# Max RMSD: 0.173
# Mean RMSD: 0.172
data_MOF--net-unw--node1-ICAMEG_clean_sbu_1--edge1-KIFKEQ_clean_linker_1
_symmetry_space_group_name_H-M    P1
_symmetry_Int_Tables_number       1
_symmetry_cell_setting            triclinic
loop_
_symmetry_equiv_pos_as_xyz
'x, y, z'
_cell_length_a     52.750859
_cell_length_b     52.757428
_cell_length_c     52.748847
_cell_angle_alpha  89.98615
_cell_angle_beta   90.038281
_cell_angle_gamma 90.030471
loop_
_atom_site_label
_atom_site_type_symbol
_atom_site_fract_x
_atom_site_fract_y
_atom_site_fract_z
_atom_type_partial_charge
Co0 Co 0.15502 0.37746 0.26459 0.0
Co1 Co 0.11654 0.33993 0.22695 0.0
O2 O 0.12376 0.371 0.24578 0.0
C3 C 0.15387 0.41654 0.22503 0.0
O4 O 0.14512 0.39885 0.20991 0.0
C5 C 0.07744 0.3419 0.26647 0.0
O6 O 0.09524 0.35042 0.28161 0.0
O7 O 0.13007 0.31842 0.25473 0.0
O8 O 0.15321 0.34321 0.28059 0.0
H9 H 0.136 0.25367 0.19163 0.0
H10 H 0.11324 0.41488 0.26706 0.0
O11 O 0.15794 0.41165 0.24835 0.0
H12 H 0.12619 0.38619 0.35511 0.0
H13 H 0.21495 0.43137 0.3157 0.0
H14 H 0.20115 0.34763 0.27652 0.0
H15 H 0.15283 0.3695 0.32051 0.0
H16 H 0.1755 0.42227 0.29224 0.0
O17 O 0.08228 0.33779 0.24315 0.0
H18 H 0.14519 0.29306 0.21511 0.0
H19 H 0.07126 0.32064 0.1992 0.0
H20 H 0.24078 0.35583 0.29999 0.0
H21 H 0.0863 0.43224 0.30112 0.0
H22 H 0.24787 0.39796 0.31978 0.0
H23 H 0.09266 0.41782 0.3455 0.0
O24 O 0.1762 0.3634 0.23683 0.0
H25 H 0.06351 0.41007 0.19043 0.0
H26 H 0.12456 0.34202 0.17103 0.0
H27 H 0.10857 0.36916 0.13645 0.0
H28 H 0.0778 0.40345 0.14607 0.0
H29 H 0.08016 0.38261 0.22447 0.0
H30 H 0.06117 0.28145 0.17574 0.0
H31 H 0.09372 0.24768 0.17175 0.0
O32 O 0.15085 0.34088 0.21097 0.0
C33 C 0.14361 0.32186 0.27445 0.0
C34 C 0.1217 0.26829 0.19313 0.0
C35 C 0.07969 0.28388 0.18424 0.0
N36 N 0.1089 0.30924 0.20823 0.0
C37 C 0.12684 0.29067 0.20631 0.0
C38 C 0.0855 0.30601 0.19756 0.0
C39 C 0.09796 0.26494 0.18201 0.0
C40 C 0.11626 0.40871 0.28637 0.0
N41 N 0.13464 0.39132 0.29182 0.0
C42 C 0.10089 0.41852 0.30555 0.0
C43 C 0.10445 0.41039 0.33045 0.0
C44 C 0.12325 0.39264 0.33585 0.0
C45 C 0.13824 0.38322 0.31618 0.0
C46 C 0.21204 0.41291 0.30724 0.0
C47 C 0.20401 0.36593 0.28527 0.0
C48 C 0.18976 0.40766 0.29391 0.0
N49 N 0.18592 0.38434 0.2833 0.0
C50 C 0.22653 0.3705 0.29845 0.0
C51 C 0.2305 0.39415 0.30952 0.0
C52 C 0.17243 0.34992 0.21713 0.0
C53 C 0.07686 0.39514 0.186 0.0
C54 C 0.11121 0.35694 0.17536 0.0
C55 C 0.10219 0.37221 0.1557 0.0
C56 C 0.08491 0.39144 0.16111 0.0
N57 N 0.10319 0.36068 0.19971 0.0
C58 C 0.08626 0.37948 0.20517 0.0
Co59 Co 0.61337 0.14952 0.2623 0.0
Co60 Co 0.65543 0.11374 0.22703 0.0
O61 O 0.62285 0.11898 0.24366 0.0
C62 C 0.57786 0.14727 0.2197 0.0
O63 O 0.59753 0.1411 0.20583 0.0
C64 C 0.65283 0.07389 0.26568 0.0
O65 O 0.64264 0.09102 0.28054 0.0
O66 O 0.67407 0.12775 0.25652 0.0
O67 O 0.64655 0.14957 0.28073 0.0
H68 H 0.74291 0.13832 0.19848 0.0
H69 H 0.5783 0.1056 0.26166 0.0
O70 O 0.58031 0.15045 0.24355 0.0
H71 H 0.59988 0.11892 0.35166 0.0
H72 H 0.55234 0.20522 0.30989 0.0
H73 H 0.63934 0.19728 0.27671 0.0
H74 H 0.61749 0.14692 0.31859 0.0
H75 H 0.56553 0.16677 0.28677 0.0
O76 O 0.65808 0.07933 0.24273 0.0
H77 H 0.70148 0.14502 0.21907 0.0
H78 H 0.67899 0.07008 0.20009 0.0
H79 H 0.62705 0.23597 0.29991 0.0
H80 H 0.56007 0.07728 0.29413 0.0
H81 H 0.58326 0.2401 0.31669 0.0
H82 H 0.57092 0.08383 0.33949 0.0
O83 O 0.62822 0.17196 0.23593 0.0
H84 H 0.59087 0.0581 0.18451 0.0
H85 H 0.65707 0.1228 0.17125 0.0
H86 H 0.63342 0.10616 0.13447 0.0
H87 H 0.60007 0.07355 0.14099 0.0
H88 H 0.61485 0.07542 0.22078 0.0
H89 H 0.72027 0.06247 0.17948 0.0
H90 H 0.75252 0.09679 0.17849 0.0
O91 O 0.65393 0.14824 0.21162 0.0
C92 C 0.66867 0.14096 0.27601 0.0
C93 C 0.72898 0.12325 0.19868 0.0
C94 C 0.71628 0.08068 0.18804 0.0
N95 N 0.68775 0.10807 0.2105 0.0
C96 C 0.70545 0.12697 0.21023 0.0
C97 C 0.69296 0.08508 0.19976 0.0
C98 C 0.73436 0.09994 0.1875 0.0
C99 C 0.58291 0.10869 0.28139 0.0
N100 N 0.59882 0.12794 0.28825 0.0
C101 C 0.57262 0.09255 0.29968 0.0
C102 C 0.57874 0.09621 0.32512 0.0
C103 C 0.595 0.11588 0.33196 0.0
C104 C 0.60496 0.13164 0.31315 0.0
C105 C 0.57151 0.2036 0.30277 0.0
C106 C 0.62034 0.19885 0.28418 0.0
C107 C 0.57907 0.18189 0.28966 0.0
N108 N 0.60329 0.17965 0.28074 0.0
C109 C 0.61345 0.22084 0.2972 0.0
C110 C 0.58886 0.22316 0.30657 0.0
C111 C 0.64343 0.16925 0.21736 0.0
C112 C 0.6054 0.07225 0.18142 0.0
C113 C 0.64255 0.10864 0.17423 0.0
C114 C 0.62926 0.09926 0.15333 0.0
C115 C 0.61056 0.08096 0.15701 0.0
N116 N 0.63741 0.09997 0.1981 0.0
C117 C 0.6191 0.08204 0.20186 0.0
Co118 Co 0.8802 0.65142 0.22959 0.0
Co119 Co 0.842 0.60976 0.26275 0.0
O120 O 0.8733 0.61863 0.24516 0.0
C121 C 0.91904 0.64597 0.26894 0.0
O122 O 0.90116 0.63623 0.28321 0.0
C123 C 0.84421 0.57508 0.21954 0.0
O124 O 0.85107 0.59486 0.20614 0.0
O125 O 0.82089 0.62578 0.23599 0.0
O126 O 0.846 0.65184 0.21343 0.0
H127 H 0.7549 0.62531 0.29798 0.0
H128 H 0.91692 0.60948 0.22291 0.0
O129 O 0.91431 0.65211 0.24606 0.0
H130 H 0.88886 0.63195 0.13659 0.0
H131 H 0.93522 0.71542 0.18506 0.0
H132 H 0.85118 0.69905 0.22255 0.0
H133 H 0.87243 0.65512 0.17372 0.0
H134 H 0.92538 0.67388 0.20419 0.0
O135 O 0.84065 0.57713 0.24336 0.0
H136 H 0.7946 0.63685 0.27613 0.0
H137 H 0.82259 0.56203 0.28584 0.0
H138 H 0.86012 0.74078 0.20343 0.0
H139 H 0.93402 0.58594 0.1863 0.0
H140 H 0.90241 0.74917 0.18451 0.0
H141 H 0.91992 0.59711 0.14277 0.0
O142 O 0.86634 0.66977 0.25931 0.0
H143 H 0.9116 0.55372 0.29569 0.0
H144 H 0.84307 0.61276 0.31916 0.0
H145 H 0.86956 0.59372 0.3527 0.0
H146 H 0.90409 0.56394 0.34103 0.0
H147 H 0.88481 0.57338 0.26275 0.0
H148 H 0.7831 0.54958 0.3076 0.0
H149 H 0.74897 0.58138 0.31389 0.0
O150 O 0.84237 0.64256 0.2818 0.0
C151 C 0.8246 0.6416 0.21811 0.0
C152 C 0.76969 0.61132 0.29549 0.0
C153 C 0.7855 0.56881 0.30085 0.0
N154 N 0.81103 0.60025 0.28009 0.0
C155 C 0.79225 0.61778 0.28324 0.0
C156 C 0.80781 0.57596 0.28851 0.0
C157 C 0.76636 0.58666 0.30438 0.0
C158 C 0.91089 0.61458 0.204 0.0
N159 N 0.89383 0.63372 0.20043 0.0
C160 C 0.92055 0.60113 0.18336 0.0
C161 C 0.91261 0.60739 0.15894 0.0
C162 C 0.89517 0.62692 0.15546 0.0
C163 C 0.8859 0.63994 0.17655 0.0
C164 C 0.91669 0.71196 0.19315 0.0
C165 C 0.86954 0.70249 0.21414 0.0
C166 C 0.91102 0.68849 0.20403 0.0
N167 N 0.88761 0.68396 0.21417 0.0
C168 C 0.87453 0.72618 0.20343 0.0
C169 C 0.89827 0.73089 0.19285 0.0
C170 C 0.85211 0.66442 0.27807 0.0
C171 C 0.89657 0.56662 0.30102 0.0
C172 C 0.85811 0.59987 0.31394 0.0
C173 C 0.87301 0.58911 0.33301 0.0
C174 C 0.89237 0.57239 0.32645 0.0
N175 N 0.86234 0.59408 0.28905 0.0
C176 C 0.88128 0.57772 0.28246 0.0
Co177 Co 0.34363 0.87951 0.23274 0.0
Co178 Co 0.38055 0.83938 0.26892 0.0
O179 O 0.37442 0.8714 0.25151 0.0
C180 C 0.34489 0.91555 0.27493 0.0
O181 O 0.35223 0.89643 0.28901 0.0
C182 C 0.41893 0.84193 0.22889 0.0
O183 O 0.40126 0.85206 0.21464 0.0
O184 O 0.36555 0.81958 0.24066 0.0
O185 O 0.34501 0.84629 0.21458 0.0
H186 H 0.35807 0.75255 0.30106 0.0
H187 H 0.38616 0.91626 0.23317 0.0
O188 O 0.34136 0.91261 0.2512 0.0
H189 H 0.37357 0.89381 0.14329 0.0
H190 H 0.28522 0.93789 0.18496 0.0
H191 H 0.29738 0.85119 0.21772 0.0
H192 H 0.34632 0.87526 0.17646 0.0
H193 H 0.32415 0.92654 0.20829 0.0
O194 O 0.41435 0.83658 0.252 0.0
H195 H 0.35011 0.79326 0.27947 0.0
H196 H 0.42544 0.81711 0.29494 0.0
H197 H 0.25826 0.86166 0.19432 0.0
H198 H 0.41371 0.93544 0.20059 0.0
H199 H 0.25199 0.90529 0.17776 0.0
H200 H 0.40752 0.92416 0.15529 0.0
O201 O 0.32179 0.86393 0.25925 0.0
H202 H 0.43717 0.90563 0.30735 0.0
H203 H 0.37353 0.83943 0.32496 0.0
H204 H 0.39133 0.86428 0.36039 0.0
H205 H 0.42342 0.89762 0.35166 0.0
H206 H 0.41872 0.88047 0.27248 0.0
H207 H 0.43432 0.77656 0.31651 0.0
H208 H 0.40044 0.74399 0.31976 0.0
O209 O 0.3466 0.84107 0.28536 0.0
C210 C 0.35287 0.82422 0.22062 0.0
C211 C 0.37294 0.76664 0.29989 0.0
C212 C 0.41575 0.7801 0.30853 0.0
N213 N 0.38718 0.80765 0.28626 0.0
C214 C 0.36851 0.78977 0.28779 0.0
C215 C 0.41062 0.80301 0.29628 0.0
C216 C 0.39673 0.76184 0.31034 0.0
C217 C 0.38322 0.91145 0.21347 0.0
N218 N 0.36459 0.89478 0.2067 0.0
C219 C 0.39893 0.92229 0.19512 0.0
C220 C 0.39548 0.91593 0.16971 0.0
C221 C 0.37644 0.89888 0.16296 0.0
C222 C 0.3611 0.88841 0.18183 0.0
C223 C 0.28776 0.9188 0.19202 0.0
C224 C 0.29487 0.87016 0.21041 0.0
C225 C 0.30974 0.91227 0.20528 0.0
N226 N 0.31312 0.88816 0.21413 0.0
C227 C 0.27265 0.876 0.19725 0.0
C228 C 0.26913 0.9005 0.18799 0.0
C229 C 0.32513 0.85009 0.27879 0.0
C230 C 0.42326 0.8911 0.3114 0.0
C231 C 0.38746 0.85395 0.32103 0.0
C232 C 0.3975 0.86792 0.34116 0.0
C233 C 0.41551 0.88662 0.33625 0.0
N234 N 0.39521 0.85842 0.29672 0.0
C235 C 0.41283 0.87674 0.29175 0.0
Co236 Co 0.11362 0.65487 0.76518 0.0
Co237 Co 0.14992 0.61255 0.73078 0.0
O238 O 0.1192 0.6221 0.74907 0.0
C239 C 0.07396 0.65139 0.72633 0.0
O240 O 0.09126 0.64118 0.71169 0.0
C241 C 0.14759 0.57756 0.77379 0.0
O242 O 0.14143 0.59737 0.78746 0.0
O243 O 0.17211 0.62787 0.75713 0.0
O244 O 0.14808 0.65389 0.78079 0.0
H245 H 0.23662 0.62607 0.69372 0.0
H246 H 0.07556 0.61412 0.77184 0.0
O247 O 0.07925 0.65702 0.74923 0.0
H248 H 0.10567 0.63433 0.85803 0.0
H249 H 0.0616 0.72007 0.81143 0.0
H250 H 0.1445 0.70129 0.77259 0.0
H251 H 0.12237 0.65747 0.82097 0.0
H252 H 0.06963 0.67853 0.79151 0.0
O253 O 0.15083 0.57975 0.74993 0.0
H254 H 0.19771 0.63852 0.71644 0.0
H255 H 0.16753 0.56449 0.70703 0.0
H256 H 0.13738 0.74299 0.79249 0.0
H257 H 0.05817 0.59064 0.80838 0.0
H258 H 0.09567 0.75259 0.81209 0.0
H259 H 0.0733 0.60068 0.85184 0.0
O260 O 0.12766 0.67314 0.73551 0.0
H261 H 0.07809 0.55859 0.69908 0.0
H262 H 0.1477 0.61594 0.67442 0.0
H263 H 0.11998 0.59783 0.64137 0.0
H264 H 0.0849 0.5689 0.65364 0.0
H265 H 0.10613 0.57731 0.73152 0.0
H266 H 0.2062 0.55114 0.68439 0.0
H267 H 0.24104 0.58208 0.67751 0.0
O268 O 0.14999 0.64549 0.71194 0.0
C269 C 0.16919 0.64342 0.77539 0.0
C270 C 0.22152 0.61245 0.69647 0.0
C271 C 0.20446 0.57039 0.69126 0.0
N272 N 0.18023 0.60236 0.7127 0.0
C273 C 0.1994 0.61943 0.70921 0.0
C274 C 0.18262 0.57805 0.7041 0.0
C275 C 0.224 0.58776 0.68741 0.0
C276 C 0.08205 0.61873 0.79072 0.0
N277 N 0.09982 0.63722 0.7943 0.0
C278 C 0.07222 0.60531 0.81133 0.0
C279 C 0.08074 0.61093 0.8357 0.0
C280 C 0.09891 0.6298 0.83919 0.0
C281 C 0.10833 0.64281 0.81814 0.0
C282 C 0.07988 0.71608 0.80303 0.0
C283 C 0.12638 0.70526 0.78127 0.0
C284 C 0.08453 0.69261 0.7917 0.0
N285 N 0.10761 0.68741 0.78117 0.0
C286 C 0.12242 0.72893 0.79243 0.0
C287 C 0.09901 0.73432 0.80339 0.0
C288 C 0.14113 0.66759 0.71626 0.0
C289 C 0.09335 0.57112 0.69349 0.0
C290 C 0.13243 0.60342 0.6799 0.0
C291 C 0.11683 0.59318 0.66111 0.0
C292 C 0.09716 0.57694 0.668 0.0
N293 N 0.12859 0.59758 0.70485 0.0
C294 C 0.10935 0.58169 0.71177 0.0
Co295 Co 0.37466 0.15415 0.72813 0.0
Co296 Co 0.34022 0.11582 0.7685 0.0
O297 O 0.37009 0.12311 0.74777 0.0
C298 C 0.416 0.15427 0.76583 0.0
O299 O 0.40092 0.14198 0.78129 0.0
C300 C 0.33965 0.07753 0.728 0.0
O301 O 0.34852 0.09528 0.71304 0.0
O302 O 0.31678 0.13057 0.74283 0.0
O303 O 0.34026 0.15002 0.7131 0.0
H304 H 0.25722 0.13571 0.81073 0.0
H305 H 0.41392 0.11413 0.72576 0.0
O306 O 0.40901 0.15957 0.74332 0.0
H307 H 0.38288 0.1237 0.63807 0.0
H308 H 0.42393 0.21575 0.6744 0.0
H309 H 0.34189 0.19803 0.71555 0.0
H310 H 0.36568 0.15033 0.67243 0.0
H311 H 0.41764 0.17646 0.69899 0.0
O312 O 0.3362 0.08205 0.75149 0.0
H313 H 0.2949 0.1449 0.78462 0.0
H314 H 0.32214 0.07007 0.79627 0.0
H315 H 0.34727 0.23745 0.69096 0.0
H316 H 0.43183 0.08724 0.69194 0.0
H317 H 0.38854 0.24652 0.67019 0.0
H318 H 0.41622 0.0919 0.64774 0.0
O319 O 0.36043 0.1753 0.75585 0.0
H320 H 0.41155 0.06023 0.79834 0.0
H321 H 0.34661 0.12222 0.82428 0.0
H322 H 0.37573 0.10458 0.85638 0.0
H323 H 0.40846 0.07332 0.84346 0.0
H324 H 0.38218 0.07852 0.76684 0.0
H325 H 0.28464 0.05997 0.82232 0.0
H326 H 0.25191 0.09297 0.82979 0.0
O327 O 0.34313 0.14964 0.7852 0.0
C328 C 0.31912 0.14216 0.72176 0.0
C329 C 0.27141 0.12121 0.80773 0.0
C330 C 0.28678 0.07869 0.81421 0.0
N331 N 0.31085 0.10816 0.78923 0.0
C332 C 0.29284 0.12634 0.79306 0.0
C333 C 0.30796 0.08451 0.79942 0.0
C334 C 0.26843 0.09722 0.81839 0.0
C335 C 0.40723 0.11641 0.70652 0.0
N336 N 0.3889 0.13384 0.70103 0.0
C337 C 0.41736 0.10108 0.68748 0.0
C338 C 0.40857 0.10368 0.66269 0.0
C339 C 0.38985 0.12151 0.65725 0.0
C340 C 0.38015 0.1365 0.67678 0.0
C341 C 0.40584 0.21198 0.68331 0.0
C342 C 0.35984 0.20176 0.7064 0.0
C343 C 0.40218 0.18979 0.69728 0.0
N344 N 0.37935 0.18486 0.70848 0.0
C345 C 0.3628 0.22415 0.69258 0.0
C346 C 0.38597 0.22924 0.68095 0.0
C347 C 0.35 0.17147 0.77731 0.0
C348 C 0.39732 0.07378 0.80421 0.0
C349 C 0.36085 0.10867 0.81852 0.0
C350 C 0.37725 0.09871 0.83678 0.0
C351 C 0.3956 0.08116 0.82952 0.0
N352 N 0.36264 0.10129 0.79375 0.0
C353 C 0.38058 0.08411 0.78648 0.0
Co354 Co 0.84154 0.38197 0.72801 0.0
Co355 Co 0.88424 0.34405 0.7601 0.0
O356 O 0.87461 0.37545 0.7431 0.0
C357 C 0.84674 0.42017 0.76795 0.0
O358 O 0.85704 0.40227 0.78179 0.0
C359 C 0.9183 0.34778 0.71656 0.0
O360 O 0.89824 0.35432 0.70342 0.0
O361 O 0.86822 0.32305 0.73323 0.0
O362 O 0.84154 0.34807 0.71131 0.0
H363 H 0.8708 0.25608 0.79411 0.0
H364 H 0.88271 0.41961 0.72146 0.0
O365 O 0.84042 0.41573 0.74506 0.0
H366 H 0.85963 0.39268 0.63494 0.0
H367 H 0.77595 0.43647 0.6852 0.0
H368 H 0.79436 0.35214 0.7211 0.0
H369 H 0.83727 0.37511 0.67207 0.0
H370 H 0.81792 0.42711 0.70362 0.0
O371 O 0.91657 0.3437 0.74032 0.0
H372 H 0.85821 0.29592 0.77311 0.0
H373 H 0.93265 0.32521 0.78223 0.0
H374 H 0.75221 0.36059 0.70267 0.0
H375 H 0.90543 0.43785 0.68485 0.0
H376 H 0.74279 0.40302 0.68455 0.0
H377 H 0.89395 0.42432 0.64122 0.0
O378 O 0.82385 0.36723 0.7577 0.0
H379 H 0.93945 0.41419 0.79341 0.0
H380 H 0.88204 0.34411 0.81656 0.0
H381 H 0.90106 0.37039 0.85027 0.0
H382 H 0.93003 0.40569 0.83876 0.0
H383 H 0.91982 0.38758 0.76031 0.0
H384 H 0.94614 0.28559 0.80314 0.0
H385 H 0.91507 0.25074 0.8093 0.0
O386 O 0.85174 0.34348 0.77958 0.0
C387 C 0.85212 0.32676 0.71557 0.0
C388 C 0.88448 0.27119 0.79167 0.0
C389 C 0.92677 0.28774 0.79671 0.0
N390 N 0.89456 0.313 0.77682 0.0
C391 C 0.87742 0.29383 0.77991 0.0
C392 C 0.91903 0.31011 0.78485 0.0
C393 C 0.90933 0.26819 0.80016 0.0
C394 C 0.87748 0.41382 0.70251 0.0
N395 N 0.85861 0.39645 0.69888 0.0
C396 C 0.89046 0.42413 0.68187 0.0
C397 C 0.88403 0.4165 0.65739 0.0
C398 C 0.86478 0.39874 0.65385 0.0
C399 C 0.85223 0.38882 0.67495 0.0
C400 C 0.77985 0.41787 0.69294 0.0
C401 C 0.79047 0.37057 0.71302 0.0
C402 C 0.80357 0.41248 0.70341 0.0
N403 N 0.80867 0.389 0.71311 0.0
C404 C 0.76654 0.37528 0.70271 0.0
C405 C 0.76126 0.3991 0.69258 0.0
C406 C 0.82968 0.35285 0.77622 0.0
C407 C 0.92691 0.39882 0.79867 0.0
C408 C 0.89457 0.35949 0.81141 0.0
C409 C 0.90532 0.37427 0.83058 0.0
C410 C 0.92159 0.39406 0.82411 0.0
N411 N 0.89991 0.36426 0.78651 0.0
C412 C 0.91583 0.38363 0.78002 0.0
Co413 Co 0.65374 0.87881 0.76552 0.0
Co414 Co 0.61033 0.84346 0.73135 0.0
O415 O 0.62062 0.87398 0.7497 0.0
C416 C 0.6502 0.91906 0.72709 0.0
O417 O 0.63689 0.90345 0.71305 0.0
C418 C 0.57597 0.84586 0.77494 0.0
O419 O 0.59596 0.85191 0.78843 0.0
O420 O 0.6259 0.82088 0.75725 0.0
O421 O 0.65183 0.84462 0.78133 0.0
H422 H 0.62227 0.75692 0.69341 0.0
H423 H 0.61422 0.91807 0.77214 0.0
O424 O 0.65714 0.91286 0.74937 0.0
H425 H 0.6341 0.88805 0.85844 0.0
H426 H 0.72091 0.92905 0.8111 0.0
H427 H 0.69929 0.84665 0.7726 0.0
H428 H 0.65647 0.87039 0.82137 0.0
H429 H 0.67894 0.92217 0.79158 0.0
O430 O 0.57787 0.84268 0.75106 0.0
H431 H 0.63552 0.79555 0.71621 0.0
H432 H 0.56163 0.82645 0.70831 0.0
H433 H 0.74138 0.85263 0.7921 0.0
H434 H 0.59152 0.93641 0.80869 0.0
H435 H 0.75242 0.89408 0.81153 0.0
H436 H 0.6014 0.92134 0.8522 0.0
O437 O 0.67134 0.86424 0.73575 0.0
H438 H 0.55607 0.91569 0.70121 0.0
H439 H 0.61265 0.84611 0.67495 0.0
H440 H 0.59393 0.87407 0.64245 0.0
H441 H 0.56538 0.90913 0.65553 0.0
H442 H 0.5754 0.88743 0.73309 0.0
H443 H 0.54749 0.78806 0.68561 0.0
H444 H 0.57795 0.75301 0.67793 0.0
O445 O 0.64288 0.84327 0.71186 0.0
C446 C 0.6413 0.82361 0.77568 0.0
C447 C 0.60886 0.77212 0.6965 0.0
C448 C 0.56688 0.78959 0.69216 0.0
N449 N 0.59948 0.81338 0.71322 0.0
C450 C 0.61629 0.79409 0.70929 0.0
C451 C 0.57498 0.81126 0.70503 0.0
C452 C 0.58398 0.76993 0.68786 0.0
C453 C 0.61875 0.91159 0.79105 0.0
N454 N 0.63673 0.89332 0.79466 0.0
C455 C 0.60579 0.92197 0.81165 0.0
C456 C 0.61131 0.91348 0.83606 0.0
C457 C 0.62965 0.89479 0.83958 0.0
C458 C 0.64222 0.88484 0.81852 0.0
C459 C 0.71629 0.91087 0.80278 0.0
C460 C 0.70387 0.86466 0.78122 0.0
C461 C 0.69257 0.90687 0.79169 0.0
N462 N 0.68657 0.88392 0.78126 0.0
C463 C 0.72777 0.86797 0.79214 0.0
C464 C 0.73396 0.89124 0.80302 0.0
C465 C 0.66525 0.85146 0.7162 0.0
C466 C 0.56844 0.90045 0.69528 0.0
C467 C 0.60033 0.86139 0.68078 0.0
C468 C 0.58973 0.87712 0.6623 0.0
C469 C 0.57369 0.89677 0.66965 0.0
N470 N 0.59503 0.8651 0.70587 0.0
C471 C 0.57934 0.88433 0.71323 0.0
Co472 Co 0.26449 0.15245 0.37918 0.0
Co473 Co 0.22995 0.11097 0.34201 0.0
O474 O 0.2481 0.11992 0.37299 0.0
C475 C 0.22542 0.1485 0.41838 0.0
O476 O 0.21078 0.13875 0.40079 0.0
C477 C 0.27256 0.07566 0.34438 0.0
O478 O 0.28632 0.0953 0.35092 0.0
O479 O 0.25666 0.12631 0.32032 0.0
O480 O 0.28031 0.15191 0.34488 0.0
H481 H 0.19374 0.12605 0.25516 0.0
H482 H 0.27054 0.11099 0.41659 0.0
O483 O 0.24837 0.15409 0.41337 0.0
H484 H 0.3571 0.13107 0.38753 0.0
H485 H 0.31091 0.2164 0.43269 0.0
H486 H 0.27243 0.19935 0.34919 0.0
H487 H 0.32035 0.15477 0.37094 0.0
H488 H 0.29075 0.17514 0.42376 0.0
O489 O 0.24877 0.07804 0.34086 0.0
H490 H 0.21629 0.13773 0.29446 0.0
H491 H 0.20586 0.06338 0.32349 0.0
H492 H 0.29258 0.24079 0.35721 0.0
H493 H 0.30677 0.08695 0.43385 0.0
H494 H 0.312 0.24952 0.39923 0.0
H495 H 0.35041 0.09691 0.41925 0.0
O496 O 0.23505 0.17122 0.36521 0.0
H497 H 0.19703 0.05633 0.41274 0.0
H498 H 0.17362 0.11489 0.34371 0.0
H499 H 0.14013 0.09672 0.37082 0.0
H500 H 0.15177 0.06718 0.40561 0.0
H501 H 0.22993 0.07513 0.38532 0.0
H502 H 0.18339 0.0508 0.28442 0.0
H503 H 0.17711 0.0823 0.24997 0.0
O504 O 0.21147 0.14407 0.34222 0.0
C505 C 0.27502 0.14167 0.32363 0.0
C506 C 0.19623 0.1122 0.2701 0.0
C507 C 0.19045 0.06995 0.2865 0.0
N508 N 0.21202 0.10138 0.31138 0.0
C509 C 0.20887 0.11874 0.29243 0.0
C510 C 0.20319 0.07718 0.30857 0.0
C511 C 0.18693 0.08764 0.26718 0.0
C512 C 0.28951 0.11557 0.41033 0.0
N513 N 0.29336 0.13434 0.3929 0.0
C514 C 0.30993 0.10183 0.42009 0.0
C515 C 0.33441 0.10741 0.41186 0.0
C516 C 0.33818 0.12657 0.39405 0.0
C517 C 0.3173 0.13989 0.38469 0.0
C518 C 0.30259 0.21279 0.41428 0.0
C519 C 0.28104 0.20294 0.36743 0.0
C520 C 0.29114 0.18948 0.40912 0.0
N521 N 0.28071 0.18475 0.38587 0.0
C522 C 0.29233 0.22647 0.3719 0.0
C523 C 0.3032 0.23137 0.39549 0.0
C524 C 0.21589 0.16602 0.35144 0.0
C525 C 0.19172 0.06913 0.39761 0.0
C526 C 0.17883 0.10211 0.35886 0.0
C527 C 0.15978 0.09183 0.37411 0.0
C528 C 0.16633 0.07525 0.39361 0.0
N529 N 0.20368 0.09598 0.36287 0.0
C530 C 0.21025 0.07975 0.38196 0.0
Co531 Co 0.87964 0.22754 0.33888 0.0
Co532 Co 0.8416 0.26491 0.37703 0.0
O533 O 0.87292 0.24646 0.36999 0.0
C534 C 0.91822 0.26763 0.33982 0.0
O535 O 0.90036 0.28256 0.34851 0.0
C536 C 0.84415 0.22561 0.41634 0.0
O537 O 0.85285 0.21053 0.3986 0.0
O538 O 0.82045 0.23681 0.3636 0.0
O539 O 0.84557 0.21109 0.34073 0.0
H540 H 0.75491 0.29901 0.35716 0.0
H541 H 0.91708 0.22584 0.38074 0.0
O542 O 0.91362 0.24423 0.33589 0.0
H543 H 0.88952 0.13735 0.36842 0.0
H544 H 0.93427 0.17678 0.27944 0.0
H545 H 0.85002 0.21498 0.29275 0.0
H546 H 0.87241 0.17155 0.34149 0.0
H547 H 0.92481 0.20035 0.31871 0.0
O548 O 0.83965 0.24883 0.41138 0.0
H549 H 0.79462 0.27604 0.34818 0.0
H550 H 0.82188 0.29257 0.42212 0.0
H551 H 0.85857 0.19139 0.2533 0.0
H552 H 0.93486 0.1922 0.40797 0.0
H553 H 0.90097 0.17209 0.24646 0.0
H554 H 0.92101 0.14761 0.40193 0.0
O555 O 0.8652 0.25495 0.31751 0.0
H556 H 0.91118 0.30262 0.43003 0.0
H557 H 0.84297 0.32079 0.36869 0.0
H558 H 0.86961 0.35582 0.38456 0.0
H559 H 0.90399 0.34682 0.41548 0.0
H560 H 0.88422 0.26814 0.41349 0.0
H561 H 0.78237 0.31553 0.43201 0.0
H562 H 0.74859 0.31895 0.39934 0.0
O563 O 0.84238 0.28072 0.34262 0.0
C564 C 0.82413 0.21707 0.35018 0.0
C565 C 0.76953 0.29775 0.37151 0.0
C566 C 0.78493 0.307 0.41353 0.0
N567 N 0.81066 0.28326 0.38449 0.0
C568 C 0.7921 0.28486 0.3665 0.0
C569 C 0.80725 0.29396 0.40784 0.0
C570 C 0.76599 0.30891 0.39519 0.0
C571 C 0.91116 0.20644 0.37786 0.0
N572 N 0.89385 0.20063 0.35948 0.0
C573 C 0.92121 0.18749 0.39339 0.0
C574 C 0.9134 0.16248 0.39001 0.0
C575 C 0.89572 0.15671 0.37122 0.0
C576 C 0.88606 0.17615 0.35607 0.0
C577 C 0.9157 0.18502 0.28224 0.0
C578 C 0.86843 0.20644 0.29 0.0
C579 C 0.91024 0.1984 0.30442 0.0
N580 N 0.88679 0.20874 0.30814 0.0
C581 C 0.8732 0.19319 0.26758 0.0
C582 C 0.897 0.1824 0.26374 0.0
C583 C 0.85148 0.27449 0.32109 0.0
C584 C 0.89622 0.30679 0.41662 0.0
C585 C 0.85793 0.31673 0.38211 0.0
C586 C 0.87292 0.33664 0.39106 0.0
C587 C 0.8922 0.33158 0.40842 0.0
N588 N 0.86198 0.29248 0.39027 0.0
C589 C 0.88083 0.28736 0.40728 0.0
Co590 Co 0.72922 0.84003 0.37677 0.0
Co591 Co 0.76823 0.87665 0.33902 0.0
O592 O 0.74887 0.87063 0.36999 0.0
C593 C 0.76888 0.84088 0.4159 0.0
O594 O 0.78409 0.84977 0.39837 0.0
C595 C 0.72851 0.91558 0.33936 0.0
O596 O 0.71356 0.89804 0.34865 0.0
O597 O 0.74108 0.86197 0.3174 0.0
O598 O 0.71303 0.84219 0.34264 0.0
H599 H 0.80574 0.85376 0.25453 0.0
H600 H 0.72826 0.88224 0.41381 0.0
O601 O 0.74558 0.83684 0.41088 0.0
H602 H 0.63961 0.87143 0.38609 0.0
H603 H 0.67707 0.78175 0.43143 0.0
H604 H 0.71529 0.79438 0.34706 0.0
H605 H 0.67329 0.84366 0.36938 0.0
H606 H 0.70157 0.82046 0.42197 0.0
O607 O 0.75181 0.9107 0.33516 0.0
H608 H 0.78149 0.84606 0.29374 0.0
H609 H 0.79592 0.92133 0.31836 0.0
H610 H 0.69075 0.75548 0.35563 0.0
H611 H 0.69514 0.9103 0.4312 0.0
H612 H 0.67145 0.74898 0.39808 0.0
H613 H 0.65047 0.90502 0.41726 0.0
O614 O 0.75632 0.81794 0.36269 0.0
H615 H 0.80305 0.93291 0.40754 0.0
H616 H 0.8241 0.86908 0.34261 0.0
H617 H 0.85807 0.88649 0.36966 0.0
H618 H 0.84762 0.91867 0.40239 0.0
H619 H 0.76964 0.91483 0.38021 0.0
H620 H 0.82015 0.92995 0.2793 0.0
H621 H 0.82527 0.89598 0.2471 0.0
O622 O 0.78426 0.84251 0.34182 0.0
C623 C 0.72046 0.8499 0.32095 0.0
C624 C 0.80375 0.86868 0.26846 0.0
C625 C 0.81181 0.91145 0.28235 0.0
N626 N 0.78757 0.88312 0.30845 0.0
C627 C 0.79013 0.86439 0.29075 0.0
C628 C 0.79805 0.90647 0.30441 0.0
C629 C 0.81468 0.89238 0.2643 0.0
C630 C 0.70882 0.87968 0.40786 0.0
N631 N 0.70268 0.86127 0.39071 0.0
C632 C 0.69017 0.89569 0.41768 0.0
C633 C 0.66511 0.89274 0.40982 0.0
C634 C 0.659 0.8739 0.39233 0.0
C635 C 0.67816 0.85827 0.38289 0.0
C636 C 0.68533 0.78439 0.41284 0.0
C637 C 0.70678 0.79176 0.36552 0.0
C638 C 0.69926 0.80624 0.40739 0.0
N639 N 0.70964 0.80975 0.38392 0.0
C640 C 0.69298 0.76967 0.37028 0.0
C641 C 0.68218 0.76602 0.39412 0.0
C642 C 0.77687 0.8211 0.35036 0.0
C643 C 0.80785 0.91895 0.3933 0.0
C644 C 0.81941 0.88304 0.35684 0.0
C645 C 0.83873 0.89286 0.37207 0.0
C646 C 0.83285 0.91093 0.39042 0.0
N647 N 0.79495 0.89105 0.35976 0.0
C648 C 0.78903 0.90874 0.37771 0.0
Co649 Co 0.1128 0.7629 0.34129 0.0
Co650 Co 0.15096 0.72987 0.38311 0.0
O651 O 0.11952 0.7471 0.37402 0.0
C652 C 0.07446 0.72296 0.34589 0.0
O653 O 0.09242 0.70884 0.35571 0.0
C654 C 0.14767 0.77272 0.41815 0.0
O655 O 0.14081 0.78617 0.3984 0.0
O656 O 0.17188 0.75704 0.36758 0.0
O657 O 0.14677 0.77952 0.34145 0.0
H658 H 0.23872 0.69599 0.36828 0.0
H659 H 0.07548 0.76866 0.38285 0.0
O660 O 0.07894 0.74597 0.34003 0.0
H661 H 0.10259 0.85557 0.36154 0.0
H662 H 0.05794 0.80728 0.27704 0.0
H663 H 0.1423 0.7708 0.2941 0.0
H664 H 0.11983 0.81889 0.33823 0.0
H665 H 0.06754 0.78788 0.31852 0.0
O666 O 0.15166 0.74899 0.41593 0.0
H667 H 0.19884 0.71736 0.35645 0.0
H668 H 0.17015 0.70666 0.43088 0.0
H669 H 0.1336 0.79021 0.25244 0.0
H670 H 0.05759 0.8048 0.40652 0.0
H671 H 0.09115 0.80863 0.2437 0.0
H672 H 0.0712 0.84862 0.39593 0.0
O673 O 0.12728 0.73355 0.32285 0.0
H674 H 0.08117 0.69548 0.43803 0.0
H675 H 0.15073 0.67349 0.37962 0.0
H676 H 0.1245 0.63942 0.39804 0.0
H677 H 0.08946 0.65035 0.42751 0.0
H678 H 0.10773 0.72895 0.41898 0.0
H679 H 0.20981 0.68537 0.44361 0.0
H680 H 0.24439 0.67982 0.41215 0.0
O681 O 0.15123 0.7111 0.35012 0.0
C682 C 0.16812 0.77504 0.3519 0.0
C683 C 0.22374 0.69816 0.38212 0.0
C684 C 0.20753 0.69223 0.42441 0.0
N685 N 0.18206 0.71288 0.39284 0.0
C686 C 0.20108 0.71013 0.37549 0.0
C687 C 0.18513 0.70431 0.4171 0.0
C688 C 0.22692 0.68913 0.40675 0.0
C689 C 0.08131 0.7877 0.378 0.0
N690 N 0.09855 0.79169 0.35911 0.0
C691 C 0.0712 0.80807 0.39153 0.0
C692 C 0.07887 0.83265 0.3856 0.0
C693 C 0.09649 0.83656 0.36631 0.0
C694 C 0.10622 0.81573 0.35321 0.0
C695 C 0.07654 0.79941 0.28066 0.0
C696 C 0.12386 0.77899 0.29051 0.0
C697 C 0.08207 0.78839 0.30409 0.0
N698 N 0.10556 0.77853 0.30882 0.0
C699 C 0.11901 0.78986 0.26686 0.0
C700 C 0.09518 0.80016 0.26196 0.0
C701 C 0.14167 0.71491 0.32819 0.0
C702 C 0.09643 0.69048 0.42526 0.0
C703 C 0.13546 0.67838 0.39237 0.0
C704 C 0.12071 0.65902 0.40278 0.0
C705 C 0.10106 0.66516 0.41933 0.0
N706 N 0.13081 0.70316 0.39832 0.0
C707 C 0.11159 0.70934 0.41451 0.0
Co708 Co 0.22544 0.87981 0.65535 0.0
Co709 Co 0.26051 0.84477 0.61251 0.0
O710 O 0.2416 0.87499 0.62247 0.0
C711 C 0.26368 0.92006 0.65243 0.0
O712 O 0.27842 0.90316 0.64173 0.0
C713 C 0.21738 0.84656 0.57761 0.0
O714 O 0.20363 0.85242 0.59746 0.0
O715 O 0.23467 0.82187 0.62762 0.0
O716 O 0.21038 0.84515 0.65376 0.0
H717 H 0.29944 0.75874 0.62496 0.0
H718 H 0.21816 0.91842 0.61524 0.0
O719 O 0.24088 0.91439 0.65809 0.0
H720 H 0.13247 0.88663 0.63494 0.0
H721 H 0.17844 0.93001 0.72144 0.0
H722 H 0.2185 0.84803 0.70121 0.0
H723 H 0.16981 0.87014 0.6578 0.0
H724 H 0.19848 0.92299 0.67977 0.0
O725 O 0.24129 0.84378 0.57975 0.0
H726 H 0.27593 0.79701 0.6379 0.0
H727 H 0.2845 0.8282 0.56418 0.0
H728 H 0.19849 0.85414 0.74302 0.0
H729 H 0.18132 0.93561 0.59204 0.0
H730 H 0.17828 0.89538 0.75335 0.0
H731 H 0.13812 0.91963 0.60183 0.0
O732 O 0.25536 0.86599 0.6734 0.0
H733 H 0.29048 0.91783 0.55925 0.0
H734 H 0.31683 0.84814 0.61575 0.0
H735 H 0.34922 0.87677 0.59785 0.0
H736 H 0.33609 0.91189 0.56936 0.0
H737 H 0.25872 0.8889 0.57775 0.0
H738 H 0.30792 0.79016 0.55035 0.0
H739 H 0.31562 0.75515 0.58089 0.0
O740 O 0.27948 0.84475 0.64537 0.0
C741 C 0.21625 0.82426 0.64307 0.0
C742 C 0.29633 0.77393 0.61152 0.0
C743 C 0.30106 0.79155 0.56963 0.0
N744 N 0.2792 0.81496 0.60193 0.0
C745 C 0.28314 0.79569 0.61877 0.0
C746 C 0.28778 0.81302 0.57756 0.0
C747 C 0.30538 0.77191 0.58678 0.0
C748 C 0.19938 0.91156 0.61973 0.0
N749 N 0.1961 0.89343 0.63792 0.0
C750 C 0.17861 0.92128 0.60648 0.0
C751 C 0.15438 0.91228 0.61196 0.0
C752 C 0.1512 0.89376 0.63053 0.0
C753 C 0.17241 0.88446 0.64337 0.0
C754 C 0.18711 0.91193 0.71713 0.0
C755 C 0.20955 0.86595 0.7055 0.0
C756 C 0.19851 0.90786 0.69359 0.0
N757 N 0.20938 0.88503 0.68798 0.0
C758 C 0.19834 0.86933 0.72923 0.0
C759 C 0.18703 0.89249 0.73503 0.0
C760 C 0.27495 0.85313 0.66762 0.0
C761 C 0.29644 0.90256 0.57159 0.0
C762 C 0.31098 0.86343 0.60342 0.0
C763 C 0.3294 0.87954 0.5933 0.0
C764 C 0.32203 0.89923 0.5773 0.0
N765 N 0.28594 0.8668 0.5977 0.0
C766 C 0.27855 0.88606 0.58203 0.0
Co767 Co 0.15391 0.26782 0.61213 0.0
Co768 Co 0.11205 0.23304 0.64846 0.0
O769 O 0.1214 0.25119 0.61766 0.0
C770 C 0.15108 0.22765 0.5739 0.0
O771 O 0.14067 0.21362 0.59158 0.0
C772 C 0.07706 0.27593 0.64531 0.0
O773 O 0.09679 0.28941 0.63848 0.0
O774 O 0.12752 0.25953 0.6704 0.0
O775 O 0.15198 0.28451 0.64597 0.0
H776 H 0.12654 0.19556 0.73487 0.0
H777 H 0.11366 0.27221 0.57314 0.0
O778 O 0.15688 0.25066 0.57846 0.0
H779 H 0.13155 0.35981 0.60044 0.0
H780 H 0.21897 0.31354 0.55942 0.0
H781 H 0.19967 0.27739 0.64345 0.0
H782 H 0.15516 0.32388 0.61887 0.0
H783 H 0.17773 0.29302 0.56756 0.0
O784 O 0.0793 0.25221 0.64942 0.0
H785 H 0.13867 0.21816 0.69576 0.0
H786 H 0.06397 0.20985 0.66683 0.0
H787 H 0.24105 0.29793 0.63622 0.0
H788 H 0.08973 0.30759 0.55406 0.0
H789 H 0.25093 0.31618 0.59394 0.0
H790 H 0.09859 0.35175 0.56776 0.0
O791 O 0.17263 0.23918 0.62766 0.0
H792 H 0.05763 0.20091 0.57715 0.0
H793 H 0.1153 0.17668 0.64667 0.0
H794 H 0.09696 0.14346 0.61932 0.0
H795 H 0.06787 0.15552 0.58428 0.0
H796 H 0.07658 0.23353 0.60483 0.0
H797 H 0.05096 0.18734 0.70572 0.0
H798 H 0.08239 0.17999 0.74003 0.0
O799 O 0.14497 0.21423 0.64836 0.0
C800 C 0.14211 0.27855 0.66724 0.0
C801 C 0.11269 0.19856 0.72001 0.0
C802 C 0.07027 0.19398 0.70367 0.0
N803 N 0.10211 0.21507 0.67894 0.0
C804 C 0.11948 0.21126 0.69779 0.0
C805 C 0.07773 0.20676 0.68171 0.0
C806 C 0.08791 0.18985 0.72291 0.0
C807 C 0.11777 0.2914 0.57901 0.0
N808 N 0.13587 0.29601 0.59696 0.0
C809 C 0.1041 0.31134 0.56822 0.0
C810 C 0.10906 0.33612 0.57595 0.0
C811 C 0.12754 0.34065 0.59429 0.0
C812 C 0.14081 0.32024 0.60468 0.0
C813 C 0.21486 0.30575 0.57795 0.0
C814 C 0.20373 0.28551 0.62508 0.0
C815 C 0.19156 0.29409 0.58266 0.0
N816 N 0.18619 0.28432 0.60605 0.0
C817 C 0.22724 0.29702 0.62106 0.0
C818 C 0.23278 0.30722 0.59733 0.0
C819 C 0.1673 0.21955 0.6407 0.0
C820 C 0.07023 0.19542 0.5924 0.0
C821 C 0.1027 0.18206 0.63143 0.0
C822 C 0.09234 0.16317 0.61603 0.0
C823 C 0.07601 0.16995 0.59639 0.0
N824 N 0.0969 0.20699 0.62741 0.0
C825 C 0.08092 0.21379 0.60819 0.0
Co826 Co 0.76784 0.11407 0.65223 0.0
Co827 Co 0.73023 0.15125 0.6134 0.0
O828 O 0.74963 0.1205 0.62059 0.0
C829 C 0.72961 0.07362 0.64904 0.0
O830 O 0.71447 0.09006 0.63815 0.0
C831 C 0.77084 0.15093 0.57533 0.0
O832 O 0.78573 0.1424 0.59333 0.0
O833 O 0.75707 0.1732 0.62815 0.0
O834 O 0.7832 0.14854 0.65107 0.0
H835 H 0.69226 0.23621 0.63356 0.0
H836 H 0.77195 0.07713 0.61016 0.0
O837 O 0.7523 0.07964 0.65473 0.0
H838 H 0.85913 0.10737 0.62532 0.0
H839 H 0.81869 0.06074 0.71289 0.0
H840 H 0.77797 0.1437 0.69892 0.0
H841 H 0.82365 0.12311 0.65137 0.0
H842 H 0.79605 0.06971 0.67294 0.0
O843 O 0.74734 0.15448 0.57968 0.0
H844 H 0.71646 0.19723 0.64262 0.0
H845 H 0.70329 0.17078 0.56773 0.0
H846 H 0.80059 0.13563 0.73906 0.0
H847 H 0.80691 0.06072 0.58378 0.0
H848 H 0.82115 0.09389 0.74624 0.0
H849 H 0.85085 0.07593 0.59126 0.0
O850 O 0.73931 0.12729 0.67289 0.0
H851 H 0.69695 0.08158 0.55765 0.0
H852 H 0.67418 0.14759 0.61977 0.0
H853 H 0.64073 0.12008 0.60209 0.0
H854 H 0.65205 0.08681 0.57077 0.0
H855 H 0.72984 0.10937 0.576 0.0
H856 H 0.67914 0.20957 0.55777 0.0
H857 H 0.6734 0.24256 0.59086 0.0
O858 O 0.71329 0.14918 0.64719 0.0
C859 C 0.77667 0.16993 0.64191 0.0
C860 C 0.69452 0.22192 0.61902 0.0
C861 C 0.68718 0.20698 0.57647 0.0
N862 N 0.71098 0.18162 0.60583 0.0
C863 C 0.70811 0.19977 0.62407 0.0
C864 C 0.70089 0.18507 0.58221 0.0
C865 C 0.68397 0.22548 0.59505 0.0
C866 C 0.79107 0.08363 0.61367 0.0
N867 N 0.79579 0.10093 0.63235 0.0
C868 C 0.81076 0.07436 0.59861 0.0
C869 C 0.83541 0.08293 0.6028 0.0
C870 C 0.84007 0.10058 0.6219 0.0
C871 C 0.8199 0.10946 0.63655 0.0
C872 C 0.80989 0.07904 0.70995 0.0
C873 C 0.78707 0.12558 0.70182 0.0
C874 C 0.79704 0.08422 0.68738 0.0
N875 N 0.786 0.10732 0.68349 0.0
C876 C 0.79976 0.12108 0.72463 0.0
C877 C 0.81127 0.09764 0.72865 0.0
C878 C 0.71924 0.1401 0.66881 0.0
C879 C 0.69178 0.09605 0.57123 0.0
C880 C 0.67926 0.13311 0.6062 0.0
C881 C 0.66023 0.11763 0.59621 0.0
C882 C 0.66659 0.09897 0.57863 0.0
N883 N 0.70391 0.13013 0.59882 0.0
C884 C 0.7103 0.1119 0.58159 0.0
Co885 Co 0.83816 0.72658 0.61445 0.0
Co886 Co 0.87569 0.76387 0.65323 0.0
O887 O 0.86919 0.74544 0.6218 0.0
C888 C 0.84009 0.76661 0.57591 0.0
O889 O 0.84837 0.78155 0.59398 0.0
C890 C 0.91498 0.72457 0.65143 0.0
O891 O 0.89734 0.70948 0.64252 0.0
O892 O 0.86193 0.73572 0.67407 0.0
O893 O 0.83927 0.71014 0.64854 0.0
H894 H 0.8543 0.79788 0.73957 0.0
H895 H 0.88079 0.72476 0.57795 0.0
O896 O 0.83595 0.74323 0.58043 0.0
H897 H 0.86762 0.63632 0.60522 0.0
H898 H 0.77971 0.67597 0.5585 0.0
H899 H 0.79138 0.71415 0.64304 0.0
H900 H 0.84044 0.67058 0.62174 0.0
H901 H 0.81886 0.69941 0.56884 0.0
O902 O 0.90999 0.74781 0.65577 0.0
H903 H 0.84601 0.77496 0.69965 0.0
H904 H 0.92046 0.79149 0.67387 0.0
H905 H 0.75202 0.69067 0.6336 0.0
H906 H 0.90828 0.69106 0.56078 0.0
H907 H 0.74601 0.67139 0.59105 0.0
H908 H 0.90181 0.64648 0.57449 0.0
O909 O 0.81655 0.75407 0.62839 0.0
H910 H 0.92991 0.80174 0.58474 0.0
H911 H 0.8674 0.81975 0.65184 0.0
H912 H 0.88376 0.85484 0.62559 0.0
H913 H 0.91527 0.84592 0.59178 0.0
H914 H 0.91288 0.76719 0.6113 0.0
H915 H 0.92965 0.8144 0.71361 0.0
H916 H 0.89638 0.81779 0.74675 0.0
O917 O 0.84132 0.77967 0.65182 0.0
C918 C 0.8485 0.71602 0.67012 0.0
C919 C 0.86891 0.79664 0.72523 0.0
C920 C 0.91121 0.80588 0.71067 0.0
N921 N 0.88262 0.78218 0.68434 0.0
C922 C 0.86429 0.78377 0.70255 0.0
C923 C 0.90591 0.79286 0.68823 0.0
C924 C 0.89253 0.80778 0.72925 0.0
C925 C 0.87772 0.70537 0.5838 0.0
N926 N 0.85897 0.69961 0.6007 0.0
C927 C 0.8934 0.68639 0.5741 0.0
C928 C 0.88978 0.66138 0.58183 0.0
C929 C 0.87061 0.65567 0.59909 0.0
C930 C 0.85532 0.67515 0.60841 0.0
C931 C 0.78215 0.6842 0.57714 0.0
C932 C 0.78898 0.7056 0.62457 0.0
C933 C 0.80426 0.69751 0.58309 0.0
N934 N 0.80751 0.70784 0.60663 0.0
C935 C 0.76662 0.69243 0.61929 0.0
C936 C 0.76325 0.68164 0.59541 0.0
C937 C 0.81995 0.77357 0.64224 0.0
C938 C 0.91624 0.80588 0.59946 0.0
C939 C 0.88107 0.81573 0.63712 0.0
C940 C 0.8903 0.83567 0.62236 0.0
C941 C 0.90799 0.83066 0.6034 0.0
N942 N 0.88929 0.79148 0.63316 0.0
C943 C 0.90662 0.78641 0.61461 0.0
Co944 Co 0.34108 0.22697 0.11177 0.0
Co945 Co 0.38236 0.26059 0.15002 0.0
O946 O 0.3737 0.24297 0.11866 0.0
C947 C 0.34566 0.2668 0.07333 0.0
O948 O 0.35547 0.28096 0.09127 0.0
C949 C 0.4177 0.21786 0.14787 0.0
O950 O 0.39817 0.2041 0.14097 0.0
O951 O 0.3666 0.23361 0.17104 0.0
O952 O 0.34114 0.2105 0.1458 0.0
H953 H 0.36627 0.29544 0.23719 0.0
H954 H 0.3829 0.22136 0.07473 0.0
O955 O 0.33989 0.24378 0.07783 0.0
H956 H 0.362 0.13441 0.10202 0.0
H957 H 0.27748 0.18194 0.05665 0.0
H958 H 0.29376 0.21881 0.14101 0.0
H959 H 0.33835 0.17099 0.119 0.0
H960 H 0.31876 0.20167 0.06645 0.0
O961 O 0.41523 0.24164 0.15138 0.0
H962 H 0.35502 0.27358 0.1974 0.0
H963 H 0.4298 0.2842 0.16957 0.0
H964 H 0.25229 0.19908 0.13212 0.0
H965 H 0.40691 0.18531 0.05709 0.0
H966 H 0.24394 0.18047 0.08966 0.0
H967 H 0.39652 0.14147 0.0708 0.0
O968 O 0.3223 0.25623 0.12605 0.0
H969 H 0.43806 0.29433 0.08054 0.0
H970 H 0.37874 0.31697 0.14911 0.0
H971 H 0.39742 0.35078 0.12273 0.0
H972 H 0.42734 0.33952 0.08819 0.0
H973 H 0.41876 0.26111 0.10723 0.0
H974 H 0.44194 0.30598 0.20916 0.0
H975 H 0.41001 0.31182 0.24326 0.0
O976 O 0.34936 0.27926 0.14965 0.0
C977 C 0.35117 0.21539 0.16726 0.0
C978 C 0.38031 0.29314 0.22242 0.0
C979 C 0.42279 0.29903 0.2067 0.0
N980 N 0.39162 0.27798 0.18105 0.0
C981 C 0.37402 0.28089 0.1998 0.0
C982 C 0.41582 0.28667 0.18434 0.0
C983 C 0.40487 0.30229 0.22582 0.0
C984 C 0.37815 0.20231 0.0806 0.0
N985 N 0.35918 0.19825 0.09774 0.0
C986 C 0.39186 0.18198 0.07063 0.0
C987 C 0.38604 0.15739 0.07835 0.0
C988 C 0.36668 0.15342 0.09588 0.0
C989 C 0.35339 0.1742 0.10547 0.0
C990 C 0.28092 0.1899 0.07525 0.0
C991 C 0.29034 0.21054 0.12258 0.0
C992 C 0.30424 0.20111 0.0809 0.0
N993 N 0.30876 0.21108 0.10439 0.0
C994 C 0.26679 0.19949 0.11761 0.0
C995 C 0.26211 0.18908 0.09378 0.0
C996 C 0.32746 0.27512 0.14019 0.0
C997 C 0.4251 0.29947 0.09558 0.0
C998 C 0.39169 0.31193 0.13407 0.0
C999 C 0.40225 0.33115 0.11923 0.0
C1000 C 0.41905 0.32482 0.09986 0.0
N1001 N 0.39776 0.28712 0.12977 0.0
C1002 C 0.4142 0.28076 0.11081 0.0
Co1003 Co 0.37981 0.73374 0.84329 0.0
Co1004 Co 0.33717 0.76865 0.87874 0.0
O1005 O 0.36987 0.75213 0.87384 0.0
C1006 C 0.41532 0.77632 0.8463 0.0
O1007 O 0.39561 0.79021 0.85227 0.0
C1008 C 0.33919 0.72962 0.91828 0.0
O1009 O 0.34968 0.71497 0.90116 0.0
O1010 O 0.3188 0.73926 0.86419 0.0
O1011 O 0.34668 0.71525 0.84261 0.0
H1012 H 0.25003 0.79728 0.85302 0.0
H1013 H 0.41422 0.7341 0.88774 0.0
O1014 O 0.41286 0.75251 0.84297 0.0
H1015 H 0.39295 0.64419 0.87347 0.0
H1016 H 0.4417 0.68665 0.78811 0.0
H1017 H 0.35453 0.71963 0.79505 0.0
H1018 H 0.37575 0.67742 0.84541 0.0
H1019 H 0.42793 0.70945 0.82654 0.0
O1020 O 0.33399 0.75262 0.913 0.0
H1021 H 0.29159 0.77679 0.84681 0.0
H1022 H 0.31286 0.79515 0.92227 0.0
H1023 H 0.36742 0.69675 0.75636 0.0
H1024 H 0.43203 0.70146 0.91613 0.0
H1025 H 0.4113 0.68008 0.75273 0.0
H1026 H 0.42133 0.65614 0.90911 0.0
O1027 O 0.36522 0.76025 0.82082 0.0
H1028 H 0.4007 0.8108 0.93582 0.0
H1029 H 0.33555 0.82448 0.87013 0.0
H1030 H 0.35883 0.86116 0.88749 0.0
H1031 H 0.39164 0.85442 0.92061 0.0
H1032 H 0.37711 0.77463 0.91777 0.0
H1033 H 0.27143 0.81565 0.92939 0.0
H1034 H 0.23973 0.81689 0.89456 0.0
O1035 O 0.33917 0.78434 0.84439 0.0
C1036 C 0.32442 0.71988 0.85092 0.0
C1037 C 0.26373 0.79696 0.8683 0.0
C1038 C 0.27573 0.80725 0.91117 0.0
N1039 N 0.30473 0.78506 0.88405 0.0
C1040 C 0.28732 0.78547 0.86487 0.0
C1041 C 0.29913 0.79559 0.90705 0.0
C1042 C 0.25795 0.80794 0.89162 0.0
C1043 C 0.40968 0.71439 0.88444 0.0
N1044 N 0.39408 0.70765 0.86489 0.0
C1045 C 0.41973 0.69601 0.90063 0.0
C1046 C 0.4137 0.67059 0.8967 0.0
C1047 C 0.39776 0.66387 0.87671 0.0
C1048 C 0.38804 0.68277 0.86092 0.0
C1049 C 0.4225 0.69373 0.78951 0.0
C1050 C 0.37357 0.7122 0.7937 0.0
C1051 C 0.4146 0.70667 0.81121 0.0
N1052 N 0.39034 0.71553 0.81316 0.0
C1053 C 0.3808 0.69937 0.77171 0.0
C1054 C 0.40543 0.69005 0.76967 0.0
C1055 C 0.34995 0.77878 0.82347 0.0
C1056 C 0.3864 0.81398 0.92145 0.0
C1057 C 0.34985 0.82141 0.8845 0.0
C1058 C 0.36293 0.84225 0.89429 0.0
C1059 C 0.38133 0.83845 0.91288 0.0
N1060 N 0.3549 0.79748 0.89305 0.0
C1061 C 0.37292 0.7936 0.91124 0.0
Co1062 Co 0.22748 0.34061 0.8806 0.0
Co1063 Co 0.2611 0.38231 0.84283 0.0
O1064 O 0.24343 0.37331 0.87405 0.0
C1065 C 0.26712 0.3451 0.91925 0.0
O1066 O 0.28131 0.35503 0.90141 0.0
C1067 C 0.21836 0.41758 0.84543 0.0
O1068 O 0.20464 0.39795 0.8521 0.0
O1069 O 0.23414 0.36682 0.8216 0.0
O1070 O 0.21117 0.34087 0.84645 0.0
H1071 H 0.29599 0.36723 0.75551 0.0
H1072 H 0.22154 0.38214 0.91792 0.0
O1073 O 0.24414 0.33924 0.91462 0.0
H1074 H 0.13479 0.36119 0.88997 0.0
H1075 H 0.18237 0.2765 0.93499 0.0
H1076 H 0.21959 0.29349 0.85095 0.0
H1077 H 0.17154 0.33777 0.87302 0.0
H1078 H 0.20204 0.31789 0.92561 0.0
O1079 O 0.24214 0.41519 0.84183 0.0
H1080 H 0.27409 0.35554 0.79514 0.0
H1081 H 0.28476 0.42996 0.82389 0.0
H1082 H 0.19991 0.25192 0.85942 0.0
H1083 H 0.18533 0.40592 0.93552 0.0
H1084 H 0.18112 0.24321 0.90171 0.0
H1085 H 0.14159 0.39551 0.92148 0.0
O1086 O 0.2569 0.32204 0.86638 0.0
H1087 H 0.29478 0.43723 0.913 0.0
H1088 H 0.31748 0.37866 0.84379 0.0
H1089 H 0.35127 0.39703 0.87044 0.0
H1090 H 0.33998 0.42657 0.90531 0.0
H1091 H 0.26158 0.41823 0.88603 0.0
H1092 H 0.30659 0.44255 0.78448 0.0
H1093 H 0.31242 0.41102 0.75 0.0
O1094 O 0.27978 0.34929 0.84285 0.0
C1095 C 0.21599 0.35126 0.82514 0.0
C1096 C 0.2937 0.38109 0.77045 0.0
C1097 C 0.29962 0.42338 0.7867 0.0
N1098 N 0.27853 0.39193 0.81194 0.0
C1099 C 0.28143 0.37455 0.79297 0.0
C1100 C 0.28724 0.41615 0.80895 0.0
C1101 C 0.30288 0.40568 0.76736 0.0
C1102 C 0.20254 0.37737 0.9119 0.0
N1103 N 0.19863 0.35852 0.89459 0.0
C1104 C 0.18212 0.39096 0.92185 0.0
C1105 C 0.15758 0.38513 0.91394 0.0
C1106 C 0.15376 0.36588 0.89625 0.0
C1107 C 0.17463 0.35272 0.88669 0.0
C1108 C 0.1904 0.2801 0.91646 0.0
C1109 C 0.21124 0.28992 0.86931 0.0
C1110 C 0.20158 0.30348 0.91105 0.0
N1111 N 0.21165 0.30819 0.88765 0.0
C1112 C 0.20022 0.26631 0.87404 0.0
C1113 C 0.18971 0.26143 0.89778 0.0
C1114 C 0.27576 0.32736 0.85228 0.0
C1115 C 0.29994 0.42443 0.89782 0.0
C1116 C 0.31243 0.39145 0.85898 0.0
C1117 C 0.33164 0.40183 0.87397 0.0
C1118 C 0.32529 0.41842 0.89352 0.0
N1119 N 0.28761 0.39747 0.8633 0.0
C1120 C 0.28123 0.41371 0.88243 0.0
Co1121 Co 0.61756 0.26774 0.83333 0.0
Co1122 Co 0.65078 0.23216 0.87733 0.0
O1123 O 0.62129 0.25187 0.86656 0.0
C1124 C 0.57535 0.23153 0.83687 0.0
O1125 O 0.59062 0.21658 0.84956 0.0
C1126 C 0.64975 0.27565 0.91189 0.0
O1127 O 0.64478 0.28948 0.89184 0.0
O1128 O 0.67476 0.25717 0.86241 0.0
O1129 O 0.65259 0.28169 0.83552 0.0
H1130 H 0.73582 0.19056 0.86692 0.0
H1131 H 0.57848 0.27675 0.87256 0.0
O1132 O 0.58261 0.25346 0.82986 0.0
H1133 H 0.61338 0.36112 0.85243 0.0
H1134 H 0.57042 0.31558 0.76552 0.0
H1135 H 0.65056 0.2731 0.78816 0.0
H1136 H 0.62906 0.32301 0.83036 0.0
H1137 H 0.57583 0.29581 0.80758 0.0
O1138 O 0.65177 0.25165 0.90994 0.0
H1139 H 0.69851 0.21511 0.85303 0.0
H1140 H 0.66575 0.20813 0.92621 0.0
H1141 H 0.64606 0.29281 0.74598 0.0
H1142 H 0.56207 0.31439 0.89496 0.0
H1143 H 0.60575 0.31424 0.73444 0.0
H1144 H 0.57961 0.35694 0.88496 0.0
O1145 O 0.63063 0.23712 0.81597 0.0
H1146 H 0.57606 0.20496 0.92973 0.0
H1147 H 0.6457 0.17594 0.87459 0.0
H1148 H 0.61584 0.14463 0.89237 0.0
H1149 H 0.58074 0.1591 0.92019 0.0
H1150 H 0.60621 0.23564 0.91135 0.0
H1151 H 0.7028 0.1837 0.94099 0.0
H1152 H 0.73811 0.17467 0.9112 0.0
O1153 O 0.65079 0.21283 0.84467 0.0
C1154 C 0.6731 0.27547 0.84671 0.0
C1155 C 0.72049 0.19424 0.88004 0.0
C1156 C 0.70197 0.19042 0.92162 0.0
N1157 N 0.67982 0.21269 0.88867 0.0
C1158 C 0.69927 0.20802 0.87224 0.0
C1159 C 0.68105 0.20427 0.91315 0.0
C1160 C 0.72178 0.18536 0.90489 0.0
C1161 C 0.58602 0.29524 0.86797 0.0
N1162 N 0.60457 0.29772 0.85009 0.0
C1163 C 0.57674 0.31646 0.88077 0.0
C1164 C 0.58661 0.34033 0.87518 0.0
C1165 C 0.60557 0.34269 0.85693 0.0
C1166 C 0.6144 0.32104 0.84453 0.0
C1167 C 0.5881 0.30637 0.77036 0.0
C1168 C 0.63304 0.28257 0.78334 0.0
C1169 C 0.59126 0.29512 0.79412 0.0
N1170 N 0.61359 0.28357 0.8004 0.0
C1171 C 0.63057 0.29362 0.7594 0.0
C1172 C 0.60794 0.30561 0.75293 0.0
C1173 C 0.64278 0.21723 0.82225 0.0
C1174 C 0.59131 0.19842 0.91769 0.0
C1175 C 0.63042 0.18238 0.88661 0.0
C1176 C 0.61361 0.16456 0.89668 0.0
C1177 C 0.59393 0.17269 0.9123 0.0
N1178 N 0.62774 0.20757 0.89202 0.0
C1179 C 0.6085 0.21569 0.90732 0.0
Co1180 Co 0.76208 0.65093 0.88097 0.0
Co1181 Co 0.72789 0.61144 0.8414 0.0
O1182 O 0.74449 0.61929 0.8735 0.0
C1183 C 0.72011 0.64918 0.91708 0.0
O1184 O 0.70609 0.64171 0.89796 0.0
C1185 C 0.76801 0.57345 0.84655 0.0
O1186 O 0.78219 0.59178 0.85557 0.0
O1187 O 0.75671 0.62538 0.82165 0.0
O1188 O 0.78007 0.64982 0.84767 0.0
H1189 H 0.69821 0.62909 0.75259 0.0
H1190 H 0.76365 0.60909 0.91847 0.0
O1191 O 0.74379 0.65296 0.91413 0.0
H1192 H 0.85276 0.62472 0.89492 0.0
H1193 H 0.80827 0.71191 0.93803 0.0
H1194 H 0.7743 0.69761 0.85209 0.0
H1195 H 0.81839 0.65036 0.87624 0.0
H1196 H 0.78646 0.6719 0.92741 0.0
O1197 O 0.7449 0.57762 0.84089 0.0
H1198 H 0.71871 0.63927 0.79339 0.0
H1199 H 0.70244 0.56538 0.82089 0.0
H1200 H 0.79616 0.73781 0.8618 0.0
H1201 H 0.79745 0.58316 0.93779 0.0
H1202 H 0.81333 0.74515 0.90505 0.0
H1203 H 0.84237 0.59087 0.92595 0.0
O1204 O 0.73463 0.67134 0.86524 0.0
H1205 H 0.68783 0.55842 0.90959 0.0
H1206 H 0.67182 0.61825 0.83955 0.0
H1207 H 0.63581 0.60176 0.86441 0.0
H1208 H 0.64372 0.57158 0.8997 0.0
H1209 H 0.7233 0.57555 0.88436 0.0
H1210 H 0.68195 0.5543 0.78031 0.0
H1211 H 0.67965 0.58633 0.74586 0.0
O1212 O 0.71121 0.64537 0.84079 0.0
C1213 C 0.77561 0.63977 0.82611 0.0
C1214 C 0.69897 0.61502 0.7675 0.0
C1215 C 0.68988 0.57303 0.78305 0.0
N1216 N 0.71144 0.60306 0.8096 0.0
C1217 C 0.71045 0.62071 0.79068 0.0
C1218 C 0.70151 0.5794 0.80597 0.0
C1219 C 0.68859 0.59101 0.76373 0.0
C1220 C 0.78318 0.61271 0.91342 0.0
N1221 N 0.78906 0.63128 0.89636 0.0
C1222 C 0.80222 0.5979 0.92434 0.0
C1223 C 0.82742 0.60221 0.91766 0.0
C1224 C 0.83326 0.6212 0.90023 0.0
C1225 C 0.81372 0.63561 0.88969 0.0
C1226 C 0.80096 0.7089 0.91909 0.0
C1227 C 0.78194 0.70058 0.87088 0.0
C1228 C 0.78858 0.6863 0.91298 0.0
N1229 N 0.77945 0.68231 0.88906 0.0
C1230 C 0.7942 0.72342 0.8763 0.0
C1231 C 0.80379 0.72754 0.90058 0.0
C1232 C 0.71613 0.66707 0.85026 0.0
C1233 C 0.68414 0.5715 0.89422 0.0
C1234 C 0.6754 0.60517 0.85491 0.0
C1235 C 0.65494 0.59586 0.86889 0.0
C1236 C 0.65939 0.57892 0.88868 0.0
N1237 N 0.69961 0.59775 0.86044 0.0
C1238 C 0.70413 0.58117 0.87981 0.0
Co1239 Co 0.64903 0.7615 0.11381 0.0
Co1240 Co 0.61182 0.72459 0.15301 0.0
O1241 O 0.6183 0.74237 0.12125 0.0
C1242 C 0.64875 0.71965 0.07742 0.0
O1243 O 0.64129 0.70537 0.09634 0.0
C1244 C 0.57302 0.76419 0.15013 0.0
O1245 O 0.5907 0.77873 0.14044 0.0
O1246 O 0.62618 0.75282 0.17334 0.0
O1247 O 0.64693 0.77929 0.14718 0.0
H1248 H 0.63311 0.69183 0.23992 0.0
H1249 H 0.60711 0.76103 0.07635 0.0
O1250 O 0.65201 0.74339 0.08057 0.0
H1251 H 0.61842 0.85078 0.09992 0.0
H1252 H 0.70787 0.8105 0.05689 0.0
H1253 H 0.69464 0.77671 0.14306 0.0
H1254 H 0.64569 0.81769 0.11859 0.0
H1255 H 0.66903 0.7866 0.06735 0.0
O1256 O 0.57779 0.74109 0.15536 0.0
H1257 H 0.64155 0.71393 0.19959 0.0
H1258 H 0.56684 0.69784 0.1742 0.0
H1259 H 0.73365 0.80067 0.13349 0.0
H1260 H 0.57956 0.79352 0.05703 0.0
H1261 H 0.74045 0.81775 0.09013 0.0
H1262 H 0.58509 0.83875 0.06887 0.0
O1263 O 0.67089 0.73507 0.1295 0.0
H1264 H 0.5569 0.68619 0.08531 0.0
H1265 H 0.61949 0.66864 0.15254 0.0
H1266 H 0.60261 0.63328 0.12698 0.0
H1267 H 0.57106 0.64197 0.0931 0.0
H1268 H 0.57443 0.721 0.1112 0.0
H1269 H 0.5575 0.67575 0.21436 0.0
H1270 H 0.59081 0.67255 0.24751 0.0
O1271 O 0.64599 0.70855 0.15178 0.0
C1272 C 0.63877 0.773 0.16907 0.0
C1273 C 0.61848 0.69298 0.22557 0.0
C1274 C 0.57603 0.68399 0.21124 0.0
N1275 N 0.60482 0.70687 0.18444 0.0
C1276 C 0.62319 0.70537 0.20266 0.0
C1277 C 0.58142 0.69654 0.18856 0.0
C1278 C 0.59473 0.6822 0.22983 0.0
C1279 C 0.60977 0.7807 0.0814 0.0
N1280 N 0.62805 0.78748 0.09846 0.0
C1281 C 0.59406 0.799 0.07049 0.0
C1282 C 0.59715 0.82438 0.07717 0.0
C1283 C 0.61584 0.83113 0.0946 0.0
C1284 C 0.63119 0.81232 0.10514 0.0
C1285 C 0.70509 0.8032 0.07587 0.0
C1286 C 0.69738 0.78424 0.1242 0.0
C1287 C 0.68317 0.78963 0.08188 0.0
N1288 N 0.67948 0.78049 0.10585 0.0
C1289 C 0.71955 0.79772 0.11887 0.0
C1290 C 0.72337 0.80727 0.09453 0.0
C1291 C 0.66753 0.7154 0.14315 0.0
C1292 C 0.57058 0.68216 0.10006 0.0
C1293 C 0.60579 0.67256 0.1378 0.0
C1294 C 0.59627 0.65246 0.12342 0.0
C1295 C 0.57856 0.65735 0.10443 0.0
N1296 N 0.59782 0.69682 0.13344 0.0
C1297 C 0.58049 0.70177 0.11484 0.0
Co1298 Co 0.26444 0.61668 0.15193 0.0
Co1299 Co 0.22474 0.65387 0.11544 0.0
O1300 O 0.24449 0.62313 0.12143 0.0
C1301 C 0.22507 0.57724 0.15169 0.0
O1302 O 0.2097 0.59462 0.14278 0.0
C1303 C 0.26421 0.65397 0.07621 0.0
O1304 O 0.27938 0.64477 0.09362 0.0
O1305 O 0.25173 0.67584 0.12993 0.0
O1306 O 0.2803 0.65094 0.14942 0.0
H1307 H 0.18634 0.73794 0.13837 0.0
H1308 H 0.26536 0.57936 0.10998 0.0
O1309 O 0.24838 0.58243 0.1555 0.0
H1310 H 0.35385 0.60793 0.1198 0.0
H1311 H 0.31763 0.56289 0.2101 0.0
H1312 H 0.27853 0.64681 0.19726 0.0
H1313 H 0.32026 0.62455 0.14775 0.0
H1314 H 0.29264 0.57185 0.17157 0.0
O1315 O 0.2409 0.65788 0.08126 0.0
H1316 H 0.21116 0.69907 0.14601 0.0
H1317 H 0.19649 0.67406 0.0709 0.0
H1318 H 0.30354 0.63874 0.23597 0.0
H1319 H 0.29838 0.56205 0.08175 0.0
H1320 H 0.32329 0.59652 0.24257 0.0
H1321 H 0.34298 0.57643 0.08654 0.0
O1322 O 0.23743 0.63069 0.17417 0.0
H1323 H 0.19043 0.58478 0.05959 0.0
H1324 H 0.16897 0.64961 0.12339 0.0
H1325 H 0.13524 0.62205 0.10631 0.0
H1326 H 0.1459 0.58938 0.07414 0.0
H1327 H 0.2236 0.6126 0.07736 0.0
H1328 H 0.17168 0.71278 0.06235 0.0
H1329 H 0.16639 0.74499 0.09628 0.0
O1330 O 0.20897 0.65098 0.14971 0.0
C1331 C 0.27252 0.67254 0.1418 0.0
C1332 C 0.1884 0.72399 0.12347 0.0
C1333 C 0.18021 0.70989 0.0808 0.0
N1334 N 0.20499 0.68419 0.10903 0.0
C1335 C 0.20234 0.7019 0.12772 0.0
C1336 C 0.19429 0.68802 0.08573 0.0
C1337 C 0.17724 0.72795 0.09984 0.0
C1338 C 0.28477 0.5855 0.11231 0.0
N1339 N 0.29091 0.60283 0.13055 0.0
C1340 C 0.30336 0.57572 0.09622 0.0
C1341 C 0.32838 0.58382 0.09889 0.0
C1342 C 0.33449 0.60151 0.11755 0.0
C1343 C 0.31539 0.61089 0.13328 0.0
C1344 C 0.30917 0.58138 0.20741 0.0
C1345 C 0.28722 0.62845 0.19992 0.0
C1346 C 0.29497 0.58655 0.18566 0.0
N1347 N 0.28434 0.6099 0.18209 0.0
C1348 C 0.30129 0.62396 0.22191 0.0
C1349 C 0.31234 0.60026 0.22562 0.0
C1350 C 0.21669 0.64273 0.17112 0.0
C1351 C 0.18554 0.59899 0.07354 0.0
C1352 C 0.17375 0.6354 0.10943 0.0
C1353 C 0.15457 0.61989 0.0998 0.0
C1354 C 0.16056 0.60156 0.08174 0.0
N1355 N 0.19819 0.63278 0.10126 0.0
C1356 C 0.20422 0.61486 0.08358 0.0
Co1357 Co 0.72996 0.38076 0.1499 0.0
Co1358 Co 0.76228 0.34029 0.10984 0.0
O1359 O 0.74618 0.37257 0.11774 0.0
C1360 C 0.77205 0.41667 0.14592 0.0
O1361 O 0.78566 0.39735 0.13825 0.0
C1362 C 0.7205 0.3443 0.07344 0.0
O1363 O 0.70666 0.35193 0.09262 0.0
O1364 O 0.7339 0.32096 0.12518 0.0
O1365 O 0.71182 0.34747 0.15024 0.0
H1366 H 0.79214 0.25162 0.1277 0.0
H1367 H 0.72687 0.41728 0.1073 0.0
O1368 O 0.74849 0.4139 0.15054 0.0
H1369 H 0.63835 0.39461 0.12708 0.0
H1370 H 0.68672 0.43934 0.21148 0.0
H1371 H 0.71954 0.35294 0.19766 0.0
H1372 H 0.67367 0.37629 0.15169 0.0
H1373 H 0.70669 0.42773 0.17081 0.0
O1374 O 0.74401 0.33961 0.07651 0.0
H1375 H 0.77222 0.29264 0.13801 0.0
H1376 H 0.78578 0.31897 0.06315 0.0
H1377 H 0.69954 0.36366 0.23853 0.0
H1378 H 0.69212 0.43622 0.08234 0.0
H1379 H 0.68295 0.40714 0.24564 0.0
H1380 H 0.64749 0.42485 0.09216 0.0
O1381 O 0.75811 0.36532 0.16953 0.0
H1382 H 0.80095 0.40732 0.05432 0.0
H1383 H 0.81853 0.33817 0.11475 0.0
H1384 H 0.85413 0.36248 0.09659 0.0
H1385 H 0.84542 0.3973 0.0661 0.0
H1386 H 0.76591 0.38267 0.07312 0.0
H1387 H 0.80565 0.27816 0.05194 0.0
H1388 H 0.80903 0.24419 0.08438 0.0
O1389 O 0.78019 0.34 0.14329 0.0
C1390 C 0.71574 0.32573 0.14038 0.0
C1391 C 0.7909 0.26632 0.11344 0.0
C1392 C 0.79846 0.28121 0.07091 0.0
N1393 N 0.77818 0.30828 0.10131 0.0
C1394 C 0.77975 0.28962 0.1192 0.0
C1395 C 0.78717 0.30426 0.07736 0.0
C1396 C 0.80035 0.26215 0.08912 0.0
C1397 C 0.70748 0.41242 0.1118 0.0
N1398 N 0.70228 0.39582 0.13099 0.0
C1399 C 0.68789 0.42312 0.09755 0.0
C1400 C 0.66286 0.4167 0.10305 0.0
C1401 C 0.65771 0.39973 0.12264 0.0
C1402 C 0.67778 0.38938 0.13647 0.0
C1403 C 0.69378 0.42031 0.20857 0.0
C1404 C 0.71215 0.37182 0.20053 0.0
C1405 C 0.70511 0.41363 0.1856 0.0
N1406 N 0.71393 0.38958 0.18176 0.0
C1407 C 0.70094 0.37782 0.22375 0.0
C1408 C 0.69167 0.40223 0.22773 0.0
C1409 C 0.7762 0.34999 0.16497 0.0
C1410 C 0.80498 0.39215 0.06753 0.0
C1411 C 0.8146 0.35335 0.10155 0.0
C1412 C 0.83483 0.36701 0.09129 0.0
C1413 C 0.82993 0.38653 0.07417 0.0
N1414 N 0.79019 0.35894 0.09489 0.0
C1415 C 0.78523 0.37807 0.07815 0.0
H1416 H 0.17741 0.55871 0.1437 0.0
H1417 H 0.2491 0.54046 0.17907 0.0
H1418 H 0.15892 0.52017 0.16139 0.0
H1419 H 0.23059 0.50189 0.19653 0.0
H1420 H 0.18083 0.45396 0.24855 0.0
H1421 H 0.19778 0.49251 0.22953 0.0
H1422 H 0.16267 0.47294 0.15818 0.0
H1423 H 0.14548 0.43441 0.17718 0.0
C1424 C 0.18929 0.54636 0.15502 0.0
C1425 C 0.21468 0.55268 0.1601 0.0
C1426 C 0.1787 0.52428 0.16508 0.0
C1427 C 0.19326 0.50823 0.18054 0.0
C1428 C 0.21883 0.51418 0.18502 0.0
C1429 C 0.22948 0.53614 0.17483 0.0
C1430 C 0.17648 0.45799 0.22888 0.0
C1431 C 0.16191 0.44109 0.21433 0.0
C1432 C 0.18638 0.47994 0.21795 0.0
C1433 C 0.18177 0.48552 0.19232 0.0
C1434 C 0.16646 0.46911 0.178 0.0
C1435 C 0.15669 0.44704 0.18887 0.0
H1436 H 0.53067 0.14925 0.24085 0.0
H1437 H 0.57097 0.16061 0.1704 0.0
H1438 H 0.49155 0.16414 0.22064 0.0
H1439 H 0.53203 0.17607 0.1506 0.0
H1440 H 0.46493 0.23879 0.14979 0.0
H1441 H 0.50386 0.21868 0.16522 0.0
H1442 H 0.46295 0.14906 0.17824 0.0
H1443 H 0.42415 0.16878 0.16219 0.0
C1444 C 0.5311 0.15469 0.22105 0.0
C1445 C 0.5538 0.1538 0.20719 0.0
C1446 C 0.50879 0.1631 0.20953 0.0
C1447 C 0.50904 0.17123 0.1842 0.0
C1448 C 0.53155 0.1699 0.17019 0.0
C1449 C 0.55371 0.16096 0.18151 0.0
C1450 C 0.46437 0.21909 0.15559 0.0
C1451 C 0.44161 0.20531 0.1548 0.0
C1452 C 0.48656 0.20763 0.16433 0.0
C1453 C 0.48615 0.18245 0.17289 0.0
C1454 C 0.46356 0.16853 0.17172 0.0
C1455 C 0.44149 0.17978 0.16244 0.0
H1456 H 0.75088 0.46366 0.14973 0.0
H1457 H 0.82171 0.42329 0.15801 0.0
H1458 H 0.77135 0.50238 0.1653 0.0
H1459 H 0.84179 0.46183 0.17423 0.0
H1460 H 0.84206 0.52746 0.23958 0.0
H1461 H 0.82675 0.48893 0.21857 0.0
H1462 H 0.8144 0.53118 0.14964 0.0
H1463 H 0.83034 0.56955 0.17023 0.0
C1464 C 0.77083 0.46316 0.15462 0.0
C1465 C 0.78474 0.44056 0.15267 0.0
C1466 C 0.78248 0.48522 0.16344 0.0
C1467 C 0.80801 0.48481 0.17093 0.0
C1468 C 0.82206 0.46242 0.16852 0.0
C1469 C 0.81059 0.44051 0.15916 0.0
C1470 C 0.83645 0.52839 0.21984 0.0
C1471 C 0.83738 0.55141 0.2065 0.0
C1472 C 0.82779 0.50643 0.20787 0.0
C1473 C 0.81944 0.50736 0.18263 0.0
C1474 C 0.82077 0.53019 0.16914 0.0
C1475 C 0.82998 0.55201 0.1809 0.0
H1476 H 0.53536 0.74171 0.17751 0.0
H1477 H 0.55647 0.8125 0.14186 0.0
H1478 H 0.49832 0.76212 0.19597 0.0
H1479 H 0.51947 0.8329 0.16063 0.0
H1480 H 0.43521 0.85072 0.18058 0.0
H1481 H 0.47193 0.83198 0.15964 0.0
H1482 H 0.49305 0.79511 0.22966 0.0
H1483 H 0.4563 0.81354 0.25059 0.0
C1484 C 0.53196 0.76154 0.17338 0.0
C1485 C 0.54893 0.77556 0.15842 0.0
C1486 C 0.51089 0.77326 0.18414 0.0
C1487 C 0.50634 0.79915 0.18003 0.0
C1488 C 0.5226 0.81291 0.16409 0.0
C1489 C 0.54377 0.80122 0.15341 0.0
C1490 C 0.44784 0.83882 0.19157 0.0
C1491 C 0.44277 0.83342 0.21717 0.0
C1492 C 0.46884 0.82815 0.17958 0.0
C1493 C 0.48503 0.81183 0.19296 0.0
C1494 C 0.48053 0.80724 0.2188 0.0
C1495 C 0.45964 0.81799 0.23082 0.0
H1496 H 0.16908 0.42412 0.8318 0.0
H1497 H 0.23927 0.46482 0.84352 0.0
H1498 H 0.14921 0.46295 0.81608 0.0
H1499 H 0.21901 0.5038 0.82841 0.0
H1500 H 0.16132 0.5711 0.82305 0.0
H1501 H 0.17675 0.53225 0.84308 0.0
H1502 H 0.16382 0.49117 0.77355 0.0
H1503 H 0.14898 0.53017 0.75312 0.0
C1504 C 0.1801 0.44146 0.83148 0.0
C1505 C 0.20573 0.44153 0.83881 0.0
C1506 C 0.16875 0.46355 0.8224 0.0
C1507 C 0.18268 0.48613 0.82111 0.0
C1508 C 0.20795 0.48651 0.82941 0.0
C1509 C 0.2195 0.46429 0.83795 0.0
C1510 C 0.16144 0.55372 0.81212 0.0
C1511 C 0.15403 0.55359 0.78652 0.0
C1512 C 0.17036 0.53162 0.82357 0.0
C1513 C 0.17141 0.50896 0.80976 0.0
C1514 C 0.16301 0.50852 0.78451 0.0
C1515 C 0.15462 0.53076 0.77287 0.0
H1516 H 0.54338 0.19885 0.86079 0.0
H1517 H 0.55349 0.24112 0.79151 0.0
H1518 H 0.50428 0.18067 0.84408 0.0
H1519 H 0.51591 0.22151 0.77375 0.0
H1520 H 0.43602 0.20005 0.75453 0.0
H1521 H 0.47314 0.21984 0.7731 0.0
H1522 H 0.48734 0.15171 0.81675 0.0
H1523 H 0.44869 0.13301 0.79961 0.0
C1524 C 0.53718 0.20411 0.84192 0.0
C1525 C 0.55114 0.22152 0.8275 0.0
C1526 C 0.51496 0.19348 0.83214 0.0
C1527 C 0.50675 0.19942 0.8074 0.0
C1528 C 0.52103 0.21686 0.79307 0.0
C1529 C 0.54273 0.22806 0.80317 0.0
C1530 C 0.44724 0.18934 0.76802 0.0
C1531 C 0.43973 0.16501 0.77559 0.0
C1532 C 0.46866 0.2006 0.77863 0.0
C1533 C 0.48358 0.18745 0.79646 0.0
C1534 C 0.47617 0.16277 0.80357 0.0
C1535 C 0.45421 0.15185 0.79354 0.0
H1536 H 0.74607 0.53442 0.82077 0.0
H1537 H 0.81679 0.55811 0.85498 0.0
H1538 H 0.76717 0.4976 0.80276 0.0
H1539 H 0.83787 0.52115 0.83671 0.0
H1540 H 0.85617 0.43601 0.81642 0.0
H1541 H 0.83755 0.4726 0.83788 0.0
H1542 H 0.80039 0.49447 0.76827 0.0
H1543 H 0.81876 0.45807 0.74681 0.0
C1544 C 0.76603 0.53161 0.82474 0.0
C1545 C 0.77984 0.54931 0.83905 0.0
C1546 C 0.77812 0.51065 0.81425 0.0
C1547 C 0.8042 0.50689 0.818 0.0
C1548 C 0.81775 0.52372 0.83351 0.0
C1549 C 0.80567 0.54485 0.8439 0.0
C1550 C 0.84428 0.44882 0.80563 0.0
C1551 C 0.83871 0.44403 0.78 0.0
C1552 C 0.83368 0.46972 0.81792 0.0
C1553 C 0.81722 0.48599 0.80479 0.0
C1554 C 0.81262 0.48186 0.77891 0.0
C1555 C 0.82332 0.46113 0.7666 0.0
H1556 H 0.52838 0.84533 0.75475 0.0
H1557 H 0.56986 0.83154 0.8241 0.0
H1558 H 0.48938 0.83077 0.77534 0.0
H1559 H 0.53097 0.81638 0.84431 0.0
H1560 H 0.46243 0.755 0.84479 0.0
H1561 H 0.50169 0.77492 0.82997 0.0
H1562 H 0.46166 0.84515 0.81768 0.0
H1563 H 0.42255 0.82562 0.83308 0.0
C1564 C 0.52908 0.83943 0.77441 0.0
C1565 C 0.55207 0.83954 0.78785 0.0
C1566 C 0.50684 0.8312 0.78616 0.0
C1567 C 0.5074 0.82248 0.81129 0.0
C1568 C 0.53023 0.82303 0.82488 0.0
C1569 C 0.55235 0.83179 0.81335 0.0
C1570 C 0.46213 0.7748 0.83932 0.0
C1571 C 0.4395 0.78877 0.84004 0.0
C1572 C 0.48453 0.78615 0.83094 0.0
C1573 C 0.48446 0.81145 0.82269 0.0
C1574 C 0.46202 0.82559 0.82395 0.0
C1575 C 0.43976 0.81443 0.83284 0.0
H1576 H 0.14086 0.17967 0.55742 0.0
H1577 H 0.17965 0.24881 0.53639 0.0
H1578 H 0.15852 0.15853 0.52025 0.0
H1579 H 0.19702 0.22768 0.49924 0.0
H1580 H 0.24878 0.17453 0.45642 0.0
H1581 H 0.22907 0.19302 0.49377 0.0
H1582 H 0.15719 0.16007 0.47243 0.0
H1583 H 0.17689 0.14127 0.43502 0.0
C1584 C 0.1529 0.19043 0.54473 0.0
C1585 C 0.15907 0.21583 0.54993 0.0
C1586 C 0.16294 0.17832 0.52347 0.0
C1587 C 0.1794 0.1914 0.50718 0.0
C1588 C 0.18475 0.21706 0.51183 0.0
C1589 C 0.17463 0.22919 0.53297 0.0
C1590 C 0.22884 0.17092 0.45981 0.0
C1591 C 0.21432 0.15664 0.44265 0.0
C1592 C 0.21754 0.1817 0.48108 0.0
C1593 C 0.19155 0.1783 0.48567 0.0
C1594 C 0.17727 0.16298 0.46926 0.0
C1595 C 0.18855 0.15227 0.44786 0.0
H1596 H 0.81925 0.14378 0.55839 0.0
H1597 H 0.74758 0.17781 0.53773 0.0
H1598 H 0.83867 0.16187 0.52045 0.0
H1599 H 0.76702 0.19569 0.49986 0.0
H1600 H 0.81684 0.24877 0.45367 0.0
H1601 H 0.79973 0.22943 0.49198 0.0
H1602 H 0.83609 0.15868 0.47278 0.0
H1603 H 0.8534 0.17799 0.43443 0.0
C1604 C 0.80759 0.15489 0.54565 0.0
C1605 C 0.78191 0.15947 0.55111 0.0
C1606 C 0.81871 0.16519 0.52393 0.0
C1607 C 0.8044 0.18042 0.50744 0.0
C1608 C 0.77857 0.18438 0.51252 0.0
C1609 C 0.76741 0.17393 0.53408 0.0
C1610 C 0.82147 0.22918 0.45774 0.0
C1611 C 0.83635 0.21485 0.44095 0.0
C1612 C 0.81148 0.21807 0.47956 0.0
C1613 C 0.81634 0.19249 0.48512 0.0
C1614 C 0.83209 0.17845 0.46893 0.0
C1615 C 0.84193 0.1895 0.44697 0.0
H1616 H 0.81663 0.84914 0.43418 0.0
H1617 H 0.74515 0.81355 0.45284 0.0
H1618 H 0.83543 0.83137 0.47259 0.0
H1619 H 0.76397 0.79599 0.49119 0.0
H1620 H 0.84853 0.81473 0.55876 0.0
H1621 H 0.83157 0.83416 0.5203 0.0
H1622 H 0.79727 0.76282 0.49935 0.0
H1623 H 0.81401 0.74337 0.53775 0.0
C1624 C 0.80487 0.83776 0.44659 0.0
C1625 C 0.77946 0.8326 0.44042 0.0
C1626 C 0.81563 0.82765 0.46857 0.0
C1627 C 0.80122 0.81208 0.48462 0.0
C1628 C 0.77561 0.8076 0.47887 0.0
C1629 C 0.76479 0.81784 0.45703 0.0
C1630 C 0.83757 0.80313 0.54582 0.0
C1631 C 0.83245 0.77757 0.55136 0.0
C1632 C 0.82794 0.81425 0.52381 0.0
C1633 C 0.81287 0.80005 0.50708 0.0
C1634 C 0.80848 0.77429 0.51219 0.0
C1635 C 0.81825 0.76312 0.53406 0.0
H1636 H 0.15029 0.75216 0.46554 0.0
H1637 H 0.15981 0.82241 0.42441 0.0
H1638 H 0.16477 0.77313 0.5044 0.0
H1639 H 0.17489 0.84301 0.4631 0.0
H1640 H 0.23788 0.84571 0.53016 0.0
H1641 H 0.21783 0.82999 0.4913 0.0
H1642 H 0.14889 0.81504 0.53265 0.0
H1643 H 0.16852 0.83134 0.57137 0.0
C1644 C 0.15524 0.77208 0.46488 0.0
C1645 C 0.15396 0.78567 0.44203 0.0
C1646 C 0.16342 0.78404 0.48704 0.0
C1647 C 0.17092 0.80956 0.48649 0.0
C1648 C 0.1692 0.82328 0.46382 0.0
C1649 C 0.16048 0.81151 0.4418 0.0
C1650 C 0.21832 0.83945 0.53083 0.0
C1651 C 0.20474 0.83972 0.5537 0.0
C1652 C 0.20689 0.83056 0.50867 0.0
C1653 C 0.18195 0.82133 0.50924 0.0
C1654 C 0.16818 0.82207 0.53193 0.0
C1655 C 0.17939 0.83149 0.55395 0.0
H1656 H 0.69848 0.93483 0.73158 0.0
H1657 H 0.62731 0.95317 0.69575 0.0
H1658 H 0.71862 0.97027 0.71043 0.0
H1659 H 0.64671 0.99039 0.67615 0.0
H1660 H 0.69231 0.04462 0.62801 0.0
H1661 H 0.67346 0.00623 0.64572 0.0
H1662 H 0.72285 0.01281 0.71105 0.0
H1663 H 0.74282 0.04953 0.69222 0.0
C1664 C 0.68704 0.94698 0.71958 0.0
C1665 C 0.66135 0.94166 0.71546 0.0
C1666 C 0.69851 0.96743 0.70751 0.0
C1667 C 0.68433 0.98363 0.69172 0.0
C1668 C 0.65844 0.97823 0.68778 0.0
C1669 C 0.64717 0.95714 0.69922 0.0
C1670 C 0.69929 0.03742 0.64595 0.0
C1671 C 0.71915 0.04971 0.65864 0.0
C1672 C 0.68832 0.01563 0.6563 0.0
C1673 C 0.69651 0.00622 0.67994 0.0
C1674 C 0.7164 0.01883 0.69253 0.0
C1675 C 0.72784 0.04005 0.68181 0.0
H1676 H 0.95263 0.74828 0.67791 0.0
H1677 H 0.93253 0.67648 0.64381 0.0
H1678 H 0.99081 0.72919 0.69554 0.0
H1679 H 0.97068 0.65739 0.66172 0.0
H1680 H 0.05597 0.64189 0.67868 0.0
H1681 H 0.01799 0.65952 0.65897 0.0
H1682 H -0.00098 0.69702 0.72922 0.0
H1683 H 0.03701 0.67967 0.7489 0.0
C1684 C 0.95647 0.7285 0.67396 0.0
C1685 C 0.93948 0.71384 0.65959 0.0
C1686 C 0.97821 0.71753 0.68425 0.0
C1687 C 0.98349 0.69174 0.68027 0.0
C1688 C 0.96707 0.67732 0.66506 0.0
C1689 C 0.94522 0.68826 0.65486 0.0
C1690 C 0.04357 0.6537 0.68999 0.0
C1691 C 0.04957 0.65952 0.7153 0.0
C1692 C 0.02182 0.66374 0.6787 0.0
C1693 C 0.00578 0.67988 0.69249 0.0
C1694 C 0.01134 0.68501 0.71802 0.0
C1695 C 0.03297 0.67487 0.72935 0.0
H1696 H 0.31299 0.03977 0.7514 0.0
H1697 H 0.34603 0.06098 0.67943 0.0
H1698 H 0.2948 0.00204 0.73184 0.0
H1699 H 0.32755 0.02338 0.6599 0.0
H1700 H 0.31093 0.93876 0.64267 0.0
H1701 H 0.33056 0.97641 0.66098 0.0
H1702 H 0.2608 0.99374 0.70014 0.0
H1703 H 0.24119 0.95599 0.68212 0.0
C1704 C 0.31656 0.03628 0.73148 0.0
C1705 C 0.33085 0.0534 0.71693 0.0
C1706 C 0.30594 0.01481 0.72024 0.0
C1707 C 0.30952 0.00997 0.69429 0.0
C1708 C 0.32454 0.02661 0.67995 0.0
C1709 C 0.33506 0.04816 0.69114 0.0
C1710 C 0.2997 0.95073 0.655 0.0
C1711 C 0.27455 0.94434 0.66106 0.0
C1712 C 0.31095 0.9723 0.66544 0.0
C1713 C 0.29729 0.98781 0.6822 0.0
C1714 C 0.27191 0.98185 0.68763 0.0
C1715 C 0.26062 0.96037 0.6771 0.0
H1716 H 0.02977 0.25519 0.64804 0.0
H1717 H 0.07065 0.32574 0.65663 0.0
H1718 H 0.9909 0.27616 0.66237 0.0
H1719 H 0.03193 0.34632 0.67155 0.0
H1720 H 0.96603 0.34717 0.7362 0.0
H1721 H 0.00466 0.3323 0.7152 0.0
H1722 H 0.96225 0.31853 0.64659 0.0
H1723 H 0.92372 0.33403 0.66722 0.0
C1724 C 0.03036 0.27518 0.65272 0.0
C1725 C 0.05315 0.28885 0.65131 0.0
C1726 C 0.0082 0.28713 0.66078 0.0
C1727 C 0.0087 0.31272 0.668 0.0
C1728 C 0.03127 0.32655 0.66602 0.0
C1729 C 0.0533 0.31478 0.65744 0.0
C1730 C 0.96509 0.34139 0.71651 0.0
C1731 C 0.94199 0.34169 0.70331 0.0
C1732 C 0.9871 0.333 0.70455 0.0
C1733 C 0.98615 0.32432 0.67943 0.0
C1734 C 0.96325 0.32518 0.666 0.0
C1735 C 0.94135 0.33413 0.67777 0.0
H1736 H 0.75152 0.9529 0.31181 0.0
H1737 H 0.6806 0.93304 0.3478 0.0
H1738 H 0.73194 0.99097 0.29439 0.0
H1739 H 0.66102 0.97098 0.3301 0.0
H1740 H 0.64469 0.05588 0.31353 0.0
H1741 H 0.66311 0.01807 0.33278 0.0
H1742 H 0.69894 -0.00068 0.26161 0.0
H1743 H 0.68083 0.03718 0.24238 0.0
C1744 C 0.73184 0.95677 0.31619 0.0
C1745 C 0.71756 0.93991 0.33105 0.0
C1746 C 0.72058 0.97843 0.30603 0.0
C1747 C 0.69489 0.98372 0.31066 0.0
C1748 C 0.68087 0.96738 0.32629 0.0
C1749 C 0.69208 0.94564 0.33635 0.0
C1750 C 0.65631 0.04357 0.30193 0.0
C1751 C 0.66142 0.04959 0.27648 0.0
C1752 C 0.6668 0.02192 0.31295 0.0
C1753 C 0.68269 0.00598 0.29876 0.0
C1754 C 0.68714 0.01156 0.27311 0.0
C1755 C 0.67656 0.03311 0.26205 0.0
H1756 H 0.95737 0.67256 0.24675 0.0
H1757 H 0.93548 0.63686 0.31728 0.0
H1758 H 0.99465 0.69028 0.26736 0.0
H1759 H 0.9729 0.65485 0.33788 0.0
H1760 H 0.0362 0.74482 0.31892 0.0
H1761 H -0.00083 0.72397 0.30099 0.0
H1762 H 0.02124 0.65359 0.33651 0.0
H1763 H 0.05843 0.67445 0.3547 0.0
C1764 C 0.96065 0.66823 0.26656 0.0
C1765 C 0.94334 0.65353 0.28047 0.0
C1766 C 0.98189 0.67855 0.27838 0.0
C1767 C 0.98633 0.67427 0.30427 0.0
C1768 C 0.96982 0.65846 0.31789 0.0
C1769 C 0.94843 0.64822 0.3061 0.0
C1770 C 0.03305 0.72498 0.32321 0.0
C1771 C 0.05036 0.71121 0.33803 0.0
C1772 C 0.01196 0.71302 0.31276 0.0
C1773 C 0.00767 0.68711 0.31704 0.0
C1774 C 0.02421 0.67359 0.3329 0.0
C1775 C 0.04546 0.68553 0.34326 0.0
H1776 H 0.34189 0.96233 0.25317 0.0
H1777 H 0.33127 0.92261 0.32408 0.0
H1778 H 0.32638 0.00141 0.27292 0.0
H1779 H 0.31515 0.96151 0.34343 0.0
H1780 H 0.25159 0.02844 0.34258 0.0
H1781 H 0.27192 0.98937 0.32782 0.0
H1782 H 0.34177 0.03017 0.31563 0.0
H1783 H 0.32184 0.06907 0.331 0.0
C1784 C 0.33644 0.96203 0.27297 0.0
C1785 C 0.33776 0.93954 0.28712 0.0
C1786 C 0.32768 0.9843 0.28422 0.0
C1787 C 0.31962 0.98418 0.30956 0.0
C1788 C 0.32129 0.96186 0.32384 0.0
C1789 C 0.33059 0.93975 0.31278 0.0
C1790 C 0.27137 0.02894 0.33711 0.0
C1791 C 0.28516 0.05169 0.3379 0.0
C1792 C 0.28296 0.00668 0.32876 0.0
C1793 C 0.30826 0.00705 0.32061 0.0
C1794 C 0.3222 0.02962 0.32183 0.0
C1795 C 0.31081 0.05174 0.33071 0.0
H1796 H 0.03996 0.31506 0.24291 0.0
H1797 H 0.05966 0.35001 0.31442 0.0
H1798 H 0.00175 0.29754 0.26203 0.0
H1799 H 0.02141 0.33228 0.33352 0.0
H1800 H 0.93572 0.31564 0.34819 0.0
H1801 H 0.97382 0.33514 0.33056 0.0
H1802 H 0.99365 0.26415 0.295 0.0
H1803 H 0.95558 0.24463 0.31242 0.0
C1804 C 0.03602 0.31924 0.26262 0.0
C1805 C 0.0529 0.33381 0.27719 0.0
C1806 C 0.01425 0.30901 0.27361 0.0
C1807 C 0.00883 0.3133 0.29932 0.0
C1808 C 0.02514 0.32871 0.31365 0.0
C1809 C 0.04704 0.3388 0.30271 0.0
C1810 C 0.94833 0.30414 0.3368 0.0
C1811 C 0.94258 0.27864 0.33158 0.0
C1812 C 0.97014 0.3153 0.32677 0.0
C1813 C 0.98647 0.30123 0.31118 0.0
C1814 C 0.98113 0.27554 0.30661 0.0
C1815 C 0.95945 0.26432 0.31678 0.0
H1816 H 0.74188 0.65217 0.96386 0.0
H1817 H 0.67096 0.66281 0.92411 0.0
H1818 H 0.72212 0.66762 0.00296 0.0
H1819 H 0.65161 0.67888 0.96306 0.0
H1820 H 0.65219 0.74179 0.03081 0.0
H1821 H 0.66774 0.72221 0.99163 0.0
H1822 H 0.67869 0.65146 0.03115 0.0
H1823 H 0.66254 0.67061 0.07013 0.0
C1824 C 0.72208 0.65762 0.96356 0.0
C1825 C 0.70791 0.65629 0.94106 0.0
C1826 C 0.71084 0.66637 0.98584 0.0
C1827 C 0.6855 0.6744 0.98572 0.0
C1828 C 0.67121 0.67277 0.96339 0.0
C1829 C 0.68226 0.66348 0.94126 0.0
C1830 C 0.65761 0.72198 0.031 0.0
C1831 C 0.65616 0.70768 0.0534 0.0
C1832 C 0.6664 0.71084 0.00868 0.0
C1833 C 0.67435 0.68547 0.00867 0.0
C1834 C 0.67263 0.67108 0.03091 0.0
C1835 C 0.66331 0.68202 0.05307 0.0
H1836 H 0.31218 0.64636 0.0585 0.0
H1837 H 0.24065 0.6814 0.03908 0.0
H1838 H 0.33134 0.66455 0.0206 0.0
H1839 H 0.25983 0.6993 0.00101 0.0
H1840 H 0.31024 0.75222 0.95473 0.0
H1841 H 0.29215 0.73254 0.99239 0.0
H1842 H 0.32938 0.66209 0.97368 0.0
H1843 H 0.34778 0.68179 0.93611 0.0
C1844 C 0.30047 0.6577 0.046 0.0
C1845 C 0.27493 0.66258 0.05185 0.0
C1846 C 0.31145 0.66805 0.02427 0.0
C1847 C 0.29715 0.68355 0.00804 0.0
C1848 C 0.27141 0.68777 0.01346 0.0
C1849 C 0.26038 0.67732 0.03512 0.0
C1850 C 0.3148 0.73262 0.95877 0.0
C1851 C 0.33038 0.71854 0.9424 0.0
C1852 C 0.30423 0.72129 0.9802 0.0
C1853 C 0.30912 0.69571 0.98577 0.0
C1854 C 0.32535 0.68186 0.96987 0.0
C1855 C 0.33584 0.69315 0.94835 0.0
H1856 H 0.24538 0.31748 0.95714 0.0
H1857 H 0.31549 0.35414 0.93553 0.0
H1858 H 0.26633 0.29926 0.99399 0.0
H1859 H 0.33645 0.33564 0.97246 0.0
H1860 H 0.35419 0.31537 0.05737 0.0
H1861 H 0.33556 0.33631 0.02049 0.0
H1862 H 0.30006 0.26591 -0.00157 0.0
H1863 H 0.31841 0.24496 0.0352 0.0
C1864 C 0.26517 0.3219 0.96039 0.0
C1865 C 0.27885 0.33706 0.9433 0.0
C1866 C 0.2772 0.31128 0.98137 0.0
C1867 C 0.30308 0.31572 0.98576 0.0
C1868 C 0.31648 0.3319 0.96944 0.0
C1869 C 0.30447 0.34244 0.94832 0.0
C1870 C 0.34266 0.30429 0.04447 0.0
C1871 C 0.33757 0.27858 0.04931 0.0
C1872 C 0.33204 0.31629 0.02339 0.0
C1873 C 0.31606 0.30279 0.00693 0.0
C1874 C 0.31191 0.27685 0.01115 0.0
C1875 C 0.32261 0.26482 0.03209 0.0
H1876 H 0.67076 0.33315 0.06565 0.0
H1877 H 0.74247 0.34085 0.02677 0.0
H1878 H 0.65105 0.3183 0.02637 0.0
H1879 H 0.72242 0.32662 0.98734 0.0
H1880 H 0.66632 0.32403 0.91844 0.0
H1881 H 0.68197 0.34334 0.9576 0.0
H1882 H 0.66371 0.27503 -0.00129 0.0
H1883 H 0.64864 0.25531 0.95944 0.0
C1884 C 0.68218 0.33213 0.04862 0.0
C1885 C 0.70815 0.33809 0.0492 0.0
C1886 C 0.67092 0.32354 0.02627 0.0
C1887 C 0.68531 0.32138 0.00406 0.0
C1888 C 0.711 0.3283 0.00432 0.0
C1889 C 0.72243 0.33634 0.02681 0.0
C1890 C 0.66532 0.31324 0.93589 0.0
C1891 C 0.65633 0.28815 0.93596 0.0
C1892 C 0.67437 0.32426 0.95818 0.0
C1893 C 0.67399 0.31058 0.98094 0.0
C1894 C 0.66403 0.28591 0.98129 0.0
C1895 C 0.6555 0.27466 0.95889 0.0
H1896 H 0.18124 0.31681 0.30969 0.0
H1897 H 0.11884 0.27635 0.27522 0.0
H1898 H 0.19411 0.27846 0.3315 0.0
H1899 H 0.13097 0.23814 0.29807 0.0
H1900 H 0.20899 0.21025 0.37718 0.0
H1901 H 0.18647 0.2478 0.36271 0.0
H1902 H 0.16323 0.2076 0.29511 0.0
H1903 H 0.18461 0.16976 0.31028 0.0
C1904 C 0.16993 0.29985 0.30719 0.0
C1905 C 0.14927 0.29954 0.29041 0.0
C1906 C 0.17718 0.27782 0.3199 0.0
C1907 C 0.1637 0.25504 0.31645 0.0
C1908 C 0.14214 0.25516 0.30075 0.0
C1909 C 0.13511 0.27711 0.28775 0.0
C1910 C 0.19865 0.20933 0.35945 0.0
C1911 C 0.1989 0.18718 0.34466 0.0
C1912 C 0.18588 0.23092 0.35106 0.0
C1913 C 0.17344 0.23098 0.32748 0.0
C1914 C 0.17241 0.20829 0.31345 0.0
C1915 C 0.18483 0.18655 0.32207 0.0
H1916 H 0.77847 0.21601 0.37464 0.0
H1917 H 0.81943 0.18192 0.31244 0.0
H1918 H 0.74032 0.19335 0.36196 0.0
H1919 H 0.78113 0.16032 0.29901 0.0
H1920 H 0.71282 0.11514 0.28292 0.0
H1921 H 0.75024 0.12925 0.30591 0.0
H1922 H 0.71007 0.19671 0.32947 0.0
H1923 H 0.67232 0.18184 0.3076 0.0
C1924 C 0.77936 0.20358 0.35832 0.0
C1925 C 0.80192 0.201 0.34436 0.0
C1926 C 0.75743 0.1907 0.35095 0.0
C1927 C 0.75746 0.17521 0.32927 0.0
C1928 C 0.78037 0.17178 0.31602 0.0
C1929 C 0.80238 0.18436 0.32361 0.0
C1930 C 0.71189 0.13277 0.29342 0.0
C1931 C 0.68977 0.1476 0.29315 0.0
C1932 C 0.7334 0.14096 0.30646 0.0
C1933 C 0.73343 0.16439 0.31916 0.0
C1934 C 0.71077 0.17846 0.32011 0.0
C1935 C 0.68909 0.17003 0.30742 0.0
H1936 H 0.87882 0.70775 0.28689 0.0
H1937 H 0.81001 0.66866 0.30793 0.0
H1938 H 0.86457 0.74527 0.30958 0.0
H1939 H 0.79506 0.70652 0.32941 0.0
H1940 H 0.81366 0.81575 0.31432 0.0
H1941 H 0.8348 0.77702 0.30155 0.0
H1942 H 0.79729 0.73642 0.36213 0.0
H1943 H 0.77508 0.77505 0.37405 0.0
C1944 C 0.86071 0.70713 0.29654 0.0
C1945 C 0.84535 0.6854 0.29531 0.0
C1946 C 0.85243 0.72871 0.30939 0.0
C1947 C 0.8284 0.72921 0.32092 0.0
C1948 C 0.81375 0.70688 0.32097 0.0
C1949 C 0.82225 0.68513 0.3085 0.0
C1950 C 0.8101 0.79863 0.32509 0.0
C1951 C 0.79237 0.79841 0.34492 0.0
C1952 C 0.82243 0.77636 0.3179 0.0
C1953 C 0.81766 0.75341 0.33068 0.0
C1954 C 0.801 0.75356 0.35148 0.0
C1955 C 0.78837 0.77576 0.35841 0.0
H1956 H 0.27905 0.87368 0.27901 0.0
H1957 H 0.32038 0.81175 0.31324 0.0
H1958 H 0.24068 0.86003 0.30067 0.0
H1959 H 0.28188 0.79736 0.33382 0.0
H1960 H 0.17335 0.80515 0.31013 0.0
H1961 H 0.2114 0.82672 0.2959 0.0
H1962 H 0.25017 0.80372 0.36443 0.0
H1963 H 0.21238 0.78104 0.37805 0.0
C1964 C 0.27996 0.85719 0.29123 0.0
C1965 C 0.30267 0.84358 0.29414 0.0
C1966 C 0.25792 0.84928 0.30354 0.0
C1967 C 0.25804 0.82739 0.31874 0.0
C1968 C 0.28107 0.81448 0.32253 0.0
C1969 C 0.30318 0.82262 0.31054 0.0
C1970 C 0.1899 0.80492 0.32229 0.0
C1971 C 0.18999 0.79104 0.345 0.0
C1972 C 0.21172 0.81748 0.31422 0.0
C1973 C 0.23401 0.81679 0.3289 0.0
C1974 C 0.23356 0.80415 0.35236 0.0
C1975 C 0.21186 0.79125 0.36023 0.0
H1976 H 0.18249 0.67121 0.68523 0.0
H1977 H 0.11522 0.71153 0.70868 0.0
H1978 H 0.19771 0.70909 0.66376 0.0
H1979 H 0.12977 0.74905 0.68619 0.0
H1980 H 0.21641 0.77847 0.61865 0.0
H1981 H 0.19445 0.73982 0.63115 0.0
H1982 H 0.16127 0.77952 0.69471 0.0
H1983 H 0.18228 0.81823 0.68164 0.0
C1984 C 0.17064 0.68796 0.68521 0.0
C1985 C 0.14793 0.68857 0.69906 0.0
C1986 C 0.17929 0.70969 0.67278 0.0
C1987 C 0.16518 0.73233 0.67362 0.0
C1988 C 0.14148 0.73221 0.68578 0.0
C1989 C 0.13305 0.71064 0.69853 0.0
C1990 C 0.20417 0.779 0.63512 0.0
C1991 C 0.20127 0.8014 0.64928 0.0
C1992 C 0.19167 0.7568 0.64235 0.0
C1993 C 0.17618 0.75644 0.66402 0.0
C1994 C 0.17267 0.7791 0.67766 0.0
C1995 C 0.18493 0.80134 0.67028 0.0
H1996 H 0.31546 0.15347 0.67135 0.0
H1997 H 0.27035 0.143 0.7389 0.0
H1998 H 0.27772 0.16647 0.64817 0.0
H1999 H 0.2329 0.15714 0.71616 0.0
H2000 H 0.16563 0.17521 0.66812 0.0
H2001 H 0.20159 0.15109 0.68444 0.0
H2002 H 0.25301 0.20338 0.64779 0.0
H2003 H 0.2175 0.22658 0.63075 0.0
C2004 C 0.29746 0.15388 0.68122 0.0
C2005 C 0.29594 0.14753 0.70702 0.0
C2006 C 0.27583 0.16141 0.66797 0.0
C2007 C 0.25228 0.16323 0.68036 0.0
C2008 C 0.2506 0.15571 0.70588 0.0
C2009 C 0.27216 0.14778 0.71901 0.0
C2010 C 0.18463 0.18124 0.6632 0.0
C2011 C 0.18863 0.20298 0.64831 0.0
C2012 C 0.20525 0.16751 0.67268 0.0
C2013 C 0.23026 0.17535 0.66761 0.0
C2014 C 0.23411 0.19645 0.65182 0.0
C2015 C 0.21361 0.20998 0.64219 0.0
H2016 H 0.77674 0.21608 0.61837 0.0
H2017 H 0.81134 0.17466 0.68006 0.0
H2018 H 0.79884 0.25434 0.6317 0.0
H2019 H 0.83237 0.21304 0.69413 0.0
H2020 H 0.80994 0.3218 0.68599 0.0
H2021 H 0.79494 0.28382 0.66486 0.0
H2022 H 0.86326 0.24439 0.68727 0.0
H2023 H 0.87766 0.28214 0.70954 0.0
C2024 C 0.78911 0.21513 0.63475 0.0
C2025 C 0.79205 0.19241 0.64835 0.0
C2026 C 0.80168 0.2371 0.64247 0.0
C2027 C 0.81717 0.23692 0.66418 0.0
C2028 C 0.82089 0.2139 0.67713 0.0
C2029 C 0.80863 0.19186 0.66918 0.0
C2030 C 0.82189 0.30512 0.68619 0.0
C2031 C 0.84478 0.30486 0.69979 0.0
C2032 C 0.81337 0.28333 0.67388 0.0
C2033 C 0.82776 0.26088 0.67453 0.0
C2034 C 0.8514 0.26113 0.68688 0.0
C2035 C 0.85972 0.28282 0.69954 0.0
H2036 H 0.81521 0.80881 0.67988 0.0
H2037 H 0.77395 0.77391 0.61825 0.0
H2038 H 0.77701 0.83062 0.6931 0.0
H2039 H 0.73586 0.79673 0.63077 0.0
H2040 H 0.70941 0.87689 0.7082 0.0
H2041 H 0.74655 0.86193 0.68535 0.0
H2042 H 0.70551 0.79442 0.66333 0.0
H2043 H 0.66803 0.81011 0.68507 0.0
C2044 C 0.79811 0.8062 0.66881 0.0
C2045 C 0.79757 0.78934 0.64823 0.0
C2046 C 0.77615 0.8189 0.67628 0.0
C2047 C 0.75319 0.81538 0.66309 0.0
C2048 C 0.75303 0.79951 0.64169 0.0
C2049 C 0.77492 0.78652 0.63443 0.0
C2050 C 0.70822 0.85907 0.69804 0.0
C2051 C 0.68595 0.84445 0.69875 0.0
C2052 C 0.72956 0.8504 0.6851 0.0
C2053 C 0.7293 0.82668 0.67294 0.0
C2054 C 0.70645 0.81284 0.67231 0.0
C2055 C 0.68493 0.82177 0.68491 0.0
H2056 H 0.27765 0.11702 0.27814 0.0
H2057 H 0.30754 0.18164 0.31876 0.0
H2058 H 0.30006 0.13056 0.24015 0.0
H2059 H 0.32894 0.19578 0.28061 0.0
H2060 H 0.31022 0.18402 0.17166 0.0
H2061 H 0.29515 0.16302 0.20971 0.0
H2062 H 0.36131 0.18925 0.25048 0.0
H2063 H 0.37578 0.2113 0.21264 0.0
C2064 C 0.28906 0.13408 0.27898 0.0
C2065 C 0.29058 0.14843 0.30138 0.0
C2066 C 0.30181 0.14191 0.25717 0.0
C2067 C 0.3161 0.16441 0.25719 0.0
C2068 C 0.31841 0.17817 0.27992 0.0
C2069 C 0.30595 0.17017 0.30181 0.0
C2070 C 0.3217 0.18508 0.18865 0.0
C2071 C 0.34396 0.19968 0.18925 0.0
C2072 C 0.31315 0.17286 0.21049 0.0
C2073 C 0.32688 0.17464 0.23329 0.0
C2074 C 0.34996 0.18799 0.23342 0.0
C2075 C 0.35832 0.20052 0.21168 0.0
H2076 H 0.87474 0.27475 0.27482 0.0
H2077 H 0.81332 0.30926 0.3166 0.0
H2078 H 0.86112 0.29671 0.2366 0.0
H2079 H 0.79901 0.33024 0.27823 0.0
H2080 H 0.80621 0.30797 0.16929 0.0
H2081 H 0.82777 0.29291 0.20712 0.0
H2082 H 0.80585 0.36117 0.24685 0.0
H2083 H 0.78326 0.37562 0.20932 0.0
C2084 C 0.85837 0.28711 0.27587 0.0
C2085 C 0.84494 0.29003 0.2987 0.0
C2086 C 0.85048 0.29959 0.25391 0.0
C2087 C 0.82877 0.31504 0.25417 0.0
C2088 C 0.816 0.31878 0.2773 0.0
C2089 C 0.8241 0.30657 0.29934 0.0
C2090 C 0.80627 0.3199 0.18599 0.0
C2091 C 0.79267 0.34277 0.18644 0.0
C2092 C 0.81879 0.31135 0.20771 0.0
C2093 C 0.81832 0.32567 0.23023 0.0
C2094 C 0.80607 0.34933 0.23008 0.0
C2095 C 0.79324 0.3577 0.20851 0.0
H2096 H 0.66164 0.81978 0.1691 0.0
H2097 H 0.63137 0.76228 0.21911 0.0
H2098 H 0.67722 0.84324 0.20575 0.0
H2099 H 0.64786 0.78493 0.25535 0.0
H2100 H 0.67117 0.83346 0.31969 0.0
H2101 H 0.64701 0.82003 0.28266 0.0
H2102 H 0.71093 0.83808 0.23461 0.0
H2103 H 0.73447 0.85254 0.27127 0.0
C2104 C 0.65813 0.81224 0.18787 0.0
C2105 C 0.6455 0.789 0.1911 0.0
C2106 C 0.66719 0.82561 0.20889 0.0
C2107 C 0.66409 0.81587 0.23355 0.0
C2108 C 0.65036 0.79326 0.23676 0.0
C2109 C 0.64105 0.78009 0.21583 0.0
C2110 C 0.6799 0.83487 0.30116 0.0
C2111 C 0.70483 0.84384 0.29848 0.0
C2112 C 0.66609 0.82707 0.27993 0.0
C2113 C 0.67707 0.82771 0.25561 0.0
C2114 C 0.70165 0.83764 0.25291 0.0
C2115 C 0.71529 0.84575 0.27405 0.0
H2116 H 0.21939 0.61959 0.21742 0.0
H2117 H 0.17943 0.67828 0.17653 0.0
H2118 H 0.1975 0.63161 0.25619 0.0
H2119 H 0.15859 0.69117 0.21539 0.0
H2120 H 0.1844 0.686 0.32369 0.0
H2121 H 0.19947 0.66462 0.2858 0.0
H2122 H 0.12929 0.68297 0.2475 0.0
H2123 H 0.1149 0.70555 0.28503 0.0
C2124 C 0.20587 0.63503 0.21669 0.0
C2125 C 0.20138 0.64819 0.19394 0.0
C2126 C 0.19342 0.64202 0.23897 0.0
C2127 C 0.17645 0.66257 0.23911 0.0
C2128 C 0.17122 0.67502 0.21607 0.0
C2129 C 0.18337 0.66776 0.19372 0.0
C2130 C 0.17205 0.68512 0.30731 0.0
C2131 C 0.1487 0.69784 0.30717 0.0
C2132 C 0.18062 0.67272 0.28554 0.0
C2133 C 0.16578 0.67237 0.26333 0.0
C2134 C 0.14156 0.68347 0.26396 0.0
C2135 C 0.13321 0.69626 0.28554 0.0
H2136 H 0.37431 0.77904 0.77764 0.0
H2137 H 0.31158 0.81305 0.8179 0.0
H2138 H 0.36152 0.80109 0.73913 0.0
H2139 H 0.2982 0.83409 0.77934 0.0
H2140 H 0.30655 0.81222 0.67104 0.0
H2141 H 0.32873 0.7975 0.70872 0.0
H2142 H 0.30593 0.86537 0.74862 0.0
H2143 H 0.2827 0.87937 0.71132 0.0
C2144 C 0.35786 0.7913 0.77831 0.0
C2145 C 0.34381 0.79408 0.8008 0.0
C2146 C 0.35045 0.80384 0.75619 0.0
C2147 C 0.32871 0.81925 0.756 0.0
C2148 C 0.31528 0.82274 0.77878 0.0
C2149 C 0.32284 0.81046 0.80094 0.0
C2150 C 0.30664 0.82416 0.68773 0.0
C2151 C 0.29247 0.84666 0.68843 0.0
C2152 C 0.31949 0.8158 0.70935 0.0
C2153 C 0.31875 0.83003 0.73193 0.0
C2154 C 0.30627 0.85357 0.73184 0.0
C2155 C 0.29309 0.86168 0.7104 0.0
H2156 H 0.21101 0.37725 0.78068 0.0
H2157 H 0.18539 0.30986 0.81961 0.0
H2158 H 0.18875 0.36374 0.74259 0.0
H2159 H 0.16417 0.29574 0.78128 0.0
H2160 H 0.11778 0.2795 0.71295 0.0
H2161 H 0.13128 0.30104 0.75145 0.0
H2162 H 0.19524 0.33276 0.71113 0.0
H2163 H 0.18107 0.31227 0.67248 0.0
C2164 C 0.20056 0.35957 0.78112 0.0
C2165 C 0.20023 0.34445 0.80305 0.0
C2166 C 0.1879 0.35177 0.75924 0.0
C2167 C 0.17493 0.32849 0.7587 0.0
C2168 C 0.17369 0.31393 0.78103 0.0
C2169 C 0.18604 0.32193 0.80302 0.0
C2170 C 0.13453 0.29138 0.71224 0.0
C2171 C 0.14855 0.29392 0.68973 0.0
C2172 C 0.14235 0.30362 0.73436 0.0
C2173 C 0.16454 0.31838 0.73454 0.0
C2174 C 0.17788 0.32181 0.7117 0.0
C2175 C 0.16986 0.30987 0.68951 0.0
H2176 H 0.68341 0.17727 0.6726 0.0
H2177 H 0.71832 0.11644 0.71494 0.0
H2178 H 0.66163 0.19121 0.71054 0.0
H2179 H 0.69542 0.12956 0.75278 0.0
H2180 H 0.68335 0.18515 0.81964 0.0
H2181 H 0.6982 0.16236 0.78248 0.0
H2182 H 0.63085 0.18516 0.74157 0.0
H2183 H 0.61683 0.20914 0.77837 0.0
C2184 C 0.68598 0.16649 0.68989 0.0
C2185 C 0.70293 0.14601 0.69082 0.0
C2186 C 0.67328 0.17437 0.71171 0.0
C2187 C 0.67687 0.16167 0.73493 0.0
C2188 C 0.69263 0.14018 0.73543 0.0
C2189 C 0.70566 0.13255 0.71368 0.0
C2190 C 0.67155 0.18495 0.80284 0.0
C2191 C 0.6492 0.19932 0.80174 0.0
C2192 C 0.67998 0.17173 0.78149 0.0
C2193 C 0.66596 0.17222 0.75874 0.0
C2194 C 0.64255 0.18496 0.75844 0.0
C2195 C 0.6344 0.19856 0.77961 0.0
H2196 H 0.80988 0.68183 0.67484 0.0
H2197 H 0.87371 0.71358 0.71527 0.0
H2198 H 0.79655 0.65994 0.71304 0.0
H2199 H 0.86111 0.69064 0.75326 0.0
H2200 H 0.78073 0.61426 0.78138 0.0
H2201 H 0.80313 0.62827 0.74358 0.0
H2202 H 0.82914 0.69479 0.78388 0.0
H2203 H 0.80785 0.6801 0.82191 0.0
C2204 C 0.8214 0.68368 0.69174 0.0
C2205 C 0.84258 0.69978 0.69215 0.0
C2206 C 0.81387 0.67094 0.71368 0.0
C2207 C 0.82761 0.67368 0.73641 0.0
C2208 C 0.84972 0.68857 0.7363 0.0
C2209 C 0.85702 0.70162 0.71448 0.0
C2210 C 0.79162 0.63166 0.78226 0.0
C2211 C 0.79221 0.64628 0.80453 0.0
C2212 C 0.80433 0.63978 0.76053 0.0
C2213 C 0.81761 0.6629 0.76046 0.0
C2214 C 0.81935 0.67676 0.7832 0.0
C2215 C 0.80696 0.66843 0.80505 0.0
H2216 H 0.21841 0.37379 0.21613 0.0
H2217 H 0.17677 0.31187 0.18229 0.0
H2218 H 0.25637 0.36075 0.19342 0.0
H2219 H 0.21488 0.29806 0.16062 0.0
H2220 H 0.32403 0.30646 0.1813 0.0
H2221 H 0.28642 0.32814 0.19656 0.0
H2222 H 0.24562 0.30479 0.12934 0.0
H2223 H 0.28294 0.28197 0.11479 0.0
C2224 C 0.21734 0.35743 0.20377 0.0
C2225 C 0.19464 0.34368 0.20124 0.0
C2226 C 0.23916 0.34986 0.19085 0.0
C2227 C 0.23888 0.32816 0.17538 0.0
C2228 C 0.21584 0.31507 0.17206 0.0
C2229 C 0.19394 0.32287 0.18467 0.0
C2230 C 0.30715 0.30625 0.16962 0.0
C2231 C 0.30632 0.29211 0.1471 0.0
C2232 C 0.28554 0.31885 0.17829 0.0
C2233 C 0.26276 0.31794 0.16438 0.0
C2234 C 0.26258 0.30531 0.14091 0.0
C2235 C 0.28404 0.29237 0.13247 0.0
H2236 H 0.32133 0.6884 0.80986 0.0
H2237 H 0.28005 0.71277 0.87622 0.0
H2238 H 0.28379 0.66631 0.79462 0.0
H2239 H 0.24288 0.68967 0.86169 0.0
H2240 H 0.17419 0.68259 0.80886 0.0
H2241 H 0.21248 0.69679 0.8299 0.0
H2242 H 0.25358 0.63334 0.79828 0.0
H2243 H 0.21535 0.61971 0.77624 0.0
C2244 C 0.30443 0.68849 0.8215 0.0
C2245 C 0.30347 0.70271 0.84396 0.0
C2246 C 0.28289 0.67569 0.81285 0.0
C2247 C 0.26011 0.67654 0.82672 0.0
C2248 C 0.25985 0.68921 0.85016 0.0
C2249 C 0.28121 0.70232 0.85857 0.0
C2250 C 0.1913 0.67149 0.80657 0.0
C2251 C 0.19175 0.6502 0.79061 0.0
C2252 C 0.2133 0.67953 0.81884 0.0
C2253 C 0.23624 0.66627 0.81575 0.0
C2254 C 0.23639 0.64427 0.80071 0.0
C2255 C 0.21442 0.63639 0.78818 0.0
H2256 H 0.30539 0.32301 0.81007 0.0
H2257 H 0.2847 0.28412 0.87908 0.0
H2258 H 0.32731 0.28534 0.79537 0.0
H2259 H 0.30791 0.2468 0.86513 0.0
H2260 H 0.37287 0.21783 0.77541 0.0
H2261 H 0.36038 0.25625 0.79764 0.0
H2262 H 0.30117 0.21442 0.83601 0.0
H2263 H 0.31468 0.17588 0.81494 0.0
C2264 C 0.30612 0.30661 0.8224 0.0
C2265 C 0.29295 0.30636 0.8455 0.0
C2266 C 0.31886 0.28497 0.81406 0.0
C2267 C 0.31914 0.26275 0.82888 0.0
C2268 C 0.3075 0.26325 0.85286 0.0
C2269 C 0.29435 0.28471 0.86096 0.0
C2270 C 0.35743 0.21681 0.78891 0.0
C2271 C 0.3445 0.19389 0.79314 0.0
C2272 C 0.35015 0.23889 0.80155 0.0
C2273 C 0.32947 0.23867 0.81837 0.0
C2274 C 0.31737 0.21541 0.82347 0.0
C2275 C 0.32497 0.19324 0.81119 0.0
H2276 H 0.67971 0.31061 0.80932 0.0
H2277 H 0.71904 0.2735 0.87098 0.0
H2278 H 0.71854 0.33195 0.79737 0.0
H2279 H 0.75789 0.29576 0.85953 0.0
H2280 H 0.78613 0.37872 0.78585 0.0
H2281 H 0.74881 0.36319 0.80801 0.0
H2282 H 0.78871 0.29405 0.8266 0.0
H2283 H 0.82641 0.31018 0.80547 0.0
C2284 C 0.69655 0.30732 0.82062 0.0
C2285 C 0.69629 0.29013 0.84096 0.0
C2286 C 0.71885 0.31978 0.81389 0.0
C2287 C 0.74141 0.31563 0.82751 0.0
C2288 C 0.74095 0.29912 0.84843 0.0
C2289 C 0.71864 0.28644 0.85504 0.0
C2290 C 0.78707 0.36041 0.79512 0.0
C2291 C 0.80903 0.34545 0.79354 0.0
C2292 C 0.76563 0.35143 0.80768 0.0
C2293 C 0.76552 0.32711 0.81856 0.0
C2294 C 0.78811 0.31291 0.81853 0.0
C2295 C 0.80973 0.3221 0.80629 0.0
H2296 H 0.71024 0.71168 0.87567 0.0
H2297 H 0.68561 0.67145 0.80866 0.0
H2298 H 0.68757 0.74924 0.86146 0.0
H2299 H 0.66402 0.70931 0.7938 0.0
H2300 H 0.61742 0.77753 0.77621 0.0
H2301 H 0.63098 0.73918 0.79806 0.0
H2302 H 0.69445 0.78009 0.83009 0.0
H2303 H 0.68028 0.81849 0.80932 0.0
C2304 C 0.69992 0.71085 0.85792 0.0
C2305 C 0.70001 0.68874 0.84308 0.0
C2306 C 0.68702 0.73242 0.84971 0.0
C2307 C 0.67429 0.73249 0.82628 0.0
C2308 C 0.67338 0.70993 0.81206 0.0
C2309 C 0.68594 0.68823 0.82049 0.0
C2310 C 0.63408 0.77838 0.78821 0.0
C2311 C 0.64793 0.80101 0.79081 0.0
C2312 C 0.64193 0.75636 0.80063 0.0
C2313 C 0.66394 0.75643 0.81567 0.0
C2314 C 0.67719 0.77934 0.81899 0.0
C2315 C 0.66917 0.80139 0.80687 0.0
H2316 H 0.71383 0.71553 0.12001 0.0
H2317 H 0.67215 0.68093 0.18149 0.0
H2318 H 0.75216 0.69393 0.13386 0.0
H2319 H 0.71061 0.66042 0.1961 0.0
H2320 H 0.81938 0.68377 0.18858 0.0
H2321 H 0.78132 0.69839 0.16726 0.0
H2322 H 0.74231 0.62984 0.18974 0.0
H2323 H 0.78011 0.61583 0.21219 0.0
C2324 C 0.71284 0.70326 0.13646 0.0
C2325 C 0.69003 0.70019 0.14986 0.0
C2326 C 0.73485 0.69099 0.14448 0.0
C2327 C 0.73462 0.67568 0.1663 0.0
C2328 C 0.71151 0.67179 0.17904 0.0
C2329 C 0.68942 0.68374 0.17078 0.0
C2330 C 0.80277 0.6717 0.18877 0.0
C2331 C 0.80262 0.64885 0.2024 0.0
C2332 C 0.78094 0.68 0.17635 0.0
C2333 C 0.7586 0.66541 0.17693 0.0
C2334 C 0.75896 0.64185 0.1894 0.0
C2335 C 0.78067 0.63375 0.20216 0.0
H2336 H 0.36061 0.77406 0.23038 0.0
H2337 H 0.32917 0.82486 0.17421 0.0
H2338 H 0.34434 0.73811 0.20717 0.0
H2339 H 0.31376 0.78849 0.15017 0.0
H2340 H 0.25762 0.72199 0.1399 0.0
H2341 H 0.28062 0.75884 0.15481 0.0
H2342 H 0.34558 0.71168 0.17143 0.0
H2343 H 0.32199 0.67446 0.15756 0.0
C2344 C 0.35068 0.77759 0.21275 0.0
C2345 C 0.34591 0.80244 0.20436 0.0
C2346 C 0.34151 0.75683 0.19925 0.0
C2347 C 0.32757 0.76031 0.17681 0.0
C2348 C 0.32399 0.78513 0.16764 0.0
C2349 C 0.33296 0.80598 0.18134 0.0
C2350 C 0.27692 0.71947 0.14645 0.0
C2351 C 0.28784 0.69521 0.14788 0.0
C2352 C 0.29023 0.74071 0.15483 0.0
C2353 C 0.31494 0.73829 0.16455 0.0
C2354 C 0.32638 0.71418 0.1646 0.0
C2355 C 0.31291 0.69284 0.15654 0.0
H2356 H 0.68575 0.32178 0.18245 0.0
H2357 H 0.70857 0.28128 0.11502 0.0
H2358 H 0.66469 0.28389 0.19807 0.0
H2359 H 0.68651 0.24369 0.13007 0.0
H2360 H 0.61915 0.21507 0.21711 0.0
H2361 H 0.63176 0.25347 0.19481 0.0
H2362 H 0.69502 0.21324 0.16173 0.0
H2363 H 0.68183 0.17475 0.1831 0.0
C2364 C 0.68574 0.30497 0.17068 0.0
C2365 C 0.69923 0.30437 0.14775 0.0
C2366 C 0.67352 0.28323 0.17956 0.0
C2367 C 0.67421 0.26056 0.1655 0.0
C2368 C 0.68618 0.26059 0.1417 0.0
C2369 C 0.6987 0.28219 0.133 0.0
C2370 C 0.63557 0.21437 0.20482 0.0
C2371 C 0.64963 0.19189 0.20207 0.0
C2372 C 0.64287 0.23642 0.19213 0.0
C2373 C 0.66452 0.23656 0.1766 0.0
C2374 C 0.67802 0.21381 0.17319 0.0
C2375 C 0.67057 0.19171 0.18564 0.0
loop_
_geom_bond_atom_site_label_1
_geom_bond_atom_site_label_2
_geom_bond_distance
_geom_bond_site_symmetry_2
_ccdc_geom_bond_type
Co0 O2 2.143 . S
Co0 O8 2.074 . S
Co0 O11 2.093 . S
Co0 O24 2.097 . S
Co0 N41 2.151 . S
Co0 N49 2.214 . S
Co1 O2 2.160 . S
Co1 O7 2.058 . S
Co1 O17 2.057 . S
Co1 O32 2.037 . S
Co1 N36 2.145 . S
Co1 N57 2.257 . S
O2 Co0 2.143 . S
O2 Co1 2.160 . S
C3 O4 1.278 . S
C3 O11 1.224 . S
O4 C3 1.278 . S
C5 O6 1.245 . S
C5 O17 1.232 . S
O6 C5 1.245 . S
O7 Co1 2.058 . S
O7 C33 1.269 . S
O8 Co0 2.074 . S
O8 C33 1.257 . S
H9 C34 0.930 . S
H10 C40 0.930 . S
O11 Co0 2.093 . S
O11 C3 1.224 . S
H12 C44 0.929 . S
H13 C46 0.930 . S
H14 C47 0.930 . S
H15 C45 0.929 . S
H16 C48 0.928 . S
O17 Co1 2.057 . S
O17 C5 1.232 . S
H18 C37 0.929 . S
H19 C38 0.929 . S
H20 C50 0.931 . S
H21 C42 0.929 . S
H22 C51 0.930 . S
H23 C43 0.931 . S
O24 Co0 2.097 . S
O24 C52 1.214 . S
H25 C53 0.929 . S
H26 C54 0.929 . S
H27 C55 0.930 . S
H28 C56 0.929 . S
H29 C58 0.930 . S
H30 C35 0.930 . S
H31 C39 0.930 . S
O32 Co1 2.037 . S
O32 C52 1.234 . S
C33 O7 1.269 . S
C33 O8 1.257 . S
C34 H9 0.930 . S
C34 C37 1.388 . S
C34 C39 1.418 . S
C35 H30 0.930 . S
C35 C38 1.404 . S
C35 C39 1.353 . S
N36 Co1 2.145 . S
N36 C37 1.397 . S
N36 C38 1.334 . S
C37 H18 0.929 . S
C37 C34 1.388 . S
C37 N36 1.397 . S
C38 H19 0.929 . S
C38 C35 1.404 . S
C38 N36 1.334 . S
C39 H31 0.930 . S
C39 C34 1.418 . S
C39 C35 1.353 . S
C40 H10 0.930 . S
C40 N41 1.330 . S
C40 C42 1.446 . S
N41 Co0 2.151 . S
N41 C40 1.330 . S
N41 C45 1.418 . S
C42 H21 0.929 . S
C42 C40 1.446 . S
C42 C43 1.332 . S
C43 H23 0.931 . S
C43 C42 1.332 . S
C43 C44 1.267 . S
C44 H12 0.929 . S
C44 C43 1.267 . S
C44 C45 1.251 . S
C45 H15 0.929 . S
C45 N41 1.418 . S
C45 C44 1.251 . S
C46 H13 0.930 . S
C46 C48 1.406 . S
C46 C51 1.261 . S
C47 H14 0.930 . S
C47 N49 1.325 . S
C47 C50 1.357 . S
C48 H16 0.928 . S
C48 C46 1.406 . S
C48 N49 1.261 . S
N49 Co0 2.214 . S
N49 C47 1.325 . S
N49 C48 1.261 . S
C50 H20 0.931 . S
C50 C47 1.357 . S
C50 C51 1.312 . S
C51 H22 0.930 . S
C51 C46 1.261 . S
C51 C50 1.312 . S
C52 O24 1.214 . S
C52 O32 1.234 . S
C53 H25 0.929 . S
C53 C56 1.391 . S
C53 C58 1.391 . S
C54 H26 0.929 . S
C54 C55 1.390 . S
C54 N57 1.391 . S
C55 H27 0.930 . S
C55 C54 1.390 . S
C55 C56 1.392 . S
C56 H28 0.929 . S
C56 C53 1.391 . S
C56 C55 1.392 . S
N57 Co1 2.257 . S
N57 C54 1.391 . S
N57 C58 1.388 . S
C58 H29 0.930 . S
C58 C53 1.391 . S
C58 N57 1.388 . S
Co59 O61 2.143 . S
Co59 O67 2.074 . S
Co59 O70 2.093 . S
Co59 O83 2.097 . S
Co59 N100 2.151 . S
Co59 N108 2.214 . S
Co60 O61 2.160 . S
Co60 O66 2.058 . S
Co60 O76 2.057 . S
Co60 O91 2.037 . S
Co60 N95 2.145 . S
Co60 N116 2.257 . S
O61 Co59 2.143 . S
O61 Co60 2.160 . S
C62 O63 1.278 . S
C62 O70 1.224 . S
O63 C62 1.278 . S
C64 O65 1.245 . S
C64 O76 1.232 . S
O65 C64 1.245 . S
O66 Co60 2.058 . S
O66 C92 1.269 . S
O67 Co59 2.074 . S
O67 C92 1.257 . S
H68 C93 0.930 . S
H69 C99 0.930 . S
O70 Co59 2.093 . S
O70 C62 1.224 . S
H71 C103 0.929 . S
H72 C105 0.930 . S
H73 C106 0.930 . S
H74 C104 0.929 . S
H75 C107 0.928 . S
O76 Co60 2.057 . S
O76 C64 1.232 . S
H77 C96 0.929 . S
H78 C97 0.929 . S
H79 C109 0.931 . S
H80 C101 0.929 . S
H81 C110 0.930 . S
H82 C102 0.931 . S
O83 Co59 2.097 . S
O83 C111 1.214 . S
H84 C112 0.929 . S
H85 C113 0.929 . S
H86 C114 0.930 . S
H87 C115 0.929 . S
H88 C117 0.930 . S
H89 C94 0.930 . S
H90 C98 0.930 . S
O91 Co60 2.037 . S
O91 C111 1.234 . S
C92 O66 1.269 . S
C92 O67 1.257 . S
C93 H68 0.930 . S
C93 C96 1.388 . S
C93 C98 1.418 . S
C94 H89 0.930 . S
C94 C97 1.404 . S
C94 C98 1.353 . S
N95 Co60 2.145 . S
N95 C96 1.397 . S
N95 C97 1.334 . S
C96 H77 0.929 . S
C96 C93 1.388 . S
C96 N95 1.397 . S
C97 H78 0.929 . S
C97 C94 1.404 . S
C97 N95 1.334 . S
C98 H90 0.930 . S
C98 C93 1.418 . S
C98 C94 1.353 . S
C99 H69 0.930 . S
C99 N100 1.330 . S
C99 C101 1.446 . S
N100 Co59 2.151 . S
N100 C99 1.330 . S
N100 C104 1.418 . S
C101 H80 0.929 . S
C101 C99 1.446 . S
C101 C102 1.332 . S
C102 H82 0.931 . S
C102 C101 1.332 . S
C102 C103 1.267 . S
C103 H71 0.929 . S
C103 C102 1.267 . S
C103 C104 1.251 . S
C104 H74 0.929 . S
C104 N100 1.418 . S
C104 C103 1.251 . S
C105 H72 0.930 . S
C105 C107 1.406 . S
C105 C110 1.261 . S
C106 H73 0.930 . S
C106 N108 1.325 . S
C106 C109 1.357 . S
C107 H75 0.928 . S
C107 C105 1.406 . S
C107 N108 1.261 . S
N108 Co59 2.214 . S
N108 C106 1.325 . S
N108 C107 1.261 . S
C109 H79 0.931 . S
C109 C106 1.357 . S
C109 C110 1.312 . S
C110 H81 0.930 . S
C110 C105 1.261 . S
C110 C109 1.312 . S
C111 O83 1.214 . S
C111 O91 1.234 . S
C112 H84 0.929 . S
C112 C115 1.391 . S
C112 C117 1.391 . S
C113 H85 0.929 . S
C113 C114 1.390 . S
C113 N116 1.391 . S
C114 H86 0.930 . S
C114 C113 1.390 . S
C114 C115 1.392 . S
C115 H87 0.929 . S
C115 C112 1.391 . S
C115 C114 1.392 . S
N116 Co60 2.257 . S
N116 C113 1.391 . S
N116 C117 1.388 . S
C117 H88 0.930 . S
C117 C112 1.391 . S
C117 N116 1.388 . S
Co118 O120 2.143 . S
Co118 O126 2.074 . S
Co118 O129 2.093 . S
Co118 O142 2.097 . S
Co118 N159 2.151 . S
Co118 N167 2.214 . S
Co119 O120 2.160 . S
Co119 O125 2.058 . S
Co119 O135 2.057 . S
Co119 O150 2.037 . S
Co119 N154 2.145 . S
Co119 N175 2.257 . S
O120 Co118 2.143 . S
O120 Co119 2.160 . S
C121 O122 1.278 . S
C121 O129 1.224 . S
O122 C121 1.278 . S
C123 O124 1.245 . S
C123 O135 1.232 . S
O124 C123 1.245 . S
O125 Co119 2.058 . S
O125 C151 1.269 . S
O126 Co118 2.074 . S
O126 C151 1.257 . S
H127 C152 0.930 . S
H128 C158 0.930 . S
O129 Co118 2.093 . S
O129 C121 1.224 . S
H130 C162 0.929 . S
H131 C164 0.930 . S
H132 C165 0.930 . S
H133 C163 0.929 . S
H134 C166 0.928 . S
O135 Co119 2.057 . S
O135 C123 1.232 . S
H136 C155 0.929 . S
H137 C156 0.929 . S
H138 C168 0.931 . S
H139 C160 0.929 . S
H140 C169 0.930 . S
H141 C161 0.931 . S
O142 Co118 2.097 . S
O142 C170 1.214 . S
H143 C171 0.929 . S
H144 C172 0.929 . S
H145 C173 0.930 . S
H146 C174 0.929 . S
H147 C176 0.930 . S
H148 C153 0.930 . S
H149 C157 0.930 . S
O150 Co119 2.037 . S
O150 C170 1.234 . S
C151 O125 1.269 . S
C151 O126 1.257 . S
C152 H127 0.930 . S
C152 C155 1.388 . S
C152 C157 1.418 . S
C153 H148 0.930 . S
C153 C156 1.404 . S
C153 C157 1.353 . S
N154 Co119 2.145 . S
N154 C155 1.397 . S
N154 C156 1.334 . S
C155 H136 0.929 . S
C155 C152 1.388 . S
C155 N154 1.397 . S
C156 H137 0.929 . S
C156 C153 1.404 . S
C156 N154 1.334 . S
C157 H149 0.930 . S
C157 C152 1.418 . S
C157 C153 1.353 . S
C158 H128 0.930 . S
C158 N159 1.330 . S
C158 C160 1.446 . S
N159 Co118 2.151 . S
N159 C158 1.330 . S
N159 C163 1.418 . S
C160 H139 0.929 . S
C160 C158 1.446 . S
C160 C161 1.332 . S
C161 H141 0.931 . S
C161 C160 1.332 . S
C161 C162 1.267 . S
C162 H130 0.929 . S
C162 C161 1.267 . S
C162 C163 1.251 . S
C163 H133 0.929 . S
C163 N159 1.418 . S
C163 C162 1.251 . S
C164 H131 0.930 . S
C164 C166 1.406 . S
C164 C169 1.261 . S
C165 H132 0.930 . S
C165 N167 1.325 . S
C165 C168 1.357 . S
C166 H134 0.928 . S
C166 C164 1.406 . S
C166 N167 1.261 . S
N167 Co118 2.214 . S
N167 C165 1.325 . S
N167 C166 1.261 . S
C168 H138 0.931 . S
C168 C165 1.357 . S
C168 C169 1.312 . S
C169 H140 0.930 . S
C169 C164 1.261 . S
C169 C168 1.312 . S
C170 O142 1.214 . S
C170 O150 1.234 . S
C171 H143 0.929 . S
C171 C174 1.391 . S
C171 C176 1.391 . S
C172 H144 0.929 . S
C172 C173 1.390 . S
C172 N175 1.391 . S
C173 H145 0.930 . S
C173 C172 1.390 . S
C173 C174 1.392 . S
C174 H146 0.929 . S
C174 C171 1.391 . S
C174 C173 1.392 . S
N175 Co119 2.257 . S
N175 C172 1.391 . S
N175 C176 1.388 . S
C176 H147 0.930 . S
C176 C171 1.391 . S
C176 N175 1.388 . S
Co177 O179 2.143 . S
Co177 O185 2.074 . S
Co177 O188 2.093 . S
Co177 O201 2.097 . S
Co177 N218 2.151 . S
Co177 N226 2.214 . S
Co178 O179 2.160 . S
Co178 O184 2.058 . S
Co178 O194 2.057 . S
Co178 O209 2.037 . S
Co178 N213 2.145 . S
Co178 N234 2.257 . S
O179 Co177 2.143 . S
O179 Co178 2.160 . S
C180 O181 1.278 . S
C180 O188 1.224 . S
O181 C180 1.278 . S
C182 O183 1.245 . S
C182 O194 1.232 . S
O183 C182 1.245 . S
O184 Co178 2.058 . S
O184 C210 1.269 . S
O185 Co177 2.074 . S
O185 C210 1.257 . S
H186 C211 0.930 . S
H187 C217 0.930 . S
O188 Co177 2.093 . S
O188 C180 1.224 . S
H189 C221 0.929 . S
H190 C223 0.930 . S
H191 C224 0.930 . S
H192 C222 0.929 . S
H193 C225 0.928 . S
O194 Co178 2.057 . S
O194 C182 1.232 . S
H195 C214 0.929 . S
H196 C215 0.929 . S
H197 C227 0.931 . S
H198 C219 0.929 . S
H199 C228 0.930 . S
H200 C220 0.931 . S
O201 Co177 2.097 . S
O201 C229 1.214 . S
H202 C230 0.929 . S
H203 C231 0.929 . S
H204 C232 0.930 . S
H205 C233 0.929 . S
H206 C235 0.930 . S
H207 C212 0.930 . S
H208 C216 0.930 . S
O209 Co178 2.037 . S
O209 C229 1.234 . S
C210 O184 1.269 . S
C210 O185 1.257 . S
C211 H186 0.930 . S
C211 C214 1.388 . S
C211 C216 1.418 . S
C212 H207 0.930 . S
C212 C215 1.404 . S
C212 C216 1.353 . S
N213 Co178 2.145 . S
N213 C214 1.397 . S
N213 C215 1.334 . S
C214 H195 0.929 . S
C214 C211 1.388 . S
C214 N213 1.397 . S
C215 H196 0.929 . S
C215 C212 1.404 . S
C215 N213 1.334 . S
C216 H208 0.930 . S
C216 C211 1.418 . S
C216 C212 1.353 . S
C217 H187 0.930 . S
C217 N218 1.330 . S
C217 C219 1.446 . S
N218 Co177 2.151 . S
N218 C217 1.330 . S
N218 C222 1.418 . S
C219 H198 0.929 . S
C219 C217 1.446 . S
C219 C220 1.332 . S
C220 H200 0.931 . S
C220 C219 1.332 . S
C220 C221 1.267 . S
C221 H189 0.929 . S
C221 C220 1.267 . S
C221 C222 1.251 . S
C222 H192 0.929 . S
C222 N218 1.418 . S
C222 C221 1.251 . S
C223 H190 0.930 . S
C223 C225 1.406 . S
C223 C228 1.261 . S
C224 H191 0.930 . S
C224 N226 1.325 . S
C224 C227 1.357 . S
C225 H193 0.928 . S
C225 C223 1.406 . S
C225 N226 1.261 . S
N226 Co177 2.214 . S
N226 C224 1.325 . S
N226 C225 1.261 . S
C227 H197 0.931 . S
C227 C224 1.357 . S
C227 C228 1.312 . S
C228 H199 0.930 . S
C228 C223 1.261 . S
C228 C227 1.312 . S
C229 O201 1.214 . S
C229 O209 1.234 . S
C230 H202 0.929 . S
C230 C233 1.391 . S
C230 C235 1.391 . S
C231 H203 0.929 . S
C231 C232 1.390 . S
C231 N234 1.391 . S
C232 H204 0.930 . S
C232 C231 1.390 . S
C232 C233 1.392 . S
C233 H205 0.929 . S
C233 C230 1.391 . S
C233 C232 1.392 . S
N234 Co178 2.257 . S
N234 C231 1.391 . S
N234 C235 1.388 . S
C235 H206 0.930 . S
C235 C230 1.391 . S
C235 N234 1.388 . S
Co236 O238 2.143 . S
Co236 O244 2.074 . S
Co236 O247 2.093 . S
Co236 O260 2.097 . S
Co236 N277 2.151 . S
Co236 N285 2.214 . S
Co237 O238 2.160 . S
Co237 O243 2.058 . S
Co237 O253 2.057 . S
Co237 O268 2.037 . S
Co237 N272 2.145 . S
Co237 N293 2.257 . S
O238 Co236 2.143 . S
O238 Co237 2.160 . S
C239 O240 1.278 . S
C239 O247 1.224 . S
O240 C239 1.278 . S
C241 O242 1.245 . S
C241 O253 1.232 . S
O242 C241 1.245 . S
O243 Co237 2.058 . S
O243 C269 1.269 . S
O244 Co236 2.074 . S
O244 C269 1.257 . S
H245 C270 0.930 . S
H246 C276 0.930 . S
O247 Co236 2.093 . S
O247 C239 1.224 . S
H248 C280 0.929 . S
H249 C282 0.930 . S
H250 C283 0.930 . S
H251 C281 0.929 . S
H252 C284 0.928 . S
O253 Co237 2.057 . S
O253 C241 1.232 . S
H254 C273 0.929 . S
H255 C274 0.929 . S
H256 C286 0.931 . S
H257 C278 0.929 . S
H258 C287 0.930 . S
H259 C279 0.931 . S
O260 Co236 2.097 . S
O260 C288 1.214 . S
H261 C289 0.929 . S
H262 C290 0.929 . S
H263 C291 0.930 . S
H264 C292 0.929 . S
H265 C294 0.930 . S
H266 C271 0.930 . S
H267 C275 0.930 . S
O268 Co237 2.037 . S
O268 C288 1.234 . S
C269 O243 1.269 . S
C269 O244 1.257 . S
C270 H245 0.930 . S
C270 C273 1.388 . S
C270 C275 1.418 . S
C271 H266 0.930 . S
C271 C274 1.404 . S
C271 C275 1.353 . S
N272 Co237 2.145 . S
N272 C273 1.397 . S
N272 C274 1.334 . S
C273 H254 0.929 . S
C273 C270 1.388 . S
C273 N272 1.397 . S
C274 H255 0.929 . S
C274 C271 1.404 . S
C274 N272 1.334 . S
C275 H267 0.930 . S
C275 C270 1.418 . S
C275 C271 1.353 . S
C276 H246 0.930 . S
C276 N277 1.330 . S
C276 C278 1.446 . S
N277 Co236 2.151 . S
N277 C276 1.330 . S
N277 C281 1.418 . S
C278 H257 0.929 . S
C278 C276 1.446 . S
C278 C279 1.332 . S
C279 H259 0.931 . S
C279 C278 1.332 . S
C279 C280 1.267 . S
C280 H248 0.929 . S
C280 C279 1.267 . S
C280 C281 1.251 . S
C281 H251 0.929 . S
C281 N277 1.418 . S
C281 C280 1.251 . S
C282 H249 0.930 . S
C282 C284 1.406 . S
C282 C287 1.261 . S
C283 H250 0.930 . S
C283 N285 1.325 . S
C283 C286 1.357 . S
C284 H252 0.928 . S
C284 C282 1.406 . S
C284 N285 1.261 . S
N285 Co236 2.214 . S
N285 C283 1.325 . S
N285 C284 1.261 . S
C286 H256 0.931 . S
C286 C283 1.357 . S
C286 C287 1.312 . S
C287 H258 0.930 . S
C287 C282 1.261 . S
C287 C286 1.312 . S
C288 O260 1.214 . S
C288 O268 1.234 . S
C289 H261 0.929 . S
C289 C292 1.391 . S
C289 C294 1.391 . S
C290 H262 0.929 . S
C290 C291 1.390 . S
C290 N293 1.391 . S
C291 H263 0.930 . S
C291 C290 1.390 . S
C291 C292 1.392 . S
C292 H264 0.929 . S
C292 C289 1.391 . S
C292 C291 1.392 . S
N293 Co237 2.257 . S
N293 C290 1.391 . S
N293 C294 1.388 . S
C294 H265 0.930 . S
C294 C289 1.391 . S
C294 N293 1.388 . S
Co295 O297 2.143 . S
Co295 O303 2.074 . S
Co295 O306 2.093 . S
Co295 O319 2.097 . S
Co295 N336 2.151 . S
Co295 N344 2.214 . S
Co296 O297 2.160 . S
Co296 O302 2.058 . S
Co296 O312 2.057 . S
Co296 O327 2.037 . S
Co296 N331 2.145 . S
Co296 N352 2.257 . S
O297 Co295 2.143 . S
O297 Co296 2.160 . S
C298 O299 1.278 . S
C298 O306 1.224 . S
O299 C298 1.278 . S
C300 O301 1.245 . S
C300 O312 1.232 . S
O301 C300 1.245 . S
O302 Co296 2.058 . S
O302 C328 1.269 . S
O303 Co295 2.074 . S
O303 C328 1.257 . S
H304 C329 0.930 . S
H305 C335 0.930 . S
O306 Co295 2.093 . S
O306 C298 1.224 . S
H307 C339 0.929 . S
H308 C341 0.930 . S
H309 C342 0.930 . S
H310 C340 0.929 . S
H311 C343 0.928 . S
O312 Co296 2.057 . S
O312 C300 1.232 . S
H313 C332 0.929 . S
H314 C333 0.929 . S
H315 C345 0.931 . S
H316 C337 0.929 . S
H317 C346 0.930 . S
H318 C338 0.931 . S
O319 Co295 2.097 . S
O319 C347 1.214 . S
H320 C348 0.929 . S
H321 C349 0.929 . S
H322 C350 0.930 . S
H323 C351 0.929 . S
H324 C353 0.930 . S
H325 C330 0.930 . S
H326 C334 0.930 . S
O327 Co296 2.037 . S
O327 C347 1.234 . S
C328 O302 1.269 . S
C328 O303 1.257 . S
C329 H304 0.930 . S
C329 C332 1.388 . S
C329 C334 1.418 . S
C330 H325 0.930 . S
C330 C333 1.404 . S
C330 C334 1.353 . S
N331 Co296 2.145 . S
N331 C332 1.397 . S
N331 C333 1.334 . S
C332 H313 0.929 . S
C332 C329 1.388 . S
C332 N331 1.397 . S
C333 H314 0.929 . S
C333 C330 1.404 . S
C333 N331 1.334 . S
C334 H326 0.930 . S
C334 C329 1.418 . S
C334 C330 1.353 . S
C335 H305 0.930 . S
C335 N336 1.330 . S
C335 C337 1.446 . S
N336 Co295 2.151 . S
N336 C335 1.330 . S
N336 C340 1.418 . S
C337 H316 0.929 . S
C337 C335 1.446 . S
C337 C338 1.332 . S
C338 H318 0.931 . S
C338 C337 1.332 . S
C338 C339 1.267 . S
C339 H307 0.929 . S
C339 C338 1.267 . S
C339 C340 1.251 . S
C340 H310 0.929 . S
C340 N336 1.418 . S
C340 C339 1.251 . S
C341 H308 0.930 . S
C341 C343 1.406 . S
C341 C346 1.261 . S
C342 H309 0.930 . S
C342 N344 1.325 . S
C342 C345 1.357 . S
C343 H311 0.928 . S
C343 C341 1.406 . S
C343 N344 1.261 . S
N344 Co295 2.214 . S
N344 C342 1.325 . S
N344 C343 1.261 . S
C345 H315 0.931 . S
C345 C342 1.357 . S
C345 C346 1.312 . S
C346 H317 0.930 . S
C346 C341 1.261 . S
C346 C345 1.312 . S
C347 O319 1.214 . S
C347 O327 1.234 . S
C348 H320 0.929 . S
C348 C351 1.391 . S
C348 C353 1.391 . S
C349 H321 0.929 . S
C349 C350 1.390 . S
C349 N352 1.391 . S
C350 H322 0.930 . S
C350 C349 1.390 . S
C350 C351 1.392 . S
C351 H323 0.929 . S
C351 C348 1.391 . S
C351 C350 1.392 . S
N352 Co296 2.257 . S
N352 C349 1.391 . S
N352 C353 1.388 . S
C353 H324 0.930 . S
C353 C348 1.391 . S
C353 N352 1.388 . S
Co354 O356 2.143 . S
Co354 O362 2.074 . S
Co354 O365 2.093 . S
Co354 O378 2.097 . S
Co354 N395 2.151 . S
Co354 N403 2.214 . S
Co355 O356 2.160 . S
Co355 O361 2.058 . S
Co355 O371 2.057 . S
Co355 O386 2.037 . S
Co355 N390 2.145 . S
Co355 N411 2.257 . S
O356 Co354 2.143 . S
O356 Co355 2.160 . S
C357 O358 1.278 . S
C357 O365 1.224 . S
O358 C357 1.278 . S
C359 O360 1.245 . S
C359 O371 1.232 . S
O360 C359 1.245 . S
O361 Co355 2.058 . S
O361 C387 1.269 . S
O362 Co354 2.074 . S
O362 C387 1.257 . S
H363 C388 0.930 . S
H364 C394 0.930 . S
O365 Co354 2.093 . S
O365 C357 1.224 . S
H366 C398 0.929 . S
H367 C400 0.930 . S
H368 C401 0.930 . S
H369 C399 0.929 . S
H370 C402 0.928 . S
O371 Co355 2.057 . S
O371 C359 1.232 . S
H372 C391 0.929 . S
H373 C392 0.929 . S
H374 C404 0.931 . S
H375 C396 0.929 . S
H376 C405 0.930 . S
H377 C397 0.931 . S
O378 Co354 2.097 . S
O378 C406 1.214 . S
H379 C407 0.929 . S
H380 C408 0.929 . S
H381 C409 0.930 . S
H382 C410 0.929 . S
H383 C412 0.930 . S
H384 C389 0.930 . S
H385 C393 0.930 . S
O386 Co355 2.037 . S
O386 C406 1.234 . S
C387 O361 1.269 . S
C387 O362 1.257 . S
C388 H363 0.930 . S
C388 C391 1.388 . S
C388 C393 1.418 . S
C389 H384 0.930 . S
C389 C392 1.404 . S
C389 C393 1.353 . S
N390 Co355 2.145 . S
N390 C391 1.397 . S
N390 C392 1.334 . S
C391 H372 0.929 . S
C391 C388 1.388 . S
C391 N390 1.397 . S
C392 H373 0.929 . S
C392 C389 1.404 . S
C392 N390 1.334 . S
C393 H385 0.930 . S
C393 C388 1.418 . S
C393 C389 1.353 . S
C394 H364 0.930 . S
C394 N395 1.330 . S
C394 C396 1.446 . S
N395 Co354 2.151 . S
N395 C394 1.330 . S
N395 C399 1.418 . S
C396 H375 0.929 . S
C396 C394 1.446 . S
C396 C397 1.332 . S
C397 H377 0.931 . S
C397 C396 1.332 . S
C397 C398 1.267 . S
C398 H366 0.929 . S
C398 C397 1.267 . S
C398 C399 1.251 . S
C399 H369 0.929 . S
C399 N395 1.418 . S
C399 C398 1.251 . S
C400 H367 0.930 . S
C400 C402 1.406 . S
C400 C405 1.261 . S
C401 H368 0.930 . S
C401 N403 1.325 . S
C401 C404 1.357 . S
C402 H370 0.928 . S
C402 C400 1.406 . S
C402 N403 1.261 . S
N403 Co354 2.214 . S
N403 C401 1.325 . S
N403 C402 1.261 . S
C404 H374 0.931 . S
C404 C401 1.357 . S
C404 C405 1.312 . S
C405 H376 0.930 . S
C405 C400 1.261 . S
C405 C404 1.312 . S
C406 O378 1.214 . S
C406 O386 1.234 . S
C407 H379 0.929 . S
C407 C410 1.391 . S
C407 C412 1.391 . S
C408 H380 0.929 . S
C408 C409 1.390 . S
C408 N411 1.391 . S
C409 H381 0.930 . S
C409 C408 1.390 . S
C409 C410 1.392 . S
C410 H382 0.929 . S
C410 C407 1.391 . S
C410 C409 1.392 . S
N411 Co355 2.257 . S
N411 C408 1.391 . S
N411 C412 1.388 . S
C412 H383 0.930 . S
C412 C407 1.391 . S
C412 N411 1.388 . S
Co413 O415 2.143 . S
Co413 O421 2.074 . S
Co413 O424 2.093 . S
Co413 O437 2.097 . S
Co413 N454 2.151 . S
Co413 N462 2.214 . S
Co414 O415 2.160 . S
Co414 O420 2.058 . S
Co414 O430 2.057 . S
Co414 O445 2.037 . S
Co414 N449 2.145 . S
Co414 N470 2.257 . S
O415 Co413 2.143 . S
O415 Co414 2.160 . S
C416 O417 1.278 . S
C416 O424 1.224 . S
O417 C416 1.278 . S
C418 O419 1.245 . S
C418 O430 1.232 . S
O419 C418 1.245 . S
O420 Co414 2.058 . S
O420 C446 1.269 . S
O421 Co413 2.074 . S
O421 C446 1.257 . S
H422 C447 0.930 . S
H423 C453 0.930 . S
O424 Co413 2.093 . S
O424 C416 1.224 . S
H425 C457 0.929 . S
H426 C459 0.930 . S
H427 C460 0.930 . S
H428 C458 0.929 . S
H429 C461 0.928 . S
O430 Co414 2.057 . S
O430 C418 1.232 . S
H431 C450 0.929 . S
H432 C451 0.929 . S
H433 C463 0.931 . S
H434 C455 0.929 . S
H435 C464 0.930 . S
H436 C456 0.931 . S
O437 Co413 2.097 . S
O437 C465 1.214 . S
H438 C466 0.929 . S
H439 C467 0.929 . S
H440 C468 0.930 . S
H441 C469 0.929 . S
H442 C471 0.930 . S
H443 C448 0.930 . S
H444 C452 0.930 . S
O445 Co414 2.037 . S
O445 C465 1.234 . S
C446 O420 1.269 . S
C446 O421 1.257 . S
C447 H422 0.930 . S
C447 C450 1.388 . S
C447 C452 1.418 . S
C448 H443 0.930 . S
C448 C451 1.404 . S
C448 C452 1.353 . S
N449 Co414 2.145 . S
N449 C450 1.397 . S
N449 C451 1.334 . S
C450 H431 0.929 . S
C450 C447 1.388 . S
C450 N449 1.397 . S
C451 H432 0.929 . S
C451 C448 1.404 . S
C451 N449 1.334 . S
C452 H444 0.930 . S
C452 C447 1.418 . S
C452 C448 1.353 . S
C453 H423 0.930 . S
C453 N454 1.330 . S
C453 C455 1.446 . S
N454 Co413 2.151 . S
N454 C453 1.330 . S
N454 C458 1.418 . S
C455 H434 0.929 . S
C455 C453 1.446 . S
C455 C456 1.332 . S
C456 H436 0.931 . S
C456 C455 1.332 . S
C456 C457 1.267 . S
C457 H425 0.929 . S
C457 C456 1.267 . S
C457 C458 1.251 . S
C458 H428 0.929 . S
C458 N454 1.418 . S
C458 C457 1.251 . S
C459 H426 0.930 . S
C459 C461 1.406 . S
C459 C464 1.261 . S
C460 H427 0.930 . S
C460 N462 1.325 . S
C460 C463 1.357 . S
C461 H429 0.928 . S
C461 C459 1.406 . S
C461 N462 1.261 . S
N462 Co413 2.214 . S
N462 C460 1.325 . S
N462 C461 1.261 . S
C463 H433 0.931 . S
C463 C460 1.357 . S
C463 C464 1.312 . S
C464 H435 0.930 . S
C464 C459 1.261 . S
C464 C463 1.312 . S
C465 O437 1.214 . S
C465 O445 1.234 . S
C466 H438 0.929 . S
C466 C469 1.391 . S
C466 C471 1.391 . S
C467 H439 0.929 . S
C467 C468 1.390 . S
C467 N470 1.391 . S
C468 H440 0.930 . S
C468 C467 1.390 . S
C468 C469 1.392 . S
C469 H441 0.929 . S
C469 C466 1.391 . S
C469 C468 1.392 . S
N470 Co414 2.257 . S
N470 C467 1.391 . S
N470 C471 1.388 . S
C471 H442 0.930 . S
C471 C466 1.391 . S
C471 N470 1.388 . S
Co472 O474 2.143 . S
Co472 O480 2.074 . S
Co472 O483 2.093 . S
Co472 O496 2.097 . S
Co472 N513 2.151 . S
Co472 N521 2.214 . S
Co473 O474 2.160 . S
Co473 O479 2.058 . S
Co473 O489 2.057 . S
Co473 O504 2.037 . S
Co473 N508 2.145 . S
Co473 N529 2.257 . S
O474 Co472 2.143 . S
O474 Co473 2.160 . S
C475 O476 1.278 . S
C475 O483 1.224 . S
O476 C475 1.278 . S
C477 O478 1.245 . S
C477 O489 1.232 . S
O478 C477 1.245 . S
O479 Co473 2.058 . S
O479 C505 1.269 . S
O480 Co472 2.074 . S
O480 C505 1.257 . S
H481 C506 0.930 . S
H482 C512 0.930 . S
O483 Co472 2.093 . S
O483 C475 1.224 . S
H484 C516 0.929 . S
H485 C518 0.930 . S
H486 C519 0.930 . S
H487 C517 0.929 . S
H488 C520 0.928 . S
O489 Co473 2.057 . S
O489 C477 1.232 . S
H490 C509 0.929 . S
H491 C510 0.929 . S
H492 C522 0.931 . S
H493 C514 0.929 . S
H494 C523 0.930 . S
H495 C515 0.931 . S
O496 Co472 2.097 . S
O496 C524 1.214 . S
H497 C525 0.929 . S
H498 C526 0.929 . S
H499 C527 0.930 . S
H500 C528 0.929 . S
H501 C530 0.930 . S
H502 C507 0.930 . S
H503 C511 0.930 . S
O504 Co473 2.037 . S
O504 C524 1.234 . S
C505 O479 1.269 . S
C505 O480 1.257 . S
C506 H481 0.930 . S
C506 C509 1.388 . S
C506 C511 1.418 . S
C507 H502 0.930 . S
C507 C510 1.404 . S
C507 C511 1.353 . S
N508 Co473 2.145 . S
N508 C509 1.397 . S
N508 C510 1.334 . S
C509 H490 0.929 . S
C509 C506 1.388 . S
C509 N508 1.397 . S
C510 H491 0.929 . S
C510 C507 1.404 . S
C510 N508 1.334 . S
C511 H503 0.930 . S
C511 C506 1.418 . S
C511 C507 1.353 . S
C512 H482 0.930 . S
C512 N513 1.330 . S
C512 C514 1.446 . S
N513 Co472 2.151 . S
N513 C512 1.330 . S
N513 C517 1.418 . S
C514 H493 0.929 . S
C514 C512 1.446 . S
C514 C515 1.332 . S
C515 H495 0.931 . S
C515 C514 1.332 . S
C515 C516 1.267 . S
C516 H484 0.929 . S
C516 C515 1.267 . S
C516 C517 1.251 . S
C517 H487 0.929 . S
C517 N513 1.418 . S
C517 C516 1.251 . S
C518 H485 0.930 . S
C518 C520 1.406 . S
C518 C523 1.261 . S
C519 H486 0.930 . S
C519 N521 1.325 . S
C519 C522 1.357 . S
C520 H488 0.928 . S
C520 C518 1.406 . S
C520 N521 1.261 . S
N521 Co472 2.214 . S
N521 C519 1.325 . S
N521 C520 1.261 . S
C522 H492 0.931 . S
C522 C519 1.357 . S
C522 C523 1.312 . S
C523 H494 0.930 . S
C523 C518 1.261 . S
C523 C522 1.312 . S
C524 O496 1.214 . S
C524 O504 1.234 . S
C525 H497 0.929 . S
C525 C528 1.391 . S
C525 C530 1.391 . S
C526 H498 0.929 . S
C526 C527 1.390 . S
C526 N529 1.391 . S
C527 H499 0.930 . S
C527 C526 1.390 . S
C527 C528 1.392 . S
C528 H500 0.929 . S
C528 C525 1.391 . S
C528 C527 1.392 . S
N529 Co473 2.257 . S
N529 C526 1.391 . S
N529 C530 1.388 . S
C530 H501 0.930 . S
C530 C525 1.391 . S
C530 N529 1.388 . S
Co531 O533 2.143 . S
Co531 O539 2.074 . S
Co531 O542 2.093 . S
Co531 O555 2.097 . S
Co531 N572 2.151 . S
Co531 N580 2.214 . S
Co532 O533 2.160 . S
Co532 O538 2.058 . S
Co532 O548 2.057 . S
Co532 O563 2.037 . S
Co532 N567 2.145 . S
Co532 N588 2.257 . S
O533 Co531 2.143 . S
O533 Co532 2.160 . S
C534 O535 1.278 . S
C534 O542 1.224 . S
O535 C534 1.278 . S
C536 O537 1.245 . S
C536 O548 1.232 . S
O537 C536 1.245 . S
O538 Co532 2.058 . S
O538 C564 1.269 . S
O539 Co531 2.074 . S
O539 C564 1.257 . S
H540 C565 0.930 . S
H541 C571 0.930 . S
O542 Co531 2.093 . S
O542 C534 1.224 . S
H543 C575 0.929 . S
H544 C577 0.930 . S
H545 C578 0.930 . S
H546 C576 0.929 . S
H547 C579 0.928 . S
O548 Co532 2.057 . S
O548 C536 1.232 . S
H549 C568 0.929 . S
H550 C569 0.929 . S
H551 C581 0.931 . S
H552 C573 0.929 . S
H553 C582 0.930 . S
H554 C574 0.931 . S
O555 Co531 2.097 . S
O555 C583 1.214 . S
H556 C584 0.929 . S
H557 C585 0.929 . S
H558 C586 0.930 . S
H559 C587 0.929 . S
H560 C589 0.930 . S
H561 C566 0.930 . S
H562 C570 0.930 . S
O563 Co532 2.037 . S
O563 C583 1.234 . S
C564 O538 1.269 . S
C564 O539 1.257 . S
C565 H540 0.930 . S
C565 C568 1.388 . S
C565 C570 1.418 . S
C566 H561 0.930 . S
C566 C569 1.404 . S
C566 C570 1.353 . S
N567 Co532 2.145 . S
N567 C568 1.397 . S
N567 C569 1.334 . S
C568 H549 0.929 . S
C568 C565 1.388 . S
C568 N567 1.397 . S
C569 H550 0.929 . S
C569 C566 1.404 . S
C569 N567 1.334 . S
C570 H562 0.930 . S
C570 C565 1.418 . S
C570 C566 1.353 . S
C571 H541 0.930 . S
C571 N572 1.330 . S
C571 C573 1.446 . S
N572 Co531 2.151 . S
N572 C571 1.330 . S
N572 C576 1.418 . S
C573 H552 0.929 . S
C573 C571 1.446 . S
C573 C574 1.332 . S
C574 H554 0.931 . S
C574 C573 1.332 . S
C574 C575 1.267 . S
C575 H543 0.929 . S
C575 C574 1.267 . S
C575 C576 1.251 . S
C576 H546 0.929 . S
C576 N572 1.418 . S
C576 C575 1.251 . S
C577 H544 0.930 . S
C577 C579 1.406 . S
C577 C582 1.261 . S
C578 H545 0.930 . S
C578 N580 1.325 . S
C578 C581 1.357 . S
C579 H547 0.928 . S
C579 C577 1.406 . S
C579 N580 1.261 . S
N580 Co531 2.214 . S
N580 C578 1.325 . S
N580 C579 1.261 . S
C581 H551 0.931 . S
C581 C578 1.357 . S
C581 C582 1.312 . S
C582 H553 0.930 . S
C582 C577 1.261 . S
C582 C581 1.312 . S
C583 O555 1.214 . S
C583 O563 1.234 . S
C584 H556 0.929 . S
C584 C587 1.391 . S
C584 C589 1.391 . S
C585 H557 0.929 . S
C585 C586 1.390 . S
C585 N588 1.391 . S
C586 H558 0.930 . S
C586 C585 1.390 . S
C586 C587 1.392 . S
C587 H559 0.929 . S
C587 C584 1.391 . S
C587 C586 1.392 . S
N588 Co532 2.257 . S
N588 C585 1.391 . S
N588 C589 1.388 . S
C589 H560 0.930 . S
C589 C584 1.391 . S
C589 N588 1.388 . S
Co590 O592 2.143 . S
Co590 O598 2.074 . S
Co590 O601 2.093 . S
Co590 O614 2.097 . S
Co590 N631 2.151 . S
Co590 N639 2.214 . S
Co591 O592 2.160 . S
Co591 O597 2.058 . S
Co591 O607 2.057 . S
Co591 O622 2.037 . S
Co591 N626 2.145 . S
Co591 N647 2.257 . S
O592 Co590 2.143 . S
O592 Co591 2.160 . S
C593 O594 1.278 . S
C593 O601 1.224 . S
O594 C593 1.278 . S
C595 O596 1.245 . S
C595 O607 1.232 . S
O596 C595 1.245 . S
O597 Co591 2.058 . S
O597 C623 1.269 . S
O598 Co590 2.074 . S
O598 C623 1.257 . S
H599 C624 0.930 . S
H600 C630 0.930 . S
O601 Co590 2.093 . S
O601 C593 1.224 . S
H602 C634 0.929 . S
H603 C636 0.930 . S
H604 C637 0.930 . S
H605 C635 0.929 . S
H606 C638 0.928 . S
O607 Co591 2.057 . S
O607 C595 1.232 . S
H608 C627 0.929 . S
H609 C628 0.929 . S
H610 C640 0.931 . S
H611 C632 0.929 . S
H612 C641 0.930 . S
H613 C633 0.931 . S
O614 Co590 2.097 . S
O614 C642 1.214 . S
H615 C643 0.929 . S
H616 C644 0.929 . S
H617 C645 0.930 . S
H618 C646 0.929 . S
H619 C648 0.930 . S
H620 C625 0.930 . S
H621 C629 0.930 . S
O622 Co591 2.037 . S
O622 C642 1.234 . S
C623 O597 1.269 . S
C623 O598 1.257 . S
C624 H599 0.930 . S
C624 C627 1.388 . S
C624 C629 1.418 . S
C625 H620 0.930 . S
C625 C628 1.404 . S
C625 C629 1.353 . S
N626 Co591 2.145 . S
N626 C627 1.397 . S
N626 C628 1.334 . S
C627 H608 0.929 . S
C627 C624 1.388 . S
C627 N626 1.397 . S
C628 H609 0.929 . S
C628 C625 1.404 . S
C628 N626 1.334 . S
C629 H621 0.930 . S
C629 C624 1.418 . S
C629 C625 1.353 . S
C630 H600 0.930 . S
C630 N631 1.330 . S
C630 C632 1.446 . S
N631 Co590 2.151 . S
N631 C630 1.330 . S
N631 C635 1.418 . S
C632 H611 0.929 . S
C632 C630 1.446 . S
C632 C633 1.332 . S
C633 H613 0.931 . S
C633 C632 1.332 . S
C633 C634 1.267 . S
C634 H602 0.929 . S
C634 C633 1.267 . S
C634 C635 1.251 . S
C635 H605 0.929 . S
C635 N631 1.418 . S
C635 C634 1.251 . S
C636 H603 0.930 . S
C636 C638 1.406 . S
C636 C641 1.261 . S
C637 H604 0.930 . S
C637 N639 1.325 . S
C637 C640 1.357 . S
C638 H606 0.928 . S
C638 C636 1.406 . S
C638 N639 1.261 . S
N639 Co590 2.214 . S
N639 C637 1.325 . S
N639 C638 1.261 . S
C640 H610 0.931 . S
C640 C637 1.357 . S
C640 C641 1.312 . S
C641 H612 0.930 . S
C641 C636 1.261 . S
C641 C640 1.312 . S
C642 O614 1.214 . S
C642 O622 1.234 . S
C643 H615 0.929 . S
C643 C646 1.391 . S
C643 C648 1.391 . S
C644 H616 0.929 . S
C644 C645 1.390 . S
C644 N647 1.391 . S
C645 H617 0.930 . S
C645 C644 1.390 . S
C645 C646 1.392 . S
C646 H618 0.929 . S
C646 C643 1.391 . S
C646 C645 1.392 . S
N647 Co591 2.257 . S
N647 C644 1.391 . S
N647 C648 1.388 . S
C648 H619 0.930 . S
C648 C643 1.391 . S
C648 N647 1.388 . S
Co649 O651 2.143 . S
Co649 O657 2.074 . S
Co649 O660 2.093 . S
Co649 O673 2.097 . S
Co649 N690 2.151 . S
Co649 N698 2.214 . S
Co650 O651 2.160 . S
Co650 O656 2.058 . S
Co650 O666 2.057 . S
Co650 O681 2.037 . S
Co650 N685 2.145 . S
Co650 N706 2.257 . S
O651 Co649 2.143 . S
O651 Co650 2.160 . S
C652 O653 1.278 . S
C652 O660 1.224 . S
O653 C652 1.278 . S
C654 O655 1.245 . S
C654 O666 1.232 . S
O655 C654 1.245 . S
O656 Co650 2.058 . S
O656 C682 1.269 . S
O657 Co649 2.074 . S
O657 C682 1.257 . S
H658 C683 0.930 . S
H659 C689 0.930 . S
O660 Co649 2.093 . S
O660 C652 1.224 . S
H661 C693 0.929 . S
H662 C695 0.930 . S
H663 C696 0.930 . S
H664 C694 0.929 . S
H665 C697 0.928 . S
O666 Co650 2.057 . S
O666 C654 1.232 . S
H667 C686 0.929 . S
H668 C687 0.929 . S
H669 C699 0.931 . S
H670 C691 0.929 . S
H671 C700 0.930 . S
H672 C692 0.931 . S
O673 Co649 2.097 . S
O673 C701 1.214 . S
H674 C702 0.929 . S
H675 C703 0.929 . S
H676 C704 0.930 . S
H677 C705 0.929 . S
H678 C707 0.930 . S
H679 C684 0.930 . S
H680 C688 0.930 . S
O681 Co650 2.037 . S
O681 C701 1.234 . S
C682 O656 1.269 . S
C682 O657 1.257 . S
C683 H658 0.930 . S
C683 C686 1.388 . S
C683 C688 1.418 . S
C684 H679 0.930 . S
C684 C687 1.404 . S
C684 C688 1.353 . S
N685 Co650 2.145 . S
N685 C686 1.397 . S
N685 C687 1.334 . S
C686 H667 0.929 . S
C686 C683 1.388 . S
C686 N685 1.397 . S
C687 H668 0.929 . S
C687 C684 1.404 . S
C687 N685 1.334 . S
C688 H680 0.930 . S
C688 C683 1.418 . S
C688 C684 1.353 . S
C689 H659 0.930 . S
C689 N690 1.330 . S
C689 C691 1.446 . S
N690 Co649 2.151 . S
N690 C689 1.330 . S
N690 C694 1.418 . S
C691 H670 0.929 . S
C691 C689 1.446 . S
C691 C692 1.332 . S
C692 H672 0.931 . S
C692 C691 1.332 . S
C692 C693 1.267 . S
C693 H661 0.929 . S
C693 C692 1.267 . S
C693 C694 1.251 . S
C694 H664 0.929 . S
C694 N690 1.418 . S
C694 C693 1.251 . S
C695 H662 0.930 . S
C695 C697 1.406 . S
C695 C700 1.261 . S
C696 H663 0.930 . S
C696 N698 1.325 . S
C696 C699 1.357 . S
C697 H665 0.928 . S
C697 C695 1.406 . S
C697 N698 1.261 . S
N698 Co649 2.214 . S
N698 C696 1.325 . S
N698 C697 1.261 . S
C699 H669 0.931 . S
C699 C696 1.357 . S
C699 C700 1.312 . S
C700 H671 0.930 . S
C700 C695 1.261 . S
C700 C699 1.312 . S
C701 O673 1.214 . S
C701 O681 1.234 . S
C702 H674 0.929 . S
C702 C705 1.391 . S
C702 C707 1.391 . S
C703 H675 0.929 . S
C703 C704 1.390 . S
C703 N706 1.391 . S
C704 H676 0.930 . S
C704 C703 1.390 . S
C704 C705 1.392 . S
C705 H677 0.929 . S
C705 C702 1.391 . S
C705 C704 1.392 . S
N706 Co650 2.257 . S
N706 C703 1.391 . S
N706 C707 1.388 . S
C707 H678 0.930 . S
C707 C702 1.391 . S
C707 N706 1.388 . S
Co708 O710 2.143 . S
Co708 O716 2.074 . S
Co708 O719 2.093 . S
Co708 O732 2.097 . S
Co708 N749 2.151 . S
Co708 N757 2.214 . S
Co709 O710 2.160 . S
Co709 O715 2.058 . S
Co709 O725 2.057 . S
Co709 O740 2.037 . S
Co709 N744 2.145 . S
Co709 N765 2.257 . S
O710 Co708 2.143 . S
O710 Co709 2.160 . S
C711 O712 1.278 . S
C711 O719 1.224 . S
O712 C711 1.278 . S
C713 O714 1.245 . S
C713 O725 1.232 . S
O714 C713 1.245 . S
O715 Co709 2.058 . S
O715 C741 1.269 . S
O716 Co708 2.074 . S
O716 C741 1.257 . S
H717 C742 0.930 . S
H718 C748 0.930 . S
O719 Co708 2.093 . S
O719 C711 1.224 . S
H720 C752 0.929 . S
H721 C754 0.930 . S
H722 C755 0.930 . S
H723 C753 0.929 . S
H724 C756 0.928 . S
O725 Co709 2.057 . S
O725 C713 1.232 . S
H726 C745 0.929 . S
H727 C746 0.929 . S
H728 C758 0.931 . S
H729 C750 0.929 . S
H730 C759 0.930 . S
H731 C751 0.931 . S
O732 Co708 2.097 . S
O732 C760 1.214 . S
H733 C761 0.929 . S
H734 C762 0.929 . S
H735 C763 0.930 . S
H736 C764 0.929 . S
H737 C766 0.930 . S
H738 C743 0.930 . S
H739 C747 0.930 . S
O740 Co709 2.037 . S
O740 C760 1.234 . S
C741 O715 1.269 . S
C741 O716 1.257 . S
C742 H717 0.930 . S
C742 C745 1.388 . S
C742 C747 1.418 . S
C743 H738 0.930 . S
C743 C746 1.404 . S
C743 C747 1.353 . S
N744 Co709 2.145 . S
N744 C745 1.397 . S
N744 C746 1.334 . S
C745 H726 0.929 . S
C745 C742 1.388 . S
C745 N744 1.397 . S
C746 H727 0.929 . S
C746 C743 1.404 . S
C746 N744 1.334 . S
C747 H739 0.930 . S
C747 C742 1.418 . S
C747 C743 1.353 . S
C748 H718 0.930 . S
C748 N749 1.330 . S
C748 C750 1.446 . S
N749 Co708 2.151 . S
N749 C748 1.330 . S
N749 C753 1.418 . S
C750 H729 0.929 . S
C750 C748 1.446 . S
C750 C751 1.332 . S
C751 H731 0.931 . S
C751 C750 1.332 . S
C751 C752 1.267 . S
C752 H720 0.929 . S
C752 C751 1.267 . S
C752 C753 1.251 . S
C753 H723 0.929 . S
C753 N749 1.418 . S
C753 C752 1.251 . S
C754 H721 0.930 . S
C754 C756 1.406 . S
C754 C759 1.261 . S
C755 H722 0.930 . S
C755 N757 1.325 . S
C755 C758 1.357 . S
C756 H724 0.928 . S
C756 C754 1.406 . S
C756 N757 1.261 . S
N757 Co708 2.214 . S
N757 C755 1.325 . S
N757 C756 1.261 . S
C758 H728 0.931 . S
C758 C755 1.357 . S
C758 C759 1.312 . S
C759 H730 0.930 . S
C759 C754 1.261 . S
C759 C758 1.312 . S
C760 O732 1.214 . S
C760 O740 1.234 . S
C761 H733 0.929 . S
C761 C764 1.391 . S
C761 C766 1.391 . S
C762 H734 0.929 . S
C762 C763 1.390 . S
C762 N765 1.391 . S
C763 H735 0.930 . S
C763 C762 1.390 . S
C763 C764 1.392 . S
C764 H736 0.929 . S
C764 C761 1.391 . S
C764 C763 1.392 . S
N765 Co709 2.257 . S
N765 C762 1.391 . S
N765 C766 1.388 . S
C766 H737 0.930 . S
C766 C761 1.391 . S
C766 N765 1.388 . S
Co767 O769 2.143 . S
Co767 O775 2.074 . S
Co767 O778 2.093 . S
Co767 O791 2.097 . S
Co767 N808 2.151 . S
Co767 N816 2.214 . S
Co768 O769 2.160 . S
Co768 O774 2.058 . S
Co768 O784 2.057 . S
Co768 O799 2.037 . S
Co768 N803 2.145 . S
Co768 N824 2.257 . S
O769 Co767 2.143 . S
O769 Co768 2.160 . S
C770 O771 1.278 . S
C770 O778 1.224 . S
O771 C770 1.278 . S
C772 O773 1.245 . S
C772 O784 1.232 . S
O773 C772 1.245 . S
O774 Co768 2.058 . S
O774 C800 1.269 . S
O775 Co767 2.074 . S
O775 C800 1.257 . S
H776 C801 0.930 . S
H777 C807 0.930 . S
O778 Co767 2.093 . S
O778 C770 1.224 . S
H779 C811 0.929 . S
H780 C813 0.930 . S
H781 C814 0.930 . S
H782 C812 0.929 . S
H783 C815 0.928 . S
O784 Co768 2.057 . S
O784 C772 1.232 . S
H785 C804 0.929 . S
H786 C805 0.929 . S
H787 C817 0.931 . S
H788 C809 0.929 . S
H789 C818 0.930 . S
H790 C810 0.931 . S
O791 Co767 2.097 . S
O791 C819 1.214 . S
H792 C820 0.929 . S
H793 C821 0.929 . S
H794 C822 0.930 . S
H795 C823 0.929 . S
H796 C825 0.930 . S
H797 C802 0.930 . S
H798 C806 0.930 . S
O799 Co768 2.037 . S
O799 C819 1.234 . S
C800 O774 1.269 . S
C800 O775 1.257 . S
C801 H776 0.930 . S
C801 C804 1.388 . S
C801 C806 1.418 . S
C802 H797 0.930 . S
C802 C805 1.404 . S
C802 C806 1.353 . S
N803 Co768 2.145 . S
N803 C804 1.397 . S
N803 C805 1.334 . S
C804 H785 0.929 . S
C804 C801 1.388 . S
C804 N803 1.397 . S
C805 H786 0.929 . S
C805 C802 1.404 . S
C805 N803 1.334 . S
C806 H798 0.930 . S
C806 C801 1.418 . S
C806 C802 1.353 . S
C807 H777 0.930 . S
C807 N808 1.330 . S
C807 C809 1.446 . S
N808 Co767 2.151 . S
N808 C807 1.330 . S
N808 C812 1.418 . S
C809 H788 0.929 . S
C809 C807 1.446 . S
C809 C810 1.332 . S
C810 H790 0.931 . S
C810 C809 1.332 . S
C810 C811 1.267 . S
C811 H779 0.929 . S
C811 C810 1.267 . S
C811 C812 1.251 . S
C812 H782 0.929 . S
C812 N808 1.418 . S
C812 C811 1.251 . S
C813 H780 0.930 . S
C813 C815 1.406 . S
C813 C818 1.261 . S
C814 H781 0.930 . S
C814 N816 1.325 . S
C814 C817 1.357 . S
C815 H783 0.928 . S
C815 C813 1.406 . S
C815 N816 1.261 . S
N816 Co767 2.214 . S
N816 C814 1.325 . S
N816 C815 1.261 . S
C817 H787 0.931 . S
C817 C814 1.357 . S
C817 C818 1.312 . S
C818 H789 0.930 . S
C818 C813 1.261 . S
C818 C817 1.312 . S
C819 O791 1.214 . S
C819 O799 1.234 . S
C820 H792 0.929 . S
C820 C823 1.391 . S
C820 C825 1.391 . S
C821 H793 0.929 . S
C821 C822 1.390 . S
C821 N824 1.391 . S
C822 H794 0.930 . S
C822 C821 1.390 . S
C822 C823 1.392 . S
C823 H795 0.929 . S
C823 C820 1.391 . S
C823 C822 1.392 . S
N824 Co768 2.257 . S
N824 C821 1.391 . S
N824 C825 1.388 . S
C825 H796 0.930 . S
C825 C820 1.391 . S
C825 N824 1.388 . S
Co826 O828 2.143 . S
Co826 O834 2.074 . S
Co826 O837 2.093 . S
Co826 O850 2.097 . S
Co826 N867 2.151 . S
Co826 N875 2.214 . S
Co827 O828 2.160 . S
Co827 O833 2.058 . S
Co827 O843 2.057 . S
Co827 O858 2.037 . S
Co827 N862 2.145 . S
Co827 N883 2.257 . S
O828 Co826 2.143 . S
O828 Co827 2.160 . S
C829 O830 1.278 . S
C829 O837 1.224 . S
O830 C829 1.278 . S
C831 O832 1.245 . S
C831 O843 1.232 . S
O832 C831 1.245 . S
O833 Co827 2.058 . S
O833 C859 1.269 . S
O834 Co826 2.074 . S
O834 C859 1.257 . S
H835 C860 0.930 . S
H836 C866 0.930 . S
O837 Co826 2.093 . S
O837 C829 1.224 . S
H838 C870 0.929 . S
H839 C872 0.930 . S
H840 C873 0.930 . S
H841 C871 0.929 . S
H842 C874 0.928 . S
O843 Co827 2.057 . S
O843 C831 1.232 . S
H844 C863 0.929 . S
H845 C864 0.929 . S
H846 C876 0.931 . S
H847 C868 0.929 . S
H848 C877 0.930 . S
H849 C869 0.931 . S
O850 Co826 2.097 . S
O850 C878 1.214 . S
H851 C879 0.929 . S
H852 C880 0.929 . S
H853 C881 0.930 . S
H854 C882 0.929 . S
H855 C884 0.930 . S
H856 C861 0.930 . S
H857 C865 0.930 . S
O858 Co827 2.037 . S
O858 C878 1.234 . S
C859 O833 1.269 . S
C859 O834 1.257 . S
C860 H835 0.930 . S
C860 C863 1.388 . S
C860 C865 1.418 . S
C861 H856 0.930 . S
C861 C864 1.404 . S
C861 C865 1.353 . S
N862 Co827 2.145 . S
N862 C863 1.397 . S
N862 C864 1.334 . S
C863 H844 0.929 . S
C863 C860 1.388 . S
C863 N862 1.397 . S
C864 H845 0.929 . S
C864 C861 1.404 . S
C864 N862 1.334 . S
C865 H857 0.930 . S
C865 C860 1.418 . S
C865 C861 1.353 . S
C866 H836 0.930 . S
C866 N867 1.330 . S
C866 C868 1.446 . S
N867 Co826 2.151 . S
N867 C866 1.330 . S
N867 C871 1.418 . S
C868 H847 0.929 . S
C868 C866 1.446 . S
C868 C869 1.332 . S
C869 H849 0.931 . S
C869 C868 1.332 . S
C869 C870 1.267 . S
C870 H838 0.929 . S
C870 C869 1.267 . S
C870 C871 1.251 . S
C871 H841 0.929 . S
C871 N867 1.418 . S
C871 C870 1.251 . S
C872 H839 0.930 . S
C872 C874 1.406 . S
C872 C877 1.261 . S
C873 H840 0.930 . S
C873 N875 1.325 . S
C873 C876 1.357 . S
C874 H842 0.928 . S
C874 C872 1.406 . S
C874 N875 1.261 . S
N875 Co826 2.214 . S
N875 C873 1.325 . S
N875 C874 1.261 . S
C876 H846 0.931 . S
C876 C873 1.357 . S
C876 C877 1.312 . S
C877 H848 0.930 . S
C877 C872 1.261 . S
C877 C876 1.312 . S
C878 O850 1.214 . S
C878 O858 1.234 . S
C879 H851 0.929 . S
C879 C882 1.391 . S
C879 C884 1.391 . S
C880 H852 0.929 . S
C880 C881 1.390 . S
C880 N883 1.391 . S
C881 H853 0.930 . S
C881 C880 1.390 . S
C881 C882 1.392 . S
C882 H854 0.929 . S
C882 C879 1.391 . S
C882 C881 1.392 . S
N883 Co827 2.257 . S
N883 C880 1.391 . S
N883 C884 1.388 . S
C884 H855 0.930 . S
C884 C879 1.391 . S
C884 N883 1.388 . S
Co885 O887 2.143 . S
Co885 O893 2.074 . S
Co885 O896 2.093 . S
Co885 O909 2.097 . S
Co885 N926 2.151 . S
Co885 N934 2.214 . S
Co886 O887 2.160 . S
Co886 O892 2.058 . S
Co886 O902 2.057 . S
Co886 O917 2.037 . S
Co886 N921 2.145 . S
Co886 N942 2.257 . S
O887 Co885 2.143 . S
O887 Co886 2.160 . S
C888 O889 1.278 . S
C888 O896 1.224 . S
O889 C888 1.278 . S
C890 O891 1.245 . S
C890 O902 1.232 . S
O891 C890 1.245 . S
O892 Co886 2.058 . S
O892 C918 1.269 . S
O893 Co885 2.074 . S
O893 C918 1.257 . S
H894 C919 0.930 . S
H895 C925 0.930 . S
O896 Co885 2.093 . S
O896 C888 1.224 . S
H897 C929 0.929 . S
H898 C931 0.930 . S
H899 C932 0.930 . S
H900 C930 0.929 . S
H901 C933 0.928 . S
O902 Co886 2.057 . S
O902 C890 1.232 . S
H903 C922 0.929 . S
H904 C923 0.929 . S
H905 C935 0.931 . S
H906 C927 0.929 . S
H907 C936 0.930 . S
H908 C928 0.931 . S
O909 Co885 2.097 . S
O909 C937 1.214 . S
H910 C938 0.929 . S
H911 C939 0.929 . S
H912 C940 0.930 . S
H913 C941 0.929 . S
H914 C943 0.930 . S
H915 C920 0.930 . S
H916 C924 0.930 . S
O917 Co886 2.037 . S
O917 C937 1.234 . S
C918 O892 1.269 . S
C918 O893 1.257 . S
C919 H894 0.930 . S
C919 C922 1.388 . S
C919 C924 1.418 . S
C920 H915 0.930 . S
C920 C923 1.404 . S
C920 C924 1.353 . S
N921 Co886 2.145 . S
N921 C922 1.397 . S
N921 C923 1.334 . S
C922 H903 0.929 . S
C922 C919 1.388 . S
C922 N921 1.397 . S
C923 H904 0.929 . S
C923 C920 1.404 . S
C923 N921 1.334 . S
C924 H916 0.930 . S
C924 C919 1.418 . S
C924 C920 1.353 . S
C925 H895 0.930 . S
C925 N926 1.330 . S
C925 C927 1.446 . S
N926 Co885 2.151 . S
N926 C925 1.330 . S
N926 C930 1.418 . S
C927 H906 0.929 . S
C927 C925 1.446 . S
C927 C928 1.332 . S
C928 H908 0.931 . S
C928 C927 1.332 . S
C928 C929 1.267 . S
C929 H897 0.929 . S
C929 C928 1.267 . S
C929 C930 1.251 . S
C930 H900 0.929 . S
C930 N926 1.418 . S
C930 C929 1.251 . S
C931 H898 0.930 . S
C931 C933 1.406 . S
C931 C936 1.261 . S
C932 H899 0.930 . S
C932 N934 1.325 . S
C932 C935 1.357 . S
C933 H901 0.928 . S
C933 C931 1.406 . S
C933 N934 1.261 . S
N934 Co885 2.214 . S
N934 C932 1.325 . S
N934 C933 1.261 . S
C935 H905 0.931 . S
C935 C932 1.357 . S
C935 C936 1.312 . S
C936 H907 0.930 . S
C936 C931 1.261 . S
C936 C935 1.312 . S
C937 O909 1.214 . S
C937 O917 1.234 . S
C938 H910 0.929 . S
C938 C941 1.391 . S
C938 C943 1.391 . S
C939 H911 0.929 . S
C939 C940 1.390 . S
C939 N942 1.391 . S
C940 H912 0.930 . S
C940 C939 1.390 . S
C940 C941 1.392 . S
C941 H913 0.929 . S
C941 C938 1.391 . S
C941 C940 1.392 . S
N942 Co886 2.257 . S
N942 C939 1.391 . S
N942 C943 1.388 . S
C943 H914 0.930 . S
C943 C938 1.391 . S
C943 N942 1.388 . S
Co944 O946 2.143 . S
Co944 O952 2.074 . S
Co944 O955 2.093 . S
Co944 O968 2.097 . S
Co944 N985 2.151 . S
Co944 N993 2.214 . S
Co945 O946 2.160 . S
Co945 O951 2.058 . S
Co945 O961 2.057 . S
Co945 O976 2.037 . S
Co945 N980 2.145 . S
Co945 N1001 2.257 . S
O946 Co944 2.143 . S
O946 Co945 2.160 . S
C947 O948 1.278 . S
C947 O955 1.224 . S
O948 C947 1.278 . S
C949 O950 1.245 . S
C949 O961 1.232 . S
O950 C949 1.245 . S
O951 Co945 2.058 . S
O951 C977 1.269 . S
O952 Co944 2.074 . S
O952 C977 1.257 . S
H953 C978 0.930 . S
H954 C984 0.930 . S
O955 Co944 2.093 . S
O955 C947 1.224 . S
H956 C988 0.929 . S
H957 C990 0.930 . S
H958 C991 0.930 . S
H959 C989 0.929 . S
H960 C992 0.928 . S
O961 Co945 2.057 . S
O961 C949 1.232 . S
H962 C981 0.929 . S
H963 C982 0.929 . S
H964 C994 0.931 . S
H965 C986 0.929 . S
H966 C995 0.930 . S
H967 C987 0.931 . S
O968 Co944 2.097 . S
O968 C996 1.214 . S
H969 C997 0.929 . S
H970 C998 0.929 . S
H971 C999 0.930 . S
H972 C1000 0.929 . S
H973 C1002 0.930 . S
H974 C979 0.930 . S
H975 C983 0.930 . S
O976 Co945 2.037 . S
O976 C996 1.234 . S
C977 O951 1.269 . S
C977 O952 1.257 . S
C978 H953 0.930 . S
C978 C981 1.388 . S
C978 C983 1.418 . S
C979 H974 0.930 . S
C979 C982 1.404 . S
C979 C983 1.353 . S
N980 Co945 2.145 . S
N980 C981 1.397 . S
N980 C982 1.334 . S
C981 H962 0.929 . S
C981 C978 1.388 . S
C981 N980 1.397 . S
C982 H963 0.929 . S
C982 C979 1.404 . S
C982 N980 1.334 . S
C983 H975 0.930 . S
C983 C978 1.418 . S
C983 C979 1.353 . S
C984 H954 0.930 . S
C984 N985 1.330 . S
C984 C986 1.446 . S
N985 Co944 2.151 . S
N985 C984 1.330 . S
N985 C989 1.418 . S
C986 H965 0.929 . S
C986 C984 1.446 . S
C986 C987 1.332 . S
C987 H967 0.931 . S
C987 C986 1.332 . S
C987 C988 1.267 . S
C988 H956 0.929 . S
C988 C987 1.267 . S
C988 C989 1.251 . S
C989 H959 0.929 . S
C989 N985 1.418 . S
C989 C988 1.251 . S
C990 H957 0.930 . S
C990 C992 1.406 . S
C990 C995 1.261 . S
C991 H958 0.930 . S
C991 N993 1.325 . S
C991 C994 1.357 . S
C992 H960 0.928 . S
C992 C990 1.406 . S
C992 N993 1.261 . S
N993 Co944 2.214 . S
N993 C991 1.325 . S
N993 C992 1.261 . S
C994 H964 0.931 . S
C994 C991 1.357 . S
C994 C995 1.312 . S
C995 H966 0.930 . S
C995 C990 1.261 . S
C995 C994 1.312 . S
C996 O968 1.214 . S
C996 O976 1.234 . S
C997 H969 0.929 . S
C997 C1000 1.391 . S
C997 C1002 1.391 . S
C998 H970 0.929 . S
C998 C999 1.390 . S
C998 N1001 1.391 . S
C999 H971 0.930 . S
C999 C998 1.390 . S
C999 C1000 1.392 . S
C1000 H972 0.929 . S
C1000 C997 1.391 . S
C1000 C999 1.392 . S
N1001 Co945 2.257 . S
N1001 C998 1.391 . S
N1001 C1002 1.388 . S
C1002 H973 0.930 . S
C1002 C997 1.391 . S
C1002 N1001 1.388 . S
Co1003 O1005 2.143 . S
Co1003 O1011 2.074 . S
Co1003 O1014 2.093 . S
Co1003 O1027 2.097 . S
Co1003 N1044 2.151 . S
Co1003 N1052 2.214 . S
Co1004 O1005 2.160 . S
Co1004 O1010 2.058 . S
Co1004 O1020 2.057 . S
Co1004 O1035 2.037 . S
Co1004 N1039 2.145 . S
Co1004 N1060 2.257 . S
O1005 Co1003 2.143 . S
O1005 Co1004 2.160 . S
C1006 O1007 1.278 . S
C1006 O1014 1.224 . S
O1007 C1006 1.278 . S
C1008 O1009 1.245 . S
C1008 O1020 1.232 . S
O1009 C1008 1.245 . S
O1010 Co1004 2.058 . S
O1010 C1036 1.269 . S
O1011 Co1003 2.074 . S
O1011 C1036 1.257 . S
H1012 C1037 0.930 . S
H1013 C1043 0.930 . S
O1014 Co1003 2.093 . S
O1014 C1006 1.224 . S
H1015 C1047 0.929 . S
H1016 C1049 0.930 . S
H1017 C1050 0.930 . S
H1018 C1048 0.929 . S
H1019 C1051 0.928 . S
O1020 Co1004 2.057 . S
O1020 C1008 1.232 . S
H1021 C1040 0.929 . S
H1022 C1041 0.929 . S
H1023 C1053 0.931 . S
H1024 C1045 0.929 . S
H1025 C1054 0.930 . S
H1026 C1046 0.931 . S
O1027 Co1003 2.097 . S
O1027 C1055 1.214 . S
H1028 C1056 0.929 . S
H1029 C1057 0.929 . S
H1030 C1058 0.930 . S
H1031 C1059 0.929 . S
H1032 C1061 0.930 . S
H1033 C1038 0.930 . S
H1034 C1042 0.930 . S
O1035 Co1004 2.037 . S
O1035 C1055 1.234 . S
C1036 O1010 1.269 . S
C1036 O1011 1.257 . S
C1037 H1012 0.930 . S
C1037 C1040 1.388 . S
C1037 C1042 1.418 . S
C1038 H1033 0.930 . S
C1038 C1041 1.404 . S
C1038 C1042 1.353 . S
N1039 Co1004 2.145 . S
N1039 C1040 1.397 . S
N1039 C1041 1.334 . S
C1040 H1021 0.929 . S
C1040 C1037 1.388 . S
C1040 N1039 1.397 . S
C1041 H1022 0.929 . S
C1041 C1038 1.404 . S
C1041 N1039 1.334 . S
C1042 H1034 0.930 . S
C1042 C1037 1.418 . S
C1042 C1038 1.353 . S
C1043 H1013 0.930 . S
C1043 N1044 1.330 . S
C1043 C1045 1.446 . S
N1044 Co1003 2.151 . S
N1044 C1043 1.330 . S
N1044 C1048 1.418 . S
C1045 H1024 0.929 . S
C1045 C1043 1.446 . S
C1045 C1046 1.332 . S
C1046 H1026 0.931 . S
C1046 C1045 1.332 . S
C1046 C1047 1.267 . S
C1047 H1015 0.929 . S
C1047 C1046 1.267 . S
C1047 C1048 1.251 . S
C1048 H1018 0.929 . S
C1048 N1044 1.418 . S
C1048 C1047 1.251 . S
C1049 H1016 0.930 . S
C1049 C1051 1.406 . S
C1049 C1054 1.261 . S
C1050 H1017 0.930 . S
C1050 N1052 1.325 . S
C1050 C1053 1.357 . S
C1051 H1019 0.928 . S
C1051 C1049 1.406 . S
C1051 N1052 1.261 . S
N1052 Co1003 2.214 . S
N1052 C1050 1.325 . S
N1052 C1051 1.261 . S
C1053 H1023 0.931 . S
C1053 C1050 1.357 . S
C1053 C1054 1.312 . S
C1054 H1025 0.930 . S
C1054 C1049 1.261 . S
C1054 C1053 1.312 . S
C1055 O1027 1.214 . S
C1055 O1035 1.234 . S
C1056 H1028 0.929 . S
C1056 C1059 1.391 . S
C1056 C1061 1.391 . S
C1057 H1029 0.929 . S
C1057 C1058 1.390 . S
C1057 N1060 1.391 . S
C1058 H1030 0.930 . S
C1058 C1057 1.390 . S
C1058 C1059 1.392 . S
C1059 H1031 0.929 . S
C1059 C1056 1.391 . S
C1059 C1058 1.392 . S
N1060 Co1004 2.257 . S
N1060 C1057 1.391 . S
N1060 C1061 1.388 . S
C1061 H1032 0.930 . S
C1061 C1056 1.391 . S
C1061 N1060 1.388 . S
Co1062 O1064 2.143 . S
Co1062 O1070 2.074 . S
Co1062 O1073 2.093 . S
Co1062 O1086 2.097 . S
Co1062 N1103 2.151 . S
Co1062 N1111 2.214 . S
Co1063 O1064 2.160 . S
Co1063 O1069 2.058 . S
Co1063 O1079 2.057 . S
Co1063 O1094 2.037 . S
Co1063 N1098 2.145 . S
Co1063 N1119 2.257 . S
O1064 Co1062 2.143 . S
O1064 Co1063 2.160 . S
C1065 O1066 1.278 . S
C1065 O1073 1.224 . S
O1066 C1065 1.278 . S
C1067 O1068 1.245 . S
C1067 O1079 1.232 . S
O1068 C1067 1.245 . S
O1069 Co1063 2.058 . S
O1069 C1095 1.269 . S
O1070 Co1062 2.074 . S
O1070 C1095 1.257 . S
H1071 C1096 0.930 . S
H1072 C1102 0.930 . S
O1073 Co1062 2.093 . S
O1073 C1065 1.224 . S
H1074 C1106 0.929 . S
H1075 C1108 0.930 . S
H1076 C1109 0.930 . S
H1077 C1107 0.929 . S
H1078 C1110 0.928 . S
O1079 Co1063 2.057 . S
O1079 C1067 1.232 . S
H1080 C1099 0.929 . S
H1081 C1100 0.929 . S
H1082 C1112 0.931 . S
H1083 C1104 0.929 . S
H1084 C1113 0.930 . S
H1085 C1105 0.931 . S
O1086 Co1062 2.097 . S
O1086 C1114 1.214 . S
H1087 C1115 0.929 . S
H1088 C1116 0.929 . S
H1089 C1117 0.930 . S
H1090 C1118 0.929 . S
H1091 C1120 0.930 . S
H1092 C1097 0.930 . S
H1093 C1101 0.930 . S
O1094 Co1063 2.037 . S
O1094 C1114 1.234 . S
C1095 O1069 1.269 . S
C1095 O1070 1.257 . S
C1096 H1071 0.930 . S
C1096 C1099 1.388 . S
C1096 C1101 1.418 . S
C1097 H1092 0.930 . S
C1097 C1100 1.404 . S
C1097 C1101 1.353 . S
N1098 Co1063 2.145 . S
N1098 C1099 1.397 . S
N1098 C1100 1.334 . S
C1099 H1080 0.929 . S
C1099 C1096 1.388 . S
C1099 N1098 1.397 . S
C1100 H1081 0.929 . S
C1100 C1097 1.404 . S
C1100 N1098 1.334 . S
C1101 H1093 0.930 . S
C1101 C1096 1.418 . S
C1101 C1097 1.353 . S
C1102 H1072 0.930 . S
C1102 N1103 1.330 . S
C1102 C1104 1.446 . S
N1103 Co1062 2.151 . S
N1103 C1102 1.330 . S
N1103 C1107 1.418 . S
C1104 H1083 0.929 . S
C1104 C1102 1.446 . S
C1104 C1105 1.332 . S
C1105 H1085 0.931 . S
C1105 C1104 1.332 . S
C1105 C1106 1.267 . S
C1106 H1074 0.929 . S
C1106 C1105 1.267 . S
C1106 C1107 1.251 . S
C1107 H1077 0.929 . S
C1107 N1103 1.418 . S
C1107 C1106 1.251 . S
C1108 H1075 0.930 . S
C1108 C1110 1.406 . S
C1108 C1113 1.261 . S
C1109 H1076 0.930 . S
C1109 N1111 1.325 . S
C1109 C1112 1.357 . S
C1110 H1078 0.928 . S
C1110 C1108 1.406 . S
C1110 N1111 1.261 . S
N1111 Co1062 2.214 . S
N1111 C1109 1.325 . S
N1111 C1110 1.261 . S
C1112 H1082 0.931 . S
C1112 C1109 1.357 . S
C1112 C1113 1.312 . S
C1113 H1084 0.930 . S
C1113 C1108 1.261 . S
C1113 C1112 1.312 . S
C1114 O1086 1.214 . S
C1114 O1094 1.234 . S
C1115 H1087 0.929 . S
C1115 C1118 1.391 . S
C1115 C1120 1.391 . S
C1116 H1088 0.929 . S
C1116 C1117 1.390 . S
C1116 N1119 1.391 . S
C1117 H1089 0.930 . S
C1117 C1116 1.390 . S
C1117 C1118 1.392 . S
C1118 H1090 0.929 . S
C1118 C1115 1.391 . S
C1118 C1117 1.392 . S
N1119 Co1063 2.257 . S
N1119 C1116 1.391 . S
N1119 C1120 1.388 . S
C1120 H1091 0.930 . S
C1120 C1115 1.391 . S
C1120 N1119 1.388 . S
Co1121 O1123 2.143 . S
Co1121 O1129 2.074 . S
Co1121 O1132 2.093 . S
Co1121 O1145 2.097 . S
Co1121 N1162 2.151 . S
Co1121 N1170 2.214 . S
Co1122 O1123 2.160 . S
Co1122 O1128 2.058 . S
Co1122 O1138 2.057 . S
Co1122 O1153 2.037 . S
Co1122 N1157 2.145 . S
Co1122 N1178 2.257 . S
O1123 Co1121 2.143 . S
O1123 Co1122 2.160 . S
C1124 O1125 1.278 . S
C1124 O1132 1.224 . S
O1125 C1124 1.278 . S
C1126 O1127 1.245 . S
C1126 O1138 1.232 . S
O1127 C1126 1.245 . S
O1128 Co1122 2.058 . S
O1128 C1154 1.269 . S
O1129 Co1121 2.074 . S
O1129 C1154 1.257 . S
H1130 C1155 0.930 . S
H1131 C1161 0.930 . S
O1132 Co1121 2.093 . S
O1132 C1124 1.224 . S
H1133 C1165 0.929 . S
H1134 C1167 0.930 . S
H1135 C1168 0.930 . S
H1136 C1166 0.929 . S
H1137 C1169 0.928 . S
O1138 Co1122 2.057 . S
O1138 C1126 1.232 . S
H1139 C1158 0.929 . S
H1140 C1159 0.929 . S
H1141 C1171 0.931 . S
H1142 C1163 0.929 . S
H1143 C1172 0.930 . S
H1144 C1164 0.931 . S
O1145 Co1121 2.097 . S
O1145 C1173 1.214 . S
H1146 C1174 0.929 . S
H1147 C1175 0.929 . S
H1148 C1176 0.930 . S
H1149 C1177 0.929 . S
H1150 C1179 0.930 . S
H1151 C1156 0.930 . S
H1152 C1160 0.930 . S
O1153 Co1122 2.037 . S
O1153 C1173 1.234 . S
C1154 O1128 1.269 . S
C1154 O1129 1.257 . S
C1155 H1130 0.930 . S
C1155 C1158 1.388 . S
C1155 C1160 1.418 . S
C1156 H1151 0.930 . S
C1156 C1159 1.404 . S
C1156 C1160 1.353 . S
N1157 Co1122 2.145 . S
N1157 C1158 1.397 . S
N1157 C1159 1.334 . S
C1158 H1139 0.929 . S
C1158 C1155 1.388 . S
C1158 N1157 1.397 . S
C1159 H1140 0.929 . S
C1159 C1156 1.404 . S
C1159 N1157 1.334 . S
C1160 H1152 0.930 . S
C1160 C1155 1.418 . S
C1160 C1156 1.353 . S
C1161 H1131 0.930 . S
C1161 N1162 1.330 . S
C1161 C1163 1.446 . S
N1162 Co1121 2.151 . S
N1162 C1161 1.330 . S
N1162 C1166 1.418 . S
C1163 H1142 0.929 . S
C1163 C1161 1.446 . S
C1163 C1164 1.332 . S
C1164 H1144 0.931 . S
C1164 C1163 1.332 . S
C1164 C1165 1.267 . S
C1165 H1133 0.929 . S
C1165 C1164 1.267 . S
C1165 C1166 1.251 . S
C1166 H1136 0.929 . S
C1166 N1162 1.418 . S
C1166 C1165 1.251 . S
C1167 H1134 0.930 . S
C1167 C1169 1.406 . S
C1167 C1172 1.261 . S
C1168 H1135 0.930 . S
C1168 N1170 1.325 . S
C1168 C1171 1.357 . S
C1169 H1137 0.928 . S
C1169 C1167 1.406 . S
C1169 N1170 1.261 . S
N1170 Co1121 2.214 . S
N1170 C1168 1.325 . S
N1170 C1169 1.261 . S
C1171 H1141 0.931 . S
C1171 C1168 1.357 . S
C1171 C1172 1.312 . S
C1172 H1143 0.930 . S
C1172 C1167 1.261 . S
C1172 C1171 1.312 . S
C1173 O1145 1.214 . S
C1173 O1153 1.234 . S
C1174 H1146 0.929 . S
C1174 C1177 1.391 . S
C1174 C1179 1.391 . S
C1175 H1147 0.929 . S
C1175 C1176 1.390 . S
C1175 N1178 1.391 . S
C1176 H1148 0.930 . S
C1176 C1175 1.390 . S
C1176 C1177 1.392 . S
C1177 H1149 0.929 . S
C1177 C1174 1.391 . S
C1177 C1176 1.392 . S
N1178 Co1122 2.257 . S
N1178 C1175 1.391 . S
N1178 C1179 1.388 . S
C1179 H1150 0.930 . S
C1179 C1174 1.391 . S
C1179 N1178 1.388 . S
Co1180 O1182 2.143 . S
Co1180 O1188 2.074 . S
Co1180 O1191 2.093 . S
Co1180 O1204 2.097 . S
Co1180 N1221 2.151 . S
Co1180 N1229 2.214 . S
Co1181 O1182 2.160 . S
Co1181 O1187 2.058 . S
Co1181 O1197 2.057 . S
Co1181 O1212 2.037 . S
Co1181 N1216 2.145 . S
Co1181 N1237 2.257 . S
O1182 Co1180 2.143 . S
O1182 Co1181 2.160 . S
C1183 O1184 1.278 . S
C1183 O1191 1.224 . S
O1184 C1183 1.278 . S
C1185 O1186 1.245 . S
C1185 O1197 1.232 . S
O1186 C1185 1.245 . S
O1187 Co1181 2.058 . S
O1187 C1213 1.269 . S
O1188 Co1180 2.074 . S
O1188 C1213 1.257 . S
H1189 C1214 0.930 . S
H1190 C1220 0.930 . S
O1191 Co1180 2.093 . S
O1191 C1183 1.224 . S
H1192 C1224 0.929 . S
H1193 C1226 0.930 . S
H1194 C1227 0.930 . S
H1195 C1225 0.929 . S
H1196 C1228 0.928 . S
O1197 Co1181 2.057 . S
O1197 C1185 1.232 . S
H1198 C1217 0.929 . S
H1199 C1218 0.929 . S
H1200 C1230 0.931 . S
H1201 C1222 0.929 . S
H1202 C1231 0.930 . S
H1203 C1223 0.931 . S
O1204 Co1180 2.097 . S
O1204 C1232 1.214 . S
H1205 C1233 0.929 . S
H1206 C1234 0.929 . S
H1207 C1235 0.930 . S
H1208 C1236 0.929 . S
H1209 C1238 0.930 . S
H1210 C1215 0.930 . S
H1211 C1219 0.930 . S
O1212 Co1181 2.037 . S
O1212 C1232 1.234 . S
C1213 O1187 1.269 . S
C1213 O1188 1.257 . S
C1214 H1189 0.930 . S
C1214 C1217 1.388 . S
C1214 C1219 1.418 . S
C1215 H1210 0.930 . S
C1215 C1218 1.404 . S
C1215 C1219 1.353 . S
N1216 Co1181 2.145 . S
N1216 C1217 1.397 . S
N1216 C1218 1.334 . S
C1217 H1198 0.929 . S
C1217 C1214 1.388 . S
C1217 N1216 1.397 . S
C1218 H1199 0.929 . S
C1218 C1215 1.404 . S
C1218 N1216 1.334 . S
C1219 H1211 0.930 . S
C1219 C1214 1.418 . S
C1219 C1215 1.353 . S
C1220 H1190 0.930 . S
C1220 N1221 1.330 . S
C1220 C1222 1.446 . S
N1221 Co1180 2.151 . S
N1221 C1220 1.330 . S
N1221 C1225 1.418 . S
C1222 H1201 0.929 . S
C1222 C1220 1.446 . S
C1222 C1223 1.332 . S
C1223 H1203 0.931 . S
C1223 C1222 1.332 . S
C1223 C1224 1.267 . S
C1224 H1192 0.929 . S
C1224 C1223 1.267 . S
C1224 C1225 1.251 . S
C1225 H1195 0.929 . S
C1225 N1221 1.418 . S
C1225 C1224 1.251 . S
C1226 H1193 0.930 . S
C1226 C1228 1.406 . S
C1226 C1231 1.261 . S
C1227 H1194 0.930 . S
C1227 N1229 1.325 . S
C1227 C1230 1.357 . S
C1228 H1196 0.928 . S
C1228 C1226 1.406 . S
C1228 N1229 1.261 . S
N1229 Co1180 2.214 . S
N1229 C1227 1.325 . S
N1229 C1228 1.261 . S
C1230 H1200 0.931 . S
C1230 C1227 1.357 . S
C1230 C1231 1.312 . S
C1231 H1202 0.930 . S
C1231 C1226 1.261 . S
C1231 C1230 1.312 . S
C1232 O1204 1.214 . S
C1232 O1212 1.234 . S
C1233 H1205 0.929 . S
C1233 C1236 1.391 . S
C1233 C1238 1.391 . S
C1234 H1206 0.929 . S
C1234 C1235 1.390 . S
C1234 N1237 1.391 . S
C1235 H1207 0.930 . S
C1235 C1234 1.390 . S
C1235 C1236 1.392 . S
C1236 H1208 0.929 . S
C1236 C1233 1.391 . S
C1236 C1235 1.392 . S
N1237 Co1181 2.257 . S
N1237 C1234 1.391 . S
N1237 C1238 1.388 . S
C1238 H1209 0.930 . S
C1238 C1233 1.391 . S
C1238 N1237 1.388 . S
Co1239 O1241 2.143 . S
Co1239 O1247 2.074 . S
Co1239 O1250 2.093 . S
Co1239 O1263 2.097 . S
Co1239 N1280 2.151 . S
Co1239 N1288 2.214 . S
Co1240 O1241 2.160 . S
Co1240 O1246 2.058 . S
Co1240 O1256 2.057 . S
Co1240 O1271 2.037 . S
Co1240 N1275 2.145 . S
Co1240 N1296 2.257 . S
O1241 Co1239 2.143 . S
O1241 Co1240 2.160 . S
C1242 O1243 1.278 . S
C1242 O1250 1.224 . S
O1243 C1242 1.278 . S
C1244 O1245 1.245 . S
C1244 O1256 1.232 . S
O1245 C1244 1.245 . S
O1246 Co1240 2.058 . S
O1246 C1272 1.269 . S
O1247 Co1239 2.074 . S
O1247 C1272 1.257 . S
H1248 C1273 0.930 . S
H1249 C1279 0.930 . S
O1250 Co1239 2.093 . S
O1250 C1242 1.224 . S
H1251 C1283 0.929 . S
H1252 C1285 0.930 . S
H1253 C1286 0.930 . S
H1254 C1284 0.929 . S
H1255 C1287 0.928 . S
O1256 Co1240 2.057 . S
O1256 C1244 1.232 . S
H1257 C1276 0.929 . S
H1258 C1277 0.929 . S
H1259 C1289 0.931 . S
H1260 C1281 0.929 . S
H1261 C1290 0.930 . S
H1262 C1282 0.931 . S
O1263 Co1239 2.097 . S
O1263 C1291 1.214 . S
H1264 C1292 0.929 . S
H1265 C1293 0.929 . S
H1266 C1294 0.930 . S
H1267 C1295 0.929 . S
H1268 C1297 0.930 . S
H1269 C1274 0.930 . S
H1270 C1278 0.930 . S
O1271 Co1240 2.037 . S
O1271 C1291 1.234 . S
C1272 O1246 1.269 . S
C1272 O1247 1.257 . S
C1273 H1248 0.930 . S
C1273 C1276 1.388 . S
C1273 C1278 1.418 . S
C1274 H1269 0.930 . S
C1274 C1277 1.404 . S
C1274 C1278 1.353 . S
N1275 Co1240 2.145 . S
N1275 C1276 1.397 . S
N1275 C1277 1.334 . S
C1276 H1257 0.929 . S
C1276 C1273 1.388 . S
C1276 N1275 1.397 . S
C1277 H1258 0.929 . S
C1277 C1274 1.404 . S
C1277 N1275 1.334 . S
C1278 H1270 0.930 . S
C1278 C1273 1.418 . S
C1278 C1274 1.353 . S
C1279 H1249 0.930 . S
C1279 N1280 1.330 . S
C1279 C1281 1.446 . S
N1280 Co1239 2.151 . S
N1280 C1279 1.330 . S
N1280 C1284 1.418 . S
C1281 H1260 0.929 . S
C1281 C1279 1.446 . S
C1281 C1282 1.332 . S
C1282 H1262 0.931 . S
C1282 C1281 1.332 . S
C1282 C1283 1.267 . S
C1283 H1251 0.929 . S
C1283 C1282 1.267 . S
C1283 C1284 1.251 . S
C1284 H1254 0.929 . S
C1284 N1280 1.418 . S
C1284 C1283 1.251 . S
C1285 H1252 0.930 . S
C1285 C1287 1.406 . S
C1285 C1290 1.261 . S
C1286 H1253 0.930 . S
C1286 N1288 1.325 . S
C1286 C1289 1.357 . S
C1287 H1255 0.928 . S
C1287 C1285 1.406 . S
C1287 N1288 1.261 . S
N1288 Co1239 2.214 . S
N1288 C1286 1.325 . S
N1288 C1287 1.261 . S
C1289 H1259 0.931 . S
C1289 C1286 1.357 . S
C1289 C1290 1.312 . S
C1290 H1261 0.930 . S
C1290 C1285 1.261 . S
C1290 C1289 1.312 . S
C1291 O1263 1.214 . S
C1291 O1271 1.234 . S
C1292 H1264 0.929 . S
C1292 C1295 1.391 . S
C1292 C1297 1.391 . S
C1293 H1265 0.929 . S
C1293 C1294 1.390 . S
C1293 N1296 1.391 . S
C1294 H1266 0.930 . S
C1294 C1293 1.390 . S
C1294 C1295 1.392 . S
C1295 H1267 0.929 . S
C1295 C1292 1.391 . S
C1295 C1294 1.392 . S
N1296 Co1240 2.257 . S
N1296 C1293 1.391 . S
N1296 C1297 1.388 . S
C1297 H1268 0.930 . S
C1297 C1292 1.391 . S
C1297 N1296 1.388 . S
Co1298 O1300 2.143 . S
Co1298 O1306 2.074 . S
Co1298 O1309 2.093 . S
Co1298 O1322 2.097 . S
Co1298 N1339 2.151 . S
Co1298 N1347 2.214 . S
Co1299 O1300 2.160 . S
Co1299 O1305 2.058 . S
Co1299 O1315 2.057 . S
Co1299 O1330 2.037 . S
Co1299 N1334 2.145 . S
Co1299 N1355 2.257 . S
O1300 Co1298 2.143 . S
O1300 Co1299 2.160 . S
C1301 O1302 1.278 . S
C1301 O1309 1.224 . S
O1302 C1301 1.278 . S
C1303 O1304 1.245 . S
C1303 O1315 1.232 . S
O1304 C1303 1.245 . S
O1305 Co1299 2.058 . S
O1305 C1331 1.269 . S
O1306 Co1298 2.074 . S
O1306 C1331 1.257 . S
H1307 C1332 0.930 . S
H1308 C1338 0.930 . S
O1309 Co1298 2.093 . S
O1309 C1301 1.224 . S
H1310 C1342 0.929 . S
H1311 C1344 0.930 . S
H1312 C1345 0.930 . S
H1313 C1343 0.929 . S
H1314 C1346 0.928 . S
O1315 Co1299 2.057 . S
O1315 C1303 1.232 . S
H1316 C1335 0.929 . S
H1317 C1336 0.929 . S
H1318 C1348 0.931 . S
H1319 C1340 0.929 . S
H1320 C1349 0.930 . S
H1321 C1341 0.931 . S
O1322 Co1298 2.097 . S
O1322 C1350 1.214 . S
H1323 C1351 0.929 . S
H1324 C1352 0.929 . S
H1325 C1353 0.930 . S
H1326 C1354 0.929 . S
H1327 C1356 0.930 . S
H1328 C1333 0.930 . S
H1329 C1337 0.930 . S
O1330 Co1299 2.037 . S
O1330 C1350 1.234 . S
C1331 O1305 1.269 . S
C1331 O1306 1.257 . S
C1332 H1307 0.930 . S
C1332 C1335 1.388 . S
C1332 C1337 1.418 . S
C1333 H1328 0.930 . S
C1333 C1336 1.404 . S
C1333 C1337 1.353 . S
N1334 Co1299 2.145 . S
N1334 C1335 1.397 . S
N1334 C1336 1.334 . S
C1335 H1316 0.929 . S
C1335 C1332 1.388 . S
C1335 N1334 1.397 . S
C1336 H1317 0.929 . S
C1336 C1333 1.404 . S
C1336 N1334 1.334 . S
C1337 H1329 0.930 . S
C1337 C1332 1.418 . S
C1337 C1333 1.353 . S
C1338 H1308 0.930 . S
C1338 N1339 1.330 . S
C1338 C1340 1.446 . S
N1339 Co1298 2.151 . S
N1339 C1338 1.330 . S
N1339 C1343 1.418 . S
C1340 H1319 0.929 . S
C1340 C1338 1.446 . S
C1340 C1341 1.332 . S
C1341 H1321 0.931 . S
C1341 C1340 1.332 . S
C1341 C1342 1.267 . S
C1342 H1310 0.929 . S
C1342 C1341 1.267 . S
C1342 C1343 1.251 . S
C1343 H1313 0.929 . S
C1343 N1339 1.418 . S
C1343 C1342 1.251 . S
C1344 H1311 0.930 . S
C1344 C1346 1.406 . S
C1344 C1349 1.261 . S
C1345 H1312 0.930 . S
C1345 N1347 1.325 . S
C1345 C1348 1.357 . S
C1346 H1314 0.928 . S
C1346 C1344 1.406 . S
C1346 N1347 1.261 . S
N1347 Co1298 2.214 . S
N1347 C1345 1.325 . S
N1347 C1346 1.261 . S
C1348 H1318 0.931 . S
C1348 C1345 1.357 . S
C1348 C1349 1.312 . S
C1349 H1320 0.930 . S
C1349 C1344 1.261 . S
C1349 C1348 1.312 . S
C1350 O1322 1.214 . S
C1350 O1330 1.234 . S
C1351 H1323 0.929 . S
C1351 C1354 1.391 . S
C1351 C1356 1.391 . S
C1352 H1324 0.929 . S
C1352 C1353 1.390 . S
C1352 N1355 1.391 . S
C1353 H1325 0.930 . S
C1353 C1352 1.390 . S
C1353 C1354 1.392 . S
C1354 H1326 0.929 . S
C1354 C1351 1.391 . S
C1354 C1353 1.392 . S
N1355 Co1299 2.257 . S
N1355 C1352 1.391 . S
N1355 C1356 1.388 . S
C1356 H1327 0.930 . S
C1356 C1351 1.391 . S
C1356 N1355 1.388 . S
Co1357 O1359 2.143 . S
Co1357 O1365 2.074 . S
Co1357 O1368 2.093 . S
Co1357 O1381 2.097 . S
Co1357 N1398 2.151 . S
Co1357 N1406 2.214 . S
Co1358 O1359 2.160 . S
Co1358 O1364 2.058 . S
Co1358 O1374 2.057 . S
Co1358 O1389 2.037 . S
Co1358 N1393 2.145 . S
Co1358 N1414 2.257 . S
O1359 Co1357 2.143 . S
O1359 Co1358 2.160 . S
C1360 O1361 1.278 . S
C1360 O1368 1.224 . S
O1361 C1360 1.278 . S
C1362 O1363 1.245 . S
C1362 O1374 1.232 . S
O1363 C1362 1.245 . S
O1364 Co1358 2.058 . S
O1364 C1390 1.269 . S
O1365 Co1357 2.074 . S
O1365 C1390 1.257 . S
H1366 C1391 0.930 . S
H1367 C1397 0.930 . S
O1368 Co1357 2.093 . S
O1368 C1360 1.224 . S
H1369 C1401 0.929 . S
H1370 C1403 0.930 . S
H1371 C1404 0.930 . S
H1372 C1402 0.929 . S
H1373 C1405 0.928 . S
O1374 Co1358 2.057 . S
O1374 C1362 1.232 . S
H1375 C1394 0.929 . S
H1376 C1395 0.929 . S
H1377 C1407 0.931 . S
H1378 C1399 0.929 . S
H1379 C1408 0.930 . S
H1380 C1400 0.931 . S
O1381 Co1357 2.097 . S
O1381 C1409 1.214 . S
H1382 C1410 0.929 . S
H1383 C1411 0.929 . S
H1384 C1412 0.930 . S
H1385 C1413 0.929 . S
H1386 C1415 0.930 . S
H1387 C1392 0.930 . S
H1388 C1396 0.930 . S
O1389 Co1358 2.037 . S
O1389 C1409 1.234 . S
C1390 O1364 1.269 . S
C1390 O1365 1.257 . S
C1391 H1366 0.930 . S
C1391 C1394 1.388 . S
C1391 C1396 1.418 . S
C1392 H1387 0.930 . S
C1392 C1395 1.404 . S
C1392 C1396 1.353 . S
N1393 Co1358 2.145 . S
N1393 C1394 1.397 . S
N1393 C1395 1.334 . S
C1394 H1375 0.929 . S
C1394 C1391 1.388 . S
C1394 N1393 1.397 . S
C1395 H1376 0.929 . S
C1395 C1392 1.404 . S
C1395 N1393 1.334 . S
C1396 H1388 0.930 . S
C1396 C1391 1.418 . S
C1396 C1392 1.353 . S
C1397 H1367 0.930 . S
C1397 N1398 1.330 . S
C1397 C1399 1.446 . S
N1398 Co1357 2.151 . S
N1398 C1397 1.330 . S
N1398 C1402 1.418 . S
C1399 H1378 0.929 . S
C1399 C1397 1.446 . S
C1399 C1400 1.332 . S
C1400 H1380 0.931 . S
C1400 C1399 1.332 . S
C1400 C1401 1.267 . S
C1401 H1369 0.929 . S
C1401 C1400 1.267 . S
C1401 C1402 1.251 . S
C1402 H1372 0.929 . S
C1402 N1398 1.418 . S
C1402 C1401 1.251 . S
C1403 H1370 0.930 . S
C1403 C1405 1.406 . S
C1403 C1408 1.261 . S
C1404 H1371 0.930 . S
C1404 N1406 1.325 . S
C1404 C1407 1.357 . S
C1405 H1373 0.928 . S
C1405 C1403 1.406 . S
C1405 N1406 1.261 . S
N1406 Co1357 2.214 . S
N1406 C1404 1.325 . S
N1406 C1405 1.261 . S
C1407 H1377 0.931 . S
C1407 C1404 1.357 . S
C1407 C1408 1.312 . S
C1408 H1379 0.930 . S
C1408 C1403 1.261 . S
C1408 C1407 1.312 . S
C1409 O1381 1.214 . S
C1409 O1389 1.234 . S
C1410 H1382 0.929 . S
C1410 C1413 1.391 . S
C1410 C1415 1.391 . S
C1411 H1383 0.929 . S
C1411 C1412 1.390 . S
C1411 N1414 1.391 . S
C1412 H1384 0.930 . S
C1412 C1411 1.390 . S
C1412 C1413 1.392 . S
C1413 H1385 0.929 . S
C1413 C1410 1.391 . S
C1413 C1412 1.392 . S
N1414 Co1358 2.257 . S
N1414 C1411 1.391 . S
N1414 C1415 1.388 . S
C1415 H1386 0.930 . S
C1415 C1410 1.391 . S
C1415 N1414 1.388 . S
H1416 C1424 0.950 . S
H1417 C1429 0.950 . S
H1418 C1426 0.950 . S
H1419 C1428 0.950 . S
H1420 C1430 0.950 . S
H1421 C1432 0.950 . S
H1422 C1434 0.950 . S
H1423 C1435 0.950 . S
C1424 H1416 0.950 . S
C1424 C1425 1.386 . S
C1424 C1426 1.391 . S
C1425 C1424 1.386 . S
C1425 C1429 1.393 . S
C1426 H1418 0.950 . S
C1426 C1424 1.391 . S
C1426 C1427 1.400 . S
C1427 C1426 1.400 . S
C1427 C1428 1.398 . S
C1427 C1433 1.491 . S
C1428 H1419 0.950 . S
C1428 C1427 1.398 . S
C1428 C1429 1.391 . S
C1429 H1417 0.950 . S
C1429 C1425 1.393 . S
C1429 C1428 1.391 . S
C1430 H1420 0.950 . S
C1430 C1431 1.386 . S
C1430 C1432 1.391 . S
C1431 C1430 1.386 . S
C1431 C1435 1.393 . S
C1432 H1421 0.950 . S
C1432 C1430 1.391 . S
C1432 C1433 1.400 . S
C1433 C1427 1.491 . S
C1433 C1432 1.400 . S
C1433 C1434 1.398 . S
C1434 H1422 0.950 . S
C1434 C1433 1.398 . S
C1434 C1435 1.391 . S
C1435 H1423 0.950 . S
C1435 C1431 1.393 . S
C1435 C1434 1.391 . S
H1436 C1444 0.950 . S
H1437 C1449 0.950 . S
H1438 C1446 0.950 . S
H1439 C1448 0.950 . S
H1440 C1450 0.950 . S
H1441 C1452 0.950 . S
H1442 C1454 0.950 . S
H1443 C1455 0.950 . S
C1444 H1436 0.950 . S
C1444 C1445 1.386 . S
C1444 C1446 1.391 . S
C1445 C1444 1.386 . S
C1445 C1449 1.393 . S
C1446 H1438 0.950 . S
C1446 C1444 1.391 . S
C1446 C1447 1.400 . S
C1447 C1446 1.400 . S
C1447 C1448 1.398 . S
C1447 C1453 1.491 . S
C1448 H1439 0.950 . S
C1448 C1447 1.398 . S
C1448 C1449 1.391 . S
C1449 H1437 0.950 . S
C1449 C1445 1.393 . S
C1449 C1448 1.391 . S
C1450 H1440 0.950 . S
C1450 C1451 1.386 . S
C1450 C1452 1.391 . S
C1451 C1450 1.386 . S
C1451 C1455 1.393 . S
C1452 H1441 0.950 . S
C1452 C1450 1.391 . S
C1452 C1453 1.400 . S
C1453 C1447 1.491 . S
C1453 C1452 1.400 . S
C1453 C1454 1.398 . S
C1454 H1442 0.950 . S
C1454 C1453 1.398 . S
C1454 C1455 1.391 . S
C1455 H1443 0.950 . S
C1455 C1451 1.393 . S
C1455 C1454 1.391 . S
H1456 C1464 0.950 . S
H1457 C1469 0.950 . S
H1458 C1466 0.950 . S
H1459 C1468 0.950 . S
H1460 C1470 0.950 . S
H1461 C1472 0.950 . S
H1462 C1474 0.950 . S
H1463 C1475 0.950 . S
C1464 H1456 0.950 . S
C1464 C1465 1.386 . S
C1464 C1466 1.391 . S
C1465 C1464 1.386 . S
C1465 C1469 1.393 . S
C1466 H1458 0.950 . S
C1466 C1464 1.391 . S
C1466 C1467 1.400 . S
C1467 C1466 1.400 . S
C1467 C1468 1.398 . S
C1467 C1473 1.491 . S
C1468 H1459 0.950 . S
C1468 C1467 1.398 . S
C1468 C1469 1.391 . S
C1469 H1457 0.950 . S
C1469 C1465 1.393 . S
C1469 C1468 1.391 . S
C1470 H1460 0.950 . S
C1470 C1471 1.386 . S
C1470 C1472 1.391 . S
C1471 C1470 1.386 . S
C1471 C1475 1.393 . S
C1472 H1461 0.950 . S
C1472 C1470 1.391 . S
C1472 C1473 1.400 . S
C1473 C1467 1.491 . S
C1473 C1472 1.400 . S
C1473 C1474 1.398 . S
C1474 H1462 0.950 . S
C1474 C1473 1.398 . S
C1474 C1475 1.391 . S
C1475 H1463 0.950 . S
C1475 C1471 1.393 . S
C1475 C1474 1.391 . S
H1476 C1484 0.950 . S
H1477 C1489 0.950 . S
H1478 C1486 0.950 . S
H1479 C1488 0.950 . S
H1480 C1490 0.950 . S
H1481 C1492 0.950 . S
H1482 C1494 0.950 . S
H1483 C1495 0.950 . S
C1484 H1476 0.950 . S
C1484 C1485 1.386 . S
C1484 C1486 1.391 . S
C1485 C1484 1.386 . S
C1485 C1489 1.393 . S
C1486 H1478 0.950 . S
C1486 C1484 1.391 . S
C1486 C1487 1.400 . S
C1487 C1486 1.400 . S
C1487 C1488 1.398 . S
C1487 C1493 1.491 . S
C1488 H1479 0.950 . S
C1488 C1487 1.398 . S
C1488 C1489 1.391 . S
C1489 H1477 0.950 . S
C1489 C1485 1.393 . S
C1489 C1488 1.391 . S
C1490 H1480 0.950 . S
C1490 C1491 1.386 . S
C1490 C1492 1.391 . S
C1491 C1490 1.386 . S
C1491 C1495 1.393 . S
C1492 H1481 0.950 . S
C1492 C1490 1.391 . S
C1492 C1493 1.400 . S
C1493 C1487 1.491 . S
C1493 C1492 1.400 . S
C1493 C1494 1.398 . S
C1494 H1482 0.950 . S
C1494 C1493 1.398 . S
C1494 C1495 1.391 . S
C1495 H1483 0.950 . S
C1495 C1491 1.393 . S
C1495 C1494 1.391 . S
H1496 C1504 0.950 . S
H1497 C1509 0.950 . S
H1498 C1506 0.950 . S
H1499 C1508 0.950 . S
H1500 C1510 0.950 . S
H1501 C1512 0.950 . S
H1502 C1514 0.950 . S
H1503 C1515 0.950 . S
C1504 H1496 0.950 . S
C1504 C1505 1.386 . S
C1504 C1506 1.391 . S
C1505 C1504 1.386 . S
C1505 C1509 1.393 . S
C1506 H1498 0.950 . S
C1506 C1504 1.391 . S
C1506 C1507 1.400 . S
C1507 C1506 1.400 . S
C1507 C1508 1.398 . S
C1507 C1513 1.491 . S
C1508 H1499 0.950 . S
C1508 C1507 1.398 . S
C1508 C1509 1.391 . S
C1509 H1497 0.950 . S
C1509 C1505 1.393 . S
C1509 C1508 1.391 . S
C1510 H1500 0.950 . S
C1510 C1511 1.386 . S
C1510 C1512 1.391 . S
C1511 C1510 1.386 . S
C1511 C1515 1.393 . S
C1512 H1501 0.950 . S
C1512 C1510 1.391 . S
C1512 C1513 1.400 . S
C1513 C1507 1.491 . S
C1513 C1512 1.400 . S
C1513 C1514 1.398 . S
C1514 H1502 0.950 . S
C1514 C1513 1.398 . S
C1514 C1515 1.391 . S
C1515 H1503 0.950 . S
C1515 C1511 1.393 . S
C1515 C1514 1.391 . S
H1516 C1524 0.950 . S
H1517 C1529 0.950 . S
H1518 C1526 0.950 . S
H1519 C1528 0.950 . S
H1520 C1530 0.950 . S
H1521 C1532 0.950 . S
H1522 C1534 0.950 . S
H1523 C1535 0.950 . S
C1524 H1516 0.950 . S
C1524 C1525 1.386 . S
C1524 C1526 1.391 . S
C1525 C1524 1.386 . S
C1525 C1529 1.393 . S
C1526 H1518 0.950 . S
C1526 C1524 1.391 . S
C1526 C1527 1.400 . S
C1527 C1526 1.400 . S
C1527 C1528 1.398 . S
C1527 C1533 1.491 . S
C1528 H1519 0.950 . S
C1528 C1527 1.398 . S
C1528 C1529 1.391 . S
C1529 H1517 0.950 . S
C1529 C1525 1.393 . S
C1529 C1528 1.391 . S
C1530 H1520 0.950 . S
C1530 C1531 1.386 . S
C1530 C1532 1.391 . S
C1531 C1530 1.386 . S
C1531 C1535 1.393 . S
C1532 H1521 0.950 . S
C1532 C1530 1.391 . S
C1532 C1533 1.400 . S
C1533 C1527 1.491 . S
C1533 C1532 1.400 . S
C1533 C1534 1.398 . S
C1534 H1522 0.950 . S
C1534 C1533 1.398 . S
C1534 C1535 1.391 . S
C1535 H1523 0.950 . S
C1535 C1531 1.393 . S
C1535 C1534 1.391 . S
H1536 C1544 0.950 . S
H1537 C1549 0.950 . S
H1538 C1546 0.950 . S
H1539 C1548 0.950 . S
H1540 C1550 0.950 . S
H1541 C1552 0.950 . S
H1542 C1554 0.950 . S
H1543 C1555 0.950 . S
C1544 H1536 0.950 . S
C1544 C1545 1.386 . S
C1544 C1546 1.391 . S
C1545 C1544 1.386 . S
C1545 C1549 1.393 . S
C1546 H1538 0.950 . S
C1546 C1544 1.391 . S
C1546 C1547 1.400 . S
C1547 C1546 1.400 . S
C1547 C1548 1.398 . S
C1547 C1553 1.491 . S
C1548 H1539 0.950 . S
C1548 C1547 1.398 . S
C1548 C1549 1.391 . S
C1549 H1537 0.950 . S
C1549 C1545 1.393 . S
C1549 C1548 1.391 . S
C1550 H1540 0.950 . S
C1550 C1551 1.386 . S
C1550 C1552 1.391 . S
C1551 C1550 1.386 . S
C1551 C1555 1.393 . S
C1552 H1541 0.950 . S
C1552 C1550 1.391 . S
C1552 C1553 1.400 . S
C1553 C1547 1.491 . S
C1553 C1552 1.400 . S
C1553 C1554 1.398 . S
C1554 H1542 0.950 . S
C1554 C1553 1.398 . S
C1554 C1555 1.391 . S
C1555 H1543 0.950 . S
C1555 C1551 1.393 . S
C1555 C1554 1.391 . S
H1556 C1564 0.950 . S
H1557 C1569 0.950 . S
H1558 C1566 0.950 . S
H1559 C1568 0.950 . S
H1560 C1570 0.950 . S
H1561 C1572 0.950 . S
H1562 C1574 0.950 . S
H1563 C1575 0.950 . S
C1564 H1556 0.950 . S
C1564 C1565 1.386 . S
C1564 C1566 1.391 . S
C1565 C1564 1.386 . S
C1565 C1569 1.393 . S
C1566 H1558 0.950 . S
C1566 C1564 1.391 . S
C1566 C1567 1.400 . S
C1567 C1566 1.400 . S
C1567 C1568 1.398 . S
C1567 C1573 1.491 . S
C1568 H1559 0.950 . S
C1568 C1567 1.398 . S
C1568 C1569 1.391 . S
C1569 H1557 0.950 . S
C1569 C1565 1.393 . S
C1569 C1568 1.391 . S
C1570 H1560 0.950 . S
C1570 C1571 1.386 . S
C1570 C1572 1.391 . S
C1571 C1570 1.386 . S
C1571 C1575 1.393 . S
C1572 H1561 0.950 . S
C1572 C1570 1.391 . S
C1572 C1573 1.400 . S
C1573 C1567 1.491 . S
C1573 C1572 1.400 . S
C1573 C1574 1.398 . S
C1574 H1562 0.950 . S
C1574 C1573 1.398 . S
C1574 C1575 1.391 . S
C1575 H1563 0.950 . S
C1575 C1571 1.393 . S
C1575 C1574 1.391 . S
H1576 C1584 0.950 . S
H1577 C1589 0.950 . S
H1578 C1586 0.950 . S
H1579 C1588 0.950 . S
H1580 C1590 0.950 . S
H1581 C1592 0.950 . S
H1582 C1594 0.950 . S
H1583 C1595 0.950 . S
C1584 H1576 0.950 . S
C1584 C1585 1.386 . S
C1584 C1586 1.391 . S
C1585 C1584 1.386 . S
C1585 C1589 1.393 . S
C1586 H1578 0.950 . S
C1586 C1584 1.391 . S
C1586 C1587 1.400 . S
C1587 C1586 1.400 . S
C1587 C1588 1.398 . S
C1587 C1593 1.491 . S
C1588 H1579 0.950 . S
C1588 C1587 1.398 . S
C1588 C1589 1.391 . S
C1589 H1577 0.950 . S
C1589 C1585 1.393 . S
C1589 C1588 1.391 . S
C1590 H1580 0.950 . S
C1590 C1591 1.386 . S
C1590 C1592 1.391 . S
C1591 C1590 1.386 . S
C1591 C1595 1.393 . S
C1592 H1581 0.950 . S
C1592 C1590 1.391 . S
C1592 C1593 1.400 . S
C1593 C1587 1.491 . S
C1593 C1592 1.400 . S
C1593 C1594 1.398 . S
C1594 H1582 0.950 . S
C1594 C1593 1.398 . S
C1594 C1595 1.391 . S
C1595 H1583 0.950 . S
C1595 C1591 1.393 . S
C1595 C1594 1.391 . S
H1596 C1604 0.950 . S
H1597 C1609 0.950 . S
H1598 C1606 0.950 . S
H1599 C1608 0.950 . S
H1600 C1610 0.950 . S
H1601 C1612 0.950 . S
H1602 C1614 0.950 . S
H1603 C1615 0.950 . S
C1604 H1596 0.950 . S
C1604 C1605 1.386 . S
C1604 C1606 1.391 . S
C1605 C1604 1.386 . S
C1605 C1609 1.393 . S
C1606 H1598 0.950 . S
C1606 C1604 1.391 . S
C1606 C1607 1.400 . S
C1607 C1606 1.400 . S
C1607 C1608 1.398 . S
C1607 C1613 1.491 . S
C1608 H1599 0.950 . S
C1608 C1607 1.398 . S
C1608 C1609 1.391 . S
C1609 H1597 0.950 . S
C1609 C1605 1.393 . S
C1609 C1608 1.391 . S
C1610 H1600 0.950 . S
C1610 C1611 1.386 . S
C1610 C1612 1.391 . S
C1611 C1610 1.386 . S
C1611 C1615 1.393 . S
C1612 H1601 0.950 . S
C1612 C1610 1.391 . S
C1612 C1613 1.400 . S
C1613 C1607 1.491 . S
C1613 C1612 1.400 . S
C1613 C1614 1.398 . S
C1614 H1602 0.950 . S
C1614 C1613 1.398 . S
C1614 C1615 1.391 . S
C1615 H1603 0.950 . S
C1615 C1611 1.393 . S
C1615 C1614 1.391 . S
H1616 C1624 0.950 . S
H1617 C1629 0.950 . S
H1618 C1626 0.950 . S
H1619 C1628 0.950 . S
H1620 C1630 0.950 . S
H1621 C1632 0.950 . S
H1622 C1634 0.950 . S
H1623 C1635 0.950 . S
C1624 H1616 0.950 . S
C1624 C1625 1.386 . S
C1624 C1626 1.391 . S
C1625 C1624 1.386 . S
C1625 C1629 1.393 . S
C1626 H1618 0.950 . S
C1626 C1624 1.391 . S
C1626 C1627 1.400 . S
C1627 C1626 1.400 . S
C1627 C1628 1.398 . S
C1627 C1633 1.491 . S
C1628 H1619 0.950 . S
C1628 C1627 1.398 . S
C1628 C1629 1.391 . S
C1629 H1617 0.950 . S
C1629 C1625 1.393 . S
C1629 C1628 1.391 . S
C1630 H1620 0.950 . S
C1630 C1631 1.386 . S
C1630 C1632 1.391 . S
C1631 C1630 1.386 . S
C1631 C1635 1.393 . S
C1632 H1621 0.950 . S
C1632 C1630 1.391 . S
C1632 C1633 1.400 . S
C1633 C1627 1.491 . S
C1633 C1632 1.400 . S
C1633 C1634 1.398 . S
C1634 H1622 0.950 . S
C1634 C1633 1.398 . S
C1634 C1635 1.391 . S
C1635 H1623 0.950 . S
C1635 C1631 1.393 . S
C1635 C1634 1.391 . S
H1636 C1644 0.950 . S
H1637 C1649 0.950 . S
H1638 C1646 0.950 . S
H1639 C1648 0.950 . S
H1640 C1650 0.950 . S
H1641 C1652 0.950 . S
H1642 C1654 0.950 . S
H1643 C1655 0.950 . S
C1644 H1636 0.950 . S
C1644 C1645 1.386 . S
C1644 C1646 1.391 . S
C1645 C1644 1.386 . S
C1645 C1649 1.393 . S
C1646 H1638 0.950 . S
C1646 C1644 1.391 . S
C1646 C1647 1.400 . S
C1647 C1646 1.400 . S
C1647 C1648 1.398 . S
C1647 C1653 1.491 . S
C1648 H1639 0.950 . S
C1648 C1647 1.398 . S
C1648 C1649 1.391 . S
C1649 H1637 0.950 . S
C1649 C1645 1.393 . S
C1649 C1648 1.391 . S
C1650 H1640 0.950 . S
C1650 C1651 1.386 . S
C1650 C1652 1.391 . S
C1651 C1650 1.386 . S
C1651 C1655 1.393 . S
C1652 H1641 0.950 . S
C1652 C1650 1.391 . S
C1652 C1653 1.400 . S
C1653 C1647 1.491 . S
C1653 C1652 1.400 . S
C1653 C1654 1.398 . S
C1654 H1642 0.950 . S
C1654 C1653 1.398 . S
C1654 C1655 1.391 . S
C1655 H1643 0.950 . S
C1655 C1651 1.393 . S
C1655 C1654 1.391 . S
H1656 C1664 0.950 . S
H1657 C1669 0.950 . S
H1658 C1666 0.950 . S
H1659 C1668 0.950 1_545 S
H1660 C1670 0.950 . S
H1661 C1672 0.950 . S
H1662 C1674 0.950 1_565 S
H1663 C1675 0.950 . S
C1664 H1656 0.950 . S
C1664 C1665 1.386 . S
C1664 C1666 1.391 . S
C1665 C1664 1.386 . S
C1665 C1669 1.393 . S
C1666 H1658 0.950 . S
C1666 C1664 1.391 . S
C1666 C1667 1.400 . S
C1667 C1666 1.400 . S
C1667 C1668 1.398 . S
C1667 C1673 1.491 1_565 S
C1668 H1659 0.950 1_565 S
C1668 C1667 1.398 . S
C1668 C1669 1.391 . S
C1669 H1657 0.950 . S
C1669 C1665 1.393 . S
C1669 C1668 1.391 . S
C1670 H1660 0.950 . S
C1670 C1671 1.386 . S
C1670 C1672 1.391 . S
C1671 C1670 1.386 . S
C1671 C1675 1.393 . S
C1672 H1661 0.950 . S
C1672 C1670 1.391 . S
C1672 C1673 1.400 . S
C1673 C1667 1.491 1_545 S
C1673 C1672 1.400 . S
C1673 C1674 1.398 . S
C1674 H1662 0.950 1_545 S
C1674 C1673 1.398 . S
C1674 C1675 1.391 . S
C1675 H1663 0.950 . S
C1675 C1671 1.393 . S
C1675 C1674 1.391 . S
H1676 C1684 0.950 . S
H1677 C1689 0.950 . S
H1678 C1686 0.950 . S
H1679 C1688 0.950 . S
H1680 C1690 0.950 . S
H1681 C1692 0.950 . S
H1682 C1694 0.950 . S
H1683 C1695 0.950 . S
C1684 H1676 0.950 . S
C1684 C1685 1.386 . S
C1684 C1686 1.391 . S
C1685 C1684 1.386 . S
C1685 C1689 1.393 . S
C1686 H1678 0.950 . S
C1686 C1684 1.391 . S
C1686 C1687 1.400 . S
C1687 C1686 1.400 . S
C1687 C1688 1.398 . S
C1687 C1693 1.491 1_655 S
C1688 H1679 0.950 . S
C1688 C1687 1.398 . S
C1688 C1689 1.391 . S
C1689 H1677 0.950 . S
C1689 C1685 1.393 . S
C1689 C1688 1.391 . S
C1690 H1680 0.950 . S
C1690 C1691 1.386 . S
C1690 C1692 1.391 . S
C1691 C1690 1.386 . S
C1691 C1695 1.393 . S
C1692 H1681 0.950 . S
C1692 C1690 1.391 . S
C1692 C1693 1.400 . S
C1693 C1687 1.491 1_455 S
C1693 C1692 1.400 . S
C1693 C1694 1.398 . S
C1694 H1682 0.950 . S
C1694 C1693 1.398 . S
C1694 C1695 1.391 . S
C1695 H1683 0.950 . S
C1695 C1691 1.393 . S
C1695 C1694 1.391 . S
H1696 C1704 0.950 . S
H1697 C1709 0.950 . S
H1698 C1706 0.950 . S
H1699 C1708 0.950 . S
H1700 C1710 0.950 . S
H1701 C1712 0.950 . S
H1702 C1714 0.950 . S
H1703 C1715 0.950 . S
C1704 H1696 0.950 . S
C1704 C1705 1.386 . S
C1704 C1706 1.391 . S
C1705 C1704 1.386 . S
C1705 C1709 1.393 . S
C1706 H1698 0.950 . S
C1706 C1704 1.391 . S
C1706 C1707 1.400 . S
C1707 C1706 1.400 . S
C1707 C1708 1.398 . S
C1707 C1713 1.491 1_545 S
C1708 H1699 0.950 . S
C1708 C1707 1.398 . S
C1708 C1709 1.391 . S
C1709 H1697 0.950 . S
C1709 C1705 1.393 . S
C1709 C1708 1.391 . S
C1710 H1700 0.950 . S
C1710 C1711 1.386 . S
C1710 C1712 1.391 . S
C1711 C1710 1.386 . S
C1711 C1715 1.393 . S
C1712 H1701 0.950 . S
C1712 C1710 1.391 . S
C1712 C1713 1.400 . S
C1713 C1707 1.491 1_565 S
C1713 C1712 1.400 . S
C1713 C1714 1.398 . S
C1714 H1702 0.950 . S
C1714 C1713 1.398 . S
C1714 C1715 1.391 . S
C1715 H1703 0.950 . S
C1715 C1711 1.393 . S
C1715 C1714 1.391 . S
H1716 C1724 0.950 . S
H1717 C1729 0.950 . S
H1718 C1726 0.950 1_655 S
H1719 C1728 0.950 . S
H1720 C1730 0.950 . S
H1721 C1732 0.950 1_455 S
H1722 C1734 0.950 . S
H1723 C1735 0.950 . S
C1724 H1716 0.950 . S
C1724 C1725 1.386 . S
C1724 C1726 1.391 . S
C1725 C1724 1.386 . S
C1725 C1729 1.393 . S
C1726 H1718 0.950 1_455 S
C1726 C1724 1.391 . S
C1726 C1727 1.400 . S
C1727 C1726 1.400 . S
C1727 C1728 1.398 . S
C1727 C1733 1.491 1_455 S
C1728 H1719 0.950 . S
C1728 C1727 1.398 . S
C1728 C1729 1.391 . S
C1729 H1717 0.950 . S
C1729 C1725 1.393 . S
C1729 C1728 1.391 . S
C1730 H1720 0.950 . S
C1730 C1731 1.386 . S
C1730 C1732 1.391 . S
C1731 C1730 1.386 . S
C1731 C1735 1.393 . S
C1732 H1721 0.950 1_655 S
C1732 C1730 1.391 . S
C1732 C1733 1.400 . S
C1733 C1727 1.491 1_655 S
C1733 C1732 1.400 . S
C1733 C1734 1.398 . S
C1734 H1722 0.950 . S
C1734 C1733 1.398 . S
C1734 C1735 1.391 . S
C1735 H1723 0.950 . S
C1735 C1731 1.393 . S
C1735 C1734 1.391 . S
H1736 C1744 0.950 . S
H1737 C1749 0.950 . S
H1738 C1746 0.936 1_545 S
H1739 C1748 0.950 . S
H1740 C1750 0.950 . S
H1741 C1752 0.937 1_565 S
H1742 C1754 0.950 . S
H1743 C1755 0.950 . S
C1744 H1736 0.950 . S
C1744 C1745 1.386 . S
C1744 C1746 1.391 . S
C1745 C1744 1.386 . S
C1745 C1749 1.393 . S
C1746 H1738 0.936 1_565 S
C1746 C1744 1.391 . S
C1746 C1747 1.400 . S
C1747 C1746 1.400 . S
C1747 C1748 1.398 . S
C1747 C1753 1.491 1_565 S
C1748 H1739 0.950 . S
C1748 C1747 1.398 . S
C1748 C1749 1.391 . S
C1749 H1737 0.950 . S
C1749 C1745 1.393 . S
C1749 C1748 1.391 . S
C1750 H1740 0.950 . S
C1750 C1751 1.386 . S
C1750 C1752 1.391 . S
C1751 C1750 1.386 . S
C1751 C1755 1.393 . S
C1752 H1741 0.937 1_545 S
C1752 C1750 1.391 . S
C1752 C1753 1.400 . S
C1753 C1747 1.491 1_545 S
C1753 C1752 1.400 . S
C1753 C1754 1.398 . S
C1754 H1742 0.950 . S
C1754 C1753 1.398 . S
C1754 C1755 1.391 . S
C1755 H1743 0.950 . S
C1755 C1751 1.393 . S
C1755 C1754 1.391 . S
H1756 C1764 0.950 . S
H1757 C1769 0.950 . S
H1758 C1766 0.950 1_455 S
H1759 C1768 0.950 . S
H1760 C1770 0.950 . S
H1761 C1772 0.950 1_655 S
H1762 C1774 0.950 . S
H1763 C1775 0.950 . S
C1764 H1756 0.950 . S
C1764 C1765 1.386 . S
C1764 C1766 1.391 . S
C1765 C1764 1.386 . S
C1765 C1769 1.393 . S
C1766 H1758 0.950 1_655 S
C1766 C1764 1.391 . S
C1766 C1767 1.400 . S
C1767 C1766 1.400 . S
C1767 C1768 1.398 . S
C1767 C1773 1.491 1_655 S
C1768 H1759 0.950 . S
C1768 C1767 1.398 . S
C1768 C1769 1.391 . S
C1769 H1757 0.950 . S
C1769 C1765 1.393 . S
C1769 C1768 1.391 . S
C1770 H1760 0.950 . S
C1770 C1771 1.386 . S
C1770 C1772 1.391 . S
C1771 C1770 1.386 . S
C1771 C1775 1.393 . S
C1772 H1761 0.950 1_455 S
C1772 C1770 1.391 . S
C1772 C1773 1.400 . S
C1773 C1767 1.491 1_455 S
C1773 C1772 1.400 . S
C1773 C1774 1.398 . S
C1774 H1762 0.950 . S
C1774 C1773 1.398 . S
C1774 C1775 1.391 . S
C1775 H1763 0.950 . S
C1775 C1771 1.393 . S
C1775 C1774 1.391 . S
H1776 C1784 0.950 . S
H1777 C1789 0.950 . S
H1778 C1786 0.950 1_545 S
H1779 C1788 0.950 . S
H1780 C1790 0.950 . S
H1781 C1792 0.950 1_565 S
H1782 C1794 0.950 . S
H1783 C1795 0.950 . S
C1784 H1776 0.950 . S
C1784 C1785 1.386 . S
C1784 C1786 1.391 . S
C1785 C1784 1.386 . S
C1785 C1789 1.393 . S
C1786 H1778 0.950 1_565 S
C1786 C1784 1.391 . S
C1786 C1787 1.400 . S
C1787 C1786 1.400 . S
C1787 C1788 1.398 . S
C1787 C1793 1.491 1_565 S
C1788 H1779 0.950 . S
C1788 C1787 1.398 . S
C1788 C1789 1.391 . S
C1789 H1777 0.950 . S
C1789 C1785 1.393 . S
C1789 C1788 1.391 . S
C1790 H1780 0.950 . S
C1790 C1791 1.386 . S
C1790 C1792 1.391 . S
C1791 C1790 1.386 . S
C1791 C1795 1.393 . S
C1792 H1781 0.950 1_545 S
C1792 C1790 1.391 . S
C1792 C1793 1.400 . S
C1793 C1787 1.491 1_545 S
C1793 C1792 1.400 . S
C1793 C1794 1.398 . S
C1794 H1782 0.950 . S
C1794 C1793 1.398 . S
C1794 C1795 1.391 . S
C1795 H1783 0.950 . S
C1795 C1791 1.393 . S
C1795 C1794 1.391 . S
H1796 C1804 0.950 . S
H1797 C1809 0.950 . S
H1798 C1806 0.926 1_655 S
H1799 C1808 0.950 . S
H1800 C1810 0.950 . S
H1801 C1812 0.952 1_455 S
H1802 C1814 0.950 . S
H1803 C1815 0.950 . S
C1804 H1796 0.950 . S
C1804 C1805 1.386 . S
C1804 C1806 1.391 . S
C1805 C1804 1.386 . S
C1805 C1809 1.393 . S
C1806 H1798 0.926 1_455 S
C1806 C1804 1.391 . S
C1806 C1807 1.400 . S
C1807 C1806 1.400 . S
C1807 C1808 1.398 . S
C1807 C1813 1.491 1_455 S
C1808 H1799 0.950 . S
C1808 C1807 1.398 . S
C1808 C1809 1.391 . S
C1809 H1797 0.950 . S
C1809 C1805 1.393 . S
C1809 C1808 1.391 . S
C1810 H1800 0.950 . S
C1810 C1811 1.386 . S
C1810 C1812 1.391 . S
C1811 C1810 1.386 . S
C1811 C1815 1.393 . S
C1812 H1801 0.952 1_655 S
C1812 C1810 1.391 . S
C1812 C1813 1.400 . S
C1813 C1807 1.491 1_655 S
C1813 C1812 1.400 . S
C1813 C1814 1.398 . S
C1814 H1802 0.950 . S
C1814 C1813 1.398 . S
C1814 C1815 1.391 . S
C1815 H1803 0.950 . S
C1815 C1811 1.393 . S
C1815 C1814 1.391 . S
H1816 C1824 0.950 . S
H1817 C1829 0.950 . S
H1818 C1826 0.950 1_554 S
H1819 C1828 0.950 . S
H1820 C1830 0.950 . S
H1821 C1832 0.950 1_556 S
H1822 C1834 0.950 . S
H1823 C1835 0.950 . S
C1824 H1816 0.950 . S
C1824 C1825 1.386 . S
C1824 C1826 1.391 . S
C1825 C1824 1.386 . S
C1825 C1829 1.393 . S
C1826 H1818 0.950 1_556 S
C1826 C1824 1.391 . S
C1826 C1827 1.400 . S
C1827 C1826 1.400 . S
C1827 C1828 1.398 . S
C1827 C1833 1.491 1_556 S
C1828 H1819 0.950 . S
C1828 C1827 1.398 . S
C1828 C1829 1.391 . S
C1829 H1817 0.950 . S
C1829 C1825 1.393 . S
C1829 C1828 1.391 . S
C1830 H1820 0.950 . S
C1830 C1831 1.386 . S
C1830 C1832 1.391 . S
C1831 C1830 1.386 . S
C1831 C1835 1.393 . S
C1832 H1821 0.950 1_554 S
C1832 C1830 1.391 . S
C1832 C1833 1.400 . S
C1833 C1827 1.491 1_554 S
C1833 C1832 1.400 . S
C1833 C1834 1.398 . S
C1834 H1822 0.950 . S
C1834 C1833 1.398 . S
C1834 C1835 1.391 . S
C1835 H1823 0.950 . S
C1835 C1831 1.393 . S
C1835 C1834 1.391 . S
H1836 C1844 0.950 . S
H1837 C1849 0.950 . S
H1838 C1846 0.950 . S
H1839 C1848 0.950 . S
H1840 C1850 0.950 . S
H1841 C1852 0.950 . S
H1842 C1854 0.950 . S
H1843 C1855 0.950 . S
C1844 H1836 0.950 . S
C1844 C1845 1.386 . S
C1844 C1846 1.391 . S
C1845 C1844 1.386 . S
C1845 C1849 1.393 . S
C1846 H1838 0.950 . S
C1846 C1844 1.391 . S
C1846 C1847 1.400 . S
C1847 C1846 1.400 . S
C1847 C1848 1.398 . S
C1847 C1853 1.491 1_554 S
C1848 H1839 0.950 . S
C1848 C1847 1.398 . S
C1848 C1849 1.391 . S
C1849 H1837 0.950 . S
C1849 C1845 1.393 . S
C1849 C1848 1.391 . S
C1850 H1840 0.950 . S
C1850 C1851 1.386 . S
C1850 C1852 1.391 . S
C1851 C1850 1.386 . S
C1851 C1855 1.393 . S
C1852 H1841 0.950 . S
C1852 C1850 1.391 . S
C1852 C1853 1.400 . S
C1853 C1847 1.491 1_556 S
C1853 C1852 1.400 . S
C1853 C1854 1.398 . S
C1854 H1842 0.950 . S
C1854 C1853 1.398 . S
C1854 C1855 1.391 . S
C1855 H1843 0.950 . S
C1855 C1851 1.393 . S
C1855 C1854 1.391 . S
H1856 C1864 0.950 . S
H1857 C1869 0.950 . S
H1858 C1866 0.950 . S
H1859 C1868 0.950 . S
H1860 C1870 0.950 . S
H1861 C1872 0.950 . S
H1862 C1874 0.950 . S
H1863 C1875 0.950 . S
C1864 H1856 0.950 . S
C1864 C1865 1.386 . S
C1864 C1866 1.391 . S
C1865 C1864 1.386 . S
C1865 C1869 1.393 . S
C1866 H1858 0.950 . S
C1866 C1864 1.391 . S
C1866 C1867 1.400 . S
C1867 C1866 1.400 . S
C1867 C1868 1.398 . S
C1867 C1873 1.491 1_556 S
C1868 H1859 0.950 . S
C1868 C1867 1.398 . S
C1868 C1869 1.391 . S
C1869 H1857 0.950 . S
C1869 C1865 1.393 . S
C1869 C1868 1.391 . S
C1870 H1860 0.950 . S
C1870 C1871 1.386 . S
C1870 C1872 1.391 . S
C1871 C1870 1.386 . S
C1871 C1875 1.393 . S
C1872 H1861 0.950 . S
C1872 C1870 1.391 . S
C1872 C1873 1.400 . S
C1873 C1867 1.491 1_554 S
C1873 C1872 1.400 . S
C1873 C1874 1.398 . S
C1874 H1862 0.950 . S
C1874 C1873 1.398 . S
C1874 C1875 1.391 . S
C1875 H1863 0.950 . S
C1875 C1871 1.393 . S
C1875 C1874 1.391 . S
H1876 C1884 0.950 . S
H1877 C1889 0.950 . S
H1878 C1886 0.950 . S
H1879 C1888 0.950 1_556 S
H1880 C1890 0.950 . S
H1881 C1892 0.950 . S
H1882 C1894 0.950 1_554 S
H1883 C1895 0.950 . S
C1884 H1876 0.950 . S
C1884 C1885 1.386 . S
C1884 C1886 1.391 . S
C1885 C1884 1.386 . S
C1885 C1889 1.393 . S
C1886 H1878 0.950 . S
C1886 C1884 1.391 . S
C1886 C1887 1.400 . S
C1887 C1886 1.400 . S
C1887 C1888 1.398 . S
C1887 C1893 1.491 1_554 S
C1888 H1879 0.950 1_554 S
C1888 C1887 1.398 . S
C1888 C1889 1.391 . S
C1889 H1877 0.950 . S
C1889 C1885 1.393 . S
C1889 C1888 1.391 . S
C1890 H1880 0.950 . S
C1890 C1891 1.386 . S
C1890 C1892 1.391 . S
C1891 C1890 1.386 . S
C1891 C1895 1.393 . S
C1892 H1881 0.950 . S
C1892 C1890 1.391 . S
C1892 C1893 1.400 . S
C1893 C1887 1.491 1_556 S
C1893 C1892 1.400 . S
C1893 C1894 1.398 . S
C1894 H1882 0.950 1_556 S
C1894 C1893 1.398 . S
C1894 C1895 1.391 . S
C1895 H1883 0.950 . S
C1895 C1891 1.393 . S
C1895 C1894 1.391 . S
H1896 C1904 0.950 . S
H1897 C1909 0.950 . S
H1898 C1906 0.950 . S
H1899 C1908 0.950 . S
H1900 C1910 0.950 . S
H1901 C1912 0.950 . S
H1902 C1914 0.950 . S
H1903 C1915 0.950 . S
C1904 H1896 0.950 . S
C1904 C1905 1.386 . S
C1904 C1906 1.391 . S
C1905 C1904 1.386 . S
C1905 C1909 1.393 . S
C1906 H1898 0.950 . S
C1906 C1904 1.391 . S
C1906 C1907 1.400 . S
C1907 C1906 1.400 . S
C1907 C1908 1.398 . S
C1907 C1913 1.491 . S
C1908 H1899 0.950 . S
C1908 C1907 1.398 . S
C1908 C1909 1.391 . S
C1909 H1897 0.950 . S
C1909 C1905 1.393 . S
C1909 C1908 1.391 . S
C1910 H1900 0.950 . S
C1910 C1911 1.386 . S
C1910 C1912 1.391 . S
C1911 C1910 1.386 . S
C1911 C1915 1.393 . S
C1912 H1901 0.950 . S
C1912 C1910 1.391 . S
C1912 C1913 1.400 . S
C1913 C1907 1.491 . S
C1913 C1912 1.400 . S
C1913 C1914 1.398 . S
C1914 H1902 0.950 . S
C1914 C1913 1.398 . S
C1914 C1915 1.391 . S
C1915 H1903 0.950 . S
C1915 C1911 1.393 . S
C1915 C1914 1.391 . S
H1916 C1924 0.950 . S
H1917 C1929 0.950 . S
H1918 C1926 0.950 . S
H1919 C1928 0.950 . S
H1920 C1930 0.950 . S
H1921 C1932 0.950 . S
H1922 C1934 0.950 . S
H1923 C1935 0.950 . S
C1924 H1916 0.950 . S
C1924 C1925 1.386 . S
C1924 C1926 1.391 . S
C1925 C1924 1.386 . S
C1925 C1929 1.393 . S
C1926 H1918 0.950 . S
C1926 C1924 1.391 . S
C1926 C1927 1.400 . S
C1927 C1926 1.400 . S
C1927 C1928 1.398 . S
C1927 C1933 1.491 . S
C1928 H1919 0.950 . S
C1928 C1927 1.398 . S
C1928 C1929 1.391 . S
C1929 H1917 0.950 . S
C1929 C1925 1.393 . S
C1929 C1928 1.391 . S
C1930 H1920 0.950 . S
C1930 C1931 1.386 . S
C1930 C1932 1.391 . S
C1931 C1930 1.386 . S
C1931 C1935 1.393 . S
C1932 H1921 0.950 . S
C1932 C1930 1.391 . S
C1932 C1933 1.400 . S
C1933 C1927 1.491 . S
C1933 C1932 1.400 . S
C1933 C1934 1.398 . S
C1934 H1922 0.950 . S
C1934 C1933 1.398 . S
C1934 C1935 1.391 . S
C1935 H1923 0.950 . S
C1935 C1931 1.393 . S
C1935 C1934 1.391 . S
H1936 C1944 0.950 . S
H1937 C1949 0.950 . S
H1938 C1946 0.950 . S
H1939 C1948 0.950 . S
H1940 C1950 0.950 . S
H1941 C1952 0.950 . S
H1942 C1954 0.950 . S
H1943 C1955 0.950 . S
C1944 H1936 0.950 . S
C1944 C1945 1.386 . S
C1944 C1946 1.391 . S
C1945 C1944 1.386 . S
C1945 C1949 1.393 . S
C1946 H1938 0.950 . S
C1946 C1944 1.391 . S
C1946 C1947 1.400 . S
C1947 C1946 1.400 . S
C1947 C1948 1.398 . S
C1947 C1953 1.491 . S
C1948 H1939 0.950 . S
C1948 C1947 1.398 . S
C1948 C1949 1.391 . S
C1949 H1937 0.950 . S
C1949 C1945 1.393 . S
C1949 C1948 1.391 . S
C1950 H1940 0.950 . S
C1950 C1951 1.386 . S
C1950 C1952 1.391 . S
C1951 C1950 1.386 . S
C1951 C1955 1.393 . S
C1952 H1941 0.950 . S
C1952 C1950 1.391 . S
C1952 C1953 1.400 . S
C1953 C1947 1.491 . S
C1953 C1952 1.400 . S
C1953 C1954 1.398 . S
C1954 H1942 0.950 . S
C1954 C1953 1.398 . S
C1954 C1955 1.391 . S
C1955 H1943 0.950 . S
C1955 C1951 1.393 . S
C1955 C1954 1.391 . S
H1956 C1964 0.950 . S
H1957 C1969 0.950 . S
H1958 C1966 0.950 . S
H1959 C1968 0.950 . S
H1960 C1970 0.950 . S
H1961 C1972 0.950 . S
H1962 C1974 0.950 . S
H1963 C1975 0.950 . S
C1964 H1956 0.950 . S
C1964 C1965 1.386 . S
C1964 C1966 1.391 . S
C1965 C1964 1.386 . S
C1965 C1969 1.393 . S
C1966 H1958 0.950 . S
C1966 C1964 1.391 . S
C1966 C1967 1.400 . S
C1967 C1966 1.400 . S
C1967 C1968 1.398 . S
C1967 C1973 1.491 . S
C1968 H1959 0.950 . S
C1968 C1967 1.398 . S
C1968 C1969 1.391 . S
C1969 H1957 0.950 . S
C1969 C1965 1.393 . S
C1969 C1968 1.391 . S
C1970 H1960 0.950 . S
C1970 C1971 1.386 . S
C1970 C1972 1.391 . S
C1971 C1970 1.386 . S
C1971 C1975 1.393 . S
C1972 H1961 0.950 . S
C1972 C1970 1.391 . S
C1972 C1973 1.400 . S
C1973 C1967 1.491 . S
C1973 C1972 1.400 . S
C1973 C1974 1.398 . S
C1974 H1962 0.950 . S
C1974 C1973 1.398 . S
C1974 C1975 1.391 . S
C1975 H1963 0.950 . S
C1975 C1971 1.393 . S
C1975 C1974 1.391 . S
H1976 C1984 0.950 . S
H1977 C1989 0.950 . S
H1978 C1986 0.950 . S
H1979 C1988 0.950 . S
H1980 C1990 0.950 . S
H1981 C1992 0.950 . S
H1982 C1994 0.950 . S
H1983 C1995 0.950 . S
C1984 H1976 0.950 . S
C1984 C1985 1.386 . S
C1984 C1986 1.391 . S
C1985 C1984 1.386 . S
C1985 C1989 1.393 . S
C1986 H1978 0.950 . S
C1986 C1984 1.391 . S
C1986 C1987 1.400 . S
C1987 C1986 1.400 . S
C1987 C1988 1.398 . S
C1987 C1993 1.491 . S
C1988 H1979 0.950 . S
C1988 C1987 1.398 . S
C1988 C1989 1.391 . S
C1989 H1977 0.950 . S
C1989 C1985 1.393 . S
C1989 C1988 1.391 . S
C1990 H1980 0.950 . S
C1990 C1991 1.386 . S
C1990 C1992 1.391 . S
C1991 C1990 1.386 . S
C1991 C1995 1.393 . S
C1992 H1981 0.950 . S
C1992 C1990 1.391 . S
C1992 C1993 1.400 . S
C1993 C1987 1.491 . S
C1993 C1992 1.400 . S
C1993 C1994 1.398 . S
C1994 H1982 0.950 . S
C1994 C1993 1.398 . S
C1994 C1995 1.391 . S
C1995 H1983 0.950 . S
C1995 C1991 1.393 . S
C1995 C1994 1.391 . S
H1996 C2004 0.950 . S
H1997 C2009 0.950 . S
H1998 C2006 0.950 . S
H1999 C2008 0.950 . S
H2000 C2010 0.950 . S
H2001 C2012 0.950 . S
H2002 C2014 0.950 . S
H2003 C2015 0.950 . S
C2004 H1996 0.950 . S
C2004 C2005 1.386 . S
C2004 C2006 1.391 . S
C2005 C2004 1.386 . S
C2005 C2009 1.393 . S
C2006 H1998 0.950 . S
C2006 C2004 1.391 . S
C2006 C2007 1.400 . S
C2007 C2006 1.400 . S
C2007 C2008 1.398 . S
C2007 C2013 1.491 . S
C2008 H1999 0.950 . S
C2008 C2007 1.398 . S
C2008 C2009 1.391 . S
C2009 H1997 0.950 . S
C2009 C2005 1.393 . S
C2009 C2008 1.391 . S
C2010 H2000 0.950 . S
C2010 C2011 1.386 . S
C2010 C2012 1.391 . S
C2011 C2010 1.386 . S
C2011 C2015 1.393 . S
C2012 H2001 0.950 . S
C2012 C2010 1.391 . S
C2012 C2013 1.400 . S
C2013 C2007 1.491 . S
C2013 C2012 1.400 . S
C2013 C2014 1.398 . S
C2014 H2002 0.950 . S
C2014 C2013 1.398 . S
C2014 C2015 1.391 . S
C2015 H2003 0.950 . S
C2015 C2011 1.393 . S
C2015 C2014 1.391 . S
H2016 C2024 0.950 . S
H2017 C2029 0.950 . S
H2018 C2026 0.950 . S
H2019 C2028 0.950 . S
H2020 C2030 0.950 . S
H2021 C2032 0.950 . S
H2022 C2034 0.950 . S
H2023 C2035 0.950 . S
C2024 H2016 0.950 . S
C2024 C2025 1.386 . S
C2024 C2026 1.391 . S
C2025 C2024 1.386 . S
C2025 C2029 1.393 . S
C2026 H2018 0.950 . S
C2026 C2024 1.391 . S
C2026 C2027 1.400 . S
C2027 C2026 1.400 . S
C2027 C2028 1.398 . S
C2027 C2033 1.491 . S
C2028 H2019 0.950 . S
C2028 C2027 1.398 . S
C2028 C2029 1.391 . S
C2029 H2017 0.950 . S
C2029 C2025 1.393 . S
C2029 C2028 1.391 . S
C2030 H2020 0.950 . S
C2030 C2031 1.386 . S
C2030 C2032 1.391 . S
C2031 C2030 1.386 . S
C2031 C2035 1.393 . S
C2032 H2021 0.950 . S
C2032 C2030 1.391 . S
C2032 C2033 1.400 . S
C2033 C2027 1.491 . S
C2033 C2032 1.400 . S
C2033 C2034 1.398 . S
C2034 H2022 0.950 . S
C2034 C2033 1.398 . S
C2034 C2035 1.391 . S
C2035 H2023 0.950 . S
C2035 C2031 1.393 . S
C2035 C2034 1.391 . S
H2036 C2044 0.950 . S
H2037 C2049 0.950 . S
H2038 C2046 0.950 . S
H2039 C2048 0.950 . S
H2040 C2050 0.950 . S
H2041 C2052 0.950 . S
H2042 C2054 0.950 . S
H2043 C2055 0.950 . S
C2044 H2036 0.950 . S
C2044 C2045 1.386 . S
C2044 C2046 1.391 . S
C2045 C2044 1.386 . S
C2045 C2049 1.393 . S
C2046 H2038 0.950 . S
C2046 C2044 1.391 . S
C2046 C2047 1.400 . S
C2047 C2046 1.400 . S
C2047 C2048 1.398 . S
C2047 C2053 1.491 . S
C2048 H2039 0.950 . S
C2048 C2047 1.398 . S
C2048 C2049 1.391 . S
C2049 H2037 0.950 . S
C2049 C2045 1.393 . S
C2049 C2048 1.391 . S
C2050 H2040 0.950 . S
C2050 C2051 1.386 . S
C2050 C2052 1.391 . S
C2051 C2050 1.386 . S
C2051 C2055 1.393 . S
C2052 H2041 0.950 . S
C2052 C2050 1.391 . S
C2052 C2053 1.400 . S
C2053 C2047 1.491 . S
C2053 C2052 1.400 . S
C2053 C2054 1.398 . S
C2054 H2042 0.950 . S
C2054 C2053 1.398 . S
C2054 C2055 1.391 . S
C2055 H2043 0.950 . S
C2055 C2051 1.393 . S
C2055 C2054 1.391 . S
H2056 C2064 0.950 . S
H2057 C2069 0.950 . S
H2058 C2066 0.950 . S
H2059 C2068 0.950 . S
H2060 C2070 0.950 . S
H2061 C2072 0.950 . S
H2062 C2074 0.950 . S
H2063 C2075 0.950 . S
C2064 H2056 0.950 . S
C2064 C2065 1.386 . S
C2064 C2066 1.391 . S
C2065 C2064 1.386 . S
C2065 C2069 1.393 . S
C2066 H2058 0.950 . S
C2066 C2064 1.391 . S
C2066 C2067 1.400 . S
C2067 C2066 1.400 . S
C2067 C2068 1.398 . S
C2067 C2073 1.491 . S
C2068 H2059 0.950 . S
C2068 C2067 1.398 . S
C2068 C2069 1.391 . S
C2069 H2057 0.950 . S
C2069 C2065 1.393 . S
C2069 C2068 1.391 . S
C2070 H2060 0.950 . S
C2070 C2071 1.386 . S
C2070 C2072 1.391 . S
C2071 C2070 1.386 . S
C2071 C2075 1.393 . S
C2072 H2061 0.950 . S
C2072 C2070 1.391 . S
C2072 C2073 1.400 . S
C2073 C2067 1.491 . S
C2073 C2072 1.400 . S
C2073 C2074 1.398 . S
C2074 H2062 0.950 . S
C2074 C2073 1.398 . S
C2074 C2075 1.391 . S
C2075 H2063 0.950 . S
C2075 C2071 1.393 . S
C2075 C2074 1.391 . S
H2076 C2084 0.950 . S
H2077 C2089 0.950 . S
H2078 C2086 0.950 . S
H2079 C2088 0.950 . S
H2080 C2090 0.950 . S
H2081 C2092 0.950 . S
H2082 C2094 0.950 . S
H2083 C2095 0.950 . S
C2084 H2076 0.950 . S
C2084 C2085 1.386 . S
C2084 C2086 1.391 . S
C2085 C2084 1.386 . S
C2085 C2089 1.393 . S
C2086 H2078 0.950 . S
C2086 C2084 1.391 . S
C2086 C2087 1.400 . S
C2087 C2086 1.400 . S
C2087 C2088 1.398 . S
C2087 C2093 1.491 . S
C2088 H2079 0.950 . S
C2088 C2087 1.398 . S
C2088 C2089 1.391 . S
C2089 H2077 0.950 . S
C2089 C2085 1.393 . S
C2089 C2088 1.391 . S
C2090 H2080 0.950 . S
C2090 C2091 1.386 . S
C2090 C2092 1.391 . S
C2091 C2090 1.386 . S
C2091 C2095 1.393 . S
C2092 H2081 0.950 . S
C2092 C2090 1.391 . S
C2092 C2093 1.400 . S
C2093 C2087 1.491 . S
C2093 C2092 1.400 . S
C2093 C2094 1.398 . S
C2094 H2082 0.950 . S
C2094 C2093 1.398 . S
C2094 C2095 1.391 . S
C2095 H2083 0.950 . S
C2095 C2091 1.393 . S
C2095 C2094 1.391 . S
H2096 C2104 0.950 . S
H2097 C2109 0.950 . S
H2098 C2106 0.950 . S
H2099 C2108 0.950 . S
H2100 C2110 0.950 . S
H2101 C2112 0.950 . S
H2102 C2114 0.950 . S
H2103 C2115 0.950 . S
C2104 H2096 0.950 . S
C2104 C2105 1.386 . S
C2104 C2106 1.391 . S
C2105 C2104 1.386 . S
C2105 C2109 1.393 . S
C2106 H2098 0.950 . S
C2106 C2104 1.391 . S
C2106 C2107 1.400 . S
C2107 C2106 1.400 . S
C2107 C2108 1.398 . S
C2107 C2113 1.491 . S
C2108 H2099 0.950 . S
C2108 C2107 1.398 . S
C2108 C2109 1.391 . S
C2109 H2097 0.950 . S
C2109 C2105 1.393 . S
C2109 C2108 1.391 . S
C2110 H2100 0.950 . S
C2110 C2111 1.386 . S
C2110 C2112 1.391 . S
C2111 C2110 1.386 . S
C2111 C2115 1.393 . S
C2112 H2101 0.950 . S
C2112 C2110 1.391 . S
C2112 C2113 1.400 . S
C2113 C2107 1.491 . S
C2113 C2112 1.400 . S
C2113 C2114 1.398 . S
C2114 H2102 0.950 . S
C2114 C2113 1.398 . S
C2114 C2115 1.391 . S
C2115 H2103 0.950 . S
C2115 C2111 1.393 . S
C2115 C2114 1.391 . S
H2116 C2124 0.950 . S
H2117 C2129 0.950 . S
H2118 C2126 0.950 . S
H2119 C2128 0.950 . S
H2120 C2130 0.950 . S
H2121 C2132 0.950 . S
H2122 C2134 0.950 . S
H2123 C2135 0.950 . S
C2124 H2116 0.950 . S
C2124 C2125 1.386 . S
C2124 C2126 1.391 . S
C2125 C2124 1.386 . S
C2125 C2129 1.393 . S
C2126 H2118 0.950 . S
C2126 C2124 1.391 . S
C2126 C2127 1.400 . S
C2127 C2126 1.400 . S
C2127 C2128 1.398 . S
C2127 C2133 1.491 . S
C2128 H2119 0.950 . S
C2128 C2127 1.398 . S
C2128 C2129 1.391 . S
C2129 H2117 0.950 . S
C2129 C2125 1.393 . S
C2129 C2128 1.391 . S
C2130 H2120 0.950 . S
C2130 C2131 1.386 . S
C2130 C2132 1.391 . S
C2131 C2130 1.386 . S
C2131 C2135 1.393 . S
C2132 H2121 0.950 . S
C2132 C2130 1.391 . S
C2132 C2133 1.400 . S
C2133 C2127 1.491 . S
C2133 C2132 1.400 . S
C2133 C2134 1.398 . S
C2134 H2122 0.950 . S
C2134 C2133 1.398 . S
C2134 C2135 1.391 . S
C2135 H2123 0.950 . S
C2135 C2131 1.393 . S
C2135 C2134 1.391 . S
H2136 C2144 0.950 . S
H2137 C2149 0.950 . S
H2138 C2146 0.950 . S
H2139 C2148 0.950 . S
H2140 C2150 0.950 . S
H2141 C2152 0.950 . S
H2142 C2154 0.950 . S
H2143 C2155 0.950 . S
C2144 H2136 0.950 . S
C2144 C2145 1.386 . S
C2144 C2146 1.391 . S
C2145 C2144 1.386 . S
C2145 C2149 1.393 . S
C2146 H2138 0.950 . S
C2146 C2144 1.391 . S
C2146 C2147 1.400 . S
C2147 C2146 1.400 . S
C2147 C2148 1.398 . S
C2147 C2153 1.491 . S
C2148 H2139 0.950 . S
C2148 C2147 1.398 . S
C2148 C2149 1.391 . S
C2149 H2137 0.950 . S
C2149 C2145 1.393 . S
C2149 C2148 1.391 . S
C2150 H2140 0.950 . S
C2150 C2151 1.386 . S
C2150 C2152 1.391 . S
C2151 C2150 1.386 . S
C2151 C2155 1.393 . S
C2152 H2141 0.950 . S
C2152 C2150 1.391 . S
C2152 C2153 1.400 . S
C2153 C2147 1.491 . S
C2153 C2152 1.400 . S
C2153 C2154 1.398 . S
C2154 H2142 0.950 . S
C2154 C2153 1.398 . S
C2154 C2155 1.391 . S
C2155 H2143 0.950 . S
C2155 C2151 1.393 . S
C2155 C2154 1.391 . S
H2156 C2164 0.950 . S
H2157 C2169 0.950 . S
H2158 C2166 0.950 . S
H2159 C2168 0.950 . S
H2160 C2170 0.950 . S
H2161 C2172 0.950 . S
H2162 C2174 0.950 . S
H2163 C2175 0.950 . S
C2164 H2156 0.950 . S
C2164 C2165 1.386 . S
C2164 C2166 1.391 . S
C2165 C2164 1.386 . S
C2165 C2169 1.393 . S
C2166 H2158 0.950 . S
C2166 C2164 1.391 . S
C2166 C2167 1.400 . S
C2167 C2166 1.400 . S
C2167 C2168 1.398 . S
C2167 C2173 1.491 . S
C2168 H2159 0.950 . S
C2168 C2167 1.398 . S
C2168 C2169 1.391 . S
C2169 H2157 0.950 . S
C2169 C2165 1.393 . S
C2169 C2168 1.391 . S
C2170 H2160 0.950 . S
C2170 C2171 1.386 . S
C2170 C2172 1.391 . S
C2171 C2170 1.386 . S
C2171 C2175 1.393 . S
C2172 H2161 0.950 . S
C2172 C2170 1.391 . S
C2172 C2173 1.400 . S
C2173 C2167 1.491 . S
C2173 C2172 1.400 . S
C2173 C2174 1.398 . S
C2174 H2162 0.950 . S
C2174 C2173 1.398 . S
C2174 C2175 1.391 . S
C2175 H2163 0.950 . S
C2175 C2171 1.393 . S
C2175 C2174 1.391 . S
H2176 C2184 0.950 . S
H2177 C2189 0.950 . S
H2178 C2186 0.950 . S
H2179 C2188 0.950 . S
H2180 C2190 0.950 . S
H2181 C2192 0.950 . S
H2182 C2194 0.950 . S
H2183 C2195 0.950 . S
C2184 H2176 0.950 . S
C2184 C2185 1.386 . S
C2184 C2186 1.391 . S
C2185 C2184 1.386 . S
C2185 C2189 1.393 . S
C2186 H2178 0.950 . S
C2186 C2184 1.391 . S
C2186 C2187 1.400 . S
C2187 C2186 1.400 . S
C2187 C2188 1.398 . S
C2187 C2193 1.491 . S
C2188 H2179 0.950 . S
C2188 C2187 1.398 . S
C2188 C2189 1.391 . S
C2189 H2177 0.950 . S
C2189 C2185 1.393 . S
C2189 C2188 1.391 . S
C2190 H2180 0.950 . S
C2190 C2191 1.386 . S
C2190 C2192 1.391 . S
C2191 C2190 1.386 . S
C2191 C2195 1.393 . S
C2192 H2181 0.950 . S
C2192 C2190 1.391 . S
C2192 C2193 1.400 . S
C2193 C2187 1.491 . S
C2193 C2192 1.400 . S
C2193 C2194 1.398 . S
C2194 H2182 0.950 . S
C2194 C2193 1.398 . S
C2194 C2195 1.391 . S
C2195 H2183 0.950 . S
C2195 C2191 1.393 . S
C2195 C2194 1.391 . S
H2196 C2204 0.950 . S
H2197 C2209 0.950 . S
H2198 C2206 0.950 . S
H2199 C2208 0.950 . S
H2200 C2210 0.950 . S
H2201 C2212 0.950 . S
H2202 C2214 0.950 . S
H2203 C2215 0.950 . S
C2204 H2196 0.950 . S
C2204 C2205 1.386 . S
C2204 C2206 1.391 . S
C2205 C2204 1.386 . S
C2205 C2209 1.393 . S
C2206 H2198 0.950 . S
C2206 C2204 1.391 . S
C2206 C2207 1.400 . S
C2207 C2206 1.400 . S
C2207 C2208 1.398 . S
C2207 C2213 1.491 . S
C2208 H2199 0.950 . S
C2208 C2207 1.398 . S
C2208 C2209 1.391 . S
C2209 H2197 0.950 . S
C2209 C2205 1.393 . S
C2209 C2208 1.391 . S
C2210 H2200 0.950 . S
C2210 C2211 1.386 . S
C2210 C2212 1.391 . S
C2211 C2210 1.386 . S
C2211 C2215 1.393 . S
C2212 H2201 0.950 . S
C2212 C2210 1.391 . S
C2212 C2213 1.400 . S
C2213 C2207 1.491 . S
C2213 C2212 1.400 . S
C2213 C2214 1.398 . S
C2214 H2202 0.950 . S
C2214 C2213 1.398 . S
C2214 C2215 1.391 . S
C2215 H2203 0.950 . S
C2215 C2211 1.393 . S
C2215 C2214 1.391 . S
H2216 C2224 0.950 . S
H2217 C2229 0.950 . S
H2218 C2226 0.950 . S
H2219 C2228 0.950 . S
H2220 C2230 0.950 . S
H2221 C2232 0.950 . S
H2222 C2234 0.950 . S
H2223 C2235 0.950 . S
C2224 H2216 0.950 . S
C2224 C2225 1.386 . S
C2224 C2226 1.391 . S
C2225 C2224 1.386 . S
C2225 C2229 1.393 . S
C2226 H2218 0.950 . S
C2226 C2224 1.391 . S
C2226 C2227 1.400 . S
C2227 C2226 1.400 . S
C2227 C2228 1.398 . S
C2227 C2233 1.491 . S
C2228 H2219 0.950 . S
C2228 C2227 1.398 . S
C2228 C2229 1.391 . S
C2229 H2217 0.950 . S
C2229 C2225 1.393 . S
C2229 C2228 1.391 . S
C2230 H2220 0.950 . S
C2230 C2231 1.386 . S
C2230 C2232 1.391 . S
C2231 C2230 1.386 . S
C2231 C2235 1.393 . S
C2232 H2221 0.950 . S
C2232 C2230 1.391 . S
C2232 C2233 1.400 . S
C2233 C2227 1.491 . S
C2233 C2232 1.400 . S
C2233 C2234 1.398 . S
C2234 H2222 0.950 . S
C2234 C2233 1.398 . S
C2234 C2235 1.391 . S
C2235 H2223 0.950 . S
C2235 C2231 1.393 . S
C2235 C2234 1.391 . S
H2236 C2244 0.950 . S
H2237 C2249 0.950 . S
H2238 C2246 0.950 . S
H2239 C2248 0.950 . S
H2240 C2250 0.950 . S
H2241 C2252 0.950 . S
H2242 C2254 0.950 . S
H2243 C2255 0.950 . S
C2244 H2236 0.950 . S
C2244 C2245 1.386 . S
C2244 C2246 1.391 . S
C2245 C2244 1.386 . S
C2245 C2249 1.393 . S
C2246 H2238 0.950 . S
C2246 C2244 1.391 . S
C2246 C2247 1.400 . S
C2247 C2246 1.400 . S
C2247 C2248 1.398 . S
C2247 C2253 1.491 . S
C2248 H2239 0.950 . S
C2248 C2247 1.398 . S
C2248 C2249 1.391 . S
C2249 H2237 0.950 . S
C2249 C2245 1.393 . S
C2249 C2248 1.391 . S
C2250 H2240 0.950 . S
C2250 C2251 1.386 . S
C2250 C2252 1.391 . S
C2251 C2250 1.386 . S
C2251 C2255 1.393 . S
C2252 H2241 0.950 . S
C2252 C2250 1.391 . S
C2252 C2253 1.400 . S
C2253 C2247 1.491 . S
C2253 C2252 1.400 . S
C2253 C2254 1.398 . S
C2254 H2242 0.950 . S
C2254 C2253 1.398 . S
C2254 C2255 1.391 . S
C2255 H2243 0.950 . S
C2255 C2251 1.393 . S
C2255 C2254 1.391 . S
H2256 C2264 0.950 . S
H2257 C2269 0.950 . S
H2258 C2266 0.950 . S
H2259 C2268 0.950 . S
H2260 C2270 0.950 . S
H2261 C2272 0.950 . S
H2262 C2274 0.950 . S
H2263 C2275 0.950 . S
C2264 H2256 0.950 . S
C2264 C2265 1.386 . S
C2264 C2266 1.391 . S
C2265 C2264 1.386 . S
C2265 C2269 1.393 . S
C2266 H2258 0.950 . S
C2266 C2264 1.391 . S
C2266 C2267 1.400 . S
C2267 C2266 1.400 . S
C2267 C2268 1.398 . S
C2267 C2273 1.491 . S
C2268 H2259 0.950 . S
C2268 C2267 1.398 . S
C2268 C2269 1.391 . S
C2269 H2257 0.950 . S
C2269 C2265 1.393 . S
C2269 C2268 1.391 . S
C2270 H2260 0.950 . S
C2270 C2271 1.386 . S
C2270 C2272 1.391 . S
C2271 C2270 1.386 . S
C2271 C2275 1.393 . S
C2272 H2261 0.950 . S
C2272 C2270 1.391 . S
C2272 C2273 1.400 . S
C2273 C2267 1.491 . S
C2273 C2272 1.400 . S
C2273 C2274 1.398 . S
C2274 H2262 0.950 . S
C2274 C2273 1.398 . S
C2274 C2275 1.391 . S
C2275 H2263 0.950 . S
C2275 C2271 1.393 . S
C2275 C2274 1.391 . S
H2276 C2284 0.950 . S
H2277 C2289 0.950 . S
H2278 C2286 0.950 . S
H2279 C2288 0.950 . S
H2280 C2290 0.950 . S
H2281 C2292 0.950 . S
H2282 C2294 0.950 . S
H2283 C2295 0.950 . S
C2284 H2276 0.950 . S
C2284 C2285 1.386 . S
C2284 C2286 1.391 . S
C2285 C2284 1.386 . S
C2285 C2289 1.393 . S
C2286 H2278 0.950 . S
C2286 C2284 1.391 . S
C2286 C2287 1.400 . S
C2287 C2286 1.400 . S
C2287 C2288 1.398 . S
C2287 C2293 1.491 . S
C2288 H2279 0.950 . S
C2288 C2287 1.398 . S
C2288 C2289 1.391 . S
C2289 H2277 0.950 . S
C2289 C2285 1.393 . S
C2289 C2288 1.391 . S
C2290 H2280 0.950 . S
C2290 C2291 1.386 . S
C2290 C2292 1.391 . S
C2291 C2290 1.386 . S
C2291 C2295 1.393 . S
C2292 H2281 0.950 . S
C2292 C2290 1.391 . S
C2292 C2293 1.400 . S
C2293 C2287 1.491 . S
C2293 C2292 1.400 . S
C2293 C2294 1.398 . S
C2294 H2282 0.950 . S
C2294 C2293 1.398 . S
C2294 C2295 1.391 . S
C2295 H2283 0.950 . S
C2295 C2291 1.393 . S
C2295 C2294 1.391 . S
H2296 C2304 0.950 . S
H2297 C2309 0.950 . S
H2298 C2306 0.950 . S
H2299 C2308 0.950 . S
H2300 C2310 0.950 . S
H2301 C2312 0.950 . S
H2302 C2314 0.950 . S
H2303 C2315 0.950 . S
C2304 H2296 0.950 . S
C2304 C2305 1.386 . S
C2304 C2306 1.391 . S
C2305 C2304 1.386 . S
C2305 C2309 1.393 . S
C2306 H2298 0.950 . S
C2306 C2304 1.391 . S
C2306 C2307 1.400 . S
C2307 C2306 1.400 . S
C2307 C2308 1.398 . S
C2307 C2313 1.491 . S
C2308 H2299 0.950 . S
C2308 C2307 1.398 . S
C2308 C2309 1.391 . S
C2309 H2297 0.950 . S
C2309 C2305 1.393 . S
C2309 C2308 1.391 . S
C2310 H2300 0.950 . S
C2310 C2311 1.386 . S
C2310 C2312 1.391 . S
C2311 C2310 1.386 . S
C2311 C2315 1.393 . S
C2312 H2301 0.950 . S
C2312 C2310 1.391 . S
C2312 C2313 1.400 . S
C2313 C2307 1.491 . S
C2313 C2312 1.400 . S
C2313 C2314 1.398 . S
C2314 H2302 0.950 . S
C2314 C2313 1.398 . S
C2314 C2315 1.391 . S
C2315 H2303 0.950 . S
C2315 C2311 1.393 . S
C2315 C2314 1.391 . S
H2316 C2324 0.950 . S
H2317 C2329 0.950 . S
H2318 C2326 0.950 . S
H2319 C2328 0.950 . S
H2320 C2330 0.950 . S
H2321 C2332 0.950 . S
H2322 C2334 0.950 . S
H2323 C2335 0.950 . S
C2324 H2316 0.950 . S
C2324 C2325 1.386 . S
C2324 C2326 1.391 . S
C2325 C2324 1.386 . S
C2325 C2329 1.393 . S
C2326 H2318 0.950 . S
C2326 C2324 1.391 . S
C2326 C2327 1.400 . S
C2327 C2326 1.400 . S
C2327 C2328 1.398 . S
C2327 C2333 1.491 . S
C2328 H2319 0.950 . S
C2328 C2327 1.398 . S
C2328 C2329 1.391 . S
C2329 H2317 0.950 . S
C2329 C2325 1.393 . S
C2329 C2328 1.391 . S
C2330 H2320 0.950 . S
C2330 C2331 1.386 . S
C2330 C2332 1.391 . S
C2331 C2330 1.386 . S
C2331 C2335 1.393 . S
C2332 H2321 0.950 . S
C2332 C2330 1.391 . S
C2332 C2333 1.400 . S
C2333 C2327 1.491 . S
C2333 C2332 1.400 . S
C2333 C2334 1.398 . S
C2334 H2322 0.950 . S
C2334 C2333 1.398 . S
C2334 C2335 1.391 . S
C2335 H2323 0.950 . S
C2335 C2331 1.393 . S
C2335 C2334 1.391 . S
H2336 C2344 0.950 . S
H2337 C2349 0.950 . S
H2338 C2346 0.950 . S
H2339 C2348 0.950 . S
H2340 C2350 0.950 . S
H2341 C2352 0.950 . S
H2342 C2354 0.950 . S
H2343 C2355 0.950 . S
C2344 H2336 0.950 . S
C2344 C2345 1.386 . S
C2344 C2346 1.391 . S
C2345 C2344 1.386 . S
C2345 C2349 1.393 . S
C2346 H2338 0.950 . S
C2346 C2344 1.391 . S
C2346 C2347 1.400 . S
C2347 C2346 1.400 . S
C2347 C2348 1.398 . S
C2347 C2353 1.491 . S
C2348 H2339 0.950 . S
C2348 C2347 1.398 . S
C2348 C2349 1.391 . S
C2349 H2337 0.950 . S
C2349 C2345 1.393 . S
C2349 C2348 1.391 . S
C2350 H2340 0.950 . S
C2350 C2351 1.386 . S
C2350 C2352 1.391 . S
C2351 C2350 1.386 . S
C2351 C2355 1.393 . S
C2352 H2341 0.950 . S
C2352 C2350 1.391 . S
C2352 C2353 1.400 . S
C2353 C2347 1.491 . S
C2353 C2352 1.400 . S
C2353 C2354 1.398 . S
C2354 H2342 0.950 . S
C2354 C2353 1.398 . S
C2354 C2355 1.391 . S
C2355 H2343 0.950 . S
C2355 C2351 1.393 . S
C2355 C2354 1.391 . S
H2356 C2364 0.950 . S
H2357 C2369 0.950 . S
H2358 C2366 0.950 . S
H2359 C2368 0.950 . S
H2360 C2370 0.950 . S
H2361 C2372 0.950 . S
H2362 C2374 0.950 . S
H2363 C2375 0.950 . S
C2364 H2356 0.950 . S
C2364 C2365 1.386 . S
C2364 C2366 1.391 . S
C2365 C2364 1.386 . S
C2365 C2369 1.393 . S
C2366 H2358 0.950 . S
C2366 C2364 1.391 . S
C2366 C2367 1.400 . S
C2367 C2366 1.400 . S
C2367 C2368 1.398 . S
C2367 C2373 1.491 . S
C2368 H2359 0.950 . S
C2368 C2367 1.398 . S
C2368 C2369 1.391 . S
C2369 H2357 0.950 . S
C2369 C2365 1.393 . S
C2369 C2368 1.391 . S
C2370 H2360 0.950 . S
C2370 C2371 1.386 . S
C2370 C2372 1.391 . S
C2371 C2370 1.386 . S
C2371 C2375 1.393 . S
C2372 H2361 0.950 . S
C2372 C2370 1.391 . S
C2372 C2373 1.400 . S
C2373 C2367 1.491 . S
C2373 C2372 1.400 . S
C2373 C2374 1.398 . S
C2374 H2362 0.950 . S
C2374 C2373 1.398 . S
C2374 C2375 1.391 . S
C2375 H2363 0.950 . S
C2375 C2371 1.393 . S
C2375 C2374 1.391 . S
C1425 C1301 1.679 . S
C1431 C3 1.678 . S
C1445 C62 1.648 . S
C1451 C949 1.696 . S
C1465 C1360 1.647 . S
C1471 C123 1.696 . S
C1485 C1244 1.697 . S
C1491 C182 1.697 . S
C1505 C1067 1.717 . S
C1511 C241 1.716 . S
C1525 C1124 1.674 . S
C1531 C298 1.670 . S
C1545 C1185 1.698 . S
C1551 C357 1.650 . S
C1565 C418 1.700 . S
C1571 C1006 1.658 . S
C1585 C770 1.681 . S
C1591 C475 1.682 . S
C1605 C831 1.716 . S
C1611 C536 1.717 . S
C1625 C593 1.665 . S
C1631 C888 1.660 . S
C1645 C654 1.694 . S
C1651 C713 1.696 . S
C1665 C416 1.662 . S
C1671 C829 1.658 . S
C1685 C890 1.696 . S
C1691 C239 1.648 . S
C1705 C300 1.692 . S
C1711 C711 1.645 . S
C1725 C772 1.706 . S
C1731 C359 1.708 . S
C1745 C595 1.695 . S
C1751 C64 1.696 . S
C1765 C121 1.654 . S
C1771 C652 1.658 . S
C1785 C180 1.670 . S
C1791 C477 1.716 . S
C1805 C5 1.695 . S
C1811 C534 1.649 . S
C1825 C1183 1.653 . S
C1831 C1242 1.657 . S
C1845 C1303 1.716 . S
C1851 C1008 1.717 . S
C1865 C1065 1.651 . S
C1871 C947 1.650 . S
C1885 C1362 1.703 . S
C1891 C1126 1.701 . S
C1905 C33 0.738 . S
C1911 C524 0.729 . S
C1925 C564 0.707 . S
C1931 C92 0.730 . S
C1945 C170 0.707 . S
C1951 C642 0.697 . S
C1965 C229 0.711 . S
C1971 C682 0.694 . S
C1985 C288 0.727 . S
C1991 C741 0.725 . S
C2005 C328 0.711 . S
C2011 C819 0.696 . S
C2025 C859 0.703 . S
C2031 C387 0.692 . S
C2045 C937 0.734 . S
C2051 C465 0.723 . S
C2065 C505 0.695 . S
C2071 C977 0.711 . S
C2085 C583 0.703 . S
C2091 C1409 0.693 . S
C2105 C1272 0.735 . S
C2111 C623 0.712 . S
C2125 C1350 0.693 . S
C2131 C701 0.697 . S
C2145 C1055 0.694 . S
C2151 C760 0.695 . S
C2165 C1095 0.703 . S
C2171 C800 0.728 . S
C2185 C878 0.719 . S
C2191 C1173 0.703 . S
C2205 C918 0.739 . S
C2211 C1213 0.725 . S
C2225 C52 0.703 . S
C2231 C996 0.717 . S
C2245 C1036 0.699 . S
C2251 C269 0.689 . S
C2265 C1114 0.732 . S
C2271 C347 0.723 . S
C2285 C1154 0.734 . S
C2291 C406 0.727 . S
C2305 C1232 0.715 . S
C2311 C446 0.736 . S
C2325 C1291 0.707 . S
C2331 C151 0.693 . S
C2345 C210 0.694 . S
C2351 C1331 0.716 . S
C2365 C1390 0.729 . S
C2371 C111 0.707 . S
