# Generated by pormake.
# Topology sow, (4)-cn, num edge types: 1
# Building blocks:
#     Node 0, Type 0, BuildingBlock: NAWXER_clean_sbu_0, # of connection points: 4
#     Node 1, Type 0, BuildingBlock: NAWXER_clean_sbu_0, # of connection points: 4
#     Node 2, Type 0, BuildingBlock: NAWXER_clean_sbu_0, # of connection points: 4
#     Node 3, Type 0, BuildingBlock: NAWXER_clean_sbu_0, # of connection points: 4
#     Node 4, Type 0, BuildingBlock: NAWXER_clean_sbu_0, # of connection points: 4
#     Node 5, Type 0, BuildingBlock: NAWXER_clean_sbu_0, # of connection points: 4
#     Node 6, Type 0, BuildingBlock: NAWXER_clean_sbu_0, # of connection points: 4
#     Node 7, Type 0, BuildingBlock: NAWXER_clean_sbu_0, # of connection points: 4
#     Edge 8, Type (0, 0), BuildingBlock: UVAHIK_clean_linker_0, # of connection points: 2
#     Edge 9, Type (0, 0), BuildingBlock: UVAHIK_clean_linker_0, # of connection points: 2
#     Edge 10, Type (0, 0), BuildingBlock: UVAHIK_clean_linker_0, # of connection points: 2
#     Edge 11, Type (0, 0), BuildingBlock: UVAHIK_clean_linker_0, # of connection points: 2
#     Edge 12, Type (0, 0), BuildingBlock: UVAHIK_clean_linker_0, # of connection points: 2
#     Edge 13, Type (0, 0), BuildingBlock: UVAHIK_clean_linker_0, # of connection points: 2
#     Edge 14, Type (0, 0), BuildingBlock: UVAHIK_clean_linker_0, # of connection points: 2
#     Edge 15, Type (0, 0), BuildingBlock: UVAHIK_clean_linker_0, # of connection points: 2
#     Edge 16, Type (0, 0), BuildingBlock: UVAHIK_clean_linker_0, # of connection points: 2
#     Edge 17, Type (0, 0), BuildingBlock: UVAHIK_clean_linker_0, # of connection points: 2
#     Edge 18, Type (0, 0), BuildingBlock: UVAHIK_clean_linker_0, # of connection points: 2
#     Edge 19, Type (0, 0), BuildingBlock: UVAHIK_clean_linker_0, # of connection points: 2
#     Edge 20, Type (0, 0), BuildingBlock: UVAHIK_clean_linker_0, # of connection points: 2
#     Edge 21, Type (0, 0), BuildingBlock: UVAHIK_clean_linker_0, # of connection points: 2
#     Edge 22, Type (0, 0), BuildingBlock: UVAHIK_clean_linker_0, # of connection points: 2
#     Edge 23, Type (0, 0), BuildingBlock: UVAHIK_clean_linker_0, # of connection points: 2
# Relax obj value: 0.113
# Max RMSD: 0.238
# Mean RMSD: 0.237
data_MOF--net-sow--node1-NAWXER_clean_sbu_0--edge1-UVAHIK_clean_linker_0
_symmetry_space_group_name_H-M    P1
_symmetry_Int_Tables_number       1
_symmetry_cell_setting            triclinic
loop_
_symmetry_equiv_pos_as_xyz
'x, y, z'
_cell_length_a     56.576275
_cell_length_b     25.004314
_cell_length_c     29.552828
_cell_angle_alpha  89.999285
_cell_angle_beta   90.07674
_cell_angle_gamma 89.950819
loop_
_atom_site_label
_atom_site_type_symbol
_atom_site_fract_x
_atom_site_fract_y
_atom_site_fract_z
_atom_type_partial_charge
C0 C 0.17774 0.1954 0.16007 0.0
C1 C 0.11482 0.13063 0.06283 0.0
O2 O 0.17176 0.14783 0.15062 0.0
Zn3 Zn 0.14765 0.16434 0.10737 0.0
O4 O 0.16739 0.23445 0.13988 0.0
Zn5 Zn 0.13973 0.24247 0.08934 0.0
O6 O 0.11739 0.28629 0.11979 0.0
O7 O 0.12052 0.20479 0.14802 0.0
O8 O 0.11636 0.18185 0.06111 0.0
O9 O 0.13034 0.10433 0.08449 0.0
O10 O 0.16716 0.19307 0.04916 0.0
O11 O 0.15458 0.27538 0.03869 0.0
C12 C 0.11074 0.25127 0.14813 0.0
C13 C 0.16783 0.23707 0.0268 0.0
C14 C 0.3292 0.34185 0.66052 0.0
C15 C 0.38584 0.41463 0.55302 0.0
O16 O 0.33193 0.38996 0.6479 0.0
Zn17 Zn 0.35613 0.37832 0.60341 0.0
O18 O 0.34152 0.30486 0.64183 0.0
Zn19 Zn 0.36811 0.29998 0.59008 0.0
O20 O 0.39474 0.26953 0.62177 0.0
O21 O 0.38624 0.35212 0.64267 0.0
O22 O 0.38638 0.36337 0.55494 0.0
O23 O 0.37006 0.44006 0.57488 0.0
O24 O 0.33836 0.33946 0.54828 0.0
O25 O 0.3537 0.25877 0.54231 0.0
C26 C 0.39951 0.3106 0.64549 0.0
C27 C 0.33913 0.29382 0.52852 0.0
C28 C 0.66825 0.24946 0.86148 0.0
C29 C 0.59952 0.29298 0.95535 0.0
O30 O 0.66754 0.29819 0.87497 0.0
Zn31 Zn 0.64622 0.34912 0.91624 0.0
O32 O 0.6525 0.21667 0.8747 0.0
Zn33 Zn 0.63464 0.26689 0.9116 0.0
O34 O 0.62163 0.31957 0.86093 0.0
O35 O 0.6345 0.40194 0.87272 0.0
O36 O 0.60466 0.24681 0.94003 0.0
O37 O 0.61389 0.3318 0.94926 0.0
O38 O 0.66715 0.36932 0.96537 0.0
O39 O 0.65789 0.28362 0.96678 0.0
C40 C 0.62232 0.36892 0.84961 0.0
C41 C 0.66907 0.32351 0.98372 0.0
C42 C 0.82436 0.19391 0.35447 0.0
C43 C 0.88615 0.11271 0.44608 0.0
O44 O 0.83022 0.14509 0.35795 0.0
Zn45 Zn 0.85357 0.15282 0.40443 0.0
O46 O 0.83415 0.22862 0.38043 0.0
Zn47 Zn 0.86061 0.22721 0.4335 0.0
O48 O 0.8837 0.27608 0.41074 0.0
O49 O 0.88083 0.20092 0.37174 0.0
O50 O 0.88379 0.16277 0.45465 0.0
O51 O 0.87148 0.08994 0.41984 0.0
O52 O 0.83323 0.16881 0.46464 0.0
O53 O 0.84446 0.24863 0.48731 0.0
C54 C 0.89065 0.2466 0.37835 0.0
C55 C 0.83171 0.20754 0.49295 0.0
C56 C 0.8937 0.87615 0.95757 0.0
C57 C 0.82859 0.81621 0.86363 0.0
O58 O 0.89155 0.82504 0.95939 0.0
Zn59 Zn 0.86695 0.76604 0.93219 0.0
O60 O 0.87829 0.90342 0.93654 0.0
Zn61 Zn 0.8599 0.84473 0.91466 0.0
O62 O 0.84102 0.81747 0.97394 0.0
O63 O 0.85234 0.73411 0.98369 0.0
O64 O 0.83541 0.86319 0.87303 0.0
O65 O 0.83866 0.7762 0.88301 0.0
O66 O 0.88834 0.72084 0.90059 0.0
O67 O 0.88576 0.80253 0.8725 0.0
C68 C 0.83998 0.77357 0.99636 0.0
C69 C 0.89495 0.75545 0.87185 0.0
C70 C 0.61317 0.63779 0.4627 0.0
C71 C 0.67656 0.69769 0.36416 0.0
O72 O 0.61474 0.68899 0.46139 0.0
Zn73 Zn 0.63735 0.74825 0.43001 0.0
O74 O 0.62873 0.60948 0.44298 0.0
Zn75 Zn 0.64624 0.66775 0.41725 0.0
O76 O 0.66393 0.70151 0.47458 0.0
O77 O 0.65195 0.78503 0.48025 0.0
O78 O 0.67122 0.6504 0.37587 0.0
O79 O 0.66542 0.73727 0.38174 0.0
O80 O 0.61399 0.78606 0.39435 0.0
O81 O 0.6192 0.7018 0.37428 0.0
C82 C 0.66455 0.74675 0.49495 0.0
C83 C 0.60831 0.7465 0.36955 0.0
C84 C 0.38507 0.57174 0.03359 0.0
C85 C 0.3258 0.65551 0.12797 0.0
O86 O 0.38591 0.62294 0.02955 0.0
Zn87 Zn 0.36487 0.69037 0.05465 0.0
O88 O 0.3686 0.55069 0.05651 0.0
Zn89 Zn 0.35433 0.61557 0.07663 0.0
O90 O 0.33544 0.64379 0.01733 0.0
O91 O 0.35103 0.7223 0.00222 0.0
O92 O 0.33048 0.60656 0.12136 0.0
O93 O 0.33691 0.69129 0.1052 0.0
O94 O 0.38856 0.73253 0.08361 0.0
O95 O 0.38311 0.65328 0.11487 0.0
C96 C 0.33628 0.68596 0.99259 0.0
C97 C 0.39418 0.69817 0.11335 0.0
C98 C 0.11068 0.8644 0.53508 0.0
C99 C 0.17448 0.78968 0.62558 0.0
O100 O 0.11214 0.81347 0.53053 0.0
Zn101 Zn 0.13521 0.75017 0.55396 0.0
O102 O 0.12647 0.88893 0.5575 0.0
Zn103 Zn 0.14416 0.82676 0.57602 0.0
O104 O 0.16253 0.80205 0.51548 0.0
O105 O 0.14882 0.72174 0.49993 0.0
O106 O 0.16902 0.83826 0.61882 0.0
O107 O 0.16349 0.75285 0.60372 0.0
O108 O 0.11251 0.70569 0.58331 0.0
O109 O 0.11756 0.78447 0.61583 0.0
C110 C 0.16222 0.76052 0.48998 0.0
C111 C 0.10705 0.73895 0.61406 0.0
C112 C 0.29794 0.36843 0.71619 0.0
C113 C 0.31234 0.32857 0.69714 0.0
C114 C 0.28249 0.35623 0.75156 0.0
C115 C 0.25211 0.24357 0.80854 0.0
H116 H 0.24556 0.34637 0.90595 0.0
C117 C 0.1988 0.20214 0.97326 0.0
C118 C 0.18425 0.24419 0.98824 0.0
C119 C 0.2147 0.21013 0.93759 0.0
C120 C 0.24705 0.31743 0.87883 0.0
H121 H 0.32165 0.24443 0.70017 0.0
H122 H 0.29493 0.22335 0.76231 0.0
H123 H 0.27269 0.36473 0.84404 0.0
H124 H 0.17481 0.32734 0.97699 0.0
H125 H 0.20237 0.34101 0.91513 0.0
H126 H 0.22645 0.19621 0.84376 0.0
C127 C 0.29535 0.26391 0.74949 0.0
C128 C 0.26256 0.328 0.84326 0.0
C129 C 0.31076 0.27608 0.71399 0.0
C130 C 0.18579 0.29408 0.96651 0.0
C131 C 0.20171 0.30209 0.93117 0.0
C132 C 0.23663 0.23287 0.84431 0.0
C133 C 0.28113 0.30392 0.7689 0.0
C134 C 0.26511 0.29152 0.8074 0.0
C135 C 0.21647 0.2604 0.9165 0.0
C136 C 0.23374 0.27001 0.87957 0.0
H137 H 0.2986 0.40919 0.70387 0.0
H138 H 0.27149 0.38784 0.76513 0.0
H139 H 0.25347 0.21482 0.78126 0.0
H140 H 0.19803 0.16322 0.98927 0.0
H141 H 0.22595 0.17731 0.92714 0.0
C142 C 0.20009 0.25761 0.21116 0.0
C143 C 0.19593 0.20556 0.19512 0.0
C144 C 0.21647 0.26665 0.24583 0.0
C145 C 0.24761 0.19666 0.33913 0.0
H146 H 0.28684 0.32373 0.33945 0.0
C147 C 0.32214 0.23135 0.4704 0.0
C148 C 0.32332 0.28271 0.48963 0.0
C149 C 0.30719 0.22124 0.43363 0.0
C150 C 0.27587 0.28824 0.33998 0.0
H151 H 0.20619 0.12232 0.20212 0.0
H152 H 0.23506 0.13821 0.26174 0.0
H153 H 0.26004 0.30748 0.27622 0.0
H154 H 0.30976 0.36378 0.48512 0.0
H155 H 0.28377 0.34608 0.42107 0.0
H156 H 0.2636 0.17737 0.40281 0.0
C157 C 0.22531 0.17197 0.24833 0.0
C158 C 0.26047 0.27896 0.30379 0.0
C159 C 0.20884 0.1629 0.2139 0.0
C160 C 0.30929 0.32374 0.47116 0.0
C161 C 0.2945 0.31372 0.43424 0.0
C162 C 0.26312 0.20579 0.37516 0.0
C163 C 0.22917 0.22388 0.26507 0.0
C164 C 0.24604 0.23319 0.30301 0.0
C165 C 0.29326 0.26238 0.41508 0.0
C166 C 0.27731 0.25184 0.37613 0.0
H167 H 0.19037 0.29133 0.19758 0.0
H168 H 0.21875 0.30707 0.25824 0.0
H169 H 0.23649 0.16145 0.34009 0.0
H170 H 0.33273 0.19886 0.48379 0.0
H171 H 0.30675 0.18136 0.41935 0.0
C172 C 0.80339 0.26522 0.30984 0.0
C173 C 0.80721 0.21075 0.31927 0.0
C174 C 0.78837 0.28074 0.27449 0.0
C175 C 0.76229 0.22802 0.16854 0.0
H176 H 0.71975 0.34922 0.17816 0.0
C177 C 0.68791 0.26283 0.04039 0.0
C178 C 0.68455 0.3149 0.02358 0.0
C179 C 0.70306 0.2534 0.07676 0.0
C180 C 0.73174 0.31566 0.17486 0.0
H181 H 0.79755 0.12996 0.29998 0.0
H182 H 0.7711 0.15689 0.23921 0.0
H183 H 0.74548 0.32617 0.24192 0.0
H184 H 0.69421 0.39815 0.03259 0.0
H185 H 0.72078 0.38151 0.09671 0.0
H186 H 0.74838 0.21697 0.1019 0.0
C187 C 0.78013 0.18772 0.2583 0.0
C188 C 0.74648 0.30243 0.21133 0.0
C189 C 0.79519 0.17224 0.29341 0.0
C190 C 0.69644 0.35757 0.04468 0.0
C191 C 0.71156 0.3481 0.08146 0.0
C192 C 0.74753 0.24105 0.13233 0.0
C193 C 0.7768 0.24211 0.2479 0.0
C194 C 0.76171 0.25797 0.2088 0.0
C195 C 0.71523 0.29576 0.09749 0.0
C196 C 0.73187 0.28455 0.13524 0.0
H197 H 0.81243 0.29592 0.32906 0.0
H198 H 0.78634 0.32294 0.26723 0.0
H199 H 0.77422 0.19441 0.1649 0.0
H200 H 0.679 0.22896 0.02518 0.0
H201 H 0.7052 0.21276 0.0888 0.0
C202 C 0.68422 0.18795 0.80113 0.0
C203 C 0.68653 0.23399 0.82814 0.0
C204 C 0.7 0.1786 0.76534 0.0
C205 C 0.73784 0.25531 0.68858 0.0
H206 H 0.76813 0.12059 0.65922 0.0
C207 C 0.81447 0.2468 0.56334 0.0
C208 C 0.81508 0.20502 0.53159 0.0
C209 C 0.79841 0.24585 0.59908 0.0
C210 C 0.75955 0.15829 0.6667 0.0
H211 H 0.70818 0.30405 0.84091 0.0
H212 H 0.73551 0.28755 0.77931 0.0
H213 H 0.74082 0.12557 0.72357 0.0
H214 H 0.79952 0.12879 0.51308 0.0
H215 H 0.77117 0.12747 0.57558 0.0
H216 H 0.75629 0.28831 0.63219 0.0
C217 C 0.72128 0.25934 0.78488 0.0
C218 C 0.74397 0.16111 0.70352 0.0
C219 C 0.70564 0.26864 0.82035 0.0
C220 C 0.79948 0.16167 0.53694 0.0
C221 C 0.78332 0.16075 0.57284 0.0
C222 C 0.75325 0.25248 0.65195 0.0
C223 C 0.71824 0.21521 0.75611 0.0
C224 C 0.73337 0.21001 0.71535 0.0
C225 C 0.78243 0.20322 0.60399 0.0
C226 C 0.7647 0.2043 0.64108 0.0
H227 H 0.66967 0.16051 0.80632 0.0
H228 H 0.69729 0.14417 0.74372 0.0
H229 H 0.72947 0.29325 0.69615 0.0
H230 H 0.82635 0.28058 0.56056 0.0
H231 H 0.79855 0.27867 0.62301 0.0
C232 C 0.82201 0.71857 0.05804 0.0
C233 C 0.82418 0.76817 0.03603 0.0
C234 C 0.80663 0.71246 0.09454 0.0
C235 C 0.77468 0.78643 0.18302 0.0
H236 H 0.73502 0.66003 0.18557 0.0
C237 C 0.69867 0.75876 0.31195 0.0
C238 C 0.69484 0.7071 0.32924 0.0
C239 C 0.71504 0.76724 0.27729 0.0
C240 C 0.74619 0.69518 0.18578 0.0
H241 H 0.81214 0.85056 0.03567 0.0
H242 H 0.7852 0.8398 0.09969 0.0
H243 H 0.76234 0.67333 0.12304 0.0
H244 H 0.70572 0.62408 0.32453 0.0
H245 H 0.73456 0.639 0.26476 0.0
H246 H 0.75862 0.8081 0.24599 0.0
C247 C 0.79552 0.80573 0.08865 0.0
C248 C 0.76181 0.70286 0.14984 0.0
C249 C 0.81086 0.81181 0.05186 0.0
C250 C 0.70811 0.66432 0.31178 0.0
C251 C 0.72455 0.67283 0.27728 0.0
C252 C 0.7591 0.77862 0.21916 0.0
C253 C 0.7931 0.75583 0.11009 0.0
C254 C 0.77628 0.74846 0.1481 0.0
C255 C 0.72803 0.72429 0.25923 0.0
C256 C 0.74471 0.7328 0.22103 0.0
H257 H 0.83205 0.68412 0.04688 0.0
H258 H 0.80541 0.67372 0.11077 0.0
H259 H 0.78579 0.82168 0.18285 0.0
H260 H 0.6887 0.7926 0.32454 0.0
H261 H 0.71707 0.80727 0.26388 0.0
C262 C 0.6925 0.71018 0.55308 0.0
C263 C 0.67998 0.75391 0.53506 0.0
C264 C 0.70737 0.71676 0.59046 0.0
C265 C 0.74188 0.81866 0.65099 0.0
H266 H 0.74318 0.71386 0.74773 0.0
C267 C 0.79732 0.85205 0.81186 0.0
C268 C 0.80978 0.808 0.8294 0.0
C269 C 0.78046 0.84512 0.77782 0.0
C270 C 0.74323 0.74319 0.72077 0.0
H271 H 0.67314 0.83882 0.54255 0.0
H272 H 0.69915 0.85029 0.60784 0.0
H273 H 0.71566 0.70265 0.68474 0.0
H274 H 0.81399 0.72193 0.82539 0.0
H275 H 0.7848 0.70989 0.76534 0.0
H276 H 0.76964 0.85882 0.68641 0.0
C277 C 0.69755 0.81097 0.59277 0.0
C278 C 0.72742 0.73681 0.68472 0.0
C279 C 0.68256 0.80434 0.5555 0.0
C280 C 0.80465 0.75667 0.8127 0.0
C281 C 0.78783 0.74977 0.7784 0.0
C282 C 0.75774 0.82492 0.68688 0.0
C283 C 0.71017 0.76727 0.61058 0.0
C284 C 0.72659 0.77447 0.64941 0.0
C285 C 0.77571 0.79402 0.7602 0.0
C286 C 0.75862 0.7873 0.72225 0.0
H287 H 0.69092 0.67075 0.53821 0.0
H288 H 0.71704 0.68244 0.60304 0.0
H289 H 0.74196 0.8479 0.62395 0.0
H290 H 0.80068 0.89212 0.8242 0.0
H291 H 0.77114 0.87997 0.76529 0.0
C292 C 0.31893 0.74267 0.93121 0.0
C293 C 0.31997 0.69318 0.95374 0.0
C294 C 0.30328 0.75056 0.89529 0.0
C295 C 0.26891 0.68118 0.80782 0.0
H296 H 0.23246 0.81256 0.80611 0.0
C297 C 0.19506 0.72293 0.67555 0.0
C298 C 0.19249 0.77581 0.66011 0.0
C299 C 0.21085 0.71083 0.71063 0.0
C300 C 0.24273 0.776 0.80561 0.0
H301 H 0.30557 0.61286 0.95562 0.0
H302 H 0.27822 0.62668 0.89232 0.0
H303 H 0.25932 0.79491 0.86871 0.0
H304 H 0.20519 0.85708 0.66823 0.0
H305 H 0.23307 0.83588 0.72829 0.0
H306 H 0.25259 0.66264 0.74427 0.0
C307 C 0.28961 0.65928 0.90268 0.0
C308 C 0.25806 0.76581 0.84166 0.0
C309 C 0.30517 0.65147 0.93903 0.0
C310 C 0.20656 0.816 0.67957 0.0
C311 C 0.22244 0.80387 0.71432 0.0
C312 C 0.25366 0.69155 0.77147 0.0
C313 C 0.28837 0.7091 0.88072 0.0
C314 C 0.27145 0.71851 0.84304 0.0
C315 C 0.22453 0.75131 0.73087 0.0
C316 C 0.2405 0.73933 0.76975 0.0
H317 H 0.33008 0.77568 0.94155 0.0
H318 H 0.30296 0.78918 0.87867 0.0
H319 H 0.27915 0.64456 0.8078 0.0
H320 H 0.18441 0.69106 0.66139 0.0
H321 H 0.21181 0.67001 0.72272 0.0
C322 C 0.29819 0.72196 0.16397 0.0
C323 C 0.30832 0.67064 0.16292 0.0
C324 C 0.28157 0.73532 0.19726 0.0
C325 C 0.24154 0.67153 0.28171 0.0
H326 H 0.23901 0.81391 0.33326 0.0
C327 C 0.17096 0.72377 0.41338 0.0
C328 C 0.17743 0.75717 0.44947 0.0
C329 C 0.18575 0.71794 0.37594 0.0
C330 C 0.23961 0.77377 0.31957 0.0
H331 H 0.30959 0.59375 0.19679 0.0
H332 H 0.28158 0.6174 0.25539 0.0
H333 H 0.26768 0.79397 0.27415 0.0
H334 H 0.20421 0.81156 0.47444 0.0
H335 H 0.23069 0.79949 0.41006 0.0
H336 H 0.21461 0.65014 0.32859 0.0
C337 C 0.2856 0.64692 0.22974 0.0
C338 C 0.25585 0.76254 0.2851 0.0
C339 C 0.30184 0.63338 0.1962 0.0
C340 C 0.19877 0.78562 0.44698 0.0
C341 C 0.21387 0.7789 0.40987 0.0
C342 C 0.22563 0.68247 0.31651 0.0
C343 C 0.275 0.69783 0.23053 0.0
C344 C 0.25715 0.71108 0.26594 0.0
C345 C 0.2077 0.74433 0.37408 0.0
C346 C 0.22441 0.7337 0.33606 0.0
H347 H 0.30284 0.75151 0.13871 0.0
H348 H 0.27364 0.77472 0.19644 0.0
H349 H 0.24159 0.63172 0.2673 0.0
H350 H 0.15442 0.702 0.41405 0.0
H351 H 0.17996 0.69229 0.34858 0.0
C352 C 0.07599 0.30743 0.16982 0.0
C353 C 0.09023 0.26223 0.17769 0.0
C354 C 0.05486 0.31442 0.19344 0.0
C355 C 0.02166 0.27479 0.29436 0.0
H356 H 0.96617 0.29518 0.21888 0.0
C357 C 0.91688 0.23474 0.31112 0.0
C358 C 0.91167 0.26161 0.35166 0.0
C359 C 0.93836 0.24342 0.28911 0.0
C360 C 0.98153 0.28985 0.24033 0.0
H361 H 0.09409 0.19041 0.21821 0.0
H362 H 0.05727 0.20323 0.26009 0.0
H363 H 0.00544 0.2942 0.18435 0.0
H364 H 0.92451 0.32001 0.4001 0.0
H365 H 0.96226 0.33445 0.36186 0.0
H366 H 0.99768 0.26966 0.35026 0.0
C367 C 0.06247 0.23299 0.23539 0.0
C368 C 0.00397 0.28959 0.22068 0.0
C369 C 0.08349 0.22558 0.21133 0.0
C370 C 0.92798 0.29887 0.36882 0.0
C371 C 0.94964 0.30688 0.34717 0.0
C372 C 0.99923 0.27587 0.3141 0.0
C373 C 0.04771 0.27679 0.22585 0.0
C374 C 0.0242 0.28126 0.24743 0.0
C375 C 0.95517 0.27852 0.30758 0.0
C376 C 0.97896 0.28258 0.28715 0.0
H377 H 0.08066 0.33646 0.14415 0.0
H378 H 0.04388 0.34878 0.18579 0.0
H379 H 0.037 0.26848 0.31568 0.0
H380 H 0.90465 0.20584 0.29708 0.0
H381 H 0.94227 0.22085 0.25873 0.0
C382 C 0.42612 0.35803 0.6998 0.0
C383 C 0.42211 0.31468 0.67048 0.0
C384 C 0.4487 0.36803 0.71699 0.0
C385 C 0.50815 0.3074 0.73211 0.0
H386 H 0.52856 0.45541 0.73842 0.0
C387 C 0.60325 0.35334 0.77586 0.0
C388 C 0.60572 0.38598 0.81419 0.0
C389 C 0.58211 0.35282 0.75158 0.0
C390 C 0.52307 0.41396 0.7368 0.0
H391 H 0.43852 0.24667 0.63757 0.0
H392 H 0.47794 0.26437 0.66703 0.0
H393 H 0.48846 0.43439 0.71306 0.0
H394 H 0.5891 0.44744 0.85472 0.0
H395 H 0.55199 0.4469 0.81198 0.0
H396 H 0.54271 0.28693 0.75557 0.0
C397 C 0.4636 0.29035 0.67732 0.0
C398 C 0.50006 0.40183 0.72264 0.0
C399 C 0.44095 0.28007 0.66043 0.0
C400 C 0.58775 0.42264 0.82476 0.0
C401 C 0.56644 0.42191 0.80054 0.0
C402 C 0.53114 0.31949 0.74579 0.0
C403 C 0.46787 0.33517 0.70501 0.0
C404 C 0.49229 0.34833 0.72028 0.0
C405 C 0.56298 0.3846 0.76549 0.0
C406 C 0.53888 0.37285 0.74829 0.0
H407 H 0.41195 0.38535 0.70836 0.0
H408 H 0.45119 0.40208 0.73913 0.0
H409 H 0.50271 0.26589 0.73158 0.0
H410 H 0.61685 0.32451 0.76729 0.0
H411 H 0.58012 0.32452 0.72408 0.0
C412 C 0.08324 0.75972 0.68311 0.0
C413 C 0.08694 0.72805 0.64449 0.0
C414 C 0.06261 0.7541 0.70858 0.0
C415 C 0.02141 0.7131 0.76676 0.0
H416 H 0.96325 0.72701 0.69786 0.0
C417 C 0.9294 0.69887 0.84933 0.0
C418 C 0.91475 0.74326 0.84096 0.0
C419 C 0.94986 0.6908 0.82387 0.0
C420 C 0.97936 0.72283 0.71741 0.0
H421 H 0.07229 0.66447 0.60308 0.0
H422 H 0.03604 0.65543 0.64729 0.0
H423 H 0.00121 0.7227 0.65825 0.0
H424 H 0.90944 0.8125 0.79792 0.0
H425 H 0.94503 0.79761 0.75271 0.0
H426 H 0.99958 0.7137 0.82594 0.0
C427 C 0.04919 0.68436 0.65782 0.0
C428 C 0.001 0.72001 0.69483 0.0
C429 C 0.06999 0.68934 0.63277 0.0
C430 C 0.92039 0.778 0.80521 0.0
C431 C 0.94069 0.76942 0.77927 0.0
C432 C 0.99974 0.71503 0.7893 0.0
C433 C 0.04516 0.71731 0.69547 0.0
C434 C 0.02222 0.71584 0.71936 0.0
C435 C 0.95586 0.72644 0.78908 0.0
C436 C 0.97856 0.72063 0.76484 0.0
H437 H 0.096 0.78984 0.69299 0.0
H438 H 0.05984 0.78015 0.73739 0.0
H439 H 0.03754 0.70981 0.78635 0.0
H440 H 0.92558 0.6714 0.8767 0.0
H441 H 0.9612 0.65714 0.83181 0.0
C442 C 0.42345 0.7606 0.14883 0.0
C443 C 0.41426 0.70867 0.14418 0.0
C444 C 0.44345 0.76991 0.17552 0.0
C445 C 0.48186 0.70633 0.26311 0.0
H446 H 0.52871 0.80693 0.21915 0.0
C447 C 0.57816 0.70121 0.32143 0.0
C448 C 0.58738 0.74891 0.33946 0.0
C449 C 0.55673 0.7012 0.29818 0.0
C450 C 0.51564 0.77918 0.23198 0.0
H451 H 0.41872 0.62586 0.16415 0.0
H452 H 0.45392 0.64161 0.20942 0.0
H453 H 0.49124 0.79702 0.17874 0.0
H454 H 0.58181 0.83448 0.34524 0.0
H455 H 0.54436 0.83448 0.30304 0.0
H456 H 0.50683 0.68687 0.31509 0.0
C457 C 0.4454 0.67558 0.19357 0.0
C458 C 0.49412 0.77357 0.20904 0.0
C459 C 0.42524 0.66641 0.16737 0.0
C460 C 0.57517 0.79711 0.33177 0.0
C461 C 0.55379 0.79716 0.30772 0.0
C462 C 0.50346 0.71138 0.28553 0.0
C463 C 0.4549 0.7274 0.19776 0.0
C464 C 0.47708 0.73646 0.22395 0.0
C465 C 0.54415 0.74893 0.29177 0.0
C466 C 0.52066 0.74726 0.26982 0.0
H467 H 0.41528 0.79409 0.13159 0.0
H468 H 0.44995 0.81047 0.17858 0.0
H469 H 0.46899 0.6784 0.27634 0.0
H470 H 0.58703 0.6633 0.32668 0.0
H471 H 0.54979 0.66361 0.28567 0.0
C472 C 0.07456 0.13284 0.02733 0.0
C473 C 0.09359 0.10313 0.04486 0.0
C474 C 0.05316 0.10781 0.01675 0.0
C475 C 0.02527 0.97602 0.99567 0.0
H476 H 0.96846 0.0479 0.03684 0.0
C477 C 0.93429 0.87195 0.99177 0.0
C478 C 0.91533 0.90251 0.975 0.0
C479 C 0.95588 0.89622 0.00233 0.0
C480 C 0.98412 0.02749 0.02477 0.0
H481 H 0.10538 0.02331 0.06294 0.0
H482 H 0.0681 0.97978 0.04452 0.0
H483 H 0.00678 0.09058 0.04731 0.0
H484 H 0.90394 0.98294 0.95796 0.0
H485 H 0.9415 0.02507 0.9762 0.0
H486 H 0.00259 0.91296 0.97304 0.0
C487 C 0.06972 0.0224 0.03881 0.0
C488 C 0.0061 0.05203 0.03064 0.0
C489 C 0.0911 0.04743 0.04948 0.0
C490 C 0.91815 0.95817 0.97086 0.0
C491 C 0.9397 0.98241 0.98146 0.0
C492 C 0.00328 0.95148 0.98976 0.0
C493 C 0.05032 0.05248 0.02333 0.0
C494 C 0.02694 0.02666 0.01608 0.0
C495 C 0.95898 0.9516 0.99647 0.0
C496 C 0.98243 0.97695 0.00419 0.0
H497 H 0.07587 0.17578 0.02325 0.0
H498 H 0.0387 0.13197 0.00409 0.0
H499 H 0.04095 0.95564 0.98365 0.0
H500 H 0.93273 0.82899 0.9954 0.0
H501 H 0.97025 0.87147 0.01457 0.0
C502 C 0.57386 0.64478 0.50083 0.0
C503 C 0.59137 0.61287 0.48055 0.0
C504 C 0.55146 0.6239 0.5098 0.0
C505 C 0.51729 0.49781 0.51833 0.0
H506 H 0.46444 0.58852 0.48447 0.0
C507 C 0.42347 0.41375 0.50919 0.0
C508 C 0.40615 0.443 0.53267 0.0
C509 C 0.44538 0.43656 0.4995 0.0
C510 C 0.47901 0.56289 0.49432 0.0
H511 H 0.59947 0.53311 0.45618 0.0
H512 H 0.56039 0.49678 0.47161 0.0
H513 H 0.50471 0.62285 0.47889 0.0
H514 H 0.39759 0.5206 0.56112 0.0
H515 H 0.43589 0.56059 0.54387 0.0
H516 H 0.4916 0.43776 0.53347 0.0
C517 C 0.56398 0.5379 0.48082 0.0
C518 C 0.50208 0.58258 0.49138 0.0
C519 C 0.58642 0.55874 0.47196 0.0
C520 C 0.41052 0.497 0.54292 0.0
C521 C 0.4325 0.51989 0.53314 0.0
C522 C 0.49425 0.47809 0.5211 0.0
C523 C 0.54604 0.57067 0.49865 0.0
C524 C 0.5215 0.55024 0.50332 0.0
C525 C 0.45045 0.48918 0.51294 0.0
C526 C 0.47487 0.51032 0.50897 0.0
H527 H 0.57711 0.68658 0.50815 0.0
H528 H 0.53821 0.64987 0.52453 0.0
H529 H 0.53179 0.47211 0.5284 0.0
H530 H 0.42062 0.37219 0.5004 0.0
H531 H 0.45867 0.41234 0.4829 0.0
C532 C 0.4266 0.56002 0.00612 0.0
C533 C 0.40449 0.53766 0.01634 0.0
C534 C 0.44595 0.52711 0.99651 0.0
C535 C 0.46728 0.38806 0.01479 0.0
H536 H 0.51834 0.43607 0.93753 0.0
C537 C 0.55577 0.27576 0.96098 0.0
C538 C 0.57575 0.30604 0.97313 0.0
C539 C 0.53297 0.29673 0.96731 0.0
C540 C 0.50411 0.4221 0.959 0.0
H541 H 0.385 0.46332 0.02197 0.0
H542 H 0.41849 0.406 0.00353 0.0
H543 H 0.48179 0.48761 0.94083 0.0
H544 H 0.58742 0.37955 0.00524 0.0
H545 H 0.54789 0.41582 0.01563 0.0
H546 H 0.48996 0.32211 0.03237 0.0
C547 C 0.42114 0.44887 0.00435 0.0
C548 C 0.48324 0.45179 0.96123 0.0
C549 C 0.40187 0.48178 0.01451 0.0
C550 C 0.57243 0.35537 0.99512 0.0
C551 C 0.54983 0.37634 0.00096 0.0
C552 C 0.48811 0.35787 0.01197 0.0
C553 C 0.4436 0.47099 0.99628 0.0
C554 C 0.46474 0.436 0.99004 0.0
C555 C 0.53001 0.34816 0.98561 0.0
C556 C 0.50685 0.37544 0.98486 0.0
H557 H 0.42927 0.60288 0.00768 0.0
H558 H 0.46297 0.5458 0.99118 0.0
H559 H 0.4536 0.37485 0.03779 0.0
H560 H 0.55776 0.23784 0.94368 0.0
H561 H 0.51781 0.27437 0.95533 0.0
C562 C 0.0714 0.86487 0.49591 0.0
C563 C 0.08917 0.89279 0.51936 0.0
C564 C 0.04961 0.88899 0.48694 0.0
C565 C 0.01843 0.01952 0.48323 0.0
H566 H 0.96285 0.93228 0.50441 0.0
C567 C 0.92509 0.11119 0.48645 0.0
C568 C 0.90756 0.08394 0.46179 0.0
C569 C 0.94688 0.087 0.49537 0.0
C570 C 0.97819 0.95704 0.498 0.0
H571 H 0.09826 0.96886 0.55006 0.0
H572 H 0.06019 0.01083 0.53463 0.0
H573 H 0.00208 0.89309 0.513 0.0
H574 H 0.89884 0.00884 0.42903 0.0
H575 H 0.93685 0.96662 0.44469 0.0
H576 H 0.99451 0.08352 0.4684 0.0
C577 C 0.06316 0.97036 0.52288 0.0
C578 C 1.00069 0.93456 0.50275 0.0
C579 C 0.08501 0.94625 0.53178 0.0
C580 C 0.91192 0.03096 0.44819 0.0
C581 C 0.93371 0.0067 0.45721 0.0
C582 C 0.99593 0.04202 0.47856 0.0
C583 C 0.04501 0.94159 0.50127 0.0
C584 C 0.0211 0.96549 0.49536 0.0
C585 C 0.95164 0.03492 0.47996 0.0
C586 C 0.97554 0.01106 0.4859 0.0
H587 H 0.07403 0.82371 0.48564 0.0
H588 H 0.0362 0.86607 0.46936 0.0
H589 H 0.03374 0.0443 0.47672 0.0
H590 H 0.92233 0.15199 0.49758 0.0
H591 H 0.96015 0.10944 0.51374 0.0
loop_
_geom_bond_atom_site_label_1
_geom_bond_atom_site_label_2
_geom_bond_distance
_geom_bond_site_symmetry_2
_ccdc_geom_bond_type
C0 O2 1.247 . S
C0 O4 1.258 . S
C1 O8 1.247 . S
C1 O9 1.258 . S
O2 C0 1.247 . S
O2 Zn3 2.028 . S
Zn3 O2 2.028 . S
Zn3 O7 2.035 . S
Zn3 O9 2.035 . S
Zn3 O10 2.028 . S
O4 C0 1.258 . S
O4 Zn5 2.035 . S
Zn5 O4 2.035 . S
Zn5 O6 2.028 . S
Zn5 O8 2.028 . S
Zn5 O11 2.035 . S
O6 Zn5 2.028 . S
O6 C12 1.247 . S
O7 Zn3 2.035 . S
O7 C12 1.258 . S
O8 C1 1.247 . S
O8 Zn5 2.028 . S
O9 C1 1.258 . S
O9 Zn3 2.035 . S
O10 Zn3 2.028 . S
O10 C13 1.247 . S
O11 Zn5 2.035 . S
O11 C13 1.258 . S
C12 O6 1.247 . S
C12 O7 1.258 . S
C13 O10 1.247 . S
C13 O11 1.258 . S
C14 O16 1.247 . S
C14 O18 1.258 . S
C15 O22 1.247 . S
C15 O23 1.258 . S
O16 C14 1.247 . S
O16 Zn17 2.028 . S
Zn17 O16 2.028 . S
Zn17 O21 2.035 . S
Zn17 O23 2.035 . S
Zn17 O24 2.028 . S
O18 C14 1.258 . S
O18 Zn19 2.035 . S
Zn19 O18 2.035 . S
Zn19 O20 2.028 . S
Zn19 O22 2.028 . S
Zn19 O25 2.035 . S
O20 Zn19 2.028 . S
O20 C26 1.247 . S
O21 Zn17 2.035 . S
O21 C26 1.258 . S
O22 C15 1.247 . S
O22 Zn19 2.028 . S
O23 C15 1.258 . S
O23 Zn17 2.035 . S
O24 Zn17 2.028 . S
O24 C27 1.247 . S
O25 Zn19 2.035 . S
O25 C27 1.258 . S
C26 O20 1.247 . S
C26 O21 1.258 . S
C27 O24 1.247 . S
C27 O25 1.258 . S
C28 O30 1.247 . S
C28 O32 1.258 . S
C29 O36 1.247 . S
C29 O37 1.258 . S
O30 C28 1.247 . S
O30 Zn31 2.028 . S
Zn31 O30 2.028 . S
Zn31 O35 2.035 . S
Zn31 O37 2.035 . S
Zn31 O38 2.028 . S
O32 C28 1.258 . S
O32 Zn33 2.035 . S
Zn33 O32 2.035 . S
Zn33 O34 2.028 . S
Zn33 O36 2.028 . S
Zn33 O39 2.035 . S
O34 Zn33 2.028 . S
O34 C40 1.247 . S
O35 Zn31 2.035 . S
O35 C40 1.258 . S
O36 C29 1.247 . S
O36 Zn33 2.028 . S
O37 C29 1.258 . S
O37 Zn31 2.035 . S
O38 Zn31 2.028 . S
O38 C41 1.247 . S
O39 Zn33 2.035 . S
O39 C41 1.258 . S
C40 O34 1.247 . S
C40 O35 1.258 . S
C41 O38 1.247 . S
C41 O39 1.258 . S
C42 O44 1.247 . S
C42 O46 1.258 . S
C43 O50 1.247 . S
C43 O51 1.258 . S
O44 C42 1.247 . S
O44 Zn45 2.028 . S
Zn45 O44 2.028 . S
Zn45 O49 2.035 . S
Zn45 O51 2.035 . S
Zn45 O52 2.028 . S
O46 C42 1.258 . S
O46 Zn47 2.035 . S
Zn47 O46 2.035 . S
Zn47 O48 2.028 . S
Zn47 O50 2.028 . S
Zn47 O53 2.035 . S
O48 Zn47 2.028 . S
O48 C54 1.247 . S
O49 Zn45 2.035 . S
O49 C54 1.258 . S
O50 C43 1.247 . S
O50 Zn47 2.028 . S
O51 C43 1.258 . S
O51 Zn45 2.035 . S
O52 Zn45 2.028 . S
O52 C55 1.247 . S
O53 Zn47 2.035 . S
O53 C55 1.258 . S
C54 O48 1.247 . S
C54 O49 1.258 . S
C55 O52 1.247 . S
C55 O53 1.258 . S
C56 O58 1.247 . S
C56 O60 1.258 . S
C57 O64 1.247 . S
C57 O65 1.258 . S
O58 C56 1.247 . S
O58 Zn59 2.028 . S
Zn59 O58 2.028 . S
Zn59 O63 2.035 . S
Zn59 O65 2.035 . S
Zn59 O66 2.028 . S
O60 C56 1.258 . S
O60 Zn61 2.035 . S
Zn61 O60 2.035 . S
Zn61 O62 2.028 . S
Zn61 O64 2.028 . S
Zn61 O67 2.035 . S
O62 Zn61 2.028 . S
O62 C68 1.247 . S
O63 Zn59 2.035 . S
O63 C68 1.258 . S
O64 C57 1.247 . S
O64 Zn61 2.028 . S
O65 C57 1.258 . S
O65 Zn59 2.035 . S
O66 Zn59 2.028 . S
O66 C69 1.247 . S
O67 Zn61 2.035 . S
O67 C69 1.258 . S
C68 O62 1.247 . S
C68 O63 1.258 . S
C69 O66 1.247 . S
C69 O67 1.258 . S
C70 O72 1.247 . S
C70 O74 1.258 . S
C71 O78 1.247 . S
C71 O79 1.258 . S
O72 C70 1.247 . S
O72 Zn73 2.028 . S
Zn73 O72 2.028 . S
Zn73 O77 2.035 . S
Zn73 O79 2.035 . S
Zn73 O80 2.028 . S
O74 C70 1.258 . S
O74 Zn75 2.035 . S
Zn75 O74 2.035 . S
Zn75 O76 2.028 . S
Zn75 O78 2.028 . S
Zn75 O81 2.035 . S
O76 Zn75 2.028 . S
O76 C82 1.247 . S
O77 Zn73 2.035 . S
O77 C82 1.258 . S
O78 C71 1.247 . S
O78 Zn75 2.028 . S
O79 C71 1.258 . S
O79 Zn73 2.035 . S
O80 Zn73 2.028 . S
O80 C83 1.247 . S
O81 Zn75 2.035 . S
O81 C83 1.258 . S
C82 O76 1.247 . S
C82 O77 1.258 . S
C83 O80 1.247 . S
C83 O81 1.258 . S
C84 O86 1.247 . S
C84 O88 1.258 . S
C85 O92 1.247 . S
C85 O93 1.258 . S
O86 C84 1.247 . S
O86 Zn87 2.028 . S
Zn87 O86 2.028 . S
Zn87 O91 2.035 . S
Zn87 O93 2.035 . S
Zn87 O94 2.028 . S
O88 C84 1.258 . S
O88 Zn89 2.035 . S
Zn89 O88 2.035 . S
Zn89 O90 2.028 . S
Zn89 O92 2.028 . S
Zn89 O95 2.035 . S
O90 Zn89 2.028 . S
O90 C96 1.247 . S
O91 Zn87 2.035 . S
O91 C96 1.258 . S
O92 C85 1.247 . S
O92 Zn89 2.028 . S
O93 C85 1.258 . S
O93 Zn87 2.035 . S
O94 Zn87 2.028 . S
O94 C97 1.247 . S
O95 Zn89 2.035 . S
O95 C97 1.258 . S
C96 O90 1.247 . S
C96 O91 1.258 . S
C97 O94 1.247 . S
C97 O95 1.258 . S
C98 O100 1.247 . S
C98 O102 1.258 . S
C99 O106 1.247 . S
C99 O107 1.258 . S
O100 C98 1.247 . S
O100 Zn101 2.028 . S
Zn101 O100 2.028 . S
Zn101 O105 2.035 . S
Zn101 O107 2.035 . S
Zn101 O108 2.028 . S
O102 C98 1.258 . S
O102 Zn103 2.035 . S
Zn103 O102 2.035 . S
Zn103 O104 2.028 . S
Zn103 O106 2.028 . S
Zn103 O109 2.035 . S
O104 Zn103 2.028 . S
O104 C110 1.247 . S
O105 Zn101 2.035 . S
O105 C110 1.258 . S
O106 C99 1.247 . S
O106 Zn103 2.028 . S
O107 C99 1.258 . S
O107 Zn101 2.035 . S
O108 Zn101 2.028 . S
O108 C111 1.247 . S
O109 Zn103 2.035 . S
O109 C111 1.258 . S
C110 O104 1.247 . S
C110 O105 1.258 . S
C111 O108 1.247 . S
C111 O109 1.258 . S
C112 C113 1.349 . S
C112 C114 1.327 . S
C112 H137 0.950 . S
C113 C112 1.349 . S
C113 C129 1.349 . S
C114 C112 1.327 . S
C114 C133 1.429 . S
C114 H138 0.950 . S
C115 C132 1.574 . S
C115 C134 1.368 . S
C115 H139 0.949 . S
H116 C120 0.949 . S
C117 C118 1.349 . S
C117 C119 1.327 . S
C117 H140 0.950 1_556 S
C118 C117 1.349 . S
C118 C130 1.349 . S
C119 C117 1.327 . S
C119 C135 1.429 . S
C119 H141 0.950 . S
C120 H116 0.949 . S
C120 C128 1.574 . S
C120 C136 1.368 . S
H121 C129 0.950 . S
H122 C127 0.950 . S
H123 C128 0.949 . S
H124 C130 0.950 . S
H125 C131 0.950 . S
H126 C132 0.949 . S
C127 H122 0.950 . S
C127 C129 1.327 . S
C127 C133 1.429 . S
C128 C120 1.574 . S
C128 H123 0.949 . S
C128 C134 1.368 . S
C129 C113 1.349 . S
C129 H121 0.950 . S
C129 C127 1.327 . S
C130 C118 1.349 . S
C130 H124 0.950 . S
C130 C131 1.327 . S
C131 H125 0.950 . S
C131 C130 1.327 . S
C131 C135 1.429 . S
C132 C115 1.574 . S
C132 H126 0.949 . S
C132 C136 1.368 . S
C133 C114 1.429 . S
C133 C127 1.429 . S
C133 C134 1.523 . S
C134 C115 1.368 . S
C134 C128 1.368 . S
C134 C133 1.523 . S
C135 C119 1.429 . S
C135 C131 1.429 . S
C135 C136 1.523 . S
C136 C120 1.368 . S
C136 C132 1.368 . S
C136 C135 1.523 . S
H137 C112 0.950 . S
H138 C114 0.950 . S
H139 C115 0.949 . S
H140 C117 0.950 1_554 S
H141 C119 0.950 . S
C142 C143 1.349 . S
C142 C144 1.327 . S
C142 H167 0.950 . S
C143 C142 1.349 . S
C143 C159 1.349 . S
C144 C142 1.327 . S
C144 C163 1.429 . S
C144 H168 0.950 . S
C145 C162 1.574 . S
C145 C164 1.368 . S
C145 H169 0.949 . S
H146 C150 0.949 . S
C147 C148 1.349 . S
C147 C149 1.327 . S
C147 H170 0.950 . S
C148 C147 1.349 . S
C148 C160 1.349 . S
C149 C147 1.327 . S
C149 C165 1.429 . S
C149 H171 0.950 . S
C150 H146 0.949 . S
C150 C158 1.574 . S
C150 C166 1.368 . S
H151 C159 0.950 . S
H152 C157 0.950 . S
H153 C158 0.949 . S
H154 C160 0.950 . S
H155 C161 0.950 . S
H156 C162 0.949 . S
C157 H152 0.950 . S
C157 C159 1.327 . S
C157 C163 1.429 . S
C158 C150 1.574 . S
C158 H153 0.949 . S
C158 C164 1.368 . S
C159 C143 1.349 . S
C159 H151 0.950 . S
C159 C157 1.327 . S
C160 C148 1.349 . S
C160 H154 0.950 . S
C160 C161 1.327 . S
C161 H155 0.950 . S
C161 C160 1.327 . S
C161 C165 1.429 . S
C162 C145 1.574 . S
C162 H156 0.949 . S
C162 C166 1.368 . S
C163 C144 1.429 . S
C163 C157 1.429 . S
C163 C164 1.523 . S
C164 C145 1.368 . S
C164 C158 1.368 . S
C164 C163 1.523 . S
C165 C149 1.429 . S
C165 C161 1.429 . S
C165 C166 1.523 . S
C166 C150 1.368 . S
C166 C162 1.368 . S
C166 C165 1.523 . S
H167 C142 0.950 . S
H168 C144 0.950 . S
H169 C145 0.949 . S
H170 C147 0.950 . S
H171 C149 0.950 . S
C172 C173 1.349 . S
C172 C174 1.327 . S
C172 H197 0.950 . S
C173 C172 1.349 . S
C173 C189 1.349 . S
C174 C172 1.327 . S
C174 C193 1.429 . S
C174 H198 0.950 . S
C175 C192 1.574 . S
C175 C194 1.368 . S
C175 H199 0.949 . S
H176 C180 0.949 . S
C177 C178 1.349 . S
C177 C179 1.327 . S
C177 H200 0.950 . S
C178 C177 1.349 . S
C178 C190 1.349 . S
C179 C177 1.327 . S
C179 C195 1.429 . S
C179 H201 0.950 . S
C180 H176 0.949 . S
C180 C188 1.574 . S
C180 C196 1.368 . S
H181 C189 0.950 . S
H182 C187 0.950 . S
H183 C188 0.949 . S
H184 C190 0.950 1_556 S
H185 C191 0.950 . S
H186 C192 0.949 . S
C187 H182 0.950 . S
C187 C189 1.327 . S
C187 C193 1.429 . S
C188 C180 1.574 . S
C188 H183 0.949 . S
C188 C194 1.368 . S
C189 C173 1.349 . S
C189 H181 0.950 . S
C189 C187 1.327 . S
C190 C178 1.349 . S
C190 H184 0.950 1_554 S
C190 C191 1.327 . S
C191 H185 0.950 . S
C191 C190 1.327 . S
C191 C195 1.429 . S
C192 C175 1.574 . S
C192 H186 0.949 . S
C192 C196 1.368 . S
C193 C174 1.429 . S
C193 C187 1.429 . S
C193 C194 1.523 . S
C194 C175 1.368 . S
C194 C188 1.368 . S
C194 C193 1.523 . S
C195 C179 1.429 . S
C195 C191 1.429 . S
C195 C196 1.523 . S
C196 C180 1.368 . S
C196 C192 1.368 . S
C196 C195 1.523 . S
H197 C172 0.950 . S
H198 C174 0.950 . S
H199 C175 0.949 . S
H200 C177 0.950 . S
H201 C179 0.950 . S
C202 C203 1.349 . S
C202 C204 1.327 . S
C202 H227 0.950 . S
C203 C202 1.349 . S
C203 C219 1.349 . S
C204 C202 1.327 . S
C204 C223 1.429 . S
C204 H228 0.950 . S
C205 C222 1.574 . S
C205 C224 1.368 . S
C205 H229 0.949 . S
H206 C210 0.949 . S
C207 C208 1.349 . S
C207 C209 1.327 . S
C207 H230 0.950 . S
C208 C207 1.349 . S
C208 C220 1.349 . S
C209 C207 1.327 . S
C209 C225 1.429 . S
C209 H231 0.950 . S
C210 H206 0.949 . S
C210 C218 1.574 . S
C210 C226 1.368 . S
H211 C219 0.950 . S
H212 C217 0.950 . S
H213 C218 0.949 . S
H214 C220 0.950 . S
H215 C221 0.950 . S
H216 C222 0.949 . S
C217 H212 0.950 . S
C217 C219 1.327 . S
C217 C223 1.429 . S
C218 C210 1.574 . S
C218 H213 0.949 . S
C218 C224 1.368 . S
C219 C203 1.349 . S
C219 H211 0.950 . S
C219 C217 1.327 . S
C220 C208 1.349 . S
C220 H214 0.950 . S
C220 C221 1.327 . S
C221 H215 0.950 . S
C221 C220 1.327 . S
C221 C225 1.429 . S
C222 C205 1.574 . S
C222 H216 0.949 . S
C222 C226 1.368 . S
C223 C204 1.429 . S
C223 C217 1.429 . S
C223 C224 1.523 . S
C224 C205 1.368 . S
C224 C218 1.368 . S
C224 C223 1.523 . S
C225 C209 1.429 . S
C225 C221 1.429 . S
C225 C226 1.523 . S
C226 C210 1.368 . S
C226 C222 1.368 . S
C226 C225 1.523 . S
H227 C202 0.950 . S
H228 C204 0.950 . S
H229 C205 0.949 . S
H230 C207 0.950 . S
H231 C209 0.950 . S
C232 C233 1.349 . S
C232 C234 1.327 . S
C232 H257 0.950 . S
C233 C232 1.349 . S
C233 C249 1.349 . S
C234 C232 1.327 . S
C234 C253 1.429 . S
C234 H258 0.950 . S
C235 C252 1.574 . S
C235 C254 1.368 . S
C235 H259 0.949 . S
H236 C240 0.949 . S
C237 C238 1.349 . S
C237 C239 1.327 . S
C237 H260 0.950 . S
C238 C237 1.349 . S
C238 C250 1.349 . S
C239 C237 1.327 . S
C239 C255 1.429 . S
C239 H261 0.950 . S
C240 H236 0.949 . S
C240 C248 1.574 . S
C240 C256 1.368 . S
H241 C249 0.950 1_556 S
H242 C247 0.950 . S
H243 C248 0.949 . S
H244 C250 0.950 . S
H245 C251 0.950 . S
H246 C252 0.949 . S
C247 H242 0.950 . S
C247 C249 1.327 . S
C247 C253 1.429 . S
C248 C240 1.574 . S
C248 H243 0.949 . S
C248 C254 1.368 . S
C249 C233 1.349 . S
C249 H241 0.950 1_554 S
C249 C247 1.327 . S
C250 C238 1.349 . S
C250 H244 0.950 . S
C250 C251 1.327 . S
C251 H245 0.950 . S
C251 C250 1.327 . S
C251 C255 1.429 . S
C252 C235 1.574 . S
C252 H246 0.949 . S
C252 C256 1.368 . S
C253 C234 1.429 . S
C253 C247 1.429 . S
C253 C254 1.523 . S
C254 C235 1.368 . S
C254 C248 1.368 . S
C254 C253 1.523 . S
C255 C239 1.429 . S
C255 C251 1.429 . S
C255 C256 1.523 . S
C256 C240 1.368 . S
C256 C252 1.368 . S
C256 C255 1.523 . S
H257 C232 0.950 . S
H258 C234 0.950 . S
H259 C235 0.949 . S
H260 C237 0.950 . S
H261 C239 0.950 . S
C262 C263 1.349 . S
C262 C264 1.327 . S
C262 H287 0.950 . S
C263 C262 1.349 . S
C263 C279 1.349 . S
C264 C262 1.327 . S
C264 C283 1.429 . S
C264 H288 0.950 . S
C265 C282 1.574 . S
C265 C284 1.368 . S
C265 H289 0.949 . S
H266 C270 0.949 . S
C267 C268 1.349 . S
C267 C269 1.327 . S
C267 H290 0.950 . S
C268 C267 1.349 . S
C268 C280 1.349 . S
C269 C267 1.327 . S
C269 C285 1.429 . S
C269 H291 0.950 . S
C270 H266 0.949 . S
C270 C278 1.574 . S
C270 C286 1.368 . S
H271 C279 0.950 . S
H272 C277 0.950 . S
H273 C278 0.949 . S
H274 C280 0.950 . S
H275 C281 0.950 . S
H276 C282 0.949 . S
C277 H272 0.950 . S
C277 C279 1.327 . S
C277 C283 1.429 . S
C278 C270 1.574 . S
C278 H273 0.949 . S
C278 C284 1.368 . S
C279 C263 1.349 . S
C279 H271 0.950 . S
C279 C277 1.327 . S
C280 C268 1.349 . S
C280 H274 0.950 . S
C280 C281 1.327 . S
C281 H275 0.950 . S
C281 C280 1.327 . S
C281 C285 1.429 . S
C282 C265 1.574 . S
C282 H276 0.949 . S
C282 C286 1.368 . S
C283 C264 1.429 . S
C283 C277 1.429 . S
C283 C284 1.523 . S
C284 C265 1.368 . S
C284 C278 1.368 . S
C284 C283 1.523 . S
C285 C269 1.429 . S
C285 C281 1.429 . S
C285 C286 1.523 . S
C286 C270 1.368 . S
C286 C282 1.368 . S
C286 C285 1.523 . S
H287 C262 0.950 . S
H288 C264 0.950 . S
H289 C265 0.949 . S
H290 C267 0.950 . S
H291 C269 0.950 . S
C292 C293 1.349 . S
C292 C294 1.327 . S
C292 H317 0.950 . S
C293 C292 1.349 . S
C293 C309 1.349 . S
C294 C292 1.327 . S
C294 C313 1.429 . S
C294 H318 0.950 . S
C295 C312 1.574 . S
C295 C314 1.368 . S
C295 H319 0.949 . S
H296 C300 0.949 . S
C297 C298 1.349 . S
C297 C299 1.327 . S
C297 H320 0.950 . S
C298 C297 1.349 . S
C298 C310 1.349 . S
C299 C297 1.327 . S
C299 C315 1.429 . S
C299 H321 0.950 . S
C300 H296 0.949 . S
C300 C308 1.574 . S
C300 C316 1.368 . S
H301 C309 0.950 1_554 S
H302 C307 0.950 . S
H303 C308 0.949 . S
H304 C310 0.950 . S
H305 C311 0.950 . S
H306 C312 0.949 . S
C307 H302 0.950 . S
C307 C309 1.327 . S
C307 C313 1.429 . S
C308 C300 1.574 . S
C308 H303 0.949 . S
C308 C314 1.368 . S
C309 C293 1.349 . S
C309 H301 0.950 1_556 S
C309 C307 1.327 . S
C310 C298 1.349 . S
C310 H304 0.950 . S
C310 C311 1.327 . S
C311 H305 0.950 . S
C311 C310 1.327 . S
C311 C315 1.429 . S
C312 C295 1.574 . S
C312 H306 0.949 . S
C312 C316 1.368 . S
C313 C294 1.429 . S
C313 C307 1.429 . S
C313 C314 1.523 . S
C314 C295 1.368 . S
C314 C308 1.368 . S
C314 C313 1.523 . S
C315 C299 1.429 . S
C315 C311 1.429 . S
C315 C316 1.523 . S
C316 C300 1.368 . S
C316 C312 1.368 . S
C316 C315 1.523 . S
H317 C292 0.950 . S
H318 C294 0.950 . S
H319 C295 0.949 . S
H320 C297 0.950 . S
H321 C299 0.950 . S
C322 C323 1.349 . S
C322 C324 1.327 . S
C322 H347 0.950 . S
C323 C322 1.349 . S
C323 C339 1.349 . S
C324 C322 1.327 . S
C324 C343 1.429 . S
C324 H348 0.950 . S
C325 C342 1.574 . S
C325 C344 1.368 . S
C325 H349 0.949 . S
H326 C330 0.949 . S
C327 C328 1.349 . S
C327 C329 1.327 . S
C327 H350 0.950 . S
C328 C327 1.349 . S
C328 C340 1.349 . S
C329 C327 1.327 . S
C329 C345 1.429 . S
C329 H351 0.950 . S
C330 H326 0.949 . S
C330 C338 1.574 . S
C330 C346 1.368 . S
H331 C339 0.950 . S
H332 C337 0.950 . S
H333 C338 0.949 . S
H334 C340 0.950 . S
H335 C341 0.950 . S
H336 C342 0.949 . S
C337 H332 0.950 . S
C337 C339 1.327 . S
C337 C343 1.429 . S
C338 C330 1.574 . S
C338 H333 0.949 . S
C338 C344 1.368 . S
C339 C323 1.349 . S
C339 H331 0.950 . S
C339 C337 1.327 . S
C340 C328 1.349 . S
C340 H334 0.950 . S
C340 C341 1.327 . S
C341 H335 0.950 . S
C341 C340 1.327 . S
C341 C345 1.429 . S
C342 C325 1.574 . S
C342 H336 0.949 . S
C342 C346 1.368 . S
C343 C324 1.429 . S
C343 C337 1.429 . S
C343 C344 1.523 . S
C344 C325 1.368 . S
C344 C338 1.368 . S
C344 C343 1.523 . S
C345 C329 1.429 . S
C345 C341 1.429 . S
C345 C346 1.523 . S
C346 C330 1.368 . S
C346 C342 1.368 . S
C346 C345 1.523 . S
H347 C322 0.950 . S
H348 C324 0.950 . S
H349 C325 0.949 . S
H350 C327 0.950 . S
H351 C329 0.950 . S
C352 C353 1.349 . S
C352 C354 1.327 . S
C352 H377 0.950 . S
C353 C352 1.349 . S
C353 C369 1.349 . S
C354 C352 1.327 . S
C354 C373 1.429 . S
C354 H378 0.950 . S
C355 C372 1.574 1_455 S
C355 C374 1.368 . S
C355 H379 0.949 . S
H356 C360 0.949 . S
C357 C358 1.349 . S
C357 C359 1.327 . S
C357 H380 0.950 . S
C358 C357 1.349 . S
C358 C370 1.349 . S
C359 C357 1.327 . S
C359 C375 1.429 . S
C359 H381 0.950 . S
C360 H356 0.949 . S
C360 C368 1.574 1_655 S
C360 C376 1.368 . S
H361 C369 0.950 . S
H362 C367 0.950 . S
H363 C368 0.949 . S
H364 C370 0.950 . S
H365 C371 0.950 . S
H366 C372 0.949 . S
C367 H362 0.950 . S
C367 C369 1.327 . S
C367 C373 1.429 . S
C368 C360 1.574 1_455 S
C368 H363 0.949 . S
C368 C374 1.368 . S
C369 C353 1.349 . S
C369 H361 0.950 . S
C369 C367 1.327 . S
C370 C358 1.349 . S
C370 H364 0.950 . S
C370 C371 1.327 . S
C371 H365 0.950 . S
C371 C370 1.327 . S
C371 C375 1.429 . S
C372 C355 1.574 1_655 S
C372 H366 0.949 . S
C372 C376 1.368 . S
C373 C354 1.429 . S
C373 C367 1.429 . S
C373 C374 1.523 . S
C374 C355 1.368 . S
C374 C368 1.368 . S
C374 C373 1.523 . S
C375 C359 1.429 . S
C375 C371 1.429 . S
C375 C376 1.523 . S
C376 C360 1.368 . S
C376 C372 1.368 . S
C376 C375 1.523 . S
H377 C352 0.950 . S
H378 C354 0.950 . S
H379 C355 0.949 . S
H380 C357 0.950 . S
H381 C359 0.950 . S
C382 C383 1.349 . S
C382 C384 1.327 . S
C382 H407 0.950 . S
C383 C382 1.349 . S
C383 C399 1.349 . S
C384 C382 1.327 . S
C384 C403 1.429 . S
C384 H408 0.950 . S
C385 C402 1.574 . S
C385 C404 1.368 . S
C385 H409 0.949 . S
H386 C390 0.949 . S
C387 C388 1.349 . S
C387 C389 1.327 . S
C387 H410 0.950 . S
C388 C387 1.349 . S
C388 C400 1.349 . S
C389 C387 1.327 . S
C389 C405 1.429 . S
C389 H411 0.950 . S
C390 H386 0.949 . S
C390 C398 1.574 . S
C390 C406 1.368 . S
H391 C399 0.950 . S
H392 C397 0.950 . S
H393 C398 0.949 . S
H394 C400 0.950 . S
H395 C401 0.950 . S
H396 C402 0.949 . S
C397 H392 0.950 . S
C397 C399 1.327 . S
C397 C403 1.429 . S
C398 C390 1.574 . S
C398 H393 0.949 . S
C398 C404 1.368 . S
C399 C383 1.349 . S
C399 H391 0.950 . S
C399 C397 1.327 . S
C400 C388 1.349 . S
C400 H394 0.950 . S
C400 C401 1.327 . S
C401 H395 0.950 . S
C401 C400 1.327 . S
C401 C405 1.429 . S
C402 C385 1.574 . S
C402 H396 0.949 . S
C402 C406 1.368 . S
C403 C384 1.429 . S
C403 C397 1.429 . S
C403 C404 1.523 . S
C404 C385 1.368 . S
C404 C398 1.368 . S
C404 C403 1.523 . S
C405 C389 1.429 . S
C405 C401 1.429 . S
C405 C406 1.523 . S
C406 C390 1.368 . S
C406 C402 1.368 . S
C406 C405 1.523 . S
H407 C382 0.950 . S
H408 C384 0.950 . S
H409 C385 0.949 . S
H410 C387 0.950 . S
H411 C389 0.950 . S
C412 C413 1.349 . S
C412 C414 1.327 . S
C412 H437 0.950 . S
C413 C412 1.349 . S
C413 C429 1.349 . S
C414 C412 1.327 . S
C414 C433 1.429 . S
C414 H438 0.950 . S
C415 C432 1.574 1_455 S
C415 C434 1.368 . S
C415 H439 0.949 . S
H416 C420 0.949 . S
C417 C418 1.349 . S
C417 C419 1.327 . S
C417 H440 0.950 . S
C418 C417 1.349 . S
C418 C430 1.349 . S
C419 C417 1.327 . S
C419 C435 1.429 . S
C419 H441 0.950 . S
C420 H416 0.949 . S
C420 C428 1.574 1_655 S
C420 C436 1.368 . S
H421 C429 0.950 . S
H422 C427 0.950 . S
H423 C428 0.949 . S
H424 C430 0.950 . S
H425 C431 0.950 . S
H426 C432 0.949 . S
C427 H422 0.950 . S
C427 C429 1.327 . S
C427 C433 1.429 . S
C428 C420 1.574 1_455 S
C428 H423 0.949 . S
C428 C434 1.368 . S
C429 C413 1.349 . S
C429 H421 0.950 . S
C429 C427 1.327 . S
C430 C418 1.349 . S
C430 H424 0.950 . S
C430 C431 1.327 . S
C431 H425 0.950 . S
C431 C430 1.327 . S
C431 C435 1.429 . S
C432 C415 1.574 1_655 S
C432 H426 0.949 . S
C432 C436 1.368 . S
C433 C414 1.429 . S
C433 C427 1.429 . S
C433 C434 1.523 . S
C434 C415 1.368 . S
C434 C428 1.368 . S
C434 C433 1.523 . S
C435 C419 1.429 . S
C435 C431 1.429 . S
C435 C436 1.523 . S
C436 C420 1.368 . S
C436 C432 1.368 . S
C436 C435 1.523 . S
H437 C412 0.950 . S
H438 C414 0.950 . S
H439 C415 0.949 . S
H440 C417 0.950 . S
H441 C419 0.950 . S
C442 C443 1.349 . S
C442 C444 1.327 . S
C442 H467 0.950 . S
C443 C442 1.349 . S
C443 C459 1.349 . S
C444 C442 1.327 . S
C444 C463 1.429 . S
C444 H468 0.950 . S
C445 C462 1.574 . S
C445 C464 1.368 . S
C445 H469 0.949 . S
H446 C450 0.949 . S
C447 C448 1.349 . S
C447 C449 1.327 . S
C447 H470 0.950 . S
C448 C447 1.349 . S
C448 C460 1.349 . S
C449 C447 1.327 . S
C449 C465 1.429 . S
C449 H471 0.950 . S
C450 H446 0.949 . S
C450 C458 1.574 . S
C450 C466 1.368 . S
H451 C459 0.950 . S
H452 C457 0.950 . S
H453 C458 0.949 . S
H454 C460 0.950 . S
H455 C461 0.950 . S
H456 C462 0.949 . S
C457 H452 0.950 . S
C457 C459 1.327 . S
C457 C463 1.429 . S
C458 C450 1.574 . S
C458 H453 0.949 . S
C458 C464 1.368 . S
C459 C443 1.349 . S
C459 H451 0.950 . S
C459 C457 1.327 . S
C460 C448 1.349 . S
C460 H454 0.950 . S
C460 C461 1.327 . S
C461 H455 0.950 . S
C461 C460 1.327 . S
C461 C465 1.429 . S
C462 C445 1.574 . S
C462 H456 0.949 . S
C462 C466 1.368 . S
C463 C444 1.429 . S
C463 C457 1.429 . S
C463 C464 1.523 . S
C464 C445 1.368 . S
C464 C458 1.368 . S
C464 C463 1.523 . S
C465 C449 1.429 . S
C465 C461 1.429 . S
C465 C466 1.523 . S
C466 C450 1.368 . S
C466 C462 1.368 . S
C466 C465 1.523 . S
H467 C442 0.950 . S
H468 C444 0.950 . S
H469 C445 0.949 . S
H470 C447 0.950 . S
H471 C449 0.950 . S
C472 C473 1.349 1_556 S
C472 C474 1.327 . S
C472 H497 0.950 . S
C473 C472 1.349 1_554 S
C473 C489 1.349 . S
C474 C472 1.327 . S
C474 C493 1.429 1_556 S
C474 H498 0.950 . S
C475 C492 1.574 1_445 S
C475 C494 1.368 . S
C475 H499 0.949 . S
H476 C480 0.949 . S
C477 C478 1.349 1_554 S
C477 C479 1.327 . S
C477 H500 0.950 . S
C478 C477 1.349 1_556 S
C478 C490 1.349 . S
C479 C477 1.327 . S
C479 C495 1.429 1_554 S
C479 H501 0.950 . S
C480 H476 0.949 . S
C480 C488 1.574 1_665 S
C480 C496 1.368 . S
H481 C489 0.950 . S
H482 C487 0.950 . S
H483 C488 0.949 . S
H484 C490 0.950 . S
H485 C491 0.950 . S
H486 C492 0.949 . S
C487 H482 0.950 . S
C487 C489 1.327 . S
C487 C493 1.429 . S
C488 C480 1.574 1_445 S
C488 H483 0.949 . S
C488 C494 1.368 1_556 S
C489 C473 1.349 . S
C489 H481 0.950 . S
C489 C487 1.327 . S
C490 C478 1.349 . S
C490 H484 0.950 . S
C490 C491 1.327 . S
C491 H485 0.950 . S
C491 C490 1.327 . S
C491 C495 1.429 . S
C492 C475 1.574 1_665 S
C492 H486 0.949 . S
C492 C496 1.368 1_554 S
C493 C474 1.429 1_554 S
C493 C487 1.429 . S
C493 C494 1.523 . S
C494 C475 1.368 . S
C494 C488 1.368 1_554 S
C494 C493 1.523 . S
C495 C479 1.429 1_556 S
C495 C491 1.429 . S
C495 C496 1.523 . S
C496 C480 1.368 . S
C496 C492 1.368 1_556 S
C496 C495 1.523 . S
H497 C472 0.950 . S
H498 C474 0.950 . S
H499 C475 0.949 . S
H500 C477 0.950 . S
H501 C479 0.950 . S
C502 C503 1.349 . S
C502 C504 1.327 . S
C502 H527 0.950 . S
C503 C502 1.349 . S
C503 C519 1.349 . S
C504 C502 1.327 . S
C504 C523 1.429 . S
C504 H528 0.950 . S
C505 C522 1.574 . S
C505 C524 1.368 . S
C505 H529 0.949 . S
H506 C510 0.949 . S
C507 C508 1.349 . S
C507 C509 1.327 . S
C507 H530 0.950 . S
C508 C507 1.349 . S
C508 C520 1.349 . S
C509 C507 1.327 . S
C509 C525 1.429 . S
C509 H531 0.950 . S
C510 H506 0.949 . S
C510 C518 1.574 . S
C510 C526 1.368 . S
H511 C519 0.950 . S
H512 C517 0.950 . S
H513 C518 0.949 . S
H514 C520 0.950 . S
H515 C521 0.950 . S
H516 C522 0.949 . S
C517 H512 0.950 . S
C517 C519 1.327 . S
C517 C523 1.429 . S
C518 C510 1.574 . S
C518 H513 0.949 . S
C518 C524 1.368 . S
C519 C503 1.349 . S
C519 H511 0.950 . S
C519 C517 1.327 . S
C520 C508 1.349 . S
C520 H514 0.950 . S
C520 C521 1.327 . S
C521 H515 0.950 . S
C521 C520 1.327 . S
C521 C525 1.429 . S
C522 C505 1.574 . S
C522 H516 0.949 . S
C522 C526 1.368 . S
C523 C504 1.429 . S
C523 C517 1.429 . S
C523 C524 1.523 . S
C524 C505 1.368 . S
C524 C518 1.368 . S
C524 C523 1.523 . S
C525 C509 1.429 . S
C525 C521 1.429 . S
C525 C526 1.523 . S
C526 C510 1.368 . S
C526 C522 1.368 . S
C526 C525 1.523 . S
H527 C502 0.950 . S
H528 C504 0.950 . S
H529 C505 0.949 . S
H530 C507 0.950 . S
H531 C509 0.950 . S
C532 C533 1.349 . S
C532 C534 1.327 1_554 S
C532 H557 0.950 1_554 S
C533 C532 1.349 . S
C533 C549 1.349 . S
C534 C532 1.327 1_556 S
C534 C553 1.429 1_556 S
C534 H558 0.950 . S
C535 C552 1.574 . S
C535 C554 1.368 . S
C535 H559 0.949 . S
H536 C540 0.949 . S
C537 C538 1.349 . S
C537 C539 1.327 1_556 S
C537 H560 0.950 1_556 S
C538 C537 1.349 . S
C538 C550 1.349 . S
C539 C537 1.327 1_554 S
C539 C555 1.429 1_554 S
C539 H561 0.950 . S
C540 H536 0.949 . S
C540 C548 1.574 . S
C540 C556 1.368 . S
H541 C549 0.950 . S
H542 C547 0.950 . S
H543 C548 0.949 . S
H544 C550 0.950 . S
H545 C551 0.950 . S
H546 C552 0.949 . S
C547 H542 0.950 . S
C547 C549 1.327 . S
C547 C553 1.429 . S
C548 C540 1.574 . S
C548 H543 0.949 . S
C548 C554 1.368 1_556 S
C549 C533 1.349 . S
C549 H541 0.950 . S
C549 C547 1.327 . S
C550 C538 1.349 . S
C550 H544 0.950 . S
C550 C551 1.327 . S
C551 H545 0.950 . S
C551 C550 1.327 . S
C551 C555 1.429 . S
C552 C535 1.574 . S
C552 H546 0.949 . S
C552 C556 1.368 1_554 S
C553 C534 1.429 1_554 S
C553 C547 1.429 . S
C553 C554 1.523 . S
C554 C535 1.368 . S
C554 C548 1.368 1_554 S
C554 C553 1.523 . S
C555 C539 1.429 1_556 S
C555 C551 1.429 . S
C555 C556 1.523 . S
C556 C540 1.368 . S
C556 C552 1.368 1_556 S
C556 C555 1.523 . S
H557 C532 0.950 1_556 S
H558 C534 0.950 . S
H559 C535 0.949 . S
H560 C537 0.950 1_554 S
H561 C539 0.950 . S
C562 C563 1.349 . S
C562 C564 1.327 . S
C562 H587 0.950 . S
C563 C562 1.349 . S
C563 C579 1.349 . S
C564 C562 1.327 . S
C564 C583 1.429 . S
C564 H588 0.950 . S
C565 C582 1.574 1_465 S
C565 C584 1.368 . S
C565 H589 0.949 . S
H566 C570 0.949 . S
C567 C568 1.349 . S
C567 C569 1.327 . S
C567 H590 0.950 . S
C568 C567 1.349 . S
C568 C580 1.349 . S
C569 C567 1.327 . S
C569 C585 1.429 . S
C569 H591 0.950 . S
C570 H566 0.949 . S
C570 C578 1.574 1_645 S
C570 C586 1.368 . S
H571 C579 0.950 . S
H572 C577 0.950 . S
H573 C578 0.949 . S
H574 C580 0.950 . S
H575 C581 0.950 . S
H576 C582 0.949 . S
C577 H572 0.950 . S
C577 C579 1.327 . S
C577 C583 1.429 . S
C578 C570 1.574 1_465 S
C578 H573 0.949 . S
C578 C584 1.368 . S
C579 C563 1.349 . S
C579 H571 0.950 . S
C579 C577 1.327 . S
C580 C568 1.349 . S
C580 H574 0.950 . S
C580 C581 1.327 . S
C581 H575 0.950 . S
C581 C580 1.327 . S
C581 C585 1.429 . S
C582 C565 1.574 1_645 S
C582 H576 0.949 . S
C582 C586 1.368 . S
C583 C564 1.429 . S
C583 C577 1.429 . S
C583 C584 1.523 . S
C584 C565 1.368 . S
C584 C578 1.368 . S
C584 C583 1.523 . S
C585 C569 1.429 . S
C585 C581 1.429 . S
C585 C586 1.523 . S
C586 C570 1.368 . S
C586 C582 1.368 . S
C586 C585 1.523 . S
H587 C562 0.950 . S
H588 C564 0.950 . S
H589 C565 0.949 . S
H590 C567 0.950 . S
H591 C569 0.950 . S
C113 C14 2.095 . S
C118 C13 2.135 1_556 S
C143 C0 2.095 . S
C148 C27 2.135 . S
C173 C42 2.095 . S
C178 C41 2.134 1_554 S
C203 C28 2.095 . S
C208 C55 2.134 . S
C233 C68 2.135 1_554 S
C238 C71 2.095 . S
C263 C82 2.135 . S
C268 C57 2.095 . S
C293 C96 2.134 1_556 S
C298 C99 2.095 . S
C323 C85 2.095 . S
C328 C110 2.134 . S
C353 C12 0.355 . S
C358 C54 0.355 . S
C383 C26 0.355 . S
C388 C40 0.355 . S
C413 C111 0.355 . S
C418 C69 0.355 . S
C443 C97 0.355 . S
C448 C83 0.355 . S
C473 C1 1.800 . S
C478 C56 1.800 . S
C503 C70 1.800 . S
C508 C15 1.800 . S
C533 C84 1.800 . S
C538 C29 1.800 . S
C563 C98 1.800 . S
C568 C43 1.800 . S
