# Generated by pormake.
# Topology wjf, (4)-cn, num edge types: 1
# Building blocks:
#     Node 0, Type 0, BuildingBlock: CEKHIL_clean_sbu_0, # of connection points: 4
#     Node 1, Type 0, BuildingBlock: CEKHIL_clean_sbu_0, # of connection points: 4
#     Node 2, Type 0, BuildingBlock: CEKHIL_clean_sbu_0, # of connection points: 4
#     Node 3, Type 0, BuildingBlock: CEKHIL_clean_sbu_0, # of connection points: 4
#     Node 4, Type 0, BuildingBlock: CEKHIL_clean_sbu_0, # of connection points: 4
#     Node 5, Type 0, BuildingBlock: CEKHIL_clean_sbu_0, # of connection points: 4
#     Node 6, Type 0, BuildingBlock: CEKHIL_clean_sbu_0, # of connection points: 4
#     Node 7, Type 0, BuildingBlock: CEKHIL_clean_sbu_0, # of connection points: 4
#     Node 8, Type 0, BuildingBlock: CEKHIL_clean_sbu_0, # of connection points: 4
#     Node 9, Type 0, BuildingBlock: CEKHIL_clean_sbu_0, # of connection points: 4
#     Node 10, Type 0, BuildingBlock: CEKHIL_clean_sbu_0, # of connection points: 4
#     Node 11, Type 0, BuildingBlock: CEKHIL_clean_sbu_0, # of connection points: 4
#     Edge 12, Type (0, 0), BuildingBlock: KIFKEQ_clean_linker_1, # of connection points: 2
#     Edge 13, Type (0, 0), BuildingBlock: KIFKEQ_clean_linker_1, # of connection points: 2
#     Edge 14, Type (0, 0), BuildingBlock: KIFKEQ_clean_linker_1, # of connection points: 2
#     Edge 15, Type (0, 0), BuildingBlock: KIFKEQ_clean_linker_1, # of connection points: 2
#     Edge 16, Type (0, 0), BuildingBlock: KIFKEQ_clean_linker_1, # of connection points: 2
#     Edge 17, Type (0, 0), BuildingBlock: KIFKEQ_clean_linker_1, # of connection points: 2
#     Edge 18, Type (0, 0), BuildingBlock: KIFKEQ_clean_linker_1, # of connection points: 2
#     Edge 19, Type (0, 0), BuildingBlock: KIFKEQ_clean_linker_1, # of connection points: 2
#     Edge 20, Type (0, 0), BuildingBlock: KIFKEQ_clean_linker_1, # of connection points: 2
#     Edge 21, Type (0, 0), BuildingBlock: KIFKEQ_clean_linker_1, # of connection points: 2
#     Edge 22, Type (0, 0), BuildingBlock: KIFKEQ_clean_linker_1, # of connection points: 2
#     Edge 23, Type (0, 0), BuildingBlock: KIFKEQ_clean_linker_1, # of connection points: 2
#     Edge 24, Type (0, 0), BuildingBlock: KIFKEQ_clean_linker_1, # of connection points: 2
#     Edge 25, Type (0, 0), BuildingBlock: KIFKEQ_clean_linker_1, # of connection points: 2
#     Edge 26, Type (0, 0), BuildingBlock: KIFKEQ_clean_linker_1, # of connection points: 2
#     Edge 27, Type (0, 0), BuildingBlock: KIFKEQ_clean_linker_1, # of connection points: 2
#     Edge 28, Type (0, 0), BuildingBlock: KIFKEQ_clean_linker_1, # of connection points: 2
#     Edge 29, Type (0, 0), BuildingBlock: KIFKEQ_clean_linker_1, # of connection points: 2
#     Edge 30, Type (0, 0), BuildingBlock: KIFKEQ_clean_linker_1, # of connection points: 2
#     Edge 31, Type (0, 0), BuildingBlock: KIFKEQ_clean_linker_1, # of connection points: 2
#     Edge 32, Type (0, 0), BuildingBlock: KIFKEQ_clean_linker_1, # of connection points: 2
#     Edge 33, Type (0, 0), BuildingBlock: KIFKEQ_clean_linker_1, # of connection points: 2
#     Edge 34, Type (0, 0), BuildingBlock: KIFKEQ_clean_linker_1, # of connection points: 2
#     Edge 35, Type (0, 0), BuildingBlock: KIFKEQ_clean_linker_1, # of connection points: 2
# Relax obj value: 0.111
# Max RMSD: 0.133
# Mean RMSD: 0.133
data_MOF--net-wjf--node1-CEKHIL_clean_sbu_0--edge1-KIFKEQ_clean_linker_1
_symmetry_space_group_name_H-M    P1
_symmetry_Int_Tables_number       1
_symmetry_cell_setting            triclinic
loop_
_symmetry_equiv_pos_as_xyz
'x, y, z'
_cell_length_a     51.375614
_cell_length_b     51.39248
_cell_length_c     27.715334
_cell_angle_alpha  90.066707
_cell_angle_beta   89.940331
_cell_angle_gamma 120.04117
loop_
_atom_site_label
_atom_site_type_symbol
_atom_site_fract_x
_atom_site_fract_y
_atom_site_fract_z
_atom_type_partial_charge
Co0 Co 0.33213 0.39036 0.08139 0.0
O1 O 0.28918 0.37255 0.07874 0.0
O2 O 0.3215 0.41779 0.05088 0.0
C3 C 0.33508 0.37842 0.15848 0.0
O4 O 0.37794 0.41632 0.07972 0.0
Co5 Co 0.3601 0.34956 0.09777 0.0
O6 O 0.3979 0.38855 0.1055 0.0
C7 C 0.3351 0.35021 0.00276 0.0
C8 C 0.29363 0.39694 0.05754 0.0
C9 C 0.40061 0.41358 0.09247 0.0
O10 O 0.33183 0.37229 0.01669 0.0
O11 O 0.34369 0.33625 0.03097 0.0
O12 O 0.33254 0.4018 0.14875 0.0
O13 O 0.33233 0.36152 0.1221 0.0
Co14 Co 0.94435 0.33105 0.41446 0.0
O15 O 0.91927 0.28813 0.41179 0.0
O16 O 0.90616 0.32034 0.38429 0.0
C17 C 0.95948 0.33397 0.49141 0.0
O18 O 0.96417 0.37685 0.41295 0.0
Co19 Co 0.01324 0.35909 0.43034 0.0
O20 O 0.01201 0.39682 0.43847 0.0
C21 C 0.98722 0.33381 0.33558 0.0
C22 C 0.89922 0.29251 0.39086 0.0
C23 C 0.98962 0.3995 0.42571 0.0
O24 O 0.96195 0.33076 0.34959 0.0
O25 O 0.00982 0.34235 0.36369 0.0
O26 O 0.93352 0.33143 0.48193 0.0
O27 O 0.97355 0.3313 0.45485 0.0
Co28 Co 0.61916 0.94311 0.74852 0.0
O29 O 0.63695 0.91801 0.74595 0.0
O30 O 0.59172 0.90501 0.71795 0.0
C31 C 0.63105 0.95801 0.82562 0.0
O32 O 0.59328 0.96301 0.74687 0.0
Co33 Co 0.6602 0.01191 0.76495 0.0
O34 O 0.62123 0.0107 0.7731 0.0
C35 C 0.65951 0.98612 0.66997 0.0
C36 C 0.61256 0.89803 0.72473 0.0
C37 C 0.59614 0.98843 0.75996 0.0
O38 O 0.63731 0.96082 0.68388 0.0
O39 O 0.67354 0.0087 0.69819 0.0
O40 O 0.60763 0.93209 0.81579 0.0
O41 O 0.64802 0.97215 0.7893 0.0
Co42 Co 0.67917 0.61874 0.08066 0.0
O43 O 0.72214 0.63671 0.07782 0.0
O44 O 0.68988 0.59167 0.04906 0.0
C45 C 0.67633 0.63001 0.15813 0.0
O46 O 0.63332 0.59253 0.07902 0.0
Co47 Co 0.65034 0.65862 0.09989 0.0
O48 O 0.61313 0.61932 0.10854 0.0
C49 C 0.67441 0.65856 0.00355 0.0
C50 C 0.71773 0.61247 0.05603 0.0
C51 C 0.61061 0.59467 0.09367 0.0
O52 O 0.67948 0.63752 0.01676 0.0
O53 O 0.66451 0.67127 0.03204 0.0
O54 O 0.67887 0.60672 0.14754 0.0
O55 O 0.67883 0.64715 0.12232 0.0
Co56 Co 0.06326 0.6779 0.41619 0.0
O57 O 0.08842 0.72084 0.413 0.0
O58 O 0.10084 0.68837 0.38407 0.0
C59 C 0.04954 0.67526 0.49382 0.0
O60 O 0.04347 0.63206 0.41473 0.0
Co61 Co 0.99462 0.64921 0.43626 0.0
O62 O 0.99659 0.61196 0.44473 0.0
C63 C 0.01825 0.67284 0.33957 0.0
C64 C 0.10805 0.71625 0.3909 0.0
C65 C 0.01863 0.60939 0.42956 0.0
O66 O 0.04446 0.67805 0.35254 0.0
O67 O 0.99575 0.663 0.36827 0.0
O68 O 0.07531 0.67775 0.48291 0.0
O69 O 0.03475 0.67774 0.45821 0.0
Co70 Co 0.3932 0.06436 0.74928 0.0
O71 O 0.37554 0.08957 0.74634 0.0
O72 O 0.42082 0.10236 0.71871 0.0
C73 C 0.38102 0.04955 0.82637 0.0
O74 O 0.41901 0.04437 0.74793 0.0
Co75 Co 0.35213 0.99558 0.76589 0.0
O76 O 0.39105 0.99674 0.77424 0.0
C77 C 0.35305 0.0212 0.67073 0.0
C78 C 0.40002 0.10945 0.72516 0.0
C79 C 0.41615 0.01899 0.76109 0.0
O80 O 0.37521 0.04654 0.6846 0.0
O81 O 0.33897 0.99868 0.69901 0.0
O82 O 0.40452 0.07543 0.81665 0.0
O83 O 0.36419 0.03539 0.78995 0.0
Co84 Co 0.62033 0.67707 0.56933 0.0
O85 O 0.63808 0.71999 0.57235 0.0
O86 O 0.59308 0.6875 0.60099 0.0
C87 C 0.63169 0.67437 0.49186 0.0
O88 O 0.59432 0.63123 0.57081 0.0
Co89 Co 0.66052 0.64859 0.55006 0.0
O90 O 0.62133 0.61125 0.54143 0.0
C91 C 0.66031 0.67253 0.64643 0.0
C92 C 0.61378 0.71539 0.59417 0.0
C93 C 0.59661 0.6086 0.5562 0.0
O94 O 0.63914 0.67742 0.63323 0.0
O95 O 0.67315 0.66279 0.61793 0.0
O96 O 0.60831 0.67677 0.50245 0.0
O97 O 0.64886 0.67695 0.52768 0.0
Co98 Co 0.94593 0.61707 0.90466 0.0
O99 O 0.9212 0.63528 0.90728 0.0
O100 O 0.90787 0.59009 0.93576 0.0
C101 C 0.96044 0.62853 0.8274 0.0
O102 O 0.96535 0.59068 0.90633 0.0
Co103 Co 0.01482 0.65694 0.88644 0.0
O104 O 0.01255 0.6176 0.87758 0.0
C105 C 0.99021 0.65671 0.98241 0.0
C106 C 0.90112 0.61108 0.9288 0.0
C107 C 0.9903 0.59289 0.89196 0.0
O108 O 0.96417 0.63561 0.96886 0.0
O109 O 0.01294 0.66955 0.9542 0.0
O110 O 0.93447 0.60529 0.83758 0.0
O111 O 0.97496 0.64552 0.86346 0.0
Co112 Co 0.33141 0.94318 0.23572 0.0
O113 O 0.28843 0.91854 0.23871 0.0
O114 O 0.32032 0.90499 0.2662 0.0
C115 C 0.33433 0.9581 0.15866 0.0
O116 O 0.37719 0.96255 0.23694 0.0
Co117 Co 0.36005 0.01207 0.21926 0.0
O118 O 0.39743 0.01023 0.21059 0.0
C119 C 0.33518 0.98661 0.31446 0.0
C120 C 0.29256 0.89836 0.25978 0.0
C121 C 0.39993 0.98779 0.22365 0.0
O122 O 0.33156 0.96112 0.30047 0.0
O123 O 0.34392 0.00918 0.28623 0.0
O124 O 0.33146 0.93203 0.16833 0.0
O125 O 0.33192 0.9724 0.19512 0.0
Co126 Co 0.39284 0.33012 0.56801 0.0
O127 O 0.37523 0.28722 0.57084 0.0
O128 O 0.42043 0.31979 0.59863 0.0
C129 C 0.38082 0.33288 0.49088 0.0
O130 O 0.41862 0.37592 0.56953 0.0
Co131 Co 0.35182 0.35783 0.55138 0.0
O132 O 0.39073 0.39569 0.54343 0.0
C133 C 0.35257 0.33303 0.64652 0.0
C134 C 0.3997 0.29187 0.59207 0.0
C135 C 0.4158 0.3985 0.55658 0.0
O136 O 0.37471 0.32982 0.63266 0.0
O137 O 0.33856 0.34152 0.61824 0.0
O138 O 0.40429 0.3305 0.50068 0.0
O139 O 0.36389 0.33011 0.52724 0.0
Co140 Co 0.0652 0.38937 0.90126 0.0
O141 O 0.09049 0.37177 0.90412 0.0
O142 O 0.1031 0.41688 0.93224 0.0
C143 C 0.05064 0.37757 0.82398 0.0
O144 O 0.04513 0.4151 0.90285 0.0
Co145 Co 0.99646 0.34835 0.884 0.0
O146 O 0.99751 0.38724 0.87636 0.0
C147 C 0.02171 0.34906 0.97941 0.0
C148 C 0.11028 0.39617 0.92559 0.0
C149 C 0.01973 0.41228 0.88982 0.0
O150 O 0.04717 0.3711 0.96569 0.0
O151 O 0.99924 0.33513 0.95099 0.0
O152 O 0.07648 0.40101 0.83407 0.0
O153 O 0.03636 0.36054 0.86014 0.0
Co154 Co 0.67857 0.06325 0.23584 0.0
O155 O 0.72146 0.08874 0.23868 0.0
O156 O 0.68876 0.10114 0.26668 0.0
C157 C 0.67593 0.04862 0.15864 0.0
O158 O 0.63273 0.04298 0.23733 0.0
Co159 Co 0.65112 0.99457 0.21879 0.0
O160 O 0.61317 0.9954 0.21078 0.0
C161 C 0.67601 0.02015 0.31395 0.0
C162 C 0.71671 0.10847 0.26002 0.0
C163 C 0.61023 0.01755 0.22413 0.0
O164 O 0.67899 0.04543 0.30032 0.0
O165 O 0.6676 0.99769 0.28552 0.0
O166 O 0.67815 0.07439 0.16863 0.0
O167 O 0.67875 0.03446 0.19487 0.0
H168 H 0.34815 0.33517 0.18489 0.0
H169 H 0.3391 0.40854 0.24192 0.0
H170 H 0.36029 0.32518 0.26531 0.0
H171 H 0.35137 0.39855 0.32249 0.0
H172 H 0.33735 0.34562 0.46434 0.0
H173 H 0.32733 0.3577 0.38391 0.0
H174 H 0.40106 0.34928 0.32691 0.0
H175 H 0.41107 0.33707 0.40751 0.0
C176 C 0.34882 0.34921 0.21459 0.0
C177 C 0.34259 0.37258 0.20717 0.0
C178 C 0.35596 0.34359 0.26057 0.0
C179 C 0.35678 0.36109 0.30015 0.0
C180 C 0.35062 0.38453 0.2927 0.0
C181 C 0.34371 0.3903 0.2466 0.0
C182 C 0.35146 0.34638 0.43468 0.0
C183 C 0.37494 0.34031 0.44216 0.0
C184 C 0.34583 0.35349 0.38869 0.0
C185 C 0.36342 0.35444 0.34917 0.0
C186 C 0.38696 0.34843 0.35666 0.0
C187 C 0.39275 0.34155 0.40278 0.0
H188 H 0.01586 0.34694 0.51743 0.0
H189 H 0.93342 0.33751 0.57521 0.0
H190 H 0.03801 0.35848 0.5979 0.0
H191 H 0.95569 0.34919 0.65583 0.0
H192 H 0.99447 0.33416 0.79684 0.0
H193 H 0.97245 0.32464 0.71634 0.0
H194 H 0.05471 0.39877 0.66042 0.0
H195 H 0.07686 0.40827 0.74107 0.0
C196 C 1.00249 0.3474 0.5473 0.0
C197 C 0.97287 0.34123 0.54009 0.0
C198 C 0.01526 0.3542 0.59331 0.0
C199 C 0.99857 0.35472 0.63311 0.0
C200 C 0.96897 0.34865 0.62586 0.0
C201 C 0.95627 0.34208 0.57974 0.0
C202 C 0.00786 0.34845 0.7674 0.0
C203 C 0.03742 0.37192 0.77519 0.0
C204 C 0.99517 0.34311 0.72138 0.0
C205 C 0.01185 0.36098 0.68214 0.0
C206 C 0.04142 0.38447 0.68994 0.0
C207 C 0.05405 0.38997 0.73609 0.0
H208 H 0.60084 0.93177 0.90882 0.0
H209 H 0.67436 0.01432 0.85236 0.0
H210 H 0.61077 0.95389 0.98955 0.0
H211 H 0.6843 0.03632 0.93297 0.0
H212 H 0.67189 0.07483 0.0755 0.0
H213 H 0.65994 0.05279 -0.00531 0.0
H214 H 0.65168 0.97065 0.05098 0.0
H215 H 0.66349 0.99256 0.13164 0.0
C216 C 0.6191 0.95462 0.91367 0.0
C217 C 0.63688 0.9713 0.87437 0.0
C218 C 0.62484 0.96722 0.95985 0.0
C219 C 0.64831 0.99682 0.9675 0.0
C220 C 0.66587 0.01358 0.92805 0.0
C221 C 0.66028 1.0009 0.88198 0.0
C222 C 0.6675 0.05207 0.07057 0.0
C223 C 0.66868 0.03543 0.10981 0.0
C224 C 0.66078 0.03951 0.02433 0.0
C225 C 0.65488 0.01001 0.0166 0.0
C226 C 0.65581 0.99332 0.05597 0.0
C227 C 0.66275 0.00594 0.10208 0.0
H228 H 0.67208 0.59907 0.2406 0.0
H229 H 0.66325 0.673 0.18594 0.0
H230 H 0.65968 0.60842 0.32163 0.0
H231 H 0.65098 0.68233 0.26672 0.0
H232 H 0.60066 0.66994 0.4094 0.0
H233 H 0.61008 0.6576 0.32838 0.0
H234 H 0.68428 0.64936 0.38326 0.0
H235 H 0.67489 0.66158 0.46404 0.0
C236 C 0.66747 0.61727 0.24589 0.0
C237 C 0.66871 0.63536 0.20704 0.0
C238 C 0.66048 0.62267 0.29222 0.0
C239 C 0.65436 0.64608 0.30037 0.0
C240 C 0.65526 0.66392 0.26137 0.0
C241 C 0.66248 0.65868 0.21519 0.0
C242 C 0.61894 0.66546 0.4041 0.0
C243 C 0.6371 0.66681 0.44295 0.0
C244 C 0.62437 0.65849 0.35778 0.0
C245 C 0.64789 0.65252 0.34962 0.0
C246 C 0.66579 0.65353 0.38862 0.0
C247 C 0.66052 0.66073 0.43479 0.0
H248 H 0.01673 0.67153 0.80033 0.0
H249 H 0.93383 0.59819 0.74439 0.0
H250 H 0.03843 0.68148 0.7196 0.0
H251 H 0.95568 0.60815 0.66342 0.0
H252 H 0.99363 0.66245 0.52225 0.0
H253 H 0.97209 0.64962 0.603 0.0
H254 H 0.05458 0.65742 0.65677 0.0
H255 H 0.07628 0.67038 0.57577 0.0
C256 C 1.00318 0.65746 0.77081 0.0
C257 C 0.97354 0.63415 0.77858 0.0
C258 C 0.01569 0.66305 0.72466 0.0
C259 C 0.99874 0.64559 0.68531 0.0
C260 C 0.96915 0.62213 0.6931 0.0
C261 C 0.9567 0.61638 0.73939 0.0
C262 C 0.00717 0.66137 0.55125 0.0
C263 C 0.03667 0.66749 0.54278 0.0
C264 C 0.99475 0.65383 0.5974 0.0
C265 C 0.01165 0.65248 0.63608 0.0
C266 C 0.04115 0.65854 0.62762 0.0
C267 C 0.05352 0.66587 0.58131 0.0
H268 H 0.33813 0.93188 0.07523 0.0
H269 H 0.34781 0.01455 0.13229 0.0
H270 H 0.35063 0.95418 -0.00532 0.0
H271 H 0.36015 0.03672 0.05188 0.0
H272 H 0.4112 0.07549 0.9098 0.0
H273 H 0.40093 0.05321 0.99039 0.0
H274 H 0.32696 0.97127 0.93323 0.0
H275 H 0.33726 0.99342 0.85281 0.0
C276 C 0.34292 0.95479 0.07056 0.0
C277 C 0.34192 0.97145 0.10998 0.0
C278 C 0.34996 0.9675 0.02447 0.0
C279 C 0.35635 0.99718 0.01705 0.0
C280 C 0.35564 0.01391 0.05662 0.0
C281 C 0.34838 1.00114 0.10258 0.0
C282 C 0.39278 0.05272 0.91449 0.0
C283 C 0.37499 0.03622 0.87508 0.0
C284 C 0.38684 0.04002 0.9606 0.0
C285 C 0.36315 0.0105 0.96805 0.0
C286 C 0.34557 0.99394 0.92849 0.0
C287 C 0.35136 0.0067 0.88251 0.0
H288 H 0.12825 0.35482 0.91844 0.0
H289 H 0.15711 0.44415 0.97224 0.0
H290 H 0.17351 0.35756 0.95052 0.0
H291 H 0.20285 0.4468 0.00481 0.0
H292 H 0.29444 0.44455 0.01041 0.0
H293 H 0.2511 0.4468 0.97804 0.0
H294 H 0.19156 0.35793 0.03393 0.0
H295 H 0.23433 0.35558 0.0658 0.0
C296 C 0.14432 0.37514 0.93699 0.0
C297 C 0.13893 0.39919 0.94308 0.0
C298 C 0.17024 0.37664 0.95559 0.0
C299 C 0.19158 0.40224 0.98069 0.0
C300 C 0.1868 0.42679 0.98554 0.0
C301 C 0.1606 0.42522 0.96708 0.0
C302 C 0.27205 0.42563 0.01598 0.0
C303 C 0.26786 0.39979 0.04032 0.0
C304 C 0.24728 0.42697 -0.00237 0.0
C305 C 0.21797 0.40239 0.00297 0.0
C306 C 0.21388 0.37701 0.02848 0.0
C307 C 0.23845 0.37574 0.04694 0.0
H308 H 0.85213 0.29307 0.34414 0.0
H309 H 0.88145 0.23331 0.39912 0.0
H310 H 0.80648 0.24958 0.312 0.0
H311 H 0.83629 0.19041 0.36748 0.0
H312 H 0.77614 0.127 0.25204 0.0
H313 H 0.8186 0.17248 0.28383 0.0
H314 H 0.75833 0.20105 0.33923 0.0
H315 H 0.71529 0.15508 0.30695 0.0
C316 C 0.84876 0.27073 0.34968 0.0
C317 C 0.87055 0.26667 0.37382 0.0
C318 C 0.82261 0.24587 0.33146 0.0
C319 C 0.81802 0.21664 0.33674 0.0
C320 C 0.83944 0.21269 0.36208 0.0
C321 C 0.8653 0.23733 0.38041 0.0
C322 C 0.77179 0.14294 0.27078 0.0
C323 C 0.74227 0.13727 0.27729 0.0
C324 C 0.79618 0.16899 0.28919 0.0
C325 C 0.79179 0.19017 0.31453 0.0
C326 C 0.76237 0.18512 0.31977 0.0
C327 C 0.73778 0.15879 0.30148 0.0
H328 H 0.65386 0.88015 0.73369 0.0
H329 H 0.56506 0.8511 0.67731 0.0
H330 H 0.65161 0.83499 0.70217 0.0
H331 H 0.56292 0.80545 0.64529 0.0
H332 H 0.65513 0.77474 0.587 0.0
H333 H 0.65223 0.81728 0.61867 0.0
H334 H 0.56294 0.75728 0.67279 0.0
H335 H 0.56574 0.71417 0.64063 0.0
C336 C 0.63375 0.86406 0.71469 0.0
C337 C 0.60973 0.86938 0.70768 0.0
C338 C 0.63254 0.8382 0.69643 0.0
C339 C 0.60725 0.81685 0.67074 0.0
C340 C 0.58268 0.82153 0.66502 0.0
C341 C 0.58397 0.84767 0.68317 0.0
C342 C 0.63477 0.77047 0.60544 0.0
C343 C 0.61075 0.74101 0.61161 0.0
C344 C 0.63318 0.7949 0.62378 0.0
C345 C 0.6075 0.7906 0.64869 0.0
C346 C 0.58299 0.76125 0.65365 0.0
C347 C 0.58466 0.73661 0.63544 0.0
H348 H 0.77701 0.65399 0.06379 0.0
H349 H 0.71694 0.56457 0.00985 0.0
H350 H 0.81984 0.65121 0.03311 0.0
H351 H 0.76031 0.5619 0.97863 0.0
H352 H 0.88382 0.65283 0.92006 0.0
H353 H 0.83854 0.65076 0.9507 0.0
H354 H 0.80804 0.56174 0.00683 0.0
H355 H 0.85378 0.5637 0.97564 0.0
C356 C 0.77291 0.63365 0.04546 0.0
C357 C 0.74351 0.60958 0.03896 0.0
C358 C 0.79751 0.63213 0.02768 0.0
C359 C 0.79344 0.60647 0.00299 0.0
C360 C 0.76412 0.58193 -0.00237 0.0
C361 C 0.73933 0.58353 0.01528 0.0
C362 C 0.8675 0.6327 0.93874 0.0
C363 C 0.87255 0.60851 0.94572 0.0
C364 C 0.84157 0.63159 0.95651 0.0
C365 C 0.81989 0.60623 0.98167 0.0
C366 C 0.82436 0.58155 0.98747 0.0
C367 C 0.85056 0.58273 0.96981 0.0
H368 H 0.15469 0.71497 0.34401 0.0
H369 H 0.12616 0.77564 0.39799 0.0
H370 H 0.20061 0.75799 0.31173 0.0
H371 H 0.17166 0.81814 0.36624 0.0
H372 H 0.23347 0.88128 0.25192 0.0
H373 H 0.19031 0.83634 0.28352 0.0
H374 H 0.24887 0.80567 0.33869 0.0
H375 H 0.29261 0.85107 0.30655 0.0
C376 C 0.15828 0.73742 0.34924 0.0
C377 C 0.13667 0.74186 0.37324 0.0
C378 C 0.1846 0.76202 0.33096 0.0
C379 C 0.18957 0.79141 0.33602 0.0
C380 C 0.16825 0.79575 0.36103 0.0
C381 C 0.14219 0.77134 0.37943 0.0
C382 C 0.23729 0.86498 0.27058 0.0
C383 C 0.26655 0.8699 0.27702 0.0
C384 C 0.2125 0.83925 0.2889 0.0
C385 C 0.2162 0.81763 0.3141 0.0
C386 C 0.24534 0.82194 0.31933 0.0
C387 C 0.27035 0.84795 0.30111 0.0
H388 H 0.3587 0.12742 0.73275 0.0
H389 H 0.44787 0.15621 0.67815 0.0
H390 H 0.36123 0.17251 0.70041 0.0
H391 H 0.45031 0.20179 0.64532 0.0
H392 H 0.44758 0.29315 0.6391 0.0
H393 H 0.45018 0.25009 0.67184 0.0
H394 H 0.36123 0.19 0.6166 0.0
H395 H 0.35854 0.2325 0.58435 0.0
C396 C 0.37894 0.14344 0.71397 0.0
C397 C 0.403 0.13807 0.7077 0.0
C398 C 0.38032 0.16926 0.69524 0.0
C399 C 0.40581 0.19051 0.66981 0.0
C400 C 0.43039 0.18579 0.66484 0.0
C401 C 0.42894 0.15969 0.68345 0.0
C402 C 0.42871 0.2707 0.63374 0.0
C403 C 0.40276 0.26627 0.60948 0.0
C404 C 0.43026 0.24609 0.65231 0.0
C405 C 0.40576 0.21673 0.64727 0.0
C406 C 0.38026 0.21239 0.62182 0.0
C407 C 0.37879 0.2368 0.60314 0.0
H408 H 0.30642 0.33618 0.69066 0.0
H409 H 0.38004 0.32037 0.72001 0.0
H410 H 0.29649 0.33477 0.77683 0.0
H411 H 0.37056 0.31977 0.80597 0.0
H412 H 0.33827 0.30411 0.95853 0.0
H413 H 0.33693 0.29427 0.87233 0.0
H414 H 0.32189 0.36831 0.84335 0.0
H415 H 0.32243 0.3777 0.92933 0.0
C416 C 0.32036 0.33218 0.71537 0.0
C417 C 0.34428 0.32876 0.69833 0.0
C418 C 0.31472 0.33151 0.76481 0.0
C419 C 0.3329 0.32746 0.79833 0.0
C420 C 0.35591 0.32263 0.78117 0.0
C421 C 0.36149 0.3232 0.73177 0.0
C422 C 0.33427 0.31806 0.93384 0.0
C423 C 0.33083 0.34195 0.95094 0.0
C424 C 0.33364 0.31247 0.88439 0.0
C425 C 0.32961 0.33068 0.85091 0.0
C426 C 0.32475 0.35364 0.86812 0.0
C427 C 0.32527 0.35917 0.91753 0.0
H428 H 0.03583 0.33542 0.2916 0.0
H429 H 0.94726 0.32196 0.26205 0.0
H430 H 0.04409 0.33337 0.20548 0.0
H431 H 0.95589 0.32072 0.17611 0.0
H432 H 0.97176 0.30383 0.02371 0.0
H433 H 0.96308 0.29437 0.10996 0.0
H434 H 0.05312 0.36693 0.1388 0.0
H435 H 0.06213 0.37591 0.05281 0.0
C436 C 0.01802 0.33182 0.26685 0.0
C437 C 0.99101 0.32923 0.28381 0.0
C438 C 0.02283 0.33077 0.21744 0.0
C439 C 1.00079 0.32719 0.18387 0.0
C440 C 0.97325 0.3232 0.20096 0.0
C441 C 0.96838 0.32413 0.25034 0.0
C442 C 0.98987 0.31751 0.04838 0.0
C443 C 0.01753 0.34089 0.03124 0.0
C444 C 0.98482 0.31216 0.09786 0.0
C445 C 0.00728 0.33007 0.1313 0.0
C446 C 0.03541 0.35249 0.11406 0.0
C447 C 0.0405 0.35779 0.06463 0.0
H448 H 0.63189 0.94581 0.59664 0.0
H449 H 0.70581 0.03521 0.6257 0.0
H450 H 0.64127 0.95447 0.51066 0.0
H451 H 0.71565 0.04352 0.53948 0.0
H452 H 0.68914 0.06042 0.3875 0.0
H453 H 0.69008 0.05166 0.47338 0.0
H454 H 0.67461 0.96243 0.44392 0.0
H455 H 0.67287 0.97083 0.35781 0.0
C456 C 0.65049 0.96713 0.58482 0.0
C457 C 0.66779 0.98997 0.61818 0.0
C458 C 0.65602 0.97202 0.5354 0.0
C459 C 0.67906 0.9998 0.51814 0.0
C460 C 0.69738 0.02207 0.55158 0.0
C461 C 0.6918 0.01723 0.60104 0.0
C462 C 0.68628 0.03903 0.39916 0.0
C463 C 0.68048 0.01618 0.36566 0.0
C464 C 0.68705 0.03409 0.44852 0.0
C465 C 0.68218 0.00624 0.46557 0.0
C466 C 0.67792 0.98394 0.43198 0.0
C467 C 0.67705 0.98883 0.38258 0.0
H468 H 0.68157 0.64206 0.69765 0.0
H469 H 0.65792 0.71138 0.71109 0.0
H470 H 0.68944 0.64342 0.78402 0.0
H471 H 0.66778 0.71441 0.7975 0.0
H472 H 0.64356 0.67938 0.9523 0.0
H473 H 0.64488 0.68723 0.86593 0.0
H474 H 0.71649 0.66645 0.85253 0.0
H475 H 0.71352 0.65658 0.93893 0.0
C476 C 0.67883 0.65818 0.71906 0.0
C477 C 0.66882 0.67638 0.69782 0.0
C478 C 0.68357 0.65917 0.76872 0.0
C479 C 0.67907 0.67889 0.79824 0.0
C480 C 0.67071 0.69835 0.77631 0.0
C481 C 0.66525 0.69681 0.72673 0.0
C482 C 0.65981 0.67682 0.93091 0.0
C483 C 0.67821 0.66706 0.95216 0.0
C484 C 0.66077 0.68156 0.88125 0.0
C485 C 0.68066 0.6773 0.85175 0.0
C486 C 0.7003 0.66918 0.8737 0.0
C487 C 0.6988 0.66372 0.92328 0.0
H488 H 0.05895 0.71198 0.27465 0.0
H489 H 0.96648 0.64128 0.28864 0.0
H490 H 0.05186 0.71428 0.18816 0.0
H491 H 0.95977 0.64193 0.20218 0.0
H492 H 0.94853 0.65384 0.04668 0.0
H493 H 0.95516 0.66408 0.13304 0.0
H494 H 0.04819 0.68676 0.12041 0.0
H495 H 0.04188 0.67848 0.0341 0.0
C496 C 0.0371 0.69696 0.25911 0.0
C497 C 0.01332 0.67634 0.28819 0.0
C498 C 0.03303 0.69807 0.20949 0.0
C499 C 1.00533 0.678 0.18769 0.0
C500 C 0.98129 0.65812 0.21737 0.0
C501 C 0.98516 0.65755 0.26709 0.0
C502 C 0.97046 0.66146 0.06249 0.0
C503 C 0.99465 0.66522 0.03383 0.0
C504 C 0.97427 0.66714 0.11205 0.0
C505 C 1.00215 0.67596 0.13418 0.0
C506 C 0.02652 0.68057 0.10492 0.0
C507 C 0.02287 0.67558 0.05529 0.0
H508 H 0.3223 0.94636 0.38786 0.0
H509 H 0.33893 0.0361 0.3588 0.0
H510 H 0.32194 0.95524 0.47386 0.0
H511 H 0.33776 0.04463 0.44503 0.0
H512 H 0.38079 0.06128 0.59723 0.0
H513 H 0.3713 0.05247 0.51128 0.0
H514 H 0.29676 0.96359 0.54047 0.0
H515 H 0.30671 0.97204 0.62664 0.0
C516 C 0.32536 0.96781 0.39969 0.0
C517 C 0.33108 0.99066 0.36632 0.0
C518 C 0.32493 0.97283 0.44912 0.0
C519 C 0.33006 1.00074 0.46637 0.0
C520 C 0.33427 0.02306 0.43293 0.0
C521 C 0.33481 0.0181 0.38347 0.0
C522 C 0.36214 0.03996 0.58548 0.0
C523 C 0.3448 0.01722 0.61893 0.0
C524 C 0.35655 0.03499 0.53609 0.0
C525 C 0.3334 0.00722 0.51895 0.0
C526 C 0.31511 0.98503 0.55248 0.0
C527 C 0.32075 0.98995 0.60191 0.0
H528 H 0.45355 0.41614 0.11596 0.0
H529 H 0.41759 0.47153 0.06613 0.0
H530 H 0.50396 0.45951 0.11464 0.0
H531 H 0.46837 0.51494 0.06405 0.0
H532 H 0.55789 0.59094 0.12224 0.0
H533 H 0.5076 0.5475 0.12028 0.0
H534 H 0.54288 0.49402 0.05939 0.0
H535 H 0.59362 0.53755 0.06207 0.0
C536 C 0.45634 0.43753 0.1045 0.0
C537 C 0.43135 0.44027 0.09128 0.0
C538 C 0.48537 0.46239 0.10341 0.0
C539 C 0.49026 0.4907 0.08915 0.0
C540 C 0.46535 0.4935 0.07573 0.0
C541 C 0.43623 0.46858 0.07676 0.0
C542 C 0.55508 0.56997 0.10837 0.0
C543 C 0.57997 0.56782 0.09237 0.0
C544 C 0.5261 0.54507 0.10693 0.0
C545 C 0.52115 0.51729 0.08951 0.0
C546 C 0.54596 0.51504 0.07348 0.0
C547 C 0.57505 0.54003 0.07486 0.0
H548 H 0.05854 0.59239 0.39697 0.0
H549 H 0.96975 0.5567 0.45857 0.0
H550 H 0.05124 0.54167 0.39372 0.0
H551 H 0.9628 0.5064 0.45602 0.0
H552 H 0.94844 0.41644 0.40058 0.0
H553 H 0.95576 0.46719 0.39931 0.0
H554 H 0.04714 0.50278 0.4485 0.0
H555 H 0.04014 0.45242 0.44901 0.0
C556 C 0.03755 0.57383 0.40997 0.0
C557 C 0.01479 0.57876 0.42804 0.0
C558 C 0.03339 0.54475 0.40825 0.0
C559 C 0.00639 0.51994 0.4245 0.0
C560 C 0.98367 0.5249 0.4425 0.0
C561 C 0.98781 0.55388 0.44427 0.0
C562 C 0.9701 0.43508 0.41106 0.0
C563 C 0.99364 0.43022 0.42495 0.0
C564 C 0.97427 0.46417 0.41051 0.0
C565 C 1.00207 0.48907 0.42376 0.0
C566 C 0.0256 0.4842 0.4374 0.0
C567 C 0.02145 0.45519 0.43803 0.0
H568 H 0.53821 0.9479 0.73247 0.0
H569 H 0.59374 0.03861 0.78546 0.0
H570 H 0.49499 0.95556 0.73071 0.0
H571 H 0.55059 0.04592 0.7845 0.0
H572 H 0.47378 0.0591 0.7317 0.0
H573 H 0.51694 0.05139 0.7293 0.0
H574 H 0.46199 0.96185 0.78649 0.0
H575 H 0.41886 0.96922 0.78811 0.0
C576 C 0.54123 0.96941 0.74388 0.0
C577 C 0.56953 0.99258 0.75912 0.0
C578 C 0.51642 0.97377 0.74305 0.0
C579 C 0.51933 1.0014 0.7574 0.0
C580 C 0.54762 0.02454 0.7725 0.0
C581 C 0.57236 0.0202 0.77337 0.0
C582 C 0.47089 0.03777 0.74376 0.0
C583 C 0.44277 0.01483 0.7601 0.0
C584 C 0.49567 0.03338 0.74254 0.0
C585 C 0.49291 0.00596 0.75762 0.0
C586 C 0.46481 0.98306 0.7739 0.0
C587 C 0.44009 0.98743 0.77514 0.0
H588 H 0.53917 0.59156 0.58615 0.0
H589 H 0.59333 0.55588 0.52903 0.0
H590 H 0.49568 0.54079 0.58849 0.0
H591 H 0.54994 0.50556 0.53065 0.0
H592 H 0.47355 0.4157 0.58451 0.0
H593 H 0.51689 0.46651 0.58673 0.0
H594 H 0.46178 0.50169 0.53286 0.0
H595 H 0.41847 0.45124 0.53139 0.0
C596 C 0.54183 0.57299 0.57397 0.0
C597 C 0.56982 0.57793 0.55739 0.0
C598 C 0.51687 0.54389 0.57514 0.0
C599 C 0.51935 0.51909 0.55985 0.0
C600 C 0.54733 0.52406 0.5434 0.0
C601 C 0.5722 0.55305 0.54215 0.0
C602 C 0.47065 0.43426 0.57317 0.0
C603 C 0.44245 0.42926 0.55772 0.0
C604 C 0.49553 0.46339 0.57428 0.0
C605 C 0.49279 0.48819 0.56001 0.0
C606 C 0.46459 0.48318 0.54477 0.0
C607 C 0.43977 0.45413 0.54361 0.0
H608 H 0.03994 0.58974 0.86577 0.0
H609 H 0.94944 0.53516 0.92026 0.0
H610 H 0.04679 0.54637 0.86683 0.0
H611 H 0.95664 0.49162 0.92204 0.0
H612 H 0.96977 0.415 0.86386 0.0
H613 H 0.96246 0.45817 0.86611 0.0
H614 H 0.05228 0.51295 0.92244 0.0
H615 H 0.05993 0.46978 0.91944 0.0
C616 C 0.02147 0.56852 0.8782 0.0
C617 C 0.99406 0.56603 0.89288 0.0
C618 C 0.02555 0.54365 0.87914 0.0
C619 C 1.00235 0.51554 0.89471 0.0
C620 C 0.97489 0.51293 0.90941 0.0
C621 C 0.9708 0.53791 0.90856 0.0
C622 C 0.98805 0.43621 0.87678 0.0
C623 C 0.01553 0.43885 0.89134 0.0
C624 C 0.98371 0.46094 0.8784 0.0
C625 C 0.00673 0.48901 0.89454 0.0
C626 C 0.03419 0.4917 0.90929 0.0
C627 C 0.03855 0.46692 0.90771 0.0
H628 H 0.55763 0.96743 0.19806 0.0
H629 H 0.59273 0.05778 0.25258 0.0
H630 H 0.5071 0.96008 0.19914 0.0
H631 H 0.54187 0.0501 0.25445 0.0
H632 H 0.45272 0.03738 0.19699 0.0
H633 H 0.50304 0.04433 0.19839 0.0
H634 H 0.46763 0.95439 0.25419 0.0
H635 H 0.41686 0.94709 0.25204 0.0
C636 C 0.55463 0.98574 0.21051 0.0
C637 C 0.57941 0.01329 0.22512 0.0
C638 C 0.52553 0.98139 0.21144 0.0
C639 C 0.52038 0.00445 0.22695 0.0
C640 C 0.54509 0.03197 0.24175 0.0
C641 C 0.57426 0.03634 0.24085 0.0
C642 C 0.45551 0.01898 0.20961 0.0
C643 C 0.43058 0.9916 0.22438 0.0
C644 C 0.4845 0.02311 0.21072 0.0
C645 C 0.48944 1.0 0.22661 0.0
C646 C 0.46457 0.97257 0.24131 0.0
C647 C 0.43547 0.96841 0.24023 0.0
loop_
_geom_bond_atom_site_label_1
_geom_bond_atom_site_label_2
_geom_bond_distance
_geom_bond_site_symmetry_2
_ccdc_geom_bond_type
Co0 O1 2.216 . S
Co0 O2 2.091 . S
Co0 O4 2.004 . S
Co0 O10 2.021 . S
Co0 O12 2.137 . S
Co0 O13 2.244 . S
O1 Co0 2.216 . S
O1 C8 1.247 . S
O2 Co0 2.091 . S
O2 C8 1.261 . S
C3 O12 1.247 . S
C3 O13 1.272 . S
O4 Co0 2.004 . S
O4 C9 1.259 . S
Co5 O6 2.061 . S
Co5 O11 2.052 . S
Co5 O13 2.135 . S
O6 Co5 2.061 . S
O6 C9 1.235 . S
C7 O10 1.238 1_556 S
C7 O11 1.241 1_556 S
C8 O1 1.247 . S
C8 O2 1.261 . S
C9 O4 1.259 . S
C9 O6 1.235 . S
O10 Co0 2.021 . S
O10 C7 1.238 1_554 S
O11 Co5 2.052 . S
O11 C7 1.241 1_554 S
O12 Co0 2.137 . S
O12 C3 1.247 . S
O13 Co0 2.244 . S
O13 C3 1.272 . S
O13 Co5 2.135 . S
Co14 O15 2.216 . S
Co14 O16 2.091 . S
Co14 O18 2.004 . S
Co14 O24 2.021 . S
Co14 O26 2.137 . S
Co14 O27 2.244 . S
O15 Co14 2.216 . S
O15 C22 1.247 . S
O16 Co14 2.091 . S
O16 C22 1.261 . S
C17 O26 1.247 . S
C17 O27 1.272 . S
O18 Co14 2.004 . S
O18 C23 1.259 . S
Co19 O20 2.061 . S
Co19 O25 2.052 . S
Co19 O27 2.135 1_455 S
O20 Co19 2.061 . S
O20 C23 1.235 1_455 S
C21 O24 1.238 . S
C21 O25 1.241 1_655 S
C22 O15 1.247 . S
C22 O16 1.261 . S
C23 O18 1.259 . S
C23 O20 1.235 1_655 S
O24 Co14 2.021 . S
O24 C21 1.238 . S
O25 Co19 2.052 . S
O25 C21 1.241 1_455 S
O26 Co14 2.137 . S
O26 C17 1.247 . S
O27 Co14 2.244 . S
O27 C17 1.272 . S
O27 Co19 2.135 1_655 S
Co28 O29 2.216 . S
Co28 O30 2.091 . S
Co28 O32 2.004 . S
Co28 O38 2.021 . S
Co28 O40 2.137 . S
Co28 O41 2.244 . S
O29 Co28 2.216 . S
O29 C36 1.247 . S
O30 Co28 2.091 . S
O30 C36 1.261 . S
C31 O40 1.247 . S
C31 O41 1.272 . S
O32 Co28 2.004 . S
O32 C37 1.259 . S
Co33 O34 2.061 . S
Co33 O39 2.052 . S
Co33 O41 2.135 1_545 S
O34 Co33 2.061 . S
O34 C37 1.235 1_545 S
C35 O38 1.238 . S
C35 O39 1.241 1_565 S
C36 O29 1.247 . S
C36 O30 1.261 . S
C37 O32 1.259 . S
C37 O34 1.235 1_565 S
O38 Co28 2.021 . S
O38 C35 1.238 . S
O39 Co33 2.052 . S
O39 C35 1.241 1_545 S
O40 Co28 2.137 . S
O40 C31 1.247 . S
O41 Co28 2.244 . S
O41 C31 1.272 . S
O41 Co33 2.135 1_565 S
Co42 O43 2.216 . S
Co42 O44 2.091 . S
Co42 O46 2.004 . S
Co42 O52 2.021 . S
Co42 O54 2.137 . S
Co42 O55 2.244 . S
O43 Co42 2.216 . S
O43 C50 1.247 . S
O44 Co42 2.091 . S
O44 C50 1.261 . S
C45 O54 1.247 . S
C45 O55 1.272 . S
O46 Co42 2.004 . S
O46 C51 1.259 . S
Co47 O48 2.061 . S
Co47 O53 2.052 . S
Co47 O55 2.135 . S
O48 Co47 2.061 . S
O48 C51 1.235 . S
C49 O52 1.238 1_556 S
C49 O53 1.241 1_556 S
C50 O43 1.247 . S
C50 O44 1.261 . S
C51 O46 1.259 . S
C51 O48 1.235 . S
O52 Co42 2.021 . S
O52 C49 1.238 1_554 S
O53 Co47 2.052 . S
O53 C49 1.241 1_554 S
O54 Co42 2.137 . S
O54 C45 1.247 . S
O55 Co42 2.244 . S
O55 C45 1.272 . S
O55 Co47 2.135 . S
Co56 O57 2.216 . S
Co56 O58 2.091 . S
Co56 O60 2.004 . S
Co56 O66 2.021 . S
Co56 O68 2.137 . S
Co56 O69 2.244 . S
O57 Co56 2.216 . S
O57 C64 1.247 . S
O58 Co56 2.091 . S
O58 C64 1.261 . S
C59 O68 1.247 . S
C59 O69 1.272 . S
O60 Co56 2.004 . S
O60 C65 1.259 . S
Co61 O62 2.061 . S
Co61 O67 2.052 . S
Co61 O69 2.135 1_655 S
O62 Co61 2.061 . S
O62 C65 1.235 1_655 S
C63 O66 1.238 . S
C63 O67 1.241 1_455 S
C64 O57 1.247 . S
C64 O58 1.261 . S
C65 O60 1.259 . S
C65 O62 1.235 1_455 S
O66 Co56 2.021 . S
O66 C63 1.238 . S
O67 Co61 2.052 . S
O67 C63 1.241 1_655 S
O68 Co56 2.137 . S
O68 C59 1.247 . S
O69 Co56 2.244 . S
O69 C59 1.272 . S
O69 Co61 2.135 1_455 S
Co70 O71 2.216 . S
Co70 O72 2.091 . S
Co70 O74 2.004 . S
Co70 O80 2.021 . S
Co70 O82 2.137 . S
Co70 O83 2.244 . S
O71 Co70 2.216 . S
O71 C78 1.247 . S
O72 Co70 2.091 . S
O72 C78 1.261 . S
C73 O82 1.247 . S
C73 O83 1.272 . S
O74 Co70 2.004 . S
O74 C79 1.259 . S
Co75 O76 2.061 . S
Co75 O81 2.052 . S
Co75 O83 2.135 1_565 S
O76 Co75 2.061 . S
O76 C79 1.235 1_565 S
C77 O80 1.238 . S
C77 O81 1.241 1_545 S
C78 O71 1.247 . S
C78 O72 1.261 . S
C79 O74 1.259 . S
C79 O76 1.235 1_545 S
O80 Co70 2.021 . S
O80 C77 1.238 . S
O81 Co75 2.052 . S
O81 C77 1.241 1_565 S
O82 Co70 2.137 . S
O82 C73 1.247 . S
O83 Co70 2.244 . S
O83 C73 1.272 . S
O83 Co75 2.135 1_545 S
Co84 O85 2.216 . S
Co84 O86 2.091 . S
Co84 O88 2.004 . S
Co84 O94 2.021 . S
Co84 O96 2.137 . S
Co84 O97 2.244 . S
O85 Co84 2.216 . S
O85 C92 1.247 . S
O86 Co84 2.091 . S
O86 C92 1.261 . S
C87 O96 1.247 . S
C87 O97 1.272 . S
O88 Co84 2.004 . S
O88 C93 1.259 . S
Co89 O90 2.061 . S
Co89 O95 2.052 . S
Co89 O97 2.135 . S
O90 Co89 2.061 . S
O90 C93 1.235 . S
C91 O94 1.238 . S
C91 O95 1.241 . S
C92 O85 1.247 . S
C92 O86 1.261 . S
C93 O88 1.259 . S
C93 O90 1.235 . S
O94 Co84 2.021 . S
O94 C91 1.238 . S
O95 Co89 2.052 . S
O95 C91 1.241 . S
O96 Co84 2.137 . S
O96 C87 1.247 . S
O97 Co84 2.244 . S
O97 C87 1.272 . S
O97 Co89 2.135 . S
Co98 O99 2.216 . S
Co98 O100 2.091 . S
Co98 O102 2.004 . S
Co98 O108 2.021 . S
Co98 O110 2.137 . S
Co98 O111 2.244 . S
O99 Co98 2.216 . S
O99 C106 1.247 . S
O100 Co98 2.091 . S
O100 C106 1.261 . S
C101 O110 1.247 . S
C101 O111 1.272 . S
O102 Co98 2.004 . S
O102 C107 1.259 . S
Co103 O104 2.061 . S
Co103 O109 2.052 . S
Co103 O111 2.135 1_455 S
O104 Co103 2.061 . S
O104 C107 1.235 1_455 S
C105 O108 1.238 1_554 S
C105 O109 1.241 1_654 S
C106 O99 1.247 . S
C106 O100 1.261 . S
C107 O102 1.259 . S
C107 O104 1.235 1_655 S
O108 Co98 2.021 . S
O108 C105 1.238 1_556 S
O109 Co103 2.052 . S
O109 C105 1.241 1_456 S
O110 Co98 2.137 . S
O110 C101 1.247 . S
O111 Co98 2.244 . S
O111 C101 1.272 . S
O111 Co103 2.135 1_655 S
Co112 O113 2.216 . S
Co112 O114 2.091 . S
Co112 O116 2.004 . S
Co112 O122 2.021 . S
Co112 O124 2.137 . S
Co112 O125 2.244 . S
O113 Co112 2.216 . S
O113 C120 1.247 . S
O114 Co112 2.091 . S
O114 C120 1.261 . S
C115 O124 1.247 . S
C115 O125 1.272 . S
O116 Co112 2.004 . S
O116 C121 1.259 . S
Co117 O118 2.061 . S
Co117 O123 2.052 . S
Co117 O125 2.135 1_545 S
O118 Co117 2.061 . S
O118 C121 1.235 1_545 S
C119 O122 1.238 . S
C119 O123 1.241 1_565 S
C120 O113 1.247 . S
C120 O114 1.261 . S
C121 O116 1.259 . S
C121 O118 1.235 1_565 S
O122 Co112 2.021 . S
O122 C119 1.238 . S
O123 Co117 2.052 . S
O123 C119 1.241 1_545 S
O124 Co112 2.137 . S
O124 C115 1.247 . S
O125 Co112 2.244 . S
O125 C115 1.272 . S
O125 Co117 2.135 1_565 S
Co126 O127 2.216 . S
Co126 O128 2.091 . S
Co126 O130 2.004 . S
Co126 O136 2.021 . S
Co126 O138 2.137 . S
Co126 O139 2.244 . S
O127 Co126 2.216 . S
O127 C134 1.247 . S
O128 Co126 2.091 . S
O128 C134 1.261 . S
C129 O138 1.247 . S
C129 O139 1.272 . S
O130 Co126 2.004 . S
O130 C135 1.259 . S
Co131 O132 2.061 . S
Co131 O137 2.052 . S
Co131 O139 2.135 . S
O132 Co131 2.061 . S
O132 C135 1.235 . S
C133 O136 1.238 . S
C133 O137 1.241 . S
C134 O127 1.247 . S
C134 O128 1.261 . S
C135 O130 1.259 . S
C135 O132 1.235 . S
O136 Co126 2.021 . S
O136 C133 1.238 . S
O137 Co131 2.052 . S
O137 C133 1.241 . S
O138 Co126 2.137 . S
O138 C129 1.247 . S
O139 Co126 2.244 . S
O139 C129 1.272 . S
O139 Co131 2.135 . S
Co140 O141 2.216 . S
Co140 O142 2.091 . S
Co140 O144 2.004 . S
Co140 O150 2.021 . S
Co140 O152 2.137 . S
Co140 O153 2.244 . S
O141 Co140 2.216 . S
O141 C148 1.247 . S
O142 Co140 2.091 . S
O142 C148 1.261 . S
C143 O152 1.247 . S
C143 O153 1.272 . S
O144 Co140 2.004 . S
O144 C149 1.259 . S
Co145 O146 2.061 . S
Co145 O151 2.052 . S
Co145 O153 2.135 1_655 S
O146 Co145 2.061 . S
O146 C149 1.235 1_655 S
C147 O150 1.238 1_554 S
C147 O151 1.241 1_454 S
C148 O141 1.247 . S
C148 O142 1.261 . S
C149 O144 1.259 . S
C149 O146 1.235 1_455 S
O150 Co140 2.021 . S
O150 C147 1.238 1_556 S
O151 Co145 2.052 . S
O151 C147 1.241 1_656 S
O152 Co140 2.137 . S
O152 C143 1.247 . S
O153 Co140 2.244 . S
O153 C143 1.272 . S
O153 Co145 2.135 1_455 S
Co154 O155 2.216 . S
Co154 O156 2.091 . S
Co154 O158 2.004 . S
Co154 O164 2.021 . S
Co154 O166 2.137 . S
Co154 O167 2.244 . S
O155 Co154 2.216 . S
O155 C162 1.247 . S
O156 Co154 2.091 . S
O156 C162 1.261 . S
C157 O166 1.247 . S
C157 O167 1.272 . S
O158 Co154 2.004 . S
O158 C163 1.259 . S
Co159 O160 2.061 . S
Co159 O165 2.052 . S
Co159 O167 2.135 1_565 S
O160 Co159 2.061 . S
O160 C163 1.235 1_565 S
C161 O164 1.238 . S
C161 O165 1.241 1_545 S
C162 O155 1.247 . S
C162 O156 1.261 . S
C163 O158 1.259 . S
C163 O160 1.235 1_545 S
O164 Co154 2.021 . S
O164 C161 1.238 . S
O165 Co159 2.052 . S
O165 C161 1.241 1_565 S
O166 Co154 2.137 . S
O166 C157 1.247 . S
O167 Co154 2.244 . S
O167 C157 1.272 . S
O167 Co159 2.135 1_545 S
H168 C176 0.950 . S
H169 C181 0.950 . S
H170 C178 0.950 . S
H171 C180 0.950 . S
H172 C182 0.950 . S
H173 C184 0.950 . S
H174 C186 0.950 . S
H175 C187 0.950 . S
C176 H168 0.950 . S
C176 C177 1.386 . S
C176 C178 1.391 . S
C177 C176 1.386 . S
C177 C181 1.393 . S
C178 H170 0.950 . S
C178 C176 1.391 . S
C178 C179 1.400 . S
C179 C178 1.400 . S
C179 C180 1.398 . S
C179 C185 1.491 . S
C180 H171 0.950 . S
C180 C179 1.398 . S
C180 C181 1.391 . S
C181 H169 0.950 . S
C181 C177 1.393 . S
C181 C180 1.391 . S
C182 H172 0.950 . S
C182 C183 1.386 . S
C182 C184 1.391 . S
C183 C182 1.386 . S
C183 C187 1.393 . S
C184 H173 0.950 . S
C184 C182 1.391 . S
C184 C185 1.400 . S
C185 C179 1.491 . S
C185 C184 1.400 . S
C185 C186 1.398 . S
C186 H174 0.950 . S
C186 C185 1.398 . S
C186 C187 1.391 . S
C187 H175 0.950 . S
C187 C183 1.393 . S
C187 C186 1.391 . S
H188 C196 0.950 . S
H189 C201 0.950 . S
H190 C198 0.950 . S
H191 C200 0.950 . S
H192 C202 0.950 . S
H193 C204 0.950 . S
H194 C206 0.950 . S
H195 C207 0.950 . S
C196 H188 0.950 . S
C196 C197 1.386 1_455 S
C196 C198 1.391 . S
C197 C196 1.386 1_655 S
C197 C201 1.393 . S
C198 H190 0.950 . S
C198 C196 1.391 . S
C198 C199 1.400 1_455 S
C199 C198 1.400 1_655 S
C199 C200 1.398 . S
C199 C205 1.491 1_655 S
C200 H191 0.950 . S
C200 C199 1.398 . S
C200 C201 1.391 . S
C201 H189 0.950 . S
C201 C197 1.393 . S
C201 C200 1.391 . S
C202 H192 0.950 . S
C202 C203 1.386 1_655 S
C202 C204 1.391 . S
C203 C202 1.386 1_455 S
C203 C207 1.393 . S
C204 H193 0.950 . S
C204 C202 1.391 . S
C204 C205 1.400 1_655 S
C205 C199 1.491 1_455 S
C205 C204 1.400 1_455 S
C205 C206 1.398 . S
C206 H194 0.950 . S
C206 C205 1.398 . S
C206 C207 1.391 . S
C207 H195 0.950 . S
C207 C203 1.393 . S
C207 C206 1.391 . S
H208 C216 0.950 . S
H209 C221 0.957 . S
H210 C218 0.950 . S
H211 C220 0.950 . S
H212 C222 0.950 . S
H213 C224 0.950 . S
H214 C226 0.950 . S
H215 C227 0.957 . S
C216 H208 0.950 . S
C216 C217 1.386 . S
C216 C218 1.391 . S
C217 C216 1.386 . S
C217 C221 1.384 1_565 S
C218 H210 0.950 . S
C218 C216 1.391 . S
C218 C219 1.400 . S
C219 C218 1.400 . S
C219 C220 1.398 1_565 S
C219 C225 1.491 1_566 S
C220 H211 0.950 . S
C220 C219 1.398 1_545 S
C220 C221 1.392 . S
C221 H209 0.957 . S
C221 C217 1.384 1_545 S
C221 C220 1.392 . S
C222 H212 0.950 . S
C222 C223 1.386 . S
C222 C224 1.391 . S
C223 C222 1.386 . S
C223 C227 1.384 1_545 S
C224 H213 0.950 . S
C224 C222 1.391 . S
C224 C225 1.400 . S
C225 C219 1.491 1_544 S
C225 C224 1.400 . S
C225 C226 1.398 1_545 S
C226 H214 0.950 . S
C226 C225 1.398 1_565 S
C226 C227 1.392 . S
C227 H215 0.957 . S
C227 C223 1.384 1_565 S
C227 C226 1.392 . S
H228 C236 0.950 . S
H229 C241 0.950 . S
H230 C238 0.950 . S
H231 C240 0.950 . S
H232 C242 0.950 . S
H233 C244 0.950 . S
H234 C246 0.950 . S
H235 C247 0.950 . S
C236 H228 0.950 . S
C236 C237 1.386 . S
C236 C238 1.391 . S
C237 C236 1.386 . S
C237 C241 1.393 . S
C238 H230 0.950 . S
C238 C236 1.391 . S
C238 C239 1.400 . S
C239 C238 1.400 . S
C239 C240 1.398 . S
C239 C245 1.491 . S
C240 H231 0.950 . S
C240 C239 1.398 . S
C240 C241 1.391 . S
C241 H229 0.950 . S
C241 C237 1.393 . S
C241 C240 1.391 . S
C242 H232 0.950 . S
C242 C243 1.386 . S
C242 C244 1.391 . S
C243 C242 1.386 . S
C243 C247 1.393 . S
C244 H233 0.950 . S
C244 C242 1.391 . S
C244 C245 1.400 . S
C245 C239 1.491 . S
C245 C244 1.400 . S
C245 C246 1.398 . S
C246 H234 0.950 . S
C246 C245 1.398 . S
C246 C247 1.391 . S
C247 H235 0.950 . S
C247 C243 1.393 . S
C247 C246 1.391 . S
H248 C256 0.950 . S
H249 C261 0.950 . S
H250 C258 0.950 . S
H251 C260 0.950 . S
H252 C262 0.950 . S
H253 C264 0.950 . S
H254 C266 0.950 . S
H255 C267 0.950 . S
C256 H248 0.950 . S
C256 C257 1.386 . S
C256 C258 1.391 . S
C257 C256 1.386 . S
C257 C261 1.393 . S
C258 H250 0.950 . S
C258 C256 1.391 . S
C258 C259 1.400 . S
C259 C258 1.400 . S
C259 C260 1.398 . S
C259 C265 1.491 1_655 S
C260 H251 0.950 . S
C260 C259 1.398 . S
C260 C261 1.391 . S
C261 H249 0.950 . S
C261 C257 1.393 . S
C261 C260 1.391 . S
C262 H252 0.950 . S
C262 C263 1.386 . S
C262 C264 1.391 . S
C263 C262 1.386 . S
C263 C267 1.393 . S
C264 H253 0.950 . S
C264 C262 1.391 . S
C264 C265 1.400 . S
C265 C259 1.491 1_455 S
C265 C264 1.400 . S
C265 C266 1.398 . S
C266 H254 0.950 . S
C266 C265 1.398 . S
C266 C267 1.391 . S
C267 H255 0.950 . S
C267 C263 1.393 . S
C267 C266 1.391 . S
H268 C276 0.950 . S
H269 C281 0.950 . S
H270 C278 0.950 . S
H271 C280 0.950 . S
H272 C282 0.950 . S
H273 C284 0.950 . S
H274 C286 0.950 . S
H275 C287 0.950 . S
C276 H268 0.950 . S
C276 C277 1.386 . S
C276 C278 1.391 . S
C277 C276 1.386 . S
C277 C281 1.393 1_565 S
C278 H270 0.950 . S
C278 C276 1.391 . S
C278 C279 1.400 . S
C279 C278 1.400 . S
C279 C280 1.398 1_565 S
C279 C285 1.491 1_564 S
C280 H271 0.950 . S
C280 C279 1.398 1_545 S
C280 C281 1.391 . S
C281 H269 0.950 . S
C281 C277 1.393 1_545 S
C281 C280 1.391 . S
C282 H272 0.950 . S
C282 C283 1.386 . S
C282 C284 1.391 . S
C283 C282 1.386 . S
C283 C287 1.393 1_545 S
C284 H273 0.950 . S
C284 C282 1.391 . S
C284 C285 1.400 . S
C285 C279 1.491 1_546 S
C285 C284 1.400 . S
C285 C286 1.398 1_545 S
C286 H274 0.950 . S
C286 C285 1.398 1_565 S
C286 C287 1.391 . S
C287 H275 0.950 . S
C287 C283 1.393 1_565 S
C287 C286 1.391 . S
H288 C296 0.950 . S
H289 C301 0.950 . S
H290 C298 0.950 1_554 S
H291 C300 0.950 . S
H292 C302 0.950 . S
H293 C304 0.950 1_556 S
H294 C306 0.950 . S
H295 C307 0.950 . S
C296 H288 0.950 . S
C296 C297 1.386 . S
C296 C298 1.391 . S
C297 C296 1.386 . S
C297 C301 1.393 . S
C298 H290 0.950 1_556 S
C298 C296 1.391 . S
C298 C299 1.400 . S
C299 C298 1.400 . S
C299 C300 1.398 . S
C299 C305 1.491 1_556 S
C300 H291 0.950 . S
C300 C299 1.398 . S
C300 C301 1.391 . S
C301 H289 0.950 . S
C301 C297 1.393 . S
C301 C300 1.391 . S
C302 H292 0.950 . S
C302 C303 1.386 . S
C302 C304 1.391 . S
C303 C302 1.386 . S
C303 C307 1.393 . S
C304 H293 0.950 1_554 S
C304 C302 1.391 . S
C304 C305 1.400 . S
C305 C299 1.491 1_554 S
C305 C304 1.400 . S
C305 C306 1.398 . S
C306 H294 0.950 . S
C306 C305 1.398 . S
C306 C307 1.391 . S
C307 H295 0.950 . S
C307 C303 1.393 . S
C307 C306 1.391 . S
H308 C316 0.950 . S
H309 C321 0.950 . S
H310 C318 0.950 . S
H311 C320 0.950 . S
H312 C322 0.950 . S
H313 C324 0.950 . S
H314 C326 0.950 . S
H315 C327 0.950 . S
C316 H308 0.950 . S
C316 C317 1.386 . S
C316 C318 1.391 . S
C317 C316 1.386 . S
C317 C321 1.393 . S
C318 H310 0.950 . S
C318 C316 1.391 . S
C318 C319 1.400 . S
C319 C318 1.400 . S
C319 C320 1.398 . S
C319 C325 1.491 . S
C320 H311 0.950 . S
C320 C319 1.398 . S
C320 C321 1.391 . S
C321 H309 0.950 . S
C321 C317 1.393 . S
C321 C320 1.391 . S
C322 H312 0.950 . S
C322 C323 1.386 . S
C322 C324 1.391 . S
C323 C322 1.386 . S
C323 C327 1.393 . S
C324 H313 0.950 . S
C324 C322 1.391 . S
C324 C325 1.400 . S
C325 C319 1.491 . S
C325 C324 1.400 . S
C325 C326 1.398 . S
C326 H314 0.950 . S
C326 C325 1.398 . S
C326 C327 1.391 . S
C327 H315 0.950 . S
C327 C323 1.393 . S
C327 C326 1.391 . S
H328 C336 0.950 . S
H329 C341 0.950 . S
H330 C338 0.950 . S
H331 C340 0.950 . S
H332 C342 0.950 . S
H333 C344 0.950 . S
H334 C346 0.950 . S
H335 C347 0.950 . S
C336 H328 0.950 . S
C336 C337 1.386 . S
C336 C338 1.391 . S
C337 C336 1.386 . S
C337 C341 1.393 . S
C338 H330 0.950 . S
C338 C336 1.391 . S
C338 C339 1.400 . S
C339 C338 1.400 . S
C339 C340 1.398 . S
C339 C345 1.491 . S
C340 H331 0.950 . S
C340 C339 1.398 . S
C340 C341 1.391 . S
C341 H329 0.950 . S
C341 C337 1.393 . S
C341 C340 1.391 . S
C342 H332 0.950 . S
C342 C343 1.386 . S
C342 C344 1.391 . S
C343 C342 1.386 . S
C343 C347 1.393 . S
C344 H333 0.950 . S
C344 C342 1.391 . S
C344 C345 1.400 . S
C345 C339 1.491 . S
C345 C344 1.400 . S
C345 C346 1.398 . S
C346 H334 0.950 . S
C346 C345 1.398 . S
C346 C347 1.391 . S
C347 H335 0.950 . S
C347 C343 1.393 . S
C347 C346 1.391 . S
H348 C356 0.950 . S
H349 C361 0.950 . S
H350 C358 0.950 . S
H351 C360 0.950 . S
H352 C362 0.950 . S
H353 C364 0.950 . S
H354 C366 0.950 . S
H355 C367 0.950 . S
C356 H348 0.950 . S
C356 C357 1.386 . S
C356 C358 1.391 . S
C357 C356 1.386 . S
C357 C361 1.393 1_554 S
C358 H350 0.950 . S
C358 C356 1.391 . S
C358 C359 1.400 . S
C359 C358 1.400 . S
C359 C360 1.398 1_554 S
C359 C365 1.491 1_554 S
C360 H351 0.950 . S
C360 C359 1.398 1_556 S
C360 C361 1.391 . S
C361 H349 0.950 . S
C361 C357 1.393 1_556 S
C361 C360 1.391 . S
C362 H352 0.950 . S
C362 C363 1.386 . S
C362 C364 1.391 . S
C363 C362 1.386 . S
C363 C367 1.393 1_556 S
C364 H353 0.950 . S
C364 C362 1.391 . S
C364 C365 1.400 . S
C365 C359 1.491 1_556 S
C365 C364 1.400 . S
C365 C366 1.398 1_556 S
C366 H354 0.950 . S
C366 C365 1.398 1_554 S
C366 C367 1.391 . S
C367 H355 0.950 . S
C367 C363 1.393 1_554 S
C367 C366 1.391 . S
H368 C376 0.950 . S
H369 C381 0.950 . S
H370 C378 0.950 . S
H371 C380 0.950 . S
H372 C382 0.950 . S
H373 C384 0.950 . S
H374 C386 0.950 . S
H375 C387 0.950 . S
C376 H368 0.950 . S
C376 C377 1.386 . S
C376 C378 1.391 . S
C377 C376 1.386 . S
C377 C381 1.393 . S
C378 H370 0.950 . S
C378 C376 1.391 . S
C378 C379 1.400 . S
C379 C378 1.400 . S
C379 C380 1.398 . S
C379 C385 1.491 . S
C380 H371 0.950 . S
C380 C379 1.398 . S
C380 C381 1.391 . S
C381 H369 0.950 . S
C381 C377 1.393 . S
C381 C380 1.391 . S
C382 H372 0.950 . S
C382 C383 1.386 . S
C382 C384 1.391 . S
C383 C382 1.386 . S
C383 C387 1.393 . S
C384 H373 0.950 . S
C384 C382 1.391 . S
C384 C385 1.400 . S
C385 C379 1.491 . S
C385 C384 1.400 . S
C385 C386 1.398 . S
C386 H374 0.950 . S
C386 C385 1.398 . S
C386 C387 1.391 . S
C387 H375 0.950 . S
C387 C383 1.393 . S
C387 C386 1.391 . S
H388 C396 0.950 . S
H389 C401 0.950 . S
H390 C398 0.950 . S
H391 C400 0.950 . S
H392 C402 0.950 . S
H393 C404 0.950 . S
H394 C406 0.950 . S
H395 C407 0.950 . S
C396 H388 0.950 . S
C396 C397 1.386 . S
C396 C398 1.391 . S
C397 C396 1.386 . S
C397 C401 1.393 . S
C398 H390 0.950 . S
C398 C396 1.391 . S
C398 C399 1.400 . S
C399 C398 1.400 . S
C399 C400 1.398 . S
C399 C405 1.491 . S
C400 H391 0.950 . S
C400 C399 1.398 . S
C400 C401 1.391 . S
C401 H389 0.950 . S
C401 C397 1.393 . S
C401 C400 1.391 . S
C402 H392 0.950 . S
C402 C403 1.386 . S
C402 C404 1.391 . S
C403 C402 1.386 . S
C403 C407 1.393 . S
C404 H393 0.950 . S
C404 C402 1.391 . S
C404 C405 1.400 . S
C405 C399 1.491 . S
C405 C404 1.400 . S
C405 C406 1.398 . S
C406 H394 0.950 . S
C406 C405 1.398 . S
C406 C407 1.391 . S
C407 H395 0.950 . S
C407 C403 1.393 . S
C407 C406 1.391 . S
H408 C416 0.950 . S
H409 C421 0.950 . S
H410 C418 0.950 . S
H411 C420 0.950 . S
H412 C422 0.950 . S
H413 C424 0.950 . S
H414 C426 0.950 . S
H415 C427 0.950 . S
C416 H408 0.950 . S
C416 C417 1.386 . S
C416 C418 1.391 . S
C417 C416 1.386 . S
C417 C421 1.393 . S
C418 H410 0.950 . S
C418 C416 1.391 . S
C418 C419 1.400 . S
C419 C418 1.400 . S
C419 C420 1.398 . S
C419 C425 1.491 . S
C420 H411 0.950 . S
C420 C419 1.398 . S
C420 C421 1.391 . S
C421 H409 0.950 . S
C421 C417 1.393 . S
C421 C420 1.391 . S
C422 H412 0.950 . S
C422 C423 1.386 . S
C422 C424 1.391 . S
C423 C422 1.386 . S
C423 C427 1.393 . S
C424 H413 0.950 . S
C424 C422 1.391 . S
C424 C425 1.400 . S
C425 C419 1.491 . S
C425 C424 1.400 . S
C425 C426 1.398 . S
C426 H414 0.950 . S
C426 C425 1.398 . S
C426 C427 1.391 . S
C427 H415 0.950 . S
C427 C423 1.393 . S
C427 C426 1.391 . S
H428 C436 0.935 1_455 S
H429 C441 0.950 . S
H430 C438 0.950 . S
H431 C440 0.950 . S
H432 C442 0.935 1_655 S
H433 C444 0.950 . S
H434 C446 0.950 . S
H435 C447 0.950 . S
C436 H428 0.935 1_655 S
C436 C437 1.402 . S
C436 C438 1.390 1_655 S
C437 C436 1.402 . S
C437 C441 1.393 . S
C438 H430 0.950 . S
C438 C436 1.390 1_455 S
C438 C439 1.400 1_455 S
C439 C438 1.400 1_655 S
C439 C440 1.398 . S
C439 C445 1.491 1_655 S
C440 H431 0.950 . S
C440 C439 1.398 . S
C440 C441 1.391 . S
C441 H429 0.950 . S
C441 C437 1.393 . S
C441 C440 1.391 . S
C442 H432 0.935 1_455 S
C442 C443 1.402 . S
C442 C444 1.390 1_455 S
C443 C442 1.402 . S
C443 C447 1.393 . S
C444 H433 0.950 . S
C444 C442 1.390 1_655 S
C444 C445 1.400 1_655 S
C445 C439 1.491 1_455 S
C445 C444 1.400 1_455 S
C445 C446 1.398 . S
C446 H434 0.950 . S
C446 C445 1.398 . S
C446 C447 1.391 . S
C447 H435 0.950 . S
C447 C443 1.393 . S
C447 C446 1.391 . S
H448 C456 0.950 . S
H449 C461 0.950 . S
H450 C458 0.950 . S
H451 C460 0.950 . S
H452 C462 0.950 . S
H453 C464 0.950 . S
H454 C466 0.950 . S
H455 C467 0.950 . S
C456 H448 0.950 . S
C456 C457 1.386 . S
C456 C458 1.391 . S
C457 C456 1.386 . S
C457 C461 1.393 1_565 S
C458 H450 0.950 . S
C458 C456 1.391 . S
C458 C459 1.419 . S
C459 C458 1.419 . S
C459 C460 1.381 1_565 S
C459 C465 1.490 1_565 S
C460 H451 0.950 . S
C460 C459 1.381 1_545 S
C460 C461 1.391 . S
C461 H449 0.950 . S
C461 C457 1.393 1_545 S
C461 C460 1.391 . S
C462 H452 0.950 . S
C462 C463 1.386 . S
C462 C464 1.391 . S
C463 C462 1.386 . S
C463 C467 1.393 1_545 S
C464 H453 0.950 . S
C464 C462 1.391 . S
C464 C465 1.419 . S
C465 C459 1.490 1_545 S
C465 C464 1.419 . S
C465 C466 1.381 1_545 S
C466 H454 0.950 . S
C466 C465 1.381 1_565 S
C466 C467 1.391 . S
C467 H455 0.950 . S
C467 C463 1.393 1_565 S
C467 C466 1.391 . S
H468 C476 0.950 . S
H469 C481 0.950 . S
H470 C478 0.950 . S
H471 C480 0.950 . S
H472 C482 0.950 . S
H473 C484 0.950 . S
H474 C486 0.950 . S
H475 C487 0.950 . S
C476 H468 0.950 . S
C476 C477 1.386 . S
C476 C478 1.391 . S
C477 C476 1.386 . S
C477 C481 1.393 . S
C478 H470 0.950 . S
C478 C476 1.391 . S
C478 C479 1.400 . S
C479 C478 1.400 . S
C479 C480 1.398 . S
C479 C485 1.491 . S
C480 H471 0.950 . S
C480 C479 1.398 . S
C480 C481 1.391 . S
C481 H469 0.950 . S
C481 C477 1.393 . S
C481 C480 1.391 . S
C482 H472 0.950 . S
C482 C483 1.386 . S
C482 C484 1.391 . S
C483 C482 1.386 . S
C483 C487 1.393 . S
C484 H473 0.950 . S
C484 C482 1.391 . S
C484 C485 1.400 . S
C485 C479 1.491 . S
C485 C484 1.400 . S
C485 C486 1.398 . S
C486 H474 0.950 . S
C486 C485 1.398 . S
C486 C487 1.391 . S
C487 H475 0.950 . S
C487 C483 1.393 . S
C487 C486 1.391 . S
H488 C496 0.950 . S
H489 C501 0.950 . S
H490 C498 0.950 . S
H491 C500 0.950 . S
H492 C502 0.950 . S
H493 C504 0.950 . S
H494 C506 0.950 . S
H495 C507 0.950 . S
C496 H488 0.950 . S
C496 C497 1.386 . S
C496 C498 1.391 . S
C497 C496 1.386 . S
C497 C501 1.393 1_455 S
C498 H490 0.950 . S
C498 C496 1.391 . S
C498 C499 1.400 . S
C499 C498 1.400 . S
C499 C500 1.398 1_455 S
C499 C505 1.491 1_455 S
C500 H491 0.950 . S
C500 C499 1.398 1_655 S
C500 C501 1.391 . S
C501 H489 0.950 . S
C501 C497 1.393 1_655 S
C501 C500 1.391 . S
C502 H492 0.950 . S
C502 C503 1.386 . S
C502 C504 1.391 . S
C503 C502 1.386 . S
C503 C507 1.393 1_655 S
C504 H493 0.950 . S
C504 C502 1.391 . S
C504 C505 1.400 . S
C505 C499 1.491 1_655 S
C505 C504 1.400 . S
C505 C506 1.398 1_655 S
C506 H494 0.950 . S
C506 C505 1.398 1_455 S
C506 C507 1.391 . S
C507 H495 0.950 . S
C507 C503 1.393 1_455 S
C507 C506 1.391 . S
H508 C516 0.950 . S
H509 C521 0.950 1_545 S
H510 C518 0.950 . S
H511 C520 0.942 . S
H512 C522 0.950 . S
H513 C524 0.950 . S
H514 C526 0.943 . S
H515 C527 0.950 1_565 S
C516 H508 0.950 . S
C516 C517 1.386 . S
C516 C518 1.391 . S
C517 C516 1.386 . S
C517 C521 1.393 . S
C518 H510 0.950 . S
C518 C516 1.391 . S
C518 C519 1.400 . S
C519 C518 1.400 . S
C519 C520 1.407 1_565 S
C519 C525 1.491 1_565 S
C520 H511 0.942 . S
C520 C519 1.407 1_545 S
C520 C521 1.390 1_545 S
C521 H509 0.950 1_565 S
C521 C517 1.393 . S
C521 C520 1.390 1_565 S
C522 H512 0.950 . S
C522 C523 1.386 . S
C522 C524 1.391 . S
C523 C522 1.386 . S
C523 C527 1.393 . S
C524 H513 0.950 . S
C524 C522 1.391 . S
C524 C525 1.400 . S
C525 C519 1.491 1_545 S
C525 C524 1.400 . S
C525 C526 1.407 1_545 S
C526 H514 0.943 . S
C526 C525 1.407 1_565 S
C526 C527 1.390 1_565 S
C527 H515 0.950 1_545 S
C527 C523 1.393 . S
C527 C526 1.390 1_545 S
H528 C536 0.950 . S
H529 C541 0.950 . S
H530 C538 0.950 . S
H531 C540 0.950 . S
H532 C542 0.950 . S
H533 C544 0.950 . S
H534 C546 0.950 . S
H535 C547 0.950 . S
C536 H528 0.950 . S
C536 C537 1.386 . S
C536 C538 1.391 . S
C537 C536 1.386 . S
C537 C541 1.393 . S
C538 H530 0.950 . S
C538 C536 1.391 . S
C538 C539 1.400 . S
C539 C538 1.400 . S
C539 C540 1.398 . S
C539 C545 1.491 . S
C540 H531 0.950 . S
C540 C539 1.398 . S
C540 C541 1.391 . S
C541 H529 0.950 . S
C541 C537 1.393 . S
C541 C540 1.391 . S
C542 H532 0.950 . S
C542 C543 1.386 . S
C542 C544 1.391 . S
C543 C542 1.386 . S
C543 C547 1.393 . S
C544 H533 0.950 . S
C544 C542 1.391 . S
C544 C545 1.400 . S
C545 C539 1.491 . S
C545 C544 1.400 . S
C545 C546 1.398 . S
C546 H534 0.950 . S
C546 C545 1.398 . S
C546 C547 1.391 . S
C547 H535 0.950 . S
C547 C543 1.393 . S
C547 C546 1.391 . S
H548 C556 0.950 . S
H549 C561 0.950 . S
H550 C558 0.950 . S
H551 C560 0.950 . S
H552 C562 0.950 . S
H553 C564 0.950 . S
H554 C566 0.950 . S
H555 C567 0.950 . S
C556 H548 0.950 . S
C556 C557 1.386 . S
C556 C558 1.391 . S
C557 C556 1.386 . S
C557 C561 1.393 1_455 S
C558 H550 0.950 . S
C558 C556 1.391 . S
C558 C559 1.400 . S
C559 C558 1.400 . S
C559 C560 1.398 1_455 S
C559 C565 1.491 1_455 S
C560 H551 0.950 . S
C560 C559 1.398 1_655 S
C560 C561 1.391 . S
C561 H549 0.950 . S
C561 C557 1.393 1_655 S
C561 C560 1.391 . S
C562 H552 0.950 . S
C562 C563 1.386 . S
C562 C564 1.391 . S
C563 C562 1.386 . S
C563 C567 1.393 1_655 S
C564 H553 0.950 . S
C564 C562 1.391 . S
C564 C565 1.400 . S
C565 C559 1.491 1_655 S
C565 C564 1.400 . S
C565 C566 1.398 1_655 S
C566 H554 0.950 . S
C566 C565 1.398 1_455 S
C566 C567 1.391 . S
C567 H555 0.950 . S
C567 C563 1.393 1_455 S
C567 C566 1.391 . S
H568 C576 0.950 . S
H569 C581 0.950 . S
H570 C578 0.950 . S
H571 C580 0.950 . S
H572 C582 0.950 . S
H573 C584 0.950 . S
H574 C586 0.950 . S
H575 C587 0.950 . S
C576 H568 0.950 . S
C576 C577 1.386 . S
C576 C578 1.391 . S
C577 C576 1.386 . S
C577 C581 1.393 1_565 S
C578 H570 0.950 . S
C578 C576 1.391 . S
C578 C579 1.400 . S
C579 C578 1.400 . S
C579 C580 1.398 1_565 S
C579 C585 1.491 1_565 S
C580 H571 0.950 . S
C580 C579 1.398 1_545 S
C580 C581 1.391 . S
C581 H569 0.950 . S
C581 C577 1.393 1_545 S
C581 C580 1.391 . S
C582 H572 0.950 . S
C582 C583 1.386 . S
C582 C584 1.391 . S
C583 C582 1.386 . S
C583 C587 1.393 1_545 S
C584 H573 0.950 . S
C584 C582 1.391 . S
C584 C585 1.400 . S
C585 C579 1.491 1_545 S
C585 C584 1.400 . S
C585 C586 1.398 1_545 S
C586 H574 0.950 . S
C586 C585 1.398 1_565 S
C586 C587 1.391 . S
C587 H575 0.950 . S
C587 C583 1.393 1_565 S
C587 C586 1.391 . S
H588 C596 0.950 . S
H589 C601 0.950 . S
H590 C598 0.950 . S
H591 C600 0.950 . S
H592 C602 0.950 . S
H593 C604 0.950 . S
H594 C606 0.950 . S
H595 C607 0.950 . S
C596 H588 0.950 . S
C596 C597 1.386 . S
C596 C598 1.391 . S
C597 C596 1.386 . S
C597 C601 1.393 . S
C598 H590 0.950 . S
C598 C596 1.391 . S
C598 C599 1.400 . S
C599 C598 1.400 . S
C599 C600 1.398 . S
C599 C605 1.491 . S
C600 H591 0.950 . S
C600 C599 1.398 . S
C600 C601 1.391 . S
C601 H589 0.950 . S
C601 C597 1.393 . S
C601 C600 1.391 . S
C602 H592 0.950 . S
C602 C603 1.386 . S
C602 C604 1.391 . S
C603 C602 1.386 . S
C603 C607 1.393 . S
C604 H593 0.950 . S
C604 C602 1.391 . S
C604 C605 1.400 . S
C605 C599 1.491 . S
C605 C604 1.400 . S
C605 C606 1.398 . S
C606 H594 0.950 . S
C606 C605 1.398 . S
C606 C607 1.391 . S
C607 H595 0.950 . S
C607 C603 1.393 . S
C607 C606 1.391 . S
H608 C616 0.950 . S
H609 C621 0.950 . S
H610 C618 0.950 . S
H611 C620 0.950 . S
H612 C622 0.950 . S
H613 C624 0.950 . S
H614 C626 0.950 . S
H615 C627 0.950 . S
C616 H608 0.950 . S
C616 C617 1.386 1_455 S
C616 C618 1.391 . S
C617 C616 1.386 1_655 S
C617 C621 1.393 . S
C618 H610 0.950 . S
C618 C616 1.391 . S
C618 C619 1.400 1_455 S
C619 C618 1.400 1_655 S
C619 C620 1.398 . S
C619 C625 1.491 1_655 S
C620 H611 0.950 . S
C620 C619 1.398 . S
C620 C621 1.391 . S
C621 H609 0.950 . S
C621 C617 1.393 . S
C621 C620 1.391 . S
C622 H612 0.950 . S
C622 C623 1.386 1_655 S
C622 C624 1.391 . S
C623 C622 1.386 1_455 S
C623 C627 1.393 . S
C624 H613 0.950 . S
C624 C622 1.391 . S
C624 C625 1.400 1_655 S
C625 C619 1.491 1_455 S
C625 C624 1.400 1_455 S
C625 C626 1.398 . S
C626 H614 0.950 . S
C626 C625 1.398 . S
C626 C627 1.391 . S
C627 H615 0.950 . S
C627 C623 1.393 . S
C627 C626 1.391 . S
H628 C636 0.950 . S
H629 C641 0.950 . S
H630 C638 0.950 . S
H631 C640 0.950 . S
H632 C642 0.950 . S
H633 C644 0.950 . S
H634 C646 0.950 . S
H635 C647 0.950 . S
C636 H628 0.950 . S
C636 C637 1.386 1_565 S
C636 C638 1.391 . S
C637 C636 1.386 1_545 S
C637 C641 1.393 . S
C638 H630 0.950 . S
C638 C636 1.391 . S
C638 C639 1.400 1_565 S
C639 C638 1.400 1_545 S
C639 C640 1.398 . S
C639 C645 1.491 1_545 S
C640 H631 0.950 . S
C640 C639 1.398 . S
C640 C641 1.391 . S
C641 H629 0.950 . S
C641 C637 1.393 . S
C641 C640 1.391 . S
C642 H632 0.950 . S
C642 C643 1.386 1_545 S
C642 C644 1.391 . S
C643 C642 1.386 1_565 S
C643 C647 1.393 . S
C644 H633 0.950 . S
C644 C642 1.391 . S
C644 C645 1.400 1_545 S
C645 C639 1.491 1_565 S
C645 C644 1.400 1_565 S
C645 C646 1.398 . S
C646 H634 0.950 . S
C646 C645 1.398 . S
C646 C647 1.391 . S
C647 H635 0.950 . S
C647 C643 1.393 . S
C647 C646 1.391 . S
C177 C3 1.484 . S
C183 C129 1.489 . S
C197 C17 1.483 . S
C203 C143 1.494 . S
C217 C31 1.500 . S
C223 C157 1.497 . S
C237 C45 1.501 . S
C243 C87 1.489 . S
C257 C101 1.486 . S
C263 C59 1.485 . S
C277 C115 1.501 . S
C283 C73 1.495 . S
C297 C148 1.589 . S
C303 C8 1.588 . S
C317 C22 1.579 . S
C323 C162 1.580 . S
C337 C36 1.581 . S
C343 C92 1.585 . S
C357 C50 1.582 . S
C363 C106 1.587 . S
C377 C64 1.582 . S
C383 C120 1.579 . S
C397 C78 1.587 . S
C403 C134 1.589 . S
C417 C133 0.735 . S
C423 C7 0.718 . S
C437 C21 0.727 . S
C443 C147 0.725 . S
C457 C35 0.713 . S
C463 C161 0.741 . S
C477 C91 0.740 . S
C483 C49 0.713 . S
C497 C63 0.711 . S
C503 C105 0.742 . S
C517 C119 0.721 . S
C523 C77 0.731 . S
C537 C9 1.519 . S
C543 C51 1.518 . S
C557 C65 1.514 . S
C563 C23 1.515 . S
C577 C37 1.509 . S
C583 C79 1.510 . S
C597 C93 1.507 . S
C603 C135 1.508 . S
C617 C107 1.520 . S
C623 C149 1.519 . S
C637 C163 1.512 . S
C643 C121 1.511 . S
