# Generated by pormake.
# Topology rob, (6)-cn, num edge types: 1
# Building blocks:
#     Node 0, Type 0, BuildingBlock: GEDQOX_clean_sbu_0, # of connection points: 6
#     Node 1, Type 0, BuildingBlock: GEDQOX_clean_sbu_0, # of connection points: 6
#     Node 2, Type 0, BuildingBlock: GEDQOX_clean_sbu_0, # of connection points: 6
#     Node 3, Type 0, BuildingBlock: GEDQOX_clean_sbu_0, # of connection points: 6
#     Edge 4, Type (0, 0), BuildingBlock: FUNLAD_clean_linker_1, # of connection points: 2
#     Edge 5, Type (0, 0), BuildingBlock: FUNLAD_clean_linker_1, # of connection points: 2
#     Edge 6, Type (0, 0), BuildingBlock: FUNLAD_clean_linker_1, # of connection points: 2
#     Edge 7, Type (0, 0), BuildingBlock: FUNLAD_clean_linker_1, # of connection points: 2
#     Edge 8, Type (0, 0), BuildingBlock: FUNLAD_clean_linker_1, # of connection points: 2
#     Edge 9, Type (0, 0), BuildingBlock: FUNLAD_clean_linker_1, # of connection points: 2
#     Edge 10, Type (0, 0), BuildingBlock: FUNLAD_clean_linker_1, # of connection points: 2
#     Edge 11, Type (0, 0), BuildingBlock: FUNLAD_clean_linker_1, # of connection points: 2
#     Edge 12, Type (0, 0), BuildingBlock: FUNLAD_clean_linker_1, # of connection points: 2
#     Edge 13, Type (0, 0), BuildingBlock: FUNLAD_clean_linker_1, # of connection points: 2
#     Edge 14, Type (0, 0), BuildingBlock: FUNLAD_clean_linker_1, # of connection points: 2
#     Edge 15, Type (0, 0), BuildingBlock: FUNLAD_clean_linker_1, # of connection points: 2
# Relax obj value: 0.061
# Max RMSD: 0.213
# Mean RMSD: 0.146
data_MOF--net-rob--node1-GEDQOX_clean_sbu_0--edge1-FUNLAD_clean_linker_1
_symmetry_space_group_name_H-M    P1
_symmetry_Int_Tables_number       1
_symmetry_cell_setting            triclinic
loop_
_symmetry_equiv_pos_as_xyz
'x, y, z'
_cell_length_a     19.970605
_cell_length_b     37.752274
_cell_length_c     31.138329
_cell_angle_alpha  110.9682
_cell_angle_beta   111.77282
_cell_angle_gamma 56.625783
loop_
_atom_site_label
_atom_site_type_symbol
_atom_site_fract_x
_atom_site_fract_y
_atom_site_fract_z
_atom_type_partial_charge
Nd0 Nd 0.20689 0.33246 0.01502 0.0
Nd1 Nd 0.23363 0.2396 0.99037 0.0
C2 C 0.18091 0.40845 0.01198 0.0
C3 C 0.23069 0.42346 0.00606 0.0
C4 C 0.19885 0.46744 0.00787 0.0
C5 C 0.24741 0.48216 0.00461 0.0
C6 C 0.32925 0.45297 -0.00042 0.0
C7 C 0.35997 0.40876 0.99689 0.0
C8 C 0.31144 0.39418 0.00029 0.0
C9 C 0.32932 0.28196 0.07789 0.0
C10 C 0.33007 0.25597 0.94288 0.0
C11 C 0.25677 0.163 0.98943 0.0
C12 C 0.21037 0.14661 0.99664 0.0
C13 C 0.23684 0.10207 0.98505 0.0
C14 C 0.19133 0.08627 0.98985 0.0
C15 C 0.11816 0.1149 0.00633 0.0
C16 C 0.0928 0.15946 0.01862 0.0
C17 C 0.13796 0.1752 0.01338 0.0
C18 C 0.11001 0.29177 0.92883 0.0
C19 C 0.11539 0.31534 0.06514 0.0
O20 O 0.15888 0.3833 0.97519 0.0
O21 O 0.20611 0.39497 0.05117 0.0
O22 O 0.28417 0.32348 0.08925 0.0
O23 O 0.31532 0.26888 0.03374 0.0
O24 O 0.28385 0.29758 0.95847 0.0
O25 O 0.33072 0.22561 0.95506 0.0
O26 O 0.2844 0.18577 0.02647 0.0
O27 O 0.22531 0.17963 0.95184 0.0
O28 O 0.15888 0.25097 0.91612 0.0
O29 O 0.12342 0.30357 0.97307 0.0
O30 O 0.16185 0.27375 0.04946 0.0
O31 O 0.11179 0.34583 0.05144 0.0
H32 H 0.13657 0.49053 0.01229 0.0
H33 H 0.22007 0.51636 0.00623 0.0
H34 H 0.42235 0.38536 0.99284 0.0
H35 H 0.33737 0.3601 -0.00085 0.0
H36 H 0.29262 0.07948 0.97206 0.0
H37 H 0.21435 0.05167 0.98122 0.0
H38 H 0.03712 0.18228 0.03166 0.0
H39 H 0.11594 0.20972 0.02192 0.0
Nd40 Nd 0.69838 0.83289 0.01445 0.0
Nd41 Nd 0.74131 0.73861 0.99113 0.0
C42 C 0.6679 0.9105 0.01375 0.0
C43 C 0.71253 0.92803 0.00624 0.0
C44 C 0.74585 0.91091 0.96626 0.0
C45 C 0.791 0.92664 0.96098 0.0
C46 C 0.80385 0.95992 0.99535 0.0
C47 C 0.77016 0.97709 0.03537 0.0
C48 C 0.72486 0.96138 0.04056 0.0
C49 C 0.82587 0.78452 0.07797 0.0
C50 C 0.82695 0.76063 0.94451 0.0
C51 C 0.77294 0.66078 0.99188 0.0
C52 C 0.72448 0.64436 0.99662 0.0
C53 C 0.76134 0.60129 0.0007 0.0
C54 C 0.71453 0.58527 0.00351 0.0
C55 C 0.62951 0.61216 0.00195 0.0
C56 C 0.59354 0.65551 -0.0014 0.0
C57 C 0.64039 0.67148 0.99604 0.0
C58 C 0.61686 0.78627 0.92658 0.0
C59 C 0.6107 0.81087 0.06007 0.0
O60 O 0.64173 0.88672 0.97728 0.0
O61 O 0.69867 0.89513 0.0522 0.0
O62 O 0.77045 0.82399 0.08992 0.0
O63 O 0.81565 0.77218 0.03398 0.0
O64 O 0.7701 0.80107 0.95565 0.0
O65 O 0.84 0.72947 0.96156 0.0
O66 O 0.79341 0.68598 0.02934 0.0
O67 O 0.74715 0.67522 0.95328 0.0
O68 O 0.67284 0.74681 0.91545 0.0
O69 O 0.62408 0.79909 0.97048 0.0
O70 O 0.66672 0.77034 0.04843 0.0
O71 O 0.60007 0.84236 0.04471 0.0
H72 H 0.73764 0.88513 0.93921 0.0
H73 H 0.81614 0.91264 0.92984 0.0
H74 H 0.77977 1.00196 0.0634 0.0
H75 H 0.70038 0.9749 0.07189 0.0
H76 H 0.82632 0.57995 0.00148 0.0
H77 H 0.74569 0.55198 0.00707 0.0
H78 H 0.5285 0.67705 0.99729 0.0
H79 H 0.61074 0.70493 0.99304 0.0
Nd80 Nd 0.28713 0.77641 0.47487 0.0
Nd81 Nd 0.15416 0.78186 0.5218 0.0
C82 C 0.34364 0.80079 0.43264 0.0
C83 C 0.36601 0.79236 0.38828 0.0
C84 C 0.31149 0.82007 0.35601 0.0
C85 C 0.33461 0.8157 0.31643 0.0
C86 C 0.41337 0.78372 0.30846 0.0
C87 C 0.46666 0.75496 0.3397 0.0
C88 C 0.44358 0.75939 0.37941 0.0
C89 C 0.33176 0.69616 0.48853 0.0
C90 C 0.14136 0.75136 0.40691 0.0
C91 C 0.09378 0.75817 0.56231 0.0
C92 C 0.06858 0.76723 0.60586 0.0
C93 C 0.1199 0.73911 0.6379 0.0
C94 C 0.0945 0.74462 0.67709 0.0
C95 C 0.01639 0.77812 0.68482 0.0
C96 C 0.96612 0.80703 0.65358 0.0
C97 C -0.00839 0.80154 0.61433 0.0
C98 C 0.11047 0.86229 0.50917 0.0
C99 C 0.30285 0.80494 0.58968 0.0
O100 O 0.2652 0.81799 0.43096 0.0
O101 O 0.39207 0.77266 0.46064 0.0
O102 O 0.37566 0.70157 0.47158 0.0
O103 O 0.27002 0.73263 0.49677 0.0
O104 O 0.19997 0.75947 0.41025 0.0
O105 O 0.11548 0.75614 0.44311 0.0
O106 O 0.17275 0.74083 0.56534 0.0
O107 O 0.04721 0.78602 0.53398 0.0
O108 O 0.06747 0.85699 0.52693 0.0
O109 O 0.1712 0.82566 0.49992 0.0
O110 O 0.24606 0.79544 0.58646 0.0
O111 O 0.32436 0.80303 0.55314 0.0
H112 H 0.25128 0.84584 0.36183 0.0
H113 H 0.2906 0.83756 0.2924 0.0
H114 H 0.52741 0.72977 0.33418 0.0
H115 H 0.48724 0.7376 0.40363 0.0
H116 H 0.17948 0.71228 0.63227 0.0
H117 H 0.1364 0.72246 0.70104 0.0
H118 H 0.90598 0.83336 0.65888 0.0
H119 H 0.95034 0.82369 0.59025 0.0
Nd120 Nd 0.79417 0.27546 0.4786 0.0
Nd121 Nd 0.65013 0.2826 0.51873 0.0
C122 C 0.87279 0.29547 0.44648 0.0
C123 C 0.87792 0.30146 0.40358 0.0
C124 C 0.85534 0.27962 0.3584 0.0
C125 C 0.86739 0.2832 0.31882 0.0
C126 C 0.90264 0.30842 0.32353 0.0
C127 C 0.92227 0.33152 0.36882 0.0
C128 C 0.91027 0.32787 0.4083 0.0
C129 C 0.83218 0.1965 0.49276 0.0
C130 C 0.64081 0.25905 0.40468 0.0
C131 C 0.58372 0.2594 0.556 0.0
C132 C 0.56762 0.26396 0.60109 0.0
C133 C 0.6298 0.25722 0.64268 0.0
C134 C 0.61551 0.25747 0.68363 0.0
C135 C 0.53895 0.26453 0.68419 0.0
C136 C 0.47604 0.27248 0.64282 0.0
C137 C 0.49052 0.27194 0.60176 0.0
C138 C 0.61129 0.36173 0.50496 0.0
C139 C 0.80038 0.30253 0.59291 0.0
O140 O 0.80813 0.32458 0.46432 0.0
O141 O 0.89705 0.25598 0.44869 0.0
O142 O 0.87973 0.20077 0.47776 0.0
O143 O 0.77045 0.23338 0.49906 0.0
O144 O 0.69804 0.26957 0.41183 0.0
O145 O 0.61784 0.25759 0.43876 0.0
O146 O 0.66063 0.23675 0.55229 0.0
O147 O 0.54043 0.29299 0.53556 0.0
O148 O 0.56405 0.35722 0.52011 0.0
O149 O 0.67336 0.32495 0.49826 0.0
O150 O 0.73552 0.29817 0.58643 0.0
O151 O 0.83291 0.2959 0.55872 0.0
H152 H 0.82985 0.25919 0.35382 0.0
H153 H 0.85078 0.26536 0.28449 0.0
H154 H 0.94706 0.35242 0.37428 0.0
H155 H 0.92759 0.34525 0.44282 0.0
H156 H 0.69 0.25098 0.6434 0.0
H157 H 0.66514 0.25124 0.71477 0.0
H158 H 0.41533 0.27942 0.64188 0.0
H159 H 0.44156 0.27723 0.57021 0.0
H160 H 0.51377 0.6213 0.00834 0.0
C161 C 0.57576 0.59688 0.00373 0.0
H162 H 0.65802 0.52922 0.99349 0.0
H163 H 0.47209 0.49072 0.08346 0.0
H164 H 0.59264 0.48298 0.14663 0.0
H165 H 0.69022 0.50203 0.14311 0.0
H166 H 0.66749 0.52927 0.07643 0.0
C167 C 0.59723 0.55508 -0.00185 0.0
C168 C 0.53886 0.54259 -0.00061 0.0
C169 C 0.5538 0.52585 0.03809 0.0
C170 C 0.49795 0.51435 0.03987 0.0
C171 C 0.51317 0.49913 0.07978 0.0
C172 C 0.58202 0.49471 0.11643 0.0
C173 C 0.63688 0.5055 0.11448 0.0
C174 C 0.62318 0.521 0.07594 0.0
H175 H 0.44563 0.44136 0.99099 0.0
C176 C 0.38529 0.46672 0.99755 0.0
H177 H 0.30839 0.53493 0.01071 0.0
H178 H 0.49577 0.56959 0.91775 0.0
H179 H 0.37555 0.577 0.85442 0.0
H180 H 0.27767 0.55825 0.85816 0.0
H181 H 0.29976 0.53168 0.9252 0.0
C182 C 0.36761 0.5081 0.00461 0.0
C183 C 0.42771 0.51899 0.00254 0.0
C184 C 0.41322 0.53532 0.96361 0.0
C185 C 0.46913 0.54675 0.96179 0.0
C186 C 0.4544 0.56146 0.9216 0.0
C187 C 0.38583 0.56562 0.88481 0.0
C188 C 0.33077 0.55503 0.8869 0.0
C189 C 0.34409 0.53992 0.92566 0.0
H190 H 0.30998 0.65381 0.51057 0.0
C191 C 0.3519 0.65396 0.49635 0.0
H192 H 0.46241 0.6172 0.47282 0.0
H193 H 0.64627 0.45522 0.56606 0.0
H194 H 0.72536 0.49241 0.61259 0.0
H195 H 0.6776 0.56604 0.60504 0.0
H196 H 0.54984 0.60321 0.5511 0.0
C197 C 0.41988 0.61621 0.48568 0.0
C198 C 0.4444 0.5724 0.49274 0.0
C199 C 0.52028 0.55012 0.52377 0.0
C200 C 0.54866 0.507 0.52775 0.0
C201 C 0.62278 0.48713 0.56058 0.0
C202 C 0.6687 0.50826 0.5878 0.0
C203 C 0.64179 0.54974 0.58356 0.0
C204 C 0.56847 0.57062 0.5522 0.0
H205 H 0.63736 0.40314 0.48422 0.0
C206 C 0.59389 0.40356 0.49766 0.0
H207 H 0.48199 0.44105 0.51971 0.0
H208 H 0.30031 0.60238 0.42681 0.0
H209 H 0.22117 0.56524 0.38026 0.0
H210 H 0.26886 0.49162 0.38778 0.0
H211 H 0.39665 0.45438 0.44163 0.0
C212 C 0.5258 0.44163 0.50757 0.0
C213 C 0.50208 0.48519 0.50018 0.0
C214 C 0.42627 0.50746 0.46906 0.0
C215 C 0.3979 0.55057 0.4651 0.0
C216 C 0.32378 0.57046 0.43228 0.0
C217 C 0.27784 0.54937 0.40504 0.0
C218 C 0.30471 0.5079 0.40926 0.0
C219 C 0.37805 0.48699 0.44059 0.0
H220 H 0.02657 0.12091 0.03625 0.0
C221 C 0.06794 0.09958 0.01229 0.0
H222 H 0.10407 0.0411 0.96156 0.0
H223 H 0.96404 0.99995 0.09071 0.0
H224 H 0.08349 0.9983 0.15203 0.0
H225 H 0.17362 1.01885 0.14178 0.0
H226 H 0.14469 0.04142 0.0703 0.0
C227 C 0.06844 0.06181 0.9884 0.0
C228 C 0.0147 0.0488 0.99469 0.0
C229 C 0.03269 0.03544 0.03664 0.0
C230 C -0.01886 1.02309 0.04232 0.0
C231 C 0.00081 1.00983 0.08457 0.0
C232 C 0.06936 1.0086 0.12002 0.0
C233 C 0.12007 1.0202 0.11426 0.0
C234 C 0.10245 0.03333 0.07311 0.0
H235 H 0.89086 0.95423 0.96187 0.0
C236 C 0.85474 0.97453 0.98865 0.0
H237 H 0.82267 0.03298 0.03982 0.0
H238 H 0.96336 0.07204 0.90974 0.0
H239 H 0.84407 0.07353 0.84827 0.0
H240 H 0.75415 0.05279 0.85838 0.0
H241 H 0.78252 1.03063 0.93002 0.0
C242 C 0.85762 1.01146 0.01288 0.0
C243 C 0.91229 1.02344 0.00583 0.0
C244 C 0.89451 0.03661 0.96376 0.0
C245 C 0.94609 0.04896 0.95809 0.0
C246 C 0.92654 0.06217 0.91583 0.0
C247 C 0.85816 0.06327 0.8803 0.0
C248 C 0.80752 0.05158 0.88599 0.0
C249 C 0.82486 0.03864 0.92723 0.0
H250 H 0.80588 0.15564 0.51434 0.0
C251 C 0.84925 0.15493 0.50051 0.0
H252 H 0.96065 0.11705 0.47793 0.0
H253 H 0.14434 0.95571 0.57063 0.0
H254 H 0.22481 0.99234 0.61574 0.0
H255 H 0.17701 0.06588 0.60793 0.0
H256 H 0.04782 0.10354 0.55522 0.0
C257 C 0.91703 0.11672 0.49051 0.0
C258 C 0.94076 0.07331 0.49829 0.0
C259 C 0.01737 0.0508 0.52874 0.0
C260 C 0.04577 1.00775 0.53289 0.0
C261 C 0.12078 0.98759 0.56504 0.0
C262 C 0.1675 1.0084 0.59146 0.0
C263 C 0.14056 0.04983 0.58707 0.0
C264 C 0.06641 0.07098 0.55638 0.0
H265 H 0.1318 0.90472 0.48693 0.0
C266 C 0.09062 0.90459 0.5018 0.0
H267 H -0.01847 0.94141 0.52677 0.0
H268 H 0.79476 0.10377 0.43376 0.0
H269 H 0.7138 0.06735 0.3892 0.0
H270 H 0.76122 0.99401 0.39748 0.0
H271 H 0.89065 0.95631 0.45005 0.0
C272 C 0.02335 0.9424 0.51329 0.0
C273 C -0.00158 0.98624 0.50614 0.0
C274 C 0.92155 1.00884 0.47595 0.0
C275 C 0.89323 0.05186 0.47169 0.0
C276 C 0.81819 0.07199 0.43955 0.0
C277 C 0.7712 0.05128 0.41344 0.0
C278 C 0.79793 1.00996 0.41808 0.0
C279 C 0.87223 0.98878 0.44865 0.0
H280 H 0.61179 0.25782 0.32944 0.0
C281 C 0.59946 0.25009 0.35523 0.0
H282 H 0.53259 0.22683 0.36565 0.0
H283 H 0.26168 0.30601 0.1876 0.0
H284 H 0.18202 0.3393 0.24748 0.0
H285 H 0.24786 0.32213 0.3271 0.0
H286 H 0.394 0.27204 0.34753 0.0
C287 C 0.54726 0.23404 0.34058 0.0
C288 C 0.50253 0.23101 0.29016 0.0
C289 C 0.4168 0.25873 0.27848 0.0
C290 C 0.37906 0.26864 0.23269 0.0
C291 C 0.29371 0.29798 0.22223 0.0
C292 C 0.24728 0.31714 0.25617 0.0
C293 C 0.28433 0.30742 0.30098 0.0
C294 C 0.3682 0.27868 0.31227 0.0
H295 H 0.39644 0.21992 0.10245 0.0
C296 C 0.37806 0.25419 0.11318 0.0
H297 H 0.37252 0.30724 0.16844 0.0
H298 H 0.65986 0.16499 0.29729 0.0
H299 H 0.73981 0.129 0.23686 0.0
H300 H 0.67791 0.14958 0.15889 0.0
H301 H 0.53619 0.20515 0.14041 0.0
C302 C 0.39361 0.2726 0.15883 0.0
C303 C 0.42726 0.25064 0.19891 0.0
C304 C 0.51056 0.21818 0.20862 0.0
C305 C 0.54747 0.20758 0.25414 0.0
C306 C 0.6303 0.17486 0.26348 0.0
C307 C 0.67643 0.15397 0.22917 0.0
C308 C 0.64148 0.16549 0.18523 0.0
C309 C 0.5597 0.1974 0.17497 0.0
H310 H 0.51378 0.85408 0.10122 0.0
C311 C 0.56078 0.82089 0.09209 0.0
H312 H 0.62092 0.7566 0.10175 0.0
H313 H 0.47948 0.8608 0.29648 0.0
H314 H 0.56577 0.89372 0.31765 0.0
H315 H 0.63851 0.88246 0.26104 0.0
H316 H 0.62461 0.83879 0.18287 0.0
C317 C 0.57522 0.79001 0.11155 0.0
C318 C 0.52879 0.79885 0.14544 0.0
C319 C 0.53847 0.82424 0.19132 0.0
C320 C 0.49815 0.82986 0.22441 0.0
C321 C 0.50873 0.85539 0.26996 0.0
C322 C 0.5583 0.87439 0.28266 0.0
C323 C 0.59914 0.86811 0.25076 0.0
C324 C 0.58999 0.84319 0.20573 0.0
H325 H 0.49424 0.74929 0.25767 0.0
C326 C 0.44246 0.77987 0.26858 0.0
H327 H 0.3654 0.84514 0.26043 0.0
H328 H 0.49648 0.74867 0.06048 0.0
H329 H 0.4124 0.71449 0.04007 0.0
H330 H 0.34342 0.72395 0.09769 0.0
H331 H 0.35816 0.76752 0.17615 0.0
C332 C 0.41248 0.81318 0.24801 0.0
C333 C 0.45051 0.809 0.21217 0.0
C334 C 0.44045 0.78384 0.16629 0.0
C335 C 0.47985 0.77865 0.13296 0.0
C336 C 0.46868 0.75335 0.08735 0.0
C337 C 0.4203 0.7337 0.07508 0.0
C338 C 0.38144 0.73902 0.10753 0.0
C339 C 0.39082 0.76393 0.15256 0.0
H340 H 0.48828 0.8244 0.89169 0.0
C341 C 0.55199 0.81134 0.89121 0.0
H342 H 0.63683 0.79655 0.85477 0.0
H343 H 0.44207 0.73669 0.66082 0.0
H344 H 0.56996 0.67071 0.67382 0.0
H345 H 0.67433 0.66885 0.74814 0.0
H346 H 0.6511 0.7327 0.80968 0.0
C347 C 0.57233 0.80985 0.85394 0.0
C348 C 0.51379 0.81337 0.80751 0.0
C349 C 0.52986 0.77561 0.77141 0.0
C350 C 0.47042 0.77677 0.72842 0.0
C351 C 0.48601 0.73812 0.69371 0.0
C352 C 0.55907 0.69981 0.70083 0.0
C353 C 0.61772 0.69876 0.74264 0.0
C354 C 0.6035 0.73593 0.77774 0.0
H355 H 0.40336 0.81736 0.63886 0.0
C356 C 0.35007 0.81516 0.63666 0.0
H357 H 0.28208 0.81507 0.67513 0.0
H358 H 0.46897 0.89228 0.86753 0.0
H359 H 0.34119 0.9588 0.85387 0.0
H360 H 0.23714 0.96053 0.77929 0.0
H361 H 0.26045 0.89577 0.71788 0.0
C362 C 0.33511 0.81687 0.67609 0.0
C363 C 0.39626 0.81592 0.72125 0.0
C364 C 0.38099 0.85381 0.75681 0.0
C365 C 0.44027 0.85265 0.8 0.0
C366 C 0.42488 0.8912 0.83458 0.0
C367 C 0.35209 0.92961 0.82702 0.0
C368 C 0.29356 0.9306 0.785 0.0
C369 C 0.30759 0.89325 0.75008 0.0
H370 H 0.56819 0.26985 0.76169 0.0
C371 C 0.52653 0.26465 0.72881 0.0
H372 H 0.42576 0.25204 0.69856 0.0
H373 H 0.53504 0.20004 0.90411 0.0
H374 H 0.65394 0.13745 0.87617 0.0
H375 H 0.68121 0.13029 0.80161 0.0
H376 H 0.59029 0.18635 0.75498 0.0
C377 C 0.46786 0.25798 0.73055 0.0
C378 C 0.45327 0.26189 0.77624 0.0
C379 C 0.50519 0.22816 0.80227 0.0
C380 C 0.48753 0.2314 0.84439 0.0
C381 C 0.54323 0.19838 0.8709 0.0
C382 C 0.61222 0.16239 0.85543 0.0
C383 C 0.62769 0.15846 0.81353 0.0
C384 C 0.57507 0.19087 0.78713 0.0
H385 H 0.38752 0.21365 0.88179 0.0
C386 C 0.3758 0.24384 0.90726 0.0
H387 H 0.38278 0.30142 0.92906 0.0
H388 H 0.34497 0.33357 0.73696 0.0
H389 H 0.22756 0.39705 0.7656 0.0
H390 H 0.19408 0.40192 0.83687 0.0
H391 H 0.27617 0.34333 0.87931 0.0
C392 C 0.39425 0.27166 0.90286 0.0
C393 C 0.41619 0.2677 0.8596 0.0
C394 C 0.36555 0.30195 0.83411 0.0
C395 C 0.38431 0.29904 0.79265 0.0
C396 C 0.33318 0.33393 0.76839 0.0
C397 C 0.26565 0.37062 0.78447 0.0
C398 C 0.24684 0.37338 0.8246 0.0
C399 C 0.2952 0.33943 0.8489 0.0
H400 H 0.9438 0.72749 0.09848 0.0
C401 C 0.89504 0.75845 0.11154 0.0
H402 H 0.84933 0.80369 0.17103 0.0
H403 H 0.06513 0.67099 0.30745 0.0
H404 H 0.94901 0.65678 0.27713 0.0
H405 H 0.84107 0.68518 0.20797 0.0
H406 H 0.84921 0.7273 0.1683 0.0
C407 C 0.89881 0.77318 0.15785 0.0
C408 C -0.02992 0.74932 0.193 0.0
C409 C 0.96396 0.72497 0.21548 0.0
C410 C 0.02482 0.70957 0.25587 0.0
C411 C 0.01871 0.68453 0.27743 0.0
C412 C 0.95288 0.67594 0.26019 0.0
C413 C 0.89216 0.69187 0.22121 0.0
C414 C 0.89736 0.7161 0.19889 0.0
H415 H 0.03162 0.75382 0.35273 0.0
C416 C 0.09799 0.73965 0.35937 0.0
H417 H 0.20359 0.70263 0.33131 0.0
H418 H 0.00593 0.78884 0.15254 0.0
H419 H 0.12542 0.79948 0.18008 0.0
H420 H 0.23056 0.77364 0.25096 0.0
H421 H 0.21696 0.73722 0.29463 0.0
C422 C 0.13709 0.71709 0.32372 0.0
C423 C 0.0896 0.72003 0.27436 0.0
C424 C 0.10077 0.74003 0.24858 0.0
C425 C 0.04038 0.7549 0.20776 0.0
C426 C 0.05032 0.77664 0.18364 0.0
C427 C 0.11856 0.78303 0.1991 0.0
C428 C 0.17771 0.76852 0.23902 0.0
C429 C 0.16901 0.74755 0.2638 0.0
H430 H 0.8913 0.29562 0.24639 0.0
C431 C 0.91885 0.30912 0.28062 0.0
H432 H 0.0033 0.33341 0.31519 0.0
H433 H 0.19995 0.24288 0.15517 0.0
H434 H 0.2959 0.19908 0.21402 0.0
H435 H 0.25514 0.20854 0.28468 0.0
H436 H 0.11764 0.26172 0.29666 0.0
C437 C -0.03004 0.32251 0.28182 0.0
C438 C -0.00712 0.31685 0.23823 0.0
C439 C 0.07353 0.28555 0.23153 0.0
C440 C 0.09681 0.27991 0.19051 0.0
C441 C 0.17796 0.2482 0.18503 0.0
C442 C 0.23407 0.22284 0.21871 0.0
C443 C 0.21121 0.22827 0.25856 0.0
C444 C 0.13204 0.2591 0.26505 0.0
H445 H 0.04887 0.36052 0.12228 0.0
C446 C 0.07144 0.32765 0.10182 0.0
H447 H 0.08903 0.26525 0.09245 0.0
H448 H 0.83583 0.38204 0.24166 0.0
H449 H 0.73784 0.42469 0.18166 0.0
H450 H 0.77555 0.41227 0.10856 0.0
H451 H 0.91191 0.3579 0.09547 0.0
C452 C 0.06538 0.29813 0.11274 0.0
C453 C 0.03978 0.30595 0.15622 0.0
C454 C 0.95884 0.3371 0.16274 0.0
C455 C 0.93586 0.34299 0.2041 0.0
C456 C 0.85573 0.37538 0.21041 0.0
C457 C 0.79895 0.40019 0.17631 0.0
C458 C 0.82028 0.39333 0.13524 0.0
C459 C 0.89908 0.36215 0.1283 0.0
H460 H 0.90832 0.29948 0.64946 0.0
C461 C 0.84189 0.31329 0.64166 0.0
H462 H 0.73398 0.35225 0.6677 0.0
H463 H 0.92057 0.29731 0.86596 0.0
H464 H 0.79966 0.28913 0.84571 0.0
H465 H 0.69714 0.30583 0.77123 0.0
H466 H 0.71601 0.32932 0.7158 0.0
C467 C 0.80048 0.33806 0.67628 0.0
C468 C 0.84521 0.34196 0.72667 0.0
C469 C 0.83158 0.32904 0.75884 0.0
C470 C 0.88998 0.32007 0.8022 0.0
C471 C 0.87775 0.30501 0.83281 0.0
C472 C 0.80862 0.30012 0.82159 0.0
C473 C 0.75108 0.30932 0.77953 0.0
C474 C 0.76261 0.32302 0.74807 0.0
H475 H -0.00664 0.35015 0.90893 0.0
C476 C 0.04034 0.3185 0.89563 0.0
H477 H 0.08167 0.27129 0.83606 0.0
H478 H 0.86972 0.38286 0.68171 0.0
H479 H -0.01559 0.39741 0.70548 0.0
H480 H 0.08965 0.37825 0.77856 0.0
H481 H 0.08025 0.34531 0.82911 0.0
C482 C 0.03337 0.3025 0.84913 0.0
C483 C 0.96069 0.32461 0.81314 0.0
C484 C 0.96775 0.34339 0.78419 0.0
C485 C 0.90872 0.35306 0.74132 0.0
C486 C 0.91522 0.37323 0.71365 0.0
C487 C -0.01985 0.38208 0.72712 0.0
C488 C 0.03942 0.37134 0.76836 0.0
C489 C 0.03357 0.35228 0.79683 0.0
H490 H 0.9338 0.81497 0.73486 0.0
C491 C -0.01485 0.78378 0.72471 0.0
H492 H 0.06015 0.71917 0.73533 0.0
H493 H 0.92634 0.82518 0.93436 0.0
H494 H 0.00681 0.86051 0.95084 0.0
H495 H 0.07623 0.84811 0.89175 0.0
H496 H 0.06467 0.80077 0.81563 0.0
C497 C 0.01352 0.75168 0.74679 0.0
C498 C -0.02507 0.758 0.78356 0.0
C499 C -0.01605 0.78503 0.82829 0.0
C500 C 0.94506 0.79163 0.86265 0.0
C501 C 0.95436 0.81912 0.90689 0.0
C502 C 0.00068 0.83947 0.91691 0.0
C503 C 0.03963 0.83255 0.88362 0.0
C504 C 0.03202 0.80549 0.8399 0.0
H505 H 0.92398 0.71748 0.90347 0.0
C506 C 0.87425 0.75019 0.91083 0.0
H507 H 0.80479 0.8128 0.89507 0.0
H508 H 0.94595 0.70384 0.70153 0.0
H509 H 0.86193 0.67037 0.68428 0.0
H510 H 0.79187 0.68321 0.74321 0.0
H511 H 0.8061 0.72912 0.81987 0.0
C512 C 0.85403 0.77999 0.88769 0.0
C513 C 0.8984 0.77065 0.85254 0.0
C514 C 0.8892 0.74368 0.80781 0.0
C515 C 0.92836 0.73694 0.7735 0.0
C516 C 0.91779 0.71005 0.72899 0.0
C517 C 0.86947 0.69072 0.71853 0.0
C518 C 0.8301 0.69791 0.75172 0.0
C519 C 0.83933 0.72415 0.7958 0.0
loop_
_geom_bond_atom_site_label_1
_geom_bond_atom_site_label_2
_geom_bond_distance
_geom_bond_site_symmetry_2
_ccdc_geom_bond_type
Nd0 C2 2.836 . S
Nd0 O20 2.500 1_554 S
Nd0 O21 2.492 . S
Nd0 O22 2.487 . S
Nd0 O23 2.682 . S
Nd0 O24 2.410 1_554 S
Nd0 O29 2.414 1_554 S
Nd0 O31 2.424 . S
Nd1 C11 2.836 1_556 S
Nd1 O23 2.414 1_556 S
Nd1 O25 2.424 . S
Nd1 O26 2.500 1_556 S
Nd1 O27 2.492 . S
Nd1 O28 2.487 . S
Nd1 O29 2.682 . S
Nd1 O30 2.410 1_556 S
C2 Nd0 2.836 . S
C2 C3 1.498 1_554 S
C2 O20 1.258 1_554 S
C2 O21 1.239 . S
C3 C2 1.498 1_556 S
C3 C4 1.366 . S
C3 C8 1.407 1_556 S
C4 C3 1.366 . S
C4 C5 1.392 . S
C4 H32 0.930 . S
C5 C4 1.392 . S
C5 C6 1.398 . S
C5 H33 0.929 . S
C6 C5 1.398 . S
C6 C7 1.352 1_556 S
C7 C6 1.352 1_554 S
C7 C8 1.384 . S
C7 H34 0.930 . S
C8 C3 1.407 1_554 S
C8 C7 1.384 . S
C8 H35 0.929 . S
C9 O22 1.241 . S
C9 O23 1.273 . S
C10 O24 1.251 . S
C10 O25 1.268 . S
C11 Nd1 2.836 1_554 S
C11 C12 1.498 . S
C11 O26 1.258 . S
C11 O27 1.239 1_554 S
C12 C11 1.498 . S
C12 C13 1.366 . S
C12 C17 1.407 1_554 S
C13 C12 1.366 . S
C13 C14 1.392 . S
C13 H36 0.930 . S
C14 C13 1.392 . S
C14 C15 1.398 . S
C14 H37 0.929 . S
C15 C14 1.398 . S
C15 C16 1.352 1_554 S
C16 C15 1.352 1_556 S
C16 C17 1.384 . S
C16 H38 0.930 . S
C17 C12 1.407 1_556 S
C17 C16 1.384 . S
C17 H39 0.929 . S
C18 O28 1.241 . S
C18 O29 1.273 . S
C19 O30 1.251 . S
C19 O31 1.268 . S
O20 Nd0 2.500 1_556 S
O20 C2 1.258 1_556 S
O21 Nd0 2.492 . S
O21 C2 1.239 . S
O22 Nd0 2.487 . S
O22 C9 1.241 . S
O23 Nd0 2.682 . S
O23 Nd1 2.414 1_554 S
O23 C9 1.273 . S
O24 Nd0 2.410 1_556 S
O24 C10 1.251 . S
O25 Nd1 2.424 . S
O25 C10 1.268 . S
O26 Nd1 2.500 1_554 S
O26 C11 1.258 . S
O27 Nd1 2.492 . S
O27 C11 1.239 1_556 S
O28 Nd1 2.487 . S
O28 C18 1.241 . S
O29 Nd0 2.414 1_556 S
O29 Nd1 2.682 . S
O29 C18 1.273 . S
O30 Nd1 2.410 1_554 S
O30 C19 1.251 . S
O31 Nd0 2.424 . S
O31 C19 1.268 . S
H32 C4 0.930 . S
H33 C5 0.929 . S
H34 C7 0.930 . S
H35 C8 0.929 . S
H36 C13 0.930 . S
H37 C14 0.929 . S
H38 C16 0.930 . S
H39 C17 0.929 . S
Nd40 C42 2.836 . S
Nd40 O60 2.500 1_554 S
Nd40 O61 2.492 . S
Nd40 O62 2.487 . S
Nd40 O63 2.682 . S
Nd40 O64 2.410 1_554 S
Nd40 O69 2.414 1_554 S
Nd40 O71 2.424 . S
Nd41 C51 2.836 1_556 S
Nd41 O63 2.414 1_556 S
Nd41 O65 2.424 . S
Nd41 O66 2.500 1_556 S
Nd41 O67 2.492 . S
Nd41 O68 2.487 . S
Nd41 O69 2.682 . S
Nd41 O70 2.410 1_556 S
C42 Nd40 2.836 . S
C42 C43 1.498 1_554 S
C42 O60 1.258 1_554 S
C42 O61 1.239 . S
C43 C42 1.498 1_556 S
C43 C44 1.366 . S
C43 C48 1.407 1_556 S
C44 C43 1.366 . S
C44 C45 1.392 . S
C44 H72 0.930 . S
C45 C44 1.392 . S
C45 C46 1.398 . S
C45 H73 0.929 . S
C46 C45 1.398 . S
C46 C47 1.352 1_556 S
C47 C46 1.352 1_554 S
C47 C48 1.384 . S
C47 H74 0.930 . S
C48 C43 1.407 1_554 S
C48 C47 1.384 . S
C48 H75 0.929 . S
C49 O62 1.241 . S
C49 O63 1.273 . S
C50 O64 1.251 . S
C50 O65 1.268 . S
C51 Nd41 2.836 1_554 S
C51 C52 1.498 . S
C51 O66 1.258 . S
C51 O67 1.239 1_554 S
C52 C51 1.498 . S
C52 C53 1.366 . S
C52 C57 1.407 1_554 S
C53 C52 1.366 . S
C53 C54 1.392 . S
C53 H76 0.930 . S
C54 C53 1.392 . S
C54 C55 1.398 . S
C54 H77 0.929 . S
C55 C54 1.398 . S
C55 C56 1.352 1_554 S
C56 C55 1.352 1_556 S
C56 C57 1.384 . S
C56 H78 0.930 . S
C57 C52 1.407 1_556 S
C57 C56 1.384 . S
C57 H79 0.929 . S
C58 O68 1.241 . S
C58 O69 1.273 . S
C59 O70 1.251 . S
C59 O71 1.268 . S
O60 Nd40 2.500 1_556 S
O60 C42 1.258 1_556 S
O61 Nd40 2.492 . S
O61 C42 1.239 . S
O62 Nd40 2.487 . S
O62 C49 1.241 . S
O63 Nd40 2.682 . S
O63 Nd41 2.414 1_554 S
O63 C49 1.273 . S
O64 Nd40 2.410 1_556 S
O64 C50 1.251 . S
O65 Nd41 2.424 . S
O65 C50 1.268 . S
O66 Nd41 2.500 1_554 S
O66 C51 1.258 . S
O67 Nd41 2.492 . S
O67 C51 1.239 1_556 S
O68 Nd41 2.487 . S
O68 C58 1.241 . S
O69 Nd40 2.414 1_556 S
O69 Nd41 2.682 . S
O69 C58 1.273 . S
O70 Nd41 2.410 1_554 S
O70 C59 1.251 . S
O71 Nd40 2.424 . S
O71 C59 1.268 . S
H72 C44 0.930 . S
H73 C45 0.929 . S
H74 C47 0.930 . S
H75 C48 0.929 . S
H76 C53 0.930 . S
H77 C54 0.929 . S
H78 C56 0.930 . S
H79 C57 0.929 . S
Nd80 C82 2.836 . S
Nd80 O100 2.500 . S
Nd80 O101 2.492 . S
Nd80 O102 2.487 . S
Nd80 O103 2.682 . S
Nd80 O104 2.410 . S
Nd80 O109 2.414 . S
Nd80 O111 2.424 . S
Nd81 C91 2.836 . S
Nd81 O103 2.414 . S
Nd81 O105 2.424 . S
Nd81 O106 2.500 . S
Nd81 O107 2.492 . S
Nd81 O108 2.487 . S
Nd81 O109 2.682 . S
Nd81 O110 2.410 . S
C82 Nd80 2.836 . S
C82 C83 1.498 . S
C82 O100 1.258 . S
C82 O101 1.239 . S
C83 C82 1.498 . S
C83 C84 1.366 . S
C83 C88 1.407 . S
C84 C83 1.366 . S
C84 C85 1.392 . S
C84 H112 0.930 . S
C85 C84 1.392 . S
C85 C86 1.398 . S
C85 H113 0.929 . S
C86 C85 1.398 . S
C86 C87 1.352 . S
C87 C86 1.352 . S
C87 C88 1.384 . S
C87 H114 0.930 . S
C88 C83 1.407 . S
C88 C87 1.384 . S
C88 H115 0.929 . S
C89 O102 1.241 . S
C89 O103 1.273 . S
C90 O104 1.251 . S
C90 O105 1.268 . S
C91 Nd81 2.836 . S
C91 C92 1.498 . S
C91 O106 1.258 . S
C91 O107 1.239 . S
C92 C91 1.498 . S
C92 C93 1.366 . S
C92 C97 1.407 . S
C93 C92 1.366 . S
C93 C94 1.392 . S
C93 H116 0.930 . S
C94 C93 1.392 . S
C94 C95 1.398 . S
C94 H117 0.929 . S
C95 C94 1.398 . S
C95 C96 1.352 . S
C96 C95 1.352 . S
C96 C97 1.384 . S
C96 H118 0.930 1_455 S
C97 C92 1.407 . S
C97 C96 1.384 . S
C97 H119 0.929 . S
C98 O108 1.241 . S
C98 O109 1.273 . S
C99 O110 1.251 . S
C99 O111 1.268 . S
O100 Nd80 2.500 . S
O100 C82 1.258 . S
O101 Nd80 2.492 . S
O101 C82 1.239 . S
O102 Nd80 2.487 . S
O102 C89 1.241 . S
O103 Nd80 2.682 . S
O103 Nd81 2.414 . S
O103 C89 1.273 . S
O104 Nd80 2.410 . S
O104 C90 1.251 . S
O105 Nd81 2.424 . S
O105 C90 1.268 . S
O106 Nd81 2.500 . S
O106 C91 1.258 . S
O107 Nd81 2.492 . S
O107 C91 1.239 . S
O108 Nd81 2.487 . S
O108 C98 1.241 . S
O109 Nd80 2.414 . S
O109 Nd81 2.682 . S
O109 C98 1.273 . S
O110 Nd81 2.410 . S
O110 C99 1.251 . S
O111 Nd80 2.424 . S
O111 C99 1.268 . S
H112 C84 0.930 . S
H113 C85 0.929 . S
H114 C87 0.930 . S
H115 C88 0.929 . S
H116 C93 0.930 . S
H117 C94 0.929 . S
H118 C96 0.930 1_655 S
H119 C97 0.929 . S
Nd120 C122 2.836 . S
Nd120 O140 2.500 . S
Nd120 O141 2.492 . S
Nd120 O142 2.487 . S
Nd120 O143 2.682 . S
Nd120 O144 2.410 . S
Nd120 O149 2.414 . S
Nd120 O151 2.424 . S
Nd121 C131 2.836 . S
Nd121 O143 2.414 . S
Nd121 O145 2.424 . S
Nd121 O146 2.500 . S
Nd121 O147 2.492 . S
Nd121 O148 2.487 . S
Nd121 O149 2.682 . S
Nd121 O150 2.410 . S
C122 Nd120 2.836 . S
C122 C123 1.498 . S
C122 O140 1.258 . S
C122 O141 1.239 . S
C123 C122 1.498 . S
C123 C124 1.366 . S
C123 C128 1.407 . S
C124 C123 1.366 . S
C124 C125 1.392 . S
C124 H152 0.930 . S
C125 C124 1.392 . S
C125 C126 1.398 . S
C125 H153 0.929 . S
C126 C125 1.398 . S
C126 C127 1.352 . S
C127 C126 1.352 . S
C127 C128 1.384 . S
C127 H154 0.930 1_655 S
C128 C123 1.407 . S
C128 C127 1.384 . S
C128 H155 0.929 . S
C129 O142 1.241 . S
C129 O143 1.273 . S
C130 O144 1.251 . S
C130 O145 1.268 . S
C131 Nd121 2.836 . S
C131 C132 1.498 . S
C131 O146 1.258 . S
C131 O147 1.239 . S
C132 C131 1.498 . S
C132 C133 1.366 . S
C132 C137 1.407 . S
C133 C132 1.366 . S
C133 C134 1.392 . S
C133 H156 0.930 . S
C134 C133 1.392 . S
C134 C135 1.398 . S
C134 H157 0.929 . S
C135 C134 1.398 . S
C135 C136 1.352 . S
C136 C135 1.352 . S
C136 C137 1.384 . S
C136 H158 0.930 . S
C137 C132 1.407 . S
C137 C136 1.384 . S
C137 H159 0.929 . S
C138 O148 1.241 . S
C138 O149 1.273 . S
C139 O150 1.251 . S
C139 O151 1.268 . S
O140 Nd120 2.500 . S
O140 C122 1.258 . S
O141 Nd120 2.492 . S
O141 C122 1.239 . S
O142 Nd120 2.487 . S
O142 C129 1.241 . S
O143 Nd120 2.682 . S
O143 Nd121 2.414 . S
O143 C129 1.273 . S
O144 Nd120 2.410 . S
O144 C130 1.251 . S
O145 Nd121 2.424 . S
O145 C130 1.268 . S
O146 Nd121 2.500 . S
O146 C131 1.258 . S
O147 Nd121 2.492 . S
O147 C131 1.239 . S
O148 Nd121 2.487 . S
O148 C138 1.241 . S
O149 Nd120 2.414 . S
O149 Nd121 2.682 . S
O149 C138 1.273 . S
O150 Nd121 2.410 . S
O150 C139 1.251 . S
O151 Nd120 2.424 . S
O151 C139 1.268 . S
H152 C124 0.930 . S
H153 C125 0.929 . S
H154 C127 0.930 1_455 S
H155 C128 0.929 . S
H156 C133 0.930 . S
H157 C134 0.929 . S
H158 C136 0.930 . S
H159 C137 0.929 . S
H160 C161 0.951 . S
C161 H160 0.951 . S
C161 C167 1.265 . S
H162 C167 0.950 . S
H163 C171 0.949 . S
H164 C172 0.950 . S
H165 C173 0.951 . S
H166 C174 0.951 . S
C167 C161 1.265 . S
C167 H162 0.950 . S
C167 C168 1.478 . S
C168 C167 1.478 . S
C168 C169 1.397 . S
C168 C185 1.394 1_554 S
C169 C168 1.397 . S
C169 C170 1.438 . S
C169 C174 1.429 . S
C170 C169 1.438 . S
C170 C171 1.428 . S
C170 C183 1.394 1_554 S
C171 H163 0.949 . S
C171 C170 1.428 . S
C171 C172 1.345 . S
C172 H164 0.950 . S
C172 C171 1.345 . S
C172 C173 1.424 . S
C173 H165 0.951 . S
C173 C172 1.424 . S
C173 C174 1.347 . S
C174 H166 0.951 . S
C174 C169 1.429 . S
C174 C173 1.347 . S
H175 C176 0.951 . S
C176 H175 0.951 . S
C176 C182 1.265 . S
H177 C182 0.950 . S
H178 C186 0.949 . S
H179 C187 0.950 . S
H180 C188 0.951 . S
H181 C189 0.951 . S
C182 C176 1.265 . S
C182 H177 0.950 . S
C182 C183 1.478 . S
C183 C170 1.394 1_556 S
C183 C182 1.478 . S
C183 C184 1.397 . S
C184 C183 1.397 . S
C184 C185 1.438 . S
C184 C189 1.429 . S
C185 C168 1.394 1_556 S
C185 C184 1.438 . S
C185 C186 1.428 . S
C186 H178 0.949 . S
C186 C185 1.428 . S
C186 C187 1.345 . S
C187 H179 0.950 . S
C187 C186 1.345 . S
C187 C188 1.424 . S
C188 H180 0.951 . S
C188 C187 1.424 . S
C188 C189 1.347 . S
C189 H181 0.951 . S
C189 C184 1.429 . S
C189 C188 1.347 . S
H190 C191 0.951 . S
C191 H190 0.951 . S
C191 C197 1.265 . S
H192 C197 0.950 . S
H193 C201 0.949 . S
H194 C202 0.950 . S
H195 C203 0.951 . S
H196 C204 0.951 . S
C197 C191 1.265 . S
C197 H192 0.950 . S
C197 C198 1.478 . S
C198 C197 1.478 . S
C198 C199 1.397 . S
C198 C215 1.394 . S
C199 C198 1.397 . S
C199 C200 1.438 . S
C199 C204 1.429 . S
C200 C199 1.438 . S
C200 C201 1.428 . S
C200 C213 1.394 . S
C201 H193 0.949 . S
C201 C200 1.428 . S
C201 C202 1.345 . S
C202 H194 0.950 . S
C202 C201 1.345 . S
C202 C203 1.424 . S
C203 H195 0.951 . S
C203 C202 1.424 . S
C203 C204 1.347 . S
C204 H196 0.951 . S
C204 C199 1.429 . S
C204 C203 1.347 . S
H205 C206 0.951 . S
C206 H205 0.951 . S
C206 C212 1.265 . S
H207 C212 0.950 . S
H208 C216 0.949 . S
H209 C217 0.950 . S
H210 C218 0.951 . S
H211 C219 0.951 . S
C212 C206 1.265 . S
C212 H207 0.950 . S
C212 C213 1.478 . S
C213 C200 1.394 . S
C213 C212 1.478 . S
C213 C214 1.397 . S
C214 C213 1.397 . S
C214 C215 1.438 . S
C214 C219 1.429 . S
C215 C198 1.394 . S
C215 C214 1.438 . S
C215 C216 1.428 . S
C216 H208 0.949 . S
C216 C215 1.428 . S
C216 C217 1.345 . S
C217 H209 0.950 . S
C217 C216 1.345 . S
C217 C218 1.424 . S
C218 H210 0.951 . S
C218 C217 1.424 . S
C218 C219 1.347 . S
C219 H211 0.951 . S
C219 C214 1.429 . S
C219 C218 1.347 . S
H220 C221 0.951 . S
C221 H220 0.951 . S
C221 C227 1.265 . S
H222 C227 0.950 1_565 S
H223 C231 0.949 . S
H224 C232 0.950 . S
H225 C233 0.951 . S
H226 C234 0.951 . S
C227 C221 1.265 . S
C227 H222 0.950 1_545 S
C227 C228 1.478 . S
C228 C227 1.478 . S
C228 C229 1.397 1_545 S
C228 C245 1.394 1_554 S
C229 C228 1.397 1_565 S
C229 C230 1.438 1_455 S
C229 C234 1.429 . S
C230 C229 1.438 1_655 S
C230 C231 1.428 . S
C230 C243 1.394 1_554 S
C231 H223 0.949 . S
C231 C230 1.428 . S
C231 C232 1.345 1_655 S
C232 H224 0.950 . S
C232 C231 1.345 1_455 S
C232 C233 1.424 . S
C233 H225 0.951 . S
C233 C232 1.424 . S
C233 C234 1.347 . S
C234 H226 0.951 . S
C234 C229 1.429 . S
C234 C233 1.347 . S
H235 C236 0.951 . S
C236 H235 0.951 . S
C236 C242 1.265 . S
H237 C242 0.950 1_545 S
H238 C246 0.949 . S
H239 C247 0.950 . S
H240 C248 0.951 . S
H241 C249 0.951 . S
C242 C236 1.265 . S
C242 H237 0.950 1_565 S
C242 C243 1.478 . S
C243 C230 1.394 1_556 S
C243 C242 1.478 . S
C243 C244 1.397 1_565 S
C244 C243 1.397 1_545 S
C244 C245 1.438 1_655 S
C244 C249 1.429 . S
C245 C228 1.394 1_556 S
C245 C244 1.438 1_455 S
C245 C246 1.428 . S
C246 H238 0.949 . S
C246 C245 1.428 . S
C246 C247 1.345 1_455 S
C247 H239 0.950 . S
C247 C246 1.345 1_655 S
C247 C248 1.424 . S
C248 H240 0.951 . S
C248 C247 1.424 . S
C248 C249 1.347 . S
C249 H241 0.951 . S
C249 C244 1.429 . S
C249 C248 1.347 . S
H250 C251 0.951 . S
C251 H250 0.951 . S
C251 C257 1.265 . S
H252 C257 0.950 . S
H253 C261 0.949 . S
H254 C262 0.950 . S
H255 C263 0.951 . S
H256 C264 0.951 . S
C257 C251 1.265 . S
C257 H252 0.950 . S
C257 C258 1.478 . S
C258 C257 1.478 . S
C258 C259 1.397 . S
C258 C275 1.394 . S
C259 C258 1.397 . S
C259 C260 1.438 1_645 S
C259 C264 1.429 . S
C260 C259 1.438 1_465 S
C260 C261 1.428 . S
C260 C273 1.394 . S
C261 H253 0.949 . S
C261 C260 1.428 . S
C261 C262 1.345 1_455 S
C262 H254 0.950 . S
C262 C261 1.345 1_655 S
C262 C263 1.424 . S
C263 H255 0.951 . S
C263 C262 1.424 . S
C263 C264 1.347 1_565 S
C264 H256 0.951 . S
C264 C259 1.429 . S
C264 C263 1.347 1_545 S
H265 C266 0.951 . S
C266 H265 0.951 . S
C266 C272 1.265 . S
H267 C272 0.950 . S
H268 C276 0.949 . S
H269 C277 0.950 . S
H270 C278 0.951 . S
H271 C279 0.951 . S
C272 C266 1.265 . S
C272 H267 0.950 . S
C272 C273 1.478 . S
C273 C260 1.394 . S
C273 C272 1.478 . S
C273 C274 1.397 . S
C274 C273 1.397 . S
C274 C275 1.438 1_465 S
C274 C279 1.429 . S
C275 C258 1.394 . S
C275 C274 1.438 1_645 S
C275 C276 1.428 . S
C276 H268 0.949 . S
C276 C275 1.428 . S
C276 C277 1.345 1_655 S
C277 H269 0.950 . S
C277 C276 1.345 1_455 S
C277 C278 1.424 . S
C278 H270 0.951 . S
C278 C277 1.424 . S
C278 C279 1.347 1_545 S
C279 H271 0.951 . S
C279 C274 1.429 . S
C279 C278 1.347 1_565 S
H280 C281 0.951 . S
C281 H280 0.951 . S
C281 C287 1.265 . S
H282 C287 0.950 . S
H283 C291 0.949 . S
H284 C292 0.950 . S
H285 C293 0.951 . S
H286 C294 0.951 . S
C287 C281 1.265 . S
C287 H282 0.950 . S
C287 C288 1.478 . S
C288 C287 1.478 . S
C288 C289 1.397 . S
C288 C305 1.394 . S
C289 C288 1.397 . S
C289 C290 1.438 . S
C289 C294 1.429 . S
C290 C289 1.438 . S
C290 C291 1.428 . S
C290 C303 1.394 . S
C291 H283 0.949 . S
C291 C290 1.428 . S
C291 C292 1.345 . S
C292 H284 0.950 . S
C292 C291 1.345 . S
C292 C293 1.424 . S
C293 H285 0.951 . S
C293 C292 1.424 . S
C293 C294 1.347 . S
C294 H286 0.951 . S
C294 C289 1.429 . S
C294 C293 1.347 . S
H295 C296 0.951 . S
C296 H295 0.951 . S
C296 C302 1.265 . S
H297 C302 0.950 . S
H298 C306 0.949 . S
H299 C307 0.950 . S
H300 C308 0.951 . S
H301 C309 0.951 . S
C302 C296 1.265 . S
C302 H297 0.950 . S
C302 C303 1.478 . S
C303 C290 1.394 . S
C303 C302 1.478 . S
C303 C304 1.397 . S
C304 C303 1.397 . S
C304 C305 1.438 . S
C304 C309 1.429 . S
C305 C288 1.394 . S
C305 C304 1.438 . S
C305 C306 1.428 . S
C306 H298 0.949 . S
C306 C305 1.428 . S
C306 C307 1.345 . S
C307 H299 0.950 . S
C307 C306 1.345 . S
C307 C308 1.424 . S
C308 H300 0.951 . S
C308 C307 1.424 . S
C308 C309 1.347 . S
C309 H301 0.951 . S
C309 C304 1.429 . S
C309 C308 1.347 . S
H310 C311 0.951 . S
C311 H310 0.951 . S
C311 C317 1.265 . S
H312 C317 0.950 . S
H313 C321 0.949 . S
H314 C322 0.950 . S
H315 C323 0.951 . S
H316 C324 0.951 . S
C317 C311 1.265 . S
C317 H312 0.950 . S
C317 C318 1.478 . S
C318 C317 1.478 . S
C318 C319 1.397 . S
C318 C335 1.394 . S
C319 C318 1.397 . S
C319 C320 1.438 . S
C319 C324 1.429 . S
C320 C319 1.438 . S
C320 C321 1.428 . S
C320 C333 1.394 . S
C321 H313 0.949 . S
C321 C320 1.428 . S
C321 C322 1.345 . S
C322 H314 0.950 . S
C322 C321 1.345 . S
C322 C323 1.424 . S
C323 H315 0.951 . S
C323 C322 1.424 . S
C323 C324 1.347 . S
C324 H316 0.951 . S
C324 C319 1.429 . S
C324 C323 1.347 . S
H325 C326 0.951 . S
C326 H325 0.951 . S
C326 C332 1.265 . S
H327 C332 0.950 . S
H328 C336 0.949 . S
H329 C337 0.950 . S
H330 C338 0.951 . S
H331 C339 0.951 . S
C332 C326 1.265 . S
C332 H327 0.950 . S
C332 C333 1.478 . S
C333 C320 1.394 . S
C333 C332 1.478 . S
C333 C334 1.397 . S
C334 C333 1.397 . S
C334 C335 1.438 . S
C334 C339 1.429 . S
C335 C318 1.394 . S
C335 C334 1.438 . S
C335 C336 1.428 . S
C336 H328 0.949 . S
C336 C335 1.428 . S
C336 C337 1.345 . S
C337 H329 0.950 . S
C337 C336 1.345 . S
C337 C338 1.424 . S
C338 H330 0.951 . S
C338 C337 1.424 . S
C338 C339 1.347 . S
C339 H331 0.951 . S
C339 C334 1.429 . S
C339 C338 1.347 . S
H340 C341 0.951 . S
C341 H340 0.951 . S
C341 C347 1.265 . S
H342 C347 0.950 . S
H343 C351 0.949 . S
H344 C352 0.950 . S
H345 C353 0.951 . S
H346 C354 0.951 . S
C347 C341 1.265 . S
C347 H342 0.950 . S
C347 C348 1.478 . S
C348 C347 1.478 . S
C348 C349 1.397 . S
C348 C365 1.394 . S
C349 C348 1.397 . S
C349 C350 1.438 . S
C349 C354 1.429 . S
C350 C349 1.438 . S
C350 C351 1.428 . S
C350 C363 1.394 . S
C351 H343 0.949 . S
C351 C350 1.428 . S
C351 C352 1.345 . S
C352 H344 0.950 . S
C352 C351 1.345 . S
C352 C353 1.424 . S
C353 H345 0.951 . S
C353 C352 1.424 . S
C353 C354 1.347 . S
C354 H346 0.951 . S
C354 C349 1.429 . S
C354 C353 1.347 . S
H355 C356 0.951 . S
C356 H355 0.951 . S
C356 C362 1.265 . S
H357 C362 0.950 . S
H358 C366 0.949 . S
H359 C367 0.950 . S
H360 C368 0.951 . S
H361 C369 0.951 . S
C362 C356 1.265 . S
C362 H357 0.950 . S
C362 C363 1.478 . S
C363 C350 1.394 . S
C363 C362 1.478 . S
C363 C364 1.397 . S
C364 C363 1.397 . S
C364 C365 1.438 . S
C364 C369 1.429 . S
C365 C348 1.394 . S
C365 C364 1.438 . S
C365 C366 1.428 . S
C366 H358 0.949 . S
C366 C365 1.428 . S
C366 C367 1.345 . S
C367 H359 0.950 . S
C367 C366 1.345 . S
C367 C368 1.424 . S
C368 H360 0.951 . S
C368 C367 1.424 . S
C368 C369 1.347 . S
C369 H361 0.951 . S
C369 C364 1.429 . S
C369 C368 1.347 . S
H370 C371 0.951 . S
C371 H370 0.951 . S
C371 C377 1.265 . S
H372 C377 0.950 . S
H373 C381 0.949 . S
H374 C382 0.950 . S
H375 C383 0.951 . S
H376 C384 0.951 . S
C377 C371 1.265 . S
C377 H372 0.950 . S
C377 C378 1.478 . S
C378 C377 1.478 . S
C378 C379 1.397 . S
C378 C395 1.394 . S
C379 C378 1.397 . S
C379 C380 1.438 . S
C379 C384 1.429 . S
C380 C379 1.438 . S
C380 C381 1.428 . S
C380 C393 1.394 . S
C381 H373 0.949 . S
C381 C380 1.428 . S
C381 C382 1.345 . S
C382 H374 0.950 . S
C382 C381 1.345 . S
C382 C383 1.424 . S
C383 H375 0.951 . S
C383 C382 1.424 . S
C383 C384 1.347 . S
C384 H376 0.951 . S
C384 C379 1.429 . S
C384 C383 1.347 . S
H385 C386 0.951 . S
C386 H385 0.951 . S
C386 C392 1.265 . S
H387 C392 0.950 . S
H388 C396 0.949 . S
H389 C397 0.950 . S
H390 C398 0.951 . S
H391 C399 0.951 . S
C392 C386 1.265 . S
C392 H387 0.950 . S
C392 C393 1.478 . S
C393 C380 1.394 . S
C393 C392 1.478 . S
C393 C394 1.397 . S
C394 C393 1.397 . S
C394 C395 1.438 . S
C394 C399 1.429 . S
C395 C378 1.394 . S
C395 C394 1.438 . S
C395 C396 1.428 . S
C396 H388 0.949 . S
C396 C395 1.428 . S
C396 C397 1.345 . S
C397 H389 0.950 . S
C397 C396 1.345 . S
C397 C398 1.424 . S
C398 H390 0.951 . S
C398 C397 1.424 . S
C398 C399 1.347 . S
C399 H391 0.951 . S
C399 C394 1.429 . S
C399 C398 1.347 . S
H400 C401 0.951 . S
C401 H400 0.951 . S
C401 C407 1.265 . S
H402 C407 0.950 . S
H403 C411 0.949 . S
H404 C412 0.950 . S
H405 C413 0.951 . S
H406 C414 0.951 . S
C407 C401 1.265 . S
C407 H402 0.950 . S
C407 C408 1.478 . S
C408 C407 1.478 . S
C408 C409 1.397 . S
C408 C425 1.394 . S
C409 C408 1.397 . S
C409 C410 1.438 1_655 S
C409 C414 1.429 . S
C410 C409 1.438 1_455 S
C410 C411 1.428 . S
C410 C423 1.394 . S
C411 H403 0.949 . S
C411 C410 1.428 . S
C411 C412 1.345 . S
C412 H404 0.950 . S
C412 C411 1.345 . S
C412 C413 1.424 1_455 S
C413 H405 0.951 . S
C413 C412 1.424 1_655 S
C413 C414 1.347 . S
C414 H406 0.951 . S
C414 C409 1.429 . S
C414 C413 1.347 . S
H415 C416 0.951 . S
C416 H415 0.951 . S
C416 C422 1.265 . S
H417 C422 0.950 . S
H418 C426 0.949 . S
H419 C427 0.950 1_655 S
H420 C428 0.951 . S
H421 C429 0.951 . S
C422 C416 1.265 . S
C422 H417 0.950 . S
C422 C423 1.478 . S
C423 C410 1.394 . S
C423 C422 1.478 . S
C423 C424 1.397 . S
C424 C423 1.397 . S
C424 C425 1.438 1_455 S
C424 C429 1.429 . S
C425 C408 1.394 . S
C425 C424 1.438 1_655 S
C425 C426 1.428 . S
C426 H418 0.949 . S
C426 C425 1.428 . S
C426 C427 1.345 1_655 S
C427 H419 0.950 1_455 S
C427 C426 1.345 1_455 S
C427 C428 1.424 . S
C428 H420 0.951 . S
C428 C427 1.424 . S
C428 C429 1.347 . S
C429 H421 0.951 . S
C429 C424 1.429 . S
C429 C428 1.347 . S
H430 C431 0.951 . S
C431 H430 0.951 . S
C431 C437 1.265 1_655 S
H432 C437 0.950 . S
H433 C441 0.949 . S
H434 C442 0.950 . S
H435 C443 0.951 . S
H436 C444 0.951 . S
C437 C431 1.265 1_455 S
C437 H432 0.950 . S
C437 C438 1.478 . S
C438 C437 1.478 . S
C438 C439 1.397 . S
C438 C455 1.394 1_455 S
C439 C438 1.397 . S
C439 C440 1.438 . S
C439 C444 1.429 . S
C440 C439 1.438 . S
C440 C441 1.428 . S
C440 C453 1.394 . S
C441 H433 0.949 . S
C441 C440 1.428 . S
C441 C442 1.345 . S
C442 H434 0.950 . S
C442 C441 1.345 . S
C442 C443 1.424 . S
C443 H435 0.951 . S
C443 C442 1.424 . S
C443 C444 1.347 . S
C444 H436 0.951 . S
C444 C439 1.429 . S
C444 C443 1.347 . S
H445 C446 0.951 . S
C446 H445 0.951 . S
C446 C452 1.265 . S
H447 C452 0.949 . S
H448 C456 0.949 . S
H449 C457 0.950 . S
H450 C458 0.951 . S
H451 C459 0.951 . S
C452 C446 1.265 . S
C452 H447 0.949 . S
C452 C453 1.478 . S
C453 C440 1.394 . S
C453 C452 1.478 . S
C453 C454 1.397 . S
C454 C453 1.397 . S
C454 C455 1.438 1_455 S
C454 C459 1.429 1_455 S
C455 C438 1.394 1_655 S
C455 C454 1.438 1_655 S
C455 C456 1.428 . S
C456 H448 0.949 . S
C456 C455 1.428 . S
C456 C457 1.345 . S
C457 H449 0.950 . S
C457 C456 1.345 . S
C457 C458 1.424 . S
C458 H450 0.951 . S
C458 C457 1.424 . S
C458 C459 1.347 . S
C459 H451 0.951 . S
C459 C454 1.429 1_655 S
C459 C458 1.347 . S
H460 C461 0.951 . S
C461 H460 0.951 . S
C461 C467 1.265 . S
H462 C467 0.950 . S
H463 C471 0.949 . S
H464 C472 0.950 1_455 S
H465 C473 0.951 . S
H466 C474 0.951 . S
C467 C461 1.265 . S
C467 H462 0.950 . S
C467 C468 1.478 . S
C468 C467 1.478 . S
C468 C469 1.397 . S
C468 C485 1.394 . S
C469 C468 1.397 . S
C469 C470 1.438 1_655 S
C469 C474 1.429 . S
C470 C469 1.438 1_455 S
C470 C471 1.428 . S
C470 C483 1.394 . S
C471 H463 0.949 . S
C471 C470 1.428 . S
C471 C472 1.345 1_455 S
C472 H464 0.950 1_655 S
C472 C471 1.345 1_655 S
C472 C473 1.424 . S
C473 H465 0.951 . S
C473 C472 1.424 . S
C473 C474 1.347 . S
C474 H466 0.951 . S
C474 C469 1.429 . S
C474 C473 1.347 . S
H475 C476 0.951 . S
C476 H475 0.951 . S
C476 C482 1.265 . S
H477 C482 0.950 . S
H478 C486 0.949 . S
H479 C487 0.950 . S
H480 C488 0.951 . S
H481 C489 0.951 . S
C482 C476 1.265 . S
C482 H477 0.950 . S
C482 C483 1.478 . S
C483 C470 1.394 . S
C483 C482 1.478 . S
C483 C484 1.397 . S
C484 C483 1.397 . S
C484 C485 1.438 1_455 S
C484 C489 1.429 . S
C485 C468 1.394 . S
C485 C484 1.438 1_655 S
C485 C486 1.428 . S
C486 H478 0.949 . S
C486 C485 1.428 . S
C486 C487 1.345 . S
C487 H479 0.950 . S
C487 C486 1.345 . S
C487 C488 1.424 1_655 S
C488 H480 0.951 . S
C488 C487 1.424 1_455 S
C488 C489 1.347 . S
C489 H481 0.951 . S
C489 C484 1.429 . S
C489 C488 1.347 . S
H490 C491 0.951 1_655 S
C491 H490 0.951 1_455 S
C491 C497 1.265 . S
H492 C497 0.950 . S
H493 C501 0.949 . S
H494 C502 0.950 . S
H495 C503 0.951 . S
H496 C504 0.951 . S
C497 C491 1.265 . S
C497 H492 0.950 . S
C497 C498 1.478 . S
C498 C497 1.478 . S
C498 C499 1.397 . S
C498 C515 1.394 1_455 S
C499 C498 1.397 . S
C499 C500 1.438 1_455 S
C499 C504 1.429 . S
C500 C499 1.438 1_655 S
C500 C501 1.428 . S
C500 C513 1.394 . S
C501 H493 0.949 . S
C501 C500 1.428 . S
C501 C502 1.345 1_655 S
C502 H494 0.950 . S
C502 C501 1.345 1_455 S
C502 C503 1.424 . S
C503 H495 0.951 . S
C503 C502 1.424 . S
C503 C504 1.347 . S
C504 H496 0.951 . S
C504 C499 1.429 . S
C504 C503 1.347 . S
H505 C506 0.951 . S
C506 H505 0.951 . S
C506 C512 1.265 . S
H507 C512 0.950 . S
H508 C516 0.949 1_455 S
H509 C517 0.950 . S
H510 C518 0.951 . S
H511 C519 0.951 . S
C512 C506 1.265 . S
C512 H507 0.950 . S
C512 C513 1.478 . S
C513 C500 1.394 . S
C513 C512 1.478 . S
C513 C514 1.397 . S
C514 C513 1.397 . S
C514 C515 1.438 . S
C514 C519 1.429 . S
C515 C498 1.394 1_655 S
C515 C514 1.438 . S
C515 C516 1.428 . S
C516 H508 0.949 1_655 S
C516 C515 1.428 . S
C516 C517 1.345 . S
C517 H509 0.950 . S
C517 C516 1.345 . S
C517 C518 1.424 . S
C518 H510 0.951 . S
C518 C517 1.424 . S
C518 C519 1.347 . S
C519 H511 0.951 . S
C519 C514 1.429 . S
C519 C518 1.347 . S
C161 C55 1.520 . S
C176 C6 1.520 . S
C191 C89 2.057 . S
C206 C138 2.057 . S
C221 C15 1.528 . S
C236 C46 1.528 . S
C251 C129 2.056 . S
C266 C98 2.056 . S
C281 C130 1.081 . S
C296 C9 1.030 . S
C311 C59 1.576 . S
C326 C86 1.550 . S
C341 C58 1.025 . S
C356 C99 1.036 . S
C371 C135 1.575 . S
C386 C10 1.564 . S
C401 C49 1.035 . S
C416 C90 1.040 . S
C431 C126 1.574 . S
C446 C19 1.564 . S
C461 C139 1.041 . S
C476 C18 1.037 . S
C491 C95 1.555 . S
C506 C50 1.579 . S
