# Generated by pormake.
# Topology kfi, (4)-cn, num edge types: 1
# Building blocks:
#     Node 0, Type 0, BuildingBlock: QUQFOY_clean_sbu_3, # of connection points: 4
#     Node 1, Type 0, BuildingBlock: QUQFOY_clean_sbu_3, # of connection points: 4
#     Node 2, Type 0, BuildingBlock: QUQFOY_clean_sbu_3, # of connection points: 4
#     Node 3, Type 0, BuildingBlock: QUQFOY_clean_sbu_3, # of connection points: 4
#     Node 4, Type 0, BuildingBlock: QUQFOY_clean_sbu_3, # of connection points: 4
#     Node 5, Type 0, BuildingBlock: QUQFOY_clean_sbu_3, # of connection points: 4
#     Node 6, Type 0, BuildingBlock: QUQFOY_clean_sbu_3, # of connection points: 4
#     Node 7, Type 0, BuildingBlock: QUQFOY_clean_sbu_3, # of connection points: 4
#     Node 8, Type 0, BuildingBlock: QUQFOY_clean_sbu_3, # of connection points: 4
#     Node 9, Type 0, BuildingBlock: QUQFOY_clean_sbu_3, # of connection points: 4
#     Node 10, Type 0, BuildingBlock: QUQFOY_clean_sbu_3, # of connection points: 4
#     Node 11, Type 0, BuildingBlock: QUQFOY_clean_sbu_3, # of connection points: 4
#     Node 12, Type 0, BuildingBlock: QUQFOY_clean_sbu_3, # of connection points: 4
#     Node 13, Type 0, BuildingBlock: QUQFOY_clean_sbu_3, # of connection points: 4
#     Node 14, Type 0, BuildingBlock: QUQFOY_clean_sbu_3, # of connection points: 4
#     Node 15, Type 0, BuildingBlock: QUQFOY_clean_sbu_3, # of connection points: 4
#     Node 16, Type 0, BuildingBlock: QUQFOY_clean_sbu_3, # of connection points: 4
#     Node 17, Type 0, BuildingBlock: QUQFOY_clean_sbu_3, # of connection points: 4
#     Node 18, Type 0, BuildingBlock: QUQFOY_clean_sbu_3, # of connection points: 4
#     Node 19, Type 0, BuildingBlock: QUQFOY_clean_sbu_3, # of connection points: 4
#     Node 20, Type 0, BuildingBlock: QUQFOY_clean_sbu_3, # of connection points: 4
#     Node 21, Type 0, BuildingBlock: QUQFOY_clean_sbu_3, # of connection points: 4
#     Node 22, Type 0, BuildingBlock: QUQFOY_clean_sbu_3, # of connection points: 4
#     Node 23, Type 0, BuildingBlock: QUQFOY_clean_sbu_3, # of connection points: 4
#     Node 24, Type 0, BuildingBlock: QUQFOY_clean_sbu_3, # of connection points: 4
#     Node 25, Type 0, BuildingBlock: QUQFOY_clean_sbu_3, # of connection points: 4
#     Node 26, Type 0, BuildingBlock: QUQFOY_clean_sbu_3, # of connection points: 4
#     Node 27, Type 0, BuildingBlock: QUQFOY_clean_sbu_3, # of connection points: 4
#     Node 28, Type 0, BuildingBlock: QUQFOY_clean_sbu_3, # of connection points: 4
#     Node 29, Type 0, BuildingBlock: QUQFOY_clean_sbu_3, # of connection points: 4
#     Node 30, Type 0, BuildingBlock: QUQFOY_clean_sbu_3, # of connection points: 4
#     Node 31, Type 0, BuildingBlock: QUQFOY_clean_sbu_3, # of connection points: 4
#     Node 32, Type 0, BuildingBlock: QUQFOY_clean_sbu_3, # of connection points: 4
#     Node 33, Type 0, BuildingBlock: QUQFOY_clean_sbu_3, # of connection points: 4
#     Node 34, Type 0, BuildingBlock: QUQFOY_clean_sbu_3, # of connection points: 4
#     Node 35, Type 0, BuildingBlock: QUQFOY_clean_sbu_3, # of connection points: 4
#     Node 36, Type 0, BuildingBlock: QUQFOY_clean_sbu_3, # of connection points: 4
#     Node 37, Type 0, BuildingBlock: QUQFOY_clean_sbu_3, # of connection points: 4
#     Node 38, Type 0, BuildingBlock: QUQFOY_clean_sbu_3, # of connection points: 4
#     Node 39, Type 0, BuildingBlock: QUQFOY_clean_sbu_3, # of connection points: 4
#     Node 40, Type 0, BuildingBlock: QUQFOY_clean_sbu_3, # of connection points: 4
#     Node 41, Type 0, BuildingBlock: QUQFOY_clean_sbu_3, # of connection points: 4
#     Node 42, Type 0, BuildingBlock: QUQFOY_clean_sbu_3, # of connection points: 4
#     Node 43, Type 0, BuildingBlock: QUQFOY_clean_sbu_3, # of connection points: 4
#     Node 44, Type 0, BuildingBlock: QUQFOY_clean_sbu_3, # of connection points: 4
#     Node 45, Type 0, BuildingBlock: QUQFOY_clean_sbu_3, # of connection points: 4
#     Node 46, Type 0, BuildingBlock: QUQFOY_clean_sbu_3, # of connection points: 4
#     Node 47, Type 0, BuildingBlock: QUQFOY_clean_sbu_3, # of connection points: 4
#     Node 48, Type 0, BuildingBlock: QUQFOY_clean_sbu_3, # of connection points: 4
#     Node 49, Type 0, BuildingBlock: QUQFOY_clean_sbu_3, # of connection points: 4
#     Node 50, Type 0, BuildingBlock: QUQFOY_clean_sbu_3, # of connection points: 4
#     Node 51, Type 0, BuildingBlock: QUQFOY_clean_sbu_3, # of connection points: 4
#     Node 52, Type 0, BuildingBlock: QUQFOY_clean_sbu_3, # of connection points: 4
#     Node 53, Type 0, BuildingBlock: QUQFOY_clean_sbu_3, # of connection points: 4
#     Node 54, Type 0, BuildingBlock: QUQFOY_clean_sbu_3, # of connection points: 4
#     Node 55, Type 0, BuildingBlock: QUQFOY_clean_sbu_3, # of connection points: 4
#     Node 56, Type 0, BuildingBlock: QUQFOY_clean_sbu_3, # of connection points: 4
#     Node 57, Type 0, BuildingBlock: QUQFOY_clean_sbu_3, # of connection points: 4
#     Node 58, Type 0, BuildingBlock: QUQFOY_clean_sbu_3, # of connection points: 4
#     Node 59, Type 0, BuildingBlock: QUQFOY_clean_sbu_3, # of connection points: 4
#     Node 60, Type 0, BuildingBlock: QUQFOY_clean_sbu_3, # of connection points: 4
#     Node 61, Type 0, BuildingBlock: QUQFOY_clean_sbu_3, # of connection points: 4
#     Node 62, Type 0, BuildingBlock: QUQFOY_clean_sbu_3, # of connection points: 4
#     Node 63, Type 0, BuildingBlock: QUQFOY_clean_sbu_3, # of connection points: 4
#     Node 64, Type 0, BuildingBlock: QUQFOY_clean_sbu_3, # of connection points: 4
#     Node 65, Type 0, BuildingBlock: QUQFOY_clean_sbu_3, # of connection points: 4
#     Node 66, Type 0, BuildingBlock: QUQFOY_clean_sbu_3, # of connection points: 4
#     Node 67, Type 0, BuildingBlock: QUQFOY_clean_sbu_3, # of connection points: 4
#     Node 68, Type 0, BuildingBlock: QUQFOY_clean_sbu_3, # of connection points: 4
#     Node 69, Type 0, BuildingBlock: QUQFOY_clean_sbu_3, # of connection points: 4
#     Node 70, Type 0, BuildingBlock: QUQFOY_clean_sbu_3, # of connection points: 4
#     Node 71, Type 0, BuildingBlock: QUQFOY_clean_sbu_3, # of connection points: 4
#     Node 72, Type 0, BuildingBlock: QUQFOY_clean_sbu_3, # of connection points: 4
#     Node 73, Type 0, BuildingBlock: QUQFOY_clean_sbu_3, # of connection points: 4
#     Node 74, Type 0, BuildingBlock: QUQFOY_clean_sbu_3, # of connection points: 4
#     Node 75, Type 0, BuildingBlock: QUQFOY_clean_sbu_3, # of connection points: 4
#     Node 76, Type 0, BuildingBlock: QUQFOY_clean_sbu_3, # of connection points: 4
#     Node 77, Type 0, BuildingBlock: QUQFOY_clean_sbu_3, # of connection points: 4
#     Node 78, Type 0, BuildingBlock: QUQFOY_clean_sbu_3, # of connection points: 4
#     Node 79, Type 0, BuildingBlock: QUQFOY_clean_sbu_3, # of connection points: 4
#     Node 80, Type 0, BuildingBlock: QUQFOY_clean_sbu_3, # of connection points: 4
#     Node 81, Type 0, BuildingBlock: QUQFOY_clean_sbu_3, # of connection points: 4
#     Node 82, Type 0, BuildingBlock: QUQFOY_clean_sbu_3, # of connection points: 4
#     Node 83, Type 0, BuildingBlock: QUQFOY_clean_sbu_3, # of connection points: 4
#     Node 84, Type 0, BuildingBlock: QUQFOY_clean_sbu_3, # of connection points: 4
#     Node 85, Type 0, BuildingBlock: QUQFOY_clean_sbu_3, # of connection points: 4
#     Node 86, Type 0, BuildingBlock: QUQFOY_clean_sbu_3, # of connection points: 4
#     Node 87, Type 0, BuildingBlock: QUQFOY_clean_sbu_3, # of connection points: 4
#     Node 88, Type 0, BuildingBlock: QUQFOY_clean_sbu_3, # of connection points: 4
#     Node 89, Type 0, BuildingBlock: QUQFOY_clean_sbu_3, # of connection points: 4
#     Node 90, Type 0, BuildingBlock: QUQFOY_clean_sbu_3, # of connection points: 4
#     Node 91, Type 0, BuildingBlock: QUQFOY_clean_sbu_3, # of connection points: 4
#     Node 92, Type 0, BuildingBlock: QUQFOY_clean_sbu_3, # of connection points: 4
#     Node 93, Type 0, BuildingBlock: QUQFOY_clean_sbu_3, # of connection points: 4
#     Node 94, Type 0, BuildingBlock: QUQFOY_clean_sbu_3, # of connection points: 4
#     Node 95, Type 0, BuildingBlock: QUQFOY_clean_sbu_3, # of connection points: 4
#     Edge 96, Type (0, 0), BuildingBlock: OJICUG_clean_linker_0, # of connection points: 2
#     Edge 97, Type (0, 0), BuildingBlock: OJICUG_clean_linker_0, # of connection points: 2
#     Edge 98, Type (0, 0), BuildingBlock: OJICUG_clean_linker_0, # of connection points: 2
#     Edge 99, Type (0, 0), BuildingBlock: OJICUG_clean_linker_0, # of connection points: 2
#     Edge 100, Type (0, 0), BuildingBlock: OJICUG_clean_linker_0, # of connection points: 2
#     Edge 101, Type (0, 0), BuildingBlock: OJICUG_clean_linker_0, # of connection points: 2
#     Edge 102, Type (0, 0), BuildingBlock: OJICUG_clean_linker_0, # of connection points: 2
#     Edge 103, Type (0, 0), BuildingBlock: OJICUG_clean_linker_0, # of connection points: 2
#     Edge 104, Type (0, 0), BuildingBlock: OJICUG_clean_linker_0, # of connection points: 2
#     Edge 105, Type (0, 0), BuildingBlock: OJICUG_clean_linker_0, # of connection points: 2
#     Edge 106, Type (0, 0), BuildingBlock: OJICUG_clean_linker_0, # of connection points: 2
#     Edge 107, Type (0, 0), BuildingBlock: OJICUG_clean_linker_0, # of connection points: 2
#     Edge 108, Type (0, 0), BuildingBlock: OJICUG_clean_linker_0, # of connection points: 2
#     Edge 109, Type (0, 0), BuildingBlock: OJICUG_clean_linker_0, # of connection points: 2
#     Edge 110, Type (0, 0), BuildingBlock: OJICUG_clean_linker_0, # of connection points: 2
#     Edge 111, Type (0, 0), BuildingBlock: OJICUG_clean_linker_0, # of connection points: 2
#     Edge 112, Type (0, 0), BuildingBlock: OJICUG_clean_linker_0, # of connection points: 2
#     Edge 113, Type (0, 0), BuildingBlock: OJICUG_clean_linker_0, # of connection points: 2
#     Edge 114, Type (0, 0), BuildingBlock: OJICUG_clean_linker_0, # of connection points: 2
#     Edge 115, Type (0, 0), BuildingBlock: OJICUG_clean_linker_0, # of connection points: 2
#     Edge 116, Type (0, 0), BuildingBlock: OJICUG_clean_linker_0, # of connection points: 2
#     Edge 117, Type (0, 0), BuildingBlock: OJICUG_clean_linker_0, # of connection points: 2
#     Edge 118, Type (0, 0), BuildingBlock: OJICUG_clean_linker_0, # of connection points: 2
#     Edge 119, Type (0, 0), BuildingBlock: OJICUG_clean_linker_0, # of connection points: 2
#     Edge 120, Type (0, 0), BuildingBlock: OJICUG_clean_linker_0, # of connection points: 2
#     Edge 121, Type (0, 0), BuildingBlock: OJICUG_clean_linker_0, # of connection points: 2
#     Edge 122, Type (0, 0), BuildingBlock: OJICUG_clean_linker_0, # of connection points: 2
#     Edge 123, Type (0, 0), BuildingBlock: OJICUG_clean_linker_0, # of connection points: 2
#     Edge 124, Type (0, 0), BuildingBlock: OJICUG_clean_linker_0, # of connection points: 2
#     Edge 125, Type (0, 0), BuildingBlock: OJICUG_clean_linker_0, # of connection points: 2
#     Edge 126, Type (0, 0), BuildingBlock: OJICUG_clean_linker_0, # of connection points: 2
#     Edge 127, Type (0, 0), BuildingBlock: OJICUG_clean_linker_0, # of connection points: 2
#     Edge 128, Type (0, 0), BuildingBlock: OJICUG_clean_linker_0, # of connection points: 2
#     Edge 129, Type (0, 0), BuildingBlock: OJICUG_clean_linker_0, # of connection points: 2
#     Edge 130, Type (0, 0), BuildingBlock: OJICUG_clean_linker_0, # of connection points: 2
#     Edge 131, Type (0, 0), BuildingBlock: OJICUG_clean_linker_0, # of connection points: 2
#     Edge 132, Type (0, 0), BuildingBlock: OJICUG_clean_linker_0, # of connection points: 2
#     Edge 133, Type (0, 0), BuildingBlock: OJICUG_clean_linker_0, # of connection points: 2
#     Edge 134, Type (0, 0), BuildingBlock: OJICUG_clean_linker_0, # of connection points: 2
#     Edge 135, Type (0, 0), BuildingBlock: OJICUG_clean_linker_0, # of connection points: 2
#     Edge 136, Type (0, 0), BuildingBlock: OJICUG_clean_linker_0, # of connection points: 2
#     Edge 137, Type (0, 0), BuildingBlock: OJICUG_clean_linker_0, # of connection points: 2
#     Edge 138, Type (0, 0), BuildingBlock: OJICUG_clean_linker_0, # of connection points: 2
#     Edge 139, Type (0, 0), BuildingBlock: OJICUG_clean_linker_0, # of connection points: 2
#     Edge 140, Type (0, 0), BuildingBlock: OJICUG_clean_linker_0, # of connection points: 2
#     Edge 141, Type (0, 0), BuildingBlock: OJICUG_clean_linker_0, # of connection points: 2
#     Edge 142, Type (0, 0), BuildingBlock: OJICUG_clean_linker_0, # of connection points: 2
#     Edge 143, Type (0, 0), BuildingBlock: OJICUG_clean_linker_0, # of connection points: 2
#     Edge 144, Type (0, 0), BuildingBlock: OJICUG_clean_linker_0, # of connection points: 2
#     Edge 145, Type (0, 0), BuildingBlock: OJICUG_clean_linker_0, # of connection points: 2
#     Edge 146, Type (0, 0), BuildingBlock: OJICUG_clean_linker_0, # of connection points: 2
#     Edge 147, Type (0, 0), BuildingBlock: OJICUG_clean_linker_0, # of connection points: 2
#     Edge 148, Type (0, 0), BuildingBlock: OJICUG_clean_linker_0, # of connection points: 2
#     Edge 149, Type (0, 0), BuildingBlock: OJICUG_clean_linker_0, # of connection points: 2
#     Edge 150, Type (0, 0), BuildingBlock: OJICUG_clean_linker_0, # of connection points: 2
#     Edge 151, Type (0, 0), BuildingBlock: OJICUG_clean_linker_0, # of connection points: 2
#     Edge 152, Type (0, 0), BuildingBlock: OJICUG_clean_linker_0, # of connection points: 2
#     Edge 153, Type (0, 0), BuildingBlock: OJICUG_clean_linker_0, # of connection points: 2
#     Edge 154, Type (0, 0), BuildingBlock: OJICUG_clean_linker_0, # of connection points: 2
#     Edge 155, Type (0, 0), BuildingBlock: OJICUG_clean_linker_0, # of connection points: 2
#     Edge 156, Type (0, 0), BuildingBlock: OJICUG_clean_linker_0, # of connection points: 2
#     Edge 157, Type (0, 0), BuildingBlock: OJICUG_clean_linker_0, # of connection points: 2
#     Edge 158, Type (0, 0), BuildingBlock: OJICUG_clean_linker_0, # of connection points: 2
#     Edge 159, Type (0, 0), BuildingBlock: OJICUG_clean_linker_0, # of connection points: 2
#     Edge 160, Type (0, 0), BuildingBlock: OJICUG_clean_linker_0, # of connection points: 2
#     Edge 161, Type (0, 0), BuildingBlock: OJICUG_clean_linker_0, # of connection points: 2
#     Edge 162, Type (0, 0), BuildingBlock: OJICUG_clean_linker_0, # of connection points: 2
#     Edge 163, Type (0, 0), BuildingBlock: OJICUG_clean_linker_0, # of connection points: 2
#     Edge 164, Type (0, 0), BuildingBlock: OJICUG_clean_linker_0, # of connection points: 2
#     Edge 165, Type (0, 0), BuildingBlock: OJICUG_clean_linker_0, # of connection points: 2
#     Edge 166, Type (0, 0), BuildingBlock: OJICUG_clean_linker_0, # of connection points: 2
#     Edge 167, Type (0, 0), BuildingBlock: OJICUG_clean_linker_0, # of connection points: 2
#     Edge 168, Type (0, 0), BuildingBlock: OJICUG_clean_linker_0, # of connection points: 2
#     Edge 169, Type (0, 0), BuildingBlock: OJICUG_clean_linker_0, # of connection points: 2
#     Edge 170, Type (0, 0), BuildingBlock: OJICUG_clean_linker_0, # of connection points: 2
#     Edge 171, Type (0, 0), BuildingBlock: OJICUG_clean_linker_0, # of connection points: 2
#     Edge 172, Type (0, 0), BuildingBlock: OJICUG_clean_linker_0, # of connection points: 2
#     Edge 173, Type (0, 0), BuildingBlock: OJICUG_clean_linker_0, # of connection points: 2
#     Edge 174, Type (0, 0), BuildingBlock: OJICUG_clean_linker_0, # of connection points: 2
#     Edge 175, Type (0, 0), BuildingBlock: OJICUG_clean_linker_0, # of connection points: 2
#     Edge 176, Type (0, 0), BuildingBlock: OJICUG_clean_linker_0, # of connection points: 2
#     Edge 177, Type (0, 0), BuildingBlock: OJICUG_clean_linker_0, # of connection points: 2
#     Edge 178, Type (0, 0), BuildingBlock: OJICUG_clean_linker_0, # of connection points: 2
#     Edge 179, Type (0, 0), BuildingBlock: OJICUG_clean_linker_0, # of connection points: 2
#     Edge 180, Type (0, 0), BuildingBlock: OJICUG_clean_linker_0, # of connection points: 2
#     Edge 181, Type (0, 0), BuildingBlock: OJICUG_clean_linker_0, # of connection points: 2
#     Edge 182, Type (0, 0), BuildingBlock: OJICUG_clean_linker_0, # of connection points: 2
#     Edge 183, Type (0, 0), BuildingBlock: OJICUG_clean_linker_0, # of connection points: 2
#     Edge 184, Type (0, 0), BuildingBlock: OJICUG_clean_linker_0, # of connection points: 2
#     Edge 185, Type (0, 0), BuildingBlock: OJICUG_clean_linker_0, # of connection points: 2
#     Edge 186, Type (0, 0), BuildingBlock: OJICUG_clean_linker_0, # of connection points: 2
#     Edge 187, Type (0, 0), BuildingBlock: OJICUG_clean_linker_0, # of connection points: 2
#     Edge 188, Type (0, 0), BuildingBlock: OJICUG_clean_linker_0, # of connection points: 2
#     Edge 189, Type (0, 0), BuildingBlock: OJICUG_clean_linker_0, # of connection points: 2
#     Edge 190, Type (0, 0), BuildingBlock: OJICUG_clean_linker_0, # of connection points: 2
#     Edge 191, Type (0, 0), BuildingBlock: OJICUG_clean_linker_0, # of connection points: 2
#     Edge 192, Type (0, 0), BuildingBlock: OJICUG_clean_linker_0, # of connection points: 2
#     Edge 193, Type (0, 0), BuildingBlock: OJICUG_clean_linker_0, # of connection points: 2
#     Edge 194, Type (0, 0), BuildingBlock: OJICUG_clean_linker_0, # of connection points: 2
#     Edge 195, Type (0, 0), BuildingBlock: OJICUG_clean_linker_0, # of connection points: 2
#     Edge 196, Type (0, 0), BuildingBlock: OJICUG_clean_linker_0, # of connection points: 2
#     Edge 197, Type (0, 0), BuildingBlock: OJICUG_clean_linker_0, # of connection points: 2
#     Edge 198, Type (0, 0), BuildingBlock: OJICUG_clean_linker_0, # of connection points: 2
#     Edge 199, Type (0, 0), BuildingBlock: OJICUG_clean_linker_0, # of connection points: 2
#     Edge 200, Type (0, 0), BuildingBlock: OJICUG_clean_linker_0, # of connection points: 2
#     Edge 201, Type (0, 0), BuildingBlock: OJICUG_clean_linker_0, # of connection points: 2
#     Edge 202, Type (0, 0), BuildingBlock: OJICUG_clean_linker_0, # of connection points: 2
#     Edge 203, Type (0, 0), BuildingBlock: OJICUG_clean_linker_0, # of connection points: 2
#     Edge 204, Type (0, 0), BuildingBlock: OJICUG_clean_linker_0, # of connection points: 2
#     Edge 205, Type (0, 0), BuildingBlock: OJICUG_clean_linker_0, # of connection points: 2
#     Edge 206, Type (0, 0), BuildingBlock: OJICUG_clean_linker_0, # of connection points: 2
#     Edge 207, Type (0, 0), BuildingBlock: OJICUG_clean_linker_0, # of connection points: 2
#     Edge 208, Type (0, 0), BuildingBlock: OJICUG_clean_linker_0, # of connection points: 2
#     Edge 209, Type (0, 0), BuildingBlock: OJICUG_clean_linker_0, # of connection points: 2
#     Edge 210, Type (0, 0), BuildingBlock: OJICUG_clean_linker_0, # of connection points: 2
#     Edge 211, Type (0, 0), BuildingBlock: OJICUG_clean_linker_0, # of connection points: 2
#     Edge 212, Type (0, 0), BuildingBlock: OJICUG_clean_linker_0, # of connection points: 2
#     Edge 213, Type (0, 0), BuildingBlock: OJICUG_clean_linker_0, # of connection points: 2
#     Edge 214, Type (0, 0), BuildingBlock: OJICUG_clean_linker_0, # of connection points: 2
#     Edge 215, Type (0, 0), BuildingBlock: OJICUG_clean_linker_0, # of connection points: 2
#     Edge 216, Type (0, 0), BuildingBlock: OJICUG_clean_linker_0, # of connection points: 2
#     Edge 217, Type (0, 0), BuildingBlock: OJICUG_clean_linker_0, # of connection points: 2
#     Edge 218, Type (0, 0), BuildingBlock: OJICUG_clean_linker_0, # of connection points: 2
#     Edge 219, Type (0, 0), BuildingBlock: OJICUG_clean_linker_0, # of connection points: 2
#     Edge 220, Type (0, 0), BuildingBlock: OJICUG_clean_linker_0, # of connection points: 2
#     Edge 221, Type (0, 0), BuildingBlock: OJICUG_clean_linker_0, # of connection points: 2
#     Edge 222, Type (0, 0), BuildingBlock: OJICUG_clean_linker_0, # of connection points: 2
#     Edge 223, Type (0, 0), BuildingBlock: OJICUG_clean_linker_0, # of connection points: 2
#     Edge 224, Type (0, 0), BuildingBlock: OJICUG_clean_linker_0, # of connection points: 2
#     Edge 225, Type (0, 0), BuildingBlock: OJICUG_clean_linker_0, # of connection points: 2
#     Edge 226, Type (0, 0), BuildingBlock: OJICUG_clean_linker_0, # of connection points: 2
#     Edge 227, Type (0, 0), BuildingBlock: OJICUG_clean_linker_0, # of connection points: 2
#     Edge 228, Type (0, 0), BuildingBlock: OJICUG_clean_linker_0, # of connection points: 2
#     Edge 229, Type (0, 0), BuildingBlock: OJICUG_clean_linker_0, # of connection points: 2
#     Edge 230, Type (0, 0), BuildingBlock: OJICUG_clean_linker_0, # of connection points: 2
#     Edge 231, Type (0, 0), BuildingBlock: OJICUG_clean_linker_0, # of connection points: 2
#     Edge 232, Type (0, 0), BuildingBlock: OJICUG_clean_linker_0, # of connection points: 2
#     Edge 233, Type (0, 0), BuildingBlock: OJICUG_clean_linker_0, # of connection points: 2
#     Edge 234, Type (0, 0), BuildingBlock: OJICUG_clean_linker_0, # of connection points: 2
#     Edge 235, Type (0, 0), BuildingBlock: OJICUG_clean_linker_0, # of connection points: 2
#     Edge 236, Type (0, 0), BuildingBlock: OJICUG_clean_linker_0, # of connection points: 2
#     Edge 237, Type (0, 0), BuildingBlock: OJICUG_clean_linker_0, # of connection points: 2
#     Edge 238, Type (0, 0), BuildingBlock: OJICUG_clean_linker_0, # of connection points: 2
#     Edge 239, Type (0, 0), BuildingBlock: OJICUG_clean_linker_0, # of connection points: 2
#     Edge 240, Type (0, 0), BuildingBlock: OJICUG_clean_linker_0, # of connection points: 2
#     Edge 241, Type (0, 0), BuildingBlock: OJICUG_clean_linker_0, # of connection points: 2
#     Edge 242, Type (0, 0), BuildingBlock: OJICUG_clean_linker_0, # of connection points: 2
#     Edge 243, Type (0, 0), BuildingBlock: OJICUG_clean_linker_0, # of connection points: 2
#     Edge 244, Type (0, 0), BuildingBlock: OJICUG_clean_linker_0, # of connection points: 2
#     Edge 245, Type (0, 0), BuildingBlock: OJICUG_clean_linker_0, # of connection points: 2
#     Edge 246, Type (0, 0), BuildingBlock: OJICUG_clean_linker_0, # of connection points: 2
#     Edge 247, Type (0, 0), BuildingBlock: OJICUG_clean_linker_0, # of connection points: 2
#     Edge 248, Type (0, 0), BuildingBlock: OJICUG_clean_linker_0, # of connection points: 2
#     Edge 249, Type (0, 0), BuildingBlock: OJICUG_clean_linker_0, # of connection points: 2
#     Edge 250, Type (0, 0), BuildingBlock: OJICUG_clean_linker_0, # of connection points: 2
#     Edge 251, Type (0, 0), BuildingBlock: OJICUG_clean_linker_0, # of connection points: 2
#     Edge 252, Type (0, 0), BuildingBlock: OJICUG_clean_linker_0, # of connection points: 2
#     Edge 253, Type (0, 0), BuildingBlock: OJICUG_clean_linker_0, # of connection points: 2
#     Edge 254, Type (0, 0), BuildingBlock: OJICUG_clean_linker_0, # of connection points: 2
#     Edge 255, Type (0, 0), BuildingBlock: OJICUG_clean_linker_0, # of connection points: 2
#     Edge 256, Type (0, 0), BuildingBlock: OJICUG_clean_linker_0, # of connection points: 2
#     Edge 257, Type (0, 0), BuildingBlock: OJICUG_clean_linker_0, # of connection points: 2
#     Edge 258, Type (0, 0), BuildingBlock: OJICUG_clean_linker_0, # of connection points: 2
#     Edge 259, Type (0, 0), BuildingBlock: OJICUG_clean_linker_0, # of connection points: 2
#     Edge 260, Type (0, 0), BuildingBlock: OJICUG_clean_linker_0, # of connection points: 2
#     Edge 261, Type (0, 0), BuildingBlock: OJICUG_clean_linker_0, # of connection points: 2
#     Edge 262, Type (0, 0), BuildingBlock: OJICUG_clean_linker_0, # of connection points: 2
#     Edge 263, Type (0, 0), BuildingBlock: OJICUG_clean_linker_0, # of connection points: 2
#     Edge 264, Type (0, 0), BuildingBlock: OJICUG_clean_linker_0, # of connection points: 2
#     Edge 265, Type (0, 0), BuildingBlock: OJICUG_clean_linker_0, # of connection points: 2
#     Edge 266, Type (0, 0), BuildingBlock: OJICUG_clean_linker_0, # of connection points: 2
#     Edge 267, Type (0, 0), BuildingBlock: OJICUG_clean_linker_0, # of connection points: 2
#     Edge 268, Type (0, 0), BuildingBlock: OJICUG_clean_linker_0, # of connection points: 2
#     Edge 269, Type (0, 0), BuildingBlock: OJICUG_clean_linker_0, # of connection points: 2
#     Edge 270, Type (0, 0), BuildingBlock: OJICUG_clean_linker_0, # of connection points: 2
#     Edge 271, Type (0, 0), BuildingBlock: OJICUG_clean_linker_0, # of connection points: 2
#     Edge 272, Type (0, 0), BuildingBlock: OJICUG_clean_linker_0, # of connection points: 2
#     Edge 273, Type (0, 0), BuildingBlock: OJICUG_clean_linker_0, # of connection points: 2
#     Edge 274, Type (0, 0), BuildingBlock: OJICUG_clean_linker_0, # of connection points: 2
#     Edge 275, Type (0, 0), BuildingBlock: OJICUG_clean_linker_0, # of connection points: 2
#     Edge 276, Type (0, 0), BuildingBlock: OJICUG_clean_linker_0, # of connection points: 2
#     Edge 277, Type (0, 0), BuildingBlock: OJICUG_clean_linker_0, # of connection points: 2
#     Edge 278, Type (0, 0), BuildingBlock: OJICUG_clean_linker_0, # of connection points: 2
#     Edge 279, Type (0, 0), BuildingBlock: OJICUG_clean_linker_0, # of connection points: 2
#     Edge 280, Type (0, 0), BuildingBlock: OJICUG_clean_linker_0, # of connection points: 2
#     Edge 281, Type (0, 0), BuildingBlock: OJICUG_clean_linker_0, # of connection points: 2
#     Edge 282, Type (0, 0), BuildingBlock: OJICUG_clean_linker_0, # of connection points: 2
#     Edge 283, Type (0, 0), BuildingBlock: OJICUG_clean_linker_0, # of connection points: 2
#     Edge 284, Type (0, 0), BuildingBlock: OJICUG_clean_linker_0, # of connection points: 2
#     Edge 285, Type (0, 0), BuildingBlock: OJICUG_clean_linker_0, # of connection points: 2
#     Edge 286, Type (0, 0), BuildingBlock: OJICUG_clean_linker_0, # of connection points: 2
#     Edge 287, Type (0, 0), BuildingBlock: OJICUG_clean_linker_0, # of connection points: 2
# Relax obj value: 0.153
# Max RMSD: 0.095
# Mean RMSD: 0.095
data_MOF--net-kfi--node1-QUQFOY_clean_sbu_3--edge1-OJICUG_clean_linker_0
_symmetry_space_group_name_H-M    P1
_symmetry_Int_Tables_number       1
_symmetry_cell_setting            triclinic
loop_
_symmetry_equiv_pos_as_xyz
'x, y, z'
_cell_length_a     66.892305
_cell_length_b     66.833776
_cell_length_c     66.863097
_cell_angle_alpha  89.969406
_cell_angle_beta   90.021984
_cell_angle_gamma 90.001241
loop_
_atom_site_label
_atom_site_type_symbol
_atom_site_fract_x
_atom_site_fract_y
_atom_site_fract_z
_atom_type_partial_charge
C0 C 0.10351 0.16333 0.28861 0.0
O1 O 0.107 0.17655 0.27543 0.0
Cd2 Cd 0.09477 0.2097 0.27539 0.0
O3 O 0.09114 0.16663 0.30277 0.0
Cd4 Cd 0.06718 0.19421 0.31156 0.0
C5 C 0.10647 0.22276 0.32425 0.0
O6 O 0.05979 0.20542 0.27801 0.0
O7 O 0.05137 0.22618 0.30089 0.0
O8 O 0.04107 0.1694 0.31555 0.0
C9 C 0.05145 0.22177 0.28247 0.0
O10 O 0.10952 0.22444 0.30551 0.0
C11 C 0.03409 0.17659 0.33167 0.0
O12 O 0.09226 0.21201 0.33097 0.0
O13 O 0.04351 0.19122 0.3393 0.0
C14 C 0.8216 0.10369 0.28927 0.0
O15 O 0.80846 0.10721 0.27603 0.0
Cd16 Cd 0.77523 0.09528 0.27608 0.0
O17 O 0.81817 0.09139 0.30348 0.0
Cd18 Cd 0.79052 0.06754 0.31232 0.0
C19 C 0.76245 0.10715 0.32501 0.0
O20 O 0.7791 0.06026 0.27883 0.0
O21 O 0.75841 0.05198 0.30184 0.0
O22 O 0.81533 0.04142 0.31599 0.0
C23 C 0.7627 0.05207 0.28338 0.0
O24 O 0.76082 0.11018 0.30626 0.0
C25 C 0.80825 0.03427 0.33209 0.0
O26 O 0.77301 0.09281 0.33178 0.0
O27 O 0.79364 0.0436 0.33987 0.0
C28 C 0.88241 0.82215 0.28869 0.0
O29 O 0.87894 0.80899 0.27545 0.0
Cd30 Cd 0.89101 0.77579 0.2756 0.0
O31 O 0.8947 0.81874 0.30291 0.0
Cd32 Cd 0.91862 0.79119 0.31181 0.0
C33 C 0.8791 0.76301 0.32453 0.0
O34 O 0.926 0.77987 0.27833 0.0
O35 O 0.93436 0.75915 0.3013 0.0
O36 O 0.94452 0.81621 0.31555 0.0
C37 C 0.93429 0.7635 0.28285 0.0
O38 O 0.87608 0.76134 0.30578 0.0
C39 C 0.95168 0.80915 0.33166 0.0
O40 O 0.89342 0.77361 0.33127 0.0
O41 O 0.94247 0.79443 0.3394 0.0
C42 C 0.16418 0.88226 0.28832 0.0
O43 O 0.17748 0.87882 0.27522 0.0
Cd44 Cd 0.2106 0.89106 0.27552 0.0
O45 O 0.16742 0.89456 0.30257 0.0
Cd46 Cd 0.19491 0.91844 0.31177 0.0
C47 C 0.22329 0.879 0.32442 0.0
O48 O 0.20634 0.92604 0.27837 0.0
O49 O 0.22692 0.93432 0.30148 0.0
O50 O 0.17001 0.94445 0.31561 0.0
C51 C 0.22265 0.93436 0.28302 0.0
O52 O 0.22508 0.87608 0.30567 0.0
C53 C 0.17707 0.95147 0.33178 0.0
O54 O 0.21253 0.89319 0.33116 0.0
O55 O 0.19167 0.94208 0.33952 0.0
C56 C 0.10373 0.82251 0.6982 0.0
O57 O 0.10714 0.80917 0.71128 0.0
Cd58 Cd 0.09454 0.77615 0.71112 0.0
O59 O 0.09128 0.81941 0.68406 0.0
Cd60 Cd 0.06709 0.79214 0.67503 0.0
C61 C 0.10614 0.76332 0.66219 0.0
O62 O 0.05959 0.78078 0.70849 0.0
O63 O 0.05093 0.76027 0.68546 0.0
O64 O 0.04121 0.8172 0.67113 0.0
C65 C 0.05107 0.76455 0.70392 0.0
O66 O 0.10918 0.76146 0.68092 0.0
C67 C 0.03425 0.81021 0.65491 0.0
O68 O 0.09202 0.77425 0.65556 0.0
O69 O 0.04359 0.79556 0.64721 0.0
C70 C 0.16408 0.10364 0.69722 0.0
O71 O 0.17726 0.10712 0.71042 0.0
Cd72 Cd 0.21046 0.09506 0.71026 0.0
O73 O 0.16745 0.09134 0.68301 0.0
Cd74 Cd 0.19499 0.06746 0.67403 0.0
C75 C 0.22313 0.10703 0.66131 0.0
O76 O 0.20646 0.06004 0.70747 0.0
O77 O 0.22706 0.05174 0.68441 0.0
O78 O 0.17006 0.04146 0.67035 0.0
C79 C 0.22281 0.05179 0.70287 0.0
O80 O 0.22484 0.11001 0.68006 0.0
C81 C 0.17706 0.03436 0.6542 0.0
O82 O 0.2125 0.09273 0.65457 0.0
O83 O 0.19169 0.04367 0.64641 0.0
C84 C 0.88278 0.16375 0.69603 0.0
O85 O 0.87937 0.17683 0.70935 0.0
Cd86 Cd 0.89141 0.21004 0.70944 0.0
O87 O 0.89499 0.16724 0.68177 0.0
Cd88 Cd 0.91885 0.19487 0.67292 0.0
C89 C 0.87928 0.2232 0.66063 0.0
O90 O 0.92634 0.20592 0.70646 0.0
O91 O 0.93467 0.22682 0.68365 0.0
O92 O 0.9447 0.16985 0.66891 0.0
C93 C 0.93461 0.22233 0.70207 0.0
O94 O 0.87637 0.22472 0.67941 0.0
C95 C 0.95185 0.17706 0.65286 0.0
O96 O 0.89354 0.21263 0.65373 0.0
O97 O 0.94263 0.19185 0.64526 0.0
C98 C 0.82171 0.88231 0.6974 0.0
O99 O 0.80852 0.87877 0.71058 0.0
Cd100 Cd 0.77525 0.8906 0.71024 0.0
O101 O 0.81829 0.89457 0.68315 0.0
Cd102 Cd 0.79065 0.9183 0.67403 0.0
C103 C 0.76291 0.87847 0.66126 0.0
O104 O 0.77895 0.92565 0.7074 0.0
O105 O 0.75841 0.93376 0.68419 0.0
O106 O 0.81538 0.9445 0.67033 0.0
C107 C 0.76256 0.93376 0.70268 0.0
O108 O 0.76114 0.87547 0.68001 0.0
C109 C 0.80837 0.95147 0.65411 0.0
O110 O 0.77343 0.89287 0.65456 0.0
O111 O 0.79383 0.94204 0.64633 0.0
C112 C 0.29033 0.10343 0.16344 0.0
O113 O 0.27692 0.10693 0.1764 0.0
Cd114 Cd 0.2769 0.09531 0.20976 0.0
O115 O 0.30459 0.09128 0.16714 0.0
Cd116 Cd 0.31325 0.06762 0.19504 0.0
C117 C 0.32569 0.10757 0.2227 0.0
O118 O 0.27972 0.06025 0.20627 0.0
O119 O 0.30261 0.05232 0.22724 0.0
O120 O 0.31709 0.04144 0.17033 0.0
C121 C 0.2842 0.05222 0.22279 0.0
O122 O 0.30693 0.11055 0.22416 0.0
C123 C 0.3331 0.03427 0.17758 0.0
O124 O 0.33257 0.09311 0.21239 0.0
O125 O 0.34077 0.04361 0.19226 0.0
C126 C 0.88135 0.28832 0.16346 0.0
O127 O 0.87784 0.2752 0.17674 0.0
Cd128 Cd 0.89003 0.2755 0.2099 0.0
O129 O 0.89373 0.3025 0.16673 0.0
Cd130 Cd 0.91771 0.31147 0.1942 0.0
C131 C 0.87837 0.32454 0.22245 0.0
O132 O 0.92503 0.27801 0.20578 0.0
O133 O 0.93344 0.30114 0.2263 0.0
O134 O 0.9437 0.31495 0.16925 0.0
C135 C 0.93337 0.28266 0.22209 0.0
O136 O 0.87528 0.30581 0.22425 0.0
C137 C 0.95086 0.33111 0.17619 0.0
O138 O 0.89265 0.33116 0.21173 0.0
O139 O 0.94159 0.339 0.19078 0.0
C140 C 0.69589 0.88251 0.16345 0.0
O141 O 0.70923 0.87892 0.17648 0.0
Cd142 Cd 0.70929 0.89053 0.20983 0.0
O143 O 0.68167 0.89472 0.1671 0.0
Cd144 Cd 0.67301 0.91832 0.19501 0.0
C145 C 0.66048 0.87842 0.22277 0.0
O146 O 0.70655 0.9256 0.20631 0.0
O147 O 0.68364 0.93358 0.22722 0.0
O148 O 0.66916 0.94465 0.17042 0.0
C149 C 0.70206 0.93363 0.2228 0.0
O150 O 0.67923 0.87539 0.22428 0.0
C151 C 0.65311 0.95172 0.17767 0.0
O152 O 0.65366 0.89287 0.21238 0.0
O153 O 0.64544 0.94226 0.19227 0.0
C154 C 0.10277 0.69717 0.16326 0.0
O155 O 0.10619 0.71048 0.17636 0.0
Cd156 Cd 0.09402 0.71062 0.20951 0.0
O157 O 0.09049 0.68295 0.16669 0.0
Cd158 Cd 0.06657 0.67413 0.19422 0.0
C159 C 0.10607 0.66182 0.22268 0.0
O160 O 0.05906 0.70766 0.20531 0.0
O161 O 0.05064 0.68478 0.2261 0.0
O162 O 0.04067 0.67001 0.16926 0.0
C163 C 0.05073 0.70322 0.22166 0.0
O164 O 0.10901 0.68059 0.22426 0.0
C165 C 0.03365 0.65389 0.17645 0.0
O166 O 0.09183 0.65497 0.21204 0.0
O167 O 0.04296 0.64632 0.19119 0.0
C168 C 0.29005 0.88236 0.82169 0.0
O169 O 0.2768 0.87893 0.80853 0.0
Cd170 Cd 0.27692 0.89096 0.77533 0.0
O171 O 0.30432 0.89458 0.81826 0.0
Cd172 Cd 0.31328 0.91839 0.79058 0.0
C173 C 0.32571 0.87876 0.76242 0.0
O174 O 0.27978 0.92595 0.77943 0.0
O175 O 0.30264 0.9341 0.75853 0.0
O176 O 0.31728 0.9444 0.81545 0.0
C177 C 0.28424 0.9342 0.76302 0.0
O178 O 0.30695 0.87585 0.76081 0.0
C179 C 0.33331 0.95154 0.80822 0.0
O180 O 0.33257 0.89305 0.77298 0.0
O181 O 0.34092 0.94223 0.79351 0.0
C182 C 0.10321 0.28818 0.82214 0.0
O183 O 0.10664 0.27498 0.80894 0.0
Cd184 Cd 0.09434 0.27505 0.77582 0.0
O185 O 0.09083 0.30234 0.81884 0.0
Cd186 Cd 0.06675 0.3112 0.79141 0.0
C187 C 0.10605 0.32401 0.76296 0.0
O188 O 0.05936 0.27771 0.78005 0.0
O189 O 0.05089 0.30074 0.75944 0.0
O190 O 0.0408 0.3149 0.81638 0.0
C191 C 0.051 0.28227 0.76373 0.0
O192 O 0.10909 0.30527 0.76123 0.0
C193 C 0.03371 0.33106 0.80936 0.0
O194 O 0.09181 0.3307 0.77369 0.0
O195 O 0.04301 0.33885 0.79472 0.0
C196 C 0.69623 0.10376 0.82159 0.0
O197 O 0.70949 0.10744 0.80853 0.0
Cd198 Cd 0.70947 0.09588 0.77515 0.0
O199 O 0.68203 0.09151 0.81795 0.0
Cd200 Cd 0.67327 0.06804 0.78997 0.0
C201 C 0.66067 0.10803 0.76234 0.0
O202 O 0.70681 0.06078 0.77869 0.0
O203 O 0.68391 0.05275 0.75778 0.0
O204 O 0.6692 0.04169 0.81449 0.0
C205 C 0.70233 0.05271 0.76221 0.0
O206 O 0.67941 0.1111 0.76076 0.0
C207 C 0.65312 0.03474 0.80718 0.0
O208 O 0.65393 0.09354 0.77271 0.0
O209 O 0.64557 0.04425 0.79255 0.0
C210 C 0.88198 0.69815 0.82198 0.0
O211 O 0.8786 0.71129 0.80869 0.0
Cd212 Cd 0.89098 0.71099 0.77561 0.0
O213 O 0.8943 0.68392 0.81879 0.0
Cd214 Cd 0.91834 0.67478 0.79145 0.0
C215 C 0.87905 0.66205 0.76295 0.0
O216 O 0.92594 0.7082 0.78001 0.0
O217 O 0.93434 0.68511 0.75947 0.0
O218 O 0.94419 0.67091 0.81652 0.0
C219 C 0.93433 0.70358 0.76374 0.0
O220 O 0.87608 0.6808 0.76112 0.0
C221 C 0.9512 0.6547 0.80954 0.0
O222 O 0.89322 0.65535 0.77376 0.0
O223 O 0.94191 0.64699 0.79487 0.0
C224 C 0.16362 0.28835 0.10304 0.0
O225 O 0.17681 0.27516 0.10659 0.0
Cd226 Cd 0.21013 0.27554 0.0949 0.0
O227 O 0.16707 0.30262 0.09082 0.0
Cd228 Cd 0.19478 0.31177 0.06719 0.0
C229 C 0.2224 0.32456 0.10707 0.0
O230 O 0.20655 0.2784 0.05986 0.0
O231 O 0.2271 0.30165 0.05188 0.0
O232 O 0.17009 0.31539 0.04095 0.0
C233 C 0.22298 0.28315 0.05185 0.0
O234 O 0.22417 0.3058 0.11006 0.0
C235 C 0.17709 0.33159 0.03394 0.0
O236 O 0.21191 0.33127 0.09265 0.0
O237 O 0.1916 0.33943 0.04338 0.0
C238 C 0.16374 0.69728 0.88243 0.0
O239 O 0.17694 0.71049 0.87899 0.0
Cd240 Cd 0.21013 0.71034 0.89106 0.0
O241 O 0.16709 0.68301 0.89469 0.0
Cd242 Cd 0.19464 0.67386 0.91852 0.0
C243 C 0.22284 0.66143 0.87892 0.0
O244 O 0.20602 0.7073 0.92602 0.0
O245 O 0.22667 0.68426 0.93434 0.0
O246 O 0.16971 0.6699 0.94447 0.0
C247 C 0.22239 0.70273 0.93427 0.0
O248 O 0.22454 0.6802 0.87602 0.0
C249 C 0.17678 0.65372 0.95147 0.0
O250 O 0.2122 0.6546 0.89317 0.0
O251 O 0.19145 0.64606 0.94215 0.0
C252 C 0.2898 0.16381 0.8822 0.0
O253 O 0.27652 0.1769 0.87862 0.0
Cd254 Cd 0.27655 0.21023 0.8903 0.0
O255 O 0.30403 0.16739 0.89442 0.0
Cd256 Cd 0.31281 0.19531 0.91801 0.0
C257 C 0.32534 0.22312 0.87814 0.0
O258 O 0.27929 0.20656 0.92535 0.0
O259 O 0.30218 0.22751 0.93331 0.0
O260 O 0.31679 0.17074 0.94434 0.0
C261 C 0.28377 0.22305 0.93342 0.0
O262 O 0.30659 0.22469 0.87513 0.0
C263 C 0.33284 0.17805 0.95136 0.0
O264 O 0.33213 0.21269 0.89257 0.0
O265 O 0.34045 0.19266 0.94187 0.0
C266 C 0.8214 0.28789 0.88182 0.0
O267 O 0.8081 0.2748 0.87834 0.0
Cd268 Cd 0.77496 0.27517 0.89052 0.0
O269 O 0.81818 0.3021 0.89416 0.0
Cd270 Cd 0.79071 0.31127 0.91805 0.0
C271 C 0.76249 0.32417 0.87859 0.0
O272 O 0.77912 0.27788 0.92552 0.0
O273 O 0.7586 0.30105 0.93378 0.0
O274 O 0.81556 0.31499 0.94413 0.0
C275 C 0.7628 0.28256 0.93379 0.0
O276 O 0.76064 0.30543 0.87559 0.0
C277 C 0.80858 0.3312 0.95112 0.0
O278 O 0.77323 0.33082 0.89285 0.0
O279 O 0.79403 0.339 0.94171 0.0
C280 C 0.69473 0.82267 0.88245 0.0
O281 O 0.70812 0.80968 0.87892 0.0
Cd282 Cd 0.70829 0.77632 0.89054 0.0
O283 O 0.68048 0.81897 0.89461 0.0
Cd284 Cd 0.67186 0.791 0.9182 0.0
C285 C 0.65955 0.76314 0.87833 0.0
O286 O 0.70545 0.77995 0.92556 0.0
O287 O 0.6827 0.75887 0.93357 0.0
O288 O 0.6678 0.81565 0.9444 0.0
C289 C 0.70109 0.76343 0.93363 0.0
O290 O 0.67832 0.76173 0.87535 0.0
C291 C 0.65183 0.80826 0.95152 0.0
O292 O 0.65265 0.7735 0.89274 0.0
O293 O 0.64428 0.79356 0.94213 0.0
C294 C 0.8216 0.69753 0.10353 0.0
O295 O 0.80839 0.71069 0.10707 0.0
Cd296 Cd 0.77516 0.71036 0.09513 0.0
O297 O 0.81823 0.68332 0.09123 0.0
Cd298 Cd 0.79064 0.67432 0.0674 0.0
C299 C 0.76274 0.6613 0.107 0.0
O300 O 0.77898 0.70775 0.0601 0.0
O301 O 0.75842 0.68457 0.05192 0.0
O302 O 0.81544 0.67091 0.04127 0.0
C303 C 0.76261 0.70306 0.05193 0.0
O304 O 0.76097 0.68004 0.11005 0.0
C305 C 0.80848 0.65476 0.0341 0.0
O306 O 0.77332 0.65465 0.09264 0.0
O307 O 0.79394 0.64684 0.04344 0.0
C308 C 0.28851 0.82191 0.10409 0.0
O309 O 0.2753 0.80875 0.10764 0.0
Cd310 Cd 0.27534 0.77554 0.09554 0.0
O311 O 0.30263 0.81851 0.09171 0.0
Cd312 Cd 0.31134 0.79087 0.06782 0.0
C313 C 0.32421 0.76262 0.10729 0.0
O314 O 0.27783 0.7795 0.06049 0.0
O315 O 0.30083 0.75878 0.05223 0.0
O316 O 0.31506 0.81564 0.04163 0.0
C317 C 0.28239 0.76313 0.05223 0.0
O318 O 0.30548 0.76095 0.11038 0.0
C319 C 0.33117 0.80853 0.03457 0.0
O320 O 0.33088 0.77327 0.09297 0.0
O321 O 0.33893 0.79394 0.04399 0.0
C322 C 0.69543 0.16417 0.10356 0.0
O323 O 0.70869 0.17731 0.10699 0.0
Cd324 Cd 0.70853 0.21053 0.09498 0.0
O325 O 0.68117 0.16762 0.09133 0.0
Cd326 Cd 0.67228 0.19527 0.06745 0.0
C327 C 0.65966 0.22334 0.10705 0.0
O328 O 0.70576 0.20654 0.05998 0.0
O329 O 0.68283 0.22739 0.05185 0.0
O330 O 0.66851 0.17035 0.04144 0.0
C331 C 0.70125 0.22296 0.05177 0.0
O332 O 0.67842 0.22495 0.11002 0.0
C333 C 0.65247 0.1775 0.03424 0.0
O334 O 0.65285 0.2128 0.09272 0.0
O335 O 0.64475 0.19219 0.0435 0.0
C336 C 0.88221 0.82224 0.69731 0.0
O337 O 0.87879 0.80896 0.71045 0.0
Cd338 Cd 0.89116 0.77587 0.71023 0.0
O339 O 0.89457 0.81902 0.68312 0.0
Cd340 Cd 0.91867 0.79167 0.67412 0.0
C341 C 0.87946 0.76312 0.66124 0.0
O342 O 0.92611 0.78032 0.70758 0.0
O343 O 0.93466 0.75971 0.68461 0.0
O344 O 0.94444 0.81685 0.6705 0.0
C345 C 0.93453 0.76403 0.70306 0.0
O346 O 0.87643 0.76136 0.67998 0.0
C347 C 0.95164 0.8099 0.65437 0.0
O348 O 0.89367 0.77391 0.65456 0.0
O349 O 0.94249 0.79519 0.64656 0.0
C350 C 0.16437 0.88253 0.69807 0.0
O351 O 0.17764 0.87909 0.71121 0.0
Cd352 Cd 0.21081 0.89123 0.7108 0.0
O353 O 0.16764 0.89481 0.6838 0.0
Cd354 Cd 0.19509 0.91867 0.67452 0.0
C355 C 0.2232 0.87907 0.66187 0.0
O356 O 0.20676 0.92624 0.70785 0.0
O357 O 0.22722 0.93445 0.68461 0.0
O358 O 0.17017 0.94467 0.67076 0.0
C359 C 0.22309 0.93448 0.7031 0.0
O360 O 0.22504 0.87615 0.68062 0.0
C361 C 0.1771 0.95165 0.65451 0.0
O362 O 0.21251 0.89333 0.65513 0.0
O363 O 0.19168 0.94227 0.64673 0.0
C364 C 0.10356 0.16372 0.69717 0.0
O365 O 0.10696 0.17694 0.71037 0.0
Cd366 Cd 0.0946 0.21004 0.71038 0.0
O367 O 0.09124 0.16701 0.68296 0.0
Cd368 Cd 0.06726 0.1945 0.67398 0.0
C369 C 0.10659 0.22316 0.66161 0.0
O370 O 0.05965 0.20562 0.70748 0.0
O371 O 0.0512 0.22636 0.68457 0.0
O372 O 0.04132 0.16958 0.66967 0.0
C373 C 0.05124 0.22193 0.70299 0.0
O374 O 0.10953 0.22486 0.68037 0.0
C375 C 0.03445 0.17679 0.6535 0.0
O376 O 0.09244 0.21238 0.65482 0.0
O377 O 0.04386 0.19151 0.64602 0.0
C378 C 0.8224 0.10363 0.69606 0.0
O379 O 0.80933 0.10717 0.70936 0.0
Cd380 Cd 0.77602 0.09543 0.70931 0.0
O381 O 0.81884 0.09141 0.68183 0.0
Cd382 Cd 0.79109 0.06769 0.67303 0.0
C383 C 0.76321 0.10746 0.66039 0.0
O384 O 0.77962 0.06039 0.70651 0.0
O385 O 0.75889 0.05233 0.68346 0.0
O386 O 0.81579 0.04148 0.66948 0.0
C387 C 0.76317 0.05233 0.70192 0.0
O388 O 0.76165 0.11046 0.67915 0.0
C389 C 0.80869 0.03431 0.6534 0.0
O390 O 0.77367 0.09307 0.65358 0.0
O391 O 0.79413 0.04368 0.64555 0.0
C392 C 0.88197 0.16386 0.28919 0.0
O393 O 0.87851 0.17699 0.27591 0.0
Cd394 Cd 0.89062 0.21018 0.27582 0.0
O395 O 0.89428 0.16728 0.30338 0.0
Cd396 Cd 0.91824 0.19486 0.31215 0.0
C397 C 0.87879 0.22322 0.3247 0.0
O398 O 0.92557 0.20602 0.27861 0.0
O399 O 0.93399 0.22685 0.30143 0.0
O400 O 0.94417 0.16987 0.31597 0.0
C401 C 0.93387 0.22241 0.28301 0.0
O402 O 0.87579 0.2248 0.30594 0.0
C403 C 0.95137 0.17701 0.33202 0.0
O404 O 0.89306 0.2126 0.33151 0.0
O405 O 0.94215 0.19174 0.33971 0.0
C406 C 0.82193 0.88217 0.28887 0.0
O407 O 0.80874 0.87859 0.2757 0.0
Cd408 Cd 0.77546 0.89041 0.27591 0.0
O409 O 0.8185 0.89445 0.30309 0.0
Cd410 Cd 0.79078 0.91815 0.31205 0.0
C411 C 0.76291 0.87842 0.32487 0.0
O412 O 0.77926 0.92545 0.27859 0.0
O413 O 0.75858 0.93361 0.30165 0.0
O414 O 0.81547 0.94438 0.31576 0.0
C415 C 0.76285 0.9336 0.28319 0.0
O416 O 0.7612 0.87539 0.30613 0.0
C417 C 0.80838 0.95143 0.3319 0.0
O418 O 0.77344 0.89281 0.33157 0.0
O419 O 0.79383 0.94199 0.33967 0.0
C420 C 0.10355 0.82226 0.28777 0.0
O421 O 0.10693 0.80905 0.27456 0.0
Cd422 Cd 0.09453 0.77595 0.2746 0.0
O423 O 0.0912 0.81897 0.30195 0.0
Cd424 Cd 0.06715 0.79156 0.31087 0.0
C425 C 0.10648 0.76298 0.32342 0.0
O426 O 0.05956 0.78026 0.27741 0.0
O427 O 0.05114 0.75965 0.30045 0.0
O428 O 0.04121 0.81651 0.31492 0.0
C429 C 0.05117 0.76396 0.282 0.0
O430 O 0.10945 0.76124 0.30468 0.0
C431 C 0.0343 0.80941 0.33112 0.0
O432 O 0.0923 0.77375 0.33016 0.0
O433 O 0.04369 0.79474 0.33874 0.0
C434 C 0.16406 0.10335 0.28855 0.0
O435 O 0.17718 0.1069 0.2753 0.0
Cd436 Cd 0.21049 0.09514 0.27555 0.0
O437 O 0.16757 0.09111 0.30279 0.0
Cd438 Cd 0.19528 0.06741 0.31178 0.0
C439 C 0.22298 0.10726 0.3245 0.0
O440 O 0.20685 0.06008 0.27836 0.0
O441 O 0.2275 0.05197 0.30148 0.0
O442 O 0.17047 0.0413 0.31546 0.0
C443 C 0.22327 0.05198 0.283 0.0
O444 O 0.22466 0.11027 0.30575 0.0
C445 C 0.17749 0.03422 0.33162 0.0
O446 O 0.21253 0.09284 0.33125 0.0
O447 O 0.1921 0.04356 0.3394 0.0
C448 C 0.69487 0.88272 0.82211 0.0
O449 O 0.70829 0.87911 0.80919 0.0
Cd450 Cd 0.70845 0.89054 0.77577 0.0
O451 O 0.68063 0.89487 0.8183 0.0
Cd452 Cd 0.6721 0.91835 0.79022 0.0
C453 C 0.65969 0.87832 0.76266 0.0
O454 O 0.70571 0.92561 0.77913 0.0
O455 O 0.68293 0.9335 0.75801 0.0
O456 O 0.66822 0.94465 0.81478 0.0
C457 C 0.70132 0.9336 0.76257 0.0
O458 O 0.67845 0.8753 0.7613 0.0
C459 C 0.65229 0.95186 0.80739 0.0
O460 O 0.6528 0.89283 0.77289 0.0
O461 O 0.64466 0.94248 0.79272 0.0
C462 C 0.10318 0.69764 0.82241 0.0
O463 O 0.10658 0.71089 0.80922 0.0
Cd464 Cd 0.09415 0.71101 0.77615 0.0
O465 O 0.0908 0.68348 0.81911 0.0
Cd466 Cd 0.06669 0.67468 0.79171 0.0
C467 C 0.10589 0.66216 0.76298 0.0
O468 O 0.05922 0.70823 0.78059 0.0
O469 O 0.05061 0.68535 0.75989 0.0
O470 O 0.04086 0.67071 0.81677 0.0
C471 C 0.05077 0.70379 0.76429 0.0
O472 O 0.10889 0.68092 0.76133 0.0
C473 C 0.03379 0.65458 0.80968 0.0
O474 O 0.09173 0.65538 0.77376 0.0
O475 O 0.04304 0.64693 0.79495 0.0
C476 C 0.28974 0.10346 0.82211 0.0
O477 O 0.27643 0.10697 0.80903 0.0
Cd478 Cd 0.27639 0.09512 0.77576 0.0
O479 O 0.30396 0.09122 0.81857 0.0
Cd480 Cd 0.31273 0.06751 0.79079 0.0
C481 C 0.32516 0.10727 0.76275 0.0
O482 O 0.2792 0.06008 0.77959 0.0
O483 O 0.30208 0.05195 0.75871 0.0
O484 O 0.31681 0.04132 0.8155 0.0
C485 C 0.28367 0.05191 0.76315 0.0
O486 O 0.3064 0.11026 0.76119 0.0
C487 C 0.3329 0.03433 0.80826 0.0
O488 O 0.33198 0.09291 0.77325 0.0
O489 O 0.34046 0.04377 0.7936 0.0
C490 C 0.88179 0.2877 0.82165 0.0
O491 O 0.87836 0.27456 0.80838 0.0
Cd492 Cd 0.8906 0.27497 0.77524 0.0
O493 O 0.89412 0.30191 0.81839 0.0
Cd494 Cd 0.9181 0.31104 0.791 0.0
C495 C 0.87866 0.32397 0.76279 0.0
O496 O 0.92561 0.27765 0.77939 0.0
O497 O 0.93393 0.30088 0.75893 0.0
O498 O 0.94402 0.31468 0.81602 0.0
C499 C 0.93394 0.28238 0.7631 0.0
O500 O 0.87565 0.30523 0.76093 0.0
C501 C 0.95106 0.33091 0.80911 0.0
O502 O 0.89293 0.33061 0.77351 0.0
O503 O 0.94177 0.33873 0.79448 0.0
C504 C 0.69569 0.10401 0.16397 0.0
O505 O 0.70897 0.10759 0.17706 0.0
Cd506 Cd 0.70899 0.09573 0.21034 0.0
O507 O 0.68152 0.09171 0.16751 0.0
Cd508 Cd 0.67284 0.06794 0.1953 0.0
C509 C 0.66013 0.10764 0.22323 0.0
O510 O 0.70639 0.06067 0.20658 0.0
O511 O 0.68349 0.05248 0.22742 0.0
O512 O 0.66904 0.04175 0.17058 0.0
C513 C 0.70191 0.05248 0.22301 0.0
O514 O 0.67888 0.1107 0.22481 0.0
C515 C 0.65301 0.03461 0.17781 0.0
O516 O 0.65339 0.09324 0.21275 0.0
O517 O 0.64532 0.04397 0.19245 0.0
C518 C 0.88203 0.69753 0.16366 0.0
O519 O 0.87862 0.71074 0.17686 0.0
Cd520 Cd 0.89081 0.71054 0.21002 0.0
O521 O 0.8943 0.68328 0.167 0.0
Cd522 Cd 0.9182 0.67421 0.19451 0.0
C523 C 0.87871 0.66166 0.22281 0.0
O524 O 0.92578 0.70765 0.20588 0.0
O525 O 0.93408 0.68458 0.22652 0.0
O526 O 0.94409 0.67019 0.16954 0.0
C527 C 0.93409 0.70305 0.22221 0.0
O528 O 0.87577 0.68042 0.22454 0.0
C529 C 0.95107 0.65401 0.17662 0.0
O530 O 0.89294 0.65489 0.21214 0.0
O531 O 0.94175 0.64637 0.19132 0.0
C532 C 0.28891 0.88233 0.16425 0.0
O533 O 0.27571 0.87895 0.17747 0.0
Cd534 Cd 0.27581 0.89116 0.2106 0.0
O535 O 0.30317 0.89459 0.16757 0.0
Cd536 Cd 0.31224 0.91847 0.19513 0.0
C537 C 0.32457 0.87893 0.22356 0.0
O538 O 0.2788 0.92614 0.20634 0.0
O539 O 0.30177 0.93432 0.22711 0.0
O540 O 0.31643 0.94453 0.1703 0.0
C541 C 0.28334 0.93442 0.2227 0.0
O542 O 0.30581 0.87606 0.22525 0.0
C543 C 0.33256 0.95147 0.17752 0.0
O544 O 0.33141 0.89312 0.21285 0.0
O545 O 0.34011 0.94202 0.19219 0.0
C546 C 0.10317 0.28818 0.16305 0.0
O547 O 0.10673 0.27504 0.1763 0.0
Cd548 Cd 0.09459 0.27515 0.20947 0.0
O549 O 0.09076 0.30231 0.16635 0.0
Cd550 Cd 0.0668 0.31113 0.19388 0.0
C551 C 0.1061 0.32417 0.22224 0.0
O552 O 0.05959 0.27761 0.20533 0.0
O553 O 0.05111 0.30062 0.22593 0.0
O554 O 0.04069 0.31473 0.16903 0.0
C555 C 0.05127 0.28216 0.22167 0.0
O556 O 0.10924 0.30544 0.22398 0.0
C557 C 0.0336 0.33089 0.17605 0.0
O558 O 0.09182 0.33078 0.21152 0.0
O559 O 0.04296 0.33871 0.19062 0.0
C560 C 0.8214 0.69822 0.88195 0.0
O561 O 0.80814 0.71133 0.87836 0.0
Cd562 Cd 0.77491 0.7109 0.89029 0.0
O563 O 0.81807 0.68402 0.89429 0.0
Cd564 Cd 0.7905 0.67491 0.91807 0.0
C565 C 0.76265 0.66183 0.87844 0.0
O566 O 0.77872 0.7083 0.92535 0.0
O567 O 0.75826 0.68504 0.93355 0.0
O568 O 0.81527 0.67142 0.94426 0.0
C569 C 0.76236 0.70355 0.93351 0.0
O570 O 0.7608 0.68057 0.87535 0.0
C571 C 0.80834 0.65519 0.9513 0.0
O572 O 0.77326 0.65524 0.89282 0.0
O573 O 0.79383 0.6473 0.94191 0.0
C574 C 0.8211 0.28834 0.10314 0.0
O575 O 0.80788 0.27515 0.10659 0.0
Cd576 Cd 0.77467 0.27557 0.09457 0.0
O577 O 0.81776 0.3026 0.09087 0.0
Cd578 Cd 0.79027 0.31175 0.06697 0.0
C579 C 0.76238 0.32461 0.10661 0.0
O580 O 0.7786 0.27838 0.05956 0.0
O581 O 0.75807 0.30158 0.05138 0.0
O582 O 0.81521 0.31528 0.04098 0.0
C583 C 0.76224 0.28309 0.05138 0.0
O584 O 0.76057 0.30585 0.10959 0.0
C585 C 0.80828 0.33146 0.03384 0.0
O586 O 0.77297 0.33131 0.09227 0.0
O587 O 0.79369 0.33934 0.04311 0.0
C588 C 0.69561 0.82229 0.10327 0.0
O589 O 0.70891 0.8092 0.10681 0.0
Cd590 Cd 0.70893 0.77588 0.09509 0.0
O591 O 0.68135 0.81871 0.09108 0.0
Cd592 Cd 0.67251 0.79082 0.0675 0.0
C593 C 0.66019 0.76286 0.10734 0.0
O594 O 0.70604 0.77966 0.06007 0.0
O595 O 0.68319 0.75871 0.05202 0.0
O596 O 0.66833 0.81548 0.04129 0.0
C597 C 0.70159 0.76319 0.05195 0.0
O598 O 0.67895 0.76132 0.1103 0.0
C599 C 0.65227 0.80816 0.03431 0.0
O600 O 0.65333 0.77333 0.09296 0.0
O601 O 0.64476 0.79347 0.04377 0.0
C602 C 0.16326 0.69678 0.10325 0.0
O603 O 0.17644 0.70999 0.10674 0.0
Cd604 Cd 0.20963 0.70997 0.09471 0.0
O605 O 0.16664 0.68253 0.09099 0.0
Cd606 Cd 0.19423 0.67352 0.06719 0.0
C607 C 0.22254 0.66108 0.10676 0.0
O608 O 0.20549 0.70702 0.05976 0.0
O609 O 0.22622 0.68408 0.0514 0.0
O610 O 0.16936 0.66957 0.04118 0.0
C611 C 0.22186 0.70253 0.0515 0.0
O612 O 0.22418 0.67985 0.10969 0.0
C613 C 0.1765 0.65344 0.03414 0.0
O614 O 0.2119 0.65425 0.09251 0.0
O615 O 0.19116 0.64578 0.0435 0.0
C616 C 0.29053 0.16387 0.10343 0.0
O617 O 0.27719 0.17689 0.10702 0.0
Cd618 Cd 0.27719 0.21027 0.09547 0.0
O619 O 0.30476 0.16755 0.09125 0.0
Cd620 Cd 0.31342 0.19556 0.06769 0.0
C621 C 0.32601 0.22322 0.10759 0.0
O622 O 0.27984 0.20673 0.06041 0.0
O623 O 0.30265 0.22778 0.05247 0.0
O624 O 0.31724 0.17092 0.04144 0.0
C625 C 0.28426 0.22326 0.05236 0.0
O626 O 0.30726 0.22468 0.11063 0.0
C627 C 0.3332 0.17823 0.03425 0.0
O628 O 0.33284 0.2129 0.09312 0.0
O629 O 0.34087 0.1929 0.04361 0.0
C630 C 0.16391 0.28859 0.88201 0.0
O631 O 0.17714 0.27544 0.87851 0.0
Cd632 Cd 0.21037 0.27572 0.89046 0.0
O633 O 0.16727 0.30285 0.89426 0.0
Cd634 Cd 0.19488 0.31199 0.91801 0.0
C635 C 0.22292 0.32469 0.87839 0.0
O636 O 0.20646 0.27858 0.92546 0.0
O637 O 0.22704 0.30172 0.93362 0.0
O638 O 0.17006 0.31565 0.94409 0.0
C639 C 0.22283 0.28324 0.93363 0.0
O640 O 0.22466 0.30593 0.87544 0.0
C641 C 0.17709 0.33181 0.95117 0.0
O642 O 0.2123 0.33145 0.89268 0.0
O643 O 0.19166 0.33962 0.94182 0.0
C644 C 0.69601 0.16357 0.88222 0.0
O645 O 0.70925 0.17673 0.87875 0.0
Cd646 Cd 0.70917 0.20995 0.89071 0.0
O647 O 0.68177 0.16699 0.89446 0.0
Cd648 Cd 0.6729 0.19469 0.91826 0.0
C649 C 0.66034 0.22286 0.87863 0.0
O650 O 0.70639 0.20593 0.92571 0.0
O651 O 0.68349 0.22679 0.93383 0.0
O652 O 0.66894 0.16995 0.94444 0.0
C653 C 0.7019 0.22236 0.9339 0.0
O654 O 0.67909 0.22449 0.87566 0.0
C655 C 0.65284 0.17716 0.95144 0.0
O656 O 0.65356 0.21228 0.89295 0.0
O657 O 0.6452 0.19178 0.94199 0.0
C658 C 0.28948 0.82215 0.88206 0.0
O659 O 0.27618 0.80908 0.87851 0.0
Cd660 Cd 0.2762 0.77581 0.89042 0.0
O661 O 0.30362 0.81862 0.89439 0.0
Cd662 Cd 0.31218 0.79089 0.91828 0.0
C663 C 0.32512 0.76297 0.87869 0.0
O664 O 0.27864 0.77955 0.92548 0.0
O665 O 0.30158 0.75872 0.93366 0.0
O666 O 0.31568 0.81567 0.94444 0.0
C667 C 0.28315 0.76311 0.93367 0.0
O668 O 0.30639 0.76139 0.87556 0.0
C669 C 0.3317 0.80854 0.95171 0.0
O670 O 0.33182 0.77344 0.89312 0.0
O671 O 0.33954 0.79393 0.94242 0.0
C672 C 0.60353 0.66317 0.78841 0.0
O673 O 0.60696 0.6764 0.77521 0.0
Cd674 Cd 0.59452 0.70947 0.77508 0.0
O675 O 0.59113 0.66642 0.80255 0.0
Cd676 Cd 0.56701 0.69384 0.81132 0.0
C677 C 0.60617 0.72265 0.82393 0.0
O678 O 0.55959 0.70496 0.77777 0.0
O679 O 0.55097 0.72568 0.80061 0.0
O680 O 0.54106 0.66888 0.81535 0.0
C681 C 0.55113 0.72126 0.78219 0.0
O682 O 0.6092 0.72433 0.80518 0.0
C683 C 0.53407 0.67602 0.83149 0.0
O684 O 0.59202 0.71182 0.83066 0.0
O685 O 0.54343 0.6907 0.83911 0.0
C686 C 0.32143 0.60404 0.78844 0.0
O687 O 0.30825 0.60765 0.77526 0.0
Cd688 Cd 0.27498 0.59578 0.77545 0.0
O689 O 0.31801 0.59168 0.8026 0.0
Cd690 Cd 0.29037 0.56786 0.81147 0.0
C691 C 0.2625 0.6075 0.82449 0.0
O692 O 0.27873 0.56072 0.77802 0.0
O693 O 0.25817 0.55242 0.80114 0.0
O694 O 0.31515 0.54169 0.81493 0.0
C695 C 0.26234 0.55255 0.78266 0.0
O696 O 0.26077 0.61062 0.80576 0.0
C697 C 0.30818 0.53454 0.83107 0.0
O698 O 0.27305 0.59309 0.83112 0.0
O699 O 0.29363 0.54387 0.83896 0.0
C700 C 0.38225 0.32236 0.78804 0.0
O701 O 0.37886 0.30913 0.77485 0.0
Cd702 Cd 0.39116 0.276 0.77498 0.0
O703 O 0.39457 0.31908 0.80226 0.0
Cd704 Cd 0.41856 0.29162 0.8113 0.0
C705 C 0.37919 0.2631 0.82383 0.0
O706 O 0.42612 0.2803 0.77786 0.0
O707 O 0.43451 0.25966 0.80089 0.0
O708 O 0.44449 0.31659 0.81532 0.0
C709 C 0.43446 0.26397 0.78243 0.0
O710 O 0.37624 0.26137 0.80508 0.0
C711 C 0.45144 0.30952 0.83152 0.0
O712 O 0.39338 0.27386 0.83059 0.0
O713 O 0.44208 0.29483 0.83915 0.0
C714 C 0.66369 0.38266 0.78903 0.0
O715 O 0.67683 0.37924 0.77577 0.0
Cd716 Cd 0.71007 0.39116 0.77597 0.0
O717 O 0.66715 0.39484 0.80333 0.0
Cd718 Cd 0.69479 0.41858 0.81241 0.0
C719 C 0.72277 0.3788 0.82481 0.0
O720 O 0.70623 0.42617 0.779 0.0
O721 O 0.72692 0.4342 0.8021 0.0
O722 O 0.67 0.44466 0.81633 0.0
C723 C 0.72263 0.4343 0.78364 0.0
O724 O 0.72443 0.37592 0.80604 0.0
C725 C 0.67711 0.45165 0.83248 0.0
O726 O 0.71223 0.3931 0.83166 0.0
O727 O 0.69173 0.44224 0.84017 0.0
C728 C 0.60354 0.32238 0.19752 0.0
O729 O 0.6069 0.30909 0.21067 0.0
Cd730 Cd 0.59436 0.27606 0.21048 0.0
O731 O 0.59113 0.31921 0.18335 0.0
Cd732 Cd 0.56686 0.29199 0.17438 0.0
C733 C 0.60598 0.26333 0.16148 0.0
O734 O 0.55943 0.28059 0.20782 0.0
O735 O 0.55081 0.26006 0.1848 0.0
O736 O 0.54111 0.31721 0.17078 0.0
C737 C 0.55096 0.26433 0.20326 0.0
O738 O 0.60901 0.26153 0.18022 0.0
C739 C 0.53394 0.31032 0.15461 0.0
O740 O 0.59181 0.27416 0.15481 0.0
O741 O 0.5431 0.29562 0.14677 0.0
C742 C 0.66399 0.60333 0.19694 0.0
O743 O 0.67717 0.60683 0.21013 0.0
Cd744 Cd 0.71039 0.59485 0.20997 0.0
O745 O 0.66739 0.59106 0.1827 0.0
Cd746 Cd 0.69499 0.56728 0.17367 0.0
C747 C 0.72311 0.60691 0.16106 0.0
O748 O 0.70639 0.55984 0.20712 0.0
O749 O 0.72706 0.55156 0.18412 0.0
O750 O 0.6701 0.54126 0.16987 0.0
C751 C 0.72276 0.5516 0.20257 0.0
O752 O 0.72479 0.60987 0.17982 0.0
C753 C 0.67715 0.5342 0.15373 0.0
O754 O 0.7125 0.59261 0.15429 0.0
O755 O 0.69179 0.54353 0.146 0.0
C756 C 0.38228 0.66347 0.19681 0.0
O757 O 0.37883 0.67659 0.21009 0.0
Cd758 Cd 0.39076 0.70984 0.21 0.0
O759 O 0.39449 0.66695 0.18255 0.0
Cd760 Cd 0.4183 0.6946 0.17363 0.0
C761 C 0.37863 0.72268 0.16111 0.0
O762 O 0.42573 0.7059 0.2071 0.0
O763 O 0.43393 0.7267 0.18415 0.0
O764 O 0.44427 0.66968 0.16978 0.0
C765 C 0.43391 0.72232 0.2026 0.0
O766 O 0.37568 0.72428 0.17988 0.0
C767 C 0.45138 0.67681 0.15368 0.0
O768 O 0.39295 0.71214 0.15429 0.0
O769 O 0.4421 0.69152 0.14599 0.0
C770 C 0.32063 0.38224 0.1977 0.0
O771 O 0.30737 0.37872 0.21081 0.0
Cd772 Cd 0.27418 0.39082 0.21045 0.0
O773 O 0.31733 0.39455 0.18347 0.0
Cd774 Cd 0.28981 0.41836 0.17425 0.0
C775 C 0.2617 0.37878 0.1615 0.0
O776 O 0.27819 0.42585 0.20761 0.0
O777 O 0.25771 0.43414 0.1844 0.0
O778 O 0.31473 0.44436 0.17052 0.0
C779 C 0.26187 0.43412 0.20289 0.0
O780 O 0.25988 0.37581 0.18025 0.0
C781 C 0.30777 0.45139 0.15431 0.0
O782 O 0.27238 0.39305 0.1548 0.0
O783 O 0.29317 0.44205 0.14653 0.0
C784 C 0.78985 0.6036 0.66379 0.0
O785 O 0.77651 0.60712 0.67682 0.0
Cd786 Cd 0.77653 0.59534 0.71014 0.0
O787 O 0.80408 0.59139 0.6674 0.0
Cd788 Cd 0.81283 0.56772 0.69524 0.0
C789 C 0.8253 0.60755 0.72308 0.0
O790 O 0.77933 0.56028 0.7065 0.0
O791 O 0.80228 0.55227 0.72738 0.0
O792 O 0.81674 0.54155 0.67053 0.0
C793 C 0.78386 0.55216 0.72296 0.0
O794 O 0.80655 0.61053 0.72461 0.0
C795 C 0.83279 0.53445 0.67778 0.0
O796 O 0.83214 0.59315 0.71266 0.0
O797 O 0.84044 0.54384 0.69242 0.0
C798 C 0.38201 0.78802 0.66356 0.0
O799 O 0.37861 0.77487 0.67683 0.0
Cd800 Cd 0.39098 0.77516 0.70992 0.0
O801 O 0.39439 0.8022 0.66678 0.0
Cd802 Cd 0.41857 0.81116 0.69409 0.0
C803 C 0.37934 0.82422 0.72248 0.0
O804 O 0.42596 0.77772 0.70566 0.0
O805 O 0.4344 0.80086 0.72615 0.0
O806 O 0.44446 0.81458 0.66902 0.0
C807 C 0.43432 0.78237 0.72195 0.0
O808 O 0.37628 0.80548 0.7243 0.0
C809 C 0.45166 0.83075 0.67589 0.0
O810 O 0.39358 0.83085 0.71172 0.0
O811 O 0.44244 0.83867 0.6905 0.0
C812 C 0.19528 0.38272 0.66374 0.0
O813 O 0.20856 0.37912 0.67682 0.0
Cd814 Cd 0.20855 0.39077 0.71014 0.0
O815 O 0.18103 0.39491 0.66733 0.0
Cd816 Cd 0.17221 0.41845 0.69525 0.0
C817 C 0.15976 0.37855 0.72306 0.0
O818 O 0.20575 0.42581 0.70637 0.0
O819 O 0.18297 0.43388 0.72736 0.0
O820 O 0.16813 0.44467 0.67057 0.0
C821 C 0.20136 0.43393 0.72284 0.0
O822 O 0.17852 0.37556 0.72459 0.0
C823 C 0.15212 0.45174 0.6779 0.0
O824 O 0.15293 0.39297 0.71265 0.0
O825 O 0.14457 0.44233 0.69259 0.0
C826 C 0.60318 0.19811 0.66369 0.0
O827 O 0.60659 0.21136 0.67686 0.0
Cd828 Cd 0.59439 0.21126 0.71002 0.0
O829 O 0.59089 0.18389 0.66705 0.0
Cd830 Cd 0.56694 0.17491 0.69452 0.0
C831 C 0.60647 0.16239 0.72283 0.0
O832 O 0.55941 0.20837 0.70587 0.0
O833 O 0.55109 0.1853 0.72651 0.0
O834 O 0.541 0.17094 0.66957 0.0
C835 C 0.55111 0.20377 0.72221 0.0
O836 O 0.60942 0.18115 0.72455 0.0
C837 C 0.53404 0.15474 0.67665 0.0
O838 O 0.59222 0.15562 0.71216 0.0
O839 O 0.54339 0.14709 0.69132 0.0
C840 C 0.78916 0.38281 0.3216 0.0
O841 O 0.77589 0.37942 0.30845 0.0
Cd842 Cd 0.77602 0.39145 0.27524 0.0
O843 O 0.80346 0.395 0.31816 0.0
Cd844 Cd 0.8125 0.41883 0.29054 0.0
C845 C 0.82482 0.37916 0.26238 0.0
O846 O 0.77906 0.42644 0.27926 0.0
O847 O 0.80202 0.43457 0.25847 0.0
O848 O 0.81648 0.4448 0.31545 0.0
C849 C 0.7836 0.43464 0.26285 0.0
O850 O 0.80605 0.37629 0.26076 0.0
C851 C 0.83258 0.45187 0.30831 0.0
O852 O 0.8317 0.39343 0.27296 0.0
O853 O 0.84022 0.44255 0.29362 0.0
C854 C 0.60369 0.78833 0.32218 0.0
O855 O 0.60719 0.77513 0.30899 0.0
Cd856 Cd 0.59498 0.77513 0.27583 0.0
O857 O 0.59133 0.80249 0.31882 0.0
Cd858 Cd 0.56738 0.8113 0.29125 0.0
C859 C 0.60674 0.82402 0.26282 0.0
O860 O 0.55999 0.77776 0.27999 0.0
O861 O 0.55159 0.80074 0.25928 0.0
O862 O 0.54134 0.81516 0.3161 0.0
C863 C 0.55165 0.78229 0.26365 0.0
O864 O 0.60977 0.80527 0.26115 0.0
C865 C 0.53427 0.83128 0.30895 0.0
O866 O 0.5925 0.83074 0.27352 0.0
O867 O 0.54363 0.83897 0.29431 0.0
C868 C 0.19571 0.60373 0.3221 0.0
O869 O 0.20897 0.60735 0.30902 0.0
Cd870 Cd 0.20896 0.59567 0.27569 0.0
O871 O 0.1815 0.59149 0.31852 0.0
Cd872 Cd 0.17272 0.56793 0.29062 0.0
C873 C 0.16018 0.60778 0.26275 0.0
O874 O 0.20626 0.5606 0.27939 0.0
O875 O 0.18337 0.55249 0.2585 0.0
O876 O 0.16856 0.54164 0.31521 0.0
C877 C 0.20179 0.55246 0.26294 0.0
O878 O 0.17892 0.61083 0.26117 0.0
C879 C 0.15246 0.53473 0.30791 0.0
O880 O 0.15342 0.59336 0.2732 0.0
O881 O 0.14494 0.54424 0.29326 0.0
C882 C 0.38156 0.19823 0.32195 0.0
O883 O 0.37815 0.21134 0.30864 0.0
Cd884 Cd 0.39073 0.21123 0.27564 0.0
O885 O 0.394 0.18408 0.31882 0.0
Cd886 Cd 0.41817 0.17513 0.29152 0.0
C887 C 0.37911 0.16231 0.2627 0.0
O888 O 0.42568 0.20865 0.28031 0.0
O889 O 0.43431 0.18571 0.2597 0.0
O890 O 0.44403 0.17118 0.31659 0.0
C891 C 0.43421 0.20415 0.26407 0.0
O892 O 0.37607 0.18105 0.2609 0.0
C893 C 0.45105 0.15502 0.30953 0.0
O894 O 0.39323 0.15565 0.2736 0.0
O895 O 0.44174 0.14735 0.29484 0.0
C896 C 0.66479 0.78785 0.60356 0.0
O897 O 0.67807 0.77472 0.60702 0.0
Cd898 Cd 0.71122 0.7751 0.59488 0.0
O899 O 0.66806 0.80211 0.59126 0.0
Cd900 Cd 0.69553 0.81135 0.5674 0.0
C901 C 0.72367 0.82406 0.60697 0.0
O902 O 0.70711 0.77797 0.55988 0.0
O903 O 0.72762 0.80115 0.55162 0.0
O904 O 0.67057 0.81513 0.54145 0.0
C905 C 0.72342 0.78266 0.55161 0.0
O906 O 0.7255 0.80531 0.60992 0.0
C907 C 0.67753 0.83134 0.53442 0.0
O908 O 0.71298 0.83078 0.59271 0.0
O909 O 0.69217 0.8391 0.54374 0.0
C910 C 0.66346 0.19737 0.38228 0.0
O911 O 0.67668 0.21053 0.37876 0.0
Cd912 Cd 0.70987 0.21036 0.39082 0.0
O913 O 0.6668 0.18315 0.3946 0.0
Cd914 Cd 0.69435 0.17414 0.41849 0.0
C915 C 0.72253 0.16136 0.37899 0.0
O916 O 0.70576 0.20761 0.4258 0.0
O917 O 0.72642 0.1846 0.43419 0.0
O918 O 0.66946 0.17043 0.44451 0.0
C919 C 0.72212 0.20307 0.43407 0.0
O920 O 0.72425 0.18011 0.37597 0.0
C921 C 0.6765 0.15429 0.45162 0.0
O922 O 0.71189 0.15464 0.39328 0.0
O923 O 0.69113 0.14651 0.44232 0.0
C924 C 0.78927 0.66397 0.3822 0.0
O925 O 0.77606 0.67717 0.37874 0.0
Cd926 Cd 0.7762 0.71036 0.39082 0.0
O927 O 0.8035 0.66735 0.39448 0.0
Cd928 Cd 0.81248 0.69495 0.41833 0.0
C929 C 0.82503 0.7232 0.37875 0.0
O930 O 0.77901 0.7062 0.42582 0.0
O931 O 0.80194 0.72698 0.43409 0.0
O932 O 0.81651 0.67007 0.44436 0.0
C933 C 0.78352 0.72257 0.4341 0.0
O934 O 0.80628 0.72488 0.37578 0.0
C935 C 0.83264 0.67723 0.45136 0.0
O936 O 0.8318 0.71257 0.39303 0.0
O937 O 0.84024 0.69192 0.44199 0.0
C938 C 0.32205 0.78884 0.38268 0.0
O939 O 0.30888 0.77563 0.37913 0.0
Cd940 Cd 0.27557 0.77593 0.39081 0.0
O941 O 0.31857 0.80312 0.39488 0.0
Cd942 Cd 0.29082 0.81213 0.41852 0.0
C943 C 0.2631 0.82492 0.3787 0.0
O944 O 0.27917 0.77871 0.42585 0.0
O945 O 0.25852 0.80188 0.43381 0.0
O946 O 0.31547 0.81572 0.44479 0.0
C947 C 0.26272 0.78339 0.43387 0.0
O948 O 0.2614 0.80616 0.3757 0.0
C949 C 0.30841 0.83187 0.45185 0.0
O950 O 0.27358 0.83166 0.3931 0.0
O951 O 0.2939 0.83972 0.4424 0.0
C952 C 0.19497 0.32286 0.38237 0.0
O953 O 0.20837 0.30986 0.37893 0.0
Cd954 Cd 0.20858 0.27657 0.39079 0.0
O955 O 0.18073 0.31924 0.39456 0.0
Cd956 Cd 0.17209 0.29143 0.41832 0.0
C957 C 0.15986 0.26331 0.37861 0.0
O958 O 0.20564 0.28035 0.42578 0.0
O959 O 0.18283 0.25937 0.43387 0.0
O960 O 0.16804 0.31618 0.44443 0.0
C961 C 0.20123 0.26387 0.43392 0.0
O962 O 0.17863 0.26187 0.37567 0.0
C963 C 0.15203 0.30887 0.45152 0.0
O964 O 0.15294 0.27377 0.39293 0.0
O965 O 0.14445 0.29417 0.44216 0.0
C966 C 0.3216 0.19751 0.60356 0.0
O967 O 0.30842 0.21069 0.60715 0.0
Cd968 Cd 0.27515 0.21044 0.5953 0.0
O969 O 0.31817 0.18332 0.59126 0.0
Cd970 Cd 0.29049 0.17441 0.56749 0.0
C971 C 0.26267 0.16139 0.60715 0.0
O972 O 0.27891 0.20788 0.56026 0.0
O973 O 0.25827 0.18478 0.55208 0.0
O974 O 0.31523 0.17094 0.54131 0.0
C975 C 0.26251 0.20326 0.55211 0.0
O976 O 0.26095 0.18013 0.61023 0.0
C977 C 0.3082 0.15482 0.53415 0.0
O978 O 0.2732 0.15473 0.59275 0.0
O979 O 0.29366 0.14694 0.5435 0.0
C980 C 0.7889 0.32257 0.60388 0.0
O981 O 0.77573 0.30937 0.60745 0.0
Cd982 Cd 0.77585 0.27616 0.5954 0.0
O983 O 0.80303 0.3192 0.5915 0.0
Cd984 Cd 0.81176 0.29156 0.5676 0.0
C985 C 0.8248 0.26337 0.60704 0.0
O986 O 0.77825 0.2802 0.56036 0.0
O987 O 0.8012 0.25946 0.55204 0.0
O988 O 0.81536 0.31636 0.54142 0.0
C989 C 0.78276 0.26383 0.55208 0.0
O990 O 0.80608 0.26167 0.61017 0.0
C991 C 0.83144 0.30925 0.53427 0.0
O992 O 0.83142 0.274 0.59269 0.0
O993 O 0.83924 0.29466 0.54364 0.0
C994 C 0.19471 0.66395 0.60299 0.0
O995 O 0.20812 0.67692 0.60652 0.0
Cd996 Cd 0.20818 0.71032 0.59503 0.0
O997 O 0.18042 0.66769 0.59088 0.0
Cd998 Cd 0.17171 0.6957 0.56736 0.0
C999 C 0.15942 0.7233 0.60738 0.0
O1000 O 0.20526 0.70683 0.56 0.0
O1001 O 0.18245 0.72792 0.55211 0.0
O1002 O 0.16773 0.67104 0.54116 0.0
C1003 C 0.20085 0.72338 0.552 0.0
O1004 O 0.17819 0.72473 0.61034 0.0
C1005 C 0.15177 0.6784 0.53399 0.0
O1006 O 0.1525 0.71302 0.59291 0.0
O1007 O 0.14418 0.6931 0.54335 0.0
C1008 C 0.38169 0.32264 0.19795 0.0
O1009 O 0.37841 0.30931 0.21109 0.0
Cd1010 Cd 0.39116 0.27636 0.21101 0.0
O1011 O 0.39413 0.31957 0.18379 0.0
Cd1012 Cd 0.41849 0.29243 0.17481 0.0
C1013 C 0.37953 0.26342 0.16208 0.0
O1014 O 0.42605 0.28113 0.20826 0.0
O1015 O 0.43472 0.2606 0.18526 0.0
O1016 O 0.44428 0.31759 0.171 0.0
C1017 C 0.43458 0.26489 0.20372 0.0
O1018 O 0.37656 0.26161 0.18082 0.0
C1019 C 0.45132 0.31064 0.1548 0.0
O1020 O 0.39358 0.27439 0.15538 0.0
O1021 O 0.44203 0.29598 0.14705 0.0
C1022 C 0.66428 0.38228 0.19721 0.0
O1023 O 0.67756 0.37881 0.21033 0.0
Cd1024 Cd 0.71071 0.39097 0.20993 0.0
O1025 O 0.66754 0.39459 0.18297 0.0
Cd1026 Cd 0.69504 0.41845 0.17376 0.0
C1027 C 0.72314 0.3789 0.16099 0.0
O1028 O 0.70657 0.42599 0.20715 0.0
O1029 O 0.72713 0.43423 0.18401 0.0
O1030 O 0.67011 0.44445 0.16996 0.0
C1031 C 0.72289 0.43428 0.20248 0.0
O1032 O 0.72498 0.37594 0.17973 0.0
C1033 C 0.67711 0.45148 0.15378 0.0
O1034 O 0.71246 0.39318 0.15429 0.0
O1035 O 0.69173 0.44214 0.14603 0.0
C1036 C 0.60337 0.66325 0.19716 0.0
O1037 O 0.60682 0.67643 0.21039 0.0
Cd1038 Cd 0.5946 0.70959 0.21044 0.0
O1039 O 0.59103 0.6666 0.18298 0.0
Cd1040 Cd 0.56707 0.69414 0.17411 0.0
C1041 C 0.60647 0.72264 0.1616 0.0
O1042 O 0.55964 0.70535 0.20762 0.0
O1043 O 0.55121 0.72609 0.18469 0.0
O1044 O 0.54103 0.66928 0.17007 0.0
C1045 C 0.55131 0.72171 0.20313 0.0
O1046 O 0.60947 0.7243 0.18035 0.0
C1047 C 0.53405 0.67647 0.15393 0.0
O1048 O 0.59225 0.71193 0.15484 0.0
O1049 O 0.54345 0.69113 0.14632 0.0
C1050 C 0.32184 0.60343 0.1968 0.0
O1051 O 0.30871 0.60704 0.21002 0.0
Cd1052 Cd 0.27541 0.59528 0.20991 0.0
O1053 O 0.31834 0.59115 0.1826 0.0
Cd1054 Cd 0.29058 0.56745 0.17377 0.0
C1055 C 0.26266 0.60715 0.16095 0.0
O1056 O 0.27908 0.56022 0.20726 0.0
O1057 O 0.2584 0.55202 0.18421 0.0
O1058 O 0.31527 0.54123 0.17014 0.0
C1059 C 0.26266 0.55209 0.20268 0.0
O1060 O 0.26103 0.61022 0.17969 0.0
C1061 C 0.30819 0.53415 0.15401 0.0
O1062 O 0.27318 0.59276 0.15425 0.0
O1063 O 0.29363 0.54356 0.14621 0.0
C1064 C 0.38206 0.66398 0.78864 0.0
O1065 O 0.37869 0.67723 0.77546 0.0
Cd1066 Cd 0.39106 0.71031 0.77561 0.0
O1067 O 0.39439 0.66722 0.80286 0.0
Cd1068 Cd 0.41849 0.69459 0.81186 0.0
C1069 C 0.37922 0.72313 0.82454 0.0
O1070 O 0.42599 0.70582 0.77838 0.0
O1071 O 0.43449 0.72653 0.80128 0.0
O1072 O 0.44426 0.66943 0.81569 0.0
C1073 C 0.4344 0.72213 0.78285 0.0
O1074 O 0.37625 0.72486 0.80579 0.0
C1075 C 0.45143 0.67647 0.83179 0.0
O1076 O 0.39341 0.71237 0.8313 0.0
O1077 O 0.44227 0.69123 0.8395 0.0
C1078 C 0.32169 0.38238 0.78808 0.0
O1079 O 0.30847 0.37887 0.77492 0.0
Cd1080 Cd 0.27523 0.39081 0.77521 0.0
O1081 O 0.31832 0.39466 0.80231 0.0
Cd1082 Cd 0.29071 0.41844 0.81136 0.0
C1083 C 0.26272 0.37881 0.82418 0.0
O1084 O 0.27899 0.42586 0.77798 0.0
O1085 O 0.25848 0.43394 0.80121 0.0
O1086 O 0.31544 0.44465 0.81489 0.0
C1087 C 0.26261 0.43398 0.78272 0.0
O1088 O 0.26097 0.37581 0.80544 0.0
C1089 C 0.30847 0.4517 0.83108 0.0
O1090 O 0.27334 0.39313 0.83089 0.0
O1091 O 0.29398 0.44226 0.83896 0.0
C1092 C 0.6033 0.3225 0.78892 0.0
O1093 O 0.60673 0.30933 0.77568 0.0
Cd1094 Cd 0.59451 0.27618 0.7757 0.0
O1095 O 0.591 0.31913 0.80312 0.0
Cd1096 Cd 0.56703 0.29161 0.812 0.0
C1097 C 0.60642 0.26313 0.82455 0.0
O1098 O 0.55955 0.28044 0.77849 0.0
O1099 O 0.55111 0.25969 0.8014 0.0
O1100 O 0.54117 0.31665 0.8159 0.0
C1101 C 0.55118 0.2641 0.78297 0.0
O1102 O 0.6094 0.2615 0.8058 0.0
C1103 C 0.53405 0.30952 0.832 0.0
O1104 O 0.59219 0.27381 0.83134 0.0
O1105 O 0.5433 0.29479 0.83967 0.0
C1106 C 0.66425 0.60331 0.78867 0.0
O1107 O 0.67741 0.60679 0.77545 0.0
Cd1108 Cd 0.71065 0.59486 0.77564 0.0
O1109 O 0.66767 0.59109 0.80295 0.0
Cd1110 Cd 0.6953 0.56736 0.8121 0.0
C1111 C 0.72331 0.60713 0.82451 0.0
O1112 O 0.70672 0.55986 0.77869 0.0
O1113 O 0.72738 0.55164 0.80175 0.0
O1114 O 0.67041 0.54137 0.81606 0.0
C1115 C 0.7231 0.55166 0.78329 0.0
O1116 O 0.72499 0.61004 0.80574 0.0
C1117 C 0.67749 0.53436 0.83223 0.0
O1118 O 0.71275 0.59282 0.83134 0.0
O1119 O 0.69216 0.5437 0.83989 0.0
C1120 C 0.19473 0.38288 0.32189 0.0
O1121 O 0.20808 0.37939 0.30887 0.0
Cd1122 Cd 0.20816 0.39115 0.27556 0.0
O1123 O 0.18045 0.39504 0.31826 0.0
Cd1124 Cd 0.17167 0.41869 0.29041 0.0
C1125 C 0.15942 0.37887 0.26243 0.0
O1126 O 0.2052 0.42616 0.27934 0.0
O1127 O 0.18239 0.43424 0.25834 0.0
O1128 O 0.16767 0.44476 0.31519 0.0
C1129 C 0.20079 0.4343 0.26286 0.0
O1130 O 0.1782 0.37596 0.26098 0.0
C1131 C 0.15169 0.45193 0.30789 0.0
O1132 O 0.15249 0.39323 0.27285 0.0
O1133 O 0.14408 0.44262 0.29316 0.0
C1134 C 0.60302 0.19767 0.32217 0.0
O1135 O 0.60647 0.21091 0.30899 0.0
Cd1136 Cd 0.59426 0.21083 0.27584 0.0
O1137 O 0.59069 0.18348 0.31881 0.0
Cd1138 Cd 0.56669 0.17462 0.29133 0.0
C1139 C 0.6061 0.16189 0.26302 0.0
O1140 O 0.55928 0.20812 0.28003 0.0
O1141 O 0.55085 0.18517 0.25935 0.0
O1142 O 0.54082 0.17087 0.31637 0.0
C1143 C 0.55093 0.20362 0.2637 0.0
O1144 O 0.60912 0.18065 0.26134 0.0
C1145 C 0.53368 0.15474 0.30934 0.0
O1146 O 0.59183 0.15515 0.27368 0.0
O1147 O 0.54289 0.147 0.29464 0.0
C1148 C 0.78911 0.60373 0.32191 0.0
O1149 O 0.77584 0.6072 0.30877 0.0
Cd1150 Cd 0.77594 0.59521 0.27555 0.0
O1151 O 0.80334 0.59148 0.31846 0.0
Cd1152 Cd 0.81226 0.5677 0.2908 0.0
C1153 C 0.82473 0.60741 0.26271 0.0
O1154 O 0.77881 0.56018 0.27947 0.0
O1155 O 0.80181 0.55205 0.25872 0.0
O1156 O 0.81628 0.5416 0.31561 0.0
C1157 C 0.78337 0.55198 0.26308 0.0
O1158 O 0.80598 0.61036 0.26106 0.0
C1159 C 0.8324 0.53461 0.30844 0.0
O1160 O 0.83153 0.59309 0.27328 0.0
O1161 O 0.84002 0.54403 0.29379 0.0
C1162 C 0.38226 0.78862 0.32248 0.0
O1163 O 0.37867 0.77538 0.30936 0.0
Cd1164 Cd 0.39044 0.7756 0.27605 0.0
O1165 O 0.39453 0.80282 0.31897 0.0
Cd1166 Cd 0.41823 0.81166 0.29122 0.0
C1167 C 0.37851 0.82457 0.26341 0.0
O1168 O 0.42549 0.77816 0.27971 0.0
O1169 O 0.4336 0.80125 0.259 0.0
O1170 O 0.44441 0.81528 0.31596 0.0
C1171 C 0.43362 0.78278 0.26329 0.0
O1172 O 0.37542 0.80582 0.26175 0.0
C1173 C 0.45152 0.8314 0.30886 0.0
O1174 O 0.39294 0.83124 0.2739 0.0
O1175 O 0.44216 0.8392 0.29427 0.0
C1176 C 0.19479 0.60376 0.6632 0.0
O1177 O 0.20815 0.60739 0.67619 0.0
Cd1178 Cd 0.20831 0.59584 0.70957 0.0
O1179 O 0.18058 0.59155 0.66691 0.0
Cd1180 Cd 0.17202 0.568 0.69493 0.0
C1181 C 0.15953 0.60791 0.72266 0.0
O1182 O 0.20562 0.56077 0.70606 0.0
O1183 O 0.18284 0.55273 0.72709 0.0
O1184 O 0.16802 0.54169 0.67038 0.0
C1185 C 0.20123 0.55271 0.72258 0.0
O1186 O 0.17829 0.61097 0.7241 0.0
C1187 C 0.15203 0.5346 0.67773 0.0
O1188 O 0.1527 0.59344 0.71232 0.0
O1189 O 0.14445 0.54404 0.69238 0.0
C1190 C 0.38212 0.19748 0.66357 0.0
O1191 O 0.37868 0.21068 0.67677 0.0
Cd1192 Cd 0.3909 0.21053 0.70992 0.0
O1193 O 0.39443 0.18327 0.6669 0.0
Cd1194 Cd 0.41839 0.17433 0.69441 0.0
C1195 C 0.379 0.16162 0.72276 0.0
O1196 O 0.42587 0.20783 0.7057 0.0
O1197 O 0.43425 0.18484 0.7264 0.0
O1198 O 0.44431 0.17048 0.66944 0.0
C1199 C 0.43422 0.20329 0.72203 0.0
O1200 O 0.37599 0.18037 0.72447 0.0
C1201 C 0.45141 0.15435 0.67655 0.0
O1202 O 0.39324 0.15489 0.71208 0.0
O1203 O 0.44213 0.14665 0.69124 0.0
C1204 C 0.78899 0.38267 0.66428 0.0
O1205 O 0.77573 0.37916 0.6774 0.0
Cd1206 Cd 0.77591 0.39098 0.71068 0.0
O1207 O 0.80325 0.39487 0.66778 0.0
Cd1208 Cd 0.81225 0.41853 0.69554 0.0
C1209 C 0.82472 0.37866 0.7234 0.0
O1210 O 0.7788 0.42603 0.70686 0.0
O1211 O 0.80178 0.43406 0.72768 0.0
O1212 O 0.81628 0.44466 0.67078 0.0
C1213 C 0.78335 0.43416 0.72329 0.0
O1214 O 0.80597 0.37572 0.72504 0.0
C1215 C 0.83239 0.45165 0.67799 0.0
O1216 O 0.83153 0.39304 0.71292 0.0
O1217 O 0.83999 0.44224 0.69265 0.0
C1218 C 0.60406 0.78755 0.66343 0.0
O1219 O 0.60748 0.77444 0.67675 0.0
Cd1220 Cd 0.59489 0.77454 0.70975 0.0
O1221 O 0.59159 0.80167 0.66655 0.0
Cd1222 Cd 0.56734 0.81056 0.6938 0.0
C1223 C 0.60636 0.82353 0.7226 0.0
O1224 O 0.55993 0.77706 0.70517 0.0
O1225 O 0.55129 0.8001 0.72568 0.0
O1226 O 0.54142 0.81424 0.66875 0.0
C1227 C 0.55144 0.78163 0.72141 0.0
O1228 O 0.60944 0.8048 0.72442 0.0
C1229 C 0.53435 0.83043 0.67571 0.0
O1230 O 0.59222 0.83015 0.71169 0.0
O1231 O 0.54366 0.83823 0.69033 0.0
C1232 C 0.32095 0.1982 0.38192 0.0
O1233 O 0.30768 0.21131 0.37837 0.0
Cd1234 Cd 0.2745 0.21098 0.39044 0.0
O1235 O 0.31766 0.18402 0.39429 0.0
Cd1236 Cd 0.29014 0.17495 0.41816 0.0
C1237 C 0.26212 0.16194 0.37861 0.0
O1238 O 0.27853 0.20838 0.42547 0.0
O1239 O 0.258 0.18522 0.43377 0.0
O1240 O 0.31498 0.17136 0.44427 0.0
C1241 C 0.2622 0.20371 0.43372 0.0
O1242 O 0.26028 0.18067 0.37555 0.0
C1243 C 0.308 0.15517 0.45134 0.0
O1244 O 0.27277 0.15531 0.39295 0.0
O1245 O 0.29344 0.14734 0.44199 0.0
C1246 C 0.32121 0.78835 0.60377 0.0
O1247 O 0.30796 0.77522 0.6073 0.0
Cd1248 Cd 0.2747 0.77572 0.59543 0.0
O1249 O 0.31785 0.80262 0.59152 0.0
Cd1250 Cd 0.29022 0.81187 0.56782 0.0
C1251 C 0.26247 0.82473 0.60757 0.0
O1252 O 0.27844 0.77853 0.56039 0.0
O1253 O 0.25795 0.80182 0.55233 0.0
O1254 O 0.31502 0.81547 0.5417 0.0
C1255 C 0.26206 0.78331 0.55227 0.0
O1256 O 0.26064 0.80598 0.61055 0.0
C1257 C 0.30806 0.83167 0.53464 0.0
O1258 O 0.27304 0.83142 0.59321 0.0
O1259 O 0.29352 0.83953 0.54402 0.0
C1260 C 0.19559 0.32276 0.6033 0.0
O1261 O 0.20896 0.30974 0.60682 0.0
Cd1262 Cd 0.20905 0.27641 0.59512 0.0
O1263 O 0.18135 0.31913 0.59111 0.0
Cd1264 Cd 0.17262 0.29128 0.56747 0.0
C1265 C 0.1603 0.26339 0.60734 0.0
O1266 O 0.20614 0.28007 0.56008 0.0
O1267 O 0.18326 0.25915 0.55203 0.0
O1268 O 0.16853 0.31598 0.54128 0.0
C1269 C 0.20167 0.26359 0.55199 0.0
O1270 O 0.17906 0.26188 0.61033 0.0
C1271 C 0.15244 0.30871 0.53429 0.0
O1272 O 0.15344 0.27381 0.59293 0.0
O1273 O 0.14489 0.29403 0.54372 0.0
C1274 C 0.66368 0.19771 0.60364 0.0
O1275 O 0.67695 0.21083 0.60713 0.0
Cd1276 Cd 0.71007 0.21071 0.5949 0.0
O1277 O 0.66693 0.18351 0.59129 0.0
Cd1278 Cd 0.6944 0.17446 0.56736 0.0
C1279 C 0.72292 0.16176 0.60669 0.0
O1280 O 0.70576 0.20793 0.55995 0.0
O1281 O 0.72637 0.18493 0.55147 0.0
O1282 O 0.66947 0.17064 0.54137 0.0
C1283 C 0.72208 0.20339 0.5516 0.0
O1284 O 0.72465 0.18051 0.60968 0.0
C1285 C 0.6765 0.15447 0.53434 0.0
O1286 O 0.71215 0.15503 0.5925 0.0
O1287 O 0.69114 0.14673 0.54368 0.0
C1288 C 0.79013 0.6637 0.60334 0.0
O1289 O 0.77687 0.67684 0.60675 0.0
Cd1290 Cd 0.77697 0.71007 0.59474 0.0
O1291 O 0.80439 0.66715 0.59112 0.0
Cd1292 Cd 0.8133 0.6948 0.56726 0.0
C1293 C 0.82581 0.72296 0.60686 0.0
O1294 O 0.77982 0.70604 0.55975 0.0
O1295 O 0.80273 0.72689 0.5516 0.0
O1296 O 0.81714 0.66991 0.54125 0.0
C1297 C 0.78431 0.72246 0.55154 0.0
O1298 O 0.80705 0.72456 0.60979 0.0
C1299 C 0.8332 0.67708 0.5341 0.0
O1300 O 0.83264 0.7124 0.59256 0.0
O1301 O 0.84089 0.69177 0.54341 0.0
C1302 C 0.66399 0.78846 0.38247 0.0
O1303 O 0.67718 0.77525 0.37904 0.0
Cd1304 Cd 0.71036 0.7754 0.39115 0.0
O1305 O 0.66734 0.80271 0.39474 0.0
Cd1306 Cd 0.69489 0.8117 0.41863 0.0
C1307 C 0.72312 0.82431 0.3791 0.0
O1308 O 0.70634 0.77825 0.42613 0.0
O1309 O 0.72698 0.80134 0.43433 0.0
O1310 O 0.67005 0.81547 0.44468 0.0
C1311 C 0.72271 0.78287 0.43435 0.0
O1312 O 0.72482 0.80555 0.37616 0.0
C1313 C 0.67711 0.83163 0.45173 0.0
O1314 O 0.71246 0.83109 0.39335 0.0
O1315 O 0.69171 0.83939 0.44235 0.0
C1316 C 0.19576 0.66391 0.38232 0.0
O1317 O 0.20908 0.67696 0.37876 0.0
Cd1318 Cd 0.20903 0.71032 0.39034 0.0
O1319 O 0.18149 0.66755 0.39447 0.0
Cd1320 Cd 0.17268 0.69551 0.41795 0.0
C1321 C 0.16029 0.72318 0.37794 0.0
O1322 O 0.20619 0.70675 0.4254 0.0
O1323 O 0.18329 0.72772 0.43326 0.0
O1324 O 0.16848 0.67096 0.44427 0.0
C1325 C 0.2017 0.72325 0.43342 0.0
O1326 O 0.17905 0.72474 0.37498 0.0
C1327 C 0.15241 0.67832 0.45118 0.0
O1328 O 0.15346 0.71281 0.39239 0.0
O1329 O 0.14491 0.69296 0.44165 0.0
C1330 C 0.78885 0.3225 0.38188 0.0
O1331 O 0.77561 0.30937 0.37834 0.0
Cd1332 Cd 0.7757 0.27612 0.39034 0.0
O1333 O 0.80301 0.31904 0.39423 0.0
Cd1334 Cd 0.81172 0.29137 0.41812 0.0
C1335 C 0.82462 0.2633 0.3786 0.0
O1336 O 0.77821 0.27998 0.42538 0.0
O1337 O 0.80119 0.25923 0.43363 0.0
O1338 O 0.8153 0.31618 0.44425 0.0
C1339 C 0.78276 0.26358 0.43361 0.0
O1340 O 0.80589 0.26166 0.3755 0.0
C1341 C 0.83139 0.3091 0.45142 0.0
O1342 O 0.83131 0.27386 0.39296 0.0
O1343 O 0.8392 0.29449 0.4421 0.0
C1344 C 0.13935 0.23845 0.33221 0.0
C1345 C 0.11996 0.23316 0.33829 0.0
H1346 H 0.16721 0.25188 0.3403 0.0
C1347 C 0.11371 0.23786 0.3578 0.0
H1348 H 0.14462 0.23494 0.3173 0.0
C1349 C 0.12658 0.24789 0.3709 0.0
C1350 C 0.14604 0.25296 0.36485 0.0
H1351 H 0.09882 0.23401 0.36284 0.0
H1352 H 0.12138 0.25144 0.38582 0.0
C1353 C 0.15232 0.24807 0.34542 0.0
C1354 C 0.7375 0.12779 0.37151 0.0
C1355 C 0.73275 0.14733 0.36536 0.0
H1356 H 0.75099 0.09977 0.36361 0.0
C1357 C 0.73782 0.15348 0.34592 0.0
H1358 H 0.73381 0.12269 0.38644 0.0
C1359 C 0.74728 0.14031 0.33281 0.0
C1360 C 0.75224 0.12085 0.33898 0.0
H1361 H 0.73425 0.16841 0.34073 0.0
H1362 H 0.75092 0.14549 0.31789 0.0
C1363 C 0.74738 0.11472 0.3585 0.0
C1364 C 0.83283 0.73843 0.3456 0.0
C1365 C 0.839 0.73341 0.36505 0.0
H1366 H 0.84078 0.75147 0.31751 0.0
C1367 C 0.85854 0.73817 0.37114 0.0
H1368 H 0.81789 0.73486 0.34045 0.0
C1369 C 0.87158 0.74801 0.35807 0.0
C1370 C 0.86543 0.75282 0.33855 0.0
H1371 H 0.86366 0.73451 0.38607 0.0
H1372 H 0.88653 0.75162 0.36315 0.0
C1373 C 0.84597 0.74785 0.33243 0.0
C1374 C 0.23817 0.87145 0.35801 0.0
C1375 C 0.23354 0.86535 0.33843 0.0
H1376 H 0.25151 0.86349 0.38608 0.0
C1377 C 0.23875 0.84596 0.33226 0.0
H1378 H 0.23438 0.88634 0.36313 0.0
C1379 C 0.24819 0.83283 0.34544 0.0
C1380 C 0.25299 0.83894 0.36495 0.0
H1381 H 0.23529 0.84081 0.31729 0.0
H1382 H 0.25192 0.81793 0.34025 0.0
C1383 C 0.24803 0.85842 0.37109 0.0
C1384 C 0.12616 0.73866 0.61527 0.0
C1385 C 0.1456 0.73344 0.62128 0.0
H1386 H 0.09845 0.75255 0.62346 0.0
C1387 C 0.15186 0.73802 0.6408 0.0
H1388 H 0.12097 0.73536 0.60028 0.0
C1389 C 0.13892 0.74749 0.65411 0.0
C1390 C 0.11957 0.75297 0.64807 0.0
H1391 H 0.16673 0.73408 0.64588 0.0
H1392 H 0.14419 0.75078 0.66908 0.0
C1393 C 0.11332 0.74855 0.62849 0.0
C1394 C 0.24771 0.15338 0.64035 0.0
C1395 C 0.2526 0.14731 0.62085 0.0
H1396 H 0.23483 0.1453 0.66846 0.0
C1397 C 0.24777 0.1278 0.61469 0.0
H1398 H 0.25133 0.1683 0.64555 0.0
C1399 C 0.23799 0.11469 0.62775 0.0
C1400 C 0.23329 0.12075 0.64731 0.0
H1401 H 0.25132 0.12275 0.59971 0.0
H1402 H 0.23432 0.09976 0.62261 0.0
C1403 C 0.23835 0.14018 0.6535 0.0
C1404 C 0.8329 0.24804 0.64007 0.0
C1405 C 0.8389 0.25313 0.62059 0.0
H1406 H 0.84107 0.23487 0.66804 0.0
C1407 C 0.85837 0.24834 0.61432 0.0
H1408 H 0.81802 0.25163 0.64537 0.0
C1409 C 0.87151 0.23841 0.62723 0.0
C1410 C 0.86553 0.23352 0.64678 0.0
H1411 H 0.86336 0.25204 0.59935 0.0
H1412 H 0.8864 0.23477 0.62201 0.0
C1413 C 0.84614 0.23853 0.65309 0.0
C1414 C 0.74809 0.84518 0.65332 0.0
C1415 C 0.7529 0.8647 0.64722 0.0
H1416 H 0.73535 0.81698 0.64527 0.0
C1417 C 0.74809 0.87082 0.62769 0.0
H1418 H 0.75172 0.84001 0.66825 0.0
C1419 C 0.73838 0.8577 0.6146 0.0
C1420 C 0.73376 0.83811 0.62068 0.0
H1421 H 0.75158 0.88582 0.62263 0.0
H1422 H 0.73471 0.86281 0.59966 0.0
C1423 C 0.73881 0.83196 0.64013 0.0
C1424 C 0.33332 0.14098 0.23744 0.0
C1425 C 0.33955 0.12145 0.23283 0.0
H1426 H 0.34105 0.16925 0.25022 0.0
C1427 C 0.359 0.11542 0.23801 0.0
H1428 H 0.31845 0.14608 0.23353 0.0
C1429 C 0.37187 0.12862 0.2479 0.0
C1430 C 0.36565 0.14821 0.25234 0.0
H1431 H 0.36416 0.10042 0.23468 0.0
H1432 H 0.38675 0.12358 0.25187 0.0
C1433 C 0.3463 0.15427 0.24691 0.0
C1434 C 0.84537 0.33267 0.23776 0.0
C1435 C 0.86483 0.33867 0.23265 0.0
H1436 H 0.81743 0.34087 0.2509 0.0
C1437 C 0.87111 0.35818 0.23736 0.0
H1438 H 0.84009 0.31776 0.23423 0.0
C1439 C 0.8582 0.37135 0.24724 0.0
C1440 C 0.83867 0.36536 0.25215 0.0
H1441 H 0.88606 0.36317 0.23364 0.0
H1442 H 0.86342 0.38627 0.25082 0.0
C1443 C 0.83237 0.34594 0.24722 0.0
C1444 C 0.65273 0.84514 0.23776 0.0
C1445 C 0.64655 0.86464 0.23295 0.0
H1446 H 0.64488 0.81697 0.25071 0.0
C1447 C 0.62709 0.87074 0.23796 0.0
H1448 H 0.66761 0.83999 0.23399 0.0
C1449 C 0.61413 0.85762 0.24787 0.0
C1450 C 0.6203 0.83806 0.2525 0.0
H1451 H 0.62196 0.88572 0.23447 0.0
H1452 H 0.59924 0.86272 0.25169 0.0
C1453 C 0.63968 0.83193 0.24725 0.0
C1454 C 0.13911 0.65411 0.23816 0.0
C1455 C 0.11973 0.64789 0.23301 0.0
H1456 H 0.16715 0.64621 0.25134 0.0
C1457 C 0.11367 0.62832 0.23774 0.0
H1458 H 0.14424 0.66908 0.23462 0.0
C1459 C 0.12671 0.61529 0.24763 0.0
C1460 C 0.14618 0.62148 0.25255 0.0
H1461 H 0.09878 0.62315 0.23399 0.0
H1462 H 0.12166 0.60031 0.25119 0.0
C1463 C 0.15227 0.64099 0.24764 0.0
C1464 C 0.33333 0.84554 0.74729 0.0
C1465 C 0.33959 0.86498 0.75219 0.0
H1466 H 0.3411 0.81737 0.73432 0.0
C1467 C 0.35911 0.871 0.74727 0.0
H1468 H 0.31841 0.84044 0.75099 0.0
C1469 C 0.37204 0.85785 0.73739 0.0
C1470 C 0.3658 0.83833 0.7327 0.0
H1471 H 0.3643 0.88594 0.75083 0.0
H1472 H 0.38698 0.86287 0.73365 0.0
C1473 C 0.34636 0.83229 0.73784 0.0
C1474 C 0.15205 0.34524 0.73801 0.0
C1475 C 0.14585 0.36474 0.73322 0.0
H1476 H 0.14422 0.31704 0.7509 0.0
C1477 C 0.12637 0.3708 0.73821 0.0
H1478 H 0.16695 0.34011 0.73426 0.0
C1479 C 0.11342 0.35765 0.74807 0.0
C1480 C 0.1196 0.33809 0.75268 0.0
H1481 H 0.12123 0.38578 0.73473 0.0
H1482 H 0.09852 0.36271 0.75188 0.0
C1483 C 0.139 0.332 0.74746 0.0
C1484 C 0.63956 0.15456 0.73816 0.0
C1485 C 0.62016 0.14838 0.73302 0.0
H1486 H 0.66763 0.14654 0.7512 0.0
C1487 C 0.6141 0.12877 0.7376 0.0
H1488 H 0.64468 0.16955 0.73472 0.0
C1489 C 0.62717 0.11566 0.74736 0.0
C1490 C 0.64666 0.12181 0.75227 0.0
H1491 H 0.5992 0.12364 0.73386 0.0
H1492 H 0.62212 0.10065 0.75082 0.0
C1493 C 0.65273 0.14135 0.7475 0.0
C1494 C 0.87164 0.62841 0.74814 0.0
C1495 C 0.86548 0.64798 0.7527 0.0
H1496 H 0.86381 0.60028 0.73484 0.0
C1497 C 0.84609 0.65409 0.74743 0.0
H1498 H 0.88654 0.62333 0.75197 0.0
C1499 C 0.83303 0.64085 0.738 0.0
C1500 C 0.83921 0.62135 0.73325 0.0
H1501 H 0.84089 0.66906 0.75085 0.0
H1502 H 0.81814 0.64599 0.73421 0.0
C1503 C 0.85869 0.61527 0.73828 0.0
C1504 C 0.23724 0.35812 0.11475 0.0
C1505 C 0.2324 0.3386 0.12085 0.0
H1506 H 0.25067 0.38613 0.12278 0.0
C1507 C 0.2372 0.33247 0.14037 0.0
H1508 H 0.23376 0.36321 0.09976 0.0
C1509 C 0.2465 0.34564 0.15359 0.0
C1510 C 0.25159 0.36509 0.14745 0.0
H1511 H 0.23356 0.31754 0.14552 0.0
H1512 H 0.24996 0.34049 0.16856 0.0
C1513 C 0.24697 0.37119 0.12787 0.0
C1514 C 0.23776 0.6279 0.87119 0.0
C1515 C 0.23303 0.6475 0.86518 0.0
H1516 H 0.25114 0.5999 0.86307 0.0
C1517 C 0.23808 0.65376 0.84578 0.0
H1518 H 0.23408 0.62271 0.88609 0.0
C1519 C 0.24748 0.64067 0.83256 0.0
C1520 C 0.25239 0.62114 0.83858 0.0
H1521 H 0.23454 0.66875 0.8407 0.0
H1522 H 0.2511 0.64593 0.81767 0.0
C1523 C 0.24757 0.6149 0.85807 0.0
C1524 C 0.37172 0.24818 0.85741 0.0
C1525 C 0.3656 0.2528 0.83784 0.0
H1526 H 0.36384 0.23482 0.88549 0.0
C1527 C 0.34622 0.24755 0.83168 0.0
H1528 H 0.38661 0.252 0.86253 0.0
C1529 C 0.33313 0.23808 0.84487 0.0
C1530 C 0.33928 0.23329 0.86438 0.0
H1531 H 0.34105 0.251 0.81671 0.0
H1532 H 0.31825 0.23432 0.8397 0.0
C1533 C 0.35874 0.2383 0.87051 0.0
C1534 C 0.73779 0.34552 0.83248 0.0
C1535 C 0.73293 0.36498 0.83872 0.0
H1536 H 0.75068 0.31731 0.84031 0.0
C1537 C 0.73784 0.37099 0.85825 0.0
H1538 H 0.7341 0.34043 0.81754 0.0
C1539 C 0.74767 0.35782 0.87121 0.0
C1540 C 0.75232 0.33829 0.865 0.0
H1541 H 0.73431 0.38594 0.86342 0.0
H1542 H 0.7514 0.36284 0.88616 0.0
C1543 C 0.74719 0.33225 0.84555 0.0
C1544 C 0.61341 0.73769 0.85749 0.0
C1545 C 0.61963 0.7331 0.83795 0.0
H1546 H 0.62111 0.75115 0.88557 0.0
C1547 C 0.63898 0.73851 0.83184 0.0
H1548 H 0.59855 0.73375 0.86257 0.0
C1549 C 0.65195 0.7481 0.84506 0.0
C1550 C 0.64571 0.75287 0.86454 0.0
H1551 H 0.64422 0.73508 0.8169 0.0
H1552 H 0.66681 0.75199 0.83992 0.0
C1553 C 0.62628 0.7477 0.87061 0.0
C1554 C 0.74786 0.62769 0.1145 0.0
C1555 C 0.75264 0.64722 0.12067 0.0
H1556 H 0.73442 0.59965 0.1224 0.0
C1557 C 0.74768 0.65329 0.14015 0.0
H1558 H 0.75147 0.62265 0.09954 0.0
C1559 C 0.73829 0.64008 0.15328 0.0
C1560 C 0.73329 0.62064 0.14709 0.0
H1561 H 0.75126 0.66821 0.14536 0.0
H1562 H 0.73471 0.64521 0.16823 0.0
C1563 C 0.73805 0.61458 0.12754 0.0
C1564 C 0.35778 0.74764 0.11468 0.0
C1565 C 0.33827 0.75238 0.12088 0.0
H1566 H 0.38582 0.73418 0.12248 0.0
C1567 C 0.33222 0.74728 0.14034 0.0
H1568 H 0.36281 0.75135 0.09973 0.0
C1569 C 0.34544 0.73782 0.15341 0.0
C1570 C 0.36487 0.73288 0.14718 0.0
H1571 H 0.31731 0.75082 0.14558 0.0
H1572 H 0.34033 0.73415 0.16835 0.0
C1573 C 0.3709 0.73776 0.12765 0.0
C1574 C 0.62626 0.23852 0.11474 0.0
C1575 C 0.64575 0.23352 0.12081 0.0
H1576 H 0.59841 0.25223 0.1228 0.0
C1577 C 0.65195 0.23833 0.14029 0.0
H1578 H 0.62112 0.23504 0.09978 0.0
C1579 C 0.63891 0.2478 0.15352 0.0
C1580 C 0.61951 0.25304 0.14742 0.0
H1581 H 0.66685 0.23457 0.14543 0.0
H1582 H 0.64414 0.25125 0.16846 0.0
C1583 C 0.61332 0.24842 0.12787 0.0
C1584 C 0.87213 0.74812 0.62766 0.0
C1585 C 0.86592 0.75282 0.64718 0.0
H1586 H 0.86436 0.73463 0.59961 0.0
C1587 C 0.84651 0.74763 0.65326 0.0
H1588 H 0.88705 0.75191 0.62261 0.0
C1589 C 0.83348 0.73811 0.64005 0.0
C1590 C 0.83971 0.73321 0.6206 0.0
H1591 H 0.84127 0.75114 0.66818 0.0
H1592 H 0.81857 0.73438 0.64517 0.0
C1593 C 0.8592 0.73819 0.61455 0.0
C1594 C 0.23832 0.84589 0.65401 0.0
C1595 C 0.2333 0.86535 0.64785 0.0
H1596 H 0.25122 0.81776 0.64599 0.0
C1597 C 0.23796 0.87143 0.62827 0.0
H1598 H 0.23483 0.84076 0.66898 0.0
C1599 C 0.24768 0.85833 0.61518 0.0
C1600 C 0.25247 0.83879 0.62131 0.0
H1601 H 0.2343 0.88637 0.62316 0.0
H1602 H 0.2512 0.86339 0.6002 0.0
C1603 C 0.24761 0.83269 0.64082 0.0
C1604 C 0.114 0.23817 0.62807 0.0
C1605 C 0.12015 0.23355 0.64763 0.0
H1606 H 0.12183 0.25159 0.6 0.0
C1607 C 0.13952 0.23884 0.65379 0.0
H1608 H 0.09913 0.23431 0.62295 0.0
C1609 C 0.15257 0.24837 0.6406 0.0
C1610 C 0.1464 0.25317 0.6211 0.0
H1611 H 0.1447 0.23539 0.66875 0.0
H1612 H 0.16744 0.25217 0.64577 0.0
C1613 C 0.12695 0.24811 0.61498 0.0
C1614 C 0.74814 0.14069 0.65265 0.0
C1615 C 0.75298 0.1212 0.64646 0.0
H1616 H 0.7351 0.16882 0.64482 0.0
C1617 C 0.74793 0.11509 0.627 0.0
H1618 H 0.75194 0.14585 0.66753 0.0
C1619 C 0.73794 0.12818 0.61406 0.0
C1620 C 0.73328 0.14773 0.62024 0.0
H1621 H 0.75144 0.10013 0.62187 0.0
H1622 H 0.73409 0.12308 0.59918 0.0
C1623 C 0.73858 0.15387 0.63961 0.0
C1624 C 0.84572 0.23861 0.33241 0.0
C1625 C 0.86512 0.23352 0.33864 0.0
H1626 H 0.81768 0.25175 0.34026 0.0
C1627 C 0.8712 0.23832 0.35818 0.0
H1628 H 0.84059 0.23502 0.31746 0.0
C1629 C 0.85814 0.24823 0.37117 0.0
C1630 C 0.83865 0.25309 0.36497 0.0
H1631 H 0.8861 0.23462 0.36334 0.0
H1632 H 0.86319 0.25185 0.38613 0.0
C1633 C 0.83257 0.2481 0.3455 0.0
C1634 C 0.74792 0.8709 0.35841 0.0
C1635 C 0.75278 0.86473 0.33892 0.0
H1636 H 0.73437 0.863 0.38639 0.0
C1637 C 0.74786 0.84523 0.33283 0.0
H1638 H 0.75149 0.88588 0.36346 0.0
C1639 C 0.73844 0.83209 0.34601 0.0
C1640 C 0.73335 0.83829 0.36541 0.0
H1641 H 0.75151 0.84002 0.31794 0.0
H1642 H 0.7349 0.81712 0.34088 0.0
C1643 C 0.73807 0.85786 0.37148 0.0
C1644 C 0.15252 0.73801 0.34459 0.0
C1645 C 0.14637 0.73329 0.36411 0.0
H1646 H 0.14462 0.75082 0.31637 0.0
C1647 C 0.12689 0.73831 0.37019 0.0
H1648 H 0.16741 0.73422 0.33946 0.0
C1649 C 0.11392 0.74814 0.35704 0.0
C1650 C 0.12006 0.75269 0.33746 0.0
H1651 H 0.12178 0.73489 0.38518 0.0
H1652 H 0.09903 0.75197 0.36212 0.0
C1653 C 0.13944 0.74742 0.33134 0.0
C1654 C 0.23777 0.14059 0.33233 0.0
C1655 C 0.23299 0.12108 0.3385 0.0
H1656 H 0.25046 0.16885 0.34029 0.0
C1657 C 0.23782 0.11504 0.35805 0.0
H1658 H 0.23414 0.14571 0.31739 0.0
C1659 C 0.24749 0.12823 0.3711 0.0
C1660 C 0.25207 0.14781 0.36495 0.0
H1661 H 0.23435 0.10005 0.36317 0.0
H1662 H 0.25117 0.12318 0.38605 0.0
C1663 C 0.24702 0.15388 0.34548 0.0
C1664 C 0.65209 0.84491 0.74793 0.0
C1665 C 0.64585 0.86444 0.75251 0.0
H1666 H 0.64439 0.81663 0.73516 0.0
C1667 C 0.62642 0.87047 0.74726 0.0
H1668 H 0.66695 0.8398 0.75189 0.0
C1669 C 0.61357 0.85726 0.73736 0.0
C1670 C 0.6198 0.83766 0.73295 0.0
H1671 H 0.62124 0.88547 0.75057 0.0
H1672 H 0.5987 0.8623 0.73334 0.0
C1673 C 0.63914 0.8316 0.73844 0.0
C1674 C 0.1262 0.61552 0.738 0.0
C1675 C 0.14563 0.62166 0.73288 0.0
H1676 H 0.09842 0.62346 0.75188 0.0
C1677 C 0.15178 0.64118 0.73764 0.0
H1678 H 0.12109 0.60053 0.73455 0.0
C1679 C 0.13875 0.65435 0.74719 0.0
C1680 C 0.11941 0.64817 0.75256 0.0
H1681 H 0.16663 0.64637 0.73379 0.0
H1682 H 0.14393 0.66932 0.75062 0.0
C1683 C 0.11327 0.6286 0.74796 0.0
C1684 C 0.35857 0.11493 0.7476 0.0
C1685 C 0.33908 0.12102 0.75253 0.0
H1686 H 0.38646 0.12295 0.73398 0.0
C1687 C 0.33289 0.1405 0.74762 0.0
H1688 H 0.3637 0.09997 0.75116 0.0
C1689 C 0.34598 0.1537 0.73816 0.0
C1690 C 0.36539 0.14758 0.73302 0.0
H1691 H 0.31799 0.14565 0.75132 0.0
H1692 H 0.34078 0.16864 0.73464 0.0
C1693 C 0.37155 0.12803 0.73772 0.0
C1694 C 0.84558 0.33203 0.74757 0.0
C1695 C 0.86503 0.33809 0.75268 0.0
H1696 H 0.81755 0.34022 0.73458 0.0
C1697 C 0.87119 0.35766 0.7481 0.0
H1698 H 0.84038 0.31706 0.751 0.0
C1699 C 0.85819 0.37085 0.73837 0.0
C1700 C 0.83866 0.36482 0.73348 0.0
H1701 H 0.88613 0.3627 0.75182 0.0
H1702 H 0.86332 0.38583 0.7349 0.0
C1703 C 0.83247 0.34532 0.73826 0.0
C1704 C 0.62665 0.11523 0.23828 0.0
C1705 C 0.64615 0.12135 0.2334 0.0
H1706 H 0.59871 0.1232 0.25182 0.0
C1707 C 0.65228 0.14084 0.23829 0.0
H1708 H 0.62156 0.10026 0.23472 0.0
C1709 C 0.63916 0.15402 0.24771 0.0
C1710 C 0.61974 0.14787 0.2528 0.0
H1711 H 0.66719 0.14602 0.23463 0.0
H1712 H 0.64432 0.16898 0.25123 0.0
C1713 C 0.61362 0.12831 0.24811 0.0
C1714 C 0.84564 0.6538 0.23813 0.0
C1715 C 0.86506 0.64766 0.23305 0.0
H1716 H 0.81761 0.64578 0.25123 0.0
C1717 C 0.8712 0.62811 0.23779 0.0
H1718 H 0.84046 0.66874 0.23458 0.0
C1719 C 0.85818 0.61503 0.24765 0.0
C1720 C 0.83868 0.62114 0.25251 0.0
H1721 H 0.88612 0.62301 0.2341 0.0
H1722 H 0.86329 0.60007 0.25124 0.0
C1723 C 0.83252 0.64061 0.24758 0.0
C1724 C 0.35807 0.87121 0.23851 0.0
C1725 C 0.33848 0.86521 0.23384 0.0
H1726 H 0.38607 0.86312 0.25187 0.0
C1727 C 0.33221 0.84583 0.23902 0.0
H1728 H 0.36326 0.8861 0.23475 0.0
C1729 C 0.34532 0.83262 0.24845 0.0
C1730 C 0.36484 0.83864 0.25329 0.0
H1731 H 0.31723 0.84075 0.23553 0.0
H1732 H 0.34006 0.81774 0.25216 0.0
C1733 C 0.37107 0.85811 0.24836 0.0
C1734 C 0.15195 0.3456 0.24731 0.0
C1735 C 0.14562 0.36504 0.25216 0.0
H1736 H 0.14432 0.31741 0.23431 0.0
C1737 C 0.12611 0.371 0.24713 0.0
H1738 H 0.16687 0.34054 0.25109 0.0
C1739 C 0.11326 0.35782 0.23718 0.0
C1740 C 0.11957 0.33831 0.23253 0.0
H1741 H 0.12087 0.38593 0.25064 0.0
H1742 H 0.09833 0.3628 0.23336 0.0
C1743 C 0.139 0.33232 0.23778 0.0
C1744 C 0.74793 0.62815 0.87102 0.0
C1745 C 0.75262 0.64768 0.86479 0.0
H1746 H 0.73463 0.60003 0.8632 0.0
C1747 C 0.74765 0.65369 0.84528 0.0
H1748 H 0.75155 0.62316 0.886 0.0
C1749 C 0.73834 0.6404 0.83218 0.0
C1750 C 0.73342 0.62095 0.83844 0.0
H1751 H 0.75118 0.66861 0.84003 0.0
H1752 H 0.73476 0.64547 0.81721 0.0
C1753 C 0.7382 0.61496 0.85801 0.0
C1754 C 0.74751 0.33253 0.13986 0.0
C1755 C 0.75236 0.33866 0.12036 0.0
H1756 H 0.73474 0.34057 0.16803 0.0
C1757 C 0.74758 0.3582 0.11426 0.0
H1758 H 0.7511 0.31759 0.14502 0.0
C1759 C 0.73787 0.37129 0.12737 0.0
C1760 C 0.73322 0.36519 0.14694 0.0
H1761 H 0.7511 0.36328 0.09928 0.0
H1762 H 0.73423 0.38625 0.12228 0.0
C1763 C 0.73823 0.34572 0.15307 0.0
C1764 C 0.65249 0.74773 0.14056 0.0
C1765 C 0.64629 0.75261 0.12108 0.0
H1766 H 0.64464 0.73469 0.16868 0.0
C1767 C 0.62682 0.74762 0.11498 0.0
H1768 H 0.66738 0.75148 0.14571 0.0
C1769 C 0.61387 0.73768 0.12806 0.0
C1770 C 0.62004 0.73298 0.1476 0.0
H1771 H 0.62168 0.75117 0.10003 0.0
H1772 H 0.59897 0.73388 0.12297 0.0
C1773 C 0.63943 0.7382 0.15374 0.0
C1774 C 0.2475 0.64029 0.15299 0.0
C1775 C 0.25246 0.6208 0.14692 0.0
H1776 H 0.23442 0.66834 0.14495 0.0
C1777 C 0.24754 0.61459 0.12745 0.0
H1778 H 0.25119 0.64553 0.16787 0.0
C1779 C 0.23761 0.62758 0.11439 0.0
C1780 C 0.23285 0.64714 0.12044 0.0
H1781 H 0.25114 0.59961 0.12241 0.0
H1782 H 0.23387 0.62241 0.0995 0.0
C1783 C 0.23799 0.65339 0.13983 0.0
C1784 C 0.33375 0.23798 0.14095 0.0
C1785 C 0.33991 0.23338 0.1214 0.0
H1786 H 0.34156 0.25081 0.16916 0.0
C1787 C 0.35932 0.23862 0.11529 0.0
H1788 H 0.31892 0.23402 0.14611 0.0
C1789 C 0.37221 0.24856 0.12843 0.0
C1790 C 0.36606 0.25301 0.14803 0.0
H1791 H 0.36442 0.23529 0.10029 0.0
H1792 H 0.38705 0.25258 0.12333 0.0
C1793 C 0.34675 0.2475 0.15418 0.0
C1794 C 0.24777 0.37127 0.85772 0.0
C1795 C 0.25256 0.36512 0.83821 0.0
H1796 H 0.23426 0.36335 0.88572 0.0
C1797 C 0.24756 0.34566 0.83209 0.0
H1798 H 0.2514 0.38623 0.8628 0.0
C1799 C 0.23812 0.33252 0.84526 0.0
C1800 C 0.2331 0.33869 0.86469 0.0
H1801 H 0.25115 0.34047 0.81717 0.0
H1802 H 0.23452 0.31758 0.8401 0.0
C1803 C 0.2379 0.35823 0.87079 0.0
C1804 C 0.6269 0.23803 0.87108 0.0
C1805 C 0.64639 0.23313 0.86495 0.0
H1806 H 0.599 0.25172 0.86316 0.0
C1807 C 0.65254 0.23811 0.84549 0.0
H1808 H 0.6218 0.23441 0.88603 0.0
C1809 C 0.63944 0.24765 0.83236 0.0
C1810 C 0.62003 0.25278 0.83852 0.0
H1811 H 0.66743 0.23443 0.84031 0.0
H1812 H 0.64461 0.25124 0.81743 0.0
C1813 C 0.6139 0.24799 0.85805 0.0
C1814 C 0.3586 0.74786 0.87118 0.0
C1815 C 0.33914 0.75282 0.865 0.0
H1816 H 0.38653 0.73422 0.86327 0.0
C1817 C 0.33307 0.74802 0.84547 0.0
H1818 H 0.36365 0.75134 0.88618 0.0
C1819 C 0.34621 0.7386 0.83232 0.0
C1820 C 0.36558 0.73339 0.83853 0.0
H1821 H 0.3182 0.75176 0.84025 0.0
H1822 H 0.34108 0.73514 0.81734 0.0
C1823 C 0.37165 0.73801 0.85812 0.0
C1824 C 0.04928 0.23165 0.24661 0.0
C1825 C 0.04752 0.23692 0.26686 0.0
H1826 H 0.05156 0.24185 0.21642 0.0
C1827 C 0.04416 0.25706 0.2719 0.0
H1828 H 0.05164 0.21622 0.24222 0.0
C1829 C 0.04412 0.27182 0.25704 0.0
C1830 C 0.04743 0.26664 0.23693 0.0
H1831 H 0.04262 0.26156 0.28738 0.0
H1832 H 0.04254 0.28734 0.26142 0.0
C1833 C 0.04924 0.24634 0.23181 0.0
C1834 C 0.72731 0.04511 0.27305 0.0
C1835 C 0.74742 0.04834 0.26787 0.0
H1836 H 0.69697 0.04373 0.2628 0.0
C1837 C 0.75255 0.05014 0.24758 0.0
H1838 H 0.72292 0.04353 0.28856 0.0
C1839 C 0.73776 0.05026 0.23289 0.0
C1840 C 0.71751 0.04856 0.23817 0.0
H1841 H 0.76794 0.05241 0.24309 0.0
H1842 H 0.74215 0.0526 0.21747 0.0
C1843 C 0.71245 0.04522 0.2583 0.0
C1844 C 0.9413 0.71336 0.25757 0.0
C1845 C 0.93806 0.71854 0.23745 0.0
H1846 H 0.9428 0.72365 0.2879 0.0
C1847 C 0.93646 0.73885 0.23226 0.0
H1848 H 0.94272 0.69783 0.262 0.0
C1849 C 0.93651 0.75356 0.24703 0.0
C1850 C 0.93817 0.7483 0.2673 0.0
H1851 H 0.93421 0.74334 0.21686 0.0
H1852 H 0.9343 0.769 0.2426 0.0
C1853 C 0.94135 0.72814 0.2724 0.0
C1854 C 0.25803 0.9415 0.27278 0.0
C1855 C 0.23791 0.93836 0.26756 0.0
H1856 H 0.28836 0.94288 0.26254 0.0
C1857 C 0.23275 0.93684 0.24725 0.0
H1858 H 0.26243 0.94286 0.28831 0.0
C1859 C 0.24753 0.93686 0.23257 0.0
C1860 C 0.26779 0.93839 0.23786 0.0
H1861 H 0.21735 0.93467 0.24274 0.0
H1862 H 0.24312 0.93469 0.21713 0.0
C1863 C 0.27287 0.94151 0.25803 0.0
C1864 C 0.04869 0.73967 0.75441 0.0
C1865 C 0.04686 0.71941 0.74914 0.0
H1866 H 0.05118 0.76985 0.7442 0.0
C1867 C 0.0435 0.71437 0.72901 0.0
H1868 H 0.05104 0.74405 0.76983 0.0
C1869 C 0.04358 0.72923 0.71425 0.0
C1870 C 0.04702 0.74932 0.71942 0.0
H1871 H 0.0419 0.69889 0.72452 0.0
H1872 H 0.04203 0.72484 0.69873 0.0
C1873 C 0.04877 0.75446 0.73971 0.0
C1874 C 0.27309 0.04477 0.72786 0.0
C1875 C 0.26806 0.04802 0.74801 0.0
H1876 H 0.26259 0.04325 0.6976 0.0
C1877 C 0.24782 0.04967 0.75332 0.0
H1878 H 0.28857 0.04331 0.72333 0.0
C1879 C 0.233 0.04964 0.73865 0.0
C1880 C 0.23811 0.04795 0.71835 0.0
H1881 H 0.24344 0.05194 0.76875 0.0
H1882 H 0.21762 0.05188 0.74317 0.0
C1883 C 0.25821 0.04473 0.71312 0.0
C1884 C 0.94133 0.27233 0.72771 0.0
C1885 C 0.93802 0.267 0.74778 0.0
H1886 H 0.94301 0.26224 0.69732 0.0
C1887 C 0.93649 0.24666 0.75283 0.0
H1888 H 0.9427 0.28789 0.72339 0.0
C1889 C 0.93667 0.23204 0.73797 0.0
C1890 C 0.93839 0.23744 0.71774 0.0
H1891 H 0.93419 0.24206 0.76819 0.0
H1892 H 0.9345 0.21656 0.74228 0.0
C1893 C 0.94151 0.25765 0.71279 0.0
C1894 C 0.7121 0.94061 0.72731 0.0
C1895 C 0.71702 0.93742 0.7475 0.0
H1896 H 0.72278 0.94211 0.69712 0.0
C1897 C 0.73723 0.93582 0.75295 0.0
H1898 H 0.69665 0.94203 0.72268 0.0
C1899 C 0.75213 0.93586 0.73838 0.0
C1900 C 0.74714 0.93752 0.71804 0.0
H1901 H 0.74152 0.93359 0.76842 0.0
H1902 H 0.7675 0.93367 0.74301 0.0
C1903 C 0.72706 0.94066 0.71268 0.0
C1904 C 0.25873 0.04512 0.27282 0.0
C1905 C 0.23861 0.04823 0.26756 0.0
H1906 H 0.28909 0.04379 0.26266 0.0
C1907 C 0.23352 0.04988 0.24724 0.0
H1908 H 0.26309 0.04368 0.28835 0.0
C1909 C 0.24834 0.04994 0.23259 0.0
C1910 C 0.26859 0.04836 0.23793 0.0
H1911 H 0.21812 0.05205 0.24269 0.0
H1912 H 0.24397 0.05216 0.21715 0.0
C1913 C 0.27361 0.04519 0.25811 0.0
C1914 C 0.94072 0.27246 0.25746 0.0
C1915 C 0.93737 0.26721 0.23738 0.0
H1916 H 0.94241 0.26228 0.28783 0.0
C1917 C 0.93572 0.24689 0.2323 0.0
H1918 H 0.94218 0.288 0.26181 0.0
C1919 C 0.93586 0.23223 0.24713 0.0
C1920 C 0.93764 0.23756 0.26737 0.0
H1921 H 0.93338 0.24235 0.21692 0.0
H1922 H 0.93361 0.21677 0.24278 0.0
C1923 C 0.94086 0.25774 0.27236 0.0
C1924 C 0.72744 0.94058 0.27291 0.0
C1925 C 0.74756 0.93741 0.2677 0.0
H1926 H 0.69711 0.94203 0.26266 0.0
C1927 C 0.75269 0.93577 0.24741 0.0
H1928 H 0.72305 0.94203 0.28843 0.0
C1929 C 0.7379 0.93578 0.23271 0.0
C1930 C 0.71765 0.93742 0.23799 0.0
H1931 H 0.76809 0.93355 0.2429 0.0
H1932 H 0.7423 0.93356 0.21728 0.0
C1933 C 0.71259 0.94059 0.25815 0.0
C1934 C 0.0487 0.7391 0.23152 0.0
C1935 C 0.04688 0.71884 0.2368 0.0
H1936 H 0.05121 0.76928 0.24171 0.0
C1937 C 0.04358 0.71379 0.25695 0.0
H1938 H 0.05101 0.74349 0.21609 0.0
C1939 C 0.0437 0.72865 0.2717 0.0
C1940 C 0.04711 0.74874 0.2665 0.0
H1941 H 0.04199 0.69831 0.26145 0.0
H1942 H 0.04218 0.72425 0.28722 0.0
C1943 C 0.04882 0.75389 0.24621 0.0
C1944 C 0.23348 0.93683 0.73879 0.0
C1945 C 0.23849 0.93836 0.71845 0.0
H1946 H 0.24406 0.93461 0.76885 0.0
C1947 C 0.25858 0.94139 0.7131 0.0
H1948 H 0.21809 0.93473 0.74341 0.0
C1949 C 0.27354 0.94132 0.72775 0.0
C1950 C 0.26859 0.93821 0.74795 0.0
H1951 H 0.26288 0.94275 0.69754 0.0
H1952 H 0.289 0.94262 0.72313 0.0
C1953 C 0.24837 0.93676 0.75338 0.0
C1954 C 0.04895 0.23177 0.73884 0.0
C1955 C 0.04723 0.23706 0.71858 0.0
H1956 H 0.0512 0.24197 0.76903 0.0
C1957 C 0.04386 0.2572 0.71352 0.0
H1958 H 0.0513 0.21635 0.74324 0.0
C1959 C 0.0438 0.27195 0.72838 0.0
C1960 C 0.04711 0.26676 0.74849 0.0
H1961 H 0.04234 0.2617 0.69803 0.0
H1962 H 0.04224 0.28747 0.72398 0.0
C1963 C 0.04889 0.24646 0.75363 0.0
C1964 C 0.73817 0.05045 0.75237 0.0
C1965 C 0.71792 0.04883 0.74706 0.0
H1966 H 0.76838 0.05254 0.74222 0.0
C1967 C 0.71287 0.04559 0.72691 0.0
H1968 H 0.74256 0.05272 0.7678 0.0
C1969 C 0.72774 0.04549 0.71218 0.0
C1970 C 0.74786 0.04863 0.7174 0.0
H1971 H 0.69739 0.04416 0.72238 0.0
H1972 H 0.72336 0.04399 0.69666 0.0
C1973 C 0.75298 0.05035 0.7377 0.0
C1974 C 0.93682 0.73937 0.75366 0.0
C1975 C 0.93836 0.71906 0.74849 0.0
H1976 H 0.93469 0.76953 0.7433 0.0
C1977 C 0.94156 0.71388 0.72837 0.0
H1978 H 0.9346 0.74386 0.76907 0.0
C1979 C 0.94161 0.72866 0.71353 0.0
C1980 C 0.93847 0.74882 0.71861 0.0
H1981 H 0.94293 0.69835 0.72395 0.0
H1982 H 0.94303 0.72417 0.69803 0.0
C1983 C 0.93688 0.75409 0.73888 0.0
C1984 C 0.23345 0.24744 0.04978 0.0
C1985 C 0.23843 0.26779 0.04817 0.0
H1986 H 0.24407 0.21739 0.05209 0.0
C1987 C 0.25853 0.27317 0.04518 0.0
H1988 H 0.21807 0.2428 0.05186 0.0
C1989 C 0.2735 0.25854 0.04532 0.0
C1990 C 0.26858 0.23833 0.04845 0.0
H1991 H 0.26281 0.28874 0.04377 0.0
H1992 H 0.28896 0.26318 0.044 0.0
C1993 C 0.24836 0.23287 0.04991 0.0
C1994 C 0.2578 0.71305 0.94114 0.0
C1995 C 0.23768 0.71824 0.938 0.0
H1996 H 0.28815 0.7233 0.94238 0.0
C1997 C 0.23253 0.73854 0.93623 0.0
H1998 H 0.26221 0.69753 0.94267 0.0
C1999 C 0.24732 0.75323 0.93606 0.0
C2000 C 0.26758 0.74795 0.93765 0.0
H2001 H 0.21713 0.74304 0.93403 0.0
H2002 H 0.24292 0.76866 0.93374 0.0
C2003 C 0.27266 0.7278 0.94097 0.0
C2004 C 0.25829 0.27308 0.94051 0.0
C2005 C 0.23818 0.26781 0.93744 0.0
H2006 H 0.28866 0.26293 0.94181 0.0
C2007 C 0.23309 0.24748 0.93586 0.0
H2008 H 0.26265 0.28863 0.94191 0.0
C2009 C 0.24792 0.23283 0.93579 0.0
C2010 C 0.26817 0.23819 0.93732 0.0
H2011 H 0.21769 0.24292 0.93372 0.0
H2012 H 0.24356 0.21738 0.93361 0.0
C2013 C 0.27319 0.25837 0.94045 0.0
C2014 C 0.71248 0.2577 0.94086 0.0
C2015 C 0.7175 0.23751 0.93778 0.0
H2016 H 0.72301 0.28797 0.94218 0.0
C2017 C 0.73775 0.23216 0.93625 0.0
H2018 H 0.69701 0.26226 0.94222 0.0
C2019 C 0.75257 0.24681 0.93622 0.0
C2020 C 0.74748 0.26714 0.93773 0.0
H2021 H 0.74211 0.21669 0.93412 0.0
H2022 H 0.76796 0.24225 0.93407 0.0
C2023 C 0.72737 0.27242 0.94084 0.0
C2024 C 0.71191 0.72815 0.94057 0.0
C2025 C 0.7168 0.74836 0.93742 0.0
H2026 H 0.72262 0.69795 0.94196 0.0
C2027 C 0.73701 0.75382 0.93578 0.0
H2028 H 0.69646 0.7235 0.94201 0.0
C2029 C 0.75192 0.73925 0.93575 0.0
C2030 C 0.74695 0.7189 0.93736 0.0
H2031 H 0.74128 0.76931 0.93359 0.0
H2032 H 0.76727 0.7439 0.93353 0.0
C2033 C 0.72688 0.71352 0.94054 0.0
C2034 C 0.72715 0.71318 0.04495 0.0
C2035 C 0.74725 0.71848 0.04809 0.0
H2036 H 0.69677 0.7233 0.04355 0.0
C2037 C 0.75231 0.73881 0.04969 0.0
H2038 H 0.72282 0.69763 0.04354 0.0
C2039 C 0.73746 0.75344 0.04969 0.0
C2040 C 0.71722 0.74806 0.0481 0.0
H2041 H 0.76769 0.74339 0.05187 0.0
H2042 H 0.7418 0.76891 0.05188 0.0
C2043 C 0.71224 0.72787 0.04496 0.0
C2044 C 0.23186 0.73838 0.0496 0.0
C2045 C 0.23708 0.71811 0.04778 0.0
H2046 H 0.24214 0.76853 0.05217 0.0
C2047 C 0.25722 0.71301 0.04461 0.0
H2048 H 0.21644 0.74281 0.05182 0.0
C2049 C 0.27202 0.72782 0.04481 0.0
C2050 C 0.26687 0.74793 0.04819 0.0
H2051 H 0.26168 0.69751 0.04303 0.0
H2052 H 0.28752 0.72338 0.04337 0.0
C2053 C 0.2466 0.75313 0.04981 0.0
C2054 C 0.71183 0.25829 0.04468 0.0
C2055 C 0.71684 0.23809 0.04778 0.0
H2056 H 0.7224 0.28854 0.04322 0.0
C2057 C 0.73709 0.23272 0.0492 0.0
H2058 H 0.69635 0.26286 0.0434 0.0
C2059 C 0.75194 0.24735 0.0491 0.0
C2060 C 0.74686 0.26768 0.04757 0.0
H2061 H 0.74145 0.21725 0.05135 0.0
H2062 H 0.76733 0.24277 0.05118 0.0
C2063 C 0.72674 0.27298 0.04458 0.0
C2064 C 0.5492 0.74582 0.73152 0.0
C2065 C 0.54741 0.76612 0.73664 0.0
H2066 H 0.55149 0.7157 0.74194 0.0
C2067 C 0.54395 0.77131 0.75671 0.0
H2068 H 0.55163 0.74133 0.71614 0.0
C2069 C 0.54387 0.75654 0.77157 0.0
C2070 C 0.54725 0.7364 0.76655 0.0
H2071 H 0.54238 0.78683 0.76109 0.0
H2072 H 0.54224 0.76104 0.78705 0.0
C2073 C 0.54911 0.73112 0.74631 0.0
C2074 C 0.21197 0.54561 0.75785 0.0
C2075 C 0.21691 0.5489 0.73768 0.0
H2076 H 0.22259 0.54402 0.78806 0.0
C2077 C 0.23713 0.55062 0.7323 0.0
H2078 H 0.19651 0.5441 0.76243 0.0
C2079 C 0.252 0.55058 0.74691 0.0
C2080 C 0.24698 0.54881 0.76723 0.0
H2081 H 0.24144 0.55293 0.71685 0.0
H2082 H 0.26737 0.55286 0.74233 0.0
C2083 C 0.2269 0.54557 0.77252 0.0
C2084 C 0.43661 0.23913 0.73193 0.0
C2085 C 0.43823 0.21885 0.7372 0.0
H2086 H 0.43444 0.26932 0.74215 0.0
C2087 C 0.44151 0.21375 0.75733 0.0
H2088 H 0.43433 0.24356 0.71651 0.0
C2089 C 0.44157 0.22858 0.7721 0.0
C2090 C 0.43836 0.24872 0.76693 0.0
H2091 H 0.44295 0.19824 0.76182 0.0
H2092 H 0.44306 0.22416 0.78761 0.0
C2093 C 0.43668 0.25391 0.74664 0.0
C2094 C 0.75805 0.44122 0.77339 0.0
C2095 C 0.73792 0.43817 0.76817 0.0
H2096 H 0.78839 0.44251 0.76315 0.0
C2097 C 0.73276 0.43664 0.74787 0.0
H2098 H 0.76246 0.44258 0.78892 0.0
C2099 C 0.74754 0.43661 0.73318 0.0
C2100 C 0.7678 0.43809 0.73847 0.0
H2101 H 0.71735 0.43453 0.74335 0.0
H2102 H 0.74312 0.43446 0.71774 0.0
C2103 C 0.77289 0.44118 0.75864 0.0
C2104 C 0.54869 0.23947 0.25376 0.0
C2105 C 0.547 0.2192 0.24851 0.0
H2106 H 0.55099 0.26966 0.24353 0.0
C2107 C 0.54372 0.21411 0.22838 0.0
H2108 H 0.55098 0.24388 0.26918 0.0
C2109 C 0.54372 0.22896 0.2136 0.0
C2110 C 0.547 0.24908 0.21876 0.0
H2111 H 0.54223 0.19861 0.2239 0.0
H2112 H 0.54223 0.22455 0.19809 0.0
C2113 C 0.5487 0.25425 0.23905 0.0
C2114 C 0.77297 0.54479 0.22774 0.0
C2115 C 0.76785 0.548 0.24787 0.0
H2116 H 0.76259 0.54324 0.19744 0.0
C2117 C 0.74757 0.54953 0.2531 0.0
H2118 H 0.78847 0.54341 0.22327 0.0
C2119 C 0.73282 0.54943 0.23838 0.0
C2120 C 0.73802 0.54779 0.21809 0.0
H2121 H 0.74313 0.55177 0.26852 0.0
H2122 H 0.7174 0.55159 0.24284 0.0
C2123 C 0.75815 0.54468 0.21295 0.0
C2124 C 0.44081 0.75771 0.21307 0.0
C2125 C 0.43769 0.73754 0.21816 0.0
H2126 H 0.44212 0.78802 0.22349 0.0
C2127 C 0.43604 0.73227 0.23843 0.0
H2128 H 0.44226 0.76221 0.19758 0.0
C2129 C 0.43595 0.74698 0.2532 0.0
C2130 C 0.43752 0.76729 0.24803 0.0
H2131 H 0.43386 0.71682 0.24285 0.0
H2132 H 0.43371 0.74248 0.26861 0.0
C2133 C 0.44072 0.77249 0.22791 0.0
C2134 C 0.22644 0.44126 0.21292 0.0
C2135 C 0.24652 0.43806 0.21826 0.0
H2136 H 0.19605 0.44274 0.22298 0.0
C2137 C 0.25155 0.43648 0.2386 0.0
H2138 H 0.22213 0.44266 0.19737 0.0
C2139 C 0.23668 0.43653 0.25319 0.0
C2140 C 0.21645 0.43815 0.24778 0.0
H2141 H 0.26692 0.43425 0.24321 0.0
H2142 H 0.24099 0.43433 0.26866 0.0
C2143 C 0.21151 0.4413 0.22758 0.0
C2144 C 0.73324 0.54959 0.74751 0.0
C2145 C 0.73839 0.5479 0.76781 0.0
H2146 H 0.74362 0.55198 0.7174 0.0
C2147 C 0.75852 0.5448 0.77301 0.0
H2148 H 0.71784 0.55175 0.743 0.0
C2149 C 0.77337 0.54494 0.75827 0.0
C2150 C 0.76829 0.54818 0.73812 0.0
H2151 H 0.76293 0.54333 0.78853 0.0
H2152 H 0.78886 0.54356 0.76278 0.0
C2153 C 0.74803 0.54972 0.73283 0.0
C2154 C 0.44152 0.77218 0.75736 0.0
C2155 C 0.43829 0.76693 0.73726 0.0
H2156 H 0.44298 0.76199 0.78774 0.0
C2157 C 0.43669 0.74661 0.73216 0.0
H2158 H 0.44294 0.78772 0.76172 0.0
C2159 C 0.43672 0.73194 0.74699 0.0
C2160 C 0.43835 0.73727 0.76724 0.0
H2161 H 0.43444 0.74207 0.71677 0.0
H2162 H 0.43449 0.71649 0.74263 0.0
C2163 C 0.44154 0.75745 0.77226 0.0
C2164 C 0.22712 0.44093 0.77273 0.0
C2165 C 0.2472 0.43782 0.76736 0.0
H2166 H 0.19669 0.4423 0.76274 0.0
C2167 C 0.25218 0.43624 0.74702 0.0
H2168 H 0.22285 0.44233 0.7883 0.0
C2169 C 0.23727 0.43623 0.73245 0.0
C2170 C 0.21705 0.43779 0.7379 0.0
H2171 H 0.26754 0.43407 0.74239 0.0
H2172 H 0.24155 0.43406 0.71698 0.0
C2173 C 0.21215 0.44092 0.7581 0.0
C2174 C 0.54892 0.25425 0.74712 0.0
C2175 C 0.54722 0.24896 0.76737 0.0
H2176 H 0.5512 0.24408 0.71693 0.0
C2177 C 0.54392 0.22881 0.77243 0.0
H2178 H 0.55123 0.26969 0.74272 0.0
C2179 C 0.54391 0.21406 0.75757 0.0
C2180 C 0.54719 0.21926 0.73747 0.0
H2181 H 0.54242 0.22429 0.78792 0.0
H2182 H 0.5424 0.19853 0.76197 0.0
C2183 C 0.54891 0.23957 0.73232 0.0
C2184 C 0.77312 0.44153 0.22747 0.0
C2185 C 0.76804 0.4385 0.24764 0.0
H2186 H 0.76268 0.44273 0.19717 0.0
C2187 C 0.74778 0.43697 0.25293 0.0
H2188 H 0.78861 0.44289 0.22296 0.0
C2189 C 0.733 0.43688 0.23823 0.0
C2190 C 0.73816 0.43831 0.21792 0.0
H2191 H 0.74337 0.43488 0.26838 0.0
H2192 H 0.7176 0.43472 0.24275 0.0
C2193 C 0.75828 0.44143 0.2127 0.0
C2194 C 0.54941 0.74645 0.25369 0.0
C2195 C 0.54766 0.76673 0.24848 0.0
H2196 H 0.55166 0.71628 0.2434 0.0
C2197 C 0.54424 0.77185 0.22837 0.0
H2198 H 0.55181 0.742 0.26909 0.0
C2199 C 0.54415 0.75705 0.21357 0.0
C2200 C 0.54748 0.73691 0.21869 0.0
H2201 H 0.5427 0.78736 0.22392 0.0
H2202 H 0.54254 0.7615 0.19808 0.0
C2203 C 0.54932 0.7317 0.23896 0.0
C2204 C 0.22724 0.54519 0.21294 0.0
C2205 C 0.24735 0.54838 0.21816 0.0
H2206 H 0.19689 0.54381 0.22313 0.0
C2207 C 0.25246 0.55014 0.23846 0.0
H2208 H 0.22287 0.54365 0.19741 0.0
C2209 C 0.23764 0.55024 0.25312 0.0
C2210 C 0.2174 0.54857 0.24781 0.0
H2211 H 0.26785 0.55238 0.24298 0.0
H2212 H 0.24202 0.55255 0.26855 0.0
C2213 C 0.21237 0.54528 0.22766 0.0
C2214 C 0.43663 0.24001 0.25421 0.0
C2215 C 0.43831 0.21974 0.24895 0.0
H2216 H 0.43443 0.27021 0.24399 0.0
C2217 C 0.44171 0.21467 0.22883 0.0
H2218 H 0.43426 0.24441 0.26962 0.0
C2219 C 0.44181 0.22953 0.21407 0.0
C2220 C 0.43851 0.24965 0.21923 0.0
H2221 H 0.4432 0.19917 0.22435 0.0
H2222 H 0.44338 0.22513 0.19856 0.0
C2223 C 0.43673 0.2548 0.23951 0.0
C2224 C 0.74847 0.73226 0.54916 0.0
C2225 C 0.76872 0.73761 0.54763 0.0
H2226 H 0.71826 0.74235 0.55133 0.0
C2227 C 0.77374 0.7578 0.54454 0.0
H2228 H 0.7441 0.7168 0.5513 0.0
C2229 C 0.75885 0.77252 0.54455 0.0
C2230 C 0.73874 0.76725 0.54766 0.0
H2231 H 0.78922 0.76236 0.54318 0.0
H2232 H 0.76321 0.78807 0.54321 0.0
C2233 C 0.73365 0.74692 0.54917 0.0
C2234 C 0.74695 0.25362 0.43595 0.0
C2235 C 0.76722 0.24838 0.43757 0.0
H2236 H 0.71678 0.24336 0.43387 0.0
C2237 C 0.77233 0.22824 0.44086 0.0
H2238 H 0.74251 0.26904 0.43365 0.0
C2239 C 0.75751 0.21345 0.44099 0.0
C2240 C 0.73738 0.2186 0.43783 0.0
H2241 H 0.78783 0.22377 0.44229 0.0
H2242 H 0.76195 0.19794 0.44251 0.0
C2243 C 0.7322 0.23889 0.43609 0.0
C2244 C 0.77299 0.75789 0.44129 0.0
C2245 C 0.76794 0.73772 0.43808 0.0
H2246 H 0.76251 0.78816 0.44281 0.0
C2247 C 0.74768 0.73241 0.43651 0.0
H2248 H 0.78847 0.76241 0.44269 0.0
C2249 C 0.73288 0.74709 0.43658 0.0
C2250 C 0.73801 0.7674 0.43821 0.0
H2251 H 0.7433 0.71697 0.43427 0.0
H2252 H 0.71748 0.74256 0.43438 0.0
C2253 C 0.75812 0.77263 0.44136 0.0
C2254 C 0.21231 0.75858 0.44045 0.0
C2255 C 0.21731 0.73838 0.43735 0.0
H2256 H 0.22288 0.78882 0.44195 0.0
C2257 C 0.23756 0.73301 0.4359 0.0
H2258 H 0.19683 0.76315 0.44175 0.0
C2259 C 0.25241 0.74764 0.43602 0.0
C2260 C 0.24734 0.76797 0.43759 0.0
H2261 H 0.24191 0.71755 0.43374 0.0
H2262 H 0.26781 0.74306 0.43394 0.0
C2263 C 0.22722 0.77327 0.44057 0.0
C2264 C 0.25194 0.23947 0.43599 0.0
C2265 C 0.24688 0.21914 0.43763 0.0
H2266 H 0.24144 0.26957 0.43382 0.0
C2267 C 0.2268 0.21386 0.44088 0.0
H2268 H 0.26732 0.24403 0.43372 0.0
C2269 C 0.21189 0.22856 0.44093 0.0
C2270 C 0.21688 0.24875 0.43774 0.0
H2271 H 0.22246 0.19831 0.44233 0.0
H2272 H 0.19643 0.22399 0.44242 0.0
C2273 C 0.2371 0.25411 0.43605 0.0
C2274 C 0.23752 0.25373 0.54987 0.0
C2275 C 0.21728 0.24842 0.54821 0.0
H2276 H 0.26772 0.24357 0.55213 0.0
C2277 C 0.21224 0.22824 0.54504 0.0
H2278 H 0.2419 0.26917 0.55208 0.0
C2279 C 0.2271 0.2135 0.54507 0.0
C2280 C 0.24721 0.21873 0.54827 0.0
H2281 H 0.19676 0.22371 0.54358 0.0
H2282 H 0.22272 0.19796 0.54363 0.0
C2283 C 0.25232 0.23904 0.5499 0.0
C2284 C 0.77229 0.22852 0.54476 0.0
C2285 C 0.76721 0.24866 0.54809 0.0
H2286 H 0.76187 0.19824 0.54308 0.0
C2287 C 0.74695 0.25392 0.54972 0.0
H2288 H 0.78779 0.22404 0.54331 0.0
C2289 C 0.73217 0.23921 0.54959 0.0
C2290 C 0.73734 0.21892 0.54782 0.0
H2291 H 0.74253 0.26933 0.55205 0.0
H2292 H 0.71677 0.24369 0.55182 0.0
C2293 C 0.75746 0.21375 0.54462 0.0
C2294 C 0.22656 0.77336 0.54529 0.0
C2295 C 0.24665 0.76797 0.54836 0.0
H2296 H 0.19615 0.76336 0.54387 0.0
C2297 C 0.25164 0.74762 0.54983 0.0
H2298 H 0.22228 0.78894 0.54398 0.0
C2299 C 0.23674 0.73303 0.54976 0.0
C2300 C 0.21652 0.73849 0.54823 0.0
H2301 H 0.26701 0.74297 0.55196 0.0
H2302 H 0.24104 0.71754 0.55184 0.0
C2303 C 0.2116 0.75872 0.54523 0.0
C2304 C 0.00304 0.1564 0.32806 0.0
C2305 C 0.01371 0.17131 0.33832 0.0
H2306 H 0.97435 0.14618 0.31842 0.0
C2307 C 0.00331 0.18415 0.35131 0.0
H2308 H 0.01067 0.146 0.31826 0.0
C2309 C 0.98241 0.18426 0.35139 0.0
C2310 C 0.97176 0.17153 0.3385 0.0
H2311 H 0.01114 0.19559 0.35968 0.0
H2312 H 0.97477 0.19579 0.35983 0.0
C2313 C 0.98218 0.15651 0.32815 0.0
C2314 C 0.8286 0.98245 0.3281 0.0
C2315 C 0.81371 0.97184 0.33844 0.0
H2316 H 0.83888 0.01111 0.31837 0.0
C2317 C 0.80095 0.98232 0.35145 0.0
H2318 H 0.83893 0.97475 0.31828 0.0
C2319 C 0.80092 0.00324 0.3515 0.0
C2320 C 0.81365 0.01383 0.33855 0.0
H2321 H 0.78952 0.97453 0.35988 0.0
H2322 H 0.78946 0.01094 0.35996 0.0
C2323 C 0.82857 0.00333 0.32815 0.0
C2324 C 0.98247 0.82966 0.32774 0.0
C2325 C 0.97205 0.81467 0.33815 0.0
H2326 H 0.01096 0.84009 0.31774 0.0
C2327 C 0.98271 0.80197 0.35108 0.0
H2328 H 0.97463 0.83997 0.31799 0.0
C2329 C 0.0036 0.80204 0.35095 0.0
C2330 C 0.01399 0.81482 0.33787 0.0
H2331 H 0.97506 0.79047 0.35956 0.0
H2332 H 0.01143 0.79059 0.35933 0.0
C2333 C 0.00333 0.82973 0.3276 0.0
C2334 C 0.157 0.00337 0.32787 0.0
C2335 C 0.17198 0.01386 0.33821 0.0
H2336 H 0.14651 0.9748 0.31814 0.0
C2337 C 0.18464 0.00328 0.35124 0.0
H2338 H 0.14673 0.01116 0.31804 0.0
C2339 C 0.18451 0.98237 0.35131 0.0
C2340 C 0.17173 0.97188 0.33833 0.0
H2341 H 0.19613 0.01098 0.35968 0.0
H2342 H 0.19592 0.97458 0.35978 0.0
C2343 C 0.15687 0.9825 0.32793 0.0
C2344 C 0.00327 0.83048 0.65863 0.0
C2345 C 0.01393 0.81569 0.64821 0.0
H2346 H 0.97458 0.8406 0.66835 0.0
C2347 C 0.00354 0.80306 0.635 0.0
H2348 H 0.01091 0.84073 0.66859 0.0
C2349 C 0.98264 0.80298 0.63486 0.0
C2350 C 0.97199 0.81553 0.64793 0.0
H2351 H 0.01137 0.79172 0.62649 0.0
H2352 H 0.975 0.79158 0.62625 0.0
C2353 C 0.98242 0.83041 0.65849 0.0
C2354 C 0.18425 0.0034 0.63468 0.0
C2355 C 0.17159 0.01397 0.6477 0.0
H2356 H 0.19567 0.97472 0.62629 0.0
C2357 C 0.15672 0.00344 0.65816 0.0
H2358 H 0.19565 0.01112 0.62615 0.0
C2359 C 0.15673 0.98257 0.65824 0.0
C2360 C 0.17161 0.97199 0.64786 0.0
H2361 H 0.14645 0.01121 0.66799 0.0
H2362 H 0.14647 0.97486 0.66813 0.0
C2363 C 0.18425 0.98249 0.63476 0.0
C2364 C 0.98287 0.18442 0.63353 0.0
C2365 C 0.97221 0.17158 0.64632 0.0
H2366 H 0.0116 0.19589 0.62544 0.0
C2367 C 0.98263 0.15648 0.65658 0.0
H2368 H 0.97523 0.19601 0.62516 0.0
C2369 C 0.00348 0.15642 0.65675 0.0
C2370 C 0.01415 0.17145 0.64666 0.0
H2371 H 0.97479 0.14607 0.66622 0.0
H2372 H 0.01111 0.14596 0.66651 0.0
C2373 C 0.00377 0.18435 0.6337 0.0
C2374 C 0.8012 0.00322 0.63417 0.0
C2375 C 0.81399 0.01382 0.64705 0.0
H2376 H 0.78963 0.97454 0.62598 0.0
C2377 C 0.82885 0.00329 0.65753 0.0
H2378 H 0.78979 0.01095 0.62565 0.0
C2379 C 0.82875 0.98241 0.65773 0.0
C2380 C 0.8138 0.97183 0.64745 0.0
H2381 H 0.83921 0.01107 0.66726 0.0
H2382 H 0.83904 0.97471 0.66761 0.0
C2383 C 0.80111 0.98231 0.63436 0.0
C2384 C 0.32918 0.98248 0.15719 0.0
C2385 C 0.33929 0.97184 0.17222 0.0
H2386 H 0.3197 0.01117 0.14676 0.0
C2387 C 0.35218 0.98227 0.18514 0.0
H2388 H 0.31946 0.97481 0.14673 0.0
C2389 C 0.35231 0.00319 0.18517 0.0
C2390 C 0.33956 0.01383 0.17227 0.0
H2391 H 0.36043 0.97445 0.19669 0.0
H2392 H 0.36066 0.01086 0.19674 0.0
C2393 C 0.32932 0.00336 0.15721 0.0
C2394 C 0.98175 0.32697 0.15588 0.0
C2395 C 0.97126 0.33753 0.1707 0.0
H2396 H 0.01029 0.31697 0.14561 0.0
C2397 C 0.98185 0.35062 0.18328 0.0
H2398 H 0.97396 0.31708 0.14567 0.0
C2399 C 0.00275 0.35056 0.18325 0.0
C2400 C 0.01321 0.33741 0.17063 0.0
H2401 H 0.97416 0.35921 0.19465 0.0
H2402 H 0.01053 0.35911 0.19459 0.0
C2403 C 0.0026 0.32691 0.15584 0.0
C2404 C 0.6568 0.98277 0.15745 0.0
C2405 C 0.64657 0.97217 0.17244 0.0
H2406 H 0.66645 0.01142 0.14708 0.0
C2407 C 0.63372 0.98266 0.18533 0.0
H2408 H 0.6665 0.97506 0.14702 0.0
C2409 C 0.63369 0.00358 0.18536 0.0
C2410 C 0.64652 0.01416 0.1725 0.0
H2411 H 0.6254 0.97488 0.19685 0.0
H2412 H 0.62535 0.01129 0.19691 0.0
C2413 C 0.65677 0.00365 0.15749 0.0
C2414 C 0.00274 0.65748 0.15605 0.0
C2415 C 0.0133 0.64722 0.17105 0.0
H2416 H 0.97414 0.66727 0.14573 0.0
C2417 C 0.00279 0.63431 0.18389 0.0
H2418 H 0.01047 0.6672 0.14564 0.0
C2419 C 0.9819 0.63434 0.18394 0.0
C2420 C 0.97137 0.6473 0.17115 0.0
H2421 H 0.01055 0.62594 0.1954 0.0
H2422 H 0.97418 0.626 0.19548 0.0
C2423 C 0.98189 0.65752 0.1561 0.0
C2424 C 0.32958 0.98245 0.82859 0.0
C2425 C 0.33982 0.97196 0.81355 0.0
H2426 H 0.31974 0.01101 0.83903 0.0
C2427 C 0.35259 0.98258 0.80066 0.0
H2428 H 0.31995 0.97465 0.83903 0.0
C2429 C 0.35247 0.0035 0.80066 0.0
C2430 C 0.33958 0.01395 0.81356 0.0
H2431 H 0.36093 0.97489 0.78911 0.0
H2432 H 0.36073 0.01129 0.78911 0.0
C2433 C 0.32946 0.00333 0.8286 0.0
C2434 C 0.00277 0.32707 0.82962 0.0
C2435 C 0.01333 0.33758 0.8148 0.0
H2436 H 0.97417 0.31711 0.83976 0.0
C2437 C 0.00282 0.35068 0.80215 0.0
H2438 H 0.0105 0.31719 0.83988 0.0
C2439 C 0.98192 0.35063 0.80208 0.0
C2440 C 0.97139 0.33749 0.81467 0.0
H2441 H 0.01057 0.35924 0.79078 0.0
H2442 H 0.9742 0.35916 0.79067 0.0
C2443 C 0.98191 0.32703 0.82955 0.0
C2444 C 0.65635 0.00373 0.82754 0.0
C2445 C 0.64637 0.01436 0.81241 0.0
H2446 H 0.66562 0.97504 0.83816 0.0
C2447 C 0.63354 0.00393 0.79943 0.0
H2448 H 0.66602 0.0114 0.83804 0.0
C2449 C 0.63332 0.98301 0.79949 0.0
C2450 C 0.64592 0.97237 0.81254 0.0
H2451 H 0.6254 0.01173 0.78779 0.0
H2452 H 0.62502 0.97532 0.7879 0.0
C2453 C 0.65612 0.98286 0.82762 0.0
C2454 C 0.98203 0.63498 0.80242 0.0
C2455 C 0.97151 0.64804 0.81508 0.0
H2456 H 0.01066 0.62646 0.79103 0.0
C2457 C 0.98205 0.65841 0.83002 0.0
H2458 H 0.97429 0.62652 0.79098 0.0
C2459 C 0.00291 0.65837 0.83005 0.0
C2460 C 0.01345 0.64797 0.81516 0.0
H2461 H 0.97431 0.66826 0.84029 0.0
H2462 H 0.01064 0.6682 0.84036 0.0
C2463 C 0.00292 0.63494 0.80246 0.0
C2464 C 0.18443 0.3512 0.00305 0.0
C2465 C 0.17171 0.33817 0.01355 0.0
H2466 H 0.19586 0.35975 0.97443 0.0
C2467 C 0.1568 0.32781 0.00297 0.0
H2468 H 0.19587 0.35964 0.01082 0.0
C2469 C 0.15679 0.32788 0.9821 0.0
C2470 C 0.17169 0.3383 0.97158 0.0
H2471 H 0.14649 0.31798 0.01068 0.0
H2472 H 0.14647 0.31809 0.97434 0.0
C2473 C 0.18442 0.35127 0.98214 0.0
C2474 C 0.15627 0.65726 0.98231 0.0
C2475 C 0.17129 0.64702 0.97179 0.0
H2476 H 0.1458 0.66692 0.0109 0.0
C2477 C 0.18403 0.63403 0.98233 0.0
H2478 H 0.14594 0.66705 0.97456 0.0
C2479 C 0.18395 0.63395 0.00324 0.0
C2480 C 0.17113 0.64686 0.01376 0.0
H2481 H 0.19555 0.62566 0.97461 0.0
H2482 H 0.19542 0.62553 0.011 0.0
C2483 C 0.15619 0.65718 0.00318 0.0
C2484 C 0.35235 0.18591 0.00316 0.0
C2485 C 0.33963 0.17298 0.01379 0.0
H2486 H 0.36051 0.19742 0.97445 0.0
C2487 C 0.32941 0.1579 0.00331 0.0
H2488 H 0.36066 0.1975 0.01085 0.0
C2489 C 0.32932 0.15785 0.98244 0.0
C2490 C 0.33944 0.17288 0.97181 0.0
H2491 H 0.31981 0.14744 0.01112 0.0
H2492 H 0.31964 0.14736 0.97477 0.0
C2493 C 0.35226 0.18586 0.98226 0.0
C2494 C 0.82878 0.32736 0.98214 0.0
C2495 C 0.81397 0.3378 0.97149 0.0
H2496 H 0.83893 0.31757 0.01082 0.0
C2497 C 0.8013 0.35092 0.98193 0.0
H2498 H 0.83906 0.31746 0.97448 0.0
C2499 C 0.80122 0.35099 0.00283 0.0
C2500 C 0.81382 0.33793 0.01346 0.0
H2501 H 0.78994 0.35943 0.97411 0.0
H2502 H 0.7898 0.35953 0.0105 0.0
C2503 C 0.8287 0.32743 0.00301 0.0
C2504 C 0.63279 0.80039 0.00346 0.0
C2505 C 0.64555 0.81341 0.01394 0.0
H2506 H 0.62443 0.78879 0.97484 0.0
C2507 C 0.65554 0.82856 0.00334 0.0
H2508 H 0.62464 0.78875 0.01124 0.0
C2509 C 0.65542 0.82859 0.98248 0.0
C2510 C 0.64531 0.81347 0.97196 0.0
H2511 H 0.66515 0.83909 0.01105 0.0
H2512 H 0.66495 0.83914 0.9747 0.0
C2513 C 0.63267 0.80042 0.98255 0.0
C2514 C 0.82866 0.65899 0.00314 0.0
C2515 C 0.81387 0.64841 0.01366 0.0
H2516 H 0.83883 0.66906 0.97457 0.0
C2517 C 0.80124 0.63536 0.00308 0.0
H2518 H 0.8389 0.66885 0.01091 0.0
C2519 C 0.8012 0.63547 0.98217 0.0
C2520 C 0.81379 0.64865 0.97169 0.0
H2521 H 0.78989 0.62675 0.0108 0.0
H2522 H 0.78982 0.62695 0.9744 0.0
C2523 C 0.82862 0.65911 0.98227 0.0
C2524 C 0.32735 0.82875 0.00354 0.0
C2525 C 0.33773 0.81388 0.01417 0.0
H2526 H 0.31771 0.83906 0.97487 0.0
C2527 C 0.35081 0.80117 0.00373 0.0
H2528 H 0.31747 0.83904 0.01121 0.0
C2529 C 0.35094 0.80117 0.98282 0.0
C2530 C 0.338 0.81389 0.97219 0.0
H2531 H 0.35925 0.78975 0.01153 0.0
H2532 H 0.35949 0.78975 0.97514 0.0
C2533 C 0.32749 0.82876 0.98267 0.0
C2534 C 0.65648 0.15698 0.98252 0.0
C2535 C 0.64622 0.1719 0.97185 0.0
H2536 H 0.6661 0.14672 0.01122 0.0
C2537 C 0.63325 0.18475 0.98226 0.0
H2538 H 0.66627 0.14658 0.97488 0.0
C2539 C 0.63315 0.18483 0.00317 0.0
C2540 C 0.64603 0.17207 0.01382 0.0
H2541 H 0.62489 0.19621 0.97442 0.0
H2542 H 0.62472 0.19636 0.01082 0.0
C2543 C 0.65638 0.15706 0.00339 0.0
C2544 C 0.48242 0.68352 0.85131 0.0
C2545 C 0.47178 0.67088 0.83832 0.0
H2546 H 0.51115 0.6948 0.85967 0.0
C2547 C 0.4822 0.6559 0.8279 0.0
H2548 H 0.47478 0.69501 0.8598 0.0
C2549 C 0.50305 0.65579 0.82783 0.0
C2550 C 0.51372 0.67065 0.83817 0.0
H2551 H 0.47436 0.64565 0.81811 0.0
H2552 H 0.51069 0.64545 0.81797 0.0
C2553 C 0.50332 0.6834 0.85124 0.0
C2554 C 0.32852 0.50363 0.82705 0.0
C2555 C 0.31365 0.51412 0.83753 0.0
H2556 H 0.33888 0.47505 0.81718 0.0
C2557 C 0.30105 0.50353 0.8506 0.0
H2558 H 0.33874 0.51141 0.81717 0.0
C2559 C 0.30113 0.48262 0.85061 0.0
C2560 C 0.31382 0.47213 0.83755 0.0
H2561 H 0.28964 0.51124 0.85913 0.0
H2562 H 0.28978 0.47483 0.85915 0.0
C2563 C 0.3286 0.48275 0.82706 0.0
C2564 C 0.50319 0.32996 0.82815 0.0
C2565 C 0.51368 0.31498 0.83853 0.0
H2566 H 0.47466 0.34029 0.81818 0.0
C2567 C 0.50309 0.30222 0.85144 0.0
H2568 H 0.51098 0.34031 0.81841 0.0
C2569 C 0.48219 0.30222 0.85132 0.0
C2570 C 0.47174 0.31497 0.83827 0.0
H2571 H 0.51078 0.29074 0.85991 0.0
H2572 H 0.47441 0.29073 0.85969 0.0
C2573 C 0.48234 0.32995 0.82802 0.0
C2574 C 0.65685 0.48265 0.82878 0.0
C2575 C 0.6718 0.47205 0.83907 0.0
H2576 H 0.64661 0.51129 0.81894 0.0
C2577 C 0.68466 0.48256 0.85196 0.0
H2578 H 0.64643 0.47493 0.81907 0.0
C2579 C 0.68476 0.50348 0.85188 0.0
C2580 C 0.672 0.51403 0.83892 0.0
H2581 H 0.69613 0.47479 0.86035 0.0
H2582 H 0.69631 0.51119 0.86022 0.0
C2583 C 0.65695 0.50352 0.82871 0.0
C2584 C 0.48228 0.33089 0.15876 0.0
C2585 C 0.47165 0.31615 0.14821 0.0
H2586 H 0.51094 0.34094 0.16866 0.0
C2587 C 0.48209 0.30359 0.13498 0.0
H2588 H 0.47462 0.34109 0.16874 0.0
C2589 C 0.50299 0.30351 0.13494 0.0
C2590 C 0.5136 0.31598 0.14812 0.0
H2591 H 0.47429 0.2923 0.12638 0.0
H2592 H 0.51066 0.29214 0.12631 0.0
C2593 C 0.50314 0.33081 0.15871 0.0
C2594 C 0.68436 0.48238 0.13415 0.0
C2595 C 0.67166 0.47185 0.14718 0.0
H2596 H 0.69581 0.51103 0.12567 0.0
C2597 C 0.65676 0.48241 0.15755 0.0
H2598 H 0.69579 0.47462 0.12569 0.0
C2599 C 0.65677 0.50329 0.15754 0.0
C2600 C 0.67169 0.51383 0.14715 0.0
H2601 H 0.64646 0.47468 0.16738 0.0
H2602 H 0.64648 0.51103 0.16736 0.0
C2603 C 0.68437 0.50329 0.13414 0.0
C2604 C 0.50325 0.68402 0.1343 0.0
C2605 C 0.51369 0.67115 0.14725 0.0
H2606 H 0.47469 0.69567 0.12585 0.0
C2607 C 0.50305 0.6562 0.15749 0.0
H2608 H 0.51106 0.6955 0.12595 0.0
C2609 C 0.48219 0.65629 0.15743 0.0
C2610 C 0.47174 0.67134 0.14713 0.0
H2611 H 0.51072 0.64577 0.16726 0.0
H2612 H 0.47439 0.64593 0.16715 0.0
C2613 C 0.48235 0.68411 0.13424 0.0
C2614 C 0.30063 0.48229 0.13463 0.0
C2615 C 0.31329 0.47173 0.14769 0.0
H2616 H 0.28934 0.51098 0.12606 0.0
C2617 C 0.32825 0.48224 0.15804 0.0
H2618 H 0.28916 0.47457 0.1262 0.0
C2619 C 0.32835 0.50312 0.15796 0.0
C2620 C 0.3135 0.51371 0.14754 0.0
H2621 H 0.33852 0.47448 0.16789 0.0
H2622 H 0.3387 0.51084 0.16776 0.0
C2623 C 0.30074 0.5032 0.13456 0.0
C2624 C 0.82906 0.50347 0.6575 0.0
C2625 C 0.8393 0.51401 0.67252 0.0
H2626 H 0.81924 0.47488 0.64713 0.0
C2627 C 0.85207 0.50343 0.68545 0.0
H2628 H 0.81944 0.51124 0.64703 0.0
C2629 C 0.85196 0.48252 0.68551 0.0
C2630 C 0.83908 0.47202 0.67264 0.0
H2631 H 0.8604 0.51117 0.69699 0.0
H2632 H 0.86022 0.47476 0.6971 0.0
C2633 C 0.82895 0.4826 0.65756 0.0
C2634 C 0.50336 0.82642 0.65549 0.0
C2635 C 0.51399 0.83699 0.67022 0.0
H2636 H 0.47471 0.81655 0.6454 0.0
C2637 C 0.50355 0.85023 0.68276 0.0
H2638 H 0.51103 0.81642 0.64532 0.0
C2639 C 0.48265 0.85031 0.6828 0.0
C2640 C 0.47204 0.83715 0.67032 0.0
H2641 H 0.51135 0.85884 0.69405 0.0
H2642 H 0.47498 0.85898 0.69413 0.0
C2643 C 0.4825 0.8265 0.65554 0.0
C2644 C 0.15558 0.50358 0.65748 0.0
C2645 C 0.14547 0.51415 0.67256 0.0
H2646 H 0.16521 0.47496 0.64703 0.0
C2647 C 0.13276 0.50362 0.68557 0.0
H2648 H 0.16517 0.51132 0.64696 0.0
C2649 C 0.13278 0.4827 0.68561 0.0
C2650 C 0.14552 0.47216 0.67264 0.0
H2651 H 0.12452 0.51137 0.69716 0.0
H2652 H 0.12456 0.47496 0.69723 0.0
C2653 C 0.1556 0.48271 0.65752 0.0
C2654 C 0.48236 0.13488 0.68389 0.0
C2655 C 0.47179 0.14782 0.67112 0.0
H2656 H 0.51102 0.1266 0.69541 0.0
C2657 C 0.48229 0.1582 0.65617 0.0
H2658 H 0.47465 0.12642 0.69535 0.0
C2659 C 0.50315 0.1583 0.6562 0.0
C2660 C 0.51373 0.14803 0.67118 0.0
H2661 H 0.47452 0.16795 0.64582 0.0
H2662 H 0.51085 0.16814 0.64587 0.0
C2663 C 0.50326 0.13498 0.68392 0.0
C2664 C 0.85202 0.48284 0.3009 0.0
C2665 C 0.83916 0.47225 0.31372 0.0
H2666 H 0.8603 0.51154 0.28941 0.0
C2667 C 0.82891 0.48275 0.32875 0.0
H2668 H 0.86037 0.47513 0.28936 0.0
C2669 C 0.82887 0.50363 0.32878 0.0
C2670 C 0.83907 0.51423 0.31378 0.0
H2671 H 0.81922 0.47497 0.33914 0.0
H2672 H 0.81914 0.51132 0.33919 0.0
C2673 C 0.85198 0.50376 0.30093 0.0
C2674 C 0.50331 0.8275 0.32922 0.0
C2675 C 0.51388 0.83784 0.3143 0.0
H2676 H 0.4747 0.81774 0.33953 0.0
C2677 C 0.50338 0.85082 0.30151 0.0
H2678 H 0.51103 0.8177 0.33958 0.0
C2679 C 0.48249 0.85085 0.30148 0.0
C2680 C 0.47193 0.83789 0.31424 0.0
H2681 H 0.51114 0.85925 0.29005 0.0
H2682 H 0.47477 0.85929 0.29 0.0
C2683 C 0.48245 0.82752 0.32919 0.0
C2684 C 0.13259 0.48306 0.30019 0.0
C2685 C 0.14523 0.47239 0.31317 0.0
H2686 H 0.12464 0.5118 0.28857 0.0
C2687 C 0.15544 0.48284 0.32827 0.0
H2688 H 0.12428 0.47539 0.28858 0.0
C2689 C 0.15566 0.50371 0.32826 0.0
C2690 C 0.14567 0.51437 0.31315 0.0
H2691 H 0.16497 0.475 0.33878 0.0
H2692 H 0.16535 0.51136 0.33876 0.0
C2693 C 0.1328 0.50397 0.30018 0.0
C2694 C 0.50272 0.13519 0.30226 0.0
C2695 C 0.51332 0.14823 0.31488 0.0
H2696 H 0.47404 0.12677 0.29092 0.0
C2697 C 0.50285 0.15869 0.32979 0.0
H2698 H 0.5104 0.12666 0.29083 0.0
C2699 C 0.482 0.15876 0.32985 0.0
C2700 C 0.47138 0.14836 0.31499 0.0
H2701 H 0.51065 0.16853 0.34004 0.0
H2702 H 0.47432 0.16865 0.34013 0.0
C2703 C 0.48183 0.13525 0.30232 0.0
C2704 C 0.65691 0.82773 0.48272 0.0
C2705 C 0.67176 0.83815 0.47213 0.0
H2706 H 0.64677 0.81779 0.51134 0.0
C2707 C 0.68453 0.85114 0.48264 0.0
H2708 H 0.64657 0.81793 0.475 0.0
C2709 C 0.68464 0.85105 0.50355 0.0
C2710 C 0.67199 0.83799 0.5141 0.0
H2711 H 0.69592 0.85963 0.47487 0.0
H2712 H 0.69612 0.85949 0.51126 0.0
C2713 C 0.65703 0.82764 0.50359 0.0
C2714 C 0.65617 0.1582 0.48253 0.0
C2715 C 0.67106 0.14777 0.47202 0.0
H2716 H 0.64588 0.16811 0.5111 0.0
C2717 C 0.68374 0.13475 0.48259 0.0
H2718 H 0.64588 0.16802 0.47476 0.0
C2719 C 0.68374 0.1348 0.50349 0.0
C2720 C 0.67105 0.14786 0.51398 0.0
H2721 H 0.69517 0.12625 0.47487 0.0
H2722 H 0.69516 0.12633 0.51126 0.0
C2723 C 0.65616 0.15825 0.5034 0.0
C2724 C 0.82929 0.65677 0.50317 0.0
C2725 C 0.83965 0.67174 0.51367 0.0
H2726 H 0.81933 0.64646 0.47461 0.0
C2727 C 0.8525 0.68457 0.50307 0.0
H2728 H 0.8196 0.64638 0.51096 0.0
C2729 C 0.85234 0.68461 0.48217 0.0
C2730 C 0.83935 0.67182 0.4717 0.0
H2731 H 0.86093 0.69605 0.51078 0.0
H2732 H 0.86067 0.69613 0.47439 0.0
C2733 C 0.82914 0.65682 0.4823 0.0
C2734 C 0.32855 0.82791 0.4829 0.0
C2735 C 0.3137 0.83834 0.4723 0.0
H2736 H 0.33873 0.81801 0.51153 0.0
C2737 C 0.30093 0.85131 0.4828 0.0
H2738 H 0.33889 0.81811 0.47519 0.0
C2739 C 0.30084 0.85126 0.5037 0.0
C2740 C 0.31351 0.83822 0.51427 0.0
H2741 H 0.28953 0.8598 0.47501 0.0
H2742 H 0.28937 0.8597 0.51141 0.0
C2743 C 0.32846 0.82785 0.50377 0.0
C2744 C 0.15567 0.32919 0.48248 0.0
C2745 C 0.1455 0.31412 0.47195 0.0
H2746 H 0.16546 0.33961 0.51105 0.0
C2747 C 0.13279 0.30113 0.48253 0.0
H2748 H 0.16525 0.3397 0.47471 0.0
C2749 C 0.13291 0.30108 0.50344 0.0
C2750 C 0.14574 0.31402 0.51392 0.0
H2751 H 0.1245 0.28955 0.47481 0.0
H2752 H 0.1247 0.28947 0.5112 0.0
C2753 C 0.15579 0.32914 0.50335 0.0
C2754 C 0.32836 0.15898 0.50315 0.0
C2755 C 0.31356 0.14844 0.5137 0.0
H2756 H 0.33854 0.16899 0.47457 0.0
C2757 C 0.30089 0.13541 0.50314 0.0
H2758 H 0.33863 0.16883 0.51091 0.0
C2759 C 0.30084 0.1355 0.48224 0.0
C2760 C 0.31346 0.14863 0.47173 0.0
H2761 H 0.28953 0.12684 0.51088 0.0
H2762 H 0.28944 0.127 0.47448 0.0
C2763 C 0.32831 0.15908 0.48229 0.0
C2764 C 0.85087 0.30183 0.48241 0.0
C2765 C 0.83783 0.3145 0.47185 0.0
H2766 H 0.8594 0.29048 0.51108 0.0
C2767 C 0.82738 0.32938 0.48237 0.0
H2768 H 0.85937 0.29041 0.47469 0.0
C2769 C 0.8274 0.32942 0.50324 0.0
C2770 C 0.83786 0.31458 0.51382 0.0
H2771 H 0.81753 0.33965 0.47461 0.0
H2772 H 0.81756 0.33972 0.51095 0.0
C2773 C 0.85089 0.30187 0.50332 0.0
C2774 C 0.15543 0.65802 0.50308 0.0
C2775 C 0.14531 0.67317 0.51353 0.0
H2776 H 0.16523 0.64745 0.47458 0.0
C2777 C 0.13271 0.6862 0.50287 0.0
H2778 H 0.16493 0.64747 0.51092 0.0
C2779 C 0.13288 0.68618 0.48197 0.0
C2780 C 0.14565 0.67313 0.47156 0.0
H2781 H 0.12446 0.69785 0.51053 0.0
H2782 H 0.12475 0.69782 0.47414 0.0
C2783 C 0.15561 0.658 0.48222 0.0
C2784 C 0.13451 0.11913 0.30558 0.0
C2785 C 0.14542 0.11517 0.28805 0.0
H2786 H 0.11232 0.13766 0.31956 0.0
C2787 C 0.13993 0.12481 0.27022 0.0
H2788 H 0.13839 0.11185 0.31953 0.0
C2789 C 0.12516 0.13944 0.27023 0.0
C2790 C 0.11551 0.14479 0.28808 0.0
H2791 H 0.1478 0.12181 0.25637 0.0
H2792 H 0.12205 0.14731 0.2564 0.0
C2793 C 0.11961 0.13388 0.3056 0.0
C2794 C 0.86041 0.13982 0.27089 0.0
C2795 C 0.87001 0.1453 0.28874 0.0
H2796 H 0.83785 0.12205 0.25706 0.0
C2797 C 0.86592 0.13446 0.3063 0.0
H2798 H 0.86352 0.14763 0.25703 0.0
C2799 C 0.85106 0.11965 0.30632 0.0
C2800 C 0.8402 0.11557 0.28877 0.0
H2801 H 0.87317 0.13833 0.32026 0.0
H2802 H 0.84718 0.11243 0.32029 0.0
C2803 C 0.84569 0.12514 0.27091 0.0
C2804 C 0.86641 0.85157 0.30576 0.0
C2805 C 0.87044 0.8407 0.28822 0.0
H2806 H 0.84769 0.87358 0.31978 0.0
C2807 C 0.86075 0.84613 0.27039 0.0
H2808 H 0.87372 0.84774 0.3197 0.0
C2809 C 0.84599 0.86078 0.27044 0.0
C2810 C 0.84056 0.87036 0.28831 0.0
H2811 H 0.86381 0.8383 0.25654 0.0
H2812 H 0.83809 0.86383 0.25662 0.0
C2813 C 0.85152 0.86635 0.30581 0.0
C2814 C 0.11948 0.85174 0.30483 0.0
C2815 C 0.11568 0.84071 0.28733 0.0
H2816 H 0.13799 0.87389 0.31892 0.0
C2817 C 0.1257 0.84591 0.26962 0.0
H2818 H 0.11191 0.8481 0.31868 0.0
C2819 C 0.14049 0.86052 0.26976 0.0
C2820 C 0.14563 0.87031 0.28761 0.0
H2821 H 0.12284 0.83794 0.2558 0.0
H2822 H 0.14861 0.86342 0.25604 0.0
C2823 C 0.13439 0.86649 0.30497 0.0
C2824 C 0.13454 0.8669 0.68134 0.0
C2825 C 0.14582 0.87056 0.69872 0.0
H2826 H 0.11203 0.84865 0.66751 0.0
C2827 C 0.14073 0.86058 0.71648 0.0
H2828 H 0.1381 0.87445 0.66745 0.0
C2829 C 0.12595 0.84596 0.71651 0.0
C2830 C 0.11589 0.84094 0.69878 0.0
H2831 H 0.14888 0.86334 0.73021 0.0
H2832 H 0.12313 0.83785 0.73026 0.0
C2833 C 0.11963 0.85215 0.68137 0.0
C2834 C 0.14017 0.12532 0.71555 0.0
C2835 C 0.1455 0.11556 0.69775 0.0
H2836 H 0.12242 0.14791 0.72934 0.0
C2837 C 0.13447 0.11944 0.68026 0.0
H2838 H 0.14814 0.12238 0.72936 0.0
C2839 C 0.11958 0.13422 0.68025 0.0
C2840 C 0.11562 0.14522 0.69772 0.0
H2841 H 0.13822 0.11207 0.66634 0.0
H2842 H 0.11219 0.13791 0.66632 0.0
C2843 C 0.12541 0.13996 0.71554 0.0
C2844 C 0.86138 0.13959 0.71438 0.0
C2845 C 0.87086 0.14516 0.69649 0.0
H2846 H 0.83891 0.12176 0.72827 0.0
C2847 C 0.86664 0.13441 0.67891 0.0
H2848 H 0.86459 0.14733 0.72825 0.0
C2849 C 0.85178 0.11961 0.67893 0.0
C2850 C 0.84103 0.11546 0.69651 0.0
H2851 H 0.87379 0.13836 0.66492 0.0
H2852 H 0.8478 0.11247 0.66494 0.0
C2853 C 0.84665 0.12492 0.71439 0.0
C2854 C 0.86037 0.84595 0.71571 0.0
C2855 C 0.87017 0.84074 0.69789 0.0
H2856 H 0.83765 0.8635 0.72954 0.0
C2857 C 0.86623 0.85182 0.68045 0.0
H2858 H 0.86335 0.83795 0.7295 0.0
C2859 C 0.85136 0.86661 0.68047 0.0
C2860 C 0.84031 0.87043 0.69795 0.0
H2861 H 0.87363 0.84817 0.66651 0.0
H2862 H 0.84762 0.87402 0.66656 0.0
C2863 C 0.84563 0.86061 0.71574 0.0
C2864 C 0.30772 0.13455 0.11951 0.0
C2865 C 0.29009 0.14514 0.11512 0.0
H2866 H 0.32168 0.11266 0.13846 0.0
C2867 C 0.27214 0.13929 0.12429 0.0
H2868 H 0.32176 0.13872 0.1126 0.0
C2869 C 0.27209 0.12452 0.13894 0.0
C2870 C 0.28999 0.11524 0.14478 0.0
H2871 H 0.25824 0.14691 0.12093 0.0
H2872 H 0.25815 0.12116 0.14648 0.0
C2873 C 0.30767 0.11965 0.13429 0.0
C2874 C 0.85955 0.26995 0.13969 0.0
C2875 C 0.86938 0.28775 0.14492 0.0
H2876 H 0.83686 0.25616 0.12205 0.0
C2877 C 0.86554 0.30521 0.13382 0.0
H2878 H 0.86246 0.25616 0.1477 0.0
C2879 C 0.85072 0.30522 0.11898 0.0
C2880 C 0.83964 0.28776 0.11512 0.0
H2881 H 0.87296 0.31914 0.13749 0.0
H2882 H 0.84705 0.31914 0.11154 0.0
C2883 C 0.84487 0.26995 0.12497 0.0
C2884 C 0.71412 0.86136 0.13903 0.0
C2885 C 0.69625 0.87073 0.14479 0.0
H2886 H 0.72792 0.83896 0.12104 0.0
C2887 C 0.67859 0.86648 0.13418 0.0
H2888 H 0.72804 0.8646 0.14666 0.0
C2889 C 0.67852 0.85164 0.11936 0.0
C2890 C 0.69611 0.84096 0.11504 0.0
H2891 H 0.66461 0.87355 0.13828 0.0
H2892 H 0.66449 0.8476 0.11235 0.0
C2893 C 0.71405 0.84665 0.12433 0.0
C2894 C 0.13369 0.67988 0.11917 0.0
C2895 C 0.14466 0.69737 0.11512 0.0
H2896 H 0.11147 0.66606 0.13778 0.0
C2897 C 0.13925 0.71527 0.12466 0.0
H2898 H 0.13751 0.66589 0.11196 0.0
C2899 C 0.12449 0.71537 0.13929 0.0
C2900 C 0.11478 0.69757 0.14474 0.0
H2901 H 0.14717 0.72908 0.12157 0.0
H2902 H 0.12144 0.72926 0.14708 0.0
C2903 C 0.1188 0.67998 0.13393 0.0
C2904 C 0.30693 0.86628 0.85121 0.0
C2905 C 0.28944 0.87048 0.8403 0.0
H2906 H 0.3207 0.84749 0.87334 0.0
C2907 C 0.27151 0.86105 0.84577 0.0
H2908 H 0.32095 0.8734 0.84734 0.0
C2909 C 0.27136 0.84636 0.8605 0.0
C2910 C 0.28915 0.84075 0.87014 0.0
H2911 H 0.2577 0.86424 0.83791 0.0
H2912 H 0.25745 0.83865 0.86359 0.0
C2913 C 0.30678 0.85147 0.86607 0.0
C2914 C 0.13417 0.30537 0.86627 0.0
C2915 C 0.14529 0.28794 0.87016 0.0
H2916 H 0.11177 0.31916 0.84782 0.0
C2917 C 0.13999 0.27007 0.86049 0.0
H2918 H 0.13789 0.31934 0.87357 0.0
C2919 C 0.12518 0.26997 0.84589 0.0
C2920 C 0.1153 0.28773 0.84061 0.0
H2921 H 0.14802 0.2563 0.86344 0.0
H2922 H 0.12222 0.25612 0.83801 0.0
C2923 C 0.11923 0.30526 0.85155 0.0
C2924 C 0.71444 0.1395 0.86082 0.0
C2925 C 0.69654 0.14499 0.87029 0.0
H2926 H 0.72838 0.12181 0.83827 0.0
C2927 C 0.67899 0.13423 0.866 0.0
H2928 H 0.72829 0.14726 0.86408 0.0
C2929 C 0.67904 0.1195 0.85107 0.0
C2930 C 0.69664 0.11544 0.84031 0.0
H2931 H 0.66499 0.13812 0.87314 0.0
H2932 H 0.66508 0.11236 0.84702 0.0
C2933 C 0.71449 0.1249 0.84602 0.0
C2934 C 0.86604 0.68134 0.8516 0.0
C2935 C 0.8699 0.69876 0.84045 0.0
H2936 H 0.84747 0.66745 0.87382 0.0
C2937 C 0.85999 0.71656 0.84555 0.0
H2938 H 0.87352 0.66742 0.84802 0.0
C2939 C 0.84522 0.71658 0.86018 0.0
C2940 C 0.83999 0.6988 0.87007 0.0
H2941 H 0.8629 0.73033 0.8375 0.0
H2942 H 0.83717 0.73036 0.86299 0.0
C2943 C 0.85114 0.68136 0.86635 0.0
C2944 C 0.13962 0.2699 0.12452 0.0
C2945 C 0.14499 0.28775 0.11485 0.0
H2946 H 0.12187 0.25602 0.14708 0.0
C2947 C 0.13398 0.30524 0.11879 0.0
H2948 H 0.14756 0.25609 0.12154 0.0
C2949 C 0.1191 0.3052 0.13356 0.0
C2950 C 0.11513 0.28768 0.14451 0.0
H2951 H 0.13776 0.31921 0.11149 0.0
H2952 H 0.11174 0.31914 0.13732 0.0
C2953 C 0.12487 0.26986 0.13917 0.0
C2954 C 0.13986 0.71577 0.86083 0.0
C2955 C 0.14516 0.6979 0.87052 0.0
H2956 H 0.12212 0.72971 0.8383 0.0
C2957 C 0.1341 0.68045 0.86658 0.0
H2958 H 0.14785 0.72956 0.86381 0.0
C2959 C 0.1192 0.68054 0.85182 0.0
C2960 C 0.11527 0.69808 0.84088 0.0
H2961 H 0.13783 0.66648 0.8739 0.0
H2962 H 0.11178 0.66663 0.84808 0.0
C2963 C 0.1251 0.71586 0.84619 0.0
C2964 C 0.30692 0.13441 0.86623 0.0
C2965 C 0.28934 0.14514 0.87043 0.0
H2966 H 0.32089 0.11243 0.84743 0.0
C2967 C 0.27144 0.13948 0.86103 0.0
H2968 H 0.32092 0.13842 0.87332 0.0
C2969 C 0.27143 0.12475 0.84635 0.0
C2970 C 0.28931 0.11531 0.84073 0.0
H2971 H 0.25757 0.14721 0.86422 0.0
H2972 H 0.25754 0.12154 0.83865 0.0
C2973 C 0.30691 0.11954 0.85143 0.0
C2974 C 0.866 0.30457 0.85129 0.0
C2975 C 0.86975 0.28713 0.84014 0.0
H2976 H 0.84758 0.31854 0.87356 0.0
C2977 C 0.85977 0.26938 0.84528 0.0
H2978 H 0.87355 0.31845 0.84769 0.0
C2979 C 0.84504 0.26943 0.85995 0.0
C2980 C 0.83994 0.28723 0.86985 0.0
H2981 H 0.86259 0.2556 0.83723 0.0
H2982 H 0.83693 0.25569 0.8628 0.0
C2983 C 0.85116 0.30462 0.86608 0.0
C2984 C 0.71312 0.86194 0.84685 0.0
C2985 C 0.69519 0.87106 0.84085 0.0
H2986 H 0.72701 0.83975 0.86507 0.0
C2987 C 0.67748 0.86662 0.85128 0.0
H2988 H 0.72707 0.86533 0.83936 0.0
C2989 C 0.67745 0.85182 0.86616 0.0
C2990 C 0.69512 0.84136 0.8707 0.0
H2991 H 0.66346 0.87349 0.84699 0.0
H2992 H 0.66339 0.8476 0.87301 0.0
C2993 C 0.71308 0.84727 0.8616 0.0
C2994 C 0.85122 0.68059 0.11933 0.0
C2995 C 0.84019 0.69808 0.11543 0.0
H2996 H 0.87346 0.66665 0.13785 0.0
C2997 C 0.84553 0.71591 0.12516 0.0
H2998 H 0.84746 0.66666 0.11198 0.0
C2999 C 0.86027 0.71591 0.13983 0.0
C3000 C 0.87004 0.69808 0.14513 0.0
H3001 H 0.83757 0.72972 0.12221 0.0
H3002 H 0.86326 0.72972 0.14777 0.0
C3003 C 0.86608 0.68059 0.13412 0.0
C3004 C 0.27032 0.84591 0.12579 0.0
C3005 C 0.28808 0.84049 0.11602 0.0
H3006 H 0.25664 0.8637 0.14841 0.0
C3007 C 0.30562 0.85143 0.11991 0.0
H3008 H 0.25648 0.83802 0.12285 0.0
C3009 C 0.30572 0.86629 0.13471 0.0
C3010 C 0.28828 0.87033 0.14573 0.0
H3011 H 0.31952 0.8476 0.11253 0.0
H3012 H 0.31969 0.87359 0.13841 0.0
C3013 C 0.27042 0.86065 0.14046 0.0
C3014 C 0.71385 0.1401 0.12499 0.0
C3015 C 0.69596 0.14558 0.11549 0.0
H3016 H 0.7278 0.12232 0.1475 0.0
C3017 C 0.67843 0.13475 0.11969 0.0
H3018 H 0.72769 0.1479 0.1218 0.0
C3019 C 0.6785 0.11994 0.13456 0.0
C3020 C 0.69609 0.11586 0.14534 0.0
H3021 H 0.66443 0.13863 0.11252 0.0
H3022 H 0.66455 0.11273 0.13853 0.0
C3023 C 0.71392 0.12542 0.13973 0.0
C3024 C 0.61964 0.63377 0.80547 0.0
C3025 C 0.61564 0.64471 0.78795 0.0
H3026 H 0.63835 0.61174 0.8195 0.0
C3027 C 0.62545 0.63943 0.77016 0.0
H3028 H 0.61223 0.63749 0.81938 0.0
C3029 C 0.64026 0.62483 0.77022 0.0
C3030 C 0.64563 0.61516 0.78807 0.0
H3031 H 0.62243 0.64732 0.75632 0.0
H3032 H 0.64823 0.62188 0.75643 0.0
C3033 C 0.63457 0.61905 0.80553 0.0
C3034 C 0.35104 0.61973 0.80547 0.0
C3035 C 0.34005 0.61589 0.78795 0.0
H3036 H 0.37331 0.63815 0.81948 0.0
C3037 C 0.34545 0.62565 0.77016 0.0
H3038 H 0.34723 0.61236 0.81939 0.0
C3039 C 0.36024 0.64027 0.77021 0.0
C3040 C 0.36999 0.64549 0.78806 0.0
H3041 H 0.33752 0.62274 0.75633 0.0
H3042 H 0.36329 0.64822 0.75642 0.0
C3043 C 0.36596 0.63448 0.80552 0.0
C3044 C 0.36627 0.35188 0.80496 0.0
C3045 C 0.37019 0.34086 0.78749 0.0
H3046 H 0.34765 0.37402 0.8189 0.0
C3047 C 0.36035 0.34609 0.76969 0.0
H3048 H 0.3737 0.34821 0.81888 0.0
C3049 C 0.34558 0.36073 0.7697 0.0
C3050 C 0.34028 0.3705 0.78751 0.0
H3051 H 0.36332 0.33813 0.75589 0.0
H3052 H 0.33758 0.36364 0.75591 0.0
C3053 C 0.35137 0.36665 0.80497 0.0
C3054 C 0.6193 0.35195 0.80596 0.0
C3055 C 0.61529 0.34104 0.78843 0.0
H3056 H 0.63796 0.37403 0.81995 0.0
C3057 C 0.62498 0.34644 0.77061 0.0
H3058 H 0.61199 0.34814 0.8199 0.0
C3059 C 0.63971 0.36112 0.77063 0.0
C3060 C 0.64511 0.37076 0.78848 0.0
H3061 H 0.62194 0.33857 0.75677 0.0
H3062 H 0.6476 0.36416 0.75681 0.0
C3063 C 0.63416 0.36675 0.80599 0.0
C3064 C 0.63445 0.36664 0.18051 0.0
C3065 C 0.64571 0.37035 0.19788 0.0
H3066 H 0.61192 0.34837 0.16672 0.0
C3067 C 0.64058 0.36046 0.21568 0.0
H3068 H 0.63804 0.37412 0.16659 0.0
C3069 C 0.62577 0.34586 0.21576 0.0
C3070 C 0.61573 0.34079 0.19803 0.0
H3071 H 0.64872 0.36326 0.22941 0.0
H3072 H 0.62292 0.33782 0.22954 0.0
C3073 C 0.61951 0.35192 0.18059 0.0
C3074 C 0.62519 0.6394 0.21543 0.0
C3075 C 0.61541 0.64475 0.19763 0.0
H3076 H 0.64794 0.6218 0.22918 0.0
C3077 C 0.61942 0.63385 0.1801 0.0
H3078 H 0.62216 0.64726 0.22928 0.0
C3079 C 0.63434 0.61912 0.18004 0.0
C3080 C 0.64537 0.61517 0.19752 0.0
H3081 H 0.61204 0.63763 0.16618 0.0
H3082 H 0.63814 0.61185 0.16608 0.0
C3083 C 0.63999 0.6248 0.21537 0.0
C3084 C 0.3662 0.63409 0.17973 0.0
C3085 C 0.37036 0.64488 0.19729 0.0
H3086 H 0.34737 0.61214 0.16575 0.0
C3087 C 0.36082 0.63937 0.21516 0.0
H3088 H 0.3734 0.63799 0.16576 0.0
C3089 C 0.34606 0.62472 0.21516 0.0
C3090 C 0.34049 0.61522 0.19729 0.0
H3091 H 0.36399 0.64715 0.22903 0.0
H3092 H 0.33826 0.62161 0.22902 0.0
C3093 C 0.35132 0.61931 0.17973 0.0
C3094 C 0.36556 0.35213 0.18107 0.0
C3095 C 0.36939 0.34097 0.19849 0.0
H3096 H 0.34694 0.37427 0.1671 0.0
C3097 C 0.35929 0.34594 0.21621 0.0
H3098 H 0.37319 0.34866 0.16721 0.0
C3099 C 0.3444 0.36045 0.21614 0.0
C3100 C 0.33924 0.37037 0.19836 0.0
H3101 H 0.36217 0.33788 0.22998 0.0
H3102 H 0.33623 0.36317 0.22987 0.0
C3103 C 0.35054 0.36677 0.181 0.0
C3104 C 0.80713 0.63431 0.61951 0.0
C3105 C 0.7896 0.64512 0.61527 0.0
H3106 H 0.82101 0.61233 0.6384 0.0
C3107 C 0.77169 0.63962 0.62473 0.0
H3108 H 0.82113 0.63821 0.61238 0.0
C3109 C 0.77162 0.62495 0.63948 0.0
C3110 C 0.78945 0.61543 0.64514 0.0
H3111 H 0.75785 0.6474 0.6215 0.0
H3112 H 0.75773 0.62184 0.64722 0.0
C3113 C 0.80706 0.61952 0.63439 0.0
C3114 C 0.35104 0.80509 0.61937 0.0
C3115 C 0.33984 0.78768 0.61561 0.0
H3116 H 0.37352 0.81889 0.63769 0.0
C3117 C 0.34507 0.76985 0.6254 0.0
H3118 H 0.34736 0.81903 0.61197 0.0
C3119 C 0.3599 0.76977 0.63997 0.0
C3120 C 0.36987 0.78752 0.64512 0.0
H3121 H 0.33698 0.75609 0.62255 0.0
H3122 H 0.36282 0.75595 0.64795 0.0
C3123 C 0.36599 0.805 0.63407 0.0
C3124 C 0.21381 0.34712 0.62455 0.0
C3125 C 0.19595 0.34139 0.61514 0.0
H3126 H 0.2276 0.36503 0.64704 0.0
C3127 C 0.17829 0.35196 0.61942 0.0
H3128 H 0.22774 0.33951 0.6213 0.0
C3129 C 0.17821 0.36673 0.63432 0.0
C3130 C 0.19578 0.37102 0.64503 0.0
H3131 H 0.16431 0.34789 0.61233 0.0
H3132 H 0.16417 0.37372 0.63838 0.0
C3133 C 0.21373 0.36176 0.63932 0.0
C3134 C 0.63989 0.21622 0.62529 0.0
C3135 C 0.64512 0.19836 0.61557 0.0
H3136 H 0.62221 0.23017 0.64783 0.0
C3137 C 0.63399 0.18094 0.61947 0.0
H3138 H 0.64792 0.22998 0.62233 0.0
C3139 C 0.61911 0.18104 0.63424 0.0
C3140 C 0.61524 0.19857 0.6452 0.0
H3141 H 0.63767 0.16697 0.61213 0.0
H3142 H 0.61164 0.16715 0.63795 0.0
C3143 C 0.62513 0.21633 0.63992 0.0
C3144 C 0.77063 0.34661 0.3603 0.0
C3145 C 0.78843 0.3411 0.36996 0.0
H3146 H 0.75689 0.36445 0.33772 0.0
C3147 C 0.806 0.35193 0.36595 0.0
H3148 H 0.75676 0.3388 0.36335 0.0
C3149 C 0.80608 0.36677 0.35111 0.0
C3150 C 0.78859 0.37088 0.34018 0.0
H3151 H 0.81993 0.34803 0.37324 0.0
H3152 H 0.82007 0.37398 0.34729 0.0
C3153 C 0.7707 0.36132 0.3456 0.0
C3154 C 0.63444 0.80539 0.36651 0.0
C3155 C 0.64544 0.78791 0.3705 0.0
H3156 H 0.61226 0.81929 0.34789 0.0
C3157 C 0.64012 0.77006 0.3608 0.0
H3158 H 0.63819 0.81935 0.37383 0.0
C3159 C 0.62542 0.77003 0.34609 0.0
C3160 C 0.61567 0.78784 0.34072 0.0
H3161 H 0.64805 0.75625 0.36382 0.0
H3162 H 0.62243 0.75619 0.33819 0.0
C3163 C 0.61961 0.80536 0.35167 0.0
C3164 C 0.21409 0.63952 0.36121 0.0
C3165 C 0.1962 0.64522 0.37057 0.0
H3166 H 0.22796 0.62158 0.33881 0.0
C3167 C 0.17858 0.63456 0.3663 0.0
H3168 H 0.22798 0.64719 0.36446 0.0
C3169 C 0.17857 0.61974 0.35146 0.0
C3170 C 0.19617 0.61548 0.34078 0.0
H3171 H 0.16458 0.63862 0.37335 0.0
H3172 H 0.16456 0.61269 0.3474 0.0
C3173 C 0.21408 0.62483 0.34649 0.0
C3174 C 0.3507 0.18137 0.36629 0.0
C3175 C 0.33951 0.1988 0.36999 0.0
H3176 H 0.37312 0.16748 0.34799 0.0
C3177 C 0.34469 0.21657 0.36008 0.0
H3178 H 0.34706 0.16747 0.37378 0.0
C3179 C 0.35946 0.21658 0.34546 0.0
C3180 C 0.36942 0.1988 0.34039 0.0
H3181 H 0.33661 0.23034 0.36287 0.0
H3182 H 0.36235 0.23035 0.3374 0.0
C3183 C 0.3656 0.18138 0.35154 0.0
C3184 C 0.63497 0.80456 0.61919 0.0
C3185 C 0.64623 0.78719 0.61549 0.0
H3186 H 0.61245 0.81836 0.63744 0.0
C3187 C 0.64111 0.76938 0.62539 0.0
H3188 H 0.63856 0.81849 0.61171 0.0
C3189 C 0.6263 0.76931 0.63998 0.0
C3190 C 0.61625 0.78704 0.64503 0.0
H3191 H 0.64925 0.75565 0.6226 0.0
H3192 H 0.62345 0.75552 0.64802 0.0
C3193 C 0.62004 0.80449 0.6339 0.0
C3194 C 0.62481 0.21592 0.34604 0.0
C3195 C 0.61503 0.19813 0.34069 0.0
H3196 H 0.64751 0.22964 0.36371 0.0
C3197 C 0.61898 0.18058 0.35162 0.0
H3198 H 0.62182 0.22977 0.33816 0.0
C3199 C 0.63385 0.18051 0.36641 0.0
C3200 C 0.64488 0.19798 0.37037 0.0
H3201 H 0.61159 0.16667 0.34785 0.0
H3202 H 0.6376 0.16653 0.37372 0.0
C3203 C 0.63955 0.21585 0.3607 0.0
C3204 C 0.80616 0.61963 0.3514 0.0
C3205 C 0.78863 0.61565 0.34049 0.0
H3206 H 0.82016 0.63825 0.37351 0.0
C3207 C 0.77082 0.62533 0.34592 0.0
H3208 H 0.82009 0.61232 0.34757 0.0
C3209 C 0.77086 0.64003 0.36062 0.0
C3210 C 0.78871 0.6454 0.37027 0.0
H3211 H 0.75698 0.62231 0.33805 0.0
H3212 H 0.75705 0.64792 0.36368 0.0
C3213 C 0.8062 0.63445 0.36624 0.0
C3214 C 0.36638 0.80575 0.35191 0.0
C3215 C 0.37043 0.78816 0.34111 0.0
H3216 H 0.34768 0.81981 0.37391 0.0
C3217 C 0.36086 0.77032 0.34667 0.0
H3218 H 0.37361 0.81971 0.34798 0.0
C3219 C 0.34616 0.77037 0.36137 0.0
C3220 C 0.34068 0.78828 0.37087 0.0
H3221 H 0.36394 0.75644 0.33889 0.0
H3222 H 0.33832 0.75654 0.36451 0.0
C3223 C 0.35155 0.80581 0.36674 0.0
C3224 C 0.1776 0.36681 0.35125 0.0
C3225 C 0.19519 0.37112 0.34058 0.0
H3226 H 0.16368 0.34795 0.37322 0.0
C3227 C 0.21313 0.36186 0.34633 0.0
H3228 H 0.16357 0.3738 0.34716 0.0
C3229 C 0.21319 0.34721 0.3611 0.0
C3230 C 0.19532 0.34147 0.37048 0.0
H3231 H 0.22701 0.36515 0.33865 0.0
H3232 H 0.22712 0.33961 0.3644 0.0
C3233 C 0.17766 0.35203 0.36615 0.0
C3234 C 0.36609 0.18051 0.63411 0.0
C3235 C 0.37011 0.19802 0.64505 0.0
H3236 H 0.34737 0.16657 0.61204 0.0
C3237 C 0.36041 0.21586 0.63971 0.0
H3238 H 0.37342 0.16656 0.63787 0.0
C3239 C 0.34564 0.21587 0.62507 0.0
C3240 C 0.34022 0.19803 0.6154 0.0
H3241 H 0.36346 0.22969 0.6476 0.0
H3242 H 0.33773 0.2297 0.62208 0.0
C3243 C 0.3512 0.18052 0.61934 0.0
C3244 C 0.7706 0.36126 0.64017 0.0
C3245 C 0.78846 0.37084 0.64565 0.0
H3246 H 0.75674 0.33876 0.62234 0.0
C3247 C 0.80598 0.3668 0.63475 0.0
H3248 H 0.75677 0.36433 0.64802 0.0
C3249 C 0.80595 0.35201 0.61988 0.0
C3250 C 0.78841 0.34114 0.6158 0.0
H3251 H 0.81994 0.37403 0.63862 0.0
H3252 H 0.8199 0.34815 0.61262 0.0
C3253 C 0.77058 0.34659 0.62543 0.0
C3254 C 0.21307 0.62464 0.63858 0.0
C3255 C 0.19514 0.61547 0.64449 0.0
H3256 H 0.22698 0.64689 0.62046 0.0
C3257 C 0.17746 0.6199 0.634 0.0
H3258 H 0.22701 0.62126 0.64612 0.0
C3259 C 0.17744 0.63473 0.61916 0.0
C3260 C 0.1951 0.64523 0.61471 0.0
H3261 H 0.16343 0.61298 0.63822 0.0
H3262 H 0.1634 0.63893 0.61226 0.0
C3263 C 0.21305 0.63934 0.62386 0.0
loop_
_geom_bond_atom_site_label_1
_geom_bond_atom_site_label_2
_geom_bond_distance
_geom_bond_site_symmetry_2
_ccdc_geom_bond_type
C0 O1 1.306 . S
C0 O3 1.160 . S
O1 C0 1.306 . S
O1 Cd2 2.228 . S
Cd2 O1 2.228 . S
Cd2 O6 2.273 . S
Cd2 O10 2.277 . S
O3 C0 1.160 . S
O3 Cd4 2.203 . S
Cd4 O3 2.203 . S
Cd4 O6 2.411 . S
Cd4 O7 2.333 . S
Cd4 O8 2.352 . S
Cd4 O12 2.277 . S
Cd4 O13 2.356 . S
C5 O10 1.209 . S
C5 O12 1.226 . S
O6 Cd2 2.273 . S
O6 Cd4 2.411 . S
O6 C9 1.320 . S
O7 Cd4 2.333 . S
O7 C9 1.214 . S
O8 Cd4 2.352 . S
O8 C11 1.258 . S
C9 O6 1.320 . S
C9 O7 1.214 . S
O10 Cd2 2.277 . S
O10 C5 1.209 . S
C11 O8 1.258 . S
C11 O13 1.282 . S
O12 Cd4 2.277 . S
O12 C5 1.226 . S
O13 Cd4 2.356 . S
O13 C11 1.282 . S
C14 O15 1.306 . S
C14 O17 1.160 . S
O15 C14 1.306 . S
O15 Cd16 2.228 . S
Cd16 O15 2.228 . S
Cd16 O20 2.273 . S
Cd16 O24 2.277 . S
O17 C14 1.160 . S
O17 Cd18 2.203 . S
Cd18 O17 2.203 . S
Cd18 O20 2.411 . S
Cd18 O21 2.333 . S
Cd18 O22 2.352 . S
Cd18 O26 2.277 . S
Cd18 O27 2.356 . S
C19 O24 1.209 . S
C19 O26 1.226 . S
O20 Cd16 2.273 . S
O20 Cd18 2.411 . S
O20 C23 1.320 . S
O21 Cd18 2.333 . S
O21 C23 1.214 . S
O22 Cd18 2.352 . S
O22 C25 1.258 . S
C23 O20 1.320 . S
C23 O21 1.214 . S
O24 Cd16 2.277 . S
O24 C19 1.209 . S
C25 O22 1.258 . S
C25 O27 1.282 . S
O26 Cd18 2.277 . S
O26 C19 1.226 . S
O27 Cd18 2.356 . S
O27 C25 1.282 . S
C28 O29 1.306 . S
C28 O31 1.160 . S
O29 C28 1.306 . S
O29 Cd30 2.228 . S
Cd30 O29 2.228 . S
Cd30 O34 2.273 . S
Cd30 O38 2.277 . S
O31 C28 1.160 . S
O31 Cd32 2.203 . S
Cd32 O31 2.203 . S
Cd32 O34 2.411 . S
Cd32 O35 2.333 . S
Cd32 O36 2.352 . S
Cd32 O40 2.277 . S
Cd32 O41 2.356 . S
C33 O38 1.209 . S
C33 O40 1.226 . S
O34 Cd30 2.273 . S
O34 Cd32 2.411 . S
O34 C37 1.320 . S
O35 Cd32 2.333 . S
O35 C37 1.214 . S
O36 Cd32 2.352 . S
O36 C39 1.258 . S
C37 O34 1.320 . S
C37 O35 1.214 . S
O38 Cd30 2.277 . S
O38 C33 1.209 . S
C39 O36 1.258 . S
C39 O41 1.282 . S
O40 Cd32 2.277 . S
O40 C33 1.226 . S
O41 Cd32 2.356 . S
O41 C39 1.282 . S
C42 O43 1.306 . S
C42 O45 1.160 . S
O43 C42 1.306 . S
O43 Cd44 2.228 . S
Cd44 O43 2.228 . S
Cd44 O48 2.273 . S
Cd44 O52 2.277 . S
O45 C42 1.160 . S
O45 Cd46 2.203 . S
Cd46 O45 2.203 . S
Cd46 O48 2.411 . S
Cd46 O49 2.333 . S
Cd46 O50 2.352 . S
Cd46 O54 2.277 . S
Cd46 O55 2.356 . S
C47 O52 1.209 . S
C47 O54 1.226 . S
O48 Cd44 2.273 . S
O48 Cd46 2.411 . S
O48 C51 1.320 . S
O49 Cd46 2.333 . S
O49 C51 1.214 . S
O50 Cd46 2.352 . S
O50 C53 1.258 . S
C51 O48 1.320 . S
C51 O49 1.214 . S
O52 Cd44 2.277 . S
O52 C47 1.209 . S
C53 O50 1.258 . S
C53 O55 1.282 . S
O54 Cd46 2.277 . S
O54 C47 1.226 . S
O55 Cd46 2.356 . S
O55 C53 1.282 . S
C56 O57 1.306 . S
C56 O59 1.160 . S
O57 C56 1.306 . S
O57 Cd58 2.228 . S
Cd58 O57 2.228 . S
Cd58 O62 2.273 . S
Cd58 O66 2.277 . S
O59 C56 1.160 . S
O59 Cd60 2.203 . S
Cd60 O59 2.203 . S
Cd60 O62 2.411 . S
Cd60 O63 2.333 . S
Cd60 O64 2.352 . S
Cd60 O68 2.277 . S
Cd60 O69 2.356 . S
C61 O66 1.209 . S
C61 O68 1.226 . S
O62 Cd58 2.273 . S
O62 Cd60 2.411 . S
O62 C65 1.320 . S
O63 Cd60 2.333 . S
O63 C65 1.214 . S
O64 Cd60 2.352 . S
O64 C67 1.258 . S
C65 O62 1.320 . S
C65 O63 1.214 . S
O66 Cd58 2.277 . S
O66 C61 1.209 . S
C67 O64 1.258 . S
C67 O69 1.282 . S
O68 Cd60 2.277 . S
O68 C61 1.226 . S
O69 Cd60 2.356 . S
O69 C67 1.282 . S
C70 O71 1.306 . S
C70 O73 1.160 . S
O71 C70 1.306 . S
O71 Cd72 2.228 . S
Cd72 O71 2.228 . S
Cd72 O76 2.273 . S
Cd72 O80 2.277 . S
O73 C70 1.160 . S
O73 Cd74 2.203 . S
Cd74 O73 2.203 . S
Cd74 O76 2.411 . S
Cd74 O77 2.333 . S
Cd74 O78 2.352 . S
Cd74 O82 2.277 . S
Cd74 O83 2.356 . S
C75 O80 1.209 . S
C75 O82 1.226 . S
O76 Cd72 2.273 . S
O76 Cd74 2.411 . S
O76 C79 1.320 . S
O77 Cd74 2.333 . S
O77 C79 1.214 . S
O78 Cd74 2.352 . S
O78 C81 1.258 . S
C79 O76 1.320 . S
C79 O77 1.214 . S
O80 Cd72 2.277 . S
O80 C75 1.209 . S
C81 O78 1.258 . S
C81 O83 1.282 . S
O82 Cd74 2.277 . S
O82 C75 1.226 . S
O83 Cd74 2.356 . S
O83 C81 1.282 . S
C84 O85 1.306 . S
C84 O87 1.160 . S
O85 C84 1.306 . S
O85 Cd86 2.228 . S
Cd86 O85 2.228 . S
Cd86 O90 2.273 . S
Cd86 O94 2.277 . S
O87 C84 1.160 . S
O87 Cd88 2.203 . S
Cd88 O87 2.203 . S
Cd88 O90 2.411 . S
Cd88 O91 2.333 . S
Cd88 O92 2.352 . S
Cd88 O96 2.277 . S
Cd88 O97 2.356 . S
C89 O94 1.209 . S
C89 O96 1.226 . S
O90 Cd86 2.273 . S
O90 Cd88 2.411 . S
O90 C93 1.320 . S
O91 Cd88 2.333 . S
O91 C93 1.214 . S
O92 Cd88 2.352 . S
O92 C95 1.258 . S
C93 O90 1.320 . S
C93 O91 1.214 . S
O94 Cd86 2.277 . S
O94 C89 1.209 . S
C95 O92 1.258 . S
C95 O97 1.282 . S
O96 Cd88 2.277 . S
O96 C89 1.226 . S
O97 Cd88 2.356 . S
O97 C95 1.282 . S
C98 O99 1.306 . S
C98 O101 1.160 . S
O99 C98 1.306 . S
O99 Cd100 2.228 . S
Cd100 O99 2.228 . S
Cd100 O104 2.273 . S
Cd100 O108 2.277 . S
O101 C98 1.160 . S
O101 Cd102 2.203 . S
Cd102 O101 2.203 . S
Cd102 O104 2.411 . S
Cd102 O105 2.333 . S
Cd102 O106 2.352 . S
Cd102 O110 2.277 . S
Cd102 O111 2.356 . S
C103 O108 1.209 . S
C103 O110 1.226 . S
O104 Cd100 2.273 . S
O104 Cd102 2.411 . S
O104 C107 1.320 . S
O105 Cd102 2.333 . S
O105 C107 1.214 . S
O106 Cd102 2.352 . S
O106 C109 1.258 . S
C107 O104 1.320 . S
C107 O105 1.214 . S
O108 Cd100 2.277 . S
O108 C103 1.209 . S
C109 O106 1.258 . S
C109 O111 1.282 . S
O110 Cd102 2.277 . S
O110 C103 1.226 . S
O111 Cd102 2.356 . S
O111 C109 1.282 . S
C112 O113 1.306 . S
C112 O115 1.160 . S
O113 C112 1.306 . S
O113 Cd114 2.228 . S
Cd114 O113 2.228 . S
Cd114 O118 2.273 . S
Cd114 O122 2.277 . S
O115 C112 1.160 . S
O115 Cd116 2.203 . S
Cd116 O115 2.203 . S
Cd116 O118 2.411 . S
Cd116 O119 2.333 . S
Cd116 O120 2.352 . S
Cd116 O124 2.277 . S
Cd116 O125 2.356 . S
C117 O122 1.209 . S
C117 O124 1.226 . S
O118 Cd114 2.273 . S
O118 Cd116 2.411 . S
O118 C121 1.320 . S
O119 Cd116 2.333 . S
O119 C121 1.214 . S
O120 Cd116 2.352 . S
O120 C123 1.258 . S
C121 O118 1.320 . S
C121 O119 1.214 . S
O122 Cd114 2.277 . S
O122 C117 1.209 . S
C123 O120 1.258 . S
C123 O125 1.282 . S
O124 Cd116 2.277 . S
O124 C117 1.226 . S
O125 Cd116 2.356 . S
O125 C123 1.282 . S
C126 O127 1.306 . S
C126 O129 1.160 . S
O127 C126 1.306 . S
O127 Cd128 2.228 . S
Cd128 O127 2.228 . S
Cd128 O132 2.273 . S
Cd128 O136 2.277 . S
O129 C126 1.160 . S
O129 Cd130 2.203 . S
Cd130 O129 2.203 . S
Cd130 O132 2.411 . S
Cd130 O133 2.333 . S
Cd130 O134 2.352 . S
Cd130 O138 2.277 . S
Cd130 O139 2.356 . S
C131 O136 1.209 . S
C131 O138 1.226 . S
O132 Cd128 2.273 . S
O132 Cd130 2.411 . S
O132 C135 1.320 . S
O133 Cd130 2.333 . S
O133 C135 1.214 . S
O134 Cd130 2.352 . S
O134 C137 1.258 . S
C135 O132 1.320 . S
C135 O133 1.214 . S
O136 Cd128 2.277 . S
O136 C131 1.209 . S
C137 O134 1.258 . S
C137 O139 1.282 . S
O138 Cd130 2.277 . S
O138 C131 1.226 . S
O139 Cd130 2.356 . S
O139 C137 1.282 . S
C140 O141 1.306 . S
C140 O143 1.160 . S
O141 C140 1.306 . S
O141 Cd142 2.228 . S
Cd142 O141 2.228 . S
Cd142 O146 2.273 . S
Cd142 O150 2.277 . S
O143 C140 1.160 . S
O143 Cd144 2.203 . S
Cd144 O143 2.203 . S
Cd144 O146 2.411 . S
Cd144 O147 2.333 . S
Cd144 O148 2.352 . S
Cd144 O152 2.277 . S
Cd144 O153 2.356 . S
C145 O150 1.209 . S
C145 O152 1.226 . S
O146 Cd142 2.273 . S
O146 Cd144 2.411 . S
O146 C149 1.320 . S
O147 Cd144 2.333 . S
O147 C149 1.214 . S
O148 Cd144 2.352 . S
O148 C151 1.258 . S
C149 O146 1.320 . S
C149 O147 1.214 . S
O150 Cd142 2.277 . S
O150 C145 1.209 . S
C151 O148 1.258 . S
C151 O153 1.282 . S
O152 Cd144 2.277 . S
O152 C145 1.226 . S
O153 Cd144 2.356 . S
O153 C151 1.282 . S
C154 O155 1.306 . S
C154 O157 1.160 . S
O155 C154 1.306 . S
O155 Cd156 2.228 . S
Cd156 O155 2.228 . S
Cd156 O160 2.273 . S
Cd156 O164 2.277 . S
O157 C154 1.160 . S
O157 Cd158 2.203 . S
Cd158 O157 2.203 . S
Cd158 O160 2.411 . S
Cd158 O161 2.333 . S
Cd158 O162 2.352 . S
Cd158 O166 2.277 . S
Cd158 O167 2.356 . S
C159 O164 1.209 . S
C159 O166 1.226 . S
O160 Cd156 2.273 . S
O160 Cd158 2.411 . S
O160 C163 1.320 . S
O161 Cd158 2.333 . S
O161 C163 1.214 . S
O162 Cd158 2.352 . S
O162 C165 1.258 . S
C163 O160 1.320 . S
C163 O161 1.214 . S
O164 Cd156 2.277 . S
O164 C159 1.209 . S
C165 O162 1.258 . S
C165 O167 1.282 . S
O166 Cd158 2.277 . S
O166 C159 1.226 . S
O167 Cd158 2.356 . S
O167 C165 1.282 . S
C168 O169 1.306 . S
C168 O171 1.160 . S
O169 C168 1.306 . S
O169 Cd170 2.228 . S
Cd170 O169 2.228 . S
Cd170 O174 2.273 . S
Cd170 O178 2.277 . S
O171 C168 1.160 . S
O171 Cd172 2.203 . S
Cd172 O171 2.203 . S
Cd172 O174 2.411 . S
Cd172 O175 2.333 . S
Cd172 O176 2.352 . S
Cd172 O180 2.277 . S
Cd172 O181 2.356 . S
C173 O178 1.209 . S
C173 O180 1.226 . S
O174 Cd170 2.273 . S
O174 Cd172 2.411 . S
O174 C177 1.320 . S
O175 Cd172 2.333 . S
O175 C177 1.214 . S
O176 Cd172 2.352 . S
O176 C179 1.258 . S
C177 O174 1.320 . S
C177 O175 1.214 . S
O178 Cd170 2.277 . S
O178 C173 1.209 . S
C179 O176 1.258 . S
C179 O181 1.282 . S
O180 Cd172 2.277 . S
O180 C173 1.226 . S
O181 Cd172 2.356 . S
O181 C179 1.282 . S
C182 O183 1.306 . S
C182 O185 1.160 . S
O183 C182 1.306 . S
O183 Cd184 2.228 . S
Cd184 O183 2.228 . S
Cd184 O188 2.273 . S
Cd184 O192 2.277 . S
O185 C182 1.160 . S
O185 Cd186 2.203 . S
Cd186 O185 2.203 . S
Cd186 O188 2.411 . S
Cd186 O189 2.333 . S
Cd186 O190 2.352 . S
Cd186 O194 2.277 . S
Cd186 O195 2.356 . S
C187 O192 1.209 . S
C187 O194 1.226 . S
O188 Cd184 2.273 . S
O188 Cd186 2.411 . S
O188 C191 1.320 . S
O189 Cd186 2.333 . S
O189 C191 1.214 . S
O190 Cd186 2.352 . S
O190 C193 1.258 . S
C191 O188 1.320 . S
C191 O189 1.214 . S
O192 Cd184 2.277 . S
O192 C187 1.209 . S
C193 O190 1.258 . S
C193 O195 1.282 . S
O194 Cd186 2.277 . S
O194 C187 1.226 . S
O195 Cd186 2.356 . S
O195 C193 1.282 . S
C196 O197 1.306 . S
C196 O199 1.160 . S
O197 C196 1.306 . S
O197 Cd198 2.228 . S
Cd198 O197 2.228 . S
Cd198 O202 2.273 . S
Cd198 O206 2.277 . S
O199 C196 1.160 . S
O199 Cd200 2.203 . S
Cd200 O199 2.203 . S
Cd200 O202 2.411 . S
Cd200 O203 2.333 . S
Cd200 O204 2.352 . S
Cd200 O208 2.277 . S
Cd200 O209 2.356 . S
C201 O206 1.209 . S
C201 O208 1.226 . S
O202 Cd198 2.273 . S
O202 Cd200 2.411 . S
O202 C205 1.320 . S
O203 Cd200 2.333 . S
O203 C205 1.214 . S
O204 Cd200 2.352 . S
O204 C207 1.258 . S
C205 O202 1.320 . S
C205 O203 1.214 . S
O206 Cd198 2.277 . S
O206 C201 1.209 . S
C207 O204 1.258 . S
C207 O209 1.282 . S
O208 Cd200 2.277 . S
O208 C201 1.226 . S
O209 Cd200 2.356 . S
O209 C207 1.282 . S
C210 O211 1.306 . S
C210 O213 1.160 . S
O211 C210 1.306 . S
O211 Cd212 2.228 . S
Cd212 O211 2.228 . S
Cd212 O216 2.273 . S
Cd212 O220 2.277 . S
O213 C210 1.160 . S
O213 Cd214 2.203 . S
Cd214 O213 2.203 . S
Cd214 O216 2.411 . S
Cd214 O217 2.333 . S
Cd214 O218 2.352 . S
Cd214 O222 2.277 . S
Cd214 O223 2.356 . S
C215 O220 1.209 . S
C215 O222 1.226 . S
O216 Cd212 2.273 . S
O216 Cd214 2.411 . S
O216 C219 1.320 . S
O217 Cd214 2.333 . S
O217 C219 1.214 . S
O218 Cd214 2.352 . S
O218 C221 1.258 . S
C219 O216 1.320 . S
C219 O217 1.214 . S
O220 Cd212 2.277 . S
O220 C215 1.209 . S
C221 O218 1.258 . S
C221 O223 1.282 . S
O222 Cd214 2.277 . S
O222 C215 1.226 . S
O223 Cd214 2.356 . S
O223 C221 1.282 . S
C224 O225 1.306 . S
C224 O227 1.160 . S
O225 C224 1.306 . S
O225 Cd226 2.228 . S
Cd226 O225 2.228 . S
Cd226 O230 2.273 . S
Cd226 O234 2.277 . S
O227 C224 1.160 . S
O227 Cd228 2.203 . S
Cd228 O227 2.203 . S
Cd228 O230 2.411 . S
Cd228 O231 2.333 . S
Cd228 O232 2.352 . S
Cd228 O236 2.277 . S
Cd228 O237 2.356 . S
C229 O234 1.209 . S
C229 O236 1.226 . S
O230 Cd226 2.273 . S
O230 Cd228 2.411 . S
O230 C233 1.320 . S
O231 Cd228 2.333 . S
O231 C233 1.214 . S
O232 Cd228 2.352 . S
O232 C235 1.258 . S
C233 O230 1.320 . S
C233 O231 1.214 . S
O234 Cd226 2.277 . S
O234 C229 1.209 . S
C235 O232 1.258 . S
C235 O237 1.282 . S
O236 Cd228 2.277 . S
O236 C229 1.226 . S
O237 Cd228 2.356 . S
O237 C235 1.282 . S
C238 O239 1.306 . S
C238 O241 1.160 . S
O239 C238 1.306 . S
O239 Cd240 2.228 . S
Cd240 O239 2.228 . S
Cd240 O244 2.273 . S
Cd240 O248 2.277 . S
O241 C238 1.160 . S
O241 Cd242 2.203 . S
Cd242 O241 2.203 . S
Cd242 O244 2.411 . S
Cd242 O245 2.333 . S
Cd242 O246 2.352 . S
Cd242 O250 2.277 . S
Cd242 O251 2.356 . S
C243 O248 1.209 . S
C243 O250 1.226 . S
O244 Cd240 2.273 . S
O244 Cd242 2.411 . S
O244 C247 1.320 . S
O245 Cd242 2.333 . S
O245 C247 1.214 . S
O246 Cd242 2.352 . S
O246 C249 1.258 . S
C247 O244 1.320 . S
C247 O245 1.214 . S
O248 Cd240 2.277 . S
O248 C243 1.209 . S
C249 O246 1.258 . S
C249 O251 1.282 . S
O250 Cd242 2.277 . S
O250 C243 1.226 . S
O251 Cd242 2.356 . S
O251 C249 1.282 . S
C252 O253 1.306 . S
C252 O255 1.160 . S
O253 C252 1.306 . S
O253 Cd254 2.228 . S
Cd254 O253 2.228 . S
Cd254 O258 2.273 . S
Cd254 O262 2.277 . S
O255 C252 1.160 . S
O255 Cd256 2.203 . S
Cd256 O255 2.203 . S
Cd256 O258 2.411 . S
Cd256 O259 2.333 . S
Cd256 O260 2.352 . S
Cd256 O264 2.277 . S
Cd256 O265 2.356 . S
C257 O262 1.209 . S
C257 O264 1.226 . S
O258 Cd254 2.273 . S
O258 Cd256 2.411 . S
O258 C261 1.320 . S
O259 Cd256 2.333 . S
O259 C261 1.214 . S
O260 Cd256 2.352 . S
O260 C263 1.258 . S
C261 O258 1.320 . S
C261 O259 1.214 . S
O262 Cd254 2.277 . S
O262 C257 1.209 . S
C263 O260 1.258 . S
C263 O265 1.282 . S
O264 Cd256 2.277 . S
O264 C257 1.226 . S
O265 Cd256 2.356 . S
O265 C263 1.282 . S
C266 O267 1.306 . S
C266 O269 1.160 . S
O267 C266 1.306 . S
O267 Cd268 2.228 . S
Cd268 O267 2.228 . S
Cd268 O272 2.273 . S
Cd268 O276 2.277 . S
O269 C266 1.160 . S
O269 Cd270 2.203 . S
Cd270 O269 2.203 . S
Cd270 O272 2.411 . S
Cd270 O273 2.333 . S
Cd270 O274 2.352 . S
Cd270 O278 2.277 . S
Cd270 O279 2.356 . S
C271 O276 1.209 . S
C271 O278 1.226 . S
O272 Cd268 2.273 . S
O272 Cd270 2.411 . S
O272 C275 1.320 . S
O273 Cd270 2.333 . S
O273 C275 1.214 . S
O274 Cd270 2.352 . S
O274 C277 1.258 . S
C275 O272 1.320 . S
C275 O273 1.214 . S
O276 Cd268 2.277 . S
O276 C271 1.209 . S
C277 O274 1.258 . S
C277 O279 1.282 . S
O278 Cd270 2.277 . S
O278 C271 1.226 . S
O279 Cd270 2.356 . S
O279 C277 1.282 . S
C280 O281 1.306 . S
C280 O283 1.160 . S
O281 C280 1.306 . S
O281 Cd282 2.228 . S
Cd282 O281 2.228 . S
Cd282 O286 2.273 . S
Cd282 O290 2.277 . S
O283 C280 1.160 . S
O283 Cd284 2.203 . S
Cd284 O283 2.203 . S
Cd284 O286 2.411 . S
Cd284 O287 2.333 . S
Cd284 O288 2.352 . S
Cd284 O292 2.277 . S
Cd284 O293 2.356 . S
C285 O290 1.209 . S
C285 O292 1.226 . S
O286 Cd282 2.273 . S
O286 Cd284 2.411 . S
O286 C289 1.320 . S
O287 Cd284 2.333 . S
O287 C289 1.214 . S
O288 Cd284 2.352 . S
O288 C291 1.258 . S
C289 O286 1.320 . S
C289 O287 1.214 . S
O290 Cd282 2.277 . S
O290 C285 1.209 . S
C291 O288 1.258 . S
C291 O293 1.282 . S
O292 Cd284 2.277 . S
O292 C285 1.226 . S
O293 Cd284 2.356 . S
O293 C291 1.282 . S
C294 O295 1.306 . S
C294 O297 1.160 . S
O295 C294 1.306 . S
O295 Cd296 2.228 . S
Cd296 O295 2.228 . S
Cd296 O300 2.273 . S
Cd296 O304 2.277 . S
O297 C294 1.160 . S
O297 Cd298 2.203 . S
Cd298 O297 2.203 . S
Cd298 O300 2.411 . S
Cd298 O301 2.333 . S
Cd298 O302 2.352 . S
Cd298 O306 2.277 . S
Cd298 O307 2.356 . S
C299 O304 1.209 . S
C299 O306 1.226 . S
O300 Cd296 2.273 . S
O300 Cd298 2.411 . S
O300 C303 1.320 . S
O301 Cd298 2.333 . S
O301 C303 1.214 . S
O302 Cd298 2.352 . S
O302 C305 1.258 . S
C303 O300 1.320 . S
C303 O301 1.214 . S
O304 Cd296 2.277 . S
O304 C299 1.209 . S
C305 O302 1.258 . S
C305 O307 1.282 . S
O306 Cd298 2.277 . S
O306 C299 1.226 . S
O307 Cd298 2.356 . S
O307 C305 1.282 . S
C308 O309 1.306 . S
C308 O311 1.160 . S
O309 C308 1.306 . S
O309 Cd310 2.228 . S
Cd310 O309 2.228 . S
Cd310 O314 2.273 . S
Cd310 O318 2.277 . S
O311 C308 1.160 . S
O311 Cd312 2.203 . S
Cd312 O311 2.203 . S
Cd312 O314 2.411 . S
Cd312 O315 2.333 . S
Cd312 O316 2.352 . S
Cd312 O320 2.277 . S
Cd312 O321 2.356 . S
C313 O318 1.209 . S
C313 O320 1.226 . S
O314 Cd310 2.273 . S
O314 Cd312 2.411 . S
O314 C317 1.320 . S
O315 Cd312 2.333 . S
O315 C317 1.214 . S
O316 Cd312 2.352 . S
O316 C319 1.258 . S
C317 O314 1.320 . S
C317 O315 1.214 . S
O318 Cd310 2.277 . S
O318 C313 1.209 . S
C319 O316 1.258 . S
C319 O321 1.282 . S
O320 Cd312 2.277 . S
O320 C313 1.226 . S
O321 Cd312 2.356 . S
O321 C319 1.282 . S
C322 O323 1.306 . S
C322 O325 1.160 . S
O323 C322 1.306 . S
O323 Cd324 2.228 . S
Cd324 O323 2.228 . S
Cd324 O328 2.273 . S
Cd324 O332 2.277 . S
O325 C322 1.160 . S
O325 Cd326 2.203 . S
Cd326 O325 2.203 . S
Cd326 O328 2.411 . S
Cd326 O329 2.333 . S
Cd326 O330 2.352 . S
Cd326 O334 2.277 . S
Cd326 O335 2.356 . S
C327 O332 1.209 . S
C327 O334 1.226 . S
O328 Cd324 2.273 . S
O328 Cd326 2.411 . S
O328 C331 1.320 . S
O329 Cd326 2.333 . S
O329 C331 1.214 . S
O330 Cd326 2.352 . S
O330 C333 1.258 . S
C331 O328 1.320 . S
C331 O329 1.214 . S
O332 Cd324 2.277 . S
O332 C327 1.209 . S
C333 O330 1.258 . S
C333 O335 1.282 . S
O334 Cd326 2.277 . S
O334 C327 1.226 . S
O335 Cd326 2.356 . S
O335 C333 1.282 . S
C336 O337 1.306 . S
C336 O339 1.160 . S
O337 C336 1.306 . S
O337 Cd338 2.228 . S
Cd338 O337 2.228 . S
Cd338 O342 2.273 . S
Cd338 O346 2.277 . S
O339 C336 1.160 . S
O339 Cd340 2.203 . S
Cd340 O339 2.203 . S
Cd340 O342 2.411 . S
Cd340 O343 2.333 . S
Cd340 O344 2.352 . S
Cd340 O348 2.277 . S
Cd340 O349 2.356 . S
C341 O346 1.209 . S
C341 O348 1.226 . S
O342 Cd338 2.273 . S
O342 Cd340 2.411 . S
O342 C345 1.320 . S
O343 Cd340 2.333 . S
O343 C345 1.214 . S
O344 Cd340 2.352 . S
O344 C347 1.258 . S
C345 O342 1.320 . S
C345 O343 1.214 . S
O346 Cd338 2.277 . S
O346 C341 1.209 . S
C347 O344 1.258 . S
C347 O349 1.282 . S
O348 Cd340 2.277 . S
O348 C341 1.226 . S
O349 Cd340 2.356 . S
O349 C347 1.282 . S
C350 O351 1.306 . S
C350 O353 1.160 . S
O351 C350 1.306 . S
O351 Cd352 2.228 . S
Cd352 O351 2.228 . S
Cd352 O356 2.273 . S
Cd352 O360 2.277 . S
O353 C350 1.160 . S
O353 Cd354 2.203 . S
Cd354 O353 2.203 . S
Cd354 O356 2.411 . S
Cd354 O357 2.333 . S
Cd354 O358 2.352 . S
Cd354 O362 2.277 . S
Cd354 O363 2.356 . S
C355 O360 1.209 . S
C355 O362 1.226 . S
O356 Cd352 2.273 . S
O356 Cd354 2.411 . S
O356 C359 1.320 . S
O357 Cd354 2.333 . S
O357 C359 1.214 . S
O358 Cd354 2.352 . S
O358 C361 1.258 . S
C359 O356 1.320 . S
C359 O357 1.214 . S
O360 Cd352 2.277 . S
O360 C355 1.209 . S
C361 O358 1.258 . S
C361 O363 1.282 . S
O362 Cd354 2.277 . S
O362 C355 1.226 . S
O363 Cd354 2.356 . S
O363 C361 1.282 . S
C364 O365 1.306 . S
C364 O367 1.160 . S
O365 C364 1.306 . S
O365 Cd366 2.228 . S
Cd366 O365 2.228 . S
Cd366 O370 2.273 . S
Cd366 O374 2.277 . S
O367 C364 1.160 . S
O367 Cd368 2.203 . S
Cd368 O367 2.203 . S
Cd368 O370 2.411 . S
Cd368 O371 2.333 . S
Cd368 O372 2.352 . S
Cd368 O376 2.277 . S
Cd368 O377 2.356 . S
C369 O374 1.209 . S
C369 O376 1.226 . S
O370 Cd366 2.273 . S
O370 Cd368 2.411 . S
O370 C373 1.320 . S
O371 Cd368 2.333 . S
O371 C373 1.214 . S
O372 Cd368 2.352 . S
O372 C375 1.258 . S
C373 O370 1.320 . S
C373 O371 1.214 . S
O374 Cd366 2.277 . S
O374 C369 1.209 . S
C375 O372 1.258 . S
C375 O377 1.282 . S
O376 Cd368 2.277 . S
O376 C369 1.226 . S
O377 Cd368 2.356 . S
O377 C375 1.282 . S
C378 O379 1.306 . S
C378 O381 1.160 . S
O379 C378 1.306 . S
O379 Cd380 2.228 . S
Cd380 O379 2.228 . S
Cd380 O384 2.273 . S
Cd380 O388 2.277 . S
O381 C378 1.160 . S
O381 Cd382 2.203 . S
Cd382 O381 2.203 . S
Cd382 O384 2.411 . S
Cd382 O385 2.333 . S
Cd382 O386 2.352 . S
Cd382 O390 2.277 . S
Cd382 O391 2.356 . S
C383 O388 1.209 . S
C383 O390 1.226 . S
O384 Cd380 2.273 . S
O384 Cd382 2.411 . S
O384 C387 1.320 . S
O385 Cd382 2.333 . S
O385 C387 1.214 . S
O386 Cd382 2.352 . S
O386 C389 1.258 . S
C387 O384 1.320 . S
C387 O385 1.214 . S
O388 Cd380 2.277 . S
O388 C383 1.209 . S
C389 O386 1.258 . S
C389 O391 1.282 . S
O390 Cd382 2.277 . S
O390 C383 1.226 . S
O391 Cd382 2.356 . S
O391 C389 1.282 . S
C392 O393 1.306 . S
C392 O395 1.160 . S
O393 C392 1.306 . S
O393 Cd394 2.228 . S
Cd394 O393 2.228 . S
Cd394 O398 2.273 . S
Cd394 O402 2.277 . S
O395 C392 1.160 . S
O395 Cd396 2.203 . S
Cd396 O395 2.203 . S
Cd396 O398 2.411 . S
Cd396 O399 2.333 . S
Cd396 O400 2.352 . S
Cd396 O404 2.277 . S
Cd396 O405 2.356 . S
C397 O402 1.209 . S
C397 O404 1.226 . S
O398 Cd394 2.273 . S
O398 Cd396 2.411 . S
O398 C401 1.320 . S
O399 Cd396 2.333 . S
O399 C401 1.214 . S
O400 Cd396 2.352 . S
O400 C403 1.258 . S
C401 O398 1.320 . S
C401 O399 1.214 . S
O402 Cd394 2.277 . S
O402 C397 1.209 . S
C403 O400 1.258 . S
C403 O405 1.282 . S
O404 Cd396 2.277 . S
O404 C397 1.226 . S
O405 Cd396 2.356 . S
O405 C403 1.282 . S
C406 O407 1.306 . S
C406 O409 1.160 . S
O407 C406 1.306 . S
O407 Cd408 2.228 . S
Cd408 O407 2.228 . S
Cd408 O412 2.273 . S
Cd408 O416 2.277 . S
O409 C406 1.160 . S
O409 Cd410 2.203 . S
Cd410 O409 2.203 . S
Cd410 O412 2.411 . S
Cd410 O413 2.333 . S
Cd410 O414 2.352 . S
Cd410 O418 2.277 . S
Cd410 O419 2.356 . S
C411 O416 1.209 . S
C411 O418 1.226 . S
O412 Cd408 2.273 . S
O412 Cd410 2.411 . S
O412 C415 1.320 . S
O413 Cd410 2.333 . S
O413 C415 1.214 . S
O414 Cd410 2.352 . S
O414 C417 1.258 . S
C415 O412 1.320 . S
C415 O413 1.214 . S
O416 Cd408 2.277 . S
O416 C411 1.209 . S
C417 O414 1.258 . S
C417 O419 1.282 . S
O418 Cd410 2.277 . S
O418 C411 1.226 . S
O419 Cd410 2.356 . S
O419 C417 1.282 . S
C420 O421 1.306 . S
C420 O423 1.160 . S
O421 C420 1.306 . S
O421 Cd422 2.228 . S
Cd422 O421 2.228 . S
Cd422 O426 2.273 . S
Cd422 O430 2.277 . S
O423 C420 1.160 . S
O423 Cd424 2.203 . S
Cd424 O423 2.203 . S
Cd424 O426 2.411 . S
Cd424 O427 2.333 . S
Cd424 O428 2.352 . S
Cd424 O432 2.277 . S
Cd424 O433 2.356 . S
C425 O430 1.209 . S
C425 O432 1.226 . S
O426 Cd422 2.273 . S
O426 Cd424 2.411 . S
O426 C429 1.320 . S
O427 Cd424 2.333 . S
O427 C429 1.214 . S
O428 Cd424 2.352 . S
O428 C431 1.258 . S
C429 O426 1.320 . S
C429 O427 1.214 . S
O430 Cd422 2.277 . S
O430 C425 1.209 . S
C431 O428 1.258 . S
C431 O433 1.282 . S
O432 Cd424 2.277 . S
O432 C425 1.226 . S
O433 Cd424 2.356 . S
O433 C431 1.282 . S
C434 O435 1.306 . S
C434 O437 1.160 . S
O435 C434 1.306 . S
O435 Cd436 2.228 . S
Cd436 O435 2.228 . S
Cd436 O440 2.273 . S
Cd436 O444 2.277 . S
O437 C434 1.160 . S
O437 Cd438 2.203 . S
Cd438 O437 2.203 . S
Cd438 O440 2.411 . S
Cd438 O441 2.333 . S
Cd438 O442 2.352 . S
Cd438 O446 2.277 . S
Cd438 O447 2.356 . S
C439 O444 1.209 . S
C439 O446 1.226 . S
O440 Cd436 2.273 . S
O440 Cd438 2.411 . S
O440 C443 1.320 . S
O441 Cd438 2.333 . S
O441 C443 1.214 . S
O442 Cd438 2.352 . S
O442 C445 1.258 . S
C443 O440 1.320 . S
C443 O441 1.214 . S
O444 Cd436 2.277 . S
O444 C439 1.209 . S
C445 O442 1.258 . S
C445 O447 1.282 . S
O446 Cd438 2.277 . S
O446 C439 1.226 . S
O447 Cd438 2.356 . S
O447 C445 1.282 . S
C448 O449 1.306 . S
C448 O451 1.160 . S
O449 C448 1.306 . S
O449 Cd450 2.228 . S
Cd450 O449 2.228 . S
Cd450 O454 2.273 . S
Cd450 O458 2.277 . S
O451 C448 1.160 . S
O451 Cd452 2.203 . S
Cd452 O451 2.203 . S
Cd452 O454 2.411 . S
Cd452 O455 2.333 . S
Cd452 O456 2.352 . S
Cd452 O460 2.277 . S
Cd452 O461 2.356 . S
C453 O458 1.209 . S
C453 O460 1.226 . S
O454 Cd450 2.273 . S
O454 Cd452 2.411 . S
O454 C457 1.320 . S
O455 Cd452 2.333 . S
O455 C457 1.214 . S
O456 Cd452 2.352 . S
O456 C459 1.258 . S
C457 O454 1.320 . S
C457 O455 1.214 . S
O458 Cd450 2.277 . S
O458 C453 1.209 . S
C459 O456 1.258 . S
C459 O461 1.282 . S
O460 Cd452 2.277 . S
O460 C453 1.226 . S
O461 Cd452 2.356 . S
O461 C459 1.282 . S
C462 O463 1.306 . S
C462 O465 1.160 . S
O463 C462 1.306 . S
O463 Cd464 2.228 . S
Cd464 O463 2.228 . S
Cd464 O468 2.273 . S
Cd464 O472 2.277 . S
O465 C462 1.160 . S
O465 Cd466 2.203 . S
Cd466 O465 2.203 . S
Cd466 O468 2.411 . S
Cd466 O469 2.333 . S
Cd466 O470 2.352 . S
Cd466 O474 2.277 . S
Cd466 O475 2.356 . S
C467 O472 1.209 . S
C467 O474 1.226 . S
O468 Cd464 2.273 . S
O468 Cd466 2.411 . S
O468 C471 1.320 . S
O469 Cd466 2.333 . S
O469 C471 1.214 . S
O470 Cd466 2.352 . S
O470 C473 1.258 . S
C471 O468 1.320 . S
C471 O469 1.214 . S
O472 Cd464 2.277 . S
O472 C467 1.209 . S
C473 O470 1.258 . S
C473 O475 1.282 . S
O474 Cd466 2.277 . S
O474 C467 1.226 . S
O475 Cd466 2.356 . S
O475 C473 1.282 . S
C476 O477 1.306 . S
C476 O479 1.160 . S
O477 C476 1.306 . S
O477 Cd478 2.228 . S
Cd478 O477 2.228 . S
Cd478 O482 2.273 . S
Cd478 O486 2.277 . S
O479 C476 1.160 . S
O479 Cd480 2.203 . S
Cd480 O479 2.203 . S
Cd480 O482 2.411 . S
Cd480 O483 2.333 . S
Cd480 O484 2.352 . S
Cd480 O488 2.277 . S
Cd480 O489 2.356 . S
C481 O486 1.209 . S
C481 O488 1.226 . S
O482 Cd478 2.273 . S
O482 Cd480 2.411 . S
O482 C485 1.320 . S
O483 Cd480 2.333 . S
O483 C485 1.214 . S
O484 Cd480 2.352 . S
O484 C487 1.258 . S
C485 O482 1.320 . S
C485 O483 1.214 . S
O486 Cd478 2.277 . S
O486 C481 1.209 . S
C487 O484 1.258 . S
C487 O489 1.282 . S
O488 Cd480 2.277 . S
O488 C481 1.226 . S
O489 Cd480 2.356 . S
O489 C487 1.282 . S
C490 O491 1.306 . S
C490 O493 1.160 . S
O491 C490 1.306 . S
O491 Cd492 2.228 . S
Cd492 O491 2.228 . S
Cd492 O496 2.273 . S
Cd492 O500 2.277 . S
O493 C490 1.160 . S
O493 Cd494 2.203 . S
Cd494 O493 2.203 . S
Cd494 O496 2.411 . S
Cd494 O497 2.333 . S
Cd494 O498 2.352 . S
Cd494 O502 2.277 . S
Cd494 O503 2.356 . S
C495 O500 1.209 . S
C495 O502 1.226 . S
O496 Cd492 2.273 . S
O496 Cd494 2.411 . S
O496 C499 1.320 . S
O497 Cd494 2.333 . S
O497 C499 1.214 . S
O498 Cd494 2.352 . S
O498 C501 1.258 . S
C499 O496 1.320 . S
C499 O497 1.214 . S
O500 Cd492 2.277 . S
O500 C495 1.209 . S
C501 O498 1.258 . S
C501 O503 1.282 . S
O502 Cd494 2.277 . S
O502 C495 1.226 . S
O503 Cd494 2.356 . S
O503 C501 1.282 . S
C504 O505 1.306 . S
C504 O507 1.160 . S
O505 C504 1.306 . S
O505 Cd506 2.228 . S
Cd506 O505 2.228 . S
Cd506 O510 2.273 . S
Cd506 O514 2.277 . S
O507 C504 1.160 . S
O507 Cd508 2.203 . S
Cd508 O507 2.203 . S
Cd508 O510 2.411 . S
Cd508 O511 2.333 . S
Cd508 O512 2.352 . S
Cd508 O516 2.277 . S
Cd508 O517 2.356 . S
C509 O514 1.209 . S
C509 O516 1.226 . S
O510 Cd506 2.273 . S
O510 Cd508 2.411 . S
O510 C513 1.320 . S
O511 Cd508 2.333 . S
O511 C513 1.214 . S
O512 Cd508 2.352 . S
O512 C515 1.258 . S
C513 O510 1.320 . S
C513 O511 1.214 . S
O514 Cd506 2.277 . S
O514 C509 1.209 . S
C515 O512 1.258 . S
C515 O517 1.282 . S
O516 Cd508 2.277 . S
O516 C509 1.226 . S
O517 Cd508 2.356 . S
O517 C515 1.282 . S
C518 O519 1.306 . S
C518 O521 1.160 . S
O519 C518 1.306 . S
O519 Cd520 2.228 . S
Cd520 O519 2.228 . S
Cd520 O524 2.273 . S
Cd520 O528 2.277 . S
O521 C518 1.160 . S
O521 Cd522 2.203 . S
Cd522 O521 2.203 . S
Cd522 O524 2.411 . S
Cd522 O525 2.333 . S
Cd522 O526 2.352 . S
Cd522 O530 2.277 . S
Cd522 O531 2.356 . S
C523 O528 1.209 . S
C523 O530 1.226 . S
O524 Cd520 2.273 . S
O524 Cd522 2.411 . S
O524 C527 1.320 . S
O525 Cd522 2.333 . S
O525 C527 1.214 . S
O526 Cd522 2.352 . S
O526 C529 1.258 . S
C527 O524 1.320 . S
C527 O525 1.214 . S
O528 Cd520 2.277 . S
O528 C523 1.209 . S
C529 O526 1.258 . S
C529 O531 1.282 . S
O530 Cd522 2.277 . S
O530 C523 1.226 . S
O531 Cd522 2.356 . S
O531 C529 1.282 . S
C532 O533 1.306 . S
C532 O535 1.160 . S
O533 C532 1.306 . S
O533 Cd534 2.228 . S
Cd534 O533 2.228 . S
Cd534 O538 2.273 . S
Cd534 O542 2.277 . S
O535 C532 1.160 . S
O535 Cd536 2.203 . S
Cd536 O535 2.203 . S
Cd536 O538 2.411 . S
Cd536 O539 2.333 . S
Cd536 O540 2.352 . S
Cd536 O544 2.277 . S
Cd536 O545 2.356 . S
C537 O542 1.209 . S
C537 O544 1.226 . S
O538 Cd534 2.273 . S
O538 Cd536 2.411 . S
O538 C541 1.320 . S
O539 Cd536 2.333 . S
O539 C541 1.214 . S
O540 Cd536 2.352 . S
O540 C543 1.258 . S
C541 O538 1.320 . S
C541 O539 1.214 . S
O542 Cd534 2.277 . S
O542 C537 1.209 . S
C543 O540 1.258 . S
C543 O545 1.282 . S
O544 Cd536 2.277 . S
O544 C537 1.226 . S
O545 Cd536 2.356 . S
O545 C543 1.282 . S
C546 O547 1.306 . S
C546 O549 1.160 . S
O547 C546 1.306 . S
O547 Cd548 2.228 . S
Cd548 O547 2.228 . S
Cd548 O552 2.273 . S
Cd548 O556 2.277 . S
O549 C546 1.160 . S
O549 Cd550 2.203 . S
Cd550 O549 2.203 . S
Cd550 O552 2.411 . S
Cd550 O553 2.333 . S
Cd550 O554 2.352 . S
Cd550 O558 2.277 . S
Cd550 O559 2.356 . S
C551 O556 1.209 . S
C551 O558 1.226 . S
O552 Cd548 2.273 . S
O552 Cd550 2.411 . S
O552 C555 1.320 . S
O553 Cd550 2.333 . S
O553 C555 1.214 . S
O554 Cd550 2.352 . S
O554 C557 1.258 . S
C555 O552 1.320 . S
C555 O553 1.214 . S
O556 Cd548 2.277 . S
O556 C551 1.209 . S
C557 O554 1.258 . S
C557 O559 1.282 . S
O558 Cd550 2.277 . S
O558 C551 1.226 . S
O559 Cd550 2.356 . S
O559 C557 1.282 . S
C560 O561 1.306 . S
C560 O563 1.160 . S
O561 C560 1.306 . S
O561 Cd562 2.228 . S
Cd562 O561 2.228 . S
Cd562 O566 2.273 . S
Cd562 O570 2.277 . S
O563 C560 1.160 . S
O563 Cd564 2.203 . S
Cd564 O563 2.203 . S
Cd564 O566 2.411 . S
Cd564 O567 2.333 . S
Cd564 O568 2.352 . S
Cd564 O572 2.277 . S
Cd564 O573 2.356 . S
C565 O570 1.209 . S
C565 O572 1.226 . S
O566 Cd562 2.273 . S
O566 Cd564 2.411 . S
O566 C569 1.320 . S
O567 Cd564 2.333 . S
O567 C569 1.214 . S
O568 Cd564 2.352 . S
O568 C571 1.258 . S
C569 O566 1.320 . S
C569 O567 1.214 . S
O570 Cd562 2.277 . S
O570 C565 1.209 . S
C571 O568 1.258 . S
C571 O573 1.282 . S
O572 Cd564 2.277 . S
O572 C565 1.226 . S
O573 Cd564 2.356 . S
O573 C571 1.282 . S
C574 O575 1.306 . S
C574 O577 1.160 . S
O575 C574 1.306 . S
O575 Cd576 2.228 . S
Cd576 O575 2.228 . S
Cd576 O580 2.273 . S
Cd576 O584 2.277 . S
O577 C574 1.160 . S
O577 Cd578 2.203 . S
Cd578 O577 2.203 . S
Cd578 O580 2.411 . S
Cd578 O581 2.333 . S
Cd578 O582 2.352 . S
Cd578 O586 2.277 . S
Cd578 O587 2.356 . S
C579 O584 1.209 . S
C579 O586 1.226 . S
O580 Cd576 2.273 . S
O580 Cd578 2.411 . S
O580 C583 1.320 . S
O581 Cd578 2.333 . S
O581 C583 1.214 . S
O582 Cd578 2.352 . S
O582 C585 1.258 . S
C583 O580 1.320 . S
C583 O581 1.214 . S
O584 Cd576 2.277 . S
O584 C579 1.209 . S
C585 O582 1.258 . S
C585 O587 1.282 . S
O586 Cd578 2.277 . S
O586 C579 1.226 . S
O587 Cd578 2.356 . S
O587 C585 1.282 . S
C588 O589 1.306 . S
C588 O591 1.160 . S
O589 C588 1.306 . S
O589 Cd590 2.228 . S
Cd590 O589 2.228 . S
Cd590 O594 2.273 . S
Cd590 O598 2.277 . S
O591 C588 1.160 . S
O591 Cd592 2.203 . S
Cd592 O591 2.203 . S
Cd592 O594 2.411 . S
Cd592 O595 2.333 . S
Cd592 O596 2.352 . S
Cd592 O600 2.277 . S
Cd592 O601 2.356 . S
C593 O598 1.209 . S
C593 O600 1.226 . S
O594 Cd590 2.273 . S
O594 Cd592 2.411 . S
O594 C597 1.320 . S
O595 Cd592 2.333 . S
O595 C597 1.214 . S
O596 Cd592 2.352 . S
O596 C599 1.258 . S
C597 O594 1.320 . S
C597 O595 1.214 . S
O598 Cd590 2.277 . S
O598 C593 1.209 . S
C599 O596 1.258 . S
C599 O601 1.282 . S
O600 Cd592 2.277 . S
O600 C593 1.226 . S
O601 Cd592 2.356 . S
O601 C599 1.282 . S
C602 O603 1.306 . S
C602 O605 1.160 . S
O603 C602 1.306 . S
O603 Cd604 2.228 . S
Cd604 O603 2.228 . S
Cd604 O608 2.273 . S
Cd604 O612 2.277 . S
O605 C602 1.160 . S
O605 Cd606 2.203 . S
Cd606 O605 2.203 . S
Cd606 O608 2.411 . S
Cd606 O609 2.333 . S
Cd606 O610 2.352 . S
Cd606 O614 2.277 . S
Cd606 O615 2.356 . S
C607 O612 1.209 . S
C607 O614 1.226 . S
O608 Cd604 2.273 . S
O608 Cd606 2.411 . S
O608 C611 1.320 . S
O609 Cd606 2.333 . S
O609 C611 1.214 . S
O610 Cd606 2.352 . S
O610 C613 1.258 . S
C611 O608 1.320 . S
C611 O609 1.214 . S
O612 Cd604 2.277 . S
O612 C607 1.209 . S
C613 O610 1.258 . S
C613 O615 1.282 . S
O614 Cd606 2.277 . S
O614 C607 1.226 . S
O615 Cd606 2.356 . S
O615 C613 1.282 . S
C616 O617 1.306 . S
C616 O619 1.160 . S
O617 C616 1.306 . S
O617 Cd618 2.228 . S
Cd618 O617 2.228 . S
Cd618 O622 2.273 . S
Cd618 O626 2.277 . S
O619 C616 1.160 . S
O619 Cd620 2.203 . S
Cd620 O619 2.203 . S
Cd620 O622 2.411 . S
Cd620 O623 2.333 . S
Cd620 O624 2.352 . S
Cd620 O628 2.277 . S
Cd620 O629 2.356 . S
C621 O626 1.209 . S
C621 O628 1.226 . S
O622 Cd618 2.273 . S
O622 Cd620 2.411 . S
O622 C625 1.320 . S
O623 Cd620 2.333 . S
O623 C625 1.214 . S
O624 Cd620 2.352 . S
O624 C627 1.258 . S
C625 O622 1.320 . S
C625 O623 1.214 . S
O626 Cd618 2.277 . S
O626 C621 1.209 . S
C627 O624 1.258 . S
C627 O629 1.282 . S
O628 Cd620 2.277 . S
O628 C621 1.226 . S
O629 Cd620 2.356 . S
O629 C627 1.282 . S
C630 O631 1.306 . S
C630 O633 1.160 . S
O631 C630 1.306 . S
O631 Cd632 2.228 . S
Cd632 O631 2.228 . S
Cd632 O636 2.273 . S
Cd632 O640 2.277 . S
O633 C630 1.160 . S
O633 Cd634 2.203 . S
Cd634 O633 2.203 . S
Cd634 O636 2.411 . S
Cd634 O637 2.333 . S
Cd634 O638 2.352 . S
Cd634 O642 2.277 . S
Cd634 O643 2.356 . S
C635 O640 1.209 . S
C635 O642 1.226 . S
O636 Cd632 2.273 . S
O636 Cd634 2.411 . S
O636 C639 1.320 . S
O637 Cd634 2.333 . S
O637 C639 1.214 . S
O638 Cd634 2.352 . S
O638 C641 1.258 . S
C639 O636 1.320 . S
C639 O637 1.214 . S
O640 Cd632 2.277 . S
O640 C635 1.209 . S
C641 O638 1.258 . S
C641 O643 1.282 . S
O642 Cd634 2.277 . S
O642 C635 1.226 . S
O643 Cd634 2.356 . S
O643 C641 1.282 . S
C644 O645 1.306 . S
C644 O647 1.160 . S
O645 C644 1.306 . S
O645 Cd646 2.228 . S
Cd646 O645 2.228 . S
Cd646 O650 2.273 . S
Cd646 O654 2.277 . S
O647 C644 1.160 . S
O647 Cd648 2.203 . S
Cd648 O647 2.203 . S
Cd648 O650 2.411 . S
Cd648 O651 2.333 . S
Cd648 O652 2.352 . S
Cd648 O656 2.277 . S
Cd648 O657 2.356 . S
C649 O654 1.209 . S
C649 O656 1.226 . S
O650 Cd646 2.273 . S
O650 Cd648 2.411 . S
O650 C653 1.320 . S
O651 Cd648 2.333 . S
O651 C653 1.214 . S
O652 Cd648 2.352 . S
O652 C655 1.258 . S
C653 O650 1.320 . S
C653 O651 1.214 . S
O654 Cd646 2.277 . S
O654 C649 1.209 . S
C655 O652 1.258 . S
C655 O657 1.282 . S
O656 Cd648 2.277 . S
O656 C649 1.226 . S
O657 Cd648 2.356 . S
O657 C655 1.282 . S
C658 O659 1.306 . S
C658 O661 1.160 . S
O659 C658 1.306 . S
O659 Cd660 2.228 . S
Cd660 O659 2.228 . S
Cd660 O664 2.273 . S
Cd660 O668 2.277 . S
O661 C658 1.160 . S
O661 Cd662 2.203 . S
Cd662 O661 2.203 . S
Cd662 O664 2.411 . S
Cd662 O665 2.333 . S
Cd662 O666 2.352 . S
Cd662 O670 2.277 . S
Cd662 O671 2.356 . S
C663 O668 1.209 . S
C663 O670 1.226 . S
O664 Cd660 2.273 . S
O664 Cd662 2.411 . S
O664 C667 1.320 . S
O665 Cd662 2.333 . S
O665 C667 1.214 . S
O666 Cd662 2.352 . S
O666 C669 1.258 . S
C667 O664 1.320 . S
C667 O665 1.214 . S
O668 Cd660 2.277 . S
O668 C663 1.209 . S
C669 O666 1.258 . S
C669 O671 1.282 . S
O670 Cd662 2.277 . S
O670 C663 1.226 . S
O671 Cd662 2.356 . S
O671 C669 1.282 . S
C672 O673 1.306 . S
C672 O675 1.160 . S
O673 C672 1.306 . S
O673 Cd674 2.228 . S
Cd674 O673 2.228 . S
Cd674 O678 2.273 . S
Cd674 O682 2.277 . S
O675 C672 1.160 . S
O675 Cd676 2.203 . S
Cd676 O675 2.203 . S
Cd676 O678 2.411 . S
Cd676 O679 2.333 . S
Cd676 O680 2.352 . S
Cd676 O684 2.277 . S
Cd676 O685 2.356 . S
C677 O682 1.209 . S
C677 O684 1.226 . S
O678 Cd674 2.273 . S
O678 Cd676 2.411 . S
O678 C681 1.320 . S
O679 Cd676 2.333 . S
O679 C681 1.214 . S
O680 Cd676 2.352 . S
O680 C683 1.258 . S
C681 O678 1.320 . S
C681 O679 1.214 . S
O682 Cd674 2.277 . S
O682 C677 1.209 . S
C683 O680 1.258 . S
C683 O685 1.282 . S
O684 Cd676 2.277 . S
O684 C677 1.226 . S
O685 Cd676 2.356 . S
O685 C683 1.282 . S
C686 O687 1.306 . S
C686 O689 1.160 . S
O687 C686 1.306 . S
O687 Cd688 2.228 . S
Cd688 O687 2.228 . S
Cd688 O692 2.273 . S
Cd688 O696 2.277 . S
O689 C686 1.160 . S
O689 Cd690 2.203 . S
Cd690 O689 2.203 . S
Cd690 O692 2.411 . S
Cd690 O693 2.333 . S
Cd690 O694 2.352 . S
Cd690 O698 2.277 . S
Cd690 O699 2.356 . S
C691 O696 1.209 . S
C691 O698 1.226 . S
O692 Cd688 2.273 . S
O692 Cd690 2.411 . S
O692 C695 1.320 . S
O693 Cd690 2.333 . S
O693 C695 1.214 . S
O694 Cd690 2.352 . S
O694 C697 1.258 . S
C695 O692 1.320 . S
C695 O693 1.214 . S
O696 Cd688 2.277 . S
O696 C691 1.209 . S
C697 O694 1.258 . S
C697 O699 1.282 . S
O698 Cd690 2.277 . S
O698 C691 1.226 . S
O699 Cd690 2.356 . S
O699 C697 1.282 . S
C700 O701 1.306 . S
C700 O703 1.160 . S
O701 C700 1.306 . S
O701 Cd702 2.228 . S
Cd702 O701 2.228 . S
Cd702 O706 2.273 . S
Cd702 O710 2.277 . S
O703 C700 1.160 . S
O703 Cd704 2.203 . S
Cd704 O703 2.203 . S
Cd704 O706 2.411 . S
Cd704 O707 2.333 . S
Cd704 O708 2.352 . S
Cd704 O712 2.277 . S
Cd704 O713 2.356 . S
C705 O710 1.209 . S
C705 O712 1.226 . S
O706 Cd702 2.273 . S
O706 Cd704 2.411 . S
O706 C709 1.320 . S
O707 Cd704 2.333 . S
O707 C709 1.214 . S
O708 Cd704 2.352 . S
O708 C711 1.258 . S
C709 O706 1.320 . S
C709 O707 1.214 . S
O710 Cd702 2.277 . S
O710 C705 1.209 . S
C711 O708 1.258 . S
C711 O713 1.282 . S
O712 Cd704 2.277 . S
O712 C705 1.226 . S
O713 Cd704 2.356 . S
O713 C711 1.282 . S
C714 O715 1.306 . S
C714 O717 1.160 . S
O715 C714 1.306 . S
O715 Cd716 2.228 . S
Cd716 O715 2.228 . S
Cd716 O720 2.273 . S
Cd716 O724 2.277 . S
O717 C714 1.160 . S
O717 Cd718 2.203 . S
Cd718 O717 2.203 . S
Cd718 O720 2.411 . S
Cd718 O721 2.333 . S
Cd718 O722 2.352 . S
Cd718 O726 2.277 . S
Cd718 O727 2.356 . S
C719 O724 1.209 . S
C719 O726 1.226 . S
O720 Cd716 2.273 . S
O720 Cd718 2.411 . S
O720 C723 1.320 . S
O721 Cd718 2.333 . S
O721 C723 1.214 . S
O722 Cd718 2.352 . S
O722 C725 1.258 . S
C723 O720 1.320 . S
C723 O721 1.214 . S
O724 Cd716 2.277 . S
O724 C719 1.209 . S
C725 O722 1.258 . S
C725 O727 1.282 . S
O726 Cd718 2.277 . S
O726 C719 1.226 . S
O727 Cd718 2.356 . S
O727 C725 1.282 . S
C728 O729 1.306 . S
C728 O731 1.160 . S
O729 C728 1.306 . S
O729 Cd730 2.228 . S
Cd730 O729 2.228 . S
Cd730 O734 2.273 . S
Cd730 O738 2.277 . S
O731 C728 1.160 . S
O731 Cd732 2.203 . S
Cd732 O731 2.203 . S
Cd732 O734 2.411 . S
Cd732 O735 2.333 . S
Cd732 O736 2.352 . S
Cd732 O740 2.277 . S
Cd732 O741 2.356 . S
C733 O738 1.209 . S
C733 O740 1.226 . S
O734 Cd730 2.273 . S
O734 Cd732 2.411 . S
O734 C737 1.320 . S
O735 Cd732 2.333 . S
O735 C737 1.214 . S
O736 Cd732 2.352 . S
O736 C739 1.258 . S
C737 O734 1.320 . S
C737 O735 1.214 . S
O738 Cd730 2.277 . S
O738 C733 1.209 . S
C739 O736 1.258 . S
C739 O741 1.282 . S
O740 Cd732 2.277 . S
O740 C733 1.226 . S
O741 Cd732 2.356 . S
O741 C739 1.282 . S
C742 O743 1.306 . S
C742 O745 1.160 . S
O743 C742 1.306 . S
O743 Cd744 2.228 . S
Cd744 O743 2.228 . S
Cd744 O748 2.273 . S
Cd744 O752 2.277 . S
O745 C742 1.160 . S
O745 Cd746 2.203 . S
Cd746 O745 2.203 . S
Cd746 O748 2.411 . S
Cd746 O749 2.333 . S
Cd746 O750 2.352 . S
Cd746 O754 2.277 . S
Cd746 O755 2.356 . S
C747 O752 1.209 . S
C747 O754 1.226 . S
O748 Cd744 2.273 . S
O748 Cd746 2.411 . S
O748 C751 1.320 . S
O749 Cd746 2.333 . S
O749 C751 1.214 . S
O750 Cd746 2.352 . S
O750 C753 1.258 . S
C751 O748 1.320 . S
C751 O749 1.214 . S
O752 Cd744 2.277 . S
O752 C747 1.209 . S
C753 O750 1.258 . S
C753 O755 1.282 . S
O754 Cd746 2.277 . S
O754 C747 1.226 . S
O755 Cd746 2.356 . S
O755 C753 1.282 . S
C756 O757 1.306 . S
C756 O759 1.160 . S
O757 C756 1.306 . S
O757 Cd758 2.228 . S
Cd758 O757 2.228 . S
Cd758 O762 2.273 . S
Cd758 O766 2.277 . S
O759 C756 1.160 . S
O759 Cd760 2.203 . S
Cd760 O759 2.203 . S
Cd760 O762 2.411 . S
Cd760 O763 2.333 . S
Cd760 O764 2.352 . S
Cd760 O768 2.277 . S
Cd760 O769 2.356 . S
C761 O766 1.209 . S
C761 O768 1.226 . S
O762 Cd758 2.273 . S
O762 Cd760 2.411 . S
O762 C765 1.320 . S
O763 Cd760 2.333 . S
O763 C765 1.214 . S
O764 Cd760 2.352 . S
O764 C767 1.258 . S
C765 O762 1.320 . S
C765 O763 1.214 . S
O766 Cd758 2.277 . S
O766 C761 1.209 . S
C767 O764 1.258 . S
C767 O769 1.282 . S
O768 Cd760 2.277 . S
O768 C761 1.226 . S
O769 Cd760 2.356 . S
O769 C767 1.282 . S
C770 O771 1.306 . S
C770 O773 1.160 . S
O771 C770 1.306 . S
O771 Cd772 2.228 . S
Cd772 O771 2.228 . S
Cd772 O776 2.273 . S
Cd772 O780 2.277 . S
O773 C770 1.160 . S
O773 Cd774 2.203 . S
Cd774 O773 2.203 . S
Cd774 O776 2.411 . S
Cd774 O777 2.333 . S
Cd774 O778 2.352 . S
Cd774 O782 2.277 . S
Cd774 O783 2.356 . S
C775 O780 1.209 . S
C775 O782 1.226 . S
O776 Cd772 2.273 . S
O776 Cd774 2.411 . S
O776 C779 1.320 . S
O777 Cd774 2.333 . S
O777 C779 1.214 . S
O778 Cd774 2.352 . S
O778 C781 1.258 . S
C779 O776 1.320 . S
C779 O777 1.214 . S
O780 Cd772 2.277 . S
O780 C775 1.209 . S
C781 O778 1.258 . S
C781 O783 1.282 . S
O782 Cd774 2.277 . S
O782 C775 1.226 . S
O783 Cd774 2.356 . S
O783 C781 1.282 . S
C784 O785 1.306 . S
C784 O787 1.160 . S
O785 C784 1.306 . S
O785 Cd786 2.228 . S
Cd786 O785 2.228 . S
Cd786 O790 2.273 . S
Cd786 O794 2.277 . S
O787 C784 1.160 . S
O787 Cd788 2.203 . S
Cd788 O787 2.203 . S
Cd788 O790 2.411 . S
Cd788 O791 2.333 . S
Cd788 O792 2.352 . S
Cd788 O796 2.277 . S
Cd788 O797 2.356 . S
C789 O794 1.209 . S
C789 O796 1.226 . S
O790 Cd786 2.273 . S
O790 Cd788 2.411 . S
O790 C793 1.320 . S
O791 Cd788 2.333 . S
O791 C793 1.214 . S
O792 Cd788 2.352 . S
O792 C795 1.258 . S
C793 O790 1.320 . S
C793 O791 1.214 . S
O794 Cd786 2.277 . S
O794 C789 1.209 . S
C795 O792 1.258 . S
C795 O797 1.282 . S
O796 Cd788 2.277 . S
O796 C789 1.226 . S
O797 Cd788 2.356 . S
O797 C795 1.282 . S
C798 O799 1.306 . S
C798 O801 1.160 . S
O799 C798 1.306 . S
O799 Cd800 2.228 . S
Cd800 O799 2.228 . S
Cd800 O804 2.273 . S
Cd800 O808 2.277 . S
O801 C798 1.160 . S
O801 Cd802 2.203 . S
Cd802 O801 2.203 . S
Cd802 O804 2.411 . S
Cd802 O805 2.333 . S
Cd802 O806 2.352 . S
Cd802 O810 2.277 . S
Cd802 O811 2.356 . S
C803 O808 1.209 . S
C803 O810 1.226 . S
O804 Cd800 2.273 . S
O804 Cd802 2.411 . S
O804 C807 1.320 . S
O805 Cd802 2.333 . S
O805 C807 1.214 . S
O806 Cd802 2.352 . S
O806 C809 1.258 . S
C807 O804 1.320 . S
C807 O805 1.214 . S
O808 Cd800 2.277 . S
O808 C803 1.209 . S
C809 O806 1.258 . S
C809 O811 1.282 . S
O810 Cd802 2.277 . S
O810 C803 1.226 . S
O811 Cd802 2.356 . S
O811 C809 1.282 . S
C812 O813 1.306 . S
C812 O815 1.160 . S
O813 C812 1.306 . S
O813 Cd814 2.228 . S
Cd814 O813 2.228 . S
Cd814 O818 2.273 . S
Cd814 O822 2.277 . S
O815 C812 1.160 . S
O815 Cd816 2.203 . S
Cd816 O815 2.203 . S
Cd816 O818 2.411 . S
Cd816 O819 2.333 . S
Cd816 O820 2.352 . S
Cd816 O824 2.277 . S
Cd816 O825 2.356 . S
C817 O822 1.209 . S
C817 O824 1.226 . S
O818 Cd814 2.273 . S
O818 Cd816 2.411 . S
O818 C821 1.320 . S
O819 Cd816 2.333 . S
O819 C821 1.214 . S
O820 Cd816 2.352 . S
O820 C823 1.258 . S
C821 O818 1.320 . S
C821 O819 1.214 . S
O822 Cd814 2.277 . S
O822 C817 1.209 . S
C823 O820 1.258 . S
C823 O825 1.282 . S
O824 Cd816 2.277 . S
O824 C817 1.226 . S
O825 Cd816 2.356 . S
O825 C823 1.282 . S
C826 O827 1.306 . S
C826 O829 1.160 . S
O827 C826 1.306 . S
O827 Cd828 2.228 . S
Cd828 O827 2.228 . S
Cd828 O832 2.273 . S
Cd828 O836 2.277 . S
O829 C826 1.160 . S
O829 Cd830 2.203 . S
Cd830 O829 2.203 . S
Cd830 O832 2.411 . S
Cd830 O833 2.333 . S
Cd830 O834 2.352 . S
Cd830 O838 2.277 . S
Cd830 O839 2.356 . S
C831 O836 1.209 . S
C831 O838 1.226 . S
O832 Cd828 2.273 . S
O832 Cd830 2.411 . S
O832 C835 1.320 . S
O833 Cd830 2.333 . S
O833 C835 1.214 . S
O834 Cd830 2.352 . S
O834 C837 1.258 . S
C835 O832 1.320 . S
C835 O833 1.214 . S
O836 Cd828 2.277 . S
O836 C831 1.209 . S
C837 O834 1.258 . S
C837 O839 1.282 . S
O838 Cd830 2.277 . S
O838 C831 1.226 . S
O839 Cd830 2.356 . S
O839 C837 1.282 . S
C840 O841 1.306 . S
C840 O843 1.160 . S
O841 C840 1.306 . S
O841 Cd842 2.228 . S
Cd842 O841 2.228 . S
Cd842 O846 2.273 . S
Cd842 O850 2.277 . S
O843 C840 1.160 . S
O843 Cd844 2.203 . S
Cd844 O843 2.203 . S
Cd844 O846 2.411 . S
Cd844 O847 2.333 . S
Cd844 O848 2.352 . S
Cd844 O852 2.277 . S
Cd844 O853 2.356 . S
C845 O850 1.209 . S
C845 O852 1.226 . S
O846 Cd842 2.273 . S
O846 Cd844 2.411 . S
O846 C849 1.320 . S
O847 Cd844 2.333 . S
O847 C849 1.214 . S
O848 Cd844 2.352 . S
O848 C851 1.258 . S
C849 O846 1.320 . S
C849 O847 1.214 . S
O850 Cd842 2.277 . S
O850 C845 1.209 . S
C851 O848 1.258 . S
C851 O853 1.282 . S
O852 Cd844 2.277 . S
O852 C845 1.226 . S
O853 Cd844 2.356 . S
O853 C851 1.282 . S
C854 O855 1.306 . S
C854 O857 1.160 . S
O855 C854 1.306 . S
O855 Cd856 2.228 . S
Cd856 O855 2.228 . S
Cd856 O860 2.273 . S
Cd856 O864 2.277 . S
O857 C854 1.160 . S
O857 Cd858 2.203 . S
Cd858 O857 2.203 . S
Cd858 O860 2.411 . S
Cd858 O861 2.333 . S
Cd858 O862 2.352 . S
Cd858 O866 2.277 . S
Cd858 O867 2.356 . S
C859 O864 1.209 . S
C859 O866 1.226 . S
O860 Cd856 2.273 . S
O860 Cd858 2.411 . S
O860 C863 1.320 . S
O861 Cd858 2.333 . S
O861 C863 1.214 . S
O862 Cd858 2.352 . S
O862 C865 1.258 . S
C863 O860 1.320 . S
C863 O861 1.214 . S
O864 Cd856 2.277 . S
O864 C859 1.209 . S
C865 O862 1.258 . S
C865 O867 1.282 . S
O866 Cd858 2.277 . S
O866 C859 1.226 . S
O867 Cd858 2.356 . S
O867 C865 1.282 . S
C868 O869 1.306 . S
C868 O871 1.160 . S
O869 C868 1.306 . S
O869 Cd870 2.228 . S
Cd870 O869 2.228 . S
Cd870 O874 2.273 . S
Cd870 O878 2.277 . S
O871 C868 1.160 . S
O871 Cd872 2.203 . S
Cd872 O871 2.203 . S
Cd872 O874 2.411 . S
Cd872 O875 2.333 . S
Cd872 O876 2.352 . S
Cd872 O880 2.277 . S
Cd872 O881 2.356 . S
C873 O878 1.209 . S
C873 O880 1.226 . S
O874 Cd870 2.273 . S
O874 Cd872 2.411 . S
O874 C877 1.320 . S
O875 Cd872 2.333 . S
O875 C877 1.214 . S
O876 Cd872 2.352 . S
O876 C879 1.258 . S
C877 O874 1.320 . S
C877 O875 1.214 . S
O878 Cd870 2.277 . S
O878 C873 1.209 . S
C879 O876 1.258 . S
C879 O881 1.282 . S
O880 Cd872 2.277 . S
O880 C873 1.226 . S
O881 Cd872 2.356 . S
O881 C879 1.282 . S
C882 O883 1.306 . S
C882 O885 1.160 . S
O883 C882 1.306 . S
O883 Cd884 2.228 . S
Cd884 O883 2.228 . S
Cd884 O888 2.273 . S
Cd884 O892 2.277 . S
O885 C882 1.160 . S
O885 Cd886 2.203 . S
Cd886 O885 2.203 . S
Cd886 O888 2.411 . S
Cd886 O889 2.333 . S
Cd886 O890 2.352 . S
Cd886 O894 2.277 . S
Cd886 O895 2.356 . S
C887 O892 1.209 . S
C887 O894 1.226 . S
O888 Cd884 2.273 . S
O888 Cd886 2.411 . S
O888 C891 1.320 . S
O889 Cd886 2.333 . S
O889 C891 1.214 . S
O890 Cd886 2.352 . S
O890 C893 1.258 . S
C891 O888 1.320 . S
C891 O889 1.214 . S
O892 Cd884 2.277 . S
O892 C887 1.209 . S
C893 O890 1.258 . S
C893 O895 1.282 . S
O894 Cd886 2.277 . S
O894 C887 1.226 . S
O895 Cd886 2.356 . S
O895 C893 1.282 . S
C896 O897 1.306 . S
C896 O899 1.160 . S
O897 C896 1.306 . S
O897 Cd898 2.228 . S
Cd898 O897 2.228 . S
Cd898 O902 2.273 . S
Cd898 O906 2.277 . S
O899 C896 1.160 . S
O899 Cd900 2.203 . S
Cd900 O899 2.203 . S
Cd900 O902 2.411 . S
Cd900 O903 2.333 . S
Cd900 O904 2.352 . S
Cd900 O908 2.277 . S
Cd900 O909 2.356 . S
C901 O906 1.209 . S
C901 O908 1.226 . S
O902 Cd898 2.273 . S
O902 Cd900 2.411 . S
O902 C905 1.320 . S
O903 Cd900 2.333 . S
O903 C905 1.214 . S
O904 Cd900 2.352 . S
O904 C907 1.258 . S
C905 O902 1.320 . S
C905 O903 1.214 . S
O906 Cd898 2.277 . S
O906 C901 1.209 . S
C907 O904 1.258 . S
C907 O909 1.282 . S
O908 Cd900 2.277 . S
O908 C901 1.226 . S
O909 Cd900 2.356 . S
O909 C907 1.282 . S
C910 O911 1.306 . S
C910 O913 1.160 . S
O911 C910 1.306 . S
O911 Cd912 2.228 . S
Cd912 O911 2.228 . S
Cd912 O916 2.273 . S
Cd912 O920 2.277 . S
O913 C910 1.160 . S
O913 Cd914 2.203 . S
Cd914 O913 2.203 . S
Cd914 O916 2.411 . S
Cd914 O917 2.333 . S
Cd914 O918 2.352 . S
Cd914 O922 2.277 . S
Cd914 O923 2.356 . S
C915 O920 1.209 . S
C915 O922 1.226 . S
O916 Cd912 2.273 . S
O916 Cd914 2.411 . S
O916 C919 1.320 . S
O917 Cd914 2.333 . S
O917 C919 1.214 . S
O918 Cd914 2.352 . S
O918 C921 1.258 . S
C919 O916 1.320 . S
C919 O917 1.214 . S
O920 Cd912 2.277 . S
O920 C915 1.209 . S
C921 O918 1.258 . S
C921 O923 1.282 . S
O922 Cd914 2.277 . S
O922 C915 1.226 . S
O923 Cd914 2.356 . S
O923 C921 1.282 . S
C924 O925 1.306 . S
C924 O927 1.160 . S
O925 C924 1.306 . S
O925 Cd926 2.228 . S
Cd926 O925 2.228 . S
Cd926 O930 2.273 . S
Cd926 O934 2.277 . S
O927 C924 1.160 . S
O927 Cd928 2.203 . S
Cd928 O927 2.203 . S
Cd928 O930 2.411 . S
Cd928 O931 2.333 . S
Cd928 O932 2.352 . S
Cd928 O936 2.277 . S
Cd928 O937 2.356 . S
C929 O934 1.209 . S
C929 O936 1.226 . S
O930 Cd926 2.273 . S
O930 Cd928 2.411 . S
O930 C933 1.320 . S
O931 Cd928 2.333 . S
O931 C933 1.214 . S
O932 Cd928 2.352 . S
O932 C935 1.258 . S
C933 O930 1.320 . S
C933 O931 1.214 . S
O934 Cd926 2.277 . S
O934 C929 1.209 . S
C935 O932 1.258 . S
C935 O937 1.282 . S
O936 Cd928 2.277 . S
O936 C929 1.226 . S
O937 Cd928 2.356 . S
O937 C935 1.282 . S
C938 O939 1.306 . S
C938 O941 1.160 . S
O939 C938 1.306 . S
O939 Cd940 2.228 . S
Cd940 O939 2.228 . S
Cd940 O944 2.273 . S
Cd940 O948 2.277 . S
O941 C938 1.160 . S
O941 Cd942 2.203 . S
Cd942 O941 2.203 . S
Cd942 O944 2.411 . S
Cd942 O945 2.333 . S
Cd942 O946 2.352 . S
Cd942 O950 2.277 . S
Cd942 O951 2.356 . S
C943 O948 1.209 . S
C943 O950 1.226 . S
O944 Cd940 2.273 . S
O944 Cd942 2.411 . S
O944 C947 1.320 . S
O945 Cd942 2.333 . S
O945 C947 1.214 . S
O946 Cd942 2.352 . S
O946 C949 1.258 . S
C947 O944 1.320 . S
C947 O945 1.214 . S
O948 Cd940 2.277 . S
O948 C943 1.209 . S
C949 O946 1.258 . S
C949 O951 1.282 . S
O950 Cd942 2.277 . S
O950 C943 1.226 . S
O951 Cd942 2.356 . S
O951 C949 1.282 . S
C952 O953 1.306 . S
C952 O955 1.160 . S
O953 C952 1.306 . S
O953 Cd954 2.228 . S
Cd954 O953 2.228 . S
Cd954 O958 2.273 . S
Cd954 O962 2.277 . S
O955 C952 1.160 . S
O955 Cd956 2.203 . S
Cd956 O955 2.203 . S
Cd956 O958 2.411 . S
Cd956 O959 2.333 . S
Cd956 O960 2.352 . S
Cd956 O964 2.277 . S
Cd956 O965 2.356 . S
C957 O962 1.209 . S
C957 O964 1.226 . S
O958 Cd954 2.273 . S
O958 Cd956 2.411 . S
O958 C961 1.320 . S
O959 Cd956 2.333 . S
O959 C961 1.214 . S
O960 Cd956 2.352 . S
O960 C963 1.258 . S
C961 O958 1.320 . S
C961 O959 1.214 . S
O962 Cd954 2.277 . S
O962 C957 1.209 . S
C963 O960 1.258 . S
C963 O965 1.282 . S
O964 Cd956 2.277 . S
O964 C957 1.226 . S
O965 Cd956 2.356 . S
O965 C963 1.282 . S
C966 O967 1.306 . S
C966 O969 1.160 . S
O967 C966 1.306 . S
O967 Cd968 2.228 . S
Cd968 O967 2.228 . S
Cd968 O972 2.273 . S
Cd968 O976 2.277 . S
O969 C966 1.160 . S
O969 Cd970 2.203 . S
Cd970 O969 2.203 . S
Cd970 O972 2.411 . S
Cd970 O973 2.333 . S
Cd970 O974 2.352 . S
Cd970 O978 2.277 . S
Cd970 O979 2.356 . S
C971 O976 1.209 . S
C971 O978 1.226 . S
O972 Cd968 2.273 . S
O972 Cd970 2.411 . S
O972 C975 1.320 . S
O973 Cd970 2.333 . S
O973 C975 1.214 . S
O974 Cd970 2.352 . S
O974 C977 1.258 . S
C975 O972 1.320 . S
C975 O973 1.214 . S
O976 Cd968 2.277 . S
O976 C971 1.209 . S
C977 O974 1.258 . S
C977 O979 1.282 . S
O978 Cd970 2.277 . S
O978 C971 1.226 . S
O979 Cd970 2.356 . S
O979 C977 1.282 . S
C980 O981 1.306 . S
C980 O983 1.160 . S
O981 C980 1.306 . S
O981 Cd982 2.228 . S
Cd982 O981 2.228 . S
Cd982 O986 2.273 . S
Cd982 O990 2.277 . S
O983 C980 1.160 . S
O983 Cd984 2.203 . S
Cd984 O983 2.203 . S
Cd984 O986 2.411 . S
Cd984 O987 2.333 . S
Cd984 O988 2.352 . S
Cd984 O992 2.277 . S
Cd984 O993 2.356 . S
C985 O990 1.209 . S
C985 O992 1.226 . S
O986 Cd982 2.273 . S
O986 Cd984 2.411 . S
O986 C989 1.320 . S
O987 Cd984 2.333 . S
O987 C989 1.214 . S
O988 Cd984 2.352 . S
O988 C991 1.258 . S
C989 O986 1.320 . S
C989 O987 1.214 . S
O990 Cd982 2.277 . S
O990 C985 1.209 . S
C991 O988 1.258 . S
C991 O993 1.282 . S
O992 Cd984 2.277 . S
O992 C985 1.226 . S
O993 Cd984 2.356 . S
O993 C991 1.282 . S
C994 O995 1.306 . S
C994 O997 1.160 . S
O995 C994 1.306 . S
O995 Cd996 2.228 . S
Cd996 O995 2.228 . S
Cd996 O1000 2.273 . S
Cd996 O1004 2.277 . S
O997 C994 1.160 . S
O997 Cd998 2.203 . S
Cd998 O997 2.203 . S
Cd998 O1000 2.411 . S
Cd998 O1001 2.333 . S
Cd998 O1002 2.352 . S
Cd998 O1006 2.277 . S
Cd998 O1007 2.356 . S
C999 O1004 1.209 . S
C999 O1006 1.226 . S
O1000 Cd996 2.273 . S
O1000 Cd998 2.411 . S
O1000 C1003 1.320 . S
O1001 Cd998 2.333 . S
O1001 C1003 1.214 . S
O1002 Cd998 2.352 . S
O1002 C1005 1.258 . S
C1003 O1000 1.320 . S
C1003 O1001 1.214 . S
O1004 Cd996 2.277 . S
O1004 C999 1.209 . S
C1005 O1002 1.258 . S
C1005 O1007 1.282 . S
O1006 Cd998 2.277 . S
O1006 C999 1.226 . S
O1007 Cd998 2.356 . S
O1007 C1005 1.282 . S
C1008 O1009 1.306 . S
C1008 O1011 1.160 . S
O1009 C1008 1.306 . S
O1009 Cd1010 2.228 . S
Cd1010 O1009 2.228 . S
Cd1010 O1014 2.273 . S
Cd1010 O1018 2.277 . S
O1011 C1008 1.160 . S
O1011 Cd1012 2.203 . S
Cd1012 O1011 2.203 . S
Cd1012 O1014 2.411 . S
Cd1012 O1015 2.333 . S
Cd1012 O1016 2.352 . S
Cd1012 O1020 2.277 . S
Cd1012 O1021 2.356 . S
C1013 O1018 1.209 . S
C1013 O1020 1.226 . S
O1014 Cd1010 2.273 . S
O1014 Cd1012 2.411 . S
O1014 C1017 1.320 . S
O1015 Cd1012 2.333 . S
O1015 C1017 1.214 . S
O1016 Cd1012 2.352 . S
O1016 C1019 1.258 . S
C1017 O1014 1.320 . S
C1017 O1015 1.214 . S
O1018 Cd1010 2.277 . S
O1018 C1013 1.209 . S
C1019 O1016 1.258 . S
C1019 O1021 1.282 . S
O1020 Cd1012 2.277 . S
O1020 C1013 1.226 . S
O1021 Cd1012 2.356 . S
O1021 C1019 1.282 . S
C1022 O1023 1.306 . S
C1022 O1025 1.160 . S
O1023 C1022 1.306 . S
O1023 Cd1024 2.228 . S
Cd1024 O1023 2.228 . S
Cd1024 O1028 2.273 . S
Cd1024 O1032 2.277 . S
O1025 C1022 1.160 . S
O1025 Cd1026 2.203 . S
Cd1026 O1025 2.203 . S
Cd1026 O1028 2.411 . S
Cd1026 O1029 2.333 . S
Cd1026 O1030 2.352 . S
Cd1026 O1034 2.277 . S
Cd1026 O1035 2.356 . S
C1027 O1032 1.209 . S
C1027 O1034 1.226 . S
O1028 Cd1024 2.273 . S
O1028 Cd1026 2.411 . S
O1028 C1031 1.320 . S
O1029 Cd1026 2.333 . S
O1029 C1031 1.214 . S
O1030 Cd1026 2.352 . S
O1030 C1033 1.258 . S
C1031 O1028 1.320 . S
C1031 O1029 1.214 . S
O1032 Cd1024 2.277 . S
O1032 C1027 1.209 . S
C1033 O1030 1.258 . S
C1033 O1035 1.282 . S
O1034 Cd1026 2.277 . S
O1034 C1027 1.226 . S
O1035 Cd1026 2.356 . S
O1035 C1033 1.282 . S
C1036 O1037 1.306 . S
C1036 O1039 1.160 . S
O1037 C1036 1.306 . S
O1037 Cd1038 2.228 . S
Cd1038 O1037 2.228 . S
Cd1038 O1042 2.273 . S
Cd1038 O1046 2.277 . S
O1039 C1036 1.160 . S
O1039 Cd1040 2.203 . S
Cd1040 O1039 2.203 . S
Cd1040 O1042 2.411 . S
Cd1040 O1043 2.333 . S
Cd1040 O1044 2.352 . S
Cd1040 O1048 2.277 . S
Cd1040 O1049 2.356 . S
C1041 O1046 1.209 . S
C1041 O1048 1.226 . S
O1042 Cd1038 2.273 . S
O1042 Cd1040 2.411 . S
O1042 C1045 1.320 . S
O1043 Cd1040 2.333 . S
O1043 C1045 1.214 . S
O1044 Cd1040 2.352 . S
O1044 C1047 1.258 . S
C1045 O1042 1.320 . S
C1045 O1043 1.214 . S
O1046 Cd1038 2.277 . S
O1046 C1041 1.209 . S
C1047 O1044 1.258 . S
C1047 O1049 1.282 . S
O1048 Cd1040 2.277 . S
O1048 C1041 1.226 . S
O1049 Cd1040 2.356 . S
O1049 C1047 1.282 . S
C1050 O1051 1.306 . S
C1050 O1053 1.160 . S
O1051 C1050 1.306 . S
O1051 Cd1052 2.228 . S
Cd1052 O1051 2.228 . S
Cd1052 O1056 2.273 . S
Cd1052 O1060 2.277 . S
O1053 C1050 1.160 . S
O1053 Cd1054 2.203 . S
Cd1054 O1053 2.203 . S
Cd1054 O1056 2.411 . S
Cd1054 O1057 2.333 . S
Cd1054 O1058 2.352 . S
Cd1054 O1062 2.277 . S
Cd1054 O1063 2.356 . S
C1055 O1060 1.209 . S
C1055 O1062 1.226 . S
O1056 Cd1052 2.273 . S
O1056 Cd1054 2.411 . S
O1056 C1059 1.320 . S
O1057 Cd1054 2.333 . S
O1057 C1059 1.214 . S
O1058 Cd1054 2.352 . S
O1058 C1061 1.258 . S
C1059 O1056 1.320 . S
C1059 O1057 1.214 . S
O1060 Cd1052 2.277 . S
O1060 C1055 1.209 . S
C1061 O1058 1.258 . S
C1061 O1063 1.282 . S
O1062 Cd1054 2.277 . S
O1062 C1055 1.226 . S
O1063 Cd1054 2.356 . S
O1063 C1061 1.282 . S
C1064 O1065 1.306 . S
C1064 O1067 1.160 . S
O1065 C1064 1.306 . S
O1065 Cd1066 2.228 . S
Cd1066 O1065 2.228 . S
Cd1066 O1070 2.273 . S
Cd1066 O1074 2.277 . S
O1067 C1064 1.160 . S
O1067 Cd1068 2.203 . S
Cd1068 O1067 2.203 . S
Cd1068 O1070 2.411 . S
Cd1068 O1071 2.333 . S
Cd1068 O1072 2.352 . S
Cd1068 O1076 2.277 . S
Cd1068 O1077 2.356 . S
C1069 O1074 1.209 . S
C1069 O1076 1.226 . S
O1070 Cd1066 2.273 . S
O1070 Cd1068 2.411 . S
O1070 C1073 1.320 . S
O1071 Cd1068 2.333 . S
O1071 C1073 1.214 . S
O1072 Cd1068 2.352 . S
O1072 C1075 1.258 . S
C1073 O1070 1.320 . S
C1073 O1071 1.214 . S
O1074 Cd1066 2.277 . S
O1074 C1069 1.209 . S
C1075 O1072 1.258 . S
C1075 O1077 1.282 . S
O1076 Cd1068 2.277 . S
O1076 C1069 1.226 . S
O1077 Cd1068 2.356 . S
O1077 C1075 1.282 . S
C1078 O1079 1.306 . S
C1078 O1081 1.160 . S
O1079 C1078 1.306 . S
O1079 Cd1080 2.228 . S
Cd1080 O1079 2.228 . S
Cd1080 O1084 2.273 . S
Cd1080 O1088 2.277 . S
O1081 C1078 1.160 . S
O1081 Cd1082 2.203 . S
Cd1082 O1081 2.203 . S
Cd1082 O1084 2.411 . S
Cd1082 O1085 2.333 . S
Cd1082 O1086 2.352 . S
Cd1082 O1090 2.277 . S
Cd1082 O1091 2.356 . S
C1083 O1088 1.209 . S
C1083 O1090 1.226 . S
O1084 Cd1080 2.273 . S
O1084 Cd1082 2.411 . S
O1084 C1087 1.320 . S
O1085 Cd1082 2.333 . S
O1085 C1087 1.214 . S
O1086 Cd1082 2.352 . S
O1086 C1089 1.258 . S
C1087 O1084 1.320 . S
C1087 O1085 1.214 . S
O1088 Cd1080 2.277 . S
O1088 C1083 1.209 . S
C1089 O1086 1.258 . S
C1089 O1091 1.282 . S
O1090 Cd1082 2.277 . S
O1090 C1083 1.226 . S
O1091 Cd1082 2.356 . S
O1091 C1089 1.282 . S
C1092 O1093 1.306 . S
C1092 O1095 1.160 . S
O1093 C1092 1.306 . S
O1093 Cd1094 2.228 . S
Cd1094 O1093 2.228 . S
Cd1094 O1098 2.273 . S
Cd1094 O1102 2.277 . S
O1095 C1092 1.160 . S
O1095 Cd1096 2.203 . S
Cd1096 O1095 2.203 . S
Cd1096 O1098 2.411 . S
Cd1096 O1099 2.333 . S
Cd1096 O1100 2.352 . S
Cd1096 O1104 2.277 . S
Cd1096 O1105 2.356 . S
C1097 O1102 1.209 . S
C1097 O1104 1.226 . S
O1098 Cd1094 2.273 . S
O1098 Cd1096 2.411 . S
O1098 C1101 1.320 . S
O1099 Cd1096 2.333 . S
O1099 C1101 1.214 . S
O1100 Cd1096 2.352 . S
O1100 C1103 1.258 . S
C1101 O1098 1.320 . S
C1101 O1099 1.214 . S
O1102 Cd1094 2.277 . S
O1102 C1097 1.209 . S
C1103 O1100 1.258 . S
C1103 O1105 1.282 . S
O1104 Cd1096 2.277 . S
O1104 C1097 1.226 . S
O1105 Cd1096 2.356 . S
O1105 C1103 1.282 . S
C1106 O1107 1.306 . S
C1106 O1109 1.160 . S
O1107 C1106 1.306 . S
O1107 Cd1108 2.228 . S
Cd1108 O1107 2.228 . S
Cd1108 O1112 2.273 . S
Cd1108 O1116 2.277 . S
O1109 C1106 1.160 . S
O1109 Cd1110 2.203 . S
Cd1110 O1109 2.203 . S
Cd1110 O1112 2.411 . S
Cd1110 O1113 2.333 . S
Cd1110 O1114 2.352 . S
Cd1110 O1118 2.277 . S
Cd1110 O1119 2.356 . S
C1111 O1116 1.209 . S
C1111 O1118 1.226 . S
O1112 Cd1108 2.273 . S
O1112 Cd1110 2.411 . S
O1112 C1115 1.320 . S
O1113 Cd1110 2.333 . S
O1113 C1115 1.214 . S
O1114 Cd1110 2.352 . S
O1114 C1117 1.258 . S
C1115 O1112 1.320 . S
C1115 O1113 1.214 . S
O1116 Cd1108 2.277 . S
O1116 C1111 1.209 . S
C1117 O1114 1.258 . S
C1117 O1119 1.282 . S
O1118 Cd1110 2.277 . S
O1118 C1111 1.226 . S
O1119 Cd1110 2.356 . S
O1119 C1117 1.282 . S
C1120 O1121 1.306 . S
C1120 O1123 1.160 . S
O1121 C1120 1.306 . S
O1121 Cd1122 2.228 . S
Cd1122 O1121 2.228 . S
Cd1122 O1126 2.273 . S
Cd1122 O1130 2.277 . S
O1123 C1120 1.160 . S
O1123 Cd1124 2.203 . S
Cd1124 O1123 2.203 . S
Cd1124 O1126 2.411 . S
Cd1124 O1127 2.333 . S
Cd1124 O1128 2.352 . S
Cd1124 O1132 2.277 . S
Cd1124 O1133 2.356 . S
C1125 O1130 1.209 . S
C1125 O1132 1.226 . S
O1126 Cd1122 2.273 . S
O1126 Cd1124 2.411 . S
O1126 C1129 1.320 . S
O1127 Cd1124 2.333 . S
O1127 C1129 1.214 . S
O1128 Cd1124 2.352 . S
O1128 C1131 1.258 . S
C1129 O1126 1.320 . S
C1129 O1127 1.214 . S
O1130 Cd1122 2.277 . S
O1130 C1125 1.209 . S
C1131 O1128 1.258 . S
C1131 O1133 1.282 . S
O1132 Cd1124 2.277 . S
O1132 C1125 1.226 . S
O1133 Cd1124 2.356 . S
O1133 C1131 1.282 . S
C1134 O1135 1.306 . S
C1134 O1137 1.160 . S
O1135 C1134 1.306 . S
O1135 Cd1136 2.228 . S
Cd1136 O1135 2.228 . S
Cd1136 O1140 2.273 . S
Cd1136 O1144 2.277 . S
O1137 C1134 1.160 . S
O1137 Cd1138 2.203 . S
Cd1138 O1137 2.203 . S
Cd1138 O1140 2.411 . S
Cd1138 O1141 2.333 . S
Cd1138 O1142 2.352 . S
Cd1138 O1146 2.277 . S
Cd1138 O1147 2.356 . S
C1139 O1144 1.209 . S
C1139 O1146 1.226 . S
O1140 Cd1136 2.273 . S
O1140 Cd1138 2.411 . S
O1140 C1143 1.320 . S
O1141 Cd1138 2.333 . S
O1141 C1143 1.214 . S
O1142 Cd1138 2.352 . S
O1142 C1145 1.258 . S
C1143 O1140 1.320 . S
C1143 O1141 1.214 . S
O1144 Cd1136 2.277 . S
O1144 C1139 1.209 . S
C1145 O1142 1.258 . S
C1145 O1147 1.282 . S
O1146 Cd1138 2.277 . S
O1146 C1139 1.226 . S
O1147 Cd1138 2.356 . S
O1147 C1145 1.282 . S
C1148 O1149 1.306 . S
C1148 O1151 1.160 . S
O1149 C1148 1.306 . S
O1149 Cd1150 2.228 . S
Cd1150 O1149 2.228 . S
Cd1150 O1154 2.273 . S
Cd1150 O1158 2.277 . S
O1151 C1148 1.160 . S
O1151 Cd1152 2.203 . S
Cd1152 O1151 2.203 . S
Cd1152 O1154 2.411 . S
Cd1152 O1155 2.333 . S
Cd1152 O1156 2.352 . S
Cd1152 O1160 2.277 . S
Cd1152 O1161 2.356 . S
C1153 O1158 1.209 . S
C1153 O1160 1.226 . S
O1154 Cd1150 2.273 . S
O1154 Cd1152 2.411 . S
O1154 C1157 1.320 . S
O1155 Cd1152 2.333 . S
O1155 C1157 1.214 . S
O1156 Cd1152 2.352 . S
O1156 C1159 1.258 . S
C1157 O1154 1.320 . S
C1157 O1155 1.214 . S
O1158 Cd1150 2.277 . S
O1158 C1153 1.209 . S
C1159 O1156 1.258 . S
C1159 O1161 1.282 . S
O1160 Cd1152 2.277 . S
O1160 C1153 1.226 . S
O1161 Cd1152 2.356 . S
O1161 C1159 1.282 . S
C1162 O1163 1.306 . S
C1162 O1165 1.160 . S
O1163 C1162 1.306 . S
O1163 Cd1164 2.228 . S
Cd1164 O1163 2.228 . S
Cd1164 O1168 2.273 . S
Cd1164 O1172 2.277 . S
O1165 C1162 1.160 . S
O1165 Cd1166 2.203 . S
Cd1166 O1165 2.203 . S
Cd1166 O1168 2.411 . S
Cd1166 O1169 2.333 . S
Cd1166 O1170 2.352 . S
Cd1166 O1174 2.277 . S
Cd1166 O1175 2.356 . S
C1167 O1172 1.209 . S
C1167 O1174 1.226 . S
O1168 Cd1164 2.273 . S
O1168 Cd1166 2.411 . S
O1168 C1171 1.320 . S
O1169 Cd1166 2.333 . S
O1169 C1171 1.214 . S
O1170 Cd1166 2.352 . S
O1170 C1173 1.258 . S
C1171 O1168 1.320 . S
C1171 O1169 1.214 . S
O1172 Cd1164 2.277 . S
O1172 C1167 1.209 . S
C1173 O1170 1.258 . S
C1173 O1175 1.282 . S
O1174 Cd1166 2.277 . S
O1174 C1167 1.226 . S
O1175 Cd1166 2.356 . S
O1175 C1173 1.282 . S
C1176 O1177 1.306 . S
C1176 O1179 1.160 . S
O1177 C1176 1.306 . S
O1177 Cd1178 2.228 . S
Cd1178 O1177 2.228 . S
Cd1178 O1182 2.273 . S
Cd1178 O1186 2.277 . S
O1179 C1176 1.160 . S
O1179 Cd1180 2.203 . S
Cd1180 O1179 2.203 . S
Cd1180 O1182 2.411 . S
Cd1180 O1183 2.333 . S
Cd1180 O1184 2.352 . S
Cd1180 O1188 2.277 . S
Cd1180 O1189 2.356 . S
C1181 O1186 1.209 . S
C1181 O1188 1.226 . S
O1182 Cd1178 2.273 . S
O1182 Cd1180 2.411 . S
O1182 C1185 1.320 . S
O1183 Cd1180 2.333 . S
O1183 C1185 1.214 . S
O1184 Cd1180 2.352 . S
O1184 C1187 1.258 . S
C1185 O1182 1.320 . S
C1185 O1183 1.214 . S
O1186 Cd1178 2.277 . S
O1186 C1181 1.209 . S
C1187 O1184 1.258 . S
C1187 O1189 1.282 . S
O1188 Cd1180 2.277 . S
O1188 C1181 1.226 . S
O1189 Cd1180 2.356 . S
O1189 C1187 1.282 . S
C1190 O1191 1.306 . S
C1190 O1193 1.160 . S
O1191 C1190 1.306 . S
O1191 Cd1192 2.228 . S
Cd1192 O1191 2.228 . S
Cd1192 O1196 2.273 . S
Cd1192 O1200 2.277 . S
O1193 C1190 1.160 . S
O1193 Cd1194 2.203 . S
Cd1194 O1193 2.203 . S
Cd1194 O1196 2.411 . S
Cd1194 O1197 2.333 . S
Cd1194 O1198 2.352 . S
Cd1194 O1202 2.277 . S
Cd1194 O1203 2.356 . S
C1195 O1200 1.209 . S
C1195 O1202 1.226 . S
O1196 Cd1192 2.273 . S
O1196 Cd1194 2.411 . S
O1196 C1199 1.320 . S
O1197 Cd1194 2.333 . S
O1197 C1199 1.214 . S
O1198 Cd1194 2.352 . S
O1198 C1201 1.258 . S
C1199 O1196 1.320 . S
C1199 O1197 1.214 . S
O1200 Cd1192 2.277 . S
O1200 C1195 1.209 . S
C1201 O1198 1.258 . S
C1201 O1203 1.282 . S
O1202 Cd1194 2.277 . S
O1202 C1195 1.226 . S
O1203 Cd1194 2.356 . S
O1203 C1201 1.282 . S
C1204 O1205 1.306 . S
C1204 O1207 1.160 . S
O1205 C1204 1.306 . S
O1205 Cd1206 2.228 . S
Cd1206 O1205 2.228 . S
Cd1206 O1210 2.273 . S
Cd1206 O1214 2.277 . S
O1207 C1204 1.160 . S
O1207 Cd1208 2.203 . S
Cd1208 O1207 2.203 . S
Cd1208 O1210 2.411 . S
Cd1208 O1211 2.333 . S
Cd1208 O1212 2.352 . S
Cd1208 O1216 2.277 . S
Cd1208 O1217 2.356 . S
C1209 O1214 1.209 . S
C1209 O1216 1.226 . S
O1210 Cd1206 2.273 . S
O1210 Cd1208 2.411 . S
O1210 C1213 1.320 . S
O1211 Cd1208 2.333 . S
O1211 C1213 1.214 . S
O1212 Cd1208 2.352 . S
O1212 C1215 1.258 . S
C1213 O1210 1.320 . S
C1213 O1211 1.214 . S
O1214 Cd1206 2.277 . S
O1214 C1209 1.209 . S
C1215 O1212 1.258 . S
C1215 O1217 1.282 . S
O1216 Cd1208 2.277 . S
O1216 C1209 1.226 . S
O1217 Cd1208 2.356 . S
O1217 C1215 1.282 . S
C1218 O1219 1.306 . S
C1218 O1221 1.160 . S
O1219 C1218 1.306 . S
O1219 Cd1220 2.228 . S
Cd1220 O1219 2.228 . S
Cd1220 O1224 2.273 . S
Cd1220 O1228 2.277 . S
O1221 C1218 1.160 . S
O1221 Cd1222 2.203 . S
Cd1222 O1221 2.203 . S
Cd1222 O1224 2.411 . S
Cd1222 O1225 2.333 . S
Cd1222 O1226 2.352 . S
Cd1222 O1230 2.277 . S
Cd1222 O1231 2.356 . S
C1223 O1228 1.209 . S
C1223 O1230 1.226 . S
O1224 Cd1220 2.273 . S
O1224 Cd1222 2.411 . S
O1224 C1227 1.320 . S
O1225 Cd1222 2.333 . S
O1225 C1227 1.214 . S
O1226 Cd1222 2.352 . S
O1226 C1229 1.258 . S
C1227 O1224 1.320 . S
C1227 O1225 1.214 . S
O1228 Cd1220 2.277 . S
O1228 C1223 1.209 . S
C1229 O1226 1.258 . S
C1229 O1231 1.282 . S
O1230 Cd1222 2.277 . S
O1230 C1223 1.226 . S
O1231 Cd1222 2.356 . S
O1231 C1229 1.282 . S
C1232 O1233 1.306 . S
C1232 O1235 1.160 . S
O1233 C1232 1.306 . S
O1233 Cd1234 2.228 . S
Cd1234 O1233 2.228 . S
Cd1234 O1238 2.273 . S
Cd1234 O1242 2.277 . S
O1235 C1232 1.160 . S
O1235 Cd1236 2.203 . S
Cd1236 O1235 2.203 . S
Cd1236 O1238 2.411 . S
Cd1236 O1239 2.333 . S
Cd1236 O1240 2.352 . S
Cd1236 O1244 2.277 . S
Cd1236 O1245 2.356 . S
C1237 O1242 1.209 . S
C1237 O1244 1.226 . S
O1238 Cd1234 2.273 . S
O1238 Cd1236 2.411 . S
O1238 C1241 1.320 . S
O1239 Cd1236 2.333 . S
O1239 C1241 1.214 . S
O1240 Cd1236 2.352 . S
O1240 C1243 1.258 . S
C1241 O1238 1.320 . S
C1241 O1239 1.214 . S
O1242 Cd1234 2.277 . S
O1242 C1237 1.209 . S
C1243 O1240 1.258 . S
C1243 O1245 1.282 . S
O1244 Cd1236 2.277 . S
O1244 C1237 1.226 . S
O1245 Cd1236 2.356 . S
O1245 C1243 1.282 . S
C1246 O1247 1.306 . S
C1246 O1249 1.160 . S
O1247 C1246 1.306 . S
O1247 Cd1248 2.228 . S
Cd1248 O1247 2.228 . S
Cd1248 O1252 2.273 . S
Cd1248 O1256 2.277 . S
O1249 C1246 1.160 . S
O1249 Cd1250 2.203 . S
Cd1250 O1249 2.203 . S
Cd1250 O1252 2.411 . S
Cd1250 O1253 2.333 . S
Cd1250 O1254 2.352 . S
Cd1250 O1258 2.277 . S
Cd1250 O1259 2.356 . S
C1251 O1256 1.209 . S
C1251 O1258 1.226 . S
O1252 Cd1248 2.273 . S
O1252 Cd1250 2.411 . S
O1252 C1255 1.320 . S
O1253 Cd1250 2.333 . S
O1253 C1255 1.214 . S
O1254 Cd1250 2.352 . S
O1254 C1257 1.258 . S
C1255 O1252 1.320 . S
C1255 O1253 1.214 . S
O1256 Cd1248 2.277 . S
O1256 C1251 1.209 . S
C1257 O1254 1.258 . S
C1257 O1259 1.282 . S
O1258 Cd1250 2.277 . S
O1258 C1251 1.226 . S
O1259 Cd1250 2.356 . S
O1259 C1257 1.282 . S
C1260 O1261 1.306 . S
C1260 O1263 1.160 . S
O1261 C1260 1.306 . S
O1261 Cd1262 2.228 . S
Cd1262 O1261 2.228 . S
Cd1262 O1266 2.273 . S
Cd1262 O1270 2.277 . S
O1263 C1260 1.160 . S
O1263 Cd1264 2.203 . S
Cd1264 O1263 2.203 . S
Cd1264 O1266 2.411 . S
Cd1264 O1267 2.333 . S
Cd1264 O1268 2.352 . S
Cd1264 O1272 2.277 . S
Cd1264 O1273 2.356 . S
C1265 O1270 1.209 . S
C1265 O1272 1.226 . S
O1266 Cd1262 2.273 . S
O1266 Cd1264 2.411 . S
O1266 C1269 1.320 . S
O1267 Cd1264 2.333 . S
O1267 C1269 1.214 . S
O1268 Cd1264 2.352 . S
O1268 C1271 1.258 . S
C1269 O1266 1.320 . S
C1269 O1267 1.214 . S
O1270 Cd1262 2.277 . S
O1270 C1265 1.209 . S
C1271 O1268 1.258 . S
C1271 O1273 1.282 . S
O1272 Cd1264 2.277 . S
O1272 C1265 1.226 . S
O1273 Cd1264 2.356 . S
O1273 C1271 1.282 . S
C1274 O1275 1.306 . S
C1274 O1277 1.160 . S
O1275 C1274 1.306 . S
O1275 Cd1276 2.228 . S
Cd1276 O1275 2.228 . S
Cd1276 O1280 2.273 . S
Cd1276 O1284 2.277 . S
O1277 C1274 1.160 . S
O1277 Cd1278 2.203 . S
Cd1278 O1277 2.203 . S
Cd1278 O1280 2.411 . S
Cd1278 O1281 2.333 . S
Cd1278 O1282 2.352 . S
Cd1278 O1286 2.277 . S
Cd1278 O1287 2.356 . S
C1279 O1284 1.209 . S
C1279 O1286 1.226 . S
O1280 Cd1276 2.273 . S
O1280 Cd1278 2.411 . S
O1280 C1283 1.320 . S
O1281 Cd1278 2.333 . S
O1281 C1283 1.214 . S
O1282 Cd1278 2.352 . S
O1282 C1285 1.258 . S
C1283 O1280 1.320 . S
C1283 O1281 1.214 . S
O1284 Cd1276 2.277 . S
O1284 C1279 1.209 . S
C1285 O1282 1.258 . S
C1285 O1287 1.282 . S
O1286 Cd1278 2.277 . S
O1286 C1279 1.226 . S
O1287 Cd1278 2.356 . S
O1287 C1285 1.282 . S
C1288 O1289 1.306 . S
C1288 O1291 1.160 . S
O1289 C1288 1.306 . S
O1289 Cd1290 2.228 . S
Cd1290 O1289 2.228 . S
Cd1290 O1294 2.273 . S
Cd1290 O1298 2.277 . S
O1291 C1288 1.160 . S
O1291 Cd1292 2.203 . S
Cd1292 O1291 2.203 . S
Cd1292 O1294 2.411 . S
Cd1292 O1295 2.333 . S
Cd1292 O1296 2.352 . S
Cd1292 O1300 2.277 . S
Cd1292 O1301 2.356 . S
C1293 O1298 1.209 . S
C1293 O1300 1.226 . S
O1294 Cd1290 2.273 . S
O1294 Cd1292 2.411 . S
O1294 C1297 1.320 . S
O1295 Cd1292 2.333 . S
O1295 C1297 1.214 . S
O1296 Cd1292 2.352 . S
O1296 C1299 1.258 . S
C1297 O1294 1.320 . S
C1297 O1295 1.214 . S
O1298 Cd1290 2.277 . S
O1298 C1293 1.209 . S
C1299 O1296 1.258 . S
C1299 O1301 1.282 . S
O1300 Cd1292 2.277 . S
O1300 C1293 1.226 . S
O1301 Cd1292 2.356 . S
O1301 C1299 1.282 . S
C1302 O1303 1.306 . S
C1302 O1305 1.160 . S
O1303 C1302 1.306 . S
O1303 Cd1304 2.228 . S
Cd1304 O1303 2.228 . S
Cd1304 O1308 2.273 . S
Cd1304 O1312 2.277 . S
O1305 C1302 1.160 . S
O1305 Cd1306 2.203 . S
Cd1306 O1305 2.203 . S
Cd1306 O1308 2.411 . S
Cd1306 O1309 2.333 . S
Cd1306 O1310 2.352 . S
Cd1306 O1314 2.277 . S
Cd1306 O1315 2.356 . S
C1307 O1312 1.209 . S
C1307 O1314 1.226 . S
O1308 Cd1304 2.273 . S
O1308 Cd1306 2.411 . S
O1308 C1311 1.320 . S
O1309 Cd1306 2.333 . S
O1309 C1311 1.214 . S
O1310 Cd1306 2.352 . S
O1310 C1313 1.258 . S
C1311 O1308 1.320 . S
C1311 O1309 1.214 . S
O1312 Cd1304 2.277 . S
O1312 C1307 1.209 . S
C1313 O1310 1.258 . S
C1313 O1315 1.282 . S
O1314 Cd1306 2.277 . S
O1314 C1307 1.226 . S
O1315 Cd1306 2.356 . S
O1315 C1313 1.282 . S
C1316 O1317 1.306 . S
C1316 O1319 1.160 . S
O1317 C1316 1.306 . S
O1317 Cd1318 2.228 . S
Cd1318 O1317 2.228 . S
Cd1318 O1322 2.273 . S
Cd1318 O1326 2.277 . S
O1319 C1316 1.160 . S
O1319 Cd1320 2.203 . S
Cd1320 O1319 2.203 . S
Cd1320 O1322 2.411 . S
Cd1320 O1323 2.333 . S
Cd1320 O1324 2.352 . S
Cd1320 O1328 2.277 . S
Cd1320 O1329 2.356 . S
C1321 O1326 1.209 . S
C1321 O1328 1.226 . S
O1322 Cd1318 2.273 . S
O1322 Cd1320 2.411 . S
O1322 C1325 1.320 . S
O1323 Cd1320 2.333 . S
O1323 C1325 1.214 . S
O1324 Cd1320 2.352 . S
O1324 C1327 1.258 . S
C1325 O1322 1.320 . S
C1325 O1323 1.214 . S
O1326 Cd1318 2.277 . S
O1326 C1321 1.209 . S
C1327 O1324 1.258 . S
C1327 O1329 1.282 . S
O1328 Cd1320 2.277 . S
O1328 C1321 1.226 . S
O1329 Cd1320 2.356 . S
O1329 C1327 1.282 . S
C1330 O1331 1.306 . S
C1330 O1333 1.160 . S
O1331 C1330 1.306 . S
O1331 Cd1332 2.228 . S
Cd1332 O1331 2.228 . S
Cd1332 O1336 2.273 . S
Cd1332 O1340 2.277 . S
O1333 C1330 1.160 . S
O1333 Cd1334 2.203 . S
Cd1334 O1333 2.203 . S
Cd1334 O1336 2.411 . S
Cd1334 O1337 2.333 . S
Cd1334 O1338 2.352 . S
Cd1334 O1342 2.277 . S
Cd1334 O1343 2.356 . S
C1335 O1340 1.209 . S
C1335 O1342 1.226 . S
O1336 Cd1332 2.273 . S
O1336 Cd1334 2.411 . S
O1336 C1339 1.320 . S
O1337 Cd1334 2.333 . S
O1337 C1339 1.214 . S
O1338 Cd1334 2.352 . S
O1338 C1341 1.258 . S
C1339 O1336 1.320 . S
C1339 O1337 1.214 . S
O1340 Cd1332 2.277 . S
O1340 C1335 1.209 . S
C1341 O1338 1.258 . S
C1341 O1343 1.282 . S
O1342 Cd1334 2.277 . S
O1342 C1335 1.226 . S
O1343 Cd1334 2.356 . S
O1343 C1341 1.282 . S
C1344 C1345 1.387 . S
C1344 H1348 0.950 . S
C1344 C1353 1.390 . S
C1345 C1344 1.387 . S
C1345 C1347 1.387 . S
H1346 C1353 0.950 . S
C1347 C1345 1.387 . S
C1347 C1349 1.390 . S
C1347 H1351 0.950 . S
H1348 C1344 0.950 . S
C1349 C1347 1.390 . S
C1349 C1350 1.387 . S
C1349 H1352 0.950 . S
C1350 C1349 1.387 . S
C1350 C1353 1.387 . S
H1351 C1347 0.950 . S
H1352 C1349 0.950 . S
C1353 C1344 1.390 . S
C1353 H1346 0.950 . S
C1353 C1350 1.387 . S
C1354 C1355 1.387 . S
C1354 H1358 0.950 . S
C1354 C1363 1.390 . S
C1355 C1354 1.387 . S
C1355 C1357 1.387 . S
H1356 C1363 0.950 . S
C1357 C1355 1.387 . S
C1357 C1359 1.390 . S
C1357 H1361 0.950 . S
H1358 C1354 0.950 . S
C1359 C1357 1.390 . S
C1359 C1360 1.387 . S
C1359 H1362 0.950 . S
C1360 C1359 1.387 . S
C1360 C1363 1.387 . S
H1361 C1357 0.950 . S
H1362 C1359 0.950 . S
C1363 C1354 1.390 . S
C1363 H1356 0.950 . S
C1363 C1360 1.387 . S
C1364 C1365 1.387 . S
C1364 H1368 0.950 . S
C1364 C1373 1.390 . S
C1365 C1364 1.387 . S
C1365 C1367 1.387 . S
H1366 C1373 0.950 . S
C1367 C1365 1.387 . S
C1367 C1369 1.390 . S
C1367 H1371 0.950 . S
H1368 C1364 0.950 . S
C1369 C1367 1.390 . S
C1369 C1370 1.387 . S
C1369 H1372 0.950 . S
C1370 C1369 1.387 . S
C1370 C1373 1.387 . S
H1371 C1367 0.950 . S
H1372 C1369 0.950 . S
C1373 C1364 1.390 . S
C1373 H1366 0.950 . S
C1373 C1370 1.387 . S
C1374 C1375 1.387 . S
C1374 H1378 0.950 . S
C1374 C1383 1.390 . S
C1375 C1374 1.387 . S
C1375 C1377 1.387 . S
H1376 C1383 0.950 . S
C1377 C1375 1.387 . S
C1377 C1379 1.390 . S
C1377 H1381 0.950 . S
H1378 C1374 0.950 . S
C1379 C1377 1.390 . S
C1379 C1380 1.387 . S
C1379 H1382 0.950 . S
C1380 C1379 1.387 . S
C1380 C1383 1.387 . S
H1381 C1377 0.950 . S
H1382 C1379 0.950 . S
C1383 C1374 1.390 . S
C1383 H1376 0.950 . S
C1383 C1380 1.387 . S
C1384 C1385 1.387 . S
C1384 H1388 0.950 . S
C1384 C1393 1.390 . S
C1385 C1384 1.387 . S
C1385 C1387 1.387 . S
H1386 C1393 0.950 . S
C1387 C1385 1.387 . S
C1387 C1389 1.390 . S
C1387 H1391 0.950 . S
H1388 C1384 0.950 . S
C1389 C1387 1.390 . S
C1389 C1390 1.387 . S
C1389 H1392 0.950 . S
C1390 C1389 1.387 . S
C1390 C1393 1.387 . S
H1391 C1387 0.950 . S
H1392 C1389 0.950 . S
C1393 C1384 1.390 . S
C1393 H1386 0.950 . S
C1393 C1390 1.387 . S
C1394 C1395 1.387 . S
C1394 H1398 0.950 . S
C1394 C1403 1.390 . S
C1395 C1394 1.387 . S
C1395 C1397 1.387 . S
H1396 C1403 0.950 . S
C1397 C1395 1.387 . S
C1397 C1399 1.390 . S
C1397 H1401 0.950 . S
H1398 C1394 0.950 . S
C1399 C1397 1.390 . S
C1399 C1400 1.387 . S
C1399 H1402 0.950 . S
C1400 C1399 1.387 . S
C1400 C1403 1.387 . S
H1401 C1397 0.950 . S
H1402 C1399 0.950 . S
C1403 C1394 1.390 . S
C1403 H1396 0.950 . S
C1403 C1400 1.387 . S
C1404 C1405 1.387 . S
C1404 H1408 0.950 . S
C1404 C1413 1.390 . S
C1405 C1404 1.387 . S
C1405 C1407 1.387 . S
H1406 C1413 0.950 . S
C1407 C1405 1.387 . S
C1407 C1409 1.390 . S
C1407 H1411 0.950 . S
H1408 C1404 0.950 . S
C1409 C1407 1.390 . S
C1409 C1410 1.387 . S
C1409 H1412 0.950 . S
C1410 C1409 1.387 . S
C1410 C1413 1.387 . S
H1411 C1407 0.950 . S
H1412 C1409 0.950 . S
C1413 C1404 1.390 . S
C1413 H1406 0.950 . S
C1413 C1410 1.387 . S
C1414 C1415 1.387 . S
C1414 H1418 0.950 . S
C1414 C1423 1.390 . S
C1415 C1414 1.387 . S
C1415 C1417 1.387 . S
H1416 C1423 0.950 . S
C1417 C1415 1.387 . S
C1417 C1419 1.390 . S
C1417 H1421 0.950 . S
H1418 C1414 0.950 . S
C1419 C1417 1.390 . S
C1419 C1420 1.387 . S
C1419 H1422 0.950 . S
C1420 C1419 1.387 . S
C1420 C1423 1.387 . S
H1421 C1417 0.950 . S
H1422 C1419 0.950 . S
C1423 C1414 1.390 . S
C1423 H1416 0.950 . S
C1423 C1420 1.387 . S
C1424 C1425 1.387 . S
C1424 H1428 0.950 . S
C1424 C1433 1.390 . S
C1425 C1424 1.387 . S
C1425 C1427 1.387 . S
H1426 C1433 0.950 . S
C1427 C1425 1.387 . S
C1427 C1429 1.390 . S
C1427 H1431 0.950 . S
H1428 C1424 0.950 . S
C1429 C1427 1.390 . S
C1429 C1430 1.387 . S
C1429 H1432 0.950 . S
C1430 C1429 1.387 . S
C1430 C1433 1.387 . S
H1431 C1427 0.950 . S
H1432 C1429 0.950 . S
C1433 C1424 1.390 . S
C1433 H1426 0.950 . S
C1433 C1430 1.387 . S
C1434 C1435 1.387 . S
C1434 H1438 0.950 . S
C1434 C1443 1.390 . S
C1435 C1434 1.387 . S
C1435 C1437 1.387 . S
H1436 C1443 0.950 . S
C1437 C1435 1.387 . S
C1437 C1439 1.390 . S
C1437 H1441 0.950 . S
H1438 C1434 0.950 . S
C1439 C1437 1.390 . S
C1439 C1440 1.387 . S
C1439 H1442 0.950 . S
C1440 C1439 1.387 . S
C1440 C1443 1.387 . S
H1441 C1437 0.950 . S
H1442 C1439 0.950 . S
C1443 C1434 1.390 . S
C1443 H1436 0.950 . S
C1443 C1440 1.387 . S
C1444 C1445 1.387 . S
C1444 H1448 0.950 . S
C1444 C1453 1.390 . S
C1445 C1444 1.387 . S
C1445 C1447 1.387 . S
H1446 C1453 0.950 . S
C1447 C1445 1.387 . S
C1447 C1449 1.390 . S
C1447 H1451 0.950 . S
H1448 C1444 0.950 . S
C1449 C1447 1.390 . S
C1449 C1450 1.387 . S
C1449 H1452 0.950 . S
C1450 C1449 1.387 . S
C1450 C1453 1.387 . S
H1451 C1447 0.950 . S
H1452 C1449 0.950 . S
C1453 C1444 1.390 . S
C1453 H1446 0.950 . S
C1453 C1450 1.387 . S
C1454 C1455 1.387 . S
C1454 H1458 0.950 . S
C1454 C1463 1.390 . S
C1455 C1454 1.387 . S
C1455 C1457 1.387 . S
H1456 C1463 0.950 . S
C1457 C1455 1.387 . S
C1457 C1459 1.390 . S
C1457 H1461 0.950 . S
H1458 C1454 0.950 . S
C1459 C1457 1.390 . S
C1459 C1460 1.387 . S
C1459 H1462 0.950 . S
C1460 C1459 1.387 . S
C1460 C1463 1.387 . S
H1461 C1457 0.950 . S
H1462 C1459 0.950 . S
C1463 C1454 1.390 . S
C1463 H1456 0.950 . S
C1463 C1460 1.387 . S
C1464 C1465 1.387 . S
C1464 H1468 0.950 . S
C1464 C1473 1.390 . S
C1465 C1464 1.387 . S
C1465 C1467 1.387 . S
H1466 C1473 0.950 . S
C1467 C1465 1.387 . S
C1467 C1469 1.390 . S
C1467 H1471 0.950 . S
H1468 C1464 0.950 . S
C1469 C1467 1.390 . S
C1469 C1470 1.387 . S
C1469 H1472 0.950 . S
C1470 C1469 1.387 . S
C1470 C1473 1.387 . S
H1471 C1467 0.950 . S
H1472 C1469 0.950 . S
C1473 C1464 1.390 . S
C1473 H1466 0.950 . S
C1473 C1470 1.387 . S
C1474 C1475 1.387 . S
C1474 H1478 0.950 . S
C1474 C1483 1.390 . S
C1475 C1474 1.387 . S
C1475 C1477 1.387 . S
H1476 C1483 0.950 . S
C1477 C1475 1.387 . S
C1477 C1479 1.390 . S
C1477 H1481 0.950 . S
H1478 C1474 0.950 . S
C1479 C1477 1.390 . S
C1479 C1480 1.387 . S
C1479 H1482 0.950 . S
C1480 C1479 1.387 . S
C1480 C1483 1.387 . S
H1481 C1477 0.950 . S
H1482 C1479 0.950 . S
C1483 C1474 1.390 . S
C1483 H1476 0.950 . S
C1483 C1480 1.387 . S
C1484 C1485 1.387 . S
C1484 H1488 0.950 . S
C1484 C1493 1.390 . S
C1485 C1484 1.387 . S
C1485 C1487 1.387 . S
H1486 C1493 0.950 . S
C1487 C1485 1.387 . S
C1487 C1489 1.390 . S
C1487 H1491 0.950 . S
H1488 C1484 0.950 . S
C1489 C1487 1.390 . S
C1489 C1490 1.387 . S
C1489 H1492 0.950 . S
C1490 C1489 1.387 . S
C1490 C1493 1.387 . S
H1491 C1487 0.950 . S
H1492 C1489 0.950 . S
C1493 C1484 1.390 . S
C1493 H1486 0.950 . S
C1493 C1490 1.387 . S
C1494 C1495 1.387 . S
C1494 H1498 0.950 . S
C1494 C1503 1.390 . S
C1495 C1494 1.387 . S
C1495 C1497 1.387 . S
H1496 C1503 0.950 . S
C1497 C1495 1.387 . S
C1497 C1499 1.390 . S
C1497 H1501 0.950 . S
H1498 C1494 0.950 . S
C1499 C1497 1.390 . S
C1499 C1500 1.387 . S
C1499 H1502 0.950 . S
C1500 C1499 1.387 . S
C1500 C1503 1.387 . S
H1501 C1497 0.950 . S
H1502 C1499 0.950 . S
C1503 C1494 1.390 . S
C1503 H1496 0.950 . S
C1503 C1500 1.387 . S
C1504 C1505 1.387 . S
C1504 H1508 0.950 . S
C1504 C1513 1.390 . S
C1505 C1504 1.387 . S
C1505 C1507 1.387 . S
H1506 C1513 0.950 . S
C1507 C1505 1.387 . S
C1507 C1509 1.390 . S
C1507 H1511 0.950 . S
H1508 C1504 0.950 . S
C1509 C1507 1.390 . S
C1509 C1510 1.387 . S
C1509 H1512 0.950 . S
C1510 C1509 1.387 . S
C1510 C1513 1.387 . S
H1511 C1507 0.950 . S
H1512 C1509 0.950 . S
C1513 C1504 1.390 . S
C1513 H1506 0.950 . S
C1513 C1510 1.387 . S
C1514 C1515 1.387 . S
C1514 H1518 0.950 . S
C1514 C1523 1.390 . S
C1515 C1514 1.387 . S
C1515 C1517 1.387 . S
H1516 C1523 0.950 . S
C1517 C1515 1.387 . S
C1517 C1519 1.390 . S
C1517 H1521 0.950 . S
H1518 C1514 0.950 . S
C1519 C1517 1.390 . S
C1519 C1520 1.387 . S
C1519 H1522 0.950 . S
C1520 C1519 1.387 . S
C1520 C1523 1.387 . S
H1521 C1517 0.950 . S
H1522 C1519 0.950 . S
C1523 C1514 1.390 . S
C1523 H1516 0.950 . S
C1523 C1520 1.387 . S
C1524 C1525 1.387 . S
C1524 H1528 0.950 . S
C1524 C1533 1.390 . S
C1525 C1524 1.387 . S
C1525 C1527 1.387 . S
H1526 C1533 0.950 . S
C1527 C1525 1.387 . S
C1527 C1529 1.390 . S
C1527 H1531 0.950 . S
H1528 C1524 0.950 . S
C1529 C1527 1.390 . S
C1529 C1530 1.387 . S
C1529 H1532 0.950 . S
C1530 C1529 1.387 . S
C1530 C1533 1.387 . S
H1531 C1527 0.950 . S
H1532 C1529 0.950 . S
C1533 C1524 1.390 . S
C1533 H1526 0.950 . S
C1533 C1530 1.387 . S
C1534 C1535 1.387 . S
C1534 H1538 0.950 . S
C1534 C1543 1.390 . S
C1535 C1534 1.387 . S
C1535 C1537 1.387 . S
H1536 C1543 0.950 . S
C1537 C1535 1.387 . S
C1537 C1539 1.390 . S
C1537 H1541 0.950 . S
H1538 C1534 0.950 . S
C1539 C1537 1.390 . S
C1539 C1540 1.387 . S
C1539 H1542 0.950 . S
C1540 C1539 1.387 . S
C1540 C1543 1.387 . S
H1541 C1537 0.950 . S
H1542 C1539 0.950 . S
C1543 C1534 1.390 . S
C1543 H1536 0.950 . S
C1543 C1540 1.387 . S
C1544 C1545 1.387 . S
C1544 H1548 0.950 . S
C1544 C1553 1.390 . S
C1545 C1544 1.387 . S
C1545 C1547 1.387 . S
H1546 C1553 0.950 . S
C1547 C1545 1.387 . S
C1547 C1549 1.390 . S
C1547 H1551 0.950 . S
H1548 C1544 0.950 . S
C1549 C1547 1.390 . S
C1549 C1550 1.387 . S
C1549 H1552 0.950 . S
C1550 C1549 1.387 . S
C1550 C1553 1.387 . S
H1551 C1547 0.950 . S
H1552 C1549 0.950 . S
C1553 C1544 1.390 . S
C1553 H1546 0.950 . S
C1553 C1550 1.387 . S
C1554 C1555 1.387 . S
C1554 H1558 0.950 . S
C1554 C1563 1.390 . S
C1555 C1554 1.387 . S
C1555 C1557 1.387 . S
H1556 C1563 0.950 . S
C1557 C1555 1.387 . S
C1557 C1559 1.390 . S
C1557 H1561 0.950 . S
H1558 C1554 0.950 . S
C1559 C1557 1.390 . S
C1559 C1560 1.387 . S
C1559 H1562 0.950 . S
C1560 C1559 1.387 . S
C1560 C1563 1.387 . S
H1561 C1557 0.950 . S
H1562 C1559 0.950 . S
C1563 C1554 1.390 . S
C1563 H1556 0.950 . S
C1563 C1560 1.387 . S
C1564 C1565 1.387 . S
C1564 H1568 0.950 . S
C1564 C1573 1.390 . S
C1565 C1564 1.387 . S
C1565 C1567 1.387 . S
H1566 C1573 0.950 . S
C1567 C1565 1.387 . S
C1567 C1569 1.390 . S
C1567 H1571 0.950 . S
H1568 C1564 0.950 . S
C1569 C1567 1.390 . S
C1569 C1570 1.387 . S
C1569 H1572 0.950 . S
C1570 C1569 1.387 . S
C1570 C1573 1.387 . S
H1571 C1567 0.950 . S
H1572 C1569 0.950 . S
C1573 C1564 1.390 . S
C1573 H1566 0.950 . S
C1573 C1570 1.387 . S
C1574 C1575 1.387 . S
C1574 H1578 0.950 . S
C1574 C1583 1.390 . S
C1575 C1574 1.387 . S
C1575 C1577 1.387 . S
H1576 C1583 0.950 . S
C1577 C1575 1.387 . S
C1577 C1579 1.390 . S
C1577 H1581 0.950 . S
H1578 C1574 0.950 . S
C1579 C1577 1.390 . S
C1579 C1580 1.387 . S
C1579 H1582 0.950 . S
C1580 C1579 1.387 . S
C1580 C1583 1.387 . S
H1581 C1577 0.950 . S
H1582 C1579 0.950 . S
C1583 C1574 1.390 . S
C1583 H1576 0.950 . S
C1583 C1580 1.387 . S
C1584 C1585 1.387 . S
C1584 H1588 0.950 . S
C1584 C1593 1.390 . S
C1585 C1584 1.387 . S
C1585 C1587 1.387 . S
H1586 C1593 0.950 . S
C1587 C1585 1.387 . S
C1587 C1589 1.390 . S
C1587 H1591 0.950 . S
H1588 C1584 0.950 . S
C1589 C1587 1.390 . S
C1589 C1590 1.387 . S
C1589 H1592 0.950 . S
C1590 C1589 1.387 . S
C1590 C1593 1.387 . S
H1591 C1587 0.950 . S
H1592 C1589 0.950 . S
C1593 C1584 1.390 . S
C1593 H1586 0.950 . S
C1593 C1590 1.387 . S
C1594 C1595 1.387 . S
C1594 H1598 0.950 . S
C1594 C1603 1.390 . S
C1595 C1594 1.387 . S
C1595 C1597 1.387 . S
H1596 C1603 0.950 . S
C1597 C1595 1.387 . S
C1597 C1599 1.390 . S
C1597 H1601 0.950 . S
H1598 C1594 0.950 . S
C1599 C1597 1.390 . S
C1599 C1600 1.387 . S
C1599 H1602 0.950 . S
C1600 C1599 1.387 . S
C1600 C1603 1.387 . S
H1601 C1597 0.950 . S
H1602 C1599 0.950 . S
C1603 C1594 1.390 . S
C1603 H1596 0.950 . S
C1603 C1600 1.387 . S
C1604 C1605 1.387 . S
C1604 H1608 0.950 . S
C1604 C1613 1.390 . S
C1605 C1604 1.387 . S
C1605 C1607 1.387 . S
H1606 C1613 0.950 . S
C1607 C1605 1.387 . S
C1607 C1609 1.390 . S
C1607 H1611 0.950 . S
H1608 C1604 0.950 . S
C1609 C1607 1.390 . S
C1609 C1610 1.387 . S
C1609 H1612 0.950 . S
C1610 C1609 1.387 . S
C1610 C1613 1.387 . S
H1611 C1607 0.950 . S
H1612 C1609 0.950 . S
C1613 C1604 1.390 . S
C1613 H1606 0.950 . S
C1613 C1610 1.387 . S
C1614 C1615 1.387 . S
C1614 H1618 0.950 . S
C1614 C1623 1.390 . S
C1615 C1614 1.387 . S
C1615 C1617 1.387 . S
H1616 C1623 0.950 . S
C1617 C1615 1.387 . S
C1617 C1619 1.390 . S
C1617 H1621 0.950 . S
H1618 C1614 0.950 . S
C1619 C1617 1.390 . S
C1619 C1620 1.387 . S
C1619 H1622 0.950 . S
C1620 C1619 1.387 . S
C1620 C1623 1.387 . S
H1621 C1617 0.950 . S
H1622 C1619 0.950 . S
C1623 C1614 1.390 . S
C1623 H1616 0.950 . S
C1623 C1620 1.387 . S
C1624 C1625 1.387 . S
C1624 H1628 0.950 . S
C1624 C1633 1.390 . S
C1625 C1624 1.387 . S
C1625 C1627 1.387 . S
H1626 C1633 0.950 . S
C1627 C1625 1.387 . S
C1627 C1629 1.390 . S
C1627 H1631 0.950 . S
H1628 C1624 0.950 . S
C1629 C1627 1.390 . S
C1629 C1630 1.387 . S
C1629 H1632 0.950 . S
C1630 C1629 1.387 . S
C1630 C1633 1.387 . S
H1631 C1627 0.950 . S
H1632 C1629 0.950 . S
C1633 C1624 1.390 . S
C1633 H1626 0.950 . S
C1633 C1630 1.387 . S
C1634 C1635 1.387 . S
C1634 H1638 0.950 . S
C1634 C1643 1.390 . S
C1635 C1634 1.387 . S
C1635 C1637 1.387 . S
H1636 C1643 0.950 . S
C1637 C1635 1.387 . S
C1637 C1639 1.390 . S
C1637 H1641 0.950 . S
H1638 C1634 0.950 . S
C1639 C1637 1.390 . S
C1639 C1640 1.387 . S
C1639 H1642 0.950 . S
C1640 C1639 1.387 . S
C1640 C1643 1.387 . S
H1641 C1637 0.950 . S
H1642 C1639 0.950 . S
C1643 C1634 1.390 . S
C1643 H1636 0.950 . S
C1643 C1640 1.387 . S
C1644 C1645 1.387 . S
C1644 H1648 0.950 . S
C1644 C1653 1.390 . S
C1645 C1644 1.387 . S
C1645 C1647 1.387 . S
H1646 C1653 0.950 . S
C1647 C1645 1.387 . S
C1647 C1649 1.390 . S
C1647 H1651 0.950 . S
H1648 C1644 0.950 . S
C1649 C1647 1.390 . S
C1649 C1650 1.387 . S
C1649 H1652 0.950 . S
C1650 C1649 1.387 . S
C1650 C1653 1.387 . S
H1651 C1647 0.950 . S
H1652 C1649 0.950 . S
C1653 C1644 1.390 . S
C1653 H1646 0.950 . S
C1653 C1650 1.387 . S
C1654 C1655 1.387 . S
C1654 H1658 0.950 . S
C1654 C1663 1.390 . S
C1655 C1654 1.387 . S
C1655 C1657 1.387 . S
H1656 C1663 0.950 . S
C1657 C1655 1.387 . S
C1657 C1659 1.390 . S
C1657 H1661 0.950 . S
H1658 C1654 0.950 . S
C1659 C1657 1.390 . S
C1659 C1660 1.387 . S
C1659 H1662 0.950 . S
C1660 C1659 1.387 . S
C1660 C1663 1.387 . S
H1661 C1657 0.950 . S
H1662 C1659 0.950 . S
C1663 C1654 1.390 . S
C1663 H1656 0.950 . S
C1663 C1660 1.387 . S
C1664 C1665 1.387 . S
C1664 H1668 0.950 . S
C1664 C1673 1.390 . S
C1665 C1664 1.387 . S
C1665 C1667 1.387 . S
H1666 C1673 0.950 . S
C1667 C1665 1.387 . S
C1667 C1669 1.390 . S
C1667 H1671 0.950 . S
H1668 C1664 0.950 . S
C1669 C1667 1.390 . S
C1669 C1670 1.387 . S
C1669 H1672 0.950 . S
C1670 C1669 1.387 . S
C1670 C1673 1.387 . S
H1671 C1667 0.950 . S
H1672 C1669 0.950 . S
C1673 C1664 1.390 . S
C1673 H1666 0.950 . S
C1673 C1670 1.387 . S
C1674 C1675 1.387 . S
C1674 H1678 0.950 . S
C1674 C1683 1.390 . S
C1675 C1674 1.387 . S
C1675 C1677 1.387 . S
H1676 C1683 0.950 . S
C1677 C1675 1.387 . S
C1677 C1679 1.390 . S
C1677 H1681 0.950 . S
H1678 C1674 0.950 . S
C1679 C1677 1.390 . S
C1679 C1680 1.387 . S
C1679 H1682 0.950 . S
C1680 C1679 1.387 . S
C1680 C1683 1.387 . S
H1681 C1677 0.950 . S
H1682 C1679 0.950 . S
C1683 C1674 1.390 . S
C1683 H1676 0.950 . S
C1683 C1680 1.387 . S
C1684 C1685 1.387 . S
C1684 H1688 0.950 . S
C1684 C1693 1.390 . S
C1685 C1684 1.387 . S
C1685 C1687 1.387 . S
H1686 C1693 0.950 . S
C1687 C1685 1.387 . S
C1687 C1689 1.390 . S
C1687 H1691 0.950 . S
H1688 C1684 0.950 . S
C1689 C1687 1.390 . S
C1689 C1690 1.387 . S
C1689 H1692 0.950 . S
C1690 C1689 1.387 . S
C1690 C1693 1.387 . S
H1691 C1687 0.950 . S
H1692 C1689 0.950 . S
C1693 C1684 1.390 . S
C1693 H1686 0.950 . S
C1693 C1690 1.387 . S
C1694 C1695 1.387 . S
C1694 H1698 0.950 . S
C1694 C1703 1.390 . S
C1695 C1694 1.387 . S
C1695 C1697 1.387 . S
H1696 C1703 0.950 . S
C1697 C1695 1.387 . S
C1697 C1699 1.390 . S
C1697 H1701 0.950 . S
H1698 C1694 0.950 . S
C1699 C1697 1.390 . S
C1699 C1700 1.387 . S
C1699 H1702 0.950 . S
C1700 C1699 1.387 . S
C1700 C1703 1.387 . S
H1701 C1697 0.950 . S
H1702 C1699 0.950 . S
C1703 C1694 1.390 . S
C1703 H1696 0.950 . S
C1703 C1700 1.387 . S
C1704 C1705 1.387 . S
C1704 H1708 0.950 . S
C1704 C1713 1.390 . S
C1705 C1704 1.387 . S
C1705 C1707 1.387 . S
H1706 C1713 0.950 . S
C1707 C1705 1.387 . S
C1707 C1709 1.390 . S
C1707 H1711 0.950 . S
H1708 C1704 0.950 . S
C1709 C1707 1.390 . S
C1709 C1710 1.387 . S
C1709 H1712 0.950 . S
C1710 C1709 1.387 . S
C1710 C1713 1.387 . S
H1711 C1707 0.950 . S
H1712 C1709 0.950 . S
C1713 C1704 1.390 . S
C1713 H1706 0.950 . S
C1713 C1710 1.387 . S
C1714 C1715 1.387 . S
C1714 H1718 0.950 . S
C1714 C1723 1.390 . S
C1715 C1714 1.387 . S
C1715 C1717 1.387 . S
H1716 C1723 0.950 . S
C1717 C1715 1.387 . S
C1717 C1719 1.390 . S
C1717 H1721 0.950 . S
H1718 C1714 0.950 . S
C1719 C1717 1.390 . S
C1719 C1720 1.387 . S
C1719 H1722 0.950 . S
C1720 C1719 1.387 . S
C1720 C1723 1.387 . S
H1721 C1717 0.950 . S
H1722 C1719 0.950 . S
C1723 C1714 1.390 . S
C1723 H1716 0.950 . S
C1723 C1720 1.387 . S
C1724 C1725 1.387 . S
C1724 H1728 0.950 . S
C1724 C1733 1.390 . S
C1725 C1724 1.387 . S
C1725 C1727 1.387 . S
H1726 C1733 0.950 . S
C1727 C1725 1.387 . S
C1727 C1729 1.390 . S
C1727 H1731 0.950 . S
H1728 C1724 0.950 . S
C1729 C1727 1.390 . S
C1729 C1730 1.387 . S
C1729 H1732 0.950 . S
C1730 C1729 1.387 . S
C1730 C1733 1.387 . S
H1731 C1727 0.950 . S
H1732 C1729 0.950 . S
C1733 C1724 1.390 . S
C1733 H1726 0.950 . S
C1733 C1730 1.387 . S
C1734 C1735 1.387 . S
C1734 H1738 0.950 . S
C1734 C1743 1.390 . S
C1735 C1734 1.387 . S
C1735 C1737 1.387 . S
H1736 C1743 0.950 . S
C1737 C1735 1.387 . S
C1737 C1739 1.390 . S
C1737 H1741 0.950 . S
H1738 C1734 0.950 . S
C1739 C1737 1.390 . S
C1739 C1740 1.387 . S
C1739 H1742 0.950 . S
C1740 C1739 1.387 . S
C1740 C1743 1.387 . S
H1741 C1737 0.950 . S
H1742 C1739 0.950 . S
C1743 C1734 1.390 . S
C1743 H1736 0.950 . S
C1743 C1740 1.387 . S
C1744 C1745 1.387 . S
C1744 H1748 0.950 . S
C1744 C1753 1.390 . S
C1745 C1744 1.387 . S
C1745 C1747 1.387 . S
H1746 C1753 0.950 . S
C1747 C1745 1.387 . S
C1747 C1749 1.390 . S
C1747 H1751 0.950 . S
H1748 C1744 0.950 . S
C1749 C1747 1.390 . S
C1749 C1750 1.387 . S
C1749 H1752 0.950 . S
C1750 C1749 1.387 . S
C1750 C1753 1.387 . S
H1751 C1747 0.950 . S
H1752 C1749 0.950 . S
C1753 C1744 1.390 . S
C1753 H1746 0.950 . S
C1753 C1750 1.387 . S
C1754 C1755 1.387 . S
C1754 H1758 0.950 . S
C1754 C1763 1.390 . S
C1755 C1754 1.387 . S
C1755 C1757 1.387 . S
H1756 C1763 0.950 . S
C1757 C1755 1.387 . S
C1757 C1759 1.390 . S
C1757 H1761 0.950 . S
H1758 C1754 0.950 . S
C1759 C1757 1.390 . S
C1759 C1760 1.387 . S
C1759 H1762 0.950 . S
C1760 C1759 1.387 . S
C1760 C1763 1.387 . S
H1761 C1757 0.950 . S
H1762 C1759 0.950 . S
C1763 C1754 1.390 . S
C1763 H1756 0.950 . S
C1763 C1760 1.387 . S
C1764 C1765 1.387 . S
C1764 H1768 0.950 . S
C1764 C1773 1.390 . S
C1765 C1764 1.387 . S
C1765 C1767 1.387 . S
H1766 C1773 0.950 . S
C1767 C1765 1.387 . S
C1767 C1769 1.390 . S
C1767 H1771 0.950 . S
H1768 C1764 0.950 . S
C1769 C1767 1.390 . S
C1769 C1770 1.387 . S
C1769 H1772 0.950 . S
C1770 C1769 1.387 . S
C1770 C1773 1.387 . S
H1771 C1767 0.950 . S
H1772 C1769 0.950 . S
C1773 C1764 1.390 . S
C1773 H1766 0.950 . S
C1773 C1770 1.387 . S
C1774 C1775 1.387 . S
C1774 H1778 0.950 . S
C1774 C1783 1.390 . S
C1775 C1774 1.387 . S
C1775 C1777 1.387 . S
H1776 C1783 0.950 . S
C1777 C1775 1.387 . S
C1777 C1779 1.390 . S
C1777 H1781 0.950 . S
H1778 C1774 0.950 . S
C1779 C1777 1.390 . S
C1779 C1780 1.387 . S
C1779 H1782 0.950 . S
C1780 C1779 1.387 . S
C1780 C1783 1.387 . S
H1781 C1777 0.950 . S
H1782 C1779 0.950 . S
C1783 C1774 1.390 . S
C1783 H1776 0.950 . S
C1783 C1780 1.387 . S
C1784 C1785 1.387 . S
C1784 H1788 0.950 . S
C1784 C1793 1.390 . S
C1785 C1784 1.387 . S
C1785 C1787 1.387 . S
H1786 C1793 0.950 . S
C1787 C1785 1.387 . S
C1787 C1789 1.390 . S
C1787 H1791 0.950 . S
H1788 C1784 0.950 . S
C1789 C1787 1.390 . S
C1789 C1790 1.387 . S
C1789 H1792 0.950 . S
C1790 C1789 1.387 . S
C1790 C1793 1.387 . S
H1791 C1787 0.950 . S
H1792 C1789 0.950 . S
C1793 C1784 1.390 . S
C1793 H1786 0.950 . S
C1793 C1790 1.387 . S
C1794 C1795 1.387 . S
C1794 H1798 0.950 . S
C1794 C1803 1.390 . S
C1795 C1794 1.387 . S
C1795 C1797 1.387 . S
H1796 C1803 0.950 . S
C1797 C1795 1.387 . S
C1797 C1799 1.390 . S
C1797 H1801 0.950 . S
H1798 C1794 0.950 . S
C1799 C1797 1.390 . S
C1799 C1800 1.387 . S
C1799 H1802 0.950 . S
C1800 C1799 1.387 . S
C1800 C1803 1.387 . S
H1801 C1797 0.950 . S
H1802 C1799 0.950 . S
C1803 C1794 1.390 . S
C1803 H1796 0.950 . S
C1803 C1800 1.387 . S
C1804 C1805 1.387 . S
C1804 H1808 0.950 . S
C1804 C1813 1.390 . S
C1805 C1804 1.387 . S
C1805 C1807 1.387 . S
H1806 C1813 0.950 . S
C1807 C1805 1.387 . S
C1807 C1809 1.390 . S
C1807 H1811 0.950 . S
H1808 C1804 0.950 . S
C1809 C1807 1.390 . S
C1809 C1810 1.387 . S
C1809 H1812 0.950 . S
C1810 C1809 1.387 . S
C1810 C1813 1.387 . S
H1811 C1807 0.950 . S
H1812 C1809 0.950 . S
C1813 C1804 1.390 . S
C1813 H1806 0.950 . S
C1813 C1810 1.387 . S
C1814 C1815 1.387 . S
C1814 H1818 0.950 . S
C1814 C1823 1.390 . S
C1815 C1814 1.387 . S
C1815 C1817 1.387 . S
H1816 C1823 0.950 . S
C1817 C1815 1.387 . S
C1817 C1819 1.390 . S
C1817 H1821 0.950 . S
H1818 C1814 0.950 . S
C1819 C1817 1.390 . S
C1819 C1820 1.387 . S
C1819 H1822 0.950 . S
C1820 C1819 1.387 . S
C1820 C1823 1.387 . S
H1821 C1817 0.950 . S
H1822 C1819 0.950 . S
C1823 C1814 1.390 . S
C1823 H1816 0.950 . S
C1823 C1820 1.387 . S
C1824 C1825 1.387 . S
C1824 H1828 0.950 . S
C1824 C1833 1.390 . S
C1825 C1824 1.387 . S
C1825 C1827 1.387 . S
H1826 C1833 0.950 . S
C1827 C1825 1.387 . S
C1827 C1829 1.390 . S
C1827 H1831 0.950 . S
H1828 C1824 0.950 . S
C1829 C1827 1.390 . S
C1829 C1830 1.387 . S
C1829 H1832 0.950 . S
C1830 C1829 1.387 . S
C1830 C1833 1.387 . S
H1831 C1827 0.950 . S
H1832 C1829 0.950 . S
C1833 C1824 1.390 . S
C1833 H1826 0.950 . S
C1833 C1830 1.387 . S
C1834 C1835 1.387 . S
C1834 H1838 0.950 . S
C1834 C1843 1.390 . S
C1835 C1834 1.387 . S
C1835 C1837 1.387 . S
H1836 C1843 0.950 . S
C1837 C1835 1.387 . S
C1837 C1839 1.390 . S
C1837 H1841 0.950 . S
H1838 C1834 0.950 . S
C1839 C1837 1.390 . S
C1839 C1840 1.387 . S
C1839 H1842 0.950 . S
C1840 C1839 1.387 . S
C1840 C1843 1.387 . S
H1841 C1837 0.950 . S
H1842 C1839 0.950 . S
C1843 C1834 1.390 . S
C1843 H1836 0.950 . S
C1843 C1840 1.387 . S
C1844 C1845 1.387 . S
C1844 H1848 0.950 . S
C1844 C1853 1.390 . S
C1845 C1844 1.387 . S
C1845 C1847 1.387 . S
H1846 C1853 0.950 . S
C1847 C1845 1.387 . S
C1847 C1849 1.390 . S
C1847 H1851 0.950 . S
H1848 C1844 0.950 . S
C1849 C1847 1.390 . S
C1849 C1850 1.387 . S
C1849 H1852 0.950 . S
C1850 C1849 1.387 . S
C1850 C1853 1.387 . S
H1851 C1847 0.950 . S
H1852 C1849 0.950 . S
C1853 C1844 1.390 . S
C1853 H1846 0.950 . S
C1853 C1850 1.387 . S
C1854 C1855 1.387 . S
C1854 H1858 0.950 . S
C1854 C1863 1.390 . S
C1855 C1854 1.387 . S
C1855 C1857 1.387 . S
H1856 C1863 0.950 . S
C1857 C1855 1.387 . S
C1857 C1859 1.390 . S
C1857 H1861 0.950 . S
H1858 C1854 0.950 . S
C1859 C1857 1.390 . S
C1859 C1860 1.387 . S
C1859 H1862 0.950 . S
C1860 C1859 1.387 . S
C1860 C1863 1.387 . S
H1861 C1857 0.950 . S
H1862 C1859 0.950 . S
C1863 C1854 1.390 . S
C1863 H1856 0.950 . S
C1863 C1860 1.387 . S
C1864 C1865 1.387 . S
C1864 H1868 0.950 . S
C1864 C1873 1.390 . S
C1865 C1864 1.387 . S
C1865 C1867 1.387 . S
H1866 C1873 0.950 . S
C1867 C1865 1.387 . S
C1867 C1869 1.390 . S
C1867 H1871 0.950 . S
H1868 C1864 0.950 . S
C1869 C1867 1.390 . S
C1869 C1870 1.387 . S
C1869 H1872 0.950 . S
C1870 C1869 1.387 . S
C1870 C1873 1.387 . S
H1871 C1867 0.950 . S
H1872 C1869 0.950 . S
C1873 C1864 1.390 . S
C1873 H1866 0.950 . S
C1873 C1870 1.387 . S
C1874 C1875 1.387 . S
C1874 H1878 0.950 . S
C1874 C1883 1.390 . S
C1875 C1874 1.387 . S
C1875 C1877 1.387 . S
H1876 C1883 0.950 . S
C1877 C1875 1.387 . S
C1877 C1879 1.390 . S
C1877 H1881 0.950 . S
H1878 C1874 0.950 . S
C1879 C1877 1.390 . S
C1879 C1880 1.387 . S
C1879 H1882 0.950 . S
C1880 C1879 1.387 . S
C1880 C1883 1.387 . S
H1881 C1877 0.950 . S
H1882 C1879 0.950 . S
C1883 C1874 1.390 . S
C1883 H1876 0.950 . S
C1883 C1880 1.387 . S
C1884 C1885 1.387 . S
C1884 H1888 0.950 . S
C1884 C1893 1.390 . S
C1885 C1884 1.387 . S
C1885 C1887 1.387 . S
H1886 C1893 0.950 . S
C1887 C1885 1.387 . S
C1887 C1889 1.390 . S
C1887 H1891 0.950 . S
H1888 C1884 0.950 . S
C1889 C1887 1.390 . S
C1889 C1890 1.387 . S
C1889 H1892 0.950 . S
C1890 C1889 1.387 . S
C1890 C1893 1.387 . S
H1891 C1887 0.950 . S
H1892 C1889 0.950 . S
C1893 C1884 1.390 . S
C1893 H1886 0.950 . S
C1893 C1890 1.387 . S
C1894 C1895 1.387 . S
C1894 H1898 0.950 . S
C1894 C1903 1.390 . S
C1895 C1894 1.387 . S
C1895 C1897 1.387 . S
H1896 C1903 0.950 . S
C1897 C1895 1.387 . S
C1897 C1899 1.390 . S
C1897 H1901 0.950 . S
H1898 C1894 0.950 . S
C1899 C1897 1.390 . S
C1899 C1900 1.387 . S
C1899 H1902 0.950 . S
C1900 C1899 1.387 . S
C1900 C1903 1.387 . S
H1901 C1897 0.950 . S
H1902 C1899 0.950 . S
C1903 C1894 1.390 . S
C1903 H1896 0.950 . S
C1903 C1900 1.387 . S
C1904 C1905 1.387 . S
C1904 H1908 0.950 . S
C1904 C1913 1.390 . S
C1905 C1904 1.387 . S
C1905 C1907 1.387 . S
H1906 C1913 0.950 . S
C1907 C1905 1.387 . S
C1907 C1909 1.390 . S
C1907 H1911 0.950 . S
H1908 C1904 0.950 . S
C1909 C1907 1.390 . S
C1909 C1910 1.387 . S
C1909 H1912 0.950 . S
C1910 C1909 1.387 . S
C1910 C1913 1.387 . S
H1911 C1907 0.950 . S
H1912 C1909 0.950 . S
C1913 C1904 1.390 . S
C1913 H1906 0.950 . S
C1913 C1910 1.387 . S
C1914 C1915 1.387 . S
C1914 H1918 0.950 . S
C1914 C1923 1.390 . S
C1915 C1914 1.387 . S
C1915 C1917 1.387 . S
H1916 C1923 0.950 . S
C1917 C1915 1.387 . S
C1917 C1919 1.390 . S
C1917 H1921 0.950 . S
H1918 C1914 0.950 . S
C1919 C1917 1.390 . S
C1919 C1920 1.387 . S
C1919 H1922 0.950 . S
C1920 C1919 1.387 . S
C1920 C1923 1.387 . S
H1921 C1917 0.950 . S
H1922 C1919 0.950 . S
C1923 C1914 1.390 . S
C1923 H1916 0.950 . S
C1923 C1920 1.387 . S
C1924 C1925 1.387 . S
C1924 H1928 0.950 . S
C1924 C1933 1.390 . S
C1925 C1924 1.387 . S
C1925 C1927 1.387 . S
H1926 C1933 0.950 . S
C1927 C1925 1.387 . S
C1927 C1929 1.390 . S
C1927 H1931 0.950 . S
H1928 C1924 0.950 . S
C1929 C1927 1.390 . S
C1929 C1930 1.387 . S
C1929 H1932 0.950 . S
C1930 C1929 1.387 . S
C1930 C1933 1.387 . S
H1931 C1927 0.950 . S
H1932 C1929 0.950 . S
C1933 C1924 1.390 . S
C1933 H1926 0.950 . S
C1933 C1930 1.387 . S
C1934 C1935 1.387 . S
C1934 H1938 0.950 . S
C1934 C1943 1.390 . S
C1935 C1934 1.387 . S
C1935 C1937 1.387 . S
H1936 C1943 0.950 . S
C1937 C1935 1.387 . S
C1937 C1939 1.390 . S
C1937 H1941 0.950 . S
H1938 C1934 0.950 . S
C1939 C1937 1.390 . S
C1939 C1940 1.387 . S
C1939 H1942 0.950 . S
C1940 C1939 1.387 . S
C1940 C1943 1.387 . S
H1941 C1937 0.950 . S
H1942 C1939 0.950 . S
C1943 C1934 1.390 . S
C1943 H1936 0.950 . S
C1943 C1940 1.387 . S
C1944 C1945 1.387 . S
C1944 H1948 0.950 . S
C1944 C1953 1.390 . S
C1945 C1944 1.387 . S
C1945 C1947 1.387 . S
H1946 C1953 0.950 . S
C1947 C1945 1.387 . S
C1947 C1949 1.390 . S
C1947 H1951 0.950 . S
H1948 C1944 0.950 . S
C1949 C1947 1.390 . S
C1949 C1950 1.387 . S
C1949 H1952 0.950 . S
C1950 C1949 1.387 . S
C1950 C1953 1.387 . S
H1951 C1947 0.950 . S
H1952 C1949 0.950 . S
C1953 C1944 1.390 . S
C1953 H1946 0.950 . S
C1953 C1950 1.387 . S
C1954 C1955 1.387 . S
C1954 H1958 0.950 . S
C1954 C1963 1.390 . S
C1955 C1954 1.387 . S
C1955 C1957 1.387 . S
H1956 C1963 0.950 . S
C1957 C1955 1.387 . S
C1957 C1959 1.390 . S
C1957 H1961 0.950 . S
H1958 C1954 0.950 . S
C1959 C1957 1.390 . S
C1959 C1960 1.387 . S
C1959 H1962 0.950 . S
C1960 C1959 1.387 . S
C1960 C1963 1.387 . S
H1961 C1957 0.950 . S
H1962 C1959 0.950 . S
C1963 C1954 1.390 . S
C1963 H1956 0.950 . S
C1963 C1960 1.387 . S
C1964 C1965 1.387 . S
C1964 H1968 0.950 . S
C1964 C1973 1.390 . S
C1965 C1964 1.387 . S
C1965 C1967 1.387 . S
H1966 C1973 0.950 . S
C1967 C1965 1.387 . S
C1967 C1969 1.390 . S
C1967 H1971 0.950 . S
H1968 C1964 0.950 . S
C1969 C1967 1.390 . S
C1969 C1970 1.387 . S
C1969 H1972 0.950 . S
C1970 C1969 1.387 . S
C1970 C1973 1.387 . S
H1971 C1967 0.950 . S
H1972 C1969 0.950 . S
C1973 C1964 1.390 . S
C1973 H1966 0.950 . S
C1973 C1970 1.387 . S
C1974 C1975 1.387 . S
C1974 H1978 0.950 . S
C1974 C1983 1.390 . S
C1975 C1974 1.387 . S
C1975 C1977 1.387 . S
H1976 C1983 0.950 . S
C1977 C1975 1.387 . S
C1977 C1979 1.390 . S
C1977 H1981 0.950 . S
H1978 C1974 0.950 . S
C1979 C1977 1.390 . S
C1979 C1980 1.387 . S
C1979 H1982 0.950 . S
C1980 C1979 1.387 . S
C1980 C1983 1.387 . S
H1981 C1977 0.950 . S
H1982 C1979 0.950 . S
C1983 C1974 1.390 . S
C1983 H1976 0.950 . S
C1983 C1980 1.387 . S
C1984 C1985 1.387 . S
C1984 H1988 0.950 . S
C1984 C1993 1.390 . S
C1985 C1984 1.387 . S
C1985 C1987 1.387 . S
H1986 C1993 0.950 . S
C1987 C1985 1.387 . S
C1987 C1989 1.390 . S
C1987 H1991 0.950 . S
H1988 C1984 0.950 . S
C1989 C1987 1.390 . S
C1989 C1990 1.387 . S
C1989 H1992 0.950 . S
C1990 C1989 1.387 . S
C1990 C1993 1.387 . S
H1991 C1987 0.950 . S
H1992 C1989 0.950 . S
C1993 C1984 1.390 . S
C1993 H1986 0.950 . S
C1993 C1990 1.387 . S
C1994 C1995 1.387 . S
C1994 H1998 0.950 . S
C1994 C2003 1.390 . S
C1995 C1994 1.387 . S
C1995 C1997 1.387 . S
H1996 C2003 0.950 . S
C1997 C1995 1.387 . S
C1997 C1999 1.390 . S
C1997 H2001 0.950 . S
H1998 C1994 0.950 . S
C1999 C1997 1.390 . S
C1999 C2000 1.387 . S
C1999 H2002 0.950 . S
C2000 C1999 1.387 . S
C2000 C2003 1.387 . S
H2001 C1997 0.950 . S
H2002 C1999 0.950 . S
C2003 C1994 1.390 . S
C2003 H1996 0.950 . S
C2003 C2000 1.387 . S
C2004 C2005 1.387 . S
C2004 H2008 0.950 . S
C2004 C2013 1.390 . S
C2005 C2004 1.387 . S
C2005 C2007 1.387 . S
H2006 C2013 0.950 . S
C2007 C2005 1.387 . S
C2007 C2009 1.390 . S
C2007 H2011 0.950 . S
H2008 C2004 0.950 . S
C2009 C2007 1.390 . S
C2009 C2010 1.387 . S
C2009 H2012 0.950 . S
C2010 C2009 1.387 . S
C2010 C2013 1.387 . S
H2011 C2007 0.950 . S
H2012 C2009 0.950 . S
C2013 C2004 1.390 . S
C2013 H2006 0.950 . S
C2013 C2010 1.387 . S
C2014 C2015 1.387 . S
C2014 H2018 0.950 . S
C2014 C2023 1.390 . S
C2015 C2014 1.387 . S
C2015 C2017 1.387 . S
H2016 C2023 0.950 . S
C2017 C2015 1.387 . S
C2017 C2019 1.390 . S
C2017 H2021 0.950 . S
H2018 C2014 0.950 . S
C2019 C2017 1.390 . S
C2019 C2020 1.387 . S
C2019 H2022 0.950 . S
C2020 C2019 1.387 . S
C2020 C2023 1.387 . S
H2021 C2017 0.950 . S
H2022 C2019 0.950 . S
C2023 C2014 1.390 . S
C2023 H2016 0.950 . S
C2023 C2020 1.387 . S
C2024 C2025 1.387 . S
C2024 H2028 0.950 . S
C2024 C2033 1.390 . S
C2025 C2024 1.387 . S
C2025 C2027 1.387 . S
H2026 C2033 0.950 . S
C2027 C2025 1.387 . S
C2027 C2029 1.390 . S
C2027 H2031 0.950 . S
H2028 C2024 0.950 . S
C2029 C2027 1.390 . S
C2029 C2030 1.387 . S
C2029 H2032 0.950 . S
C2030 C2029 1.387 . S
C2030 C2033 1.387 . S
H2031 C2027 0.950 . S
H2032 C2029 0.950 . S
C2033 C2024 1.390 . S
C2033 H2026 0.950 . S
C2033 C2030 1.387 . S
C2034 C2035 1.387 . S
C2034 H2038 0.950 . S
C2034 C2043 1.390 . S
C2035 C2034 1.387 . S
C2035 C2037 1.387 . S
H2036 C2043 0.950 . S
C2037 C2035 1.387 . S
C2037 C2039 1.390 . S
C2037 H2041 0.950 . S
H2038 C2034 0.950 . S
C2039 C2037 1.390 . S
C2039 C2040 1.387 . S
C2039 H2042 0.950 . S
C2040 C2039 1.387 . S
C2040 C2043 1.387 . S
H2041 C2037 0.950 . S
H2042 C2039 0.950 . S
C2043 C2034 1.390 . S
C2043 H2036 0.950 . S
C2043 C2040 1.387 . S
C2044 C2045 1.387 . S
C2044 H2048 0.950 . S
C2044 C2053 1.390 . S
C2045 C2044 1.387 . S
C2045 C2047 1.387 . S
H2046 C2053 0.950 . S
C2047 C2045 1.387 . S
C2047 C2049 1.390 . S
C2047 H2051 0.950 . S
H2048 C2044 0.950 . S
C2049 C2047 1.390 . S
C2049 C2050 1.387 . S
C2049 H2052 0.950 . S
C2050 C2049 1.387 . S
C2050 C2053 1.387 . S
H2051 C2047 0.950 . S
H2052 C2049 0.950 . S
C2053 C2044 1.390 . S
C2053 H2046 0.950 . S
C2053 C2050 1.387 . S
C2054 C2055 1.387 . S
C2054 H2058 0.950 . S
C2054 C2063 1.390 . S
C2055 C2054 1.387 . S
C2055 C2057 1.387 . S
H2056 C2063 0.950 . S
C2057 C2055 1.387 . S
C2057 C2059 1.390 . S
C2057 H2061 0.950 . S
H2058 C2054 0.950 . S
C2059 C2057 1.390 . S
C2059 C2060 1.387 . S
C2059 H2062 0.950 . S
C2060 C2059 1.387 . S
C2060 C2063 1.387 . S
H2061 C2057 0.950 . S
H2062 C2059 0.950 . S
C2063 C2054 1.390 . S
C2063 H2056 0.950 . S
C2063 C2060 1.387 . S
C2064 C2065 1.387 . S
C2064 H2068 0.950 . S
C2064 C2073 1.390 . S
C2065 C2064 1.387 . S
C2065 C2067 1.387 . S
H2066 C2073 0.950 . S
C2067 C2065 1.387 . S
C2067 C2069 1.390 . S
C2067 H2071 0.950 . S
H2068 C2064 0.950 . S
C2069 C2067 1.390 . S
C2069 C2070 1.387 . S
C2069 H2072 0.950 . S
C2070 C2069 1.387 . S
C2070 C2073 1.387 . S
H2071 C2067 0.950 . S
H2072 C2069 0.950 . S
C2073 C2064 1.390 . S
C2073 H2066 0.950 . S
C2073 C2070 1.387 . S
C2074 C2075 1.387 . S
C2074 H2078 0.950 . S
C2074 C2083 1.390 . S
C2075 C2074 1.387 . S
C2075 C2077 1.387 . S
H2076 C2083 0.950 . S
C2077 C2075 1.387 . S
C2077 C2079 1.390 . S
C2077 H2081 0.950 . S
H2078 C2074 0.950 . S
C2079 C2077 1.390 . S
C2079 C2080 1.387 . S
C2079 H2082 0.950 . S
C2080 C2079 1.387 . S
C2080 C2083 1.387 . S
H2081 C2077 0.950 . S
H2082 C2079 0.950 . S
C2083 C2074 1.390 . S
C2083 H2076 0.950 . S
C2083 C2080 1.387 . S
C2084 C2085 1.387 . S
C2084 H2088 0.950 . S
C2084 C2093 1.390 . S
C2085 C2084 1.387 . S
C2085 C2087 1.387 . S
H2086 C2093 0.950 . S
C2087 C2085 1.387 . S
C2087 C2089 1.390 . S
C2087 H2091 0.950 . S
H2088 C2084 0.950 . S
C2089 C2087 1.390 . S
C2089 C2090 1.387 . S
C2089 H2092 0.950 . S
C2090 C2089 1.387 . S
C2090 C2093 1.387 . S
H2091 C2087 0.950 . S
H2092 C2089 0.950 . S
C2093 C2084 1.390 . S
C2093 H2086 0.950 . S
C2093 C2090 1.387 . S
C2094 C2095 1.387 . S
C2094 H2098 0.950 . S
C2094 C2103 1.390 . S
C2095 C2094 1.387 . S
C2095 C2097 1.387 . S
H2096 C2103 0.950 . S
C2097 C2095 1.387 . S
C2097 C2099 1.390 . S
C2097 H2101 0.950 . S
H2098 C2094 0.950 . S
C2099 C2097 1.390 . S
C2099 C2100 1.387 . S
C2099 H2102 0.950 . S
C2100 C2099 1.387 . S
C2100 C2103 1.387 . S
H2101 C2097 0.950 . S
H2102 C2099 0.950 . S
C2103 C2094 1.390 . S
C2103 H2096 0.950 . S
C2103 C2100 1.387 . S
C2104 C2105 1.387 . S
C2104 H2108 0.950 . S
C2104 C2113 1.390 . S
C2105 C2104 1.387 . S
C2105 C2107 1.387 . S
H2106 C2113 0.950 . S
C2107 C2105 1.387 . S
C2107 C2109 1.390 . S
C2107 H2111 0.950 . S
H2108 C2104 0.950 . S
C2109 C2107 1.390 . S
C2109 C2110 1.387 . S
C2109 H2112 0.950 . S
C2110 C2109 1.387 . S
C2110 C2113 1.387 . S
H2111 C2107 0.950 . S
H2112 C2109 0.950 . S
C2113 C2104 1.390 . S
C2113 H2106 0.950 . S
C2113 C2110 1.387 . S
C2114 C2115 1.387 . S
C2114 H2118 0.950 . S
C2114 C2123 1.390 . S
C2115 C2114 1.387 . S
C2115 C2117 1.387 . S
H2116 C2123 0.950 . S
C2117 C2115 1.387 . S
C2117 C2119 1.390 . S
C2117 H2121 0.950 . S
H2118 C2114 0.950 . S
C2119 C2117 1.390 . S
C2119 C2120 1.387 . S
C2119 H2122 0.950 . S
C2120 C2119 1.387 . S
C2120 C2123 1.387 . S
H2121 C2117 0.950 . S
H2122 C2119 0.950 . S
C2123 C2114 1.390 . S
C2123 H2116 0.950 . S
C2123 C2120 1.387 . S
C2124 C2125 1.387 . S
C2124 H2128 0.950 . S
C2124 C2133 1.390 . S
C2125 C2124 1.387 . S
C2125 C2127 1.387 . S
H2126 C2133 0.950 . S
C2127 C2125 1.387 . S
C2127 C2129 1.390 . S
C2127 H2131 0.950 . S
H2128 C2124 0.950 . S
C2129 C2127 1.390 . S
C2129 C2130 1.387 . S
C2129 H2132 0.950 . S
C2130 C2129 1.387 . S
C2130 C2133 1.387 . S
H2131 C2127 0.950 . S
H2132 C2129 0.950 . S
C2133 C2124 1.390 . S
C2133 H2126 0.950 . S
C2133 C2130 1.387 . S
C2134 C2135 1.387 . S
C2134 H2138 0.950 . S
C2134 C2143 1.390 . S
C2135 C2134 1.387 . S
C2135 C2137 1.387 . S
H2136 C2143 0.950 . S
C2137 C2135 1.387 . S
C2137 C2139 1.390 . S
C2137 H2141 0.950 . S
H2138 C2134 0.950 . S
C2139 C2137 1.390 . S
C2139 C2140 1.387 . S
C2139 H2142 0.950 . S
C2140 C2139 1.387 . S
C2140 C2143 1.387 . S
H2141 C2137 0.950 . S
H2142 C2139 0.950 . S
C2143 C2134 1.390 . S
C2143 H2136 0.950 . S
C2143 C2140 1.387 . S
C2144 C2145 1.387 . S
C2144 H2148 0.950 . S
C2144 C2153 1.390 . S
C2145 C2144 1.387 . S
C2145 C2147 1.387 . S
H2146 C2153 0.950 . S
C2147 C2145 1.387 . S
C2147 C2149 1.390 . S
C2147 H2151 0.950 . S
H2148 C2144 0.950 . S
C2149 C2147 1.390 . S
C2149 C2150 1.387 . S
C2149 H2152 0.950 . S
C2150 C2149 1.387 . S
C2150 C2153 1.387 . S
H2151 C2147 0.950 . S
H2152 C2149 0.950 . S
C2153 C2144 1.390 . S
C2153 H2146 0.950 . S
C2153 C2150 1.387 . S
C2154 C2155 1.387 . S
C2154 H2158 0.950 . S
C2154 C2163 1.390 . S
C2155 C2154 1.387 . S
C2155 C2157 1.387 . S
H2156 C2163 0.950 . S
C2157 C2155 1.387 . S
C2157 C2159 1.390 . S
C2157 H2161 0.950 . S
H2158 C2154 0.950 . S
C2159 C2157 1.390 . S
C2159 C2160 1.387 . S
C2159 H2162 0.950 . S
C2160 C2159 1.387 . S
C2160 C2163 1.387 . S
H2161 C2157 0.950 . S
H2162 C2159 0.950 . S
C2163 C2154 1.390 . S
C2163 H2156 0.950 . S
C2163 C2160 1.387 . S
C2164 C2165 1.387 . S
C2164 H2168 0.950 . S
C2164 C2173 1.390 . S
C2165 C2164 1.387 . S
C2165 C2167 1.387 . S
H2166 C2173 0.950 . S
C2167 C2165 1.387 . S
C2167 C2169 1.390 . S
C2167 H2171 0.950 . S
H2168 C2164 0.950 . S
C2169 C2167 1.390 . S
C2169 C2170 1.387 . S
C2169 H2172 0.950 . S
C2170 C2169 1.387 . S
C2170 C2173 1.387 . S
H2171 C2167 0.950 . S
H2172 C2169 0.950 . S
C2173 C2164 1.390 . S
C2173 H2166 0.950 . S
C2173 C2170 1.387 . S
C2174 C2175 1.387 . S
C2174 H2178 0.950 . S
C2174 C2183 1.390 . S
C2175 C2174 1.387 . S
C2175 C2177 1.387 . S
H2176 C2183 0.950 . S
C2177 C2175 1.387 . S
C2177 C2179 1.390 . S
C2177 H2181 0.950 . S
H2178 C2174 0.950 . S
C2179 C2177 1.390 . S
C2179 C2180 1.387 . S
C2179 H2182 0.950 . S
C2180 C2179 1.387 . S
C2180 C2183 1.387 . S
H2181 C2177 0.950 . S
H2182 C2179 0.950 . S
C2183 C2174 1.390 . S
C2183 H2176 0.950 . S
C2183 C2180 1.387 . S
C2184 C2185 1.387 . S
C2184 H2188 0.950 . S
C2184 C2193 1.390 . S
C2185 C2184 1.387 . S
C2185 C2187 1.387 . S
H2186 C2193 0.950 . S
C2187 C2185 1.387 . S
C2187 C2189 1.390 . S
C2187 H2191 0.950 . S
H2188 C2184 0.950 . S
C2189 C2187 1.390 . S
C2189 C2190 1.387 . S
C2189 H2192 0.950 . S
C2190 C2189 1.387 . S
C2190 C2193 1.387 . S
H2191 C2187 0.950 . S
H2192 C2189 0.950 . S
C2193 C2184 1.390 . S
C2193 H2186 0.950 . S
C2193 C2190 1.387 . S
C2194 C2195 1.387 . S
C2194 H2198 0.950 . S
C2194 C2203 1.390 . S
C2195 C2194 1.387 . S
C2195 C2197 1.387 . S
H2196 C2203 0.950 . S
C2197 C2195 1.387 . S
C2197 C2199 1.390 . S
C2197 H2201 0.950 . S
H2198 C2194 0.950 . S
C2199 C2197 1.390 . S
C2199 C2200 1.387 . S
C2199 H2202 0.950 . S
C2200 C2199 1.387 . S
C2200 C2203 1.387 . S
H2201 C2197 0.950 . S
H2202 C2199 0.950 . S
C2203 C2194 1.390 . S
C2203 H2196 0.950 . S
C2203 C2200 1.387 . S
C2204 C2205 1.387 . S
C2204 H2208 0.950 . S
C2204 C2213 1.390 . S
C2205 C2204 1.387 . S
C2205 C2207 1.387 . S
H2206 C2213 0.950 . S
C2207 C2205 1.387 . S
C2207 C2209 1.390 . S
C2207 H2211 0.950 . S
H2208 C2204 0.950 . S
C2209 C2207 1.390 . S
C2209 C2210 1.387 . S
C2209 H2212 0.950 . S
C2210 C2209 1.387 . S
C2210 C2213 1.387 . S
H2211 C2207 0.950 . S
H2212 C2209 0.950 . S
C2213 C2204 1.390 . S
C2213 H2206 0.950 . S
C2213 C2210 1.387 . S
C2214 C2215 1.387 . S
C2214 H2218 0.950 . S
C2214 C2223 1.390 . S
C2215 C2214 1.387 . S
C2215 C2217 1.387 . S
H2216 C2223 0.950 . S
C2217 C2215 1.387 . S
C2217 C2219 1.390 . S
C2217 H2221 0.950 . S
H2218 C2214 0.950 . S
C2219 C2217 1.390 . S
C2219 C2220 1.387 . S
C2219 H2222 0.950 . S
C2220 C2219 1.387 . S
C2220 C2223 1.387 . S
H2221 C2217 0.950 . S
H2222 C2219 0.950 . S
C2223 C2214 1.390 . S
C2223 H2216 0.950 . S
C2223 C2220 1.387 . S
C2224 C2225 1.387 . S
C2224 H2228 0.950 . S
C2224 C2233 1.390 . S
C2225 C2224 1.387 . S
C2225 C2227 1.387 . S
H2226 C2233 0.950 . S
C2227 C2225 1.387 . S
C2227 C2229 1.390 . S
C2227 H2231 0.950 . S
H2228 C2224 0.950 . S
C2229 C2227 1.390 . S
C2229 C2230 1.387 . S
C2229 H2232 0.950 . S
C2230 C2229 1.387 . S
C2230 C2233 1.387 . S
H2231 C2227 0.950 . S
H2232 C2229 0.950 . S
C2233 C2224 1.390 . S
C2233 H2226 0.950 . S
C2233 C2230 1.387 . S
C2234 C2235 1.387 . S
C2234 H2238 0.950 . S
C2234 C2243 1.390 . S
C2235 C2234 1.387 . S
C2235 C2237 1.387 . S
H2236 C2243 0.950 . S
C2237 C2235 1.387 . S
C2237 C2239 1.390 . S
C2237 H2241 0.950 . S
H2238 C2234 0.950 . S
C2239 C2237 1.390 . S
C2239 C2240 1.387 . S
C2239 H2242 0.950 . S
C2240 C2239 1.387 . S
C2240 C2243 1.387 . S
H2241 C2237 0.950 . S
H2242 C2239 0.950 . S
C2243 C2234 1.390 . S
C2243 H2236 0.950 . S
C2243 C2240 1.387 . S
C2244 C2245 1.387 . S
C2244 H2248 0.950 . S
C2244 C2253 1.390 . S
C2245 C2244 1.387 . S
C2245 C2247 1.387 . S
H2246 C2253 0.950 . S
C2247 C2245 1.387 . S
C2247 C2249 1.390 . S
C2247 H2251 0.950 . S
H2248 C2244 0.950 . S
C2249 C2247 1.390 . S
C2249 C2250 1.387 . S
C2249 H2252 0.950 . S
C2250 C2249 1.387 . S
C2250 C2253 1.387 . S
H2251 C2247 0.950 . S
H2252 C2249 0.950 . S
C2253 C2244 1.390 . S
C2253 H2246 0.950 . S
C2253 C2250 1.387 . S
C2254 C2255 1.387 . S
C2254 H2258 0.950 . S
C2254 C2263 1.390 . S
C2255 C2254 1.387 . S
C2255 C2257 1.387 . S
H2256 C2263 0.950 . S
C2257 C2255 1.387 . S
C2257 C2259 1.390 . S
C2257 H2261 0.950 . S
H2258 C2254 0.950 . S
C2259 C2257 1.390 . S
C2259 C2260 1.387 . S
C2259 H2262 0.950 . S
C2260 C2259 1.387 . S
C2260 C2263 1.387 . S
H2261 C2257 0.950 . S
H2262 C2259 0.950 . S
C2263 C2254 1.390 . S
C2263 H2256 0.950 . S
C2263 C2260 1.387 . S
C2264 C2265 1.387 . S
C2264 H2268 0.950 . S
C2264 C2273 1.390 . S
C2265 C2264 1.387 . S
C2265 C2267 1.387 . S
H2266 C2273 0.950 . S
C2267 C2265 1.387 . S
C2267 C2269 1.390 . S
C2267 H2271 0.950 . S
H2268 C2264 0.950 . S
C2269 C2267 1.390 . S
C2269 C2270 1.387 . S
C2269 H2272 0.950 . S
C2270 C2269 1.387 . S
C2270 C2273 1.387 . S
H2271 C2267 0.950 . S
H2272 C2269 0.950 . S
C2273 C2264 1.390 . S
C2273 H2266 0.950 . S
C2273 C2270 1.387 . S
C2274 C2275 1.387 . S
C2274 H2278 0.950 . S
C2274 C2283 1.390 . S
C2275 C2274 1.387 . S
C2275 C2277 1.387 . S
H2276 C2283 0.950 . S
C2277 C2275 1.387 . S
C2277 C2279 1.390 . S
C2277 H2281 0.950 . S
H2278 C2274 0.950 . S
C2279 C2277 1.390 . S
C2279 C2280 1.387 . S
C2279 H2282 0.950 . S
C2280 C2279 1.387 . S
C2280 C2283 1.387 . S
H2281 C2277 0.950 . S
H2282 C2279 0.950 . S
C2283 C2274 1.390 . S
C2283 H2276 0.950 . S
C2283 C2280 1.387 . S
C2284 C2285 1.387 . S
C2284 H2288 0.950 . S
C2284 C2293 1.390 . S
C2285 C2284 1.387 . S
C2285 C2287 1.387 . S
H2286 C2293 0.950 . S
C2287 C2285 1.387 . S
C2287 C2289 1.390 . S
C2287 H2291 0.950 . S
H2288 C2284 0.950 . S
C2289 C2287 1.390 . S
C2289 C2290 1.387 . S
C2289 H2292 0.950 . S
C2290 C2289 1.387 . S
C2290 C2293 1.387 . S
H2291 C2287 0.950 . S
H2292 C2289 0.950 . S
C2293 C2284 1.390 . S
C2293 H2286 0.950 . S
C2293 C2290 1.387 . S
C2294 C2295 1.387 . S
C2294 H2298 0.950 . S
C2294 C2303 1.390 . S
C2295 C2294 1.387 . S
C2295 C2297 1.387 . S
H2296 C2303 0.950 . S
C2297 C2295 1.387 . S
C2297 C2299 1.390 . S
C2297 H2301 0.950 . S
H2298 C2294 0.950 . S
C2299 C2297 1.390 . S
C2299 C2300 1.387 . S
C2299 H2302 0.950 . S
C2300 C2299 1.387 . S
C2300 C2303 1.387 . S
H2301 C2297 0.950 . S
H2302 C2299 0.950 . S
C2303 C2294 1.390 . S
C2303 H2296 0.950 . S
C2303 C2300 1.387 . S
C2304 C2305 1.387 . S
C2304 H2308 0.950 . S
C2304 C2313 1.390 1_455 S
C2305 C2304 1.387 . S
C2305 C2307 1.387 . S
H2306 C2313 0.950 . S
C2307 C2305 1.387 . S
C2307 C2309 1.390 1_455 S
C2307 H2311 0.950 . S
H2308 C2304 0.950 . S
C2309 C2307 1.390 1_655 S
C2309 C2310 1.387 . S
C2309 H2312 0.950 . S
C2310 C2309 1.387 . S
C2310 C2313 1.387 . S
H2311 C2307 0.950 . S
H2312 C2309 0.950 . S
C2313 C2304 1.390 1_655 S
C2313 H2306 0.950 . S
C2313 C2310 1.387 . S
C2314 C2315 1.387 . S
C2314 H2318 0.950 . S
C2314 C2323 1.390 1_565 S
C2315 C2314 1.387 . S
C2315 C2317 1.387 . S
H2316 C2323 0.950 . S
C2317 C2315 1.387 . S
C2317 C2319 1.390 1_565 S
C2317 H2321 0.950 . S
H2318 C2314 0.950 . S
C2319 C2317 1.390 1_545 S
C2319 C2320 1.387 . S
C2319 H2322 0.950 . S
C2320 C2319 1.387 . S
C2320 C2323 1.387 . S
H2321 C2317 0.950 . S
H2322 C2319 0.950 . S
C2323 C2314 1.390 1_545 S
C2323 H2316 0.950 . S
C2323 C2320 1.387 . S
C2324 C2325 1.387 . S
C2324 H2328 0.950 . S
C2324 C2333 1.390 1_655 S
C2325 C2324 1.387 . S
C2325 C2327 1.387 . S
H2326 C2333 0.950 . S
C2327 C2325 1.387 . S
C2327 C2329 1.390 1_655 S
C2327 H2331 0.950 . S
H2328 C2324 0.950 . S
C2329 C2327 1.390 1_455 S
C2329 C2330 1.387 . S
C2329 H2332 0.950 . S
C2330 C2329 1.387 . S
C2330 C2333 1.387 . S
H2331 C2327 0.950 . S
H2332 C2329 0.950 . S
C2333 C2324 1.390 1_455 S
C2333 H2326 0.950 . S
C2333 C2330 1.387 . S
C2334 C2335 1.387 . S
C2334 H2338 0.950 . S
C2334 C2343 1.390 1_545 S
C2335 C2334 1.387 . S
C2335 C2337 1.387 . S
H2336 C2343 0.950 . S
C2337 C2335 1.387 . S
C2337 C2339 1.390 1_545 S
C2337 H2341 0.950 . S
H2338 C2334 0.950 . S
C2339 C2337 1.390 1_565 S
C2339 C2340 1.387 . S
C2339 H2342 0.950 . S
C2340 C2339 1.387 . S
C2340 C2343 1.387 . S
H2341 C2337 0.950 . S
H2342 C2339 0.950 . S
C2343 C2334 1.390 1_565 S
C2343 H2336 0.950 . S
C2343 C2340 1.387 . S
C2344 C2345 1.387 . S
C2344 H2348 0.950 . S
C2344 C2353 1.390 1_455 S
C2345 C2344 1.387 . S
C2345 C2347 1.387 . S
H2346 C2353 0.950 . S
C2347 C2345 1.387 . S
C2347 C2349 1.390 1_455 S
C2347 H2351 0.950 . S
H2348 C2344 0.950 . S
C2349 C2347 1.390 1_655 S
C2349 C2350 1.387 . S
C2349 H2352 0.950 . S
C2350 C2349 1.387 . S
C2350 C2353 1.387 . S
H2351 C2347 0.950 . S
H2352 C2349 0.950 . S
C2353 C2344 1.390 1_655 S
C2353 H2346 0.950 . S
C2353 C2350 1.387 . S
C2354 C2355 1.387 . S
C2354 H2358 0.950 . S
C2354 C2363 1.390 1_545 S
C2355 C2354 1.387 . S
C2355 C2357 1.387 . S
H2356 C2363 0.950 . S
C2357 C2355 1.387 . S
C2357 C2359 1.390 1_545 S
C2357 H2361 0.950 . S
H2358 C2354 0.950 . S
C2359 C2357 1.390 1_565 S
C2359 C2360 1.387 . S
C2359 H2362 0.950 . S
C2360 C2359 1.387 . S
C2360 C2363 1.387 . S
H2361 C2357 0.950 . S
H2362 C2359 0.950 . S
C2363 C2354 1.390 1_565 S
C2363 H2356 0.950 . S
C2363 C2360 1.387 . S
C2364 C2365 1.387 . S
C2364 H2368 0.950 . S
C2364 C2373 1.390 1_655 S
C2365 C2364 1.387 . S
C2365 C2367 1.387 . S
H2366 C2373 0.950 . S
C2367 C2365 1.387 . S
C2367 C2369 1.390 1_655 S
C2367 H2371 0.950 . S
H2368 C2364 0.950 . S
C2369 C2367 1.390 1_455 S
C2369 C2370 1.387 . S
C2369 H2372 0.950 . S
C2370 C2369 1.387 . S
C2370 C2373 1.387 . S
H2371 C2367 0.950 . S
H2372 C2369 0.950 . S
C2373 C2364 1.390 1_455 S
C2373 H2366 0.950 . S
C2373 C2370 1.387 . S
C2374 C2375 1.387 . S
C2374 H2378 0.950 . S
C2374 C2383 1.390 1_545 S
C2375 C2374 1.387 . S
C2375 C2377 1.387 . S
H2376 C2383 0.950 . S
C2377 C2375 1.387 . S
C2377 C2379 1.390 1_545 S
C2377 H2381 0.950 . S
H2378 C2374 0.950 . S
C2379 C2377 1.390 1_565 S
C2379 C2380 1.387 . S
C2379 H2382 0.950 . S
C2380 C2379 1.387 . S
C2380 C2383 1.387 . S
H2381 C2377 0.950 . S
H2382 C2379 0.950 . S
C2383 C2374 1.390 1_565 S
C2383 H2376 0.950 . S
C2383 C2380 1.387 . S
C2384 C2385 1.387 . S
C2384 H2388 0.950 . S
C2384 C2393 1.390 1_565 S
C2385 C2384 1.387 . S
C2385 C2387 1.387 . S
H2386 C2393 0.950 . S
C2387 C2385 1.387 . S
C2387 C2389 1.390 1_565 S
C2387 H2391 0.950 . S
H2388 C2384 0.950 . S
C2389 C2387 1.390 1_545 S
C2389 C2390 1.387 . S
C2389 H2392 0.950 . S
C2390 C2389 1.387 . S
C2390 C2393 1.387 . S
H2391 C2387 0.950 . S
H2392 C2389 0.950 . S
C2393 C2384 1.390 1_545 S
C2393 H2386 0.950 . S
C2393 C2390 1.387 . S
C2394 C2395 1.387 . S
C2394 H2398 0.950 . S
C2394 C2403 1.390 1_655 S
C2395 C2394 1.387 . S
C2395 C2397 1.387 . S
H2396 C2403 0.950 . S
C2397 C2395 1.387 . S
C2397 C2399 1.390 1_655 S
C2397 H2401 0.950 . S
H2398 C2394 0.950 . S
C2399 C2397 1.390 1_455 S
C2399 C2400 1.387 . S
C2399 H2402 0.950 . S
C2400 C2399 1.387 . S
C2400 C2403 1.387 . S
H2401 C2397 0.950 . S
H2402 C2399 0.950 . S
C2403 C2394 1.390 1_455 S
C2403 H2396 0.950 . S
C2403 C2400 1.387 . S
C2404 C2405 1.387 . S
C2404 H2408 0.950 . S
C2404 C2413 1.390 1_565 S
C2405 C2404 1.387 . S
C2405 C2407 1.387 . S
H2406 C2413 0.950 . S
C2407 C2405 1.387 . S
C2407 C2409 1.390 1_565 S
C2407 H2411 0.950 . S
H2408 C2404 0.950 . S
C2409 C2407 1.390 1_545 S
C2409 C2410 1.387 . S
C2409 H2412 0.950 . S
C2410 C2409 1.387 . S
C2410 C2413 1.387 . S
H2411 C2407 0.950 . S
H2412 C2409 0.950 . S
C2413 C2404 1.390 1_545 S
C2413 H2406 0.950 . S
C2413 C2410 1.387 . S
C2414 C2415 1.387 . S
C2414 H2418 0.950 . S
C2414 C2423 1.390 1_455 S
C2415 C2414 1.387 . S
C2415 C2417 1.387 . S
H2416 C2423 0.950 . S
C2417 C2415 1.387 . S
C2417 C2419 1.390 1_455 S
C2417 H2421 0.950 . S
H2418 C2414 0.950 . S
C2419 C2417 1.390 1_655 S
C2419 C2420 1.387 . S
C2419 H2422 0.950 . S
C2420 C2419 1.387 . S
C2420 C2423 1.387 . S
H2421 C2417 0.950 . S
H2422 C2419 0.950 . S
C2423 C2414 1.390 1_655 S
C2423 H2416 0.950 . S
C2423 C2420 1.387 . S
C2424 C2425 1.387 . S
C2424 H2428 0.950 . S
C2424 C2433 1.390 1_565 S
C2425 C2424 1.387 . S
C2425 C2427 1.387 . S
H2426 C2433 0.950 . S
C2427 C2425 1.387 . S
C2427 C2429 1.390 1_565 S
C2427 H2431 0.950 . S
H2428 C2424 0.950 . S
C2429 C2427 1.390 1_545 S
C2429 C2430 1.387 . S
C2429 H2432 0.950 . S
C2430 C2429 1.387 . S
C2430 C2433 1.387 . S
H2431 C2427 0.950 . S
H2432 C2429 0.950 . S
C2433 C2424 1.390 1_545 S
C2433 H2426 0.950 . S
C2433 C2430 1.387 . S
C2434 C2435 1.387 . S
C2434 H2438 0.950 . S
C2434 C2443 1.390 1_455 S
C2435 C2434 1.387 . S
C2435 C2437 1.387 . S
H2436 C2443 0.950 . S
C2437 C2435 1.387 . S
C2437 C2439 1.390 1_455 S
C2437 H2441 0.950 . S
H2438 C2434 0.950 . S
C2439 C2437 1.390 1_655 S
C2439 C2440 1.387 . S
C2439 H2442 0.950 . S
C2440 C2439 1.387 . S
C2440 C2443 1.387 . S
H2441 C2437 0.950 . S
H2442 C2439 0.950 . S
C2443 C2434 1.390 1_655 S
C2443 H2436 0.950 . S
C2443 C2440 1.387 . S
C2444 C2445 1.387 . S
C2444 H2448 0.950 . S
C2444 C2453 1.390 1_545 S
C2445 C2444 1.387 . S
C2445 C2447 1.387 . S
H2446 C2453 0.950 . S
C2447 C2445 1.387 . S
C2447 C2449 1.390 1_545 S
C2447 H2451 0.950 . S
H2448 C2444 0.950 . S
C2449 C2447 1.390 1_565 S
C2449 C2450 1.387 . S
C2449 H2452 0.950 . S
C2450 C2449 1.387 . S
C2450 C2453 1.387 . S
H2451 C2447 0.950 . S
H2452 C2449 0.950 . S
C2453 C2444 1.390 1_565 S
C2453 H2446 0.950 . S
C2453 C2450 1.387 . S
C2454 C2455 1.387 . S
C2454 H2458 0.950 . S
C2454 C2463 1.390 1_655 S
C2455 C2454 1.387 . S
C2455 C2457 1.387 . S
H2456 C2463 0.950 . S
C2457 C2455 1.387 . S
C2457 C2459 1.390 1_655 S
C2457 H2461 0.950 . S
H2458 C2454 0.950 . S
C2459 C2457 1.390 1_455 S
C2459 C2460 1.387 . S
C2459 H2462 0.950 . S
C2460 C2459 1.387 . S
C2460 C2463 1.387 . S
H2461 C2457 0.950 . S
H2462 C2459 0.950 . S
C2463 C2454 1.390 1_455 S
C2463 H2456 0.950 . S
C2463 C2460 1.387 . S
C2464 C2465 1.387 . S
C2464 H2468 0.950 . S
C2464 C2473 1.390 1_554 S
C2465 C2464 1.387 . S
C2465 C2467 1.387 . S
H2466 C2473 0.950 . S
C2467 C2465 1.387 . S
C2467 C2469 1.390 1_554 S
C2467 H2471 0.950 . S
H2468 C2464 0.950 . S
C2469 C2467 1.390 1_556 S
C2469 C2470 1.387 . S
C2469 H2472 0.950 . S
C2470 C2469 1.387 . S
C2470 C2473 1.387 . S
H2471 C2467 0.950 . S
H2472 C2469 0.950 . S
C2473 C2464 1.390 1_556 S
C2473 H2466 0.950 . S
C2473 C2470 1.387 . S
C2474 C2475 1.387 . S
C2474 H2478 0.950 . S
C2474 C2483 1.390 1_556 S
C2475 C2474 1.387 . S
C2475 C2477 1.387 . S
H2476 C2483 0.950 . S
C2477 C2475 1.387 . S
C2477 C2479 1.390 1_556 S
C2477 H2481 0.950 . S
H2478 C2474 0.950 . S
C2479 C2477 1.390 1_554 S
C2479 C2480 1.387 . S
C2479 H2482 0.950 . S
C2480 C2479 1.387 . S
C2480 C2483 1.387 . S
H2481 C2477 0.950 . S
H2482 C2479 0.950 . S
C2483 C2474 1.390 1_554 S
C2483 H2476 0.950 . S
C2483 C2480 1.387 . S
C2484 C2485 1.387 . S
C2484 H2488 0.950 . S
C2484 C2493 1.390 1_554 S
C2485 C2484 1.387 . S
C2485 C2487 1.387 . S
H2486 C2493 0.950 . S
C2487 C2485 1.387 . S
C2487 C2489 1.390 1_554 S
C2487 H2491 0.950 . S
H2488 C2484 0.950 . S
C2489 C2487 1.390 1_556 S
C2489 C2490 1.387 . S
C2489 H2492 0.950 . S
C2490 C2489 1.387 . S
C2490 C2493 1.387 . S
H2491 C2487 0.950 . S
H2492 C2489 0.950 . S
C2493 C2484 1.390 1_556 S
C2493 H2486 0.950 . S
C2493 C2490 1.387 . S
C2494 C2495 1.387 . S
C2494 H2498 0.950 . S
C2494 C2503 1.390 1_556 S
C2495 C2494 1.387 . S
C2495 C2497 1.387 . S
H2496 C2503 0.950 . S
C2497 C2495 1.387 . S
C2497 C2499 1.390 1_556 S
C2497 H2501 0.950 . S
H2498 C2494 0.950 . S
C2499 C2497 1.390 1_554 S
C2499 C2500 1.387 . S
C2499 H2502 0.950 . S
C2500 C2499 1.387 . S
C2500 C2503 1.387 . S
H2501 C2497 0.950 . S
H2502 C2499 0.950 . S
C2503 C2494 1.390 1_554 S
C2503 H2496 0.950 . S
C2503 C2500 1.387 . S
C2504 C2505 1.387 . S
C2504 H2508 0.950 . S
C2504 C2513 1.390 1_554 S
C2505 C2504 1.387 . S
C2505 C2507 1.387 . S
H2506 C2513 0.950 . S
C2507 C2505 1.387 . S
C2507 C2509 1.390 1_554 S
C2507 H2511 0.950 . S
H2508 C2504 0.950 . S
C2509 C2507 1.390 1_556 S
C2509 C2510 1.387 . S
C2509 H2512 0.950 . S
C2510 C2509 1.387 . S
C2510 C2513 1.387 . S
H2511 C2507 0.950 . S
H2512 C2509 0.950 . S
C2513 C2504 1.390 1_556 S
C2513 H2506 0.950 . S
C2513 C2510 1.387 . S
C2514 C2515 1.387 . S
C2514 H2518 0.950 . S
C2514 C2523 1.390 1_554 S
C2515 C2514 1.387 . S
C2515 C2517 1.387 . S
H2516 C2523 0.950 . S
C2517 C2515 1.387 . S
C2517 C2519 1.390 1_554 S
C2517 H2521 0.950 . S
H2518 C2514 0.950 . S
C2519 C2517 1.390 1_556 S
C2519 C2520 1.387 . S
C2519 H2522 0.950 . S
C2520 C2519 1.387 . S
C2520 C2523 1.387 . S
H2521 C2517 0.950 . S
H2522 C2519 0.950 . S
C2523 C2514 1.390 1_556 S
C2523 H2516 0.950 . S
C2523 C2520 1.387 . S
C2524 C2525 1.387 . S
C2524 H2528 0.950 . S
C2524 C2533 1.390 1_554 S
C2525 C2524 1.387 . S
C2525 C2527 1.387 . S
H2526 C2533 0.950 . S
C2527 C2525 1.387 . S
C2527 C2529 1.390 1_554 S
C2527 H2531 0.950 . S
H2528 C2524 0.950 . S
C2529 C2527 1.390 1_556 S
C2529 C2530 1.387 . S
C2529 H2532 0.950 . S
C2530 C2529 1.387 . S
C2530 C2533 1.387 . S
H2531 C2527 0.950 . S
H2532 C2529 0.950 . S
C2533 C2524 1.390 1_556 S
C2533 H2526 0.950 . S
C2533 C2530 1.387 . S
C2534 C2535 1.387 . S
C2534 H2538 0.950 . S
C2534 C2543 1.390 1_556 S
C2535 C2534 1.387 . S
C2535 C2537 1.387 . S
H2536 C2543 0.950 . S
C2537 C2535 1.387 . S
C2537 C2539 1.390 1_556 S
C2537 H2541 0.950 . S
H2538 C2534 0.950 . S
C2539 C2537 1.390 1_554 S
C2539 C2540 1.387 . S
C2539 H2542 0.950 . S
C2540 C2539 1.387 . S
C2540 C2543 1.387 . S
H2541 C2537 0.950 . S
H2542 C2539 0.950 . S
C2543 C2534 1.390 1_554 S
C2543 H2536 0.950 . S
C2543 C2540 1.387 . S
C2544 C2545 1.387 . S
C2544 H2548 0.950 . S
C2544 C2553 1.390 . S
C2545 C2544 1.387 . S
C2545 C2547 1.387 . S
H2546 C2553 0.950 . S
C2547 C2545 1.387 . S
C2547 C2549 1.390 . S
C2547 H2551 0.950 . S
H2548 C2544 0.950 . S
C2549 C2547 1.390 . S
C2549 C2550 1.387 . S
C2549 H2552 0.950 . S
C2550 C2549 1.387 . S
C2550 C2553 1.387 . S
H2551 C2547 0.950 . S
H2552 C2549 0.950 . S
C2553 C2544 1.390 . S
C2553 H2546 0.950 . S
C2553 C2550 1.387 . S
C2554 C2555 1.387 . S
C2554 H2558 0.950 . S
C2554 C2563 1.390 . S
C2555 C2554 1.387 . S
C2555 C2557 1.387 . S
H2556 C2563 0.950 . S
C2557 C2555 1.387 . S
C2557 C2559 1.390 . S
C2557 H2561 0.950 . S
H2558 C2554 0.950 . S
C2559 C2557 1.390 . S
C2559 C2560 1.387 . S
C2559 H2562 0.950 . S
C2560 C2559 1.387 . S
C2560 C2563 1.387 . S
H2561 C2557 0.950 . S
H2562 C2559 0.950 . S
C2563 C2554 1.390 . S
C2563 H2556 0.950 . S
C2563 C2560 1.387 . S
C2564 C2565 1.387 . S
C2564 H2568 0.950 . S
C2564 C2573 1.390 . S
C2565 C2564 1.387 . S
C2565 C2567 1.387 . S
H2566 C2573 0.950 . S
C2567 C2565 1.387 . S
C2567 C2569 1.390 . S
C2567 H2571 0.950 . S
H2568 C2564 0.950 . S
C2569 C2567 1.390 . S
C2569 C2570 1.387 . S
C2569 H2572 0.950 . S
C2570 C2569 1.387 . S
C2570 C2573 1.387 . S
H2571 C2567 0.950 . S
H2572 C2569 0.950 . S
C2573 C2564 1.390 . S
C2573 H2566 0.950 . S
C2573 C2570 1.387 . S
C2574 C2575 1.387 . S
C2574 H2578 0.950 . S
C2574 C2583 1.390 . S
C2575 C2574 1.387 . S
C2575 C2577 1.387 . S
H2576 C2583 0.950 . S
C2577 C2575 1.387 . S
C2577 C2579 1.390 . S
C2577 H2581 0.950 . S
H2578 C2574 0.950 . S
C2579 C2577 1.390 . S
C2579 C2580 1.387 . S
C2579 H2582 0.950 . S
C2580 C2579 1.387 . S
C2580 C2583 1.387 . S
H2581 C2577 0.950 . S
H2582 C2579 0.950 . S
C2583 C2574 1.390 . S
C2583 H2576 0.950 . S
C2583 C2580 1.387 . S
C2584 C2585 1.387 . S
C2584 H2588 0.950 . S
C2584 C2593 1.390 . S
C2585 C2584 1.387 . S
C2585 C2587 1.387 . S
H2586 C2593 0.950 . S
C2587 C2585 1.387 . S
C2587 C2589 1.390 . S
C2587 H2591 0.950 . S
H2588 C2584 0.950 . S
C2589 C2587 1.390 . S
C2589 C2590 1.387 . S
C2589 H2592 0.950 . S
C2590 C2589 1.387 . S
C2590 C2593 1.387 . S
H2591 C2587 0.950 . S
H2592 C2589 0.950 . S
C2593 C2584 1.390 . S
C2593 H2586 0.950 . S
C2593 C2590 1.387 . S
C2594 C2595 1.387 . S
C2594 H2598 0.950 . S
C2594 C2603 1.390 . S
C2595 C2594 1.387 . S
C2595 C2597 1.387 . S
H2596 C2603 0.950 . S
C2597 C2595 1.387 . S
C2597 C2599 1.390 . S
C2597 H2601 0.950 . S
H2598 C2594 0.950 . S
C2599 C2597 1.390 . S
C2599 C2600 1.387 . S
C2599 H2602 0.950 . S
C2600 C2599 1.387 . S
C2600 C2603 1.387 . S
H2601 C2597 0.950 . S
H2602 C2599 0.950 . S
C2603 C2594 1.390 . S
C2603 H2596 0.950 . S
C2603 C2600 1.387 . S
C2604 C2605 1.387 . S
C2604 H2608 0.950 . S
C2604 C2613 1.390 . S
C2605 C2604 1.387 . S
C2605 C2607 1.387 . S
H2606 C2613 0.950 . S
C2607 C2605 1.387 . S
C2607 C2609 1.390 . S
C2607 H2611 0.950 . S
H2608 C2604 0.950 . S
C2609 C2607 1.390 . S
C2609 C2610 1.387 . S
C2609 H2612 0.950 . S
C2610 C2609 1.387 . S
C2610 C2613 1.387 . S
H2611 C2607 0.950 . S
H2612 C2609 0.950 . S
C2613 C2604 1.390 . S
C2613 H2606 0.950 . S
C2613 C2610 1.387 . S
C2614 C2615 1.387 . S
C2614 H2618 0.950 . S
C2614 C2623 1.390 . S
C2615 C2614 1.387 . S
C2615 C2617 1.387 . S
H2616 C2623 0.950 . S
C2617 C2615 1.387 . S
C2617 C2619 1.390 . S
C2617 H2621 0.950 . S
H2618 C2614 0.950 . S
C2619 C2617 1.390 . S
C2619 C2620 1.387 . S
C2619 H2622 0.950 . S
C2620 C2619 1.387 . S
C2620 C2623 1.387 . S
H2621 C2617 0.950 . S
H2622 C2619 0.950 . S
C2623 C2614 1.390 . S
C2623 H2616 0.950 . S
C2623 C2620 1.387 . S
C2624 C2625 1.387 . S
C2624 H2628 0.950 . S
C2624 C2633 1.390 . S
C2625 C2624 1.387 . S
C2625 C2627 1.387 . S
H2626 C2633 0.950 . S
C2627 C2625 1.387 . S
C2627 C2629 1.390 . S
C2627 H2631 0.950 . S
H2628 C2624 0.950 . S
C2629 C2627 1.390 . S
C2629 C2630 1.387 . S
C2629 H2632 0.950 . S
C2630 C2629 1.387 . S
C2630 C2633 1.387 . S
H2631 C2627 0.950 . S
H2632 C2629 0.950 . S
C2633 C2624 1.390 . S
C2633 H2626 0.950 . S
C2633 C2630 1.387 . S
C2634 C2635 1.387 . S
C2634 H2638 0.950 . S
C2634 C2643 1.390 . S
C2635 C2634 1.387 . S
C2635 C2637 1.387 . S
H2636 C2643 0.950 . S
C2637 C2635 1.387 . S
C2637 C2639 1.390 . S
C2637 H2641 0.950 . S
H2638 C2634 0.950 . S
C2639 C2637 1.390 . S
C2639 C2640 1.387 . S
C2639 H2642 0.950 . S
C2640 C2639 1.387 . S
C2640 C2643 1.387 . S
H2641 C2637 0.950 . S
H2642 C2639 0.950 . S
C2643 C2634 1.390 . S
C2643 H2636 0.950 . S
C2643 C2640 1.387 . S
C2644 C2645 1.387 . S
C2644 H2648 0.950 . S
C2644 C2653 1.390 . S
C2645 C2644 1.387 . S
C2645 C2647 1.387 . S
H2646 C2653 0.950 . S
C2647 C2645 1.387 . S
C2647 C2649 1.390 . S
C2647 H2651 0.950 . S
H2648 C2644 0.950 . S
C2649 C2647 1.390 . S
C2649 C2650 1.387 . S
C2649 H2652 0.950 . S
C2650 C2649 1.387 . S
C2650 C2653 1.387 . S
H2651 C2647 0.950 . S
H2652 C2649 0.950 . S
C2653 C2644 1.390 . S
C2653 H2646 0.950 . S
C2653 C2650 1.387 . S
C2654 C2655 1.387 . S
C2654 H2658 0.950 . S
C2654 C2663 1.390 . S
C2655 C2654 1.387 . S
C2655 C2657 1.387 . S
H2656 C2663 0.950 . S
C2657 C2655 1.387 . S
C2657 C2659 1.390 . S
C2657 H2661 0.950 . S
H2658 C2654 0.950 . S
C2659 C2657 1.390 . S
C2659 C2660 1.387 . S
C2659 H2662 0.950 . S
C2660 C2659 1.387 . S
C2660 C2663 1.387 . S
H2661 C2657 0.950 . S
H2662 C2659 0.950 . S
C2663 C2654 1.390 . S
C2663 H2656 0.950 . S
C2663 C2660 1.387 . S
C2664 C2665 1.387 . S
C2664 H2668 0.950 . S
C2664 C2673 1.390 . S
C2665 C2664 1.387 . S
C2665 C2667 1.387 . S
H2666 C2673 0.950 . S
C2667 C2665 1.387 . S
C2667 C2669 1.390 . S
C2667 H2671 0.950 . S
H2668 C2664 0.950 . S
C2669 C2667 1.390 . S
C2669 C2670 1.387 . S
C2669 H2672 0.950 . S
C2670 C2669 1.387 . S
C2670 C2673 1.387 . S
H2671 C2667 0.950 . S
H2672 C2669 0.950 . S
C2673 C2664 1.390 . S
C2673 H2666 0.950 . S
C2673 C2670 1.387 . S
C2674 C2675 1.387 . S
C2674 H2678 0.950 . S
C2674 C2683 1.390 . S
C2675 C2674 1.387 . S
C2675 C2677 1.387 . S
H2676 C2683 0.950 . S
C2677 C2675 1.387 . S
C2677 C2679 1.390 . S
C2677 H2681 0.950 . S
H2678 C2674 0.950 . S
C2679 C2677 1.390 . S
C2679 C2680 1.387 . S
C2679 H2682 0.950 . S
C2680 C2679 1.387 . S
C2680 C2683 1.387 . S
H2681 C2677 0.950 . S
H2682 C2679 0.950 . S
C2683 C2674 1.390 . S
C2683 H2676 0.950 . S
C2683 C2680 1.387 . S
C2684 C2685 1.387 . S
C2684 H2688 0.950 . S
C2684 C2693 1.390 . S
C2685 C2684 1.387 . S
C2685 C2687 1.387 . S
H2686 C2693 0.950 . S
C2687 C2685 1.387 . S
C2687 C2689 1.390 . S
C2687 H2691 0.950 . S
H2688 C2684 0.950 . S
C2689 C2687 1.390 . S
C2689 C2690 1.387 . S
C2689 H2692 0.950 . S
C2690 C2689 1.387 . S
C2690 C2693 1.387 . S
H2691 C2687 0.950 . S
H2692 C2689 0.950 . S
C2693 C2684 1.390 . S
C2693 H2686 0.950 . S
C2693 C2690 1.387 . S
C2694 C2695 1.387 . S
C2694 H2698 0.950 . S
C2694 C2703 1.390 . S
C2695 C2694 1.387 . S
C2695 C2697 1.387 . S
H2696 C2703 0.950 . S
C2697 C2695 1.387 . S
C2697 C2699 1.390 . S
C2697 H2701 0.950 . S
H2698 C2694 0.950 . S
C2699 C2697 1.390 . S
C2699 C2700 1.387 . S
C2699 H2702 0.950 . S
C2700 C2699 1.387 . S
C2700 C2703 1.387 . S
H2701 C2697 0.950 . S
H2702 C2699 0.950 . S
C2703 C2694 1.390 . S
C2703 H2696 0.950 . S
C2703 C2700 1.387 . S
C2704 C2705 1.387 . S
C2704 H2708 0.950 . S
C2704 C2713 1.390 . S
C2705 C2704 1.387 . S
C2705 C2707 1.387 . S
H2706 C2713 0.950 . S
C2707 C2705 1.387 . S
C2707 C2709 1.390 . S
C2707 H2711 0.950 . S
H2708 C2704 0.950 . S
C2709 C2707 1.390 . S
C2709 C2710 1.387 . S
C2709 H2712 0.950 . S
C2710 C2709 1.387 . S
C2710 C2713 1.387 . S
H2711 C2707 0.950 . S
H2712 C2709 0.950 . S
C2713 C2704 1.390 . S
C2713 H2706 0.950 . S
C2713 C2710 1.387 . S
C2714 C2715 1.387 . S
C2714 H2718 0.950 . S
C2714 C2723 1.390 . S
C2715 C2714 1.387 . S
C2715 C2717 1.387 . S
H2716 C2723 0.950 . S
C2717 C2715 1.387 . S
C2717 C2719 1.390 . S
C2717 H2721 0.950 . S
H2718 C2714 0.950 . S
C2719 C2717 1.390 . S
C2719 C2720 1.387 . S
C2719 H2722 0.950 . S
C2720 C2719 1.387 . S
C2720 C2723 1.387 . S
H2721 C2717 0.950 . S
H2722 C2719 0.950 . S
C2723 C2714 1.390 . S
C2723 H2716 0.950 . S
C2723 C2720 1.387 . S
C2724 C2725 1.387 . S
C2724 H2728 0.950 . S
C2724 C2733 1.390 . S
C2725 C2724 1.387 . S
C2725 C2727 1.387 . S
H2726 C2733 0.950 . S
C2727 C2725 1.387 . S
C2727 C2729 1.390 . S
C2727 H2731 0.950 . S
H2728 C2724 0.950 . S
C2729 C2727 1.390 . S
C2729 C2730 1.387 . S
C2729 H2732 0.950 . S
C2730 C2729 1.387 . S
C2730 C2733 1.387 . S
H2731 C2727 0.950 . S
H2732 C2729 0.950 . S
C2733 C2724 1.390 . S
C2733 H2726 0.950 . S
C2733 C2730 1.387 . S
C2734 C2735 1.387 . S
C2734 H2738 0.950 . S
C2734 C2743 1.390 . S
C2735 C2734 1.387 . S
C2735 C2737 1.387 . S
H2736 C2743 0.950 . S
C2737 C2735 1.387 . S
C2737 C2739 1.390 . S
C2737 H2741 0.950 . S
H2738 C2734 0.950 . S
C2739 C2737 1.390 . S
C2739 C2740 1.387 . S
C2739 H2742 0.950 . S
C2740 C2739 1.387 . S
C2740 C2743 1.387 . S
H2741 C2737 0.950 . S
H2742 C2739 0.950 . S
C2743 C2734 1.390 . S
C2743 H2736 0.950 . S
C2743 C2740 1.387 . S
C2744 C2745 1.387 . S
C2744 H2748 0.950 . S
C2744 C2753 1.390 . S
C2745 C2744 1.387 . S
C2745 C2747 1.387 . S
H2746 C2753 0.950 . S
C2747 C2745 1.387 . S
C2747 C2749 1.390 . S
C2747 H2751 0.950 . S
H2748 C2744 0.950 . S
C2749 C2747 1.390 . S
C2749 C2750 1.387 . S
C2749 H2752 0.950 . S
C2750 C2749 1.387 . S
C2750 C2753 1.387 . S
H2751 C2747 0.950 . S
H2752 C2749 0.950 . S
C2753 C2744 1.390 . S
C2753 H2746 0.950 . S
C2753 C2750 1.387 . S
C2754 C2755 1.387 . S
C2754 H2758 0.950 . S
C2754 C2763 1.390 . S
C2755 C2754 1.387 . S
C2755 C2757 1.387 . S
H2756 C2763 0.950 . S
C2757 C2755 1.387 . S
C2757 C2759 1.390 . S
C2757 H2761 0.950 . S
H2758 C2754 0.950 . S
C2759 C2757 1.390 . S
C2759 C2760 1.387 . S
C2759 H2762 0.950 . S
C2760 C2759 1.387 . S
C2760 C2763 1.387 . S
H2761 C2757 0.950 . S
H2762 C2759 0.950 . S
C2763 C2754 1.390 . S
C2763 H2756 0.950 . S
C2763 C2760 1.387 . S
C2764 C2765 1.387 . S
C2764 H2768 0.950 . S
C2764 C2773 1.390 . S
C2765 C2764 1.387 . S
C2765 C2767 1.387 . S
H2766 C2773 0.950 . S
C2767 C2765 1.387 . S
C2767 C2769 1.390 . S
C2767 H2771 0.950 . S
H2768 C2764 0.950 . S
C2769 C2767 1.390 . S
C2769 C2770 1.387 . S
C2769 H2772 0.950 . S
C2770 C2769 1.387 . S
C2770 C2773 1.387 . S
H2771 C2767 0.950 . S
H2772 C2769 0.950 . S
C2773 C2764 1.390 . S
C2773 H2766 0.950 . S
C2773 C2770 1.387 . S
C2774 C2775 1.387 . S
C2774 H2778 0.950 . S
C2774 C2783 1.390 . S
C2775 C2774 1.387 . S
C2775 C2777 1.387 . S
H2776 C2783 0.950 . S
C2777 C2775 1.387 . S
C2777 C2779 1.390 . S
C2777 H2781 0.950 . S
H2778 C2774 0.950 . S
C2779 C2777 1.390 . S
C2779 C2780 1.387 . S
C2779 H2782 0.950 . S
C2780 C2779 1.387 . S
C2780 C2783 1.387 . S
H2781 C2777 0.950 . S
H2782 C2779 0.950 . S
C2783 C2774 1.390 . S
C2783 H2776 0.950 . S
C2783 C2780 1.387 . S
C2784 C2785 1.387 . S
C2784 H2788 0.950 . S
C2784 C2793 1.390 . S
C2785 C2784 1.387 . S
C2785 C2787 1.387 . S
H2786 C2793 0.950 . S
C2787 C2785 1.387 . S
C2787 C2789 1.390 . S
C2787 H2791 0.950 . S
H2788 C2784 0.950 . S
C2789 C2787 1.390 . S
C2789 C2790 1.387 . S
C2789 H2792 0.950 . S
C2790 C2789 1.387 . S
C2790 C2793 1.387 . S
H2791 C2787 0.950 . S
H2792 C2789 0.950 . S
C2793 C2784 1.390 . S
C2793 H2786 0.950 . S
C2793 C2790 1.387 . S
C2794 C2795 1.387 . S
C2794 H2798 0.950 . S
C2794 C2803 1.390 . S
C2795 C2794 1.387 . S
C2795 C2797 1.387 . S
H2796 C2803 0.950 . S
C2797 C2795 1.387 . S
C2797 C2799 1.390 . S
C2797 H2801 0.950 . S
H2798 C2794 0.950 . S
C2799 C2797 1.390 . S
C2799 C2800 1.387 . S
C2799 H2802 0.950 . S
C2800 C2799 1.387 . S
C2800 C2803 1.387 . S
H2801 C2797 0.950 . S
H2802 C2799 0.950 . S
C2803 C2794 1.390 . S
C2803 H2796 0.950 . S
C2803 C2800 1.387 . S
C2804 C2805 1.387 . S
C2804 H2808 0.950 . S
C2804 C2813 1.390 . S
C2805 C2804 1.387 . S
C2805 C2807 1.387 . S
H2806 C2813 0.950 . S
C2807 C2805 1.387 . S
C2807 C2809 1.390 . S
C2807 H2811 0.950 . S
H2808 C2804 0.950 . S
C2809 C2807 1.390 . S
C2809 C2810 1.387 . S
C2809 H2812 0.950 . S
C2810 C2809 1.387 . S
C2810 C2813 1.387 . S
H2811 C2807 0.950 . S
H2812 C2809 0.950 . S
C2813 C2804 1.390 . S
C2813 H2806 0.950 . S
C2813 C2810 1.387 . S
C2814 C2815 1.387 . S
C2814 H2818 0.950 . S
C2814 C2823 1.390 . S
C2815 C2814 1.387 . S
C2815 C2817 1.387 . S
H2816 C2823 0.950 . S
C2817 C2815 1.387 . S
C2817 C2819 1.390 . S
C2817 H2821 0.950 . S
H2818 C2814 0.950 . S
C2819 C2817 1.390 . S
C2819 C2820 1.387 . S
C2819 H2822 0.950 . S
C2820 C2819 1.387 . S
C2820 C2823 1.387 . S
H2821 C2817 0.950 . S
H2822 C2819 0.950 . S
C2823 C2814 1.390 . S
C2823 H2816 0.950 . S
C2823 C2820 1.387 . S
C2824 C2825 1.387 . S
C2824 H2828 0.950 . S
C2824 C2833 1.390 . S
C2825 C2824 1.387 . S
C2825 C2827 1.387 . S
H2826 C2833 0.950 . S
C2827 C2825 1.387 . S
C2827 C2829 1.390 . S
C2827 H2831 0.950 . S
H2828 C2824 0.950 . S
C2829 C2827 1.390 . S
C2829 C2830 1.387 . S
C2829 H2832 0.950 . S
C2830 C2829 1.387 . S
C2830 C2833 1.387 . S
H2831 C2827 0.950 . S
H2832 C2829 0.950 . S
C2833 C2824 1.390 . S
C2833 H2826 0.950 . S
C2833 C2830 1.387 . S
C2834 C2835 1.387 . S
C2834 H2838 0.950 . S
C2834 C2843 1.390 . S
C2835 C2834 1.387 . S
C2835 C2837 1.387 . S
H2836 C2843 0.950 . S
C2837 C2835 1.387 . S
C2837 C2839 1.390 . S
C2837 H2841 0.950 . S
H2838 C2834 0.950 . S
C2839 C2837 1.390 . S
C2839 C2840 1.387 . S
C2839 H2842 0.950 . S
C2840 C2839 1.387 . S
C2840 C2843 1.387 . S
H2841 C2837 0.950 . S
H2842 C2839 0.950 . S
C2843 C2834 1.390 . S
C2843 H2836 0.950 . S
C2843 C2840 1.387 . S
C2844 C2845 1.387 . S
C2844 H2848 0.950 . S
C2844 C2853 1.390 . S
C2845 C2844 1.387 . S
C2845 C2847 1.387 . S
H2846 C2853 0.950 . S
C2847 C2845 1.387 . S
C2847 C2849 1.390 . S
C2847 H2851 0.950 . S
H2848 C2844 0.950 . S
C2849 C2847 1.390 . S
C2849 C2850 1.387 . S
C2849 H2852 0.950 . S
C2850 C2849 1.387 . S
C2850 C2853 1.387 . S
H2851 C2847 0.950 . S
H2852 C2849 0.950 . S
C2853 C2844 1.390 . S
C2853 H2846 0.950 . S
C2853 C2850 1.387 . S
C2854 C2855 1.387 . S
C2854 H2858 0.950 . S
C2854 C2863 1.390 . S
C2855 C2854 1.387 . S
C2855 C2857 1.387 . S
H2856 C2863 0.950 . S
C2857 C2855 1.387 . S
C2857 C2859 1.390 . S
C2857 H2861 0.950 . S
H2858 C2854 0.950 . S
C2859 C2857 1.390 . S
C2859 C2860 1.387 . S
C2859 H2862 0.950 . S
C2860 C2859 1.387 . S
C2860 C2863 1.387 . S
H2861 C2857 0.950 . S
H2862 C2859 0.950 . S
C2863 C2854 1.390 . S
C2863 H2856 0.950 . S
C2863 C2860 1.387 . S
C2864 C2865 1.387 . S
C2864 H2868 0.950 . S
C2864 C2873 1.390 . S
C2865 C2864 1.387 . S
C2865 C2867 1.387 . S
H2866 C2873 0.950 . S
C2867 C2865 1.387 . S
C2867 C2869 1.390 . S
C2867 H2871 0.950 . S
H2868 C2864 0.950 . S
C2869 C2867 1.390 . S
C2869 C2870 1.387 . S
C2869 H2872 0.950 . S
C2870 C2869 1.387 . S
C2870 C2873 1.387 . S
H2871 C2867 0.950 . S
H2872 C2869 0.950 . S
C2873 C2864 1.390 . S
C2873 H2866 0.950 . S
C2873 C2870 1.387 . S
C2874 C2875 1.387 . S
C2874 H2878 0.950 . S
C2874 C2883 1.390 . S
C2875 C2874 1.387 . S
C2875 C2877 1.387 . S
H2876 C2883 0.950 . S
C2877 C2875 1.387 . S
C2877 C2879 1.390 . S
C2877 H2881 0.950 . S
H2878 C2874 0.950 . S
C2879 C2877 1.390 . S
C2879 C2880 1.387 . S
C2879 H2882 0.950 . S
C2880 C2879 1.387 . S
C2880 C2883 1.387 . S
H2881 C2877 0.950 . S
H2882 C2879 0.950 . S
C2883 C2874 1.390 . S
C2883 H2876 0.950 . S
C2883 C2880 1.387 . S
C2884 C2885 1.387 . S
C2884 H2888 0.950 . S
C2884 C2893 1.390 . S
C2885 C2884 1.387 . S
C2885 C2887 1.387 . S
H2886 C2893 0.950 . S
C2887 C2885 1.387 . S
C2887 C2889 1.390 . S
C2887 H2891 0.950 . S
H2888 C2884 0.950 . S
C2889 C2887 1.390 . S
C2889 C2890 1.387 . S
C2889 H2892 0.950 . S
C2890 C2889 1.387 . S
C2890 C2893 1.387 . S
H2891 C2887 0.950 . S
H2892 C2889 0.950 . S
C2893 C2884 1.390 . S
C2893 H2886 0.950 . S
C2893 C2890 1.387 . S
C2894 C2895 1.387 . S
C2894 H2898 0.950 . S
C2894 C2903 1.390 . S
C2895 C2894 1.387 . S
C2895 C2897 1.387 . S
H2896 C2903 0.950 . S
C2897 C2895 1.387 . S
C2897 C2899 1.390 . S
C2897 H2901 0.950 . S
H2898 C2894 0.950 . S
C2899 C2897 1.390 . S
C2899 C2900 1.387 . S
C2899 H2902 0.950 . S
C2900 C2899 1.387 . S
C2900 C2903 1.387 . S
H2901 C2897 0.950 . S
H2902 C2899 0.950 . S
C2903 C2894 1.390 . S
C2903 H2896 0.950 . S
C2903 C2900 1.387 . S
C2904 C2905 1.387 . S
C2904 H2908 0.950 . S
C2904 C2913 1.390 . S
C2905 C2904 1.387 . S
C2905 C2907 1.387 . S
H2906 C2913 0.950 . S
C2907 C2905 1.387 . S
C2907 C2909 1.390 . S
C2907 H2911 0.950 . S
H2908 C2904 0.950 . S
C2909 C2907 1.390 . S
C2909 C2910 1.387 . S
C2909 H2912 0.950 . S
C2910 C2909 1.387 . S
C2910 C2913 1.387 . S
H2911 C2907 0.950 . S
H2912 C2909 0.950 . S
C2913 C2904 1.390 . S
C2913 H2906 0.950 . S
C2913 C2910 1.387 . S
C2914 C2915 1.387 . S
C2914 H2918 0.950 . S
C2914 C2923 1.390 . S
C2915 C2914 1.387 . S
C2915 C2917 1.387 . S
H2916 C2923 0.950 . S
C2917 C2915 1.387 . S
C2917 C2919 1.390 . S
C2917 H2921 0.950 . S
H2918 C2914 0.950 . S
C2919 C2917 1.390 . S
C2919 C2920 1.387 . S
C2919 H2922 0.950 . S
C2920 C2919 1.387 . S
C2920 C2923 1.387 . S
H2921 C2917 0.950 . S
H2922 C2919 0.950 . S
C2923 C2914 1.390 . S
C2923 H2916 0.950 . S
C2923 C2920 1.387 . S
C2924 C2925 1.387 . S
C2924 H2928 0.950 . S
C2924 C2933 1.390 . S
C2925 C2924 1.387 . S
C2925 C2927 1.387 . S
H2926 C2933 0.950 . S
C2927 C2925 1.387 . S
C2927 C2929 1.390 . S
C2927 H2931 0.950 . S
H2928 C2924 0.950 . S
C2929 C2927 1.390 . S
C2929 C2930 1.387 . S
C2929 H2932 0.950 . S
C2930 C2929 1.387 . S
C2930 C2933 1.387 . S
H2931 C2927 0.950 . S
H2932 C2929 0.950 . S
C2933 C2924 1.390 . S
C2933 H2926 0.950 . S
C2933 C2930 1.387 . S
C2934 C2935 1.387 . S
C2934 H2938 0.950 . S
C2934 C2943 1.390 . S
C2935 C2934 1.387 . S
C2935 C2937 1.387 . S
H2936 C2943 0.950 . S
C2937 C2935 1.387 . S
C2937 C2939 1.390 . S
C2937 H2941 0.950 . S
H2938 C2934 0.950 . S
C2939 C2937 1.390 . S
C2939 C2940 1.387 . S
C2939 H2942 0.950 . S
C2940 C2939 1.387 . S
C2940 C2943 1.387 . S
H2941 C2937 0.950 . S
H2942 C2939 0.950 . S
C2943 C2934 1.390 . S
C2943 H2936 0.950 . S
C2943 C2940 1.387 . S
C2944 C2945 1.387 . S
C2944 H2948 0.950 . S
C2944 C2953 1.390 . S
C2945 C2944 1.387 . S
C2945 C2947 1.387 . S
H2946 C2953 0.950 . S
C2947 C2945 1.387 . S
C2947 C2949 1.390 . S
C2947 H2951 0.950 . S
H2948 C2944 0.950 . S
C2949 C2947 1.390 . S
C2949 C2950 1.387 . S
C2949 H2952 0.950 . S
C2950 C2949 1.387 . S
C2950 C2953 1.387 . S
H2951 C2947 0.950 . S
H2952 C2949 0.950 . S
C2953 C2944 1.390 . S
C2953 H2946 0.950 . S
C2953 C2950 1.387 . S
C2954 C2955 1.387 . S
C2954 H2958 0.950 . S
C2954 C2963 1.390 . S
C2955 C2954 1.387 . S
C2955 C2957 1.387 . S
H2956 C2963 0.950 . S
C2957 C2955 1.387 . S
C2957 C2959 1.390 . S
C2957 H2961 0.950 . S
H2958 C2954 0.950 . S
C2959 C2957 1.390 . S
C2959 C2960 1.387 . S
C2959 H2962 0.950 . S
C2960 C2959 1.387 . S
C2960 C2963 1.387 . S
H2961 C2957 0.950 . S
H2962 C2959 0.950 . S
C2963 C2954 1.390 . S
C2963 H2956 0.950 . S
C2963 C2960 1.387 . S
C2964 C2965 1.387 . S
C2964 H2968 0.950 . S
C2964 C2973 1.390 . S
C2965 C2964 1.387 . S
C2965 C2967 1.387 . S
H2966 C2973 0.950 . S
C2967 C2965 1.387 . S
C2967 C2969 1.390 . S
C2967 H2971 0.950 . S
H2968 C2964 0.950 . S
C2969 C2967 1.390 . S
C2969 C2970 1.387 . S
C2969 H2972 0.950 . S
C2970 C2969 1.387 . S
C2970 C2973 1.387 . S
H2971 C2967 0.950 . S
H2972 C2969 0.950 . S
C2973 C2964 1.390 . S
C2973 H2966 0.950 . S
C2973 C2970 1.387 . S
C2974 C2975 1.387 . S
C2974 H2978 0.950 . S
C2974 C2983 1.390 . S
C2975 C2974 1.387 . S
C2975 C2977 1.387 . S
H2976 C2983 0.950 . S
C2977 C2975 1.387 . S
C2977 C2979 1.390 . S
C2977 H2981 0.950 . S
H2978 C2974 0.950 . S
C2979 C2977 1.390 . S
C2979 C2980 1.387 . S
C2979 H2982 0.950 . S
C2980 C2979 1.387 . S
C2980 C2983 1.387 . S
H2981 C2977 0.950 . S
H2982 C2979 0.950 . S
C2983 C2974 1.390 . S
C2983 H2976 0.950 . S
C2983 C2980 1.387 . S
C2984 C2985 1.387 . S
C2984 H2988 0.950 . S
C2984 C2993 1.390 . S
C2985 C2984 1.387 . S
C2985 C2987 1.387 . S
H2986 C2993 0.950 . S
C2987 C2985 1.387 . S
C2987 C2989 1.390 . S
C2987 H2991 0.950 . S
H2988 C2984 0.950 . S
C2989 C2987 1.390 . S
C2989 C2990 1.387 . S
C2989 H2992 0.950 . S
C2990 C2989 1.387 . S
C2990 C2993 1.387 . S
H2991 C2987 0.950 . S
H2992 C2989 0.950 . S
C2993 C2984 1.390 . S
C2993 H2986 0.950 . S
C2993 C2990 1.387 . S
C2994 C2995 1.387 . S
C2994 H2998 0.950 . S
C2994 C3003 1.390 . S
C2995 C2994 1.387 . S
C2995 C2997 1.387 . S
H2996 C3003 0.950 . S
C2997 C2995 1.387 . S
C2997 C2999 1.390 . S
C2997 H3001 0.950 . S
H2998 C2994 0.950 . S
C2999 C2997 1.390 . S
C2999 C3000 1.387 . S
C2999 H3002 0.950 . S
C3000 C2999 1.387 . S
C3000 C3003 1.387 . S
H3001 C2997 0.950 . S
H3002 C2999 0.950 . S
C3003 C2994 1.390 . S
C3003 H2996 0.950 . S
C3003 C3000 1.387 . S
C3004 C3005 1.387 . S
C3004 H3008 0.950 . S
C3004 C3013 1.390 . S
C3005 C3004 1.387 . S
C3005 C3007 1.387 . S
H3006 C3013 0.950 . S
C3007 C3005 1.387 . S
C3007 C3009 1.390 . S
C3007 H3011 0.950 . S
H3008 C3004 0.950 . S
C3009 C3007 1.390 . S
C3009 C3010 1.387 . S
C3009 H3012 0.950 . S
C3010 C3009 1.387 . S
C3010 C3013 1.387 . S
H3011 C3007 0.950 . S
H3012 C3009 0.950 . S
C3013 C3004 1.390 . S
C3013 H3006 0.950 . S
C3013 C3010 1.387 . S
C3014 C3015 1.387 . S
C3014 H3018 0.950 . S
C3014 C3023 1.390 . S
C3015 C3014 1.387 . S
C3015 C3017 1.387 . S
H3016 C3023 0.950 . S
C3017 C3015 1.387 . S
C3017 C3019 1.390 . S
C3017 H3021 0.950 . S
H3018 C3014 0.950 . S
C3019 C3017 1.390 . S
C3019 C3020 1.387 . S
C3019 H3022 0.950 . S
C3020 C3019 1.387 . S
C3020 C3023 1.387 . S
H3021 C3017 0.950 . S
H3022 C3019 0.950 . S
C3023 C3014 1.390 . S
C3023 H3016 0.950 . S
C3023 C3020 1.387 . S
C3024 C3025 1.387 . S
C3024 H3028 0.950 . S
C3024 C3033 1.390 . S
C3025 C3024 1.387 . S
C3025 C3027 1.387 . S
H3026 C3033 0.950 . S
C3027 C3025 1.387 . S
C3027 C3029 1.390 . S
C3027 H3031 0.950 . S
H3028 C3024 0.950 . S
C3029 C3027 1.390 . S
C3029 C3030 1.387 . S
C3029 H3032 0.950 . S
C3030 C3029 1.387 . S
C3030 C3033 1.387 . S
H3031 C3027 0.950 . S
H3032 C3029 0.950 . S
C3033 C3024 1.390 . S
C3033 H3026 0.950 . S
C3033 C3030 1.387 . S
C3034 C3035 1.387 . S
C3034 H3038 0.950 . S
C3034 C3043 1.390 . S
C3035 C3034 1.387 . S
C3035 C3037 1.387 . S
H3036 C3043 0.950 . S
C3037 C3035 1.387 . S
C3037 C3039 1.390 . S
C3037 H3041 0.950 . S
H3038 C3034 0.950 . S
C3039 C3037 1.390 . S
C3039 C3040 1.387 . S
C3039 H3042 0.950 . S
C3040 C3039 1.387 . S
C3040 C3043 1.387 . S
H3041 C3037 0.950 . S
H3042 C3039 0.950 . S
C3043 C3034 1.390 . S
C3043 H3036 0.950 . S
C3043 C3040 1.387 . S
C3044 C3045 1.387 . S
C3044 H3048 0.950 . S
C3044 C3053 1.390 . S
C3045 C3044 1.387 . S
C3045 C3047 1.387 . S
H3046 C3053 0.950 . S
C3047 C3045 1.387 . S
C3047 C3049 1.390 . S
C3047 H3051 0.950 . S
H3048 C3044 0.950 . S
C3049 C3047 1.390 . S
C3049 C3050 1.387 . S
C3049 H3052 0.950 . S
C3050 C3049 1.387 . S
C3050 C3053 1.387 . S
H3051 C3047 0.950 . S
H3052 C3049 0.950 . S
C3053 C3044 1.390 . S
C3053 H3046 0.950 . S
C3053 C3050 1.387 . S
C3054 C3055 1.387 . S
C3054 H3058 0.950 . S
C3054 C3063 1.390 . S
C3055 C3054 1.387 . S
C3055 C3057 1.387 . S
H3056 C3063 0.950 . S
C3057 C3055 1.387 . S
C3057 C3059 1.390 . S
C3057 H3061 0.950 . S
H3058 C3054 0.950 . S
C3059 C3057 1.390 . S
C3059 C3060 1.387 . S
C3059 H3062 0.950 . S
C3060 C3059 1.387 . S
C3060 C3063 1.387 . S
H3061 C3057 0.950 . S
H3062 C3059 0.950 . S
C3063 C3054 1.390 . S
C3063 H3056 0.950 . S
C3063 C3060 1.387 . S
C3064 C3065 1.387 . S
C3064 H3068 0.950 . S
C3064 C3073 1.390 . S
C3065 C3064 1.387 . S
C3065 C3067 1.387 . S
H3066 C3073 0.950 . S
C3067 C3065 1.387 . S
C3067 C3069 1.390 . S
C3067 H3071 0.950 . S
H3068 C3064 0.950 . S
C3069 C3067 1.390 . S
C3069 C3070 1.387 . S
C3069 H3072 0.950 . S
C3070 C3069 1.387 . S
C3070 C3073 1.387 . S
H3071 C3067 0.950 . S
H3072 C3069 0.950 . S
C3073 C3064 1.390 . S
C3073 H3066 0.950 . S
C3073 C3070 1.387 . S
C3074 C3075 1.387 . S
C3074 H3078 0.950 . S
C3074 C3083 1.390 . S
C3075 C3074 1.387 . S
C3075 C3077 1.387 . S
H3076 C3083 0.950 . S
C3077 C3075 1.387 . S
C3077 C3079 1.390 . S
C3077 H3081 0.950 . S
H3078 C3074 0.950 . S
C3079 C3077 1.390 . S
C3079 C3080 1.387 . S
C3079 H3082 0.950 . S
C3080 C3079 1.387 . S
C3080 C3083 1.387 . S
H3081 C3077 0.950 . S
H3082 C3079 0.950 . S
C3083 C3074 1.390 . S
C3083 H3076 0.950 . S
C3083 C3080 1.387 . S
C3084 C3085 1.387 . S
C3084 H3088 0.950 . S
C3084 C3093 1.390 . S
C3085 C3084 1.387 . S
C3085 C3087 1.387 . S
H3086 C3093 0.950 . S
C3087 C3085 1.387 . S
C3087 C3089 1.390 . S
C3087 H3091 0.950 . S
H3088 C3084 0.950 . S
C3089 C3087 1.390 . S
C3089 C3090 1.387 . S
C3089 H3092 0.950 . S
C3090 C3089 1.387 . S
C3090 C3093 1.387 . S
H3091 C3087 0.950 . S
H3092 C3089 0.950 . S
C3093 C3084 1.390 . S
C3093 H3086 0.950 . S
C3093 C3090 1.387 . S
C3094 C3095 1.387 . S
C3094 H3098 0.950 . S
C3094 C3103 1.390 . S
C3095 C3094 1.387 . S
C3095 C3097 1.387 . S
H3096 C3103 0.950 . S
C3097 C3095 1.387 . S
C3097 C3099 1.390 . S
C3097 H3101 0.950 . S
H3098 C3094 0.950 . S
C3099 C3097 1.390 . S
C3099 C3100 1.387 . S
C3099 H3102 0.950 . S
C3100 C3099 1.387 . S
C3100 C3103 1.387 . S
H3101 C3097 0.950 . S
H3102 C3099 0.950 . S
C3103 C3094 1.390 . S
C3103 H3096 0.950 . S
C3103 C3100 1.387 . S
C3104 C3105 1.387 . S
C3104 H3108 0.950 . S
C3104 C3113 1.390 . S
C3105 C3104 1.387 . S
C3105 C3107 1.387 . S
H3106 C3113 0.950 . S
C3107 C3105 1.387 . S
C3107 C3109 1.390 . S
C3107 H3111 0.950 . S
H3108 C3104 0.950 . S
C3109 C3107 1.390 . S
C3109 C3110 1.387 . S
C3109 H3112 0.950 . S
C3110 C3109 1.387 . S
C3110 C3113 1.387 . S
H3111 C3107 0.950 . S
H3112 C3109 0.950 . S
C3113 C3104 1.390 . S
C3113 H3106 0.950 . S
C3113 C3110 1.387 . S
C3114 C3115 1.387 . S
C3114 H3118 0.950 . S
C3114 C3123 1.390 . S
C3115 C3114 1.387 . S
C3115 C3117 1.387 . S
H3116 C3123 0.950 . S
C3117 C3115 1.387 . S
C3117 C3119 1.390 . S
C3117 H3121 0.950 . S
H3118 C3114 0.950 . S
C3119 C3117 1.390 . S
C3119 C3120 1.387 . S
C3119 H3122 0.950 . S
C3120 C3119 1.387 . S
C3120 C3123 1.387 . S
H3121 C3117 0.950 . S
H3122 C3119 0.950 . S
C3123 C3114 1.390 . S
C3123 H3116 0.950 . S
C3123 C3120 1.387 . S
C3124 C3125 1.387 . S
C3124 H3128 0.950 . S
C3124 C3133 1.390 . S
C3125 C3124 1.387 . S
C3125 C3127 1.387 . S
H3126 C3133 0.950 . S
C3127 C3125 1.387 . S
C3127 C3129 1.390 . S
C3127 H3131 0.950 . S
H3128 C3124 0.950 . S
C3129 C3127 1.390 . S
C3129 C3130 1.387 . S
C3129 H3132 0.950 . S
C3130 C3129 1.387 . S
C3130 C3133 1.387 . S
H3131 C3127 0.950 . S
H3132 C3129 0.950 . S
C3133 C3124 1.390 . S
C3133 H3126 0.950 . S
C3133 C3130 1.387 . S
C3134 C3135 1.387 . S
C3134 H3138 0.950 . S
C3134 C3143 1.390 . S
C3135 C3134 1.387 . S
C3135 C3137 1.387 . S
H3136 C3143 0.950 . S
C3137 C3135 1.387 . S
C3137 C3139 1.390 . S
C3137 H3141 0.950 . S
H3138 C3134 0.950 . S
C3139 C3137 1.390 . S
C3139 C3140 1.387 . S
C3139 H3142 0.950 . S
C3140 C3139 1.387 . S
C3140 C3143 1.387 . S
H3141 C3137 0.950 . S
H3142 C3139 0.950 . S
C3143 C3134 1.390 . S
C3143 H3136 0.950 . S
C3143 C3140 1.387 . S
C3144 C3145 1.387 . S
C3144 H3148 0.950 . S
C3144 C3153 1.390 . S
C3145 C3144 1.387 . S
C3145 C3147 1.387 . S
H3146 C3153 0.950 . S
C3147 C3145 1.387 . S
C3147 C3149 1.390 . S
C3147 H3151 0.950 . S
H3148 C3144 0.950 . S
C3149 C3147 1.390 . S
C3149 C3150 1.387 . S
C3149 H3152 0.950 . S
C3150 C3149 1.387 . S
C3150 C3153 1.387 . S
H3151 C3147 0.950 . S
H3152 C3149 0.950 . S
C3153 C3144 1.390 . S
C3153 H3146 0.950 . S
C3153 C3150 1.387 . S
C3154 C3155 1.387 . S
C3154 H3158 0.950 . S
C3154 C3163 1.390 . S
C3155 C3154 1.387 . S
C3155 C3157 1.387 . S
H3156 C3163 0.950 . S
C3157 C3155 1.387 . S
C3157 C3159 1.390 . S
C3157 H3161 0.950 . S
H3158 C3154 0.950 . S
C3159 C3157 1.390 . S
C3159 C3160 1.387 . S
C3159 H3162 0.950 . S
C3160 C3159 1.387 . S
C3160 C3163 1.387 . S
H3161 C3157 0.950 . S
H3162 C3159 0.950 . S
C3163 C3154 1.390 . S
C3163 H3156 0.950 . S
C3163 C3160 1.387 . S
C3164 C3165 1.387 . S
C3164 H3168 0.950 . S
C3164 C3173 1.390 . S
C3165 C3164 1.387 . S
C3165 C3167 1.387 . S
H3166 C3173 0.950 . S
C3167 C3165 1.387 . S
C3167 C3169 1.390 . S
C3167 H3171 0.950 . S
H3168 C3164 0.950 . S
C3169 C3167 1.390 . S
C3169 C3170 1.387 . S
C3169 H3172 0.950 . S
C3170 C3169 1.387 . S
C3170 C3173 1.387 . S
H3171 C3167 0.950 . S
H3172 C3169 0.950 . S
C3173 C3164 1.390 . S
C3173 H3166 0.950 . S
C3173 C3170 1.387 . S
C3174 C3175 1.387 . S
C3174 H3178 0.950 . S
C3174 C3183 1.390 . S
C3175 C3174 1.387 . S
C3175 C3177 1.387 . S
H3176 C3183 0.950 . S
C3177 C3175 1.387 . S
C3177 C3179 1.390 . S
C3177 H3181 0.950 . S
H3178 C3174 0.950 . S
C3179 C3177 1.390 . S
C3179 C3180 1.387 . S
C3179 H3182 0.950 . S
C3180 C3179 1.387 . S
C3180 C3183 1.387 . S
H3181 C3177 0.950 . S
H3182 C3179 0.950 . S
C3183 C3174 1.390 . S
C3183 H3176 0.950 . S
C3183 C3180 1.387 . S
C3184 C3185 1.387 . S
C3184 H3188 0.950 . S
C3184 C3193 1.390 . S
C3185 C3184 1.387 . S
C3185 C3187 1.387 . S
H3186 C3193 0.950 . S
C3187 C3185 1.387 . S
C3187 C3189 1.390 . S
C3187 H3191 0.950 . S
H3188 C3184 0.950 . S
C3189 C3187 1.390 . S
C3189 C3190 1.387 . S
C3189 H3192 0.950 . S
C3190 C3189 1.387 . S
C3190 C3193 1.387 . S
H3191 C3187 0.950 . S
H3192 C3189 0.950 . S
C3193 C3184 1.390 . S
C3193 H3186 0.950 . S
C3193 C3190 1.387 . S
C3194 C3195 1.387 . S
C3194 H3198 0.950 . S
C3194 C3203 1.390 . S
C3195 C3194 1.387 . S
C3195 C3197 1.387 . S
H3196 C3203 0.950 . S
C3197 C3195 1.387 . S
C3197 C3199 1.390 . S
C3197 H3201 0.950 . S
H3198 C3194 0.950 . S
C3199 C3197 1.390 . S
C3199 C3200 1.387 . S
C3199 H3202 0.950 . S
C3200 C3199 1.387 . S
C3200 C3203 1.387 . S
H3201 C3197 0.950 . S
H3202 C3199 0.950 . S
C3203 C3194 1.390 . S
C3203 H3196 0.950 . S
C3203 C3200 1.387 . S
C3204 C3205 1.387 . S
C3204 H3208 0.950 . S
C3204 C3213 1.390 . S
C3205 C3204 1.387 . S
C3205 C3207 1.387 . S
H3206 C3213 0.950 . S
C3207 C3205 1.387 . S
C3207 C3209 1.390 . S
C3207 H3211 0.950 . S
H3208 C3204 0.950 . S
C3209 C3207 1.390 . S
C3209 C3210 1.387 . S
C3209 H3212 0.950 . S
C3210 C3209 1.387 . S
C3210 C3213 1.387 . S
H3211 C3207 0.950 . S
H3212 C3209 0.950 . S
C3213 C3204 1.390 . S
C3213 H3206 0.950 . S
C3213 C3210 1.387 . S
C3214 C3215 1.387 . S
C3214 H3218 0.950 . S
C3214 C3223 1.390 . S
C3215 C3214 1.387 . S
C3215 C3217 1.387 . S
H3216 C3223 0.950 . S
C3217 C3215 1.387 . S
C3217 C3219 1.390 . S
C3217 H3221 0.950 . S
H3218 C3214 0.950 . S
C3219 C3217 1.390 . S
C3219 C3220 1.387 . S
C3219 H3222 0.950 . S
C3220 C3219 1.387 . S
C3220 C3223 1.387 . S
H3221 C3217 0.950 . S
H3222 C3219 0.950 . S
C3223 C3214 1.390 . S
C3223 H3216 0.950 . S
C3223 C3220 1.387 . S
C3224 C3225 1.387 . S
C3224 H3228 0.950 . S
C3224 C3233 1.390 . S
C3225 C3224 1.387 . S
C3225 C3227 1.387 . S
H3226 C3233 0.950 . S
C3227 C3225 1.387 . S
C3227 C3229 1.390 . S
C3227 H3231 0.950 . S
H3228 C3224 0.950 . S
C3229 C3227 1.390 . S
C3229 C3230 1.387 . S
C3229 H3232 0.950 . S
C3230 C3229 1.387 . S
C3230 C3233 1.387 . S
H3231 C3227 0.950 . S
H3232 C3229 0.950 . S
C3233 C3224 1.390 . S
C3233 H3226 0.950 . S
C3233 C3230 1.387 . S
C3234 C3235 1.387 . S
C3234 H3238 0.950 . S
C3234 C3243 1.390 . S
C3235 C3234 1.387 . S
C3235 C3237 1.387 . S
H3236 C3243 0.950 . S
C3237 C3235 1.387 . S
C3237 C3239 1.390 . S
C3237 H3241 0.950 . S
H3238 C3234 0.950 . S
C3239 C3237 1.390 . S
C3239 C3240 1.387 . S
C3239 H3242 0.950 . S
C3240 C3239 1.387 . S
C3240 C3243 1.387 . S
H3241 C3237 0.950 . S
H3242 C3239 0.950 . S
C3243 C3234 1.390 . S
C3243 H3236 0.950 . S
C3243 C3240 1.387 . S
C3244 C3245 1.387 . S
C3244 H3248 0.950 . S
C3244 C3253 1.390 . S
C3245 C3244 1.387 . S
C3245 C3247 1.387 . S
H3246 C3253 0.950 . S
C3247 C3245 1.387 . S
C3247 C3249 1.390 . S
C3247 H3251 0.950 . S
H3248 C3244 0.950 . S
C3249 C3247 1.390 . S
C3249 C3250 1.387 . S
C3249 H3252 0.950 . S
C3250 C3249 1.387 . S
C3250 C3253 1.387 . S
H3251 C3247 0.950 . S
H3252 C3249 0.950 . S
C3253 C3244 1.390 . S
C3253 H3246 0.950 . S
C3253 C3250 1.387 . S
C3254 C3255 1.387 . S
C3254 H3258 0.950 . S
C3254 C3263 1.390 . S
C3255 C3254 1.387 . S
C3255 C3257 1.387 . S
H3256 C3263 0.950 . S
C3257 C3255 1.387 . S
C3257 C3259 1.390 . S
C3257 H3261 0.950 . S
H3258 C3254 0.950 . S
C3259 C3257 1.390 . S
C3259 C3260 1.387 . S
C3259 H3262 0.950 . S
C3260 C3259 1.387 . S
C3260 C3263 1.387 . S
H3261 C3257 0.950 . S
H3262 C3259 0.950 . S
C3263 C3254 1.390 . S
C3263 H3256 0.950 . S
C3263 C3260 1.387 . S
C1345 C5 1.626 . S
C1350 C957 1.626 . S
C1355 C915 1.625 . S
C1360 C19 1.625 . S
C1365 C929 1.625 . S
C1370 C33 1.626 . S
C1375 C47 1.625 . S
C1380 C943 1.625 . S
C1385 C999 1.625 . S
C1390 C61 1.625 . S
C1395 C971 1.626 . S
C1400 C75 1.626 . S
C1405 C985 1.626 . S
C1410 C89 1.626 . S
C1415 C103 1.626 . S
C1420 C901 1.626 . S
C1425 C117 1.626 . S
C1430 C887 1.626 . S
C1435 C131 1.626 . S
C1440 C845 1.626 . S
C1445 C145 1.626 . S
C1450 C859 1.626 . S
C1455 C159 1.626 . S
C1460 C873 1.626 . S
C1465 C173 1.625 . S
C1470 C803 1.626 . S
C1475 C817 1.626 . S
C1480 C187 1.626 . S
C1485 C831 1.626 . S
C1490 C201 1.626 . S
C1495 C215 1.625 . S
C1500 C789 1.625 . S
C1505 C229 1.625 . S
C1510 C775 1.625 . S
C1515 C243 1.625 . S
C1520 C691 1.625 . S
C1525 C705 1.626 . S
C1530 C257 1.625 . S
C1535 C719 1.626 . S
C1540 C271 1.626 . S
C1545 C677 1.625 . S
C1550 C285 1.625 . S
C1555 C299 1.625 . S
C1560 C747 1.625 . S
C1565 C313 1.625 . S
C1570 C761 1.625 . S
C1575 C327 1.625 . S
C1580 C733 1.626 . S
C1585 C341 1.626 . S
C1590 C1293 1.625 . S
C1595 C355 1.625 . S
C1600 C1251 1.625 . S
C1605 C369 1.626 . S
C1610 C1265 1.626 . S
C1615 C383 1.625 . S
C1620 C1279 1.625 . S
C1625 C397 1.625 . S
C1630 C1335 1.625 . S
C1635 C411 1.626 . S
C1640 C1307 1.626 . S
C1645 C1321 1.625 . S
C1650 C425 1.625 . S
C1655 C439 1.625 . S
C1660 C1237 1.625 . S
C1665 C453 1.625 . S
C1670 C1223 1.625 . S
C1675 C1181 1.626 . S
C1680 C467 1.626 . S
C1685 C481 1.626 . S
C1690 C1195 1.626 . S
C1695 C495 1.625 . S
C1700 C1209 1.625 . S
C1705 C509 1.625 . S
C1710 C1139 1.626 . S
C1715 C523 1.625 . S
C1720 C1153 1.625 . S
C1725 C537 1.626 . S
C1730 C1167 1.626 . S
C1735 C1125 1.625 . S
C1740 C551 1.625 . S
C1745 C565 1.626 . S
C1750 C1111 1.626 . S
C1755 C579 1.625 . S
C1760 C1027 1.625 . S
C1765 C593 1.625 . S
C1770 C1041 1.625 . S
C1775 C1055 1.625 . S
C1780 C607 1.625 . S
C1785 C621 1.625 . S
C1790 C1013 1.625 . S
C1795 C1083 1.626 . S
C1800 C635 1.626 . S
C1805 C649 1.626 . S
C1810 C1097 1.626 . S
C1815 C663 1.626 . S
C1820 C1069 1.626 . S
C1825 C9 1.512 . S
C1830 C555 1.513 . S
C1835 C23 1.513 . S
C1840 C513 1.512 . S
C1845 C527 1.512 . S
C1850 C37 1.513 . S
C1855 C51 1.513 . S
C1860 C541 1.512 . S
C1865 C471 1.513 . S
C1870 C65 1.512 . S
C1875 C485 1.512 . S
C1880 C79 1.513 . S
C1885 C499 1.512 . S
C1890 C93 1.513 . S
C1895 C457 1.512 . S
C1900 C107 1.513 . S
C1905 C443 1.512 . S
C1910 C121 1.513 . S
C1915 C135 1.513 . S
C1920 C401 1.512 . S
C1925 C415 1.512 . S
C1930 C149 1.513 . S
C1935 C163 1.512 . S
C1940 C429 1.513 . S
C1945 C359 1.513 . S
C1950 C177 1.512 . S
C1955 C373 1.513 . S
C1960 C191 1.512 . S
C1965 C205 1.512 . S
C1970 C387 1.513 . S
C1975 C219 1.512 . S
C1980 C345 1.513 . S
C1985 C233 1.512 . S
C1990 C625 1.513 . S
C1995 C247 1.513 . S
C2000 C667 1.512 . S
C2005 C639 1.512 . S
C2010 C261 1.513 . S
C2015 C653 1.512 . S
C2020 C275 1.513 . S
C2025 C289 1.513 . S
C2030 C569 1.512 . S
C2035 C303 1.513 . S
C2040 C597 1.512 . S
C2045 C611 1.513 . S
C2050 C317 1.512 . S
C2055 C331 1.513 . S
C2060 C583 1.512 . S
C2065 C1227 1.513 . S
C2070 C681 1.512 . S
C2075 C1185 1.512 . S
C2080 C695 1.513 . S
C2085 C1199 1.513 . S
C2090 C709 1.512 . S
C2095 C723 1.513 . S
C2100 C1213 1.512 . S
C2105 C1143 1.513 . S
C2110 C737 1.512 . S
C2115 C1157 1.512 . S
C2120 C751 1.513 . S
C2125 C765 1.513 . S
C2130 C1171 1.512 . S
C2135 C779 1.513 . S
C2140 C1129 1.512 . S
C2145 C1115 1.513 . S
C2150 C793 1.512 . S
C2155 C807 1.513 . S
C2160 C1073 1.512 . S
C2165 C1087 1.512 . S
C2170 C821 1.513 . S
C2175 C1101 1.513 . S
C2180 C835 1.512 . S
C2185 C849 1.513 . S
C2190 C1031 1.512 . S
C2195 C863 1.512 . S
C2200 C1045 1.513 . S
C2205 C1059 1.512 . S
C2210 C877 1.513 . S
C2215 C891 1.512 . S
C2220 C1017 1.513 . S
C2225 C1297 1.513 . S
C2230 C905 1.512 . S
C2235 C1339 1.513 . S
C2240 C919 1.512 . S
C2245 C933 1.513 . S
C2250 C1311 1.512 . S
C2255 C1325 1.512 . S
C2260 C947 1.513 . S
C2265 C1241 1.513 . S
C2270 C961 1.512 . S
C2275 C1269 1.513 . S
C2280 C975 1.512 . S
C2285 C989 1.513 . S
C2290 C1283 1.512 . S
C2295 C1255 1.512 . S
C2300 C1003 1.513 . S
C2305 C11 1.338 . S
C2310 C403 1.336 . S
C2315 C417 1.338 . S
C2320 C25 1.336 . S
C2325 C39 1.336 . S
C2330 C431 1.338 . S
C2335 C445 1.338 . S
C2340 C53 1.336 . S
C2345 C67 1.336 . S
C2350 C347 1.338 . S
C2355 C81 1.338 . S
C2360 C361 1.336 . S
C2365 C95 1.337 . S
C2370 C375 1.337 . S
C2375 C389 1.336 . S
C2380 C109 1.338 . S
C2385 C543 1.337 . S
C2390 C123 1.337 . S
C2395 C137 1.336 . S
C2400 C557 1.338 . S
C2405 C151 1.337 . S
C2410 C515 1.337 . S
C2415 C165 1.337 . S
C2420 C529 1.337 . S
C2425 C179 1.337 . S
C2430 C487 1.337 . S
C2435 C193 1.336 . S
C2440 C501 1.338 . S
C2445 C207 1.337 . S
C2450 C459 1.337 . S
C2455 C221 1.338 . S
C2460 C473 1.336 . S
C2465 C235 1.338 . S
C2470 C641 1.336 . S
C2475 C249 1.336 . S
C2480 C613 1.338 . S
C2485 C627 1.337 . S
C2490 C263 1.337 . S
C2495 C277 1.336 . S
C2500 C585 1.338 . S
C2505 C599 1.336 . S
C2510 C291 1.338 . S
C2515 C305 1.336 . S
C2520 C571 1.338 . S
C2525 C319 1.336 . S
C2530 C669 1.338 . S
C2535 C655 1.338 . S
C2540 C333 1.336 . S
C2545 C1075 1.336 . S
C2550 C683 1.338 . S
C2555 C697 1.336 . S
C2560 C1089 1.338 . S
C2565 C1103 1.338 . S
C2570 C711 1.336 . S
C2575 C725 1.336 . S
C2580 C1117 1.338 . S
C2585 C1019 1.338 . S
C2590 C739 1.336 . S
C2595 C1033 1.336 . S
C2600 C753 1.338 . S
C2605 C1047 1.336 . S
C2610 C767 1.338 . S
C2615 C781 1.338 . S
C2620 C1061 1.336 . S
C2625 C795 1.337 . S
C2630 C1215 1.337 . S
C2635 C1229 1.338 . S
C2640 C809 1.336 . S
C2645 C1187 1.337 . S
C2650 C823 1.337 . S
C2655 C1201 1.336 . S
C2660 C837 1.338 . S
C2665 C851 1.338 . S
C2670 C1159 1.336 . S
C2675 C865 1.337 . S
C2680 C1173 1.337 . S
C2685 C1131 1.337 . S
C2690 C879 1.337 . S
C2695 C1145 1.336 . S
C2700 C893 1.338 . S
C2705 C1313 1.338 . S
C2710 C907 1.336 . S
C2715 C921 1.336 . S
C2720 C1285 1.338 . S
C2725 C1299 1.337 . S
C2730 C935 1.337 . S
C2735 C949 1.336 . S
C2740 C1257 1.338 . S
C2745 C963 1.336 . S
C2750 C1271 1.338 . S
C2755 C977 1.336 . S
C2760 C1243 1.338 . S
C2765 C1341 1.336 . S
C2770 C991 1.338 . S
C2775 C1005 1.337 . S
C2780 C1327 1.337 . S
C2785 C434 1.327 . S
C2790 C0 1.324 . S
C2795 C392 1.324 . S
C2800 C14 1.327 . S
C2805 C28 1.324 . S
C2810 C406 1.327 . S
C2815 C420 1.327 . S
C2820 C42 1.324 . S
C2825 C350 1.327 . S
C2830 C56 1.324 . S
C2835 C70 1.327 . S
C2840 C364 1.324 . S
C2845 C84 1.327 . S
C2850 C378 1.324 . S
C2855 C336 1.324 . S
C2860 C98 1.327 . S
C2865 C616 1.327 . S
C2870 C112 1.324 . S
C2875 C126 1.327 . S
C2880 C574 1.324 . S
C2885 C140 1.327 . S
C2890 C588 1.324 . S
C2895 C602 1.327 . S
C2900 C154 1.324 . S
C2905 C168 1.324 . S
C2910 C658 1.327 . S
C2915 C630 1.327 . S
C2920 C182 1.324 . S
C2925 C644 1.324 . S
C2930 C196 1.327 . S
C2935 C210 1.324 . S
C2940 C560 1.327 . S
C2945 C224 1.327 . S
C2950 C546 1.324 . S
C2955 C238 1.327 . S
C2960 C462 1.324 . S
C2965 C252 1.324 . S
C2970 C476 1.327 . S
C2975 C490 1.327 . S
C2980 C266 1.324 . S
C2985 C448 1.324 . S
C2990 C280 1.327 . S
C2995 C294 1.324 . S
C3000 C518 1.327 . S
C3005 C308 1.327 . S
C3010 C532 1.324 . S
C3015 C322 1.327 . S
C3020 C504 1.324 . S
C3025 C672 1.324 . S
C3030 C1106 1.327 . S
C3035 C686 1.324 . S
C3040 C1064 1.327 . S
C3045 C700 1.324 . S
C3050 C1078 1.327 . S
C3055 C1092 1.327 . S
C3060 C714 1.324 . S
C3065 C1022 1.327 . S
C3070 C728 1.324 . S
C3075 C1036 1.324 . S
C3080 C742 1.327 . S
C3085 C756 1.324 . S
C3090 C1050 1.327 . S
C3095 C1008 1.327 . S
C3100 C770 1.324 . S
C3105 C1288 1.327 . S
C3110 C784 1.324 . S
C3115 C1246 1.327 . S
C3120 C798 1.324 . S
C3125 C1260 1.324 . S
C3130 C812 1.327 . S
C3135 C1274 1.324 . S
C3140 C826 1.327 . S
C3145 C1330 1.324 . S
C3150 C840 1.327 . S
C3155 C1302 1.327 . S
C3160 C854 1.324 . S
C3165 C1316 1.324 . S
C3170 C868 1.327 . S
C3175 C1232 1.327 . S
C3180 C882 1.324 . S
C3185 C896 1.324 . S
C3190 C1218 1.327 . S
C3195 C1134 1.324 . S
C3200 C910 1.327 . S
C3205 C1148 1.327 . S
C3210 C924 1.324 . S
C3215 C1162 1.327 . S
C3220 C938 1.324 . S
C3225 C1120 1.327 . S
C3230 C952 1.324 . S
C3235 C1190 1.327 . S
C3240 C966 1.324 . S
C3245 C1204 1.324 . S
C3250 C980 1.327 . S
C3255 C1176 1.324 . S
C3260 C994 1.327 . S
