# Generated by pormake.
# Topology loh, (5)-cn, num edge types: 1
# Building blocks:
#     Node 0, Type 0, BuildingBlock: XOMCOT_clean_sbu_0, # of connection points: 5
#     Node 1, Type 0, BuildingBlock: XOMCOT_clean_sbu_0, # of connection points: 5
#     Node 2, Type 0, BuildingBlock: XOMCOT_clean_sbu_0, # of connection points: 5
#     Node 3, Type 0, BuildingBlock: XOMCOT_clean_sbu_0, # of connection points: 5
#     Node 4, Type 0, BuildingBlock: XOMCOT_clean_sbu_0, # of connection points: 5
#     Node 5, Type 0, BuildingBlock: XOMCOT_clean_sbu_0, # of connection points: 5
#     Node 6, Type 0, BuildingBlock: XOMCOT_clean_sbu_0, # of connection points: 5
#     Node 7, Type 0, BuildingBlock: XOMCOT_clean_sbu_0, # of connection points: 5
#     Edge 8, Type (0, 0), BuildingBlock: UVAHIK_clean_linker_0, # of connection points: 2
#     Edge 9, Type (0, 0), BuildingBlock: UVAHIK_clean_linker_0, # of connection points: 2
#     Edge 10, Type (0, 0), BuildingBlock: UVAHIK_clean_linker_0, # of connection points: 2
#     Edge 11, Type (0, 0), BuildingBlock: UVAHIK_clean_linker_0, # of connection points: 2
#     Edge 12, Type (0, 0), BuildingBlock: UVAHIK_clean_linker_0, # of connection points: 2
#     Edge 13, Type (0, 0), BuildingBlock: UVAHIK_clean_linker_0, # of connection points: 2
#     Edge 14, Type (0, 0), BuildingBlock: UVAHIK_clean_linker_0, # of connection points: 2
#     Edge 15, Type (0, 0), BuildingBlock: UVAHIK_clean_linker_0, # of connection points: 2
#     Edge 16, Type (0, 0), BuildingBlock: UVAHIK_clean_linker_0, # of connection points: 2
#     Edge 17, Type (0, 0), BuildingBlock: UVAHIK_clean_linker_0, # of connection points: 2
#     Edge 18, Type (0, 0), BuildingBlock: UVAHIK_clean_linker_0, # of connection points: 2
#     Edge 19, Type (0, 0), BuildingBlock: UVAHIK_clean_linker_0, # of connection points: 2
#     Edge 20, Type (0, 0), BuildingBlock: UVAHIK_clean_linker_0, # of connection points: 2
#     Edge 21, Type (0, 0), BuildingBlock: UVAHIK_clean_linker_0, # of connection points: 2
#     Edge 22, Type (0, 0), BuildingBlock: UVAHIK_clean_linker_0, # of connection points: 2
#     Edge 23, Type (0, 0), BuildingBlock: UVAHIK_clean_linker_0, # of connection points: 2
#     Edge 24, Type (0, 0), BuildingBlock: UVAHIK_clean_linker_0, # of connection points: 2
#     Edge 25, Type (0, 0), BuildingBlock: UVAHIK_clean_linker_0, # of connection points: 2
#     Edge 26, Type (0, 0), BuildingBlock: UVAHIK_clean_linker_0, # of connection points: 2
#     Edge 27, Type (0, 0), BuildingBlock: UVAHIK_clean_linker_0, # of connection points: 2
# Relax obj value: 0.181
# Max RMSD: 0.132
# Mean RMSD: 0.132
data_MOF--net-loh--node1-XOMCOT_clean_sbu_0--edge1-UVAHIK_clean_linker_0
_symmetry_space_group_name_H-M    P1
_symmetry_Int_Tables_number       1
_symmetry_cell_setting            triclinic
loop_
_symmetry_equiv_pos_as_xyz
'x, y, z'
_cell_length_a     34.405781
_cell_length_b     30.400547
_cell_length_c     53.109486
_cell_angle_alpha  90.000702
_cell_angle_beta   89.996464
_cell_angle_gamma 89.850863
loop_
_atom_site_label
_atom_site_type_symbol
_atom_site_fract_x
_atom_site_fract_y
_atom_site_fract_z
_atom_type_partial_charge
Co0 Co 0.04452 0.25577 0.14009 0.0
C1 C 0.0436 0.1706 0.1684 0.0
C2 C 0.07231 0.16502 0.13268 0.0
C3 C 0.07375 0.12485 0.14446 0.0
N4 N 0.05366 0.19399 0.14768 0.0
N5 N 0.05585 0.12828 0.16695 0.0
H6 H 1.02834 0.18426 0.18441 0.0
H7 H 0.08412 0.17209 0.11429 0.0
C8 C 0.0805 0.27193 0.08896 0.0
O9 O 0.0496 0.29499 0.08273 0.0
N10 N 1.0363 0.31766 0.13292 0.0
C11 C 1.00325 0.34152 0.13298 0.0
C12 C 1.01178 0.38361 0.12535 0.0
C13 C 0.06461 0.34631 0.12683 0.0
N14 N 0.05039 0.38646 0.12103 0.0
C15 C 0.96279 0.24625 0.13036 0.0
C16 C 0.96819 0.21395 0.08193 0.0
C17 C 0.93144 0.22609 0.09117 0.0
C18 C 0.92899 0.24081 0.11612 0.0
C19 C 1.00132 0.21953 0.09701 0.0
N20 N 0.99872 0.23893 0.1202 0.0
H21 H 0.9599 0.25845 0.14934 0.0
H22 H 1.02894 0.20876 0.08967 0.0
H23 H 0.97467 0.32965 0.13755 0.0
H24 H 0.09486 0.33697 0.12531 0.0
O25 O 1.01984 0.26515 0.17246 0.0
O26 O 0.08256 0.27363 0.16495 0.0
O27 O 0.08174 0.2519 0.11021 0.0
C28 C 0.05365 0.27802 0.18056 0.0
H29 H 0.0867 0.09519 0.13687 0.0
H30 H 0.99057 0.40909 0.12155 0.0
H31 H 0.97135 0.20045 0.06317 0.0
H32 H 0.90131 0.24988 0.12435 0.0
Co33 Co 0.54666 0.76935 0.63825 0.0
C34 C 0.55421 0.8538 0.66663 0.0
C35 C 0.51273 0.85831 0.63654 0.0
C36 C 0.51539 0.89872 0.64793 0.0
N37 N 0.53714 0.83 0.64812 0.0
N38 N 0.54139 0.89598 0.66683 0.0
H39 H 0.57604 0.84095 0.67934 0.0
H40 H 0.49423 0.85071 0.62072 0.0
C41 C 0.51095 0.75947 0.58636 0.0
O42 O 0.54243 0.73881 0.57872 0.0
N43 N 0.55514 0.70845 0.62863 0.0
C44 C 0.58853 0.68568 0.62566 0.0
C45 C 0.58019 0.6465 0.61393 0.0
C46 C 0.52691 0.68131 0.62041 0.0
N47 N 0.54148 0.64423 0.6103 0.0
C48 C 0.62834 0.7805 0.62912 0.0
C49 C 0.62288 0.81832 0.58202 0.0
C50 C 0.65958 0.80477 0.59069 0.0
C51 C 0.66211 0.78741 0.61507 0.0
C52 C 0.58979 0.8113 0.59695 0.0
N53 N 0.59242 0.78891 0.61922 0.0
H54 H 0.63121 0.76588 0.64753 0.0
H55 H 0.56213 0.82316 0.5902 0.0
H56 H 0.61729 0.69707 0.63015 0.0
H57 H 0.49668 0.69095 0.61892 0.0
O58 O 0.57118 0.75672 0.67029 0.0
O59 O 0.50856 0.74852 0.66229 0.0
O60 O 0.50963 0.77622 0.60851 0.0
C61 C 0.53735 0.74307 0.67788 0.0
H62 H 0.49903 0.92789 0.64288 0.0
H63 H 0.60125 0.62338 0.60648 0.0
H64 H 0.61973 0.83389 0.56379 0.0
H65 H 0.68977 0.7772 0.62287 0.0
Co66 Co 0.04942 0.7753 0.89314 0.0
C67 C 0.04088 0.86118 0.86605 0.0
C68 C 0.07362 0.86731 0.90025 0.0
C69 C 0.07033 0.90818 0.88946 0.0
N70 N 0.05516 0.83762 0.88567 0.0
N71 N 0.04975 0.90447 0.86799 0.0
H72 H 1.02383 0.84729 0.85092 0.0
H73 H 0.08835 0.86032 0.91775 0.0
C74 C 0.0865 0.76303 0.94445 0.0
O75 O 0.05606 0.74008 0.95153 0.0
N76 N 0.04466 0.71294 0.90028 0.0
C77 C 1.01352 0.68635 0.89823 0.0
C78 C 1.02382 0.64495 0.90629 0.0
C79 C 0.0739 0.68655 0.90795 0.0
N80 N 0.06171 0.64534 0.91282 0.0
C81 C 0.9677 0.77783 0.90403 0.0
C82 C 0.97188 0.81407 0.95158 0.0
C83 C 0.93607 0.79723 0.9433 0.0
C84 C 0.93411 0.78076 0.91869 0.0
C85 C 1.00494 0.81055 0.93613 0.0
N86 N 1.00321 0.78914 0.91348 0.0
H87 H 0.96505 0.76508 0.88518 0.0
H88 H 1.03193 0.82418 0.94281 0.0
H89 H 0.98503 0.69581 0.8918 0.0
H90 H 0.1033 0.69788 0.91102 0.0
O91 O 1.02445 0.76486 0.861 0.0
O92 O 0.08768 0.75988 0.86781 0.0
O93 O 0.08705 0.78114 0.92264 0.0
C94 C 0.05862 0.7541 0.85248 0.0
H95 H 0.08263 0.93833 0.89677 0.0
H96 H 1.00415 0.61756 0.90879 0.0
H97 H 0.97475 0.82855 0.9701 0.0
H98 H 0.9068 0.76967 0.9108 0.0
Co99 Co 0.53707 0.26129 0.39368 0.0
C100 C 0.54544 0.17548 0.36626 0.0
C101 C 0.51597 0.16862 0.40163 0.0
C102 C 0.51906 0.12783 0.39074 0.0
N103 N 0.5325 0.19873 0.38639 0.0
N104 N 0.53761 0.13196 0.36852 0.0
H105 H 0.56074 0.18979 0.35048 0.0
H106 H 0.50263 0.17533 0.41963 0.0
C107 C 0.49856 0.27487 0.44418 0.0
O108 O 0.52843 0.299 0.45098 0.0
N109 N 0.54041 0.32382 0.40069 0.0
C110 C 0.57138 0.3509 0.40121 0.0
C111 C 0.55907 0.39204 0.4086 0.0
C112 C 0.50964 0.34954 0.40633 0.0
N113 N 0.52025 0.39092 0.41221 0.0
C114 C 0.61857 0.25971 0.40495 0.0
C115 C 0.61436 0.22465 0.45279 0.0
C116 C 0.65023 0.24095 0.44428 0.0
C117 C 0.65218 0.25694 0.41958 0.0
C118 C 0.58125 0.22805 0.43738 0.0
N119 N 0.58305 0.24861 0.41448 0.0
H120 H 0.62123 0.27257 0.38612 0.0
H121 H 0.55422 0.21485 0.44427 0.0
H122 H 0.60101 0.34194 0.39715 0.0
H123 H 0.48015 0.33739 0.40735 0.0
O124 O 0.56275 0.27185 0.36183 0.0
O125 O 0.49927 0.27574 0.36781 0.0
O126 O 0.49887 0.25513 0.42283 0.0
C127 C 0.52874 0.28198 0.35285 0.0
H128 H 0.50793 0.09745 0.3985 0.0
H129 H 0.57775 0.41976 0.41259 0.0
H130 H 0.61154 0.21067 0.47145 0.0
H131 H 0.67949 0.26782 0.41161 0.0
Co132 Co 0.54792 0.7609 0.14638 0.0
C133 C 0.54477 0.67579 0.17485 0.0
C134 C 0.5748 0.66971 0.13961 0.0
C135 C 0.57536 0.62957 0.15143 0.0
N136 N 0.5559 0.699 0.15428 0.0
N137 N 0.55664 0.63329 0.17362 0.0
H138 H 0.52905 0.68969 0.1906 0.0
H139 H 0.58743 0.67653 0.12142 0.0
C140 C 0.58644 0.77488 0.09563 0.0
O141 O 0.556 0.79774 0.0883 0.0
N142 N 0.54086 0.82282 0.13884 0.0
C143 C 0.50832 0.84758 0.13957 0.0
C144 C 0.51735 0.8895 0.13184 0.0
C145 C 0.56945 0.85074 0.13221 0.0
N146 N 0.55576 0.89123 0.1268 0.0
C147 C 0.46648 0.75312 0.1353 0.0
C148 C 0.47308 0.71947 0.08723 0.0
C149 C 0.43619 0.7324 0.09585 0.0
C150 C 0.4331 0.74788 0.12061 0.0
C151 C 0.50578 0.72478 0.10277 0.0
N152 N 0.50265 0.74476 0.12577 0.0
H153 H 0.46305 0.76562 0.15416 0.0
H154 H 0.53348 0.71327 0.09595 0.0
H155 H 0.47976 0.83646 0.14481 0.0
H156 H 0.59953 0.84091 0.13017 0.0
O157 O 0.52209 0.77108 0.17832 0.0
O158 O 0.58519 0.77827 0.17183 0.0
O159 O 0.5864 0.75605 0.11725 0.0
C160 C 0.55576 0.78334 0.18695 0.0
H161 H 0.5883 0.59973 0.14408 0.0
H162 H 0.49665 0.91573 0.12851 0.0
H163 H 0.47668 0.70542 0.06864 0.0
H164 H 0.40525 0.75754 0.12838 0.0
Co165 Co 1.03775 0.27614 0.6466 0.0
C166 C 0.04246 0.36187 0.67426 0.0
C167 C 1.00418 0.36505 0.64242 0.0
C168 C 1.00403 0.40525 0.65415 0.0
N169 N 1.02807 0.33754 0.655 0.0
N170 N 1.02787 0.40337 0.67427 0.0
H171 H 0.06252 0.34937 0.68823 0.0
H172 H 0.98768 0.35702 0.62577 0.0
C173 C 1.00117 0.26357 0.59495 0.0
O174 O 1.03215 0.2419 0.58738 0.0
N175 N 0.04656 0.21459 0.63858 0.0
C176 C 0.07943 0.19061 0.64067 0.0
C177 C 0.07244 0.14893 0.63177 0.0
C178 C 1.01955 0.18618 0.63005 0.0
N179 N 1.03486 0.14639 0.62467 0.0
C180 C 0.11926 0.2852 0.6366 0.0
C181 C 0.11366 0.31886 0.58849 0.0
C182 C 0.15006 0.30385 0.59699 0.0
C183 C 0.15273 0.28906 0.62192 0.0
C184 C 0.08076 0.31454 0.604 0.0
N185 N 0.08335 0.29398 0.62685 0.0
H186 H 0.12234 0.27311 0.65557 0.0
H187 H 0.05322 0.32661 0.59717 0.0
H188 H 0.10691 0.20212 0.64774 0.0
H189 H 0.98952 0.1951 0.62679 0.0
O190 O 0.06259 0.26596 0.67884 0.0
O191 O 0.99993 0.25707 0.67131 0.0
O192 O 1.00036 0.2809 0.61695 0.0
C193 C 1.02888 0.25273 0.68689 0.0
H194 H 0.98775 0.43388 0.64812 0.0
H195 H 0.09411 0.12345 0.62921 0.0
H196 H 0.11024 0.3322 0.56972 0.0
H197 H 0.18044 0.27953 0.62995 0.0
Co198 Co 0.54593 0.26717 0.88877 0.0
C199 C 0.54307 0.35034 0.8583 0.0
C200 C 0.57173 0.35888 0.89384 0.0
C201 C 0.57289 0.39804 0.88106 0.0
N202 N 0.55326 0.32864 0.87963 0.0
N203 N 0.55509 0.39277 0.85868 0.0
H204 H 0.52814 0.33535 0.84258 0.0
H205 H 0.58388 0.35337 0.91231 0.0
C206 C 0.58094 0.25921 0.94093 0.0
O207 O 0.5497 0.23807 0.94839 0.0
N208 N 0.54 0.20559 0.89774 0.0
C209 C 0.50846 0.17939 0.89687 0.0
C210 C 0.518 0.13924 0.90709 0.0
C211 C 0.56874 0.17985 0.90679 0.0
N212 N 0.55583 0.13985 0.9138 0.0
C213 C 0.46409 0.27157 0.89868 0.0
C214 C 0.46694 0.31502 0.94419 0.0
C215 C 0.43103 0.29776 0.93622 0.0
C216 C 0.43006 0.27684 0.91266 0.0
C217 C 0.5006 0.30826 0.92966 0.0
N218 N 0.49937 0.28383 0.90804 0.0
H219 H 0.46193 0.2561 0.88048 0.0
H220 H 0.52757 0.32225 0.93613 0.0
H221 H 0.48013 0.18831 0.88996 0.0
H222 H 0.59823 0.19114 0.90942 0.0
O223 O 0.52166 0.25453 0.8567 0.0
O224 O 0.58462 0.24876 0.86435 0.0
O225 O 0.58267 0.27482 0.91853 0.0
C226 C 0.55587 0.24249 0.84883 0.0
H227 H 0.58582 0.42825 0.88781 0.0
H228 H 0.49776 0.11289 0.91091 0.0
H229 H 0.46923 0.33353 0.96153 0.0
H230 H 0.4035 0.26317 0.90513 0.0
Co231 Co 0.04556 0.75583 0.38909 0.0
C232 C 0.04591 0.67173 0.35954 0.0
C233 C 1.01643 0.66551 0.39496 0.0
C234 C 1.01461 0.62587 0.38268 0.0
N235 N 1.03577 0.6946 0.38047 0.0
N236 N 1.03297 0.62967 0.36038 0.0
H237 H 0.06174 0.68557 0.34384 0.0
H238 H 1.0044 0.67208 0.41336 0.0
C239 C 1.01026 0.7677 0.44113 0.0
O240 O 0.04167 0.78856 0.44853 0.0
N241 N 0.05442 0.81714 0.3975 0.0
C242 C 0.0875 0.84074 0.39659 0.0
C243 C 0.08034 0.88182 0.4064 0.0
C244 C 1.02721 0.84524 0.40625 0.0
N245 N 0.04249 0.88433 0.41295 0.0
C246 C 0.12731 0.74562 0.39772 0.0
C247 C 0.1237 0.71194 0.44589 0.0
C248 C 0.15978 0.72639 0.43667 0.0
C249 C 0.1614 0.74117 0.41172 0.0
C250 C 0.09012 0.71682 0.43105 0.0
N251 N 0.09178 0.73736 0.40815 0.0
H252 H 0.12964 0.75803 0.37878 0.0
H253 H 0.06284 0.70521 0.43845 0.0
H254 H 0.11529 0.82923 0.38996 0.0
H255 H 0.9971 0.83627 0.40895 0.0
O256 O 0.06959 0.76652 0.35667 0.0
O257 O 1.00713 0.7757 0.36489 0.0
O258 O 1.00879 0.75075 0.41904 0.0
C259 C 1.03572 0.78015 0.34905 0.0
H260 H 1.0011 0.59625 0.38981 0.0
H261 H 0.10208 0.90665 0.41009 0.0
H262 H 0.12108 0.69866 0.46473 0.0
H263 H 0.18878 0.75039 0.40317 0.0
C264 C 0.35781 0.3009 0.94131 0.0
C265 C 0.39509 0.30031 0.9523 0.0
C266 C 0.32423 0.29872 0.95612 0.0
C267 C 0.29065 0.272 0.02188 0.0
H268 H 0.19371 0.31859 0.9961 0.0
C269 C 0.14525 0.24187 0.07469 0.0
C270 C 0.11544 0.27329 0.0725 0.0
C271 C 0.17896 0.24498 0.05989 0.0
C272 C 0.22046 0.30593 1.00401 0.0
H273 H 0.42534 0.29873 0.98817 0.0
H274 H 0.36713 0.29849 1.01392 0.0
H275 H 0.2526 0.32857 0.97225 0.0
H276 H 0.09793 0.33291 0.05317 0.0
H277 H 0.15703 0.34013 0.02887 0.0
H278 H 0.2589 0.25218 0.05451 0.0
C279 C 0.36373 0.29851 0.99367 0.0
C280 C 0.25454 0.31087 0.98988 0.0
C281 C 0.39744 0.2996 0.97878 0.0
C282 C 0.12013 0.30784 0.0552 0.0
C283 C 0.1542 0.31172 0.041 0.0
C284 C 0.25671 0.26806 0.03633 0.0
C285 C 0.32648 0.29723 0.9826 0.0
C286 C 0.29025 0.29359 0.99838 0.0
C287 C 0.18429 0.28031 0.04297 0.0
C288 C 0.22087 0.28467 0.02759 0.0
H289 H 0.35423 0.30263 0.9211 0.0
H290 H 0.29653 0.29721 0.94654 0.0
H291 H 0.3171 0.25745 0.02914 0.0
H292 H 0.14246 0.2147 0.08775 0.0
H293 H 0.20067 0.21938 0.06173 0.0
C294 C 0.47367 0.7315 0.54893 0.0
C295 C 0.4752 0.75813 0.5706 0.0
C296 C 0.43916 0.72739 0.53513 0.0
C297 C 0.35699 0.70455 0.51778 0.0
H298 H 0.29199 0.80716 0.50701 0.0
C299 C 0.20424 0.69489 0.47032 0.0
C300 C 0.19522 0.72836 0.45295 0.0
C301 C 0.23781 0.69757 0.48532 0.0
C302 C 0.30985 0.77815 0.50972 0.0
H303 H 0.44139 0.8014 0.5946 0.0
H304 H 0.38136 0.79439 0.57053 0.0
H305 H 0.35196 0.81414 0.53099 0.0
H306 H 0.21415 0.79149 0.4384 0.0
H307 H 0.27245 0.79571 0.46402 0.0
H308 H 0.31513 0.66881 0.49598 0.0
C309 C 0.40695 0.77695 0.56405 0.0
C310 C 0.34412 0.78207 0.52374 0.0
C311 C 0.44142 0.7809 0.57792 0.0
C312 C 0.22038 0.76468 0.45122 0.0
C313 C 0.25367 0.76743 0.46621 0.0
C314 C 0.32259 0.7006 0.50378 0.0
C315 C 0.40525 0.74993 0.54253 0.0
C316 C 0.36832 0.74541 0.52787 0.0
C317 C 0.26292 0.73399 0.4835 0.0
C318 C 0.2987 0.73744 0.49938 0.0
H319 H 0.49897 0.71313 0.54281 0.0
H320 H 0.43917 0.7067 0.51853 0.0
H321 H 0.3746 0.67545 0.52082 0.0
H322 H 0.18565 0.66638 0.47211 0.0
H323 H 0.24383 0.67135 0.49857 0.0
C324 C 0.40346 0.74659 0.05414 0.0
C325 C 0.40129 0.73127 0.0791 0.0
C326 C 0.37001 0.74935 0.03912 0.0
C327 C 0.26913 0.70786 0.03288 0.0
H328 H 0.25235 0.81413 0.99398 0.0
C329 C 0.12175 0.74287 0.98431 0.0
C330 C 0.12202 0.76312 0.96049 0.0
C331 C 0.15586 0.73948 0.99859 0.0
C332 C 0.2567 0.78393 1.00442 0.0
H333 H 0.36223 0.7053 0.10744 0.0
H334 H 0.30403 0.70995 0.08128 0.0
H335 H 0.31194 0.80552 0.01836 0.0
H336 H 0.15866 0.79613 0.93321 0.0
H337 H 0.21814 0.78973 0.95789 0.0
H338 H 0.21423 0.68592 0.0188 0.0
C339 C 0.3316 0.71995 0.0733 0.0
C340 C 0.29097 0.77902 0.01845 0.0
C341 C 0.36496 0.71758 0.08838 0.0
C342 C 0.15723 0.78061 0.95154 0.0
C343 C 0.19143 0.77703 0.96579 0.0
C344 C 0.235 0.7126 0.01871 0.0
C345 C 0.33355 0.73642 0.04857 0.0
C346 C 0.29757 0.74102 0.03298 0.0
C347 C 0.19136 0.75602 0.98945 0.0
C348 C 0.22811 0.75083 1.00437 0.0
H349 H 0.43086 0.75778 0.04644 0.0
H350 H 0.37268 0.76174 0.02008 0.0
H351 H 0.27345 0.67789 0.04355 0.0
H352 H 0.09523 0.72901 0.99185 0.0
H353 H 0.15429 0.72385 1.01688 0.0
C354 C 0.46057 0.30177 0.48158 0.0
C355 C 0.46277 0.27509 0.45996 0.0
C356 C 0.42606 0.30499 0.49543 0.0
C357 C 0.34377 0.32635 0.51278 0.0
H358 H 0.28096 0.22279 0.52468 0.0
C359 C 0.19287 0.33501 0.56244 0.0
C360 C 0.18477 0.30166 0.58004 0.0
C361 C 0.22577 0.33225 0.54682 0.0
C362 C 0.29821 0.25206 0.52166 0.0
H363 H 0.43014 0.23048 0.4362 0.0
H364 H 0.36994 0.23598 0.46039 0.0
H365 H 0.34057 0.21651 0.50015 0.0
H366 H 0.20461 0.23859 0.59432 0.0
H367 H 0.26185 0.23428 0.56768 0.0
H368 H 0.30185 0.36168 0.53483 0.0
C369 C 0.39508 0.25423 0.46675 0.0
C370 C 0.33225 0.24853 0.50731 0.0
C371 C 0.42963 0.25113 0.45281 0.0
C372 C 0.21015 0.26532 0.58134 0.0
C373 C 0.24282 0.26251 0.56575 0.0
C374 C 0.30965 0.3299 0.52709 0.0
C375 C 0.39271 0.28151 0.48814 0.0
C376 C 0.35573 0.28554 0.50283 0.0
C377 C 0.25119 0.2959 0.54827 0.0
C378 C 0.28656 0.29272 0.53194 0.0
H379 H 0.48538 0.32089 0.48764 0.0
H380 H 0.42561 0.32579 0.51198 0.0
H381 H 0.36075 0.35573 0.50944 0.0
H382 H 0.17411 0.36353 0.56094 0.0
H383 H 0.23107 0.35843 0.53344 0.0
C384 C 0.62406 0.79982 0.05764 0.0
C385 C 0.62224 0.77463 0.07984 0.0
C386 C 0.65849 0.80229 0.04363 0.0
C387 C 0.74056 0.82294 0.02561 0.0
H388 H 0.80479 0.71927 1.01643 0.0
C389 C 0.89206 0.82998 0.97679 0.0
C390 C 0.90114 0.79549 0.96009 0.0
C391 C 0.85889 0.82784 0.99217 0.0
C392 C 0.78714 0.74855 0.01867 0.0
H393 H 0.65547 0.73187 0.10448 0.0
H394 H 0.71546 0.73616 0.08007 0.0
H395 H 0.74503 0.71416 0.04086 0.0
H396 H 0.8827 0.73109 0.9472 0.0
H397 H 0.82496 0.72782 0.97346 0.0
H398 H 0.78226 0.85707 1.00291 0.0
C399 C 0.69012 0.75379 0.07336 0.0
C400 C 0.75299 0.74572 0.03296 0.0
C401 C 0.65567 0.75142 0.08743 0.0
C402 C 0.87642 0.75865 0.95948 0.0
C403 C 0.84346 0.75647 0.97485 0.0
C404 C 0.77477 0.8258 1.01135 0.0
C405 C 0.69212 0.77955 0.05134 0.0
C406 C 0.72904 0.78279 0.03652 0.0
C407 C 0.8341 0.79102 0.9914 0.0
C408 C 0.79843 0.78856 1.0075 0.0
H409 H 0.59901 0.81831 0.05121 0.0
H410 H 0.65863 0.82192 0.02661 0.0
H411 H 0.72321 0.85237 0.0282 0.0
H412 H 0.91025 0.85894 0.97772 0.0
H413 H 0.85287 0.85492 1.00484 0.0
C414 C 0.96397 0.23939 0.55658 0.0
C415 C 0.96547 0.26378 0.57908 0.0
C416 C 0.92951 0.2368 0.54259 0.0
C417 C 0.84731 0.21533 0.5248 0.0
H418 H 0.78203 0.3185 0.5169 0.0
C419 C 0.69466 0.20812 0.47747 0.0
C420 C 0.68528 0.24271 0.46092 0.0
C421 C 0.72813 0.21017 0.49257 0.0
C422 C 0.79997 0.28936 0.51879 0.0
H423 H 0.93168 0.30497 0.60429 0.0
H424 H 0.87175 0.30052 0.57993 0.0
H425 H 0.84217 0.32371 0.5409 0.0
H426 H 0.70341 0.30719 0.44799 0.0
H427 H 0.76162 0.31039 0.47381 0.0
H428 H 0.80542 0.18124 0.50221 0.0
C429 C 0.89732 0.28362 0.57296 0.0
C430 C 0.83434 0.29225 0.53282 0.0
C431 C 0.93174 0.28608 0.587 0.0
C432 C 0.70992 0.27959 0.46018 0.0
C433 C 0.74316 0.2817 0.47528 0.0
C434 C 0.81284 0.21241 0.51081 0.0
C435 C 0.89561 0.25866 0.55065 0.0
C436 C 0.85864 0.25535 0.53592 0.0
C437 C 0.75286 0.24703 0.49166 0.0
C438 C 0.78881 0.24948 0.50746 0.0
H439 H 0.98928 0.22161 0.54991 0.0
H440 H 0.92953 0.21777 0.52535 0.0
H441 H 0.86498 0.18606 0.52704 0.0
H442 H 0.67648 0.17915 0.47847 0.0
H443 H 0.73446 0.18301 0.50512 0.0
C444 C 0.89772 0.24088 0.04988 0.0
C445 C 0.89611 0.22524 0.0748 0.0
C446 C 0.86395 0.24394 0.03522 0.0
C447 C 0.76263 0.20335 0.02987 0.0
H448 H 0.74638 0.30968 0.99092 0.0
C449 C 0.61544 0.23989 0.98122 0.0
C450 C 0.61619 0.2594 0.9572 0.0
C451 C 0.6494 0.23631 0.99564 0.0
C452 C 0.75057 0.27948 1.0014 0.0
H453 H 0.85765 0.199 0.10341 0.0
H454 H 0.79884 0.20432 0.07787 0.0
H455 H 0.8061 0.30053 1.01508 0.0
H456 H 0.65348 0.29105 0.92976 0.0
H457 H 0.71262 0.28446 0.9547 0.0
H458 H 0.70735 0.18201 1.01604 0.0
C459 C 0.82625 0.21428 0.06966 0.0
C460 C 0.78491 0.27425 1.01529 0.0
C461 C 0.85997 0.21155 0.08439 0.0
C462 C 0.65168 0.27608 0.94823 0.0
C463 C 0.68568 0.2724 0.96262 0.0
C464 C 0.72838 0.20845 1.01586 0.0
C465 C 0.82768 0.23109 0.04499 0.0
C466 C 0.79138 0.23616 0.02977 0.0
C467 C 0.68516 0.25205 0.98646 0.0
C468 C 0.72176 0.24666 1.00145 0.0
H469 H 0.92495 0.2521 0.04195 0.0
H470 H 0.86623 0.25654 1.0162 0.0
H471 H 0.76682 0.17333 0.04052 0.0
H472 H 0.58869 0.2266 0.98878 0.0
H473 H 0.64755 0.22114 1.01405 0.0
C474 C 0.69281 0.79224 0.54904 0.0
C475 C 0.69474 0.80645 0.57422 0.0
C476 C 0.72653 0.78918 0.53431 0.0
C477 C 0.82855 0.82733 0.52946 0.0
H478 H 0.84327 0.72124 0.49005 0.0
C479 C 0.97555 0.78837 0.48114 0.0
C480 C 0.97479 0.7686 0.45719 0.0
C481 C 0.94149 0.79267 0.4954 0.0
C482 C 0.83953 0.7514 0.50063 0.0
H483 H 0.73361 0.83033 0.60326 0.0
H484 H 0.79233 0.8252 0.57757 0.0
H485 H 0.7835 0.73141 0.514 0.0
H486 H 0.93733 0.73745 0.42965 0.0
H487 H 0.87802 0.74546 0.45427 0.0
H488 H 0.88428 0.84768 0.51592 0.0
C489 C 0.76474 0.81629 0.56921 0.0
C490 C 0.80516 0.75719 0.51442 0.0
C491 C 0.73109 0.81895 0.58401 0.0
C492 C 0.93914 0.75256 0.44809 0.0
C493 C 0.90504 0.75705 0.4623 0.0
C494 C 0.86281 0.82171 0.51552 0.0
C495 C 0.76301 0.80067 0.54429 0.0
C496 C 0.79925 0.79517 0.52908 0.0
C497 C 0.9056 0.77752 0.4861 0.0
C498 C 0.86892 0.78356 0.50096 0.0
H499 H 0.66539 0.78196 0.54096 0.0
H500 H 0.72405 0.77751 0.51511 0.0
H501 H 0.82479 0.85722 0.54029 0.0
H502 H 1.00242 0.80117 0.48878 0.0
H503 H 0.94339 0.80789 0.51379 0.0
C504 C 0.08996 0.33196 0.20738 0.0
C505 C 0.05698 0.30554 0.20354 0.0
C506 C 0.08969 0.36537 0.22557 0.0
C507 C 1.01906 0.43601 0.25951 0.0
H508 H 0.10904 0.47362 0.29774 0.0
C509 C 1.00753 0.56331 0.33933 0.0
C510 C 1.03662 0.59546 0.34162 0.0
C511 C 1.01143 0.52863 0.32228 0.0
C512 C 0.08379 0.46382 0.28696 0.0
H513 H 0.99892 0.29145 0.21705 0.0
H514 H 0.99887 0.34852 0.24928 0.0
H515 H 0.11383 0.40913 0.27034 0.0
H516 H 0.0926 0.6165 0.32749 0.0
H517 H 0.09951 0.55556 0.29741 0.0
H518 H 0.98896 0.49037 0.27616 0.0
C519 C 1.02458 0.34446 0.23774 0.0
C520 C 0.08648 0.42675 0.27128 0.0
C521 C 1.02476 0.31129 0.21946 0.0
C522 C 0.06961 0.59239 0.32607 0.0
C523 C 0.07371 0.55727 0.30905 0.0
C524 C 1.01635 0.47282 0.2752 0.0
C525 C 0.05648 0.37301 0.24045 0.0
C526 C 0.05403 0.41213 0.25748 0.0
C527 C 0.04463 0.52491 0.30701 0.0
C528 C 0.04855 0.48705 0.28928 0.0
H529 H 0.11517 0.32869 0.1953 0.0
H530 H 0.11475 0.38669 0.22698 0.0
H531 H 0.99373 0.42667 0.24867 0.0
H532 H 0.98154 0.56495 0.35078 0.0
H533 H 0.98863 0.50418 0.32141 0.0
C534 C 0.50056 0.68828 0.7039 0.0
C535 C 0.53375 0.71452 0.70042 0.0
C536 C 0.50039 0.65452 0.72187 0.0
C537 C 0.57003 0.58267 0.75571 0.0
H538 H 0.47986 0.54661 0.79425 0.0
C539 C 0.58092 0.4578 0.83661 0.0
C540 C 0.55168 0.42593 0.83933 0.0
C541 C 0.57717 0.49177 0.8191 0.0
C542 C 0.50514 0.55596 0.78336 0.0
H543 H 0.59175 0.72785 0.71431 0.0
H544 H 0.59107 0.67007 0.7461 0.0
H545 H 0.4756 0.61092 0.76665 0.0
H546 H 0.49569 0.40449 0.82548 0.0
H547 H 0.48898 0.4643 0.79458 0.0
H548 H 0.59967 0.5281 0.77248 0.0
C549 C 0.56553 0.67459 0.73446 0.0
C550 C 0.50275 0.59291 0.76759 0.0
C551 C 0.56577 0.70813 0.71642 0.0
C552 C 0.51875 0.42844 0.82371 0.0
C553 C 0.51479 0.46289 0.80624 0.0
C554 C 0.57243 0.54597 0.77149 0.0
C555 C 0.53337 0.64633 0.73685 0.0
C556 C 0.53533 0.60703 0.75374 0.0
C557 C 0.54398 0.49504 0.8038 0.0
C558 C 0.54018 0.53236 0.78572 0.0
H559 H 0.47548 0.69211 0.69176 0.0
H560 H 0.47515 0.63342 0.72307 0.0
H561 H 0.59543 0.59165 0.74484 0.0
H562 H 0.60686 0.45653 0.84811 0.0
H563 H 0.60005 0.51609 0.81794 0.0
C564 C 1.00614 0.47107 0.69593 0.0
C565 C 1.0348 0.43872 0.69195 0.0
C566 C 1.01305 0.5069 0.71173 0.0
C567 C 0.07562 0.54704 0.76355 0.0
H568 H 1.03371 0.6603 0.7434 0.0
C569 C 0.09674 0.70307 0.82466 0.0
C570 C 0.06267 0.72753 0.82916 0.0
C571 C 0.09768 0.67072 0.80585 0.0
C572 C 0.04549 0.62891 0.74937 0.0
H573 H 0.0931 0.41841 0.70211 0.0
H574 H 0.10536 0.48135 0.72989 0.0
H575 H 1.02724 0.59722 0.71543 0.0
H576 H 1.00361 0.73879 0.81648 0.0
H577 H 1.00539 0.68299 0.78355 0.0
H578 H 0.0935 0.57884 0.79766 0.0
C579 C 0.07735 0.47872 0.72073 0.0
C580 C 0.0417 0.59262 0.73335 0.0
C581 C 0.07035 0.4426 0.70484 0.0
C582 C 1.03039 0.72073 0.81343 0.0
C583 C 1.03143 0.68867 0.79452 0.0
C584 C 0.07953 0.58346 0.77957 0.0
C585 C 0.04891 0.51168 0.7241 0.0
C586 C 0.05602 0.55096 0.74041 0.0
C587 C 0.0647 0.66235 0.79095 0.0
C588 C 0.06391 0.6247 0.77287 0.0
H589 H 0.97805 0.46866 0.68687 0.0
H590 H 0.99 0.53078 0.71439 0.0
H591 H 0.08673 0.51549 0.76974 0.0
H592 H 0.12207 0.70724 0.83653 0.0
H593 H 0.12397 0.65152 0.80337 0.0
C594 C 0.49274 0.33602 0.32577 0.0
C595 C 0.52538 0.30891 0.32965 0.0
C596 C 0.49345 0.36932 0.30749 0.0
C597 C 0.56543 0.43797 0.27362 0.0
H598 H 0.47632 0.47868 0.23541 0.0
C599 C 0.58005 0.56527 0.19411 0.0
C600 C 0.55187 0.59866 0.19202 0.0
C601 C 0.57517 0.53045 0.21095 0.0
C602 C 0.50135 0.46798 0.24618 0.0
H603 H 0.58317 0.29329 0.3161 0.0
H604 H 0.58394 0.35001 0.2837 0.0
H605 H 0.47013 0.41426 0.26276 0.0
H606 H 0.49643 0.62164 0.20622 0.0
H607 H 0.48781 0.56045 0.23592 0.0
H608 H 0.59671 0.49132 0.25702 0.0
C609 C 0.5582 0.34669 0.29528 0.0
C610 C 0.49785 0.43097 0.26183 0.0
C611 C 0.5576 0.31372 0.31366 0.0
C612 C 0.51875 0.59657 0.2075 0.0
C613 C 0.51366 0.56132 0.2243 0.0
C614 C 0.56895 0.47468 0.25796 0.0
C615 C 0.52676 0.37609 0.29259 0.0
C616 C 0.52998 0.41522 0.27562 0.0
C617 C 0.54188 0.52781 0.2262 0.0
C618 C 0.53709 0.49002 0.24387 0.0
H619 H 0.46759 0.3335 0.33795 0.0
H620 H 0.46873 0.39129 0.30608 0.0
H621 H 0.59055 0.42779 0.28446 0.0
H622 H 0.60612 0.56608 0.18272 0.0
H623 H 0.59732 0.5051 0.21171 0.0
C624 C 0.52548 0.82026 0.22437 0.0
C625 C 0.55884 0.81045 0.21013 0.0
C626 C 0.52647 0.85266 0.24311 0.0
C627 C 0.58084 0.95291 0.26074 0.0
H628 H 0.52073 0.94444 0.32224 0.0
C629 C 0.54711 0.10378 0.32498 0.0
C630 C 0.54611 0.09658 0.35113 0.0
C631 C 0.55173 0.06836 0.30825 0.0
C632 C 0.53801 0.94731 0.30528 0.0
H633 H 0.61994 0.82563 0.20532 0.0
H634 H 0.62183 0.88155 0.23828 0.0
H635 H 0.52389 0.88176 0.29377 0.0
H636 H 0.55175 0.0468 0.38014 0.0
H637 H 0.56003 0.98554 0.35121 0.0
H638 H 0.59517 0.01844 0.2724 0.0
C639 C 0.59469 0.86473 0.23467 0.0
C640 C 0.53948 0.91142 0.28879 0.0
C641 C 0.59372 0.83223 0.21597 0.0
C642 C 0.55142 0.05345 0.36012 0.0
C643 C 0.55612 0.01822 0.34349 0.0
C644 C 0.57931 0.9889 0.27723 0.0
C645 C 0.56084 0.87616 0.24807 0.0
C646 C 0.56078 0.91373 0.26624 0.0
C647 C 0.55559 0.02497 0.31731 0.0
C648 C 0.55781 0.98663 0.29972 0.0
H649 H 0.49806 0.80438 0.22026 0.0
H650 H 0.49975 0.8607 0.25287 0.0
H651 H 0.59714 0.95615 0.2434 0.0
H652 H 0.54287 0.13652 0.31744 0.0
H653 H 0.55094 0.07483 0.28821 0.0
C654 C 1.0356 0.98301 0.86016 0.0
C655 C 0.04034 0.93997 0.85093 0.0
C656 C 1.03008 0.01838 0.84374 0.0
C657 C 1.00465 0.04806 0.77774 0.0
H658 H 0.06024 0.15522 0.79394 0.0
C659 C 0.99059 0.20386 0.71575 0.0
C660 C 1.02548 0.22573 0.71007 0.0
C661 C 0.98943 0.17164 0.73461 0.0
C662 C 0.0446 0.12556 0.78904 0.0
H663 H 0.04177 0.90027 0.81711 0.0
H664 H 1.03252 0.96219 0.78822 0.0
H665 H 0.06393 0.09259 0.82234 0.0
H666 H 0.08607 0.23224 0.7206 0.0
H667 H 0.0841 0.17631 0.75335 0.0
H668 H 0.98646 0.08066 0.74396 0.0
C669 C 1.03266 0.96852 0.80828 0.0
C670 C 0.04634 0.08968 0.80552 0.0
C671 C 0.03798 0.93296 0.82481 0.0
C672 C 0.05864 0.21628 0.72458 0.0
C673 C 0.05748 0.18411 0.74342 0.0
C674 C 1.00292 0.084 0.76123 0.0
C675 C 1.02934 1.01185 0.81753 0.0
C676 C 1.02654 0.05033 0.80007 0.0
C677 C 1.02312 0.16053 0.74827 0.0
C678 C 1.02309 0.12317 0.76658 0.0
H679 H 1.0364 0.98944 0.8802 0.0
H680 H 1.02661 0.05099 0.85164 0.0
H681 H 0.98872 0.01852 0.773 0.0
H682 H 0.96452 0.21024 0.7049 0.0
H683 H 0.96228 0.15479 0.73813 0.0
C684 C 0.55773 0.92397 0.7094 0.0
C685 C 0.55193 0.9314 0.68357 0.0
C686 C 0.56304 0.95948 0.72596 0.0
C687 C 0.5433 0.07986 0.72985 0.0
H688 H 0.60595 0.07275 0.79033 0.0
C689 C 0.5275 0.20446 0.8113 0.0
C690 C 0.56031 0.2153 0.82578 0.0
C691 C 0.52982 0.17252 0.7924 0.0
C692 C 0.58871 0.07561 0.77335 0.0
H693 H 0.54991 0.98138 0.65459 0.0
H694 H 0.56033 0.04294 0.68306 0.0
H695 H 0.60561 1.01133 0.76078 0.0
H696 H 0.62179 0.20236 0.8309 0.0
H697 H 0.62611 0.14738 0.79744 0.0
H698 H 0.5269 0.1443 0.7421 0.0
C699 C 0.55932 1.01007 0.69088 0.0
C700 C 0.58808 0.04002 0.75655 0.0
C701 C 0.55357 0.97475 0.67448 0.0
C702 C 0.59597 0.19491 0.82006 0.0
C703 C 0.59832 0.16294 0.80107 0.0
C704 C 0.54408 0.11544 0.74655 0.0
C705 C 0.56309 1.00316 0.71696 0.0
C706 C 0.56515 0.0415 0.73462 0.0
C707 C 0.56507 0.15057 0.78735 0.0
C708 C 0.56646 0.11372 0.76868 0.0
H709 H 0.55634 0.89091 0.71693 0.0
H710 H 0.56555 0.95274 0.74591 0.0
H711 H 0.52478 0.08221 0.71342 0.0
H712 H 0.4995 0.21924 0.81531 0.0
H713 H 0.50345 0.16369 0.78251 0.0
C714 C 1.01981 0.0918 0.20173 0.0
C715 C 0.05201 0.09365 0.18544 0.0
C716 C 1.01571 0.05685 0.21882 0.0
C717 C 0.07286 0.97092 0.25167 0.0
H718 H 0.97413 0.91132 0.2596 0.0
C719 C 0.06351 0.81175 0.30945 0.0
C720 C 1.032 0.80763 0.32609 0.0
C721 C 0.06354 0.84435 0.29084 0.0
C722 C 1.00184 0.92781 0.2578 0.0
H723 H 0.10565 0.06086 0.17496 0.0
H724 H 0.09851 1.00032 0.20446 0.0
H725 H 0.97897 0.97472 0.23141 0.0
H726 H 0.97488 0.83316 0.33539 0.0
H727 H 0.97506 0.89029 0.30316 0.0
H728 H 0.0958 0.92481 0.27816 0.0
C729 C 0.07635 0.02568 0.2041 0.0
C730 C 1.00458 0.96423 0.24166 0.0
C731 C 0.08025 0.06023 0.18697 0.0
C732 C 0.99951 0.8352 0.32275 0.0
C733 C 0.99965 0.86808 0.30423 0.0
C734 C 0.07011 0.93478 0.26784 0.0
C735 C 0.044 0.02337 0.2202 0.0
C736 C 0.04023 0.98599 0.23824 0.0
C737 C 1.0322 0.87399 0.28854 0.0
C738 C 1.03468 0.9124 0.271 0.0
H739 H 0.99745 0.11687 0.20091 0.0
H740 H 0.99058 0.05623 0.23109 0.0
H741 H 0.10061 0.98737 0.24986 0.0
H742 H 0.08893 0.79095 0.31145 0.0
H743 H 0.08869 0.84706 0.27869 0.0
C744 C 0.06839 0.56957 0.9287 0.0
C745 C 0.08068 0.61356 0.92876 0.0
C746 C 0.07809 0.54174 0.94862 0.0
C747 C 0.13385 0.52849 1.00769 0.0
H748 H 1.03397 0.49116 0.0339 0.0
C749 C 0.10204 0.40919 0.09128 0.0
C750 C 0.06936 0.41981 0.10614 0.0
C751 C 0.11329 0.43652 0.07146 0.0
C752 C 0.06204 0.50165 0.0269 0.0
H753 H 0.11702 0.66109 0.9482 0.0
H754 H 0.13374 0.61258 0.98285 0.0
H755 H 1.03751 0.52446 0.99244 0.0
H756 H 1.02754 0.47126 0.11457 0.0
H757 H 0.04686 0.51855 0.07975 0.0
H758 H 0.15811 0.5051 0.04257 0.0
C759 C 0.11656 0.59964 0.96745 0.0
C760 C 0.06419 0.51998 1.00299 0.0
C761 C 0.10684 0.6275 0.94753 0.0
C762 C 0.05177 0.4612 0.10291 0.0
C763 C 0.06295 0.48842 0.08308 0.0
C764 C 0.13177 0.50929 0.03165 0.0
C765 C 0.10033 0.55746 0.96888 0.0
C766 C 0.09999 0.5338 0.99317 0.0
C767 C 0.09224 0.47498 0.06634 0.0
C768 C 0.09567 0.4964 0.04153 0.0
H769 H 0.04904 0.55761 0.91417 0.0
H770 H 0.06583 0.50896 0.94911 0.0
H771 H 0.16174 0.53922 1.00053 0.0
H772 H 0.11697 0.37812 0.09337 0.0
H773 H 0.13612 0.42557 0.05885 0.0
C774 C 0.48691 0.59966 0.59442 0.0
C775 C 0.52277 0.62046 0.59046 0.0
C776 C 0.4676 0.57943 0.57429 0.0
C777 C 0.461 0.51177 0.53015 0.0
H778 H 0.4556 0.57069 0.46543 0.0
C779 C 0.50928 0.46703 0.42663 0.0
C780 C 0.4975 0.4229 0.42583 0.0
C781 C 0.49338 0.49581 0.44432 0.0
C782 C 0.45648 0.55378 0.48337 0.0
H783 H 0.56556 0.63899 0.56258 0.0
H784 H 0.53196 0.60417 0.52749 0.0
H785 H 0.46426 0.61391 0.5038 0.0
H786 H 0.45641 0.37579 0.44121 0.0
H787 H 0.42823 0.42618 0.47163 0.0
H788 H 0.45716 0.45145 0.50985 0.0
C789 C 0.51889 0.6029 0.54604 0.0
C790 C 0.46119 0.57853 0.50529 0.0
C791 C 0.53846 0.62202 0.56612 0.0
C792 C 0.46648 0.40945 0.44131 0.0
C793 C 0.45044 0.4383 0.45896 0.0
C794 C 0.45669 0.48695 0.50822 0.0
C795 C 0.48341 0.58128 0.54992 0.0
C796 C 0.46573 0.55746 0.52863 0.0
C797 C 0.46512 0.48114 0.46154 0.0
C798 C 0.4568 0.50756 0.48446 0.0
H799 H 0.47413 0.59899 0.61305 0.0
H800 H 0.44039 0.56259 0.57768 0.0
H801 H 0.46453 0.49484 0.54796 0.0
H802 H 0.53249 0.47864 0.41461 0.0
H803 H 0.50562 0.52849 0.44575 0.0
C804 C 0.55962 0.06769 0.93488 0.0
C805 C 0.57419 0.11039 0.93148 0.0
C806 C 0.56956 0.04348 0.95623 0.0
C807 C 0.63188 0.03148 1.01141 0.0
H808 H 0.53433 1.0109 0.0461 0.0
C809 C 0.60353 0.91197 0.09421 0.0
C810 C 0.5747 0.92419 0.11172 0.0
C811 C 0.61403 0.94055 0.07481 0.0
C812 C 0.56186 0.01698 0.03684 0.0
H813 H 0.6147 0.15868 0.94644 0.0
H814 H 0.63215 0.11608 0.98345 0.0
H815 H 0.53381 0.04302 1.00423 0.0
H816 H 0.53873 0.97809 0.12482 0.0
H817 H 0.55683 0.02793 0.09076 0.0
H818 H 0.65974 1.004 0.0441 0.0
C819 C 0.61274 0.1017 0.96966 0.0
C820 C 0.5615 0.03467 1.01273 0.0
C821 C 0.60259 0.1261 0.94837 0.0
C822 C 0.5602 0.9674 0.11122 0.0
C823 C 0.57066 0.99593 0.09182 0.0
C824 C 0.63222 1.01288 0.03556 0.0
C825 C 0.59466 0.06132 0.97437 0.0
C826 C 0.59638 0.04168 0.99971 0.0
C827 C 0.59591 0.98174 0.07266 0.0
C828 C 0.59711 1.00552 0.04843 0.0
H829 H 0.53858 0.05411 0.9219 0.0
H830 H 0.55572 1.01198 0.9594 0.0
H831 H 0.65911 0.03708 1.00171 0.0
H832 H 0.61545 0.87903 0.09399 0.0
H833 H 0.63351 0.92877 0.06025 0.0
C834 C 0.9966 0.90307 0.44724 0.0
C835 C 1.02574 0.9159 0.43009 0.0
C836 C 0.98715 0.92976 0.46776 0.0
C837 C 0.03883 1.00158 0.50905 0.0
H838 H 0.93942 0.03169 0.53903 0.0
C839 C 1.03457 0.07094 0.60764 0.0
C840 C 1.01859 0.11349 0.60825 0.0
C841 C 1.02647 0.04275 0.5876 0.0
C842 C 0.96727 0.02314 0.53085 0.0
H843 H 0.06403 0.96921 0.41938 0.0
H844 H 0.04796 1.01544 0.45548 0.0
H845 H 0.94147 0.99546 0.49756 0.0
H846 H 0.97791 0.15773 0.58972 0.0
H847 H 0.96374 0.10839 0.55494 0.0
H848 H 0.06485 0.02864 0.54203 0.0
C849 C 1.03299 0.98439 0.45315 0.0
C850 C 0.96844 1.00266 0.50722 0.0
C851 C 0.04227 0.95788 0.43256 0.0
C852 C 0.99089 0.1253 0.5899 0.0
C853 C 0.98267 0.097 0.5699 0.0
C854 C 1.03765 0.02121 0.53267 0.0
C855 C 1.00671 0.96961 0.4715 0.0
C856 C 1.00433 0.99226 0.49605 0.0
C857 C 1.00201 0.05649 0.56793 0.0
C858 C 1.00195 0.03233 0.54379 0.0
H859 H 0.98316 0.87104 0.44606 0.0
H860 H 0.96683 0.91762 0.4817 0.0
H861 H 0.06685 0.99318 0.50103 0.0
H862 H 0.0552 0.06045 0.62182 0.0
H863 H 0.0412 1.01125 0.58668 0.0
loop_
_geom_bond_atom_site_label_1
_geom_bond_atom_site_label_2
_geom_bond_distance
_geom_bond_site_symmetry_2
_ccdc_geom_bond_type
Co0 N4 2.148 . S
Co0 N10 2.128 . S
Co0 N20 2.194 1_455 S
Co0 O25 2.351 1_455 S
Co0 O26 2.155 . S
Co0 O27 2.096 . S
C1 N4 1.301 . S
C1 N5 1.328 . S
C1 H6 0.930 1_455 S
C2 C3 1.333 . S
C2 N4 1.317 . S
C2 H7 0.930 . S
C3 C2 1.333 . S
C3 N5 1.350 . S
C3 H29 0.931 . S
N4 Co0 2.148 . S
N4 C1 1.301 . S
N4 C2 1.317 . S
N5 C1 1.328 . S
N5 C3 1.350 . S
H6 C1 0.930 1_655 S
H7 C2 0.930 . S
C8 O9 1.224 . S
C8 O27 1.247 . S
O9 C8 1.224 . S
N10 Co0 2.128 . S
N10 C11 1.355 1_455 S
N10 C13 1.311 . S
C11 N10 1.355 1_655 S
C11 C12 1.363 . S
C11 H23 0.929 . S
C12 C11 1.363 . S
C12 N14 1.375 1_655 S
C12 H30 0.931 . S
C13 N10 1.311 . S
C13 N14 1.347 . S
C13 H24 0.929 . S
N14 C12 1.375 1_455 S
N14 C13 1.347 . S
C15 C18 1.365 . S
C15 N20 1.328 . S
C15 H21 0.929 . S
C16 C17 1.362 . S
C16 C19 1.378 . S
C16 H31 0.929 . S
C17 C16 1.362 . S
C17 C18 1.366 . S
C18 C15 1.365 . S
C18 C17 1.366 . S
C18 H32 0.930 . S
C19 C16 1.378 . S
C19 N20 1.315 . S
C19 H22 0.930 . S
N20 Co0 2.194 1_655 S
N20 C15 1.328 . S
N20 C19 1.315 . S
H21 C15 0.929 . S
H22 C19 0.930 . S
H23 C11 0.929 . S
H24 C13 0.929 . S
O25 Co0 2.351 1_655 S
O25 C28 1.244 1_655 S
O26 Co0 2.155 . S
O26 C28 1.240 . S
O27 Co0 2.096 . S
O27 C8 1.247 . S
C28 O25 1.244 1_455 S
C28 O26 1.240 . S
H29 C3 0.931 . S
H30 C12 0.931 . S
H31 C16 0.929 . S
H32 C18 0.930 . S
Co33 N37 2.148 . S
Co33 N43 2.128 . S
Co33 N53 2.194 . S
Co33 O58 2.351 . S
Co33 O59 2.155 . S
Co33 O60 2.096 . S
C34 N37 1.301 . S
C34 N38 1.328 . S
C34 H39 0.930 . S
C35 C36 1.333 . S
C35 N37 1.317 . S
C35 H40 0.930 . S
C36 C35 1.333 . S
C36 N38 1.350 . S
C36 H62 0.931 . S
N37 Co33 2.148 . S
N37 C34 1.301 . S
N37 C35 1.317 . S
N38 C34 1.328 . S
N38 C36 1.350 . S
H39 C34 0.930 . S
H40 C35 0.930 . S
C41 O42 1.224 . S
C41 O60 1.247 . S
O42 C41 1.224 . S
N43 Co33 2.128 . S
N43 C44 1.355 . S
N43 C46 1.311 . S
C44 N43 1.355 . S
C44 C45 1.363 . S
C44 H56 0.929 . S
C45 C44 1.363 . S
C45 N47 1.375 . S
C45 H63 0.931 . S
C46 N43 1.311 . S
C46 N47 1.347 . S
C46 H57 0.929 . S
N47 C45 1.375 . S
N47 C46 1.347 . S
C48 C51 1.365 . S
C48 N53 1.328 . S
C48 H54 0.929 . S
C49 C50 1.362 . S
C49 C52 1.378 . S
C49 H64 0.929 . S
C50 C49 1.362 . S
C50 C51 1.366 . S
C51 C48 1.365 . S
C51 C50 1.366 . S
C51 H65 0.930 . S
C52 C49 1.378 . S
C52 N53 1.315 . S
C52 H55 0.930 . S
N53 Co33 2.194 . S
N53 C48 1.328 . S
N53 C52 1.315 . S
H54 C48 0.929 . S
H55 C52 0.930 . S
H56 C44 0.929 . S
H57 C46 0.929 . S
O58 Co33 2.351 . S
O58 C61 1.244 . S
O59 Co33 2.155 . S
O59 C61 1.240 . S
O60 Co33 2.096 . S
O60 C41 1.247 . S
C61 O58 1.244 . S
C61 O59 1.240 . S
H62 C36 0.931 . S
H63 C45 0.931 . S
H64 C49 0.929 . S
H65 C51 0.930 . S
Co66 N70 2.148 . S
Co66 N76 2.128 . S
Co66 N86 2.194 1_455 S
Co66 O91 2.351 1_455 S
Co66 O92 2.155 . S
Co66 O93 2.096 . S
C67 N70 1.301 . S
C67 N71 1.328 . S
C67 H72 0.930 1_455 S
C68 C69 1.333 . S
C68 N70 1.317 . S
C68 H73 0.930 . S
C69 C68 1.333 . S
C69 N71 1.350 . S
C69 H95 0.931 . S
N70 Co66 2.148 . S
N70 C67 1.301 . S
N70 C68 1.317 . S
N71 C67 1.328 . S
N71 C69 1.350 . S
H72 C67 0.930 1_655 S
H73 C68 0.930 . S
C74 O75 1.224 . S
C74 O93 1.247 . S
O75 C74 1.224 . S
N76 Co66 2.128 . S
N76 C77 1.355 1_455 S
N76 C79 1.311 . S
C77 N76 1.355 1_655 S
C77 C78 1.363 . S
C77 H89 0.929 . S
C78 C77 1.363 . S
C78 N80 1.375 1_655 S
C78 H96 0.931 . S
C79 N76 1.311 . S
C79 N80 1.347 . S
C79 H90 0.929 . S
N80 C78 1.375 1_455 S
N80 C79 1.347 . S
C81 C84 1.365 . S
C81 N86 1.328 . S
C81 H87 0.929 . S
C82 C83 1.362 . S
C82 C85 1.378 . S
C82 H97 0.929 . S
C83 C82 1.362 . S
C83 C84 1.366 . S
C84 C81 1.365 . S
C84 C83 1.366 . S
C84 H98 0.930 . S
C85 C82 1.378 . S
C85 N86 1.315 . S
C85 H88 0.930 . S
N86 Co66 2.194 1_655 S
N86 C81 1.328 . S
N86 C85 1.315 . S
H87 C81 0.929 . S
H88 C85 0.930 . S
H89 C77 0.929 . S
H90 C79 0.929 . S
O91 Co66 2.351 1_655 S
O91 C94 1.244 1_655 S
O92 Co66 2.155 . S
O92 C94 1.240 . S
O93 Co66 2.096 . S
O93 C74 1.247 . S
C94 O91 1.244 1_455 S
C94 O92 1.240 . S
H95 C69 0.931 . S
H96 C78 0.931 . S
H97 C82 0.929 . S
H98 C84 0.930 . S
Co99 N103 2.148 . S
Co99 N109 2.128 . S
Co99 N119 2.194 . S
Co99 O124 2.351 . S
Co99 O125 2.155 . S
Co99 O126 2.096 . S
C100 N103 1.301 . S
C100 N104 1.328 . S
C100 H105 0.930 . S
C101 C102 1.333 . S
C101 N103 1.317 . S
C101 H106 0.930 . S
C102 C101 1.333 . S
C102 N104 1.350 . S
C102 H128 0.931 . S
N103 Co99 2.148 . S
N103 C100 1.301 . S
N103 C101 1.317 . S
N104 C100 1.328 . S
N104 C102 1.350 . S
H105 C100 0.930 . S
H106 C101 0.930 . S
C107 O108 1.224 . S
C107 O126 1.247 . S
O108 C107 1.224 . S
N109 Co99 2.128 . S
N109 C110 1.355 . S
N109 C112 1.311 . S
C110 N109 1.355 . S
C110 C111 1.363 . S
C110 H122 0.929 . S
C111 C110 1.363 . S
C111 N113 1.375 . S
C111 H129 0.931 . S
C112 N109 1.311 . S
C112 N113 1.347 . S
C112 H123 0.929 . S
N113 C111 1.375 . S
N113 C112 1.347 . S
C114 C117 1.365 . S
C114 N119 1.328 . S
C114 H120 0.929 . S
C115 C116 1.362 . S
C115 C118 1.378 . S
C115 H130 0.929 . S
C116 C115 1.362 . S
C116 C117 1.366 . S
C117 C114 1.365 . S
C117 C116 1.366 . S
C117 H131 0.930 . S
C118 C115 1.378 . S
C118 N119 1.315 . S
C118 H121 0.930 . S
N119 Co99 2.194 . S
N119 C114 1.328 . S
N119 C118 1.315 . S
H120 C114 0.929 . S
H121 C118 0.930 . S
H122 C110 0.929 . S
H123 C112 0.929 . S
O124 Co99 2.351 . S
O124 C127 1.244 . S
O125 Co99 2.155 . S
O125 C127 1.240 . S
O126 Co99 2.096 . S
O126 C107 1.247 . S
C127 O124 1.244 . S
C127 O125 1.240 . S
H128 C102 0.931 . S
H129 C111 0.931 . S
H130 C115 0.929 . S
H131 C117 0.930 . S
Co132 N136 2.148 . S
Co132 N142 2.128 . S
Co132 N152 2.194 . S
Co132 O157 2.351 . S
Co132 O158 2.155 . S
Co132 O159 2.096 . S
C133 N136 1.301 . S
C133 N137 1.328 . S
C133 H138 0.930 . S
C134 C135 1.333 . S
C134 N136 1.317 . S
C134 H139 0.930 . S
C135 C134 1.333 . S
C135 N137 1.350 . S
C135 H161 0.931 . S
N136 Co132 2.148 . S
N136 C133 1.301 . S
N136 C134 1.317 . S
N137 C133 1.328 . S
N137 C135 1.350 . S
H138 C133 0.930 . S
H139 C134 0.930 . S
C140 O141 1.224 . S
C140 O159 1.247 . S
O141 C140 1.224 . S
N142 Co132 2.128 . S
N142 C143 1.355 . S
N142 C145 1.311 . S
C143 N142 1.355 . S
C143 C144 1.363 . S
C143 H155 0.929 . S
C144 C143 1.363 . S
C144 N146 1.375 . S
C144 H162 0.931 . S
C145 N142 1.311 . S
C145 N146 1.347 . S
C145 H156 0.929 . S
N146 C144 1.375 . S
N146 C145 1.347 . S
C147 C150 1.365 . S
C147 N152 1.328 . S
C147 H153 0.929 . S
C148 C149 1.362 . S
C148 C151 1.378 . S
C148 H163 0.929 . S
C149 C148 1.362 . S
C149 C150 1.366 . S
C150 C147 1.365 . S
C150 C149 1.366 . S
C150 H164 0.930 . S
C151 C148 1.378 . S
C151 N152 1.315 . S
C151 H154 0.930 . S
N152 Co132 2.194 . S
N152 C147 1.328 . S
N152 C151 1.315 . S
H153 C147 0.929 . S
H154 C151 0.930 . S
H155 C143 0.929 . S
H156 C145 0.929 . S
O157 Co132 2.351 . S
O157 C160 1.244 . S
O158 Co132 2.155 . S
O158 C160 1.240 . S
O159 Co132 2.096 . S
O159 C140 1.247 . S
C160 O157 1.244 . S
C160 O158 1.240 . S
H161 C135 0.931 . S
H162 C144 0.931 . S
H163 C148 0.929 . S
H164 C150 0.930 . S
Co165 N169 2.148 . S
Co165 N175 2.128 1_655 S
Co165 N185 2.194 1_655 S
Co165 O190 2.351 1_655 S
Co165 O191 2.155 . S
Co165 O192 2.096 . S
C166 N169 1.301 1_455 S
C166 N170 1.328 1_455 S
C166 H171 0.930 . S
C167 C168 1.333 . S
C167 N169 1.317 . S
C167 H172 0.930 . S
C168 C167 1.333 . S
C168 N170 1.350 . S
C168 H194 0.931 . S
N169 Co165 2.148 . S
N169 C166 1.301 1_655 S
N169 C167 1.317 . S
N170 C166 1.328 1_655 S
N170 C168 1.350 . S
H171 C166 0.930 . S
H172 C167 0.930 . S
C173 O174 1.224 . S
C173 O192 1.247 . S
O174 C173 1.224 . S
N175 Co165 2.128 1_455 S
N175 C176 1.355 . S
N175 C178 1.311 1_455 S
C176 N175 1.355 . S
C176 C177 1.363 . S
C176 H188 0.929 . S
C177 C176 1.363 . S
C177 N179 1.375 1_455 S
C177 H195 0.931 . S
C178 N175 1.311 1_655 S
C178 N179 1.347 . S
C178 H189 0.929 . S
N179 C177 1.375 1_655 S
N179 C178 1.347 . S
C180 C183 1.365 . S
C180 N185 1.328 . S
C180 H186 0.929 . S
C181 C182 1.362 . S
C181 C184 1.378 . S
C181 H196 0.929 . S
C182 C181 1.362 . S
C182 C183 1.366 . S
C183 C180 1.365 . S
C183 C182 1.366 . S
C183 H197 0.930 . S
C184 C181 1.378 . S
C184 N185 1.315 . S
C184 H187 0.930 . S
N185 Co165 2.194 1_455 S
N185 C180 1.328 . S
N185 C184 1.315 . S
H186 C180 0.929 . S
H187 C184 0.930 . S
H188 C176 0.929 . S
H189 C178 0.929 . S
O190 Co165 2.351 1_455 S
O190 C193 1.244 . S
O191 Co165 2.155 . S
O191 C193 1.240 1_655 S
O192 Co165 2.096 . S
O192 C173 1.247 . S
C193 O190 1.244 . S
C193 O191 1.240 1_455 S
H194 C168 0.931 . S
H195 C177 0.931 . S
H196 C181 0.929 . S
H197 C183 0.930 . S
Co198 N202 2.148 . S
Co198 N208 2.128 . S
Co198 N218 2.194 . S
Co198 O223 2.351 . S
Co198 O224 2.155 . S
Co198 O225 2.096 . S
C199 N202 1.301 . S
C199 N203 1.328 . S
C199 H204 0.930 . S
C200 C201 1.333 . S
C200 N202 1.317 . S
C200 H205 0.930 . S
C201 C200 1.333 . S
C201 N203 1.350 . S
C201 H227 0.931 . S
N202 Co198 2.148 . S
N202 C199 1.301 . S
N202 C200 1.317 . S
N203 C199 1.328 . S
N203 C201 1.350 . S
H204 C199 0.930 . S
H205 C200 0.930 . S
C206 O207 1.224 . S
C206 O225 1.247 . S
O207 C206 1.224 . S
N208 Co198 2.128 . S
N208 C209 1.355 . S
N208 C211 1.311 . S
C209 N208 1.355 . S
C209 C210 1.363 . S
C209 H221 0.929 . S
C210 C209 1.363 . S
C210 N212 1.375 . S
C210 H228 0.931 . S
C211 N208 1.311 . S
C211 N212 1.347 . S
C211 H222 0.929 . S
N212 C210 1.375 . S
N212 C211 1.347 . S
C213 C216 1.365 . S
C213 N218 1.328 . S
C213 H219 0.929 . S
C214 C215 1.362 . S
C214 C217 1.378 . S
C214 H229 0.929 . S
C215 C214 1.362 . S
C215 C216 1.366 . S
C216 C213 1.365 . S
C216 C215 1.366 . S
C216 H230 0.930 . S
C217 C214 1.378 . S
C217 N218 1.315 . S
C217 H220 0.930 . S
N218 Co198 2.194 . S
N218 C213 1.328 . S
N218 C217 1.315 . S
H219 C213 0.929 . S
H220 C217 0.930 . S
H221 C209 0.929 . S
H222 C211 0.929 . S
O223 Co198 2.351 . S
O223 C226 1.244 . S
O224 Co198 2.155 . S
O224 C226 1.240 . S
O225 Co198 2.096 . S
O225 C206 1.247 . S
C226 O223 1.244 . S
C226 O224 1.240 . S
H227 C201 0.931 . S
H228 C210 0.931 . S
H229 C214 0.929 . S
H230 C216 0.930 . S
Co231 N235 2.148 . S
Co231 N241 2.128 1_655 S
Co231 N251 2.194 1_655 S
Co231 O256 2.351 1_655 S
Co231 O257 2.155 . S
Co231 O258 2.096 . S
C232 N235 1.301 1_455 S
C232 N236 1.328 1_455 S
C232 H237 0.930 . S
C233 C234 1.333 . S
C233 N235 1.317 . S
C233 H238 0.930 . S
C234 C233 1.333 . S
C234 N236 1.350 . S
C234 H260 0.931 . S
N235 Co231 2.148 . S
N235 C232 1.301 1_655 S
N235 C233 1.317 . S
N236 C232 1.328 1_655 S
N236 C234 1.350 . S
H237 C232 0.930 . S
H238 C233 0.930 . S
C239 O240 1.224 . S
C239 O258 1.247 . S
O240 C239 1.224 . S
N241 Co231 2.128 1_455 S
N241 C242 1.355 . S
N241 C244 1.311 1_455 S
C242 N241 1.355 . S
C242 C243 1.363 . S
C242 H254 0.929 . S
C243 C242 1.363 . S
C243 N245 1.375 1_455 S
C243 H261 0.931 . S
C244 N241 1.311 1_655 S
C244 N245 1.347 . S
C244 H255 0.929 . S
N245 C243 1.375 1_655 S
N245 C244 1.347 . S
C246 C249 1.365 . S
C246 N251 1.328 . S
C246 H252 0.929 . S
C247 C248 1.362 . S
C247 C250 1.378 . S
C247 H262 0.929 . S
C248 C247 1.362 . S
C248 C249 1.366 . S
C249 C246 1.365 . S
C249 C248 1.366 . S
C249 H263 0.930 . S
C250 C247 1.378 . S
C250 N251 1.315 . S
C250 H253 0.930 . S
N251 Co231 2.194 1_455 S
N251 C246 1.328 . S
N251 C250 1.315 . S
H252 C246 0.929 . S
H253 C250 0.930 . S
H254 C242 0.929 . S
H255 C244 0.929 . S
O256 Co231 2.351 1_455 S
O256 C259 1.244 . S
O257 Co231 2.155 . S
O257 C259 1.240 1_655 S
O258 Co231 2.096 . S
O258 C239 1.247 . S
C259 O256 1.244 . S
C259 O257 1.240 1_455 S
H260 C234 0.931 . S
H261 C243 0.931 . S
H262 C247 0.929 . S
H263 C249 0.930 . S
C264 C265 1.349 . S
C264 C266 1.327 . S
C264 H289 0.950 . S
C265 C264 1.349 . S
C265 C281 1.349 . S
C266 C264 1.327 . S
C266 C285 1.429 . S
C266 H290 0.950 . S
C267 C284 1.574 . S
C267 C286 1.368 1_554 S
C267 H291 0.949 . S
H268 C272 0.949 . S
C269 C270 1.349 . S
C269 C271 1.327 . S
C269 H292 0.950 . S
C270 C269 1.349 . S
C270 C282 1.349 . S
C271 C269 1.327 . S
C271 C287 1.429 . S
C271 H293 0.950 . S
C272 H268 0.949 . S
C272 C280 1.574 1_554 S
C272 C288 1.368 . S
H273 C281 0.950 . S
H274 C279 0.950 . S
H275 C280 0.949 . S
H276 C282 0.950 . S
H277 C283 0.950 . S
H278 C284 0.949 . S
C279 H274 0.950 . S
C279 C281 1.327 . S
C279 C285 1.429 . S
C280 C272 1.574 1_556 S
C280 H275 0.949 . S
C280 C286 1.368 . S
C281 C265 1.349 . S
C281 H273 0.950 . S
C281 C279 1.327 . S
C282 C270 1.349 . S
C282 H276 0.950 . S
C282 C283 1.327 . S
C283 H277 0.950 . S
C283 C282 1.327 . S
C283 C287 1.429 . S
C284 C267 1.574 . S
C284 H278 0.949 . S
C284 C288 1.368 . S
C285 C266 1.429 . S
C285 C279 1.429 . S
C285 C286 1.523 . S
C286 C267 1.368 1_556 S
C286 C280 1.368 . S
C286 C285 1.523 . S
C287 C271 1.429 . S
C287 C283 1.429 . S
C287 C288 1.523 . S
C288 C272 1.368 . S
C288 C284 1.368 . S
C288 C287 1.523 . S
H289 C264 0.950 . S
H290 C266 0.950 . S
H291 C267 0.949 . S
H292 C269 0.950 . S
H293 C271 0.950 . S
C294 C295 1.349 . S
C294 C296 1.327 . S
C294 H319 0.950 . S
C295 C294 1.349 . S
C295 C311 1.349 . S
C296 C294 1.327 . S
C296 C315 1.429 . S
C296 H320 0.950 . S
C297 C314 1.574 . S
C297 C316 1.368 . S
C297 H321 0.949 . S
H298 C302 0.949 . S
C299 C300 1.349 . S
C299 C301 1.327 . S
C299 H322 0.950 . S
C300 C299 1.349 . S
C300 C312 1.349 . S
C301 C299 1.327 . S
C301 C317 1.429 . S
C301 H323 0.950 . S
C302 H298 0.949 . S
C302 C310 1.574 . S
C302 C318 1.368 . S
H303 C311 0.950 . S
H304 C309 0.950 . S
H305 C310 0.949 . S
H306 C312 0.950 . S
H307 C313 0.950 . S
H308 C314 0.949 . S
C309 H304 0.950 . S
C309 C311 1.327 . S
C309 C315 1.429 . S
C310 C302 1.574 . S
C310 H305 0.949 . S
C310 C316 1.368 . S
C311 C295 1.349 . S
C311 H303 0.950 . S
C311 C309 1.327 . S
C312 C300 1.349 . S
C312 H306 0.950 . S
C312 C313 1.327 . S
C313 H307 0.950 . S
C313 C312 1.327 . S
C313 C317 1.429 . S
C314 C297 1.574 . S
C314 H308 0.949 . S
C314 C318 1.368 . S
C315 C296 1.429 . S
C315 C309 1.429 . S
C315 C316 1.523 . S
C316 C297 1.368 . S
C316 C310 1.368 . S
C316 C315 1.523 . S
C317 C301 1.429 . S
C317 C313 1.429 . S
C317 C318 1.523 . S
C318 C302 1.368 . S
C318 C314 1.368 . S
C318 C317 1.523 . S
H319 C294 0.950 . S
H320 C296 0.950 . S
H321 C297 0.949 . S
H322 C299 0.950 . S
H323 C301 0.950 . S
C324 C325 1.349 . S
C324 C326 1.327 . S
C324 H349 0.950 . S
C325 C324 1.349 . S
C325 C341 1.349 . S
C326 C324 1.327 . S
C326 C345 1.429 . S
C326 H350 0.950 . S
C327 C344 1.549 1_554 S
C327 C346 1.368 . S
C327 H351 0.949 . S
H328 C332 0.949 . S
C329 C330 1.349 . S
C329 C331 1.327 . S
C329 H352 0.950 . S
C330 C329 1.349 . S
C330 C342 1.349 . S
C331 C329 1.327 . S
C331 C347 1.429 . S
C331 H353 0.950 . S
C332 H328 0.949 . S
C332 C340 1.574 . S
C332 C348 1.368 . S
H333 C341 0.950 . S
H334 C339 0.950 . S
H335 C340 0.949 . S
H336 C342 0.950 . S
H337 C343 0.950 . S
H338 C344 0.948 . S
C339 H334 0.950 . S
C339 C341 1.327 . S
C339 C345 1.429 . S
C340 C332 1.574 . S
C340 H335 0.949 . S
C340 C346 1.368 1_556 S
C341 C325 1.349 . S
C341 H333 0.950 . S
C341 C339 1.327 . S
C342 C330 1.349 . S
C342 H336 0.950 . S
C342 C343 1.327 . S
C343 H337 0.950 . S
C343 C342 1.327 . S
C343 C347 1.429 . S
C344 C327 1.549 1_556 S
C344 H338 0.948 . S
C344 C348 1.395 . S
C345 C326 1.429 . S
C345 C339 1.429 . S
C345 C346 1.523 . S
C346 C327 1.368 . S
C346 C340 1.368 1_554 S
C346 C345 1.523 . S
C347 C331 1.429 . S
C347 C343 1.429 . S
C347 C348 1.523 . S
C348 C332 1.368 . S
C348 C344 1.395 . S
C348 C347 1.523 . S
H349 C324 0.950 . S
H350 C326 0.950 . S
H351 C327 0.949 . S
H352 C329 0.950 . S
H353 C331 0.950 . S
C354 C355 1.349 . S
C354 C356 1.327 . S
C354 H379 0.950 . S
C355 C354 1.349 . S
C355 C371 1.349 . S
C356 C354 1.327 . S
C356 C375 1.429 . S
C356 H380 0.950 . S
C357 C374 1.574 . S
C357 C376 1.368 . S
C357 H381 0.949 . S
H358 C362 0.949 . S
C359 C360 1.349 . S
C359 C361 1.327 . S
C359 H382 0.950 . S
C360 C359 1.349 . S
C360 C372 1.349 . S
C361 C359 1.327 . S
C361 C377 1.429 . S
C361 H383 0.950 . S
C362 H358 0.949 . S
C362 C370 1.574 . S
C362 C378 1.368 . S
H363 C371 0.950 . S
H364 C369 0.950 . S
H365 C370 0.949 . S
H366 C372 0.950 . S
H367 C373 0.950 . S
H368 C374 0.949 . S
C369 H364 0.950 . S
C369 C371 1.327 . S
C369 C375 1.429 . S
C370 C362 1.574 . S
C370 H365 0.949 . S
C370 C376 1.368 . S
C371 C355 1.349 . S
C371 H363 0.950 . S
C371 C369 1.327 . S
C372 C360 1.349 . S
C372 H366 0.950 . S
C372 C373 1.327 . S
C373 H367 0.950 . S
C373 C372 1.327 . S
C373 C377 1.429 . S
C374 C357 1.574 . S
C374 H368 0.949 . S
C374 C378 1.368 . S
C375 C356 1.429 . S
C375 C369 1.429 . S
C375 C376 1.523 . S
C376 C357 1.368 . S
C376 C370 1.368 . S
C376 C375 1.523 . S
C377 C361 1.429 . S
C377 C373 1.429 . S
C377 C378 1.523 . S
C378 C362 1.368 . S
C378 C374 1.368 . S
C378 C377 1.523 . S
H379 C354 0.950 . S
H380 C356 0.950 . S
H381 C357 0.949 . S
H382 C359 0.950 . S
H383 C361 0.950 . S
C384 C385 1.349 . S
C384 C386 1.327 . S
C384 H409 0.950 . S
C385 C384 1.349 . S
C385 C401 1.349 . S
C386 C384 1.327 . S
C386 C405 1.429 . S
C386 H410 0.950 . S
C387 C404 1.574 . S
C387 C406 1.368 . S
C387 H411 0.949 . S
H388 C392 0.949 . S
C389 C390 1.349 . S
C389 C391 1.327 . S
C389 H412 0.950 . S
C390 C389 1.349 . S
C390 C402 1.349 . S
C391 C389 1.327 . S
C391 C407 1.429 . S
C391 H413 0.950 . S
C392 H388 0.949 . S
C392 C400 1.574 . S
C392 C408 1.368 . S
H393 C401 0.950 . S
H394 C399 0.950 . S
H395 C400 0.949 . S
H396 C402 0.950 . S
H397 C403 0.950 . S
H398 C404 0.949 . S
C399 H394 0.950 . S
C399 C401 1.327 . S
C399 C405 1.429 . S
C400 C392 1.574 . S
C400 H395 0.949 . S
C400 C406 1.368 1_556 S
C401 C385 1.349 . S
C401 H393 0.950 . S
C401 C399 1.327 . S
C402 C390 1.349 . S
C402 H396 0.950 . S
C402 C403 1.327 . S
C403 H397 0.950 . S
C403 C402 1.327 . S
C403 C407 1.429 . S
C404 C387 1.574 . S
C404 H398 0.949 . S
C404 C408 1.368 1_554 S
C405 C386 1.429 . S
C405 C399 1.429 . S
C405 C406 1.523 . S
C406 C387 1.368 . S
C406 C400 1.368 1_554 S
C406 C405 1.523 . S
C407 C391 1.429 . S
C407 C403 1.429 . S
C407 C408 1.523 . S
C408 C392 1.368 . S
C408 C404 1.368 1_556 S
C408 C407 1.523 . S
H409 C384 0.950 . S
H410 C386 0.950 . S
H411 C387 0.949 . S
H412 C389 0.950 . S
H413 C391 0.950 . S
C414 C415 1.349 . S
C414 C416 1.327 . S
C414 H439 0.950 . S
C415 C414 1.349 . S
C415 C431 1.349 . S
C416 C414 1.327 . S
C416 C435 1.429 . S
C416 H440 0.950 . S
C417 C434 1.574 . S
C417 C436 1.368 . S
C417 H441 0.949 . S
H418 C422 0.949 . S
C419 C420 1.349 . S
C419 C421 1.327 . S
C419 H442 0.950 . S
C420 C419 1.349 . S
C420 C432 1.349 . S
C421 C419 1.327 . S
C421 C437 1.429 . S
C421 H443 0.950 . S
C422 H418 0.949 . S
C422 C430 1.574 . S
C422 C438 1.368 . S
H423 C431 0.950 . S
H424 C429 0.950 . S
H425 C430 0.949 . S
H426 C432 0.950 . S
H427 C433 0.950 . S
H428 C434 0.949 . S
C429 H424 0.950 . S
C429 C431 1.327 . S
C429 C435 1.429 . S
C430 C422 1.574 . S
C430 H425 0.949 . S
C430 C436 1.368 . S
C431 C415 1.349 . S
C431 H423 0.950 . S
C431 C429 1.327 . S
C432 C420 1.349 . S
C432 H426 0.950 . S
C432 C433 1.327 . S
C433 H427 0.950 . S
C433 C432 1.327 . S
C433 C437 1.429 . S
C434 C417 1.574 . S
C434 H428 0.949 . S
C434 C438 1.368 . S
C435 C416 1.429 . S
C435 C429 1.429 . S
C435 C436 1.523 . S
C436 C417 1.368 . S
C436 C430 1.368 . S
C436 C435 1.523 . S
C437 C421 1.429 . S
C437 C433 1.429 . S
C437 C438 1.523 . S
C438 C422 1.368 . S
C438 C434 1.368 . S
C438 C437 1.523 . S
H439 C414 0.950 . S
H440 C416 0.950 . S
H441 C417 0.949 . S
H442 C419 0.950 . S
H443 C421 0.950 . S
C444 C445 1.349 . S
C444 C446 1.327 . S
C444 H469 0.950 . S
C445 C444 1.349 . S
C445 C461 1.349 . S
C446 C444 1.327 . S
C446 C465 1.429 . S
C446 H470 0.950 . S
C447 C464 1.562 1_554 S
C447 C466 1.368 . S
C447 H471 0.949 . S
H448 C452 0.949 . S
C449 C450 1.349 . S
C449 C451 1.327 . S
C449 H472 0.950 . S
C450 C449 1.349 . S
C450 C462 1.349 . S
C451 C449 1.327 . S
C451 C467 1.429 . S
C451 H473 0.950 . S
C452 H448 0.949 . S
C452 C460 1.574 . S
C452 C468 1.368 . S
H453 C461 0.950 . S
H454 C459 0.950 . S
H455 C460 0.949 . S
H456 C462 0.950 . S
H457 C463 0.950 . S
H458 C464 0.948 1_554 S
C459 H454 0.950 . S
C459 C461 1.327 . S
C459 C465 1.429 . S
C460 C452 1.574 . S
C460 H455 0.949 . S
C460 C466 1.368 1_556 S
C461 C445 1.349 . S
C461 H453 0.950 . S
C461 C459 1.327 . S
C462 C450 1.349 . S
C462 H456 0.950 . S
C462 C463 1.327 . S
C463 H457 0.950 . S
C463 C462 1.327 . S
C463 C467 1.429 . S
C464 C447 1.562 1_556 S
C464 H458 0.948 1_556 S
C464 C468 1.382 . S
C465 C446 1.429 . S
C465 C459 1.429 . S
C465 C466 1.523 . S
C466 C447 1.368 . S
C466 C460 1.368 1_554 S
C466 C465 1.523 . S
C467 C451 1.429 . S
C467 C463 1.429 . S
C467 C468 1.523 . S
C468 C452 1.368 . S
C468 C464 1.382 . S
C468 C467 1.523 . S
H469 C444 0.950 . S
H470 C446 0.950 . S
H471 C447 0.949 . S
H472 C449 0.950 . S
H473 C451 0.950 . S
C474 C475 1.349 . S
C474 C476 1.327 . S
C474 H499 0.950 . S
C475 C474 1.349 . S
C475 C491 1.349 . S
C476 C474 1.327 . S
C476 C495 1.429 . S
C476 H500 0.950 . S
C477 C494 1.574 . S
C477 C496 1.368 . S
C477 H501 0.949 . S
H478 C482 0.949 . S
C479 C480 1.349 . S
C479 C481 1.327 . S
C479 H502 0.950 . S
C480 C479 1.349 . S
C480 C492 1.349 . S
C481 C479 1.327 . S
C481 C497 1.429 . S
C481 H503 0.950 . S
C482 H478 0.949 . S
C482 C490 1.574 . S
C482 C498 1.368 . S
H483 C491 0.950 . S
H484 C489 0.950 . S
H485 C490 0.949 . S
H486 C492 0.950 . S
H487 C493 0.950 . S
H488 C494 0.949 . S
C489 H484 0.950 . S
C489 C491 1.327 . S
C489 C495 1.429 . S
C490 C482 1.574 . S
C490 H485 0.949 . S
C490 C496 1.368 . S
C491 C475 1.349 . S
C491 H483 0.950 . S
C491 C489 1.327 . S
C492 C480 1.349 . S
C492 H486 0.950 . S
C492 C493 1.327 . S
C493 H487 0.950 . S
C493 C492 1.327 . S
C493 C497 1.429 . S
C494 C477 1.574 . S
C494 H488 0.949 . S
C494 C498 1.368 . S
C495 C476 1.429 . S
C495 C489 1.429 . S
C495 C496 1.523 . S
C496 C477 1.368 . S
C496 C490 1.368 . S
C496 C495 1.523 . S
C497 C481 1.429 . S
C497 C493 1.429 . S
C497 C498 1.523 . S
C498 C482 1.368 . S
C498 C494 1.368 . S
C498 C497 1.523 . S
H499 C474 0.950 . S
H500 C476 0.950 . S
H501 C477 0.949 . S
H502 C479 0.950 . S
H503 C481 0.950 . S
C504 C505 1.349 . S
C504 C506 1.327 . S
C504 H529 0.950 . S
C505 C504 1.349 . S
C505 C521 1.349 1_455 S
C506 C504 1.327 . S
C506 C525 1.429 . S
C506 H530 0.950 . S
C507 C524 1.574 . S
C507 C526 1.368 1_655 S
C507 H531 0.949 . S
H508 C512 0.949 . S
C509 C510 1.349 1_655 S
C509 C511 1.327 . S
C509 H532 0.950 . S
C510 C509 1.349 1_455 S
C510 C522 1.349 . S
C511 C509 1.327 . S
C511 C527 1.429 1_655 S
C511 H533 0.950 . S
C512 H508 0.949 . S
C512 C520 1.574 . S
C512 C528 1.368 . S
H513 C521 0.950 . S
H514 C519 0.950 . S
H515 C520 0.949 . S
H516 C522 0.950 . S
H517 C523 0.950 . S
H518 C524 0.949 . S
C519 H514 0.950 . S
C519 C521 1.327 . S
C519 C525 1.429 1_655 S
C520 C512 1.574 . S
C520 H515 0.949 . S
C520 C526 1.368 . S
C521 C505 1.349 1_655 S
C521 H513 0.950 . S
C521 C519 1.327 . S
C522 C510 1.349 . S
C522 H516 0.950 . S
C522 C523 1.327 . S
C523 H517 0.950 . S
C523 C522 1.327 . S
C523 C527 1.429 . S
C524 C507 1.574 . S
C524 H518 0.949 . S
C524 C528 1.368 1_655 S
C525 C506 1.429 . S
C525 C519 1.429 1_455 S
C525 C526 1.523 . S
C526 C507 1.368 1_455 S
C526 C520 1.368 . S
C526 C525 1.523 . S
C527 C511 1.429 1_455 S
C527 C523 1.429 . S
C527 C528 1.523 . S
C528 C512 1.368 . S
C528 C524 1.368 1_455 S
C528 C527 1.523 . S
H529 C504 0.950 . S
H530 C506 0.950 . S
H531 C507 0.949 . S
H532 C509 0.950 . S
H533 C511 0.950 . S
C534 C535 1.349 . S
C534 C536 1.327 . S
C534 H559 0.950 . S
C535 C534 1.349 . S
C535 C551 1.349 . S
C536 C534 1.327 . S
C536 C555 1.429 . S
C536 H560 0.950 . S
C537 C554 1.574 . S
C537 C556 1.368 . S
C537 H561 0.949 . S
H538 C542 0.949 . S
C539 C540 1.349 . S
C539 C541 1.327 . S
C539 H562 0.950 . S
C540 C539 1.349 . S
C540 C552 1.349 . S
C541 C539 1.327 . S
C541 C557 1.429 . S
C541 H563 0.950 . S
C542 H538 0.949 . S
C542 C550 1.574 . S
C542 C558 1.368 . S
H543 C551 0.950 . S
H544 C549 0.950 . S
H545 C550 0.949 . S
H546 C552 0.950 . S
H547 C553 0.950 . S
H548 C554 0.949 . S
C549 H544 0.950 . S
C549 C551 1.327 . S
C549 C555 1.429 . S
C550 C542 1.574 . S
C550 H545 0.949 . S
C550 C556 1.368 . S
C551 C535 1.349 . S
C551 H543 0.950 . S
C551 C549 1.327 . S
C552 C540 1.349 . S
C552 H546 0.950 . S
C552 C553 1.327 . S
C553 H547 0.950 . S
C553 C552 1.327 . S
C553 C557 1.429 . S
C554 C537 1.574 . S
C554 H548 0.949 . S
C554 C558 1.368 . S
C555 C536 1.429 . S
C555 C549 1.429 . S
C555 C556 1.523 . S
C556 C537 1.368 . S
C556 C550 1.368 . S
C556 C555 1.523 . S
C557 C541 1.429 . S
C557 C553 1.429 . S
C557 C558 1.523 . S
C558 C542 1.368 . S
C558 C554 1.368 . S
C558 C557 1.523 . S
H559 C534 0.950 . S
H560 C536 0.950 . S
H561 C537 0.949 . S
H562 C539 0.950 . S
H563 C541 0.950 . S
C564 C565 1.349 1_655 S
C564 C566 1.327 . S
C564 H589 0.950 . S
C565 C564 1.349 1_455 S
C565 C581 1.349 . S
C566 C564 1.327 . S
C566 C585 1.429 1_655 S
C566 H590 0.950 . S
C567 C584 1.574 . S
C567 C586 1.368 . S
C567 H591 0.949 . S
H568 C572 0.949 . S
C569 C570 1.349 . S
C569 C571 1.327 . S
C569 H592 0.950 . S
C570 C569 1.349 . S
C570 C582 1.349 1_455 S
C571 C569 1.327 . S
C571 C587 1.429 . S
C571 H593 0.950 . S
C572 H568 0.949 . S
C572 C580 1.574 . S
C572 C588 1.368 1_655 S
H573 C581 0.950 . S
H574 C579 0.950 . S
H575 C580 0.949 . S
H576 C582 0.950 . S
H577 C583 0.950 . S
H578 C584 0.949 . S
C579 H574 0.950 . S
C579 C581 1.327 . S
C579 C585 1.429 . S
C580 C572 1.574 . S
C580 H575 0.949 . S
C580 C586 1.368 1_655 S
C581 C565 1.349 . S
C581 H573 0.950 . S
C581 C579 1.327 . S
C582 C570 1.349 1_655 S
C582 H576 0.950 . S
C582 C583 1.327 . S
C583 H577 0.950 . S
C583 C582 1.327 . S
C583 C587 1.429 1_655 S
C584 C567 1.574 . S
C584 H578 0.949 . S
C584 C588 1.368 . S
C585 C566 1.429 1_455 S
C585 C579 1.429 . S
C585 C586 1.523 . S
C586 C567 1.368 . S
C586 C580 1.368 1_455 S
C586 C585 1.523 . S
C587 C571 1.429 . S
C587 C583 1.429 1_455 S
C587 C588 1.523 . S
C588 C572 1.368 1_455 S
C588 C584 1.368 . S
C588 C587 1.523 . S
H589 C564 0.950 . S
H590 C566 0.950 . S
H591 C567 0.949 . S
H592 C569 0.950 . S
H593 C571 0.950 . S
C594 C595 1.349 . S
C594 C596 1.327 . S
C594 H619 0.950 . S
C595 C594 1.349 . S
C595 C611 1.349 . S
C596 C594 1.327 . S
C596 C615 1.429 . S
C596 H620 0.950 . S
C597 C614 1.574 . S
C597 C616 1.368 . S
C597 H621 0.949 . S
H598 C602 0.949 . S
C599 C600 1.349 . S
C599 C601 1.327 . S
C599 H622 0.950 . S
C600 C599 1.349 . S
C600 C612 1.349 . S
C601 C599 1.327 . S
C601 C617 1.429 . S
C601 H623 0.950 . S
C602 H598 0.949 . S
C602 C610 1.574 . S
C602 C618 1.368 . S
H603 C611 0.950 . S
H604 C609 0.950 . S
H605 C610 0.949 . S
H606 C612 0.950 . S
H607 C613 0.950 . S
H608 C614 0.949 . S
C609 H604 0.950 . S
C609 C611 1.327 . S
C609 C615 1.429 . S
C610 C602 1.574 . S
C610 H605 0.949 . S
C610 C616 1.368 . S
C611 C595 1.349 . S
C611 H603 0.950 . S
C611 C609 1.327 . S
C612 C600 1.349 . S
C612 H606 0.950 . S
C612 C613 1.327 . S
C613 H607 0.950 . S
C613 C612 1.327 . S
C613 C617 1.429 . S
C614 C597 1.574 . S
C614 H608 0.949 . S
C614 C618 1.368 . S
C615 C596 1.429 . S
C615 C609 1.429 . S
C615 C616 1.523 . S
C616 C597 1.368 . S
C616 C610 1.368 . S
C616 C615 1.523 . S
C617 C601 1.429 . S
C617 C613 1.429 . S
C617 C618 1.523 . S
C618 C602 1.368 . S
C618 C614 1.368 . S
C618 C617 1.523 . S
H619 C594 0.950 . S
H620 C596 0.950 . S
H621 C597 0.949 . S
H622 C599 0.950 . S
H623 C601 0.950 . S
C624 C625 1.349 . S
C624 C626 1.327 . S
C624 H649 0.950 . S
C625 C624 1.349 . S
C625 C641 1.349 . S
C626 C624 1.327 . S
C626 C645 1.429 . S
C626 H650 0.950 . S
C627 C644 1.574 . S
C627 C646 1.368 1_545 S
C627 H651 0.949 . S
H628 C632 0.949 . S
C629 C630 1.349 . S
C629 C631 1.327 . S
C629 H652 0.950 . S
C630 C629 1.349 . S
C630 C642 1.349 . S
C631 C629 1.327 . S
C631 C647 1.429 . S
C631 H653 0.950 . S
C632 H628 0.949 . S
C632 C640 1.574 . S
C632 C648 1.368 1_565 S
H633 C641 0.950 . S
H634 C639 0.950 . S
H635 C640 0.949 . S
H636 C642 0.950 . S
H637 C643 0.950 . S
H638 C644 0.949 . S
C639 H634 0.950 . S
C639 C641 1.327 . S
C639 C645 1.429 . S
C640 C632 1.574 . S
C640 H635 0.949 . S
C640 C646 1.368 . S
C641 C625 1.349 . S
C641 H633 0.950 . S
C641 C639 1.327 . S
C642 C630 1.349 . S
C642 H636 0.950 . S
C642 C643 1.327 . S
C643 H637 0.950 . S
C643 C642 1.327 . S
C643 C647 1.429 . S
C644 C627 1.574 . S
C644 H638 0.949 . S
C644 C648 1.368 . S
C645 C626 1.429 . S
C645 C639 1.429 . S
C645 C646 1.523 . S
C646 C627 1.368 1_565 S
C646 C640 1.368 . S
C646 C645 1.523 . S
C647 C631 1.429 . S
C647 C643 1.429 . S
C647 C648 1.523 . S
C648 C632 1.368 1_545 S
C648 C644 1.368 . S
C648 C647 1.523 . S
H649 C624 0.950 . S
H650 C626 0.950 . S
H651 C627 0.949 . S
H652 C629 0.950 . S
H653 C631 0.950 . S
C654 C655 1.349 . S
C654 C656 1.327 . S
C654 H679 0.950 . S
C655 C654 1.349 . S
C655 C671 1.349 1_455 S
C656 C654 1.327 . S
C656 C675 1.429 . S
C656 H680 0.950 . S
C657 C674 1.574 . S
C657 C676 1.368 1_655 S
C657 H681 0.949 . S
H658 C662 0.949 . S
C659 C660 1.349 1_655 S
C659 C661 1.327 . S
C659 H682 0.950 . S
C660 C659 1.349 1_455 S
C660 C672 1.349 . S
C661 C659 1.327 . S
C661 C677 1.429 1_655 S
C661 H683 0.950 . S
C662 H658 0.949 . S
C662 C670 1.574 . S
C662 C678 1.368 . S
H663 C671 0.950 . S
H664 C669 0.950 . S
H665 C670 0.949 . S
H666 C672 0.950 . S
H667 C673 0.950 . S
H668 C674 0.949 . S
C669 H664 0.950 . S
C669 C671 1.327 . S
C669 C675 1.429 1_655 S
C670 C662 1.574 . S
C670 H665 0.949 . S
C670 C676 1.368 1_545 S
C671 C655 1.349 1_655 S
C671 H663 0.950 . S
C671 C669 1.327 . S
C672 C660 1.349 . S
C672 H666 0.950 . S
C672 C673 1.327 . S
C673 H667 0.950 . S
C673 C672 1.327 . S
C673 C677 1.429 . S
C674 C657 1.574 . S
C674 H668 0.949 . S
C674 C678 1.368 1_665 S
C675 C656 1.429 . S
C675 C669 1.429 1_455 S
C675 C676 1.523 . S
C676 C657 1.368 1_455 S
C676 C670 1.368 1_565 S
C676 C675 1.523 . S
C677 C661 1.429 1_455 S
C677 C673 1.429 . S
C677 C678 1.523 . S
C678 C662 1.368 . S
C678 C674 1.368 1_445 S
C678 C677 1.523 . S
H679 C654 0.950 . S
H680 C656 0.950 . S
H681 C657 0.949 . S
H682 C659 0.950 . S
H683 C661 0.950 . S
C684 C685 1.349 . S
C684 C686 1.327 . S
C684 H709 0.950 . S
C685 C684 1.349 . S
C685 C701 1.349 . S
C686 C684 1.327 . S
C686 C705 1.429 . S
C686 H710 0.950 . S
C687 C704 1.574 1_565 S
C687 C706 1.368 . S
C687 H711 0.949 . S
H688 C692 0.949 . S
C689 C690 1.349 . S
C689 C691 1.327 . S
C689 H712 0.950 . S
C690 C689 1.349 . S
C690 C702 1.349 . S
C691 C689 1.327 . S
C691 C707 1.429 . S
C691 H713 0.950 . S
C692 H688 0.949 . S
C692 C700 1.574 . S
C692 C708 1.368 1_565 S
H693 C701 0.950 . S
H694 C699 0.950 . S
H695 C700 0.949 . S
H696 C702 0.950 . S
H697 C703 0.950 . S
H698 C704 0.949 . S
C699 H694 0.950 . S
C699 C701 1.327 . S
C699 C705 1.429 . S
C700 C692 1.574 . S
C700 H695 0.949 . S
C700 C706 1.368 . S
C701 C685 1.349 . S
C701 H693 0.950 . S
C701 C699 1.327 . S
C702 C690 1.349 . S
C702 H696 0.950 . S
C702 C703 1.327 . S
C703 H697 0.950 . S
C703 C702 1.327 . S
C703 C707 1.429 . S
C704 C687 1.574 1_545 S
C704 H698 0.949 . S
C704 C708 1.368 . S
C705 C686 1.429 . S
C705 C699 1.429 . S
C705 C706 1.523 . S
C706 C687 1.368 . S
C706 C700 1.368 . S
C706 C705 1.523 . S
C707 C691 1.429 . S
C707 C703 1.429 . S
C707 C708 1.523 . S
C708 C692 1.368 1_545 S
C708 C704 1.368 . S
C708 C707 1.523 . S
H709 C684 0.950 . S
H710 C686 0.950 . S
H711 C687 0.949 . S
H712 C689 0.950 . S
H713 C691 0.950 . S
C714 C715 1.349 1_655 S
C714 C716 1.327 . S
C714 H739 0.950 . S
C715 C714 1.349 1_455 S
C715 C731 1.349 . S
C716 C714 1.327 . S
C716 C735 1.429 1_655 S
C716 H740 0.950 . S
C717 C734 1.574 . S
C717 C736 1.368 . S
C717 H741 0.949 . S
H718 C722 0.949 . S
C719 C720 1.349 . S
C719 C721 1.327 . S
C719 H742 0.950 . S
C720 C719 1.349 . S
C720 C732 1.349 1_455 S
C721 C719 1.327 . S
C721 C737 1.429 . S
C721 H743 0.950 . S
C722 H718 0.949 . S
C722 C730 1.574 . S
C722 C738 1.368 1_655 S
H723 C731 0.950 . S
H724 C729 0.950 . S
H725 C730 0.949 . S
H726 C732 0.950 . S
H727 C733 0.950 . S
H728 C734 0.949 . S
C729 H724 0.950 . S
C729 C731 1.327 . S
C729 C735 1.429 . S
C730 C722 1.574 . S
C730 H725 0.949 . S
C730 C736 1.368 1_665 S
C731 C715 1.349 . S
C731 H723 0.950 . S
C731 C729 1.327 . S
C732 C720 1.349 1_655 S
C732 H726 0.950 . S
C732 C733 1.327 . S
C733 H727 0.950 . S
C733 C732 1.327 . S
C733 C737 1.429 1_655 S
C734 C717 1.574 . S
C734 H728 0.949 . S
C734 C738 1.368 1_545 S
C735 C716 1.429 1_455 S
C735 C729 1.429 . S
C735 C736 1.523 . S
C736 C717 1.368 . S
C736 C730 1.368 1_445 S
C736 C735 1.523 . S
C737 C721 1.429 . S
C737 C733 1.429 1_455 S
C737 C738 1.523 . S
C738 C722 1.368 1_455 S
C738 C734 1.368 1_565 S
C738 C737 1.523 . S
H739 C714 0.950 . S
H740 C716 0.950 . S
H741 C717 0.949 . S
H742 C719 0.950 . S
H743 C721 0.950 . S
C744 C745 1.349 . S
C744 C746 1.327 . S
C744 H769 0.950 . S
C745 C744 1.349 . S
C745 C761 1.349 . S
C746 C744 1.327 . S
C746 C765 1.429 . S
C746 H770 0.950 . S
C747 C764 1.574 . S
C747 C766 1.368 1_554 S
C747 H771 0.949 1_455 S
H748 C752 0.949 . S
C749 C750 1.349 . S
C749 C751 1.327 . S
C749 H772 0.950 1_455 S
C750 C749 1.349 . S
C750 C762 1.349 . S
C751 C749 1.327 . S
C751 C767 1.429 . S
C751 H773 0.950 1_455 S
C752 H748 0.949 . S
C752 C760 1.574 . S
C752 C768 1.368 1_556 S
H753 C761 0.950 1_655 S
H754 C759 0.950 1_655 S
H755 C760 0.949 . S
H756 C762 0.950 . S
H757 C763 0.950 . S
H758 C764 0.949 1_655 S
C759 H754 0.950 1_455 S
C759 C761 1.327 . S
C759 C765 1.429 . S
C760 C752 1.574 . S
C760 H755 0.949 . S
C760 C766 1.368 . S
C761 C745 1.349 . S
C761 H753 0.950 1_455 S
C761 C759 1.327 . S
C762 C750 1.349 . S
C762 H756 0.950 . S
C762 C763 1.327 . S
C763 H757 0.950 . S
C763 C762 1.327 . S
C763 C767 1.429 . S
C764 C747 1.574 . S
C764 H758 0.949 1_455 S
C764 C768 1.368 . S
C765 C746 1.429 . S
C765 C759 1.429 . S
C765 C766 1.523 . S
C766 C747 1.368 1_556 S
C766 C760 1.368 . S
C766 C765 1.523 . S
C767 C751 1.429 . S
C767 C763 1.429 . S
C767 C768 1.523 . S
C768 C752 1.368 1_554 S
C768 C764 1.368 . S
C768 C767 1.523 . S
H769 C744 0.950 . S
H770 C746 0.950 . S
H771 C747 0.949 1_655 S
H772 C749 0.950 1_655 S
H773 C751 0.950 1_655 S
C774 C775 1.349 . S
C774 C776 1.327 . S
C774 H799 0.950 . S
C775 C774 1.349 . S
C775 C791 1.349 . S
C776 C774 1.327 . S
C776 C795 1.429 . S
C776 H800 0.950 . S
C777 C794 1.574 . S
C777 C796 1.368 . S
C777 H801 0.949 . S
H778 C782 0.949 . S
C779 C780 1.349 . S
C779 C781 1.327 . S
C779 H802 0.950 . S
C780 C779 1.349 . S
C780 C792 1.349 . S
C781 C779 1.327 . S
C781 C797 1.429 . S
C781 H803 0.950 . S
C782 H778 0.949 . S
C782 C790 1.574 . S
C782 C798 1.368 . S
H783 C791 0.950 . S
H784 C789 0.950 . S
H785 C790 0.949 . S
H786 C792 0.950 . S
H787 C793 0.950 . S
H788 C794 0.949 . S
C789 H784 0.950 . S
C789 C791 1.327 . S
C789 C795 1.429 . S
C790 C782 1.574 . S
C790 H785 0.949 . S
C790 C796 1.368 . S
C791 C775 1.349 . S
C791 H783 0.950 . S
C791 C789 1.327 . S
C792 C780 1.349 . S
C792 H786 0.950 . S
C792 C793 1.327 . S
C793 H787 0.950 . S
C793 C792 1.327 . S
C793 C797 1.429 . S
C794 C777 1.574 . S
C794 H788 0.949 . S
C794 C798 1.368 . S
C795 C776 1.429 . S
C795 C789 1.429 . S
C795 C796 1.523 . S
C796 C777 1.368 . S
C796 C790 1.368 . S
C796 C795 1.523 . S
C797 C781 1.429 . S
C797 C793 1.429 . S
C797 C798 1.523 . S
C798 C782 1.368 . S
C798 C794 1.368 . S
C798 C797 1.523 . S
H799 C774 0.950 . S
H800 C776 0.950 . S
H801 C777 0.949 . S
H802 C779 0.950 . S
H803 C781 0.950 . S
C804 C805 1.349 . S
C804 C806 1.327 . S
C804 H829 0.950 . S
C805 C804 1.349 . S
C805 C821 1.349 . S
C806 C804 1.327 . S
C806 C825 1.429 . S
C806 H830 0.950 . S
C807 C824 1.574 . S
C807 C826 1.368 1_565 S
C807 H831 0.949 . S
H808 C812 0.949 . S
C809 C810 1.349 . S
C809 C811 1.327 . S
C809 H832 0.950 . S
C810 C809 1.349 . S
C810 C822 1.349 . S
C811 C809 1.327 . S
C811 C827 1.429 . S
C811 H833 0.950 . S
C812 H808 0.949 . S
C812 C820 1.574 . S
C812 C828 1.368 1_545 S
H813 C821 0.950 . S
H814 C819 0.950 . S
H815 C820 0.949 . S
H816 C822 0.950 . S
H817 C823 0.950 . S
H818 C824 0.949 . S
C819 H814 0.950 . S
C819 C821 1.327 . S
C819 C825 1.429 . S
C820 C812 1.574 . S
C820 H815 0.949 . S
C820 C826 1.368 1_554 S
C821 C805 1.349 . S
C821 H813 0.950 . S
C821 C819 1.327 . S
C822 C810 1.349 . S
C822 H816 0.950 . S
C822 C823 1.327 . S
C823 H817 0.950 . S
C823 C822 1.327 . S
C823 C827 1.429 . S
C824 C807 1.574 . S
C824 H818 0.949 . S
C824 C828 1.368 1_556 S
C825 C806 1.429 . S
C825 C819 1.429 . S
C825 C826 1.523 . S
C826 C807 1.368 1_545 S
C826 C820 1.368 1_556 S
C826 C825 1.523 . S
C827 C811 1.429 . S
C827 C823 1.429 . S
C827 C828 1.523 . S
C828 C812 1.368 1_565 S
C828 C824 1.368 1_554 S
C828 C827 1.523 . S
H829 C804 0.950 . S
H830 C806 0.950 . S
H831 C807 0.949 . S
H832 C809 0.950 . S
H833 C811 0.950 . S
C834 C835 1.349 . S
C834 C836 1.327 . S
C834 H859 0.950 . S
C835 C834 1.349 . S
C835 C851 1.349 . S
C836 C834 1.327 . S
C836 C855 1.429 . S
C836 H860 0.950 . S
C837 C854 1.574 . S
C837 C856 1.368 . S
C837 H861 0.949 1_655 S
H838 C842 0.949 . S
C839 C840 1.349 . S
C839 C841 1.327 . S
C839 H862 0.950 1_655 S
C840 C839 1.349 . S
C840 C852 1.349 . S
C841 C839 1.327 . S
C841 C857 1.429 . S
C841 H863 0.950 1_655 S
C842 H838 0.949 . S
C842 C850 1.574 . S
C842 C858 1.368 . S
H843 C851 0.950 1_455 S
H844 C849 0.950 1_455 S
H845 C850 0.949 . S
H846 C852 0.950 . S
H847 C853 0.950 . S
H848 C854 0.949 1_455 S
C849 H844 0.950 1_655 S
C849 C851 1.327 . S
C849 C855 1.429 . S
C850 C842 1.574 . S
C850 H845 0.949 . S
C850 C856 1.368 1_545 S
C851 C835 1.349 . S
C851 H843 0.950 1_655 S
C851 C849 1.327 . S
C852 C840 1.349 . S
C852 H846 0.950 . S
C852 C853 1.327 . S
C853 H847 0.950 . S
C853 C852 1.327 . S
C853 C857 1.429 . S
C854 C837 1.574 . S
C854 H848 0.949 1_655 S
C854 C858 1.368 1_565 S
C855 C836 1.429 . S
C855 C849 1.429 . S
C855 C856 1.523 . S
C856 C837 1.368 . S
C856 C850 1.368 1_565 S
C856 C855 1.523 . S
C857 C841 1.429 . S
C857 C853 1.429 . S
C857 C858 1.523 . S
C858 C842 1.368 . S
C858 C854 1.368 1_545 S
C858 C857 1.523 . S
H859 C834 0.950 . S
H860 C836 0.950 . S
H861 C837 0.949 1_455 S
H862 C839 0.950 1_455 S
H863 C841 0.950 1_455 S
C265 C215 1.805 . S
C270 C8 1.806 . S
C295 C41 1.806 . S
C300 C248 1.805 . S
C325 C149 1.805 . S
C330 C74 1.806 . S
C355 C107 1.806 . S
C360 C182 1.805 . S
C385 C140 1.806 . S
C390 C83 1.805 . S
C415 C173 1.806 . S
C420 C116 1.805 . S
C445 C17 1.805 . S
C450 C206 1.806 . S
C475 C50 1.805 . S
C480 C239 1.806 . S
C505 C28 2.032 . S
C510 N236 2.013 1_455 S
C535 C61 2.032 . S
C540 N203 2.013 . S
C565 N170 2.013 1_455 S
C570 C94 2.032 . S
C595 C127 2.032 . S
C600 N137 2.013 . S
C625 C160 2.032 . S
C630 N104 2.013 . S
C655 N71 2.013 . S
C660 C193 2.032 . S
C685 N38 2.013 . S
C690 C226 2.032 . S
C715 N5 2.013 . S
C720 C259 2.032 . S
C745 N80 0.972 . S
C750 N14 0.972 . S
C775 N47 0.972 . S
C780 N113 0.972 . S
C805 N212 0.972 . S
C810 N146 0.972 . S
C835 N245 0.972 . S
C840 N179 0.972 . S
