# Generated by pormake.
# Topology kag, (6)-cn, num edge types: 1
# Building blocks:
#     Node 0, Type 0, BuildingBlock: GEDQOX_clean_sbu_0, # of connection points: 6
#     Node 1, Type 0, BuildingBlock: GEDQOX_clean_sbu_0, # of connection points: 6
#     Node 2, Type 0, BuildingBlock: GEDQOX_clean_sbu_0, # of connection points: 6
#     Edge 3, Type (0, 0), BuildingBlock: XIVTED_clean_linker_0, # of connection points: 2
#     Edge 4, Type (0, 0), BuildingBlock: XIVTED_clean_linker_0, # of connection points: 2
#     Edge 5, Type (0, 0), BuildingBlock: XIVTED_clean_linker_0, # of connection points: 2
#     Edge 6, Type (0, 0), BuildingBlock: XIVTED_clean_linker_0, # of connection points: 2
#     Edge 7, Type (0, 0), BuildingBlock: XIVTED_clean_linker_0, # of connection points: 2
#     Edge 8, Type (0, 0), BuildingBlock: XIVTED_clean_linker_0, # of connection points: 2
#     Edge 9, Type (0, 0), BuildingBlock: XIVTED_clean_linker_0, # of connection points: 2
#     Edge 10, Type (0, 0), BuildingBlock: XIVTED_clean_linker_0, # of connection points: 2
#     Edge 11, Type (0, 0), BuildingBlock: XIVTED_clean_linker_0, # of connection points: 2
# Relax obj value: 0.077
# Max RMSD: 0.200
# Mean RMSD: 0.113
data_MOF--net-kag--node1-GEDQOX_clean_sbu_0--edge1-XIVTED_clean_linker_0
_symmetry_space_group_name_H-M    P1
_symmetry_Int_Tables_number       1
_symmetry_cell_setting            triclinic
loop_
_symmetry_equiv_pos_as_xyz
'x, y, z'
_cell_length_a     49.556127
_cell_length_b     42.345411
_cell_length_c     14.727527
_cell_angle_alpha  94.683802
_cell_angle_beta   88.356391
_cell_angle_gamma 140.78873
loop_
_atom_site_label
_atom_site_type_symbol
_atom_site_fract_x
_atom_site_fract_y
_atom_site_fract_z
_atom_type_partial_charge
Nd0 Nd 0.05241 0.58155 0.02775 0.0
Nd1 Nd 0.05526 0.5144 0.97418 0.0
C2 C 1.03993 0.62775 0.10658 0.0
C3 C 1.0086 0.62511 0.10675 0.0
C4 C 1.0159 0.65877 0.16681 0.0
C5 C 0.98784 0.65893 0.16531 0.0
C6 C 0.95193 0.62541 0.10341 0.0
C7 C 0.94424 0.59089 0.04443 0.0
C8 C 0.97243 0.59079 0.04603 0.0
C9 C 0.05543 0.56971 0.84264 0.0
C10 C 0.96163 0.45973 0.98769 0.0
C11 C 0.06804 0.46793 0.89972 0.0
C12 C 0.09875 0.46939 0.90254 0.0
C13 C 0.14245 0.51317 0.88956 0.0
C14 C 0.17029 0.51253 0.88946 0.0
C15 C 0.15497 0.46816 0.90249 0.0
C16 C 0.11133 0.42476 0.91703 0.0
C17 C 0.08358 0.42538 0.91672 0.0
C18 C 0.05229 0.52667 0.15934 0.0
C19 C 0.14603 0.63637 0.01137 0.0
O20 O 1.02865 0.59159 0.14168 0.0
O21 O 0.06042 0.64084 0.03203 0.0
O22 O 0.07483 0.61142 0.88648 0.0
O23 O 1.0332 0.53511 0.89511 0.0
O24 O 0.98111 0.50257 0.03001 0.0
O25 O 0.98355 0.45652 0.94671 0.0
O26 O 0.07964 0.50404 0.86312 0.0
O27 O 1.04611 0.45412 0.97201 0.0
O28 O 1.03241 0.48473 0.11567 0.0
O29 O 0.07475 0.56111 0.10655 0.0
O30 O 0.12643 0.59333 0.96987 0.0
O31 O 0.12428 0.63974 0.05275 0.0
H32 H 1.04362 0.68537 0.21435 0.0
H33 H 0.99431 0.68535 0.21278 0.0
H34 H 0.91707 0.56484 0.99552 0.0
H35 H 0.96639 0.56454 0.9991 0.0
H36 H 0.15505 0.54773 0.87865 0.0
H37 H 0.20361 0.54651 0.87731 0.0
H38 H 0.09853 0.39021 0.9291 0.0
H39 H 1.05004 0.39123 0.9272 0.0
Nd40 Nd 0.54348 0.07063 0.98801 0.0
Nd41 Nd 0.56485 1.02181 0.01526 0.0
C42 C 0.5323 0.11848 0.93422 0.0
C43 C 0.53929 0.1594 0.95568 0.0
C44 C 0.57386 0.20636 0.9214 0.0
C45 C 0.57675 0.24216 0.93045 0.0
C46 C 0.54485 0.23154 0.97299 0.0
C47 C 0.51107 0.1852 0.00971 0.0
C48 C 0.50827 0.1496 1.00103 0.0
C49 C 0.54557 0.05877 0.16855 0.0
C50 C 0.64419 0.14148 0.01329 0.0
C51 C 0.57654 0.97508 0.07262 0.0
C52 C 0.56445 0.93026 0.06606 0.0
C53 C 0.56655 0.91617 0.14584 0.0
C54 C 0.5617 0.87886 0.14141 0.0
C55 C 0.55462 0.85472 0.05689 0.0
C56 C 0.55059 0.86733 0.97715 0.0
C57 C 0.55562 0.90491 0.98164 0.0
C58 C 0.56387 1.0352 0.83515 0.0
C59 C 0.46422 0.95029 0.98422 0.0
O60 O 0.56451 0.12966 0.91092 0.0
O61 O 0.50546 0.07996 0.98239 0.0
O62 O 0.51983 0.05565 0.13378 0.0
O63 O 0.57155 0.07212 0.11077 0.0
O64 O 0.61693 0.13639 0.97581 0.0
O65 O 0.63056 0.10391 0.05021 0.0
O66 O 0.55099 0.9728 0.11119 0.0
O67 O 0.59595 1.00314 0.00463 0.0
O68 O 0.59 1.039 0.87062 0.0
O69 O 0.53726 1.02086 0.89213 0.0
O70 O 0.49117 0.95488 0.02151 0.0
O71 O 0.47818 0.98847 0.94928 0.0
H72 H 0.59795 0.21485 0.88484 0.0
H73 H 0.60302 0.27731 0.90074 0.0
H74 H 0.48629 0.17606 0.04408 0.0
H75 H 0.48093 0.11369 0.02744 0.0
H76 H 0.57346 0.93533 0.21164 0.0
H77 H 0.56423 0.86949 0.20426 0.0
H78 H 0.54536 0.84968 0.91091 0.0
H79 H 0.55403 0.91527 0.919 0.0
Nd80 Nd 0.50562 0.50278 0.98667 0.0
Nd81 Nd 0.59978 0.58889 0.03363 0.0
C82 C 0.42745 0.44277 0.91915 0.0
C83 C 0.40016 0.44615 0.91105 0.0
C84 C 0.41689 0.48991 0.88583 0.0
C85 C 0.39109 0.4934 0.88281 0.0
C86 C 0.34799 0.4531 0.9046 0.0
C87 C 0.33128 0.40915 0.92892 0.0
C88 C 0.35716 0.40579 0.93221 0.0
C89 C 0.52669 0.5189 0.16931 0.0
C90 C 0.55663 0.61774 0.02714 0.0
C91 C 0.6777 0.64832 0.10172 0.0
C92 C 0.70571 0.64587 0.09859 0.0
C93 C 0.74182 0.67797 0.15874 0.0
C94 C 0.76798 0.6749 0.15759 0.0
C95 C 0.75833 0.63949 0.09633 0.0
C96 C 0.72194 0.60731 0.03618 0.0
C97 C 0.6959 0.61053 0.03727 0.0
C98 C 0.57875 0.57252 0.85077 0.0
C99 C 0.54873 0.47367 0.99403 0.0
O100 O 0.46093 0.47099 0.86964 0.0
O101 O 0.43555 0.44183 1.00184 0.0
O102 O 0.49595 0.47466 0.12545 0.0
O103 O 0.54431 0.55275 0.11775 0.0
O104 O 0.52421 0.57256 0.98353 0.0
O105 O 0.58856 0.63163 0.06643 0.0
O106 O 0.6434 0.61489 0.1475 0.0
O107 O 0.67009 0.65411 0.02448 0.0
O108 O 0.60974 0.61681 0.89429 0.0
O109 O 0.56116 0.53881 0.90266 0.0
O110 O 0.58212 0.51976 0.03328 0.0
O111 O 0.51562 0.45856 0.9587 0.0
H112 H 0.44994 0.5215 0.86876 0.0
H113 H 0.40483 0.52752 0.86268 0.0
H114 H 0.29838 0.37767 0.9472 0.0
H115 H 0.3437 0.37181 0.95235 0.0
H116 H 0.74964 0.7052 0.20699 0.0
H117 H 0.79539 0.69975 0.2057 0.0
H118 H 0.71383 0.58002 0.98747 0.0
H119 H 0.66808 0.5854 0.99026 0.0
H120 H 1.01214 0.4834 0.7361 0.0
H121 H 0.09613 0.6133 0.26568 0.0
H122 H 0.09736 0.63981 0.72086 0.0
H123 H 1.01004 0.45664 0.28125 0.0
H124 H 0.09712 0.62398 0.43232 0.0
H125 H 1.01122 0.47287 0.56953 0.0
C126 C 1.03064 0.51549 0.69764 0.0
C127 C 0.05474 0.56249 0.74225 0.0
C128 C 0.07801 0.58725 0.39932 0.0
C129 C 0.05392 0.55085 0.55166 0.0
C130 C 0.07746 0.58119 0.30423 0.0
C131 C 0.05308 0.53407 0.2597 0.0
C132 C 0.054 0.54587 0.45028 0.0
C133 C 1.02937 0.49367 0.31287 0.0
C134 C 1.03012 0.50951 0.60256 0.0
C135 C 0.07825 0.60287 0.68915 0.0
N136 N 1.03045 0.50049 0.40518 0.0
N137 N 0.07722 0.59614 0.59682 0.0
H138 H 0.49485 1.03722 0.30146 0.0
H139 H 0.61529 0.05776 0.70282 0.0
H140 H 0.60173 0.07151 0.25897 0.0
H141 H 0.50753 1.02189 0.74414 0.0
H142 H 0.61116 0.06344 0.54083 0.0
H143 H 0.49913 1.03164 0.46333 0.0
C144 C 0.51928 1.04362 0.32627 0.0
C145 C 0.54809 0.05504 0.26661 0.0
C146 C 0.58837 0.0543 0.58513 0.0
C147 C 0.55318 0.04864 0.45252 0.0
C148 C 0.59071 0.05106 0.67774 0.0
C149 C 0.5616 1.03915 0.73709 0.0
C150 C 0.55668 1.04566 0.55114 0.0
C151 C 0.53053 1.03101 0.70079 0.0
C152 C 0.5217 1.04041 0.41883 0.0
C153 C 0.57897 0.06278 0.30259 0.0
N154 N 0.52888 1.03438 0.61028 0.0
N155 N 0.58072 0.05949 0.39311 0.0
H156 H 0.51956 0.48262 0.74478 0.0
H157 H 0.58594 0.60868 0.27544 0.0
H158 H 0.61811 0.64214 0.72926 0.0
H159 H 0.48729 0.44913 0.29064 0.0
H160 H 0.59846 0.6218 0.44154 0.0
H161 H 0.50702 0.46942 0.57861 0.0
C162 C 0.5385 0.51484 0.70635 0.0
C163 C 0.56998 0.56354 0.75075 0.0
C164 C 0.57408 0.5839 0.40862 0.0
C165 C 0.55593 0.54883 0.56061 0.0
C166 C 0.56696 0.57643 0.31379 0.0
C167 C 0.53546 0.52775 0.26931 0.0
C168 C 0.54951 0.54237 0.45943 0.0
C169 C 0.51185 0.48731 0.32226 0.0
C170 C 0.53139 0.50733 0.6115 0.0
C171 C 0.59358 0.60395 0.69771 0.0
N172 N 0.5193 0.49549 0.4144 0.0
N173 N 0.58612 0.59571 0.60558 0.0
H174 H 0.13808 0.39251 0.82663 0.0
H175 H 0.36899 0.53363 0.96449 0.0
H176 H 0.23824 0.54027 0.97156 0.0
H177 H 0.2645 0.38131 0.8401 0.0
H178 H 0.32302 0.53859 0.96157 0.0
H179 H 0.1851 0.38931 0.82623 0.0
C180 C 0.16989 0.42424 0.85889 0.0
C181 C 0.18401 0.46661 0.8998 0.0
C182 C 0.31017 0.50409 0.9349 0.0
C183 C 0.23848 0.46344 0.89827 0.0
C184 C 0.33647 0.50132 0.93603 0.0
C185 C 0.3206 0.45693 0.90255 0.0
C186 C 0.26767 0.46226 0.89974 0.0
C187 C 0.27798 0.41606 0.86772 0.0
C188 C 0.19686 0.42248 0.85813 0.0
C189 C 0.22602 0.507 0.93854 0.0
N190 N 0.25307 0.41973 0.86717 0.0
N191 N 0.25172 0.50438 0.93698 0.0
H192 H 0.70817 0.15687 0.03807 0.0
H193 H 0.90269 0.45331 0.02313 0.0
H194 H 0.68686 0.23512 0.98399 0.0
H195 H 0.91294 0.36198 0.95373 0.0
H196 H 0.82489 0.37646 0.02895 0.0
H197 H 0.78491 0.23466 0.02968 0.0
C198 C 0.71961 0.1905 0.02506 0.0
C199 C 0.69093 0.18939 0.01176 0.0
C200 C 0.84427 0.37343 0.01203 0.0
C201 C 0.77911 0.27889 1.00237 0.0
C202 C 0.88863 0.41719 0.00891 0.0
C203 C 0.91441 0.4141 0.98775 0.0
C204 C 0.82574 0.32635 0.99584 0.0
C205 C 0.8944 0.36626 0.96982 0.0
C206 C 0.76347 0.23486 0.01971 0.0
C207 C 0.7078 0.23423 0.99444 0.0
N208 N 0.85141 0.32438 0.9751 0.0
N209 N 0.75085 0.2773 0.99077 0.0
H210 H 0.50094 0.76483 0.95044 0.0
H211 H 0.61395 0.71103 0.12169 0.0
H212 H 0.60659 0.8624 0.15149 0.0
H213 H 0.49932 0.60501 0.94485 0.0
H214 H 0.61314 0.76819 0.12919 0.0
H215 H 0.50125 0.70708 0.94279 0.0
C216 C 0.52425 0.77418 0.99284 0.0
C217 C 0.55365 0.81851 0.052 0.0
C218 C 0.58811 0.73237 0.0888 0.0
C219 C 0.5542 0.75249 0.04366 0.0
C220 C 0.58859 0.69968 0.08436 0.0
C221 C 0.55663 0.65296 0.03255 0.0
C222 C 0.55555 0.71848 0.04075 0.0
C223 C 0.52459 0.64047 0.98578 0.0
C224 C 0.52429 0.74107 0.98876 0.0
C225 C 0.58287 0.82836 0.10591 0.0
N226 N 0.52491 0.673 0.99085 0.0
N227 N 0.58247 0.79578 0.10026 0.0
H228 H 0.97467 0.70873 0.11476 0.0
H229 H 0.7343 0.55496 0.07752 0.0
H230 H 0.86407 0.54694 0.08251 0.0
H231 H 0.8459 0.71663 0.11215 0.0
H232 H 0.7809 0.55084 0.07594 0.0
H233 H 0.92764 0.7119 0.11202 0.0
C234 C 0.94044 0.6738 0.10762 0.0
C235 C 0.92334 0.62747 0.09953 0.0
C236 C 0.79518 0.58721 0.08386 0.0
C237 C 0.86911 0.63086 0.09519 0.0
C238 C 0.7686 0.58961 0.08428 0.0
C239 C 0.78617 0.63624 0.09512 0.0
C240 C 0.83972 0.63174 0.09421 0.0
C241 C 0.83085 0.67984 0.10493 0.0
C242 C 0.91358 0.67565 0.10551 0.0
C243 C 0.87872 0.5835 0.08834 0.0
N244 N 0.85601 0.6765 0.10421 0.0
N245 N 0.85315 0.58628 0.08678 0.0
H246 H 0.19458 0.73405 0.04519 0.0
H247 H 0.4216 0.85642 0.01012 0.0
H248 H 0.20502 0.64304 0.97337 0.0
H249 H 0.40013 0.93478 0.9593 0.0
H250 H 0.34396 0.77875 0.01666 0.0
H251 H 0.27186 0.80936 0.03642 0.0
C252 C 0.21314 0.72985 0.0282 0.0
C253 C 0.1932 0.68207 0.00995 0.0
C254 C 0.35639 0.81298 1.00362 0.0
C255 C 0.28196 0.76843 1.00012 0.0
C256 C 0.40063 0.85729 1.00001 0.0
C257 C 0.41744 0.9022 0.98385 0.0
C258 C 0.32892 0.8139 0.993 0.0
C259 C 0.3887 0.90108 0.97133 0.0
C260 C 0.25726 0.77291 0.02265 0.0
C261 C 0.21901 0.67911 0.98768 0.0
N262 N 0.34601 0.85786 0.97698 0.0
N263 N 0.26213 0.72171 0.98387 0.0
H264 H 0.6145 0.49434 0.04364 0.0
H265 H 0.47767 0.21038 0.94087 0.0
H266 H 0.48371 0.37323 0.93442 0.0
H267 H 0.61337 0.33445 0.00942 0.0
H268 H 0.47872 0.26908 0.94508 0.0
H269 H 0.61422 0.43626 0.03741 0.0
C270 C 0.58569 0.45556 0.01821 0.0
C271 C 0.54903 0.43875 0.98944 0.0
C272 C 0.50831 0.28355 0.95919 0.0
C273 C 0.54849 0.37179 0.98272 0.0
C274 C 0.50769 0.24998 0.95748 0.0
C275 C 0.54547 0.26739 0.9754 0.0
C276 C 0.54694 0.33514 0.97945 0.0
C277 C 0.58353 0.31932 0.99465 0.0
C278 C 0.5856 0.42239 0.01462 0.0
C279 C 0.51272 0.38798 0.9572 0.0
N280 N 0.58326 0.35129 0.99655 0.0
N281 N 0.51334 0.35634 0.95504 0.0
loop_
_geom_bond_atom_site_label_1
_geom_bond_atom_site_label_2
_geom_bond_distance
_geom_bond_site_symmetry_2
_ccdc_geom_bond_type
Nd0 C2 2.836 1_556 S
Nd0 O20 2.500 1_556 S
Nd0 O21 2.492 . S
Nd0 O22 2.487 . S
Nd0 O23 2.682 1_655 S
Nd0 O24 2.410 . S
Nd0 O29 2.414 1_556 S
Nd0 O31 2.425 1_656 S
Nd1 C11 2.836 1_554 S
Nd1 O23 2.414 1_554 S
Nd1 O25 2.425 1_454 S
Nd1 O26 2.500 1_554 S
Nd1 O27 2.492 . S
Nd1 O28 2.487 . S
Nd1 O29 2.682 1_455 S
Nd1 O30 2.410 . S
C2 Nd0 2.836 1_554 S
C2 C3 1.498 . S
C2 O20 1.258 . S
C2 O21 1.239 1_554 S
C3 C2 1.498 . S
C3 C4 1.366 . S
C3 C8 1.407 1_554 S
C4 C3 1.366 . S
C4 C5 1.392 . S
C4 H32 0.930 . S
C5 C4 1.392 . S
C5 C6 1.398 . S
C5 H33 0.929 . S
C6 C5 1.398 . S
C6 C7 1.352 1_554 S
C7 C6 1.352 1_556 S
C7 C8 1.384 . S
C7 H34 0.930 . S
C8 C3 1.407 1_556 S
C8 C7 1.384 . S
C8 H35 0.929 . S
C9 O22 1.205 1_455 S
C9 O23 1.292 . S
C10 O24 1.251 . S
C10 O25 1.270 . S
C11 Nd1 2.836 1_556 S
C11 C12 1.498 . S
C11 O26 1.258 . S
C11 O27 1.239 1_556 S
C12 C11 1.498 . S
C12 C13 1.366 . S
C12 C17 1.407 1_556 S
C13 C12 1.366 . S
C13 C14 1.392 . S
C13 H36 0.930 . S
C14 C13 1.392 . S
C14 C15 1.398 . S
C14 H37 0.929 . S
C15 C14 1.398 . S
C15 C16 1.352 1_556 S
C16 C15 1.352 1_554 S
C16 C17 1.384 . S
C16 H38 0.930 . S
C17 C12 1.407 1_554 S
C17 C16 1.384 . S
C17 H39 0.929 . S
C18 O28 1.241 . S
C18 O29 1.273 1_455 S
C19 O30 1.251 . S
C19 O31 1.270 . S
O20 Nd0 2.500 1_554 S
O20 C2 1.258 . S
O21 Nd0 2.492 . S
O21 C2 1.239 1_556 S
O22 Nd0 2.487 . S
O22 C9 1.205 1_655 S
O23 Nd0 2.682 1_455 S
O23 Nd1 2.414 1_556 S
O23 C9 1.292 . S
O24 Nd0 2.410 . S
O24 C10 1.251 . S
O25 Nd1 2.425 1_656 S
O25 C10 1.270 . S
O26 Nd1 2.500 1_556 S
O26 C11 1.258 . S
O27 Nd1 2.492 . S
O27 C11 1.239 1_554 S
O28 Nd1 2.487 . S
O28 C18 1.241 . S
O29 Nd0 2.414 1_554 S
O29 Nd1 2.682 1_655 S
O29 C18 1.273 1_655 S
O30 Nd1 2.410 . S
O30 C19 1.251 . S
O31 Nd0 2.425 1_454 S
O31 C19 1.270 . S
H32 C4 0.930 . S
H33 C5 0.929 . S
H34 C7 0.930 . S
H35 C8 0.929 . S
H36 C13 0.930 . S
H37 C14 0.929 . S
H38 C16 0.930 . S
H39 C17 0.929 . S
Nd40 C42 2.836 . S
Nd40 O60 2.500 1_554 S
Nd40 O61 2.492 . S
Nd40 O62 2.487 . S
Nd40 O63 2.682 1_545 S
Nd40 O64 2.410 . S
Nd40 O69 2.414 1_554 S
Nd40 O71 2.424 1_545 S
Nd41 C51 2.836 . S
Nd41 O63 2.414 1_556 S
Nd41 O65 2.424 1_565 S
Nd41 O66 2.500 1_556 S
Nd41 O67 2.492 . S
Nd41 O68 2.487 . S
Nd41 O69 2.682 1_565 S
Nd41 O70 2.410 . S
C42 Nd40 2.836 . S
C42 C43 1.498 . S
C42 O60 1.258 1_554 S
C42 O61 1.239 . S
C43 C42 1.498 . S
C43 C44 1.366 1_554 S
C43 C48 1.407 . S
C44 C43 1.366 1_556 S
C44 C45 1.392 . S
C44 H72 0.930 . S
C45 C44 1.392 . S
C45 C46 1.398 1_556 S
C45 H73 0.929 . S
C46 C45 1.398 1_554 S
C46 C47 1.352 . S
C47 C46 1.352 . S
C47 C48 1.384 . S
C47 H74 0.930 . S
C48 C43 1.407 . S
C48 C47 1.384 . S
C48 H75 0.929 . S
C49 O62 1.241 . S
C49 O63 1.273 1_545 S
C50 O64 1.251 . S
C50 O65 1.268 1_554 S
C51 Nd41 2.836 . S
C51 C52 1.498 . S
C51 O66 1.258 1_556 S
C51 O67 1.239 . S
C52 C51 1.498 . S
C52 C53 1.366 1_556 S
C52 C57 1.407 . S
C53 C52 1.366 1_554 S
C53 C54 1.392 . S
C53 H76 0.930 . S
C54 C53 1.392 . S
C54 C55 1.398 1_554 S
C54 H77 0.929 . S
C55 C54 1.398 1_556 S
C55 C56 1.352 . S
C56 C55 1.352 . S
C56 C57 1.384 . S
C56 H78 0.930 . S
C57 C52 1.407 . S
C57 C56 1.384 . S
C57 H79 0.929 . S
C58 O68 1.241 . S
C58 O69 1.273 1_565 S
C59 O70 1.251 . S
C59 O71 1.268 1_556 S
O60 Nd40 2.500 1_556 S
O60 C42 1.258 1_556 S
O61 Nd40 2.492 . S
O61 C42 1.239 . S
O62 Nd40 2.487 . S
O62 C49 1.241 . S
O63 Nd40 2.682 1_565 S
O63 Nd41 2.414 1_554 S
O63 C49 1.273 1_565 S
O64 Nd40 2.410 . S
O64 C50 1.251 . S
O65 Nd41 2.424 1_545 S
O65 C50 1.268 1_556 S
O66 Nd41 2.500 1_554 S
O66 C51 1.258 1_554 S
O67 Nd41 2.492 . S
O67 C51 1.239 . S
O68 Nd41 2.487 . S
O68 C58 1.241 . S
O69 Nd40 2.414 1_556 S
O69 Nd41 2.682 1_545 S
O69 C58 1.273 1_545 S
O70 Nd41 2.410 . S
O70 C59 1.251 . S
O71 Nd40 2.424 1_565 S
O71 C59 1.268 1_554 S
H72 C44 0.930 . S
H73 C45 0.929 . S
H74 C47 0.930 . S
H75 C48 0.929 . S
H76 C53 0.930 . S
H77 C54 0.929 . S
H78 C56 0.930 . S
H79 C57 0.929 . S
Nd80 C82 2.836 1_554 S
Nd80 O100 2.500 1_554 S
Nd80 O101 2.492 . S
Nd80 O102 2.487 . S
Nd80 O103 2.682 . S
Nd80 O104 2.410 . S
Nd80 O109 2.414 1_554 S
Nd80 O111 2.424 1_554 S
Nd81 C91 2.836 1_556 S
Nd81 O103 2.414 1_556 S
Nd81 O105 2.424 1_556 S
Nd81 O106 2.500 1_556 S
Nd81 O107 2.492 . S
Nd81 O108 2.487 . S
Nd81 O109 2.682 . S
Nd81 O110 2.410 . S
C82 Nd80 2.836 1_556 S
C82 C83 1.498 . S
C82 O100 1.258 . S
C82 O101 1.239 1_556 S
C83 C82 1.498 . S
C83 C84 1.366 . S
C83 C88 1.407 1_556 S
C84 C83 1.366 . S
C84 C85 1.392 . S
C84 H112 0.930 . S
C85 C84 1.392 . S
C85 C86 1.398 . S
C85 H113 0.929 . S
C86 C85 1.398 . S
C86 C87 1.352 1_556 S
C87 C86 1.352 1_554 S
C87 C88 1.384 . S
C87 H114 0.930 . S
C88 C83 1.407 1_554 S
C88 C87 1.384 . S
C88 H115 0.929 . S
C89 O102 1.241 . S
C89 O103 1.273 . S
C90 O104 1.251 . S
C90 O105 1.268 . S
C91 Nd81 2.836 1_554 S
C91 C92 1.498 . S
C91 O106 1.258 . S
C91 O107 1.239 1_554 S
C92 C91 1.498 . S
C92 C93 1.366 . S
C92 C97 1.407 1_554 S
C93 C92 1.366 . S
C93 C94 1.392 . S
C93 H116 0.930 . S
C94 C93 1.392 . S
C94 C95 1.398 . S
C94 H117 0.929 . S
C95 C94 1.398 . S
C95 C96 1.352 1_554 S
C96 C95 1.352 1_556 S
C96 C97 1.384 . S
C96 H118 0.930 . S
C97 C92 1.407 1_556 S
C97 C96 1.384 . S
C97 H119 0.929 . S
C98 O108 1.241 . S
C98 O109 1.273 . S
C99 O110 1.251 . S
C99 O111 1.268 . S
O100 Nd80 2.500 1_556 S
O100 C82 1.258 . S
O101 Nd80 2.492 . S
O101 C82 1.239 1_554 S
O102 Nd80 2.487 . S
O102 C89 1.241 . S
O103 Nd80 2.682 . S
O103 Nd81 2.414 1_554 S
O103 C89 1.273 . S
O104 Nd80 2.410 . S
O104 C90 1.251 . S
O105 Nd81 2.424 1_554 S
O105 C90 1.268 . S
O106 Nd81 2.500 1_554 S
O106 C91 1.258 . S
O107 Nd81 2.492 . S
O107 C91 1.239 1_556 S
O108 Nd81 2.487 . S
O108 C98 1.241 . S
O109 Nd80 2.414 1_556 S
O109 Nd81 2.682 . S
O109 C98 1.273 . S
O110 Nd81 2.410 . S
O110 C99 1.251 . S
O111 Nd80 2.424 1_556 S
O111 C99 1.268 . S
H112 C84 0.930 . S
H113 C85 0.929 . S
H114 C87 0.930 . S
H115 C88 0.929 . S
H116 C93 0.930 . S
H117 C94 0.929 . S
H118 C96 0.930 . S
H119 C97 0.929 . S
H120 C126 0.930 . S
H121 C130 0.930 . S
H122 C135 0.929 . S
H123 C133 0.929 . S
H124 C128 0.929 . S
H125 C134 0.929 . S
C126 H120 0.930 . S
C126 C127 1.367 1_655 S
C126 C134 1.378 . S
C127 C126 1.367 1_455 S
C127 C135 1.433 . S
C128 H124 0.929 . S
C128 C130 1.378 . S
C128 C132 1.350 . S
C129 C132 1.462 . S
C129 C134 1.336 1_455 S
C129 N137 1.443 . S
C130 H121 0.930 . S
C130 C128 1.378 . S
C130 C131 1.374 . S
C131 C130 1.374 . S
C131 C133 1.427 1_455 S
C132 C128 1.350 . S
C132 C129 1.462 . S
C132 N136 1.427 1_455 S
C133 H123 0.929 . S
C133 C131 1.427 1_655 S
C133 N136 1.384 . S
C134 H125 0.929 . S
C134 C126 1.378 . S
C134 C129 1.336 1_655 S
C135 H122 0.929 . S
C135 C127 1.433 . S
C135 N137 1.384 . S
N136 C132 1.427 1_655 S
N136 C133 1.384 . S
N137 C129 1.443 . S
N137 C135 1.384 . S
H138 C144 0.930 . S
H139 C148 0.930 . S
H140 C153 0.929 . S
H141 C151 0.929 . S
H142 C146 0.929 . S
H143 C152 0.929 . S
C144 H138 0.930 . S
C144 C145 1.367 . S
C144 C152 1.378 . S
C145 C144 1.367 . S
C145 C153 1.433 1_545 S
C146 H142 0.929 . S
C146 C148 1.378 . S
C146 C150 1.372 . S
C147 C150 1.459 1_545 S
C147 C152 1.350 . S
C147 N155 1.427 1_545 S
C148 H139 0.930 . S
C148 C146 1.378 . S
C148 C149 1.367 . S
C149 C148 1.367 . S
C149 C151 1.433 1_565 S
C150 C146 1.372 . S
C150 C147 1.459 1_565 S
C150 N154 1.408 1_565 S
C151 H141 0.929 . S
C151 C149 1.433 1_545 S
C151 N154 1.384 . S
C152 H143 0.929 . S
C152 C144 1.378 . S
C152 C147 1.350 . S
C153 H140 0.929 . S
C153 C145 1.433 1_565 S
C153 N155 1.384 . S
N154 C150 1.408 1_545 S
N154 C151 1.384 . S
N155 C147 1.427 1_565 S
N155 C153 1.384 . S
H156 C162 0.930 . S
H157 C166 0.930 . S
H158 C171 0.929 . S
H159 C169 0.929 . S
H160 C164 0.929 . S
H161 C170 0.929 . S
C162 H156 0.930 . S
C162 C163 1.367 . S
C162 C170 1.378 . S
C163 C162 1.367 . S
C163 C171 1.433 . S
C164 H160 0.929 . S
C164 C166 1.378 . S
C164 C168 1.350 . S
C165 C168 1.463 . S
C165 C170 1.350 . S
C165 N173 1.427 . S
C166 H157 0.930 . S
C166 C164 1.378 . S
C166 C167 1.367 . S
C167 C166 1.367 . S
C167 C169 1.433 . S
C168 C164 1.350 . S
C168 C165 1.463 . S
C168 N172 1.427 . S
C169 H159 0.929 . S
C169 C167 1.433 . S
C169 N172 1.384 . S
C170 H161 0.929 . S
C170 C162 1.378 . S
C170 C165 1.350 . S
C171 H158 0.929 . S
C171 C163 1.433 . S
C171 N173 1.384 . S
N172 C168 1.427 . S
N172 C169 1.384 . S
N173 C165 1.427 . S
N173 C171 1.384 . S
H174 C180 0.930 . S
H175 C184 0.930 . S
H176 C189 0.929 . S
H177 C187 0.929 . S
H178 C182 0.929 . S
H179 C188 0.929 . S
C180 H174 0.930 . S
C180 C181 1.367 . S
C180 C188 1.378 . S
C181 C180 1.367 . S
C181 C189 1.433 . S
C182 H178 0.929 . S
C182 C184 1.378 . S
C182 C186 1.350 . S
C183 C186 1.463 . S
C183 C188 1.350 . S
C183 N191 1.427 . S
C184 H175 0.930 . S
C184 C182 1.378 . S
C184 C185 1.367 . S
C185 C184 1.367 . S
C185 C187 1.433 . S
C186 C182 1.350 . S
C186 C183 1.463 . S
C186 N190 1.427 . S
C187 H177 0.929 . S
C187 C185 1.433 . S
C187 N190 1.384 . S
C188 H179 0.929 . S
C188 C180 1.378 . S
C188 C183 1.350 . S
C189 H176 0.929 . S
C189 C181 1.433 . S
C189 N191 1.384 . S
N190 C186 1.427 . S
N190 C187 1.384 . S
N191 C183 1.427 . S
N191 C189 1.384 . S
H192 C198 0.930 . S
H193 C202 0.930 . S
H194 C207 0.929 . S
H195 C205 0.929 . S
H196 C200 0.929 . S
H197 C206 0.929 . S
C198 H192 0.930 . S
C198 C199 1.367 . S
C198 C206 1.378 . S
C199 C198 1.367 . S
C199 C207 1.433 1_556 S
C200 H196 0.929 . S
C200 C202 1.378 . S
C200 C204 1.350 . S
C201 C204 1.463 1_556 S
C201 C206 1.350 . S
C201 N209 1.427 1_556 S
C202 H193 0.930 . S
C202 C200 1.378 . S
C202 C203 1.367 1_554 S
C203 C202 1.367 1_556 S
C203 C205 1.433 . S
C204 C200 1.350 . S
C204 C201 1.463 1_554 S
C204 N208 1.427 1_554 S
C205 H195 0.929 . S
C205 C203 1.433 . S
C205 N208 1.384 . S
C206 H197 0.929 . S
C206 C198 1.378 . S
C206 C201 1.350 . S
C207 H194 0.929 . S
C207 C199 1.433 1_554 S
C207 N209 1.384 . S
N208 C204 1.427 1_556 S
N208 C205 1.384 . S
N209 C201 1.427 1_554 S
N209 C207 1.384 . S
H210 C216 0.930 . S
H211 C220 0.930 . S
H212 C225 0.929 . S
H213 C223 0.929 . S
H214 C218 0.929 . S
H215 C224 0.929 . S
C216 H210 0.930 . S
C216 C217 1.367 . S
C216 C224 1.378 . S
C217 C216 1.367 . S
C217 C225 1.433 1_556 S
C218 H214 0.929 . S
C218 C220 1.378 . S
C218 C222 1.350 . S
C219 C222 1.463 1_556 S
C219 C224 1.350 . S
C219 N227 1.427 1_556 S
C220 H211 0.930 . S
C220 C218 1.378 . S
C220 C221 1.367 . S
C221 C220 1.367 . S
C221 C223 1.433 1_554 S
C222 C218 1.350 . S
C222 C219 1.463 1_554 S
C222 N226 1.427 1_554 S
C223 H213 0.929 . S
C223 C221 1.433 1_556 S
C223 N226 1.384 . S
C224 H215 0.929 . S
C224 C216 1.378 . S
C224 C219 1.350 . S
C225 H212 0.929 . S
C225 C217 1.433 1_554 S
C225 N227 1.384 . S
N226 C222 1.427 1_556 S
N226 C223 1.384 . S
N227 C219 1.427 1_554 S
N227 C225 1.384 . S
H228 C234 0.930 . S
H229 C238 0.930 . S
H230 C243 0.929 . S
H231 C241 0.929 . S
H232 C236 0.929 . S
H233 C242 0.929 . S
C234 H228 0.930 . S
C234 C235 1.367 . S
C234 C242 1.378 . S
C235 C234 1.367 . S
C235 C243 1.433 1_554 S
C236 H232 0.929 . S
C236 C238 1.378 . S
C236 C240 1.350 1_556 S
C237 C240 1.463 . S
C237 C242 1.350 . S
C237 N245 1.427 1_554 S
C238 H229 0.930 . S
C238 C236 1.378 . S
C238 C239 1.367 1_556 S
C239 C238 1.367 1_554 S
C239 C241 1.433 . S
C240 C236 1.350 1_554 S
C240 C237 1.463 . S
C240 N244 1.427 . S
C241 H231 0.929 . S
C241 C239 1.433 . S
C241 N244 1.384 . S
C242 H233 0.929 . S
C242 C234 1.378 . S
C242 C237 1.350 . S
C243 H230 0.929 . S
C243 C235 1.433 1_556 S
C243 N245 1.384 . S
N244 C240 1.427 . S
N244 C241 1.384 . S
N245 C237 1.427 1_556 S
N245 C243 1.384 . S
H246 C252 0.930 . S
H247 C256 0.930 . S
H248 C261 0.929 . S
H249 C259 0.929 . S
H250 C254 0.929 . S
H251 C260 0.929 . S
C252 H246 0.930 . S
C252 C253 1.367 1_556 S
C252 C260 1.378 . S
C253 C252 1.367 1_554 S
C253 C261 1.433 . S
C254 H250 0.929 . S
C254 C256 1.378 . S
C254 C258 1.350 . S
C255 C258 1.461 . S
C255 C260 1.348 1_554 S
C255 N263 1.431 . S
C256 H247 0.930 . S
C256 C254 1.378 . S
C256 C257 1.367 . S
C257 C256 1.367 . S
C257 C259 1.433 1_554 S
C258 C254 1.350 . S
C258 C255 1.461 . S
C258 N262 1.427 1_554 S
C259 H249 0.929 . S
C259 C257 1.433 1_556 S
C259 N262 1.384 . S
C260 H251 0.929 . S
C260 C252 1.378 . S
C260 C255 1.348 1_556 S
C261 H248 0.929 . S
C261 C253 1.433 . S
C261 N263 1.384 . S
N262 C258 1.427 1_556 S
N262 C259 1.384 . S
N263 C255 1.431 . S
N263 C261 1.384 . S
H264 C270 0.930 . S
H265 C274 0.930 . S
H266 C279 0.929 . S
H267 C277 0.929 . S
H268 C272 0.929 . S
H269 C278 0.929 . S
C270 H264 0.930 . S
C270 C271 1.367 1_554 S
C270 C278 1.378 . S
C271 C270 1.367 1_556 S
C271 C279 1.433 . S
C272 H268 0.929 . S
C272 C274 1.378 . S
C272 C276 1.350 1_556 S
C273 C276 1.463 . S
C273 C278 1.350 . S
C273 N281 1.427 1_554 S
C274 H265 0.930 . S
C274 C272 1.378 . S
C274 C275 1.367 1_556 S
C275 C274 1.367 1_554 S
C275 C277 1.433 . S
C276 C272 1.350 1_554 S
C276 C273 1.463 . S
C276 N280 1.427 . S
C277 H267 0.929 . S
C277 C275 1.433 . S
C277 N280 1.384 . S
C278 H269 0.929 . S
C278 C270 1.378 . S
C278 C273 1.350 . S
C279 H266 0.929 . S
C279 C271 1.433 . S
C279 N281 1.384 . S
N280 C276 1.427 . S
N280 C277 1.384 . S
N281 C273 1.427 1_556 S
N281 C279 1.384 . S
C127 C9 1.450 . S
C131 C18 1.444 . S
C145 C49 1.450 . S
C149 C58 1.450 . S
C163 C98 1.450 . S
C167 C89 1.450 . S
C181 C15 0.907 . S
C185 C86 0.914 . S
C199 C50 2.580 1_556 S
C203 C10 2.628 . S
C217 C55 1.997 . S
C221 C90 2.062 . S
C235 C6 0.910 . S
C239 C95 0.914 . S
C253 C19 2.626 . S
C257 C59 2.582 1_554 S
C271 C99 2.062 . S
C275 C46 1.993 . S
