# Generated by pormake.
# Topology ums, (4)-cn, num edge types: 1
# Building blocks:
#     Node 0, Type 0, BuildingBlock: QUQFOY_clean_sbu_3, # of connection points: 4
#     Node 1, Type 0, BuildingBlock: QUQFOY_clean_sbu_3, # of connection points: 4
#     Node 2, Type 0, BuildingBlock: QUQFOY_clean_sbu_3, # of connection points: 4
#     Node 3, Type 0, BuildingBlock: QUQFOY_clean_sbu_3, # of connection points: 4
#     Node 4, Type 0, BuildingBlock: QUQFOY_clean_sbu_3, # of connection points: 4
#     Node 5, Type 0, BuildingBlock: QUQFOY_clean_sbu_3, # of connection points: 4
#     Node 6, Type 0, BuildingBlock: QUQFOY_clean_sbu_3, # of connection points: 4
#     Node 7, Type 0, BuildingBlock: QUQFOY_clean_sbu_3, # of connection points: 4
#     Node 8, Type 0, BuildingBlock: QUQFOY_clean_sbu_3, # of connection points: 4
#     Node 9, Type 0, BuildingBlock: QUQFOY_clean_sbu_3, # of connection points: 4
#     Node 10, Type 0, BuildingBlock: QUQFOY_clean_sbu_3, # of connection points: 4
#     Node 11, Type 0, BuildingBlock: QUQFOY_clean_sbu_3, # of connection points: 4
#     Node 12, Type 0, BuildingBlock: QUQFOY_clean_sbu_3, # of connection points: 4
#     Node 13, Type 0, BuildingBlock: QUQFOY_clean_sbu_3, # of connection points: 4
#     Node 14, Type 0, BuildingBlock: QUQFOY_clean_sbu_3, # of connection points: 4
#     Node 15, Type 0, BuildingBlock: QUQFOY_clean_sbu_3, # of connection points: 4
#     Node 16, Type 0, BuildingBlock: QUQFOY_clean_sbu_3, # of connection points: 4
#     Node 17, Type 0, BuildingBlock: QUQFOY_clean_sbu_3, # of connection points: 4
#     Node 18, Type 0, BuildingBlock: QUQFOY_clean_sbu_3, # of connection points: 4
#     Node 19, Type 0, BuildingBlock: QUQFOY_clean_sbu_3, # of connection points: 4
#     Node 20, Type 0, BuildingBlock: QUQFOY_clean_sbu_3, # of connection points: 4
#     Node 21, Type 0, BuildingBlock: QUQFOY_clean_sbu_3, # of connection points: 4
#     Node 22, Type 0, BuildingBlock: QUQFOY_clean_sbu_3, # of connection points: 4
#     Node 23, Type 0, BuildingBlock: QUQFOY_clean_sbu_3, # of connection points: 4
#     Node 24, Type 0, BuildingBlock: QUQFOY_clean_sbu_3, # of connection points: 4
#     Node 25, Type 0, BuildingBlock: QUQFOY_clean_sbu_3, # of connection points: 4
#     Node 26, Type 0, BuildingBlock: QUQFOY_clean_sbu_3, # of connection points: 4
#     Node 27, Type 0, BuildingBlock: QUQFOY_clean_sbu_3, # of connection points: 4
#     Node 28, Type 0, BuildingBlock: QUQFOY_clean_sbu_3, # of connection points: 4
#     Node 29, Type 0, BuildingBlock: QUQFOY_clean_sbu_3, # of connection points: 4
#     Node 30, Type 0, BuildingBlock: QUQFOY_clean_sbu_3, # of connection points: 4
#     Node 31, Type 0, BuildingBlock: QUQFOY_clean_sbu_3, # of connection points: 4
#     Node 32, Type 0, BuildingBlock: QUQFOY_clean_sbu_3, # of connection points: 4
#     Node 33, Type 0, BuildingBlock: QUQFOY_clean_sbu_3, # of connection points: 4
#     Node 34, Type 0, BuildingBlock: QUQFOY_clean_sbu_3, # of connection points: 4
#     Node 35, Type 0, BuildingBlock: QUQFOY_clean_sbu_3, # of connection points: 4
#     Edge 36, Type (0, 0), BuildingBlock: TEMPAE_clean_linker_10, # of connection points: 2
#     Edge 37, Type (0, 0), BuildingBlock: TEMPAE_clean_linker_10, # of connection points: 2
#     Edge 38, Type (0, 0), BuildingBlock: TEMPAE_clean_linker_10, # of connection points: 2
#     Edge 39, Type (0, 0), BuildingBlock: TEMPAE_clean_linker_10, # of connection points: 2
#     Edge 40, Type (0, 0), BuildingBlock: TEMPAE_clean_linker_10, # of connection points: 2
#     Edge 41, Type (0, 0), BuildingBlock: TEMPAE_clean_linker_10, # of connection points: 2
#     Edge 42, Type (0, 0), BuildingBlock: TEMPAE_clean_linker_10, # of connection points: 2
#     Edge 43, Type (0, 0), BuildingBlock: TEMPAE_clean_linker_10, # of connection points: 2
#     Edge 44, Type (0, 0), BuildingBlock: TEMPAE_clean_linker_10, # of connection points: 2
#     Edge 45, Type (0, 0), BuildingBlock: TEMPAE_clean_linker_10, # of connection points: 2
#     Edge 46, Type (0, 0), BuildingBlock: TEMPAE_clean_linker_10, # of connection points: 2
#     Edge 47, Type (0, 0), BuildingBlock: TEMPAE_clean_linker_10, # of connection points: 2
#     Edge 48, Type (0, 0), BuildingBlock: TEMPAE_clean_linker_10, # of connection points: 2
#     Edge 49, Type (0, 0), BuildingBlock: TEMPAE_clean_linker_10, # of connection points: 2
#     Edge 50, Type (0, 0), BuildingBlock: TEMPAE_clean_linker_10, # of connection points: 2
#     Edge 51, Type (0, 0), BuildingBlock: TEMPAE_clean_linker_10, # of connection points: 2
#     Edge 52, Type (0, 0), BuildingBlock: TEMPAE_clean_linker_10, # of connection points: 2
#     Edge 53, Type (0, 0), BuildingBlock: TEMPAE_clean_linker_10, # of connection points: 2
#     Edge 54, Type (0, 0), BuildingBlock: TEMPAE_clean_linker_10, # of connection points: 2
#     Edge 55, Type (0, 0), BuildingBlock: TEMPAE_clean_linker_10, # of connection points: 2
#     Edge 56, Type (0, 0), BuildingBlock: TEMPAE_clean_linker_10, # of connection points: 2
#     Edge 57, Type (0, 0), BuildingBlock: TEMPAE_clean_linker_10, # of connection points: 2
#     Edge 58, Type (0, 0), BuildingBlock: TEMPAE_clean_linker_10, # of connection points: 2
#     Edge 59, Type (0, 0), BuildingBlock: TEMPAE_clean_linker_10, # of connection points: 2
#     Edge 60, Type (0, 0), BuildingBlock: TEMPAE_clean_linker_10, # of connection points: 2
#     Edge 61, Type (0, 0), BuildingBlock: TEMPAE_clean_linker_10, # of connection points: 2
#     Edge 62, Type (0, 0), BuildingBlock: TEMPAE_clean_linker_10, # of connection points: 2
#     Edge 63, Type (0, 0), BuildingBlock: TEMPAE_clean_linker_10, # of connection points: 2
#     Edge 64, Type (0, 0), BuildingBlock: TEMPAE_clean_linker_10, # of connection points: 2
#     Edge 65, Type (0, 0), BuildingBlock: TEMPAE_clean_linker_10, # of connection points: 2
#     Edge 66, Type (0, 0), BuildingBlock: TEMPAE_clean_linker_10, # of connection points: 2
#     Edge 67, Type (0, 0), BuildingBlock: TEMPAE_clean_linker_10, # of connection points: 2
#     Edge 68, Type (0, 0), BuildingBlock: TEMPAE_clean_linker_10, # of connection points: 2
#     Edge 69, Type (0, 0), BuildingBlock: TEMPAE_clean_linker_10, # of connection points: 2
#     Edge 70, Type (0, 0), BuildingBlock: TEMPAE_clean_linker_10, # of connection points: 2
#     Edge 71, Type (0, 0), BuildingBlock: TEMPAE_clean_linker_10, # of connection points: 2
#     Edge 72, Type (0, 0), BuildingBlock: TEMPAE_clean_linker_10, # of connection points: 2
#     Edge 73, Type (0, 0), BuildingBlock: TEMPAE_clean_linker_10, # of connection points: 2
#     Edge 74, Type (0, 0), BuildingBlock: TEMPAE_clean_linker_10, # of connection points: 2
#     Edge 75, Type (0, 0), BuildingBlock: TEMPAE_clean_linker_10, # of connection points: 2
#     Edge 76, Type (0, 0), BuildingBlock: TEMPAE_clean_linker_10, # of connection points: 2
#     Edge 77, Type (0, 0), BuildingBlock: TEMPAE_clean_linker_10, # of connection points: 2
#     Edge 78, Type (0, 0), BuildingBlock: TEMPAE_clean_linker_10, # of connection points: 2
#     Edge 79, Type (0, 0), BuildingBlock: TEMPAE_clean_linker_10, # of connection points: 2
#     Edge 80, Type (0, 0), BuildingBlock: TEMPAE_clean_linker_10, # of connection points: 2
#     Edge 81, Type (0, 0), BuildingBlock: TEMPAE_clean_linker_10, # of connection points: 2
#     Edge 82, Type (0, 0), BuildingBlock: TEMPAE_clean_linker_10, # of connection points: 2
#     Edge 83, Type (0, 0), BuildingBlock: TEMPAE_clean_linker_10, # of connection points: 2
#     Edge 84, Type (0, 0), BuildingBlock: TEMPAE_clean_linker_10, # of connection points: 2
#     Edge 85, Type (0, 0), BuildingBlock: TEMPAE_clean_linker_10, # of connection points: 2
#     Edge 86, Type (0, 0), BuildingBlock: TEMPAE_clean_linker_10, # of connection points: 2
#     Edge 87, Type (0, 0), BuildingBlock: TEMPAE_clean_linker_10, # of connection points: 2
#     Edge 88, Type (0, 0), BuildingBlock: TEMPAE_clean_linker_10, # of connection points: 2
#     Edge 89, Type (0, 0), BuildingBlock: TEMPAE_clean_linker_10, # of connection points: 2
#     Edge 90, Type (0, 0), BuildingBlock: TEMPAE_clean_linker_10, # of connection points: 2
#     Edge 91, Type (0, 0), BuildingBlock: TEMPAE_clean_linker_10, # of connection points: 2
#     Edge 92, Type (0, 0), BuildingBlock: TEMPAE_clean_linker_10, # of connection points: 2
#     Edge 93, Type (0, 0), BuildingBlock: TEMPAE_clean_linker_10, # of connection points: 2
#     Edge 94, Type (0, 0), BuildingBlock: TEMPAE_clean_linker_10, # of connection points: 2
#     Edge 95, Type (0, 0), BuildingBlock: TEMPAE_clean_linker_10, # of connection points: 2
#     Edge 96, Type (0, 0), BuildingBlock: TEMPAE_clean_linker_10, # of connection points: 2
#     Edge 97, Type (0, 0), BuildingBlock: TEMPAE_clean_linker_10, # of connection points: 2
#     Edge 98, Type (0, 0), BuildingBlock: TEMPAE_clean_linker_10, # of connection points: 2
#     Edge 99, Type (0, 0), BuildingBlock: TEMPAE_clean_linker_10, # of connection points: 2
#     Edge 100, Type (0, 0), BuildingBlock: TEMPAE_clean_linker_10, # of connection points: 2
#     Edge 101, Type (0, 0), BuildingBlock: TEMPAE_clean_linker_10, # of connection points: 2
#     Edge 102, Type (0, 0), BuildingBlock: TEMPAE_clean_linker_10, # of connection points: 2
#     Edge 103, Type (0, 0), BuildingBlock: TEMPAE_clean_linker_10, # of connection points: 2
#     Edge 104, Type (0, 0), BuildingBlock: TEMPAE_clean_linker_10, # of connection points: 2
#     Edge 105, Type (0, 0), BuildingBlock: TEMPAE_clean_linker_10, # of connection points: 2
#     Edge 106, Type (0, 0), BuildingBlock: TEMPAE_clean_linker_10, # of connection points: 2
#     Edge 107, Type (0, 0), BuildingBlock: TEMPAE_clean_linker_10, # of connection points: 2
# Relax obj value: 0.190
# Max RMSD: 0.142
# Mean RMSD: 0.141
data_MOF--net-ums--node1-QUQFOY_clean_sbu_3--edge1-TEMPAE_clean_linker_10
_symmetry_space_group_name_H-M    P1
_symmetry_Int_Tables_number       1
_symmetry_cell_setting            triclinic
loop_
_symmetry_equiv_pos_as_xyz
'x, y, z'
_cell_length_a     105.13916
_cell_length_b     105.12955
_cell_length_c     24.206989
_cell_angle_alpha  89.983044
_cell_angle_beta   90.021808
_cell_angle_gamma 120.00387
loop_
_atom_site_label
_atom_site_type_symbol
_atom_site_fract_x
_atom_site_fract_y
_atom_site_fract_z
_atom_type_partial_charge
C0 C 0.18578 0.29295 0.20396 0.0
O1 O 0.17705 0.29429 0.23651 0.0
Cd2 Cd 0.1573 0.27393 0.28395 0.0
O3 O 0.18535 0.28066 0.19952 0.0
Cd4 Cd 0.17157 0.25569 0.23959 0.0
C5 C 0.14289 0.25263 0.1677 0.0
O6 O 0.16601 0.26 0.33231 0.0
O7 O 0.15157 0.23843 0.29876 0.0
O8 O 0.19351 0.25462 0.26173 0.0
C9 C 0.15553 0.24701 0.34001 0.0
O10 O 0.14126 0.25975 0.20707 0.0
C11 C 0.19003 0.24324 0.23298 0.0
O12 O 0.15367 0.2503 0.16713 0.0
O13 O 0.17806 0.23785 0.20606 0.0
C14 C 0.6905 0.88552 0.2331 0.0
O15 O 0.68851 0.87543 0.26688 0.0
Cd16 Cd 0.70729 0.87675 0.32776 0.0
O17 O 0.70259 0.89764 0.23275 0.0
Cd18 Cd 0.72637 0.90978 0.28163 0.0
C19 C 0.73255 0.88385 0.22549 0.0
O20 O 0.71898 0.89991 0.37352 0.0
O21 O 0.74225 0.91063 0.35701 0.0
O22 O 0.7255 0.93227 0.29138 0.0
C23 C 0.73183 0.90413 0.39135 0.0
O24 O 0.72416 0.87513 0.26276 0.0
C25 C 0.73743 0.94023 0.26561 0.0
O26 O 0.73463 0.89684 0.22121 0.0
O27 O 0.74406 0.9339 0.24611 0.0
C28 C 0.10294 0.80662 0.21895 0.0
O29 O 0.113 0.81476 0.25275 0.0
Cd30 Cd 0.11214 0.8328 0.31132 0.0
O31 O 0.09095 0.80685 0.21724 0.0
Cd32 Cd 0.07915 0.81922 0.26399 0.0
C33 C 0.10556 0.85082 0.20655 0.0
O34 O 0.0889 0.82175 0.35587 0.0
O35 O 0.07888 0.83488 0.33846 0.0
O36 O 0.05638 0.79619 0.27524 0.0
C37 C 0.08509 0.83073 0.3732 0.0
O38 O 0.11413 0.85107 0.24435 0.0
C39 C 0.04853 0.80031 0.24951 0.0
O40 O 0.09247 0.84009 0.20233 0.0
O41 O 0.05507 0.81316 0.22894 0.0
C42 C 0.29316 0.18217 0.27227 0.0
O43 O 0.29556 0.17439 0.23832 0.0
Cd44 Cd 0.27723 0.15663 0.17691 0.0
O45 O 0.28081 0.18169 0.27258 0.0
Cd46 Cd 0.2571 0.16935 0.223 0.0
C47 C 0.25205 0.13758 0.27842 0.0
O48 O 0.26498 0.16752 0.13109 0.0
O49 O 0.24174 0.15417 0.1469 0.0
O50 O 0.25714 0.19231 0.21416 0.0
C51 C 0.25226 0.15858 0.1128 0.0
O52 O 0.26068 0.13769 0.24123 0.0
C53 C 0.24492 0.18781 0.23844 0.0
O54 O 0.24947 0.14816 0.28295 0.0
O55 O 0.23853 0.17474 0.25703 0.0
C56 C 0.79779 0.10549 0.27501 0.0
O57 O 0.80613 0.11535 0.24089 0.0
Cd58 Cd 0.82329 0.11343 0.18024 0.0
O59 O 0.7974 0.09319 0.27659 0.0
Cd60 Cd 0.80892 0.08064 0.22977 0.0
C61 C 0.84154 0.1067 0.28298 0.0
O62 O 0.81112 0.0899 0.13684 0.0
O63 O 0.82328 0.07882 0.15406 0.0
O64 O 0.78576 0.05775 0.22275 0.0
C65 C 0.81937 0.0852 0.11919 0.0
O66 O 0.84199 0.11529 0.24493 0.0
C67 C 0.79008 0.05027 0.2499 0.0
O68 O 0.83046 0.09385 0.28823 0.0
O69 O 0.80308 0.05708 0.26897 0.0
C70 C 0.88245 0.69993 0.28045 0.0
O71 O 0.87263 0.69899 0.24733 0.0
Cd72 Cd 0.87487 0.71853 0.18908 0.0
O73 O 0.89497 0.7116 0.28242 0.0
Cd74 Cd 0.90795 0.73593 0.23639 0.0
C75 C 0.88314 0.74368 0.29292 0.0
O76 O 0.89807 0.72906 0.1445 0.0
O77 O 0.90934 0.75229 0.16117 0.0
O78 O 0.93024 0.7347 0.22546 0.0
C79 C 0.90266 0.74196 0.12666 0.0
O80 O 0.87426 0.73576 0.25515 0.0
C81 C 0.93836 0.74649 0.25173 0.0
O82 O 0.89578 0.74491 0.29746 0.0
O83 O 0.93218 0.75313 0.27245 0.0
C84 C 0.8062 0.70048 0.77353 0.0
O85 O 0.81484 0.69939 0.73963 0.0
Cd86 Cd 0.83272 0.71917 0.68376 0.0
O87 O 0.80587 0.71241 0.77732 0.0
Cd88 Cd 0.81781 0.73716 0.73454 0.0
C89 C 0.84981 0.74313 0.79122 0.0
O90 O 0.82079 0.73086 0.64198 0.0
O91 O 0.83318 0.75395 0.66089 0.0
O92 O 0.79454 0.73652 0.72487 0.0
C93 C 0.82943 0.74382 0.62541 0.0
O94 O 0.85052 0.7353 0.75249 0.0
C95 C 0.79839 0.74812 0.75275 0.0
O96 O 0.83873 0.74492 0.79594 0.0
O97 O 0.81122 0.7544 0.77355 0.0
C98 C 0.29511 0.10443 0.77117 0.0
O99 O 0.29694 0.11426 0.7364 0.0
Cd100 Cd 0.27811 0.11249 0.67484 0.0
O101 O 0.28313 0.09218 0.77222 0.0
Cd102 Cd 0.25935 0.07955 0.72309 0.0
C103 C 0.25291 0.10553 0.77719 0.0
O104 O 0.26669 0.08911 0.63087 0.0
O105 O 0.24342 0.07835 0.64717 0.0
O106 O 0.26012 0.05695 0.71496 0.0
C107 C 0.25384 0.08477 0.61279 0.0
O108 O 0.26121 0.11417 0.73953 0.0
C109 C 0.24815 0.04912 0.74068 0.0
O110 O 0.25096 0.09261 0.78212 0.0
O111 O 0.24161 0.0556 0.75962 0.0
C112 C 0.87842 0.18002 0.7791 0.0
O113 O 0.86844 0.17257 0.74396 0.0
Cd114 Cd 0.86909 0.15511 0.68124 0.0
O115 O 0.89019 0.17936 0.78033 0.0
Cd116 Cd 0.90182 0.16716 0.73169 0.0
C117 C 0.87411 0.13514 0.78236 0.0
O118 O 0.89279 0.16641 0.63983 0.0
O119 O 0.9027 0.15299 0.65268 0.0
O120 O 0.9251 0.18987 0.72802 0.0
C121 C 0.89662 0.15771 0.6197 0.0
O122 O 0.86588 0.13567 0.74485 0.0
C123 C 0.93222 0.18491 0.75393 0.0
O124 O 0.88735 0.14548 0.78795 0.0
O125 O 0.92506 0.17169 0.77063 0.0
C126 C 0.69297 0.80682 0.73185 0.0
O127 O 0.69058 0.81456 0.76602 0.0
Cd128 Cd 0.70882 0.83232 0.8276 0.0
O129 O 0.70531 0.80728 0.73142 0.0
Cd130 Cd 0.72902 0.81963 0.78122 0.0
C131 C 0.73389 0.85135 0.72575 0.0
O132 O 0.72119 0.82153 0.87301 0.0
O133 O 0.7444 0.83502 0.85703 0.0
O134 O 0.72944 0.79689 0.79078 0.0
C135 C 0.73388 0.83059 0.89117 0.0
O136 O 0.72528 0.85125 0.76302 0.0
C137 C 0.74155 0.80148 0.76554 0.0
O138 O 0.73652 0.84081 0.72128 0.0
O139 O 0.74764 0.81446 0.74623 0.0
C140 C 0.18262 0.88323 0.71683 0.0
O141 O 0.17402 0.87338 0.75046 0.0
Cd142 Cd 0.15687 0.87554 0.81008 0.0
O143 O 0.18335 0.89569 0.71551 0.0
Cd144 Cd 0.17222 0.90863 0.76302 0.0
C145 C 0.13967 0.88362 0.7069 0.0
O146 O 0.16922 0.89874 0.85506 0.0
O147 O 0.15724 0.90999 0.83779 0.0
O148 O 0.19576 0.93096 0.77363 0.0
C149 C 0.16083 0.90329 0.87249 0.0
O150 O 0.13884 0.87475 0.74451 0.0
C151 C 0.19204 0.93901 0.74707 0.0
O152 O 0.15099 0.89633 0.7024 0.0
O153 O 0.17919 0.93279 0.72658 0.0
C154 C 0.0822 0.2825 0.65945 0.0
O155 O 0.08253 0.28477 0.71089 0.0
Cd156 Cd 0.07864 0.26033 0.72968 0.0
O157 O 0.07891 0.2697 0.64392 0.0
Cd158 Cd 0.07293 0.25067 0.72425 0.0
C159 C 0.09262 0.24761 0.64555 0.0
O160 O 0.08822 0.26159 0.81374 0.0
O161 O 0.08174 0.23924 0.79243 0.0
O162 O 0.05053 0.24992 0.7574 0.0
C163 C 0.08809 0.24982 0.82627 0.0
O164 O 0.09724 0.26007 0.66758 0.0
C165 C 0.04207 0.23679 0.74167 0.0
O166 O 0.07997 0.23742 0.65911 0.0
O167 O 0.048 0.23026 0.71823 0.0
C168 C 0.84346 0.62249 0.5748 0.0
O169 O 0.83495 0.62369 0.60899 0.0
Cd170 Cd 0.81701 0.6041 0.66541 0.0
O171 O 0.84357 0.61046 0.57054 0.0
Cd172 Cd 0.83116 0.5856 0.6126 0.0
C173 C 0.79911 0.58041 0.55834 0.0
O174 O 0.82884 0.5921 0.70564 0.0
O175 O 0.81615 0.56899 0.68743 0.0
O176 O 0.85397 0.58511 0.61905 0.0
C177 C 0.8202 0.5792 0.72276 0.0
O178 O 0.79867 0.58831 0.59743 0.0
C179 C 0.8495 0.57359 0.58999 0.0
O180 O 0.81001 0.57837 0.55301 0.0
O181 O 0.83658 0.56787 0.57037 0.0
C182 C 0.36211 0.21935 0.5947 0.0
O183 O 0.36021 0.20955 0.62979 0.0
Cd184 Cd 0.37898 0.2112 0.69147 0.0
O185 O 0.37421 0.23148 0.593 0.0
Cd186 Cd 0.39822 0.24405 0.64065 0.0
C187 C 0.40385 0.2172 0.58888 0.0
O188 O 0.39066 0.23492 0.73306 0.0
O189 O 0.41399 0.24576 0.71836 0.0
O190 O 0.39808 0.26706 0.64433 0.0
C191 C 0.40343 0.23933 0.75214 0.0
O192 O 0.39549 0.20876 0.62684 0.0
C193 C 0.40991 0.2743 0.61711 0.0
O194 O 0.40609 0.23022 0.58349 0.0
O195 O 0.41616 0.26734 0.60016 0.0
C196 C 0.76455 0.1422 0.59435 0.0
O197 O 0.77453 0.14952 0.62965 0.0
Cd198 Cd 0.77426 0.16718 0.69231 0.0
O199 O 0.75292 0.14312 0.59283 0.0
Cd200 Cd 0.74164 0.15577 0.64115 0.0
C201 C 0.77 0.18754 0.5908 0.0
O202 O 0.75048 0.15621 0.73306 0.0
O203 O 0.74088 0.16992 0.72058 0.0
O204 O 0.71793 0.13343 0.64342 0.0
C205 C 0.74682 0.16501 0.75342 0.0
O206 O 0.77808 0.18681 0.62851 0.0
C207 C 0.71126 0.13875 0.61668 0.0
O208 O 0.75666 0.17742 0.58518 0.0
O209 O 0.71883 0.15201 0.6007 0.0
C210 C 0.95224 0.51252 0.58167 0.0
O211 O 0.95469 0.50492 0.54701 0.0
Cd212 Cd 0.93653 0.48729 0.48498 0.0
O213 O 0.93984 0.51195 0.5826 0.0
Cd214 Cd 0.91601 0.49966 0.53354 0.0
C215 C 0.91158 0.46782 0.58689 0.0
O216 O 0.9243 0.49856 0.44205 0.0
O217 O 0.90096 0.48514 0.45502 0.0
O218 O 0.91568 0.52252 0.52798 0.0
C219 C 0.91176 0.4898 0.42207 0.0
O220 O 0.92025 0.46815 0.54944 0.0
C221 C 0.90353 0.51771 0.55321 0.0
O222 O 0.90874 0.47822 0.59177 0.0
O223 O 0.89732 0.50451 0.5703 0.0
C224 C 0.4681 0.43813 0.58718 0.0
O225 O 0.4758 0.44797 0.55195 0.0
Cd226 Cd 0.49313 0.44686 0.48988 0.0
O227 O 0.46837 0.42615 0.58891 0.0
Cd228 Cd 0.48031 0.4141 0.54098 0.0
C229 C 0.5125 0.44156 0.59236 0.0
O230 O 0.4816 0.42312 0.44858 0.0
O231 O 0.49465 0.41288 0.46331 0.0
O232 O 0.45763 0.3906 0.53752 0.0
C233 C 0.49025 0.41907 0.42952 0.0
O234 O 0.51234 0.44986 0.55432 0.0
C235 C 0.46265 0.38375 0.56489 0.0
O236 O 0.50194 0.42843 0.59784 0.0
O237 O 0.47583 0.39114 0.58183 0.0
C238 C 0.55034 0.03039 0.58142 0.0
O239 O 0.53999 0.02713 0.54715 0.0
Cd240 Cd 0.53897 0.04422 0.48342 0.0
O241 O 0.56167 0.04317 0.58138 0.0
Cd242 Cd 0.57149 0.06671 0.53111 0.0
C243 C 0.54255 0.06881 0.58346 0.0
O244 O 0.56233 0.05767 0.43974 0.0
O245 O 0.57104 0.08091 0.45149 0.0
O246 O 0.59584 0.06954 0.52713 0.0
C247 C 0.56539 0.06996 0.41909 0.0
O248 O 0.53451 0.05975 0.54633 0.0
C249 C 0.60208 0.08167 0.55308 0.0
O250 O 0.55605 0.07255 0.58823 0.0
O251 O 0.594 0.08674 0.56942 0.0
C252 C 0.46366 0.02587 0.0772 0.0
O253 O 0.47138 0.02339 0.04325 0.0
Cd254 Cd 0.48931 0.04137 0.98122 0.0
O255 O 0.4644 0.03834 0.07808 0.0
Cd256 Cd 0.47769 0.06229 0.03035 0.0
C257 C 0.50933 0.06572 0.08289 0.0
O258 O 0.47873 0.05429 0.93771 0.0
O259 O 0.49235 0.07752 0.95282 0.0
O260 O 0.45594 0.06482 0.02687 0.0
C261 C 0.48766 0.06694 0.91889 0.0
O262 O 0.50896 0.05714 0.045 0.0
C263 C 0.46162 0.07665 0.05473 0.0
O264 O 0.49903 0.06869 0.08786 0.0
O265 O 0.4747 0.08162 0.07174 0.0
C266 C 0.95743 0.43606 0.07696 0.0
O267 O 0.95909 0.44598 0.04291 0.0
Cd268 Cd 0.94003 0.44435 0.98264 0.0
O269 O 0.94538 0.42389 0.07876 0.0
Cd270 Cd 0.92113 0.41162 0.033 0.0
C271 C 0.91541 0.43832 0.08575 0.0
O272 O 0.92817 0.42071 0.93999 0.0
O273 O 0.90493 0.40981 0.95698 0.0
O274 O 0.92075 0.38832 0.02866 0.0
C275 C 0.91526 0.41623 0.92226 0.0
O276 O 0.9236 0.44681 0.04755 0.0
C277 C 0.90915 0.38138 0.0574 0.0
O278 O 0.91339 0.42538 0.09102 0.0
O279 O 0.90328 0.38862 0.07521 0.0
C280 C 0.54764 0.51807 0.08858 0.0
O281 O 0.53745 0.5102 0.05477 0.0
Cd282 Cd 0.53807 0.4925 0.9932 0.0
O283 O 0.55953 0.51764 0.08906 0.0
Cd284 Cd 0.57086 0.50514 0.04044 0.0
C285 C 0.54381 0.47321 0.09462 0.0
O286 O 0.56138 0.50363 0.94835 0.0
O287 O 0.57147 0.49042 0.9633 0.0
O288 O 0.59417 0.52787 0.03353 0.0
C289 C 0.56533 0.49488 0.92949 0.0
O290 O 0.53534 0.47333 0.05721 0.0
C291 C 0.60142 0.5231 0.0596 0.0
O292 O 0.55696 0.48377 0.09934 0.0
O293 O 0.59434 0.51001 0.07777 0.0
C294 C 0.36394 0.14177 0.09412 0.0
O295 O 0.36151 0.14941 0.12863 0.0
Cd296 Cd 0.37989 0.16707 0.19033 0.0
O297 O 0.37635 0.14238 0.09311 0.0
Cd298 Cd 0.40031 0.15465 0.14077 0.0
C299 C 0.4047 0.18659 0.08824 0.0
O300 O 0.39233 0.15588 0.23274 0.0
O301 O 0.41568 0.1689 0.21894 0.0
O302 O 0.40054 0.13172 0.14462 0.0
C303 C 0.40498 0.16452 0.25222 0.0
O304 O 0.39605 0.18627 0.12579 0.0
C305 C 0.41242 0.13644 0.11764 0.0
O306 O 0.40751 0.17618 0.08319 0.0
O307 O 0.41862 0.14968 0.10101 0.0
C308 C 0.84551 0.21701 0.09871 0.0
O309 O 0.8373 0.20727 0.13343 0.0
Cd310 Cd 0.82035 0.2095 0.19425 0.0
O311 O 0.84586 0.22929 0.09661 0.0
Cd312 Cd 0.83466 0.24226 0.14242 0.0
C313 C 0.80187 0.21576 0.0911 0.0
O314 O 0.83292 0.23332 0.2353 0.0
O315 O 0.82109 0.24482 0.21991 0.0
O316 O 0.858 0.26514 0.14437 0.0
C317 C 0.82493 0.23821 0.25404 0.0
O318 O 0.8015 0.20726 0.12939 0.0
C319 C 0.85346 0.27229 0.11624 0.0
O320 O 0.81288 0.22863 0.08557 0.0
O321 O 0.8402 0.26535 0.09984 0.0
C322 C 0.7672 0.62306 0.06816 0.0
O323 O 0.77693 0.62405 0.10188 0.0
Cd324 Cd 0.77459 0.60458 0.16085 0.0
O325 O 0.75472 0.61135 0.06566 0.0
Cd326 Cd 0.74161 0.58692 0.11082 0.0
C327 C 0.76711 0.57961 0.05711 0.0
O328 O 0.75104 0.59402 0.20297 0.0
O329 O 0.73959 0.57071 0.18788 0.0
O330 O 0.71898 0.58773 0.1173 0.0
C331 C 0.74629 0.58118 0.22183 0.0
O332 O 0.77582 0.58757 0.09523 0.0
C333 C 0.71136 0.57603 0.08977 0.0
O334 O 0.75442 0.57822 0.05195 0.0
O335 O 0.71796 0.5696 0.07101 0.0
C336 C 0.51921 0.96505 0.91251 0.0
O337 O 0.51146 0.9675 0.94646 0.0
Cd338 Cd 0.49353 0.94942 0.00816 0.0
O339 O 0.51854 0.95262 0.91168 0.0
Cd340 Cd 0.5055 0.92868 0.95958 0.0
C341 C 0.47387 0.92496 0.90595 0.0
O342 O 0.50419 0.93663 0.05193 0.0
O343 O 0.4907 0.91339 0.03681 0.0
O344 O 0.52756 0.92674 0.96457 0.0
C345 C 0.49526 0.92398 0.07068 0.0
O346 O 0.47414 0.93353 0.94374 0.0
C347 C 0.5222 0.91486 0.93713 0.0
O348 O 0.48422 0.92206 0.90124 0.0
O349 O 0.50914 0.90957 0.91949 0.0
C350 C 0.02207 0.5484 0.90119 0.0
O351 O 0.02034 0.53846 0.93529 0.0
Cd352 Cd 0.0393 0.53991 -0.00454 0.0
O353 O 0.03417 0.56053 0.8994 0.0
Cd354 Cd 0.05836 0.57266 0.94563 0.0
C355 C 0.06387 0.54589 0.89212 0.0
O356 O 0.05112 0.56348 0.03846 0.0
O357 O 0.07437 0.57418 0.02197 0.0
O358 O 0.05878 0.59595 0.95102 0.0
C359 C 0.06399 0.56788 0.05651 0.0
O360 O 0.05566 0.53741 0.93028 0.0
C361 C 0.07055 0.60304 0.92328 0.0
O362 O 0.06601 0.55888 0.88705 0.0
O363 O 0.07644 0.59586 0.90507 0.0
C364 C 0.43613 0.47496 0.9098 0.0
O365 O 0.44626 0.48273 0.94399 0.0
Cd366 Cd 0.44563 0.50036 0.00607 0.0
O367 O 0.4243 0.4755 0.90892 0.0
Cd368 Cd 0.41293 0.48807 0.95676 0.0
C369 C 0.44053 0.52012 0.90489 0.0
O370 O 0.42206 0.48919 0.0491 0.0
O371 O 0.41187 0.50232 0.03487 0.0
O372 O 0.38932 0.46554 0.96008 0.0
C373 C 0.41805 0.49784 0.06841 0.0
O374 O 0.44886 0.51982 0.9425 0.0
C375 C 0.38256 0.47066 0.93277 0.0
O376 O 0.42735 0.50965 0.89966 0.0
O377 O 0.39002 0.48387 0.91619 0.0
C378 C 0.62234 0.85157 0.9083 0.0
O379 O 0.62482 0.84406 0.87331 0.0
Cd380 Cd 0.6066 0.82649 0.81114 0.0
O381 O 0.60994 0.85098 0.90942 0.0
Cd382 Cd 0.58605 0.83886 0.86093 0.0
C383 C 0.58181 0.80697 0.91348 0.0
O384 O 0.59419 0.83773 0.76923 0.0
O385 O 0.57084 0.82453 0.78243 0.0
O386 O 0.58566 0.86171 0.85691 0.0
C387 C 0.58161 0.82902 0.7494 0.0
O388 O 0.59047 0.80732 0.87588 0.0
C389 C 0.57367 0.85687 0.88332 0.0
O390 O 0.57893 0.81734 0.91847 0.0
O391 O 0.56753 0.84363 0.89993 0.0
C392 C 0.13727 0.76835 0.90816 0.0
O393 O 0.14568 0.77813 0.87396 0.0
Cd394 Cd 0.16279 0.77598 0.81408 0.0
O395 O 0.13675 0.75598 0.91011 0.0
Cd396 Cd 0.14792 0.74296 0.8638 0.0
C397 C 0.18058 0.76879 0.9177 0.0
O398 O 0.15019 0.75242 0.77159 0.0
O399 O 0.16206 0.74098 0.78688 0.0
O400 O 0.12436 0.72042 0.85795 0.0
C401 C 0.15833 0.74771 0.75291 0.0
O402 O 0.18115 0.77746 0.87974 0.0
C403 C 0.12844 0.71274 0.88514 0.0
O404 O 0.16944 0.75597 0.92264 0.0
O405 O 0.14155 0.71925 0.90323 0.0
C406 C 0.22012 0.36558 0.89578 0.0
O407 O 0.20984 0.36325 0.86238 0.0
Cd408 Cd 0.20985 0.38137 0.80143 0.0
O409 O 0.23191 0.378 0.89671 0.0
Cd410 Cd 0.24283 0.40206 0.84931 0.0
C411 C 0.2153 0.40625 0.90323 0.0
O412 O 0.23326 0.39389 0.75781 0.0
O413 O 0.2431 0.41718 0.7713 0.0
O414 O 0.26666 0.40366 0.84378 0.0
C415 C 0.23683 0.40642 0.73825 0.0
O416 O 0.20686 0.39758 0.86593 0.0
C417 C 0.27334 0.4155 0.87138 0.0
O418 O 0.22852 0.40904 0.9078 0.0
O419 O 0.26574 0.42099 0.889 0.0
C420 C 0.1353 0.36245 0.382 0.0
O421 O 0.1446 0.36132 0.35198 0.0
Cd422 Cd 0.16319 0.38044 0.29575 0.0
O423 O 0.13512 0.37447 0.38433 0.0
Cd424 Cd 0.14932 0.39965 0.34601 0.0
C425 C 0.18081 0.40366 0.40343 0.0
O426 O 0.15201 0.39289 0.25389 0.0
O427 O 0.1646 0.41606 0.27095 0.0
O428 O 0.12712 0.40128 0.33844 0.0
C429 C 0.16074 0.40572 0.23638 0.0
O430 O 0.18141 0.39593 0.36413 0.0
C431 C 0.13184 0.41269 0.36833 0.0
O432 O 0.16998 0.40586 0.40797 0.0
O433 O 0.14465 0.41788 0.38858 0.0
C434 C 0.62476 0.7726 0.40748 0.0
O435 O 0.62695 0.78266 0.37326 0.0
Cd436 Cd 0.60846 0.78181 0.31188 0.0
O437 O 0.61248 0.76066 0.40854 0.0
Cd438 Cd 0.58851 0.74903 0.3607 0.0
C439 C 0.58367 0.77623 0.41399 0.0
O440 O 0.5962 0.75833 0.26827 0.0
O441 O 0.57292 0.74806 0.28375 0.0
O442 O 0.58774 0.72558 0.35523 0.0
C443 C 0.58345 0.75428 0.2497 0.0
O444 O 0.59217 0.78465 0.37628 0.0
C445 C 0.57589 0.71857 0.38255 0.0
O446 O 0.58114 0.7631 0.41894 0.0
O447 O 0.57006 0.72584 0.40039 0.0
C448 C 0.21704 0.84486 0.40652 0.0
O449 O 0.20709 0.83697 0.37191 0.0
Cd450 Cd 0.20782 0.81897 0.31257 0.0
O451 O 0.22888 0.84433 0.40909 0.0
Cd452 Cd 0.24064 0.83172 0.36369 0.0
C453 C 0.21306 0.79999 0.41724 0.0
O454 O 0.23153 0.83007 0.27141 0.0
O455 O 0.24155 0.81687 0.28695 0.0
O456 O 0.26398 0.85443 0.35812 0.0
C457 C 0.23537 0.82123 0.25289 0.0
O458 O 0.20479 0.80014 0.37901 0.0
C459 C 0.27106 0.84975 0.38593 0.0
O460 O 0.22625 0.81045 0.42236 0.0
O461 O 0.26388 0.83668 0.40414 0.0
C462 C 0.02737 0.47141 0.39644 0.0
O463 O 0.0248 0.47883 0.4316 0.0
Cd464 Cd 0.04275 0.49643 0.49429 0.0
O465 O 0.03984 0.47215 0.39515 0.0
Cd466 Cd 0.06371 0.48463 0.44417 0.0
C467 C 0.0675 0.51644 0.39268 0.0
O468 O 0.05533 0.48535 0.53589 0.0
O469 O 0.07864 0.499 0.52328 0.0
O470 O 0.06493 0.46218 0.44734 0.0
C471 C 0.06781 0.49419 0.55612 0.0
O472 O 0.05877 0.5159 0.43031 0.0
C473 C 0.07703 0.46746 0.42144 0.0
O474 O 0.07055 0.5062 0.38737 0.0
O475 O 0.08281 0.48072 0.40536 0.0
C476 C 0.51552 0.55465 0.41127 0.0
O477 O 0.50783 0.5448 0.44651 0.0
Cd478 Cd 0.49048 0.54593 0.50836 0.0
O479 O 0.51519 0.5666 0.40946 0.0
Cd480 Cd 0.50326 0.57868 0.4571 0.0
C481 C 0.4711 0.55117 0.40564 0.0
O482 O 0.50214 0.56971 0.54938 0.0
O483 O 0.48915 0.58005 0.53538 0.0
O484 O 0.52607 0.60203 0.46005 0.0
C485 C 0.49361 0.57385 0.56889 0.0
O486 O 0.47129 0.54288 0.44369 0.0
C487 C 0.52113 0.60901 0.43313 0.0
O488 O 0.48162 0.56432 0.40021 0.0
O489 O 0.50789 0.60176 0.41661 0.0
C490 C 0.43227 0.96055 0.40823 0.0
O491 O 0.44264 0.96381 0.4424 0.0
Cd492 Cd 0.44379 0.94674 0.50582 0.0
O493 O 0.42096 0.94776 0.40828 0.0
Cd494 Cd 0.41126 0.92424 0.4587 0.0
C495 C 0.44012 0.92219 0.40549 0.0
O496 O 0.42054 0.9332 0.55014 0.0
O497 O 0.41201 0.91002 0.53764 0.0
O498 O 0.38686 0.9213 0.46374 0.0
C499 C 0.41761 0.9209 0.57034 0.0
O500 O 0.44818 0.93123 0.44262 0.0
C501 C 0.38059 0.90913 0.43811 0.0
O502 O 0.42662 0.91844 0.40087 0.0
O503 O 0.38868 0.90411 0.42132 0.0
C504 C 0.22531 0.19253 0.27335 0.0
C505 C 0.23805 0.19706 0.24187 0.0
C506 C 0.21807 0.20067 0.27351 0.0
C507 C 0.22363 0.21354 0.2409 0.0
C508 C 0.23667 0.21836 0.21005 0.0
C509 C 0.24378 0.21009 0.21115 0.0
C510 C 0.20428 0.19533 0.30753 0.0
C511 C 0.24285 0.23198 0.1745 0.0
C512 C 0.19617 0.22482 0.19582 0.0
C513 C 0.19915 0.2362 0.23295 0.0
C514 C 0.20426 0.21753 0.19734 0.0
C515 C 0.21546 0.22163 0.23737 0.0
C516 C 0.21865 0.23323 0.27452 0.0
C517 C 0.2105 0.24045 0.27165 0.0
C518 C 0.20069 0.20531 0.15657 0.0
C519 C 0.23044 0.23779 0.31804 0.0
H520 H 0.22088 0.1825 0.29736 0.0
H521 H 0.25361 0.21363 0.18662 0.0
H522 H 0.20531 0.20421 0.33515 0.0
H523 H 0.19478 0.19232 0.2799 0.0
H524 H 0.2019 0.18561 0.33314 0.0
H525 H 0.25343 0.23457 0.15485 0.0
H526 H 0.23488 0.23044 0.14151 0.0
H527 H 0.24461 0.24155 0.19957 0.0
H528 H 0.18744 0.22154 0.16571 0.0
H529 H 0.21281 0.24921 0.30061 0.0
H530 H 0.19689 0.19482 0.17898 0.0
H531 H 0.21069 0.20762 0.13317 0.0
H532 H 0.19203 0.20386 0.12672 0.0
H533 H 0.22769 0.22844 0.34621 0.0
H534 H 0.23177 0.24725 0.343 0.0
H535 H 0.24112 0.24082 0.29841 0.0
C536 C 0.78486 0.02655 0.29242 0.0
C537 C 0.78079 0.03422 0.25585 0.0
C538 C 0.77687 0.01118 0.29496 0.0
C539 C 0.76467 0.00334 0.2595 0.0
C540 C 0.76028 0.01105 0.22353 0.0
C541 C 0.76835 0.02643 0.22241 0.0
C542 C 0.78173 0.00331 0.3345 0.0
C543 C 0.7474 0.00303 0.18479 0.0
C544 C 0.75556 0.96452 0.2256 0.0
C545 C 0.74369 0.95626 0.261 0.0
C546 C 0.76221 0.97985 0.22354 0.0
C547 C 0.75698 0.98707 0.2583 0.0
C548 C 0.74481 0.97878 0.29333 0.0
C549 C 0.73824 0.96343 0.29398 0.0
C550 C 0.77504 0.98836 0.18503 0.0
C551 C 0.73905 0.98613 0.33134 0.0
H552 H 0.79443 0.03254 0.31856 0.0
H553 H 0.7652 0.03233 0.19391 0.0
H554 H 0.77236 -0.00445 0.36061 0.0
H555 H 0.7855 -0.00324 0.31093 0.0
H556 H 0.79081 0.01104 0.36186 0.0
H557 H 0.74493 0.01066 0.16156 0.0
H558 H 0.74979 -0.00346 0.15471 0.0
H559 H 0.73746 -0.00481 0.20813 0.0
H560 H 0.75974 0.959 0.19982 0.0
H561 H 0.72909 0.95709 0.32157 0.0
H562 H 0.78509 -0.00456 0.20939 0.0
H563 H 0.77295 -0.00433 0.15817 0.0
H564 H 0.7772 0.98104 0.15841 0.0
H565 H 0.74766 0.99307 0.3617 0.0
H566 H 0.7291 0.97806 0.35425 0.0
H567 H 0.73635 0.99347 0.30744 0.0
C568 C 0.96139 0.74741 0.22013 0.0
C569 C 0.95442 0.75274 0.25478 0.0
C570 C 0.97674 0.75419 0.21847 0.0
C571 C 0.98527 0.76645 0.25282 0.0
C572 C 0.97828 0.77152 0.28947 0.0
C573 C 0.96291 0.76466 0.28973 0.0
C574 C 0.98384 0.74857 0.17856 0.0
C575 C 0.98703 0.78443 0.32735 0.0
C576 C 0.0252 0.77854 0.28097 0.0
C577 C 0.03241 0.79092 0.24676 0.0
C578 C 0.00982 0.77028 0.2827 0.0
C579 C 0.00152 0.77442 0.24886 0.0
C580 C 0.00875 0.78657 0.21274 0.0
C581 C 0.02413 0.79475 0.2124 0.0
C582 C 0.00247 0.75746 0.32208 0.0
C583 C 0.00023 0.79116 0.17543 0.0
H584 H 0.95486 0.73823 0.19288 0.0
H585 H 0.95756 0.76876 0.31679 0.0
H586 H 0.99024 0.75715 0.14731 0.0
H587 H -0.00835 0.74618 0.20066 0.0
H588 H 0.97565 0.73846 0.15675 0.0
H589 H 0.97991 0.7864 0.35581 0.0
H590 H -0.00518 0.78258 0.35231 0.0
H591 H -0.00636 0.7945 0.30247 0.0
H592 H 0.03156 0.77556 0.30777 0.0
H593 H 0.02967 0.80427 0.18569 0.0
H594 H -0.00549 0.7474 0.29961 0.0
H595 H -0.00379 0.75973 0.3536 0.0
H596 H 0.0105 0.75524 0.34358 0.0
H597 H -0.0077 0.78171 0.15007 0.0
H598 H 0.00751 0.8003 0.14737 0.0
H599 H -0.0062 0.79475 0.20076 0.0
C600 C 0.77638 0.74955 0.7237 0.0
C601 C 0.78873 0.75449 0.75789 0.0
C602 C 0.76784 0.75637 0.72447 0.0
C603 C 0.77166 0.76828 0.76085 0.0
C604 C 0.7838 0.77297 0.79691 0.0
C605 C 0.79227 0.76608 0.79472 0.0
C606 C 0.75505 0.75117 0.6851 0.0
C607 C 0.78806 0.78549 0.83687 0.0
C608 C 0.76077 0.79672 0.72683 0.0
C609 C 0.74861 0.79241 0.76144 0.0
C610 C 0.76815 0.78872 0.72525 0.0
C611 C 0.76336 0.77626 0.75966 0.0
C612 C 0.75094 0.77171 0.794 0.0
C613 C 0.74364 0.7798 0.79419 0.0
C614 C 0.78124 0.79376 0.68748 0.0
C615 C 0.74562 0.75856 0.83163 0.0
H616 H 0.77363 0.74062 0.69501 0.0
H617 H 0.80176 0.76988 0.82143 0.0
H618 H 0.74487 0.74846 0.70807 0.0
H619 H 0.75713 0.76009 0.65564 0.0
H620 H 0.75314 0.74135 0.66118 0.0
H621 H 0.79723 0.78719 0.86444 0.0
H622 H 0.79145 0.7958 0.81365 0.0
H623 H 0.77849 0.78339 0.86275 0.0
H624 H 0.7646 0.80642 0.70126 0.0
H625 H 0.73427 0.77646 0.8212 0.0
H626 H 0.77969 0.78461 0.66019 0.0
H627 H 0.79128 0.79704 0.71237 0.0
H628 H 0.78309 0.80321 0.6613 0.0
H629 H 0.74338 0.74869 0.80742 0.0
H630 H 0.73549 0.75618 0.85439 0.0
H631 H 0.7543 0.76052 0.86211 0.0
C632 C 0.24686 0.02571 0.71212 0.0
C633 C 0.24163 0.03306 0.74519 0.0
C634 C 0.23984 0.01032 0.71182 0.0
C635 C 0.22744 0.00217 0.74595 0.0
C636 C 0.22248 0.00955 0.78109 0.0
C637 C 0.22958 0.02493 0.78 0.0
C638 C 0.24535 0.0028 0.67346 0.0
C639 C 0.20941 0.0012 0.8187 0.0
C640 C 0.1985 0.9634 0.70731 0.0
C641 C 0.20188 0.95505 0.74317 0.0
C642 C 0.20706 0.97876 0.70651 0.0
C643 C 0.21914 0.9859 0.74301 0.0
C644 C 0.22284 0.97751 0.77831 0.0
C645 C 0.2142 0.96215 0.7777 0.0
C646 C 0.20293 0.98736 0.66765 0.0
C647 C 0.23557 0.98477 0.81811 0.0
H648 H 0.25615 0.03195 0.68499 0.0
H649 H 0.22556 0.03058 0.80587 0.0
H650 H 0.24737 -0.0051 0.69674 0.0
H651 H 0.23685 -0.00356 0.6419 0.0
H652 H 0.25564 0.01074 0.65197 0.0
H653 H 0.20758 0.0086 0.84617 0.0
H654 H 0.19937 -0.00534 0.79359 0.0
H655 H 0.21095 0.99338 0.8447 0.0
H656 H 0.18903 0.95795 0.68033 0.0
H657 H 0.21683 0.95573 0.80564 0.0
H658 H 0.21257 -0.00498 0.64246 0.0
H659 H 0.19949 0.9941 0.69178 0.0
H660 H 0.19383 0.98012 0.63941 0.0
H661 H 0.24577 0.99249 0.7958 0.0
H662 H 0.23748 0.97666 0.8406 0.0
H663 H 0.2334 0.9913 0.8488 0.0
C664 C 0.0199 0.23512 0.78663 0.0
C665 C 0.02604 0.22951 0.74917 0.0
C666 C 0.00463 0.22836 0.79325 0.0
C667 C -0.00465 0.21593 0.76077 0.0
C668 C 0.00151 0.21021 0.72305 0.0
C669 C 0.0168 0.217 0.71811 0.0
C670 C -0.00159 0.23455 0.83462 0.0
C671 C -0.00805 0.19711 0.68705 0.0
C672 C 0.95566 0.18924 0.7968 0.0
C673 C 0.94828 0.19381 0.76081 0.0
C674 C 0.97105 0.19684 0.79947 0.0
C675 C 0.97917 0.20909 0.76452 0.0
C676 C 0.97175 0.21406 0.72961 0.0
C677 C 0.95637 0.20643 0.72855 0.0
C678 C 0.97861 0.19143 0.83805 0.0
C679 C 0.98005 0.22697 0.69122 0.0
H680 H 0.02705 0.24474 0.81099 0.0
H681 H 0.02151 0.21268 0.68895 0.0
H682 H -0.00825 0.23851 0.813 0.0
H683 H 0.99101 0.22583 0.86379 0.0
H684 H 0.00714 0.2438 0.85866 0.0
H685 H -0.0015 0.19403 0.65985 0.0
H686 H 0.98468 0.1875 0.71312 0.0
H687 H 0.98478 0.19954 0.66075 0.0
H688 H 0.94942 0.17956 0.82217 0.0
H689 H 0.95071 0.20999 0.70062 0.0
H690 H 0.98714 0.20068 0.86259 0.0
H691 H 0.98422 0.18674 0.81367 0.0
H692 H 0.97077 0.18285 0.86684 0.0
H693 H 0.98836 0.23667 0.7145 0.0
H694 H 0.97266 0.23002 0.66934 0.0
H695 H 0.98602 0.22424 0.65994 0.0
C696 C 0.87097 0.57077 0.61515 0.0
C697 C 0.8586 0.56669 0.58184 0.0
C698 C 0.87903 0.56347 0.61101 0.0
C699 C 0.87472 0.552 0.57209 0.0
C700 C 0.86254 0.54817 0.53707 0.0
C701 C 0.85455 0.5555 0.54266 0.0
C702 C 0.89187 0.56774 0.64941 0.0
C703 C 0.85778 0.53614 0.49445 0.0
C704 C 0.90183 0.53995 0.53022 0.0
C705 C 0.89667 0.52689 0.56035 0.0
C706 C 0.89487 0.54833 0.53396 0.0
C707 C 0.8826 0.54361 0.56926 0.0
C708 C 0.87758 0.53064 0.60088 0.0
C709 C 0.88462 0.52237 0.59573 0.0
C710 C 0.90041 0.56202 0.49918 0.0
C711 C 0.86464 0.5254 0.63957 0.0
H712 H 0.8741 0.57937 0.64566 0.0
H713 H 0.84505 0.55237 0.51663 0.0
H714 H 0.88961 0.5583 0.67637 0.0
H715 H 0.9019 0.57054 0.62532 0.0
H716 H 0.89412 0.57725 0.67598 0.0
H717 H 0.84861 0.53509 0.46834 0.0
H718 H 0.86715 0.53832 0.46728 0.0
H719 H 0.85418 0.52548 0.51532 0.0
H720 H 0.91111 0.54346 0.50262 0.0
H721 H 0.88064 0.51231 0.6193 0.0
H722 H 0.90312 0.57163 0.52581 0.0
H723 H 0.89168 0.56077 0.47017 0.0
H724 H 0.91032 0.56438 0.47488 0.0
H725 H 0.86656 0.53421 0.66931 0.0
H726 H 0.86256 0.51547 0.66313 0.0
H727 H 0.85461 0.52279 0.61573 0.0
C728 C 0.42784 0.2974 0.56916 0.0
C729 C 0.41642 0.29021 0.6074 0.0
C730 C 0.43464 0.31263 0.56154 0.0
C731 C 0.43003 0.32086 0.59356 0.0
C732 C 0.41835 0.31363 0.63164 0.0
C733 C 0.4116 0.29835 0.63782 0.0
C734 C 0.44692 0.31995 0.51991 0.0
C735 C 0.41327 0.32209 0.66693 0.0
C736 C 0.45841 0.361 0.61321 0.0
C737 C 0.45377 0.36779 0.57472 0.0
C738 C 0.45053 0.34575 0.62085 0.0
C739 C 0.43784 0.33709 0.58858 0.0
C740 C 0.43296 0.3439 0.55027 0.0
C741 C 0.44094 0.35921 0.54409 0.0
C742 C 0.45592 0.33887 0.66274 0.0
C743 C 0.41957 0.33498 0.51473 0.0
H744 H 0.43153 0.29112 0.54532 0.0
H745 H 0.4028 0.29284 0.66758 0.0
H746 H 0.44452 0.32657 0.49045 0.0
H747 H 0.45732 0.32758 0.54135 0.0
H748 H 0.44862 0.31188 0.49616 0.0
H749 H 0.40371 0.31476 0.6932 0.0
H750 H 0.42238 0.32982 0.6941 0.0
H751 H 0.41021 0.32876 0.6405 0.0
H752 H 0.46828 0.36761 0.63722 0.0
H753 H 0.43734 0.36442 0.51413 0.0
H754 H 0.45918 0.33159 0.64149 0.0
H755 H 0.44698 0.33196 0.69202 0.0
H756 H 0.46549 0.34722 0.68667 0.0
H757 H 0.42142 0.32753 0.48768 0.0
H758 H 0.41694 0.342 0.48832 0.0
H759 H 0.40991 0.32798 0.54098 0.0
C760 C 0.68664 0.11699 0.6353 0.0
C761 C 0.69534 0.13 0.60587 0.0
C762 C 0.67141 0.10885 0.62713 0.0
C763 C 0.66481 0.11374 0.58794 0.0
C764 C 0.67358 0.12672 0.55734 0.0
C765 C 0.68875 0.13478 0.56703 0.0
C766 C 0.66236 0.09515 0.66103 0.0
C767 C 0.66693 0.13213 0.51457 0.0
C768 C 0.62721 0.08598 0.53302 0.0
C769 C 0.61807 0.08967 0.56283 0.0
C770 C 0.64247 0.09379 0.54056 0.0
C771 C 0.64868 0.10537 0.57949 0.0
C772 C 0.6395 0.109 0.61028 0.0
C773 C 0.62429 0.10117 0.60123 0.0
C774 C 0.65196 0.08976 0.50644 0.0
C775 C 0.64573 0.12114 0.65278 0.0
H776 H 0.69169 0.1133 0.66559 0.0
H777 H 0.69547 0.1448 0.54401 0.0
H778 H 0.6541 0.09634 0.68554 0.0
H779 H 0.65626 0.08554 0.63346 0.0
H780 H 0.6692 0.09284 0.68974 0.0
H781 H 0.67535 0.14215 0.49296 0.0
H782 H 0.66082 0.12343 0.4834 0.0
H783 H 0.65893 0.13464 0.53448 0.0
H784 H 0.62244 0.07714 0.50305 0.0
H785 H 0.61725 0.10401 0.62453 0.0
H786 H 0.65837 0.08659 0.53389 0.0
H787 H 0.65996 0.0994 0.48207 0.0
H788 H 0.64541 0.08053 0.47761 0.0
H789 H 0.65209 0.11894 0.68412 0.0
H790 H 0.63705 0.12234 0.67422 0.0
H791 H 0.65342 0.13174 0.6327 0.0
C792 C 0.44092 0.0812 0.03511 0.0
C793 C 0.45357 0.08455 0.06547 0.0
C794 C 0.43365 0.08919 0.04279 0.0
C795 C 0.43907 0.10063 0.08234 0.0
C796 C 0.45163 0.10382 0.11406 0.0
C797 C 0.45881 0.09581 0.10492 0.0
C798 C 0.42038 0.08561 0.00779 0.0
C799 C 0.45758 0.1158 0.15723 0.0
C800 C 0.4303 0.13134 0.06883 0.0
C801 C 0.41887 0.12703 0.10712 0.0
C802 C 0.43676 0.12267 0.05949 0.0
C803 C 0.43182 0.10951 0.08982 0.0
C804 C 0.42022 0.10505 0.12827 0.0
C805 C 0.41381 0.11383 0.13618 0.0
C806 C 0.44898 0.12765 0.01756 0.0
C807 C 0.4148 0.09117 0.16183 0.0
H808 H 0.43688 0.07254 0.00439 0.0
H809 H 0.46855 0.09838 0.12869 0.0
H810 H 0.4108 0.08294 0.03455 0.0
H811 H 0.42256 0.09534 0.98272 0.0
H812 H 0.41742 0.07622 0.9795 0.0
H813 H 0.46708 0.11647 0.17999 0.0
H814 H 0.46112 0.12657 0.13738 0.0
H815 H 0.44885 0.11386 0.18741 0.0
H816 H 0.43418 0.1415 0.04605 0.0
H817 H 0.40501 0.11048 0.16598 0.0
H818 H 0.4462 0.11889 0.9865 0.0
H819 H 0.45926 0.12975 0.03832 0.0
H820 H 0.45109 0.13782 -0.00428 0.0
H821 H 0.41118 0.08158 0.13405 0.0
H822 H 0.40551 0.08913 0.18936 0.0
H823 H 0.42388 0.09191 0.18758 0.0
C824 C 0.87609 0.29635 0.13429 0.0
C825 C 0.86295 0.2881 0.10492 0.0
C826 C 0.88464 0.31159 0.1269 0.0
C827 C 0.88001 0.31865 0.08874 0.0
C828 C 0.86703 0.31029 0.05755 0.0
C829 C 0.8586 0.29511 0.06631 0.0
C830 C 0.89834 0.32019 0.16124 0.0
C831 C 0.86187 0.31743 0.01587 0.0
C832 C 0.89126 0.35867 0.10738 0.0
C833 C 0.90244 0.36549 0.06798 0.0
C834 C 0.88418 0.34346 0.11573 0.0
C835 C 0.88826 0.33487 0.08331 0.0
C836 C 0.89974 0.34172 0.04422 0.0
C837 C 0.90678 0.35699 0.03726 0.0
C838 C 0.87212 0.33654 0.1584 0.0
C839 C 0.90427 0.33286 0.00857 0.0
H840 H 0.87947 0.29097 0.16428 0.0
H841 H 0.84851 0.28875 0.04323 0.0
H842 H 0.9079 0.32696 0.13421 0.0
H843 H 0.89697 0.32784 0.1889 0.0
H844 H 0.90083 0.31296 0.18696 0.0
H845 H 0.85209 0.30925 0.99246 0.0
H846 H 0.85905 0.32502 0.03727 0.0
H847 H 0.8708 0.32406 0.98612 0.0
H848 H 0.88795 0.36522 0.13148 0.0
H849 H 0.9154 0.36223 0.00664 0.0
H850 H 0.8744 0.32977 0.1875 0.0
H851 H 0.86151 0.32912 0.13779 0.0
H852 H 0.8709 0.34486 0.18245 0.0
H853 H 0.90705 0.32594 0.03473 0.0
H854 H 0.91386 0.33993 0.98198 0.0
H855 H 0.89496 0.32536 0.98169 0.0
C856 C 0.62492 0.52768 0.10248 0.0
C857 C 0.61749 0.53213 0.06624 0.0
C858 C 0.64026 0.53567 0.10673 0.0
C859 C 0.64834 0.54827 0.07333 0.0
C860 C 0.64089 0.55296 0.03737 0.0
C861 C 0.62551 0.54488 0.03454 0.0
C862 C 0.64785 0.53047 0.14617 0.0
C863 C 0.64916 0.56626 0.00073 0.0
C864 C 0.68771 0.57468 0.11508 0.0
C865 C 0.6954 0.56975 0.08241 0.0
C866 C 0.67237 0.56795 0.11193 0.0
C867 C 0.66462 0.55618 0.07465 0.0
C868 C 0.67237 0.55151 0.04013 0.0
C869 C 0.68768 0.55829 0.04473 0.0
C870 C 0.66444 0.5731 0.14975 0.0
C871 C 0.66447 0.53914 -0.00076 0.0
H872 H 0.61874 0.51787 0.12728 0.0
H873 H 0.61981 0.54832 0.0063 0.0
H874 H 0.65482 0.52721 0.12268 0.0
H875 H 0.65518 0.53953 0.17434 0.0
H876 H 0.63993 0.52097 0.17144 0.0
H877 H 0.6417 0.56878 0.97665 0.0
H878 H 0.65656 0.57601 0.02591 0.0
H879 H 0.65616 0.56436 0.97143 0.0
H880 H 0.69364 0.5835 0.14442 0.0
H881 H 0.6936 0.55452 0.01916 0.0
H882 H 0.65726 0.5641 0.17839 0.0
H883 H 0.65726 0.57593 0.1254 0.0
H884 H 0.67213 0.58283 0.17457 0.0
H885 H 0.65726 0.52877 0.02164 0.0
H886 H 0.67219 0.53747 0.97305 0.0
H887 H 0.65733 0.54139 0.97201 0.0
C888 C 0.54324 0.91099 0.95886 0.0
C889 C 0.5306 0.90725 0.92771 0.0
C890 C 0.55083 0.90328 0.95253 0.0
C891 C 0.54578 0.89173 0.91353 0.0
C892 C 0.53324 0.88815 0.88101 0.0
C893 C 0.52572 0.89589 0.88881 0.0
C894 C 0.56407 0.90727 0.98838 0.0
C895 C 0.52767 0.87605 0.83839 0.0
C896 C 0.57188 0.8792 0.86317 0.0
C897 C 0.56697 0.86611 0.89285 0.0
C898 C 0.56514 0.88772 0.86975 0.0
C899 C 0.55338 0.88314 0.90753 0.0
C900 C 0.54861 0.87012 0.93858 0.0
C901 C 0.5554 0.86168 0.93054 0.0
C902 C 0.57039 0.90146 0.83544 0.0
C903 C 0.53624 0.86501 0.97986 0.0
H904 H 0.547 0.91973 0.98916 0.0
H905 H 0.516 0.89302 0.86444 0.0
H906 H 0.56203 0.8977 0.01414 0.0
H907 H 0.57379 0.91008 0.96225 0.0
H908 H 0.56673 0.91671 0.01606 0.0
H909 H 0.51815 0.87508 0.81483 0.0
H910 H 0.53656 0.8781 0.80885 0.0
H911 H 0.52429 0.86539 0.85889 0.0
H912 H 0.58079 0.88263 0.83381 0.0
H913 H 0.55163 0.85161 0.95379 0.0
H914 H 0.57368 0.91109 0.86266 0.0
H915 H 0.56131 0.90039 0.80886 0.0
H916 H 0.57985 0.90364 0.80867 0.0
H917 H 0.53871 0.87384 0.0103 0.0
H918 H 0.53431 0.855 0.00249 0.0
H919 H 0.52595 0.86259 0.95835 0.0
C920 C 0.089 0.62617 0.87695 0.0
C921 C 0.07749 0.61904 0.91491 0.0
C922 C 0.09641 0.64148 0.87136 0.0
C923 C 0.09234 0.64985 0.90512 0.0
C924 C 0.08051 0.6427 0.94262 0.0
C925 C 0.07314 0.62734 0.9468 0.0
C926 C 0.10884 0.64873 0.83028 0.0
C927 C 0.07596 0.6513 0.97963 0.0
C928 C 0.12242 0.68908 0.93047 0.0
C929 C 0.11861 0.69683 0.89321 0.0
C930 C 0.11368 0.67381 0.93599 0.0
C931 C 0.10096 0.66612 0.90288 0.0
C932 C 0.09688 0.67391 0.86603 0.0
C933 C 0.10572 0.68922 0.8619 0.0
C934 C 0.11825 0.66587 0.97635 0.0
C935 C 0.08346 0.66605 0.8297 0.0
H936 H 0.09233 0.61978 0.85196 0.0
H937 H 0.06427 0.62188 0.97633 0.0
H938 H 0.10704 0.65607 0.80247 0.0
H939 H 0.11933 0.65563 0.85246 0.0
H940 H 0.11001 0.6406 0.80469 0.0
H941 H 0.06606 0.64405 0.00452 0.0
H942 H 0.08509 0.65825 0.00821 0.0
H943 H 0.07367 0.65877 0.95467 0.0
H944 H 0.13233 0.69493 0.95501 0.0
H945 H 0.10276 0.69517 0.83292 0.0
H946 H 0.12101 0.65841 0.95361 0.0
H947 H 0.10903 0.65899 0.00466 0.0
H948 H 0.12792 0.67356 0.00144 0.0
H949 H 0.08486 0.65865 0.80079 0.0
H950 H 0.08141 0.67378 0.8052 0.0
H951 H 0.0736 0.65909 0.85515 0.0
C952 C 0.29804 0.41867 0.8511 0.0
C953 C 0.2893 0.42275 0.8815 0.0
C954 C 0.3133 0.42593 0.85856 0.0
C955 C 0.3199 0.43738 0.89791 0.0
C956 C 0.31109 0.44132 0.92961 0.0
C957 C 0.29588 0.43402 0.9207 0.0
C958 C 0.3224 0.42157 0.82358 0.0
C959 C 0.31774 0.45333 0.97255 0.0
C960 C 0.35802 0.44872 0.95131 0.0
C961 C 0.36664 0.46179 0.92204 0.0
C962 C 0.34277 0.44057 0.94355 0.0
C963 C 0.33607 0.44552 0.90505 0.0
C964 C 0.34477 0.45851 0.8744 0.0
C965 C 0.35996 0.46656 0.88358 0.0
C966 C 0.3338 0.42685 0.97742 0.0
C967 C 0.33802 0.46401 0.83239 0.0
H968 H 0.29298 0.40999 0.8206 0.0
H969 H 0.28915 0.43715 0.94452 0.0
H970 H 0.33028 0.43106 0.79827 0.0
H971 H 0.32893 0.41841 0.85036 0.0
H972 H 0.31553 0.41225 0.79553 0.0
H973 H 0.30928 0.45462 -0.00464 0.0
H974 H 0.32422 0.45094 0.00271 0.0
H975 H 0.32539 0.46394 0.95247 0.0
H976 H 0.36314 0.44502 0.98124 0.0
H977 H 0.36661 0.47661 0.86063 0.0
H978 H 0.32733 0.41732 0.94988 0.0
H979 H 0.32585 0.42819 0.00343 0.0
H980 H 0.34074 0.42432 0.00473 0.0
H981 H 0.3316 0.45528 0.80166 0.0
H982 H 0.34641 0.47392 0.81016 0.0
H983 H 0.33029 0.46674 0.85319 0.0
C984 C 0.07958 0.44552 0.44061 0.0
C985 C 0.08428 0.45872 0.41199 0.0
C986 C 0.08684 0.43747 0.4342 0.0
C987 C 0.09894 0.44269 0.39771 0.0
C988 C 0.10353 0.45584 0.36777 0.0
C989 C 0.0962 0.46377 0.37558 0.0
C990 C 0.08175 0.42357 0.46726 0.0
C991 C 0.11627 0.46162 0.3279 0.0
C992 C 0.12732 0.4309 0.41766 0.0
C993 C 0.12304 0.41988 0.37759 0.0
C994 C 0.11938 0.43822 0.42538 0.0
C995 C 0.10702 0.43455 0.39165 0.0
C996 C 0.10257 0.42335 0.35145 0.0
C997 C 0.11059 0.41607 0.34516 0.0
C998 C 0.12432 0.44997 0.46921 0.0
C999 C 0.08953 0.41927 0.31436 0.0
H1000 H 0.07041 0.4416 0.469 0.0
H1001 H 0.09983 0.47394 0.35316 0.0
H1002 H 0.07894 0.41419 0.43919 0.0
H1003 H 0.09076 0.42474 0.49452 0.0
H1004 H 0.07202 0.4209 0.49322 0.0
H1005 H 0.11807 0.4717 0.30618 0.0
H1006 H 0.12647 0.46417 0.35039 0.0
H1007 H 0.11431 0.45312 0.29661 0.0
H1008 H 0.1369 0.43383 0.443 0.0
H1009 H 0.10728 0.4076 0.31395 0.0
H1010 H 0.11513 0.44743 0.498 0.0
H1011 H 0.12752 0.46071 0.44972 0.0
H1012 H 0.13379 0.45108 0.49347 0.0
H1013 H 0.07955 0.41596 0.33957 0.0
H1014 H 0.08737 0.41015 0.28575 0.0
H1015 H 0.09146 0.42895 0.28952 0.0
C1016 C 0.52556 0.63191 0.38545 0.0
C1017 C 0.53016 0.62495 0.42337 0.0
C1018 C 0.53365 0.64716 0.37783 0.0
C1019 C 0.54649 0.65564 0.40954 0.0
C1020 C 0.55131 0.64866 0.4473 0.0
C1021 C 0.54313 0.63336 0.45347 0.0
C1022 C 0.52831 0.65422 0.33652 0.0
C1023 C 0.56487 0.65739 0.48226 0.0
C1024 C 0.57331 0.69421 0.3603 0.0
C1025 C 0.56893 0.70259 0.39152 0.0
C1026 C 0.56619 0.6789 0.36604 0.0
C1027 C 0.55458 0.67188 0.4045 0.0
C1028 C 0.55037 0.68032 0.4372 0.0
C1029 C 0.55753 0.69559 0.42999 0.0
C1030 C 0.57084 0.67021 0.33004 0.0
C1031 C 0.53817 0.67321 0.47925 0.0
H1032 H 0.51559 0.62543 0.36186 0.0
H1033 H 0.54669 0.62803 0.48299 0.0
H1034 H 0.52535 0.66167 0.3582 0.0
H1035 H 0.5372 0.66099 0.30683 0.0
H1036 H 0.51858 0.64599 0.31302 0.0
H1037 H 0.56738 0.65024 0.50844 0.0
H1038 H 0.5745 0.6642 0.45557 0.0
H1039 H 0.56332 0.665 0.50949 0.0
H1040 H 0.58208 0.69959 0.33033 0.0
H1041 H 0.55417 0.70204 0.45443 0.0
H1042 H 0.56153 0.66257 0.30345 0.0
H1043 H 0.57386 0.66343 0.35601 0.0
H1044 H 0.58032 0.67738 0.30316 0.0
H1045 H 0.52767 0.66572 0.45816 0.0
H1046 H 0.53673 0.68141 0.50322 0.0
H1047 H 0.54047 0.66648 0.50848 0.0
C1048 C 0.35818 0.88915 0.39252 0.0
C1049 C 0.36454 0.90096 0.42956 0.0
C1050 C 0.34292 0.88106 0.38509 0.0
C1051 C 0.33383 0.88477 0.41611 0.0
C1052 C 0.34018 0.89671 0.45349 0.0
C1053 C 0.35549 0.90475 0.45946 0.0
C1054 C 0.33653 0.86853 0.34422 0.0
C1055 C 0.33079 0.90085 0.48775 0.0
C1056 C 0.29524 0.87177 0.36394 0.0
C1057 C 0.28701 0.85898 0.39521 0.0
C1058 C 0.31051 0.88031 0.37043 0.0
C1059 C 0.31764 0.87605 0.40971 0.0
C1060 C 0.30935 0.86332 0.44223 0.0
C1061 C 0.29412 0.85486 0.43426 0.0
C1062 C 0.31903 0.89372 0.33455 0.0
C1063 C 0.31657 0.85858 0.48512 0.0
H1064 H 0.36515 0.88623 0.36916 0.0
H1065 H 0.36036 0.91383 0.48837 0.0
H1066 H 0.3292 0.85807 0.3659 0.0
H1067 H 0.32975 0.87025 0.31327 0.0
H1068 H 0.34515 0.86736 0.32216 0.0
H1069 H 0.33746 0.91044 0.51492 0.0
H1070 H 0.32396 0.90349 0.46042 0.0
H1071 H 0.32318 0.89141 0.5139 0.0
H1072 H 0.2898 0.87496 0.33351 0.0
H1073 H 0.28778 0.84502 0.4587 0.0
H1074 H 0.32717 0.89248 0.30941 0.0
H1075 H 0.32524 0.90362 0.36071 0.0
H1076 H 0.3118 0.8956 0.30628 0.0
H1077 H 0.32453 0.85606 0.46495 0.0
H1078 H 0.30848 0.84873 0.50845 0.0
H1079 H 0.32283 0.86765 0.51484 0.0
C1080 C 0.09183 0.23478 0.89739 0.0
C1081 C 0.0952 0.2486 0.8769 0.0
C1082 C 0.09853 0.23353 0.94566 0.0
C1083 C 0.10902 0.24641 0.97319 0.0
C1084 C 0.11254 0.26039 0.95234 0.0
C1085 C 0.10547 0.2613 0.90472 0.0
C1086 C 0.09433 0.21846 0.96733 0.0
C1087 C 0.12387 0.27439 0.98007 0.0
C1088 C 0.1194 0.24775 0.12359 0.0
C1089 C 0.13307 0.24854 0.11927 0.0
C1090 C 0.11095 0.24606 0.07644 0.0
C1091 C 0.11647 0.24546 0.02378 0.0
C1092 C 0.1299 0.24548 0.01943 0.0
C1093 C 0.13799 0.24688 0.06737 0.0
C1094 C 0.09649 0.24572 0.08276 0.0
C1095 C 0.13623 0.24504 0.96395 0.0
H1096 H 0.08382 0.22493 0.87606 0.0
H1097 H 0.10815 0.27199 0.88877 0.0
H1098 H 0.10413 0.21711 0.96872 0.0
H1099 H 0.09015 0.21722 0.01024 0.0
H1100 H 0.08578 0.20954 0.94156 0.0
H1101 H 0.12557 0.28437 0.95783 0.0
H1102 H 0.12042 0.27481 0.02301 0.0
H1103 H 0.13453 0.27465 0.98243 0.0
H1104 H 0.11549 0.24887 0.16371 0.0
H1105 H 0.14857 0.24752 0.06376 0.0
H1106 H 0.08782 0.23664 0.05803 0.0
H1107 H 0.0976 0.25614 0.06698 0.0
H1108 H 0.09286 0.24435 0.12653 0.0
H1109 H 0.12788 0.23592 0.93841 0.0
H1110 H 0.14602 0.24368 0.96792 0.0
H1111 H 0.13951 0.25542 0.94138 0.0
C1112 C 0.74124 0.88445 0.12928 0.0
C1113 C 0.73799 0.87797 0.18182 0.0
C1114 C 0.74294 0.87715 0.08394 0.0
C1115 C 0.74161 0.86318 0.09173 0.0
C1116 C 0.73985 0.85731 0.1456 0.0
C1117 C 0.73791 0.86473 0.19005 0.0
C1118 C 0.74475 0.88375 0.02707 0.0
C1119 C 0.73881 0.84266 0.15572 0.0
C1120 C 0.72369 0.83657 0.97346 0.0
C1121 C 0.73588 0.83782 0.94524 0.0
C1122 C 0.72545 0.84458 0.02183 0.0
C1123 C 0.73974 0.85384 0.04303 0.0
C1124 C 0.75206 0.85464 0.01615 0.0
C1125 C 0.75 0.84671 0.96712 0.0
C1126 C 0.71202 0.84354 0.04906 0.0
C1127 C 0.76742 0.86416 0.03828 0.0
H1128 H 0.74136 0.89471 0.12264 0.0
H1129 H 0.73562 0.85978 0.23079 0.0
H1130 H 0.75352 0.88315 0.00383 0.0
H1131 H 0.73438 0.87739 0.00352 0.0
H1132 H 0.74745 0.8954 0.02878 0.0
H1133 H 0.74017 0.84095 0.20014 0.0
H1134 H 0.72789 0.83372 0.14204 0.0
H1135 H 0.74725 0.8417 0.13153 0.0
H1136 H 0.71277 0.82975 0.95664 0.0
H1137 H 0.75945 0.84761 0.94553 0.0
H1138 H 0.71287 0.85449 0.04916 0.0
H1139 H 0.71133 0.84004 0.09272 0.0
H1140 H 0.70168 0.83564 0.02775 0.0
H1141 H 0.77068 0.8759 0.03382 0.0
H1142 H 0.77558 0.86226 0.01621 0.0
H1143 H 0.76782 0.86203 0.08297 0.0
C1144 C 0.12514 0.87501 0.17047 0.0
C1145 C 0.11173 0.862 0.16239 0.0
C1146 C 0.13281 0.88411 0.12578 0.0
C1147 C 0.12704 0.87992 0.07183 0.0
C1148 C 0.11291 0.86751 0.0641 0.0
C1149 C 0.10536 0.85875 0.10967 0.0
C1150 C 0.14765 0.89751 0.13582 0.0
C1151 C 0.10639 0.86266 0.00716 0.0
C1152 C 0.14467 0.90418 0.94644 0.0
C1153 C 0.15326 0.89842 0.92616 0.0
C1154 C 0.13643 0.89865 -0.00492 0.0
C1155 C 0.13662 0.88696 0.02326 0.0
C1156 C 0.14557 0.88138 0.00365 0.0
C1157 C 0.15387 0.88727 0.95561 0.0
C1158 C 0.12724 0.90505 0.01545 0.0
C1159 C 0.14599 0.86882 0.03233 0.0
H1160 H 0.13001 0.8777 0.21133 0.0
H1161 H 0.09497 0.84874 0.10313 0.0
H1162 H 0.1564 0.89513 0.12325 0.0
H1163 H 0.14899 0.90693 0.1107 0.0
H1164 H 0.14931 0.90076 0.18006 0.0
H1165 H 0.09461 0.85403 0.0088 0.0
H1166 H 0.10744 0.87209 0.98296 0.0
H1167 H 0.11248 0.85817 0.98467 0.0
H1168 H 0.14424 0.91286 0.9239 0.0
H1169 H 0.16047 0.88276 0.94008 0.0
H1170 H 0.12924 0.90771 0.06009 0.0
H1171 H 0.11542 0.89684 0.01058 0.0
H1172 H 0.12958 0.91514 0.99249 0.0
H1173 H 0.14939 0.87173 0.07602 0.0
H1174 H 0.15368 0.86591 0.01211 0.0
H1175 H 0.13486 0.85896 0.03243 0.0
C1176 C 0.23718 0.08361 0.5368 0.0
C1177 C 0.25141 0.08956 0.55849 0.0
C1178 C 0.23465 0.08908 0.48762 0.0
C1179 C 0.2466 0.10093 0.4604 0.0
C1180 C 0.26103 0.10668 0.48135 0.0
C1181 C 0.26327 0.10082 0.52987 0.0
C1182 C 0.21918 0.08248 0.46575 0.0
C1183 C 0.27408 0.11942 0.45374 0.0
C1184 C 0.2477 0.11339 0.31349 0.0
C1185 C 0.24695 0.1262 0.32185 0.0
C1186 C 0.2462 0.10417 0.35787 0.0
C1187 C 0.24418 0.10804 0.41177 0.0
C1188 C 0.24213 0.12024 0.41965 0.0
C1189 C 0.2434 0.12912 0.37439 0.0
C1190 C 0.24799 0.09099 0.34764 0.0
C1191 C 0.24001 0.12477 0.47656 0.0
H1192 H 0.22799 0.07482 0.55869 0.0
H1193 H 0.27428 0.10547 0.54651 0.0
H1194 H 0.21527 0.09045 0.47071 0.0
H1195 H 0.21887 0.08008 0.42097 0.0
H1196 H 0.21144 0.07219 0.48771 0.0
H1197 H 0.28459 0.12241 0.47483 0.0
H1198 H 0.27487 0.11669 0.4101 0.0
H1199 H 0.27263 0.12918 0.45358 0.0
H1200 H 0.25021 0.11096 0.27274 0.0
H1201 H 0.24275 0.13897 0.38113 0.0
H1202 H 0.2399 0.0814 0.37206 0.0
H1203 H 0.25912 0.09353 0.36093 0.0
H1204 H 0.24667 0.08791 0.30324 0.0
H1205 H 0.23154 0.11517 0.49982 0.0
H1206 H 0.23672 0.1333 0.47491 0.0
H1207 H 0.25045 0.12926 0.50005 0.0
C1208 C 0.85002 0.10584 0.37838 0.0
C1209 C 0.85301 0.11253 0.32623 0.0
C1210 C 0.8592 0.11295 0.42351 0.0
C1211 C 0.8718 0.12694 0.41594 0.0
C1212 C 0.87567 0.13305 0.36233 0.0
C1213 C 0.86614 0.12583 0.31807 0.0
C1214 C 0.85465 0.10609 0.48012 0.0
C1215 C 0.88927 0.14774 0.35239 0.0
C1216 C 0.88067 0.15266 0.53727 0.0
C1217 C 0.89155 0.1511 0.56459 0.0
C1218 C 0.87446 0.14513 0.48801 0.0
C1219 C 0.87946 0.13604 0.46495 0.0
C1220 C 0.89099 0.13501 0.49077 0.0
C1221 C 0.89681 0.14245 0.54076 0.0
C1222 C 0.86208 0.14643 0.46198 0.0
C1223 C 0.89682 0.12569 0.46663 0.0
H1224 H 0.83993 0.09553 0.38499 0.0
H1225 H 0.86864 0.13095 0.27763 0.0
H1226 H 0.86409 0.10648 0.50209 0.0
H1227 H 0.85086 0.11242 0.50511 0.0
H1228 H 0.84561 0.09448 0.47809 0.0
H1229 H 0.89217 0.14962 0.30785 0.0
H1230 H 0.88734 0.15663 0.36719 0.0
H1231 H 0.89875 0.14861 0.37574 0.0
H1232 H 0.87656 0.15932 0.55553 0.0
H1233 H 0.90532 0.14132 0.56161 0.0
H1234 H 0.85193 0.1355 0.46144 0.0
H1235 H 0.8648 0.15015 0.41852 0.0
H1236 H 0.85974 0.15424 0.48447 0.0
H1237 H 0.88846 0.11391 0.47103 0.0
H1238 H 0.90706 0.12764 0.48746 0.0
H1239 H 0.89905 0.12796 0.42184 0.0
C1240 C 0.84638 0.76091 0.55303 0.0
C1241 C 0.83711 0.74655 0.57194 0.0
C1242 C 0.85466 0.76352 0.50452 0.0
C1243 C 0.85379 0.75147 0.47515 0.0
C1244 C 0.84413 0.73695 0.49336 0.0
C1245 C 0.83582 0.73467 0.54123 0.0
C1246 C 0.86462 0.77912 0.48566 0.0
C1247 C 0.84293 0.72378 0.46337 0.0
C1248 C 0.86499 0.75043 0.32827 0.0
C1249 C 0.87775 0.7496 0.33667 0.0
C1250 C 0.85779 0.75264 0.37278 0.0
C1251 C 0.86337 0.75376 0.42683 0.0
C1252 C 0.877 0.75436 0.43478 0.0
C1253 C 0.88411 0.75239 0.3894 0.0
C1254 C 0.84353 0.75244 0.36249 0.0
C1255 C 0.88332 0.75551 0.49181 0.0
H1256 H 0.84734 0.77013 0.57655 0.0
H1257 H 0.82867 0.72355 0.55563 0.0
H1258 H 0.87624 0.78219 0.49257 0.0
H1259 H 0.86324 0.78019 0.44075 0.0
H1260 H 0.86247 0.78705 0.50831 0.0
H1261 H 0.83478 0.71322 0.48271 0.0
H1262 H 0.8397 0.72376 0.41975 0.0
H1263 H 0.85377 0.72437 0.46311 0.0
H1264 H 0.86017 0.74855 0.28737 0.0
H1265 H 0.89403 0.75187 0.39614 0.0
H1266 H 0.84282 0.7608 0.3882 0.0
H1267 H 0.8342 0.74153 0.37407 0.0
H1268 H 0.84225 0.75449 0.31835 0.0
H1269 H 0.88281 0.76416 0.51629 0.0
H1270 H 0.8949 0.75799 0.49031 0.0
H1271 H 0.8767 0.74494 0.5139 0.0
C1272 C 0.85758 0.7514 0.88813 0.0
C1273 C 0.86096 0.74834 0.83554 0.0
C1274 C 0.86644 0.75293 0.93376 0.0
C1275 C 0.87909 0.75162 0.92627 0.0
C1276 C 0.88338 0.7501 0.87244 0.0
C1277 C 0.87418 0.74834 0.82765 0.0
C1278 C 0.86146 0.75452 0.99058 0.0
C1279 C 0.89702 0.74908 0.86265 0.0
C1280 C 0.90329 0.75882 0.05232 0.0
C1281 C 0.89777 0.74453 0.07276 0.0
C1282 C 0.89772 0.76136 0.00336 0.0
C1283 C 0.88624 0.74932 0.97503 0.0
C1284 C 0.88093 0.73484 -0.00523 0.0
C1285 C 0.88686 0.73263 0.04312 0.0
C1286 C 0.90383 0.7769 0.98286 0.0
C1287 C 0.86861 0.72169 0.96593 0.0
H1288 H 0.84742 0.75149 0.89452 0.0
H1289 H 0.87699 0.74623 0.78689 0.0
H1290 H 0.85722 0.744 0.01333 0.0
H1291 H 0.87079 0.76309 0.01467 0.0
H1292 H 0.85262 0.75737 0.9887 0.0
H1293 H 0.9003 0.75073 0.81844 0.0
H1294 H 0.90632 0.75734 0.88778 0.0
H1295 H 0.89494 0.73806 0.87537 0.0
H1296 H 0.9118 0.76805 0.075 0.0
H1297 H 0.88255 0.72155 0.05871 0.0
H1298 H 0.89547 0.78029 0.98788 0.0
H1299 H 0.90646 0.77759 0.93818 0.0
H1300 H 0.91389 0.78479 0.00568 0.0
H1301 H 0.85858 0.72268 0.96549 0.0
H1302 H 0.86592 0.71116 0.98626 0.0
H1303 H 0.87163 0.72127 0.92235 0.0
C1304 C 0.24782 0.12485 0.81264 0.0
C1305 C 0.2475 0.11148 0.82073 0.0
C1306 C 0.24601 0.13233 0.85718 0.0
C1307 C 0.2441 0.12638 0.91096 0.0
C1308 C 0.2425 0.1123 0.91856 0.0
C1309 C 0.24408 0.10494 0.87316 0.0
C1310 C 0.24734 0.14712 0.84725 0.0
C1311 C 0.2405 0.10559 0.97534 0.0
C1312 C 0.2623 0.15262 0.03 0.0
C1313 C 0.25019 0.15152 0.05835 0.0
C1314 C 0.26044 0.14472 0.98126 0.0
C1315 C 0.24612 0.13572 0.95981 0.0
C1316 C 0.23389 0.1351 0.98678 0.0
C1317 C 0.23606 0.14292 0.03619 0.0
C1318 C 0.27377 0.14556 0.95394 0.0
C1319 C 0.21852 0.12587 0.96439 0.0
H1320 H 0.25024 0.12986 0.772 0.0
H1321 H 0.24375 0.09458 0.87972 0.0
H1322 H 0.23901 0.14825 0.87155 0.0
H1323 H 0.25833 0.15591 0.86091 0.0
H1324 H 0.24602 0.1489 0.80286 0.0
H1325 H 0.23761 0.09389 0.97346 0.0
H1326 H 0.25087 0.11179 -0.00093 0.0
H1327 H 0.23181 0.10634 -0.00151 0.0
H1328 H 0.27324 0.15923 0.04704 0.0
H1329 H 0.22667 0.14213 0.05787 0.0
H1330 H 0.27453 0.14913 0.91036 0.0
H1331 H 0.27272 0.13452 0.9536 0.0
H1332 H 0.28415 0.15331 0.97536 0.0
H1333 H 0.21822 0.12805 0.91969 0.0
H1334 H 0.21049 0.128 0.98633 0.0
H1335 H 0.21499 0.11406 0.96886 0.0
C1336 C 0.82631 0.10087 0.03517 0.0
C1337 C 0.82628 0.08933 0.06422 0.0
C1338 C 0.83422 0.1061 0.98594 0.0
C1339 C 0.84202 0.09942 0.96465 0.0
C1340 C 0.84138 0.08725 0.99224 0.0
C1341 C 0.83363 0.08245 0.04219 0.0
C1342 C 0.83475 0.11922 0.95802 0.0
C1343 C 0.84925 0.07964 0.96997 0.0
C1344 C 0.85344 0.11141 0.8174 0.0
C1345 C 0.86743 0.12369 0.82543 0.0
C1346 C 0.84548 0.1024 0.86193 0.0
C1347 C 0.85157 0.10598 0.91564 0.0
C1348 C 0.86619 0.11754 0.92308 0.0
C1349 C 0.87401 0.12618 0.87769 0.0
C1350 C 0.8301 0.08985 0.85214 0.0
C1351 C 0.87308 0.12174 0.97976 0.0
H1352 H 0.82067 0.10622 0.05209 0.0
H1353 H 0.83351 0.0734 0.06449 0.0
H1354 H 0.84624 0.1285 0.95716 0.0
H1355 H 0.83098 0.11652 0.91461 0.0
H1356 H 0.82782 0.12293 0.97936 0.0
H1357 H 0.84592 0.06912 0.9917 0.0
H1358 H 0.84706 0.0774 0.92516 0.0
H1359 H 0.86127 0.08688 0.97502 0.0
H1360 H 0.84839 0.10928 0.77688 0.0
H1361 H 0.88485 0.1356 0.8842 0.0
H1362 H 0.82206 0.09315 0.86541 0.0
H1363 H 0.828 0.08009 0.8768 0.0
H1364 H 0.82812 0.08671 0.80782 0.0
H1365 H 0.86775 0.12682 0.00363 0.0
H1366 H 0.88506 0.1297 0.9777 0.0
H1367 H 0.87136 0.1119 0.00287 0.0
C1368 C 0.74851 0.90518 0.46704 0.0
C1369 C 0.73428 0.89925 0.44544 0.0
C1370 C 0.75105 0.89968 0.51611 0.0
C1371 C 0.7391 0.88781 0.54331 0.0
C1372 C 0.72467 0.88207 0.52238 0.0
C1373 C 0.72242 0.88796 0.47397 0.0
C1374 C 0.76653 0.90627 0.53794 0.0
C1375 C 0.71163 0.86931 0.54996 0.0
C1376 C 0.7424 0.85972 0.62958 0.0
C1377 C 0.73891 0.86268 0.68214 0.0
C1378 C 0.74361 0.86854 0.58422 0.0
C1379 C 0.74153 0.88072 0.59199 0.0
C1380 C 0.73954 0.88464 0.64587 0.0
C1381 C 0.73811 0.87547 0.69036 0.0
C1382 C 0.74569 0.86396 0.52733 0.0
C1383 C 0.73772 0.8978 0.65598 0.0
H1384 H 0.75769 0.91399 0.44521 0.0
H1385 H 0.71141 0.88332 0.45736 0.0
H1386 H 0.76685 0.90875 0.58263 0.0
H1387 H 0.77038 0.89825 0.53335 0.0
H1388 H 0.77429 0.9165 0.51573 0.0
H1389 H 0.70111 0.86631 0.52886 0.0
H1390 H 0.71309 0.85956 0.55011 0.0
H1391 H 0.71083 0.87203 0.59361 0.0
H1392 H 0.74308 0.84988 0.62294 0.0
H1393 H 0.73564 0.87793 0.73111 0.0
H1394 H 0.75412 0.87355 0.50392 0.0
H1395 H 0.73523 0.85944 0.50397 0.0
H1396 H 0.749 0.85545 0.52904 0.0
H1397 H 0.74581 0.90738 0.63155 0.0
H1398 H 0.73902 0.9009 0.70036 0.0
H1399 H 0.72659 0.89524 0.64259 0.0
C1400 C 0.08525 0.84738 0.44741 0.0
C1401 C 0.09027 0.83818 0.42694 0.0
C1402 C 0.09108 0.85544 0.49625 0.0
C1403 C 0.10234 0.85444 0.52437 0.0
C1404 C 0.10716 0.84488 0.50456 0.0
C1405 C 0.10096 0.83677 0.45637 0.0
C1406 C 0.08548 0.86529 0.51685 0.0
C1407 C 0.11925 0.84358 0.53316 0.0
C1408 C 0.1318 0.88463 0.61068 0.0
C1409 C 0.12835 0.87815 0.66322 0.0
C1410 C 0.12272 0.87755 0.56527 0.0
C1411 C 0.10978 0.86382 0.57299 0.0
C1412 C 0.10544 0.85806 0.62688 0.0
C1413 C 0.11486 0.86524 0.67142 0.0
C1414 C 0.12775 0.88405 0.50839 0.0
C1415 C 0.0915 0.84368 0.63694 0.0
H1416 H 0.0769 0.84842 0.42489 0.0
H1417 H 0.10489 0.8297 0.4407 0.0
H1418 H 0.08293 0.86349 0.56162 0.0
H1419 H 0.09411 0.87695 0.51149 0.0
H1420 H 0.07548 0.86343 0.49434 0.0
H1421 H 0.12158 0.83551 0.51272 0.0
H1422 H 0.12949 0.85443 0.53349 0.0
H1423 H 0.1162 0.84019 0.57677 0.0
H1424 H 0.14217 0.89465 0.60407 0.0
H1425 H 0.11201 0.86031 0.71217 0.0
H1426 H 0.11854 0.8836 0.48451 0.0
H1427 H 0.13166 0.87751 0.4855 0.0
H1428 H 0.13684 0.89563 0.51016 0.0
H1429 H 0.08232 0.84297 0.61195 0.0
H1430 H 0.08828 0.84219 0.68121 0.0
H1431 H 0.09316 0.83447 0.62425 0.0
C1432 C 0.10195 0.23259 0.59975 0.0
C1433 C 0.10135 0.24557 0.60286 0.0
C1434 C 0.1107 0.23095 0.55966 0.0
C1435 C 0.11846 0.24236 0.52086 0.0
C1436 C 0.11752 0.25532 0.52321 0.0
C1437 C 0.10919 0.25687 0.56489 0.0
C1438 C 0.11187 0.21722 0.55943 0.0
C1439 C 0.12523 0.26754 0.48152 0.0
C1440 C 0.15207 0.24917 0.44041 0.0
C1441 C 0.14597 0.24355 0.38856 0.0
C1442 C 0.14306 0.24769 0.48548 0.0
C1443 C 0.12769 0.24098 0.47759 0.0
C1444 C 0.12145 0.23473 0.42576 0.0
C1445 C 0.13069 0.23588 0.38199 0.0
C1446 C 0.15005 0.25402 0.54066 0.0
C1447 C 0.10518 0.22791 0.41515 0.0
H1448 H 0.09591 0.22391 0.62953 0.0
H1449 H 0.10855 0.26684 0.56713 0.0
H1450 H 0.1082 0.21154 0.51906 0.0
H1451 H 0.12351 0.22019 0.56495 0.0
H1452 H 0.1052 0.20943 0.59266 0.0
H1453 H 0.12261 0.27647 0.48722 0.0
H1454 H 0.13729 0.27235 0.48511 0.0
H1455 H 0.12206 0.26314 0.43898 0.0
H1456 H 0.16391 0.25501 0.44536 0.0
H1457 H 0.12601 0.23165 0.34162 0.0
H1458 H 0.14384 0.24626 0.57451 0.0
H1459 H 0.14982 0.2643 0.54832 0.0
H1460 H 0.16166 0.25659 0.54237 0.0
H1461 H 0.09874 0.21997 0.44817 0.0
H1462 H 0.1019 0.22218 0.37467 0.0
H1463 H 0.10216 0.23664 0.41552 0.0
C1464 C 0.77488 0.57584 0.52239 0.0
C1465 C 0.78786 0.57539 0.51436 0.0
C1466 C 0.76562 0.5741 0.47782 0.0
C1467 C 0.76962 0.57215 0.42403 0.0
C1468 C 0.78203 0.57044 0.41647 0.0
C1469 C 0.79095 0.57195 0.46189 0.0
C1470 C 0.75222 0.57554 0.48771 0.0
C1471 C 0.78671 0.56841 0.3597 0.0
C1472 C 0.74529 0.56463 0.29816 0.0
C1473 C 0.75104 0.57882 0.27637 0.0
C1474 C 0.75077 0.56226 0.34768 0.0
C1475 C 0.76242 0.57435 0.37515 0.0
C1476 C 0.76796 0.58874 0.35409 0.0
C1477 C 0.7621 0.5908 0.30525 0.0
C1478 C 0.7444 0.54682 0.36963 0.0
C1479 C 0.78048 0.60193 0.38193 0.0
H1480 H 0.7723 0.57825 0.56305 0.0
H1481 H 0.80091 0.5715 0.45537 0.0
H1482 H 0.75451 0.58657 0.47416 0.0
H1483 H 0.74274 0.56728 0.46329 0.0
H1484 H 0.74911 0.5742 0.53207 0.0
H1485 H 0.79545 0.56542 0.3616 0.0
H1486 H 0.77723 0.55976 0.3365 0.0
H1487 H 0.79097 0.57879 0.33601 0.0
H1488 H 0.73666 0.55534 0.2761 0.0
H1489 H 0.7666 0.6018 0.28862 0.0
H1490 H 0.742 0.54648 0.4144 0.0
H1491 H 0.75252 0.5431 0.36467 0.0
H1492 H 0.73417 0.53896 0.34767 0.0
H1493 H 0.77762 0.60266 0.42546 0.0
H1494 H 0.78329 0.6124 0.36076 0.0
H1495 H 0.79039 0.60075 0.38247 0.0
C1496 C 0.42083 0.17959 0.3307 0.0
C1497 C 0.40684 0.17134 0.30709 0.0
C1498 C 0.42281 0.18719 0.38054 0.0
C1499 C 0.41053 0.18674 0.40645 0.0
C1500 C 0.39633 0.17809 0.38353 0.0
C1501 C 0.39465 0.17037 0.33441 0.0
C1502 C 0.43805 0.19603 0.40451 0.0
C1503 C 0.38296 0.17744 0.40961 0.0
C1504 C 0.40823 0.19737 0.55355 0.0
C1505 C 0.40905 0.21098 0.54555 0.0
C1506 C 0.41003 0.18984 0.50913 0.0
C1507 C 0.41242 0.19598 0.45552 0.0
C1508 C 0.41446 0.21024 0.44806 0.0
C1509 C 0.41289 0.21764 0.49335 0.0
C1510 C 0.40822 0.17485 0.51893 0.0
C1511 C 0.41695 0.21714 0.39147 0.0
H1512 H 0.43028 0.18026 0.30983 0.0
H1513 H 0.38381 0.16404 0.31627 0.0
H1514 H 0.44188 0.20792 0.40052 0.0
H1515 H 0.43796 0.19364 0.44921 0.0
H1516 H 0.44607 0.19375 0.38333 0.0
H1517 H 0.37267 0.16993 0.38719 0.0
H1518 H 0.38183 0.17369 0.45308 0.0
H1519 H 0.38425 0.18858 0.41012 0.0
H1520 H 0.40549 0.19226 0.594 0.0
H1521 H 0.41361 0.22818 0.48683 0.0
H1522 H 0.41656 0.17354 0.49546 0.0
H1523 H 0.39724 0.1663 0.50418 0.0
H1524 H 0.40917 0.17286 0.56343 0.0
H1525 H 0.4257 0.21628 0.36921 0.0
H1526 H 0.42003 0.22889 0.39355 0.0
H1527 H 0.40673 0.21116 0.36673 0.0
C1528 C 0.81802 0.22223 0.33723 0.0
C1529 C 0.81809 0.23391 0.30913 0.0
C1530 C 0.81015 0.21682 0.38649 0.0
C1531 C 0.80243 0.22347 0.40878 0.0
C1532 C 0.8031 0.23577 0.38215 0.0
C1533 C 0.8108 0.24075 0.33215 0.0
C1534 C 0.80959 0.20356 0.41333 0.0
C1535 C 0.7953 0.24334 0.40547 0.0
C1536 C 0.77035 0.19663 0.49543 0.0
C1537 C 0.77691 0.19896 0.5477 0.0
C1538 C 0.77824 0.2053 0.45018 0.0
C1539 C 0.79291 0.21674 0.45776 0.0
C1540 C 0.79902 0.22012 0.51147 0.0
C1541 C 0.79099 0.21109 0.55585 0.0
C1542 C 0.77134 0.20128 0.39348 0.0
C1543 C 0.81447 0.23254 0.52141 0.0
H1544 H 0.82361 0.21688 0.31954 0.0
H1545 H 0.81094 0.24987 0.31067 0.0
H1546 H 0.81338 0.20606 0.45679 0.0
H1547 H 0.79809 0.19431 0.41395 0.0
H1548 H 0.81649 0.19991 0.39136 0.0
H1549 H 0.79857 0.2539 0.38417 0.0
H1550 H 0.78326 0.23611 0.40088 0.0
H1551 H 0.79764 0.2455 0.45025 0.0
H1552 H 0.75945 0.18732 0.4888 0.0
H1553 H 0.79604 0.21309 0.59636 0.0
H1554 H 0.77666 0.19628 0.36907 0.0
H1555 H 0.77306 0.2112 0.37097 0.0
H1556 H 0.75936 0.19332 0.39544 0.0
H1557 H 0.82241 0.2292 0.50733 0.0
H1558 H 0.81653 0.2355 0.56587 0.0
H1559 H 0.81663 0.24243 0.49748 0.0
C1560 C 0.90799 0.44391 0.62226 0.0
C1561 C 0.9068 0.45649 0.63045 0.0
C1562 C 0.90683 0.43485 0.66678 0.0
C1563 C 0.90471 0.43865 0.72068 0.0
C1564 C 0.90224 0.45059 0.72843 0.0
C1565 C 0.90317 0.45929 0.68304 0.0
C1566 C 0.90906 0.42193 0.65667 0.0
C1567 C 0.90001 0.45505 0.78532 0.0
C1568 C 0.89837 0.41452 0.84619 0.0
C1569 C 0.91263 0.4208 0.86781 0.0
C1570 C 0.89563 0.41977 0.79686 0.0
C1571 C 0.9074 0.43176 0.76942 0.0
C1572 C 0.92188 0.43785 0.79033 0.0
C1573 C 0.92433 0.43219 0.83897 0.0
C1574 C 0.88012 0.41279 0.77506 0.0
C1575 C 0.93473 0.45075 0.76255 0.0
H1576 H 0.91058 0.44156 0.58151 0.0
H1577 H 0.90219 0.46896 0.68969 0.0
H1578 H 0.92028 0.42479 0.66991 0.0
H1579 H 0.90116 0.41227 0.68122 0.0
H1580 H 0.90778 0.41882 0.61231 0.0
H1581 H 0.89644 0.46336 0.78362 0.0
H1582 H 0.89172 0.44537 0.80871 0.0
H1583 H 0.91049 0.45978 0.80869 0.0
H1584 H 0.88931 0.40563 0.86825 0.0
H1585 H 0.93537 0.43711 0.85558 0.0
H1586 H 0.87986 0.41038 0.73032 0.0
H1587 H 0.87593 0.42054 0.77988 0.0
H1588 H 0.87258 0.40245 0.79716 0.0
H1589 H 0.93559 0.44805 0.71893 0.0
H1590 H 0.94532 0.45402 0.78359 0.0
H1591 H 0.93299 0.46033 0.76226 0.0
C1592 C 0.56659 0.48009 0.85108 0.0
C1593 C 0.56055 0.48809 0.87452 0.0
C1594 C 0.56116 0.4725 0.8011 0.0
C1595 C 0.54922 0.47268 0.77492 0.0
C1596 C 0.54338 0.48109 0.79768 0.0
C1597 C 0.54923 0.48882 0.84692 0.0
C1598 C 0.56788 0.46393 0.77729 0.0
C1599 C 0.53052 0.48144 0.77132 0.0
C1600 C 0.53649 0.46179 0.62775 0.0
C1601 C 0.5239 0.44803 0.63575 0.0
C1602 C 0.5457 0.46949 0.67222 0.0
C1603 C 0.54203 0.46336 0.72587 0.0
C1604 C 0.53004 0.44898 0.73334 0.0
C1605 C 0.52119 0.44141 0.688 0.0
C1606 C 0.55868 0.48462 0.66242 0.0
C1607 C 0.52571 0.44208 0.78997 0.0
H1608 H 0.57543 0.4796 0.87219 0.0
H1609 H 0.5445 0.49496 0.86496 0.0
H1610 H 0.56003 0.45199 0.78133 0.0
H1611 H 0.57017 0.46634 0.7326 0.0
H1612 H 0.57825 0.46646 0.79859 0.0
H1613 H 0.52751 0.4888 0.7936 0.0
H1614 H 0.53312 0.4852 0.72786 0.0
H1615 H 0.52081 0.4702 0.77074 0.0
H1616 H 0.53877 0.46688 0.58726 0.0
H1617 H 0.51151 0.43075 0.69452 0.0
H1618 H 0.5684 0.48617 0.68607 0.0
H1619 H 0.55599 0.49301 0.67697 0.0
H1620 H 0.56163 0.48663 0.61794 0.0
H1621 H 0.5354 0.44315 0.81235 0.0
H1622 H 0.5172 0.43027 0.78794 0.0
H1623 H 0.52129 0.44791 0.81457 0.0
C1624 C 0.54193 0.07714 0.67921 0.0
C1625 C 0.53551 0.07312 0.62668 0.0
C1626 C 0.53402 0.07801 0.7242 0.0
C1627 C 0.51948 0.07511 0.71609 0.0
C1628 C 0.51346 0.07243 0.66222 0.0
C1629 C 0.5215 0.0713 0.61813 0.0
C1630 C 0.5408 0.08078 0.78112 0.0
C1631 C 0.49816 0.06974 0.65172 0.0
C1632 C 0.49399 0.05684 0.83718 0.0
C1633 C 0.49445 0.06887 0.86396 0.0
C1634 C 0.50181 0.05871 0.78818 0.0
C1635 C 0.51002 0.07292 0.76477 0.0
C1636 C 0.50989 0.08499 0.79006 0.0
C1637 C 0.50224 0.08285 0.83987 0.0
C1638 C 0.50183 0.04558 0.76287 0.0
C1639 C 0.51819 0.10021 0.76549 0.0
H1640 H 0.55276 0.07858 0.68615 0.0
H1641 H 0.51655 0.06837 0.57744 0.0
H1642 H 0.53951 0.08935 0.80287 0.0
H1643 H 0.53504 0.07057 0.80599 0.0
H1644 H 0.55266 0.08428 0.77968 0.0
H1645 H 0.49612 0.07042 0.60706 0.0
H1646 H 0.48999 0.05863 0.66677 0.0
H1647 H 0.49628 0.0778 0.67458 0.0
H1648 H 0.48802 0.04602 0.85578 0.0
H1649 H 0.50251 0.09215 0.86035 0.0
H1650 H 0.51317 0.04737 0.76291 0.0
H1651 H 0.49814 0.0442 0.71926 0.0
H1652 H 0.49459 0.03524 0.78551 0.0
H1653 H 0.53017 0.10454 0.76955 0.0
H1654 H 0.51546 0.10797 0.78618 0.0
H1655 H 0.51574 0.09987 0.72075 0.0
C1656 C 0.51812 0.07454 0.17844 0.0
C1657 C 0.52074 0.07057 0.12618 0.0
C1658 C 0.52725 0.07624 0.22332 0.0
C1659 C 0.53947 0.07424 0.21539 0.0
C1660 C 0.54291 0.07151 0.16178 0.0
C1661 C 0.5334 0.06954 0.1178 0.0
C1662 C 0.52312 0.07901 0.27998 0.0
C1663 C 0.55611 0.06975 0.15148 0.0
C1664 C 0.56526 0.08465 0.3381 0.0
C1665 C 0.55999 0.07098 0.36395 0.0
C1666 C 0.5592 0.08584 0.28801 0.0
C1667 C 0.54739 0.07311 0.26421 0.0
C1668 C 0.54235 0.05924 0.28938 0.0
C1669 C 0.54883 0.05833 0.33864 0.0
C1670 C 0.5651 0.10075 0.26156 0.0
C1671 C 0.52963 0.04542 0.26569 0.0
H1672 H 0.50836 0.07536 0.18526 0.0
H1673 H 0.53558 0.06665 0.07732 0.0
H1674 H 0.51946 0.06909 0.30602 0.0
H1675 H 0.53274 0.0882 0.30063 0.0
H1676 H 0.51412 0.08164 0.27834 0.0
H1677 H 0.55864 0.07017 0.10674 0.0
H1678 H 0.56591 0.07844 0.17318 0.0
H1679 H 0.55395 0.059 0.16801 0.0
H1680 H 0.57398 0.09444 0.35742 0.0
H1681 H 0.5447 0.04774 0.35857 0.0
H1682 H 0.55685 0.10434 0.26502 0.0
H1683 H 0.56715 0.1002 0.2169 0.0
H1684 H 0.57545 0.10918 0.28133 0.0
H1685 H 0.51959 0.04638 0.26569 0.0
H1686 H 0.52733 0.03545 0.28949 0.0
H1687 H 0.53194 0.04392 0.22221 0.0
C1688 C 0.91035 0.45773 0.12086 0.0
C1689 C 0.90998 0.44433 0.12903 0.0
C1690 C 0.90812 0.46501 0.16508 0.0
C1691 C 0.90577 0.45887 0.21868 0.0
C1692 C 0.90422 0.44481 0.22627 0.0
C1693 C 0.90621 0.43764 0.18117 0.0
C1694 C 0.9094 0.47978 0.15513 0.0
C1695 C 0.9018 0.43792 0.28287 0.0
C1696 C 0.92264 0.48453 0.34016 0.0
C1697 C 0.91021 0.48309 0.36716 0.0
C1698 C 0.92132 0.47697 0.291 0.0
C1699 C 0.90723 0.46797 0.26768 0.0
C1700 C 0.89469 0.46704 0.29322 0.0
C1701 C 0.89631 0.47451 0.34314 0.0
C1702 C 0.93496 0.47813 0.26531 0.0
C1703 C 0.87956 0.45783 0.26881 0.0
H1704 H 0.91304 0.46285 0.08044 0.0
H1705 H 0.90583 0.42726 0.1878 0.0
H1706 H 0.90078 0.48071 0.1782 0.0
H1707 H 0.92021 0.48858 0.17024 0.0
H1708 H 0.90848 0.48171 0.11055 0.0
H1709 H 0.89915 0.42629 0.28084 0.0
H1710 H 0.9119 0.44417 0.30801 0.0
H1711 H 0.89277 0.43838 0.30467 0.0
H1712 H 0.9334 0.49113 0.35859 0.0
H1713 H 0.88668 0.47347 0.36375 0.0
H1714 H 0.93607 0.48189 0.22186 0.0
H1715 H 0.93408 0.46716 0.2648 0.0
H1716 H 0.94512 0.48587 0.28802 0.0
H1717 H 0.87966 0.46016 0.22405 0.0
H1718 H 0.87128 0.45981 0.28956 0.0
H1719 H 0.87606 0.44602 0.27302 0.0
C1720 C 0.50561 0.41841 0.35195 0.0
C1721 C 0.49721 0.42406 0.37488 0.0
C1722 C 0.51339 0.42411 0.30247 0.0
C1723 C 0.51295 0.43591 0.27625 0.0
C1724 C 0.50413 0.44135 0.29846 0.0
C1725 C 0.49626 0.43526 0.34721 0.0
C1726 C 0.5224 0.41782 0.27924 0.0
C1727 C 0.50349 0.45405 0.27201 0.0
C1728 C 0.54402 0.46462 0.19039 0.0
C1729 C 0.53751 0.46178 0.13792 0.0
C1730 C 0.53652 0.45561 0.23549 0.0
C1731 C 0.52233 0.44333 0.22754 0.0
C1732 C 0.51636 0.43958 0.17369 0.0
C1733 C 0.52397 0.44895 0.12949 0.0
C1734 C 0.54324 0.46003 0.29236 0.0
C1735 C 0.50144 0.42632 0.16336 0.0
H1736 H 0.50629 0.40967 0.3731 0.0
H1737 H 0.4898 0.43968 0.36481 0.0
H1738 H 0.52019 0.41555 0.23444 0.0
H1739 H 0.53425 0.42592 0.28388 0.0
H1740 H 0.52009 0.40751 0.30049 0.0
H1741 H 0.49587 0.45676 0.29393 0.0
H1742 H 0.5146 0.46394 0.27187 0.0
H1743 H 0.49987 0.45143 0.2284 0.0
H1744 H 0.5545 0.47449 0.19722 0.0
H1745 H 0.51898 0.44658 0.08881 0.0
H1746 H 0.54239 0.45044 0.3148 0.0
H1747 H 0.53714 0.4642 0.31666 0.0
H1748 H 0.55498 0.46876 0.29072 0.0
H1749 H 0.50015 0.41669 0.18695 0.0
H1750 H 0.49961 0.42341 0.11881 0.0
H1751 H 0.49279 0.42866 0.17761 0.0
C1752 C 0.41971 0.24074 0.83006 0.0
C1753 C 0.40561 0.2346 0.80697 0.0
C1754 C 0.42203 0.23532 0.87981 0.0
C1755 C 0.41001 0.22331 0.90613 0.0
C1756 C 0.3957 0.21738 0.88377 0.0
C1757 C 0.39366 0.2232 0.83475 0.0
C1758 C 0.43736 0.24213 0.9032 0.0
C1759 C 0.3826 0.20446 0.91032 0.0
C1760 C 0.41349 0.19534 0.99261 0.0
C1761 C 0.40959 0.198 0.04494 0.0
C1762 C 0.41473 0.20421 0.94738 0.0
C1763 C 0.41228 0.21617 0.95505 0.0
C1764 C 0.40985 0.21979 0.00878 0.0
C1765 C 0.40839 0.21057 0.05313 0.0
C1766 C 0.41727 0.19993 0.89065 0.0
C1767 C 0.40764 0.23273 0.01881 0.0
H1768 H 0.42896 0.24964 0.80884 0.0
H1769 H 0.38275 0.21841 0.81703 0.0
H1770 H 0.43731 0.24439 0.94795 0.0
H1771 H 0.44153 0.23435 0.89879 0.0
H1772 H 0.4451 0.25253 0.88188 0.0
H1773 H 0.37218 0.20136 0.88828 0.0
H1774 H 0.38422 0.19481 0.91075 0.0
H1775 H 0.38147 0.20704 0.95384 0.0
H1776 H 0.4145 0.18569 0.98596 0.0
H1777 H 0.40559 0.21281 0.09369 0.0
H1778 H 0.42581 0.20965 0.86818 0.0
H1779 H 0.40698 0.19542 0.86624 0.0
H1780 H 0.42069 0.1915 0.89253 0.0
H1781 H 0.41574 0.24246 -0.00491 0.0
H1782 H 0.40863 0.23567 0.06331 0.0
H1783 H 0.39653 0.22999 0.00452 0.0
C1784 C 0.76285 0.16992 0.83553 0.0
C1785 C 0.75191 0.1715 0.80868 0.0
C1786 C 0.76907 0.17733 0.88498 0.0
C1787 C 0.76402 0.18631 0.90875 0.0
C1788 C 0.75244 0.18735 0.88339 0.0
C1789 C 0.74662 0.18004 0.83318 0.0
C1790 C 0.78152 0.17606 0.91044 0.0
C1791 C 0.74656 0.19654 0.90828 0.0
C1792 C 0.7774 0.19637 0.05576 0.0
C1793 C 0.79041 0.20979 0.0478 0.0
C1794 C 0.7679 0.18912 0.01142 0.0
C1795 C 0.7717 0.19533 0.95792 0.0
C1796 C 0.7842 0.2094 0.95053 0.0
C1797 C 0.79334 0.21653 -0.00427 0.0
C1798 C 0.75441 0.17434 0.02116 0.0
C1799 C 0.78868 0.21635 0.89404 0.0
H1800 H 0.76699 0.16335 0.81673 0.0
H1801 H 0.73808 0.18119 0.81269 0.0
H1802 H 0.79164 0.18701 0.91109 0.0
H1803 H 0.77886 0.17225 0.95382 0.0
H1804 H 0.78388 0.16833 0.88747 0.0
H1805 H 0.73631 0.19463 0.88762 0.0
H1806 H 0.74432 0.1941 0.95298 0.0
H1807 H 0.75489 0.20835 0.90443 0.0
H1808 H 0.77495 0.1912 0.0961 0.0
H1809 H 0.80334 0.22692 0.98924 0.0
H1810 H 0.75642 0.16556 0.00579 0.0
H1811 H 0.74486 0.17344 -0.00184 0.0
H1812 H 0.75156 0.17234 0.06571 0.0
H1813 H 0.79247 0.21008 0.86868 0.0
H1814 H 0.79771 0.22796 0.8962 0.0
H1815 H 0.77921 0.21597 0.87237 0.0
C1816 C 0.7857 0.57341 0.02191 0.0
C1817 C 0.77272 0.57384 0.01356 0.0
C1818 C 0.79295 0.57124 0.97745 0.0
C1819 C 0.78721 0.56978 0.92349 0.0
C1820 C 0.77342 0.56883 0.91566 0.0
C1821 C 0.76626 0.57074 0.96098 0.0
C1822 C 0.80739 0.5718 0.98765 0.0
C1823 C 0.76693 0.56732 0.85872 0.0
C1824 C 0.81416 0.58859 0.8071 0.0
C1825 C 0.81286 0.57664 0.77689 0.0
C1826 C 0.80609 0.58644 0.85556 0.0
C1827 C 0.79669 0.57197 0.87492 0.0
C1828 C 0.79586 0.55987 0.84613 0.0
C1829 C 0.80387 0.56234 0.79696 0.0
C1830 C 0.80721 0.59967 0.88483 0.0
C1831 C 0.78621 0.54433 0.86624 0.0
H1832 H 0.79061 0.57554 0.06269 0.0
H1833 H 0.75617 0.57095 0.95424 0.0
H1834 H 0.80822 0.56343 0.96244 0.0
H1835 H 0.81655 0.58274 0.97537 0.0
H1836 H 0.80883 0.57 0.0319 0.0
H1837 H 0.75532 0.56473 0.86038 0.0
H1838 H 0.77341 0.57779 0.83585 0.0
H1839 H 0.76747 0.5586 0.83488 0.0
H1840 H 0.82109 0.59967 0.79179 0.0
H1841 H 0.80291 0.55307 0.77385 0.0
H1842 H 0.81062 0.59994 0.92837 0.0
H1843 H 0.7963 0.59892 0.88539 0.0
H1844 H 0.8152 0.61017 0.86473 0.0
H1845 H 0.78776 0.54356 0.91121 0.0
H1846 H 0.7885 0.53642 0.84416 0.0
H1847 H 0.77451 0.541 0.85963 0.0
C1848 C 0.43422 0.93248 0.65076 0.0
C1849 C 0.42311 0.91983 0.6252 0.0
C1850 C 0.44078 0.93153 0.69975 0.0
C1851 C 0.43589 0.91762 0.72438 0.0
C1852 C 0.42416 0.90488 0.70029 0.0
C1853 C 0.41801 0.90612 0.6505 0.0
C1854 C 0.45341 0.94537 0.72377 0.0
C1855 C 0.41843 0.88993 0.72617 0.0
C1856 C 0.46528 0.91635 0.81004 0.0
C1857 C 0.46251 0.9201 0.86247 0.0
C1858 C 0.45617 0.91467 0.76509 0.0
C1859 C 0.44383 0.91648 0.77311 0.0
C1860 C 0.44026 0.919 0.82684 0.0
C1861 C 0.44975 0.92094 0.87089 0.0
C1862 C 0.46044 0.91213 0.70831 0.0
C1863 C 0.42696 0.92056 0.83722 0.0
H1864 H 0.43822 0.94309 0.63124 0.0
H1865 H 0.40934 0.89633 0.63098 0.0
H1866 H 0.45106 0.94673 0.76733 0.0
H1867 H 0.46352 0.94453 0.72359 0.0
H1868 H 0.45561 0.95535 0.70032 0.0
H1869 H 0.40817 0.88144 0.70604 0.0
H1870 H 0.42682 0.88653 0.72266 0.0
H1871 H 0.41627 0.89032 0.77082 0.0
H1872 H 0.47512 0.91568 0.80319 0.0
H1873 H 0.44746 0.92366 0.91149 0.0
H1874 H 0.46404 0.92212 0.6827 0.0
H1875 H 0.45089 0.90296 0.68727 0.0
H1876 H 0.46951 0.90961 0.70984 0.0
H1877 H 0.429 0.9313 0.821 0.0
H1878 H 0.42437 0.92003 0.88195 0.0
H1879 H 0.41722 0.91185 0.81529 0.0
C1880 C 0.06883 0.52642 0.85693 0.0
C1881 C 0.06918 0.5398 0.84866 0.0
C1882 C 0.071 0.51908 0.81273 0.0
C1883 C 0.07327 0.52516 0.75904 0.0
C1884 C 0.07474 0.53918 0.75126 0.0
C1885 C 0.07281 0.5464 0.79634 0.0
C1886 C 0.0698 0.50435 0.82288 0.0
C1887 C 0.07706 0.54599 0.69455 0.0
C1888 C 0.08307 0.5096 0.63516 0.0
C1889 C 0.06922 0.50089 0.61098 0.0
C1890 C 0.08456 0.5171 0.68492 0.0
C1891 C 0.07194 0.51606 0.71016 0.0
C1892 C 0.0579 0.50693 0.68669 0.0
C1893 C 0.0567 0.49934 0.63769 0.0
C1894 C 0.09966 0.52646 0.70949 0.0
C1895 C 0.04417 0.50564 0.71205 0.0
H1896 H 0.06623 0.52136 0.89747 0.0
H1897 H 0.07315 0.55676 0.78963 0.0
H1898 H 0.05902 0.49551 0.80761 0.0
H1899 H 0.07847 0.50347 0.80001 0.0
H1900 H 0.07068 0.50243 0.86749 0.0
H1901 H 0.07957 0.55758 0.69636 0.0
H1902 H 0.08614 0.54562 0.6728 0.0
H1903 H 0.06696 0.53961 0.66948 0.0
H1904 H 0.09276 0.51074 0.61478 0.0
H1905 H 0.04597 0.49264 0.61913 0.0
H1906 H 0.09955 0.5241 0.75422 0.0
H1907 H 0.10299 0.53823 0.70547 0.0
H1908 H 0.10804 0.52465 0.68876 0.0
H1909 H 0.04307 0.50194 0.75558 0.0
H1910 H 0.03407 0.4978 0.6893 0.0
H1911 H 0.04493 0.51656 0.71225 0.0
C1912 C 0.44036 0.52901 0.80963 0.0
C1913 C 0.44697 0.53161 0.86187 0.0
C1914 C 0.44788 0.53803 0.76461 0.0
C1915 C 0.46221 0.55009 0.77239 0.0
C1916 C 0.46832 0.55364 0.82608 0.0
C1917 C 0.46068 0.54425 0.87022 0.0
C1918 C 0.441 0.53382 0.7079 0.0
C1919 C 0.48339 0.56669 0.83625 0.0
C1920 C 0.48772 0.5577 0.65123 0.0
C1921 C 0.48687 0.569 0.62393 0.0
C1922 C 0.48003 0.55174 0.70042 0.0
C1923 C 0.47153 0.55745 0.72349 0.0
C1924 C 0.47124 0.56938 0.69769 0.0
C1925 C 0.47881 0.57493 0.64772 0.0
C1926 C 0.48049 0.5389 0.72635 0.0
C1927 C 0.4626 0.57597 0.72186 0.0
H1928 H 0.42974 0.5193 0.80286 0.0
H1929 H 0.46576 0.54645 0.91071 0.0
H1930 H 0.44198 0.54353 0.68603 0.0
H1931 H 0.44691 0.52955 0.68294 0.0
H1932 H 0.42922 0.52523 0.70975 0.0
H1933 H 0.48535 0.56952 0.88083 0.0
H1934 H 0.49186 0.56414 0.82149 0.0
H1935 H 0.48485 0.57643 0.813 0.0
H1936 H 0.49392 0.55307 0.63296 0.0
H1937 H 0.47823 0.58376 0.62688 0.0
H1938 H 0.46928 0.52913 0.72681 0.0
H1939 H 0.48425 0.54144 0.76983 0.0
H1940 H 0.4879 0.536 0.70384 0.0
H1941 H 0.45068 0.5681 0.7174 0.0
H1942 H 0.46513 0.5864 0.70111 0.0
H1943 H 0.46492 0.5781 0.76667 0.0
C1944 C 0.57831 0.78309 0.94889 0.0
C1945 C 0.57706 0.79563 0.95701 0.0
C1946 C 0.57699 0.77395 0.99335 0.0
C1947 C 0.57466 0.77764 0.04713 0.0
C1948 C 0.57222 0.78959 0.0548 0.0
C1949 C 0.5733 0.79837 0.00947 0.0
C1950 C 0.57921 0.76101 0.98333 0.0
C1951 C 0.56979 0.79395 0.11159 0.0
C1952 C 0.56719 0.75303 0.17201 0.0
C1953 C 0.58129 0.75909 0.19499 0.0
C1954 C 0.56489 0.75849 0.12236 0.0
C1955 C 0.57693 0.77048 0.09602 0.0
C1956 C 0.59124 0.77635 0.11832 0.0
C1957 C 0.59326 0.77047 0.16724 0.0
C1958 C 0.54955 0.75175 0.09905 0.0
C1959 C 0.60436 0.78926 0.09178 0.0
H1960 H 0.58102 0.7808 0.90825 0.0
H1961 H 0.57228 0.80802 0.01609 0.0
H1962 H 0.59032 0.76376 -0.0024 0.0
H1963 H 0.57111 0.75128 0.0071 0.0
H1964 H 0.57821 0.75806 0.93885 0.0
H1965 H 0.56642 0.80241 0.10978 0.0
H1966 H 0.56126 0.78425 0.13424 0.0
H1967 H 0.58012 0.79844 0.13578 0.0
H1968 H 0.55793 0.74415 0.19323 0.0
H1969 H 0.60417 0.77522 0.18493 0.0
H1970 H 0.54956 0.74939 0.05437 0.0
H1971 H 0.54548 0.75961 0.10313 0.0
H1972 H 0.54175 0.74141 0.12061 0.0
H1973 H 0.60545 0.78668 0.04821 0.0
H1974 H 0.61478 0.7923 0.11374 0.0
H1975 H 0.60277 0.79893 0.09148 0.0
C1976 C 0.23535 0.80515 0.17657 0.0
C1977 C 0.23021 0.81409 0.19859 0.0
C1978 C 0.2295 0.79734 0.12725 0.0
C1979 C 0.21808 0.79831 0.10023 0.0
C1980 C 0.21315 0.80763 0.12158 0.0
C1981 C 0.21937 0.81551 0.1702 0.0
C1982 C 0.23524 0.78775 0.10497 0.0
C1983 C 0.20088 0.80887 0.09426 0.0
C1984 C 0.20521 0.7877 0.95314 0.0
C1985 C 0.19195 0.77455 0.9613 0.0
C1986 C 0.21465 0.79496 -0.00241 0.0
C1987 C 0.21055 0.78904 0.05139 0.0
C1988 C 0.19781 0.77516 0.05906 0.0
C1989 C 0.18872 0.768 0.01374 0.0
C1990 C 0.22839 0.80953 0.98757 0.0
C1991 C 0.193 0.7685 0.11585 0.0
H1992 H 0.2438 0.8041 0.19827 0.0
H1993 H 0.21534 0.82239 0.18706 0.0
H1994 H 0.22673 0.77603 0.10965 0.0
H1995 H 0.23769 0.78983 0.06022 0.0
H1996 H 0.24532 0.78963 0.12684 0.0
H1997 H 0.19851 0.8168 0.1157 0.0
H1998 H 0.20375 0.81243 0.0507 0.0
H1999 H 0.1907 0.79797 0.09386 0.0
H2000 H 0.20789 0.79271 0.9125 0.0
H2001 H 0.17852 0.7578 0.02036 0.0
H2002 H 0.23774 0.81035 0.01174 0.0
H2003 H 0.22655 0.81855 0.00132 0.0
H2004 H 0.23145 0.81123 0.94314 0.0
H2005 H 0.20233 0.76895 0.13889 0.0
H2006 H 0.18395 0.75689 0.11399 0.0
H2007 H 0.18912 0.77492 0.13967 0.0
C2008 C 0.1954 0.41057 0.93813 0.0
C2009 C 0.20897 0.41135 0.94651 0.0
C2010 C 0.18782 0.41237 0.98233 0.0
C2011 C 0.19384 0.41466 0.03614 0.0
C2012 C 0.20807 0.41666 0.04397 0.0
C2013 C 0.21554 0.41513 -0.00113 0.0
C2014 C 0.17287 0.41063 0.9721 0.0
C2015 C 0.21483 0.41901 0.10078 0.0
C2016 C 0.17663 0.42224 0.16062 0.0
C2017 C 0.16822 0.40807 0.18267 0.0
C2018 C 0.18462 0.42457 0.11152 0.0
C2019 C 0.18442 0.41249 0.08488 0.0
C2020 C 0.17569 0.39814 0.10645 0.0
C2021 C 0.16758 0.3961 0.15473 0.0
C2022 C 0.19354 0.43996 0.08894 0.0
C2023 C 0.1753 0.38496 0.07964 0.0
H2024 H 0.19038 0.40789 0.89752 0.0
H2025 H 0.22605 0.4158 0.00564 0.0
H2026 H 0.16426 0.3996 0.9862 0.0
H2027 H 0.17151 0.4189 -0.00413 0.0
H2028 H 0.17103 0.41174 0.92759 0.0
H2029 H 0.22663 0.42224 0.09898 0.0
H2030 H 0.21379 0.4276 0.1235 0.0
H2031 H 0.20889 0.40867 0.12489 0.0
H2032 H 0.17706 0.4315 0.182 0.0
H2033 H 0.16113 0.38513 0.17168 0.0
H2034 H 0.19131 0.44014 0.04422 0.0
H2035 H 0.20541 0.44378 0.09335 0.0
H2036 H 0.19117 0.44784 0.11074 0.0
H2037 H 0.17163 0.38396 0.0361 0.0
H2038 H 0.16784 0.37455 0.10144 0.0
H2039 H 0.1865 0.3864 0.07923 0.0
C2040 C 0.23594 0.42188 0.66141 0.0
C2041 C 0.23123 0.40796 0.6842 0.0
C2042 C 0.22966 0.42345 0.61249 0.0
C2043 C 0.21827 0.41081 0.58658 0.0
C2044 C 0.21377 0.39671 0.60867 0.0
C2045 C 0.2204 0.39546 0.65693 0.0
C2046 C 0.23493 0.43862 0.58941 0.0
C2047 C 0.20156 0.38295 0.5825 0.0
C2048 C 0.18854 0.41144 0.50084 0.0
C2049 C 0.19189 0.4085 0.44799 0.0
C2050 C 0.19758 0.41315 0.54611 0.0
C2051 C 0.21039 0.41215 0.53802 0.0
C2052 C 0.21449 0.41047 0.48403 0.0
C2053 C 0.20511 0.40853 0.43964 0.0
C2054 C 0.19278 0.41482 0.60314 0.0
C2055 C 0.22826 0.40974 0.47361 0.0
H2056 H 0.24438 0.43157 0.68223 0.0
H2057 H 0.21671 0.38467 0.67439 0.0
H2058 H 0.23743 0.43893 0.54474 0.0
H2059 H 0.22614 0.44146 0.5935 0.0
H2060 H 0.24488 0.44714 0.61106 0.0
H2061 H 0.19958 0.37282 0.60429 0.0
H2062 H 0.19123 0.38339 0.58284 0.0
H2063 H 0.20423 0.3822 0.53874 0.0
H2064 H 0.17836 0.41146 0.50761 0.0
H2065 H 0.20786 0.40646 0.39872 0.0
H2066 H 0.20202 0.42391 0.62579 0.0
H2067 H 0.18929 0.40459 0.62707 0.0
H2068 H 0.18347 0.41699 0.60178 0.0
H2069 H 0.23767 0.41848 0.49689 0.0
H2070 H 0.23114 0.41087 0.42903 0.0
H2071 H 0.22663 0.39902 0.48827 0.0
C2072 C 0.59226 0.82328 0.66794 0.0
C2073 C 0.57994 0.82218 0.69469 0.0
C2074 C 0.59077 0.81555 0.61903 0.0
C2075 C 0.57665 0.80675 0.59572 0.0
C2076 C 0.56424 0.80617 0.62104 0.0
C2077 C 0.56601 0.81378 0.6707 0.0
C2078 C 0.60428 0.81635 0.59359 0.0
C2079 C 0.54907 0.79717 0.59661 0.0
C2080 C 0.57931 0.7961 0.44898 0.0
C2081 C 0.57854 0.78252 0.45727 0.0
C2082 C 0.57742 0.80362 0.49315 0.0
C2083 C 0.57498 0.79753 0.54685 0.0
C2084 C 0.57305 0.78332 0.55463 0.0
C2085 C 0.57472 0.77592 0.50956 0.0
C2086 C 0.5791 0.81856 0.48301 0.0
C2087 C 0.57055 0.77648 0.61134 0.0
H2088 H 0.60304 0.82973 0.68637 0.0
H2089 H 0.55647 0.813 0.69113 0.0
H2090 H 0.60312 0.80526 0.59338 0.0
H2091 H 0.60548 0.82006 0.55005 0.0
H2092 H 0.61449 0.82395 0.61627 0.0
H2093 H 0.54091 0.7993 0.61746 0.0
H2094 H 0.54922 0.79957 0.5519 0.0
H2095 H 0.54538 0.78531 0.60061 0.0
H2096 H 0.58206 0.80117 0.40845 0.0
H2097 H 0.57405 0.76541 0.51629 0.0
H2098 H 0.59001 0.82718 0.49814 0.0
H2099 H 0.57064 0.81977 0.50597 0.0
H2100 H 0.57827 0.82053 0.4384 0.0
H2101 H 0.5807 0.78259 0.63632 0.0
H2102 H 0.56763 0.76476 0.60951 0.0
H2103 H 0.56167 0.77721 0.63318 0.0
C2104 C 0.17349 0.74626 0.67617 0.0
C2105 C 0.16548 0.75243 0.69844 0.0
C2106 C 0.18139 0.75164 0.62672 0.0
C2107 C 0.18146 0.76363 0.59983 0.0
C2108 C 0.17304 0.7696 0.6214 0.0
C2109 C 0.16504 0.76383 0.67015 0.0
C2110 C 0.18997 0.7448 0.6042 0.0
C2111 C 0.17293 0.78249 0.59421 0.0
C2112 C 0.21299 0.79147 0.5134 0.0
C2113 C 0.20649 0.78869 0.46091 0.0
C2114 C 0.20532 0.78267 0.55872 0.0
C2115 C 0.19094 0.77067 0.55101 0.0
C2116 C 0.18495 0.76693 0.49719 0.0
C2117 C 0.19275 0.77608 0.45274 0.0
C2118 C 0.21208 0.78707 0.61553 0.0
C2119 C 0.16982 0.75396 0.48714 0.0
H2120 H 0.17376 0.73737 0.69779 0.0
H2121 H 0.15888 0.76864 0.68722 0.0
H2122 H 0.18773 0.74243 0.55948 0.0
H2123 H 0.20191 0.75262 0.60873 0.0
H2124 H 0.18731 0.73446 0.62602 0.0
H2125 H 0.16558 0.78564 0.61572 0.0
H2126 H 0.18422 0.79213 0.59386 0.0
H2127 H 0.16929 0.77984 0.55064 0.0
H2128 H 0.22363 0.80116 0.52004 0.0
H2129 H 0.18776 0.77374 0.41207 0.0
H2130 H 0.21084 0.77738 0.63849 0.0
H2131 H 0.20629 0.79165 0.63941 0.0
H2132 H 0.22393 0.79548 0.61373 0.0
H2133 H 0.16818 0.74427 0.51125 0.0
H2134 H 0.16792 0.75093 0.44271 0.0
H2135 H 0.16142 0.75671 0.50098 0.0
C2136 C 0.05474 0.55186 0.13957 0.0
C2137 C 0.06647 0.56336 0.1113 0.0
C2138 C 0.05709 0.54627 0.18859 0.0
C2139 C 0.07149 0.55256 0.21046 0.0
C2140 C 0.08327 0.56468 0.18363 0.0
C2141 C 0.08064 0.56985 0.13386 0.0
C2142 C 0.04425 0.5332 0.21565 0.0
C2143 C 0.09868 0.57189 0.20651 0.0
C2144 C 0.07056 0.54018 0.35756 0.0
C2145 C 0.07213 0.52782 0.34937 0.0
C2146 C 0.07168 0.54925 0.31314 0.0
C2147 C 0.07413 0.54568 0.25934 0.0
C2148 C 0.07695 0.53397 0.25165 0.0
C2149 C 0.07606 0.52526 0.29694 0.0
C2150 C 0.06908 0.56194 0.32319 0.0
C2151 C 0.07953 0.52974 0.19485 0.0
H2152 H 0.04377 0.54679 0.1222 0.0
H2153 H 0.08972 0.57883 0.11224 0.0
H2154 H 0.04618 0.52375 0.21613 0.0
H2155 H 0.04314 0.53579 0.25918 0.0
H2156 H 0.03371 0.52981 0.19395 0.0
H2157 H 0.10617 0.58233 0.1849 0.0
H2158 H 0.09867 0.57418 0.25125 0.0
H2159 H 0.10313 0.56435 0.202 0.0
H2160 H 0.06773 0.54235 0.39818 0.0
H2161 H 0.07735 0.51577 0.29028 0.0
H2162 H 0.05785 0.55889 0.30935 0.0
H2163 H 0.07694 0.57173 0.2991 0.0
H2164 H 0.07013 0.56495 0.36763 0.0
H2165 H 0.06916 0.52496 0.17079 0.0
H2166 H 0.08324 0.52154 0.19666 0.0
H2167 H 0.08784 0.53954 0.17207 0.0
C2168 C 0.4342 0.50382 0.15082 0.0
C2169 C 0.42286 0.50458 0.12347 0.0
C2170 C 0.44011 0.51153 0.20006 0.0
C2171 C 0.43431 0.51996 0.22308 0.0
C2172 C 0.42236 0.52017 0.19717 0.0
C2173 C 0.41686 0.51259 0.1472 0.0
C2174 C 0.45299 0.51116 0.22611 0.0
C2175 C 0.41568 0.52874 0.22125 0.0
C2176 C 0.44715 0.53087 0.37022 0.0
C2177 C 0.45971 0.54465 0.36221 0.0
C2178 C 0.43793 0.52315 0.32578 0.0
C2179 C 0.44157 0.52927 0.27212 0.0
C2180 C 0.45356 0.54366 0.2646 0.0
C2181 C 0.46241 0.55124 0.30991 0.0
C2182 C 0.42497 0.50801 0.33564 0.0
C2183 C 0.45785 0.55055 0.20795 0.0
H2184 H 0.4389 0.49768 0.13256 0.0
H2185 H 0.40801 0.5131 0.1263 0.0
H2186 H 0.46271 0.52239 0.22657 0.0
H2187 H 0.45044 0.50741 0.26961 0.0
H2188 H 0.45594 0.50378 0.20369 0.0
H2189 H 0.40531 0.52625 0.2001 0.0
H2190 H 0.41342 0.52631 0.26594 0.0
H2191 H 0.42356 0.54068 0.2173 0.0
H2192 H 0.44488 0.52579 0.41073 0.0
H2193 H 0.47207 0.56191 0.30336 0.0
H2194 H 0.42765 0.49963 0.32089 0.0
H2195 H 0.41523 0.50646 0.31218 0.0
H2196 H 0.42207 0.50598 0.38015 0.0
H2197 H 0.46223 0.54469 0.18323 0.0
H2198 H 0.46639 0.56235 0.20992 0.0
H2199 H 0.44816 0.5495 0.18572 0.0
C2200 C 0.48046 0.90805 0.14932 0.0
C2201 C 0.48833 0.92204 0.12535 0.0
C2202 C 0.47272 0.90592 0.19892 0.0
C2203 C 0.47262 0.918 0.22413 0.0
C2204 C 0.48089 0.93221 0.2008 0.0
C2205 C 0.48879 0.93408 0.15201 0.0
C2206 C 0.46434 0.89069 0.22341 0.0
C2207 C 0.4809 0.94536 0.22604 0.0
C2208 C 0.44073 0.91391 0.30962 0.0
C2209 C 0.44714 0.91787 0.36218 0.0
C2210 C 0.44863 0.91301 0.26462 0.0
C2211 C 0.46315 0.91585 0.27277 0.0
C2212 C 0.46916 0.91849 0.32666 0.0
C2213 C 0.46113 0.91964 0.37074 0.0
C2214 C 0.44188 0.91029 0.20769 0.0
C2215 C 0.48444 0.92111 0.33718 0.0
H2216 H 0.48019 0.89874 0.12893 0.0
H2217 H 0.49482 0.9449 0.13349 0.0
H2218 H 0.4668 0.891 0.26812 0.0
H2219 H 0.45237 0.88645 0.21944 0.0
H2220 H 0.46698 0.88288 0.20261 0.0
H2221 H 0.48817 0.9557 0.20341 0.0
H2222 H 0.46958 0.94361 0.22591 0.0
H2223 H 0.48457 0.94674 0.26968 0.0
H2224 H 0.42992 0.91252 0.30267 0.0
H2225 H 0.46607 0.92253 0.41146 0.0
H2226 H 0.44315 0.90172 0.18587 0.0
H2227 H 0.44766 0.92052 0.1829 0.0
H2228 H 0.43002 0.90682 0.20911 0.0
H2229 H 0.48627 0.91302 0.31437 0.0
H2230 H 0.48647 0.92044 0.38185 0.0
H2231 H 0.49263 0.93221 0.32209 0.0
C2232 C 0.20423 0.34119 0.94066 0.0
C2233 C 0.21771 0.35436 0.93806 0.0
C2234 C 0.20094 0.3314 0.98484 0.0
C2235 C 0.2114 0.33482 0.02743 0.0
C2236 C 0.22532 0.3477 0.02364 0.0
C2237 C 0.22831 0.35734 0.97901 0.0
C2238 C 0.18598 0.31772 0.98723 0.0
C2239 C 0.2368 0.35164 0.06797 0.0
C2240 C 0.19403 0.31792 0.165 0.0
C2241 C 0.19485 0.305 0.16488 0.0
C2242 C 0.20011 0.32814 0.12186 0.0
C2243 C 0.20723 0.32542 0.07763 0.0
C2244 C 0.20904 0.31297 0.07925 0.0
C2245 C 0.20282 0.30289 0.12287 0.0
C2246 C 0.19803 0.34136 0.12186 0.0
C2247 C 0.21673 0.30978 0.0332 0.0
H2248 H 0.19598 0.33874 0.90917 0.0
H2249 H 0.23878 0.36745 0.97733 0.0
H2250 H 0.18711 0.30787 0.99325 0.0
H2251 H 0.17976 0.31839 0.02307 0.0
H2252 H 0.17945 0.31618 0.94917 0.0
H2253 H 0.2476 0.36109 0.05585 0.0
H2254 H 0.23313 0.35454 0.10654 0.0
H2255 H 0.23824 0.34211 0.07743 0.0
H2256 H 0.188 0.31973 0.1974 0.0
H2257 H 0.2036 0.29299 0.12249 0.0
H2258 H 0.19039 0.34027 0.08814 0.0
H2259 H 0.20863 0.35154 0.11393 0.0
H2260 H 0.19348 0.34262 0.16158 0.0
H2261 H 0.20972 0.30639 -0.0043 0.0
H2262 H 0.21903 0.30087 0.04427 0.0
H2263 H 0.22723 0.31978 0.02245 0.0
C2264 C 0.66685 0.86863 0.18503 0.0
C2265 C 0.67946 0.88254 0.18939 0.0
C2266 C 0.65745 0.86495 0.13929 0.0
C2267 C 0.66072 0.87544 0.09694 0.0
C2268 C 0.67298 0.88973 0.10241 0.0
C2269 C 0.68221 0.89312 0.14857 0.0
C2270 C 0.6444 0.8496 0.1351 0.0
C2271 C 0.67676 0.90123 0.05829 0.0
C2272 C 0.64629 0.85911 0.95541 0.0
C2273 C 0.63323 0.85963 0.95248 0.0
C2274 C 0.65562 0.86473 0.00136 0.0
C2275 C 0.65182 0.87106 0.0454 0.0
C2276 C 0.63908 0.87232 0.04147 0.0
C2277 C 0.62993 0.8666 -0.00495 0.0
C2278 C 0.66919 0.86327 0.00387 0.0
C2279 C 0.63473 0.87909 0.08743 0.0
H2280 H 0.66458 0.8604 0.21635 0.0
H2281 H 0.69189 0.90392 0.15157 0.0
H2282 H 0.63424 0.85004 0.12706 0.0
H2283 H 0.64595 0.84378 0.0998 0.0
H2284 H 0.64281 0.84308 0.1732 0.0
H2285 H 0.68578 0.9122 0.07124 0.0
H2286 H 0.6802 0.89793 0.02013 0.0
H2287 H 0.66699 0.90216 0.04771 0.0
H2288 H 0.64898 0.85381 0.92273 0.0
H2289 H 0.6199 0.86711 0.99317 0.0
H2290 H 0.66806 0.85568 0.03782 0.0
H2291 H 0.679 0.87406 0.01304 0.0
H2292 H 0.67112 0.859 0.96468 0.0
H2293 H 0.6316 0.87195 0.12452 0.0
H2294 H 0.62532 0.88056 0.07572 0.0
H2295 H 0.64413 0.88993 0.09922 0.0
C2296 C 0.12142 0.76192 0.99257 0.0
C2297 C 0.12928 0.77193 0.95019 0.0
C2298 C 0.11555 0.76593 0.03691 0.0
C2299 C 0.11758 0.78028 0.03888 0.0
C2300 C 0.12486 0.79019 -0.00507 0.0
C2301 C 0.13061 0.78589 0.95112 0.0
C2302 C 0.10777 0.75504 0.08285 0.0
C2303 C 0.12716 0.80557 -0.00462 0.0
C2304 C 0.09559 0.79054 0.13494 0.0
C2305 C 0.10583 0.79807 0.17706 0.0
C2306 C 0.09903 0.78417 0.09065 0.0
C2307 C 0.11303 0.78536 0.08847 0.0
C2308 C 0.12313 0.7923 0.13218 0.0
C2309 C 0.1194 0.79856 0.17595 0.0
C2310 C 0.08794 0.77678 0.04496 0.0
C2311 C 0.13815 0.7937 0.13151 0.0
H2312 H 0.12028 0.75109 0.99223 0.0
H2313 H 0.13659 0.79369 0.91853 0.0
H2314 H 0.11447 0.75887 0.12108 0.0
H2315 H 0.09706 0.75424 0.092 0.0
H2316 H 0.10584 0.74391 0.07258 0.0
H2317 H 0.13215 0.81158 0.95637 0.0
H2318 H 0.11656 0.80524 0.00187 0.0
H2319 H 0.13449 0.81186 0.0302 0.0
H2320 H 0.08504 0.79006 0.13543 0.0
H2321 H 0.12737 0.80428 0.20835 0.0
H2322 H 0.08649 0.76578 0.03595 0.0
H2323 H 0.092 0.78339 0.00659 0.0
H2324 H 0.07707 0.7755 0.05541 0.0
H2325 H 0.13715 0.78279 0.12515 0.0
H2326 H 0.14432 0.79851 0.17039 0.0
H2327 H 0.14464 0.80081 0.09653 0.0
C2328 C 0.30095 0.19801 0.35696 0.0
C2329 C 0.30409 0.19052 0.31598 0.0
C2330 C 0.3102 0.20419 0.40286 0.0
C2331 C 0.32289 0.20286 0.4079 0.0
C2332 C 0.3265 0.19595 0.36544 0.0
C2333 C 0.31707 0.18988 0.31998 0.0
C2334 C 0.30605 0.21157 0.44712 0.0
C2335 C 0.34 0.19438 0.36919 0.0
C2336 C 0.35365 0.22602 0.50828 0.0
C2337 C 0.35095 0.21595 0.55105 0.0
C2338 C 0.34429 0.22213 0.46231 0.0
C2339 C 0.33194 0.20783 0.45904 0.0
C2340 C 0.32872 0.19786 0.50332 0.0
C2341 C 0.33825 0.20205 0.5488 0.0
C2342 C 0.34802 0.23308 0.41609 0.0
C2343 C 0.31559 0.18253 0.5015 0.0
H2344 H 0.29098 0.19862 0.35424 0.0
H2345 H 0.31963 0.18417 0.28853 0.0
H2346 H 0.30303 0.20491 0.48548 0.0
H2347 H 0.31553 0.22253 0.45715 0.0
H2348 H 0.29663 0.21293 0.43459 0.0
H2349 H 0.34175 0.18956 0.33111 0.0
H2350 H 0.34989 0.20524 0.37665 0.0
H2351 H 0.3389 0.18721 0.40468 0.0
H2352 H 0.3634 0.23681 0.50963 0.0
H2353 H 0.33602 0.1942 0.58164 0.0
H2354 H 0.33826 0.23396 0.40472 0.0
H2355 H 0.3513 0.22926 0.37889 0.0
H2356 H 0.35713 0.24417 0.42732 0.0
H2357 H 0.30545 0.18295 0.49269 0.0
H2358 H 0.31405 0.17648 0.54084 0.0
H2359 H 0.31698 0.17623 0.4676 0.0
C2360 C 0.75697 0.12711 0.50774 0.0
C2361 C 0.76719 0.13392 0.55058 0.0
C2362 C 0.76022 0.12103 0.46196 0.0
C2363 C 0.77402 0.12179 0.45896 0.0
C2364 C 0.7841 0.12801 0.50322 0.0
C2365 C 0.78056 0.13398 0.5485 0.0
C2366 C 0.74916 0.1144 0.41574 0.0
C2367 C 0.79892 0.12896 0.50167 0.0
C2368 C 0.78167 0.09864 0.35879 0.0
C2369 C 0.78984 0.10895 0.31765 0.0
C2370 C 0.77592 0.10247 0.404 0.0
C2371 C 0.77839 0.11696 0.40821 0.0
C2372 C 0.78596 0.1272 0.36547 0.0
C2373 C 0.79157 0.12307 0.32068 0.0
C2374 C 0.7678 0.09123 0.44855 0.0
C2375 C 0.78875 0.14274 0.36832 0.0
H2376 H 0.74659 0.12695 0.50894 0.0
H2377 H 0.78852 0.13916 0.58139 0.0
H2378 H 0.75346 0.12137 0.3783 0.0
H2379 H 0.74735 0.10336 0.40488 0.0
H2380 H 0.73843 0.11339 0.42668 0.0
H2381 H 0.80511 0.13328 0.54086 0.0
H2382 H 0.79758 0.11797 0.49358 0.0
H2383 H 0.80557 0.13628 0.46741 0.0
H2384 H 0.78021 0.08769 0.3568 0.0
H2385 H 0.7978 0.13111 0.28909 0.0
H2386 H 0.75725 0.09072 0.45828 0.0
H2387 H 0.77445 0.09449 0.48696 0.0
H2388 H 0.76551 0.08008 0.43649 0.0
H2389 H 0.77831 0.14271 0.37559 0.0
H2390 H 0.79388 0.14904 0.32996 0.0
H2391 H 0.79614 0.14856 0.4036 0.0
C2392 C 0.8887 0.68958 0.36271 0.0
C2393 C 0.87879 0.68792 0.32063 0.0
C2394 C 0.88465 0.67907 0.40489 0.0
C2395 C 0.87036 0.66663 0.40495 0.0
C2396 C 0.86054 0.66458 0.36134 0.0
C2397 C 0.86487 0.67524 0.31974 0.0
C2398 C 0.89544 0.68159 0.45058 0.0
C2399 C 0.84522 0.65141 0.35978 0.0
C2400 C 0.85996 0.6328 0.4923 0.0
C2401 C 0.85215 0.63466 0.53561 0.0
C2402 C 0.86652 0.64342 0.45057 0.0
C2403 C 0.86524 0.6562 0.45223 0.0
C2404 C 0.85803 0.65849 0.49728 0.0
C2405 C 0.85159 0.6477 0.53841 0.0
C2406 C 0.87419 0.64064 0.40336 0.0
C2407 C 0.85651 0.67201 0.50071 0.0
H2408 H 0.89949 0.69932 0.36378 0.0
H2409 H 0.85715 0.6738 0.28733 0.0
H2410 H 0.89142 0.68372 0.4899 0.0
H2411 H 0.89639 0.67164 0.45683 0.0
H2412 H 0.90653 0.69105 0.44186 0.0
H2413 H 0.83925 0.65098 0.3213 0.0
H2414 H 0.84566 0.64112 0.36313 0.0
H2415 H 0.83882 0.65177 0.39559 0.0
H2416 H 0.8605 0.62279 0.48979 0.0
H2417 H 0.84567 0.6493 0.57181 0.0
H2418 H 0.88516 0.65041 0.39611 0.0
H2419 H 0.86771 0.63866 0.36492 0.0
H2420 H 0.87557 0.63098 0.41104 0.0
H2421 H 0.86739 0.68207 0.49602 0.0
H2422 H 0.85158 0.67268 0.54042 0.0
H2423 H 0.84945 0.67192 0.46642 0.0
C2424 C 0.78975 0.69015 0.85611 0.0
C2425 C 0.7976 0.68833 0.81287 0.0
C2426 C 0.78324 0.67954 0.89791 0.0
C2427 C 0.7846 0.66682 0.89637 0.0
C2428 C 0.79186 0.66457 0.85144 0.0
C2429 C 0.79827 0.67534 0.81025 0.0
C2430 C 0.77551 0.68229 0.94503 0.0
C2431 C 0.79347 0.65109 0.84813 0.0
C2432 C 0.78483 0.64776 0.02903 0.0
C2433 C 0.77092 0.63507 0.02792 0.0
C2434 C 0.78921 0.65843 0.98742 0.0
C2435 C 0.77944 0.65637 0.94359 0.0
C2436 C 0.76516 0.64392 0.9434 0.0
C2437 C 0.76106 0.63341 0.9856 0.0
C2438 C 0.80452 0.67161 0.98922 0.0
C2439 C 0.75443 0.64139 0.89748 0.0
H2440 H 0.78913 0.70012 0.85849 0.0
H2441 H 0.80423 0.67377 0.77691 0.0
H2442 H 0.76454 0.67251 0.95209 0.0
H2443 H 0.78195 0.68424 0.98357 0.0
H2444 H 0.77413 0.69195 0.93738 0.0
H2445 H 0.79847 0.65047 0.80855 0.0
H2446 H 0.80049 0.65121 0.88259 0.0
H2447 H 0.7826 0.641 0.85263 0.0
H2448 H 0.79251 0.6492 0.06161 0.0
H2449 H 0.75028 0.62366 0.98436 0.0
H2450 H 0.80406 0.68189 0.98578 0.0
H2451 H 0.81097 0.67127 0.95355 0.0
H2452 H 0.81044 0.67204 0.02783 0.0
H2453 H 0.75343 0.65131 0.89125 0.0
H2454 H 0.74334 0.63188 0.90591 0.0
H2455 H 0.75854 0.63933 0.85823 0.0
C2456 C 0.33997 0.13403 0.04674 0.0
C2457 C 0.35296 0.13341 0.05056 0.0
C2458 C 0.33051 0.12794 0.00135 0.0
C2459 C 0.33411 0.12104 0.9588 0.0
C2460 C 0.34681 0.11973 0.96368 0.0
C2461 C 0.35608 0.12592 0.0095 0.0
C2462 C 0.317 0.12948 -0.00224 0.0
C2463 C 0.35096 0.11237 0.91932 0.0
C2464 C 0.30347 0.09782 0.85801 0.0
C2465 C 0.3062 0.10789 0.81518 0.0
C2466 C 0.31276 0.10176 0.90422 0.0
C2467 C 0.32506 0.11609 0.90767 0.0
C2468 C 0.32829 0.12606 0.8634 0.0
C2469 C 0.31883 0.12183 0.81769 0.0
C2470 C 0.30902 0.0908 0.95045 0.0
C2471 C 0.34137 0.14142 0.86539 0.0
H2472 H 0.33742 0.13974 0.07825 0.0
H2473 H 0.36606 0.12532 0.01209 0.0
H2474 H 0.31808 0.13668 0.96241 0.0
H2475 H 0.30711 0.11863 0.99016 0.0
H2476 H 0.31523 0.13425 0.03595 0.0
H2477 H 0.3604 0.11104 0.93171 0.0
H2478 H 0.34149 0.1014 0.90935 0.0
H2479 H 0.35393 0.11903 0.88096 0.0
H2480 H 0.29377 0.08701 0.85649 0.0
H2481 H 0.32108 0.12968 0.78481 0.0
H2482 H 0.30575 0.09463 0.98766 0.0
H2483 H 0.31877 0.08991 0.9618 0.0
H2484 H 0.2999 0.07972 0.93925 0.0
H2485 H 0.33994 0.14767 0.89943 0.0
H2486 H 0.34289 0.1475 0.82615 0.0
H2487 H 0.35154 0.14104 0.87412 0.0
C2488 C 0.88598 0.1952 0.86543 0.0
C2489 C 0.87568 0.18821 0.82297 0.0
C2490 C 0.88272 0.20125 0.91123 0.0
C2491 C 0.86883 0.20029 0.91463 0.0
C2492 C 0.85865 0.19385 0.8708 0.0
C2493 C 0.8622 0.1879 0.82548 0.0
C2494 C 0.89388 0.20811 0.95703 0.0
C2495 C 0.84374 0.19269 0.87279 0.0
C2496 C 0.85169 0.19936 0.05347 0.0
C2497 C 0.85334 0.21344 0.05594 0.0
C2498 C 0.85719 0.19512 0.00863 0.0
C2499 C 0.86454 0.20522 0.96527 0.0
C2500 C 0.86692 0.21968 0.96885 0.0
C2501 C 0.86129 0.22362 0.01415 0.0
C2502 C 0.85452 0.17962 0.00644 0.0
C2503 C 0.87479 0.23077 0.92359 0.0
H2504 H 0.89645 0.19554 0.86389 0.0
H2505 H 0.85418 0.18257 0.79289 0.0
H2506 H 0.89565 0.21916 0.96734 0.0
H2507 H 0.88971 0.20128 -0.00516 0.0
H2508 H 0.90462 0.20916 0.94594 0.0
H2509 H 0.83744 0.18817 0.83393 0.0
H2510 H 0.83726 0.18545 0.9075 0.0
H2511 H 0.84495 0.20365 0.88044 0.0
H2512 H 0.84562 0.19142 0.08557 0.0
H2513 H 0.86269 0.23455 0.0157 0.0
H2514 H 0.86498 0.17972 -0.00115 0.0
H2515 H 0.84704 0.17362 0.97161 0.0
H2516 H 0.84956 0.17345 0.04519 0.0
H2517 H 0.88538 0.23139 0.91366 0.0
H2518 H 0.87697 0.24192 0.93504 0.0
H2519 H 0.86803 0.22728 0.88547 0.0
C2520 C 0.68529 0.79143 0.64596 0.0
C2521 C 0.68208 0.79866 0.68777 0.0
C2522 C 0.67614 0.78559 0.59957 0.0
C2523 C 0.6635 0.78702 0.59487 0.0
C2524 C 0.6598 0.79363 0.63819 0.0
C2525 C 0.66912 0.79935 0.68413 0.0
C2526 C 0.68037 0.7785 0.55444 0.0
C2527 C 0.64636 0.7953 0.63486 0.0
C2528 C 0.64864 0.78924 0.45465 0.0
C2529 C 0.63583 0.77546 0.45097 0.0
C2530 C 0.65806 0.79292 0.50029 0.0
C2531 C 0.65464 0.78255 0.54324 0.0
C2532 C 0.6422 0.76835 0.53837 0.0
C2533 C 0.63294 0.76497 0.49231 0.0
C2534 C 0.67129 0.80817 0.50382 0.0
C2535 C 0.63826 0.75697 0.58309 0.0
H2536 H 0.69524 0.79078 0.64839 0.0
H2537 H 0.6665 0.80486 0.71622 0.0
H2538 H 0.67087 0.7677 0.54292 0.0
H2539 H 0.68367 0.78552 0.51698 0.0
H2540 H 0.68964 0.77688 0.56685 0.0
H2541 H 0.6445 0.79981 0.67356 0.0
H2542 H 0.64762 0.80278 0.60029 0.0
H2543 H 0.63646 0.78454 0.62616 0.0
H2544 H 0.65102 0.79741 0.42292 0.0
H2545 H 0.62311 0.75426 0.48982 0.0
H2546 H 0.68134 0.80756 0.5124 0.0
H2547 H 0.66987 0.81424 0.53853 0.0
H2548 H 0.67302 0.81456 0.46524 0.0
H2549 H 0.64795 0.75595 0.59425 0.0
H2550 H 0.62917 0.746 0.57043 0.0
H2551 H 0.63483 0.76045 0.62082 0.0
C2552 C 0.18906 0.86557 0.67338 0.0
C2553 C 0.19058 0.87961 0.67475 0.0
C2554 C 0.19481 0.86128 0.62957 0.0
C2555 C 0.2023 0.87127 0.58608 0.0
C2556 C 0.20451 0.88568 0.58847 0.0
C2557 C 0.19863 0.88969 0.63279 0.0
C2558 C 0.19229 0.84582 0.62867 0.0
C2559 C 0.21252 0.89666 0.54303 0.0
C2560 C 0.22431 0.86081 0.49091 0.0
C2561 C 0.21417 0.85345 0.44829 0.0
C2562 C 0.22084 0.86721 0.53504 0.0
C2563 C 0.20693 0.86623 0.53656 0.0
C2564 C 0.19695 0.85948 0.49234 0.0
C2565 C 0.2007 0.85319 0.44874 0.0
C2566 C 0.2318 0.8744 0.58126 0.0
C2567 C 0.18203 0.85829 0.4923 0.0
H2568 H 0.18292 0.85772 0.70563 0.0
H2569 H 0.19991 0.90058 0.63346 0.0
H2570 H 0.18507 0.8397 0.59338 0.0
H2571 H 0.20285 0.84602 0.62268 0.0
H2572 H 0.1871 0.83972 0.66731 0.0
H2573 H 0.21454 0.90781 0.55359 0.0
H2574 H 0.2232 0.89736 0.53427 0.0
H2575 H 0.20594 0.893 0.50448 0.0
H2576 H 0.23477 0.86113 0.49093 0.0
H2577 H 0.19281 0.8476 0.41595 0.0
H2578 H 0.22756 0.86771 0.61937 0.0
H2579 H 0.23336 0.88543 0.59046 0.0
H2580 H 0.24265 0.87557 0.57126 0.0
H2581 H 0.17534 0.85112 0.52685 0.0
H2582 H 0.17598 0.85365 0.45306 0.0
H2583 H 0.18315 0.86925 0.49893 0.0
C2584 C 0.11262 0.34913 0.43999 0.0
C2585 C 0.12545 0.3501 0.41837 0.0
C2586 C 0.10382 0.33803 0.47776 0.0
C2587 C 0.1082 0.32794 0.4953 0.0
C2588 C 0.12104 0.32877 0.47302 0.0
C2589 C 0.12941 0.33972 0.43434 0.0
C2590 C 0.08998 0.33722 0.4995 0.0
C2591 C 0.12622 0.31836 0.49135 0.0
C2592 C 0.09668 0.30904 0.63459 0.0
C2593 C 0.08693 0.29451 0.61888 0.0
C2594 C 0.10327 0.32021 0.59485 0.0
C2595 C 0.09972 0.31678 0.53832 0.0
C2596 C 0.0891 0.30232 0.52273 0.0
C2597 C 0.08298 0.2913 0.56316 0.0
C2598 C 0.11474 0.33544 0.61304 0.0
C2599 C 0.08474 0.29832 0.46307 0.0
H2600 H 0.10948 0.35708 0.42751 0.0
H2601 H 0.13938 0.34049 0.41815 0.0
H2602 H 0.08049 0.32598 0.4937 0.0
H2603 H 0.09107 0.33953 0.54448 0.0
H2604 H 0.08754 0.34518 0.47867 0.0
H2605 H 0.13646 0.3205 0.47003 0.0
H2606 H 0.12827 0.31942 0.53655 0.0
H2607 H 0.1176 0.30684 0.48315 0.0
H2608 H 0.09983 0.31154 0.6776 0.0
H2609 H 0.07536 0.28008 0.55095 0.0
H2610 H 0.11231 0.34376 0.59583 0.0
H2611 H 0.12565 0.33796 0.59694 0.0
H2612 H 0.11546 0.33656 0.65874 0.0
H2613 H 0.0824 0.30646 0.44336 0.0
H2614 H 0.07492 0.28722 0.45877 0.0
H2615 H 0.09395 0.2985 0.44005 0.0
C2616 C -0.00194 0.53125 0.85595 0.0
C2617 C 0.01069 0.54519 0.85866 0.0
C2618 C 0.98834 0.52727 0.81114 0.0
C2619 C 0.99129 0.5375 0.76806 0.0
C2620 C 0.00355 0.55184 0.772 0.0
C2621 C 0.01311 0.55552 0.81725 0.0
C2622 C 0.97532 0.51188 0.80858 0.0
C2623 C 0.00698 0.56308 0.7271 0.0
C2624 C 0.97632 0.52034 0.62807 0.0
C2625 C 0.9632 0.52074 0.62543 0.0
C2626 C 0.98582 0.52624 0.67342 0.0
C2627 C 0.98214 0.53275 0.71717 0.0
C2628 C 0.9693 0.53386 0.71356 0.0
C2629 C 0.95998 0.52784 0.66772 0.0
C2630 C -0.00053 0.52491 0.67563 0.0
C2631 C 0.96507 0.54081 0.75921 0.0
H2632 H -0.00395 0.5232 0.88777 0.0
H2633 H 0.02279 0.56635 0.81901 0.0
H2634 H 0.96508 0.5122 0.80084 0.0
H2635 H 0.97673 0.50584 0.77371 0.0
H2636 H 0.97395 0.50562 0.84725 0.0
H2637 H 0.01598 0.57416 0.73906 0.0
H2638 H 0.0103 0.55963 0.689 0.0
H2639 H -0.00292 0.56382 0.71688 0.0
H2640 H 0.97895 0.51493 0.59559 0.0
H2641 H 0.94989 0.52826 0.66607 0.0
H2642 H -0.00142 0.51759 0.71025 0.0
H2643 H 0.00928 0.5358 0.68355 0.0
H2644 H 0.00124 0.5204 0.63675 0.0
H2645 H 0.96218 0.53389 0.79686 0.0
H2646 H 0.95555 0.5421 0.74773 0.0
H2647 H 0.97447 0.55176 0.76998 0.0
C2648 C 0.45246 0.46741 0.86215 0.0
C2649 C 0.43875 0.46657 0.86639 0.0
C2650 C 0.45584 0.46133 0.81676 0.0
C2651 C 0.44524 0.4542 0.77467 0.0
C2652 C 0.43114 0.45265 0.78004 0.0
C2653 C 0.42806 0.45886 0.82582 0.0
C2654 C 0.471 0.46314 0.81264 0.0
C2655 C 0.41952 0.44502 0.73622 0.0
C2656 C 0.46119 0.45514 0.63323 0.0
C2657 C 0.46026 0.44136 0.63103 0.0
C2658 C 0.45583 0.45923 0.6789 0.0
C2659 C 0.44934 0.44929 0.72342 0.0
C2660 C 0.44765 0.4351 0.72022 0.0
C2661 C 0.45314 0.43129 0.67406 0.0
C2662 C 0.45775 0.47446 0.68063 0.0
C2663 C 0.44069 0.42417 0.76668 0.0
H2664 H 0.46079 0.47329 0.89326 0.0
H2665 H 0.41741 0.45809 0.82875 0.0
H2666 H 0.47021 0.45236 0.80523 0.0
H2667 H 0.47692 0.47031 0.77698 0.0
H2668 H 0.47762 0.46808 0.85053 0.0
H2669 H 0.40869 0.44347 0.74912 0.0
H2670 H 0.42295 0.45163 0.69771 0.0
H2671 H 0.41823 0.43414 0.7263 0.0
H2672 H 0.46662 0.46298 0.6002 0.0
H2673 H 0.45231 0.4206 0.67277 0.0
H2674 H 0.46547 0.48089 0.71433 0.0
H2675 H 0.44712 0.47384 0.68972 0.0
H2676 H 0.46211 0.48049 0.64117 0.0
H2677 H 0.44789 0.42813 0.80362 0.0
H2678 H 0.43887 0.41313 0.7555 0.0
H2679 H 0.43001 0.42311 0.77846 0.0
C2680 C 0.52634 0.98863 0.86331 0.0
C2681 C 0.52748 0.97595 0.86858 0.0
C2682 C 0.53187 -0.0023 0.81667 0.0
C2683 C 0.53881 0.99406 0.77439 0.0
C2684 C 0.54086 0.98183 0.78107 0.0
C2685 C 0.53515 0.9729 0.82806 0.0
C2686 C 0.52953 0.0107 0.8112 0.0
C2687 C 0.54836 0.97771 0.73723 0.0
C2688 C 0.53504 0.00672 0.6318 0.0
C2689 C 0.54838 0.01995 0.62633 0.0
C2690 C 0.53206 -0.00212 0.67884 0.0
C2691 C 0.54269 0.00232 0.72137 0.0
C2692 C 0.55651 0.01518 0.71469 0.0
C2693 C 0.55919 0.02387 0.66727 0.0
C2694 C 0.51719 0.98418 0.68431 0.0
C2695 C 0.56819 0.02018 0.75883 0.0
H2696 H 0.5205 0.99114 0.89442 0.0
H2697 H 0.53618 0.96318 0.83183 0.0
H2698 H 0.54003 0.02077 0.80106 0.0
H2699 H 0.52178 0.00875 0.7768 0.0
H2700 H 0.525 0.01272 0.84953 0.0
H2701 H 0.55074 0.96909 0.75168 0.0
H2702 H 0.54121 0.97354 0.70021 0.0
H2703 H 0.5588 0.98748 0.72422 0.0
H2704 H 0.52664 0.00354 0.60039 0.0
H2705 H 0.56957 0.03403 0.66339 0.0
H2706 H 0.51102 0.98556 0.71875 0.0
H2707 H 0.51848 0.97459 0.6944 0.0
H2708 H 0.51054 0.98171 0.646 0.0
H2709 H 0.56465 0.02389 0.79565 0.0
H2710 H 0.5789 0.02938 0.74454 0.0
H2711 H 0.56975 0.01095 0.77209 0.0
C2712 C 0.44761 0.01802 0.16134 0.0
C2713 C 0.45533 0.01498 0.12105 0.0
C2714 C 0.44183 0.00909 0.20829 0.0
C2715 C 0.44387 -0.00313 0.2152 0.0
C2716 C 0.45086 0.99322 0.17314 0.0
C2717 C 0.45646 0.00229 0.12651 0.0
C2718 C 0.43426 0.01321 0.25189 0.0
C2719 C 0.4532 0.98023 0.17884 0.0
C2720 C 0.44754 0.98425 0.358 0.0
C2721 C 0.43422 0.97099 0.36335 0.0
C2722 C 0.45055 0.99309 0.31093 0.0
C2723 C 0.43994 0.98863 0.26826 0.0
C2724 C 0.42614 0.97574 0.27484 0.0
C2725 C 0.42344 0.96705 0.32228 0.0
C2726 C 0.4654 0.00681 0.30559 0.0
C2727 C 0.41449 0.97072 0.23056 0.0
H2728 H 0.44658 0.02774 0.15742 0.0
H2729 H 0.46233 -0.00021 0.09558 0.0
H2730 H 0.42382 0.00344 0.26484 0.0
H2731 H 0.44138 0.01742 0.28898 0.0
H2732 H 0.43187 0.02181 0.23721 0.0
H2733 H 0.45778 0.97821 0.14064 0.0
H2734 H 0.46092 0.9822 0.21339 0.0
H2735 H 0.4427 0.97016 0.18887 0.0
H2736 H 0.45592 0.98745 0.3895 0.0
H2737 H 0.41307 0.95688 0.32607 0.0
H2738 H 0.4641 0.01638 0.29534 0.0
H2739 H 0.47162 0.00544 0.2713 0.0
H2740 H 0.47201 0.0093 0.344 0.0
H2741 H 0.41294 0.97994 0.21709 0.0
H2742 H 0.40377 0.96153 0.24481 0.0
H2743 H 0.41806 0.96698 0.19389 0.0
C2744 C 0.0198 0.45651 0.3093 0.0
C2745 C 0.01643 0.46326 0.35248 0.0
C2746 C 0.01049 0.45062 0.26336 0.0
C2747 C -0.00249 0.45149 0.26054 0.0
C2748 C -0.00631 0.45764 0.30514 0.0
C2749 C 0.00318 0.46343 0.35057 0.0
C2750 C 0.01487 0.44404 0.21679 0.0
C2751 C 0.97989 0.45871 0.30382 0.0
C2752 C 0.98133 0.45332 0.12272 0.0
C2753 C 0.96886 0.43929 0.11934 0.0
C2754 C 0.99108 0.45724 0.16743 0.0
C2755 C 0.98833 0.44686 0.20969 0.0
C2756 C 0.97622 0.43244 0.20505 0.0
C2757 C 0.96662 0.42882 0.15995 0.0
C2758 C 0.00393 0.47273 0.17076 0.0
C2759 C 0.973 0.42104 0.24906 0.0
H2760 H 0.02999 0.45628 0.31036 0.0
H2761 H 0.00043 0.46856 0.38373 0.0
H2762 H 0.00559 0.43308 0.20548 0.0
H2763 H 0.01763 0.45114 0.17967 0.0
H2764 H 0.02452 0.44289 0.22761 0.0
H2765 H 0.97804 0.46296 0.34321 0.0
H2766 H 0.98063 0.46615 0.26986 0.0
H2767 H 0.97019 0.44778 0.29538 0.0
H2768 H 0.9832 0.46148 0.09155 0.0
H2769 H 0.95706 0.41792 0.15766 0.0
H2770 H 0.01427 0.47257 0.17788 0.0
H2771 H 0.00241 0.4785 0.2063 0.0
H2772 H 0.00516 0.47913 0.13265 0.0
H2773 H 0.983 0.42043 0.2586 0.0
H2774 H 0.9641 0.40995 0.23657 0.0
H2775 H 0.96963 0.42421 0.28769 0.0
C2776 C 0.53133 0.52561 0.13638 0.0
C2777 C 0.54503 0.52645 0.13206 0.0
C2778 C 0.52795 0.53166 0.18185 0.0
C2779 C 0.53855 0.53877 0.22394 0.0
C2780 C 0.55266 0.54033 0.21849 0.0
C2781 C 0.55573 0.53415 0.17262 0.0
C2782 C 0.51279 0.52984 0.18605 0.0
C2783 C 0.56428 0.54793 0.26232 0.0
C2784 C 0.53058 0.56158 0.32465 0.0
C2785 C 0.52342 0.55147 0.36753 0.0
C2786 C 0.53611 0.55783 0.27854 0.0
C2787 C 0.53445 0.54364 0.27525 0.0
C2788 C 0.52794 0.53367 0.31966 0.0
C2789 C 0.52253 0.53771 0.36529 0.0
C2790 C 0.5431 0.56879 0.23219 0.0
C2791 C 0.52605 0.51845 0.31782 0.0
H2792 H 0.523 0.51974 0.10526 0.0
H2793 H 0.56638 0.53492 0.16962 0.0
H2794 H 0.50688 0.52265 0.22168 0.0
H2795 H 0.51358 0.54062 0.19355 0.0
H2796 H 0.50616 0.52492 0.14815 0.0
H2797 H 0.57511 0.54952 0.24934 0.0
H2798 H 0.56555 0.5588 0.27242 0.0
H2799 H 0.56086 0.54129 0.30076 0.0
H2800 H 0.53138 0.57226 0.326 0.0
H2801 H 0.51708 0.52984 0.39823 0.0
H2802 H 0.5359 0.56486 0.19524 0.0
H2803 H 0.55378 0.56984 0.22038 0.0
H2804 H 0.54493 0.57982 0.24351 0.0
H2805 H 0.51833 0.51203 0.28413 0.0
H2806 H 0.52171 0.5124 0.35727 0.0
H2807 H 0.53669 0.51909 0.30867 0.0
loop_
_geom_bond_atom_site_label_1
_geom_bond_atom_site_label_2
_geom_bond_distance
_geom_bond_site_symmetry_2
_ccdc_geom_bond_type
C0 O1 1.306 . S
C0 O3 1.160 . S
O1 C0 1.306 . S
O1 Cd2 2.228 . S
Cd2 O1 2.228 . S
Cd2 O6 2.273 . S
Cd2 O10 2.277 . S
O3 C0 1.160 . S
O3 Cd4 2.203 . S
Cd4 O3 2.203 . S
Cd4 O6 2.411 . S
Cd4 O7 2.333 . S
Cd4 O8 2.352 . S
Cd4 O12 2.277 . S
Cd4 O13 2.356 . S
C5 O10 1.209 . S
C5 O12 1.226 . S
O6 Cd2 2.273 . S
O6 Cd4 2.411 . S
O6 C9 1.320 . S
O7 Cd4 2.333 . S
O7 C9 1.214 . S
O8 Cd4 2.352 . S
O8 C11 1.258 . S
C9 O6 1.320 . S
C9 O7 1.214 . S
O10 Cd2 2.277 . S
O10 C5 1.209 . S
C11 O8 1.258 . S
C11 O13 1.282 . S
O12 Cd4 2.277 . S
O12 C5 1.226 . S
O13 Cd4 2.356 . S
O13 C11 1.282 . S
C14 O15 1.306 . S
C14 O17 1.160 . S
O15 C14 1.306 . S
O15 Cd16 2.228 . S
Cd16 O15 2.228 . S
Cd16 O20 2.273 . S
Cd16 O24 2.277 . S
O17 C14 1.160 . S
O17 Cd18 2.203 . S
Cd18 O17 2.203 . S
Cd18 O20 2.411 . S
Cd18 O21 2.333 . S
Cd18 O22 2.352 . S
Cd18 O26 2.277 . S
Cd18 O27 2.356 . S
C19 O24 1.209 . S
C19 O26 1.226 . S
O20 Cd16 2.273 . S
O20 Cd18 2.411 . S
O20 C23 1.320 . S
O21 Cd18 2.333 . S
O21 C23 1.214 . S
O22 Cd18 2.352 . S
O22 C25 1.258 . S
C23 O20 1.320 . S
C23 O21 1.214 . S
O24 Cd16 2.277 . S
O24 C19 1.209 . S
C25 O22 1.258 . S
C25 O27 1.282 . S
O26 Cd18 2.277 . S
O26 C19 1.226 . S
O27 Cd18 2.356 . S
O27 C25 1.282 . S
C28 O29 1.306 . S
C28 O31 1.160 . S
O29 C28 1.306 . S
O29 Cd30 2.228 . S
Cd30 O29 2.228 . S
Cd30 O34 2.273 . S
Cd30 O38 2.277 . S
O31 C28 1.160 . S
O31 Cd32 2.203 . S
Cd32 O31 2.203 . S
Cd32 O34 2.411 . S
Cd32 O35 2.333 . S
Cd32 O36 2.352 . S
Cd32 O40 2.277 . S
Cd32 O41 2.356 . S
C33 O38 1.209 . S
C33 O40 1.226 . S
O34 Cd30 2.273 . S
O34 Cd32 2.411 . S
O34 C37 1.320 . S
O35 Cd32 2.333 . S
O35 C37 1.214 . S
O36 Cd32 2.352 . S
O36 C39 1.258 . S
C37 O34 1.320 . S
C37 O35 1.214 . S
O38 Cd30 2.277 . S
O38 C33 1.209 . S
C39 O36 1.258 . S
C39 O41 1.282 . S
O40 Cd32 2.277 . S
O40 C33 1.226 . S
O41 Cd32 2.356 . S
O41 C39 1.282 . S
C42 O43 1.306 . S
C42 O45 1.160 . S
O43 C42 1.306 . S
O43 Cd44 2.228 . S
Cd44 O43 2.228 . S
Cd44 O48 2.273 . S
Cd44 O52 2.277 . S
O45 C42 1.160 . S
O45 Cd46 2.203 . S
Cd46 O45 2.203 . S
Cd46 O48 2.411 . S
Cd46 O49 2.333 . S
Cd46 O50 2.352 . S
Cd46 O54 2.277 . S
Cd46 O55 2.356 . S
C47 O52 1.209 . S
C47 O54 1.226 . S
O48 Cd44 2.273 . S
O48 Cd46 2.411 . S
O48 C51 1.320 . S
O49 Cd46 2.333 . S
O49 C51 1.214 . S
O50 Cd46 2.352 . S
O50 C53 1.258 . S
C51 O48 1.320 . S
C51 O49 1.214 . S
O52 Cd44 2.277 . S
O52 C47 1.209 . S
C53 O50 1.258 . S
C53 O55 1.282 . S
O54 Cd46 2.277 . S
O54 C47 1.226 . S
O55 Cd46 2.356 . S
O55 C53 1.282 . S
C56 O57 1.306 . S
C56 O59 1.160 . S
O57 C56 1.306 . S
O57 Cd58 2.228 . S
Cd58 O57 2.228 . S
Cd58 O62 2.273 . S
Cd58 O66 2.277 . S
O59 C56 1.160 . S
O59 Cd60 2.203 . S
Cd60 O59 2.203 . S
Cd60 O62 2.411 . S
Cd60 O63 2.333 . S
Cd60 O64 2.352 . S
Cd60 O68 2.277 . S
Cd60 O69 2.356 . S
C61 O66 1.209 . S
C61 O68 1.226 . S
O62 Cd58 2.273 . S
O62 Cd60 2.411 . S
O62 C65 1.320 . S
O63 Cd60 2.333 . S
O63 C65 1.214 . S
O64 Cd60 2.352 . S
O64 C67 1.258 . S
C65 O62 1.320 . S
C65 O63 1.214 . S
O66 Cd58 2.277 . S
O66 C61 1.209 . S
C67 O64 1.258 . S
C67 O69 1.282 . S
O68 Cd60 2.277 . S
O68 C61 1.226 . S
O69 Cd60 2.356 . S
O69 C67 1.282 . S
C70 O71 1.306 . S
C70 O73 1.160 . S
O71 C70 1.306 . S
O71 Cd72 2.228 . S
Cd72 O71 2.228 . S
Cd72 O76 2.273 . S
Cd72 O80 2.277 . S
O73 C70 1.160 . S
O73 Cd74 2.203 . S
Cd74 O73 2.203 . S
Cd74 O76 2.411 . S
Cd74 O77 2.333 . S
Cd74 O78 2.352 . S
Cd74 O82 2.277 . S
Cd74 O83 2.356 . S
C75 O80 1.209 . S
C75 O82 1.226 . S
O76 Cd72 2.273 . S
O76 Cd74 2.411 . S
O76 C79 1.320 . S
O77 Cd74 2.333 . S
O77 C79 1.214 . S
O78 Cd74 2.352 . S
O78 C81 1.258 . S
C79 O76 1.320 . S
C79 O77 1.214 . S
O80 Cd72 2.277 . S
O80 C75 1.209 . S
C81 O78 1.258 . S
C81 O83 1.282 . S
O82 Cd74 2.277 . S
O82 C75 1.226 . S
O83 Cd74 2.356 . S
O83 C81 1.282 . S
C84 O85 1.306 . S
C84 O87 1.160 . S
O85 C84 1.306 . S
O85 Cd86 2.228 . S
Cd86 O85 2.228 . S
Cd86 O90 2.273 . S
Cd86 O94 2.277 . S
O87 C84 1.160 . S
O87 Cd88 2.203 . S
Cd88 O87 2.203 . S
Cd88 O90 2.411 . S
Cd88 O91 2.333 . S
Cd88 O92 2.352 . S
Cd88 O96 2.277 . S
Cd88 O97 2.356 . S
C89 O94 1.209 . S
C89 O96 1.226 . S
O90 Cd86 2.273 . S
O90 Cd88 2.411 . S
O90 C93 1.320 . S
O91 Cd88 2.333 . S
O91 C93 1.214 . S
O92 Cd88 2.352 . S
O92 C95 1.258 . S
C93 O90 1.320 . S
C93 O91 1.214 . S
O94 Cd86 2.277 . S
O94 C89 1.209 . S
C95 O92 1.258 . S
C95 O97 1.282 . S
O96 Cd88 2.277 . S
O96 C89 1.226 . S
O97 Cd88 2.356 . S
O97 C95 1.282 . S
C98 O99 1.306 . S
C98 O101 1.160 . S
O99 C98 1.306 . S
O99 Cd100 2.228 . S
Cd100 O99 2.228 . S
Cd100 O104 2.273 . S
Cd100 O108 2.277 . S
O101 C98 1.160 . S
O101 Cd102 2.203 . S
Cd102 O101 2.203 . S
Cd102 O104 2.411 . S
Cd102 O105 2.333 . S
Cd102 O106 2.352 . S
Cd102 O110 2.277 . S
Cd102 O111 2.356 . S
C103 O108 1.209 . S
C103 O110 1.226 . S
O104 Cd100 2.273 . S
O104 Cd102 2.411 . S
O104 C107 1.320 . S
O105 Cd102 2.333 . S
O105 C107 1.214 . S
O106 Cd102 2.352 . S
O106 C109 1.258 . S
C107 O104 1.320 . S
C107 O105 1.214 . S
O108 Cd100 2.277 . S
O108 C103 1.209 . S
C109 O106 1.258 . S
C109 O111 1.282 . S
O110 Cd102 2.277 . S
O110 C103 1.226 . S
O111 Cd102 2.356 . S
O111 C109 1.282 . S
C112 O113 1.306 . S
C112 O115 1.160 . S
O113 C112 1.306 . S
O113 Cd114 2.228 . S
Cd114 O113 2.228 . S
Cd114 O118 2.273 . S
Cd114 O122 2.277 . S
O115 C112 1.160 . S
O115 Cd116 2.203 . S
Cd116 O115 2.203 . S
Cd116 O118 2.411 . S
Cd116 O119 2.333 . S
Cd116 O120 2.352 . S
Cd116 O124 2.277 . S
Cd116 O125 2.356 . S
C117 O122 1.209 . S
C117 O124 1.226 . S
O118 Cd114 2.273 . S
O118 Cd116 2.411 . S
O118 C121 1.320 . S
O119 Cd116 2.333 . S
O119 C121 1.214 . S
O120 Cd116 2.352 . S
O120 C123 1.258 . S
C121 O118 1.320 . S
C121 O119 1.214 . S
O122 Cd114 2.277 . S
O122 C117 1.209 . S
C123 O120 1.258 . S
C123 O125 1.282 . S
O124 Cd116 2.277 . S
O124 C117 1.226 . S
O125 Cd116 2.356 . S
O125 C123 1.282 . S
C126 O127 1.306 . S
C126 O129 1.160 . S
O127 C126 1.306 . S
O127 Cd128 2.228 . S
Cd128 O127 2.228 . S
Cd128 O132 2.273 . S
Cd128 O136 2.277 . S
O129 C126 1.160 . S
O129 Cd130 2.203 . S
Cd130 O129 2.203 . S
Cd130 O132 2.411 . S
Cd130 O133 2.333 . S
Cd130 O134 2.352 . S
Cd130 O138 2.277 . S
Cd130 O139 2.356 . S
C131 O136 1.209 . S
C131 O138 1.226 . S
O132 Cd128 2.273 . S
O132 Cd130 2.411 . S
O132 C135 1.320 . S
O133 Cd130 2.333 . S
O133 C135 1.214 . S
O134 Cd130 2.352 . S
O134 C137 1.258 . S
C135 O132 1.320 . S
C135 O133 1.214 . S
O136 Cd128 2.277 . S
O136 C131 1.209 . S
C137 O134 1.258 . S
C137 O139 1.282 . S
O138 Cd130 2.277 . S
O138 C131 1.226 . S
O139 Cd130 2.356 . S
O139 C137 1.282 . S
C140 O141 1.306 . S
C140 O143 1.160 . S
O141 C140 1.306 . S
O141 Cd142 2.228 . S
Cd142 O141 2.228 . S
Cd142 O146 2.273 . S
Cd142 O150 2.277 . S
O143 C140 1.160 . S
O143 Cd144 2.203 . S
Cd144 O143 2.203 . S
Cd144 O146 2.411 . S
Cd144 O147 2.333 . S
Cd144 O148 2.352 . S
Cd144 O152 2.277 . S
Cd144 O153 2.356 . S
C145 O150 1.209 . S
C145 O152 1.226 . S
O146 Cd142 2.273 . S
O146 Cd144 2.411 . S
O146 C149 1.320 . S
O147 Cd144 2.333 . S
O147 C149 1.214 . S
O148 Cd144 2.352 . S
O148 C151 1.258 . S
C149 O146 1.320 . S
C149 O147 1.214 . S
O150 Cd142 2.277 . S
O150 C145 1.209 . S
C151 O148 1.258 . S
C151 O153 1.282 . S
O152 Cd144 2.277 . S
O152 C145 1.226 . S
O153 Cd144 2.356 . S
O153 C151 1.282 . S
C154 O155 1.306 . S
C154 O157 1.160 . S
O155 C154 1.306 . S
O155 Cd156 2.228 . S
Cd156 O155 2.228 . S
Cd156 O160 2.273 . S
Cd156 O164 2.277 . S
O157 C154 1.160 . S
O157 Cd158 2.203 . S
Cd158 O157 2.203 . S
Cd158 O160 2.411 . S
Cd158 O161 2.333 . S
Cd158 O162 2.352 . S
Cd158 O166 2.277 . S
Cd158 O167 2.356 . S
C159 O164 1.209 . S
C159 O166 1.226 . S
O160 Cd156 2.273 . S
O160 Cd158 2.411 . S
O160 C163 1.320 . S
O161 Cd158 2.333 . S
O161 C163 1.214 . S
O162 Cd158 2.352 . S
O162 C165 1.258 . S
C163 O160 1.320 . S
C163 O161 1.214 . S
O164 Cd156 2.277 . S
O164 C159 1.209 . S
C165 O162 1.258 . S
C165 O167 1.282 . S
O166 Cd158 2.277 . S
O166 C159 1.226 . S
O167 Cd158 2.356 . S
O167 C165 1.282 . S
C168 O169 1.306 . S
C168 O171 1.160 . S
O169 C168 1.306 . S
O169 Cd170 2.228 . S
Cd170 O169 2.228 . S
Cd170 O174 2.273 . S
Cd170 O178 2.277 . S
O171 C168 1.160 . S
O171 Cd172 2.203 . S
Cd172 O171 2.203 . S
Cd172 O174 2.411 . S
Cd172 O175 2.333 . S
Cd172 O176 2.352 . S
Cd172 O180 2.277 . S
Cd172 O181 2.356 . S
C173 O178 1.209 . S
C173 O180 1.226 . S
O174 Cd170 2.273 . S
O174 Cd172 2.411 . S
O174 C177 1.320 . S
O175 Cd172 2.333 . S
O175 C177 1.214 . S
O176 Cd172 2.352 . S
O176 C179 1.258 . S
C177 O174 1.320 . S
C177 O175 1.214 . S
O178 Cd170 2.277 . S
O178 C173 1.209 . S
C179 O176 1.258 . S
C179 O181 1.282 . S
O180 Cd172 2.277 . S
O180 C173 1.226 . S
O181 Cd172 2.356 . S
O181 C179 1.282 . S
C182 O183 1.306 . S
C182 O185 1.160 . S
O183 C182 1.306 . S
O183 Cd184 2.228 . S
Cd184 O183 2.228 . S
Cd184 O188 2.273 . S
Cd184 O192 2.277 . S
O185 C182 1.160 . S
O185 Cd186 2.203 . S
Cd186 O185 2.203 . S
Cd186 O188 2.411 . S
Cd186 O189 2.333 . S
Cd186 O190 2.352 . S
Cd186 O194 2.277 . S
Cd186 O195 2.356 . S
C187 O192 1.209 . S
C187 O194 1.226 . S
O188 Cd184 2.273 . S
O188 Cd186 2.411 . S
O188 C191 1.320 . S
O189 Cd186 2.333 . S
O189 C191 1.214 . S
O190 Cd186 2.352 . S
O190 C193 1.258 . S
C191 O188 1.320 . S
C191 O189 1.214 . S
O192 Cd184 2.277 . S
O192 C187 1.209 . S
C193 O190 1.258 . S
C193 O195 1.282 . S
O194 Cd186 2.277 . S
O194 C187 1.226 . S
O195 Cd186 2.356 . S
O195 C193 1.282 . S
C196 O197 1.306 . S
C196 O199 1.160 . S
O197 C196 1.306 . S
O197 Cd198 2.228 . S
Cd198 O197 2.228 . S
Cd198 O202 2.273 . S
Cd198 O206 2.277 . S
O199 C196 1.160 . S
O199 Cd200 2.203 . S
Cd200 O199 2.203 . S
Cd200 O202 2.411 . S
Cd200 O203 2.333 . S
Cd200 O204 2.352 . S
Cd200 O208 2.277 . S
Cd200 O209 2.356 . S
C201 O206 1.209 . S
C201 O208 1.226 . S
O202 Cd198 2.273 . S
O202 Cd200 2.411 . S
O202 C205 1.320 . S
O203 Cd200 2.333 . S
O203 C205 1.214 . S
O204 Cd200 2.352 . S
O204 C207 1.258 . S
C205 O202 1.320 . S
C205 O203 1.214 . S
O206 Cd198 2.277 . S
O206 C201 1.209 . S
C207 O204 1.258 . S
C207 O209 1.282 . S
O208 Cd200 2.277 . S
O208 C201 1.226 . S
O209 Cd200 2.356 . S
O209 C207 1.282 . S
C210 O211 1.306 . S
C210 O213 1.160 . S
O211 C210 1.306 . S
O211 Cd212 2.228 . S
Cd212 O211 2.228 . S
Cd212 O216 2.273 . S
Cd212 O220 2.277 . S
O213 C210 1.160 . S
O213 Cd214 2.203 . S
Cd214 O213 2.203 . S
Cd214 O216 2.411 . S
Cd214 O217 2.333 . S
Cd214 O218 2.352 . S
Cd214 O222 2.277 . S
Cd214 O223 2.356 . S
C215 O220 1.209 . S
C215 O222 1.226 . S
O216 Cd212 2.273 . S
O216 Cd214 2.411 . S
O216 C219 1.320 . S
O217 Cd214 2.333 . S
O217 C219 1.214 . S
O218 Cd214 2.352 . S
O218 C221 1.258 . S
C219 O216 1.320 . S
C219 O217 1.214 . S
O220 Cd212 2.277 . S
O220 C215 1.209 . S
C221 O218 1.258 . S
C221 O223 1.282 . S
O222 Cd214 2.277 . S
O222 C215 1.226 . S
O223 Cd214 2.356 . S
O223 C221 1.282 . S
C224 O225 1.306 . S
C224 O227 1.160 . S
O225 C224 1.306 . S
O225 Cd226 2.228 . S
Cd226 O225 2.228 . S
Cd226 O230 2.273 . S
Cd226 O234 2.277 . S
O227 C224 1.160 . S
O227 Cd228 2.203 . S
Cd228 O227 2.203 . S
Cd228 O230 2.411 . S
Cd228 O231 2.333 . S
Cd228 O232 2.352 . S
Cd228 O236 2.277 . S
Cd228 O237 2.356 . S
C229 O234 1.209 . S
C229 O236 1.226 . S
O230 Cd226 2.273 . S
O230 Cd228 2.411 . S
O230 C233 1.320 . S
O231 Cd228 2.333 . S
O231 C233 1.214 . S
O232 Cd228 2.352 . S
O232 C235 1.258 . S
C233 O230 1.320 . S
C233 O231 1.214 . S
O234 Cd226 2.277 . S
O234 C229 1.209 . S
C235 O232 1.258 . S
C235 O237 1.282 . S
O236 Cd228 2.277 . S
O236 C229 1.226 . S
O237 Cd228 2.356 . S
O237 C235 1.282 . S
C238 O239 1.306 . S
C238 O241 1.160 . S
O239 C238 1.306 . S
O239 Cd240 2.228 . S
Cd240 O239 2.228 . S
Cd240 O244 2.273 . S
Cd240 O248 2.277 . S
O241 C238 1.160 . S
O241 Cd242 2.203 . S
Cd242 O241 2.203 . S
Cd242 O244 2.411 . S
Cd242 O245 2.333 . S
Cd242 O246 2.352 . S
Cd242 O250 2.277 . S
Cd242 O251 2.356 . S
C243 O248 1.209 . S
C243 O250 1.226 . S
O244 Cd240 2.273 . S
O244 Cd242 2.411 . S
O244 C247 1.320 . S
O245 Cd242 2.333 . S
O245 C247 1.214 . S
O246 Cd242 2.352 . S
O246 C249 1.258 . S
C247 O244 1.320 . S
C247 O245 1.214 . S
O248 Cd240 2.277 . S
O248 C243 1.209 . S
C249 O246 1.258 . S
C249 O251 1.282 . S
O250 Cd242 2.277 . S
O250 C243 1.226 . S
O251 Cd242 2.356 . S
O251 C249 1.282 . S
C252 O253 1.306 . S
C252 O255 1.160 . S
O253 C252 1.306 . S
O253 Cd254 2.228 . S
Cd254 O253 2.228 . S
Cd254 O258 2.273 . S
Cd254 O262 2.277 . S
O255 C252 1.160 . S
O255 Cd256 2.203 . S
Cd256 O255 2.203 . S
Cd256 O258 2.411 . S
Cd256 O259 2.333 . S
Cd256 O260 2.352 . S
Cd256 O264 2.277 . S
Cd256 O265 2.356 . S
C257 O262 1.209 . S
C257 O264 1.226 . S
O258 Cd254 2.273 . S
O258 Cd256 2.411 . S
O258 C261 1.320 . S
O259 Cd256 2.333 . S
O259 C261 1.214 . S
O260 Cd256 2.352 . S
O260 C263 1.258 . S
C261 O258 1.320 . S
C261 O259 1.214 . S
O262 Cd254 2.277 . S
O262 C257 1.209 . S
C263 O260 1.258 . S
C263 O265 1.282 . S
O264 Cd256 2.277 . S
O264 C257 1.226 . S
O265 Cd256 2.356 . S
O265 C263 1.282 . S
C266 O267 1.306 . S
C266 O269 1.160 . S
O267 C266 1.306 . S
O267 Cd268 2.228 . S
Cd268 O267 2.228 . S
Cd268 O272 2.273 . S
Cd268 O276 2.277 . S
O269 C266 1.160 . S
O269 Cd270 2.203 . S
Cd270 O269 2.203 . S
Cd270 O272 2.411 . S
Cd270 O273 2.333 . S
Cd270 O274 2.352 . S
Cd270 O278 2.277 . S
Cd270 O279 2.356 . S
C271 O276 1.209 . S
C271 O278 1.226 . S
O272 Cd268 2.273 . S
O272 Cd270 2.411 . S
O272 C275 1.320 . S
O273 Cd270 2.333 . S
O273 C275 1.214 . S
O274 Cd270 2.352 . S
O274 C277 1.258 . S
C275 O272 1.320 . S
C275 O273 1.214 . S
O276 Cd268 2.277 . S
O276 C271 1.209 . S
C277 O274 1.258 . S
C277 O279 1.282 . S
O278 Cd270 2.277 . S
O278 C271 1.226 . S
O279 Cd270 2.356 . S
O279 C277 1.282 . S
C280 O281 1.306 . S
C280 O283 1.160 . S
O281 C280 1.306 . S
O281 Cd282 2.228 . S
Cd282 O281 2.228 . S
Cd282 O286 2.273 . S
Cd282 O290 2.277 . S
O283 C280 1.160 . S
O283 Cd284 2.203 . S
Cd284 O283 2.203 . S
Cd284 O286 2.411 . S
Cd284 O287 2.333 . S
Cd284 O288 2.352 . S
Cd284 O292 2.277 . S
Cd284 O293 2.356 . S
C285 O290 1.209 . S
C285 O292 1.226 . S
O286 Cd282 2.273 . S
O286 Cd284 2.411 . S
O286 C289 1.320 . S
O287 Cd284 2.333 . S
O287 C289 1.214 . S
O288 Cd284 2.352 . S
O288 C291 1.258 . S
C289 O286 1.320 . S
C289 O287 1.214 . S
O290 Cd282 2.277 . S
O290 C285 1.209 . S
C291 O288 1.258 . S
C291 O293 1.282 . S
O292 Cd284 2.277 . S
O292 C285 1.226 . S
O293 Cd284 2.356 . S
O293 C291 1.282 . S
C294 O295 1.306 . S
C294 O297 1.160 . S
O295 C294 1.306 . S
O295 Cd296 2.228 1_556 S
Cd296 O295 2.228 1_554 S
Cd296 O300 2.273 . S
Cd296 O304 2.277 1_554 S
O297 C294 1.160 . S
O297 Cd298 2.203 . S
Cd298 O297 2.203 . S
Cd298 O300 2.411 1_556 S
Cd298 O301 2.333 1_556 S
Cd298 O302 2.352 1_556 S
Cd298 O306 2.277 . S
Cd298 O307 2.356 . S
C299 O304 1.209 . S
C299 O306 1.226 . S
O300 Cd296 2.273 . S
O300 Cd298 2.411 1_554 S
O300 C303 1.320 . S
O301 Cd298 2.333 1_554 S
O301 C303 1.214 . S
O302 Cd298 2.352 1_554 S
O302 C305 1.258 . S
C303 O300 1.320 . S
C303 O301 1.214 . S
O304 Cd296 2.277 1_556 S
O304 C299 1.209 . S
C305 O302 1.258 . S
C305 O307 1.282 1_554 S
O306 Cd298 2.277 . S
O306 C299 1.226 . S
O307 Cd298 2.356 . S
O307 C305 1.282 1_556 S
C308 O309 1.306 . S
C308 O311 1.160 . S
O309 C308 1.306 . S
O309 Cd310 2.228 1_556 S
Cd310 O309 2.228 1_554 S
Cd310 O314 2.273 . S
Cd310 O318 2.277 1_554 S
O311 C308 1.160 . S
O311 Cd312 2.203 . S
Cd312 O311 2.203 . S
Cd312 O314 2.411 1_556 S
Cd312 O315 2.333 1_556 S
Cd312 O316 2.352 1_556 S
Cd312 O320 2.277 . S
Cd312 O321 2.356 . S
C313 O318 1.209 . S
C313 O320 1.226 . S
O314 Cd310 2.273 . S
O314 Cd312 2.411 1_554 S
O314 C317 1.320 . S
O315 Cd312 2.333 1_554 S
O315 C317 1.214 . S
O316 Cd312 2.352 1_554 S
O316 C319 1.258 . S
C317 O314 1.320 . S
C317 O315 1.214 . S
O318 Cd310 2.277 1_556 S
O318 C313 1.209 . S
C319 O316 1.258 . S
C319 O321 1.282 1_554 S
O320 Cd312 2.277 . S
O320 C313 1.226 . S
O321 Cd312 2.356 . S
O321 C319 1.282 1_556 S
C322 O323 1.306 . S
C322 O325 1.160 . S
O323 C322 1.306 . S
O323 Cd324 2.228 1_556 S
Cd324 O323 2.228 1_554 S
Cd324 O328 2.273 . S
Cd324 O332 2.277 1_554 S
O325 C322 1.160 . S
O325 Cd326 2.203 . S
Cd326 O325 2.203 . S
Cd326 O328 2.411 1_556 S
Cd326 O329 2.333 1_556 S
Cd326 O330 2.352 1_556 S
Cd326 O334 2.277 . S
Cd326 O335 2.356 . S
C327 O332 1.209 . S
C327 O334 1.226 . S
O328 Cd324 2.273 . S
O328 Cd326 2.411 1_554 S
O328 C331 1.320 . S
O329 Cd326 2.333 1_554 S
O329 C331 1.214 . S
O330 Cd326 2.352 1_554 S
O330 C333 1.258 . S
C331 O328 1.320 . S
C331 O329 1.214 . S
O332 Cd324 2.277 1_556 S
O332 C327 1.209 . S
C333 O330 1.258 . S
C333 O335 1.282 1_554 S
O334 Cd326 2.277 . S
O334 C327 1.226 . S
O335 Cd326 2.356 . S
O335 C333 1.282 1_556 S
C336 O337 1.306 . S
C336 O339 1.160 . S
O337 C336 1.306 . S
O337 Cd338 2.228 . S
Cd338 O337 2.228 . S
Cd338 O342 2.273 . S
Cd338 O346 2.277 . S
O339 C336 1.160 . S
O339 Cd340 2.203 . S
Cd340 O339 2.203 . S
Cd340 O342 2.411 . S
Cd340 O343 2.333 . S
Cd340 O344 2.352 . S
Cd340 O348 2.277 . S
Cd340 O349 2.356 . S
C341 O346 1.209 . S
C341 O348 1.226 . S
O342 Cd338 2.273 . S
O342 Cd340 2.411 . S
O342 C345 1.320 . S
O343 Cd340 2.333 . S
O343 C345 1.214 . S
O344 Cd340 2.352 . S
O344 C347 1.258 . S
C345 O342 1.320 . S
C345 O343 1.214 . S
O346 Cd338 2.277 . S
O346 C341 1.209 . S
C347 O344 1.258 . S
C347 O349 1.282 . S
O348 Cd340 2.277 . S
O348 C341 1.226 . S
O349 Cd340 2.356 . S
O349 C347 1.282 . S
C350 O351 1.306 . S
C350 O353 1.160 . S
O351 C350 1.306 . S
O351 Cd352 2.228 . S
Cd352 O351 2.228 . S
Cd352 O356 2.273 . S
Cd352 O360 2.277 . S
O353 C350 1.160 . S
O353 Cd354 2.203 . S
Cd354 O353 2.203 . S
Cd354 O356 2.411 . S
Cd354 O357 2.333 . S
Cd354 O358 2.352 . S
Cd354 O362 2.277 . S
Cd354 O363 2.356 . S
C355 O360 1.209 . S
C355 O362 1.226 . S
O356 Cd352 2.273 . S
O356 Cd354 2.411 . S
O356 C359 1.320 . S
O357 Cd354 2.333 . S
O357 C359 1.214 . S
O358 Cd354 2.352 . S
O358 C361 1.258 . S
C359 O356 1.320 . S
C359 O357 1.214 . S
O360 Cd352 2.277 . S
O360 C355 1.209 . S
C361 O358 1.258 . S
C361 O363 1.282 . S
O362 Cd354 2.277 . S
O362 C355 1.226 . S
O363 Cd354 2.356 . S
O363 C361 1.282 . S
C364 O365 1.306 . S
C364 O367 1.160 . S
O365 C364 1.306 . S
O365 Cd366 2.228 . S
Cd366 O365 2.228 . S
Cd366 O370 2.273 . S
Cd366 O374 2.277 . S
O367 C364 1.160 . S
O367 Cd368 2.203 . S
Cd368 O367 2.203 . S
Cd368 O370 2.411 . S
Cd368 O371 2.333 . S
Cd368 O372 2.352 . S
Cd368 O376 2.277 . S
Cd368 O377 2.356 . S
C369 O374 1.209 . S
C369 O376 1.226 . S
O370 Cd366 2.273 . S
O370 Cd368 2.411 . S
O370 C373 1.320 . S
O371 Cd368 2.333 . S
O371 C373 1.214 . S
O372 Cd368 2.352 . S
O372 C375 1.258 . S
C373 O370 1.320 . S
C373 O371 1.214 . S
O374 Cd366 2.277 . S
O374 C369 1.209 . S
C375 O372 1.258 . S
C375 O377 1.282 . S
O376 Cd368 2.277 . S
O376 C369 1.226 . S
O377 Cd368 2.356 . S
O377 C375 1.282 . S
C378 O379 1.306 . S
C378 O381 1.160 . S
O379 C378 1.306 . S
O379 Cd380 2.228 1_554 S
Cd380 O379 2.228 1_556 S
Cd380 O384 2.273 . S
Cd380 O388 2.277 1_556 S
O381 C378 1.160 . S
O381 Cd382 2.203 . S
Cd382 O381 2.203 . S
Cd382 O384 2.411 1_554 S
Cd382 O385 2.333 1_554 S
Cd382 O386 2.352 1_554 S
Cd382 O390 2.277 . S
Cd382 O391 2.356 . S
C383 O388 1.209 . S
C383 O390 1.226 . S
O384 Cd380 2.273 . S
O384 Cd382 2.411 1_556 S
O384 C387 1.320 . S
O385 Cd382 2.333 1_556 S
O385 C387 1.214 . S
O386 Cd382 2.352 1_556 S
O386 C389 1.258 . S
C387 O384 1.320 . S
C387 O385 1.214 . S
O388 Cd380 2.277 1_554 S
O388 C383 1.209 . S
C389 O386 1.258 . S
C389 O391 1.282 1_556 S
O390 Cd382 2.277 . S
O390 C383 1.226 . S
O391 Cd382 2.356 . S
O391 C389 1.282 1_554 S
C392 O393 1.306 . S
C392 O395 1.160 . S
O393 C392 1.306 . S
O393 Cd394 2.228 1_554 S
Cd394 O393 2.228 1_556 S
Cd394 O398 2.273 . S
Cd394 O402 2.277 1_556 S
O395 C392 1.160 . S
O395 Cd396 2.203 . S
Cd396 O395 2.203 . S
Cd396 O398 2.411 1_554 S
Cd396 O399 2.333 1_554 S
Cd396 O400 2.352 1_554 S
Cd396 O404 2.277 . S
Cd396 O405 2.356 . S
C397 O402 1.209 . S
C397 O404 1.226 . S
O398 Cd394 2.273 . S
O398 Cd396 2.411 1_556 S
O398 C401 1.320 . S
O399 Cd396 2.333 1_556 S
O399 C401 1.214 . S
O400 Cd396 2.352 1_556 S
O400 C403 1.258 . S
C401 O398 1.320 . S
C401 O399 1.214 . S
O402 Cd394 2.277 1_554 S
O402 C397 1.209 . S
C403 O400 1.258 . S
C403 O405 1.282 1_556 S
O404 Cd396 2.277 . S
O404 C397 1.226 . S
O405 Cd396 2.356 . S
O405 C403 1.282 1_554 S
C406 O407 1.306 . S
C406 O409 1.160 . S
O407 C406 1.306 . S
O407 Cd408 2.228 1_554 S
Cd408 O407 2.228 1_556 S
Cd408 O412 2.273 . S
Cd408 O416 2.277 1_556 S
O409 C406 1.160 . S
O409 Cd410 2.203 . S
Cd410 O409 2.203 . S
Cd410 O412 2.411 1_554 S
Cd410 O413 2.333 1_554 S
Cd410 O414 2.352 1_554 S
Cd410 O418 2.277 . S
Cd410 O419 2.356 . S
C411 O416 1.209 . S
C411 O418 1.226 . S
O412 Cd408 2.273 . S
O412 Cd410 2.411 1_556 S
O412 C415 1.320 . S
O413 Cd410 2.333 1_556 S
O413 C415 1.214 . S
O414 Cd410 2.352 1_556 S
O414 C417 1.258 . S
C415 O412 1.320 . S
C415 O413 1.214 . S
O416 Cd408 2.277 1_554 S
O416 C411 1.209 . S
C417 O414 1.258 . S
C417 O419 1.282 1_556 S
O418 Cd410 2.277 . S
O418 C411 1.226 . S
O419 Cd410 2.356 . S
O419 C417 1.282 1_554 S
C420 O421 1.306 . S
C420 O423 1.160 . S
O421 C420 1.306 . S
O421 Cd422 2.228 . S
Cd422 O421 2.228 . S
Cd422 O426 2.273 . S
Cd422 O430 2.277 . S
O423 C420 1.160 . S
O423 Cd424 2.203 . S
Cd424 O423 2.203 . S
Cd424 O426 2.411 . S
Cd424 O427 2.333 . S
Cd424 O428 2.352 . S
Cd424 O432 2.277 . S
Cd424 O433 2.356 . S
C425 O430 1.209 . S
C425 O432 1.226 . S
O426 Cd422 2.273 . S
O426 Cd424 2.411 . S
O426 C429 1.320 . S
O427 Cd424 2.333 . S
O427 C429 1.214 . S
O428 Cd424 2.352 . S
O428 C431 1.258 . S
C429 O426 1.320 . S
C429 O427 1.214 . S
O430 Cd422 2.277 . S
O430 C425 1.209 . S
C431 O428 1.258 . S
C431 O433 1.282 . S
O432 Cd424 2.277 . S
O432 C425 1.226 . S
O433 Cd424 2.356 . S
O433 C431 1.282 . S
C434 O435 1.306 . S
C434 O437 1.160 . S
O435 C434 1.306 . S
O435 Cd436 2.228 . S
Cd436 O435 2.228 . S
Cd436 O440 2.273 . S
Cd436 O444 2.277 . S
O437 C434 1.160 . S
O437 Cd438 2.203 . S
Cd438 O437 2.203 . S
Cd438 O440 2.411 . S
Cd438 O441 2.333 . S
Cd438 O442 2.352 . S
Cd438 O446 2.277 . S
Cd438 O447 2.356 . S
C439 O444 1.209 . S
C439 O446 1.226 . S
O440 Cd436 2.273 . S
O440 Cd438 2.411 . S
O440 C443 1.320 . S
O441 Cd438 2.333 . S
O441 C443 1.214 . S
O442 Cd438 2.352 . S
O442 C445 1.258 . S
C443 O440 1.320 . S
C443 O441 1.214 . S
O444 Cd436 2.277 . S
O444 C439 1.209 . S
C445 O442 1.258 . S
C445 O447 1.282 . S
O446 Cd438 2.277 . S
O446 C439 1.226 . S
O447 Cd438 2.356 . S
O447 C445 1.282 . S
C448 O449 1.306 . S
C448 O451 1.160 . S
O449 C448 1.306 . S
O449 Cd450 2.228 . S
Cd450 O449 2.228 . S
Cd450 O454 2.273 . S
Cd450 O458 2.277 . S
O451 C448 1.160 . S
O451 Cd452 2.203 . S
Cd452 O451 2.203 . S
Cd452 O454 2.411 . S
Cd452 O455 2.333 . S
Cd452 O456 2.352 . S
Cd452 O460 2.277 . S
Cd452 O461 2.356 . S
C453 O458 1.209 . S
C453 O460 1.226 . S
O454 Cd450 2.273 . S
O454 Cd452 2.411 . S
O454 C457 1.320 . S
O455 Cd452 2.333 . S
O455 C457 1.214 . S
O456 Cd452 2.352 . S
O456 C459 1.258 . S
C457 O454 1.320 . S
C457 O455 1.214 . S
O458 Cd450 2.277 . S
O458 C453 1.209 . S
C459 O456 1.258 . S
C459 O461 1.282 . S
O460 Cd452 2.277 . S
O460 C453 1.226 . S
O461 Cd452 2.356 . S
O461 C459 1.282 . S
C462 O463 1.306 . S
C462 O465 1.160 . S
O463 C462 1.306 . S
O463 Cd464 2.228 . S
Cd464 O463 2.228 . S
Cd464 O468 2.273 . S
Cd464 O472 2.277 . S
O465 C462 1.160 . S
O465 Cd466 2.203 . S
Cd466 O465 2.203 . S
Cd466 O468 2.411 . S
Cd466 O469 2.333 . S
Cd466 O470 2.352 . S
Cd466 O474 2.277 . S
Cd466 O475 2.356 . S
C467 O472 1.209 . S
C467 O474 1.226 . S
O468 Cd464 2.273 . S
O468 Cd466 2.411 . S
O468 C471 1.320 . S
O469 Cd466 2.333 . S
O469 C471 1.214 . S
O470 Cd466 2.352 . S
O470 C473 1.258 . S
C471 O468 1.320 . S
C471 O469 1.214 . S
O472 Cd464 2.277 . S
O472 C467 1.209 . S
C473 O470 1.258 . S
C473 O475 1.282 . S
O474 Cd466 2.277 . S
O474 C467 1.226 . S
O475 Cd466 2.356 . S
O475 C473 1.282 . S
C476 O477 1.306 . S
C476 O479 1.160 . S
O477 C476 1.306 . S
O477 Cd478 2.228 . S
Cd478 O477 2.228 . S
Cd478 O482 2.273 . S
Cd478 O486 2.277 . S
O479 C476 1.160 . S
O479 Cd480 2.203 . S
Cd480 O479 2.203 . S
Cd480 O482 2.411 . S
Cd480 O483 2.333 . S
Cd480 O484 2.352 . S
Cd480 O488 2.277 . S
Cd480 O489 2.356 . S
C481 O486 1.209 . S
C481 O488 1.226 . S
O482 Cd478 2.273 . S
O482 Cd480 2.411 . S
O482 C485 1.320 . S
O483 Cd480 2.333 . S
O483 C485 1.214 . S
O484 Cd480 2.352 . S
O484 C487 1.258 . S
C485 O482 1.320 . S
C485 O483 1.214 . S
O486 Cd478 2.277 . S
O486 C481 1.209 . S
C487 O484 1.258 . S
C487 O489 1.282 . S
O488 Cd480 2.277 . S
O488 C481 1.226 . S
O489 Cd480 2.356 . S
O489 C487 1.282 . S
C490 O491 1.306 . S
C490 O493 1.160 . S
O491 C490 1.306 . S
O491 Cd492 2.228 . S
Cd492 O491 2.228 . S
Cd492 O496 2.273 . S
Cd492 O500 2.277 . S
O493 C490 1.160 . S
O493 Cd494 2.203 . S
Cd494 O493 2.203 . S
Cd494 O496 2.411 . S
Cd494 O497 2.333 . S
Cd494 O498 2.352 . S
Cd494 O502 2.277 . S
Cd494 O503 2.356 . S
C495 O500 1.209 . S
C495 O502 1.226 . S
O496 Cd492 2.273 . S
O496 Cd494 2.411 . S
O496 C499 1.320 . S
O497 Cd494 2.333 . S
O497 C499 1.214 . S
O498 Cd494 2.352 . S
O498 C501 1.258 . S
C499 O496 1.320 . S
C499 O497 1.214 . S
O500 Cd492 2.277 . S
O500 C495 1.209 . S
C501 O498 1.258 . S
C501 O503 1.282 . S
O502 Cd494 2.277 . S
O502 C495 1.226 . S
O503 Cd494 2.356 . S
O503 C501 1.282 . S
C504 C505 1.391 . S
C504 C506 1.394 . S
C504 H520 0.931 . S
C505 C504 1.391 . S
C505 C509 1.376 . S
C506 C504 1.394 . S
C506 C507 1.369 . S
C506 C510 1.531 . S
C507 C506 1.369 . S
C507 C508 1.410 . S
C507 C515 1.503 . S
C508 C507 1.410 . S
C508 C509 1.392 . S
C508 C511 1.511 . S
C509 C505 1.376 . S
C509 C508 1.392 . S
C509 H521 0.929 . S
C510 C506 1.531 . S
C510 H522 0.960 . S
C510 H523 0.962 . S
C510 H524 0.960 . S
C511 C508 1.511 . S
C511 H525 0.961 . S
C511 H526 0.961 . S
C511 H527 0.961 . S
C512 C513 1.370 . S
C512 C514 1.363 . S
C512 H528 0.931 . S
C513 C512 1.370 . S
C513 C517 1.408 . S
C514 C512 1.363 . S
C514 C515 1.370 . S
C514 C518 1.524 . S
C515 C507 1.503 . S
C515 C514 1.370 . S
C515 C516 1.403 . S
C516 C515 1.403 . S
C516 C517 1.404 . S
C516 C519 1.539 . S
C517 C513 1.408 . S
C517 C516 1.404 . S
C517 H529 0.930 . S
C518 C514 1.524 . S
C518 H530 0.956 . S
C518 H531 0.961 . S
C518 H532 0.961 . S
C519 C516 1.539 . S
C519 H533 0.958 . S
C519 H534 0.961 . S
C519 H535 0.960 . S
H520 C504 0.931 . S
H521 C509 0.929 . S
H522 C510 0.960 . S
H523 C510 0.962 . S
H524 C510 0.960 . S
H525 C511 0.961 . S
H526 C511 0.961 . S
H527 C511 0.961 . S
H528 C512 0.931 . S
H529 C517 0.930 . S
H530 C518 0.956 . S
H531 C518 0.961 . S
H532 C518 0.961 . S
H533 C519 0.958 . S
H534 C519 0.961 . S
H535 C519 0.960 . S
C536 C537 1.391 . S
C536 C538 1.394 . S
C536 H552 0.931 . S
C537 C536 1.391 . S
C537 C541 1.376 . S
C538 C536 1.394 . S
C538 C539 1.369 . S
C538 C542 1.531 . S
C539 C538 1.369 . S
C539 C540 1.410 . S
C539 C547 1.503 1_545 S
C540 C539 1.410 . S
C540 C541 1.392 . S
C540 C543 1.511 . S
C541 C537 1.376 . S
C541 C540 1.392 . S
C541 H553 0.929 . S
C542 C538 1.531 . S
C542 H554 0.960 1_545 S
C542 H555 0.962 . S
C542 H556 0.960 . S
C543 C540 1.511 . S
C543 H557 0.961 . S
C543 H558 0.961 1_545 S
C543 H559 0.961 . S
C544 C545 1.370 . S
C544 C546 1.363 . S
C544 H560 0.931 . S
C545 C544 1.370 . S
C545 C549 1.408 . S
C546 C544 1.363 . S
C546 C547 1.370 . S
C546 C550 1.524 1_565 S
C547 C539 1.503 1_565 S
C547 C546 1.370 . S
C547 C548 1.403 . S
C548 C547 1.403 . S
C548 C549 1.404 . S
C548 C551 1.539 . S
C549 C545 1.408 . S
C549 C548 1.404 . S
C549 H561 0.930 . S
C550 C546 1.524 1_545 S
C550 H562 0.956 . S
C550 H563 0.961 . S
C550 H564 0.961 1_545 S
C551 C548 1.539 . S
C551 H565 0.958 . S
C551 H566 0.961 . S
C551 H567 0.960 . S
H552 C536 0.931 . S
H553 C541 0.929 . S
H554 C542 0.960 1_565 S
H555 C542 0.962 . S
H556 C542 0.960 . S
H557 C543 0.961 . S
H558 C543 0.961 1_565 S
H559 C543 0.961 . S
H560 C544 0.931 . S
H561 C549 0.930 . S
H562 C550 0.956 . S
H563 C550 0.961 . S
H564 C550 0.961 1_565 S
H565 C551 0.958 . S
H566 C551 0.961 . S
H567 C551 0.960 . S
C568 C569 1.391 . S
C568 C570 1.394 . S
C568 H584 0.931 . S
C569 C568 1.391 . S
C569 C573 1.376 . S
C570 C568 1.394 . S
C570 C571 1.369 . S
C570 C574 1.531 . S
C571 C570 1.369 . S
C571 C572 1.410 . S
C571 C579 1.503 1_655 S
C572 C571 1.410 . S
C572 C573 1.392 . S
C572 C575 1.511 . S
C573 C569 1.376 . S
C573 C572 1.392 . S
C573 H585 0.929 . S
C574 C570 1.531 . S
C574 H586 0.960 1_655 S
C574 H587 0.962 1_655 S
C574 H588 0.960 . S
C575 C572 1.511 . S
C575 H589 0.961 . S
C575 H590 0.961 . S
C575 H591 0.961 . S
C576 C577 1.370 . S
C576 C578 1.363 . S
C576 H592 0.931 . S
C577 C576 1.370 . S
C577 C581 1.408 . S
C578 C576 1.363 . S
C578 C579 1.370 . S
C578 C582 1.524 . S
C579 C571 1.503 1_455 S
C579 C578 1.370 . S
C579 C580 1.403 . S
C580 C579 1.403 . S
C580 C581 1.404 . S
C580 C583 1.564 . S
C581 C577 1.408 . S
C581 C580 1.404 . S
C581 H593 0.930 . S
C582 C578 1.524 . S
C582 H594 0.956 . S
C582 H595 0.961 . S
C582 H596 0.961 . S
C583 C580 1.564 . S
C583 H597 0.991 1_455 S
C583 H598 0.976 . S
C583 H599 0.897 1_455 S
H584 C568 0.931 . S
H585 C573 0.929 . S
H586 C574 0.960 1_455 S
H587 C574 0.962 1_455 S
H588 C574 0.960 . S
H589 C575 0.961 . S
H590 C575 0.961 . S
H591 C575 0.961 . S
H592 C576 0.931 . S
H593 C581 0.930 . S
H594 C582 0.956 . S
H595 C582 0.961 . S
H596 C582 0.961 . S
H597 C583 0.991 1_655 S
H598 C583 0.976 . S
H599 C583 0.897 1_655 S
C600 C601 1.391 . S
C600 C602 1.394 . S
C600 H616 0.931 . S
C601 C600 1.391 . S
C601 C605 1.376 . S
C602 C600 1.394 . S
C602 C603 1.369 . S
C602 C606 1.531 . S
C603 C602 1.369 . S
C603 C604 1.410 . S
C603 C611 1.503 . S
C604 C603 1.410 . S
C604 C605 1.392 . S
C604 C607 1.511 . S
C605 C601 1.376 . S
C605 C604 1.392 . S
C605 H617 0.929 . S
C606 C602 1.531 . S
C606 H618 0.960 . S
C606 H619 0.962 . S
C606 H620 0.960 . S
C607 C604 1.511 . S
C607 H621 0.961 . S
C607 H622 0.961 . S
C607 H623 0.961 . S
C608 C609 1.370 . S
C608 C610 1.363 . S
C608 H624 0.931 . S
C609 C608 1.370 . S
C609 C613 1.408 . S
C610 C608 1.363 . S
C610 C611 1.370 . S
C610 C614 1.524 . S
C611 C603 1.503 . S
C611 C610 1.370 . S
C611 C612 1.403 . S
C612 C611 1.403 . S
C612 C613 1.404 . S
C612 C615 1.539 . S
C613 C609 1.408 . S
C613 C612 1.404 . S
C613 H625 0.930 . S
C614 C610 1.524 . S
C614 H626 0.956 . S
C614 H627 0.961 . S
C614 H628 0.961 . S
C615 C612 1.539 . S
C615 H629 0.958 . S
C615 H630 0.961 . S
C615 H631 0.960 . S
H616 C600 0.931 . S
H617 C605 0.929 . S
H618 C606 0.960 . S
H619 C606 0.962 . S
H620 C606 0.960 . S
H621 C607 0.961 . S
H622 C607 0.961 . S
H623 C607 0.961 . S
H624 C608 0.931 . S
H625 C613 0.930 . S
H626 C614 0.956 . S
H627 C614 0.961 . S
H628 C614 0.961 . S
H629 C615 0.958 . S
H630 C615 0.961 . S
H631 C615 0.960 . S
C632 C633 1.391 . S
C632 C634 1.394 . S
C632 H648 0.931 . S
C633 C632 1.391 . S
C633 C637 1.376 . S
C634 C632 1.394 . S
C634 C635 1.369 . S
C634 C638 1.531 . S
C635 C634 1.369 . S
C635 C636 1.410 . S
C635 C643 1.503 1_545 S
C636 C635 1.410 . S
C636 C637 1.392 . S
C636 C639 1.484 1_545 S
C637 C633 1.376 . S
C637 C636 1.392 . S
C637 H649 0.929 . S
C638 C634 1.531 . S
C638 H650 0.960 . S
C638 H651 0.962 . S
C638 H652 0.960 . S
C639 C636 1.484 1_565 S
C639 H653 0.917 1_565 S
C639 H654 0.994 . S
C639 H655 1.004 . S
C640 C641 1.370 . S
C640 C642 1.363 . S
C640 H656 0.931 . S
C641 C640 1.370 . S
C641 C645 1.408 . S
C642 C640 1.363 . S
C642 C643 1.370 . S
C642 C646 1.524 . S
C643 C635 1.503 1_565 S
C643 C642 1.370 . S
C643 C644 1.403 . S
C644 C643 1.403 . S
C644 C645 1.404 . S
C644 C647 1.539 . S
C645 C641 1.408 . S
C645 C644 1.404 . S
C645 H657 0.930 . S
C646 C642 1.524 . S
C646 H658 0.956 1_565 S
C646 H659 0.961 1_565 S
C646 H660 0.961 . S
C647 C644 1.539 . S
C647 H661 0.958 . S
C647 H662 0.961 . S
C647 H663 0.960 . S
H648 C632 0.931 . S
H649 C637 0.929 . S
H650 C638 0.960 . S
H651 C638 0.962 . S
H652 C638 0.960 . S
H653 C639 0.917 1_545 S
H654 C639 0.994 . S
H655 C639 1.004 . S
H656 C640 0.931 . S
H657 C645 0.930 . S
H658 C646 0.956 1_545 S
H659 C646 0.961 1_545 S
H660 C646 0.961 . S
H661 C647 0.958 . S
H662 C647 0.961 . S
H663 C647 0.960 . S
C664 C665 1.391 . S
C664 C666 1.394 . S
C664 H680 0.931 . S
C665 C664 1.391 . S
C665 C669 1.376 . S
C666 C664 1.394 . S
C666 C667 1.369 . S
C666 C670 1.531 . S
C667 C666 1.369 . S
C667 C668 1.410 . S
C667 C675 1.503 1_455 S
C668 C667 1.410 . S
C668 C669 1.392 . S
C668 C671 1.511 1_455 S
C669 C665 1.376 . S
C669 C668 1.392 . S
C669 H681 0.929 . S
C670 C666 1.531 . S
C670 H682 0.960 . S
C670 H683 0.962 . S
C670 H684 0.960 . S
C671 C668 1.511 1_655 S
C671 H685 0.961 1_655 S
C671 H686 0.961 . S
C671 H687 0.961 . S
C672 C673 1.370 . S
C672 C674 1.363 . S
C672 H688 0.931 . S
C673 C672 1.370 . S
C673 C677 1.408 . S
C674 C672 1.363 . S
C674 C675 1.370 . S
C674 C678 1.524 . S
C675 C667 1.503 1_655 S
C675 C674 1.370 . S
C675 C676 1.403 . S
C676 C675 1.403 . S
C676 C677 1.404 . S
C676 C679 1.539 . S
C677 C673 1.408 . S
C677 C676 1.404 . S
C677 H689 0.930 . S
C678 C674 1.524 . S
C678 H690 0.956 1_655 S
C678 H691 0.961 . S
C678 H692 0.961 . S
C679 C676 1.539 . S
C679 H693 0.958 . S
C679 H694 0.961 . S
C679 H695 0.960 . S
H680 C664 0.931 . S
H681 C669 0.929 . S
H682 C670 0.960 . S
H683 C670 0.962 . S
H684 C670 0.960 . S
H685 C671 0.961 1_455 S
H686 C671 0.961 . S
H687 C671 0.961 . S
H688 C672 0.931 . S
H689 C677 0.930 . S
H690 C678 0.956 1_455 S
H691 C678 0.961 . S
H692 C678 0.961 . S
H693 C679 0.958 . S
H694 C679 0.961 . S
H695 C679 0.960 . S
C696 C697 1.391 . S
C696 C698 1.394 . S
C696 H712 0.931 . S
C697 C696 1.391 . S
C697 C701 1.376 . S
C698 C696 1.394 . S
C698 C699 1.369 . S
C698 C702 1.531 . S
C699 C698 1.369 . S
C699 C700 1.410 . S
C699 C707 1.503 . S
C700 C699 1.410 . S
C700 C701 1.392 . S
C700 C703 1.511 . S
C701 C697 1.376 . S
C701 C700 1.392 . S
C701 H713 0.929 . S
C702 C698 1.531 . S
C702 H714 0.960 . S
C702 H715 0.962 . S
C702 H716 0.960 . S
C703 C700 1.511 . S
C703 H717 0.961 . S
C703 H718 0.961 . S
C703 H719 0.961 . S
C704 C705 1.370 . S
C704 C706 1.363 . S
C704 H720 0.931 . S
C705 C704 1.370 . S
C705 C709 1.408 . S
C706 C704 1.363 . S
C706 C707 1.370 . S
C706 C710 1.524 . S
C707 C699 1.503 . S
C707 C706 1.370 . S
C707 C708 1.403 . S
C708 C707 1.403 . S
C708 C709 1.404 . S
C708 C711 1.539 . S
C709 C705 1.408 . S
C709 C708 1.404 . S
C709 H721 0.930 . S
C710 C706 1.524 . S
C710 H722 0.956 . S
C710 H723 0.961 . S
C710 H724 0.961 . S
C711 C708 1.539 . S
C711 H725 0.958 . S
C711 H726 0.961 . S
C711 H727 0.960 . S
H712 C696 0.931 . S
H713 C701 0.929 . S
H714 C702 0.960 . S
H715 C702 0.962 . S
H716 C702 0.960 . S
H717 C703 0.961 . S
H718 C703 0.961 . S
H719 C703 0.961 . S
H720 C704 0.931 . S
H721 C709 0.930 . S
H722 C710 0.956 . S
H723 C710 0.961 . S
H724 C710 0.961 . S
H725 C711 0.958 . S
H726 C711 0.961 . S
H727 C711 0.960 . S
C728 C729 1.391 . S
C728 C730 1.394 . S
C728 H744 0.931 . S
C729 C728 1.391 . S
C729 C733 1.376 . S
C730 C728 1.394 . S
C730 C731 1.369 . S
C730 C734 1.531 . S
C731 C730 1.369 . S
C731 C732 1.410 . S
C731 C739 1.503 . S
C732 C731 1.410 . S
C732 C733 1.392 . S
C732 C735 1.511 . S
C733 C729 1.376 . S
C733 C732 1.392 . S
C733 H745 0.929 . S
C734 C730 1.531 . S
C734 H746 0.960 . S
C734 H747 0.962 . S
C734 H748 0.960 . S
C735 C732 1.511 . S
C735 H749 0.961 . S
C735 H750 0.961 . S
C735 H751 0.961 . S
C736 C737 1.370 . S
C736 C738 1.363 . S
C736 H752 0.931 . S
C737 C736 1.370 . S
C737 C741 1.408 . S
C738 C736 1.363 . S
C738 C739 1.370 . S
C738 C742 1.524 . S
C739 C731 1.503 . S
C739 C738 1.370 . S
C739 C740 1.403 . S
C740 C739 1.403 . S
C740 C741 1.404 . S
C740 C743 1.539 . S
C741 C737 1.408 . S
C741 C740 1.404 . S
C741 H753 0.930 . S
C742 C738 1.524 . S
C742 H754 0.956 . S
C742 H755 0.961 . S
C742 H756 0.961 . S
C743 C740 1.539 . S
C743 H757 0.958 . S
C743 H758 0.961 . S
C743 H759 0.960 . S
H744 C728 0.931 . S
H745 C733 0.929 . S
H746 C734 0.960 . S
H747 C734 0.962 . S
H748 C734 0.960 . S
H749 C735 0.961 . S
H750 C735 0.961 . S
H751 C735 0.961 . S
H752 C736 0.931 . S
H753 C741 0.930 . S
H754 C742 0.956 . S
H755 C742 0.961 . S
H756 C742 0.961 . S
H757 C743 0.958 . S
H758 C743 0.961 . S
H759 C743 0.960 . S
C760 C761 1.391 . S
C760 C762 1.394 . S
C760 H776 0.931 . S
C761 C760 1.391 . S
C761 C765 1.376 . S
C762 C760 1.394 . S
C762 C763 1.369 . S
C762 C766 1.531 . S
C763 C762 1.369 . S
C763 C764 1.410 . S
C763 C771 1.503 . S
C764 C763 1.410 . S
C764 C765 1.392 . S
C764 C767 1.511 . S
C765 C761 1.376 . S
C765 C764 1.392 . S
C765 H777 0.929 . S
C766 C762 1.531 . S
C766 H778 0.960 . S
C766 H779 0.962 . S
C766 H780 0.960 . S
C767 C764 1.511 . S
C767 H781 0.961 . S
C767 H782 0.961 . S
C767 H783 0.961 . S
C768 C769 1.370 . S
C768 C770 1.363 . S
C768 H784 0.931 . S
C769 C768 1.370 . S
C769 C773 1.408 . S
C770 C768 1.363 . S
C770 C771 1.370 . S
C770 C774 1.524 . S
C771 C763 1.503 . S
C771 C770 1.370 . S
C771 C772 1.403 . S
C772 C771 1.403 . S
C772 C773 1.404 . S
C772 C775 1.539 . S
C773 C769 1.408 . S
C773 C772 1.404 . S
C773 H785 0.930 . S
C774 C770 1.524 . S
C774 H786 0.956 . S
C774 H787 0.961 . S
C774 H788 0.961 . S
C775 C772 1.539 . S
C775 H789 0.958 . S
C775 H790 0.961 . S
C775 H791 0.960 . S
H776 C760 0.931 . S
H777 C765 0.929 . S
H778 C766 0.960 . S
H779 C766 0.962 . S
H780 C766 0.960 . S
H781 C767 0.961 . S
H782 C767 0.961 . S
H783 C767 0.961 . S
H784 C768 0.931 . S
H785 C773 0.930 . S
H786 C774 0.956 . S
H787 C774 0.961 . S
H788 C774 0.961 . S
H789 C775 0.958 . S
H790 C775 0.961 . S
H791 C775 0.960 . S
C792 C793 1.391 . S
C792 C794 1.394 . S
C792 H808 0.931 . S
C793 C792 1.391 . S
C793 C797 1.376 . S
C794 C792 1.394 . S
C794 C795 1.369 . S
C794 C798 1.531 . S
C795 C794 1.369 . S
C795 C796 1.410 . S
C795 C803 1.503 . S
C796 C795 1.410 . S
C796 C797 1.392 . S
C796 C799 1.511 . S
C797 C793 1.376 . S
C797 C796 1.392 . S
C797 H809 0.929 . S
C798 C794 1.531 . S
C798 H810 0.960 1_554 S
C798 H811 0.962 . S
C798 H812 0.960 1_554 S
C799 C796 1.511 . S
C799 H813 0.961 . S
C799 H814 0.961 . S
C799 H815 0.961 . S
C800 C801 1.370 . S
C800 C802 1.363 . S
C800 H816 0.931 . S
C801 C800 1.370 . S
C801 C805 1.408 . S
C802 C800 1.363 . S
C802 C803 1.370 . S
C802 C806 1.524 . S
C803 C795 1.503 . S
C803 C802 1.370 . S
C803 C804 1.403 . S
C804 C803 1.403 . S
C804 C805 1.404 . S
C804 C807 1.539 . S
C805 C801 1.408 . S
C805 C804 1.404 . S
C805 H817 0.930 1_554 S
C806 C802 1.524 . S
C806 H818 0.956 . S
C806 H819 0.961 . S
C806 H820 0.961 . S
C807 C804 1.539 . S
C807 H821 0.958 1_554 S
C807 H822 0.961 . S
C807 H823 0.960 . S
H808 C792 0.931 . S
H809 C797 0.929 . S
H810 C798 0.960 1_556 S
H811 C798 0.962 . S
H812 C798 0.960 1_556 S
H813 C799 0.961 . S
H814 C799 0.961 . S
H815 C799 0.961 . S
H816 C800 0.931 . S
H817 C805 0.930 1_556 S
H818 C806 0.956 . S
H819 C806 0.961 . S
H820 C806 0.961 . S
H821 C807 0.958 1_556 S
H822 C807 0.961 . S
H823 C807 0.960 . S
C824 C825 1.391 . S
C824 C826 1.394 . S
C824 H840 0.931 . S
C825 C824 1.391 . S
C825 C829 1.376 . S
C826 C824 1.394 . S
C826 C827 1.369 . S
C826 C830 1.531 . S
C827 C826 1.369 . S
C827 C828 1.410 . S
C827 C835 1.503 . S
C828 C827 1.410 . S
C828 C829 1.392 . S
C828 C831 1.511 . S
C829 C825 1.376 . S
C829 C828 1.392 . S
C829 H841 0.929 . S
C830 C826 1.531 . S
C830 H842 0.960 . S
C830 H843 0.962 . S
C830 H844 0.960 . S
C831 C828 1.511 . S
C831 H845 0.961 . S
C831 H846 0.961 . S
C831 H847 0.961 . S
C832 C833 1.370 . S
C832 C834 1.363 . S
C832 H848 0.931 . S
C833 C832 1.370 . S
C833 C837 1.408 . S
C834 C832 1.363 . S
C834 C835 1.370 . S
C834 C838 1.524 . S
C835 C827 1.503 . S
C835 C834 1.370 . S
C835 C836 1.403 . S
C836 C835 1.403 . S
C836 C837 1.404 . S
C836 C839 1.539 1_554 S
C837 C833 1.408 . S
C837 C836 1.404 . S
C837 H849 0.930 . S
C838 C834 1.524 . S
C838 H850 0.956 . S
C838 H851 0.961 . S
C838 H852 0.961 . S
C839 C836 1.539 1_556 S
C839 H853 0.958 . S
C839 H854 0.961 . S
C839 H855 0.960 . S
H840 C824 0.931 . S
H841 C829 0.929 . S
H842 C830 0.960 . S
H843 C830 0.962 . S
H844 C830 0.960 . S
H845 C831 0.961 . S
H846 C831 0.961 . S
H847 C831 0.961 . S
H848 C832 0.931 . S
H849 C837 0.930 . S
H850 C838 0.956 . S
H851 C838 0.961 . S
H852 C838 0.961 . S
H853 C839 0.958 . S
H854 C839 0.961 . S
H855 C839 0.960 . S
C856 C857 1.391 . S
C856 C858 1.394 . S
C856 H872 0.931 . S
C857 C856 1.391 . S
C857 C861 1.376 . S
C858 C856 1.394 . S
C858 C859 1.369 . S
C858 C862 1.531 . S
C859 C858 1.369 . S
C859 C860 1.410 . S
C859 C867 1.503 . S
C860 C859 1.410 . S
C860 C861 1.392 . S
C860 C863 1.511 . S
C861 C857 1.376 . S
C861 C860 1.392 . S
C861 H873 0.929 . S
C862 C858 1.531 . S
C862 H874 0.960 . S
C862 H875 0.962 . S
C862 H876 0.960 . S
C863 C860 1.511 . S
C863 H877 0.961 . S
C863 H878 0.961 . S
C863 H879 0.961 . S
C864 C865 1.370 . S
C864 C866 1.363 . S
C864 H880 0.931 . S
C865 C864 1.370 . S
C865 C869 1.408 . S
C866 C864 1.363 . S
C866 C867 1.370 . S
C866 C870 1.524 . S
C867 C859 1.503 . S
C867 C866 1.370 . S
C867 C868 1.403 . S
C868 C867 1.403 . S
C868 C869 1.404 . S
C868 C871 1.539 1_554 S
C869 C865 1.408 . S
C869 C868 1.404 . S
C869 H881 0.930 1_554 S
C870 C866 1.524 . S
C870 H882 0.956 . S
C870 H883 0.961 . S
C870 H884 0.961 . S
C871 C868 1.539 1_556 S
C871 H885 0.958 . S
C871 H886 0.961 . S
C871 H887 0.960 . S
H872 C856 0.931 . S
H873 C861 0.929 . S
H874 C862 0.960 . S
H875 C862 0.962 . S
H876 C862 0.960 . S
H877 C863 0.961 . S
H878 C863 0.961 . S
H879 C863 0.961 . S
H880 C864 0.931 . S
H881 C869 0.930 1_556 S
H882 C870 0.956 . S
H883 C870 0.961 . S
H884 C870 0.961 . S
H885 C871 0.958 . S
H886 C871 0.961 . S
H887 C871 0.960 . S
C888 C889 1.391 . S
C888 C890 1.394 . S
C888 H904 0.931 . S
C889 C888 1.391 . S
C889 C893 1.376 . S
C890 C888 1.394 . S
C890 C891 1.369 . S
C890 C894 1.531 . S
C891 C890 1.369 . S
C891 C892 1.410 . S
C891 C899 1.503 . S
C892 C891 1.410 . S
C892 C893 1.392 . S
C892 C895 1.511 . S
C893 C889 1.376 . S
C893 C892 1.392 . S
C893 H905 0.929 . S
C894 C890 1.531 . S
C894 H906 0.960 . S
C894 H907 0.962 . S
C894 H908 0.960 . S
C895 C892 1.511 . S
C895 H909 0.961 . S
C895 H910 0.961 . S
C895 H911 0.961 . S
C896 C897 1.370 . S
C896 C898 1.363 . S
C896 H912 0.931 . S
C897 C896 1.370 . S
C897 C901 1.414 . S
C898 C896 1.363 . S
C898 C899 1.370 . S
C898 C902 1.524 . S
C899 C891 1.503 . S
C899 C898 1.370 . S
C899 C900 1.403 . S
C900 C899 1.403 . S
C900 C901 1.406 . S
C900 C903 1.539 1_556 S
C901 C897 1.414 . S
C901 C900 1.406 . S
C901 H913 0.922 1_556 S
C902 C898 1.524 . S
C902 H914 0.956 . S
C902 H915 0.961 . S
C902 H916 0.961 . S
C903 C900 1.539 1_554 S
C903 H917 0.958 . S
C903 H918 0.961 . S
C903 H919 0.960 . S
H904 C888 0.931 . S
H905 C893 0.929 . S
H906 C894 0.960 . S
H907 C894 0.962 . S
H908 C894 0.960 . S
H909 C895 0.961 . S
H910 C895 0.961 . S
H911 C895 0.961 . S
H912 C896 0.931 . S
H913 C901 0.922 1_554 S
H914 C902 0.956 . S
H915 C902 0.961 . S
H916 C902 0.961 . S
H917 C903 0.958 . S
H918 C903 0.961 . S
H919 C903 0.960 . S
C920 C921 1.391 . S
C920 C922 1.394 . S
C920 H936 0.931 . S
C921 C920 1.391 . S
C921 C925 1.376 . S
C922 C920 1.394 . S
C922 C923 1.369 . S
C922 C926 1.531 . S
C923 C922 1.369 . S
C923 C924 1.410 . S
C923 C931 1.503 . S
C924 C923 1.410 . S
C924 C925 1.392 . S
C924 C927 1.511 . S
C925 C921 1.376 . S
C925 C924 1.392 . S
C925 H937 0.929 . S
C926 C922 1.531 . S
C926 H938 0.960 . S
C926 H939 0.962 . S
C926 H940 0.960 . S
C927 C924 1.511 . S
C927 H941 0.961 . S
C927 H942 0.961 . S
C927 H943 0.961 . S
C928 C929 1.370 . S
C928 C930 1.363 . S
C928 H944 0.931 1_556 S
C929 C928 1.370 . S
C929 C933 1.408 . S
C930 C928 1.363 . S
C930 C931 1.370 . S
C930 C934 1.524 1_556 S
C931 C923 1.503 . S
C931 C930 1.370 . S
C931 C932 1.403 . S
C932 C931 1.403 . S
C932 C933 1.404 . S
C932 C935 1.539 . S
C933 C929 1.408 . S
C933 C932 1.404 . S
C933 H945 0.930 . S
C934 C930 1.524 1_554 S
C934 H946 0.956 1_554 S
C934 H947 0.961 . S
C934 H948 0.961 . S
C935 C932 1.539 . S
C935 H949 0.958 . S
C935 H950 0.961 . S
C935 H951 0.960 . S
H936 C920 0.931 . S
H937 C925 0.929 . S
H938 C926 0.960 . S
H939 C926 0.962 . S
H940 C926 0.960 . S
H941 C927 0.961 . S
H942 C927 0.961 . S
H943 C927 0.961 . S
H944 C928 0.931 1_554 S
H945 C933 0.930 . S
H946 C934 0.956 1_556 S
H947 C934 0.961 . S
H948 C934 0.961 . S
H949 C935 0.958 . S
H950 C935 0.961 . S
H951 C935 0.960 . S
C952 C953 1.391 . S
C952 C954 1.394 . S
C952 H968 0.931 . S
C953 C952 1.391 . S
C953 C957 1.376 . S
C954 C952 1.394 . S
C954 C955 1.369 . S
C954 C958 1.531 . S
C955 C954 1.369 . S
C955 C956 1.410 . S
C955 C963 1.503 . S
C956 C955 1.410 . S
C956 C957 1.392 . S
C956 C959 1.511 1_556 S
C957 C953 1.376 . S
C957 C956 1.392 . S
C957 H969 0.929 1_556 S
C958 C954 1.531 . S
C958 H970 0.960 . S
C958 H971 0.962 . S
C958 H972 0.960 . S
C959 C956 1.511 1_554 S
C959 H973 0.961 . S
C959 H974 0.961 . S
C959 H975 0.961 . S
C960 C961 1.370 . S
C960 C962 1.363 . S
C960 H976 0.931 . S
C961 C960 1.370 . S
C961 C965 1.408 . S
C962 C960 1.363 . S
C962 C963 1.370 . S
C962 C966 1.524 . S
C963 C955 1.503 . S
C963 C962 1.370 . S
C963 C964 1.403 . S
C964 C963 1.403 . S
C964 C965 1.404 . S
C964 C967 1.539 . S
C965 C961 1.408 . S
C965 C964 1.404 . S
C965 H977 0.930 . S
C966 C962 1.524 . S
C966 H978 0.956 . S
C966 H979 0.961 . S
C966 H980 0.961 . S
C967 C964 1.539 . S
C967 H981 0.958 . S
C967 H982 0.961 . S
C967 H983 0.960 . S
H968 C952 0.931 . S
H969 C957 0.929 1_554 S
H970 C958 0.960 . S
H971 C958 0.962 . S
H972 C958 0.960 . S
H973 C959 0.961 . S
H974 C959 0.961 . S
H975 C959 0.961 . S
H976 C960 0.931 . S
H977 C965 0.930 . S
H978 C966 0.956 . S
H979 C966 0.961 . S
H980 C966 0.961 . S
H981 C967 0.958 . S
H982 C967 0.961 . S
H983 C967 0.960 . S
C984 C985 1.391 . S
C984 C986 1.394 . S
C984 H1000 0.931 . S
C985 C984 1.391 . S
C985 C989 1.376 . S
C986 C984 1.394 . S
C986 C987 1.369 . S
C986 C990 1.531 . S
C987 C986 1.369 . S
C987 C988 1.410 . S
C987 C995 1.503 . S
C988 C987 1.410 . S
C988 C989 1.392 . S
C988 C991 1.511 . S
C989 C985 1.376 . S
C989 C988 1.392 . S
C989 H1001 0.929 . S
C990 C986 1.531 . S
C990 H1002 0.960 . S
C990 H1003 0.962 . S
C990 H1004 0.960 . S
C991 C988 1.511 . S
C991 H1005 0.961 . S
C991 H1006 0.961 . S
C991 H1007 0.961 . S
C992 C993 1.370 . S
C992 C994 1.363 . S
C992 H1008 0.931 . S
C993 C992 1.370 . S
C993 C997 1.408 . S
C994 C992 1.363 . S
C994 C995 1.370 . S
C994 C998 1.524 . S
C995 C987 1.503 . S
C995 C994 1.370 . S
C995 C996 1.403 . S
C996 C995 1.403 . S
C996 C997 1.404 . S
C996 C999 1.539 . S
C997 C993 1.408 . S
C997 C996 1.404 . S
C997 H1009 0.930 . S
C998 C994 1.524 . S
C998 H1010 0.956 . S
C998 H1011 0.961 . S
C998 H1012 0.961 . S
C999 C996 1.539 . S
C999 H1013 0.958 . S
C999 H1014 0.961 . S
C999 H1015 0.960 . S
H1000 C984 0.931 . S
H1001 C989 0.929 . S
H1002 C990 0.960 . S
H1003 C990 0.962 . S
H1004 C990 0.960 . S
H1005 C991 0.961 . S
H1006 C991 0.961 . S
H1007 C991 0.961 . S
H1008 C992 0.931 . S
H1009 C997 0.930 . S
H1010 C998 0.956 . S
H1011 C998 0.961 . S
H1012 C998 0.961 . S
H1013 C999 0.958 . S
H1014 C999 0.961 . S
H1015 C999 0.960 . S
C1016 C1017 1.391 . S
C1016 C1018 1.394 . S
C1016 H1032 0.931 . S
C1017 C1016 1.391 . S
C1017 C1021 1.376 . S
C1018 C1016 1.394 . S
C1018 C1019 1.369 . S
C1018 C1022 1.531 . S
C1019 C1018 1.369 . S
C1019 C1020 1.410 . S
C1019 C1027 1.503 . S
C1020 C1019 1.410 . S
C1020 C1021 1.392 . S
C1020 C1023 1.511 . S
C1021 C1017 1.376 . S
C1021 C1020 1.392 . S
C1021 H1033 0.929 . S
C1022 C1018 1.531 . S
C1022 H1034 0.960 . S
C1022 H1035 0.962 . S
C1022 H1036 0.960 . S
C1023 C1020 1.511 . S
C1023 H1037 0.961 . S
C1023 H1038 0.961 . S
C1023 H1039 0.961 . S
C1024 C1025 1.370 . S
C1024 C1026 1.363 . S
C1024 H1040 0.931 . S
C1025 C1024 1.370 . S
C1025 C1029 1.408 . S
C1026 C1024 1.363 . S
C1026 C1027 1.370 . S
C1026 C1030 1.524 . S
C1027 C1019 1.503 . S
C1027 C1026 1.370 . S
C1027 C1028 1.403 . S
C1028 C1027 1.403 . S
C1028 C1029 1.404 . S
C1028 C1031 1.539 . S
C1029 C1025 1.408 . S
C1029 C1028 1.404 . S
C1029 H1041 0.930 . S
C1030 C1026 1.524 . S
C1030 H1042 0.956 . S
C1030 H1043 0.961 . S
C1030 H1044 0.961 . S
C1031 C1028 1.539 . S
C1031 H1045 0.958 . S
C1031 H1046 0.961 . S
C1031 H1047 0.960 . S
H1032 C1016 0.931 . S
H1033 C1021 0.929 . S
H1034 C1022 0.960 . S
H1035 C1022 0.962 . S
H1036 C1022 0.960 . S
H1037 C1023 0.961 . S
H1038 C1023 0.961 . S
H1039 C1023 0.961 . S
H1040 C1024 0.931 . S
H1041 C1029 0.930 . S
H1042 C1030 0.956 . S
H1043 C1030 0.961 . S
H1044 C1030 0.961 . S
H1045 C1031 0.958 . S
H1046 C1031 0.961 . S
H1047 C1031 0.960 . S
C1048 C1049 1.391 . S
C1048 C1050 1.394 . S
C1048 H1064 0.931 . S
C1049 C1048 1.391 . S
C1049 C1053 1.376 . S
C1050 C1048 1.394 . S
C1050 C1051 1.369 . S
C1050 C1054 1.531 . S
C1051 C1050 1.369 . S
C1051 C1052 1.410 . S
C1051 C1059 1.503 . S
C1052 C1051 1.410 . S
C1052 C1053 1.392 . S
C1052 C1055 1.511 . S
C1053 C1049 1.376 . S
C1053 C1052 1.392 . S
C1053 H1065 0.929 . S
C1054 C1050 1.531 . S
C1054 H1066 0.960 . S
C1054 H1067 0.962 . S
C1054 H1068 0.960 . S
C1055 C1052 1.511 . S
C1055 H1069 0.961 . S
C1055 H1070 0.961 . S
C1055 H1071 0.961 . S
C1056 C1057 1.370 . S
C1056 C1058 1.363 . S
C1056 H1072 0.931 . S
C1057 C1056 1.370 . S
C1057 C1061 1.408 . S
C1058 C1056 1.363 . S
C1058 C1059 1.370 . S
C1058 C1062 1.524 . S
C1059 C1051 1.503 . S
C1059 C1058 1.370 . S
C1059 C1060 1.403 . S
C1060 C1059 1.403 . S
C1060 C1061 1.404 . S
C1060 C1063 1.539 . S
C1061 C1057 1.408 . S
C1061 C1060 1.404 . S
C1061 H1073 0.930 . S
C1062 C1058 1.524 . S
C1062 H1074 0.956 . S
C1062 H1075 0.961 . S
C1062 H1076 0.961 . S
C1063 C1060 1.539 . S
C1063 H1077 0.958 . S
C1063 H1078 0.961 . S
C1063 H1079 0.960 . S
H1064 C1048 0.931 . S
H1065 C1053 0.929 . S
H1066 C1054 0.960 . S
H1067 C1054 0.962 . S
H1068 C1054 0.960 . S
H1069 C1055 0.961 . S
H1070 C1055 0.961 . S
H1071 C1055 0.961 . S
H1072 C1056 0.931 . S
H1073 C1061 0.930 . S
H1074 C1062 0.956 . S
H1075 C1062 0.961 . S
H1076 C1062 0.961 . S
H1077 C1063 0.958 . S
H1078 C1063 0.961 . S
H1079 C1063 0.960 . S
C1080 C1081 1.391 . S
C1080 C1082 1.394 . S
C1080 H1096 0.931 . S
C1081 C1080 1.391 . S
C1081 C1085 1.376 . S
C1082 C1080 1.394 . S
C1082 C1083 1.369 . S
C1082 C1086 1.531 . S
C1083 C1082 1.369 . S
C1083 C1084 1.410 . S
C1083 C1091 1.503 . S
C1084 C1083 1.410 . S
C1084 C1085 1.392 . S
C1084 C1087 1.511 . S
C1085 C1081 1.376 . S
C1085 C1084 1.392 . S
C1085 H1097 0.929 . S
C1086 C1082 1.531 . S
C1086 H1098 0.960 . S
C1086 H1099 0.962 . S
C1086 H1100 0.960 . S
C1087 C1084 1.511 . S
C1087 H1101 0.961 . S
C1087 H1102 0.961 . S
C1087 H1103 0.961 . S
C1088 C1089 1.370 . S
C1088 C1090 1.363 1_554 S
C1088 H1104 0.931 . S
C1089 C1088 1.370 . S
C1089 C1093 1.408 1_554 S
C1090 C1088 1.363 1_556 S
C1090 C1091 1.370 . S
C1090 C1094 1.524 . S
C1091 C1083 1.503 . S
C1091 C1090 1.370 . S
C1091 C1092 1.403 . S
C1092 C1091 1.403 . S
C1092 C1093 1.404 . S
C1092 C1095 1.539 . S
C1093 C1089 1.408 1_556 S
C1093 C1092 1.404 . S
C1093 H1105 0.930 1_556 S
C1094 C1090 1.524 . S
C1094 H1106 0.956 . S
C1094 H1107 0.961 . S
C1094 H1108 0.961 . S
C1095 C1092 1.539 . S
C1095 H1109 0.958 . S
C1095 H1110 0.961 . S
C1095 H1111 0.960 . S
H1096 C1080 0.931 . S
H1097 C1085 0.929 . S
H1098 C1086 0.960 . S
H1099 C1086 0.962 . S
H1100 C1086 0.960 . S
H1101 C1087 0.961 . S
H1102 C1087 0.961 . S
H1103 C1087 0.961 . S
H1104 C1088 0.931 . S
H1105 C1093 0.930 1_554 S
H1106 C1094 0.956 . S
H1107 C1094 0.961 . S
H1108 C1094 0.961 . S
H1109 C1095 0.958 . S
H1110 C1095 0.961 . S
H1111 C1095 0.960 . S
C1112 C1113 1.391 1_556 S
C1112 C1114 1.394 . S
C1112 H1128 0.931 . S
C1113 C1112 1.391 1_554 S
C1113 C1117 1.376 . S
C1114 C1112 1.394 . S
C1114 C1115 1.369 . S
C1114 C1118 1.531 . S
C1115 C1114 1.369 . S
C1115 C1116 1.410 . S
C1115 C1123 1.503 . S
C1116 C1115 1.410 . S
C1116 C1117 1.392 1_556 S
C1116 C1119 1.511 . S
C1117 C1113 1.376 . S
C1117 C1116 1.392 1_554 S
C1117 H1129 0.929 . S
C1118 C1114 1.531 . S
C1118 H1130 0.960 . S
C1118 H1131 0.962 . S
C1118 H1132 0.960 . S
C1119 C1116 1.511 . S
C1119 H1133 0.961 1_556 S
C1119 H1134 0.961 . S
C1119 H1135 0.961 . S
C1120 C1121 1.370 . S
C1120 C1122 1.363 . S
C1120 H1136 0.931 . S
C1121 C1120 1.370 . S
C1121 C1125 1.408 . S
C1122 C1120 1.363 . S
C1122 C1123 1.370 . S
C1122 C1126 1.524 . S
C1123 C1115 1.503 . S
C1123 C1122 1.370 . S
C1123 C1124 1.403 . S
C1124 C1123 1.403 . S
C1124 C1125 1.404 . S
C1124 C1127 1.539 . S
C1125 C1121 1.408 . S
C1125 C1124 1.404 . S
C1125 H1137 0.930 . S
C1126 C1122 1.524 . S
C1126 H1138 0.956 . S
C1126 H1139 0.961 . S
C1126 H1140 0.961 . S
C1127 C1124 1.539 . S
C1127 H1141 0.958 . S
C1127 H1142 0.961 . S
C1127 H1143 0.960 . S
H1128 C1112 0.931 . S
H1129 C1117 0.929 . S
H1130 C1118 0.960 . S
H1131 C1118 0.962 . S
H1132 C1118 0.960 . S
H1133 C1119 0.961 1_554 S
H1134 C1119 0.961 . S
H1135 C1119 0.961 . S
H1136 C1120 0.931 . S
H1137 C1125 0.930 . S
H1138 C1126 0.956 . S
H1139 C1126 0.961 . S
H1140 C1126 0.961 . S
H1141 C1127 0.958 . S
H1142 C1127 0.961 . S
H1143 C1127 0.960 . S
C1144 C1145 1.391 . S
C1144 C1146 1.394 1_554 S
C1144 H1160 0.931 . S
C1145 C1144 1.391 . S
C1145 C1149 1.376 . S
C1146 C1144 1.394 1_556 S
C1146 C1147 1.369 . S
C1146 C1150 1.531 . S
C1147 C1146 1.369 . S
C1147 C1148 1.410 . S
C1147 C1155 1.503 . S
C1148 C1147 1.410 . S
C1148 C1149 1.392 1_556 S
C1148 C1151 1.511 . S
C1149 C1145 1.376 . S
C1149 C1148 1.392 1_554 S
C1149 H1161 0.929 . S
C1150 C1146 1.531 . S
C1150 H1162 0.960 . S
C1150 H1163 0.962 . S
C1150 H1164 0.960 . S
C1151 C1148 1.511 . S
C1151 H1165 0.961 . S
C1151 H1166 0.961 . S
C1151 H1167 0.961 . S
C1152 C1153 1.370 . S
C1152 C1154 1.363 . S
C1152 H1168 0.931 . S
C1153 C1152 1.370 . S
C1153 C1157 1.408 . S
C1154 C1152 1.363 . S
C1154 C1155 1.370 . S
C1154 C1158 1.524 . S
C1155 C1147 1.503 . S
C1155 C1154 1.370 . S
C1155 C1156 1.403 . S
C1156 C1155 1.403 . S
C1156 C1157 1.404 . S
C1156 C1159 1.539 . S
C1157 C1153 1.408 . S
C1157 C1156 1.404 . S
C1157 H1169 0.930 . S
C1158 C1154 1.524 . S
C1158 H1170 0.956 . S
C1158 H1171 0.961 . S
C1158 H1172 0.961 . S
C1159 C1156 1.539 . S
C1159 H1173 0.958 . S
C1159 H1174 0.961 . S
C1159 H1175 0.960 . S
H1160 C1144 0.931 . S
H1161 C1149 0.929 . S
H1162 C1150 0.960 . S
H1163 C1150 0.962 . S
H1164 C1150 0.960 . S
H1165 C1151 0.961 . S
H1166 C1151 0.961 . S
H1167 C1151 0.961 . S
H1168 C1152 0.931 . S
H1169 C1157 0.930 . S
H1170 C1158 0.956 . S
H1171 C1158 0.961 . S
H1172 C1158 0.961 . S
H1173 C1159 0.958 . S
H1174 C1159 0.961 . S
H1175 C1159 0.960 . S
C1176 C1177 1.391 . S
C1176 C1178 1.394 . S
C1176 H1192 0.931 . S
C1177 C1176 1.391 . S
C1177 C1181 1.376 . S
C1178 C1176 1.394 . S
C1178 C1179 1.369 . S
C1178 C1182 1.531 . S
C1179 C1178 1.369 . S
C1179 C1180 1.410 . S
C1179 C1187 1.503 . S
C1180 C1179 1.410 . S
C1180 C1181 1.392 . S
C1180 C1183 1.511 . S
C1181 C1177 1.376 . S
C1181 C1180 1.392 . S
C1181 H1193 0.929 . S
C1182 C1178 1.531 . S
C1182 H1194 0.960 . S
C1182 H1195 0.962 . S
C1182 H1196 0.960 . S
C1183 C1180 1.511 . S
C1183 H1197 0.961 . S
C1183 H1198 0.961 . S
C1183 H1199 0.961 . S
C1184 C1185 1.370 . S
C1184 C1186 1.363 . S
C1184 H1200 0.931 . S
C1185 C1184 1.370 . S
C1185 C1189 1.408 . S
C1186 C1184 1.363 . S
C1186 C1187 1.370 . S
C1186 C1190 1.524 . S
C1187 C1179 1.503 . S
C1187 C1186 1.370 . S
C1187 C1188 1.403 . S
C1188 C1187 1.403 . S
C1188 C1189 1.404 . S
C1188 C1191 1.539 . S
C1189 C1185 1.408 . S
C1189 C1188 1.404 . S
C1189 H1201 0.930 . S
C1190 C1186 1.524 . S
C1190 H1202 0.956 . S
C1190 H1203 0.961 . S
C1190 H1204 0.961 . S
C1191 C1188 1.539 . S
C1191 H1205 0.958 . S
C1191 H1206 0.961 . S
C1191 H1207 0.960 . S
H1192 C1176 0.931 . S
H1193 C1181 0.929 . S
H1194 C1182 0.960 . S
H1195 C1182 0.962 . S
H1196 C1182 0.960 . S
H1197 C1183 0.961 . S
H1198 C1183 0.961 . S
H1199 C1183 0.961 . S
H1200 C1184 0.931 . S
H1201 C1189 0.930 . S
H1202 C1190 0.956 . S
H1203 C1190 0.961 . S
H1204 C1190 0.961 . S
H1205 C1191 0.958 . S
H1206 C1191 0.961 . S
H1207 C1191 0.960 . S
C1208 C1209 1.391 . S
C1208 C1210 1.394 . S
C1208 H1224 0.931 . S
C1209 C1208 1.391 . S
C1209 C1213 1.376 . S
C1210 C1208 1.394 . S
C1210 C1211 1.369 . S
C1210 C1214 1.531 . S
C1211 C1210 1.369 . S
C1211 C1212 1.410 . S
C1211 C1219 1.503 . S
C1212 C1211 1.410 . S
C1212 C1213 1.392 . S
C1212 C1215 1.511 . S
C1213 C1209 1.376 . S
C1213 C1212 1.392 . S
C1213 H1225 0.929 . S
C1214 C1210 1.531 . S
C1214 H1226 0.960 . S
C1214 H1227 0.962 . S
C1214 H1228 0.960 . S
C1215 C1212 1.511 . S
C1215 H1229 0.961 . S
C1215 H1230 0.961 . S
C1215 H1231 0.961 . S
C1216 C1217 1.370 . S
C1216 C1218 1.363 . S
C1216 H1232 0.931 . S
C1217 C1216 1.370 . S
C1217 C1221 1.408 . S
C1218 C1216 1.363 . S
C1218 C1219 1.370 . S
C1218 C1222 1.524 . S
C1219 C1211 1.503 . S
C1219 C1218 1.370 . S
C1219 C1220 1.403 . S
C1220 C1219 1.403 . S
C1220 C1221 1.404 . S
C1220 C1223 1.539 . S
C1221 C1217 1.408 . S
C1221 C1220 1.404 . S
C1221 H1233 0.930 . S
C1222 C1218 1.524 . S
C1222 H1234 0.956 . S
C1222 H1235 0.961 . S
C1222 H1236 0.961 . S
C1223 C1220 1.539 . S
C1223 H1237 0.958 . S
C1223 H1238 0.961 . S
C1223 H1239 0.960 . S
H1224 C1208 0.931 . S
H1225 C1213 0.929 . S
H1226 C1214 0.960 . S
H1227 C1214 0.962 . S
H1228 C1214 0.960 . S
H1229 C1215 0.961 . S
H1230 C1215 0.961 . S
H1231 C1215 0.961 . S
H1232 C1216 0.931 . S
H1233 C1221 0.930 . S
H1234 C1222 0.956 . S
H1235 C1222 0.961 . S
H1236 C1222 0.961 . S
H1237 C1223 0.958 . S
H1238 C1223 0.961 . S
H1239 C1223 0.960 . S
C1240 C1241 1.391 . S
C1240 C1242 1.394 . S
C1240 H1256 0.931 . S
C1241 C1240 1.391 . S
C1241 C1245 1.376 . S
C1242 C1240 1.394 . S
C1242 C1243 1.369 . S
C1242 C1246 1.531 . S
C1243 C1242 1.369 . S
C1243 C1244 1.410 . S
C1243 C1251 1.503 . S
C1244 C1243 1.410 . S
C1244 C1245 1.392 . S
C1244 C1247 1.511 . S
C1245 C1241 1.376 . S
C1245 C1244 1.392 . S
C1245 H1257 0.929 . S
C1246 C1242 1.531 . S
C1246 H1258 0.960 . S
C1246 H1259 0.962 . S
C1246 H1260 0.960 . S
C1247 C1244 1.511 . S
C1247 H1261 0.961 . S
C1247 H1262 0.961 . S
C1247 H1263 0.961 . S
C1248 C1249 1.370 . S
C1248 C1250 1.363 . S
C1248 H1264 0.931 . S
C1249 C1248 1.370 . S
C1249 C1253 1.408 . S
C1250 C1248 1.363 . S
C1250 C1251 1.370 . S
C1250 C1254 1.524 . S
C1251 C1243 1.503 . S
C1251 C1250 1.370 . S
C1251 C1252 1.403 . S
C1252 C1251 1.403 . S
C1252 C1253 1.404 . S
C1252 C1255 1.539 . S
C1253 C1249 1.408 . S
C1253 C1252 1.404 . S
C1253 H1265 0.930 . S
C1254 C1250 1.524 . S
C1254 H1266 0.956 . S
C1254 H1267 0.961 . S
C1254 H1268 0.961 . S
C1255 C1252 1.539 . S
C1255 H1269 0.958 . S
C1255 H1270 0.961 . S
C1255 H1271 0.960 . S
H1256 C1240 0.931 . S
H1257 C1245 0.929 . S
H1258 C1246 0.960 . S
H1259 C1246 0.962 . S
H1260 C1246 0.960 . S
H1261 C1247 0.961 . S
H1262 C1247 0.961 . S
H1263 C1247 0.961 . S
H1264 C1248 0.931 . S
H1265 C1253 0.930 . S
H1266 C1254 0.956 . S
H1267 C1254 0.961 . S
H1268 C1254 0.961 . S
H1269 C1255 0.958 . S
H1270 C1255 0.961 . S
H1271 C1255 0.960 . S
C1272 C1273 1.391 . S
C1272 C1274 1.394 1_556 S
C1272 H1288 0.931 . S
C1273 C1272 1.391 . S
C1273 C1277 1.376 . S
C1274 C1272 1.394 1_554 S
C1274 C1275 1.369 . S
C1274 C1278 1.531 . S
C1275 C1274 1.369 . S
C1275 C1276 1.410 . S
C1275 C1283 1.503 . S
C1276 C1275 1.410 . S
C1276 C1277 1.392 1_554 S
C1276 C1279 1.511 . S
C1277 C1273 1.376 . S
C1277 C1276 1.392 1_556 S
C1277 H1289 0.929 . S
C1278 C1274 1.531 . S
C1278 H1290 0.960 . S
C1278 H1291 0.962 . S
C1278 H1292 0.960 . S
C1279 C1276 1.511 . S
C1279 H1293 0.961 . S
C1279 H1294 0.961 . S
C1279 H1295 0.961 . S
C1280 C1281 1.370 . S
C1280 C1282 1.363 . S
C1280 H1296 0.931 . S
C1281 C1280 1.370 . S
C1281 C1285 1.408 . S
C1282 C1280 1.363 . S
C1282 C1283 1.370 . S
C1282 C1286 1.524 . S
C1283 C1275 1.503 . S
C1283 C1282 1.370 . S
C1283 C1284 1.403 . S
C1284 C1283 1.403 . S
C1284 C1285 1.404 . S
C1284 C1287 1.539 . S
C1285 C1281 1.408 . S
C1285 C1284 1.404 . S
C1285 H1297 0.930 . S
C1286 C1282 1.524 . S
C1286 H1298 0.956 . S
C1286 H1299 0.961 . S
C1286 H1300 0.961 . S
C1287 C1284 1.539 . S
C1287 H1301 0.958 . S
C1287 H1302 0.961 . S
C1287 H1303 0.960 . S
H1288 C1272 0.931 . S
H1289 C1277 0.929 . S
H1290 C1278 0.960 . S
H1291 C1278 0.962 . S
H1292 C1278 0.960 . S
H1293 C1279 0.961 . S
H1294 C1279 0.961 . S
H1295 C1279 0.961 . S
H1296 C1280 0.931 . S
H1297 C1285 0.930 . S
H1298 C1286 0.956 . S
H1299 C1286 0.961 . S
H1300 C1286 0.961 . S
H1301 C1287 0.958 . S
H1302 C1287 0.961 . S
H1303 C1287 0.960 . S
C1304 C1305 1.391 . S
C1304 C1306 1.394 1_556 S
C1304 H1320 0.931 . S
C1305 C1304 1.391 . S
C1305 C1309 1.376 1_556 S
C1306 C1304 1.394 1_554 S
C1306 C1307 1.369 . S
C1306 C1310 1.531 . S
C1307 C1306 1.369 . S
C1307 C1308 1.410 . S
C1307 C1315 1.503 . S
C1308 C1307 1.410 . S
C1308 C1309 1.392 . S
C1308 C1311 1.511 . S
C1309 C1305 1.376 1_554 S
C1309 C1308 1.392 . S
C1309 H1321 0.929 1_554 S
C1310 C1306 1.531 . S
C1310 H1322 0.960 . S
C1310 H1323 0.962 . S
C1310 H1324 0.960 . S
C1311 C1308 1.511 . S
C1311 H1325 0.961 . S
C1311 H1326 0.961 . S
C1311 H1327 0.961 . S
C1312 C1313 1.370 . S
C1312 C1314 1.363 . S
C1312 H1328 0.931 . S
C1313 C1312 1.370 . S
C1313 C1317 1.408 . S
C1314 C1312 1.363 . S
C1314 C1315 1.370 . S
C1314 C1318 1.524 . S
C1315 C1307 1.503 . S
C1315 C1314 1.370 . S
C1315 C1316 1.403 . S
C1316 C1315 1.403 . S
C1316 C1317 1.404 . S
C1316 C1319 1.539 . S
C1317 C1313 1.408 . S
C1317 C1316 1.404 . S
C1317 H1329 0.930 . S
C1318 C1314 1.524 . S
C1318 H1330 0.956 . S
C1318 H1331 0.961 . S
C1318 H1332 0.961 . S
C1319 C1316 1.539 . S
C1319 H1333 0.958 . S
C1319 H1334 0.961 . S
C1319 H1335 0.960 . S
H1320 C1304 0.931 . S
H1321 C1309 0.929 1_556 S
H1322 C1310 0.960 . S
H1323 C1310 0.962 . S
H1324 C1310 0.960 . S
H1325 C1311 0.961 . S
H1326 C1311 0.961 . S
H1327 C1311 0.961 . S
H1328 C1312 0.931 . S
H1329 C1317 0.930 . S
H1330 C1318 0.956 . S
H1331 C1318 0.961 . S
H1332 C1318 0.961 . S
H1333 C1319 0.958 . S
H1334 C1319 0.961 . S
H1335 C1319 0.960 . S
C1336 C1337 1.391 . S
C1336 C1338 1.394 . S
C1336 H1352 0.931 . S
C1337 C1336 1.391 . S
C1337 C1341 1.376 . S
C1338 C1336 1.394 . S
C1338 C1339 1.369 . S
C1338 C1342 1.531 . S
C1339 C1338 1.369 . S
C1339 C1340 1.410 . S
C1339 C1347 1.503 . S
C1340 C1339 1.410 . S
C1340 C1341 1.392 . S
C1340 C1343 1.511 . S
C1341 C1337 1.376 . S
C1341 C1340 1.392 . S
C1341 H1353 0.929 . S
C1342 C1338 1.531 . S
C1342 H1354 0.960 . S
C1342 H1355 0.962 . S
C1342 H1356 0.960 . S
C1343 C1340 1.511 . S
C1343 H1357 0.961 . S
C1343 H1358 0.961 . S
C1343 H1359 0.961 . S
C1344 C1345 1.370 . S
C1344 C1346 1.363 1_556 S
C1344 H1360 0.931 . S
C1345 C1344 1.370 . S
C1345 C1349 1.408 1_556 S
C1346 C1344 1.363 1_554 S
C1346 C1347 1.370 . S
C1346 C1350 1.524 . S
C1347 C1339 1.503 . S
C1347 C1346 1.370 . S
C1347 C1348 1.403 . S
C1348 C1347 1.403 . S
C1348 C1349 1.404 . S
C1348 C1351 1.539 . S
C1349 C1345 1.408 1_554 S
C1349 C1348 1.404 . S
C1349 H1361 0.930 . S
C1350 C1346 1.524 . S
C1350 H1362 0.956 . S
C1350 H1363 0.961 . S
C1350 H1364 0.961 1_554 S
C1351 C1348 1.539 . S
C1351 H1365 0.958 . S
C1351 H1366 0.961 . S
C1351 H1367 0.960 . S
H1352 C1336 0.931 . S
H1353 C1341 0.929 . S
H1354 C1342 0.960 . S
H1355 C1342 0.962 . S
H1356 C1342 0.960 . S
H1357 C1343 0.961 . S
H1358 C1343 0.961 . S
H1359 C1343 0.961 . S
H1360 C1344 0.931 . S
H1361 C1349 0.930 . S
H1362 C1350 0.956 . S
H1363 C1350 0.961 . S
H1364 C1350 0.961 1_556 S
H1365 C1351 0.958 . S
H1366 C1351 0.961 . S
H1367 C1351 0.960 . S
C1368 C1369 1.391 . S
C1368 C1370 1.394 . S
C1368 H1384 0.931 . S
C1369 C1368 1.391 . S
C1369 C1373 1.376 . S
C1370 C1368 1.394 . S
C1370 C1371 1.369 . S
C1370 C1374 1.531 . S
C1371 C1370 1.369 . S
C1371 C1372 1.410 . S
C1371 C1379 1.503 . S
C1372 C1371 1.410 . S
C1372 C1373 1.392 . S
C1372 C1375 1.511 . S
C1373 C1369 1.376 . S
C1373 C1372 1.392 . S
C1373 H1385 0.929 . S
C1374 C1370 1.531 . S
C1374 H1386 0.960 . S
C1374 H1387 0.962 . S
C1374 H1388 0.960 . S
C1375 C1372 1.511 . S
C1375 H1389 0.961 . S
C1375 H1390 0.961 . S
C1375 H1391 0.961 . S
C1376 C1377 1.370 . S
C1376 C1378 1.363 . S
C1376 H1392 0.931 . S
C1377 C1376 1.370 . S
C1377 C1381 1.408 . S
C1378 C1376 1.363 . S
C1378 C1379 1.370 . S
C1378 C1382 1.524 . S
C1379 C1371 1.503 . S
C1379 C1378 1.370 . S
C1379 C1380 1.403 . S
C1380 C1379 1.403 . S
C1380 C1381 1.404 . S
C1380 C1383 1.539 . S
C1381 C1377 1.408 . S
C1381 C1380 1.404 . S
C1381 H1393 0.930 . S
C1382 C1378 1.524 . S
C1382 H1394 0.956 . S
C1382 H1395 0.961 . S
C1382 H1396 0.961 . S
C1383 C1380 1.539 . S
C1383 H1397 0.958 . S
C1383 H1398 0.961 . S
C1383 H1399 0.960 . S
H1384 C1368 0.931 . S
H1385 C1373 0.929 . S
H1386 C1374 0.960 . S
H1387 C1374 0.962 . S
H1388 C1374 0.960 . S
H1389 C1375 0.961 . S
H1390 C1375 0.961 . S
H1391 C1375 0.961 . S
H1392 C1376 0.931 . S
H1393 C1381 0.930 . S
H1394 C1382 0.956 . S
H1395 C1382 0.961 . S
H1396 C1382 0.961 . S
H1397 C1383 0.958 . S
H1398 C1383 0.961 . S
H1399 C1383 0.960 . S
C1400 C1401 1.391 . S
C1400 C1402 1.394 . S
C1400 H1416 0.931 . S
C1401 C1400 1.391 . S
C1401 C1405 1.376 . S
C1402 C1400 1.394 . S
C1402 C1403 1.369 . S
C1402 C1406 1.531 . S
C1403 C1402 1.369 . S
C1403 C1404 1.410 . S
C1403 C1411 1.503 . S
C1404 C1403 1.410 . S
C1404 C1405 1.392 . S
C1404 C1407 1.511 . S
C1405 C1401 1.376 . S
C1405 C1404 1.392 . S
C1405 H1417 0.929 . S
C1406 C1402 1.531 . S
C1406 H1418 0.960 . S
C1406 H1419 0.962 . S
C1406 H1420 0.960 . S
C1407 C1404 1.511 . S
C1407 H1421 0.961 . S
C1407 H1422 0.961 . S
C1407 H1423 0.961 . S
C1408 C1409 1.370 . S
C1408 C1410 1.363 . S
C1408 H1424 0.931 . S
C1409 C1408 1.370 . S
C1409 C1413 1.408 . S
C1410 C1408 1.363 . S
C1410 C1411 1.370 . S
C1410 C1414 1.524 . S
C1411 C1403 1.503 . S
C1411 C1410 1.370 . S
C1411 C1412 1.403 . S
C1412 C1411 1.403 . S
C1412 C1413 1.404 . S
C1412 C1415 1.539 . S
C1413 C1409 1.408 . S
C1413 C1412 1.404 . S
C1413 H1425 0.930 . S
C1414 C1410 1.524 . S
C1414 H1426 0.956 . S
C1414 H1427 0.961 . S
C1414 H1428 0.961 . S
C1415 C1412 1.539 . S
C1415 H1429 0.958 . S
C1415 H1430 0.961 . S
C1415 H1431 0.960 . S
H1416 C1400 0.931 . S
H1417 C1405 0.929 . S
H1418 C1406 0.960 . S
H1419 C1406 0.962 . S
H1420 C1406 0.960 . S
H1421 C1407 0.961 . S
H1422 C1407 0.961 . S
H1423 C1407 0.961 . S
H1424 C1408 0.931 . S
H1425 C1413 0.930 . S
H1426 C1414 0.956 . S
H1427 C1414 0.961 . S
H1428 C1414 0.961 . S
H1429 C1415 0.958 . S
H1430 C1415 0.961 . S
H1431 C1415 0.960 . S
C1432 C1433 1.391 . S
C1432 C1434 1.394 . S
C1432 H1448 0.931 . S
C1433 C1432 1.391 . S
C1433 C1437 1.376 . S
C1434 C1432 1.394 . S
C1434 C1435 1.369 . S
C1434 C1438 1.531 . S
C1435 C1434 1.369 . S
C1435 C1436 1.410 . S
C1435 C1443 1.503 . S
C1436 C1435 1.410 . S
C1436 C1437 1.392 . S
C1436 C1439 1.511 . S
C1437 C1433 1.376 . S
C1437 C1436 1.392 . S
C1437 H1449 0.929 . S
C1438 C1434 1.531 . S
C1438 H1450 0.960 . S
C1438 H1451 0.962 . S
C1438 H1452 0.960 . S
C1439 C1436 1.511 . S
C1439 H1453 0.961 . S
C1439 H1454 0.961 . S
C1439 H1455 0.961 . S
C1440 C1441 1.370 . S
C1440 C1442 1.363 . S
C1440 H1456 0.931 . S
C1441 C1440 1.370 . S
C1441 C1445 1.408 . S
C1442 C1440 1.363 . S
C1442 C1443 1.370 . S
C1442 C1446 1.524 . S
C1443 C1435 1.503 . S
C1443 C1442 1.370 . S
C1443 C1444 1.403 . S
C1444 C1443 1.403 . S
C1444 C1445 1.404 . S
C1444 C1447 1.539 . S
C1445 C1441 1.408 . S
C1445 C1444 1.404 . S
C1445 H1457 0.930 . S
C1446 C1442 1.524 . S
C1446 H1458 0.956 . S
C1446 H1459 0.961 . S
C1446 H1460 0.961 . S
C1447 C1444 1.539 . S
C1447 H1461 0.958 . S
C1447 H1462 0.961 . S
C1447 H1463 0.960 . S
H1448 C1432 0.931 . S
H1449 C1437 0.929 . S
H1450 C1438 0.960 . S
H1451 C1438 0.962 . S
H1452 C1438 0.960 . S
H1453 C1439 0.961 . S
H1454 C1439 0.961 . S
H1455 C1439 0.961 . S
H1456 C1440 0.931 . S
H1457 C1445 0.930 . S
H1458 C1446 0.956 . S
H1459 C1446 0.961 . S
H1460 C1446 0.961 . S
H1461 C1447 0.958 . S
H1462 C1447 0.961 . S
H1463 C1447 0.960 . S
C1464 C1465 1.391 . S
C1464 C1466 1.394 . S
C1464 H1480 0.931 . S
C1465 C1464 1.391 . S
C1465 C1469 1.376 . S
C1466 C1464 1.394 . S
C1466 C1467 1.369 . S
C1466 C1470 1.531 . S
C1467 C1466 1.369 . S
C1467 C1468 1.410 . S
C1467 C1475 1.503 . S
C1468 C1467 1.410 . S
C1468 C1469 1.392 . S
C1468 C1471 1.511 . S
C1469 C1465 1.376 . S
C1469 C1468 1.392 . S
C1469 H1481 0.929 . S
C1470 C1466 1.531 . S
C1470 H1482 0.960 . S
C1470 H1483 0.962 . S
C1470 H1484 0.960 . S
C1471 C1468 1.511 . S
C1471 H1485 0.961 . S
C1471 H1486 0.961 . S
C1471 H1487 0.961 . S
C1472 C1473 1.370 . S
C1472 C1474 1.363 . S
C1472 H1488 0.931 . S
C1473 C1472 1.370 . S
C1473 C1477 1.408 . S
C1474 C1472 1.363 . S
C1474 C1475 1.370 . S
C1474 C1478 1.524 . S
C1475 C1467 1.503 . S
C1475 C1474 1.370 . S
C1475 C1476 1.403 . S
C1476 C1475 1.403 . S
C1476 C1477 1.404 . S
C1476 C1479 1.539 . S
C1477 C1473 1.408 . S
C1477 C1476 1.404 . S
C1477 H1489 0.930 . S
C1478 C1474 1.524 . S
C1478 H1490 0.956 . S
C1478 H1491 0.961 . S
C1478 H1492 0.961 . S
C1479 C1476 1.539 . S
C1479 H1493 0.958 . S
C1479 H1494 0.961 . S
C1479 H1495 0.960 . S
H1480 C1464 0.931 . S
H1481 C1469 0.929 . S
H1482 C1470 0.960 . S
H1483 C1470 0.962 . S
H1484 C1470 0.960 . S
H1485 C1471 0.961 . S
H1486 C1471 0.961 . S
H1487 C1471 0.961 . S
H1488 C1472 0.931 . S
H1489 C1477 0.930 . S
H1490 C1478 0.956 . S
H1491 C1478 0.961 . S
H1492 C1478 0.961 . S
H1493 C1479 0.958 . S
H1494 C1479 0.961 . S
H1495 C1479 0.960 . S
C1496 C1497 1.391 . S
C1496 C1498 1.394 . S
C1496 H1512 0.931 . S
C1497 C1496 1.391 . S
C1497 C1501 1.376 . S
C1498 C1496 1.394 . S
C1498 C1499 1.369 . S
C1498 C1502 1.531 . S
C1499 C1498 1.369 . S
C1499 C1500 1.410 . S
C1499 C1507 1.503 . S
C1500 C1499 1.410 . S
C1500 C1501 1.392 . S
C1500 C1503 1.511 . S
C1501 C1497 1.376 . S
C1501 C1500 1.392 . S
C1501 H1513 0.929 . S
C1502 C1498 1.531 . S
C1502 H1514 0.960 . S
C1502 H1515 0.962 . S
C1502 H1516 0.960 . S
C1503 C1500 1.511 . S
C1503 H1517 0.961 . S
C1503 H1518 0.961 . S
C1503 H1519 0.961 . S
C1504 C1505 1.370 . S
C1504 C1506 1.363 . S
C1504 H1520 0.931 . S
C1505 C1504 1.370 . S
C1505 C1509 1.408 . S
C1506 C1504 1.363 . S
C1506 C1507 1.370 . S
C1506 C1510 1.524 . S
C1507 C1499 1.503 . S
C1507 C1506 1.370 . S
C1507 C1508 1.403 . S
C1508 C1507 1.403 . S
C1508 C1509 1.404 . S
C1508 C1511 1.539 . S
C1509 C1505 1.408 . S
C1509 C1508 1.404 . S
C1509 H1521 0.930 . S
C1510 C1506 1.524 . S
C1510 H1522 0.956 . S
C1510 H1523 0.961 . S
C1510 H1524 0.961 . S
C1511 C1508 1.539 . S
C1511 H1525 0.958 . S
C1511 H1526 0.961 . S
C1511 H1527 0.960 . S
H1512 C1496 0.931 . S
H1513 C1501 0.929 . S
H1514 C1502 0.960 . S
H1515 C1502 0.962 . S
H1516 C1502 0.960 . S
H1517 C1503 0.961 . S
H1518 C1503 0.961 . S
H1519 C1503 0.961 . S
H1520 C1504 0.931 . S
H1521 C1509 0.930 . S
H1522 C1510 0.956 . S
H1523 C1510 0.961 . S
H1524 C1510 0.961 . S
H1525 C1511 0.958 . S
H1526 C1511 0.961 . S
H1527 C1511 0.960 . S
C1528 C1529 1.391 . S
C1528 C1530 1.394 . S
C1528 H1544 0.931 . S
C1529 C1528 1.391 . S
C1529 C1533 1.376 . S
C1530 C1528 1.394 . S
C1530 C1531 1.369 . S
C1530 C1534 1.531 . S
C1531 C1530 1.369 . S
C1531 C1532 1.410 . S
C1531 C1539 1.503 . S
C1532 C1531 1.410 . S
C1532 C1533 1.392 . S
C1532 C1535 1.511 . S
C1533 C1529 1.376 . S
C1533 C1532 1.392 . S
C1533 H1545 0.929 . S
C1534 C1530 1.531 . S
C1534 H1546 0.960 . S
C1534 H1547 0.962 . S
C1534 H1548 0.960 . S
C1535 C1532 1.511 . S
C1535 H1549 0.961 . S
C1535 H1550 0.961 . S
C1535 H1551 0.961 . S
C1536 C1537 1.370 . S
C1536 C1538 1.363 . S
C1536 H1552 0.931 . S
C1537 C1536 1.370 . S
C1537 C1541 1.408 . S
C1538 C1536 1.363 . S
C1538 C1539 1.370 . S
C1538 C1542 1.524 . S
C1539 C1531 1.503 . S
C1539 C1538 1.370 . S
C1539 C1540 1.403 . S
C1540 C1539 1.403 . S
C1540 C1541 1.404 . S
C1540 C1543 1.539 . S
C1541 C1537 1.408 . S
C1541 C1540 1.404 . S
C1541 H1553 0.930 . S
C1542 C1538 1.524 . S
C1542 H1554 0.956 . S
C1542 H1555 0.961 . S
C1542 H1556 0.961 . S
C1543 C1540 1.539 . S
C1543 H1557 0.958 . S
C1543 H1558 0.961 . S
C1543 H1559 0.960 . S
H1544 C1528 0.931 . S
H1545 C1533 0.929 . S
H1546 C1534 0.960 . S
H1547 C1534 0.962 . S
H1548 C1534 0.960 . S
H1549 C1535 0.961 . S
H1550 C1535 0.961 . S
H1551 C1535 0.961 . S
H1552 C1536 0.931 . S
H1553 C1541 0.930 . S
H1554 C1542 0.956 . S
H1555 C1542 0.961 . S
H1556 C1542 0.961 . S
H1557 C1543 0.958 . S
H1558 C1543 0.961 . S
H1559 C1543 0.960 . S
C1560 C1561 1.391 . S
C1560 C1562 1.394 . S
C1560 H1576 0.931 . S
C1561 C1560 1.391 . S
C1561 C1565 1.376 . S
C1562 C1560 1.394 . S
C1562 C1563 1.369 . S
C1562 C1566 1.531 . S
C1563 C1562 1.369 . S
C1563 C1564 1.410 . S
C1563 C1571 1.503 . S
C1564 C1563 1.410 . S
C1564 C1565 1.392 . S
C1564 C1567 1.511 . S
C1565 C1561 1.376 . S
C1565 C1564 1.392 . S
C1565 H1577 0.929 . S
C1566 C1562 1.531 . S
C1566 H1578 0.960 . S
C1566 H1579 0.962 . S
C1566 H1580 0.960 . S
C1567 C1564 1.511 . S
C1567 H1581 0.961 . S
C1567 H1582 0.961 . S
C1567 H1583 0.961 . S
C1568 C1569 1.370 1_556 S
C1568 C1570 1.363 . S
C1568 H1584 0.931 . S
C1569 C1568 1.370 1_554 S
C1569 C1573 1.408 . S
C1570 C1568 1.363 . S
C1570 C1571 1.370 . S
C1570 C1574 1.524 . S
C1571 C1563 1.503 . S
C1571 C1570 1.370 . S
C1571 C1572 1.403 1_556 S
C1572 C1571 1.403 1_554 S
C1572 C1573 1.404 . S
C1572 C1575 1.539 . S
C1573 C1569 1.408 . S
C1573 C1572 1.404 . S
C1573 H1585 0.930 . S
C1574 C1570 1.524 . S
C1574 H1586 0.956 . S
C1574 H1587 0.961 . S
C1574 H1588 0.961 . S
C1575 C1572 1.539 . S
C1575 H1589 0.958 . S
C1575 H1590 0.961 . S
C1575 H1591 0.960 1_554 S
H1576 C1560 0.931 . S
H1577 C1565 0.929 . S
H1578 C1566 0.960 . S
H1579 C1566 0.962 . S
H1580 C1566 0.960 . S
H1581 C1567 0.961 . S
H1582 C1567 0.961 . S
H1583 C1567 0.961 . S
H1584 C1568 0.931 . S
H1585 C1573 0.930 . S
H1586 C1574 0.956 . S
H1587 C1574 0.961 . S
H1588 C1574 0.961 . S
H1589 C1575 0.958 . S
H1590 C1575 0.961 . S
H1591 C1575 0.960 1_556 S
C1592 C1593 1.391 . S
C1592 C1594 1.394 1_554 S
C1592 H1608 0.931 . S
C1593 C1592 1.391 . S
C1593 C1597 1.376 . S
C1594 C1592 1.394 1_556 S
C1594 C1595 1.369 . S
C1594 C1598 1.531 . S
C1595 C1594 1.369 . S
C1595 C1596 1.410 . S
C1595 C1603 1.503 . S
C1596 C1595 1.410 . S
C1596 C1597 1.392 1_556 S
C1596 C1599 1.511 . S
C1597 C1593 1.376 . S
C1597 C1596 1.392 1_554 S
C1597 H1609 0.929 . S
C1598 C1594 1.531 . S
C1598 H1610 0.960 . S
C1598 H1611 0.962 . S
C1598 H1612 0.960 1_556 S
C1599 C1596 1.511 . S
C1599 H1613 0.961 . S
C1599 H1614 0.961 . S
C1599 H1615 0.961 . S
C1600 C1601 1.370 . S
C1600 C1602 1.363 . S
C1600 H1616 0.931 . S
C1601 C1600 1.370 . S
C1601 C1605 1.408 . S
C1602 C1600 1.363 . S
C1602 C1603 1.370 . S
C1602 C1606 1.524 . S
C1603 C1595 1.503 . S
C1603 C1602 1.370 . S
C1603 C1604 1.403 . S
C1604 C1603 1.403 . S
C1604 C1605 1.404 . S
C1604 C1607 1.539 . S
C1605 C1601 1.408 . S
C1605 C1604 1.404 . S
C1605 H1617 0.930 . S
C1606 C1602 1.524 . S
C1606 H1618 0.956 . S
C1606 H1619 0.961 . S
C1606 H1620 0.961 . S
C1607 C1604 1.539 . S
C1607 H1621 0.958 . S
C1607 H1622 0.961 . S
C1607 H1623 0.960 . S
H1608 C1592 0.931 . S
H1609 C1597 0.929 . S
H1610 C1598 0.960 . S
H1611 C1598 0.962 . S
H1612 C1598 0.960 1_554 S
H1613 C1599 0.961 . S
H1614 C1599 0.961 . S
H1615 C1599 0.961 . S
H1616 C1600 0.931 . S
H1617 C1605 0.930 . S
H1618 C1606 0.956 . S
H1619 C1606 0.961 . S
H1620 C1606 0.961 . S
H1621 C1607 0.958 . S
H1622 C1607 0.961 . S
H1623 C1607 0.960 . S
C1624 C1625 1.391 . S
C1624 C1626 1.394 . S
C1624 H1640 0.931 . S
C1625 C1624 1.391 . S
C1625 C1629 1.376 . S
C1626 C1624 1.394 . S
C1626 C1627 1.369 . S
C1626 C1630 1.531 . S
C1627 C1626 1.369 . S
C1627 C1628 1.410 . S
C1627 C1635 1.503 . S
C1628 C1627 1.410 . S
C1628 C1629 1.392 . S
C1628 C1631 1.511 . S
C1629 C1625 1.376 . S
C1629 C1628 1.392 . S
C1629 H1641 0.929 . S
C1630 C1626 1.531 . S
C1630 H1642 0.960 . S
C1630 H1643 0.962 . S
C1630 H1644 0.960 . S
C1631 C1628 1.511 . S
C1631 H1645 0.961 . S
C1631 H1646 0.961 . S
C1631 H1647 0.961 . S
C1632 C1633 1.370 . S
C1632 C1634 1.363 1_554 S
C1632 H1648 0.931 . S
C1633 C1632 1.370 . S
C1633 C1637 1.408 1_554 S
C1634 C1632 1.363 1_556 S
C1634 C1635 1.370 . S
C1634 C1638 1.524 . S
C1635 C1627 1.503 . S
C1635 C1634 1.370 . S
C1635 C1636 1.403 . S
C1636 C1635 1.403 . S
C1636 C1637 1.404 . S
C1636 C1639 1.539 . S
C1637 C1633 1.408 1_556 S
C1637 C1636 1.404 . S
C1637 H1649 0.930 . S
C1638 C1634 1.524 . S
C1638 H1650 0.956 . S
C1638 H1651 0.961 . S
C1638 H1652 0.961 1_556 S
C1639 C1636 1.539 . S
C1639 H1653 0.958 . S
C1639 H1654 0.961 . S
C1639 H1655 0.960 . S
H1640 C1624 0.931 . S
H1641 C1629 0.929 . S
H1642 C1630 0.960 . S
H1643 C1630 0.962 . S
H1644 C1630 0.960 . S
H1645 C1631 0.961 . S
H1646 C1631 0.961 . S
H1647 C1631 0.961 . S
H1648 C1632 0.931 . S
H1649 C1637 0.930 . S
H1650 C1638 0.956 . S
H1651 C1638 0.961 . S
H1652 C1638 0.961 1_554 S
H1653 C1639 0.958 . S
H1654 C1639 0.961 . S
H1655 C1639 0.960 . S
C1656 C1657 1.391 . S
C1656 C1658 1.394 . S
C1656 H1672 0.931 . S
C1657 C1656 1.391 . S
C1657 C1661 1.376 . S
C1658 C1656 1.394 . S
C1658 C1659 1.369 . S
C1658 C1662 1.531 . S
C1659 C1658 1.369 . S
C1659 C1660 1.410 . S
C1659 C1667 1.503 . S
C1660 C1659 1.410 . S
C1660 C1661 1.392 . S
C1660 C1663 1.511 . S
C1661 C1657 1.376 . S
C1661 C1660 1.392 . S
C1661 H1673 0.929 . S
C1662 C1658 1.531 . S
C1662 H1674 0.960 . S
C1662 H1675 0.962 . S
C1662 H1676 0.960 . S
C1663 C1660 1.511 . S
C1663 H1677 0.961 . S
C1663 H1678 0.961 . S
C1663 H1679 0.961 . S
C1664 C1665 1.370 . S
C1664 C1666 1.363 . S
C1664 H1680 0.931 . S
C1665 C1664 1.370 . S
C1665 C1669 1.408 . S
C1666 C1664 1.363 . S
C1666 C1667 1.370 . S
C1666 C1670 1.524 . S
C1667 C1659 1.503 . S
C1667 C1666 1.370 . S
C1667 C1668 1.403 . S
C1668 C1667 1.403 . S
C1668 C1669 1.404 . S
C1668 C1671 1.539 . S
C1669 C1665 1.408 . S
C1669 C1668 1.404 . S
C1669 H1681 0.930 . S
C1670 C1666 1.524 . S
C1670 H1682 0.956 . S
C1670 H1683 0.961 . S
C1670 H1684 0.961 . S
C1671 C1668 1.539 . S
C1671 H1685 0.958 . S
C1671 H1686 0.961 . S
C1671 H1687 0.960 . S
H1672 C1656 0.931 . S
H1673 C1661 0.929 . S
H1674 C1662 0.960 . S
H1675 C1662 0.962 . S
H1676 C1662 0.960 . S
H1677 C1663 0.961 . S
H1678 C1663 0.961 . S
H1679 C1663 0.961 . S
H1680 C1664 0.931 . S
H1681 C1669 0.930 . S
H1682 C1670 0.956 . S
H1683 C1670 0.961 . S
H1684 C1670 0.961 . S
H1685 C1671 0.958 . S
H1686 C1671 0.961 . S
H1687 C1671 0.960 . S
C1688 C1689 1.391 . S
C1688 C1690 1.394 . S
C1688 H1704 0.931 . S
C1689 C1688 1.391 . S
C1689 C1693 1.376 . S
C1690 C1688 1.394 . S
C1690 C1691 1.369 . S
C1690 C1694 1.531 . S
C1691 C1690 1.369 . S
C1691 C1692 1.410 . S
C1691 C1699 1.503 . S
C1692 C1691 1.410 . S
C1692 C1693 1.392 . S
C1692 C1695 1.511 . S
C1693 C1689 1.376 . S
C1693 C1692 1.392 . S
C1693 H1705 0.929 . S
C1694 C1690 1.531 . S
C1694 H1706 0.960 . S
C1694 H1707 0.962 . S
C1694 H1708 0.960 . S
C1695 C1692 1.511 . S
C1695 H1709 0.961 . S
C1695 H1710 0.961 . S
C1695 H1711 0.961 . S
C1696 C1697 1.370 . S
C1696 C1698 1.363 . S
C1696 H1712 0.931 . S
C1697 C1696 1.370 . S
C1697 C1701 1.408 . S
C1698 C1696 1.363 . S
C1698 C1699 1.370 . S
C1698 C1702 1.524 . S
C1699 C1691 1.503 . S
C1699 C1698 1.370 . S
C1699 C1700 1.403 . S
C1700 C1699 1.403 . S
C1700 C1701 1.404 . S
C1700 C1703 1.539 . S
C1701 C1697 1.408 . S
C1701 C1700 1.404 . S
C1701 H1713 0.930 . S
C1702 C1698 1.524 . S
C1702 H1714 0.956 . S
C1702 H1715 0.961 . S
C1702 H1716 0.961 . S
C1703 C1700 1.539 . S
C1703 H1717 0.958 . S
C1703 H1718 0.961 . S
C1703 H1719 0.960 . S
H1704 C1688 0.931 . S
H1705 C1693 0.929 . S
H1706 C1694 0.960 . S
H1707 C1694 0.962 . S
H1708 C1694 0.960 . S
H1709 C1695 0.961 . S
H1710 C1695 0.961 . S
H1711 C1695 0.961 . S
H1712 C1696 0.931 . S
H1713 C1701 0.930 . S
H1714 C1702 0.956 . S
H1715 C1702 0.961 . S
H1716 C1702 0.961 . S
H1717 C1703 0.958 . S
H1718 C1703 0.961 . S
H1719 C1703 0.960 . S
C1720 C1721 1.391 . S
C1720 C1722 1.394 . S
C1720 H1736 0.931 . S
C1721 C1720 1.391 . S
C1721 C1725 1.376 . S
C1722 C1720 1.394 . S
C1722 C1723 1.369 . S
C1722 C1726 1.531 . S
C1723 C1722 1.369 . S
C1723 C1724 1.410 . S
C1723 C1731 1.503 . S
C1724 C1723 1.410 . S
C1724 C1725 1.392 . S
C1724 C1727 1.511 . S
C1725 C1721 1.376 . S
C1725 C1724 1.392 . S
C1725 H1737 0.929 . S
C1726 C1722 1.531 . S
C1726 H1738 0.960 . S
C1726 H1739 0.962 . S
C1726 H1740 0.960 . S
C1727 C1724 1.511 . S
C1727 H1741 0.961 . S
C1727 H1742 0.961 . S
C1727 H1743 0.961 . S
C1728 C1729 1.370 . S
C1728 C1730 1.363 . S
C1728 H1744 0.931 . S
C1729 C1728 1.370 . S
C1729 C1733 1.408 . S
C1730 C1728 1.363 . S
C1730 C1731 1.370 . S
C1730 C1734 1.524 . S
C1731 C1723 1.503 . S
C1731 C1730 1.370 . S
C1731 C1732 1.403 . S
C1732 C1731 1.403 . S
C1732 C1733 1.404 . S
C1732 C1735 1.539 . S
C1733 C1729 1.408 . S
C1733 C1732 1.404 . S
C1733 H1745 0.930 . S
C1734 C1730 1.524 . S
C1734 H1746 0.956 . S
C1734 H1747 0.961 . S
C1734 H1748 0.961 . S
C1735 C1732 1.539 . S
C1735 H1749 0.958 . S
C1735 H1750 0.961 . S
C1735 H1751 0.960 . S
H1736 C1720 0.931 . S
H1737 C1725 0.929 . S
H1738 C1726 0.960 . S
H1739 C1726 0.962 . S
H1740 C1726 0.960 . S
H1741 C1727 0.961 . S
H1742 C1727 0.961 . S
H1743 C1727 0.961 . S
H1744 C1728 0.931 . S
H1745 C1733 0.930 . S
H1746 C1734 0.956 . S
H1747 C1734 0.961 . S
H1748 C1734 0.961 . S
H1749 C1735 0.958 . S
H1750 C1735 0.961 . S
H1751 C1735 0.960 . S
C1752 C1753 1.391 . S
C1752 C1754 1.394 . S
C1752 H1768 0.931 . S
C1753 C1752 1.391 . S
C1753 C1757 1.376 . S
C1754 C1752 1.394 . S
C1754 C1755 1.369 . S
C1754 C1758 1.531 . S
C1755 C1754 1.369 . S
C1755 C1756 1.410 . S
C1755 C1763 1.503 . S
C1756 C1755 1.410 . S
C1756 C1757 1.392 . S
C1756 C1759 1.511 . S
C1757 C1753 1.376 . S
C1757 C1756 1.392 . S
C1757 H1769 0.929 . S
C1758 C1754 1.531 . S
C1758 H1770 0.960 . S
C1758 H1771 0.962 . S
C1758 H1772 0.960 . S
C1759 C1756 1.511 . S
C1759 H1773 0.961 . S
C1759 H1774 0.961 . S
C1759 H1775 0.961 . S
C1760 C1761 1.370 . S
C1760 C1762 1.363 . S
C1760 H1776 0.931 . S
C1761 C1760 1.370 . S
C1761 C1765 1.408 . S
C1762 C1760 1.363 . S
C1762 C1763 1.370 . S
C1762 C1766 1.524 . S
C1763 C1755 1.503 . S
C1763 C1762 1.370 . S
C1763 C1764 1.403 . S
C1764 C1763 1.403 . S
C1764 C1765 1.404 . S
C1764 C1767 1.539 . S
C1765 C1761 1.408 . S
C1765 C1764 1.404 . S
C1765 H1777 0.930 . S
C1766 C1762 1.524 . S
C1766 H1778 0.956 . S
C1766 H1779 0.961 . S
C1766 H1780 0.961 . S
C1767 C1764 1.539 . S
C1767 H1781 0.958 . S
C1767 H1782 0.961 . S
C1767 H1783 0.960 . S
H1768 C1752 0.931 . S
H1769 C1757 0.929 . S
H1770 C1758 0.960 . S
H1771 C1758 0.962 . S
H1772 C1758 0.960 . S
H1773 C1759 0.961 . S
H1774 C1759 0.961 . S
H1775 C1759 0.961 . S
H1776 C1760 0.931 . S
H1777 C1765 0.930 . S
H1778 C1766 0.956 . S
H1779 C1766 0.961 . S
H1780 C1766 0.961 . S
H1781 C1767 0.958 . S
H1782 C1767 0.961 . S
H1783 C1767 0.960 . S
C1784 C1785 1.391 . S
C1784 C1786 1.394 . S
C1784 H1800 0.931 . S
C1785 C1784 1.391 . S
C1785 C1789 1.376 . S
C1786 C1784 1.394 . S
C1786 C1787 1.369 . S
C1786 C1790 1.531 . S
C1787 C1786 1.369 . S
C1787 C1788 1.410 . S
C1787 C1795 1.503 . S
C1788 C1787 1.410 . S
C1788 C1789 1.392 . S
C1788 C1791 1.511 . S
C1789 C1785 1.376 . S
C1789 C1788 1.392 . S
C1789 H1801 0.929 . S
C1790 C1786 1.531 . S
C1790 H1802 0.960 . S
C1790 H1803 0.962 . S
C1790 H1804 0.960 . S
C1791 C1788 1.511 . S
C1791 H1805 0.961 . S
C1791 H1806 0.961 . S
C1791 H1807 0.961 . S
C1792 C1793 1.370 . S
C1792 C1794 1.363 . S
C1792 H1808 0.931 . S
C1793 C1792 1.370 . S
C1793 C1797 1.408 . S
C1794 C1792 1.363 . S
C1794 C1795 1.370 . S
C1794 C1798 1.524 . S
C1795 C1787 1.503 . S
C1795 C1794 1.370 . S
C1795 C1796 1.403 . S
C1796 C1795 1.403 . S
C1796 C1797 1.404 . S
C1796 C1799 1.539 . S
C1797 C1793 1.408 . S
C1797 C1796 1.404 . S
C1797 H1809 0.930 . S
C1798 C1794 1.524 . S
C1798 H1810 0.956 . S
C1798 H1811 0.961 . S
C1798 H1812 0.961 . S
C1799 C1796 1.539 . S
C1799 H1813 0.958 . S
C1799 H1814 0.961 . S
C1799 H1815 0.960 . S
H1800 C1784 0.931 . S
H1801 C1789 0.929 . S
H1802 C1790 0.960 . S
H1803 C1790 0.962 . S
H1804 C1790 0.960 . S
H1805 C1791 0.961 . S
H1806 C1791 0.961 . S
H1807 C1791 0.961 . S
H1808 C1792 0.931 . S
H1809 C1797 0.930 . S
H1810 C1798 0.956 . S
H1811 C1798 0.961 . S
H1812 C1798 0.961 . S
H1813 C1799 0.958 . S
H1814 C1799 0.961 . S
H1815 C1799 0.960 . S
C1816 C1817 1.391 . S
C1816 C1818 1.394 . S
C1816 H1832 0.931 . S
C1817 C1816 1.391 . S
C1817 C1821 1.376 . S
C1818 C1816 1.394 . S
C1818 C1819 1.369 . S
C1818 C1822 1.531 . S
C1819 C1818 1.369 . S
C1819 C1820 1.410 . S
C1819 C1827 1.503 . S
C1820 C1819 1.410 . S
C1820 C1821 1.392 . S
C1820 C1823 1.511 . S
C1821 C1817 1.376 . S
C1821 C1820 1.392 . S
C1821 H1833 0.929 . S
C1822 C1818 1.531 . S
C1822 H1834 0.960 . S
C1822 H1835 0.962 . S
C1822 H1836 0.960 . S
C1823 C1820 1.511 . S
C1823 H1837 0.961 . S
C1823 H1838 0.961 . S
C1823 H1839 0.961 . S
C1824 C1825 1.370 . S
C1824 C1826 1.363 . S
C1824 H1840 0.931 . S
C1825 C1824 1.370 . S
C1825 C1829 1.408 . S
C1826 C1824 1.363 . S
C1826 C1827 1.370 . S
C1826 C1830 1.524 . S
C1827 C1819 1.503 . S
C1827 C1826 1.370 . S
C1827 C1828 1.403 . S
C1828 C1827 1.403 . S
C1828 C1829 1.404 . S
C1828 C1831 1.539 . S
C1829 C1825 1.408 . S
C1829 C1828 1.404 . S
C1829 H1841 0.930 . S
C1830 C1826 1.524 . S
C1830 H1842 0.956 . S
C1830 H1843 0.961 . S
C1830 H1844 0.961 . S
C1831 C1828 1.539 . S
C1831 H1845 0.958 . S
C1831 H1846 0.961 . S
C1831 H1847 0.960 . S
H1832 C1816 0.931 . S
H1833 C1821 0.929 . S
H1834 C1822 0.960 . S
H1835 C1822 0.962 . S
H1836 C1822 0.960 . S
H1837 C1823 0.961 . S
H1838 C1823 0.961 . S
H1839 C1823 0.961 . S
H1840 C1824 0.931 . S
H1841 C1829 0.930 . S
H1842 C1830 0.956 . S
H1843 C1830 0.961 . S
H1844 C1830 0.961 . S
H1845 C1831 0.958 . S
H1846 C1831 0.961 . S
H1847 C1831 0.960 . S
C1848 C1849 1.391 . S
C1848 C1850 1.394 . S
C1848 H1864 0.931 . S
C1849 C1848 1.391 . S
C1849 C1853 1.376 . S
C1850 C1848 1.394 . S
C1850 C1851 1.369 . S
C1850 C1854 1.531 . S
C1851 C1850 1.369 . S
C1851 C1852 1.410 . S
C1851 C1859 1.503 . S
C1852 C1851 1.410 . S
C1852 C1853 1.392 . S
C1852 C1855 1.511 . S
C1853 C1849 1.376 . S
C1853 C1852 1.392 . S
C1853 H1865 0.929 . S
C1854 C1850 1.531 . S
C1854 H1866 0.960 . S
C1854 H1867 0.962 . S
C1854 H1868 0.960 . S
C1855 C1852 1.511 . S
C1855 H1869 0.961 . S
C1855 H1870 0.961 . S
C1855 H1871 0.961 . S
C1856 C1857 1.370 . S
C1856 C1858 1.363 . S
C1856 H1872 0.931 . S
C1857 C1856 1.370 . S
C1857 C1861 1.408 . S
C1858 C1856 1.363 . S
C1858 C1859 1.370 . S
C1858 C1862 1.524 . S
C1859 C1851 1.503 . S
C1859 C1858 1.370 . S
C1859 C1860 1.403 . S
C1860 C1859 1.403 . S
C1860 C1861 1.404 . S
C1860 C1863 1.539 . S
C1861 C1857 1.408 . S
C1861 C1860 1.404 . S
C1861 H1873 0.930 . S
C1862 C1858 1.524 . S
C1862 H1874 0.956 . S
C1862 H1875 0.961 . S
C1862 H1876 0.961 . S
C1863 C1860 1.539 . S
C1863 H1877 0.958 . S
C1863 H1878 0.961 . S
C1863 H1879 0.960 . S
H1864 C1848 0.931 . S
H1865 C1853 0.929 . S
H1866 C1854 0.960 . S
H1867 C1854 0.962 . S
H1868 C1854 0.960 . S
H1869 C1855 0.961 . S
H1870 C1855 0.961 . S
H1871 C1855 0.961 . S
H1872 C1856 0.931 . S
H1873 C1861 0.930 . S
H1874 C1862 0.956 . S
H1875 C1862 0.961 . S
H1876 C1862 0.961 . S
H1877 C1863 0.958 . S
H1878 C1863 0.961 . S
H1879 C1863 0.960 . S
C1880 C1881 1.391 . S
C1880 C1882 1.394 . S
C1880 H1896 0.931 . S
C1881 C1880 1.391 . S
C1881 C1885 1.376 . S
C1882 C1880 1.394 . S
C1882 C1883 1.369 . S
C1882 C1886 1.531 . S
C1883 C1882 1.369 . S
C1883 C1884 1.410 . S
C1883 C1891 1.503 . S
C1884 C1883 1.410 . S
C1884 C1885 1.392 . S
C1884 C1887 1.511 . S
C1885 C1881 1.376 . S
C1885 C1884 1.392 . S
C1885 H1897 0.929 . S
C1886 C1882 1.531 . S
C1886 H1898 0.960 . S
C1886 H1899 0.962 . S
C1886 H1900 0.960 . S
C1887 C1884 1.511 . S
C1887 H1901 0.961 . S
C1887 H1902 0.961 . S
C1887 H1903 0.961 . S
C1888 C1889 1.370 . S
C1888 C1890 1.363 . S
C1888 H1904 0.931 . S
C1889 C1888 1.370 . S
C1889 C1893 1.408 . S
C1890 C1888 1.363 . S
C1890 C1891 1.370 . S
C1890 C1894 1.524 . S
C1891 C1883 1.503 . S
C1891 C1890 1.370 . S
C1891 C1892 1.403 . S
C1892 C1891 1.403 . S
C1892 C1893 1.404 . S
C1892 C1895 1.539 . S
C1893 C1889 1.408 . S
C1893 C1892 1.404 . S
C1893 H1905 0.930 . S
C1894 C1890 1.524 . S
C1894 H1906 0.956 . S
C1894 H1907 0.961 . S
C1894 H1908 0.961 . S
C1895 C1892 1.539 . S
C1895 H1909 0.958 . S
C1895 H1910 0.961 . S
C1895 H1911 0.960 . S
H1896 C1880 0.931 . S
H1897 C1885 0.929 . S
H1898 C1886 0.960 . S
H1899 C1886 0.962 . S
H1900 C1886 0.960 . S
H1901 C1887 0.961 . S
H1902 C1887 0.961 . S
H1903 C1887 0.961 . S
H1904 C1888 0.931 . S
H1905 C1893 0.930 . S
H1906 C1894 0.956 . S
H1907 C1894 0.961 . S
H1908 C1894 0.961 . S
H1909 C1895 0.958 . S
H1910 C1895 0.961 . S
H1911 C1895 0.960 . S
C1912 C1913 1.391 . S
C1912 C1914 1.394 . S
C1912 H1928 0.931 . S
C1913 C1912 1.391 . S
C1913 C1917 1.376 . S
C1914 C1912 1.394 . S
C1914 C1915 1.369 . S
C1914 C1918 1.531 . S
C1915 C1914 1.369 . S
C1915 C1916 1.410 . S
C1915 C1923 1.503 . S
C1916 C1915 1.410 . S
C1916 C1917 1.392 . S
C1916 C1919 1.511 . S
C1917 C1913 1.376 . S
C1917 C1916 1.392 . S
C1917 H1929 0.929 . S
C1918 C1914 1.531 . S
C1918 H1930 0.960 . S
C1918 H1931 0.962 . S
C1918 H1932 0.960 . S
C1919 C1916 1.511 . S
C1919 H1933 0.961 . S
C1919 H1934 0.961 . S
C1919 H1935 0.961 . S
C1920 C1921 1.370 . S
C1920 C1922 1.363 . S
C1920 H1936 0.931 . S
C1921 C1920 1.370 . S
C1921 C1925 1.408 . S
C1922 C1920 1.363 . S
C1922 C1923 1.370 . S
C1922 C1926 1.524 . S
C1923 C1915 1.503 . S
C1923 C1922 1.370 . S
C1923 C1924 1.403 . S
C1924 C1923 1.403 . S
C1924 C1925 1.404 . S
C1924 C1927 1.539 . S
C1925 C1921 1.408 . S
C1925 C1924 1.404 . S
C1925 H1937 0.930 . S
C1926 C1922 1.524 . S
C1926 H1938 0.956 . S
C1926 H1939 0.961 . S
C1926 H1940 0.961 . S
C1927 C1924 1.539 . S
C1927 H1941 0.958 . S
C1927 H1942 0.961 . S
C1927 H1943 0.960 . S
H1928 C1912 0.931 . S
H1929 C1917 0.929 . S
H1930 C1918 0.960 . S
H1931 C1918 0.962 . S
H1932 C1918 0.960 . S
H1933 C1919 0.961 . S
H1934 C1919 0.961 . S
H1935 C1919 0.961 . S
H1936 C1920 0.931 . S
H1937 C1925 0.930 . S
H1938 C1926 0.956 . S
H1939 C1926 0.961 . S
H1940 C1926 0.961 . S
H1941 C1927 0.958 . S
H1942 C1927 0.961 . S
H1943 C1927 0.960 . S
C1944 C1945 1.391 . S
C1944 C1946 1.394 . S
C1944 H1960 0.931 . S
C1945 C1944 1.391 . S
C1945 C1949 1.376 . S
C1946 C1944 1.394 . S
C1946 C1947 1.369 . S
C1946 C1950 1.531 . S
C1947 C1946 1.369 . S
C1947 C1948 1.410 . S
C1947 C1955 1.503 . S
C1948 C1947 1.410 . S
C1948 C1949 1.392 . S
C1948 C1951 1.511 . S
C1949 C1945 1.376 . S
C1949 C1948 1.392 . S
C1949 H1961 0.929 . S
C1950 C1946 1.531 . S
C1950 H1962 0.960 . S
C1950 H1963 0.962 . S
C1950 H1964 0.960 . S
C1951 C1948 1.511 . S
C1951 H1965 0.961 . S
C1951 H1966 0.961 . S
C1951 H1967 0.961 . S
C1952 C1953 1.370 . S
C1952 C1954 1.363 . S
C1952 H1968 0.931 . S
C1953 C1952 1.370 . S
C1953 C1957 1.408 . S
C1954 C1952 1.363 . S
C1954 C1955 1.370 . S
C1954 C1958 1.524 . S
C1955 C1947 1.503 . S
C1955 C1954 1.370 . S
C1955 C1956 1.403 . S
C1956 C1955 1.403 . S
C1956 C1957 1.404 . S
C1956 C1959 1.539 . S
C1957 C1953 1.408 . S
C1957 C1956 1.404 . S
C1957 H1969 0.930 . S
C1958 C1954 1.524 . S
C1958 H1970 0.956 . S
C1958 H1971 0.961 . S
C1958 H1972 0.961 . S
C1959 C1956 1.539 . S
C1959 H1973 0.958 . S
C1959 H1974 0.961 . S
C1959 H1975 0.960 . S
H1960 C1944 0.931 . S
H1961 C1949 0.929 . S
H1962 C1950 0.960 . S
H1963 C1950 0.962 . S
H1964 C1950 0.960 . S
H1965 C1951 0.961 . S
H1966 C1951 0.961 . S
H1967 C1951 0.961 . S
H1968 C1952 0.931 . S
H1969 C1957 0.930 . S
H1970 C1958 0.956 . S
H1971 C1958 0.961 . S
H1972 C1958 0.961 . S
H1973 C1959 0.958 . S
H1974 C1959 0.961 . S
H1975 C1959 0.960 . S
C1976 C1977 1.391 . S
C1976 C1978 1.394 . S
C1976 H1992 0.931 . S
C1977 C1976 1.391 . S
C1977 C1981 1.376 . S
C1978 C1976 1.394 . S
C1978 C1979 1.369 . S
C1978 C1982 1.531 . S
C1979 C1978 1.369 . S
C1979 C1980 1.410 . S
C1979 C1987 1.503 . S
C1980 C1979 1.410 . S
C1980 C1981 1.392 . S
C1980 C1983 1.511 . S
C1981 C1977 1.376 . S
C1981 C1980 1.392 . S
C1981 H1993 0.929 . S
C1982 C1978 1.531 . S
C1982 H1994 0.960 . S
C1982 H1995 0.962 . S
C1982 H1996 0.960 . S
C1983 C1980 1.511 . S
C1983 H1997 0.961 . S
C1983 H1998 0.961 . S
C1983 H1999 0.961 . S
C1984 C1985 1.370 . S
C1984 C1986 1.363 . S
C1984 H2000 0.931 . S
C1985 C1984 1.370 . S
C1985 C1989 1.408 . S
C1986 C1984 1.363 . S
C1986 C1987 1.370 . S
C1986 C1990 1.524 . S
C1987 C1979 1.503 . S
C1987 C1986 1.370 . S
C1987 C1988 1.403 . S
C1988 C1987 1.403 . S
C1988 C1989 1.404 . S
C1988 C1991 1.539 . S
C1989 C1985 1.408 . S
C1989 C1988 1.404 . S
C1989 H2001 0.930 . S
C1990 C1986 1.524 . S
C1990 H2002 0.956 . S
C1990 H2003 0.961 . S
C1990 H2004 0.961 . S
C1991 C1988 1.539 . S
C1991 H2005 0.958 . S
C1991 H2006 0.961 . S
C1991 H2007 0.960 . S
H1992 C1976 0.931 . S
H1993 C1981 0.929 . S
H1994 C1982 0.960 . S
H1995 C1982 0.962 . S
H1996 C1982 0.960 . S
H1997 C1983 0.961 . S
H1998 C1983 0.961 . S
H1999 C1983 0.961 . S
H2000 C1984 0.931 . S
H2001 C1989 0.930 . S
H2002 C1990 0.956 . S
H2003 C1990 0.961 . S
H2004 C1990 0.961 . S
H2005 C1991 0.958 . S
H2006 C1991 0.961 . S
H2007 C1991 0.960 . S
C2008 C2009 1.391 . S
C2008 C2010 1.394 . S
C2008 H2024 0.931 . S
C2009 C2008 1.391 . S
C2009 C2013 1.376 . S
C2010 C2008 1.394 . S
C2010 C2011 1.369 . S
C2010 C2014 1.531 . S
C2011 C2010 1.369 . S
C2011 C2012 1.410 . S
C2011 C2019 1.503 . S
C2012 C2011 1.410 . S
C2012 C2013 1.392 . S
C2012 C2015 1.511 . S
C2013 C2009 1.376 . S
C2013 C2012 1.392 . S
C2013 H2025 0.929 . S
C2014 C2010 1.531 . S
C2014 H2026 0.960 . S
C2014 H2027 0.962 . S
C2014 H2028 0.960 . S
C2015 C2012 1.511 . S
C2015 H2029 0.961 . S
C2015 H2030 0.961 . S
C2015 H2031 0.961 . S
C2016 C2017 1.370 . S
C2016 C2018 1.363 . S
C2016 H2032 0.931 . S
C2017 C2016 1.370 . S
C2017 C2021 1.408 . S
C2018 C2016 1.363 . S
C2018 C2019 1.370 . S
C2018 C2022 1.524 . S
C2019 C2011 1.503 . S
C2019 C2018 1.370 . S
C2019 C2020 1.403 . S
C2020 C2019 1.403 . S
C2020 C2021 1.404 . S
C2020 C2023 1.539 . S
C2021 C2017 1.408 . S
C2021 C2020 1.404 . S
C2021 H2033 0.930 . S
C2022 C2018 1.524 . S
C2022 H2034 0.956 . S
C2022 H2035 0.961 . S
C2022 H2036 0.961 . S
C2023 C2020 1.539 . S
C2023 H2037 0.958 . S
C2023 H2038 0.961 . S
C2023 H2039 0.960 . S
H2024 C2008 0.931 . S
H2025 C2013 0.929 . S
H2026 C2014 0.960 . S
H2027 C2014 0.962 . S
H2028 C2014 0.960 . S
H2029 C2015 0.961 . S
H2030 C2015 0.961 . S
H2031 C2015 0.961 . S
H2032 C2016 0.931 . S
H2033 C2021 0.930 . S
H2034 C2022 0.956 . S
H2035 C2022 0.961 . S
H2036 C2022 0.961 . S
H2037 C2023 0.958 . S
H2038 C2023 0.961 . S
H2039 C2023 0.960 . S
C2040 C2041 1.391 . S
C2040 C2042 1.394 . S
C2040 H2056 0.931 . S
C2041 C2040 1.391 . S
C2041 C2045 1.376 . S
C2042 C2040 1.394 . S
C2042 C2043 1.369 . S
C2042 C2046 1.531 . S
C2043 C2042 1.369 . S
C2043 C2044 1.410 . S
C2043 C2051 1.503 . S
C2044 C2043 1.410 . S
C2044 C2045 1.392 . S
C2044 C2047 1.511 . S
C2045 C2041 1.376 . S
C2045 C2044 1.392 . S
C2045 H2057 0.929 . S
C2046 C2042 1.531 . S
C2046 H2058 0.960 . S
C2046 H2059 0.962 . S
C2046 H2060 0.960 . S
C2047 C2044 1.511 . S
C2047 H2061 0.961 . S
C2047 H2062 0.961 . S
C2047 H2063 0.961 . S
C2048 C2049 1.370 . S
C2048 C2050 1.363 . S
C2048 H2064 0.931 . S
C2049 C2048 1.370 . S
C2049 C2053 1.408 . S
C2050 C2048 1.363 . S
C2050 C2051 1.370 . S
C2050 C2054 1.524 . S
C2051 C2043 1.503 . S
C2051 C2050 1.370 . S
C2051 C2052 1.403 . S
C2052 C2051 1.403 . S
C2052 C2053 1.404 . S
C2052 C2055 1.539 . S
C2053 C2049 1.408 . S
C2053 C2052 1.404 . S
C2053 H2065 0.930 . S
C2054 C2050 1.524 . S
C2054 H2066 0.956 . S
C2054 H2067 0.961 . S
C2054 H2068 0.961 . S
C2055 C2052 1.539 . S
C2055 H2069 0.958 . S
C2055 H2070 0.961 . S
C2055 H2071 0.960 . S
H2056 C2040 0.931 . S
H2057 C2045 0.929 . S
H2058 C2046 0.960 . S
H2059 C2046 0.962 . S
H2060 C2046 0.960 . S
H2061 C2047 0.961 . S
H2062 C2047 0.961 . S
H2063 C2047 0.961 . S
H2064 C2048 0.931 . S
H2065 C2053 0.930 . S
H2066 C2054 0.956 . S
H2067 C2054 0.961 . S
H2068 C2054 0.961 . S
H2069 C2055 0.958 . S
H2070 C2055 0.961 . S
H2071 C2055 0.960 . S
C2072 C2073 1.391 . S
C2072 C2074 1.394 . S
C2072 H2088 0.931 . S
C2073 C2072 1.391 . S
C2073 C2077 1.376 . S
C2074 C2072 1.394 . S
C2074 C2075 1.369 . S
C2074 C2078 1.531 . S
C2075 C2074 1.369 . S
C2075 C2076 1.410 . S
C2075 C2083 1.503 . S
C2076 C2075 1.410 . S
C2076 C2077 1.392 . S
C2076 C2079 1.511 . S
C2077 C2073 1.376 . S
C2077 C2076 1.392 . S
C2077 H2089 0.929 . S
C2078 C2074 1.531 . S
C2078 H2090 0.960 . S
C2078 H2091 0.962 . S
C2078 H2092 0.960 . S
C2079 C2076 1.511 . S
C2079 H2093 0.961 . S
C2079 H2094 0.961 . S
C2079 H2095 0.961 . S
C2080 C2081 1.370 . S
C2080 C2082 1.363 . S
C2080 H2096 0.931 . S
C2081 C2080 1.370 . S
C2081 C2085 1.408 . S
C2082 C2080 1.363 . S
C2082 C2083 1.370 . S
C2082 C2086 1.524 . S
C2083 C2075 1.503 . S
C2083 C2082 1.370 . S
C2083 C2084 1.403 . S
C2084 C2083 1.403 . S
C2084 C2085 1.404 . S
C2084 C2087 1.539 . S
C2085 C2081 1.408 . S
C2085 C2084 1.404 . S
C2085 H2097 0.930 . S
C2086 C2082 1.524 . S
C2086 H2098 0.956 . S
C2086 H2099 0.961 . S
C2086 H2100 0.961 . S
C2087 C2084 1.539 . S
C2087 H2101 0.958 . S
C2087 H2102 0.961 . S
C2087 H2103 0.960 . S
H2088 C2072 0.931 . S
H2089 C2077 0.929 . S
H2090 C2078 0.960 . S
H2091 C2078 0.962 . S
H2092 C2078 0.960 . S
H2093 C2079 0.961 . S
H2094 C2079 0.961 . S
H2095 C2079 0.961 . S
H2096 C2080 0.931 . S
H2097 C2085 0.930 . S
H2098 C2086 0.956 . S
H2099 C2086 0.961 . S
H2100 C2086 0.961 . S
H2101 C2087 0.958 . S
H2102 C2087 0.961 . S
H2103 C2087 0.960 . S
C2104 C2105 1.391 . S
C2104 C2106 1.394 . S
C2104 H2120 0.931 . S
C2105 C2104 1.391 . S
C2105 C2109 1.376 . S
C2106 C2104 1.394 . S
C2106 C2107 1.369 . S
C2106 C2110 1.531 . S
C2107 C2106 1.369 . S
C2107 C2108 1.410 . S
C2107 C2115 1.503 . S
C2108 C2107 1.410 . S
C2108 C2109 1.392 . S
C2108 C2111 1.511 . S
C2109 C2105 1.376 . S
C2109 C2108 1.392 . S
C2109 H2121 0.929 . S
C2110 C2106 1.531 . S
C2110 H2122 0.960 . S
C2110 H2123 0.962 . S
C2110 H2124 0.960 . S
C2111 C2108 1.511 . S
C2111 H2125 0.961 . S
C2111 H2126 0.961 . S
C2111 H2127 0.961 . S
C2112 C2113 1.370 . S
C2112 C2114 1.363 . S
C2112 H2128 0.931 . S
C2113 C2112 1.370 . S
C2113 C2117 1.408 . S
C2114 C2112 1.363 . S
C2114 C2115 1.370 . S
C2114 C2118 1.524 . S
C2115 C2107 1.503 . S
C2115 C2114 1.370 . S
C2115 C2116 1.403 . S
C2116 C2115 1.403 . S
C2116 C2117 1.404 . S
C2116 C2119 1.539 . S
C2117 C2113 1.408 . S
C2117 C2116 1.404 . S
C2117 H2129 0.930 . S
C2118 C2114 1.524 . S
C2118 H2130 0.956 . S
C2118 H2131 0.961 . S
C2118 H2132 0.961 . S
C2119 C2116 1.539 . S
C2119 H2133 0.958 . S
C2119 H2134 0.961 . S
C2119 H2135 0.960 . S
H2120 C2104 0.931 . S
H2121 C2109 0.929 . S
H2122 C2110 0.960 . S
H2123 C2110 0.962 . S
H2124 C2110 0.960 . S
H2125 C2111 0.961 . S
H2126 C2111 0.961 . S
H2127 C2111 0.961 . S
H2128 C2112 0.931 . S
H2129 C2117 0.930 . S
H2130 C2118 0.956 . S
H2131 C2118 0.961 . S
H2132 C2118 0.961 . S
H2133 C2119 0.958 . S
H2134 C2119 0.961 . S
H2135 C2119 0.960 . S
C2136 C2137 1.391 . S
C2136 C2138 1.394 1_556 S
C2136 H2152 0.931 . S
C2137 C2136 1.391 . S
C2137 C2141 1.376 . S
C2138 C2136 1.394 1_554 S
C2138 C2139 1.369 . S
C2138 C2142 1.531 . S
C2139 C2138 1.369 . S
C2139 C2140 1.410 . S
C2139 C2147 1.503 . S
C2140 C2139 1.410 . S
C2140 C2141 1.392 1_554 S
C2140 C2143 1.511 . S
C2141 C2137 1.376 . S
C2141 C2140 1.392 1_556 S
C2141 H2153 0.929 . S
C2142 C2138 1.531 . S
C2142 H2154 0.960 . S
C2142 H2155 0.962 . S
C2142 H2156 0.960 1_554 S
C2143 C2140 1.511 . S
C2143 H2157 0.961 . S
C2143 H2158 0.961 . S
C2143 H2159 0.961 . S
C2144 C2145 1.370 . S
C2144 C2146 1.363 . S
C2144 H2160 0.931 . S
C2145 C2144 1.370 . S
C2145 C2149 1.408 . S
C2146 C2144 1.363 . S
C2146 C2147 1.370 . S
C2146 C2150 1.524 . S
C2147 C2139 1.503 . S
C2147 C2146 1.370 . S
C2147 C2148 1.403 . S
C2148 C2147 1.403 . S
C2148 C2149 1.404 . S
C2148 C2151 1.539 . S
C2149 C2145 1.408 . S
C2149 C2148 1.404 . S
C2149 H2161 0.930 . S
C2150 C2146 1.524 . S
C2150 H2162 0.956 . S
C2150 H2163 0.961 . S
C2150 H2164 0.961 . S
C2151 C2148 1.539 . S
C2151 H2165 0.958 . S
C2151 H2166 0.961 . S
C2151 H2167 0.960 . S
H2152 C2136 0.931 . S
H2153 C2141 0.929 . S
H2154 C2142 0.960 . S
H2155 C2142 0.962 . S
H2156 C2142 0.960 1_556 S
H2157 C2143 0.961 . S
H2158 C2143 0.961 . S
H2159 C2143 0.961 . S
H2160 C2144 0.931 . S
H2161 C2149 0.930 . S
H2162 C2150 0.956 . S
H2163 C2150 0.961 . S
H2164 C2150 0.961 . S
H2165 C2151 0.958 . S
H2166 C2151 0.961 . S
H2167 C2151 0.960 . S
C2168 C2169 1.391 . S
C2168 C2170 1.394 1_556 S
C2168 H2184 0.931 . S
C2169 C2168 1.391 . S
C2169 C2173 1.376 . S
C2170 C2168 1.394 1_554 S
C2170 C2171 1.369 . S
C2170 C2174 1.531 . S
C2171 C2170 1.369 . S
C2171 C2172 1.410 . S
C2171 C2179 1.503 . S
C2172 C2171 1.410 . S
C2172 C2173 1.392 1_554 S
C2172 C2175 1.511 . S
C2173 C2169 1.376 . S
C2173 C2172 1.392 1_556 S
C2173 H2185 0.929 . S
C2174 C2170 1.531 . S
C2174 H2186 0.960 . S
C2174 H2187 0.962 . S
C2174 H2188 0.960 1_554 S
C2175 C2172 1.511 . S
C2175 H2189 0.961 . S
C2175 H2190 0.961 . S
C2175 H2191 0.961 . S
C2176 C2177 1.370 . S
C2176 C2178 1.363 . S
C2176 H2192 0.931 . S
C2177 C2176 1.370 . S
C2177 C2181 1.408 . S
C2178 C2176 1.363 . S
C2178 C2179 1.370 . S
C2178 C2182 1.524 . S
C2179 C2171 1.503 . S
C2179 C2178 1.370 . S
C2179 C2180 1.403 . S
C2180 C2179 1.403 . S
C2180 C2181 1.404 . S
C2180 C2183 1.539 . S
C2181 C2177 1.408 . S
C2181 C2180 1.404 . S
C2181 H2193 0.930 . S
C2182 C2178 1.524 . S
C2182 H2194 0.956 . S
C2182 H2195 0.961 . S
C2182 H2196 0.961 . S
C2183 C2180 1.539 . S
C2183 H2197 0.958 . S
C2183 H2198 0.961 . S
C2183 H2199 0.960 . S
H2184 C2168 0.931 . S
H2185 C2173 0.929 . S
H2186 C2174 0.960 . S
H2187 C2174 0.962 . S
H2188 C2174 0.960 1_556 S
H2189 C2175 0.961 . S
H2190 C2175 0.961 . S
H2191 C2175 0.961 . S
H2192 C2176 0.931 . S
H2193 C2181 0.930 . S
H2194 C2182 0.956 . S
H2195 C2182 0.961 . S
H2196 C2182 0.961 . S
H2197 C2183 0.958 . S
H2198 C2183 0.961 . S
H2199 C2183 0.960 . S
C2200 C2201 1.391 . S
C2200 C2202 1.394 1_556 S
C2200 H2216 0.931 . S
C2201 C2200 1.391 . S
C2201 C2205 1.376 . S
C2202 C2200 1.394 1_554 S
C2202 C2203 1.369 . S
C2202 C2206 1.531 . S
C2203 C2202 1.369 . S
C2203 C2204 1.410 . S
C2203 C2211 1.503 . S
C2204 C2203 1.410 . S
C2204 C2205 1.392 1_554 S
C2204 C2207 1.511 . S
C2205 C2201 1.376 . S
C2205 C2204 1.392 1_556 S
C2205 H2217 0.929 . S
C2206 C2202 1.531 . S
C2206 H2218 0.960 . S
C2206 H2219 0.962 . S
C2206 H2220 0.960 . S
C2207 C2204 1.511 . S
C2207 H2221 0.961 . S
C2207 H2222 0.961 . S
C2207 H2223 0.961 . S
C2208 C2209 1.370 . S
C2208 C2210 1.363 . S
C2208 H2224 0.931 . S
C2209 C2208 1.370 . S
C2209 C2213 1.408 . S
C2210 C2208 1.363 . S
C2210 C2211 1.370 . S
C2210 C2214 1.524 . S
C2211 C2203 1.503 . S
C2211 C2210 1.370 . S
C2211 C2212 1.403 . S
C2212 C2211 1.403 . S
C2212 C2213 1.404 . S
C2212 C2215 1.539 . S
C2213 C2209 1.408 . S
C2213 C2212 1.404 . S
C2213 H2225 0.930 . S
C2214 C2210 1.524 . S
C2214 H2226 0.956 . S
C2214 H2227 0.961 . S
C2214 H2228 0.961 . S
C2215 C2212 1.539 . S
C2215 H2229 0.958 . S
C2215 H2230 0.961 . S
C2215 H2231 0.960 . S
H2216 C2200 0.931 . S
H2217 C2205 0.929 . S
H2218 C2206 0.960 . S
H2219 C2206 0.962 . S
H2220 C2206 0.960 . S
H2221 C2207 0.961 . S
H2222 C2207 0.961 . S
H2223 C2207 0.961 . S
H2224 C2208 0.931 . S
H2225 C2213 0.930 . S
H2226 C2214 0.956 . S
H2227 C2214 0.961 . S
H2228 C2214 0.961 . S
H2229 C2215 0.958 . S
H2230 C2215 0.961 . S
H2231 C2215 0.960 . S
C2232 C2233 1.391 . S
C2232 C2234 1.394 . S
C2232 H2248 0.931 1_554 S
C2233 C2232 1.391 . S
C2233 C2237 1.376 . S
C2234 C2232 1.394 . S
C2234 C2235 1.369 . S
C2234 C2238 1.531 1_554 S
C2235 C2234 1.369 . S
C2235 C2236 1.410 . S
C2235 C2243 1.503 . S
C2236 C2235 1.410 . S
C2236 C2237 1.392 . S
C2236 C2239 1.511 . S
C2237 C2233 1.376 . S
C2237 C2236 1.392 . S
C2237 H2249 0.929 . S
C2238 C2234 1.531 1_556 S
C2238 H2250 0.960 . S
C2238 H2251 0.962 . S
C2238 H2252 0.960 . S
C2239 C2236 1.511 . S
C2239 H2253 0.961 . S
C2239 H2254 0.961 . S
C2239 H2255 0.961 . S
C2240 C2241 1.370 . S
C2240 C2242 1.363 . S
C2240 H2256 0.931 . S
C2241 C2240 1.370 . S
C2241 C2245 1.408 . S
C2242 C2240 1.363 . S
C2242 C2243 1.370 . S
C2242 C2246 1.524 . S
C2243 C2235 1.503 . S
C2243 C2242 1.370 . S
C2243 C2244 1.403 . S
C2244 C2243 1.403 . S
C2244 C2245 1.404 . S
C2244 C2247 1.539 . S
C2245 C2241 1.408 . S
C2245 C2244 1.404 . S
C2245 H2257 0.930 . S
C2246 C2242 1.524 . S
C2246 H2258 0.956 . S
C2246 H2259 0.961 . S
C2246 H2260 0.961 . S
C2247 C2244 1.539 . S
C2247 H2261 0.958 1_554 S
C2247 H2262 0.961 . S
C2247 H2263 0.960 . S
H2248 C2232 0.931 1_556 S
H2249 C2237 0.929 . S
H2250 C2238 0.960 . S
H2251 C2238 0.962 . S
H2252 C2238 0.960 . S
H2253 C2239 0.961 . S
H2254 C2239 0.961 . S
H2255 C2239 0.961 . S
H2256 C2240 0.931 . S
H2257 C2245 0.930 . S
H2258 C2246 0.956 . S
H2259 C2246 0.961 . S
H2260 C2246 0.961 . S
H2261 C2247 0.958 1_556 S
H2262 C2247 0.961 . S
H2263 C2247 0.960 . S
C2264 C2265 1.391 . S
C2264 C2266 1.394 . S
C2264 H2280 0.931 . S
C2265 C2264 1.391 . S
C2265 C2269 1.376 . S
C2266 C2264 1.394 . S
C2266 C2267 1.369 . S
C2266 C2270 1.531 . S
C2267 C2266 1.369 . S
C2267 C2268 1.410 . S
C2267 C2275 1.503 . S
C2268 C2267 1.410 . S
C2268 C2269 1.392 . S
C2268 C2271 1.511 . S
C2269 C2265 1.376 . S
C2269 C2268 1.392 . S
C2269 H2281 0.929 . S
C2270 C2266 1.531 . S
C2270 H2282 0.960 . S
C2270 H2283 0.962 . S
C2270 H2284 0.960 . S
C2271 C2268 1.511 . S
C2271 H2285 0.961 . S
C2271 H2286 0.961 . S
C2271 H2287 0.961 . S
C2272 C2273 1.370 . S
C2272 C2274 1.363 . S
C2272 H2288 0.931 1_554 S
C2273 C2272 1.370 . S
C2273 C2277 1.408 . S
C2274 C2272 1.363 . S
C2274 C2275 1.370 . S
C2274 C2278 1.524 1_554 S
C2275 C2267 1.503 . S
C2275 C2274 1.370 . S
C2275 C2276 1.403 . S
C2276 C2275 1.403 . S
C2276 C2277 1.404 . S
C2276 C2279 1.539 . S
C2277 C2273 1.408 . S
C2277 C2276 1.404 . S
C2277 H2289 0.930 . S
C2278 C2274 1.524 1_556 S
C2278 H2290 0.956 . S
C2278 H2291 0.961 . S
C2278 H2292 0.961 . S
C2279 C2276 1.539 . S
C2279 H2293 0.958 . S
C2279 H2294 0.961 . S
C2279 H2295 0.960 . S
H2280 C2264 0.931 . S
H2281 C2269 0.929 . S
H2282 C2270 0.960 . S
H2283 C2270 0.962 . S
H2284 C2270 0.960 . S
H2285 C2271 0.961 . S
H2286 C2271 0.961 . S
H2287 C2271 0.961 . S
H2288 C2272 0.931 1_556 S
H2289 C2277 0.930 . S
H2290 C2278 0.956 . S
H2291 C2278 0.961 . S
H2292 C2278 0.961 . S
H2293 C2279 0.958 . S
H2294 C2279 0.961 . S
H2295 C2279 0.960 . S
C2296 C2297 1.391 . S
C2296 C2298 1.394 . S
C2296 H2312 0.931 . S
C2297 C2296 1.391 . S
C2297 C2301 1.376 . S
C2298 C2296 1.394 . S
C2298 C2299 1.369 . S
C2298 C2302 1.531 . S
C2299 C2298 1.369 . S
C2299 C2300 1.410 . S
C2299 C2307 1.503 . S
C2300 C2299 1.410 . S
C2300 C2301 1.392 . S
C2300 C2303 1.511 . S
C2301 C2297 1.376 . S
C2301 C2300 1.392 . S
C2301 H2313 0.929 . S
C2302 C2298 1.531 . S
C2302 H2314 0.960 . S
C2302 H2315 0.962 1_554 S
C2302 H2316 0.960 . S
C2303 C2300 1.511 . S
C2303 H2317 0.961 . S
C2303 H2318 0.961 . S
C2303 H2319 0.961 . S
C2304 C2305 1.370 . S
C2304 C2306 1.363 . S
C2304 H2320 0.931 . S
C2305 C2304 1.370 . S
C2305 C2309 1.408 . S
C2306 C2304 1.363 . S
C2306 C2307 1.370 . S
C2306 C2310 1.524 . S
C2307 C2299 1.503 . S
C2307 C2306 1.370 . S
C2307 C2308 1.403 . S
C2308 C2307 1.403 . S
C2308 C2309 1.404 . S
C2308 C2311 1.539 . S
C2309 C2305 1.408 . S
C2309 C2308 1.404 . S
C2309 H2321 0.930 . S
C2310 C2306 1.524 . S
C2310 H2322 0.956 1_554 S
C2310 H2323 0.961 . S
C2310 H2324 0.961 1_554 S
C2311 C2308 1.539 . S
C2311 H2325 0.958 . S
C2311 H2326 0.961 . S
C2311 H2327 0.960 . S
H2312 C2296 0.931 . S
H2313 C2301 0.929 . S
H2314 C2302 0.960 . S
H2315 C2302 0.962 1_556 S
H2316 C2302 0.960 . S
H2317 C2303 0.961 . S
H2318 C2303 0.961 . S
H2319 C2303 0.961 . S
H2320 C2304 0.931 . S
H2321 C2309 0.930 . S
H2322 C2310 0.956 1_556 S
H2323 C2310 0.961 . S
H2324 C2310 0.961 1_556 S
H2325 C2311 0.958 . S
H2326 C2311 0.961 . S
H2327 C2311 0.960 . S
C2328 C2329 1.391 . S
C2328 C2330 1.394 . S
C2328 H2344 0.931 . S
C2329 C2328 1.391 . S
C2329 C2333 1.376 . S
C2330 C2328 1.394 . S
C2330 C2331 1.369 . S
C2330 C2334 1.531 . S
C2331 C2330 1.369 . S
C2331 C2332 1.410 . S
C2331 C2339 1.503 . S
C2332 C2331 1.410 . S
C2332 C2333 1.392 . S
C2332 C2335 1.511 . S
C2333 C2329 1.376 . S
C2333 C2332 1.392 . S
C2333 H2345 0.929 . S
C2334 C2330 1.531 . S
C2334 H2346 0.960 . S
C2334 H2347 0.962 . S
C2334 H2348 0.960 . S
C2335 C2332 1.511 . S
C2335 H2349 0.961 . S
C2335 H2350 0.961 . S
C2335 H2351 0.961 . S
C2336 C2337 1.370 . S
C2336 C2338 1.363 . S
C2336 H2352 0.931 . S
C2337 C2336 1.370 . S
C2337 C2341 1.408 . S
C2338 C2336 1.363 . S
C2338 C2339 1.370 . S
C2338 C2342 1.524 . S
C2339 C2331 1.503 . S
C2339 C2338 1.370 . S
C2339 C2340 1.403 . S
C2340 C2339 1.403 . S
C2340 C2341 1.404 . S
C2340 C2343 1.539 . S
C2341 C2337 1.408 . S
C2341 C2340 1.404 . S
C2341 H2353 0.930 . S
C2342 C2338 1.524 . S
C2342 H2354 0.956 . S
C2342 H2355 0.961 . S
C2342 H2356 0.961 . S
C2343 C2340 1.539 . S
C2343 H2357 0.958 . S
C2343 H2358 0.961 . S
C2343 H2359 0.960 . S
H2344 C2328 0.931 . S
H2345 C2333 0.929 . S
H2346 C2334 0.960 . S
H2347 C2334 0.962 . S
H2348 C2334 0.960 . S
H2349 C2335 0.961 . S
H2350 C2335 0.961 . S
H2351 C2335 0.961 . S
H2352 C2336 0.931 . S
H2353 C2341 0.930 . S
H2354 C2342 0.956 . S
H2355 C2342 0.961 . S
H2356 C2342 0.961 . S
H2357 C2343 0.958 . S
H2358 C2343 0.961 . S
H2359 C2343 0.960 . S
C2360 C2361 1.391 . S
C2360 C2362 1.394 . S
C2360 H2376 0.931 . S
C2361 C2360 1.391 . S
C2361 C2365 1.376 . S
C2362 C2360 1.394 . S
C2362 C2363 1.369 . S
C2362 C2366 1.531 . S
C2363 C2362 1.369 . S
C2363 C2364 1.410 . S
C2363 C2371 1.503 . S
C2364 C2363 1.410 . S
C2364 C2365 1.392 . S
C2364 C2367 1.511 . S
C2365 C2361 1.376 . S
C2365 C2364 1.392 . S
C2365 H2377 0.929 . S
C2366 C2362 1.531 . S
C2366 H2378 0.960 . S
C2366 H2379 0.962 . S
C2366 H2380 0.960 . S
C2367 C2364 1.511 . S
C2367 H2381 0.961 . S
C2367 H2382 0.961 . S
C2367 H2383 0.961 . S
C2368 C2369 1.370 . S
C2368 C2370 1.363 . S
C2368 H2384 0.931 . S
C2369 C2368 1.370 . S
C2369 C2373 1.408 . S
C2370 C2368 1.363 . S
C2370 C2371 1.370 . S
C2370 C2374 1.524 . S
C2371 C2363 1.503 . S
C2371 C2370 1.370 . S
C2371 C2372 1.403 . S
C2372 C2371 1.403 . S
C2372 C2373 1.404 . S
C2372 C2375 1.539 . S
C2373 C2369 1.408 . S
C2373 C2372 1.404 . S
C2373 H2385 0.930 . S
C2374 C2370 1.524 . S
C2374 H2386 0.956 . S
C2374 H2387 0.961 . S
C2374 H2388 0.961 . S
C2375 C2372 1.539 . S
C2375 H2389 0.958 . S
C2375 H2390 0.961 . S
C2375 H2391 0.960 . S
H2376 C2360 0.931 . S
H2377 C2365 0.929 . S
H2378 C2366 0.960 . S
H2379 C2366 0.962 . S
H2380 C2366 0.960 . S
H2381 C2367 0.961 . S
H2382 C2367 0.961 . S
H2383 C2367 0.961 . S
H2384 C2368 0.931 . S
H2385 C2373 0.930 . S
H2386 C2374 0.956 . S
H2387 C2374 0.961 . S
H2388 C2374 0.961 . S
H2389 C2375 0.958 . S
H2390 C2375 0.961 . S
H2391 C2375 0.960 . S
C2392 C2393 1.391 . S
C2392 C2394 1.394 . S
C2392 H2408 0.931 . S
C2393 C2392 1.391 . S
C2393 C2397 1.376 . S
C2394 C2392 1.394 . S
C2394 C2395 1.369 . S
C2394 C2398 1.531 . S
C2395 C2394 1.369 . S
C2395 C2396 1.410 . S
C2395 C2403 1.503 . S
C2396 C2395 1.410 . S
C2396 C2397 1.392 . S
C2396 C2399 1.511 . S
C2397 C2393 1.376 . S
C2397 C2396 1.392 . S
C2397 H2409 0.929 . S
C2398 C2394 1.531 . S
C2398 H2410 0.960 . S
C2398 H2411 0.962 . S
C2398 H2412 0.960 . S
C2399 C2396 1.511 . S
C2399 H2413 0.961 . S
C2399 H2414 0.961 . S
C2399 H2415 0.961 . S
C2400 C2401 1.370 . S
C2400 C2402 1.363 . S
C2400 H2416 0.931 . S
C2401 C2400 1.370 . S
C2401 C2405 1.408 . S
C2402 C2400 1.363 . S
C2402 C2403 1.370 . S
C2402 C2406 1.524 . S
C2403 C2395 1.503 . S
C2403 C2402 1.370 . S
C2403 C2404 1.403 . S
C2404 C2403 1.403 . S
C2404 C2405 1.404 . S
C2404 C2407 1.539 . S
C2405 C2401 1.408 . S
C2405 C2404 1.404 . S
C2405 H2417 0.930 . S
C2406 C2402 1.524 . S
C2406 H2418 0.956 . S
C2406 H2419 0.961 . S
C2406 H2420 0.961 . S
C2407 C2404 1.539 . S
C2407 H2421 0.958 . S
C2407 H2422 0.961 . S
C2407 H2423 0.960 . S
H2408 C2392 0.931 . S
H2409 C2397 0.929 . S
H2410 C2398 0.960 . S
H2411 C2398 0.962 . S
H2412 C2398 0.960 . S
H2413 C2399 0.961 . S
H2414 C2399 0.961 . S
H2415 C2399 0.961 . S
H2416 C2400 0.931 . S
H2417 C2405 0.930 . S
H2418 C2406 0.956 . S
H2419 C2406 0.961 . S
H2420 C2406 0.961 . S
H2421 C2407 0.958 . S
H2422 C2407 0.961 . S
H2423 C2407 0.960 . S
C2424 C2425 1.391 . S
C2424 C2426 1.394 . S
C2424 H2440 0.931 . S
C2425 C2424 1.391 . S
C2425 C2429 1.376 . S
C2426 C2424 1.394 . S
C2426 C2427 1.369 . S
C2426 C2430 1.531 . S
C2427 C2426 1.369 . S
C2427 C2428 1.410 . S
C2427 C2435 1.503 . S
C2428 C2427 1.410 . S
C2428 C2429 1.392 . S
C2428 C2431 1.511 . S
C2429 C2425 1.376 . S
C2429 C2428 1.392 . S
C2429 H2441 0.929 . S
C2430 C2426 1.531 . S
C2430 H2442 0.960 . S
C2430 H2443 0.962 . S
C2430 H2444 0.960 . S
C2431 C2428 1.511 . S
C2431 H2445 0.961 . S
C2431 H2446 0.961 . S
C2431 H2447 0.961 . S
C2432 C2433 1.370 . S
C2432 C2434 1.363 . S
C2432 H2448 0.931 . S
C2433 C2432 1.370 . S
C2433 C2437 1.408 . S
C2434 C2432 1.363 . S
C2434 C2435 1.370 . S
C2434 C2438 1.524 . S
C2435 C2427 1.503 . S
C2435 C2434 1.370 . S
C2435 C2436 1.403 . S
C2436 C2435 1.403 . S
C2436 C2437 1.404 . S
C2436 C2439 1.539 1_556 S
C2437 C2433 1.408 . S
C2437 C2436 1.404 . S
C2437 H2449 0.930 1_556 S
C2438 C2434 1.524 . S
C2438 H2450 0.956 . S
C2438 H2451 0.961 . S
C2438 H2452 0.961 . S
C2439 C2436 1.539 1_554 S
C2439 H2453 0.958 . S
C2439 H2454 0.961 . S
C2439 H2455 0.960 . S
H2440 C2424 0.931 . S
H2441 C2429 0.929 . S
H2442 C2430 0.960 . S
H2443 C2430 0.962 . S
H2444 C2430 0.960 . S
H2445 C2431 0.961 . S
H2446 C2431 0.961 . S
H2447 C2431 0.961 . S
H2448 C2432 0.931 . S
H2449 C2437 0.930 1_554 S
H2450 C2438 0.956 . S
H2451 C2438 0.961 . S
H2452 C2438 0.961 . S
H2453 C2439 0.958 . S
H2454 C2439 0.961 . S
H2455 C2439 0.960 . S
C2456 C2457 1.391 . S
C2456 C2458 1.394 . S
C2456 H2472 0.931 . S
C2457 C2456 1.391 . S
C2457 C2461 1.376 . S
C2458 C2456 1.394 . S
C2458 C2459 1.369 . S
C2458 C2462 1.531 . S
C2459 C2458 1.369 . S
C2459 C2460 1.410 . S
C2459 C2467 1.503 . S
C2460 C2459 1.410 . S
C2460 C2461 1.392 . S
C2460 C2463 1.511 . S
C2461 C2457 1.376 . S
C2461 C2460 1.392 . S
C2461 H2473 0.929 . S
C2462 C2458 1.531 . S
C2462 H2474 0.960 . S
C2462 H2475 0.962 . S
C2462 H2476 0.960 . S
C2463 C2460 1.511 . S
C2463 H2477 0.961 . S
C2463 H2478 0.961 . S
C2463 H2479 0.961 . S
C2464 C2465 1.370 . S
C2464 C2466 1.363 . S
C2464 H2480 0.931 . S
C2465 C2464 1.370 . S
C2465 C2469 1.408 . S
C2466 C2464 1.363 . S
C2466 C2467 1.370 . S
C2466 C2470 1.538 . S
C2467 C2459 1.503 . S
C2467 C2466 1.370 . S
C2467 C2468 1.403 . S
C2468 C2467 1.403 . S
C2468 C2469 1.404 . S
C2468 C2471 1.539 . S
C2469 C2465 1.408 . S
C2469 C2468 1.404 . S
C2469 H2481 0.930 . S
C2470 C2466 1.538 . S
C2470 H2482 0.960 . S
C2470 H2483 0.953 1_556 S
C2470 H2484 0.951 1_556 S
C2471 C2468 1.539 . S
C2471 H2485 0.958 . S
C2471 H2486 0.961 . S
C2471 H2487 0.960 . S
H2472 C2456 0.931 . S
H2473 C2461 0.929 . S
H2474 C2462 0.960 . S
H2475 C2462 0.962 . S
H2476 C2462 0.960 . S
H2477 C2463 0.961 . S
H2478 C2463 0.961 . S
H2479 C2463 0.961 . S
H2480 C2464 0.931 . S
H2481 C2469 0.930 . S
H2482 C2470 0.960 . S
H2483 C2470 0.953 1_554 S
H2484 C2470 0.951 1_554 S
H2485 C2471 0.958 . S
H2486 C2471 0.961 . S
H2487 C2471 0.960 . S
C2488 C2489 1.391 . S
C2488 C2490 1.394 . S
C2488 H2504 0.931 . S
C2489 C2488 1.391 . S
C2489 C2493 1.376 . S
C2490 C2488 1.394 . S
C2490 C2491 1.369 . S
C2490 C2494 1.531 1_556 S
C2491 C2490 1.369 . S
C2491 C2492 1.410 . S
C2491 C2499 1.503 . S
C2492 C2491 1.410 . S
C2492 C2493 1.392 . S
C2492 C2495 1.511 . S
C2493 C2489 1.376 . S
C2493 C2492 1.392 . S
C2493 H2505 0.929 . S
C2494 C2490 1.531 1_554 S
C2494 H2506 0.960 . S
C2494 H2507 0.962 . S
C2494 H2508 0.960 . S
C2495 C2492 1.511 . S
C2495 H2509 0.961 . S
C2495 H2510 0.961 . S
C2495 H2511 0.961 . S
C2496 C2497 1.370 . S
C2496 C2498 1.363 . S
C2496 H2512 0.931 . S
C2497 C2496 1.370 . S
C2497 C2501 1.408 . S
C2498 C2496 1.363 . S
C2498 C2499 1.370 . S
C2498 C2502 1.524 . S
C2499 C2491 1.503 . S
C2499 C2498 1.370 . S
C2499 C2500 1.403 . S
C2500 C2499 1.403 . S
C2500 C2501 1.404 . S
C2500 C2503 1.539 . S
C2501 C2497 1.408 . S
C2501 C2500 1.404 . S
C2501 H2513 0.930 . S
C2502 C2498 1.524 . S
C2502 H2514 0.956 . S
C2502 H2515 0.961 . S
C2502 H2516 0.961 . S
C2503 C2500 1.539 . S
C2503 H2517 0.958 . S
C2503 H2518 0.961 . S
C2503 H2519 0.960 . S
H2504 C2488 0.931 . S
H2505 C2493 0.929 . S
H2506 C2494 0.960 . S
H2507 C2494 0.962 . S
H2508 C2494 0.960 . S
H2509 C2495 0.961 . S
H2510 C2495 0.961 . S
H2511 C2495 0.961 . S
H2512 C2496 0.931 . S
H2513 C2501 0.930 . S
H2514 C2502 0.956 . S
H2515 C2502 0.961 . S
H2516 C2502 0.961 . S
H2517 C2503 0.958 . S
H2518 C2503 0.961 . S
H2519 C2503 0.960 . S
C2520 C2521 1.391 . S
C2520 C2522 1.394 . S
C2520 H2536 0.931 . S
C2521 C2520 1.391 . S
C2521 C2525 1.376 . S
C2522 C2520 1.394 . S
C2522 C2523 1.369 . S
C2522 C2526 1.531 . S
C2523 C2522 1.369 . S
C2523 C2524 1.410 . S
C2523 C2531 1.503 . S
C2524 C2523 1.410 . S
C2524 C2525 1.392 . S
C2524 C2527 1.511 . S
C2525 C2521 1.376 . S
C2525 C2524 1.392 . S
C2525 H2537 0.929 . S
C2526 C2522 1.531 . S
C2526 H2538 0.960 . S
C2526 H2539 0.962 . S
C2526 H2540 0.960 . S
C2527 C2524 1.511 . S
C2527 H2541 0.961 . S
C2527 H2542 0.961 . S
C2527 H2543 0.961 . S
C2528 C2529 1.370 . S
C2528 C2530 1.363 . S
C2528 H2544 0.931 . S
C2529 C2528 1.370 . S
C2529 C2533 1.408 . S
C2530 C2528 1.363 . S
C2530 C2531 1.370 . S
C2530 C2534 1.524 . S
C2531 C2523 1.503 . S
C2531 C2530 1.370 . S
C2531 C2532 1.403 . S
C2532 C2531 1.403 . S
C2532 C2533 1.404 . S
C2532 C2535 1.539 . S
C2533 C2529 1.408 . S
C2533 C2532 1.404 . S
C2533 H2545 0.930 . S
C2534 C2530 1.524 . S
C2534 H2546 0.956 . S
C2534 H2547 0.961 . S
C2534 H2548 0.961 . S
C2535 C2532 1.539 . S
C2535 H2549 0.958 . S
C2535 H2550 0.961 . S
C2535 H2551 0.960 . S
H2536 C2520 0.931 . S
H2537 C2525 0.929 . S
H2538 C2526 0.960 . S
H2539 C2526 0.962 . S
H2540 C2526 0.960 . S
H2541 C2527 0.961 . S
H2542 C2527 0.961 . S
H2543 C2527 0.961 . S
H2544 C2528 0.931 . S
H2545 C2533 0.930 . S
H2546 C2534 0.956 . S
H2547 C2534 0.961 . S
H2548 C2534 0.961 . S
H2549 C2535 0.958 . S
H2550 C2535 0.961 . S
H2551 C2535 0.960 . S
C2552 C2553 1.391 . S
C2552 C2554 1.394 . S
C2552 H2568 0.931 . S
C2553 C2552 1.391 . S
C2553 C2557 1.376 . S
C2554 C2552 1.394 . S
C2554 C2555 1.369 . S
C2554 C2558 1.531 . S
C2555 C2554 1.369 . S
C2555 C2556 1.410 . S
C2555 C2563 1.503 . S
C2556 C2555 1.410 . S
C2556 C2557 1.392 . S
C2556 C2559 1.511 . S
C2557 C2553 1.376 . S
C2557 C2556 1.392 . S
C2557 H2569 0.929 . S
C2558 C2554 1.531 . S
C2558 H2570 0.960 . S
C2558 H2571 0.962 . S
C2558 H2572 0.960 . S
C2559 C2556 1.511 . S
C2559 H2573 0.961 . S
C2559 H2574 0.961 . S
C2559 H2575 0.961 . S
C2560 C2561 1.370 . S
C2560 C2562 1.363 . S
C2560 H2576 0.931 . S
C2561 C2560 1.370 . S
C2561 C2565 1.408 . S
C2562 C2560 1.363 . S
C2562 C2563 1.370 . S
C2562 C2566 1.524 . S
C2563 C2555 1.503 . S
C2563 C2562 1.370 . S
C2563 C2564 1.403 . S
C2564 C2563 1.403 . S
C2564 C2565 1.404 . S
C2564 C2567 1.539 . S
C2565 C2561 1.408 . S
C2565 C2564 1.404 . S
C2565 H2577 0.930 . S
C2566 C2562 1.524 . S
C2566 H2578 0.956 . S
C2566 H2579 0.961 . S
C2566 H2580 0.961 . S
C2567 C2564 1.539 . S
C2567 H2581 0.958 . S
C2567 H2582 0.961 . S
C2567 H2583 0.960 . S
H2568 C2552 0.931 . S
H2569 C2557 0.929 . S
H2570 C2558 0.960 . S
H2571 C2558 0.962 . S
H2572 C2558 0.960 . S
H2573 C2559 0.961 . S
H2574 C2559 0.961 . S
H2575 C2559 0.961 . S
H2576 C2560 0.931 . S
H2577 C2565 0.930 . S
H2578 C2566 0.956 . S
H2579 C2566 0.961 . S
H2580 C2566 0.961 . S
H2581 C2567 0.958 . S
H2582 C2567 0.961 . S
H2583 C2567 0.960 . S
C2584 C2585 1.391 . S
C2584 C2586 1.394 . S
C2584 H2600 0.931 . S
C2585 C2584 1.391 . S
C2585 C2589 1.376 . S
C2586 C2584 1.394 . S
C2586 C2587 1.369 . S
C2586 C2590 1.531 . S
C2587 C2586 1.369 . S
C2587 C2588 1.410 . S
C2587 C2595 1.503 . S
C2588 C2587 1.410 . S
C2588 C2589 1.392 . S
C2588 C2591 1.511 . S
C2589 C2585 1.376 . S
C2589 C2588 1.392 . S
C2589 H2601 0.929 . S
C2590 C2586 1.531 . S
C2590 H2602 0.960 . S
C2590 H2603 0.962 . S
C2590 H2604 0.960 . S
C2591 C2588 1.511 . S
C2591 H2605 0.961 . S
C2591 H2606 0.961 . S
C2591 H2607 0.961 . S
C2592 C2593 1.370 . S
C2592 C2594 1.363 . S
C2592 H2608 0.931 . S
C2593 C2592 1.370 . S
C2593 C2597 1.408 . S
C2594 C2592 1.363 . S
C2594 C2595 1.370 . S
C2594 C2598 1.524 . S
C2595 C2587 1.503 . S
C2595 C2594 1.370 . S
C2595 C2596 1.403 . S
C2596 C2595 1.403 . S
C2596 C2597 1.404 . S
C2596 C2599 1.539 . S
C2597 C2593 1.408 . S
C2597 C2596 1.404 . S
C2597 H2609 0.930 . S
C2598 C2594 1.524 . S
C2598 H2610 0.956 . S
C2598 H2611 0.961 . S
C2598 H2612 0.961 . S
C2599 C2596 1.539 . S
C2599 H2613 0.958 . S
C2599 H2614 0.961 . S
C2599 H2615 0.960 . S
H2600 C2584 0.931 . S
H2601 C2589 0.929 . S
H2602 C2590 0.960 . S
H2603 C2590 0.962 . S
H2604 C2590 0.960 . S
H2605 C2591 0.961 . S
H2606 C2591 0.961 . S
H2607 C2591 0.961 . S
H2608 C2592 0.931 . S
H2609 C2597 0.930 . S
H2610 C2598 0.956 . S
H2611 C2598 0.961 . S
H2612 C2598 0.961 . S
H2613 C2599 0.958 . S
H2614 C2599 0.961 . S
H2615 C2599 0.960 . S
C2616 C2617 1.391 . S
C2616 C2618 1.394 . S
C2616 H2632 0.931 . S
C2617 C2616 1.391 . S
C2617 C2621 1.376 . S
C2618 C2616 1.394 . S
C2618 C2619 1.369 . S
C2618 C2622 1.531 . S
C2619 C2618 1.369 . S
C2619 C2620 1.410 . S
C2619 C2627 1.503 1_455 S
C2620 C2619 1.410 . S
C2620 C2621 1.392 . S
C2620 C2623 1.511 . S
C2621 C2617 1.376 . S
C2621 C2620 1.392 . S
C2621 H2633 0.929 . S
C2622 C2618 1.531 . S
C2622 H2634 0.960 1_455 S
C2622 H2635 0.962 . S
C2622 H2636 0.960 . S
C2623 C2620 1.511 . S
C2623 H2637 0.961 . S
C2623 H2638 0.961 . S
C2623 H2639 0.961 . S
C2624 C2625 1.370 . S
C2624 C2626 1.363 . S
C2624 H2640 0.931 . S
C2625 C2624 1.370 . S
C2625 C2629 1.408 . S
C2626 C2624 1.363 . S
C2626 C2627 1.370 . S
C2626 C2630 1.524 . S
C2627 C2619 1.503 1_655 S
C2627 C2626 1.370 . S
C2627 C2628 1.403 . S
C2628 C2627 1.403 . S
C2628 C2629 1.404 . S
C2628 C2631 1.539 . S
C2629 C2625 1.408 . S
C2629 C2628 1.404 . S
C2629 H2641 0.930 . S
C2630 C2626 1.524 . S
C2630 H2642 0.973 . S
C2630 H2643 0.961 1_655 S
C2630 H2644 0.961 . S
C2631 C2628 1.539 . S
C2631 H2645 0.958 . S
C2631 H2646 0.961 . S
C2631 H2647 0.960 . S
H2632 C2616 0.931 . S
H2633 C2621 0.929 . S
H2634 C2622 0.960 1_655 S
H2635 C2622 0.962 . S
H2636 C2622 0.960 . S
H2637 C2623 0.961 . S
H2638 C2623 0.961 . S
H2639 C2623 0.961 . S
H2640 C2624 0.931 . S
H2641 C2629 0.930 . S
H2642 C2630 0.973 . S
H2643 C2630 0.961 1_455 S
H2644 C2630 0.961 . S
H2645 C2631 0.958 . S
H2646 C2631 0.961 . S
H2647 C2631 0.960 . S
C2648 C2649 1.391 . S
C2648 C2650 1.394 . S
C2648 H2664 0.931 . S
C2649 C2648 1.391 . S
C2649 C2653 1.376 . S
C2650 C2648 1.394 . S
C2650 C2651 1.369 . S
C2650 C2654 1.531 . S
C2651 C2650 1.369 . S
C2651 C2652 1.410 . S
C2651 C2659 1.503 . S
C2652 C2651 1.410 . S
C2652 C2653 1.392 . S
C2652 C2655 1.511 . S
C2653 C2649 1.376 . S
C2653 C2652 1.392 . S
C2653 H2665 0.929 . S
C2654 C2650 1.531 . S
C2654 H2666 0.960 . S
C2654 H2667 0.962 . S
C2654 H2668 0.960 . S
C2655 C2652 1.511 . S
C2655 H2669 0.961 . S
C2655 H2670 0.961 . S
C2655 H2671 0.961 . S
C2656 C2657 1.370 . S
C2656 C2658 1.363 . S
C2656 H2672 0.931 . S
C2657 C2656 1.370 . S
C2657 C2661 1.408 . S
C2658 C2656 1.363 . S
C2658 C2659 1.370 . S
C2658 C2662 1.524 . S
C2659 C2651 1.503 . S
C2659 C2658 1.370 . S
C2659 C2660 1.403 . S
C2660 C2659 1.403 . S
C2660 C2661 1.404 . S
C2660 C2663 1.539 . S
C2661 C2657 1.408 . S
C2661 C2660 1.404 . S
C2661 H2673 0.930 . S
C2662 C2658 1.524 . S
C2662 H2674 0.956 . S
C2662 H2675 0.961 . S
C2662 H2676 0.961 . S
C2663 C2660 1.539 . S
C2663 H2677 0.958 . S
C2663 H2678 0.961 . S
C2663 H2679 0.960 . S
H2664 C2648 0.931 . S
H2665 C2653 0.929 . S
H2666 C2654 0.960 . S
H2667 C2654 0.962 . S
H2668 C2654 0.960 . S
H2669 C2655 0.961 . S
H2670 C2655 0.961 . S
H2671 C2655 0.961 . S
H2672 C2656 0.931 . S
H2673 C2661 0.930 . S
H2674 C2662 0.956 . S
H2675 C2662 0.961 . S
H2676 C2662 0.961 . S
H2677 C2663 0.958 . S
H2678 C2663 0.961 . S
H2679 C2663 0.960 . S
C2680 C2681 1.391 . S
C2680 C2682 1.394 . S
C2680 H2696 0.931 . S
C2681 C2680 1.391 . S
C2681 C2685 1.376 . S
C2682 C2680 1.394 . S
C2682 C2683 1.369 . S
C2682 C2686 1.531 . S
C2683 C2682 1.369 . S
C2683 C2684 1.410 . S
C2683 C2691 1.503 1_565 S
C2684 C2683 1.410 . S
C2684 C2685 1.392 . S
C2684 C2687 1.511 . S
C2685 C2681 1.376 . S
C2685 C2684 1.392 . S
C2685 H2697 0.929 . S
C2686 C2682 1.531 . S
C2686 H2698 0.991 . S
C2686 H2699 0.962 . S
C2686 H2700 0.960 . S
C2687 C2684 1.511 . S
C2687 H2701 0.961 . S
C2687 H2702 0.961 1_565 S
C2687 H2703 0.983 . S
C2688 C2689 1.370 . S
C2688 C2690 1.363 . S
C2688 H2704 0.931 . S
C2689 C2688 1.370 . S
C2689 C2693 1.408 . S
C2690 C2688 1.363 . S
C2690 C2691 1.370 . S
C2690 C2694 1.524 . S
C2691 C2683 1.503 1_545 S
C2691 C2690 1.370 . S
C2691 C2692 1.403 . S
C2692 C2691 1.403 . S
C2692 C2693 1.404 . S
C2692 C2695 1.539 . S
C2693 C2689 1.408 . S
C2693 C2692 1.404 . S
C2693 H2705 0.930 . S
C2694 C2690 1.524 . S
C2694 H2706 0.956 1_545 S
C2694 H2707 0.961 1_545 S
C2694 H2708 0.961 . S
C2695 C2692 1.539 . S
C2695 H2709 0.958 . S
C2695 H2710 0.961 . S
C2695 H2711 0.960 . S
H2696 C2680 0.931 . S
H2697 C2685 0.929 . S
H2698 C2686 0.991 . S
H2699 C2686 0.962 . S
H2700 C2686 0.960 . S
H2701 C2687 0.961 . S
H2702 C2687 0.961 1_545 S
H2703 C2687 0.983 . S
H2704 C2688 0.931 . S
H2705 C2693 0.930 . S
H2706 C2694 0.956 1_565 S
H2707 C2694 0.961 1_565 S
H2708 C2694 0.961 . S
H2709 C2695 0.958 . S
H2710 C2695 0.961 . S
H2711 C2695 0.960 . S
C2712 C2713 1.391 . S
C2712 C2714 1.394 . S
C2712 H2728 0.931 . S
C2713 C2712 1.391 . S
C2713 C2717 1.376 . S
C2714 C2712 1.394 . S
C2714 C2715 1.369 . S
C2714 C2718 1.531 . S
C2715 C2714 1.369 . S
C2715 C2716 1.410 . S
C2715 C2723 1.503 1_545 S
C2716 C2715 1.410 . S
C2716 C2717 1.392 . S
C2716 C2719 1.511 . S
C2717 C2713 1.376 . S
C2717 C2716 1.392 . S
C2717 H2729 0.929 . S
C2718 C2714 1.531 . S
C2718 H2730 0.960 . S
C2718 H2731 0.962 . S
C2718 H2732 0.960 . S
C2719 C2716 1.511 . S
C2719 H2733 0.961 . S
C2719 H2734 0.961 1_545 S
C2719 H2735 0.961 . S
C2720 C2721 1.370 . S
C2720 C2722 1.363 . S
C2720 H2736 0.931 . S
C2721 C2720 1.370 . S
C2721 C2725 1.408 . S
C2722 C2720 1.363 . S
C2722 C2723 1.370 . S
C2722 C2726 1.524 . S
C2723 C2715 1.503 1_565 S
C2723 C2722 1.370 . S
C2723 C2724 1.403 . S
C2724 C2723 1.403 . S
C2724 C2725 1.404 . S
C2724 C2727 1.539 . S
C2725 C2721 1.408 . S
C2725 C2724 1.404 . S
C2725 H2737 0.930 . S
C2726 C2722 1.524 . S
C2726 H2738 0.956 . S
C2726 H2739 0.961 . S
C2726 H2740 0.961 . S
C2727 C2724 1.539 . S
C2727 H2741 0.958 . S
C2727 H2742 0.961 . S
C2727 H2743 0.960 1_565 S
H2728 C2712 0.931 . S
H2729 C2717 0.929 . S
H2730 C2718 0.960 . S
H2731 C2718 0.962 . S
H2732 C2718 0.960 . S
H2733 C2719 0.961 . S
H2734 C2719 0.961 1_565 S
H2735 C2719 0.961 . S
H2736 C2720 0.931 . S
H2737 C2725 0.930 . S
H2738 C2726 0.956 . S
H2739 C2726 0.961 . S
H2740 C2726 0.961 . S
H2741 C2727 0.958 . S
H2742 C2727 0.961 . S
H2743 C2727 0.960 1_545 S
C2744 C2745 1.391 . S
C2744 C2746 1.394 . S
C2744 H2760 0.931 . S
C2745 C2744 1.391 . S
C2745 C2749 1.376 . S
C2746 C2744 1.394 . S
C2746 C2747 1.369 . S
C2746 C2750 1.531 . S
C2747 C2746 1.369 . S
C2747 C2748 1.410 . S
C2747 C2755 1.503 1_455 S
C2748 C2747 1.410 . S
C2748 C2749 1.392 . S
C2748 C2751 1.511 . S
C2749 C2745 1.376 . S
C2749 C2748 1.392 . S
C2749 H2761 0.929 . S
C2750 C2746 1.531 . S
C2750 H2762 0.960 . S
C2750 H2763 0.962 . S
C2750 H2764 0.960 . S
C2751 C2748 1.511 . S
C2751 H2765 0.961 . S
C2751 H2766 0.961 1_455 S
C2751 H2767 0.934 . S
C2752 C2753 1.370 . S
C2752 C2754 1.363 . S
C2752 H2768 0.931 . S
C2753 C2752 1.370 . S
C2753 C2757 1.408 . S
C2754 C2752 1.363 . S
C2754 C2755 1.370 . S
C2754 C2758 1.524 . S
C2755 C2747 1.503 1_655 S
C2755 C2754 1.370 . S
C2755 C2756 1.403 . S
C2756 C2755 1.403 . S
C2756 C2757 1.404 . S
C2756 C2759 1.539 . S
C2757 C2753 1.408 . S
C2757 C2756 1.404 . S
C2757 H2769 0.930 . S
C2758 C2754 1.524 . S
C2758 H2770 0.941 1_655 S
C2758 H2771 0.961 . S
C2758 H2772 0.961 . S
C2759 C2756 1.539 . S
C2759 H2773 0.958 . S
C2759 H2774 0.961 . S
C2759 H2775 0.983 . S
H2760 C2744 0.931 . S
H2761 C2749 0.929 . S
H2762 C2750 0.960 . S
H2763 C2750 0.962 . S
H2764 C2750 0.960 . S
H2765 C2751 0.961 . S
H2766 C2751 0.961 1_655 S
H2767 C2751 0.934 . S
H2768 C2752 0.931 . S
H2769 C2757 0.930 . S
H2770 C2758 0.941 1_455 S
H2771 C2758 0.961 . S
H2772 C2758 0.961 . S
H2773 C2759 0.958 . S
H2774 C2759 0.961 . S
H2775 C2759 0.983 . S
C2776 C2777 1.391 . S
C2776 C2778 1.394 . S
C2776 H2792 0.931 . S
C2777 C2776 1.391 . S
C2777 C2781 1.376 . S
C2778 C2776 1.394 . S
C2778 C2779 1.369 . S
C2778 C2782 1.531 . S
C2779 C2778 1.369 . S
C2779 C2780 1.410 . S
C2779 C2787 1.503 . S
C2780 C2779 1.410 . S
C2780 C2781 1.392 . S
C2780 C2783 1.511 . S
C2781 C2777 1.376 . S
C2781 C2780 1.392 . S
C2781 H2793 0.929 . S
C2782 C2778 1.531 . S
C2782 H2794 0.960 . S
C2782 H2795 0.962 . S
C2782 H2796 0.960 . S
C2783 C2780 1.511 . S
C2783 H2797 0.961 . S
C2783 H2798 0.961 . S
C2783 H2799 0.961 . S
C2784 C2785 1.370 . S
C2784 C2786 1.363 . S
C2784 H2800 0.931 . S
C2785 C2784 1.370 . S
C2785 C2789 1.408 . S
C2786 C2784 1.363 . S
C2786 C2787 1.370 . S
C2786 C2790 1.524 . S
C2787 C2779 1.503 . S
C2787 C2786 1.370 . S
C2787 C2788 1.403 . S
C2788 C2787 1.403 . S
C2788 C2789 1.404 . S
C2788 C2791 1.539 . S
C2789 C2785 1.408 . S
C2789 C2788 1.404 . S
C2789 H2801 0.930 . S
C2790 C2786 1.524 . S
C2790 H2802 0.956 . S
C2790 H2803 0.961 . S
C2790 H2804 0.961 . S
C2791 C2788 1.539 . S
C2791 H2805 0.958 . S
C2791 H2806 0.961 . S
C2791 H2807 0.960 . S
H2792 C2776 0.931 . S
H2793 C2781 0.929 . S
H2794 C2782 0.960 . S
H2795 C2782 0.962 . S
H2796 C2782 0.960 . S
H2797 C2783 0.961 . S
H2798 C2783 0.961 . S
H2799 C2783 0.961 . S
H2800 C2784 0.931 . S
H2801 C2789 0.930 . S
H2802 C2790 0.956 . S
H2803 C2790 0.961 . S
H2804 C2790 0.961 . S
H2805 C2791 0.958 . S
H2806 C2791 0.961 . S
H2807 C2791 0.960 . S
C505 C53 1.124 . S
C513 C11 1.120 . S
C537 C67 1.111 . S
C545 C25 1.116 . S
C569 C81 1.118 . S
C577 C39 1.116 . S
C601 C95 1.121 . S
C609 C137 1.119 . S
C633 C109 1.123 . S
C641 C151 1.119 . S
C665 C165 1.124 . S
C673 C123 1.120 . S
C697 C179 1.115 . S
C705 C221 1.111 . S
C729 C193 1.105 . S
C737 C235 1.111 . S
C761 C207 1.096 . S
C769 C249 1.107 . S
C793 C263 1.116 . S
C801 C305 1.111 . S
C825 C319 1.101 . S
C833 C277 1.106 . S
C857 C291 1.112 . S
C865 C333 1.109 . S
C889 C347 1.107 . S
C897 C389 1.105 . S
C921 C361 1.107 . S
C929 C403 1.110 . S
C953 C417 1.093 . S
C961 C375 1.103 . S
C985 C473 1.115 . S
C993 C431 1.113 . S
C1017 C487 1.115 . S
C1025 C445 1.112 . S
C1049 C501 1.113 . S
C1057 C459 1.111 . S
C1081 C163 1.546 . S
C1089 C5 1.542 . S
C1113 C19 1.541 . S
C1121 C135 1.545 . S
C1145 C33 1.534 . S
C1153 C149 1.539 . S
C1177 C107 1.536 . S
C1185 C47 1.540 . S
C1209 C61 1.552 . S
C1217 C121 1.551 . S
C1241 C93 1.551 . S
C1249 C75 1.546 . S
C1273 C89 1.534 . S
C1281 C79 1.541 . S
C1305 C103 1.538 . S
C1313 C51 1.542 . S
C1337 C65 1.543 . S
C1345 C117 1.540 . S
C1369 C23 1.544 . S
C1377 C131 1.546 . S
C1401 C37 1.536 . S
C1409 C145 1.540 . S
C1433 C159 1.536 . S
C1441 C9 1.548 . S
C1465 C173 1.508 . S
C1473 C331 1.521 . S
C1497 C303 1.525 . S
C1505 C187 1.519 . S
C1529 C317 1.527 . S
C1537 C201 1.523 . S
C1561 C215 1.532 . S
C1569 C275 1.543 . S
C1593 C289 1.535 . S
C1601 C229 1.536 . S
C1625 C243 1.541 . S
C1633 C261 1.542 . S
C1657 C257 1.527 . S
C1665 C247 1.538 . S
C1689 C271 1.532 . S
C1697 C219 1.540 . S
C1721 C233 1.538 . S
C1729 C285 1.539 . S
C1753 C191 1.549 . S
C1761 C299 1.555 . S
C1785 C205 1.561 . S
C1793 C313 1.561 . S
C1817 C327 1.561 . S
C1825 C177 1.563 . S
C1849 C499 1.527 . S
C1857 C341 1.533 . S
C1881 C355 1.523 . S
C1889 C471 1.537 . S
C1913 C369 1.539 . S
C1921 C485 1.543 . S
C1945 C383 1.550 . S
C1953 C443 1.561 . S
C1977 C457 1.559 . S
C1985 C397 1.557 . S
C2009 C411 1.542 . S
C2017 C429 1.558 . S
C2041 C415 1.523 . S
C2049 C425 1.522 . S
C2073 C387 1.514 . S
C2081 C439 1.515 . S
C2105 C401 1.515 . S
C2113 C453 1.517 . S
C2137 C359 1.543 . S
C2145 C467 1.541 . S
C2169 C373 1.543 . S
C2177 C481 1.541 . S
C2201 C345 1.537 . S
C2209 C495 1.541 . S
C2233 C406 1.368 . S
C2241 C0 1.362 . S
C2265 C14 1.342 . S
C2273 C378 1.355 . S
C2297 C392 1.368 . S
C2305 C28 1.353 . S
C2329 C42 1.352 . S
C2337 C182 1.345 . S
C2361 C196 1.335 . S
C2369 C56 1.339 . S
C2393 C70 1.333 . S
C2401 C168 1.339 . S
C2425 C84 1.365 . S
C2433 C322 1.355 . S
C2457 C294 1.366 . S
C2465 C98 1.356 . S
C2489 C112 1.377 . S
C2497 C308 1.362 . S
C2521 C126 1.321 . S
C2529 C434 1.341 . S
C2553 C140 1.360 . S
C2561 C448 1.353 . S
C2585 C420 1.321 . S
C2593 C154 1.341 . S
C2617 C350 1.373 . S
C2625 C210 1.363 . S
C2649 C364 1.340 . S
C2657 C224 1.355 . S
C2681 C336 1.323 . S
C2689 C238 1.347 . S
C2713 C252 1.371 . S
C2721 C490 1.358 . S
C2745 C462 1.378 . S
C2753 C266 1.363 . S
C2777 C280 1.358 . S
C2785 C476 1.352 . S
