# Generated by pormake.
# Topology wmg, (6)-cn, num edge types: 1
# Building blocks:
#     Node 0, Type 0, BuildingBlock: VOLQOD_clean_sbu_1, # of connection points: 6
#     Node 1, Type 0, BuildingBlock: VOLQOD_clean_sbu_1, # of connection points: 6
#     Node 2, Type 0, BuildingBlock: VOLQOD_clean_sbu_1, # of connection points: 6
#     Node 3, Type 0, BuildingBlock: VOLQOD_clean_sbu_1, # of connection points: 6
#     Node 4, Type 0, BuildingBlock: VOLQOD_clean_sbu_1, # of connection points: 6
#     Node 5, Type 0, BuildingBlock: VOLQOD_clean_sbu_1, # of connection points: 6
#     Node 6, Type 0, BuildingBlock: VOLQOD_clean_sbu_1, # of connection points: 6
#     Node 7, Type 0, BuildingBlock: VOLQOD_clean_sbu_1, # of connection points: 6
#     Node 8, Type 0, BuildingBlock: VOLQOD_clean_sbu_1, # of connection points: 6
#     Node 9, Type 0, BuildingBlock: VOLQOD_clean_sbu_1, # of connection points: 6
#     Node 10, Type 0, BuildingBlock: VOLQOD_clean_sbu_1, # of connection points: 6
#     Node 11, Type 0, BuildingBlock: VOLQOD_clean_sbu_1, # of connection points: 6
#     Node 12, Type 0, BuildingBlock: VOLQOD_clean_sbu_1, # of connection points: 6
#     Node 13, Type 0, BuildingBlock: VOLQOD_clean_sbu_1, # of connection points: 6
#     Node 14, Type 0, BuildingBlock: VOLQOD_clean_sbu_1, # of connection points: 6
#     Node 15, Type 0, BuildingBlock: VOLQOD_clean_sbu_1, # of connection points: 6
#     Node 16, Type 0, BuildingBlock: VOLQOD_clean_sbu_1, # of connection points: 6
#     Node 17, Type 0, BuildingBlock: VOLQOD_clean_sbu_1, # of connection points: 6
#     Edge 18, Type (0, 0), BuildingBlock: EZIPEK_clean_linker_0, # of connection points: 2
#     Edge 19, Type (0, 0), BuildingBlock: EZIPEK_clean_linker_0, # of connection points: 2
#     Edge 20, Type (0, 0), BuildingBlock: EZIPEK_clean_linker_0, # of connection points: 2
#     Edge 21, Type (0, 0), BuildingBlock: EZIPEK_clean_linker_0, # of connection points: 2
#     Edge 22, Type (0, 0), BuildingBlock: EZIPEK_clean_linker_0, # of connection points: 2
#     Edge 23, Type (0, 0), BuildingBlock: EZIPEK_clean_linker_0, # of connection points: 2
#     Edge 24, Type (0, 0), BuildingBlock: EZIPEK_clean_linker_0, # of connection points: 2
#     Edge 25, Type (0, 0), BuildingBlock: EZIPEK_clean_linker_0, # of connection points: 2
#     Edge 26, Type (0, 0), BuildingBlock: EZIPEK_clean_linker_0, # of connection points: 2
#     Edge 27, Type (0, 0), BuildingBlock: EZIPEK_clean_linker_0, # of connection points: 2
#     Edge 28, Type (0, 0), BuildingBlock: EZIPEK_clean_linker_0, # of connection points: 2
#     Edge 29, Type (0, 0), BuildingBlock: EZIPEK_clean_linker_0, # of connection points: 2
#     Edge 30, Type (0, 0), BuildingBlock: EZIPEK_clean_linker_0, # of connection points: 2
#     Edge 31, Type (0, 0), BuildingBlock: EZIPEK_clean_linker_0, # of connection points: 2
#     Edge 32, Type (0, 0), BuildingBlock: EZIPEK_clean_linker_0, # of connection points: 2
#     Edge 33, Type (0, 0), BuildingBlock: EZIPEK_clean_linker_0, # of connection points: 2
#     Edge 34, Type (0, 0), BuildingBlock: EZIPEK_clean_linker_0, # of connection points: 2
#     Edge 35, Type (0, 0), BuildingBlock: EZIPEK_clean_linker_0, # of connection points: 2
#     Edge 36, Type (0, 0), BuildingBlock: EZIPEK_clean_linker_0, # of connection points: 2
#     Edge 37, Type (0, 0), BuildingBlock: EZIPEK_clean_linker_0, # of connection points: 2
#     Edge 38, Type (0, 0), BuildingBlock: EZIPEK_clean_linker_0, # of connection points: 2
#     Edge 39, Type (0, 0), BuildingBlock: EZIPEK_clean_linker_0, # of connection points: 2
#     Edge 40, Type (0, 0), BuildingBlock: EZIPEK_clean_linker_0, # of connection points: 2
#     Edge 41, Type (0, 0), BuildingBlock: EZIPEK_clean_linker_0, # of connection points: 2
#     Edge 42, Type (0, 0), BuildingBlock: EZIPEK_clean_linker_0, # of connection points: 2
#     Edge 43, Type (0, 0), BuildingBlock: EZIPEK_clean_linker_0, # of connection points: 2
#     Edge 44, Type (0, 0), BuildingBlock: EZIPEK_clean_linker_0, # of connection points: 2
#     Edge 45, Type (0, 0), BuildingBlock: EZIPEK_clean_linker_0, # of connection points: 2
#     Edge 46, Type (0, 0), BuildingBlock: EZIPEK_clean_linker_0, # of connection points: 2
#     Edge 47, Type (0, 0), BuildingBlock: EZIPEK_clean_linker_0, # of connection points: 2
#     Edge 48, Type (0, 0), BuildingBlock: EZIPEK_clean_linker_0, # of connection points: 2
#     Edge 49, Type (0, 0), BuildingBlock: EZIPEK_clean_linker_0, # of connection points: 2
#     Edge 50, Type (0, 0), BuildingBlock: EZIPEK_clean_linker_0, # of connection points: 2
#     Edge 51, Type (0, 0), BuildingBlock: EZIPEK_clean_linker_0, # of connection points: 2
#     Edge 52, Type (0, 0), BuildingBlock: EZIPEK_clean_linker_0, # of connection points: 2
#     Edge 53, Type (0, 0), BuildingBlock: EZIPEK_clean_linker_0, # of connection points: 2
#     Edge 54, Type (0, 0), BuildingBlock: EZIPEK_clean_linker_0, # of connection points: 2
#     Edge 55, Type (0, 0), BuildingBlock: EZIPEK_clean_linker_0, # of connection points: 2
#     Edge 56, Type (0, 0), BuildingBlock: EZIPEK_clean_linker_0, # of connection points: 2
#     Edge 57, Type (0, 0), BuildingBlock: EZIPEK_clean_linker_0, # of connection points: 2
#     Edge 58, Type (0, 0), BuildingBlock: EZIPEK_clean_linker_0, # of connection points: 2
#     Edge 59, Type (0, 0), BuildingBlock: EZIPEK_clean_linker_0, # of connection points: 2
#     Edge 60, Type (0, 0), BuildingBlock: EZIPEK_clean_linker_0, # of connection points: 2
#     Edge 61, Type (0, 0), BuildingBlock: EZIPEK_clean_linker_0, # of connection points: 2
#     Edge 62, Type (0, 0), BuildingBlock: EZIPEK_clean_linker_0, # of connection points: 2
#     Edge 63, Type (0, 0), BuildingBlock: EZIPEK_clean_linker_0, # of connection points: 2
#     Edge 64, Type (0, 0), BuildingBlock: EZIPEK_clean_linker_0, # of connection points: 2
#     Edge 65, Type (0, 0), BuildingBlock: EZIPEK_clean_linker_0, # of connection points: 2
#     Edge 66, Type (0, 0), BuildingBlock: EZIPEK_clean_linker_0, # of connection points: 2
#     Edge 67, Type (0, 0), BuildingBlock: EZIPEK_clean_linker_0, # of connection points: 2
#     Edge 68, Type (0, 0), BuildingBlock: EZIPEK_clean_linker_0, # of connection points: 2
#     Edge 69, Type (0, 0), BuildingBlock: EZIPEK_clean_linker_0, # of connection points: 2
#     Edge 70, Type (0, 0), BuildingBlock: EZIPEK_clean_linker_0, # of connection points: 2
#     Edge 71, Type (0, 0), BuildingBlock: EZIPEK_clean_linker_0, # of connection points: 2
# Relax obj value: 0.414
# Max RMSD: 0.275
# Mean RMSD: 0.275
data_MOF--net-wmg--node1-VOLQOD_clean_sbu_1--edge1-EZIPEK_clean_linker_0
_symmetry_space_group_name_H-M    P1
_symmetry_Int_Tables_number       1
_symmetry_cell_setting            triclinic
loop_
_symmetry_equiv_pos_as_xyz
'x, y, z'
_cell_length_a     48.233319
_cell_length_b     48.19973
_cell_length_c     20.182365
_cell_angle_alpha  89.921191
_cell_angle_beta   89.998985
_cell_angle_gamma 120.14402
loop_
_atom_site_label
_atom_site_type_symbol
_atom_site_fract_x
_atom_site_fract_y
_atom_site_fract_z
_atom_type_partial_charge
O0 O 0.16245 0.31233 0.01101 0.0
Zn1 Zn 0.19176 0.30767 0.07548 0.0
O2 O 0.1856 0.26478 0.07527 0.0
Zn3 Zn 0.1681 0.24305 0.15793 0.0
Zn4 Zn 0.15672 0.24412 0.0051 0.0
Zn5 Zn 0.22326 0.26378 0.05242 0.0
O6 O 0.19703 0.22735 0.19781 0.0
O7 O 0.24059 0.25681 0.13572 0.0
O8 O 0.18689 0.32081 0.16869 0.0
O9 O 0.17193 0.27542 0.22392 0.0
O10 O 0.11923 0.21334 0.14775 0.0
O11 O 0.11374 0.22329 0.04187 0.0
O12 O 0.16297 0.2115 0.95896 0.0
O13 O 0.23433 0.33727 0.0336 0.0
O14 O 0.21256 0.22613 0.99034 0.0
O15 O 0.25521 0.30629 0.0121 0.0
C16 C 0.1586 0.30139 0.95224 0.0
C17 C 0.22723 0.24014 0.1873 0.0
C18 C 0.10184 0.21116 0.09779 0.0
C19 C 0.17874 0.30452 0.22239 0.0
C20 C 0.18701 0.2075 0.95835 0.0
C21 C 0.25616 0.33319 0.00796 0.0
O22 O 0.16079 0.27666 0.94124 0.0
O23 O 0.69103 0.84846 0.95487 0.0
Zn24 Zn 0.68093 0.86885 0.02969 0.0
O25 O 0.71865 0.90827 0.05459 0.0
Zn26 Zn 0.73107 0.90674 0.14426 0.0
Zn27 Zn 0.75229 0.91346 -0.00159 0.0
Zn28 Zn 0.71367 0.94415 0.03708 0.0
O29 O 0.73959 0.94664 0.19465 0.0
O30 O 0.71862 0.96646 0.12303 0.0
O31 O 0.66112 0.8398 0.10887 0.0
O32 O 0.69392 0.87061 0.18913 0.0
O33 O 0.76515 0.89373 0.14701 0.0
O34 O 0.77259 0.89094 0.03911 0.0
O35 O 0.78383 0.95967 0.98173 0.0
O36 O 0.64821 0.87792 0.9899 0.0
O37 O 0.74762 0.97474 0.97205 0.0
O38 O 0.67013 0.93057 0.0011 0.0
C39 C 0.70852 0.86432 0.90592 0.0
C40 C 0.72978 0.96607 0.18005 0.0
C41 C 0.77648 0.88532 0.09894 0.0
C42 C 0.66895 0.84536 0.16977 0.0
C43 C 0.77613 0.98019 0.96361 0.0
C44 C 0.64714 0.90356 0.98244 0.0
O45 O 0.73262 0.89232 0.91274 0.0
O46 O 0.13433 0.84872 0.97058 0.0
Zn47 Zn 0.11532 0.82393 0.05368 0.0
O48 O 0.07415 0.82017 0.06788 0.0
Zn49 Zn 0.07095 0.83281 0.15612 0.0
Zn50 Zn 0.06958 0.84818 0.00973 0.0
Zn51 Zn 0.04065 0.77905 0.04104 0.0
O52 O 0.03229 0.79607 0.2016 0.0
O53 O 0.01559 0.75825 0.12346 0.0
O54 O 0.14372 0.83983 0.13428 0.0
O55 O 0.10754 0.83638 0.2073 0.0
O56 O 0.07904 0.87902 0.15786 0.0
O57 O 0.09 0.89068 0.0509 0.0
O58 O 0.02354 0.83263 0.98926 0.0
O59 O 0.11038 0.7812 0.03173 0.0
O60 O 0.011 0.78224 0.974 0.0
O61 O 0.05885 0.75245 0.00425 0.0
C62 C 0.1192 0.85099 0.92101 0.0
C63 C 0.01424 0.76709 0.18244 0.0
C64 C 0.09077 0.89944 0.11055 0.0
C65 C 0.13513 0.84074 0.19351 0.0
C66 C 0.0044 0.80461 0.96764 0.0
C67 C 0.08692 0.75613 0.00717 0.0
O68 O 0.09225 0.84953 0.92686 0.0
O69 O 0.81152 0.67618 0.96806 0.0
Zn70 Zn 0.78575 0.68382 0.90054 0.0
O71 O 0.7943 0.72727 0.90573 0.0
Zn72 Zn 0.81645 0.75036 0.82713 0.0
Zn73 Zn 0.81957 0.74503 0.98207 0.0
Zn74 Zn 0.7565 0.72895 0.92247 0.0
O75 O 0.7884 0.7642 0.7782 0.0
O76 O 0.74228 0.73518 0.83376 0.0
O77 O 0.7948 0.67241 0.81084 0.0
O78 O 0.81778 0.7202 0.76206 0.0
O79 O 0.86449 0.77981 0.8463 0.0
O80 O 0.86387 0.76583 0.95189 0.0
O81 O 0.8124 0.77732 0.02733 0.0
O82 O 0.74101 0.65389 0.92996 0.0
O83 O 0.76621 0.76693 0.98193 0.0
O84 O 0.7244 0.68685 0.96606 0.0
C85 C 0.81402 0.68531 0.02793 0.0
C86 C 0.75787 0.75133 0.783 0.0
C87 C 0.87897 0.77909 0.8989 0.0
C88 C 0.80854 0.6905 0.76126 0.0
C89 C 0.78981 0.78335 0.02065 0.0
C90 C 0.72121 0.65894 0.96174 0.0
O91 O 0.81289 0.71023 0.0439 0.0
O92 O 0.30182 0.14288 0.00103 0.0
Zn93 Zn 0.29684 0.11097 0.93241 0.0
O94 O 0.25293 0.07629 0.92874 0.0
Zn95 Zn 0.23646 0.0745 0.84034 0.0
Zn96 Zn 0.22896 0.08485 0.99173 0.0
Zn97 Zn 0.24968 0.0367 0.95645 0.0
O98 O 0.22991 0.0341 0.79454 0.0
O99 O 0.24593 0.01276 0.87346 0.0
O100 O 0.31401 0.1332 0.84534 0.0
O101 O 0.27027 0.10806 0.78333 0.0
O102 O 0.2024 0.08807 0.84017 0.0
O103 O 0.20966 0.10625 0.94409 0.0
O104 O 0.19424 0.04542 0.03572 0.0
O105 O 0.32495 0.09485 0.9658 0.0
O106 O 0.21011 0.0104 0.01366 0.0
O107 O 0.29071 0.04592 0.00403 0.0
C108 C 0.28586 0.13882 0.05397 0.0
C109 C 0.23807 0.01387 0.81358 0.0
C110 C 0.19893 0.10448 0.88586 0.0
C111 C 0.29955 0.12913 0.79048 0.0
C112 C 0.19037 0.01739 0.0401 0.0
C113 C 0.31911 0.06982 -0.00189 0.0
O114 O 0.25803 0.11448 0.06037 0.0
O115 O 0.85347 0.16888 0.98666 0.0
Zn116 Zn 0.8837 0.19458 0.91324 0.0
O117 O 0.91946 0.18718 0.91002 0.0
Zn118 Zn 0.91824 0.16602 0.82828 0.0
Zn119 Zn 0.91428 0.16082 0.98409 0.0
Zn120 Zn 0.95922 0.22503 0.92633 0.0
O121 O 0.96208 0.19188 0.78251 0.0
O122 O 0.98205 0.23777 0.84016 0.0
O123 O 0.8596 0.18467 0.82712 0.0
O124 O 0.8864 0.16747 0.76627 0.0
O125 O 0.89712 0.11743 0.8453 0.0
O126 O 0.88827 0.11673 0.95388 0.0
O127 O 0.95438 0.16677 0.02388 0.0
O128 O 0.89932 0.23976 0.94119 0.0
O129 O 0.9873 0.21608 0.98778 0.0
O130 O 0.95085 0.25888 0.96578 0.0
C131 C 0.86315 0.16709 0.04429 0.0
C132 C 0.98259 0.22176 0.79041 0.0
C133 C 0.8836 0.10236 0.89877 0.0
C134 C 0.86408 0.17402 0.77292 0.0
C135 C 0.98209 0.19138 0.02103 0.0
C136 C 0.92576 0.26145 0.96526 0.0
O137 O 0.88989 0.16848 0.05317 0.0
O138 O 0.83067 0.63866 0.31182 0.0
Zn139 Zn 0.85417 0.63575 0.3909 0.0
O140 O 0.84825 0.59333 0.40097 0.0
Zn141 Zn 0.82851 0.57483 0.48469 0.0
Zn142 Zn 0.81977 0.56877 0.3323 0.0
Zn143 Zn 0.88698 0.59225 0.38923 0.0
O144 O 0.85611 0.56218 0.53875 0.0
O145 O 0.90133 0.58754 0.4795 0.0
O146 O 0.8422 0.65067 0.47397 0.0
O147 O 0.82904 0.60887 0.54007 0.0
O148 O 0.78026 0.54444 0.4734 0.0
O149 O 0.77574 0.55103 0.36539 0.0
O150 O 0.82716 0.53451 0.30105 0.0
O151 O 0.89932 0.66564 0.36434 0.0
O152 O 0.878 0.55352 0.33112 0.0
O153 O 0.9211 0.63488 0.35102 0.0
C154 C 0.82577 0.6231 0.25808 0.0
C155 C 0.88635 0.57376 0.53248 0.0
C156 C 0.76329 0.54144 0.42227 0.0
C157 C 0.83345 0.63679 0.53011 0.0
C158 C 0.85239 0.53251 0.30211 0.0
C159 C 0.92249 0.66198 0.34575 0.0
O160 O 0.82507 0.59647 0.2559 0.0
O161 O 0.35183 0.18078 0.33734 0.0
Zn162 Zn 0.35761 0.21208 0.40879 0.0
O163 O 0.40068 0.24797 0.40791 0.0
Zn164 Zn 0.42173 0.25297 0.49179 0.0
Zn165 Zn 0.42325 0.23966 0.34222 0.0
Zn166 Zn 0.40082 0.2856 0.37925 0.0
O167 O 0.43687 0.29824 0.52655 0.0
O168 O 0.40789 0.31139 0.46056 0.0
O169 O 0.34545 0.19156 0.4987 0.0
O170 O 0.38908 0.22356 0.55767 0.0
O171 O 0.45326 0.23586 0.4861 0.0
O172 O 0.4423 0.21634 0.38325 0.0
O173 O 0.45795 0.27937 0.3006 0.0
O174 O 0.32628 0.22548 0.38064 0.0
O175 O 0.43898 0.31224 0.31836 0.0
O176 O 0.3579 0.27388 0.33702 0.0
C177 C 0.36547 0.18775 0.28084 0.0
C178 C 0.42464 0.3158 0.51253 0.0
C179 C 0.4548 0.21853 0.43978 0.0
C180 C 0.36059 0.20002 0.55343 0.0
C181 C 0.46012 0.30658 0.29421 0.0
C182 C 0.33015 0.24952 0.34712 0.0
O183 O 0.39246 0.21309 0.27378 0.0
O184 O 0.79649 0.14845 0.33655 0.0
Zn185 Zn 0.76332 0.12266 0.40569 0.0
O186 O 0.72927 0.13246 0.40381 0.0
Zn187 Zn 0.7275 0.15211 0.48524 0.0
Zn188 Zn 0.73875 0.16119 0.33255 0.0
Zn189 Zn 0.68951 0.09615 0.3807 0.0
O190 O 0.68292 0.12467 0.52691 0.0
O191 O 0.665 0.0807 0.46424 0.0
O192 O 0.7844 0.13082 0.49479 0.0
O193 O 0.75959 0.15226 0.54918 0.0
O194 O 0.74523 0.20004 0.4703 0.0
O195 O 0.76528 0.20459 0.36849 0.0
O196 O 0.70016 0.15827 0.28994 0.0
O197 O 0.74651 0.07739 0.3766 0.0
O198 O 0.664 0.10856 0.31896 0.0
O199 O 0.69721 0.06225 0.34045 0.0
C200 C 0.78915 0.15214 0.27794 0.0
C201 C 0.66307 0.09494 0.51573 0.0
C202 C 0.76347 0.21693 0.42272 0.0
C203 C 0.78061 0.14371 0.54638 0.0
C204 C 0.67167 0.13473 0.28878 0.0
C205 C 0.7208 0.05748 0.34712 0.0
O206 O 0.7637 0.15294 0.26603 0.0
O207 O 0.49253 0.01056 0.31642 0.0
Zn208 Zn 0.46633 0.01746 0.24808 0.0
O209 O 0.47282 0.06018 0.25399 0.0
Zn210 Zn 0.48761 0.08249 0.17084 0.0
Zn211 Zn 0.50372 0.08209 0.32019 0.0
Zn212 Zn 0.43504 0.05878 0.28581 0.0
O213 O 0.45288 0.09092 0.13427 0.0
O214 O 0.41316 0.06266 0.20654 0.0
O215 O 0.4739 0.0069 0.15607 0.0
O216 O 0.48889 0.05292 0.10362 0.0
O217 O 0.53515 0.11763 0.17744 0.0
O218 O 0.54544 0.10401 0.27644 0.0
O219 O 0.49746 0.11491 0.3673 0.0
O220 O 0.42194 0.98538 0.27592 0.0
O221 O 0.44603 0.09687 0.34603 0.0
O222 O 0.40627 0.01575 0.32893 0.0
C223 C 0.50018 0.02341 0.37358 0.0
C224 C 0.42333 0.07733 0.15161 0.0
C225 C 0.55481 0.11874 0.22151 0.0
C226 C 0.48266 0.02401 0.10377 0.0
C227 C 0.47253 0.11735 0.37257 0.0
C228 C 0.40268 0.98838 0.31416 0.0
O229 O 0.5019 0.05023 0.38391 0.0
O230 O 0.95968 0.47189 0.35301 0.0
Zn231 Zn 0.96364 0.44528 0.28204 0.0
O232 O 0.92344 0.40641 0.26564 0.0
Zn233 Zn 0.90801 0.40556 0.17678 0.0
Zn234 Zn 0.8943 0.40744 0.32634 0.0
Zn235 Zn 0.9256 0.36891 0.28533 0.0
O236 O 0.89921 0.36471 0.12861 0.0
O237 O 0.92315 0.34781 0.19932 0.0
O238 O 0.98172 0.47078 0.19873 0.0
O239 O 0.94349 0.44097 0.12592 0.0
O240 O 0.87354 0.41843 0.17613 0.0
O241 O 0.87387 0.42879 0.28364 0.0
O242 O 0.86223 0.36493 0.35949 0.0
O243 O -0.00503 0.4344 0.32106 0.0
O244 O 0.88829 0.33859 0.34618 0.0
O245 O 0.96848 0.3812 0.32559 0.0
C246 C 0.94244 0.46026 0.40447 0.0
C247 C 0.91114 0.34696 0.14263 0.0
C248 C 0.86622 0.43067 0.22437 0.0
C249 C 0.97047 0.4652 0.14015 0.0
C250 C 0.8647 0.34041 0.37035 0.0
C251 C -0.0064 0.40818 0.33656 0.0
O252 O 0.91743 0.43278 0.40451 0.0
O253 O 0.50578 0.47514 0.31858 0.0
Zn254 Zn 0.53642 0.50674 0.25284 0.0
O255 O 0.57669 0.50725 0.25369 0.0
Zn256 Zn 0.58449 0.49286 0.17065 0.0
Zn257 Zn 0.57333 0.47897 0.32183 0.0
Zn258 Zn 0.61085 0.5483 0.27727 0.0
O259 O 0.62748 0.527 0.13241 0.0
O260 O 0.63373 0.5685 0.19317 0.0
O261 O 0.51783 0.49924 0.16174 0.0
O262 O 0.55336 0.49209 0.10493 0.0
O263 O 0.57308 0.44573 0.17757 0.0
O264 O 0.55616 0.43625 0.28244 0.0
O265 O 0.61507 0.49263 0.3671 0.0
O266 O 0.54232 0.54825 0.28677 0.0
O267 O 0.6411 0.54406 0.34112 0.0
O268 O 0.59355 0.57485 0.31778 0.0
C269 C 0.51456 0.47367 0.37727 0.0
C270 C 0.63999 0.55724 0.14182 0.0
C271 C 0.55859 0.42638 0.22554 0.0
C272 C 0.52834 0.49447 0.1077 0.0
C273 C 0.63948 0.52042 0.37325 0.0
C274 C 0.56591 0.57215 0.3142 0.0
O275 O 0.54262 0.47833 0.38735 0.0
O276 O 0.46074 0.95027 0.65305 0.0
Zn277 Zn 0.4945 0.95755 0.71875 0.0
O278 O 0.49567 0.91864 0.72717 0.0
Zn279 Zn 0.48282 0.9007 0.81419 0.0
Zn280 Zn 0.4659 0.8892 0.66633 0.0
Zn281 Zn 0.53504 0.92404 0.6953 0.0
O282 O 0.51606 0.89072 0.8504 0.0
O283 O 0.55373 0.913 0.77172 0.0
O284 O 0.48851 0.97285 0.80694 0.0
O285 O 0.48571 0.93481 0.87403 0.0
O286 O 0.43491 0.86676 0.81562 0.0
O287 O 0.42355 0.86845 0.70921 0.0
O288 O 0.47863 0.85696 0.6386 0.0
O289 O 0.53564 0.99271 0.68064 0.0
O290 O 0.52876 0.89407 0.61943 0.0
O291 O 0.56506 0.96951 0.66597 0.0
C292 C 0.4609 0.93927 0.59589 0.0
C293 C 0.54428 0.89991 0.82852 0.0
C294 C 0.41467 0.86027 0.76883 0.0
C295 C 0.48684 0.96144 0.86467 0.0
C296 C 0.50599 0.86522 0.61403 0.0
C297 C 0.56151 0.99392 0.66295 0.0
O298 O 0.46634 0.91606 0.59056 0.0
O299 O -0.00351 0.52506 0.69417 0.0
Zn300 Zn 0.01138 0.55543 0.77076 0.0
O301 O 0.0552 0.58799 0.75607 0.0
Zn302 Zn 0.08077 0.59238 0.8323 0.0
Zn303 Zn 0.07203 0.57831 0.68107 0.0
Zn304 Zn 0.0549 0.62566 0.73175 0.0
O305 O 0.09915 0.63793 0.86704 0.0
O306 O 0.06651 0.65159 0.81476 0.0
O307 O 0.00539 0.53308 0.85783 0.0
O308 O 0.05253 0.56506 0.90554 0.0
O309 O 0.10806 0.57104 0.81524 0.0
O310 O 0.09144 0.55383 0.71255 0.0
O311 O 0.10524 0.61705 0.63401 0.0
O312 O 0.98219 0.57389 0.76759 0.0
O313 O 0.09045 0.65177 0.66591 0.0
O314 O 0.01031 0.61206 0.69463 0.0
C315 C 0.00794 0.52911 0.63586 0.0
C316 C 0.0867 0.65584 0.86027 0.0
C317 C 0.10559 0.55352 0.76539 0.0
C318 C 0.02403 0.54157 0.90764 0.0
C319 C 0.1089 0.64501 0.63324 0.0
C320 C 0.98329 0.59106 0.71881 0.0
O321 O 0.03628 0.55092 0.6214 0.0
O322 O 0.48207 0.51531 0.65395 0.0
Zn323 Zn 0.4537 0.48173 0.71845 0.0
O324 O 0.41432 0.48234 0.72619 0.0
Zn325 Zn 0.41009 0.49558 0.81341 0.0
Zn326 Zn 0.41721 0.51322 0.6648 0.0
Zn327 Zn 0.37871 0.4433 0.69584 0.0
O328 O 0.36834 0.46135 0.8539 0.0
O329 O 0.3506 0.42376 0.77523 0.0
O330 O 0.4751 0.48682 0.80624 0.0
O331 O 0.44231 0.49423 0.87174 0.0
O332 O 0.42316 0.5432 0.8145 0.0
O333 O 0.43909 0.55499 0.70927 0.0
O334 O 0.37359 0.50348 0.6345 0.0
O335 O 0.44564 0.44027 0.67932 0.0
O336 O 0.3534 0.45111 0.62563 0.0
O337 O 0.39303 0.41324 0.6606 0.0
C338 C 0.47187 0.5163 0.59643 0.0
C339 C 0.3488 0.43292 0.83361 0.0
C340 C 0.4381 0.56356 0.76834 0.0
C341 C 0.46664 0.49109 0.8632 0.0
C342 C 0.3514 0.47615 0.61535 0.0
C343 C 0.42052 0.41556 0.65854 0.0
O344 O 0.4438 0.51229 0.59004 0.0
O345 O 0.18264 0.37131 0.67993 0.0
Zn346 Zn 0.15303 0.3648 0.6054 0.0
O347 O 0.14936 0.40245 0.59727 0.0
Zn348 Zn 0.16234 0.41972 0.50941 0.0
Zn349 Zn 0.17694 0.4335 0.65936 0.0
Zn350 Zn 0.10847 0.39451 0.62618 0.0
O351 O 0.12748 0.42662 0.46939 0.0
O352 O 0.08955 0.40316 0.54712 0.0
O353 O 0.16595 0.35268 0.51991 0.0
O354 O 0.16272 0.38681 0.45052 0.0
O355 O 0.2103 0.45411 0.50989 0.0
O356 O 0.21937 0.45702 0.61839 0.0
O357 O 0.1612 0.46327 0.68572 0.0
O358 O 0.11094 0.32697 0.63288 0.0
O359 O 0.11097 0.42478 0.699 0.0
O360 O 0.08039 0.34834 0.65468 0.0
C361 C 0.18598 0.38612 0.73431 0.0
C362 C 0.0987 0.41579 0.4899 0.0
C363 C 0.22962 0.46297 0.5591 0.0
C364 C 0.16642 0.36293 0.46151 0.0
C365 C 0.13301 0.45386 0.70673 0.0
C366 C 0.08474 0.32437 0.65299 0.0
O367 O 0.18001 0.40905 0.73707 0.0
O368 O 0.64508 0.80341 0.61841 0.0
Zn369 Zn 0.62973 0.76982 0.54715 0.0
O370 O 0.58681 0.73632 0.56719 0.0
Zn371 Zn 0.55896 0.72758 0.49235 0.0
Zn372 Zn 0.57091 0.74756 0.64151 0.0
Zn373 Zn 0.58904 0.70028 0.59549 0.0
O374 O 0.54188 0.68116 0.46377 0.0
O375 O 0.57839 0.67304 0.51543 0.0
O376 O 0.63312 0.78729 0.45529 0.0
O377 O 0.58499 0.75272 0.41454 0.0
O378 O 0.5299 0.74702 0.5075 0.0
O379 O 0.54874 0.76877 0.60662 0.0
O380 O 0.53998 0.70988 0.69494 0.0
O381 O 0.66097 0.75396 0.55464 0.0
O382 O 0.55445 0.6748 0.66398 0.0
O383 O 0.63435 0.71558 0.62868 0.0
C384 C 0.63537 0.80019 0.67814 0.0
C385 C 0.55724 0.666 0.47054 0.0
C386 C 0.53263 0.76597 0.55469 0.0
C387 C 0.61323 0.77629 0.40753 0.0
C388 C 0.53649 0.68199 0.69743 0.0
C389 C 0.66077 0.73688 0.60283 0.0
O390 O 0.60782 0.77789 0.69615 0.0
O391 O 0.17449 0.8357 0.63866 0.0
Zn392 Zn 0.21102 0.86193 0.57819 0.0
O393 O 0.24316 0.84966 0.58438 0.0
Zn394 Zn 0.2462 0.8303 0.50294 0.0
Zn395 Zn 0.23095 0.81988 0.65528 0.0
Zn396 Zn 0.28329 0.88614 0.60631 0.0
O397 O 0.29097 0.8559 0.46358 0.0
O398 O 0.30772 0.90058 0.52289 0.0
O399 O 0.19617 0.85996 0.48463 0.0
O400 O 0.21909 0.83527 0.43495 0.0
O401 O 0.22662 0.78188 0.51406 0.0
O402 O 0.20775 0.77639 0.61722 0.0
O403 O 0.26923 0.82463 0.70427 0.0
O404 O 0.22716 0.90519 0.61697 0.0
O405 O 0.30722 0.87284 0.6699 0.0
O406 O 0.27783 0.92235 0.6424 0.0
C407 C 0.17893 0.83069 0.69856 0.0
C408 C 0.30981 0.88595 0.47241 0.0
C409 C 0.20942 0.76449 0.56219 0.0
C410 C 0.20156 0.848 0.43344 0.0
C411 C 0.29826 0.84732 0.70375 0.0
C412 C 0.25346 0.92607 0.64286 0.0
O413 O 0.2021 0.82663 0.71527 0.0
C414 C 0.16002 0.12129 0.90978 0.0
C415 C 0.18673 0.12642 0.87205 0.0
C416 C 0.20654 0.18423 0.87138 0.0
C417 C 0.1844 0.17947 0.92254 0.0
N418 N 0.13954 0.14304 0.99156 0.0
N419 N 0.23378 0.16177 0.80926 0.0
C420 C 0.16031 0.14784 0.94083 0.0
C421 C 0.20898 0.15758 0.84879 0.0
N422 N 0.1354 0.09063 0.91854 0.0
N423 N 0.22502 0.21409 0.84458 0.0
H424 H 0.23503 0.14242 0.78963 0.0
H425 H 0.25333 0.18409 0.79749 0.0
H426 H 0.22345 0.23392 0.86 0.0
H427 H 0.23977 0.21869 0.80351 0.0
H428 H 0.11384 0.08491 0.94152 0.0
H429 H 0.13578 0.0712 0.89657 0.0
H430 H 0.12377 0.12053 0.01125 0.0
H431 H 0.13961 0.16161 0.018 0.0
C432 C 0.82584 0.01218 0.89366 0.0
C433 C 0.80114 0.01123 0.9344 0.0
C434 C 0.82585 0.06919 0.92075 0.0
C435 C 0.85403 0.07067 0.89605 0.0
N436 N 0.88151 0.04355 0.8589 0.0
N437 N 0.78165 0.04173 -0.00454 0.0
C438 C 0.85421 0.04214 0.88171 0.0
C439 C 0.8018 0.04042 0.94951 0.0
N440 N 0.82177 0.98483 0.86451 0.0
N441 N 0.82265 0.09578 0.91873 0.0
H442 H 0.76502 0.02228 0.02305 0.0
H443 H 0.78411 0.0633 0.01229 0.0
H444 H 0.84014 0.11742 0.898 0.0
H445 H 0.80138 0.09525 0.93096 0.0
H446 H 0.83807 0.98473 0.83079 0.0
H447 H 0.80035 0.96297 0.86768 0.0
H448 H 0.88401 0.02338 0.85445 0.0
H449 H 0.90222 0.06527 0.84815 0.0
C450 C 0.93903 0.81571 0.88626 0.0
C451 C 0.9121 0.78491 0.89635 0.0
C452 C 0.94522 0.76704 0.95145 0.0
C453 C 0.97299 0.79727 0.93891 0.0
N454 N -0.00321 0.8464 0.87438 0.0
N455 N 0.89236 0.72844 0.91273 0.0
C456 C 0.97015 0.8205 0.89999 0.0
C457 C 0.91642 0.75957 0.91917 0.0
N458 N 0.93498 0.84044 0.86603 0.0
N459 N 0.94503 0.74658 -0.00127 0.0
H460 H 0.87083 0.72225 0.88875 0.0
H461 H 0.89532 0.70903 0.92482 0.0
H462 H 0.96381 0.75263 0.0317 0.0
H463 H 0.92436 0.72529 0.01163 0.0
H464 H 0.95363 0.8642 0.86484 0.0
H465 H 0.91251 0.83727 0.8542 0.0
H466 H -0.00436 0.86263 0.84194 0.0
H467 H 0.01971 0.8495 0.8791 0.0
C468 C 0.8162 0.84267 0.03901 0.0
C469 C 0.79196 0.81104 0.05665 0.0
C470 C 0.76933 0.8328 0.13599 0.0
C471 C 0.7896 0.86367 0.10893 0.0
N472 N 0.83934 0.90009 0.05725 0.0
N473 N 0.74748 0.77525 0.12596 0.0
C474 C 0.81569 0.86917 0.06838 0.0
C475 C 0.7694 0.80588 0.10727 0.0
N476 N 0.83793 0.84729 0.99046 0.0
N477 N 0.7506 0.82952 0.18953 0.0
H478 H 0.7481 0.7552 0.1085 0.0
H479 H 0.728 0.76941 0.15676 0.0
H480 H 0.75195 0.84917 0.21394 0.0
H481 H 0.73657 0.80802 0.21458 0.0
H482 H 0.85416 0.86961 0.97076 0.0
H483 H 0.83876 0.82856 0.96662 0.0
H484 H 0.8605 0.90655 0.03181 0.0
H485 H 0.83866 0.91936 0.07924 0.0
C486 C 0.13056 0.98155 0.05063 0.0
C487 C 0.16188 0.99206 0.07543 0.0
C488 C 0.14022 0.94711 0.15406 0.0
C489 C 0.10998 0.93448 0.12255 0.0
N490 N 0.07325 0.94477 0.06319 0.0
N491 N 0.19511 0.99151 0.16374 0.0
C492 C 0.10418 0.95396 0.07912 0.0
C493 C 0.16621 0.97702 0.13185 0.0
N494 N 0.12627 -0.00381 -0.0033 0.0
N495 N 0.1444 0.92969 0.20235 0.0
H496 H 0.21422 0.0136 0.14861 0.0
H497 H 0.19956 0.98324 0.20783 0.0
H498 H 0.12535 0.90908 0.22285 0.0
H499 H 0.16649 0.9356 0.22269 0.0
H500 H 0.10447 0.98737 0.97214 0.0
H501 H 0.14492 0.01616 0.97342 0.0
H502 H 0.06668 0.95879 0.03546 0.0
H503 H 0.05402 0.92416 0.08375 0.0
C504 C 0.04526 0.17084 0.07729 0.0
C505 C 0.06764 0.20067 0.10507 0.0
C506 C 0.02796 0.21799 0.0995 0.0
C507 C 0.00886 0.19167 0.0576 0.0
N508 N -1e-05 0.14299 0.00348 0.0
N509 N 0.08177 0.25452 0.13648 0.0
C510 C 0.01715 0.16751 0.04686 0.0
C511 C 0.05915 0.22452 0.11619 0.0
N512 N 0.05181 0.1464 0.0775 0.0
N513 N 0.01645 0.23689 0.12264 0.0
H514 H 0.10543 0.26076 0.14606 0.0
H515 H 0.07778 0.27385 0.13807 0.0
H516 H -0.00667 0.23229 0.11209 0.0
H517 H 0.02851 0.25485 0.15778 0.0
H518 H 0.03542 0.12311 0.06259 0.0
H519 H 0.0727 0.14899 0.09895 0.0
H520 H 0.00711 0.12682 0.98867 0.0
H521 H 0.98005 0.14018 0.9777 0.0
C522 C 0.82858 0.47311 0.28956 0.0
C523 C 0.85129 0.50473 0.26863 0.0
C524 C 0.87355 0.48318 0.188 0.0
C525 C 0.853 0.45209 0.21407 0.0
N526 N 0.80372 0.41592 0.26782 0.0
N527 N 0.8882 0.53937 0.18496 0.0
C528 C 0.82762 0.4467 0.25664 0.0
C529 C 0.87149 0.50963 0.21338 0.0
N530 N 0.80969 0.46833 0.34381 0.0
N531 N 0.89614 0.48752 0.14199 0.0
H532 H 0.887 0.55911 0.20238 0.0
H533 H 0.90121 0.54406 0.14116 0.0
H534 H 0.89666 0.4684 0.11927 0.0
H535 H 0.91439 0.50989 0.12648 0.0
H536 H 0.79503 0.4459 0.36504 0.0
H537 H 0.8105 0.48701 0.37134 0.0
H538 H 0.78303 0.40999 0.29471 0.0
H539 H 0.80357 0.39657 0.24418 0.0
C540 C 0.54595 0.37288 0.26287 0.0
C541 C 0.54021 0.39121 0.21619 0.0
C542 C 0.48497 0.34703 0.20295 0.0
C543 C 0.48875 0.33282 0.26125 0.0
N544 N 0.52325 0.33135 0.34665 0.0
N545 N 0.50603 0.39457 0.13357 0.0
C546 C 0.51958 0.34491 0.29019 0.0
C547 C 0.51047 0.3775 0.18227 0.0
N548 N 0.5767 0.38341 0.28276 0.0
N549 N 0.45706 0.33128 0.16775 0.0
H550 H 0.52471 0.41601 0.11491 0.0
H551 H 0.48388 0.38783 0.11232 0.0
H552 H 0.43821 0.30885 0.18197 0.0
H553 H 0.45356 0.3389 0.12186 0.0
H554 H 0.58331 0.37022 0.31314 0.0
H555 H 0.59595 0.40426 0.263 0.0
H556 H 0.54444 0.34132 0.37384 0.0
H557 H 0.50455 0.31121 0.36935 0.0
C558 C 0.60052 0.11456 0.17885 0.0
C559 C 0.58947 0.13379 0.20871 0.0
C560 C 0.63723 0.16007 0.27832 0.0
C561 C 0.64655 0.13824 0.25405 0.0
N562 N 0.64339 0.10222 0.16801 0.0
N563 N 0.60119 0.18147 0.26717 0.0
C564 C 0.6303 0.11803 0.1995 0.0
C565 C 0.60966 0.15923 0.25103 0.0
N566 N 0.58125 0.09138 0.1347 0.0
N567 N 0.65305 0.17968 0.33068 0.0
H568 H 0.58056 0.1803 0.2476 0.0
H569 H 0.61567 0.20216 0.29426 0.0
H570 H 0.67308 0.18078 0.35286 0.0
H571 H 0.64527 0.19357 0.35498 0.0
H572 H 0.58569 0.07372 0.11699 0.0
H573 H 0.56005 0.08952 0.117 0.0
H574 H 0.6341 0.08899 0.12479 0.0
H575 H 0.6653 0.10462 0.18225 0.0
C576 C 0.45491 0.14183 0.46077 0.0
C577 C 0.47497 0.14593 0.4058 0.0
C578 C 0.49458 0.20371 0.40696 0.0
C579 C 0.46924 0.19814 0.44992 0.0
N580 N 0.42729 0.16337 0.5247 0.0
N581 N 0.51439 0.18117 0.32548 0.0
C582 C 0.45055 0.16777 0.48039 0.0
C583 C 0.4957 0.17715 0.37969 0.0
N584 N 0.44019 0.1132 0.49385 0.0
N585 N 0.51662 0.23456 0.39041 0.0
H586 H 0.51541 0.16243 0.3022 0.0
H587 H 0.52722 0.20283 0.30016 0.0
H588 H 0.51545 0.25401 0.40995 0.0
H589 H 0.53733 0.24087 0.36331 0.0
H590 H 0.42725 0.10932 0.53752 0.0
H591 H 0.4433 0.09402 0.48055 0.0
H592 H 0.4102 0.14105 0.54309 0.0
H593 H 0.42471 0.18235 0.54185 0.0
C594 C 0.81981 0.25799 0.44697 0.0
C595 C 0.78795 0.25068 0.43361 0.0
C596 C 0.80695 0.3072 0.41159 0.0
C597 C 0.83889 0.31275 0.40851 0.0
N598 N 0.87581 0.29911 0.45809 0.0
N599 N 0.75026 0.26768 0.40624 0.0
C600 C 0.84544 0.2898 0.437 0.0
C601 C 0.78116 0.27521 0.41796 0.0
N602 N 0.82555 0.23405 0.46542 0.0
N603 N 0.80128 0.33224 0.41375 0.0
H604 H 0.7308 0.24463 0.4136 0.0
H605 H 0.74417 0.2838 0.38598 0.0
H606 H 0.81934 0.35585 0.42144 0.0
H607 H 0.7785 0.32929 0.41956 0.0
H608 H 0.84831 0.23669 0.46701 0.0
H609 H 0.80713 0.21092 0.47677 0.0
H610 H 0.88201 0.28425 0.48364 0.0
H611 H 0.89413 0.32306 0.45705 0.0
C612 C 0.67231 0.49892 0.43032 0.0
C613 C 0.66812 0.52513 0.41204 0.0
C614 C 0.72542 0.56218 0.42527 0.0
C615 C 0.73039 0.53556 0.43058 0.0
N616 N 0.70931 0.47876 0.44145 0.0
N617 N 0.6875 0.58095 0.43338 0.0
C618 C 0.704 0.50394 0.43546 0.0
C619 C 0.69375 0.55666 0.4224 0.0
N620 N 0.64639 0.47018 0.44774 0.0
N621 N 0.75092 0.59265 0.4189 0.0
H622 H 0.66412 0.57669 0.43806 0.0
H623 H 0.70504 0.60408 0.44679 0.0
H624 H 0.77473 0.59819 0.42291 0.0
H625 H 0.74849 0.61225 0.40596 0.0
H626 H 0.64805 0.4507 0.46496 0.0
H627 H 0.62372 0.46735 0.45481 0.0
H628 H 0.69137 0.45485 0.43693 0.0
H629 H 0.73224 0.48197 0.44755 0.0
C630 C 0.55069 0.82318 0.55706 0.0
C631 C 0.52513 0.79188 0.54482 0.0
C632 C 0.48809 0.81233 0.55405 0.0
C633 C 0.51275 0.8407 0.58505 0.0
N634 N 0.56666 0.86676 0.63228 0.0
N635 N 0.46852 0.75591 0.53168 0.0
C636 C 0.54411 0.8449 0.59005 0.0
C637 C 0.49342 0.78617 0.54248 0.0
N638 N 0.58145 0.83113 0.54244 0.0
N639 N 0.46025 0.81061 0.534 0.0
H640 H 0.47208 0.73673 0.52131 0.0
H641 H 0.4446 0.74983 0.53653 0.0
H642 H 0.45656 0.83012 0.53646 0.0
H643 H 0.44263 0.79119 0.50754 0.0
H644 H 0.60073 0.85446 0.54745 0.0
H645 H 0.58686 0.81508 0.51916 0.0
H646 H 0.58894 0.86858 0.63933 0.0
H647 H 0.56172 0.87917 0.66813 0.0
C648 C 0.16832 0.68179 0.62453 0.0
C649 C 0.13705 0.67109 0.59913 0.0
C650 C 0.158 0.71767 0.52545 0.0
C651 C 0.18851 0.72955 0.55515 0.0
N652 N 0.22552 0.71938 0.61415 0.0
N653 N 0.1035 0.67313 0.5133 0.0
C654 C 0.19456 0.71002 0.59785 0.0
C655 C 0.13239 0.68714 0.54517 0.0
N656 N 0.1726 0.66656 0.67743 0.0
N657 N 0.15317 0.73654 0.48187 0.0
H658 H 0.08448 0.6507 0.52701 0.0
H659 H 0.09917 0.68227 0.47027 0.0
H660 H 0.17195 0.75823 0.46426 0.0
H661 H 0.13071 0.73126 0.46461 0.0
H662 H 0.19422 0.67546 0.70275 0.0
H663 H 0.15406 0.64598 0.69926 0.0
H664 H 0.23216 0.70521 0.64109 0.0
H665 H 0.2448 0.74029 0.59474 0.0
C666 C 0.28959 0.49423 0.53705 0.0
C667 C 0.26114 0.46516 0.55104 0.0
C668 C 0.29147 0.4445 0.60724 0.0
C669 C 0.32072 0.47233 0.58946 0.0
N670 N 0.34716 0.52006 0.52091 0.0
N671 N 0.23679 0.40877 0.57577 0.0
C672 C 0.31977 0.49623 0.54906 0.0
C673 C 0.26303 0.43882 0.57639 0.0
N674 N 0.28779 0.51989 0.51409 0.0
N675 N 0.28976 0.42534 0.65897 0.0
H676 H 0.21514 0.40419 0.55496 0.0
H677 H 0.23778 0.38846 0.58997 0.0
H678 H 0.30856 0.43125 0.69182 0.0
H679 H 0.26811 0.40625 0.67576 0.0
H680 H 0.30775 0.54278 0.50942 0.0
H681 H 0.26587 0.51824 0.50295 0.0
H682 H 0.34725 0.53664 0.4876 0.0
H683 H 0.36919 0.52108 0.5251 0.0
C684 C 0.14265 0.53083 0.78279 0.0
C685 C 0.11179 0.52646 0.77117 0.0
C686 C 0.09461 0.47466 0.72018 0.0
C687 C 0.12489 0.47764 0.73426 0.0
N688 N 0.17367 0.50444 0.79918 0.0
N689 N 0.0555 0.48859 0.75575 0.0
C690 C 0.14775 0.50446 0.77207 0.0
C691 C 0.08675 0.49616 0.75017 0.0
N692 N 0.16722 0.56014 0.80128 0.0
N693 N 0.07455 0.45394 0.67304 0.0
H694 H 0.04892 0.50415 0.77717 0.0
H695 H 0.03642 0.46568 0.74555 0.0
H696 H 0.08084 0.44107 0.64111 0.0
H697 H 0.05342 0.45323 0.65879 0.0
H698 H 0.19099 0.56547 0.80339 0.0
H699 H 0.16396 0.5796 0.81059 0.0
H700 H 0.18966 0.52241 0.83093 0.0
H701 H 0.17699 0.4847 0.79634 0.0
C702 C 0.51525 0.63965 0.78551 0.0
C703 C 0.50923 0.65648 0.73516 0.0
C704 C 0.45161 0.61882 0.74565 0.0
C705 C 0.45854 0.59811 0.78208 0.0
N706 N 0.4958 0.58938 0.845 0.0
N707 N 0.47116 0.66246 0.66689 0.0
C708 C 0.48994 0.60913 0.8063 0.0
C709 C 0.47716 0.64681 0.71647 0.0
N710 N 0.54516 0.65286 0.81278 0.0
N711 N 0.42033 0.61049 0.73658 0.0
H712 H 0.489 0.68254 0.64239 0.0
H713 H 0.44854 0.65418 0.64643 0.0
H714 H 0.40165 0.58954 0.75736 0.0
H715 H 0.41322 0.6255 0.71469 0.0
H716 H 0.55066 0.64309 0.85323 0.0
H717 H 0.56391 0.67532 0.79839 0.0
H718 H 0.51867 0.59412 0.85774 0.0
H719 H 0.4774 0.56759 0.86318 0.0
C720 C 0.37014 0.86762 0.81107 0.0
C721 C 0.38011 0.84722 0.78213 0.0
C722 C 0.33089 0.82018 0.71682 0.0
C723 C 0.32278 0.84316 0.73937 0.0
N724 N 0.32823 0.88144 0.82199 0.0
N725 N 0.3657 0.79746 0.72922 0.0
C726 C 0.34027 0.8644 0.79162 0.0
C727 C 0.35857 0.8209 0.74304 0.0
N728 N 0.39016 0.89134 0.85343 0.0
N729 N 0.31378 0.79946 0.66685 0.0
H730 H 0.38628 0.79833 0.7482 0.0
H731 H 0.35013 0.77617 0.70499 0.0
H732 H 0.29346 0.7982 0.64576 0.0
H733 H 0.32071 0.78469 0.64336 0.0
H734 H 0.38619 0.90943 0.8703 0.0
H735 H 0.41121 0.89311 0.87153 0.0
H736 H 0.33831 0.89559 0.8638 0.0
H737 H 0.30631 0.87923 0.8084 0.0
C738 C 0.1627 0.35213 0.90541 0.0
C739 C 0.16092 0.32212 0.8949 0.0
C740 C 0.18818 0.34116 0.78912 0.0
C741 C 0.18782 0.37011 0.79624 0.0
N742 N 0.18765 0.40812 0.87318 0.0
N743 N 0.1576 0.28477 0.81079 0.0
C744 C 0.17879 0.37717 0.85805 0.0
C745 C 0.16957 0.31556 0.8322 0.0
N746 N 0.14663 0.35571 0.95734 0.0
N747 N 0.20673 0.33828 0.74174 0.0
H748 H 0.13919 0.26521 0.83574 0.0
H749 H 0.16205 0.27931 0.76337 0.0
H750 H 0.22259 0.35774 0.71258 0.0
H751 H 0.2092 0.31805 0.73785 0.0
H752 H 0.14486 0.37615 0.96465 0.0
H753 H 0.1313 0.33649 0.98761 0.0
H754 H 0.18391 0.41523 0.91943 0.0
H755 H 0.20286 0.42724 0.84256 0.0
C756 C 0.69291 0.82189 0.82176 0.0
C757 C 0.69661 0.85188 0.83935 0.0
C758 C 0.66681 0.85128 0.74059 0.0
C759 C 0.65853 0.81906 0.72992 0.0
N760 N 0.66149 0.77225 0.7624 0.0
N761 N 0.68464 0.8944 0.81992 0.0
C762 C 0.67112 0.80396 0.77082 0.0
C763 C 0.68346 0.86679 0.79936 0.0
N764 N 0.71044 0.81079 0.85365 0.0
N765 N 0.65815 0.86674 0.69548 0.0
H766 H 0.69635 0.90669 0.8628 0.0
H767 H 0.67192 0.90394 0.79705 0.0
H768 H 0.64473 0.85554 0.6532 0.0
H769 H 0.66639 0.89127 0.69723 0.0
H770 H 0.71114 0.79046 0.83882 0.0
H771 H 0.72684 0.82384 0.89098 0.0
H772 H 0.6671 0.75915 0.79537 0.0
H773 H 0.64627 0.75836 0.72437 0.0
C774 C 0.12868 0.81616 0.76074 0.0
C775 C 0.1618 0.83742 0.75046 0.0
C776 C 0.16207 0.87305 0.83699 0.0
C777 C 0.13084 0.84916 0.85499 0.0
N778 N 0.08451 0.79635 0.83799 0.0
N779 N 0.21105 0.88572 0.7805 0.0
C780 C 0.11376 0.82053 0.81713 0.0
C781 C 0.17879 0.86591 0.78872 0.0
N782 N 0.11172 0.79139 0.71775 0.0
N783 N 0.17549 0.90268 0.8658 0.0
H784 H 0.22438 0.88232 0.74424 0.0
H785 H 0.22512 0.90437 0.81284 0.0
H786 H 0.16333 0.90841 0.90107 0.0
H787 H 0.19699 0.92231 0.85006 0.0
H788 H 0.08682 0.77732 0.71854 0.0
H789 H 0.1223 0.78629 0.67809 0.0
H790 H 0.07312 0.77345 0.81745 0.0
H791 H 0.07248 0.79801 0.87925 0.0
C792 C 0.84749 0.68223 0.11776 0.0
C793 C 0.81872 0.6671 0.08056 0.0
C794 C 0.7948 0.62216 0.15857 0.0
C795 C 0.82353 0.63748 0.19583 0.0
N796 N 0.87999 0.67649 0.20181 0.0
N797 N 0.76764 0.62004 0.05614 0.0
C798 C 0.85074 0.66597 0.1729 0.0
C799 C 0.79328 0.63604 0.09765 0.0
N800 N 0.87163 0.71219 0.10049 0.0
N801 N 0.76868 0.59514 0.18291 0.0
H802 H 0.76502 0.62981 0.01226 0.0
H803 H 0.74992 0.59617 0.06235 0.0
H804 H 0.76872 0.58476 0.22826 0.0
H805 H 0.74622 0.58385 0.16063 0.0
H806 H 0.89136 0.72617 0.13053 0.0
H807 H 0.87134 0.7238 0.05705 0.0
H808 H 0.90137 0.6953 0.1834 0.0
H809 H 0.88342 0.66425 0.24057 0.0
C810 C 0.33598 0.18144 0.10663 0.0
C811 C 0.30347 0.15743 0.11372 0.0
C812 C 0.31334 0.14803 0.22768 0.0
C813 C 0.34618 0.17159 0.22055 0.0
N814 N 0.38994 0.1999 0.14313 0.0
N815 N 0.25957 0.13075 0.19063 0.0
C816 C 0.35797 0.1856 0.15724 0.0
C817 C 0.29153 0.14454 0.17724 0.0
N818 N 0.34542 0.20132 0.05285 0.0
N819 N 0.30337 0.12718 0.27989 0.0
H820 H 0.24359 0.13156 0.15691 0.0
H821 H 0.25006 0.12308 0.23793 0.0
H822 H 0.3195 0.12606 0.31269 0.0
H823 H 0.27995 0.10809 0.28444 0.0
H824 H 0.36842 0.22109 0.04784 0.0
H825 H 0.32893 0.20041 0.01812 0.0
H826 H 0.3993 0.20826 0.09603 0.0
H827 H 0.40622 0.19865 0.17522 0.0
C828 C 0.81985 0.13404 0.20687 0.0
C829 C 0.81083 0.15724 0.22203 0.0
C830 C 0.83427 0.18588 0.11825 0.0
C831 C 0.84308 0.1626 0.10271 0.0
N832 N 0.84096 0.11244 0.12509 0.0
N833 N 0.81489 0.2084 0.20135 0.0
C834 C 0.8353 0.13627 0.14552 0.0
C835 C 0.81939 0.18396 0.17997 0.0
N836 N 0.81326 0.10972 0.25052 0.0
N837 N 0.84021 0.20987 0.07422 0.0
H838 H 0.80688 0.20921 0.24894 0.0
H839 H 0.82137 0.22931 0.17497 0.0
H840 H 0.85336 0.21398 0.03089 0.0
H841 H 0.83099 0.22519 0.07846 0.0
H842 H 0.82189 0.09391 0.24623 0.0
H843 H 0.79973 0.10543 0.29335 0.0
H844 H 0.83567 0.09206 0.15228 0.0
H845 H 0.84936 0.11177 0.07784 0.0
C846 C 0.46748 0.94804 0.47302 0.0
C847 C 0.46569 0.95966 0.53646 0.0
C848 C 0.49709 0.01469 0.49615 0.0
C849 C 0.49768 0.00321 0.43192 0.0
N850 N 0.49618 0.96004 0.36911 0.0
N851 N 0.46616 0.0035 0.59588 0.0
C852 C 0.48649 0.97008 0.42296 0.0
C853 C 0.47701 0.99288 0.54491 0.0
N854 N 0.44918 0.91607 0.45938 0.0
N855 N 0.51693 0.04621 0.51174 0.0
H856 H 0.44684 0.9879 0.62554 0.0
H857 H 0.47235 0.02745 0.60104 0.0
H858 H 0.53431 0.0623 0.47894 0.0
H859 H 0.51916 0.055 0.5598 0.0
H860 H 0.44735 0.90654 0.41221 0.0
H861 H 0.43259 0.89987 0.49331 0.0
H862 H 0.49079 0.9364 0.3626 0.0
H863 H 0.51346 0.97623 0.33622 0.0
C864 C 0.97499 0.5236 0.53691 0.0
C865 C 0.9871 0.50963 0.58198 0.0
C866 C 0.96818 0.46244 0.5122 0.0
C867 C 0.95532 0.47602 0.4679 0.0
N868 N 0.94037 0.51561 0.44295 0.0
N869 N 0.98989 0.46383 0.62113 0.0
C870 C 0.95679 0.50545 0.48182 0.0
C871 C 0.98174 0.47827 0.57261 0.0
N872 N 0.98166 0.55448 0.54594 0.0
N873 N 0.96925 0.43554 0.49473 0.0
H874 H 0.00079 0.47522 0.66539 0.0
H875 H 0.98352 0.43974 0.62001 0.0
H876 H 0.95969 0.42306 0.45072 0.0
H877 H 0.98186 0.42691 0.5213 0.0
H878 H 0.97653 0.56723 0.51116 0.0
H879 H -0.0061 0.56812 0.58723 0.0
H880 H 0.93794 0.53537 0.45403 0.0
H881 H 0.9268 0.50261 0.40211 0.0
C882 C 0.5085 0.49888 0.547 0.0
C883 C 0.48735 0.51098 0.5376 0.0
C884 C 0.47612 0.4893 0.42502 0.0
C885 C 0.49722 0.47719 0.43486 0.0
N886 N 0.52145 0.4586 0.5144 0.0
N887 N 0.46193 0.52864 0.45898 0.0
C888 C 0.5096 0.47824 0.49892 0.0
C889 C 0.47427 0.50937 0.47391 0.0
N890 N 0.52992 0.50958 0.59812 0.0
N891 N 0.4558 0.47941 0.37205 0.0
H892 H 0.46313 0.54581 0.49218 0.0
H893 H 0.45465 0.53059 0.41143 0.0
H894 H 0.45302 0.46087 0.34111 0.0
H895 H 0.43832 0.4858 0.36522 0.0
H896 H 0.54726 0.50293 0.60409 0.0
H897 H 0.53392 0.52906 0.62742 0.0
H898 H 0.52822 0.45644 0.56232 0.0
H899 H 0.52051 0.44161 0.48104 0.0
C900 C 0.26875 0.22549 0.20986 0.0
C901 C 0.24859 0.23651 0.23496 0.0
C902 C 0.27964 0.25252 0.33843 0.0
C903 C 0.30232 0.24583 0.30895 0.0
N904 N 0.32068 0.22942 0.21356 0.0
N905 N 0.23644 0.26368 0.32087 0.0
C906 C 0.29744 0.23318 0.24387 0.0
C907 C 0.25412 0.2505 0.29912 0.0
N908 N 0.26007 0.20717 0.15372 0.0
N909 N 0.28254 0.26085 0.40381 0.0
H910 H 0.21742 0.26251 0.29412 0.0
H911 H 0.24193 0.27762 0.36348 0.0
H912 H 0.30163 0.26372 0.43311 0.0
H913 H 0.26493 0.26268 0.43005 0.0
H914 H 0.27236 0.19612 0.13576 0.0
H915 H 0.23863 0.2004 0.12879 0.0
H916 H 0.32037 0.22489 0.16309 0.0
H917 H 0.34172 0.23376 0.23715 0.0
C918 C 0.7117 0.00177 0.33127 0.0
C919 C 0.72207 0.03293 0.30616 0.0
C920 C 0.74495 0.02171 0.20929 0.0
C921 C 0.73095 0.9893 0.22931 0.0
N922 N 0.69665 0.9469 0.30522 0.0
N923 N 0.74233 0.07035 0.21474 0.0
C924 C 0.71332 0.9788 0.28959 0.0
C925 C 0.73679 0.04223 0.24309 0.0
N926 N 0.7004 0.99421 0.39465 0.0
N927 N 0.76683 0.03305 0.15895 0.0
H928 H 0.73663 0.08616 0.23795 0.0
H929 H 0.74997 0.07661 0.1659 0.0
H930 H 0.77509 0.01902 0.13668 0.0
H931 H 0.77915 0.05702 0.14447 0.0
H932 H 0.69564 0.973 0.41808 0.0
H933 H 0.69785 0.01022 0.42529 0.0
H934 H 0.68061 0.93766 0.34472 0.0
H935 H 0.69685 0.92923 0.2759 0.0
C936 C 0.96506 0.68426 0.25556 0.0
C937 C 0.94978 0.68936 0.31068 0.0
C938 C 0.97611 0.74649 0.28131 0.0
C939 C -0.0062 0.74162 0.23105 0.0
N940 N 0.01433 0.70759 0.19376 0.0
N941 N 0.95068 0.72817 0.38812 0.0
C942 C 0.99132 0.71108 0.22571 0.0
C943 C 0.95848 0.72142 0.32759 0.0
N944 N 0.95361 0.65467 0.22769 0.0
N945 N 0.97459 0.77399 0.28352 0.0
H946 H 0.94004 0.71091 0.42532 0.0
H947 H 0.95854 0.75155 0.4039 0.0
H948 H 0.98536 0.79219 0.24832 0.0
H949 H 0.9596 0.77701 0.31631 0.0
H950 H 0.96346 0.6513 0.18452 0.0
H951 H 0.93208 0.63452 0.24105 0.0
H952 H 0.01405 0.6858 0.19264 0.0
H953 H 0.03564 0.72715 0.17684 0.0
C954 C 0.71846 0.71957 0.69454 0.0
C955 C 0.73887 0.7499 0.72421 0.0
C956 C 0.71424 0.77431 0.65785 0.0
C957 C 0.69161 0.74318 0.63304 0.0
N958 N 0.67881 0.68916 0.61003 0.0
N959 N 0.76209 0.80718 0.72359 0.0
C960 C 0.69588 0.71671 0.64592 0.0
C961 C 0.73883 0.77768 0.70191 0.0
N962 N 0.72032 0.69336 0.71414 0.0
N963 N 0.7112 0.80032 0.64292 0.0
H964 H 0.77946 0.81024 0.75815 0.0
H965 H 0.76584 0.82882 0.70426 0.0
H966 H 0.69573 0.80027 0.60725 0.0
H967 H 0.72346 0.82225 0.66727 0.0
H968 H 0.70361 0.66987 0.70132 0.0
H969 H 0.73828 0.69502 0.74548 0.0
H970 H 0.68242 0.66964 0.61254 0.0
H971 H 0.66292 0.68701 0.57258 0.0
C972 C 0.27222 0.96566 0.73912 0.0
C973 C 0.25365 0.95285 0.6805 0.0
C974 C 0.22333 0.97959 0.70939 0.0
C975 C 0.244 0.9946 0.76394 0.0
N976 N 0.29696 0.01237 0.80882 0.0
N977 N 0.22006 0.95884 0.59908 0.0
C978 C 0.27135 0.9911 0.77177 0.0
C979 C 0.23188 0.96338 0.66205 0.0
N980 N 0.28879 0.9526 0.76753 0.0
N981 N 0.19504 0.97938 0.70364 0.0
H982 H 0.22796 0.9497 0.56135 0.0
H983 H 0.20581 0.96808 0.58268 0.0
H984 H 0.1869 0.98936 0.739 0.0
H985 H 0.17817 0.96621 0.66722 0.0
H986 H 0.30042 0.96056 0.81299 0.0
H987 H 0.28743 0.93139 0.75212 0.0
H988 H 0.3181 0.01148 0.81172 0.0
H989 H 0.29874 0.03316 0.82882 0.0
C990 C 0.00279 0.25139 0.68324 0.0
C991 C 0.00882 0.23948 0.74246 0.0
C992 C 0.06554 0.28056 0.73805 0.0
C993 C 0.05953 0.29318 0.67964 0.0
N994 N 0.02499 0.28627 0.5873 0.0
N995 N 0.04635 0.23587 0.81489 0.0
C996 C 0.0289 0.27709 0.64907 0.0
C997 C 0.04051 0.25172 0.76559 0.0
N998 N 0.97196 0.23932 0.66189 0.0
N999 N 0.09428 0.29731 0.77017 0.0
H1000 H 0.02812 0.21463 0.83563 0.0
H1001 H 0.06931 0.24186 0.83028 0.0
H1002 H 0.11327 0.31886 0.7527 0.0
H1003 H 0.09838 0.29125 0.81723 0.0
H1004 H 0.96541 0.24956 0.62401 0.0
H1005 H 0.95261 0.21957 0.68427 0.0
H1006 H 0.004 0.27385 0.55979 0.0
H1007 H 0.04382 0.30485 0.56107 0.0
C1008 C 0.91011 0.54959 0.6071 0.0
C1009 C 0.90581 0.57566 0.59075 0.0
C1010 C 0.94795 0.61025 0.66939 0.0
C1011 C 0.95299 0.58435 0.68477 0.0
N1012 N 0.93121 0.52648 0.68382 0.0
N1013 N 0.91449 0.62824 0.61609 0.0
C1014 C 0.93154 0.55306 0.65905 0.0
C1015 C 0.92278 0.6052 0.62525 0.0
N1016 N 0.89481 0.52194 0.57085 0.0
N1017 N 0.9675 0.63976 0.69662 0.0
H1018 H 0.89618 0.62519 0.58408 0.0
H1019 H 0.92377 0.64921 0.64382 0.0
H1020 H 0.98396 0.64352 0.734 0.0
H1021 H 0.96811 0.66067 0.68118 0.0
H1022 H 0.90038 0.50371 0.57371 0.0
H1023 H 0.87806 0.51818 0.53411 0.0
H1024 H 0.914 0.50316 0.67093 0.0
H1025 H 0.94545 0.52681 0.72258 0.0
C1026 C 0.4188 0.33732 0.62254 0.0
C1027 C 0.4298 0.34277 0.55578 0.0
C1028 C 0.4335 0.39526 0.55682 0.0
C1029 C 0.42418 0.39063 0.62425 0.0
N1030 N 0.41369 0.36045 0.72548 0.0
N1031 N 0.4556 0.37995 0.46579 0.0
C1032 C 0.4188 0.36269 0.65859 0.0
C1033 C 0.43976 0.37281 0.52511 0.0
N1034 N 0.40641 0.3075 0.65016 0.0
N1035 N 0.43495 0.42031 0.52209 0.0
H1036 H 0.46171 0.36443 0.44255 0.0
H1037 H 0.46538 0.40234 0.44308 0.0
H1038 H 0.43126 0.43785 0.54371 0.0
H1039 H 0.43688 0.42196 0.47066 0.0
H1040 H 0.39447 0.3012 0.69549 0.0
H1041 H 0.40598 0.28823 0.62595 0.0
H1042 H 0.41295 0.34219 0.75446 0.0
H1043 H 0.41266 0.37826 0.75286 0.0
C1044 C 0.6403 0.07028 0.6278 0.0
C1045 C 0.63558 0.07552 0.56038 0.0
C1046 C 0.58208 0.02793 0.56193 0.0
C1047 C 0.58629 0.0231 0.62951 0.0
N1048 N 0.61602 0.04268 0.73106 0.0
N1049 N 0.5989 0.06534 0.47031 0.0
C1050 C 0.6143 0.0454 0.66398 0.0
C1051 C 0.60529 0.05632 0.53003 0.0
N1052 N 0.66995 0.08745 0.65599 0.0
N1053 N 0.55689 0.00457 0.52704 0.0
H1054 H 0.61508 0.08688 0.44714 0.0
H1055 H 0.57666 0.05315 0.44705 0.0
H1056 H 0.53892 0.98347 0.54861 0.0
H1057 H 0.55542 0.0049 0.47559 0.0
H1058 H 0.67575 0.08188 0.70191 0.0
H1059 H 0.68945 0.10624 0.632 0.0
H1060 H 0.63444 0.05998 0.76007 0.0
H1061 H 0.59758 0.02429 0.75847 0.0
C1062 C 0.3627 0.09656 0.08188 0.0
C1063 C 0.34579 0.07098 0.03654 0.0
C1064 C 0.37958 0.0487 0.06822 0.0
C1065 C 0.39906 0.07667 0.10634 0.0
N1066 N 0.41199 0.12948 0.14191 0.0
N1067 N 0.34114 0.02506 0.97878 0.0
C1068 C 0.39164 0.10144 0.1103 0.0
C1069 C 0.35508 0.04766 0.02732 0.0
N1070 N 0.34988 0.11477 0.10192 0.0
N1071 N 0.38349 0.0226 0.07331 0.0
H1072 H 0.32307 0.0236 0.94803 0.0
H1073 H 0.34936 0.00956 0.96548 0.0
H1074 H 0.40073 0.02219 0.10382 0.0
H1075 H 0.36787 0.0005 0.05183 0.0
H1076 H 0.35909 0.13037 0.1419 0.0
H1077 H 0.32792 0.1112 0.08493 0.0
H1078 H 0.40917 0.14954 0.14045 0.0
H1079 H 0.4332 0.13361 0.16446 0.0
C1080 C 0.91433 0.27566 0.07583 0.0
C1081 C 0.92412 0.28495 0.00938 0.0
C1082 C 0.92568 0.33586 0.02869 0.0
C1083 C 0.91217 0.32481 0.09285 0.0
N1084 N 0.88685 0.28097 0.17077 0.0
N1085 N 0.93475 0.32148 0.9188 0.0
C1086 C 0.90449 0.2937 0.11436 0.0
C1087 C 0.9283 0.31427 0.98449 0.0
N1088 N 0.91457 0.24964 0.10233 0.0
N1089 N 0.93799 0.36732 0.01132 0.0
H1090 H 0.93816 0.30675 0.88595 0.0
H1091 H 0.93455 0.34085 0.89633 0.0
H1092 H 0.93788 0.38443 0.04255 0.0
H1093 H 0.95111 0.37718 0.96808 0.0
H1094 H 0.91091 0.24377 0.15248 0.0
H1095 H 0.9212 0.23541 0.07548 0.0
H1096 H 0.87915 0.25774 0.18714 0.0
H1097 H 0.87701 0.29245 0.19763 0.0
C1098 C 0.70805 0.63465 0.07448 0.0
C1099 C 0.69907 0.63317 0.00695 0.0
C1100 C 0.65184 0.58018 0.02568 0.0
C1101 C 0.66197 0.5808 0.09224 0.0
N1102 N 0.70323 0.60516 0.17524 0.0
N1103 N 0.66589 0.6029 0.91501 0.0
C1104 C 0.69113 0.60711 0.1152 0.0
C1105 C 0.67209 0.60533 0.98149 0.0
N1106 N 0.73295 0.66231 0.09974 0.0
N1107 N 0.62216 0.55674 0.00551 0.0
H1108 H 0.67915 0.62161 0.88185 0.0
H1109 H 0.64896 0.58172 0.89219 0.0
H1110 H 0.60634 0.53788 0.03573 0.0
H1111 H 0.61206 0.55727 0.96026 0.0
H1112 H 0.73819 0.66605 0.15008 0.0
H1113 H 0.74722 0.68263 0.07126 0.0
H1114 H 0.72573 0.62229 0.19265 0.0
H1115 H 0.69226 0.58464 0.20488 0.0
C1116 C 0.56338 0.87377 0.91217 0.0
C1117 C 0.56895 0.90062 0.87327 0.0
C1118 C 0.62575 0.92722 0.90036 0.0
C1119 C 0.61986 0.90246 0.94611 0.0
N1120 N 0.5806 0.85611 0.00787 0.0
N1121 N 0.60354 0.95754 0.85294 0.0
C1122 C 0.58791 0.87678 0.95581 0.0
C1123 C 0.59952 0.92885 0.87451 0.0
N1124 N 0.53547 0.84519 0.90599 0.0
N1125 N 0.65599 0.94817 0.87808 0.0
H1126 H 0.58443 0.96055 0.83853 0.0
H1127 H 0.62524 0.97902 0.8577 0.0
H1128 H 0.67596 0.94618 0.88974 0.0
H1129 H 0.66039 0.96488 0.84076 0.0
H1130 H 0.53176 0.8242 0.92891 0.0
H1131 H 0.51736 0.84171 0.87306 0.0
H1132 H 0.55715 0.83873 0.01974 0.0
H1133 H 0.59733 0.85873 0.04365 0.0
C1134 C 0.11556 0.71345 0.89089 0.0
C1135 C 0.09378 0.68134 0.90875 0.0
C1136 C 0.07528 0.69944 0.00332 0.0
C1137 C 0.09264 0.7312 0.97834 0.0
N1138 N 0.12984 0.76918 0.89843 0.0
N1139 N 0.05336 0.64269 0.98194 0.0
C1140 C 0.11352 0.7386 0.92294 0.0
C1141 C 0.07412 0.67401 0.96571 0.0
N1142 N 0.13794 0.71965 0.84284 0.0
N1143 N 0.06052 0.69386 0.06364 0.0
H1144 H 0.05317 0.62357 0.95734 0.0
H1145 H 0.03549 0.63556 0.01768 0.0
H1146 H 0.06177 0.7123 0.09282 0.0
H1147 H 0.04972 0.67172 0.08754 0.0
H1148 H 0.15652 0.74253 0.83108 0.0
H1149 H 0.1396 0.70139 0.81869 0.0
H1150 H 0.14242 0.77533 0.85391 0.0
H1151 H 0.12938 0.78848 0.92032 0.0
C1152 C 0.29285 0.35156 0.90844 0.0
C1153 C 0.28117 0.35926 0.96606 0.0
C1154 C 0.31046 0.41577 0.93181 0.0
C1155 C 0.32604 0.40826 0.88105 0.0
N1156 N 0.34015 0.36914 0.8425 0.0
N1157 N 0.28728 0.40117 0.0413 0.0
C1158 C 0.31983 0.37623 0.87583 0.0
C1159 C 0.29247 0.39215 0.9806 0.0
N1160 N 0.27749 0.32148 0.88166 0.0
N1161 N 0.31148 0.44458 0.93247 0.0
H1162 H 0.27674 0.38508 0.08046 0.0
H1163 H 0.29719 0.42516 0.05499 0.0
H1164 H 0.32232 0.46168 0.89516 0.0
H1165 H 0.29821 0.44972 0.96595 0.0
H1166 H 0.2849 0.31621 0.83721 0.0
H1167 H 0.2551 0.30333 0.89759 0.0
H1168 H 0.33677 0.34599 0.84152 0.0
H1169 H 0.3624 0.38667 0.82444 0.0
C1170 C 0.0533 0.43373 0.35674 0.0
C1171 C 0.02128 0.40936 0.37166 0.0
C1172 C 0.04258 0.38547 0.44759 0.0
C1173 C 0.07341 0.41343 0.44434 0.0
N1174 N 0.10631 0.4674 0.40202 0.0
N1175 N 0.98637 0.36756 0.44902 0.0
C1176 C 0.07845 0.43857 0.4005 0.0
C1177 C 0.01603 0.38667 0.42204 0.0
N1178 N 0.06009 0.45138 0.2999 0.0
N1179 N 0.03854 0.35741 0.47317 0.0
H1180 H 0.96656 0.36996 0.43826 0.0
H1181 H 0.98268 0.35237 0.48909 0.0
H1182 H 0.05776 0.35443 0.48665 0.0
H1183 H 0.01647 0.33613 0.47235 0.0
H1184 H 0.08347 0.46769 0.28517 0.0
H1185 H 0.04296 0.44683 0.26357 0.0
H1186 H 0.10955 0.48718 0.37465 0.0
H1187 H 0.12473 0.47264 0.4355 0.0
C1188 C 0.55925 0.64521 0.3573 0.0
C1189 C 0.55145 0.6394 0.42577 0.0
C1190 C 0.55257 0.58934 0.41989 0.0
C1191 C 0.55963 0.59469 0.35134 0.0
N1192 N 0.56272 0.62339 0.25126 0.0
N1193 N 0.53223 0.60246 0.51746 0.0
C1194 C 0.56047 0.62115 0.31877 0.0
C1195 C 0.54528 0.6102 0.45535 0.0
N1196 N 0.56776 0.67442 0.33012 0.0
N1197 N 0.55403 0.56506 0.45173 0.0
H1198 H 0.52577 0.61701 0.54374 0.0
H1199 H 0.52501 0.58046 0.54013 0.0
H1200 H 0.55788 0.54824 0.42724 0.0
H1201 H 0.55397 0.5632 0.50313 0.0
H1202 H 0.57757 0.68136 0.2829 0.0
H1203 H 0.56707 0.69269 0.35616 0.0
H1204 H 0.56012 0.64035 0.22417 0.0
H1205 H 0.56466 0.60664 0.22191 0.0
C1206 C 0.35062 0.93631 0.32013 0.0
C1207 C 0.3793 0.95972 0.35098 0.0
C1208 C 0.36608 0.92617 0.44986 0.0
C1209 C 0.33511 0.90571 0.42407 0.0
N1210 N 0.29659 0.89184 0.3355 0.0
N1211 N 0.41351 0.97862 0.44733 0.0
C1212 C 0.3271 0.91047 0.35884 0.0
C1213 C 0.38692 0.95505 0.41631 0.0
N1214 N 0.34574 0.93899 0.25429 0.0
N1215 N 0.37546 0.9177 0.50664 0.0
H1216 H 0.43057 -0.00042 0.4238 0.0
H1217 H 0.41702 0.97849 0.49817 0.0
H1218 H 0.36082 0.896 0.531 0.0
H1219 H 0.39856 0.93049 0.52581 0.0
H1220 H 0.32693 0.92096 0.22732 0.0
H1221 H 0.36187 0.95841 0.22537 0.0
H1222 H 0.28836 0.89677 0.29186 0.0
H1223 H 0.27875 0.87238 0.36147 0.0
C1224 C 0.14716 0.30372 0.32222 0.0
C1225 C 0.17623 0.31912 0.2851 0.0
C1226 C 0.19947 0.36294 0.36594 0.0
C1227 C 0.17095 0.34675 0.40415 0.0
N1228 N 0.11976 0.29952 0.42556 0.0
N1229 N 0.23233 0.35933 0.27931 0.0
C1230 C 0.14556 0.31634 0.38463 0.0
C1231 C 0.20305 0.3477 0.30896 0.0
N1232 N 0.12042 0.27799 0.29637 0.0
N1233 N 0.22309 0.39297 0.38399 0.0
H1234 H 0.23617 0.34833 0.23869 0.0
H1235 H 0.25348 0.3781 0.29854 0.0
H1236 H 0.22238 0.40406 0.42779 0.0
H1237 H 0.24256 0.40765 0.35385 0.0
H1238 H 0.09759 0.26854 0.31669 0.0
H1239 H 0.12027 0.2674 0.25154 0.0
H1240 H 0.10255 0.27554 0.41813 0.0
H1241 H 0.11659 0.30863 0.46993 0.0
C1242 C 0.65329 0.79703 0.23885 0.0
C1243 C 0.64847 0.82272 0.22113 0.0
C1244 C 0.61463 0.81294 0.31866 0.0
C1245 C 0.62344 0.79058 0.34131 0.0
N1246 N 0.64993 0.76 0.32448 0.0
N1247 N 0.6249 0.85568 0.24136 0.0
C1248 C 0.64217 0.78196 0.30146 0.0
C1249 C 0.62884 0.83055 0.25982 0.0
N1250 N 0.66857 0.7873 0.1957 0.0
N1251 N 0.59267 0.81718 0.35335 0.0
H1252 H 0.63345 0.86783 0.19647 0.0
H1253 H 0.6144 0.86543 0.27133 0.0
H1254 H 0.5823 0.80511 0.39745 0.0
H1255 H 0.58287 0.83078 0.3363 0.0
H1256 H 0.6707 0.76706 0.2027 0.0
H1257 H 0.6772 0.79825 0.14978 0.0
H1258 H 0.66633 0.75512 0.30156 0.0
H1259 H 0.64094 0.74743 0.36877 0.0
C1260 C 0.14287 0.81496 0.29203 0.0
C1261 C 0.15522 0.84201 0.24946 0.0
C1262 C 0.20005 0.87243 0.32519 0.0
C1263 C 0.18538 0.84666 0.37103 0.0
N1264 N 0.14118 0.79506 0.40292 0.0
N1265 N 0.19448 0.89688 0.22449 0.0
C1266 C 0.15635 0.81832 0.35576 0.0
C1267 C 0.18375 0.87084 0.26534 0.0
N1268 N 0.11877 0.78584 0.27052 0.0
N1269 N 0.22962 0.89813 0.33876 0.0
H1270 H 0.18359 0.89607 0.17931 0.0
H1271 H 0.21303 0.9197 0.23663 0.0
H1272 H 0.24162 0.90049 0.38327 0.0
H1273 H 0.24318 0.91614 0.30467 0.0
H1274 H 0.11087 0.76453 0.29669 0.0
H1275 H 0.10878 0.78236 0.22325 0.0
H1276 H 0.11822 0.77543 0.39702 0.0
H1277 H 0.15038 0.79671 0.45045 0.0
C1278 C 0.79498 0.63848 0.6105 0.0
C1279 C 0.82679 0.65239 0.58561 0.0
C1280 C 0.84682 0.68951 0.67923 0.0
C1281 C 0.81475 0.67713 0.70127 0.0
N1282 N 0.7579 0.64431 0.68181 0.0
N1283 N 0.8826 0.69349 0.59063 0.0
C1284 C 0.78868 0.65284 0.66526 0.0
C1285 C 0.85257 0.67885 0.61793 0.0
N1286 N 0.77082 0.61108 0.58282 0.0
N1287 N 0.87182 0.71006 0.71872 0.0
H1288 H 0.88822 0.68528 0.54779 0.0
H1289 H 0.90151 0.71512 0.60776 0.0
H1290 H 0.86867 0.71791 0.76472 0.0
H1291 H 0.89567 0.71716 0.70898 0.0
H1292 H 0.74813 0.5977 0.60389 0.0
H1293 H 0.77396 0.60026 0.54118 0.0
H1294 H 0.73812 0.62967 0.65243 0.0
H1295 H 0.7522 0.65397 0.72216 0.0
C1296 C 0.32567 0.18062 0.727 0.0
C1297 C 0.31722 0.14795 0.73192 0.0
C1298 C 0.3387 0.14988 0.6209 0.0
C1299 C 0.34497 0.18182 0.6141 0.0
N1300 N 0.34069 0.22646 0.65523 0.0
N1301 N 0.31319 0.10024 0.68369 0.0
C1302 C 0.33766 0.19701 0.66588 0.0
C1303 C 0.32299 0.1322 0.67881 0.0
N1304 N 0.32211 0.19587 0.78066 0.0
N1305 N 0.34893 0.13695 0.57311 0.0
H1306 H 0.30391 0.087 0.72715 0.0
H1307 H 0.31274 0.0863 0.64392 0.0
H1308 H 0.36013 0.14897 0.52948 0.0
H1309 H 0.34846 0.11524 0.57832 0.0
H1310 H 0.33107 0.2205 0.78281 0.0
H1311 H 0.31195 0.18422 0.82525 0.0
H1312 H 0.33276 0.23755 0.68824 0.0
H1313 H 0.34885 0.23891 0.61058 0.0
C1314 C 0.78881 0.13592 0.66601 0.0
C1315 C 0.80206 0.15045 0.60397 0.0
C1316 C 0.85467 0.18373 0.65575 0.0
C1317 C 0.84205 0.16753 0.71653 0.0
N1318 N 0.79824 0.12564 0.77886 0.0
N1319 N 0.84848 0.18498 0.53705 0.0
C1320 C 0.80933 0.14311 0.72173 0.0
C1321 C 0.83529 0.1733 0.59794 0.0
N1322 N 0.75657 0.11502 0.6715 0.0
N1323 N 0.88477 0.21013 0.6541 0.0
H1324 H 0.83517 0.17942 0.49351 0.0
H1325 H 0.87307 0.19852 0.5287 0.0
H1326 H 0.89929 0.21893 0.69602 0.0
H1327 H 0.89423 0.22518 0.61314 0.0
H1328 H 0.74464 0.10711 0.7166 0.0
H1329 H 0.74127 0.10648 0.63072 0.0
H1330 H 0.77596 0.1049 0.78323 0.0
H1331 H 0.81211 0.13065 0.82139 0.0
C1332 C 0.509 0.00138 0.03282 0.0
C1333 C 0.48494 0.00979 0.04085 0.0
C1334 C 0.46227 0.98695 0.93237 0.0
C1335 C 0.48713 0.9798 0.92313 0.0
N1336 N 0.53816 0.98648 0.95664 0.0
N1337 N 0.44276 0.01677 0.99344 0.0
C1338 C 0.51165 0.98875 0.97121 0.0
C1339 C 0.46294 0.00465 0.98896 0.0
N1340 N 0.52933 0.00552 0.08396 0.0
N1341 N 0.43712 0.97542 0.88897 0.0
H1342 H 0.44169 0.02906 0.03474 0.0
H1343 H 0.42892 0.017 0.95407 0.0
H1344 H 0.43566 0.9624 0.84662 0.0
H1345 H 0.41633 0.97637 0.89764 0.0
H1346 H 0.54472 -0.00376 0.08401 0.0
H1347 H 0.52966 0.01677 0.12831 0.0
H1348 H 0.55835 -0.00441 0.98684 0.0
H1349 H 0.54139 0.97822 0.91117 0.0
C1350 C 0.98811 0.51624 0.07906 0.0
C1351 C 0.98873 0.4873 0.08615 0.0
C1352 C 0.01721 0.49697 0.98085 0.0
C1353 C 0.01263 0.52343 0.96974 0.0
N1354 N -0.00773 0.55768 0.00451 0.0
N1355 N 0.00251 0.44887 0.04467 0.0
C1356 C -0.00211 0.53311 0.01804 0.0
C1357 C 0.00305 0.47736 0.03739 0.0
N1358 N 0.97821 0.52752 0.13064 0.0
N1359 N 0.03563 0.49106 0.93807 0.0
H1360 H -0.00581 0.43491 0.08753 0.0
H1361 H 0.0088 0.43824 0.00722 0.0
H1362 H 0.04628 0.50498 0.89601 0.0
H1363 H 0.04255 0.47411 0.9468 0.0
H1364 H 0.98029 0.55009 0.13108 0.0
H1365 H 0.97001 0.51528 0.17547 0.0
H1366 H 0.9785 0.56364 0.03454 0.0
H1367 H -0.00047 0.57084 0.96053 0.0
C1368 C 0.46848 0.46419 0.96689 0.0
C1369 C 0.48396 0.4905 0.9224 0.0
C1370 C 0.52678 0.52023 0.00229 0.0
C1371 C 0.51223 0.49337 0.04538 0.0
N1372 N 0.47161 0.43873 0.06823 0.0
N1373 N 0.52978 0.54121 0.89169 0.0
C1374 C 0.48367 0.46501 0.02764 0.0
C1375 C 0.51383 0.51777 0.93812 0.0
N1376 N 0.43907 0.43867 0.95119 0.0
N1377 N 0.55204 0.54855 0.0241 0.0
H1378 H 0.52054 0.54061 0.84467 0.0
H1379 H 0.5532 0.56 0.89769 0.0
H1380 H 0.56196 0.55133 0.07127 0.0
H1381 H 0.5616 0.57001 -0.00219 0.0
H1382 H 0.42464 0.42063 0.98448 0.0
H1383 H 0.42827 0.43609 0.90506 0.0
H1384 H 0.45299 0.41612 0.05507 0.0
H1385 H 0.48148 0.43902 0.11439 0.0
loop_
_geom_bond_atom_site_label_1
_geom_bond_atom_site_label_2
_geom_bond_distance
_geom_bond_site_symmetry_2
_ccdc_geom_bond_type
O0 Zn1 1.953 1_556 S
O0 C16 1.225 . S
Zn1 O0 1.953 1_554 S
Zn1 O2 1.949 . S
Zn1 O8 1.919 . S
Zn1 O13 1.924 . S
O2 Zn1 1.949 . S
O2 Zn3 1.923 . S
O2 Zn4 1.950 . S
O2 Zn5 1.945 . S
Zn3 O2 1.923 . S
Zn3 O6 1.933 . S
Zn3 O9 1.941 . S
Zn3 O10 1.965 . S
Zn4 O2 1.950 . S
Zn4 O11 1.938 . S
Zn4 O12 1.906 1_554 S
Zn4 O22 1.953 1_554 S
Zn5 O2 1.945 . S
Zn5 O7 1.932 . S
Zn5 O14 1.977 . S
Zn5 O15 1.910 . S
O6 Zn3 1.933 . S
O6 C17 1.226 . S
O7 Zn5 1.932 . S
O7 C17 1.307 . S
O8 Zn1 1.919 . S
O8 C19 1.253 . S
O9 Zn3 1.941 . S
O9 C19 1.283 . S
O10 Zn3 1.965 . S
O10 C18 1.303 . S
O11 Zn4 1.938 . S
O11 C18 1.247 . S
O12 Zn4 1.906 1_556 S
O12 C20 1.304 . S
O13 Zn1 1.924 . S
O13 C21 1.311 . S
O14 Zn5 1.977 . S
O14 C20 1.272 1_554 S
O15 Zn5 1.910 . S
O15 C21 1.231 . S
C16 O0 1.225 . S
C16 O22 1.298 . S
C17 O6 1.226 . S
C17 O7 1.307 . S
C18 O10 1.303 . S
C18 O11 1.247 . S
C19 O8 1.253 . S
C19 O9 1.283 . S
C20 O12 1.304 . S
C20 O14 1.272 1_556 S
C21 O13 1.311 . S
C21 O15 1.231 . S
O22 Zn4 1.953 1_556 S
O22 C16 1.298 . S
O23 Zn24 1.953 1_556 S
O23 C39 1.225 . S
Zn24 O23 1.953 1_554 S
Zn24 O25 1.949 . S
Zn24 O31 1.919 . S
Zn24 O36 1.924 . S
O25 Zn24 1.949 . S
O25 Zn26 1.923 . S
O25 Zn27 1.950 . S
O25 Zn28 1.945 . S
Zn26 O25 1.923 . S
Zn26 O29 1.933 . S
Zn26 O32 1.941 . S
Zn26 O33 1.965 . S
Zn27 O25 1.950 . S
Zn27 O34 1.938 . S
Zn27 O35 1.906 1_554 S
Zn27 O45 1.953 1_554 S
Zn28 O25 1.945 . S
Zn28 O30 1.932 . S
Zn28 O37 1.977 . S
Zn28 O38 1.910 . S
O29 Zn26 1.933 . S
O29 C40 1.226 . S
O30 Zn28 1.932 . S
O30 C40 1.307 . S
O31 Zn24 1.919 . S
O31 C42 1.253 . S
O32 Zn26 1.941 . S
O32 C42 1.283 . S
O33 Zn26 1.965 . S
O33 C41 1.303 . S
O34 Zn27 1.938 . S
O34 C41 1.247 . S
O35 Zn27 1.906 1_556 S
O35 C43 1.304 . S
O36 Zn24 1.924 . S
O36 C44 1.311 . S
O37 Zn28 1.977 . S
O37 C43 1.272 1_554 S
O38 Zn28 1.910 . S
O38 C44 1.231 . S
C39 O23 1.225 . S
C39 O45 1.298 . S
C40 O29 1.226 . S
C40 O30 1.307 . S
C41 O33 1.303 . S
C41 O34 1.247 . S
C42 O31 1.253 . S
C42 O32 1.283 . S
C43 O35 1.304 . S
C43 O37 1.272 1_556 S
C44 O36 1.311 . S
C44 O38 1.231 . S
O45 Zn27 1.953 1_556 S
O45 C39 1.298 . S
O46 Zn47 1.953 1_556 S
O46 C62 1.225 . S
Zn47 O46 1.953 1_554 S
Zn47 O48 1.949 . S
Zn47 O54 1.919 . S
Zn47 O59 1.924 . S
O48 Zn47 1.949 . S
O48 Zn49 1.923 . S
O48 Zn50 1.950 . S
O48 Zn51 1.945 . S
Zn49 O48 1.923 . S
Zn49 O52 1.933 . S
Zn49 O55 1.941 . S
Zn49 O56 1.965 . S
Zn50 O48 1.950 . S
Zn50 O57 1.938 . S
Zn50 O58 1.906 1_554 S
Zn50 O68 1.953 1_554 S
Zn51 O48 1.945 . S
Zn51 O53 1.932 . S
Zn51 O60 1.977 . S
Zn51 O61 1.910 . S
O52 Zn49 1.933 . S
O52 C63 1.226 . S
O53 Zn51 1.932 . S
O53 C63 1.307 . S
O54 Zn47 1.919 . S
O54 C65 1.253 . S
O55 Zn49 1.941 . S
O55 C65 1.283 . S
O56 Zn49 1.965 . S
O56 C64 1.303 . S
O57 Zn50 1.938 . S
O57 C64 1.247 . S
O58 Zn50 1.906 1_556 S
O58 C66 1.304 . S
O59 Zn47 1.924 . S
O59 C67 1.311 . S
O60 Zn51 1.977 . S
O60 C66 1.272 1_554 S
O61 Zn51 1.910 . S
O61 C67 1.231 . S
C62 O46 1.225 . S
C62 O68 1.298 . S
C63 O52 1.226 . S
C63 O53 1.307 . S
C64 O56 1.303 . S
C64 O57 1.247 . S
C65 O54 1.253 . S
C65 O55 1.283 . S
C66 O58 1.304 . S
C66 O60 1.272 1_556 S
C67 O59 1.311 . S
C67 O61 1.231 . S
O68 Zn50 1.953 1_556 S
O68 C62 1.298 . S
O69 Zn70 1.953 1_554 S
O69 C85 1.225 . S
Zn70 O69 1.953 1_556 S
Zn70 O71 1.949 . S
Zn70 O77 1.919 . S
Zn70 O82 1.924 . S
O71 Zn70 1.949 . S
O71 Zn72 1.923 . S
O71 Zn73 1.950 . S
O71 Zn74 1.945 . S
Zn72 O71 1.923 . S
Zn72 O75 1.933 . S
Zn72 O78 1.941 . S
Zn72 O79 1.965 . S
Zn73 O71 1.950 . S
Zn73 O80 1.938 . S
Zn73 O81 1.906 1_556 S
Zn73 O91 1.953 1_556 S
Zn74 O71 1.945 . S
Zn74 O76 1.932 . S
Zn74 O83 1.977 . S
Zn74 O84 1.910 . S
O75 Zn72 1.933 . S
O75 C86 1.226 . S
O76 Zn74 1.932 . S
O76 C86 1.307 . S
O77 Zn70 1.919 . S
O77 C88 1.253 . S
O78 Zn72 1.941 . S
O78 C88 1.283 . S
O79 Zn72 1.965 . S
O79 C87 1.303 . S
O80 Zn73 1.938 . S
O80 C87 1.247 . S
O81 Zn73 1.906 1_554 S
O81 C89 1.304 . S
O82 Zn70 1.924 . S
O82 C90 1.311 . S
O83 Zn74 1.977 . S
O83 C89 1.272 1_556 S
O84 Zn74 1.910 . S
O84 C90 1.231 . S
C85 O69 1.225 . S
C85 O91 1.298 . S
C86 O75 1.226 . S
C86 O76 1.307 . S
C87 O79 1.303 . S
C87 O80 1.247 . S
C88 O77 1.253 . S
C88 O78 1.283 . S
C89 O81 1.304 . S
C89 O83 1.272 1_554 S
C90 O82 1.311 . S
C90 O84 1.231 . S
O91 Zn73 1.953 1_554 S
O91 C85 1.298 . S
O92 Zn93 1.953 1_554 S
O92 C108 1.225 . S
Zn93 O92 1.953 1_556 S
Zn93 O94 1.949 . S
Zn93 O100 1.919 . S
Zn93 O105 1.924 . S
O94 Zn93 1.949 . S
O94 Zn95 1.923 . S
O94 Zn96 1.950 . S
O94 Zn97 1.945 . S
Zn95 O94 1.923 . S
Zn95 O98 1.933 . S
Zn95 O101 1.941 . S
Zn95 O102 1.965 . S
Zn96 O94 1.950 . S
Zn96 O103 1.938 . S
Zn96 O104 1.906 1_556 S
Zn96 O114 1.953 1_556 S
Zn97 O94 1.945 . S
Zn97 O99 1.932 . S
Zn97 O106 1.977 . S
Zn97 O107 1.910 . S
O98 Zn95 1.933 . S
O98 C109 1.226 . S
O99 Zn97 1.932 . S
O99 C109 1.307 . S
O100 Zn93 1.919 . S
O100 C111 1.253 . S
O101 Zn95 1.941 . S
O101 C111 1.283 . S
O102 Zn95 1.965 . S
O102 C110 1.303 . S
O103 Zn96 1.938 . S
O103 C110 1.247 . S
O104 Zn96 1.906 1_554 S
O104 C112 1.304 . S
O105 Zn93 1.924 . S
O105 C113 1.311 . S
O106 Zn97 1.977 . S
O106 C112 1.272 1_556 S
O107 Zn97 1.910 . S
O107 C113 1.231 . S
C108 O92 1.225 . S
C108 O114 1.298 . S
C109 O98 1.226 . S
C109 O99 1.307 . S
C110 O102 1.303 . S
C110 O103 1.247 . S
C111 O100 1.253 . S
C111 O101 1.283 . S
C112 O104 1.304 . S
C112 O106 1.272 1_554 S
C113 O105 1.311 . S
C113 O107 1.231 . S
O114 Zn96 1.953 1_554 S
O114 C108 1.298 . S
O115 Zn116 1.953 1_554 S
O115 C131 1.225 . S
Zn116 O115 1.953 1_556 S
Zn116 O117 1.949 . S
Zn116 O123 1.919 . S
Zn116 O128 1.924 . S
O117 Zn116 1.949 . S
O117 Zn118 1.923 . S
O117 Zn119 1.950 . S
O117 Zn120 1.945 . S
Zn118 O117 1.923 . S
Zn118 O121 1.933 . S
Zn118 O124 1.941 . S
Zn118 O125 1.965 . S
Zn119 O117 1.950 . S
Zn119 O126 1.938 . S
Zn119 O127 1.906 1_556 S
Zn119 O137 1.953 1_556 S
Zn120 O117 1.945 . S
Zn120 O122 1.932 . S
Zn120 O129 1.977 . S
Zn120 O130 1.910 . S
O121 Zn118 1.933 . S
O121 C132 1.226 . S
O122 Zn120 1.932 . S
O122 C132 1.307 . S
O123 Zn116 1.919 . S
O123 C134 1.253 . S
O124 Zn118 1.941 . S
O124 C134 1.283 . S
O125 Zn118 1.965 . S
O125 C133 1.303 . S
O126 Zn119 1.938 . S
O126 C133 1.247 . S
O127 Zn119 1.906 1_554 S
O127 C135 1.304 . S
O128 Zn116 1.924 . S
O128 C136 1.311 . S
O129 Zn120 1.977 . S
O129 C135 1.272 1_556 S
O130 Zn120 1.910 . S
O130 C136 1.231 . S
C131 O115 1.225 . S
C131 O137 1.298 . S
C132 O121 1.226 . S
C132 O122 1.307 . S
C133 O125 1.303 . S
C133 O126 1.247 . S
C134 O123 1.253 . S
C134 O124 1.283 . S
C135 O127 1.304 . S
C135 O129 1.272 1_554 S
C136 O128 1.311 . S
C136 O130 1.231 . S
O137 Zn119 1.953 1_554 S
O137 C131 1.298 . S
O138 Zn139 1.953 . S
O138 C154 1.225 . S
Zn139 O138 1.953 . S
Zn139 O140 1.949 . S
Zn139 O146 1.919 . S
Zn139 O151 1.924 . S
O140 Zn139 1.949 . S
O140 Zn141 1.923 . S
O140 Zn142 1.950 . S
O140 Zn143 1.945 . S
Zn141 O140 1.923 . S
Zn141 O144 1.933 . S
Zn141 O147 1.941 . S
Zn141 O148 1.965 . S
Zn142 O140 1.950 . S
Zn142 O149 1.938 . S
Zn142 O150 1.906 . S
Zn142 O160 1.953 . S
Zn143 O140 1.945 . S
Zn143 O145 1.932 . S
Zn143 O152 1.977 . S
Zn143 O153 1.910 . S
O144 Zn141 1.933 . S
O144 C155 1.226 . S
O145 Zn143 1.932 . S
O145 C155 1.307 . S
O146 Zn139 1.919 . S
O146 C157 1.253 . S
O147 Zn141 1.941 . S
O147 C157 1.283 . S
O148 Zn141 1.965 . S
O148 C156 1.303 . S
O149 Zn142 1.938 . S
O149 C156 1.247 . S
O150 Zn142 1.906 . S
O150 C158 1.304 . S
O151 Zn139 1.924 . S
O151 C159 1.311 . S
O152 Zn143 1.977 . S
O152 C158 1.272 . S
O153 Zn143 1.910 . S
O153 C159 1.231 . S
C154 O138 1.225 . S
C154 O160 1.298 . S
C155 O144 1.226 . S
C155 O145 1.307 . S
C156 O148 1.303 . S
C156 O149 1.247 . S
C157 O146 1.253 . S
C157 O147 1.283 . S
C158 O150 1.304 . S
C158 O152 1.272 . S
C159 O151 1.311 . S
C159 O153 1.231 . S
O160 Zn142 1.953 . S
O160 C154 1.298 . S
O161 Zn162 1.953 . S
O161 C177 1.225 . S
Zn162 O161 1.953 . S
Zn162 O163 1.949 . S
Zn162 O169 1.919 . S
Zn162 O174 1.924 . S
O163 Zn162 1.949 . S
O163 Zn164 1.923 . S
O163 Zn165 1.950 . S
O163 Zn166 1.945 . S
Zn164 O163 1.923 . S
Zn164 O167 1.933 . S
Zn164 O170 1.941 . S
Zn164 O171 1.965 . S
Zn165 O163 1.950 . S
Zn165 O172 1.938 . S
Zn165 O173 1.906 . S
Zn165 O183 1.953 . S
Zn166 O163 1.945 . S
Zn166 O168 1.932 . S
Zn166 O175 1.977 . S
Zn166 O176 1.910 . S
O167 Zn164 1.933 . S
O167 C178 1.226 . S
O168 Zn166 1.932 . S
O168 C178 1.307 . S
O169 Zn162 1.919 . S
O169 C180 1.253 . S
O170 Zn164 1.941 . S
O170 C180 1.283 . S
O171 Zn164 1.965 . S
O171 C179 1.303 . S
O172 Zn165 1.938 . S
O172 C179 1.247 . S
O173 Zn165 1.906 . S
O173 C181 1.304 . S
O174 Zn162 1.924 . S
O174 C182 1.311 . S
O175 Zn166 1.977 . S
O175 C181 1.272 . S
O176 Zn166 1.910 . S
O176 C182 1.231 . S
C177 O161 1.225 . S
C177 O183 1.298 . S
C178 O167 1.226 . S
C178 O168 1.307 . S
C179 O171 1.303 . S
C179 O172 1.247 . S
C180 O169 1.253 . S
C180 O170 1.283 . S
C181 O173 1.304 . S
C181 O175 1.272 . S
C182 O174 1.311 . S
C182 O176 1.231 . S
O183 Zn165 1.953 . S
O183 C177 1.298 . S
O184 Zn185 1.953 . S
O184 C200 1.225 . S
Zn185 O184 1.953 . S
Zn185 O186 1.949 . S
Zn185 O192 1.919 . S
Zn185 O197 1.924 . S
O186 Zn185 1.949 . S
O186 Zn187 1.923 . S
O186 Zn188 1.950 . S
O186 Zn189 1.945 . S
Zn187 O186 1.923 . S
Zn187 O190 1.933 . S
Zn187 O193 1.941 . S
Zn187 O194 1.965 . S
Zn188 O186 1.950 . S
Zn188 O195 1.938 . S
Zn188 O196 1.906 . S
Zn188 O206 1.953 . S
Zn189 O186 1.945 . S
Zn189 O191 1.932 . S
Zn189 O198 1.977 . S
Zn189 O199 1.910 . S
O190 Zn187 1.933 . S
O190 C201 1.226 . S
O191 Zn189 1.932 . S
O191 C201 1.307 . S
O192 Zn185 1.919 . S
O192 C203 1.253 . S
O193 Zn187 1.941 . S
O193 C203 1.283 . S
O194 Zn187 1.965 . S
O194 C202 1.303 . S
O195 Zn188 1.938 . S
O195 C202 1.247 . S
O196 Zn188 1.906 . S
O196 C204 1.304 . S
O197 Zn185 1.924 . S
O197 C205 1.311 . S
O198 Zn189 1.977 . S
O198 C204 1.272 . S
O199 Zn189 1.910 . S
O199 C205 1.231 . S
C200 O184 1.225 . S
C200 O206 1.298 . S
C201 O190 1.226 . S
C201 O191 1.307 . S
C202 O194 1.303 . S
C202 O195 1.247 . S
C203 O192 1.253 . S
C203 O193 1.283 . S
C204 O196 1.304 . S
C204 O198 1.272 . S
C205 O197 1.311 . S
C205 O199 1.231 . S
O206 Zn188 1.953 . S
O206 C200 1.298 . S
O207 Zn208 1.953 . S
O207 C223 1.225 . S
Zn208 O207 1.953 . S
Zn208 O209 1.949 . S
Zn208 O215 1.914 1_545 S
Zn208 O220 1.924 1_545 S
O209 Zn208 1.949 . S
O209 Zn210 1.923 . S
O209 Zn211 1.950 . S
O209 Zn212 1.945 . S
Zn210 O209 1.923 . S
Zn210 O213 1.933 . S
Zn210 O216 1.941 . S
Zn210 O217 1.965 . S
Zn211 O209 1.950 . S
Zn211 O218 1.938 . S
Zn211 O219 1.906 . S
Zn211 O229 1.953 . S
Zn212 O209 1.945 . S
Zn212 O214 1.932 . S
Zn212 O221 1.977 . S
Zn212 O222 1.910 . S
O213 Zn210 1.933 . S
O213 C224 1.226 . S
O214 Zn212 1.932 . S
O214 C224 1.307 . S
O215 Zn208 1.914 1_565 S
O215 C226 1.250 1_565 S
O216 Zn210 1.941 . S
O216 C226 1.283 . S
O217 Zn210 1.965 . S
O217 C225 1.303 . S
O218 Zn211 1.938 . S
O218 C225 1.247 . S
O219 Zn211 1.906 . S
O219 C227 1.304 . S
O220 Zn208 1.924 1_565 S
O220 C228 1.311 . S
O221 Zn212 1.977 . S
O221 C227 1.272 . S
O222 Zn212 1.910 . S
O222 C228 1.231 1_545 S
C223 O207 1.225 . S
C223 O229 1.298 . S
C224 O213 1.226 . S
C224 O214 1.307 . S
C225 O217 1.303 . S
C225 O218 1.247 . S
C226 O215 1.250 1_545 S
C226 O216 1.283 . S
C227 O219 1.304 . S
C227 O221 1.272 . S
C228 O220 1.311 . S
C228 O222 1.231 1_565 S
O229 Zn211 1.953 . S
O229 C223 1.298 . S
O230 Zn231 1.953 . S
O230 C246 1.225 . S
Zn231 O230 1.953 . S
Zn231 O232 1.949 . S
Zn231 O238 1.918 1_655 S
Zn231 O243 1.924 1_655 S
O232 Zn231 1.949 . S
O232 Zn233 1.923 . S
O232 Zn234 1.950 . S
O232 Zn235 1.945 . S
Zn233 O232 1.923 . S
Zn233 O236 1.933 . S
Zn233 O239 1.941 . S
Zn233 O240 1.965 . S
Zn234 O232 1.950 . S
Zn234 O241 1.938 . S
Zn234 O242 1.906 . S
Zn234 O252 1.953 . S
Zn235 O232 1.945 . S
Zn235 O237 1.932 . S
Zn235 O244 1.977 . S
Zn235 O245 1.910 . S
O236 Zn233 1.933 . S
O236 C247 1.226 . S
O237 Zn235 1.932 . S
O237 C247 1.307 . S
O238 Zn231 1.918 1_455 S
O238 C249 1.249 1_455 S
O239 Zn233 1.941 . S
O239 C249 1.283 . S
O240 Zn233 1.965 . S
O240 C248 1.303 . S
O241 Zn234 1.938 . S
O241 C248 1.247 . S
O242 Zn234 1.906 . S
O242 C250 1.304 . S
O243 Zn231 1.924 1_455 S
O243 C251 1.311 . S
O244 Zn235 1.977 . S
O244 C250 1.272 . S
O245 Zn235 1.910 . S
O245 C251 1.231 1_655 S
C246 O230 1.225 . S
C246 O252 1.298 . S
C247 O236 1.226 . S
C247 O237 1.307 . S
C248 O240 1.303 . S
C248 O241 1.247 . S
C249 O238 1.249 1_655 S
C249 O239 1.283 . S
C250 O242 1.304 . S
C250 O244 1.272 . S
C251 O243 1.311 . S
C251 O245 1.231 1_455 S
O252 Zn234 1.953 . S
O252 C246 1.298 . S
O253 Zn254 1.953 . S
O253 C269 1.225 . S
Zn254 O253 1.953 . S
Zn254 O255 1.949 . S
Zn254 O261 1.919 . S
Zn254 O266 1.924 . S
O255 Zn254 1.949 . S
O255 Zn256 1.923 . S
O255 Zn257 1.950 . S
O255 Zn258 1.945 . S
Zn256 O255 1.923 . S
Zn256 O259 1.933 . S
Zn256 O262 1.941 . S
Zn256 O263 1.965 . S
Zn257 O255 1.950 . S
Zn257 O264 1.938 . S
Zn257 O265 1.906 . S
Zn257 O275 1.953 . S
Zn258 O255 1.945 . S
Zn258 O260 1.932 . S
Zn258 O267 1.977 . S
Zn258 O268 1.910 . S
O259 Zn256 1.933 . S
O259 C270 1.226 . S
O260 Zn258 1.932 . S
O260 C270 1.307 . S
O261 Zn254 1.919 . S
O261 C272 1.253 . S
O262 Zn256 1.941 . S
O262 C272 1.283 . S
O263 Zn256 1.965 . S
O263 C271 1.303 . S
O264 Zn257 1.938 . S
O264 C271 1.247 . S
O265 Zn257 1.906 . S
O265 C273 1.304 . S
O266 Zn254 1.924 . S
O266 C274 1.311 . S
O267 Zn258 1.977 . S
O267 C273 1.272 . S
O268 Zn258 1.910 . S
O268 C274 1.231 . S
C269 O253 1.225 . S
C269 O275 1.298 . S
C270 O259 1.226 . S
C270 O260 1.307 . S
C271 O263 1.303 . S
C271 O264 1.247 . S
C272 O261 1.253 . S
C272 O262 1.283 . S
C273 O265 1.304 . S
C273 O267 1.272 . S
C274 O266 1.311 . S
C274 O268 1.231 . S
O275 Zn257 1.953 . S
O275 C269 1.298 . S
O276 Zn277 1.953 . S
O276 C292 1.225 . S
Zn277 O276 1.953 . S
Zn277 O278 1.949 . S
Zn277 O284 1.914 1_565 S
Zn277 O289 1.924 1_565 S
O278 Zn277 1.949 . S
O278 Zn279 1.923 . S
O278 Zn280 1.950 . S
O278 Zn281 1.945 . S
Zn279 O278 1.923 . S
Zn279 O282 1.933 . S
Zn279 O285 1.941 . S
Zn279 O286 1.965 . S
Zn280 O278 1.950 . S
Zn280 O287 1.938 . S
Zn280 O288 1.906 . S
Zn280 O298 1.953 . S
Zn281 O278 1.945 . S
Zn281 O283 1.932 . S
Zn281 O290 1.977 . S
Zn281 O291 1.910 . S
O282 Zn279 1.933 . S
O282 C293 1.226 . S
O283 Zn281 1.932 . S
O283 C293 1.307 . S
O284 Zn277 1.914 1_545 S
O284 C295 1.250 1_545 S
O285 Zn279 1.941 . S
O285 C295 1.283 . S
O286 Zn279 1.965 . S
O286 C294 1.303 . S
O287 Zn280 1.938 . S
O287 C294 1.247 . S
O288 Zn280 1.906 . S
O288 C296 1.304 . S
O289 Zn277 1.924 1_545 S
O289 C297 1.311 . S
O290 Zn281 1.977 . S
O290 C296 1.272 . S
O291 Zn281 1.910 . S
O291 C297 1.231 1_565 S
C292 O276 1.225 . S
C292 O298 1.298 . S
C293 O282 1.226 . S
C293 O283 1.307 . S
C294 O286 1.303 . S
C294 O287 1.247 . S
C295 O284 1.250 1_565 S
C295 O285 1.283 . S
C296 O288 1.304 . S
C296 O290 1.272 . S
C297 O289 1.311 . S
C297 O291 1.231 1_545 S
O298 Zn280 1.953 . S
O298 C292 1.298 . S
O299 Zn300 1.953 . S
O299 C315 1.225 . S
Zn300 O299 1.953 . S
Zn300 O301 1.949 . S
Zn300 O307 1.918 1_455 S
Zn300 O312 1.924 1_455 S
O301 Zn300 1.949 . S
O301 Zn302 1.923 . S
O301 Zn303 1.950 . S
O301 Zn304 1.945 . S
Zn302 O301 1.923 . S
Zn302 O305 1.933 . S
Zn302 O308 1.941 . S
Zn302 O309 1.965 . S
Zn303 O301 1.950 . S
Zn303 O310 1.938 . S
Zn303 O311 1.906 . S
Zn303 O321 1.953 . S
Zn304 O301 1.945 . S
Zn304 O306 1.932 . S
Zn304 O313 1.977 . S
Zn304 O314 1.910 . S
O305 Zn302 1.933 . S
O305 C316 1.226 . S
O306 Zn304 1.932 . S
O306 C316 1.307 . S
O307 Zn300 1.918 1_655 S
O307 C318 1.249 1_655 S
O308 Zn302 1.941 . S
O308 C318 1.283 . S
O309 Zn302 1.965 . S
O309 C317 1.303 . S
O310 Zn303 1.938 . S
O310 C317 1.247 . S
O311 Zn303 1.906 . S
O311 C319 1.304 . S
O312 Zn300 1.924 1_655 S
O312 C320 1.311 . S
O313 Zn304 1.977 . S
O313 C319 1.272 . S
O314 Zn304 1.910 . S
O314 C320 1.231 1_455 S
C315 O299 1.225 . S
C315 O321 1.298 . S
C316 O305 1.226 . S
C316 O306 1.307 . S
C317 O309 1.303 . S
C317 O310 1.247 . S
C318 O307 1.249 1_455 S
C318 O308 1.283 . S
C319 O311 1.304 . S
C319 O313 1.272 . S
C320 O312 1.311 . S
C320 O314 1.231 1_655 S
O321 Zn303 1.953 . S
O321 C315 1.298 . S
O322 Zn323 1.953 . S
O322 C338 1.225 . S
Zn323 O322 1.953 . S
Zn323 O324 1.949 . S
Zn323 O330 1.919 . S
Zn323 O335 1.924 . S
O324 Zn323 1.949 . S
O324 Zn325 1.923 . S
O324 Zn326 1.950 . S
O324 Zn327 1.945 . S
Zn325 O324 1.923 . S
Zn325 O328 1.933 . S
Zn325 O331 1.941 . S
Zn325 O332 1.965 . S
Zn326 O324 1.950 . S
Zn326 O333 1.938 . S
Zn326 O334 1.906 . S
Zn326 O344 1.953 . S
Zn327 O324 1.945 . S
Zn327 O329 1.932 . S
Zn327 O336 1.977 . S
Zn327 O337 1.910 . S
O328 Zn325 1.933 . S
O328 C339 1.226 . S
O329 Zn327 1.932 . S
O329 C339 1.307 . S
O330 Zn323 1.919 . S
O330 C341 1.253 . S
O331 Zn325 1.941 . S
O331 C341 1.283 . S
O332 Zn325 1.965 . S
O332 C340 1.303 . S
O333 Zn326 1.938 . S
O333 C340 1.247 . S
O334 Zn326 1.906 . S
O334 C342 1.304 . S
O335 Zn323 1.924 . S
O335 C343 1.311 . S
O336 Zn327 1.977 . S
O336 C342 1.272 . S
O337 Zn327 1.910 . S
O337 C343 1.231 . S
C338 O322 1.225 . S
C338 O344 1.298 . S
C339 O328 1.226 . S
C339 O329 1.307 . S
C340 O332 1.303 . S
C340 O333 1.247 . S
C341 O330 1.253 . S
C341 O331 1.283 . S
C342 O334 1.304 . S
C342 O336 1.272 . S
C343 O335 1.311 . S
C343 O337 1.231 . S
O344 Zn326 1.953 . S
O344 C338 1.298 . S
O345 Zn346 1.953 . S
O345 C361 1.225 . S
Zn346 O345 1.953 . S
Zn346 O347 1.949 . S
Zn346 O353 1.919 . S
Zn346 O358 1.924 . S
O347 Zn346 1.949 . S
O347 Zn348 1.923 . S
O347 Zn349 1.950 . S
O347 Zn350 1.945 . S
Zn348 O347 1.923 . S
Zn348 O351 1.933 . S
Zn348 O354 1.941 . S
Zn348 O355 1.965 . S
Zn349 O347 1.950 . S
Zn349 O356 1.938 . S
Zn349 O357 1.906 . S
Zn349 O367 1.953 . S
Zn350 O347 1.945 . S
Zn350 O352 1.932 . S
Zn350 O359 1.977 . S
Zn350 O360 1.910 . S
O351 Zn348 1.933 . S
O351 C362 1.226 . S
O352 Zn350 1.932 . S
O352 C362 1.307 . S
O353 Zn346 1.919 . S
O353 C364 1.253 . S
O354 Zn348 1.941 . S
O354 C364 1.283 . S
O355 Zn348 1.965 . S
O355 C363 1.303 . S
O356 Zn349 1.938 . S
O356 C363 1.247 . S
O357 Zn349 1.906 . S
O357 C365 1.304 . S
O358 Zn346 1.924 . S
O358 C366 1.311 . S
O359 Zn350 1.977 . S
O359 C365 1.272 . S
O360 Zn350 1.910 . S
O360 C366 1.231 . S
C361 O345 1.225 . S
C361 O367 1.298 . S
C362 O351 1.226 . S
C362 O352 1.307 . S
C363 O355 1.303 . S
C363 O356 1.247 . S
C364 O353 1.253 . S
C364 O354 1.283 . S
C365 O357 1.304 . S
C365 O359 1.272 . S
C366 O358 1.311 . S
C366 O360 1.231 . S
O367 Zn349 1.953 . S
O367 C361 1.298 . S
O368 Zn369 1.953 . S
O368 C384 1.225 . S
Zn369 O368 1.953 . S
Zn369 O370 1.949 . S
Zn369 O376 1.919 . S
Zn369 O381 1.924 . S
O370 Zn369 1.949 . S
O370 Zn371 1.923 . S
O370 Zn372 1.950 . S
O370 Zn373 1.945 . S
Zn371 O370 1.923 . S
Zn371 O374 1.933 . S
Zn371 O377 1.941 . S
Zn371 O378 1.965 . S
Zn372 O370 1.950 . S
Zn372 O379 1.938 . S
Zn372 O380 1.906 . S
Zn372 O390 1.953 . S
Zn373 O370 1.945 . S
Zn373 O375 1.932 . S
Zn373 O382 1.977 . S
Zn373 O383 1.910 . S
O374 Zn371 1.933 . S
O374 C385 1.226 . S
O375 Zn373 1.932 . S
O375 C385 1.307 . S
O376 Zn369 1.919 . S
O376 C387 1.253 . S
O377 Zn371 1.941 . S
O377 C387 1.283 . S
O378 Zn371 1.965 . S
O378 C386 1.303 . S
O379 Zn372 1.938 . S
O379 C386 1.247 . S
O380 Zn372 1.906 . S
O380 C388 1.304 . S
O381 Zn369 1.924 . S
O381 C389 1.311 . S
O382 Zn373 1.977 . S
O382 C388 1.272 . S
O383 Zn373 1.910 . S
O383 C389 1.231 . S
C384 O368 1.225 . S
C384 O390 1.298 . S
C385 O374 1.226 . S
C385 O375 1.307 . S
C386 O378 1.303 . S
C386 O379 1.247 . S
C387 O376 1.253 . S
C387 O377 1.283 . S
C388 O380 1.304 . S
C388 O382 1.272 . S
C389 O381 1.311 . S
C389 O383 1.231 . S
O390 Zn372 1.953 . S
O390 C384 1.298 . S
O391 Zn392 1.953 . S
O391 C407 1.225 . S
Zn392 O391 1.953 . S
Zn392 O393 1.949 . S
Zn392 O399 1.919 . S
Zn392 O404 1.924 . S
O393 Zn392 1.949 . S
O393 Zn394 1.923 . S
O393 Zn395 1.950 . S
O393 Zn396 1.945 . S
Zn394 O393 1.923 . S
Zn394 O397 1.933 . S
Zn394 O400 1.941 . S
Zn394 O401 1.965 . S
Zn395 O393 1.950 . S
Zn395 O402 1.938 . S
Zn395 O403 1.906 . S
Zn395 O413 1.953 . S
Zn396 O393 1.945 . S
Zn396 O398 1.932 . S
Zn396 O405 1.977 . S
Zn396 O406 1.910 . S
O397 Zn394 1.933 . S
O397 C408 1.226 . S
O398 Zn396 1.932 . S
O398 C408 1.307 . S
O399 Zn392 1.919 . S
O399 C410 1.253 . S
O400 Zn394 1.941 . S
O400 C410 1.283 . S
O401 Zn394 1.965 . S
O401 C409 1.303 . S
O402 Zn395 1.938 . S
O402 C409 1.247 . S
O403 Zn395 1.906 . S
O403 C411 1.304 . S
O404 Zn392 1.924 . S
O404 C412 1.311 . S
O405 Zn396 1.977 . S
O405 C411 1.272 . S
O406 Zn396 1.910 . S
O406 C412 1.231 . S
C407 O391 1.225 . S
C407 O413 1.298 . S
C408 O397 1.226 . S
C408 O398 1.307 . S
C409 O401 1.303 . S
C409 O402 1.247 . S
C410 O399 1.253 . S
C410 O400 1.283 . S
C411 O403 1.304 . S
C411 O405 1.272 . S
C412 O404 1.311 . S
C412 O406 1.231 . S
O413 Zn395 1.953 . S
O413 C407 1.298 . S
C414 C415 1.363 . S
C414 C420 1.379 . S
C414 N422 1.356 . S
C415 C414 1.363 . S
C415 C421 1.363 . S
C416 C417 1.363 . S
C416 C421 1.379 . S
C416 N423 1.356 . S
C417 C416 1.363 . S
C417 C420 1.363 . S
N418 C420 1.349 1_554 S
N418 H430 0.988 . S
N418 H431 0.990 . S
N419 C421 1.356 . S
N419 H424 0.984 . S
N419 H425 0.985 . S
C420 C414 1.379 . S
C420 C417 1.363 . S
C420 N418 1.349 1_556 S
C421 C415 1.363 . S
C421 C416 1.379 . S
C421 N419 1.356 . S
N422 C414 1.356 . S
N422 H428 0.984 . S
N422 H429 0.984 . S
N423 C416 1.356 . S
N423 H426 0.984 . S
N423 H427 0.985 . S
H424 N419 0.984 . S
H425 N419 0.985 . S
H426 N423 0.984 . S
H427 N423 0.985 . S
H428 N422 0.984 . S
H429 N422 0.984 . S
H430 N418 0.988 . S
H431 N418 0.990 . S
C432 C433 1.363 . S
C432 C438 1.379 . S
C432 N440 1.356 1_545 S
C433 C432 1.363 . S
C433 C439 1.363 . S
C434 C435 1.363 . S
C434 C439 1.379 . S
C434 N441 1.356 . S
C435 C434 1.363 . S
C435 C438 1.363 . S
N436 C438 1.356 . S
N436 H448 0.984 . S
N436 H449 0.985 . S
N437 C439 1.356 1_554 S
N437 H442 0.984 . S
N437 H443 0.985 . S
C438 C432 1.379 . S
C438 C435 1.363 . S
C438 N436 1.356 . S
C439 C433 1.363 . S
C439 C434 1.379 . S
C439 N437 1.356 1_556 S
N440 C432 1.356 1_565 S
N440 H446 0.984 . S
N440 H447 0.984 . S
N441 C434 1.356 . S
N441 H444 0.984 . S
N441 H445 0.985 1_556 S
H442 N437 0.984 . S
H443 N437 0.985 . S
H444 N441 0.984 . S
H445 N441 0.985 1_554 S
H446 N440 0.984 . S
H447 N440 0.984 . S
H448 N436 0.984 . S
H449 N436 0.985 . S
C450 C451 1.363 . S
C450 C456 1.379 . S
C450 N458 1.356 . S
C451 C450 1.363 . S
C451 C457 1.363 . S
C452 C453 1.363 . S
C452 C457 1.379 . S
C452 N459 1.356 1_556 S
C453 C452 1.363 . S
C453 C456 1.363 . S
N454 C456 1.356 1_455 S
N454 H466 0.984 . S
N454 H467 0.985 . S
N455 C457 1.356 . S
N455 H460 0.984 . S
N455 H461 0.985 1_556 S
C456 C450 1.379 . S
C456 C453 1.363 . S
C456 N454 1.356 1_655 S
C457 C451 1.363 . S
C457 C452 1.379 . S
C457 N455 1.356 . S
N458 C450 1.356 . S
N458 H464 0.984 . S
N458 H465 0.984 . S
N459 C452 1.356 1_554 S
N459 H462 0.984 . S
N459 H463 0.985 . S
H460 N455 0.984 . S
H461 N455 0.985 1_554 S
H462 N459 0.984 . S
H463 N459 0.985 . S
H464 N458 0.984 . S
H465 N458 0.984 . S
H466 N454 0.984 . S
H467 N454 0.985 . S
C468 C469 1.363 . S
C468 C474 1.379 . S
C468 N476 1.356 1_554 S
C469 C468 1.363 . S
C469 C475 1.363 . S
C470 C471 1.363 . S
C470 C475 1.379 . S
C470 N477 1.356 . S
C471 C470 1.363 . S
C471 C474 1.363 . S
N472 C474 1.356 . S
N472 H484 0.984 1_554 S
N472 H485 0.985 . S
N473 C475 1.356 . S
N473 H478 0.984 . S
N473 H479 0.985 . S
C474 C468 1.379 . S
C474 C471 1.363 . S
C474 N472 1.356 . S
C475 C469 1.363 . S
C475 C470 1.379 . S
C475 N473 1.356 . S
N476 C468 1.356 1_556 S
N476 H482 0.984 . S
N476 H483 0.984 . S
N477 C470 1.356 . S
N477 H480 0.984 . S
N477 H481 0.985 . S
H478 N473 0.984 . S
H479 N473 0.985 . S
H480 N477 0.984 . S
H481 N477 0.985 . S
H482 N476 0.984 . S
H483 N476 0.984 . S
H484 N472 0.984 1_556 S
H485 N472 0.985 . S
C486 C487 1.363 1_556 S
C486 C492 1.379 1_556 S
C486 N494 1.356 . S
C487 C486 1.363 1_554 S
C487 C493 1.363 . S
C488 C489 1.363 . S
C488 C493 1.379 . S
C488 N495 1.356 . S
C489 C488 1.363 . S
C489 C492 1.363 . S
N490 C492 1.356 . S
N490 H502 0.984 1_554 S
N490 H503 0.985 . S
N491 C493 1.356 . S
N491 H496 0.984 1_565 S
N491 H497 0.985 . S
C492 C486 1.379 1_554 S
C492 C489 1.363 . S
C492 N490 1.356 . S
C493 C487 1.363 . S
C493 C488 1.379 . S
C493 N491 1.356 . S
N494 C486 1.356 . S
N494 H500 0.984 . S
N494 H501 0.984 1_565 S
N495 C488 1.356 . S
N495 H498 0.984 . S
N495 H499 0.985 . S
H496 N491 0.984 1_545 S
H497 N491 0.985 . S
H498 N495 0.984 . S
H499 N495 0.985 . S
H500 N494 0.984 . S
H501 N494 0.984 1_545 S
H502 N490 0.984 1_556 S
H503 N490 0.985 . S
C504 C505 1.363 . S
C504 C510 1.379 . S
C504 N512 1.356 . S
C505 C504 1.363 . S
C505 C511 1.363 . S
C506 C507 1.363 . S
C506 C511 1.379 . S
C506 N513 1.356 . S
C507 C506 1.363 . S
C507 C510 1.363 . S
N508 C510 1.370 1_556 S
N508 H520 1.010 1_455 S
N508 H521 0.961 1_455 S
N509 C511 1.356 . S
N509 H514 0.984 . S
N509 H515 0.985 . S
C510 C504 1.379 . S
C510 C507 1.363 . S
C510 N508 1.370 1_554 S
C511 C505 1.363 . S
C511 C506 1.379 . S
C511 N509 1.356 . S
N512 C504 1.356 . S
N512 H518 0.984 . S
N512 H519 0.984 . S
N513 C506 1.356 . S
N513 H516 0.984 . S
N513 H517 0.985 . S
H514 N509 0.984 . S
H515 N509 0.985 . S
H516 N513 0.984 . S
H517 N513 0.985 . S
H518 N512 0.984 . S
H519 N512 0.984 . S
H520 N508 1.010 1_655 S
H521 N508 0.961 1_655 S
C522 C523 1.363 . S
C522 C528 1.379 . S
C522 N530 1.356 . S
C523 C522 1.363 . S
C523 C529 1.363 . S
C524 C525 1.363 . S
C524 C529 1.379 . S
C524 N531 1.356 . S
C525 C524 1.363 . S
C525 C528 1.363 . S
N526 C528 1.356 . S
N526 H538 0.984 . S
N526 H539 0.985 . S
N527 C529 1.356 . S
N527 H532 0.984 . S
N527 H533 0.985 . S
C528 C522 1.379 . S
C528 C525 1.363 . S
C528 N526 1.356 . S
C529 C523 1.363 . S
C529 C524 1.379 . S
C529 N527 1.356 . S
N530 C522 1.356 . S
N530 H536 0.984 . S
N530 H537 0.984 . S
N531 C524 1.356 . S
N531 H534 0.984 . S
N531 H535 0.985 . S
H532 N527 0.984 . S
H533 N527 0.985 . S
H534 N531 0.984 . S
H535 N531 0.985 . S
H536 N530 0.984 . S
H537 N530 0.984 . S
H538 N526 0.984 . S
H539 N526 0.985 . S
C540 C541 1.363 . S
C540 C546 1.379 . S
C540 N548 1.356 . S
C541 C540 1.363 . S
C541 C547 1.363 . S
C542 C543 1.363 . S
C542 C547 1.379 . S
C542 N549 1.356 . S
C543 C542 1.363 . S
C543 C546 1.363 . S
N544 C546 1.356 . S
N544 H556 0.984 . S
N544 H557 0.985 . S
N545 C547 1.356 . S
N545 H550 0.984 . S
N545 H551 0.985 . S
C546 C540 1.379 . S
C546 C543 1.363 . S
C546 N544 1.356 . S
C547 C541 1.363 . S
C547 C542 1.379 . S
C547 N545 1.356 . S
N548 C540 1.356 . S
N548 H554 0.984 . S
N548 H555 0.984 . S
N549 C542 1.356 . S
N549 H552 0.984 . S
N549 H553 0.985 . S
H550 N545 0.984 . S
H551 N545 0.985 . S
H552 N549 0.984 . S
H553 N549 0.985 . S
H554 N548 0.984 . S
H555 N548 0.984 . S
H556 N544 0.984 . S
H557 N544 0.985 . S
C558 C559 1.363 . S
C558 C564 1.379 . S
C558 N566 1.356 . S
C559 C558 1.363 . S
C559 C565 1.363 . S
C560 C561 1.363 . S
C560 C565 1.379 . S
C560 N567 1.356 . S
C561 C560 1.363 . S
C561 C564 1.363 . S
N562 C564 1.356 . S
N562 H574 0.984 . S
N562 H575 0.985 . S
N563 C565 1.356 . S
N563 H568 0.984 . S
N563 H569 0.985 . S
C564 C558 1.379 . S
C564 C561 1.363 . S
C564 N562 1.356 . S
C565 C559 1.363 . S
C565 C560 1.379 . S
C565 N563 1.356 . S
N566 C558 1.356 . S
N566 H572 0.984 . S
N566 H573 0.984 . S
N567 C560 1.356 . S
N567 H570 0.984 . S
N567 H571 0.985 . S
H568 N563 0.984 . S
H569 N563 0.985 . S
H570 N567 0.984 . S
H571 N567 0.985 . S
H572 N566 0.984 . S
H573 N566 0.984 . S
H574 N562 0.984 . S
H575 N562 0.985 . S
C576 C577 1.363 . S
C576 C582 1.379 . S
C576 N584 1.356 . S
C577 C576 1.363 . S
C577 C583 1.363 . S
C578 C579 1.363 . S
C578 C583 1.379 . S
C578 N585 1.356 . S
C579 C578 1.363 . S
C579 C582 1.363 . S
N580 C582 1.356 . S
N580 H592 0.984 . S
N580 H593 0.985 . S
N581 C583 1.356 . S
N581 H586 0.984 . S
N581 H587 0.985 . S
C582 C576 1.379 . S
C582 C579 1.363 . S
C582 N580 1.356 . S
C583 C577 1.363 . S
C583 C578 1.379 . S
C583 N581 1.356 . S
N584 C576 1.356 . S
N584 H590 0.984 . S
N584 H591 0.984 . S
N585 C578 1.356 . S
N585 H588 0.984 . S
N585 H589 0.985 . S
H586 N581 0.984 . S
H587 N581 0.985 . S
H588 N585 0.984 . S
H589 N585 0.985 . S
H590 N584 0.984 . S
H591 N584 0.984 . S
H592 N580 0.984 . S
H593 N580 0.985 . S
C594 C595 1.363 . S
C594 C600 1.379 . S
C594 N602 1.356 . S
C595 C594 1.363 . S
C595 C601 1.363 . S
C596 C597 1.363 . S
C596 C601 1.379 . S
C596 N603 1.356 . S
C597 C596 1.363 . S
C597 C600 1.363 . S
N598 C600 1.356 . S
N598 H610 0.984 . S
N598 H611 0.985 . S
N599 C601 1.356 . S
N599 H604 0.984 . S
N599 H605 0.985 . S
C600 C594 1.379 . S
C600 C597 1.363 . S
C600 N598 1.356 . S
C601 C595 1.363 . S
C601 C596 1.379 . S
C601 N599 1.356 . S
N602 C594 1.356 . S
N602 H608 0.984 . S
N602 H609 0.984 . S
N603 C596 1.356 . S
N603 H606 0.984 . S
N603 H607 0.985 . S
H604 N599 0.984 . S
H605 N599 0.985 . S
H606 N603 0.984 . S
H607 N603 0.985 . S
H608 N602 0.984 . S
H609 N602 0.984 . S
H610 N598 0.984 . S
H611 N598 0.985 . S
C612 C613 1.363 . S
C612 C618 1.379 . S
C612 N620 1.356 . S
C613 C612 1.363 . S
C613 C619 1.363 . S
C614 C615 1.363 . S
C614 C619 1.379 . S
C614 N621 1.356 . S
C615 C614 1.363 . S
C615 C618 1.363 . S
N616 C618 1.356 . S
N616 H628 0.984 . S
N616 H629 0.985 . S
N617 C619 1.356 . S
N617 H622 0.984 . S
N617 H623 0.985 . S
C618 C612 1.379 . S
C618 C615 1.363 . S
C618 N616 1.356 . S
C619 C613 1.363 . S
C619 C614 1.379 . S
C619 N617 1.356 . S
N620 C612 1.356 . S
N620 H626 0.984 . S
N620 H627 0.984 . S
N621 C614 1.356 . S
N621 H624 0.984 . S
N621 H625 0.985 . S
H622 N617 0.984 . S
H623 N617 0.985 . S
H624 N621 0.984 . S
H625 N621 0.985 . S
H626 N620 0.984 . S
H627 N620 0.984 . S
H628 N616 0.984 . S
H629 N616 0.985 . S
C630 C631 1.363 . S
C630 C636 1.379 . S
C630 N638 1.356 . S
C631 C630 1.363 . S
C631 C637 1.363 . S
C632 C633 1.363 . S
C632 C637 1.379 . S
C632 N639 1.356 . S
C633 C632 1.363 . S
C633 C636 1.363 . S
N634 C636 1.356 . S
N634 H646 0.984 . S
N634 H647 0.985 . S
N635 C637 1.356 . S
N635 H640 0.984 . S
N635 H641 0.985 . S
C636 C630 1.379 . S
C636 C633 1.363 . S
C636 N634 1.356 . S
C637 C631 1.363 . S
C637 C632 1.379 . S
C637 N635 1.356 . S
N638 C630 1.356 . S
N638 H644 0.984 . S
N638 H645 0.984 . S
N639 C632 1.356 . S
N639 H642 0.984 . S
N639 H643 0.985 . S
H640 N635 0.984 . S
H641 N635 0.985 . S
H642 N639 0.984 . S
H643 N639 0.985 . S
H644 N638 0.984 . S
H645 N638 0.984 . S
H646 N634 0.984 . S
H647 N634 0.985 . S
C648 C649 1.363 . S
C648 C654 1.379 . S
C648 N656 1.356 . S
C649 C648 1.363 . S
C649 C655 1.363 . S
C650 C651 1.363 . S
C650 C655 1.379 . S
C650 N657 1.356 . S
C651 C650 1.363 . S
C651 C654 1.363 . S
N652 C654 1.356 . S
N652 H664 0.984 . S
N652 H665 0.985 . S
N653 C655 1.356 . S
N653 H658 0.984 . S
N653 H659 0.985 . S
C654 C648 1.379 . S
C654 C651 1.363 . S
C654 N652 1.356 . S
C655 C649 1.363 . S
C655 C650 1.379 . S
C655 N653 1.356 . S
N656 C648 1.356 . S
N656 H662 0.984 . S
N656 H663 0.984 . S
N657 C650 1.356 . S
N657 H660 0.984 . S
N657 H661 0.985 . S
H658 N653 0.984 . S
H659 N653 0.985 . S
H660 N657 0.984 . S
H661 N657 0.985 . S
H662 N656 0.984 . S
H663 N656 0.984 . S
H664 N652 0.984 . S
H665 N652 0.985 . S
C666 C667 1.363 . S
C666 C672 1.379 . S
C666 N674 1.356 . S
C667 C666 1.363 . S
C667 C673 1.363 . S
C668 C669 1.363 . S
C668 C673 1.379 . S
C668 N675 1.356 . S
C669 C668 1.363 . S
C669 C672 1.363 . S
N670 C672 1.356 . S
N670 H682 0.984 . S
N670 H683 0.985 . S
N671 C673 1.356 . S
N671 H676 0.984 . S
N671 H677 0.985 . S
C672 C666 1.379 . S
C672 C669 1.363 . S
C672 N670 1.356 . S
C673 C667 1.363 . S
C673 C668 1.379 . S
C673 N671 1.356 . S
N674 C666 1.356 . S
N674 H680 0.984 . S
N674 H681 0.984 . S
N675 C668 1.356 . S
N675 H678 0.984 . S
N675 H679 0.985 . S
H676 N671 0.984 . S
H677 N671 0.985 . S
H678 N675 0.984 . S
H679 N675 0.985 . S
H680 N674 0.984 . S
H681 N674 0.984 . S
H682 N670 0.984 . S
H683 N670 0.985 . S
C684 C685 1.363 . S
C684 C690 1.379 . S
C684 N692 1.356 . S
C685 C684 1.363 . S
C685 C691 1.363 . S
C686 C687 1.363 . S
C686 C691 1.379 . S
C686 N693 1.356 . S
C687 C686 1.363 . S
C687 C690 1.363 . S
N688 C690 1.356 . S
N688 H700 0.984 . S
N688 H701 0.985 . S
N689 C691 1.356 . S
N689 H694 0.984 . S
N689 H695 0.985 . S
C690 C684 1.379 . S
C690 C687 1.363 . S
C690 N688 1.356 . S
C691 C685 1.363 . S
C691 C686 1.379 . S
C691 N689 1.356 . S
N692 C684 1.356 . S
N692 H698 0.984 . S
N692 H699 0.984 . S
N693 C686 1.356 . S
N693 H696 0.984 . S
N693 H697 0.985 . S
H694 N689 0.984 . S
H695 N689 0.985 . S
H696 N693 0.984 . S
H697 N693 0.985 . S
H698 N692 0.984 . S
H699 N692 0.984 . S
H700 N688 0.984 . S
H701 N688 0.985 . S
C702 C703 1.363 . S
C702 C708 1.379 . S
C702 N710 1.356 . S
C703 C702 1.363 . S
C703 C709 1.363 . S
C704 C705 1.363 . S
C704 C709 1.379 . S
C704 N711 1.356 . S
C705 C704 1.363 . S
C705 C708 1.363 . S
N706 C708 1.356 . S
N706 H718 0.984 . S
N706 H719 0.985 . S
N707 C709 1.356 . S
N707 H712 0.984 . S
N707 H713 0.985 . S
C708 C702 1.379 . S
C708 C705 1.363 . S
C708 N706 1.356 . S
C709 C703 1.363 . S
C709 C704 1.379 . S
C709 N707 1.356 . S
N710 C702 1.356 . S
N710 H716 0.984 . S
N710 H717 0.984 . S
N711 C704 1.356 . S
N711 H714 0.984 . S
N711 H715 0.985 . S
H712 N707 0.984 . S
H713 N707 0.985 . S
H714 N711 0.984 . S
H715 N711 0.985 . S
H716 N710 0.984 . S
H717 N710 0.984 . S
H718 N706 0.984 . S
H719 N706 0.985 . S
C720 C721 1.363 . S
C720 C726 1.379 . S
C720 N728 1.356 . S
C721 C720 1.363 . S
C721 C727 1.363 . S
C722 C723 1.363 . S
C722 C727 1.379 . S
C722 N729 1.356 . S
C723 C722 1.363 . S
C723 C726 1.363 . S
N724 C726 1.356 . S
N724 H736 0.984 . S
N724 H737 0.985 . S
N725 C727 1.356 . S
N725 H730 0.984 . S
N725 H731 0.985 . S
C726 C720 1.379 . S
C726 C723 1.363 . S
C726 N724 1.356 . S
C727 C721 1.363 . S
C727 C722 1.379 . S
C727 N725 1.356 . S
N728 C720 1.356 . S
N728 H734 0.984 . S
N728 H735 0.984 . S
N729 C722 1.356 . S
N729 H732 0.984 . S
N729 H733 0.985 . S
H730 N725 0.984 . S
H731 N725 0.985 . S
H732 N729 0.984 . S
H733 N729 0.985 . S
H734 N728 0.984 . S
H735 N728 0.984 . S
H736 N724 0.984 . S
H737 N724 0.985 . S
C738 C739 1.363 . S
C738 C744 1.379 . S
C738 N746 1.356 . S
C739 C738 1.363 . S
C739 C745 1.363 . S
C740 C741 1.363 . S
C740 C745 1.379 . S
C740 N747 1.356 . S
C741 C740 1.363 . S
C741 C744 1.363 . S
N742 C744 1.356 . S
N742 H754 0.984 . S
N742 H755 0.985 . S
N743 C745 1.356 . S
N743 H748 0.984 . S
N743 H749 0.985 . S
C744 C738 1.379 . S
C744 C741 1.363 . S
C744 N742 1.356 . S
C745 C739 1.363 . S
C745 C740 1.379 . S
C745 N743 1.356 . S
N746 C738 1.356 . S
N746 H752 0.984 . S
N746 H753 0.984 . S
N747 C740 1.356 . S
N747 H750 0.984 . S
N747 H751 0.985 . S
H748 N743 0.984 . S
H749 N743 0.985 . S
H750 N747 0.984 . S
H751 N747 0.985 . S
H752 N746 0.984 . S
H753 N746 0.984 . S
H754 N742 0.984 . S
H755 N742 0.985 . S
C756 C757 1.363 . S
C756 C762 1.379 . S
C756 N764 1.356 . S
C757 C756 1.363 . S
C757 C763 1.363 . S
C758 C759 1.363 . S
C758 C763 1.379 . S
C758 N765 1.356 . S
C759 C758 1.363 . S
C759 C762 1.363 . S
N760 C762 1.356 . S
N760 H772 0.984 . S
N760 H773 0.985 . S
N761 C763 1.356 . S
N761 H766 0.984 . S
N761 H767 0.985 . S
C762 C756 1.379 . S
C762 C759 1.363 . S
C762 N760 1.356 . S
C763 C757 1.363 . S
C763 C758 1.379 . S
C763 N761 1.356 . S
N764 C756 1.356 . S
N764 H770 0.984 . S
N764 H771 0.984 . S
N765 C758 1.356 . S
N765 H768 0.984 . S
N765 H769 0.985 . S
H766 N761 0.984 . S
H767 N761 0.985 . S
H768 N765 0.984 . S
H769 N765 0.985 . S
H770 N764 0.984 . S
H771 N764 0.984 . S
H772 N760 0.984 . S
H773 N760 0.985 . S
C774 C775 1.363 . S
C774 C780 1.379 . S
C774 N782 1.356 . S
C775 C774 1.363 . S
C775 C781 1.363 . S
C776 C777 1.363 . S
C776 C781 1.379 . S
C776 N783 1.356 . S
C777 C776 1.363 . S
C777 C780 1.363 . S
N778 C780 1.356 . S
N778 H790 0.984 . S
N778 H791 0.985 . S
N779 C781 1.356 . S
N779 H784 0.984 . S
N779 H785 0.985 . S
C780 C774 1.379 . S
C780 C777 1.363 . S
C780 N778 1.356 . S
C781 C775 1.363 . S
C781 C776 1.379 . S
C781 N779 1.356 . S
N782 C774 1.356 . S
N782 H788 0.984 . S
N782 H789 0.984 . S
N783 C776 1.356 . S
N783 H786 0.984 . S
N783 H787 0.985 . S
H784 N779 0.984 . S
H785 N779 0.985 . S
H786 N783 0.984 . S
H787 N783 0.985 . S
H788 N782 0.984 . S
H789 N782 0.984 . S
H790 N778 0.984 . S
H791 N778 0.985 . S
C792 C793 1.363 . S
C792 C798 1.379 . S
C792 N800 1.356 . S
C793 C792 1.363 . S
C793 C799 1.363 . S
C794 C795 1.363 . S
C794 C799 1.379 . S
C794 N801 1.356 . S
C795 C794 1.363 . S
C795 C798 1.363 . S
N796 C798 1.356 . S
N796 H808 0.984 . S
N796 H809 0.985 . S
N797 C799 1.356 . S
N797 H802 0.984 . S
N797 H803 0.985 . S
C798 C792 1.379 . S
C798 C795 1.363 . S
C798 N796 1.356 . S
C799 C793 1.363 . S
C799 C794 1.379 . S
C799 N797 1.356 . S
N800 C792 1.356 . S
N800 H806 0.984 . S
N800 H807 0.984 . S
N801 C794 1.356 . S
N801 H804 0.984 . S
N801 H805 0.985 . S
H802 N797 0.984 . S
H803 N797 0.985 . S
H804 N801 0.984 . S
H805 N801 0.985 . S
H806 N800 0.984 . S
H807 N800 0.984 . S
H808 N796 0.984 . S
H809 N796 0.985 . S
C810 C811 1.363 . S
C810 C816 1.379 . S
C810 N818 1.356 . S
C811 C810 1.363 . S
C811 C817 1.363 . S
C812 C813 1.363 . S
C812 C817 1.379 . S
C812 N819 1.356 . S
C813 C812 1.363 . S
C813 C816 1.363 . S
N814 C816 1.356 . S
N814 H826 0.984 . S
N814 H827 0.985 . S
N815 C817 1.356 . S
N815 H820 0.984 . S
N815 H821 0.985 . S
C816 C810 1.379 . S
C816 C813 1.363 . S
C816 N814 1.356 . S
C817 C811 1.363 . S
C817 C812 1.379 . S
C817 N815 1.356 . S
N818 C810 1.356 . S
N818 H824 0.984 . S
N818 H825 0.984 . S
N819 C812 1.356 . S
N819 H822 0.984 . S
N819 H823 0.985 . S
H820 N815 0.984 . S
H821 N815 0.985 . S
H822 N819 0.984 . S
H823 N819 0.985 . S
H824 N818 0.984 . S
H825 N818 0.984 . S
H826 N814 0.984 . S
H827 N814 0.985 . S
C828 C829 1.363 . S
C828 C834 1.379 . S
C828 N836 1.356 . S
C829 C828 1.363 . S
C829 C835 1.363 . S
C830 C831 1.363 . S
C830 C835 1.379 . S
C830 N837 1.356 . S
C831 C830 1.363 . S
C831 C834 1.363 . S
N832 C834 1.356 . S
N832 H844 0.984 . S
N832 H845 0.985 . S
N833 C835 1.356 . S
N833 H838 0.984 . S
N833 H839 0.985 . S
C834 C828 1.379 . S
C834 C831 1.363 . S
C834 N832 1.356 . S
C835 C829 1.363 . S
C835 C830 1.379 . S
C835 N833 1.356 . S
N836 C828 1.356 . S
N836 H842 0.984 . S
N836 H843 0.984 . S
N837 C830 1.356 . S
N837 H840 0.984 . S
N837 H841 0.985 . S
H838 N833 0.984 . S
H839 N833 0.985 . S
H840 N837 0.984 . S
H841 N837 0.985 . S
H842 N836 0.984 . S
H843 N836 0.984 . S
H844 N832 0.984 . S
H845 N832 0.985 . S
C846 C847 1.363 . S
C846 C852 1.379 . S
C846 N854 1.356 . S
C847 C846 1.363 . S
C847 C853 1.363 1_565 S
C848 C849 1.363 . S
C848 C853 1.379 . S
C848 N855 1.356 . S
C849 C848 1.363 . S
C849 C852 1.363 1_545 S
N850 C852 1.356 . S
N850 H862 0.984 . S
N850 H863 0.985 1_565 S
N851 C853 1.356 . S
N851 H856 0.984 1_545 S
N851 H857 0.985 . S
C852 C846 1.379 . S
C852 C849 1.363 1_565 S
C852 N850 1.356 . S
C853 C847 1.363 1_545 S
C853 C848 1.379 . S
C853 N851 1.356 . S
N854 C846 1.356 . S
N854 H860 0.984 . S
N854 H861 0.984 . S
N855 C848 1.356 . S
N855 H858 0.984 . S
N855 H859 0.985 . S
H856 N851 0.984 1_565 S
H857 N851 0.985 . S
H858 N855 0.984 . S
H859 N855 0.985 . S
H860 N854 0.984 . S
H861 N854 0.984 . S
H862 N850 0.984 . S
H863 N850 0.985 1_545 S
C864 C865 1.363 1_655 S
C864 C870 1.379 . S
C864 N872 1.356 1_655 S
C865 C864 1.363 1_455 S
C865 C871 1.363 . S
C866 C867 1.363 1_455 S
C866 C871 1.379 . S
C866 N873 1.356 1_455 S
C867 C866 1.363 1_655 S
C867 C870 1.363 . S
N868 C870 1.356 . S
N868 H880 0.984 . S
N868 H881 0.985 . S
N869 C871 1.356 . S
N869 H874 0.984 . S
N869 H875 0.985 . S
C870 C864 1.379 . S
C870 C867 1.363 . S
C870 N868 1.356 . S
C871 C865 1.363 . S
C871 C866 1.379 . S
C871 N869 1.356 . S
N872 C864 1.356 1_455 S
N872 H878 0.984 1_455 S
N872 H879 0.984 . S
N873 C866 1.356 1_655 S
N873 H876 0.984 . S
N873 H877 0.985 1_655 S
H874 N869 0.984 . S
H875 N869 0.985 . S
H876 N873 0.984 . S
H877 N873 0.985 1_455 S
H878 N872 0.984 1_655 S
H879 N872 0.984 . S
H880 N868 0.984 . S
H881 N868 0.985 . S
C882 C883 1.363 . S
C882 C888 1.379 . S
C882 N890 1.356 . S
C883 C882 1.363 . S
C883 C889 1.363 . S
C884 C885 1.363 . S
C884 C889 1.379 . S
C884 N891 1.356 . S
C885 C884 1.363 . S
C885 C888 1.363 . S
N886 C888 1.356 . S
N886 H898 0.984 . S
N886 H899 0.985 . S
N887 C889 1.356 . S
N887 H892 0.984 . S
N887 H893 0.985 . S
C888 C882 1.379 . S
C888 C885 1.363 . S
C888 N886 1.356 . S
C889 C883 1.363 . S
C889 C884 1.379 . S
C889 N887 1.356 . S
N890 C882 1.356 . S
N890 H896 0.984 . S
N890 H897 0.984 . S
N891 C884 1.356 . S
N891 H894 0.984 . S
N891 H895 0.985 . S
H892 N887 0.984 . S
H893 N887 0.985 . S
H894 N891 0.984 . S
H895 N891 0.985 . S
H896 N890 0.984 . S
H897 N890 0.984 . S
H898 N886 0.984 . S
H899 N886 0.985 . S
C900 C901 1.363 . S
C900 C906 1.379 . S
C900 N908 1.356 . S
C901 C900 1.363 . S
C901 C907 1.363 . S
C902 C903 1.363 . S
C902 C907 1.379 . S
C902 N909 1.356 . S
C903 C902 1.363 . S
C903 C906 1.363 . S
N904 C906 1.356 . S
N904 H916 0.984 . S
N904 H917 0.985 . S
N905 C907 1.356 . S
N905 H910 0.984 . S
N905 H911 0.985 . S
C906 C900 1.379 . S
C906 C903 1.363 . S
C906 N904 1.356 . S
C907 C901 1.363 . S
C907 C902 1.379 . S
C907 N905 1.356 . S
N908 C900 1.356 . S
N908 H914 0.984 . S
N908 H915 0.984 . S
N909 C902 1.356 . S
N909 H912 0.984 . S
N909 H913 0.985 . S
H910 N905 0.984 . S
H911 N905 0.985 . S
H912 N909 0.984 . S
H913 N909 0.985 . S
H914 N908 0.984 . S
H915 N908 0.984 . S
H916 N904 0.984 . S
H917 N904 0.985 . S
C918 C919 1.363 . S
C918 C924 1.379 1_545 S
C918 N926 1.356 . S
C919 C918 1.363 . S
C919 C925 1.363 . S
C920 C921 1.363 1_545 S
C920 C925 1.379 . S
C920 N927 1.356 . S
C921 C920 1.363 1_565 S
C921 C924 1.363 . S
N922 C924 1.356 . S
N922 H934 0.984 . S
N922 H935 0.985 . S
N923 C925 1.356 . S
N923 H928 0.984 . S
N923 H929 0.985 . S
C924 C918 1.379 1_565 S
C924 C921 1.363 . S
C924 N922 1.356 . S
C925 C919 1.363 . S
C925 C920 1.379 . S
C925 N923 1.356 . S
N926 C918 1.356 . S
N926 H932 0.984 1_545 S
N926 H933 0.984 . S
N927 C920 1.356 . S
N927 H930 0.984 . S
N927 H931 0.985 . S
H928 N923 0.984 . S
H929 N923 0.985 . S
H930 N927 0.984 . S
H931 N927 0.985 . S
H932 N926 0.984 1_565 S
H933 N926 0.984 . S
H934 N922 0.984 . S
H935 N922 0.985 . S
C936 C937 1.363 . S
C936 C942 1.388 . S
C936 N944 1.356 . S
C937 C936 1.363 . S
C937 C943 1.363 . S
C938 C939 1.363 1_655 S
C938 C943 1.379 . S
C938 N945 1.356 . S
C939 C938 1.363 1_455 S
C939 C942 1.376 1_455 S
N940 C942 1.336 1_455 S
N940 H952 0.984 . S
N940 H953 0.985 . S
N941 C943 1.356 . S
N941 H946 0.984 . S
N941 H947 0.985 . S
C942 C936 1.388 . S
C942 C939 1.376 1_655 S
C942 N940 1.336 1_655 S
C943 C937 1.363 . S
C943 C938 1.379 . S
C943 N941 1.356 . S
N944 C936 1.356 . S
N944 H950 0.984 . S
N944 H951 0.984 . S
N945 C938 1.356 . S
N945 H948 0.984 1_655 S
N945 H949 0.985 . S
H946 N941 0.984 . S
H947 N941 0.985 . S
H948 N945 0.984 1_455 S
H949 N945 0.985 . S
H950 N944 0.984 . S
H951 N944 0.984 . S
H952 N940 0.984 . S
H953 N940 0.985 . S
C954 C955 1.363 . S
C954 C960 1.379 . S
C954 N962 1.356 . S
C955 C954 1.363 . S
C955 C961 1.363 . S
C956 C957 1.363 . S
C956 C961 1.379 . S
C956 N963 1.356 . S
C957 C956 1.363 . S
C957 C960 1.363 . S
N958 C960 1.356 . S
N958 H970 0.984 . S
N958 H971 0.985 . S
N959 C961 1.356 . S
N959 H964 0.984 . S
N959 H965 0.985 . S
C960 C954 1.379 . S
C960 C957 1.363 . S
C960 N958 1.356 . S
C961 C955 1.363 . S
C961 C956 1.379 . S
C961 N959 1.356 . S
N962 C954 1.356 . S
N962 H968 0.984 . S
N962 H969 0.984 . S
N963 C956 1.356 . S
N963 H966 0.984 . S
N963 H967 0.985 . S
H964 N959 0.984 . S
H965 N959 0.985 . S
H966 N963 0.984 . S
H967 N963 0.985 . S
H968 N962 0.984 . S
H969 N962 0.984 . S
H970 N958 0.984 . S
H971 N958 0.985 . S
C972 C973 1.363 . S
C972 C978 1.379 . S
C972 N980 1.356 . S
C973 C972 1.363 . S
C973 C979 1.363 . S
C974 C975 1.363 1_565 S
C974 C979 1.379 . S
C974 N981 1.356 1_565 S
C975 C974 1.363 1_545 S
C975 C978 1.363 1_545 S
N976 C978 1.356 1_545 S
N976 H988 0.984 . S
N976 H989 0.985 . S
N977 C979 1.356 . S
N977 H982 0.984 . S
N977 H983 0.985 . S
C978 C972 1.379 . S
C978 C975 1.363 1_565 S
C978 N976 1.356 1_565 S
C979 C973 1.363 . S
C979 C974 1.379 . S
C979 N977 1.356 . S
N980 C972 1.356 . S
N980 H986 0.984 . S
N980 H987 0.984 . S
N981 C974 1.356 1_545 S
N981 H984 0.984 . S
N981 H985 0.985 . S
H982 N977 0.984 . S
H983 N977 0.985 . S
H984 N981 0.984 . S
H985 N981 0.985 . S
H986 N980 0.984 . S
H987 N980 0.984 . S
H988 N976 0.984 . S
H989 N976 0.985 . S
C990 C991 1.363 . S
C990 C996 1.379 1_655 S
C990 N998 1.356 . S
C991 C990 1.363 . S
C991 C997 1.363 1_655 S
C992 C993 1.363 . S
C992 C997 1.379 . S
C992 N999 1.356 . S
C993 C992 1.363 . S
C993 C996 1.363 . S
N994 C996 1.356 . S
N994 H1006 0.984 . S
N994 H1007 0.985 . S
N995 C997 1.356 . S
N995 H1000 0.984 . S
N995 H1001 0.985 . S
C996 C990 1.379 1_455 S
C996 C993 1.363 . S
C996 N994 1.356 . S
C997 C991 1.363 1_455 S
C997 C992 1.379 . S
C997 N995 1.356 . S
N998 C990 1.356 . S
N998 H1004 0.984 . S
N998 H1005 0.984 . S
N999 C992 1.356 . S
N999 H1002 0.984 . S
N999 H1003 0.985 . S
H1000 N995 0.984 . S
H1001 N995 0.985 . S
H1002 N999 0.984 . S
H1003 N999 0.985 . S
H1004 N998 0.984 . S
H1005 N998 0.984 . S
H1006 N994 0.984 . S
H1007 N994 0.985 . S
C1008 C1009 1.363 . S
C1008 C1014 1.379 . S
C1008 N1016 1.356 . S
C1009 C1008 1.363 . S
C1009 C1015 1.363 . S
C1010 C1011 1.363 . S
C1010 C1015 1.379 . S
C1010 N1017 1.356 . S
C1011 C1010 1.363 . S
C1011 C1014 1.363 . S
N1012 C1014 1.356 . S
N1012 H1024 0.984 . S
N1012 H1025 0.985 . S
N1013 C1015 1.356 . S
N1013 H1018 0.984 . S
N1013 H1019 0.985 . S
C1014 C1008 1.379 . S
C1014 C1011 1.363 . S
C1014 N1012 1.356 . S
C1015 C1009 1.363 . S
C1015 C1010 1.379 . S
C1015 N1013 1.356 . S
N1016 C1008 1.356 . S
N1016 H1022 0.984 . S
N1016 H1023 0.984 . S
N1017 C1010 1.356 . S
N1017 H1020 0.984 1_655 S
N1017 H1021 0.985 1_655 S
H1018 N1013 0.984 . S
H1019 N1013 0.985 . S
H1020 N1017 0.984 1_455 S
H1021 N1017 0.985 1_455 S
H1022 N1016 0.984 . S
H1023 N1016 0.984 . S
H1024 N1012 0.984 . S
H1025 N1012 0.985 . S
C1026 C1027 1.363 . S
C1026 C1032 1.379 . S
C1026 N1034 1.356 . S
C1027 C1026 1.363 . S
C1027 C1033 1.363 . S
C1028 C1029 1.363 . S
C1028 C1033 1.379 . S
C1028 N1035 1.356 . S
C1029 C1028 1.363 . S
C1029 C1032 1.363 . S
N1030 C1032 1.356 . S
N1030 H1042 0.984 . S
N1030 H1043 0.985 . S
N1031 C1033 1.356 . S
N1031 H1036 0.984 . S
N1031 H1037 0.985 . S
C1032 C1026 1.379 . S
C1032 C1029 1.363 . S
C1032 N1030 1.356 . S
C1033 C1027 1.363 . S
C1033 C1028 1.379 . S
C1033 N1031 1.356 . S
N1034 C1026 1.356 . S
N1034 H1040 0.984 . S
N1034 H1041 0.984 . S
N1035 C1028 1.356 . S
N1035 H1038 0.984 . S
N1035 H1039 0.985 . S
H1036 N1031 0.984 . S
H1037 N1031 0.985 . S
H1038 N1035 0.984 . S
H1039 N1035 0.985 . S
H1040 N1034 0.984 . S
H1041 N1034 0.984 . S
H1042 N1030 0.984 . S
H1043 N1030 0.985 . S
C1044 C1045 1.363 . S
C1044 C1050 1.379 . S
C1044 N1052 1.356 . S
C1045 C1044 1.363 . S
C1045 C1051 1.363 . S
C1046 C1047 1.363 . S
C1046 C1051 1.379 . S
C1046 N1053 1.356 . S
C1047 C1046 1.363 . S
C1047 C1050 1.363 . S
N1048 C1050 1.356 . S
N1048 H1060 0.984 . S
N1048 H1061 0.985 . S
N1049 C1051 1.356 . S
N1049 H1054 0.984 . S
N1049 H1055 0.985 . S
C1050 C1044 1.379 . S
C1050 C1047 1.363 . S
C1050 N1048 1.356 . S
C1051 C1045 1.363 . S
C1051 C1046 1.379 . S
C1051 N1049 1.356 . S
N1052 C1044 1.356 . S
N1052 H1058 0.984 . S
N1052 H1059 0.984 . S
N1053 C1046 1.356 . S
N1053 H1056 0.984 1_545 S
N1053 H1057 0.985 . S
H1054 N1049 0.984 . S
H1055 N1049 0.985 . S
H1056 N1053 0.984 1_565 S
H1057 N1053 0.985 . S
H1058 N1052 0.984 . S
H1059 N1052 0.984 . S
H1060 N1048 0.984 . S
H1061 N1048 0.985 . S
C1062 C1063 1.363 . S
C1062 C1068 1.379 . S
C1062 N1070 1.356 1_554 S
C1063 C1062 1.363 . S
C1063 C1069 1.363 . S
C1064 C1065 1.363 . S
C1064 C1069 1.379 . S
C1064 N1071 1.356 . S
C1065 C1064 1.363 . S
C1065 C1068 1.363 . S
N1066 C1068 1.356 . S
N1066 H1078 0.984 . S
N1066 H1079 0.985 . S
N1067 C1069 1.356 . S
N1067 H1072 0.984 1_554 S
N1067 H1073 1.014 . S
C1068 C1062 1.379 . S
C1068 C1065 1.363 . S
C1068 N1066 1.356 . S
C1069 C1063 1.363 . S
C1069 C1064 1.379 . S
C1069 N1067 1.356 . S
N1070 C1062 1.356 1_556 S
N1070 H1076 0.984 1_556 S
N1070 H1077 0.984 . S
N1071 C1064 1.356 . S
N1071 H1074 0.984 . S
N1071 H1075 0.985 . S
H1072 N1067 0.984 1_556 S
H1073 N1067 1.014 . S
H1074 N1071 0.984 . S
H1075 N1071 0.985 . S
H1076 N1070 0.984 1_554 S
H1077 N1070 0.984 . S
H1078 N1066 0.984 . S
H1079 N1066 0.985 . S
C1080 C1081 1.363 . S
C1080 C1086 1.379 . S
C1080 N1088 1.356 . S
C1081 C1080 1.363 . S
C1081 C1087 1.363 1_554 S
C1082 C1083 1.363 . S
C1082 C1087 1.379 1_554 S
C1082 N1089 1.356 . S
C1083 C1082 1.363 . S
C1083 C1086 1.363 . S
N1084 C1086 1.356 . S
N1084 H1096 0.984 . S
N1084 H1097 0.985 . S
N1085 C1087 1.356 . S
N1085 H1090 0.984 . S
N1085 H1091 0.985 . S
C1086 C1080 1.379 . S
C1086 C1083 1.363 . S
C1086 N1084 1.356 . S
C1087 C1081 1.363 1_556 S
C1087 C1082 1.379 1_556 S
C1087 N1085 1.356 . S
N1088 C1080 1.356 . S
N1088 H1094 0.984 . S
N1088 H1095 0.984 . S
N1089 C1082 1.356 . S
N1089 H1092 0.984 . S
N1089 H1093 0.985 1_554 S
H1090 N1085 0.984 . S
H1091 N1085 0.985 . S
H1092 N1089 0.984 . S
H1093 N1089 0.985 1_556 S
H1094 N1088 0.984 . S
H1095 N1088 0.984 . S
H1096 N1084 0.984 . S
H1097 N1084 0.985 . S
C1098 C1099 1.363 . S
C1098 C1104 1.379 . S
C1098 N1106 1.356 . S
C1099 C1098 1.363 . S
C1099 C1105 1.363 1_554 S
C1100 C1101 1.363 . S
C1100 C1105 1.379 1_554 S
C1100 N1107 1.356 1_554 S
C1101 C1100 1.363 . S
C1101 C1104 1.363 . S
N1102 C1104 1.356 . S
N1102 H1114 0.984 . S
N1102 H1115 0.985 . S
N1103 C1105 1.356 . S
N1103 H1108 0.984 . S
N1103 H1109 0.985 . S
C1104 C1098 1.379 . S
C1104 C1101 1.363 . S
C1104 N1102 1.356 . S
C1105 C1099 1.363 1_556 S
C1105 C1100 1.379 1_556 S
C1105 N1103 1.356 . S
N1106 C1098 1.356 . S
N1106 H1112 0.984 . S
N1106 H1113 0.984 . S
N1107 C1100 1.356 1_556 S
N1107 H1110 0.984 1_556 S
N1107 H1111 0.985 . S
H1108 N1103 0.984 . S
H1109 N1103 0.985 . S
H1110 N1107 0.984 1_554 S
H1111 N1107 0.985 . S
H1112 N1106 0.984 . S
H1113 N1106 0.984 . S
H1114 N1102 0.984 . S
H1115 N1102 0.985 . S
C1116 C1117 1.363 . S
C1116 C1122 1.379 1_556 S
C1116 N1124 1.356 . S
C1117 C1116 1.363 . S
C1117 C1123 1.363 . S
C1118 C1119 1.363 . S
C1118 C1123 1.379 . S
C1118 N1125 1.356 . S
C1119 C1118 1.363 . S
C1119 C1122 1.363 1_556 S
N1120 C1122 1.356 . S
N1120 H1132 0.984 . S
N1120 H1133 0.985 . S
N1121 C1123 1.356 . S
N1121 H1126 0.984 . S
N1121 H1127 0.985 . S
C1122 C1116 1.379 1_554 S
C1122 C1119 1.363 1_554 S
C1122 N1120 1.356 . S
C1123 C1117 1.363 . S
C1123 C1118 1.379 . S
C1123 N1121 1.356 . S
N1124 C1116 1.356 . S
N1124 H1130 0.984 1_556 S
N1124 H1131 0.984 . S
N1125 C1118 1.356 . S
N1125 H1128 0.984 . S
N1125 H1129 0.985 . S
H1126 N1121 0.984 . S
H1127 N1121 0.985 . S
H1128 N1125 0.984 . S
H1129 N1125 0.985 . S
H1130 N1124 0.984 1_554 S
H1131 N1124 0.984 . S
H1132 N1120 0.984 . S
H1133 N1120 0.985 . S
C1134 C1135 1.363 . S
C1134 C1140 1.379 . S
C1134 N1142 1.356 . S
C1135 C1134 1.363 . S
C1135 C1141 1.363 . S
C1136 C1137 1.363 . S
C1136 C1141 1.379 . S
C1136 N1143 1.356 1_556 S
C1137 C1136 1.363 . S
C1137 C1140 1.363 . S
N1138 C1140 1.356 . S
N1138 H1150 0.984 . S
N1138 H1151 0.985 . S
N1139 C1141 1.356 . S
N1139 H1144 0.984 . S
N1139 H1145 0.985 . S
C1140 C1134 1.379 . S
C1140 C1137 1.363 . S
C1140 N1138 1.356 . S
C1141 C1135 1.363 . S
C1141 C1136 1.379 . S
C1141 N1139 1.356 . S
N1142 C1134 1.356 . S
N1142 H1148 0.984 . S
N1142 H1149 0.984 . S
N1143 C1136 1.356 1_554 S
N1143 H1146 0.984 . S
N1143 H1147 0.985 . S
H1144 N1139 0.984 . S
H1145 N1139 0.985 . S
H1146 N1143 0.984 . S
H1147 N1143 0.985 . S
H1148 N1142 0.984 . S
H1149 N1142 0.984 . S
H1150 N1138 0.984 . S
H1151 N1138 0.985 . S
C1152 C1153 1.363 . S
C1152 C1158 1.379 . S
C1152 N1160 1.356 . S
C1153 C1152 1.363 . S
C1153 C1159 1.363 1_556 S
C1154 C1155 1.363 . S
C1154 C1159 1.379 1_556 S
C1154 N1161 1.356 . S
C1155 C1154 1.363 . S
C1155 C1158 1.363 . S
N1156 C1158 1.356 . S
N1156 H1168 0.984 . S
N1156 H1169 0.985 . S
N1157 C1159 1.356 . S
N1157 H1162 0.984 . S
N1157 H1163 0.985 . S
C1158 C1152 1.379 . S
C1158 C1155 1.363 . S
C1158 N1156 1.356 . S
C1159 C1153 1.363 1_554 S
C1159 C1154 1.379 1_554 S
C1159 N1157 1.356 . S
N1160 C1152 1.356 . S
N1160 H1166 0.984 . S
N1160 H1167 0.984 . S
N1161 C1154 1.356 . S
N1161 H1164 0.984 . S
N1161 H1165 0.985 1_556 S
H1162 N1157 0.984 . S
H1163 N1157 0.985 . S
H1164 N1161 0.984 . S
H1165 N1161 0.985 1_554 S
H1166 N1160 0.984 . S
H1167 N1160 0.984 . S
H1168 N1156 0.984 . S
H1169 N1156 0.985 . S
C1170 C1171 1.363 . S
C1170 C1176 1.379 . S
C1170 N1178 1.356 . S
C1171 C1170 1.363 . S
C1171 C1177 1.363 . S
C1172 C1173 1.363 . S
C1172 C1177 1.379 . S
C1172 N1179 1.356 . S
C1173 C1172 1.363 . S
C1173 C1176 1.363 . S
N1174 C1176 1.356 . S
N1174 H1186 0.984 . S
N1174 H1187 0.985 . S
N1175 C1177 1.356 . S
N1175 H1180 0.984 1_455 S
N1175 H1181 0.985 1_455 S
C1176 C1170 1.379 . S
C1176 C1173 1.363 . S
C1176 N1174 1.356 . S
C1177 C1171 1.363 . S
C1177 C1172 1.379 . S
C1177 N1175 1.356 . S
N1178 C1170 1.356 . S
N1178 H1184 0.984 . S
N1178 H1185 0.984 . S
N1179 C1172 1.356 . S
N1179 H1182 0.984 . S
N1179 H1183 0.985 . S
H1180 N1175 0.984 1_655 S
H1181 N1175 0.985 1_655 S
H1182 N1179 0.984 . S
H1183 N1179 0.985 . S
H1184 N1178 0.984 . S
H1185 N1178 0.984 . S
H1186 N1174 0.984 . S
H1187 N1174 0.985 . S
C1188 C1189 1.363 . S
C1188 C1194 1.379 . S
C1188 N1196 1.356 . S
C1189 C1188 1.363 . S
C1189 C1195 1.363 . S
C1190 C1191 1.363 . S
C1190 C1195 1.379 . S
C1190 N1197 1.356 . S
C1191 C1190 1.363 . S
C1191 C1194 1.363 . S
N1192 C1194 1.356 . S
N1192 H1204 0.984 . S
N1192 H1205 0.985 . S
N1193 C1195 1.356 . S
N1193 H1198 0.984 . S
N1193 H1199 0.985 . S
C1194 C1188 1.379 . S
C1194 C1191 1.363 . S
C1194 N1192 1.356 . S
C1195 C1189 1.363 . S
C1195 C1190 1.379 . S
C1195 N1193 1.356 . S
N1196 C1188 1.356 . S
N1196 H1202 0.984 . S
N1196 H1203 0.984 . S
N1197 C1190 1.356 . S
N1197 H1200 0.984 . S
N1197 H1201 0.985 . S
H1198 N1193 0.984 . S
H1199 N1193 0.985 . S
H1200 N1197 0.984 . S
H1201 N1197 0.985 . S
H1202 N1196 0.984 . S
H1203 N1196 0.984 . S
H1204 N1192 0.984 . S
H1205 N1192 0.985 . S
C1206 C1207 1.363 . S
C1206 C1212 1.379 . S
C1206 N1214 1.356 . S
C1207 C1206 1.363 . S
C1207 C1213 1.363 . S
C1208 C1209 1.363 . S
C1208 C1213 1.379 . S
C1208 N1215 1.356 . S
C1209 C1208 1.363 . S
C1209 C1212 1.363 . S
N1210 C1212 1.356 . S
N1210 H1222 0.984 . S
N1210 H1223 0.985 . S
N1211 C1213 1.356 . S
N1211 H1216 0.984 1_565 S
N1211 H1217 0.985 . S
C1212 C1206 1.379 . S
C1212 C1209 1.363 . S
C1212 N1210 1.356 . S
C1213 C1207 1.363 . S
C1213 C1208 1.379 . S
C1213 N1211 1.356 . S
N1214 C1206 1.356 . S
N1214 H1220 0.984 . S
N1214 H1221 0.984 . S
N1215 C1208 1.356 . S
N1215 H1218 0.984 . S
N1215 H1219 0.985 . S
H1216 N1211 0.984 1_545 S
H1217 N1211 0.985 . S
H1218 N1215 0.984 . S
H1219 N1215 0.985 . S
H1220 N1214 0.984 . S
H1221 N1214 0.984 . S
H1222 N1210 0.984 . S
H1223 N1210 0.985 . S
C1224 C1225 1.363 . S
C1224 C1230 1.379 . S
C1224 N1232 1.356 . S
C1225 C1224 1.363 . S
C1225 C1231 1.363 . S
C1226 C1227 1.363 . S
C1226 C1231 1.379 . S
C1226 N1233 1.356 . S
C1227 C1226 1.363 . S
C1227 C1230 1.363 . S
N1228 C1230 1.356 . S
N1228 H1240 0.984 . S
N1228 H1241 0.985 . S
N1229 C1231 1.356 . S
N1229 H1234 0.984 . S
N1229 H1235 0.985 . S
C1230 C1224 1.379 . S
C1230 C1227 1.363 . S
C1230 N1228 1.356 . S
C1231 C1225 1.363 . S
C1231 C1226 1.379 . S
C1231 N1229 1.356 . S
N1232 C1224 1.356 . S
N1232 H1238 0.984 . S
N1232 H1239 0.984 . S
N1233 C1226 1.356 . S
N1233 H1236 0.984 . S
N1233 H1237 0.985 . S
H1234 N1229 0.984 . S
H1235 N1229 0.985 . S
H1236 N1233 0.984 . S
H1237 N1233 0.985 . S
H1238 N1232 0.984 . S
H1239 N1232 0.984 . S
H1240 N1228 0.984 . S
H1241 N1228 0.985 . S
C1242 C1243 1.363 . S
C1242 C1248 1.379 . S
C1242 N1250 1.356 . S
C1243 C1242 1.363 . S
C1243 C1249 1.363 . S
C1244 C1245 1.363 . S
C1244 C1249 1.379 . S
C1244 N1251 1.356 . S
C1245 C1244 1.363 . S
C1245 C1248 1.363 . S
N1246 C1248 1.356 . S
N1246 H1258 0.984 . S
N1246 H1259 0.985 . S
N1247 C1249 1.356 . S
N1247 H1252 0.984 . S
N1247 H1253 0.985 . S
C1248 C1242 1.379 . S
C1248 C1245 1.363 . S
C1248 N1246 1.356 . S
C1249 C1243 1.363 . S
C1249 C1244 1.379 . S
C1249 N1247 1.356 . S
N1250 C1242 1.356 . S
N1250 H1256 0.984 . S
N1250 H1257 0.984 . S
N1251 C1244 1.356 . S
N1251 H1254 0.984 . S
N1251 H1255 0.985 . S
H1252 N1247 0.984 . S
H1253 N1247 0.985 . S
H1254 N1251 0.984 . S
H1255 N1251 0.985 . S
H1256 N1250 0.984 . S
H1257 N1250 0.984 . S
H1258 N1246 0.984 . S
H1259 N1246 0.985 . S
C1260 C1261 1.363 . S
C1260 C1266 1.379 . S
C1260 N1268 1.356 . S
C1261 C1260 1.363 . S
C1261 C1267 1.363 . S
C1262 C1263 1.363 . S
C1262 C1267 1.379 . S
C1262 N1269 1.356 . S
C1263 C1262 1.363 . S
C1263 C1266 1.363 . S
N1264 C1266 1.356 . S
N1264 H1276 0.984 . S
N1264 H1277 0.985 . S
N1265 C1267 1.356 . S
N1265 H1270 0.984 . S
N1265 H1271 0.985 . S
C1266 C1260 1.379 . S
C1266 C1263 1.363 . S
C1266 N1264 1.356 . S
C1267 C1261 1.363 . S
C1267 C1262 1.379 . S
C1267 N1265 1.356 . S
N1268 C1260 1.356 . S
N1268 H1274 0.984 . S
N1268 H1275 0.984 . S
N1269 C1262 1.356 . S
N1269 H1272 0.984 . S
N1269 H1273 0.985 . S
H1270 N1265 0.984 . S
H1271 N1265 0.985 . S
H1272 N1269 0.984 . S
H1273 N1269 0.985 . S
H1274 N1268 0.984 . S
H1275 N1268 0.984 . S
H1276 N1264 0.984 . S
H1277 N1264 0.985 . S
C1278 C1279 1.363 . S
C1278 C1284 1.379 . S
C1278 N1286 1.356 . S
C1279 C1278 1.363 . S
C1279 C1285 1.363 . S
C1280 C1281 1.363 . S
C1280 C1285 1.379 . S
C1280 N1287 1.356 . S
C1281 C1280 1.363 . S
C1281 C1284 1.363 . S
N1282 C1284 1.356 . S
N1282 H1294 0.984 . S
N1282 H1295 0.985 . S
N1283 C1285 1.356 . S
N1283 H1288 0.984 . S
N1283 H1289 0.985 . S
C1284 C1278 1.379 . S
C1284 C1281 1.363 . S
C1284 N1282 1.356 . S
C1285 C1279 1.363 . S
C1285 C1280 1.379 . S
C1285 N1283 1.356 . S
N1286 C1278 1.356 . S
N1286 H1292 0.984 . S
N1286 H1293 0.984 . S
N1287 C1280 1.356 . S
N1287 H1290 0.984 . S
N1287 H1291 0.985 . S
H1288 N1283 0.984 . S
H1289 N1283 0.985 . S
H1290 N1287 0.984 . S
H1291 N1287 0.985 . S
H1292 N1286 0.984 . S
H1293 N1286 0.984 . S
H1294 N1282 0.984 . S
H1295 N1282 0.985 . S
C1296 C1297 1.363 . S
C1296 C1302 1.379 . S
C1296 N1304 1.356 . S
C1297 C1296 1.363 . S
C1297 C1303 1.363 . S
C1298 C1299 1.363 . S
C1298 C1303 1.379 . S
C1298 N1305 1.356 . S
C1299 C1298 1.363 . S
C1299 C1302 1.363 . S
N1300 C1302 1.356 . S
N1300 H1312 0.984 . S
N1300 H1313 0.985 . S
N1301 C1303 1.356 . S
N1301 H1306 0.984 . S
N1301 H1307 0.985 . S
C1302 C1296 1.379 . S
C1302 C1299 1.363 . S
C1302 N1300 1.356 . S
C1303 C1297 1.363 . S
C1303 C1298 1.379 . S
C1303 N1301 1.356 . S
N1304 C1296 1.356 . S
N1304 H1310 0.984 . S
N1304 H1311 0.984 . S
N1305 C1298 1.356 . S
N1305 H1308 0.984 . S
N1305 H1309 0.985 . S
H1306 N1301 0.984 . S
H1307 N1301 0.985 . S
H1308 N1305 0.984 . S
H1309 N1305 0.985 . S
H1310 N1304 0.984 . S
H1311 N1304 0.984 . S
H1312 N1300 0.984 . S
H1313 N1300 0.985 . S
C1314 C1315 1.363 . S
C1314 C1320 1.379 . S
C1314 N1322 1.356 . S
C1315 C1314 1.363 . S
C1315 C1321 1.363 . S
C1316 C1317 1.363 . S
C1316 C1321 1.379 . S
C1316 N1323 1.356 . S
C1317 C1316 1.363 . S
C1317 C1320 1.363 . S
N1318 C1320 1.356 . S
N1318 H1330 0.984 . S
N1318 H1331 0.985 . S
N1319 C1321 1.356 . S
N1319 H1324 0.984 . S
N1319 H1325 0.985 . S
C1320 C1314 1.379 . S
C1320 C1317 1.363 . S
C1320 N1318 1.356 . S
C1321 C1315 1.363 . S
C1321 C1316 1.379 . S
C1321 N1319 1.356 . S
N1322 C1314 1.356 . S
N1322 H1328 0.984 . S
N1322 H1329 0.984 . S
N1323 C1316 1.356 . S
N1323 H1326 0.984 . S
N1323 H1327 0.985 . S
H1324 N1319 0.984 . S
H1325 N1319 0.985 . S
H1326 N1323 0.984 . S
H1327 N1323 0.985 . S
H1328 N1322 0.984 . S
H1329 N1322 0.984 . S
H1330 N1318 0.984 . S
H1331 N1318 0.985 . S
C1332 C1333 1.363 1_565 S
C1332 C1338 1.379 1_554 S
C1332 N1340 1.356 . S
C1333 C1332 1.363 1_545 S
C1333 C1339 1.363 . S
C1334 C1335 1.363 1_545 S
C1334 C1339 1.379 1_556 S
C1334 N1341 1.356 . S
C1335 C1334 1.363 1_565 S
C1335 C1338 1.363 . S
N1336 C1338 1.356 . S
N1336 H1348 0.984 . S
N1336 H1349 0.985 . S
N1337 C1339 1.356 . S
N1337 H1342 0.984 . S
N1337 H1343 0.985 . S
C1338 C1332 1.379 1_556 S
C1338 C1335 1.363 . S
C1338 N1336 1.356 . S
C1339 C1333 1.363 . S
C1339 C1334 1.379 1_554 S
C1339 N1337 1.356 . S
N1340 C1332 1.356 . S
N1340 H1346 0.984 . S
N1340 H1347 0.984 . S
N1341 C1334 1.356 . S
N1341 H1344 0.984 . S
N1341 H1345 0.985 . S
H1342 N1337 0.984 . S
H1343 N1337 0.985 . S
H1344 N1341 0.984 . S
H1345 N1341 0.985 . S
H1346 N1340 0.984 . S
H1347 N1340 0.984 . S
H1348 N1336 0.984 . S
H1349 N1336 0.985 . S
C1350 C1351 1.363 . S
C1350 C1356 1.379 1_554 S
C1350 N1358 1.356 . S
C1351 C1350 1.363 . S
C1351 C1357 1.363 1_655 S
C1352 C1353 1.363 . S
C1352 C1357 1.379 1_556 S
C1352 N1359 1.356 . S
C1353 C1352 1.363 . S
C1353 C1356 1.363 1_455 S
N1354 C1356 1.356 . S
N1354 H1366 0.984 . S
N1354 H1367 0.985 . S
N1355 C1357 1.356 . S
N1355 H1360 0.984 . S
N1355 H1361 0.985 . S
C1356 C1350 1.379 1_556 S
C1356 C1353 1.363 1_655 S
C1356 N1354 1.356 . S
C1357 C1351 1.363 1_455 S
C1357 C1352 1.379 1_554 S
C1357 N1355 1.356 . S
N1358 C1350 1.356 . S
N1358 H1364 0.984 . S
N1358 H1365 0.984 . S
N1359 C1352 1.356 . S
N1359 H1362 0.984 . S
N1359 H1363 0.985 . S
H1360 N1355 0.984 . S
H1361 N1355 0.985 . S
H1362 N1359 0.984 . S
H1363 N1359 0.985 . S
H1364 N1358 0.984 . S
H1365 N1358 0.984 . S
H1366 N1354 0.984 . S
H1367 N1354 0.985 . S
C1368 C1369 1.363 . S
C1368 C1374 1.379 1_556 S
C1368 N1376 1.356 . S
C1369 C1368 1.363 . S
C1369 C1375 1.363 . S
C1370 C1371 1.363 . S
C1370 C1375 1.379 1_554 S
C1370 N1377 1.356 . S
C1371 C1370 1.363 . S
C1371 C1374 1.363 . S
N1372 C1374 1.356 . S
N1372 H1384 0.984 . S
N1372 H1385 0.985 . S
N1373 C1375 1.356 . S
N1373 H1378 0.984 . S
N1373 H1379 0.985 . S
C1374 C1368 1.379 1_554 S
C1374 C1371 1.363 . S
C1374 N1372 1.356 . S
C1375 C1369 1.363 . S
C1375 C1370 1.379 1_556 S
C1375 N1373 1.356 . S
N1376 C1368 1.356 . S
N1376 H1382 0.984 . S
N1376 H1383 0.984 . S
N1377 C1370 1.356 . S
N1377 H1380 0.984 . S
N1377 H1381 0.985 . S
H1378 N1373 0.984 . S
H1379 N1373 0.985 . S
H1380 N1377 0.984 . S
H1381 N1377 0.985 . S
H1382 N1376 0.984 . S
H1383 N1376 0.984 . S
H1384 N1372 0.984 . S
H1385 N1372 0.985 . S
C415 C110 1.404 . S
C417 C20 1.450 . S
C433 C43 1.450 1_545 S
C435 C133 1.404 . S
C451 C87 1.405 . S
C453 C66 1.450 1_655 S
C469 C89 1.450 . S
C471 C41 1.404 . S
C487 C112 1.450 1_565 S
C489 C64 1.404 . S
C505 C18 1.405 . S
C507 C135 1.450 1_455 S
C523 C158 1.450 . S
C525 C248 1.404 . S
C541 C271 1.405 . S
C543 C181 1.450 . S
C559 C225 1.405 . S
C561 C204 1.450 . S
C577 C227 1.450 . S
C579 C179 1.404 . S
C595 C202 1.404 . S
C597 C250 1.450 . S
C613 C273 1.450 . S
C615 C156 1.405 . S
C631 C386 1.404 . S
C633 C296 1.450 . S
C649 C319 1.450 . S
C651 C409 1.404 . S
C667 C363 1.405 . S
C669 C342 1.450 . S
C685 C317 1.404 . S
C687 C365 1.450 . S
C703 C388 1.450 . S
C705 C340 1.405 . S
C721 C294 1.405 . S
C723 C411 1.450 . S
C739 C16 1.293 . S
C741 C361 1.293 . S
C757 C39 1.293 . S
C759 C384 1.293 . S
C775 C407 1.293 . S
C777 C62 1.293 . S
C793 C85 1.293 . S
C795 C154 1.293 . S
C811 C108 1.293 . S
C813 C177 1.293 . S
C829 C200 1.293 . S
C831 C131 1.293 . S
C847 C292 1.293 . S
C849 C223 1.293 . S
C865 C315 1.293 . S
C867 C246 1.293 . S
C883 C338 1.293 . S
C885 C269 1.293 . S
C901 C17 1.480 . S
C903 C182 1.549 . S
C919 C205 1.549 . S
C921 C40 1.480 . S
C937 C159 1.549 . S
C939 C63 1.480 . S
C955 C86 1.480 . S
C957 C389 1.549 . S
C973 C412 1.549 . S
C975 C109 1.480 . S
C991 C132 1.480 . S
C993 C366 1.549 . S
C1009 C155 1.480 . S
C1011 C320 1.549 . S
C1027 C178 1.480 . S
C1029 C343 1.549 . S
C1045 C201 1.480 . S
C1047 C297 1.549 . S
C1063 C113 1.549 1_554 S
C1065 C224 1.480 . S
C1081 C136 1.549 1_554 S
C1083 C247 1.480 . S
C1099 C90 1.549 1_554 S
C1101 C270 1.480 . S
C1117 C293 1.480 . S
C1119 C44 1.549 1_556 S
C1135 C316 1.480 . S
C1137 C67 1.549 1_556 S
C1153 C21 1.549 1_556 S
C1155 C339 1.480 . S
C1171 C251 1.549 . S
C1173 C362 1.480 . S
C1189 C385 1.480 . S
C1191 C274 1.549 . S
C1207 C228 1.549 . S
C1209 C408 1.480 . S
C1225 C19 1.492 . S
C1227 C364 1.492 . S
C1243 C42 1.492 . S
C1245 C387 1.492 . S
C1261 C65 1.493 . S
C1263 C410 1.493 . S
C1279 C157 1.492 . S
C1281 C88 1.492 . S
C1297 C111 1.492 . S
C1299 C180 1.492 . S
C1315 C203 1.493 . S
C1317 C134 1.493 . S
C1333 C226 1.492 . S
C1335 C295 1.492 . S
C1351 C249 1.492 . S
C1353 C318 1.492 . S
C1369 C341 1.493 . S
C1371 C272 1.493 . S
