# Generated by pormake.
# Topology pem, (4)-cn, num edge types: 1
# Building blocks:
#     Node 0, Type 0, BuildingBlock: AZAVOO_clean_sbu_0, # of connection points: 4
#     Node 1, Type 0, BuildingBlock: AZAVOO_clean_sbu_0, # of connection points: 4
#     Node 2, Type 0, BuildingBlock: AZAVOO_clean_sbu_0, # of connection points: 4
#     Node 3, Type 0, BuildingBlock: AZAVOO_clean_sbu_0, # of connection points: 4
#     Node 4, Type 0, BuildingBlock: AZAVOO_clean_sbu_0, # of connection points: 4
#     Node 5, Type 0, BuildingBlock: AZAVOO_clean_sbu_0, # of connection points: 4
#     Node 6, Type 0, BuildingBlock: AZAVOO_clean_sbu_0, # of connection points: 4
#     Node 7, Type 0, BuildingBlock: AZAVOO_clean_sbu_0, # of connection points: 4
#     Node 8, Type 0, BuildingBlock: AZAVOO_clean_sbu_0, # of connection points: 4
#     Node 9, Type 0, BuildingBlock: AZAVOO_clean_sbu_0, # of connection points: 4
#     Node 10, Type 0, BuildingBlock: AZAVOO_clean_sbu_0, # of connection points: 4
#     Node 11, Type 0, BuildingBlock: AZAVOO_clean_sbu_0, # of connection points: 4
#     Node 12, Type 0, BuildingBlock: AZAVOO_clean_sbu_0, # of connection points: 4
#     Node 13, Type 0, BuildingBlock: AZAVOO_clean_sbu_0, # of connection points: 4
#     Node 14, Type 0, BuildingBlock: AZAVOO_clean_sbu_0, # of connection points: 4
#     Node 15, Type 0, BuildingBlock: AZAVOO_clean_sbu_0, # of connection points: 4
#     Node 16, Type 0, BuildingBlock: AZAVOO_clean_sbu_0, # of connection points: 4
#     Node 17, Type 0, BuildingBlock: AZAVOO_clean_sbu_0, # of connection points: 4
#     Node 18, Type 0, BuildingBlock: AZAVOO_clean_sbu_0, # of connection points: 4
#     Node 19, Type 0, BuildingBlock: AZAVOO_clean_sbu_0, # of connection points: 4
#     Node 20, Type 0, BuildingBlock: AZAVOO_clean_sbu_0, # of connection points: 4
#     Node 21, Type 0, BuildingBlock: AZAVOO_clean_sbu_0, # of connection points: 4
#     Node 22, Type 0, BuildingBlock: AZAVOO_clean_sbu_0, # of connection points: 4
#     Node 23, Type 0, BuildingBlock: AZAVOO_clean_sbu_0, # of connection points: 4
#     Node 24, Type 0, BuildingBlock: AZAVOO_clean_sbu_0, # of connection points: 4
#     Node 25, Type 0, BuildingBlock: AZAVOO_clean_sbu_0, # of connection points: 4
#     Node 26, Type 0, BuildingBlock: AZAVOO_clean_sbu_0, # of connection points: 4
#     Node 27, Type 0, BuildingBlock: AZAVOO_clean_sbu_0, # of connection points: 4
#     Node 28, Type 0, BuildingBlock: AZAVOO_clean_sbu_0, # of connection points: 4
#     Node 29, Type 0, BuildingBlock: AZAVOO_clean_sbu_0, # of connection points: 4
#     Node 30, Type 0, BuildingBlock: AZAVOO_clean_sbu_0, # of connection points: 4
#     Node 31, Type 0, BuildingBlock: AZAVOO_clean_sbu_0, # of connection points: 4
#     Edge 32, Type (0, 0), BuildingBlock: ZUJKAS_clean_linker_0, # of connection points: 2
#     Edge 33, Type (0, 0), BuildingBlock: ZUJKAS_clean_linker_0, # of connection points: 2
#     Edge 34, Type (0, 0), BuildingBlock: ZUJKAS_clean_linker_0, # of connection points: 2
#     Edge 35, Type (0, 0), BuildingBlock: ZUJKAS_clean_linker_0, # of connection points: 2
#     Edge 36, Type (0, 0), BuildingBlock: ZUJKAS_clean_linker_0, # of connection points: 2
#     Edge 37, Type (0, 0), BuildingBlock: ZUJKAS_clean_linker_0, # of connection points: 2
#     Edge 38, Type (0, 0), BuildingBlock: ZUJKAS_clean_linker_0, # of connection points: 2
#     Edge 39, Type (0, 0), BuildingBlock: ZUJKAS_clean_linker_0, # of connection points: 2
#     Edge 40, Type (0, 0), BuildingBlock: ZUJKAS_clean_linker_0, # of connection points: 2
#     Edge 41, Type (0, 0), BuildingBlock: ZUJKAS_clean_linker_0, # of connection points: 2
#     Edge 42, Type (0, 0), BuildingBlock: ZUJKAS_clean_linker_0, # of connection points: 2
#     Edge 43, Type (0, 0), BuildingBlock: ZUJKAS_clean_linker_0, # of connection points: 2
#     Edge 44, Type (0, 0), BuildingBlock: ZUJKAS_clean_linker_0, # of connection points: 2
#     Edge 45, Type (0, 0), BuildingBlock: ZUJKAS_clean_linker_0, # of connection points: 2
#     Edge 46, Type (0, 0), BuildingBlock: ZUJKAS_clean_linker_0, # of connection points: 2
#     Edge 47, Type (0, 0), BuildingBlock: ZUJKAS_clean_linker_0, # of connection points: 2
#     Edge 48, Type (0, 0), BuildingBlock: ZUJKAS_clean_linker_0, # of connection points: 2
#     Edge 49, Type (0, 0), BuildingBlock: ZUJKAS_clean_linker_0, # of connection points: 2
#     Edge 50, Type (0, 0), BuildingBlock: ZUJKAS_clean_linker_0, # of connection points: 2
#     Edge 51, Type (0, 0), BuildingBlock: ZUJKAS_clean_linker_0, # of connection points: 2
#     Edge 52, Type (0, 0), BuildingBlock: ZUJKAS_clean_linker_0, # of connection points: 2
#     Edge 53, Type (0, 0), BuildingBlock: ZUJKAS_clean_linker_0, # of connection points: 2
#     Edge 54, Type (0, 0), BuildingBlock: ZUJKAS_clean_linker_0, # of connection points: 2
#     Edge 55, Type (0, 0), BuildingBlock: ZUJKAS_clean_linker_0, # of connection points: 2
#     Edge 56, Type (0, 0), BuildingBlock: ZUJKAS_clean_linker_0, # of connection points: 2
#     Edge 57, Type (0, 0), BuildingBlock: ZUJKAS_clean_linker_0, # of connection points: 2
#     Edge 58, Type (0, 0), BuildingBlock: ZUJKAS_clean_linker_0, # of connection points: 2
#     Edge 59, Type (0, 0), BuildingBlock: ZUJKAS_clean_linker_0, # of connection points: 2
#     Edge 60, Type (0, 0), BuildingBlock: ZUJKAS_clean_linker_0, # of connection points: 2
#     Edge 61, Type (0, 0), BuildingBlock: ZUJKAS_clean_linker_0, # of connection points: 2
#     Edge 62, Type (0, 0), BuildingBlock: ZUJKAS_clean_linker_0, # of connection points: 2
#     Edge 63, Type (0, 0), BuildingBlock: ZUJKAS_clean_linker_0, # of connection points: 2
#     Edge 64, Type (0, 0), BuildingBlock: ZUJKAS_clean_linker_0, # of connection points: 2
#     Edge 65, Type (0, 0), BuildingBlock: ZUJKAS_clean_linker_0, # of connection points: 2
#     Edge 66, Type (0, 0), BuildingBlock: ZUJKAS_clean_linker_0, # of connection points: 2
#     Edge 67, Type (0, 0), BuildingBlock: ZUJKAS_clean_linker_0, # of connection points: 2
#     Edge 68, Type (0, 0), BuildingBlock: ZUJKAS_clean_linker_0, # of connection points: 2
#     Edge 69, Type (0, 0), BuildingBlock: ZUJKAS_clean_linker_0, # of connection points: 2
#     Edge 70, Type (0, 0), BuildingBlock: ZUJKAS_clean_linker_0, # of connection points: 2
#     Edge 71, Type (0, 0), BuildingBlock: ZUJKAS_clean_linker_0, # of connection points: 2
#     Edge 72, Type (0, 0), BuildingBlock: ZUJKAS_clean_linker_0, # of connection points: 2
#     Edge 73, Type (0, 0), BuildingBlock: ZUJKAS_clean_linker_0, # of connection points: 2
#     Edge 74, Type (0, 0), BuildingBlock: ZUJKAS_clean_linker_0, # of connection points: 2
#     Edge 75, Type (0, 0), BuildingBlock: ZUJKAS_clean_linker_0, # of connection points: 2
#     Edge 76, Type (0, 0), BuildingBlock: ZUJKAS_clean_linker_0, # of connection points: 2
#     Edge 77, Type (0, 0), BuildingBlock: ZUJKAS_clean_linker_0, # of connection points: 2
#     Edge 78, Type (0, 0), BuildingBlock: ZUJKAS_clean_linker_0, # of connection points: 2
#     Edge 79, Type (0, 0), BuildingBlock: ZUJKAS_clean_linker_0, # of connection points: 2
#     Edge 80, Type (0, 0), BuildingBlock: ZUJKAS_clean_linker_0, # of connection points: 2
#     Edge 81, Type (0, 0), BuildingBlock: ZUJKAS_clean_linker_0, # of connection points: 2
#     Edge 82, Type (0, 0), BuildingBlock: ZUJKAS_clean_linker_0, # of connection points: 2
#     Edge 83, Type (0, 0), BuildingBlock: ZUJKAS_clean_linker_0, # of connection points: 2
#     Edge 84, Type (0, 0), BuildingBlock: ZUJKAS_clean_linker_0, # of connection points: 2
#     Edge 85, Type (0, 0), BuildingBlock: ZUJKAS_clean_linker_0, # of connection points: 2
#     Edge 86, Type (0, 0), BuildingBlock: ZUJKAS_clean_linker_0, # of connection points: 2
#     Edge 87, Type (0, 0), BuildingBlock: ZUJKAS_clean_linker_0, # of connection points: 2
#     Edge 88, Type (0, 0), BuildingBlock: ZUJKAS_clean_linker_0, # of connection points: 2
#     Edge 89, Type (0, 0), BuildingBlock: ZUJKAS_clean_linker_0, # of connection points: 2
#     Edge 90, Type (0, 0), BuildingBlock: ZUJKAS_clean_linker_0, # of connection points: 2
#     Edge 91, Type (0, 0), BuildingBlock: ZUJKAS_clean_linker_0, # of connection points: 2
#     Edge 92, Type (0, 0), BuildingBlock: ZUJKAS_clean_linker_0, # of connection points: 2
#     Edge 93, Type (0, 0), BuildingBlock: ZUJKAS_clean_linker_0, # of connection points: 2
#     Edge 94, Type (0, 0), BuildingBlock: ZUJKAS_clean_linker_0, # of connection points: 2
#     Edge 95, Type (0, 0), BuildingBlock: ZUJKAS_clean_linker_0, # of connection points: 2
# Relax obj value: 0.063
# Max RMSD: 0.038
# Mean RMSD: 0.034
data_MOF--net-pem--node1-AZAVOO_clean_sbu_0--edge1-ZUJKAS_clean_linker_0
_symmetry_space_group_name_H-M    P1
_symmetry_Int_Tables_number       1
_symmetry_cell_setting            triclinic
loop_
_symmetry_equiv_pos_as_xyz
'x, y, z'
_cell_length_a     54.529738
_cell_length_b     56.376044
_cell_length_c     55.935347
_cell_angle_alpha  90.057012
_cell_angle_beta   90.222779
_cell_angle_gamma 90.540759
loop_
_atom_site_label
_atom_site_type_symbol
_atom_site_fract_x
_atom_site_fract_y
_atom_site_fract_z
_atom_type_partial_charge
Mg0 Mg 0.10308 0.1038 0.11408 0.0
O1 O 0.079 0.07765 0.0928 0.0
O2 O 0.04968 0.06433 0.11737 0.0
Mg3 Mg 0.05542 0.08104 0.15422 0.0
C4 C 0.05995 0.06494 0.09688 0.0
C5 C 0.13169 0.09979 0.06772 0.0
O6 O 0.12742 0.0776 0.07369 0.0
O7 O 0.0723 0.13088 0.1105 0.0
O8 O 0.04575 0.11705 0.13772 0.0
O9 O 0.1274 0.07469 0.1258 0.0
O10 O 0.09424 0.08544 0.14537 0.0
C11 C 0.05237 0.1325 0.12228 0.0
C12 C 0.11212 0.07081 0.14298 0.0
O13 O 0.12242 0.11618 0.08029 0.0
Mg14 Mg 0.14441 0.85685 0.34938 0.0
O15 O 0.17083 0.83841 0.32337 0.0
O16 O 0.20005 0.86495 0.31411 0.0
Mg17 Mg 0.19175 0.90021 0.33266 0.0
C18 C 0.19057 0.84419 0.31244 0.0
C19 C 0.11388 0.81972 0.37789 0.0
O20 O 0.11335 0.83754 0.39301 0.0
O21 O 0.17317 0.85336 0.37877 0.0
O22 O 0.1995 0.88241 0.36886 0.0
O23 O 0.12134 0.86957 0.31911 0.0
O24 O 0.15333 0.88917 0.33382 0.0
C25 C 0.19229 0.86594 0.38295 0.0
C26 C 0.13651 0.88728 0.31771 0.0
O27 O 0.12649 0.8217 0.35893 0.0
Mg28 Mg 0.38817 0.88888 0.61241 0.0
O29 O 0.41641 0.91273 0.59384 0.0
O30 O 0.44293 0.92618 0.62137 0.0
Mg31 Mg 0.43185 0.9106 0.65758 0.0
C32 C 0.43525 0.92504 0.59979 0.0
C33 C 0.36619 0.85627 0.57089 0.0
O34 O 0.36888 0.83919 0.58654 0.0
O35 O 0.41668 0.85933 0.61437 0.0
O36 O 0.44096 0.87345 0.64352 0.0
O37 O 0.36546 0.92062 0.62009 0.0
O38 O 0.39418 0.90721 0.64435 0.0
C39 C 0.43506 0.85729 0.62847 0.0
C40 C 0.37851 0.9234 0.63927 0.0
O41 O 0.37349 0.87711 0.57612 0.0
Mg42 Mg 0.35396 0.13209 0.84843 0.0
O43 O 0.32434 0.15395 0.8292 0.0
O44 O 0.29521 0.12871 0.81636 0.0
Mg45 Mg 0.30622 0.09099 0.82675 0.0
C46 C 0.30394 0.14973 0.81859 0.0
C47 C 0.37361 0.18431 0.85286 0.0
O48 O 0.36279 0.18577 0.83192 0.0
O49 O 0.32801 0.12821 0.88012 0.0
O50 O 0.30134 0.10106 0.86619 0.0
O51 O 0.37431 0.12665 0.81422 0.0
O52 O 0.34424 0.10348 0.82706 0.0
C53 C 0.30948 0.11448 0.88291 0.0
C54 C 0.35948 0.10899 0.81042 0.0
O55 O 0.37243 0.16496 0.86445 0.0
Mg56 Mg 0.10685 0.90115 0.37921 0.0
O57 O 0.08008 0.92548 0.39944 0.0
O58 O 0.05256 0.93721 0.37209 0.0
Mg59 Mg 0.06143 0.92166 0.33547 0.0
C60 C 0.06094 0.93712 0.39347 0.0
C61 C 0.13466 0.90301 0.42686 0.0
O62 O 0.13214 0.92559 0.42171 0.0
O63 O 0.07714 0.87244 0.37979 0.0
O64 O 0.05224 0.8849 0.35056 0.0
O65 O 0.13072 0.93217 0.36964 0.0
O66 O 0.09897 0.91968 0.34828 0.0
C67 C 0.05839 0.86968 0.36632 0.0
C68 C 0.11572 0.93547 0.35203 0.0
O69 O 0.12447 0.88763 0.41341 0.0
Mg70 Mg 0.35261 0.861 0.64898 0.0
O71 O 0.32652 0.8387 0.67185 0.0
O72 O 0.29748 0.86241 0.68627 0.0
Mg73 Mg 0.30506 0.89999 0.67255 0.0
C74 C 0.30732 0.84202 0.68435 0.0
C75 C 0.37918 0.81318 0.649 0.0
O76 O 0.37837 0.81821 0.67192 0.0
O77 O 0.32413 0.8621 0.61902 0.0
O78 O 0.29744 0.88804 0.63397 0.0
O79 O 0.37491 0.86898 0.6815 0.0
O80 O 0.34386 0.89074 0.66914 0.0
C81 C 0.30483 0.87462 0.6171 0.0
C82 C 0.3601 0.88638 0.68528 0.0
O83 O 0.36944 0.82738 0.63423 0.0
Mg84 Mg 0.39494 0.10295 0.88241 0.0
O85 O 0.4188 0.07553 0.90207 0.0
O86 O 0.44286 0.05836 0.87488 0.0
Mg87 Mg 0.43619 0.07597 0.8388 0.0
C88 C 0.43517 0.06048 0.89631 0.0
C89 C 0.3712 0.1036 0.93194 0.0
O90 O 0.37084 0.08091 0.92651 0.0
O91 O 0.42773 0.12822 0.88184 0.0
O92 O 0.45135 0.11085 0.85446 0.0
O93 O 0.36794 0.0742 0.87406 0.0
O94 O 0.39913 0.08411 0.85084 0.0
C95 C 0.44731 0.1275 0.86941 0.0
C96 C 0.38138 0.06969 0.85561 0.0
O97 O 0.38124 0.11809 0.91755 0.0
Mg98 Mg 0.14578 0.14395 0.14168 0.0
O99 O 0.17104 0.16297 0.16834 0.0
O100 O 0.19866 0.13711 0.1818 0.0
Mg101 Mg 0.19061 0.10128 0.16395 0.0
C102 C 0.1895 0.15788 0.18141 0.0
C103 C 0.11869 0.18192 0.11072 0.0
O104 O 0.1174 0.16409 0.09564 0.0
O105 O 0.17614 0.14544 0.11366 0.0
O106 O 0.20068 0.11687 0.12743 0.0
O107 O 0.12112 0.13345 0.17153 0.0
O108 O 0.15232 0.11197 0.15928 0.0
C109 C 0.19496 0.13229 0.1117 0.0
C110 C 0.13511 0.11528 0.17461 0.0
O111 O 0.13032 0.17937 0.13024 0.0
Mg112 Mg 0.60711 0.39244 0.8957 0.0
O113 O 0.58211 0.41931 0.9151 0.0
O114 O 0.5578 0.43547 0.88728 0.0
Mg115 Mg 0.56552 0.41837 0.85121 0.0
C116 C 0.56523 0.43372 0.9089 0.0
C117 C 0.63147 0.39422 0.94456 0.0
O118 O 0.6282 0.41659 0.93895 0.0
O119 O 0.57493 0.36588 0.89453 0.0
O120 O 0.55173 0.38324 0.8667 0.0
O121 O 0.63431 0.4211 0.88732 0.0
O122 O 0.60256 0.41192 0.86438 0.0
C123 C 0.55564 0.36644 0.88149 0.0
C124 C 0.62076 0.42593 0.86901 0.0
O125 O 0.62246 0.37832 0.93088 0.0
Mg126 Mg 0.8696 0.36905 0.1488 0.0
O127 O 0.84315 0.34746 0.17228 0.0
O128 O 0.81591 0.37281 0.1876 0.0
Mg129 Mg 0.82252 0.40935 0.17119 0.0
C130 C 0.82488 0.35205 0.1857 0.0
C131 C 0.8782 0.31699 0.12649 0.0
O132 O 0.85437 0.31588 0.1231 0.0
O133 O 0.84103 0.36871 0.11883 0.0
O134 O 0.81422 0.39454 0.13378 0.0
O135 O 0.89147 0.37787 0.18142 0.0
O136 O 0.86089 0.39952 0.16781 0.0
C137 C 0.82129 0.38063 0.11717 0.0
C138 C 0.87655 0.3953 0.1845 0.0
O139 O 0.88783 0.33548 0.13568 0.0
Mg140 Mg 0.8892 0.60163 0.39133 0.0
O141 O 0.91423 0.57497 0.41062 0.0
O142 O 0.93807 0.55787 0.3831 0.0
Mg143 Mg 0.93093 0.57582 0.34726 0.0
C144 C 0.93066 0.56009 0.4046 0.0
C145 C 0.86638 0.60094 0.44144 0.0
O146 O 0.86914 0.57825 0.43691 0.0
O147 O 0.92125 0.62768 0.39066 0.0
O148 O 0.94499 0.61102 0.36286 0.0
O149 O 0.86286 0.5723 0.38254 0.0
O150 O 0.89389 0.5833 0.35966 0.0
C151 C 0.9406 0.62753 0.37787 0.0
C152 C 0.87635 0.56852 0.36396 0.0
O153 O 0.87464 0.61599 0.42655 0.0
Mg154 Mg 0.8534 0.63838 0.351 0.0
O155 O 0.83211 0.66103 0.32363 0.0
O156 O 0.80371 0.63764 0.30655 0.0
Mg157 Mg 0.80548 0.60105 0.32347 0.0
C158 C 0.81444 0.65774 0.30886 0.0
C159 C 0.88599 0.68266 0.35095 0.0
O160 O 0.88733 0.67464 0.32894 0.0
O161 O 0.82121 0.6416 0.37664 0.0
O162 O 0.79312 0.61858 0.35841 0.0
O163 O 0.87878 0.62582 0.32255 0.0
O164 O 0.8442 0.60759 0.33204 0.0
C165 C 0.79975 0.63239 0.37542 0.0
C166 C 0.86297 0.6091 0.31822 0.0
O167 O 0.87225 0.67178 0.3657 0.0
Mg168 Mg 0.64781 0.36368 0.85306 0.0
O169 O 0.67182 0.34345 0.82626 0.0
O170 O 0.70078 0.3686 0.81324 0.0
Mg171 Mg 0.69485 0.40471 0.83086 0.0
C172 C 0.69073 0.34803 0.81357 0.0
C173 C 0.62202 0.31523 0.8502 0.0
O174 O 0.62532 0.32041 0.82754 0.0
O175 O 0.67886 0.36035 0.87988 0.0
O176 O 0.70572 0.38744 0.86652 0.0
O177 O 0.62263 0.37554 0.82418 0.0
O178 O 0.65605 0.39514 0.83526 0.0
C179 C 0.69911 0.37173 0.88169 0.0
C180 C 0.6377 0.39306 0.82077 0.0
O181 O 0.63012 0.32947 0.86602 0.0
Mg182 Mg 0.89095 0.89374 0.8989 0.0
O183 O 0.91778 0.91376 0.92379 0.0
O184 O 0.92008 0.89278 0.95767 0.0
Mg185 Mg 0.89634 0.85955 0.95411 0.0
C186 C 0.92619 0.91066 0.94493 0.0
C187 C 0.88038 0.92458 0.85806 0.0
O188 O 0.85962 0.91529 0.86556 0.0
O189 O 0.92141 0.86756 0.8903 0.0
O190 O 0.92281 0.84751 0.92469 0.0
O191 O 0.86031 0.91337 0.91522 0.0
O192 O 0.87361 0.87894 0.92864 0.0
C193 C 0.93049 0.85133 0.90346 0.0
C194 C 0.85983 0.8972 0.93154 0.0
O195 O 0.90024 0.91796 0.86787 0.0
Mg196 Mg 0.85934 0.14668 0.64716 0.0
O197 O 0.83494 0.17277 0.66843 0.0
O198 O 0.83119 0.20508 0.64545 0.0
Mg199 Mg 0.85156 0.19997 0.61048 0.0
C200 C 0.82658 0.19361 0.66462 0.0
C201 C 0.87023 0.1034 0.67584 0.0
O202 O 0.89027 0.10833 0.66376 0.0
O203 O 0.82644 0.13721 0.62355 0.0
O204 O 0.82357 0.17067 0.6023 0.0
O205 O 0.89307 0.16298 0.6628 0.0
O206 O 0.87514 0.17539 0.62964 0.0
C207 C 0.81604 0.14984 0.60761 0.0
C208 C 0.89171 0.17848 0.64584 0.0
O209 O 0.85157 0.11641 0.6728 0.0
Mg210 Mg 0.59969 0.10259 0.40222 0.0
O211 O 0.57411 0.0824 0.42809 0.0
O212 O 0.56886 0.10557 0.46011 0.0
Mg213 Mg 0.58877 0.14063 0.45409 0.0
C214 C 0.56502 0.08622 0.44877 0.0
C215 C 0.60256 0.07922 0.35307 0.0
O216 O 0.61395 0.09957 0.34961 0.0
O217 O 0.56791 0.12563 0.38992 0.0
O218 O 0.56238 0.14753 0.42285 0.0
O219 O 0.63164 0.08782 0.42149 0.0
O220 O 0.61423 0.1219 0.43072 0.0
C221 C 0.55654 0.14161 0.4015 0.0
C222 C 0.62991 0.10572 0.43587 0.0
O223 O 0.59275 0.07524 0.37324 0.0
Mg224 Mg 0.64363 0.85771 0.14474 0.0
O225 O 0.67055 0.83349 0.16538 0.0
O226 O 0.67717 0.8021 0.14181 0.0
Mg227 Mg 0.65631 0.80618 0.10687 0.0
C228 C 0.68078 0.81356 0.16123 0.0
C229 C 0.64346 0.88473 0.19272 0.0
O230 O 0.63613 0.86349 0.1994 0.0
O231 O 0.67513 0.87039 0.12131 0.0
O232 O 0.68132 0.838 0.09911 0.0
O233 O 0.61194 0.83768 0.15987 0.0
O234 O 0.63029 0.82839 0.12606 0.0
C235 C 0.68666 0.85932 0.10499 0.0
C236 C 0.61443 0.82307 0.14221 0.0
O237 O 0.64953 0.88802 0.17106 0.0
Mg238 Mg 0.89055 0.09902 0.59697 0.0
O239 O 0.91052 0.08003 0.56651 0.0
O240 O 0.91146 0.10362 0.53445 0.0
Mg241 Mg 0.89555 0.13915 0.54576 0.0
C242 C 0.91622 0.08399 0.54475 0.0
C243 C 0.88153 0.05951 0.63155 0.0
O244 O 0.86011 0.06931 0.62774 0.0
O245 O 0.92566 0.11962 0.60529 0.0
O246 O 0.92739 0.14245 0.57257 0.0
O247 O 0.85503 0.08705 0.58146 0.0
O248 O 0.8729 0.12134 0.57268 0.0
C249 C 0.93637 0.13522 0.59239 0.0
C250 C 0.85547 0.10626 0.56887 0.0
O251 O 0.90036 0.06865 0.62176 0.0
Mg252 Mg 0.65665 0.14424 0.34152 0.0
O253 O 0.68721 0.16656 0.32448 0.0
O254 O 0.72212 0.14605 0.32373 0.0
Mg255 Mg 0.71267 0.10881 0.33708 0.0
C256 C 0.70999 0.16489 0.31971 0.0
C257 C 0.63414 0.19382 0.33846 0.0
O258 O 0.65559 0.19793 0.34849 0.0
O259 O 0.65204 0.12521 0.30596 0.0
O260 O 0.68657 0.1041 0.30498 0.0
O261 O 0.66942 0.15488 0.37781 0.0
O262 O 0.68277 0.12334 0.35847 0.0
C263 C 0.66624 0.11052 0.29565 0.0
C264 C 0.68436 0.13721 0.3767 0.0
O265 O 0.62867 0.17273 0.33218 0.0
Mg266 Mg 0.5911 0.88863 0.10241 0.0
O267 O 0.56365 0.90804 0.07797 0.0
O268 O 0.52849 0.91194 0.09802 0.0
Mg269 Mg 0.53416 0.89782 0.13573 0.0
C270 C 0.54137 0.91483 0.07921 0.0
C271 C 0.6339 0.87685 0.07059 0.0
O272 O 0.6274 0.85665 0.0805 0.0
O273 O 0.59825 0.92323 0.12211 0.0
O274 O 0.56256 0.92768 0.14122 0.0
O275 O 0.57541 0.854 0.09061 0.0
O276 O 0.56229 0.87412 0.12193 0.0
C277 C 0.5841 0.93494 0.13579 0.0
C278 C 0.55966 0.85635 0.10768 0.0
O279 O 0.62218 0.89546 0.07608 0.0
Mg280 Mg 0.84783 0.85585 0.85483 0.0
O281 O 0.8167 0.83674 0.83525 0.0
O282 O 0.78393 0.86004 0.83281 0.0
Mg283 Mg 0.79518 0.89522 0.85049 0.0
C284 C 0.79464 0.84042 0.82869 0.0
C285 C 0.88513 0.81694 0.86039 0.0
O286 O 0.88296 0.82584 0.88199 0.0
O287 O 0.85588 0.87736 0.82134 0.0
O288 O 0.82327 0.90107 0.82022 0.0
O289 O 0.83301 0.84281 0.88925 0.0
O290 O 0.82251 0.87695 0.87286 0.0
C291 C 0.84361 0.89393 0.81157 0.0
C292 C 0.81941 0.86148 0.88956 0.0
O293 O 0.87318 0.82627 0.84339 0.0
Mg294 Mg 0.39778 0.59958 0.11168 0.0
O295 O 0.42023 0.58238 0.08157 0.0
O296 O 0.4205 0.60627 0.04973 0.0
Mg297 Mg 0.40127 0.64035 0.06064 0.0
C298 C 0.42638 0.58693 0.06003 0.0
C299 C 0.41131 0.54898 0.13179 0.0
O300 O 0.4079 0.54288 0.10935 0.0
O301 O 0.43069 0.62302 0.121 0.0
O302 O 0.43173 0.64609 0.08837 0.0
O303 O 0.36321 0.58554 0.09529 0.0
O304 O 0.37969 0.6205 0.08688 0.0
C305 C 0.44036 0.63958 0.10855 0.0
C306 C 0.36304 0.60477 0.08265 0.0
O307 O 0.40932 0.57065 0.13781 0.0
Mg308 Mg 0.15478 0.64646 0.86395 0.0
O309 O 0.18537 0.66527 0.84359 0.0
O310 O 0.21732 0.64107 0.83981 0.0
Mg311 Mg 0.20653 0.60603 0.85793 0.0
C312 C 0.20696 0.66098 0.83614 0.0
C313 C 0.11795 0.68495 0.87246 0.0
O314 O 0.12193 0.67543 0.89353 0.0
O315 O 0.14553 0.62572 0.83011 0.0
O316 O 0.17722 0.60083 0.82863 0.0
O317 O 0.17128 0.6587 0.8981 0.0
O318 O 0.18026 0.6246 0.88073 0.0
C319 C 0.15701 0.60868 0.82025 0.0
C320 C 0.18434 0.63968 0.89762 0.0
O321 O 0.12883 0.67639 0.85442 0.0
Mg322 Mg 0.0968 0.40072 0.61442 0.0
O323 O 0.0687 0.41697 0.58849 0.0
O324 O 0.03262 0.41977 0.60719 0.0
Mg325 Mg 0.03873 0.4091 0.64598 0.0
C326 C 0.04596 0.42224 0.58866 0.0
C327 C 0.13824 0.3882 0.5814 0.0
O328 O 0.1329 0.36844 0.59273 0.0
O329 O 0.10176 0.43679 0.63185 0.0
O330 O 0.06541 0.44087 0.64993 0.0
O331 O 0.08391 0.36453 0.60521 0.0
O332 O 0.06854 0.38584 0.63465 0.0
C333 C 0.08674 0.44869 0.64442 0.0
C334 C 0.06787 0.36675 0.62199 0.0
O335 O 0.12695 0.407 0.5871 0.0
Mg336 Mg 0.14385 0.34838 0.64209 0.0
O337 O 0.16611 0.32281 0.66598 0.0
O338 O 0.17114 0.2896 0.64466 0.0
Mg339 Mg 0.15445 0.29404 0.60768 0.0
C340 C 0.17425 0.3017 0.66377 0.0
C341 C 0.12906 0.38725 0.67525 0.0
O342 O 0.10876 0.37775 0.66679 0.0
O343 O 0.17879 0.35739 0.62112 0.0
O344 O 0.18329 0.32312 0.60144 0.0
O345 O 0.10924 0.33119 0.65504 0.0
O346 O 0.12927 0.31967 0.62296 0.0
C347 C 0.1905 0.34412 0.60666 0.0
C348 C 0.11164 0.31616 0.63779 0.0
O349 O 0.14949 0.37912 0.66823 0.0
Mg350 Mg 0.35008 0.63933 0.14023 0.0
O351 O 0.32842 0.66885 0.15931 0.0
O352 O 0.32552 0.69933 0.13394 0.0
Mg353 Mg 0.3426 0.68865 0.09844 0.0
C354 C 0.32142 0.68987 0.15429 0.0
C355 C 0.36237 0.60523 0.17883 0.0
O356 O 0.38308 0.61131 0.16852 0.0
O357 O 0.31552 0.62857 0.11962 0.0
O358 O 0.31264 0.65993 0.09534 0.0
O359 O 0.38459 0.65666 0.15221 0.0
O360 O 0.36655 0.66428 0.11761 0.0
C361 C 0.30456 0.64004 0.10313 0.0
C362 C 0.3836 0.66912 0.13287 0.0
O363 O 0.34246 0.61358 0.17064 0.0
Mg364 Mg 0.60347 0.60623 0.61375 0.0
O365 O 0.57986 0.57957 0.59267 0.0
O366 O 0.55008 0.56697 0.61711 0.0
Mg367 Mg 0.55562 0.58386 0.65401 0.0
C368 C 0.56063 0.56711 0.59674 0.0
C369 C 0.63625 0.60391 0.56968 0.0
O370 O 0.6382 0.58255 0.57879 0.0
O371 O 0.57257 0.63311 0.60976 0.0
O372 O 0.54643 0.6199 0.63764 0.0
O373 O 0.62803 0.57743 0.62666 0.0
O374 O 0.5943 0.58844 0.64513 0.0
C375 C 0.55299 0.63513 0.62198 0.0
C376 C 0.61221 0.57383 0.64341 0.0
O377 O 0.62195 0.61859 0.57955 0.0
Mg378 Mg 0.89667 0.40052 0.10666 0.0
O379 O 0.92209 0.42535 0.08533 0.0
O380 O 0.95117 0.43854 0.11052 0.0
Mg381 Mg 0.94425 0.42282 0.14754 0.0
C382 C 0.94138 0.4377 0.08973 0.0
C383 C 0.87326 0.36619 0.06768 0.0
O384 O 0.88009 0.3494 0.08244 0.0
O385 O 0.92612 0.372 0.10528 0.0
O386 O 0.95294 0.38617 0.13215 0.0
O387 O 0.87319 0.43099 0.11701 0.0
O388 O 0.90565 0.41923 0.13747 0.0
C389 C 0.94593 0.37018 0.11737 0.0
C390 C 0.88854 0.43453 0.13436 0.0
O391 O 0.87856 0.38766 0.07246 0.0
Mg392 Mg 0.64065 0.63208 0.65557 0.0
O393 O 0.66645 0.65422 0.67919 0.0
O394 O 0.69763 0.6315 0.69094 0.0
Mg395 Mg 0.69154 0.59437 0.67519 0.0
C396 C 0.68647 0.65133 0.69069 0.0
C397 C 0.61407 0.67267 0.62471 0.0
O398 O 0.62055 0.66035 0.60589 0.0
O399 O 0.66791 0.63478 0.62433 0.0
O400 O 0.69602 0.60922 0.63746 0.0
O401 O 0.61992 0.61992 0.68787 0.0
O402 O 0.65235 0.60173 0.67344 0.0
C403 C 0.68762 0.62302 0.62135 0.0
C404 C 0.63618 0.60351 0.68999 0.0
O405 O 0.62041 0.66578 0.64542 0.0
Mg406 Mg 0.39952 0.39082 0.39594 0.0
O407 O 0.42607 0.41128 0.42089 0.0
O408 O 0.43457 0.38711 0.45148 0.0
Mg409 Mg 0.41526 0.3516 0.44564 0.0
C410 C 0.43689 0.40698 0.44074 0.0
C411 C 0.38264 0.42567 0.35907 0.0
O412 O 0.3626 0.4161 0.36794 0.0
O413 O 0.43163 0.36973 0.3815 0.0
O414 O 0.43993 0.34624 0.41274 0.0
O415 O 0.36834 0.40404 0.41718 0.0
O416 O 0.38747 0.37051 0.42489 0.0
C417 C 0.44416 0.35353 0.39152 0.0
C418 C 0.37153 0.38606 0.43114 0.0
O419 O 0.40328 0.41879 0.36694 0.0
Mg420 Mg 0.10623 0.60801 0.88683 0.0
O421 O 0.08032 0.58867 0.91304 0.0
O422 O 0.07739 0.61163 0.94556 0.0
Mg423 Mg 0.09936 0.64564 0.93967 0.0
C424 C 0.07205 0.5927 0.93402 0.0
C425 C 0.1012 0.56007 0.86108 0.0
O426 O 0.1076 0.55341 0.8827 0.0
O427 O 0.07481 0.63244 0.87636 0.0
O428 O 0.07245 0.65461 0.90937 0.0
O429 O 0.13776 0.59092 0.90473 0.0
O430 O 0.12275 0.62561 0.91551 0.0
C431 C 0.06508 0.64918 0.88833 0.0
C432 C 0.1372 0.60819 0.91994 0.0
O433 O 0.09727 0.58191 0.85712 0.0
Mg434 Mg 0.34384 0.35775 0.3615 0.0
O435 O 0.31528 0.33744 0.33932 0.0
O436 O 0.28306 0.36067 0.3325 0.0
Mg437 Mg 0.29187 0.39665 0.34955 0.0
C438 C 0.29408 0.34091 0.33029 0.0
C439 C 0.38051 0.31848 0.37258 0.0
O440 O 0.37469 0.32629 0.39394 0.0
O441 O 0.35557 0.37787 0.32822 0.0
O442 O 0.32313 0.40117 0.32231 0.0
O443 O 0.32488 0.34634 0.3946 0.0
O444 O 0.31663 0.37959 0.37532 0.0
C445 C 0.34435 0.39379 0.31634 0.0
C446 C 0.31145 0.36502 0.39232 0.0
O447 O 0.37107 0.32832 0.35436 0.0
H448 H 0.07725 0.05941 0.05116 0.0
H449 H 0.05798 0.03704 0.0184 0.0
H450 H 0.99867 0.0166 0.065 0.0
H451 H 0.01753 0.03883 0.09771 0.0
H452 H 0.04549 0.98785 0.01727 0.0
H453 H 0.9638 0.04434 0.00574 0.0
H454 H 0.99109 0.05435 0.02132 0.0
H455 H 0.96886 0.0359 0.03629 0.0
C456 C 0.06007 0.0502 0.05443 0.0
C457 C 0.04888 0.05101 0.07707 0.0
C458 C 0.04911 0.03747 0.03568 0.0
C459 C 0.02671 0.02559 0.03921 0.0
C460 C 0.0157 0.0261 0.06181 0.0
H461 H 0.9522 0.9069 0.98645 0.0
H462 H 0.97941 0.93625 0.00464 0.0
C463 C 0.02663 0.03869 0.08054 0.0
C464 C 0.01504 0.01178 0.01973 0.0
H465 H 0.96053 0.0045 0.99041 0.0
C466 C 0.0271 0.9917 0.01101 0.0
C467 C 0.99126 0.01712 0.01127 0.0
C468 C 0.97808 0.03925 0.01895 0.0
C469 C 0.01525 0.97586 0.99534 0.0
C470 C 0.99068 0.98014 0.98854 0.0
C471 C 0.97929 0.00112 0.99586 0.0
C472 C 0.97559 0.96194 0.97619 0.0
C473 C 0.02886 0.95432 0.98676 0.0
C474 C 0.96405 0.96682 0.9543 0.0
C475 C 0.94828 0.95004 0.9438 0.0
C476 C 0.94357 0.92825 0.95525 0.0
C477 C 0.95535 0.92346 0.97711 0.0
C478 C 0.97113 0.94014 0.98747 0.0
H479 H 0.049 0.9575 0.98686 0.0
H480 H 0.02495 0.93923 -0.00107 0.0
H481 H 0.02303 0.94917 0.96841 0.0
H482 H 0.96708 0.98369 0.94547 0.0
H483 H 0.93946 0.9543 0.92699 0.0
H484 H 0.30262 0.73437 0.1493 0.0
H485 H 0.27968 0.75724 0.17849 0.0
H486 H 0.28562 0.70009 0.22926 0.0
H487 H 0.3089 0.67693 0.20014 0.0
H488 H 0.23493 0.74465 0.20091 0.0
H489 H 0.31068 0.75922 0.26641 0.0
H490 H 0.3161 0.74955 0.23612 0.0
H491 H 0.30458 0.72896 0.2579 0.0
C492 C 0.2992 0.72659 0.16668 0.0
C493 C 0.30773 0.70377 0.17235 0.0
C494 C 0.286 0.73972 0.18333 0.0
C495 C 0.28112 0.73045 0.20608 0.0
C496 C 0.28949 0.70769 0.21189 0.0
H497 H 0.17657 0.79799 0.30366 0.0
H498 H 0.19774 0.7687 0.27904 0.0
C499 C 0.30272 0.69446 0.19519 0.0
C500 C 0.26703 0.74475 0.22343 0.0
H501 H 0.27217 0.77521 0.27604 0.0
C502 C 0.24296 0.75119 0.21745 0.0
C503 C 0.27768 0.75339 0.24486 0.0
C504 C 0.30374 0.74764 0.25175 0.0
C505 C 0.22937 0.76635 0.23215 0.0
C506 C 0.24006 0.77507 0.25353 0.0
C507 C 0.26399 0.76836 0.2597 0.0
C508 C 0.22732 0.79244 0.26893 0.0
C509 C 0.20404 0.77363 0.22425 0.0
C510 C 0.23716 0.81534 0.27174 0.0
C511 C 0.22519 0.83209 0.28579 0.0
C512 C 0.20313 0.82626 0.29748 0.0
C513 C 0.19343 0.80316 0.29483 0.0
C514 C 0.20545 0.7864 0.28071 0.0
H515 H 0.20045 0.76915 0.2052 0.0
H516 H 0.19017 0.76425 0.23531 0.0
H517 H 0.20152 0.793 0.22675 0.0
H518 H 0.25403 0.82034 0.26281 0.0
H519 H 0.23328 0.84964 0.28744 0.0
H520 H 0.47576 0.95359 0.6053 0.0
H521 H 0.49632 0.97743 0.57484 0.0
H522 H 0.44549 0.95135 0.52152 0.0
H523 H 0.42454 0.92755 0.5519 0.0
H524 H 0.51846 0.96334 0.53108 0.0
H525 H 0.43994 0.0243 0.51732 0.0
H526 H 0.44195 0.00475 0.54277 0.0
H527 H 0.4334 0.99316 0.51398 0.0
C528 C 0.46892 0.95283 0.58711 0.0
C529 C 0.44835 0.93877 0.58112 0.0
C530 C 0.48076 0.96643 0.56971 0.0
C531 C 0.47224 0.96632 0.54603 0.0
C532 C 0.4521 0.95192 0.5398 0.0
H533 H 0.55601 0.04055 0.43344 0.0
H534 H 0.53241 0.00961 0.4542 0.0
C535 C 0.44022 0.93829 0.5572 0.0
C536 C 0.48422 0.9818 0.52813 0.0
H537 H 0.47549 0.03167 0.49474 0.0
C538 C 0.50905 0.97814 0.52289 0.0
C539 C 0.47183 0.00114 0.51766 0.0
C540 C 0.44536 0.00629 0.52327 0.0
C541 C 0.52203 0.9937 0.50788 0.0
C542 C 0.50974 0.01324 0.49772 0.0
C543 C 0.48475 0.01653 0.50245 0.0
C544 C 0.52305 0.03186 0.48428 0.0
C545 C 0.54905 0.98978 0.50389 0.0
C546 C 0.52506 0.05467 0.49409 0.0
C547 C 0.5384 0.07232 0.48235 0.0
C548 C 0.54996 0.06756 0.46043 0.0
C549 C 0.54742 0.04479 0.45032 0.0
C550 C 0.53405 0.02706 0.46218 0.0
H551 H 0.55658 0.97605 0.51605 0.0
H552 H 0.55199 0.98389 0.48519 0.0
H553 H 0.55953 0.00656 0.50661 0.0
H554 H 0.51665 0.05872 0.51111 0.0
H555 H 0.53982 0.08965 0.49063 0.0
H556 H 0.31594 0.19721 0.81918 0.0
H557 H 0.29412 0.22962 0.79963 0.0
H558 H 0.23921 0.18007 0.77423 0.0
H559 H 0.26065 0.14766 0.79375 0.0
H560 H 0.28535 0.23356 0.75153 0.0
H561 H 0.19744 0.23355 0.80039 0.0
H562 H 0.22445 0.21897 0.81173 0.0
H563 H 0.20508 0.20446 0.78994 0.0
C564 C 0.2991 0.1932 0.80964 0.0
C565 C 0.29014 0.16974 0.80799 0.0
C566 C 0.28662 0.21179 0.79854 0.0
C567 C 0.26483 0.20732 0.78582 0.0
C568 C 0.25566 0.18403 0.78445 0.0
H569 H 0.19991 0.26051 0.66246 0.0
H570 H 0.22299 0.24199 0.69454 0.0
C571 C 0.26811 0.16545 0.79548 0.0
C572 C 0.25276 0.22644 0.77208 0.0
H573 H 0.1968 0.25077 0.76072 0.0
C574 C 0.26612 0.2377 0.75387 0.0
C575 C 0.22778 0.23214 0.77536 0.0
C576 C 0.21293 0.22182 0.7956 0.0
C577 C 0.2547 0.25317 0.73778 0.0
C578 C 0.22925 0.25725 0.73982 0.0
C579 C 0.21627 0.24739 0.75905 0.0
C580 C 0.21541 0.26927 0.72062 0.0
C581 C 0.26977 0.2644 0.71818 0.0
C582 C 0.20303 0.29059 0.72481 0.0
C583 C 0.1897 0.30137 0.70636 0.0
C584 C 0.18828 0.29076 0.68359 0.0
C585 C 0.20055 0.26925 0.67971 0.0
C586 C 0.21392 0.25866 0.698 0.0
H587 H 0.28951 0.26536 0.72313 0.0
H588 H 0.26803 0.25349 0.70173 0.0
H589 H 0.26326 0.28255 0.71406 0.0
H590 H 0.20382 0.29891 0.74226 0.0
H591 H 0.18039 0.31787 0.70998 0.0
H592 H 0.0264 0.97087 0.38589 0.0
H593 H 0.00281 0.9924 0.41552 0.0
H594 H 0.04059 0.95569 0.47216 0.0
H595 H 0.06488 0.93428 0.44244 0.0
H596 H 0.97131 0.97405 0.44854 0.0
H597 H 0.04672 0.02452 0.49335 0.0
H598 H 0.05089 0.00941 0.46522 0.0
H599 H 0.05029 0.99288 0.49265 0.0
C600 C 0.02988 0.9674 0.40463 0.0
C601 C 0.04755 0.95081 0.41179 0.0
C602 C 0.01632 0.97974 0.42156 0.0
C603 C 0.02004 0.97579 0.44604 0.0
C604 C 0.03774 0.95933 0.45336 0.0
H605 H 0.93942 0.04481 0.56252 0.0
H606 H 0.96404 0.01611 0.54033 0.0
C607 C 0.05153 0.94706 0.43636 0.0
C608 C 0.00468 0.98857 0.46356 0.0
H609 H 0.0067 0.03016 0.50801 0.0
C610 C 0.97907 0.98619 0.46166 0.0
C611 C 0.01485 0.00433 0.48073 0.0
C612 C 0.04217 0.00816 0.48308 0.0
C613 C 0.96337 -0.00038 0.47597 0.0
C614 C 0.97353 0.01587 0.49255 0.0
C615 C 0.99907 0.01761 0.49522 0.0
C616 C 0.95793 0.0325 0.50593 0.0
C617 C 0.93599 0.99671 0.47301 0.0
C618 C 0.94643 0.05113 0.49383 0.0
C619 C 0.93253 0.06762 0.50639 0.0
C620 C 0.92978 0.0657 0.53131 0.0
C621 C 0.94105 0.04672 0.54332 0.0
C622 C 0.95518 0.03036 0.53073 0.0
H623 H 0.9311 0.98011 0.46332 0.0
H624 H 0.9268 0.9966 0.49069 0.0
H625 H 0.92878 0.01192 0.46264 0.0
H626 H 0.94856 0.05313 0.47468 0.0
H627 H 0.9241 0.08197 0.49658 0.0
H628 H 0.32561 0.7971 0.68861 0.0
H629 H 0.30953 0.76462 0.7131 0.0
H630 H 0.24987 0.80879 0.7359 0.0
H631 H 0.26561 0.84133 0.71143 0.0
H632 H 0.30192 0.76596 0.76352 0.0
H633 H 0.21578 0.74689 0.71363 0.0
H634 H 0.24098 0.76351 0.70084 0.0
H635 H 0.22026 0.7776 0.7212 0.0
C636 C 0.30891 0.79987 0.69862 0.0
C637 C 0.29687 0.82185 0.69799 0.0
C638 C 0.29981 0.78129 0.71264 0.0
C639 C 0.27841 0.78426 0.72607 0.0
C640 C 0.26621 0.80604 0.72533 0.0
H641 H 0.19204 0.70625 0.82724 0.0
H642 H 0.21113 0.73545 0.80093 0.0
C643 C 0.27531 0.82465 0.7114 0.0
C644 C 0.26931 0.76498 0.74169 0.0
H645 H 0.21955 0.72947 0.75218 0.0
C646 C 0.28402 0.75777 0.76096 0.0
C647 C 0.24597 0.75442 0.73823 0.0
C648 C 0.22988 0.7608 0.71723 0.0
C649 C 0.27559 0.7408 0.77742 0.0
C650 C 0.25203 0.73057 0.77421 0.0
C651 C 0.23756 0.73745 0.75464 0.0
C652 C 0.24162 0.71317 0.79127 0.0
C653 C 0.29158 0.73458 0.79854 0.0
C654 C 0.25257 0.691 0.79468 0.0
C655 C 0.24175 0.67422 0.80984 0.0
C656 C 0.21966 0.67929 0.82165 0.0
C657 C 0.20901 0.7017 0.81843 0.0
C658 C 0.21987 0.71843 0.80336 0.0
H659 H 0.30645 0.74789 0.80141 0.0
H660 H 0.28053 0.7332 0.81513 0.0
H661 H 0.3002 0.71713 0.79529 0.0
H662 H 0.26914 0.68646 0.78518 0.0
H663 H 0.25036 0.6571 0.81179 0.0
H664 H 0.4284 0.06263 0.94489 0.0
H665 H 0.4465 0.03695 0.97543 0.0
H666 H 0.48357 0.9974 0.92061 0.0
H667 H 0.4657 0.02283 0.88998 0.0
H668 H 0.45726 0.96941 0.95666 0.0
H669 H 0.52125 0.03717 0.99471 0.0
H670 H 0.48972 0.04582 0.99153 0.0
H671 H 0.50766 0.04005 0.96537 0.0
C672 C 0.44041 0.04848 0.93931 0.0
C673 C 0.4457 0.0449 0.91497 0.0
C674 C 0.45078 0.0339 0.95679 0.0
C675 C 0.46652 0.01548 0.95021 0.0
C676 C 0.47153 0.01161 0.92599 0.0
H677 H 0.56444 0.93253 0.03944 0.0
H678 H 0.54621 0.9559 0.00715 0.0
C679 C 0.46133 0.02623 0.90854 0.0
C680 C 0.47774 8e-05 0.96854 0.0
H681 H 0.51936 3e-05 0.01427 0.0
C682 C 0.47084 0.97605 0.96927 0.0
C683 C 0.49564 0.00882 0.98471 0.0
C684 C 0.50423 0.03433 0.98406 0.0
C685 C 0.48112 0.96057 0.9861 0.0
C686 C 0.49866 0.96942 0.00259 0.0
C687 C 0.50585 0.99336 0.0016 0.0
C688 C 0.50941 0.95424 0.02137 0.0
C689 C 0.47335 0.93481 0.98603 0.0
C690 C 0.49469 0.94559 0.03995 0.0
C691 C 0.50501 0.93234 0.05844 0.0
C692 C 0.53029 0.92747 0.05869 0.0
C693 C 0.54491 0.93584 0.03976 0.0
C694 C 0.53457 0.94925 0.02134 0.0
H695 H 0.4639 0.92976 0.96912 0.0
H696 H 0.48944 0.92314 0.98861 0.0
H697 H 0.46049 0.93158 0.00104 0.0
H698 H 0.47529 0.94951 0.04042 0.0
H699 H 0.49318 0.92618 0.07271 0.0
H700 H 0.31077 0.29579 0.32325 0.0
H701 H 0.29243 0.26471 0.29827 0.0
H702 H 0.23267 0.31103 0.28036 0.0
H703 H 0.25086 0.34235 0.30517 0.0
H704 H 0.24418 0.24362 0.30127 0.0
H705 H 0.26059 0.28968 0.21487 0.0
H706 H 0.27622 0.29806 0.24216 0.0
H707 H 0.24502 0.30679 0.23719 0.0
C708 C 0.2937 0.29941 0.31405 0.0
C709 C 0.28237 0.32166 0.31612 0.0
C710 C 0.28326 0.2816 0.29981 0.0
C711 C 0.26142 0.28574 0.28725 0.0
C712 C 0.24976 0.30767 0.28964 0.0
H713 H 0.17352 0.20336 0.18763 0.0
H714 H 0.19084 0.23388 0.21388 0.0
C715 C 0.26014 0.32549 0.30393 0.0
C716 C 0.25088 0.26707 0.27162 0.0
H717 H 0.23734 0.25407 0.21343 0.0
C718 C 0.24271 0.24583 0.28206 0.0
C719 C 0.24904 0.27011 0.2466 0.0
C720 C 0.25834 0.29229 0.23443 0.0
C721 C 0.23231 0.2276 0.26812 0.0
C722 C 0.23053 0.23059 0.24306 0.0
C723 C 0.23872 0.25186 0.23265 0.0
C724 C 0.22015 0.21192 0.22729 0.0
C725 C 0.22281 0.20555 0.2804 0.0
C726 C 0.23112 0.18955 0.22588 0.0
C727 C 0.22124 0.172 0.21093 0.0
C728 C 0.20031 0.17658 0.19695 0.0
C729 C 0.18962 0.19918 0.19815 0.0
C730 C 0.19948 0.21667 0.21315 0.0
H731 H 0.2196 0.20863 0.29975 0.0
H732 H 0.20542 0.19924 0.27206 0.0
H733 H 0.23656 0.19127 0.2787 0.0
H734 H 0.24742 0.18571 0.23624 0.0
H735 H 0.23005 0.15488 0.21034 0.0
H736 H 0.43775 0.58733 0.01247 0.0
H737 H 0.4634 0.5595 0.9907 0.0
H738 H 0.47534 0.51978 0.0555 0.0
H739 H 0.44929 0.54732 0.07742 0.0
H740 H 0.51195 0.54952 -0.00168 0.0
H741 H 0.45479 0.46799 0.00868 0.0
H742 H 0.44332 0.4972 0.01522 0.0
H743 H 0.46315 0.48255 0.03614 0.0
C744 C 0.44566 0.57261 0.02212 0.0
C745 C 0.44134 0.56954 0.0467 0.0
C746 C 0.46036 0.55672 0.00963 0.0
C747 C 0.47107 0.53741 0.0214 0.0
C748 C 0.46685 0.53426 0.04594 0.0
H749 H 0.56794 0.43005 0.9579 0.0
H750 H 0.54718 0.45492 0.98757 0.0
C751 C 0.45201 0.5501 0.05846 0.0
C752 C 0.48718 0.52113 0.00793 0.0
H753 H 0.49255 0.46388 0.98864 0.0
C754 C 0.50776 0.53077 0.99632 0.0
C755 C 0.48177 0.49663 0.00545 0.0
C756 C 0.45946 0.48544 0.01685 0.0
C757 C 0.52278 0.51671 0.98189 0.0
C758 C 0.51698 0.49242 0.97888 0.0
C759 C 0.49695 0.48253 0.99112 0.0
C760 C 0.53009 0.47761 0.96132 0.0
C761 C 0.54455 0.52797 0.96963 0.0
C762 C 0.52715 0.48213 0.93687 0.0
C763 C 0.53874 0.46796 0.91996 0.0
C764 C 0.55361 0.44897 0.92716 0.0
C765 C 0.55669 0.44458 0.95176 0.0
C766 C 0.54484 0.4587 0.96872 0.0
H767 H 0.54995 0.54507 0.97813 0.0
H768 H 0.56052 0.51589 0.96993 0.0
H769 H 0.53979 0.53151 0.95067 0.0
H770 H 0.51562 0.4965 0.93083 0.0
H771 H 0.53598 0.47193 0.90121 0.0
H772 H 0.80914 0.35533 0.23145 0.0
H773 H 0.79233 0.32369 0.25648 0.0
H774 H 0.7983 0.27459 0.1975 0.0
H775 H 0.81689 0.30591 0.17305 0.0
H776 H 0.75326 0.30027 0.2545 0.0
H777 H 0.82751 0.23481 0.2473 0.0
H778 H 0.83082 0.2646 0.23608 0.0
H779 H 0.81589 0.24197 0.21824 0.0
C780 C 0.80703 0.33769 0.22395 0.0
C781 C 0.81435 0.33293 0.20043 0.0
C782 C 0.79743 0.31962 0.23824 0.0
C783 C 0.79443 0.29653 0.22911 0.0
C784 C 0.80124 0.29195 0.20532 0.0
H785 H 0.69029 0.19608 0.28827 0.0
H786 H 0.71123 0.22822 0.26719 0.0
C787 C 0.8116 0.30989 0.19126 0.0
C788 C 0.78314 0.27769 0.24417 0.0
H789 H 0.78882 0.21998 0.26149 0.0
C790 C 0.76126 0.28281 0.25624 0.0
C791 C 0.79373 0.25501 0.24698 0.0
C792 C 0.81842 0.24889 0.23667 0.0
C793 C 0.74946 0.26585 0.27058 0.0
C794 C 0.75903 0.24262 0.27187 0.0
C795 C 0.7812 0.23764 0.26025 0.0
C796 C 0.74625 0.22313 0.28483 0.0
C797 C 0.7272 0.27333 0.28458 0.0
C798 C 0.75916 0.20877 0.30101 0.0
C799 C 0.7474 0.18979 0.31241 0.0
C800 C 0.72243 0.18514 0.30817 0.0
C801 C 0.70948 0.19957 0.29216 0.0
C802 C 0.72139 0.21808 0.28025 0.0
H803 H 0.72792 0.2926 0.28876 0.0
H804 H 0.71047 0.27005 0.27367 0.0
H805 H 0.72554 0.26339 0.30163 0.0
H806 H 0.77837 0.2122 0.30479 0.0
H807 H 0.75778 0.17889 0.32469 0.0
H808 H 0.06774 0.45309 0.55775 0.0
H809 H 0.04791 0.47568 0.52587 0.0
H810 H 0.98 0.43796 0.53884 0.0
H811 H 0.99938 0.41655 0.5718 0.0
H812 H 0.02755 0.46687 0.48569 0.0
H813 H 0.95564 0.50332 0.54426 0.0
H814 H 0.98091 0.48647 0.55588 0.0
H815 H 0.95429 0.47158 0.54357 0.0
C816 C 0.04861 0.44956 0.55366 0.0
C817 C 0.03497 0.43332 0.56736 0.0
C818 C 0.03727 0.46249 0.53548 0.0
C819 C 0.01221 0.45909 0.53038 0.0
C820 C 0.99904 0.44166 0.54304 0.0
H821 H 0.94598 0.51458 0.39985 0.0
H822 H 0.96516 0.4897 0.43025 0.0
C823 C 0.01019 0.42923 0.56168 0.0
C824 C -0.00011 0.47399 0.51208 0.0
H825 H 0.95008 0.509 0.50245 0.0
C826 C 0.01069 0.47621 0.48942 0.0
C827 C 0.97816 0.48666 0.51703 0.0
C828 C 0.96675 0.48711 0.54158 0.0
C829 C 0.00034 0.49053 0.47159 0.0
C830 C 0.97783 0.50205 0.4761 0.0
C831 C 0.96713 0.49996 0.49881 0.0
C832 C 0.96526 0.51676 0.45779 0.0
C833 C 0.01418 0.4937 0.44847 0.0
C834 C 0.95755 0.53983 0.46346 0.0
C835 C 0.9457 0.55374 0.44635 0.0
C836 C 0.9418 0.54501 0.42313 0.0
C837 C 0.94916 0.52186 0.41754 0.0
C838 C 0.96036 0.50772 0.43484 0.0
H839 H 0.03414 0.49074 0.45102 0.0
H840 H 0.00745 0.48046 0.43524 0.0
H841 H 0.01164 0.51173 0.44096 0.0
H842 H 0.96095 0.54721 0.48106 0.0
H843 H 0.9402 0.57155 0.45109 0.0
H844 H 0.77827 0.65681 0.27505 0.0
H845 H 0.75982 0.69025 0.2545 0.0
H846 H 0.80946 0.73837 0.29065 0.0
H847 H 0.82833 0.7048 0.31148 0.0
H848 H 0.7374 0.7305 0.27836 0.0
H849 H 0.81422 0.7555 0.21763 0.0
H850 H 0.81224 0.72656 0.23134 0.0
H851 H 0.82069 0.7519 0.24902 0.0
C852 C 0.7855 0.67443 0.27859 0.0
C853 C 0.8048 0.67807 0.295 0.0
C854 C 0.77484 0.69355 0.26684 0.0
C855 C 0.78326 0.71673 0.27109 0.0
C856 C 0.80283 0.72055 0.28704 0.0
H857 H 0.69025 0.82865 0.20732 0.0
H858 H 0.7171 0.80972 0.23694 0.0
C859 C 0.81357 0.70135 0.2989 0.0
C860 C 0.77085 0.73664 0.25896 0.0
H861 H 0.77666 0.77477 0.21195 0.0
C862 C 0.74605 0.74058 0.26415 0.0
C863 C 0.78228 0.74963 0.24045 0.0
C864 C 0.8088 0.74576 0.23407 0.0
C865 C 0.73198 0.75627 0.25044 0.0
C866 C 0.74313 0.76848 0.23121 0.0
C867 C 0.76826 0.76547 0.22683 0.0
C868 C 0.72829 0.78141 0.21333 0.0
C869 C 0.70495 0.75848 0.25559 0.0
C870 C 0.72613 0.77203 0.19022 0.0
C871 C 0.71091 0.78268 0.17339 0.0
C872 C 0.69752 0.80309 0.17924 0.0
C873 C 0.7002 0.81289 0.20227 0.0
C874 C 0.71548 0.8021 0.21922 0.0
H875 H 0.69861 0.74559 0.2693 0.0
H876 H 0.70115 0.77664 0.2622 0.0
H877 H 0.69405 0.75565 0.239 0.0
H878 H 0.73583 0.75606 0.18534 0.0
H879 H 0.70952 0.77469 0.15581 0.0
H880 H 0.81587 0.17882 0.71046 0.0
H881 H 0.78926 0.19862 0.73956 0.0
H882 H 0.77456 0.25378 0.6883 0.0
H883 H 0.80074 0.2344 0.65934 0.0
H884 H 0.79478 0.2459 0.75741 0.0
H885 H 0.70572 0.2335 0.71111 0.0
H886 H 0.73229 0.21582 0.70436 0.0
H887 H 0.72913 0.24498 0.69172 0.0
C888 C 0.80684 0.19508 0.70536 0.0
C889 C 0.81047 0.20498 0.68253 0.0
C890 C 0.79165 0.20634 0.72198 0.0
C891 C 0.77961 0.22741 0.71588 0.0
C892 C 0.78324 0.23726 0.69318 0.0
H893 H 0.73227 0.35044 0.78644 0.0
H894 H 0.75255 0.31826 0.76547 0.0
C895 C 0.79844 0.2262 0.6767 0.0
C896 C 0.76432 0.24021 0.73341 0.0
H897 H 0.70815 0.26573 0.73947 0.0
C898 C 0.7757 0.24986 0.75378 0.0
C899 C 0.73935 0.2451 0.72881 0.0
C900 C 0.72582 0.2341 0.70793 0.0
C901 C 0.7632 0.26559 0.7688 0.0
C902 C 0.73885 0.272 0.76305 0.0
C903 C 0.72694 0.26106 0.74364 0.0
C904 C 0.72617 0.29133 0.77585 0.0
C905 C 0.77636 0.27567 0.79035 0.0
C906 C 0.7041 0.28701 0.78799 0.0
C907 C 0.6923 0.30547 0.79997 0.0
C908 C 0.70227 0.32861 0.7998 0.0
C909 C 0.72408 0.33288 0.78708 0.0
C910 C 0.73585 0.31444 0.77522 0.0
H911 H 0.79146 0.26393 0.7963 0.0
H912 H 0.78452 0.29314 0.78563 0.0
H913 H 0.76354 0.27828 0.80548 0.0
H914 H 0.6962 0.26932 0.78844 0.0
H915 H 0.67551 0.30154 0.80953 0.0
H916 H 0.81031 0.79541 0.81964 0.0
H917 H 0.78948 0.76452 0.79646 0.0
H918 H 0.72836 0.81105 0.78447 0.0
H919 H 0.74912 0.84229 0.80758 0.0
H920 H 0.74191 0.74371 0.80454 0.0
H921 H 0.74908 0.78912 0.71649 0.0
H922 H 0.76756 0.79774 0.74198 0.0
H923 H 0.73588 0.80601 0.74043 0.0
C924 C 0.79243 0.79916 0.81212 0.0
C925 C 0.78145 0.82143 0.81539 0.0
C926 C 0.78055 0.78144 0.7989 0.0
C927 C 0.75757 0.78564 0.78854 0.0
C928 C 0.74629 0.80763 0.79205 0.0
H929 H 0.66726 0.69577 0.69606 0.0
H930 H 0.68349 0.72844 0.72032 0.0
C931 C 0.75813 0.8254 0.80537 0.0
C932 C 0.74552 0.76683 0.77414 0.0
H933 H 0.72836 0.75223 0.71721 0.0
C934 C 0.73887 0.74555 0.78545 0.0
C935 C 0.74156 0.76941 0.74928 0.0
C936 C 0.74902 0.7917 0.73619 0.0
C937 C 0.72834 0.72668 0.77254 0.0
C938 C 0.72487 0.72903 0.74758 0.0
C939 C 0.73112 0.75048 0.73634 0.0
C940 C 0.71523 0.70925 0.73275 0.0
C941 C 0.72078 0.70449 0.78579 0.0
C942 C 0.72797 0.68779 0.73137 0.0
C943 C 0.71876 0.66904 0.71757 0.0
C944 C 0.69669 0.67147 0.70471 0.0
C945 C 0.68426 0.69322 0.70576 0.0
C946 C 0.69349 0.71194 0.71962 0.0
H947 H 0.71825 0.70795 0.80518 0.0
H948 H 0.70345 0.69695 0.77839 0.0
H949 H 0.73532 0.69099 0.78388 0.0
H950 H 0.74509 0.68555 0.74095 0.0
H951 H 0.72892 0.65263 0.71706 0.0
H952 H 0.44444 0.45303 0.42602 0.0
H953 H 0.46907 0.4838 0.44612 0.0
H954 H 0.48851 0.43391 0.50125 0.0
H955 H 0.46441 0.40317 0.48138 0.0
H956 H 0.46229 0.50121 0.49185 0.0
H957 H 0.55478 0.46279 0.48386 0.0
H958 H 0.52915 0.45281 0.46579 0.0
H959 H 0.53312 0.44181 0.49576 0.0
C960 C 0.45419 0.44855 0.44228 0.0
C961 C 0.45244 0.42559 0.45205 0.0
C962 C 0.46824 0.46614 0.45372 0.0
C963 C 0.48097 0.46099 0.47493 0.0
C964 C 0.47935 0.43811 0.48459 0.0
H965 H 0.51949 0.53906 0.59825 0.0
H966 H 0.50111 0.51605 0.56581 0.0
C967 C 0.46534 0.42058 0.47326 0.0
C968 C 0.49453 0.47975 0.48814 0.0
H969 H 0.54929 0.49115 0.5158 0.0
C970 C 0.48144 0.49927 0.49672 0.0
C971 C 0.51961 0.47741 0.49417 0.0
C972 C 0.53505 0.45769 0.48419 0.0
C973 C 0.49234 0.51568 0.51246 0.0
C974 C 0.51681 0.51218 0.52007 0.0
C975 C 0.5304 0.49358 0.51023 0.0
C976 C 0.52803 0.52657 0.53945 0.0
C977 C 0.47741 0.53633 0.52116 0.0
C978 C 0.54972 0.53955 0.53557 0.0
C979 C 0.56045 0.55265 0.55418 0.0
C980 C 0.54974 0.55283 0.57705 0.0
C981 C 0.52819 0.53948 0.58088 0.0
C982 C 0.51751 0.52644 0.56229 0.0
H983 H 0.46253 0.54073 0.50832 0.0
H984 H 0.46874 0.53159 0.53845 0.0
H985 H 0.48909 0.55235 0.52397 0.0
H986 H 0.55825 0.53965 0.51811 0.0
H987 H 0.57708 0.56268 0.55061 0.0
H988 H 0.04842 0.59681 0.9767 0.0
H989 H 0.02362 0.56703 0.99712 0.0
H990 H 0.03407 0.51833 0.93864 0.0
H991 H 0.0593 0.54808 0.91794 0.0
H992 H 0.98012 0.54292 0.98168 0.0
H993 H 0.05809 0.48197 -0.00123 0.0
H994 H 0.06273 0.51243 0.98982 0.0
H995 H 0.05276 0.49074 0.96829 0.0
C996 C 0.04548 0.57981 0.96805 0.0
C997 C 0.05605 0.5748 0.94572 0.0
C998 C 0.03119 0.56284 0.97975 0.0
C999 C 0.02721 0.54046 0.96948 0.0
C1000 C 0.0372 0.53545 0.94697 0.0
H1001 H 0.92657 0.44103 0.04282 0.0
H1002 H 0.94616 0.46389 0.01079 0.0
C1003 C 0.05153 0.55249 0.93515 0.0
C1004 C 0.01316 0.52238 0.983 0.0
H1005 H 0.02007 0.4717 0.01556 0.0
C1006 C 0.98868 0.52713 0.98881 0.0
C1007 C 0.02454 0.50195 0.99239 0.0
C1008 C 0.05102 0.4964 0.9872 0.0
C1009 C 0.97548 0.51241 0.00448 0.0
C1010 C 0.98707 0.49231 0.01434 0.0
C1011 C 0.01126 0.4871 0.00785 0.0
C1012 C 0.97531 0.47786 0.03323 0.0
C1013 C 0.94973 0.51911 0.01135 0.0
C1014 C 0.98546 0.47787 0.05628 0.0
C1015 C 0.97442 0.46485 0.07456 0.0
C1016 C 0.95298 0.45144 0.07014 0.0
C1017 C 0.94297 0.45125 0.04689 0.0
C1018 C 0.95408 0.46435 0.02857 0.0
H1019 H 0.94495 0.53723 0.00519 0.0
H1020 H 0.93655 0.50636 0.00315 0.0
H1021 H 0.94741 0.51825 0.03105 0.0
H1022 H 0.00184 0.4882 0.06021 0.0
H1023 H 0.98271 0.46539 0.09218 0.0
H1024 H 0.15197 0.0424 0.14698 0.0
H1025 H 0.15727 0.0083 0.17341 0.0
H1026 H 0.08391 0.01743 0.20013 0.0
H1027 H 0.07882 0.05203 0.17461 0.0
H1028 H 0.15464 0.00896 0.22281 0.0
H1029 H 0.08572 0.94663 0.18473 0.0
H1030 H 0.09645 0.97261 0.16889 0.0
H1031 H 0.07359 0.97528 0.1918 0.0
C1032 C 0.1369 0.03708 0.1584 0.0
C1033 C 0.11488 0.04987 0.15857 0.0
C1034 C 0.13998 0.0176 0.17346 0.0
C1035 C 0.12091 0.01024 0.18856 0.0
C1036 C 0.09879 0.02272 0.18849 0.0
H1037 H 0.09592 0.9078 0.29933 0.0
H1038 H 0.09387 0.93702 0.26721 0.0
C1039 C 0.0959 0.04255 0.17385 0.0
C1040 C 0.12475 0.99055 0.20556 0.0
H1041 H 0.10195 0.93684 0.22301 0.0
C1042 C 0.14325 0.99309 0.22282 0.0
C1043 C 0.10996 0.96986 0.20535 0.0
C1044 C 0.09046 0.96576 0.18656 0.0
C1045 C 0.14676 0.97598 0.24064 0.0
C1046 C 0.13151 0.95542 0.24094 0.0
C1047 C 0.11348 0.95262 0.22307 0.0
C1048 C 0.13298 0.93716 0.26008 0.0
C1049 C 0.16649 0.98079 0.25903 0.0
C1050 C 0.15544 0.92685 0.26648 0.0
C1051 C 0.15668 0.91084 0.28549 0.0
C1052 C 0.13531 0.90397 0.29761 0.0
C1053 C 0.11267 0.91309 0.29036 0.0
C1054 C 0.11154 0.92976 0.27197 0.0
H1055 H 0.16861 0.00013 0.26246 0.0
H1056 H 0.16275 0.97186 0.2762 0.0
H1057 H 0.18424 0.97429 0.25209 0.0
H1058 H 0.17209 0.93139 0.25697 0.0
H1059 H 0.17426 0.90349 0.29038 0.0
H1060 H 0.34719 0.81427 0.55384 0.0
H1061 H 0.32054 0.80864 0.51891 0.0
H1062 H 0.32559 0.88361 0.50385 0.0
H1063 H 0.35248 0.88918 0.538 0.0
H1064 H 0.27785 0.82281 0.51062 0.0
H1065 H 0.33361 0.86056 0.43869 0.0
H1066 H 0.34652 0.85462 0.46777 0.0
H1067 H 0.33184 0.88259 0.4616 0.0
C1068 C 0.34296 0.82945 0.54276 0.0
C1069 C 0.35205 0.85216 0.54864 0.0
C1070 C 0.32767 0.82622 0.52283 0.0
C1071 C 0.32123 0.84562 0.50843 0.0
C1072 C 0.33069 0.86818 0.51416 0.0
H1073 H 0.21849 0.89729 0.40971 0.0
H1074 H 0.24873 0.88842 0.44059 0.0
C1075 C 0.34602 0.8714 0.53389 0.0
C1076 C 0.30293 0.84303 0.48881 0.0
H1077 H 0.28926 0.86391 0.43322 0.0
C1078 C 0.28041 0.83173 0.49368 0.0
C1079 C 0.30653 0.85353 0.46611 0.0
C1080 C 0.33109 0.8632 0.45821 0.0
C1081 C 0.26066 0.83276 0.47755 0.0
C1082 C 0.26357 0.84547 0.45593 0.0
C1083 C 0.2867 0.85499 0.45022 0.0
C1084 C 0.24291 0.85038 0.43936 0.0
C1085 C 0.23681 0.82082 0.48426 0.0
C1086 C 0.22905 0.832 0.42878 0.0
C1087 C 0.21133 0.83713 0.4114 0.0
C1088 C 0.20777 0.86063 0.40389 0.0
C1089 C 0.22105 0.879 0.41504 0.0
C1090 C 0.23833 0.87393 0.43267 0.0
H1091 H 0.23549 0.8178 0.50384 0.0
H1092 H 0.22087 0.83136 0.47841 0.0
H1093 H 0.23568 0.80327 0.47532 0.0
H1094 H 0.23257 0.81366 0.43323 0.0
H1095 H 0.20144 0.82264 0.40289 0.0
H1096 H 0.32059 0.09115 0.78529 0.0
H1097 H 0.3219 0.06422 0.75111 0.0
H1098 H 0.40098 0.06848 0.75151 0.0
H1099 H 0.3995 0.09708 0.78445 0.0
H1100 H 0.38531 0.06413 0.70758 0.0
H1101 H 0.33475 0.99676 0.76127 0.0
H1102 H 0.31824 0.02345 0.75635 0.0
H1103 H 0.34566 0.02416 0.77437 0.0
C1104 C 0.33821 0.08643 0.77795 0.0
C1105 C 0.36 0.0955 0.78792 0.0
C1106 C 0.33897 0.07092 0.75852 0.0
C1107 C 0.36158 0.06335 0.74948 0.0
C1108 C 0.3833 0.07376 0.75837 0.0
H1109 H 0.39954 0.93189 0.68286 0.0
H1110 H 0.39535 0.96714 0.70791 0.0
C1111 C 0.38246 0.09006 0.7772 0.0
C1112 C 0.36279 0.04375 0.73178 0.0
H1113 H 0.34596 0.986 0.72256 0.0
C1114 C 0.37667 0.04705 0.71087 0.0
C1115 C 0.35154 0.02137 0.73606 0.0
C1116 C 0.33693 0.01611 0.75833 0.0
C1117 C 0.37977 0.02853 0.69435 0.0
C1118 C 0.36863 0.0063 0.69883 0.0
C1119 C 0.35452 0.00308 0.7194 0.0
C1120 C 0.37207 0.98571 0.6829 0.0
C1121 C 0.39537 0.03257 0.6725 0.0
C1122 C 0.36009 0.98445 0.66072 0.0
C1123 C 0.36222 0.9642 0.64645 0.0
C1124 C 0.37649 0.94498 0.65413 0.0
C1125 C 0.38863 0.94646 0.67631 0.0
C1126 C 0.38627 0.96657 0.69065 0.0
H1127 H 0.405 0.05002 0.67298 0.0
H1128 H 0.40918 0.01831 0.67088 0.0
H1129 H 0.38358 0.03186 0.65629 0.0
H1130 H 0.34878 -0.00103 0.65466 0.0
H1131 H 0.35263 0.96358 0.62947 0.0
H1132 H 0.30353 0.15185 0.91352 0.0
H1133 H 0.27556 0.15363 0.9477 0.0
H1134 H 0.25664 0.07986 0.93746 0.0
H1135 H 0.28371 0.07821 0.90284 0.0
H1136 H 0.2251 0.1445 0.94693 0.0
H1137 H 0.27368 0.08617 0.00898 0.0
H1138 H 0.28567 0.09244 0.97965 0.0
H1139 H 0.26415 0.06845 0.98392 0.0
C1140 C 0.29375 0.13592 0.91889 0.0
C1141 C 0.29574 0.11489 0.90557 0.0
C1142 C 0.27783 0.13695 0.93842 0.0
C1143 C 0.26442 0.11675 0.94542 0.0
C1144 C 0.26709 0.09555 0.93259 0.0
H1145 H 0.14815 0.06968 0.0336 0.0
H1146 H 0.18055 0.07687 0.0045 0.0
C1147 C 0.28251 0.09465 0.9128 0.0
C1148 C 0.24632 0.11791 0.96503 0.0
H1149 H 0.22901 0.0902 0.01652 0.0
C1150 C 0.22609 0.13293 0.96237 0.0
C1151 C 0.24768 0.10279 0.98515 0.0
C1152 C 0.26915 0.08674 0.9896 0.0
C1153 C 0.20661 0.13238 0.97874 0.0
C1154 C 0.20763 0.11659 -0.00168 0.0
C1155 C 0.22826 0.10226 0.00143 0.0
C1156 C 0.18688 0.11337 0.01497 0.0
C1157 C 0.18474 0.14803 0.97454 0.0
C1158 C 0.17954 0.13165 0.03035 0.0
C1159 C 0.16081 0.12764 0.04696 0.0
C1160 C 0.1494 0.1052 0.04855 0.0
C1161 C 0.15657 0.08714 0.03282 0.0
C1162 C 0.17511 0.0912 0.01621 0.0
H1163 H 0.18484 0.156 0.95638 0.0
H1164 H 0.1674 0.13781 0.97688 0.0
H1165 H 0.18496 0.16264 0.98784 0.0
H1166 H 0.18871 0.14876 0.02997 0.0
H1167 H 0.15592 0.14179 0.05909 0.0
H1168 H 0.09895 0.11639 0.2083 0.0
H1169 H 0.09396 0.09009 0.24287 0.0
H1170 H 0.15942 0.05279 0.22304 0.0
H1171 H 0.16415 0.07825 0.18823 0.0
H1172 H 0.09367 0.03532 0.23725 0.0
H1173 H 0.16479 0.07298 0.2981 0.0
H1174 H 0.14942 0.09053 0.27562 0.0
H1175 H 0.17261 0.06992 0.26699 0.0
C1176 C 0.11239 0.10269 0.21139 0.0
C1177 C 0.1322 0.09969 0.19567 0.0
C1178 C 0.10952 0.08776 0.23115 0.0
C1179 C 0.12661 0.0699 0.23565 0.0
C1180 C 0.14634 0.06682 0.22005 0.0
H1181 H 0.1561 0.95915 0.33627 0.0
H1182 H 0.15721 0.99433 0.31075 0.0
C1183 C 0.14904 0.08149 0.20017 0.0
C1184 C 0.12303 0.05319 0.25559 0.0
H1185 H 0.14692 0.03632 0.30922 0.0
C1186 C 0.10531 0.03534 0.25296 0.0
C1187 C 0.13814 0.05368 0.27608 0.0
C1188 C 0.15728 0.07286 0.27961 0.0
C1189 C 0.10323 0.01687 0.26956 0.0
C1190 C 0.11834 0.01718 0.29033 0.0
C1191 C 0.1354 0.03584 0.29338 0.0
C1192 C 0.11767 0.99777 0.30836 0.0
C1193 C 0.08578 0.99673 0.26366 0.0
C1194 C 0.09529 0.98903 0.31723 0.0
C1195 C 0.09468 0.96877 0.3315 0.0
C1196 C 0.1165 0.95746 0.33801 0.0
C1197 C 0.13901 0.96736 0.33105 0.0
C1198 C 0.13959 0.98741 0.3164 0.0
H1199 H 0.08231 0.99539 0.24412 0.0
H1200 H 0.09298 0.97951 0.2699 0.0
H1201 H 0.06787 -4e-05 0.27235 0.0
H1202 H 0.07819 0.99759 0.31281 0.0
H1203 H 0.07714 0.96214 0.33761 0.0
H1204 H 0.30074 0.8383 0.58454 0.0
H1205 H 0.27404 0.83691 0.5491 0.0
H1206 H 0.25043 0.90824 0.56347 0.0
H1207 H 0.27611 0.90946 0.59929 0.0
H1208 H 0.21877 0.84787 0.54969 0.0
H1209 H 0.27742 0.90057 0.49065 0.0
H1210 H 0.28659 0.89429 0.521 0.0
H1211 H 0.26806 0.91972 0.51445 0.0
C1212 C 0.28994 0.8537 0.58001 0.0
C1213 C 0.29036 0.87393 0.59473 0.0
C1214 C 0.27477 0.85289 0.55975 0.0
C1215 C 0.26052 0.87257 0.55357 0.0
C1216 C 0.26141 0.89293 0.56792 0.0
H1217 H 0.15615 0.93129 0.46054 0.0
H1218 H 0.18695 0.9203 0.49015 0.0
C1219 C 0.27604 0.89356 0.58839 0.0
C1220 C 0.2439 0.87208 0.53265 0.0
H1221 H 0.23248 0.90132 0.48056 0.0
C1222 C 0.22187 0.85914 0.53427 0.0
C1223 C 0.24808 0.88686 0.51267 0.0
C1224 C 0.27149 0.90094 0.50963 0.0
C1225 C 0.20323 0.86173 0.51706 0.0
C1226 C 0.20702 0.87737 0.49763 0.0
C1227 C 0.22957 0.88934 0.49546 0.0
C1228 C 0.18729 0.88316 0.48036 0.0
C1229 C 0.17927 0.84858 0.52038 0.0
C1230 C 0.17706 0.86586 0.46514 0.0
C1231 C 0.15929 0.87208 0.44822 0.0
C1232 C 0.1516 0.89576 0.44616 0.0
C1233 C 0.16164 0.91291 0.46167 0.0
C1234 C 0.1793 0.90667 0.47856 0.0
H1235 H 0.1776 0.84092 0.5386 0.0
H1236 H 0.16351 0.86051 0.51715 0.0
H1237 H 0.17809 0.83383 0.50727 0.0
H1238 H 0.18316 0.84768 0.46592 0.0
H1239 H 0.15213 0.8585 0.43632 0.0
H1240 H 0.3573 0.0291 0.86923 0.0
H1241 H 0.35515 0.99141 0.84745 0.0
H1242 H 0.3952 0.02321 0.78903 0.0
H1243 H 0.39944 0.05981 0.81172 0.0
H1244 H 0.3351 0.97772 0.80976 0.0
H1245 H 0.43342 0.96538 0.79414 0.0
H1246 H 0.42245 0.98812 0.81398 0.0
H1247 H 0.42541 0.99372 0.78229 0.0
C1248 C 0.36578 0.0279 0.8518 0.0
C1249 C 0.37848 0.04739 0.84207 0.0
C1250 C 0.36459 0.00636 0.83938 0.0
C1251 C 0.3757 0.00412 0.81686 0.0
C1252 C 0.3875 0.02398 0.80682 0.0
H1253 H 0.33256 0.92469 0.69723 0.0
H1254 H 0.3349 0.94821 0.73346 0.0
C1255 C 0.38941 0.04515 0.81955 0.0
C1256 C 0.37389 0.98161 0.8031 0.0
H1257 H 0.40608 0.9472 0.76437 0.0
C1258 C 0.35079 0.9707 0.80033 0.0
C1259 C 0.39437 0.97177 0.7913 0.0
C1260 C 0.4203 0.98024 0.79588 0.0
C1261 C 0.34723 0.95173 0.78441 0.0
C1262 C 0.36714 0.94398 0.77035 0.0
C1263 C 0.39062 0.9535 0.77465 0.0
C1264 C 0.36382 0.92766 0.74976 0.0
C1265 C 0.32202 0.94063 0.7825 0.0
C1266 C 0.37929 0.90811 0.7467 0.0
C1267 C 0.37784 0.89439 0.7259 0.0
C1268 C 0.36101 0.9001 0.70775 0.0
C1269 C 0.3454 0.91948 0.711 0.0
C1270 C 0.34676 0.93305 0.73179 0.0
H1271 H 0.31241 0.94129 0.79997 0.0
H1272 H 0.3109 0.95085 0.7695 0.0
H1273 H 0.32281 0.92188 0.7765 0.0
H1274 H 0.39272 0.90368 0.76026 0.0
H1275 H 0.39016 0.87957 0.7239 0.0
H1276 H 0.36099 0.14953 0.94458 0.0
H1277 H 0.33588 0.1628 0.97818 0.0
H1278 H 0.32588 0.09 0.00022 0.0
H1279 H 0.35109 0.07683 0.96729 0.0
H1280 H 0.29099 0.15666 0.98641 0.0
H1281 H 0.33759 0.11751 0.06332 0.0
H1282 H 0.35188 0.11862 0.03431 0.0
H1283 H 0.33216 0.09398 0.04245 0.0
C1284 C 0.35382 0.13644 0.95693 0.0
C1285 C 0.35807 0.11212 0.95332 0.0
C1286 C 0.33942 0.14404 0.97609 0.0
C1287 C 0.32921 0.12749 0.99207 0.0
C1288 C 0.33403 0.10328 0.98869 0.0
H1289 H 0.21618 0.09718 0.08668 0.0
H1290 H 0.24873 0.10091 0.05712 0.0
C1291 C 0.34829 0.09569 0.9696 0.0
C1292 C 0.3115 0.13486 0.01077 0.0
H1293 H 0.29282 0.12068 0.06708 0.0
C1294 C 0.29149 0.14898 0.0041 0.0
C1295 C 0.31265 0.12594 0.03437 0.0
C1296 C 0.33494 0.11345 0.04403 0.0
C1297 C 0.27138 0.15212 0.01939 0.0
C1298 C 0.27137 0.14074 0.0419 0.0
C1299 C 0.2924 0.12861 0.04942 0.0
C1300 C 0.24934 0.13932 0.05733 0.0
C1301 C 0.25012 0.16686 0.01093 0.0
C1302 C 0.2382 0.1597 0.06667 0.0
C1303 C 0.21911 0.15755 0.08328 0.0
C1304 C 0.21147 0.13502 0.09113 0.0
C1305 C 0.22194 0.11474 0.08103 0.0
C1306 C 0.24055 0.11688 0.06419 0.0
H1307 H 0.25036 0.16948 0.99126 0.0
H1308 H 0.23235 0.1587 0.01607 0.0
H1309 H 0.25132 0.18461 0.01946 0.0
H1310 H 0.24491 0.17721 0.06196 0.0
H1311 H 0.2114 0.17342 0.09102 0.0
H1312 H 0.86561 0.27566 0.10311 0.0
H1313 H 0.89246 0.24202 0.09428 0.0
H1314 H 0.95328 0.2792 0.12712 0.0
H1315 H 0.92697 0.3127 0.13578 0.0
H1316 H 0.9635 0.25636 0.08126 0.0
H1317 H 0.91851 0.19712 0.14802 0.0
H1318 H 0.8995 0.21103 0.12581 0.0
H1319 H 0.91429 0.22883 0.14832 0.0
C1320 C 0.88473 0.27668 0.10833 0.0
C1321 C 0.89412 0.29683 0.12021 0.0
C1322 C 0.90001 0.25748 0.10328 0.0
C1323 C 0.92481 0.25818 0.11011 0.0
C1324 C 0.93425 0.27842 0.12154 0.0
H1325 H 0.02844 0.15877 0.15493 0.0
H1326 H 0.9968 0.18817 0.14771 0.0
C1327 C 0.91911 0.29753 0.12654 0.0
C1328 C 0.94103 0.23762 0.10659 0.0
H1329 H 0.95433 0.18349 0.13005 0.0
C1330 C 0.96146 0.24023 0.09167 0.0
C1331 C 0.93808 0.21667 0.12011 0.0
C1332 C 0.91652 0.2131 0.13659 0.0
C1333 C 0.9798 0.22293 0.0908 0.0
C1334 C 0.97766 0.20251 0.10547 0.0
C1335 C 0.95632 0.19932 0.1192 0.0
C1336 C 0.99808 0.18544 0.10905 0.0
C1337 C 0.00155 0.22729 0.07483 0.0
C1338 C 0.00987 0.17427 0.0898 0.0
C1339 C 0.02876 0.15807 0.09399 0.0
C1340 C 0.03542 0.1521 0.11748 0.0
C1341 C 0.02366 0.16318 0.13665 0.0
C1342 C 0.00539 0.1798 0.13249 0.0
H1343 H 0.00353 0.24631 0.06996 0.0
H1344 H 0.01868 0.22139 0.08351 0.0
H1345 H 0.99904 0.2171 0.05801 0.0
H1346 H 0.00416 0.17759 0.07158 0.0
H1347 H 0.03728 0.14933 0.07893 0.0
H1348 H 0.50884 0.36778 0.86486 0.0
H1349 H 0.47832 0.33618 0.86458 0.0
H1350 H 0.52901 0.28979 0.90042 0.0
H1351 H 0.55969 0.32203 0.90168 0.0
H1352 H 0.48234 0.29452 0.84188 0.0
H1353 H 0.4671 0.279 0.93881 0.0
H1354 H 0.48338 0.30474 0.92776 0.0
H1355 H 0.49834 0.2765 0.92912 0.0
C1356 C 0.51357 0.35096 0.87291 0.0
C1357 C 0.53688 0.34734 0.88306 0.0
C1358 C 0.49603 0.33288 0.87273 0.0
C1359 C 0.50132 0.31064 0.88253 0.0
C1360 C 0.5244 0.30695 0.8931 0.0
H1361 H 0.41297 0.18148 0.88295 0.0
H1362 H 0.44332 0.21266 0.89138 0.0
C1363 C 0.54198 0.32528 0.89361 0.0
C1364 C 0.48287 0.29128 0.88022 0.0
H1365 H 0.44579 0.25379 0.91191 0.0
C1366 C 0.47429 0.28565 0.85721 0.0
C1367 C 0.47259 0.27958 0.90021 0.0
C1368 C 0.48063 0.28534 0.92541 0.0
C1369 C 0.45551 0.2689 0.85356 0.0
C1370 C 0.44481 0.25748 0.87358 0.0
C1371 C 0.45384 0.26267 0.8966 0.0
C1372 C 0.4248 0.23961 0.87085 0.0
C1373 C 0.44783 0.26333 0.82816 0.0
C1374 C 0.40354 0.24478 0.85767 0.0
C1375 C 0.3864 0.22693 0.85246 0.0
C1376 C 0.38979 0.2038 0.86107 0.0
C1377 C 0.40998 0.19912 0.87595 0.0
C1378 C 0.42738 0.21688 0.88071 0.0
H1379 H 0.46247 0.26805 0.81519 0.0
H1380 H 0.44322 0.24423 0.82591 0.0
H1381 H 0.43147 0.27392 0.82347 0.0
H1382 H 0.40052 0.26246 0.8508 0.0
H1383 H 0.37074 0.23111 0.84131 0.0
H1384 H 0.97524 0.64089 0.34562 0.0
H1385 H 0.00569 0.67258 0.34951 0.0
H1386 H 0.97833 0.68904 0.41985 0.0
H1387 H 0.94745 0.65753 0.41589 0.0
H1388 H 0.99661 0.71883 0.35413 0.0
H1389 H 0.05092 0.68856 0.43232 0.0
H1390 H 0.02927 0.66944 0.41699 0.0
H1391 H 0.01871 0.6911 0.43813 0.0
C1392 C 0.97573 0.6512 0.36197 0.0
C1393 C 0.95889 0.64681 0.38043 0.0
C1394 C 0.99318 0.66929 0.36417 0.0
C1395 C 0.99439 0.68313 0.38499 0.0
C1396 C 0.9779 0.67847 0.40368 0.0
H1397 H 0.08044 0.81197 0.41355 0.0
H1398 H 0.05082 0.77913 0.41653 0.0
C1399 C 0.9601 0.66062 0.40132 0.0
C1400 C 0.01178 0.70343 0.38613 0.0
H1401 H 0.05962 0.72738 0.41785 0.0
C1402 C 0.01049 0.72057 0.368 0.0
C1403 C 0.02961 0.7059 0.40445 0.0
C1404 C 0.03242 0.68767 0.42396 0.0
C1405 C 0.02668 0.73996 0.36749 0.0
C1406 C 0.04474 0.74223 0.38555 0.0
C1407 C 0.0457 0.7255 0.40406 0.0
C1408 C 0.06351 0.76125 0.38473 0.0
C1409 C 0.02432 0.75772 0.34748 0.0
C1410 C 0.08064 0.76171 0.36613 0.0
C1411 C 0.09755 0.78034 0.36437 0.0
C1412 C 0.09764 0.79885 0.38124 0.0
C1413 C 0.08091 0.79794 0.40032 0.0
C1414 C 0.06397 0.77924 0.40206 0.0
H1415 H 0.00505 0.75888 0.34108 0.0
H1416 H 0.03063 0.77564 0.35305 0.0
H1417 H 0.03579 0.75193 0.33224 0.0
H1418 H 0.08064 0.74783 0.35272 0.0
H1419 H 0.1102 0.78046 0.34949 0.0
H1420 H 0.98354 0.35635 0.146 0.0
H1421 H 0.01145 0.32351 0.14005 0.0
H1422 H 0.9728 0.30361 0.0756 0.0
H1423 H 0.9445 0.33681 0.08134 0.0
H1424 H 0.99892 0.27402 0.13567 0.0
H1425 H 0.04666 0.31037 0.05556 0.0
H1426 H 0.0286 0.32883 0.07502 0.0
H1427 H 0.01368 0.30855 0.05485 0.0
C1428 C 0.98089 0.34509 0.13049 0.0
C1429 C 0.9619 0.34937 0.11401 0.0
C1430 C 0.99687 0.32628 0.12716 0.0
C1431 C 0.99439 0.31141 0.10723 0.0
C1432 C 0.97524 0.31522 0.09087 0.0
H1433 H 0.08926 0.19228 0.07238 0.0
H1434 H 0.05985 0.22464 0.06927 0.0
C1435 C 0.95903 0.33407 0.09427 0.0
C1436 C 0.01198 0.29188 0.10414 0.0
H1437 H 0.0618 0.27482 0.07176 0.0
C1438 C 0.01254 0.27408 0.12159 0.0
C1439 C 0.02964 0.29202 0.0857 0.0
C1440 C 0.02987 0.31099 0.06671 0.0
C1441 C 0.03065 0.25665 0.12143 0.0
C1442 C 0.04898 0.25733 0.10359 0.0
C1443 C 0.04791 0.2746 0.08559 0.0
C1444 C 0.06928 0.2401 0.10357 0.0
C1445 C 0.02984 0.23761 0.14036 0.0
C1446 C 0.08529 0.23894 0.1232 0.0
C1447 C 0.10228 0.22069 0.12491 0.0
C1448 C 0.10356 0.20323 0.10699 0.0
C1449 C 0.08859 0.20533 0.08658 0.0
C1450 C 0.07171 0.22377 0.0848 0.0
H1451 H 0.01091 0.23481 0.14715 0.0
H1452 H 0.03676 0.22049 0.13344 0.0
H1453 H 0.04159 0.24315 0.15566 0.0
H1454 H 0.08402 0.2517 0.13763 0.0
H1455 H 0.1137 0.21974 0.14076 0.0
H1456 H 0.5866 0.68547 0.58574 0.0
H1457 H 0.55575 0.71662 0.58374 0.0
H1458 H 0.57262 0.73675 0.65645 0.0
H1459 H 0.60305 0.70542 0.65873 0.0
H1460 H 0.52448 0.7304 0.64991 0.0
H1461 H 0.56079 0.78784 0.5775 0.0
H1462 H 0.55681 0.75734 0.56899 0.0
H1463 H 0.579 0.76519 0.5916 0.0
C1464 C 0.58404 0.69683 0.60114 0.0
C1465 C 0.5973 0.69301 0.62238 0.0
C1466 C 0.56643 0.7147 0.59996 0.0
C1467 C 0.56205 0.72925 0.61987 0.0
C1468 C 0.57573 0.72579 0.64085 0.0
H1469 H 0.4662 0.84102 0.66264 0.0
H1470 H 0.49536 0.80873 0.6595 0.0
C1471 C 0.59314 0.70787 0.64211 0.0
C1472 C 0.54205 0.7469 0.6197 0.0
H1473 H 0.52079 0.79643 0.59156 0.0
C1474 C 0.52367 0.74477 0.63706 0.0
C1475 C 0.54097 0.76569 0.60297 0.0
C1476 C 0.56055 0.76934 0.58433 0.0
C1477 C 0.50421 0.76075 0.63816 0.0
C1478 C 0.50327 0.77976 0.6217 0.0
C1479 C 0.52147 0.78179 0.6041 0.0
C1480 C 0.48464 0.79867 0.62359 0.0
C1481 C 0.48493 0.75691 0.65704 0.0
C1482 C 0.46899 0.80393 0.60433 0.0
C1483 C 0.452 0.82233 0.60616 0.0
C1484 C 0.45094 0.83619 0.62703 0.0
C1485 C 0.46657 0.83073 0.64628 0.0
C1486 C 0.48321 0.8122 0.64456 0.0
H1487 H 0.48162 0.73767 0.66008 0.0
H1488 H 0.49149 0.76475 0.67414 0.0
H1489 H 0.46735 0.76527 0.65216 0.0
H1490 H 0.47011 0.79399 0.58781 0.0
H1491 H 0.44033 0.82621 0.59097 0.0
H1492 H 0.91868 0.70707 0.3237 0.0
H1493 H 0.94391 0.74107 0.33505 0.0
H1494 H 0.9127 0.74002 0.40577 0.0
H1495 H 0.88736 0.70539 0.39459 0.0
H1496 H 0.92714 0.78617 0.35217 0.0
H1497 H 0.98754 0.74002 0.41734 0.0
H1498 H 0.9645 0.7245 0.39982 0.0
H1499 H 0.95552 0.74257 0.42448 0.0
C1500 C 0.91705 0.714 0.34168 0.0
C1501 C 0.90092 0.70354 0.35822 0.0
C1502 C 0.93149 0.7335 0.34812 0.0
C1503 C 0.93016 0.74307 0.37121 0.0
C1504 C 0.91408 0.73279 0.38788 0.0
H1505 H 0.04335 0.85003 0.40851 0.0
H1506 H 0.00985 0.82106 0.41373 0.0
C1507 C 0.89959 0.71308 0.38145 0.0
C1508 C 0.94598 0.76375 0.3772 0.0
H1509 H 0.00029 0.77789 0.4044 0.0
C1510 C 0.94293 0.78456 0.36391 0.0
C1511 C 0.96596 0.76206 0.39326 0.0
C1512 C 0.9688 0.74108 0.40959 0.0
C1513 C 0.9603 0.80298 0.3649 0.0
C1514 C 0.98207 0.79986 0.37842 0.0
C1515 C 0.98403 0.77999 0.3934 0.0
C1516 C 0.00348 0.81611 0.37578 0.0
C1517 C 0.95509 0.82546 0.35122 0.0
C1518 C 0.01196 0.82195 0.35282 0.0
C1519 C 0.03068 0.83863 0.34986 0.0
C1520 C 0.04189 0.84923 0.36981 0.0
C1521 C 0.03491 0.84204 0.39286 0.0
C1522 C 0.0157 0.82564 0.39583 0.0
H1523 H 0.93508 0.829 0.35071 0.0
H1524 H 0.96457 0.84107 0.35925 0.0
H1525 H 0.96123 0.82337 0.33245 0.0
H1526 H 0.00378 0.81391 0.33708 0.0
H1527 H 0.03605 0.84364 0.33192 0.0
H1528 H 0.45101 0.16147 0.90462 0.0
H1529 H 0.48166 0.19358 0.90762 0.0
H1530 H 0.51657 0.16823 0.84365 0.0
H1531 H 0.48641 0.13622 0.84047 0.0
H1532 H 0.53946 0.19029 0.90492 0.0
H1533 H 0.49378 0.2389 0.83076 0.0
H1534 H 0.47694 0.21894 0.85024 0.0
H1535 H 0.49701 0.20741 0.82784 0.0
C1536 C 0.46526 0.1627 0.89123 0.0
C1537 C 0.46606 0.14647 0.87211 0.0
C1538 C 0.48278 0.18093 0.89308 0.0
C1539 C 0.50106 0.1833 0.87569 0.0
C1540 C 0.50241 0.16672 0.85712 0.0
H1541 H 0.60678 0.27913 0.82133 0.0
H1542 H 0.5781 0.24719 0.83099 0.0
C1543 C 0.4851 0.14847 0.85533 0.0
C1544 C 0.51796 0.20387 0.87577 0.0
H1545 H 0.53175 0.25367 0.84395 0.0
C1546 C 0.53777 0.20435 0.89181 0.0
C1547 C 0.51556 0.22197 0.85856 0.0
C1548 C 0.49461 0.22202 0.8409 0.0
C1549 C 0.55613 0.22195 0.89018 0.0
C1550 C 0.55404 0.23977 0.87248 0.0
C1551 C 0.53346 0.23986 0.85733 0.0
C1552 C 0.57357 0.25763 0.86797 0.0
C1553 C 0.57811 0.22061 0.90656 0.0
C1554 C 0.58107 0.27378 0.88572 0.0
C1555 C 0.59777 0.29195 0.88029 0.0
C1556 C 0.60687 0.29447 0.85692 0.0
C1557 C 0.59995 0.2778 0.83944 0.0
C1558 C 0.58352 0.25955 0.84494 0.0
H1559 H 0.57979 0.20282 0.91491 0.0
H1560 H 0.5953 0.22468 0.89674 0.0
H1561 H 0.57617 0.23384 0.92111 0.0
H1562 H 0.57334 0.27291 0.9035 0.0
H1563 H 0.60275 0.30458 0.89412 0.0
H1564 H 0.90758 0.07323 0.68616 0.0
H1565 H 0.90862 0.04254 0.7169 0.0
H1566 H 0.83439 0.05907 0.73676 0.0
H1567 H 0.83298 0.08968 0.70571 0.0
H1568 H 0.90133 0.05097 0.76674 0.0
H1569 H 0.83909 0.98576 0.72585 0.0
H1570 H 0.84235 0.01504 0.71335 0.0
H1571 H 0.82058 0.00946 0.73674 0.0
C1572 C 0.89137 0.07027 0.69693 0.0
C1573 C 0.8702 0.08395 0.69355 0.0
C1574 C 0.89205 0.05275 0.71451 0.0
C1575 C 0.8716 0.04859 0.72905 0.0
C1576 C 0.85029 0.06195 0.72555 0.0
H1577 H 0.84035 0.94731 0.84091 0.0
H1578 H 0.83896 0.97929 0.81191 0.0
C1579 C 0.84954 0.07943 0.70785 0.0
C1580 C 0.87301 0.03103 0.74858 0.0
H1581 H 0.84829 0.97923 0.76871 0.0
C1582 C 0.88986 0.03514 0.76719 0.0
C1583 C 0.85774 0.01067 0.74925 0.0
C1584 C 0.83911 0.00503 0.73004 0.0
C1585 C 0.89162 0.01962 0.78671 0.0
C1586 C 0.87676 -0.00111 0.78711 0.0
C1587 C 0.85988 0.99492 0.76845 0.0
C1588 C 0.87826 0.98085 0.80643 0.0
C1589 C 0.9087 0.02619 0.807 0.0
C1590 C 0.90083 0.97099 0.81328 0.0
C1591 C 0.90169 0.95263 0.83003 0.0
C1592 C 0.87996 0.94371 0.84011 0.0
C1593 C 0.85745 0.95366 0.83335 0.0
C1594 C 0.85662 0.97204 0.81678 0.0
H1595 H 0.91148 0.04572 0.80812 0.0
H1596 H 0.90163 0.01982 0.82445 0.0
H1597 H 0.9269 0.01816 0.80379 0.0
H1598 H 0.91778 0.97689 0.80513 0.0
H1599 H 0.91929 0.94524 0.83485 0.0
H1600 H 0.63513 0.1434 0.46617 0.0
H1601 H 0.66257 0.1467 0.50062 0.0
H1602 H 0.68489 0.07421 0.49048 0.0
H1603 H 0.65744 0.07073 0.45599 0.0
H1604 H 0.68411 0.08628 0.53777 0.0
H1605 H 0.73402 0.15494 0.48576 0.0
H1606 H 0.70345 0.16357 0.49313 0.0
H1607 H 0.70816 0.13878 0.47351 0.0
C1608 C 0.64568 0.12807 0.47141 0.0
C1609 C 0.64461 0.10699 0.45803 0.0
C1610 C 0.66139 0.13 0.49107 0.0
C1611 C 0.67651 0.11101 0.49746 0.0
C1612 C 0.67386 0.08929 0.48545 0.0
H1613 H 0.80493 0.10421 0.59355 0.0
H1614 H 0.77068 0.09188 0.56747 0.0
C1615 C 0.65827 0.08737 0.46566 0.0
C1616 C 0.69672 0.11454 0.5149 0.0
H1617 H 0.74794 0.14819 0.52512 0.0
C1618 C 0.69808 0.09983 0.53511 0.0
C1619 C 0.7151 0.13203 0.51118 0.0
C1620 C 0.71528 0.14807 0.4896 0.0
C1621 C 0.71675 0.10293 0.55229 0.0
C1622 C 0.73482 0.12071 0.54866 0.0
C1623 C 0.7339 0.13473 0.528 0.0
C1624 C 0.75401 0.12662 0.56655 0.0
C1625 C 0.71648 0.08775 0.57447 0.0
C1626 C 0.75604 0.15013 0.57456 0.0
C1627 C 0.77589 0.15729 0.58852 0.0
C1628 C 0.79392 0.14099 0.59523 0.0
C1629 C 0.79121 0.11707 0.58856 0.0
C1630 C 0.77157 0.10999 0.57387 0.0
H1631 H 0.69834 0.07906 0.57723 0.0
H1632 H 0.73039 0.07363 0.57268 0.0
H1633 H 0.72112 0.09845 0.59057 0.0
H1634 H 0.74265 0.16322 0.56927 0.0
H1635 H 0.77735 0.17577 0.59373 0.0
H1636 H 0.62916 0.8838 0.23941 0.0
H1637 H 0.6222 0.91761 0.26577 0.0
H1638 H 0.64598 0.96542 0.21024 0.0
H1639 H 0.65343 0.93163 0.18374 0.0
H1640 H 0.66477 0.97684 0.25517 0.0
H1641 H 0.56416 0.96243 0.25871 0.0
H1642 H 0.58138 0.93693 0.2677 0.0
H1643 H 0.58342 0.94748 0.23743 0.0
C1644 C 0.63307 0.90148 0.2328 0.0
C1645 C 0.64159 0.90504 0.20937 0.0
C1646 C 0.62889 0.92079 0.24784 0.0
C1647 C 0.63297 0.944 0.23969 0.0
C1648 C 0.64242 0.94762 0.21668 0.0
H1649 H 0.61891 0.08279 0.30727 0.0
H1650 H 0.6259 0.05052 0.27892 0.0
C1651 C 0.64667 0.9283 0.20161 0.0
C1652 C 0.62732 0.96449 0.25522 0.0
H1653 H 0.5809 0.99072 0.28592 0.0
C1654 C 0.64642 0.98002 0.26178 0.0
C1655 C 0.60336 0.96848 0.26384 0.0
C1656 C 0.58185 0.95309 0.25639 0.0
C1657 C 0.64236 -0.00091 0.27737 0.0
C1658 C 0.61838 0.00309 0.28605 0.0
C1659 C 0.59927 0.98761 0.27932 0.0
C1660 C 0.61281 0.02289 0.30255 0.0
C1661 C 0.66401 0.01415 0.28513 0.0
C1662 C 0.60205 0.0182 0.32483 0.0
C1663 C 0.59777 0.03664 0.34095 0.0
C1664 C 0.60422 0.06011 0.33506 0.0
C1665 C 0.61405 0.06486 0.31237 0.0
C1666 C 0.61819 0.04643 0.29622 0.0
H1667 H 0.68163 0.00478 0.28252 0.0
H1668 H 0.66459 0.03052 0.2742 0.0
H1669 H 0.66253 0.01933 0.30422 0.0
H1670 H 0.59756 0.00017 0.33002 0.0
H1671 H 0.59015 0.03237 0.35829 0.0
H1672 H 0.85 0.86486 0.96652 0.0
H1673 H 0.82569 0.8707 0.00245 0.0
H1674 H 0.81438 0.94388 0.98305 0.0
H1675 H 0.83842 0.93801 0.94683 0.0
H1676 H 0.82675 0.89628 0.04051 0.0
H1677 H 0.74536 0.92543 0.98798 0.0
H1678 H 0.77329 0.91648 0.97372 0.0
H1679 H 0.77126 0.94523 0.98738 0.0
C1680 C 0.84236 0.88219 0.96991 0.0
C1681 C 0.84574 0.90082 0.95365 0.0
C1682 C 0.82844 0.88557 0.99048 0.0
C1683 C 0.81729 0.9075 0.99503 0.0
C1684 C 0.82184 0.92652 0.97947 0.0
H1685 H 0.69522 0.90699 0.09852 0.0
H1686 H 0.72926 0.92534 0.07619 0.0
C1687 C 0.83567 0.92313 0.9588 0.0
C1688 C 0.80007 0.90958 0.01544 0.0
H1689 H 0.7394 0.91689 0.02822 0.0
C1690 C 0.80773 0.90115 0.03786 0.0
C1691 C 0.77533 0.91666 0.01236 0.0
C1692 C 0.7657 0.92633 0.98905 0.0
C1693 C 0.79097 0.89745 0.05641 0.0
C1694 C 0.76591 0.90218 0.05239 0.0
C1695 C 0.75865 0.91304 0.03105 0.0
C1696 C 0.74665 0.892 0.06787 0.0
C1697 C 0.80003 0.88737 0.07976 0.0
C1698 C 0.74505 0.86729 0.07016 0.0
C1699 C 0.7256 0.85686 0.08234 0.0
C1700 C 0.70741 0.87094 0.09275 0.0
C1701 C 0.70916 0.89577 0.09085 0.0
C1702 C 0.72854 0.90623 0.07818 0.0
H1703 H 0.81928 0.89299 0.08337 0.0
H1704 H 0.78837 0.89297 0.09495 0.0
H1705 H 0.79963 0.86771 0.07871 0.0
H1706 H 0.75846 0.85596 0.06176 0.0
H1707 H 0.72478 0.83769 0.08351 0.0
H1708 H 0.92275 0.03506 0.64503 0.0
H1709 H 0.92436 -0.00121 0.66918 0.0
H1710 H 0.84543 -0.00116 0.67463 0.0
H1711 H 0.84372 0.03469 0.65095 0.0
H1712 H 0.91255 0.99132 0.71279 0.0
H1713 H 0.85424 0.93144 0.65974 0.0
H1714 H 0.86526 0.9593 0.64786 0.0
H1715 H 0.83721 0.95789 0.66493 0.0
C1716 C 0.90577 0.02718 0.65131 0.0
C1717 C 0.8831 0.03771 0.64605 0.0
C1718 C 0.9067 0.00644 0.66504 0.0
C1719 C 0.88498 0.99577 0.67341 0.0
C1720 C 0.86243 0.00632 0.668 0.0
H1721 H 0.81883 0.92335 0.78163 0.0
H1722 H 0.83386 0.9429 0.7458 0.0
C1723 C 0.86149 0.02703 0.65457 0.0
C1724 C 0.88557 0.97499 0.68967 0.0
H1725 H 0.85297 0.92494 0.70342 0.0
C1726 C 0.90003 0.97643 0.71044 0.0
C1727 C 0.86982 0.95514 0.68638 0.0
C1728 C 0.85604 0.95077 0.66333 0.0
C1729 C 0.89724 0.95995 0.72903 0.0
C1730 C 0.87911 0.94191 0.72697 0.0
C1731 C 0.86638 0.93918 0.70528 0.0
C1732 C 0.87033 0.92823 0.74794 0.0
C1733 C 0.91305 0.96271 0.75101 0.0
C1734 C 0.88571 0.91301 0.76087 0.0
C1735 C 0.87708 0.90164 0.78151 0.0
C1736 C 0.85294 0.90532 0.78949 0.0
C1737 C 0.83755 0.9202 0.77615 0.0
C1738 C 0.84609 0.93132 0.75554 0.0
H1739 H 0.92025 0.98112 0.75301 0.0
H1740 H 0.90285 0.95787 0.76729 0.0
H1741 H 0.92889 0.95059 0.74955 0.0
H1742 H 0.90441 0.91019 0.75517 0.0
H1743 H 0.88939 0.89026 0.79138 0.0
H1744 H 0.8368 0.07216 0.53964 0.0
H1745 H 0.81017 0.07763 0.50489 0.0
H1746 H 0.80722 0.15275 0.51979 0.0
H1747 H 0.83569 0.14749 0.55327 0.0
H1748 H 0.76682 0.09049 0.49965 0.0
H1749 H 0.82311 0.15695 0.45162 0.0
H1750 H 0.83427 0.14177 0.47775 0.0
H1751 H 0.81506 0.16749 0.48072 0.0
C1752 C 0.83059 0.08984 0.5353 0.0
C1753 C 0.83841 0.10946 0.54881 0.0
C1754 C 0.81537 0.09299 0.51548 0.0
C1755 C 0.8072 0.11573 0.50922 0.0
C1756 C 0.81414 0.1352 0.52351 0.0
H1757 H 0.70007 0.16898 0.41042 0.0
H1758 H 0.73207 0.16328 0.44055 0.0
C1759 C 0.83016 0.13217 0.54278 0.0
C1760 C 0.79086 0.11878 0.48818 0.0
H1761 H 0.78176 0.15188 0.43782 0.0
C1762 C 0.77035 0.10369 0.48597 0.0
C1763 C 0.79548 0.13592 0.47017 0.0
C1764 C 0.81833 0.15124 0.47004 0.0
C1765 C 0.75412 0.10553 0.46662 0.0
C1766 C 0.75809 0.12339 0.4493 0.0
C1767 C 0.77864 0.13838 0.45132 0.0
C1768 C 0.74047 0.12743 0.42958 0.0
C1769 C 0.73264 0.08855 0.46524 0.0
C1770 C 0.73524 0.10949 0.41289 0.0
C1771 C 0.71708 0.11275 0.3956 0.0
C1772 C 0.70391 0.13405 0.39465 0.0
C1773 C 0.70971 0.15227 0.41091 0.0
C1774 C 0.72805 0.14908 0.42804 0.0
H1775 H 0.7371 0.07396 0.45271 0.0
H1776 H 0.72858 0.0805 0.48291 0.0
H1777 H 0.71599 0.09749 0.45845 0.0
H1778 H 0.74498 0.09285 0.41347 0.0
H1779 H 0.71307 0.09842 0.38324 0.0
H1780 H 0.63106 0.94818 0.14713 0.0
H1781 H 0.64405 0.98421 0.16847 0.0
H1782 H 0.56961 0.00946 0.16698 0.0
H1783 H 0.55637 0.97304 0.14692 0.0
H1784 H 0.64232 0.03161 0.1606 0.0
H1785 H 0.58145 0.00921 0.23715 0.0
H1786 H 0.58836 0.98803 0.21394 0.0
H1787 H 0.56635 0.01109 0.20886 0.0
C1788 C 0.61754 0.96149 0.15135 0.0
C1789 C 0.59265 0.95763 0.14599 0.0
C1790 C 0.62495 0.98205 0.16346 0.0
C1791 C 0.60762 -0.0009 0.17006 0.0
C1792 C 0.5831 0.99608 0.16297 0.0
H1793 H 0.62286 0.11615 0.27131 0.0
H1794 H 0.60832 0.09317 0.23683 0.0
C1795 C 0.57559 0.97533 0.15141 0.0
C1796 C 0.61493 0.01932 0.18547 0.0
H1797 H 0.60431 0.0443 0.23997 0.0
C1798 C 0.63394 0.03448 0.17791 0.0
C1799 C 0.6039 0.02307 0.20802 0.0
C1800 C 0.58405 0.00688 0.21763 0.0
C1801 C 0.64241 0.05315 0.19245 0.0
C1802 C 0.63174 0.0565 0.21517 0.0
C1803 C 0.61231 0.04177 0.22244 0.0
C1804 C 0.6419 0.07344 0.23283 0.0
C1805 C 0.66277 0.06904 0.18345 0.0
C1806 C 0.6657 0.07019 0.24167 0.0
C1807 C 0.67397 0.08307 0.26144 0.0
C1808 C 0.65853 0.09941 0.27281 0.0
C1809 C 0.63517 0.10362 0.26305 0.0
C1810 C 0.62685 0.09058 0.24332 0.0
H1811 H 0.66348 0.06913 0.1636 0.0
H1812 H 0.66054 0.08754 0.18988 0.0
H1813 H 0.68059 0.06237 0.19017 0.0
H1814 H 0.67741 0.05669 0.23417 0.0
H1815 H 0.69211 0.07942 0.26838 0.0
H1816 H 0.65636 0.91571 0.05025 0.0
H1817 H 0.68884 0.91573 0.01999 0.0
H1818 H 0.68859 0.83922 0.02036 0.0
H1819 H 0.65676 0.83904 0.05075 0.0
H1820 H 0.73453 0.85768 0.0213 0.0
H1821 H 0.68001 0.90018 0.94933 0.0
H1822 H 0.68243 0.91692 0.97659 0.0
H1823 H 0.66626 0.88899 0.97641 0.0
C1824 C 0.6632 0.89892 0.04379 0.0
C1825 C 0.65381 0.87738 0.05271 0.0
C1826 C 0.68164 0.89896 0.02643 0.0
C1827 C 0.6907 0.87746 0.01752 0.0
C1828 C 0.68171 0.85601 0.02682 0.0
H1829 H 0.79879 0.82683 0.91697 0.0
H1830 H 0.76721 0.83117 0.94741 0.0
C1831 C 0.66347 0.85595 0.0442 0.0
C1832 C 0.70976 0.87696 -0.00129 0.0
H1833 H 0.72113 0.89121 0.94048 0.0
C1834 C 0.7317 0.86519 0.00369 0.0
C1835 C 0.70593 0.88661 0.97569 0.0
C1836 C 0.68232 0.89872 0.96902 0.0
C1837 C 0.75008 0.86294 0.98645 0.0
C1838 C 0.74614 0.87212 0.96316 0.0
C1839 C 0.72422 0.88415 0.95825 0.0
C1840 C 0.76433 0.86928 0.94362 0.0
C1841 C 0.77349 0.85089 0.99382 0.0
C1842 C 0.77222 0.889 0.93022 0.0
C1843 C 0.78994 0.88646 0.91242 0.0
C1844 C 0.80004 0.86415 0.90767 0.0
C1845 C 0.79162 0.84433 0.92054 0.0
C1846 C 0.77366 0.84681 0.93805 0.0
H1847 H 0.77812 0.85499 0.01276 0.0
H1848 H 0.77088 0.83139 0.99238 0.0
H1849 H 0.78918 0.8562 0.98251 0.0
H1850 H 0.76492 0.90646 0.93366 0.0
H1851 H 0.79604 0.90203 0.9027 0.0
H1852 H 0.95543 0.81737 0.92785 0.0
H1853 H 0.99057 0.79478 0.91473 0.0
H1854 H 0.98844 0.82967 0.84622 0.0
H1855 H 0.95257 0.85242 0.85913 0.0
H1856 H 0.99647 0.77991 0.84377 0.0
H1857 H 0.05991 0.82269 0.90811 0.0
H1858 H 0.03271 0.812 0.92262 0.0
H1859 H 0.03047 0.83509 0.9005 0.0
C1860 C 0.96231 0.82039 0.90996 0.0
C1861 C 0.9513 0.83701 0.89466 0.0
C1862 C 0.98253 0.80748 0.90254 0.0
C1863 C 0.99251 0.81103 0.87977 0.0
C1864 C 0.98119 0.82696 0.86402 0.0
H1865 H 0.11074 0.7138 0.83351 0.0
H1866 H 0.08399 0.74845 0.83103 0.0
C1867 C 0.96075 0.83995 0.87144 0.0
C1868 C 0.01472 0.79778 0.87291 0.0
H1869 H 0.07119 0.78345 0.89458 0.0
C1870 C 0.01312 0.78103 0.85439 0.0
C1871 C 0.03656 0.79962 0.88653 0.0
C1872 C 0.04014 0.81853 0.90537 0.0
C1873 C 0.03201 0.76463 0.85061 0.0
C1874 C 0.05268 0.76489 0.86598 0.0
C1875 C 0.0551 0.78295 0.88312 0.0
C1876 C 0.07004 0.74482 0.86706 0.0
C1877 C 0.02904 0.74624 0.83126 0.0
C1878 C 0.07188 0.73189 0.88838 0.0
C1879 C 0.08756 0.7126 0.89004 0.0
C1880 C 0.1015 0.70553 0.87027 0.0
C1881 C 0.09989 0.71859 0.84892 0.0
C1882 C 0.08449 0.7383 0.84742 0.0
H1883 H 0.01124 0.74781 0.8219 0.0
H1884 H 0.04363 0.7486 0.8177 0.0
H1885 H 0.0307 0.72815 0.83891 0.0
H1886 H 0.06092 0.73658 0.90377 0.0
H1887 H 0.08849 0.70307 0.90681 0.0
H1888 H 0.48255 0.64453 0.08449 0.0
H1889 H 0.51726 0.67036 0.09467 0.0
H1890 H 0.48175 0.68973 0.16062 0.0
H1891 H 0.44738 0.6628 0.15087 0.0
H1892 H 0.51036 0.71717 0.09863 0.0
H1893 H 0.553 0.6834 0.18202 0.0
H1894 H 0.5327 0.66548 0.1637 0.0
H1895 H 0.5204 0.68739 0.18358 0.0
C1896 C 0.4826 0.65373 0.10151 0.0
C1897 C 0.46259 0.65171 0.11702 0.0
C1898 C 0.50235 0.66847 0.1073 0.0
C1899 C 0.5022 0.6818 0.12849 0.0
C1900 C 0.48256 0.67912 0.1445 0.0
H1901 H 0.58258 0.80542 0.17547 0.0
H1902 H 0.55834 0.76882 0.17299 0.0
C1903 C 0.46293 0.66388 0.13891 0.0
C1904 C 0.52083 0.70075 0.13181 0.0
H1905 H 0.5657 0.72188 0.16907 0.0
C1906 C 0.52268 0.71802 0.1139 0.0
C1907 C 0.5366 0.70195 0.15189 0.0
C1908 C 0.53579 0.68346 0.17133 0.0
C1909 C 0.5397 0.73664 0.1155 0.0
C1910 C 0.55555 0.73798 0.13559 0.0
C1911 C 0.55368 0.72072 0.15361 0.0
C1912 C 0.57295 0.75809 0.13874 0.0
C1913 C 0.53973 0.7551 0.09597 0.0
C1914 C 0.58994 0.76373 0.12081 0.0
C1915 C 0.60344 0.78483 0.12196 0.0
C1916 C 0.6008 0.80033 0.14145 0.0
C1917 C 0.58486 0.79396 0.1601 0.0
C1918 C 0.57115 0.77294 0.1588 0.0
H1919 H 0.52175 0.75575 0.0866 0.0
H1920 H 0.54405 0.77299 0.10313 0.0
H1921 H 0.55383 0.7505 0.08253 0.0
H1922 H 0.59207 0.75224 0.10545 0.0
H1923 H 0.61547 0.78916 0.10725 0.0
H1924 H 0.03137 0.3662 0.65544 0.0
H1925 H -0.00038 0.33587 0.66089 0.0
H1926 H 0.03015 0.29528 0.60296 0.0
H1927 H 0.06144 0.32575 0.59692 0.0
H1928 H 0.98113 0.29816 0.5996 0.0
H1929 H 0.0084 0.27165 0.69093 0.0
H1930 H 0.99747 0.30154 0.69029 0.0
H1931 H 0.02503 0.2941 0.6746 0.0
C1932 C 0.03124 0.35089 0.64377 0.0
C1933 C 0.04879 0.34846 0.62563 0.0
C1934 C 0.01322 0.33347 0.64707 0.0
C1935 C 0.01279 0.31314 0.63259 0.0
C1936 C 0.03026 0.31072 0.61445 0.0
H1937 H 0.9387 0.18112 0.66147 0.0
H1938 H 0.9672 0.21465 0.65758 0.0
C1939 C 0.04812 0.3282 0.611 0.0
C1940 C 0.99381 0.29456 0.63588 0.0
H1941 H 0.97031 0.25539 0.67628 0.0
C1942 C 0.97878 0.28869 0.61632 0.0
C1943 C 0.9908 0.28238 0.65776 0.0
C1944 C 0.00647 0.28762 0.67947 0.0
C1945 C 0.9609 0.27075 0.61788 0.0
C1946 C 0.95788 0.25847 0.63979 0.0
C1947 C 0.97274 0.26463 0.65944 0.0
C1948 C 0.94027 0.23846 0.64252 0.0
C1949 C 0.94595 0.26498 0.59579 0.0
C1950 C 0.91553 0.24081 0.63601 0.0
C1951 C 0.89963 0.2213 0.6371 0.0
C1952 C 0.90795 0.19943 0.64569 0.0
C1953 C 0.93212 0.1976 0.65402 0.0
C1954 C 0.9483 0.2168 0.65201 0.0
H1955 H 0.95553 0.27066 0.57922 0.0
H1956 H 0.94186 0.24571 0.59439 0.0
H1957 H 0.92837 0.27468 0.59652 0.0
H1958 H 0.9085 0.25764 0.6299 0.0
H1959 H 0.88078 0.22354 0.63163 0.0
H1960 H 0.04237 0.68729 0.90784 0.0
H1961 H 0.00607 0.70738 0.89362 0.0
H1962 H 0.00205 0.66059 0.83268 0.0
H1963 H 0.03944 0.64056 0.84647 0.0
H1964 H 0.99175 0.70808 0.82146 0.0
H1965 H 0.93694 0.67929 0.89848 0.0
H1966 H 0.96554 0.69142 0.90889 0.0
H1967 H 0.96537 0.66518 0.89042 0.0
C1968 C 0.03403 0.68124 0.8913 0.0
C1969 C 0.04381 0.66214 0.8784 0.0
C1970 C 0.01307 0.69265 0.8833 0.0
C1971 C 0.00091 0.68495 0.86254 0.0
C1972 C 0.01098 0.66652 0.84898 0.0
H1973 H 0.8848 0.78681 0.82176 0.0
H1974 H 0.90785 0.74994 0.81739 0.0
C1975 C 0.03232 0.65514 0.85688 0.0
C1976 C 0.97784 0.69678 0.85555 0.0
H1977 H 0.92648 0.71819 0.88199 0.0
C1978 C 0.97719 0.71013 0.83442 0.0
C1979 C 0.95817 0.69831 0.87182 0.0
C1980 C 0.9564 0.68251 0.89351 0.0
C1981 C 0.95942 0.72779 0.83104 0.0
C1982 C 0.94187 0.73166 0.8492 0.0
C1983 C 0.94052 0.71584 0.86852 0.0
C1984 C 0.92756 0.75385 0.85089 0.0
C1985 C 0.96075 0.74328 0.8091 0.0
C1986 C 0.9303 0.76793 0.87147 0.0
C1987 C 0.91647 0.78832 0.87443 0.0
C1988 C 0.90017 0.79564 0.85652 0.0
C1989 C 0.89761 0.78181 0.83568 0.0
C1990 C 0.91093 0.76084 0.83306 0.0
H1991 H 0.9767 0.73903 0.79764 0.0
H1992 H 0.94397 0.74064 0.79814 0.0
H1993 H 0.96185 0.76227 0.81433 0.0
H1994 H 0.943 0.76295 0.88551 0.0
H1995 H 0.91841 0.79822 0.8909 0.0
H1996 H 0.39399 0.29551 0.33144 0.0
H1997 H 0.42381 0.26347 0.32753 0.0
H1998 H 0.43545 0.26436 0.40384 0.0
H1999 H 0.40629 0.29659 0.40786 0.0
H2000 H 0.47836 0.26423 0.37879 0.0
H2001 H 0.41485 0.19369 0.34522 0.0
H2002 H 0.41572 0.22073 0.32824 0.0
H2003 H 0.40398 0.22096 0.35818 0.0
C2004 C 0.40281 0.28876 0.34738 0.0
C2005 C 0.39774 0.29856 0.36998 0.0
C2006 C 0.41974 0.27038 0.34512 0.0
C2007 C 0.4316 0.26134 0.36543 0.0
C2008 C 0.42645 0.27104 0.38795 0.0
H2009 H 0.51299 0.15156 0.42157 0.0
H2010 H 0.48169 0.17844 0.4063 0.0
C2011 C 0.40968 0.28941 0.39022 0.0
C2012 C 0.44987 0.24215 0.36357 0.0
H2013 H 0.45599 0.18297 0.3518 0.0
C2014 C 0.47359 0.2466 0.37243 0.0
C2015 C 0.44353 0.21908 0.35545 0.0
C2016 C 0.41811 0.21315 0.34638 0.0
C2017 C 0.49078 0.22841 0.37434 0.0
C2018 C 0.48424 0.20529 0.36688 0.0
C2019 C 0.46094 0.2009 0.35711 0.0
C2020 C 0.5002 0.18517 0.37285 0.0
C2021 C 0.51545 0.23363 0.38555 0.0
C2022 C 0.52053 0.17961 0.35865 0.0
C2023 C 0.5383 0.16392 0.36721 0.0
C2024 C 0.53606 0.15419 0.39023 0.0
C2025 C 0.51507 0.15892 0.40379 0.0
C2026 C 0.49716 0.1741 0.39506 0.0
H2027 H 0.51672 0.25199 0.39254 0.0
H2028 H 0.51897 0.22128 0.40059 0.0
H2029 H 0.53005 0.23091 0.37208 0.0
H2030 H 0.52324 0.18829 0.34159 0.0
H2031 H 0.55449 0.16066 0.35659 0.0
H2032 H 0.95028 0.14609 0.63819 0.0
H2033 H 0.98403 0.17306 0.6498 0.0
H2034 H 0.00897 0.1745 0.57676 0.0
H2035 H 0.97467 0.14894 0.56493 0.0
H2036 H 0.03363 0.17834 0.64737 0.0
H2037 H 0.99083 0.24219 0.58459 0.0
H2038 H 0.97528 0.21535 0.59409 0.0
H2039 H 0.99837 0.21455 0.57115 0.0
C2040 C 0.96318 0.15204 0.62475 0.0
C2041 C 0.95943 0.14632 0.60058 0.0
C2042 C 0.9824 0.16739 0.63136 0.0
C2043 C 0.99811 0.17681 0.61387 0.0
C2044 C 0.99624 0.16844 0.59031 0.0
H2045 H 0.10657 0.28642 0.59975 0.0
H2046 H 0.07983 0.25156 0.59636 0.0
C2047 C 0.97676 0.15373 0.5836 0.0
C2048 C 0.01465 0.19708 0.61944 0.0
H2049 H 0.02848 0.2534 0.60151 0.0
C2050 C 0.03245 0.19483 0.63749 0.0
C2051 C 0.01281 0.21874 0.60676 0.0
C2052 C 0.99312 0.223 0.58826 0.0
C2053 C 0.04919 0.21336 0.64239 0.0
C2054 C 0.0478 0.23459 0.62904 0.0
C2055 C 0.02959 0.23703 0.61156 0.0
C2056 C 0.06538 0.25446 0.6322 0.0
C2057 C 0.06867 0.20989 0.66124 0.0
C2058 C 0.06596 0.26766 0.65344 0.0
C2059 C 0.08097 0.28783 0.65532 0.0
C2060 C 0.09588 0.29483 0.63607 0.0
C2061 C 0.09549 0.28133 0.61496 0.0
C2062 C 0.08024 0.26142 0.613 0.0
H2063 H 0.07031 0.19098 0.66653 0.0
H2064 H 0.08676 0.21635 0.65477 0.0
H2065 H 0.06389 0.22032 0.67737 0.0
H2066 H 0.05442 0.26265 0.66834 0.0
H2067 H 0.08087 0.29793 0.6718 0.0
H2068 H 0.40154 0.6979 0.16765 0.0
H2069 H 0.42776 0.73286 0.16285 0.0
H2070 H 0.42998 0.72058 0.08664 0.0
H2071 H 0.40191 0.68676 0.0913 0.0
H2072 H 0.47106 0.73756 0.14977 0.0
H2073 H 0.41601 0.78865 0.08497 0.0
H2074 H 0.40422 0.76234 0.09931 0.0
H2075 H 0.42335 0.76006 0.07318 0.0
C2076 C 0.40743 0.70289 0.14986 0.0
C2077 C 0.3997 0.68986 0.12981 0.0
C2078 C 0.42243 0.72283 0.14711 0.0
C2079 C 0.43048 0.72976 0.1243 0.0
C2080 C 0.42327 0.71624 0.1043 0.0
H2081 H 0.54156 0.82577 0.07402 0.0
H2082 H 0.50737 0.79773 0.0784 0.0
C2083 C 0.4075 0.69677 0.10698 0.0
C2084 C 0.44731 0.75043 0.12183 0.0
H2085 H 0.4578 0.80132 0.09021 0.0
C2086 C 0.46789 0.75165 0.13695 0.0
C2087 C 0.44318 0.76897 0.10525 0.0
C2088 C 0.42034 0.77008 0.08998 0.0
C2089 C 0.48458 0.7706 0.13577 0.0
C2090 C 0.48111 0.78848 0.11839 0.0
C2091 C 0.46053 0.78741 0.10331 0.0
C2092 C 0.49934 0.80773 0.11488 0.0
C2093 C 0.50579 0.77116 0.15312 0.0
C2094 C 0.50534 0.82338 0.13356 0.0
C2095 C 0.52475 0.83948 0.13106 0.0
C2096 C 0.53839 0.84022 0.10981 0.0
C2097 C 0.53159 0.82533 0.09072 0.0
C2098 C 0.51197 0.80944 0.09315 0.0
H2099 H 0.50963 0.75331 0.16056 0.0
H2100 H 0.52258 0.77819 0.1445 0.0
H2101 H 0.50124 0.78301 0.16828 0.0
H2102 H 0.49541 0.82271 0.15029 0.0
H2103 H 0.52948 0.85089 0.14601 0.0
H2104 H 0.67154 0.42305 0.80051 0.0
H2105 H 0.66539 0.45021 0.76725 0.0
H2106 H 0.58961 0.42822 0.76222 0.0
H2107 H 0.59583 0.40031 0.7952 0.0
H2108 H 0.64861 0.44228 0.71995 0.0
H2109 H 0.5885 0.50086 0.77254 0.0
H2110 H 0.60101 0.47395 0.78464 0.0
H2111 H 0.57406 0.47275 0.76621 0.0
C2112 C 0.65359 0.42388 0.79239 0.0
C2113 C 0.63418 0.40954 0.80056 0.0
C2114 C 0.65009 0.43945 0.77334 0.0
C2115 C 0.62696 0.44151 0.76258 0.0
C2116 C 0.60756 0.42704 0.77047 0.0
H2117 H 0.57489 0.54727 0.6621 0.0
H2118 H 0.57809 0.51343 0.68891 0.0
C2119 C 0.61116 0.41111 0.78927 0.0
C2120 C 0.62315 0.45932 0.74356 0.0
H2121 H 0.594 0.51115 0.73146 0.0
C2122 C 0.63658 0.45731 0.72234 0.0
C2123 C 0.60723 0.47872 0.74665 0.0
C2124 C 0.59202 0.48183 0.76885 0.0
C2125 C 0.63458 0.47426 0.70409 0.0
C2126 C 0.61945 0.49423 0.70764 0.0
C2127 C 0.6057 0.49594 0.72872 0.0
C2128 C 0.61781 0.51388 0.69011 0.0
C2129 C 0.64836 0.47025 0.68112 0.0
C2130 C 0.63903 0.52548 0.68177 0.0
C2131 C 0.63718 0.54462 0.66607 0.0
C2132 C 0.61409 0.55305 0.65917 0.0
C2133 C 0.5929 0.54155 0.66756 0.0
C2134 C 0.59474 0.52207 0.68278 0.0
H2135 H 0.65146 0.45105 0.67796 0.0
H2136 H 0.63838 0.47758 0.6655 0.0
H2137 H 0.66661 0.47903 0.68238 0.0
H2138 H 0.65704 0.52006 0.68769 0.0
H2139 H 0.65381 0.5533 0.65991 0.0
H2140 H 0.85768 0.32247 0.05167 0.0
H2141 H 0.83011 0.31417 0.01776 0.0
H2142 H 0.82512 0.38914 0.00358 0.0
H2143 H 0.85264 0.39758 0.03687 0.0
H2144 H 0.78169 0.33067 0.01034 0.0
H2145 H 0.84352 0.36077 0.9384 0.0
H2146 H 0.85441 0.35355 0.96803 0.0
H2147 H 0.8417 0.38229 0.96196 0.0
C2148 C 0.85095 0.33714 0.04109 0.0
C2149 C 0.85763 0.36066 0.04674 0.0
C2150 C 0.83518 0.33236 0.02182 0.0
C2151 C 0.82608 0.35102 0.00791 0.0
C2152 C 0.8325 0.37446 0.01372 0.0
H2153 H 0.73276 0.40077 0.90269 0.0
H2154 H 0.76363 0.39033 0.93229 0.0
C2155 C 0.84821 0.37924 0.03282 0.0
C2156 C 0.80906 0.3466 0.98775 0.0
H2157 H 0.80021 0.36206 0.92957 0.0
C2158 C 0.78574 0.33713 0.99253 0.0
C2159 C 0.81471 0.35445 0.96444 0.0
C2160 C 0.84006 0.36308 0.95782 0.0
C2161 C 0.76706 0.33755 0.97517 0.0
C2162 C 0.77205 0.34766 0.95249 0.0
C2163 C 0.79611 0.35499 0.94716 0.0
C2164 C 0.75247 0.35341 0.93493 0.0
C2165 C 0.74199 0.32827 0.98183 0.0
C2166 C 0.73574 0.33621 0.92648 0.0
C2167 C 0.71758 0.34237 0.90992 0.0
C2168 C 0.71641 0.36563 0.90098 0.0
C2169 C 0.73323 0.38271 0.90929 0.0
C2170 C 0.75098 0.37669 0.92612 0.0
H2171 H 0.72747 0.34009 0.97498 0.0
H2172 H 0.73922 0.31046 0.97375 0.0
H2173 H 0.73987 0.32636 0.00147 0.0
H2174 H 0.73696 0.31796 0.93229 0.0
H2175 H 0.70508 0.32875 0.90344 0.0
H2176 H 0.89961 0.60933 0.28501 0.0
H2177 H 0.90484 0.58186 0.25145 0.0
H2178 H 0.83856 0.54482 0.27142 0.0
H2179 H 0.83332 0.57182 0.30518 0.0
H2180 H 0.90163 0.52457 0.25893 0.0
H2181 H 0.8375 0.5673 0.19473 0.0
H2182 H 0.85416 0.58418 0.21711 0.0
H2183 H 0.82905 0.56544 0.22583 0.0
C2184 C 0.88604 0.59545 0.28218 0.0
C2185 C 0.86584 0.59299 0.29757 0.0
C2186 C 0.88909 0.5798 0.26304 0.0
C2187 C 0.8719 0.56162 0.25892 0.0
C2188 C 0.85177 0.55904 0.2742 0.0
H2189 H 0.84702 0.45597 0.14951 0.0
H2190 H 0.84383 0.48759 0.17933 0.0
C2191 C 0.84877 0.57457 0.2934 0.0
C2192 C 0.87531 0.54475 0.23908 0.0
H2193 H 0.8553 0.53129 0.18286 0.0
C2194 C 0.89143 0.52586 0.24236 0.0
C2195 C 0.86211 0.54678 0.21748 0.0
C2196 C 0.84474 0.56702 0.21333 0.0
C2197 C 0.89414 0.5083 0.22484 0.0
C2198 C 0.8811 0.51035 0.20293 0.0
C2199 C 0.86527 0.52963 0.19958 0.0
C2200 C 0.88311 0.49241 0.18358 0.0
C2201 C 0.91035 0.48746 0.23051 0.0
C2202 C 0.90613 0.48521 0.17525 0.0
C2203 C 0.90793 0.4666 0.15892 0.0
C2204 C 0.88671 0.45552 0.14986 0.0
C2205 C 0.86366 0.46412 0.15645 0.0
C2206 C 0.86185 0.48219 0.17347 0.0
H2207 H 0.9126 0.48508 0.25008 0.0
H2208 H 0.90291 0.47074 0.22278 0.0
H2209 H 0.92888 0.49074 0.22304 0.0
H2210 H 0.92278 0.49371 0.18165 0.0
H2211 H 0.92592 0.46102 0.15331 0.0
H2212 H 0.75046 0.63638 0.37043 0.0
H2213 H 0.72004 0.63993 0.40211 0.0
H2214 H 0.77793 0.6412 0.4548 0.0
H2215 H 0.80854 0.63899 0.42298 0.0
H2216 H 0.71059 0.60889 0.43261 0.0
H2217 H 0.7363 0.68866 0.48453 0.0
H2218 H 0.74963 0.68248 0.45575 0.0
H2219 H 0.76186 0.66911 0.48251 0.0
C2220 C 0.75669 0.63793 0.38879 0.0
C2221 C 0.78181 0.63729 0.39437 0.0
C2222 C 0.73931 0.63999 0.40688 0.0
C2223 C 0.74666 0.64096 0.43097 0.0
C2224 C 0.77183 0.6411 0.43644 0.0
H2225 H 0.66821 0.5763 0.54531 0.0
H2226 H 0.69292 0.58709 0.51091 0.0
C2227 C 0.78929 0.63962 0.41827 0.0
C2228 C 0.72808 0.63869 0.45021 0.0
H2229 H 0.71188 0.65917 0.50536 0.0
C2230 C 0.71066 0.62026 0.44827 0.0
C2231 C 0.72786 0.65352 0.47068 0.0
C2232 C 0.74478 0.67469 0.47334 0.0
C2233 C 0.69372 0.61569 0.46645 0.0
C2234 C 0.69475 0.62934 0.48765 0.0
C2235 C 0.71134 0.64848 0.48924 0.0
C2236 C 0.6797 0.62314 0.50876 0.0
C2237 C 0.67492 0.5962 0.46266 0.0
C2238 C 0.66445 0.64 0.51947 0.0
C2239 C 0.65017 0.63383 0.53928 0.0
C2240 C 0.6511 0.61075 0.54875 0.0
C2241 C 0.6668 0.59413 0.53828 0.0
C2242 C 0.68093 0.60027 0.51853 0.0
H2243 H 0.67078 0.59369 0.44335 0.0
H2244 H 0.68234 0.57924 0.46951 0.0
H2245 H 0.65753 0.60001 0.47212 0.0
H2246 H 0.6634 0.65782 0.51235 0.0
H2247 H 0.63845 0.6471 0.54715 0.0
H2248 H 0.6646 0.44653 0.85785 0.0
H2249 H 0.67153 0.48176 0.83292 0.0
H2250 H 0.59326 0.48934 0.82441 0.0
H2251 H 0.58649 0.45478 0.84927 0.0
H2252 H 0.6618 0.48681 0.78865 0.0
H2253 H 0.61029 0.55628 0.83479 0.0
H2254 H 0.61668 0.52819 0.84879 0.0
H2255 H 0.59017 0.53154 0.82967 0.0
C2256 C 0.64895 0.456 0.85082 0.0
C2257 C 0.62501 0.44769 0.85505 0.0
C2258 C 0.6529 0.47609 0.83664 0.0
C2259 C 0.63293 0.48843 0.82689 0.0
C2260 C 0.60902 0.4805 0.83195 0.0
H2261 H 0.59753 0.58274 0.71247 0.0
H2262 H 0.59886 0.55538 0.74654 0.0
C2263 C 0.60512 0.46032 0.84579 0.0
C2264 C 0.63682 0.5078 0.80929 0.0
H2265 H 0.61504 0.56166 0.79182 0.0
C2266 C 0.65175 0.50325 0.78945 0.0
C2267 C 0.62415 0.52956 0.81054 0.0
C2268 C 0.60968 0.53673 0.83227 0.0
C2269 C 0.65292 0.51892 0.77005 0.0
C2270 C 0.63909 0.54004 0.7707 0.0
C2271 C 0.62519 0.54522 0.79108 0.0
C2272 C 0.6384 0.55681 0.75032 0.0
C2273 C 0.66825 0.51213 0.74875 0.0
C2274 C 0.66009 0.56697 0.7414 0.0
C2275 C 0.65935 0.58222 0.72178 0.0
C2276 C 0.63686 0.58803 0.71112 0.0
C2277 C 0.61507 0.57855 0.72051 0.0
C2278 C 0.61584 0.56293 0.73988 0.0
H2279 H 0.67106 0.49266 0.7478 0.0
H2280 H 0.65975 0.51802 0.73178 0.0
H2281 H 0.68657 0.52072 0.75036 0.0
H2282 H 0.67762 0.56313 0.74963 0.0
H2283 H 0.67634 0.58981 0.7153 0.0
H2284 H 0.79013 0.41345 0.09961 0.0
H2285 H 0.76068 0.40887 0.06704 0.0
H2286 H 0.78654 0.33802 0.05387 0.0
H2287 H 0.81654 0.34257 0.08661 0.0
H2288 H 0.77021 0.39426 0.01581 0.0
H2289 H 0.70911 0.33405 0.06829 0.0
H2290 H 0.73128 0.35318 0.08296 0.0
H2291 H 0.74146 0.32799 0.06629 0.0
C2292 C 0.78975 0.39693 0.08969 0.0
C2293 C 0.80548 0.37828 0.09578 0.0
C2294 C 0.77296 0.39438 0.07105 0.0
C2295 C 0.77132 0.37307 0.05826 0.0
C2296 C 0.78749 0.35457 0.06367 0.0
H2297 H 0.65008 0.35043 0.95589 0.0
H2298 H 0.68414 0.34219 0.98331 0.0
C2299 C 0.80462 0.35722 0.08227 0.0
C2300 C 0.75181 0.37048 0.04002 0.0
H2301 H 0.69293 0.35035 0.03298 0.0
C2302 C 0.75345 0.38436 0.01933 0.0
C2303 C 0.73008 0.35744 0.04468 0.0
C2304 C 0.72763 0.3423 0.06675 0.0
C2305 C 0.73348 0.3864 0.00365 0.0
C2306 C 0.71116 0.37459 0.00908 0.0
C2307 C 0.70996 0.35962 0.02906 0.0
C2308 C 0.68867 0.37867 0.99476 0.0
C2309 C 0.73637 0.4016 0.98166 0.0
C2310 C 0.67908 0.40159 0.99319 0.0
C2311 C 0.65953 0.40629 0.97782 0.0
C2312 C 0.64913 0.38812 0.96371 0.0
C2313 C 0.65775 0.36483 0.96644 0.0
C2314 C 0.67731 0.36012 0.98198 0.0
H2315 H 0.73035 0.41989 0.9858 0.0
H2316 H 0.75584 0.40258 0.97592 0.0
H2317 H 0.72504 0.39473 0.9666 0.0
H2318 H 0.68721 0.41604 0.00336 0.0
H2319 H 0.65319 0.42438 0.97637 0.0
H2320 H 0.84845 0.52886 0.37361 0.0
H2321 H 0.84728 0.49165 0.35068 0.0
H2322 H 0.8974 0.52204 0.2995 0.0
H2323 H 0.89866 0.55873 0.3219 0.0
H2324 H 0.83292 0.4819 0.30615 0.0
H2325 H 0.93102 0.4611 0.31353 0.0
H2326 H 0.91695 0.48358 0.33179 0.0
H2327 H 0.92778 0.49058 0.30215 0.0
C2328 C 0.85916 0.52753 0.35741 0.0
C2329 C 0.87393 0.5466 0.34974 0.0
C2330 C 0.85856 0.50627 0.34443 0.0
C2331 C 0.87281 0.50387 0.32372 0.0
C2332 C 0.88687 0.5232 0.31576 0.0
H2333 H 0.85145 0.43557 0.19388 0.0
H2334 H 0.84962 0.45753 0.23106 0.0
C2335 C 0.88752 0.54426 0.32864 0.0
C2336 C 0.87231 0.48181 0.30939 0.0
H2337 H 0.9102 0.44586 0.27781 0.0
C2338 C 0.84976 0.47362 0.30035 0.0
C2339 C 0.89417 0.47042 0.30245 0.0
C2340 C 0.91878 0.47675 0.31326 0.0
C2341 C 0.84873 0.45582 0.28285 0.0
C2342 C 0.87088 0.4467 0.27359 0.0
C2343 C 0.8932 0.45321 0.2844 0.0
C2344 C 0.87157 0.43262 0.25121 0.0
C2345 C 0.82389 0.44739 0.27421 0.0
C2346 C 0.88573 0.41197 0.24959 0.0
C2347 C 0.88774 0.39993 0.2278 0.0
C2348 C 0.87542 0.40824 0.2074 0.0
C2349 C 0.86126 0.4288 0.20916 0.0
C2350 C 0.85972 0.44109 0.23067 0.0
H2351 H 0.81033 0.44777 0.28898 0.0
H2352 H 0.8172 0.45953 0.26006 0.0
H2353 H 0.82456 0.42909 0.26689 0.0
H2354 H 0.8953 0.40523 0.26513 0.0
H2355 H 0.8987 0.38403 0.22703 0.0
H2356 H 0.84626 0.57316 0.47614 0.0
H2357 H 0.81349 0.58359 0.50356 0.0
H2358 H 0.81586 0.65582 0.47828 0.0
H2359 H 0.84917 0.64561 0.45099 0.0
H2360 H 0.80608 0.65447 0.52508 0.0
H2361 H 0.74472 0.59073 0.4793 0.0
H2362 H 0.77109 0.57563 0.49053 0.0
H2363 H 0.77471 0.59803 0.46781 0.0
C2364 C 0.84007 0.59135 0.47658 0.0
C2365 C 0.84992 0.60842 0.46096 0.0
C2366 C 0.82115 0.59725 0.49212 0.0
C2367 C 0.81143 0.62021 0.49214 0.0
C2368 C 0.8227 0.63784 0.47816 0.0
H2369 H 0.68681 0.65852 0.58719 0.0
H2370 H 0.71368 0.66193 0.55195 0.0
C2371 C 0.84177 0.63198 0.4626 0.0
C2372 C 0.78908 0.62529 0.50624 0.0
H2373 H 0.73314 0.60164 0.51968 0.0
C2374 C 0.78979 0.64339 0.5235 0.0
C2375 C 0.76757 0.6112 0.50378 0.0
C2376 C 0.76438 0.59304 0.48413 0.0
C2377 C 0.77041 0.64634 0.53972 0.0
C2378 C 0.75001 0.63071 0.53862 0.0
C2379 C 0.74868 0.61369 0.52041 0.0
C2380 C 0.73227 0.62879 0.55849 0.0
C2381 C 0.7726 0.66493 0.55903 0.0
C2382 C 0.73335 0.60877 0.57319 0.0
C2383 C 0.7183 0.60684 0.59311 0.0
C2384 C 0.70164 0.62485 0.59879 0.0
C2385 C 0.69965 0.64448 0.58339 0.0
C2386 C 0.71502 0.6465 0.56338 0.0
H2387 H 0.79027 0.67486 0.55817 0.0
H2388 H 0.75739 0.67774 0.5572 0.0
H2389 H 0.771 0.65651 0.5769 0.0
H2390 H 0.74638 0.59482 0.5696 0.0
H2391 H 0.72005 0.59126 0.60429 0.0
H2392 H 0.53445 0.65085 0.57943 0.0
H2393 H 0.50014 0.67844 0.57434 0.0
H2394 H 0.50037 0.69159 0.6504 0.0
H2395 H 0.53371 0.66353 0.65548 0.0
H2396 H 0.45575 0.67874 0.63471 0.0
H2397 H 0.49278 0.74853 0.57402 0.0
H2398 H 0.4901 0.71911 0.56198 0.0
H2399 H 0.51186 0.72505 0.58529 0.0
C2400 C 0.52747 0.66018 0.59487 0.0
C2401 C 0.5365 0.65516 0.61784 0.0
C2402 C 0.50791 0.6759 0.59198 0.0
C2403 C 0.49765 0.68713 0.612 0.0
C2404 C 0.50785 0.68306 0.63471 0.0
H2405 H 0.40326 0.78089 0.67618 0.0
H2406 H 0.42709 0.74739 0.66275 0.0
C2407 C 0.52695 0.66714 0.63762 0.0
C2408 C 0.4752 0.7017 0.61032 0.0
H2409 H 0.45402 0.75501 0.59098 0.0
C2410 C 0.45536 0.6954 0.62502 0.0
C2411 C 0.47389 0.7227 0.59659 0.0
C2412 C 0.49331 0.72939 0.57864 0.0
C2413 C 0.4355 0.71059 0.62823 0.0
C2414 C 0.4359 0.73313 0.61718 0.0
C2415 C 0.45427 0.73823 0.60033 0.0
C2416 C 0.41945 0.75249 0.62502 0.0
C2417 C 0.41452 0.70233 0.64375 0.0
C2418 C 0.40754 0.76707 0.60837 0.0
C2419 C 0.39401 0.78659 0.61609 0.0
C2420 C 0.3923 0.79195 0.6406 0.0
C2421 C 0.40402 0.77719 0.65719 0.0
C2422 C 0.41747 0.75778 0.64949 0.0
H2423 H 0.41131 0.68295 0.64153 0.0
H2424 H 0.41929 0.70542 0.66282 0.0
H2425 H 0.39725 0.71172 0.63949 0.0
H2426 H 0.40892 0.76351 0.58939 0.0
H2427 H 0.38522 0.79762 0.60284 0.0
H2428 H 0.40179 0.59362 0.20587 0.0
H2429 H 0.40416 0.56363 0.23699 0.0
H2430 H 0.32625 0.55081 0.23067 0.0
H2431 H 0.32395 0.58025 0.19851 0.0
H2432 H 0.38559 0.55843 0.27913 0.0
H2433 H 0.35069 0.48505 0.22202 0.0
H2434 H 0.35725 0.51409 0.21011 0.0
H2435 H 0.32876 0.50828 0.22525 0.0
C2436 C 0.38512 0.5844 0.21104 0.0
C2437 C 0.36278 0.58882 0.19934 0.0
C2438 C 0.3865 0.56733 0.22895 0.0
C2439 C 0.36554 0.55445 0.23569 0.0
C2440 C 0.34284 0.55991 0.22512 0.0
H2441 H 0.34102 0.44544 0.34133 0.0
H2442 H 0.33757 0.47649 0.31123 0.0
C2443 C 0.34149 0.57689 0.20695 0.0
C2444 C 0.36778 0.53524 0.25362 0.0
H2445 H 0.3558 0.47664 0.26335 0.0
C2446 C 0.37929 0.54046 0.27556 0.0
C2447 C 0.35968 0.51175 0.24892 0.0
C2448 C 0.34866 0.50439 0.22521 0.0
C2449 C 0.38264 0.52292 0.293 0.0
C2450 C 0.3742 0.49962 0.28838 0.0
C2451 C 0.36248 0.49445 0.26664 0.0
C2452 C 0.37668 0.48045 0.30618 0.0
C2453 C 0.39467 0.52954 0.31644 0.0
C2454 C 0.39986 0.47212 0.31295 0.0
C2455 C 0.40194 0.45419 0.33008 0.0
C2456 C 0.38083 0.44436 0.34066 0.0
C2457 C 0.35766 0.45263 0.33357 0.0
C2458 C 0.35561 0.47038 0.31637 0.0
H2459 H 0.39561 0.54907 0.31906 0.0
H2460 H 0.38458 0.5215 0.33166 0.0
H2461 H 0.41366 0.52263 0.31675 0.0
H2462 H 0.41631 0.47947 0.30494 0.0
H2463 H 0.42002 0.44807 0.33503 0.0
H2464 H 0.28862 0.59355 0.10042 0.0
H2465 H 0.2527 0.57851 0.07817 0.0
H2466 H 0.23335 0.65037 0.06002 0.0
H2467 H 0.2686 0.66521 0.08195 0.0
H2468 H 0.1935 0.62537 0.06587 0.0
H2469 H 0.25097 0.56167 0.03746 0.0
H2470 H 0.26718 0.58916 0.0339 0.0
H2471 H 0.25627 0.57336 0.00801 0.0
C2472 C 0.27645 0.60605 0.09185 0.0
C2473 C 0.28173 0.6305 0.09237 0.0
C2474 C 0.25602 0.59745 0.07907 0.0
C2475 C 0.24082 0.61322 0.06651 0.0
C2476 C 0.24508 0.6377 0.06887 0.0
H2477 H 0.15 0.64443 0.94985 0.0
H2478 H 0.17208 0.64176 0.98777 0.0
C2479 C 0.26539 0.64622 0.08139 0.0
C2480 C 0.22191 0.60505 0.04902 0.0
H2481 H 0.21705 0.58059 0.99335 0.0
C2482 C 0.19849 0.61516 0.05021 0.0
C2483 C 0.22797 0.59108 0.02882 0.0
C2484 C 0.25197 0.57823 0.02678 0.0
C2485 C 0.1819 0.61343 0.03104 0.0
C2486 C 0.18922 0.60191 0.00978 0.0
C2487 C 0.21164 0.58992 0.00943 0.0
C2488 C 0.1749 0.60341 0.98721 0.0
C2489 C 0.15692 0.62436 0.03372 0.0
C2490 C 0.17003 0.58292 0.97364 0.0
C2491 C 0.15804 0.58453 0.95161 0.0
C2492 C 0.15046 0.60663 0.94286 0.0
C2493 C 0.15533 0.62713 0.95637 0.0
C2494 C 0.16774 0.62557 0.97817 0.0
H2495 H 0.15076 0.62362 0.05262 0.0
H2496 H 0.15795 0.64334 0.02854 0.0
H2497 H 0.14298 0.61528 0.02236 0.0
H2498 H 0.17557 0.56565 0.98007 0.0
H2499 H 0.15446 0.56842 0.94157 0.0
H2500 H 0.10735 0.51206 0.86352 0.0
H2501 H 0.11302 0.48453 0.8302 0.0
H2502 H 0.10398 0.54173 0.78032 0.0
H2503 H 0.09766 0.56951 0.81326 0.0
H2504 H 0.07972 0.50372 0.76554 0.0
H2505 H 0.17452 0.47938 0.79029 0.0
H2506 H 0.15324 0.47401 0.81411 0.0
H2507 H 0.15871 0.50387 0.80391 0.0
C2508 C 0.10636 0.51881 0.84542 0.0
C2509 C 0.10216 0.54301 0.84105 0.0
C2510 C 0.10985 0.50309 0.82642 0.0
C2511 C 0.10948 0.51136 0.80277 0.0
C2512 C 0.10443 0.53525 0.79842 0.0
H2513 H 0.16369 0.4212 0.68658 0.0
H2514 H 0.15937 0.45383 0.71536 0.0
C2515 C 0.10079 0.55099 0.8173 0.0
C2516 C 0.11407 0.49515 0.78245 0.0
H2517 H 0.15476 0.4549 0.76094 0.0
C2518 C 0.0962 0.49316 0.76442 0.0
C2519 C 0.13594 0.48202 0.78056 0.0
C2520 C 0.15683 0.4851 0.7981 0.0
C2521 C 0.09903 0.47746 0.7452 0.0
C2522 C 0.12006 0.46288 0.74432 0.0
C2523 C 0.13848 0.46578 0.76173 0.0
C2524 C 0.12268 0.44366 0.72637 0.0
C2525 C 0.07928 0.4767 0.72622 0.0
C2526 C 0.10379 0.42686 0.7233 0.0
C2527 C 0.10599 0.40873 0.70656 0.0
C2528 C 0.12752 0.40641 0.69312 0.0
C2529 C 0.1469 0.4226 0.69676 0.0
C2530 C 0.14442 0.44122 0.71316 0.0
H2531 H 0.07033 0.4942 0.72432 0.0
H2532 H 0.0866 0.47135 0.70858 0.0
H2533 H 0.06485 0.46379 0.73157 0.0
H2534 H 0.08731 0.42763 0.734 0.0
H2535 H 0.09089 0.39627 0.70444 0.0
H2536 H 0.2303 0.31819 0.59627 0.0
H2537 H 0.26524 0.32964 0.57177 0.0
H2538 H 0.23627 0.4003 0.5649 0.0
H2539 H 0.20162 0.38911 0.59072 0.0
H2540 H 0.2588 0.34238 0.526 0.0
H2541 H 0.30933 0.41377 0.57456 0.0
H2542 H 0.28717 0.39466 0.58907 0.0
H2543 H 0.27706 0.41858 0.57039 0.0
C2544 C 0.23166 0.33634 0.59002 0.0
C2545 C 0.21318 0.35272 0.59516 0.0
C2546 C 0.25164 0.34287 0.57604 0.0
C2547 C 0.25343 0.36581 0.56652 0.0
C2548 C 0.23555 0.38263 0.57245 0.0
H2549 H 0.34395 0.42009 0.45241 0.0
H2550 H 0.31862 0.41612 0.48803 0.0
C2551 C 0.2157 0.3762 0.58705 0.0
C2552 C 0.27246 0.37074 0.54829 0.0
H2553 H 0.32269 0.40492 0.5352 0.0
C2554 C 0.27288 0.35595 0.52813 0.0
C2555 C 0.29059 0.38864 0.55096 0.0
C2556 C 0.29124 0.40475 0.57249 0.0
C2557 C 0.29104 0.35828 0.51069 0.0
C2558 C 0.30947 0.37594 0.51342 0.0
C2559 C 0.30878 0.39117 0.53332 0.0
C2560 C 0.32849 0.37964 0.49486 0.0
C2561 C 0.28992 0.34199 0.4893 0.0
C2562 C 0.34371 0.36096 0.48773 0.0
C2563 C 0.35831 0.3632 0.46735 0.0
C2564 C 0.35808 0.38424 0.45394 0.0
C2565 C 0.34417 0.40347 0.46211 0.0
C2566 C 0.32976 0.40127 0.48256 0.0
H2567 H 0.27119 0.33454 0.48657 0.0
H2568 H 0.29567 0.35134 0.47279 0.0
H2569 H 0.3025 0.32691 0.49226 0.0
H2570 H 0.34353 0.34431 0.49737 0.0
H2571 H 0.36906 0.34818 0.46166 0.0
H2572 H 0.32243 0.41813 0.28032 0.0
H2573 H 0.3419 0.43829 0.24695 0.0
H2574 H 0.41281 0.41484 0.27131 0.0
H2575 H 0.39327 0.39438 0.30501 0.0
H2576 H 0.41393 0.46075 0.26193 0.0
H2577 H 0.36979 0.41574 0.18548 0.0
H2578 H 0.34682 0.42648 0.20545 0.0
H2579 H 0.36793 0.40409 0.21547 0.0
C2580 C 0.34214 0.41696 0.27846 0.0
C2581 C 0.3563 0.40459 0.29527 0.0
C2582 C 0.35326 0.42833 0.25919 0.0
C2583 C 0.3788 0.42779 0.25636 0.0
C2584 C 0.39304 0.4153 0.27301 0.0
H2585 H 0.42203 0.50196 0.1257 0.0
H2586 H 0.42093 0.47079 0.15611 0.0
C2587 C 0.38186 0.40358 0.2922 0.0
C2588 C 0.39048 0.44198 0.23712 0.0
H2589 H 0.38417 0.456 0.17822 0.0
C2590 C 0.40785 0.4594 0.2435 0.0
C2591 C 0.38301 0.43994 0.21297 0.0
C2592 C 0.36607 0.42034 0.20444 0.0
C2593 C 0.41665 0.47589 0.22674 0.0
C2594 C 0.40735 0.47527 0.20303 0.0
C2595 C 0.39122 0.4568 0.19636 0.0
C2596 C 0.41226 0.49446 0.18538 0.0
C2597 C 0.43557 0.49387 0.23489 0.0
C2598 C 0.40842 0.51825 0.19165 0.0
C2599 C 0.40962 0.53608 0.17442 0.0
C2600 C 0.4139 0.5305 0.15036 0.0
C2601 C 0.41854 0.50682 0.14411 0.0
C2602 C 0.41787 0.48899 0.16149 0.0
H2603 H 0.44778 0.48618 0.24876 0.0
H2604 H 0.44707 0.50032 0.21986 0.0
H2605 H 0.42614 0.50917 0.24317 0.0
H2606 H 0.40336 0.52299 0.20968 0.0
H2607 H 0.406 0.55412 0.17971 0.0
H2608 H 0.336 0.57077 0.05938 0.0
H2609 H 0.30815 0.57646 0.02557 0.0
H2610 H 0.32299 0.65177 0.02728 0.0
H2611 H 0.35133 0.6461 0.06067 0.0
H2612 H 0.27429 0.64183 0.02637 0.0
H2613 H 0.321 0.59031 0.95582 0.0
H2614 H 0.31538 0.57349 0.98249 0.0
H2615 H 0.33597 0.59861 0.98348 0.0
C2616 C 0.33338 0.5885 0.05246 0.0
C2617 C 0.34582 0.60797 0.06259 0.0
C2618 C 0.31761 0.59174 0.03302 0.0
C2619 C 0.31365 0.61455 0.02375 0.0
C2620 C 0.32592 0.63401 0.03403 0.0
H2621 H 0.21102 0.67338 0.92101 0.0
H2622 H 0.24318 0.66729 0.95084 0.0
C2623 C 0.34207 0.63073 0.0531 0.0
C2624 C 0.2955 0.61839 0.0044 0.0
H2625 H 0.28001 0.6021 0.94751 0.0
C2626 C 0.27558 0.63324 0.00908 0.0
C2627 C 0.29719 0.60706 0.98191 0.0
C2628 C 0.31866 0.59165 0.9755 0.0
C2629 C 0.25686 0.6365 0.99221 0.0
C2630 C 0.25861 0.62532 0.96962 0.0
C2631 C 0.27865 0.61061 0.96485 0.0
C2632 C 0.24 0.62895 0.95062 0.0
C2633 C 0.23509 0.65133 -0.00092 0.0
C2634 C 0.22841 0.60941 0.93963 0.0
C2635 C 0.2107 0.61287 0.92189 0.0
C2636 C 0.20395 0.63593 0.91527 0.0
C2637 C 0.2157 0.65544 0.92606 0.0
C2638 C 0.23392 0.65196 0.94323 0.0
H2639 H 0.23224 0.65134 0.01866 0.0
H2640 H 0.23842 0.66997 0.99353 0.0
H2641 H 0.21799 0.64483 0.99041 0.0
H2642 H 0.23285 0.59149 0.94501 0.0
H2643 H 0.20178 0.59756 0.91386 0.0
H2644 H 0.05998 0.489 0.64647 0.0
H2645 H 0.07107 0.52612 0.66664 0.0
H2646 H 0.1406 0.49589 0.68714 0.0
H2647 H 0.1305 0.46004 0.66466 0.0
H2648 H 0.07519 0.53415 0.70868 0.0
H2649 H 0.1655 0.55897 0.67421 0.0
H2650 H 0.14707 0.53645 0.65968 0.0
H2651 H 0.16786 0.52882 0.6837 0.0
C2652 C 0.07794 0.49073 0.65468 0.0
C2653 C 0.09446 0.47183 0.65409 0.0
C2654 C 0.08426 0.51188 0.66627 0.0
C2655 C 0.1069 0.51419 0.67822 0.0
C2656 C 0.12351 0.49524 0.67727 0.0
H2657 H 0.1697 0.56645 0.80056 0.0
H2658 H 0.15528 0.54914 0.76317 0.0
C2659 C 0.1176 0.47452 0.66475 0.0
C2660 C 0.11186 0.53486 0.69419 0.0
H2661 H 0.15866 0.56865 0.71681 0.0
C2662 C 0.09338 0.54195 0.71008 0.0
C2663 C 0.13513 0.54612 0.69556 0.0
C2664 C 0.15482 0.54234 0.6771 0.0
C2665 C 0.09824 0.55785 0.72884 0.0
C2666 C 0.12248 0.56653 0.73204 0.0
C2667 C 0.14029 0.56133 0.71481 0.0
C2668 C 0.13085 0.57796 0.7545 0.0
C2669 C 0.07724 0.56417 0.74512 0.0
C2670 C 0.12195 0.60001 0.76202 0.0
C2671 C 0.12996 0.60988 0.78372 0.0
C2672 C 0.14736 0.59803 0.7979 0.0
C2673 C 0.15639 0.57611 0.79006 0.0
C2674 C 0.14825 0.56623 0.76861 0.0
H2675 H 0.06604 0.54812 0.74922 0.0
H2676 H 0.08296 0.57246 0.76219 0.0
H2677 H 0.06509 0.57675 0.7356 0.0
H2678 H 0.10875 0.60947 0.75119 0.0
H2679 H 0.12285 0.62691 0.78917 0.0
H2680 H 0.15478 0.42568 0.55446 0.0
H2681 H 0.18149 0.424 0.51934 0.0
H2682 H 0.18753 0.34824 0.52771 0.0
H2683 H 0.16034 0.34959 0.56211 0.0
H2684 H 0.22883 0.40811 0.51493 0.0
H2685 H 0.16606 0.35415 0.45835 0.0
H2686 H 0.15621 0.36829 0.48559 0.0
H2687 H 0.17242 0.34065 0.4867 0.0
C2688 C 0.16176 0.40867 0.54876 0.0
C2689 C 0.15538 0.38777 0.56102 0.0
C2690 C 0.177 0.40774 0.52873 0.0
C2691 C 0.18597 0.38592 0.52062 0.0
C2692 C 0.18021 0.36516 0.53325 0.0
H2693 H 0.28641 0.33201 0.4183 0.0
H2694 H 0.25308 0.33889 0.44647 0.0
C2695 C 0.16487 0.36604 0.55309 0.0
C2696 C 0.20178 0.38478 0.49923 0.0
H2697 H 0.20749 0.35777 0.4449 0.0
C2698 C 0.22404 0.39739 0.49945 0.0
C2699 C 0.19541 0.3708 0.47907 0.0
C2700 C 0.17111 0.35789 0.47725 0.0
C2701 C 0.24058 0.39569 0.48042 0.0
C2702 C 0.23462 0.38108 0.46057 0.0
C2703 C 0.21207 0.3689 0.46013 0.0
C2704 C 0.25229 0.37687 0.44097 0.0
C2705 C 0.26464 0.40893 0.48219 0.0
C2706 C 0.26191 0.39575 0.42749 0.0
C2707 C 0.28073 0.3918 0.41109 0.0
C2708 C 0.29023 0.36892 0.40803 0.0
C2709 C 0.2797 0.34989 0.42061 0.0
C2710 C 0.2606 0.35379 0.43663 0.0
H2711 H 0.26933 0.41356 0.50099 0.0
H2712 H 0.27967 0.39829 0.47457 0.0
H2713 H 0.26337 0.42568 0.47189 0.0
H2714 H 0.25529 0.41362 0.43008 0.0
H2715 H 0.28837 0.40676 0.40143 0.0
H2716 H 0.44253 0.31871 0.35823 0.0
H2717 H 0.4771 0.29522 0.34404 0.0
H2718 H 0.52713 0.34315 0.38026 0.0
H2719 H 0.4922 0.36506 0.39628 0.0
H2720 H 0.51566 0.29899 0.31878 0.0
H2721 H 0.54726 0.28464 0.41197 0.0
H2722 H 0.519 0.29942 0.40525 0.0
H2723 H 0.54783 0.31535 0.40396 0.0
C2724 C 0.46092 0.32399 0.36316 0.0
C2725 C 0.46484 0.34306 0.37877 0.0
C2726 C 0.48071 0.31076 0.35494 0.0
C2727 C 0.50478 0.31676 0.36194 0.0
C2728 C 0.50873 0.33742 0.37558 0.0
H2729 H 0.64192 0.24087 0.34689 0.0
H2730 H 0.61132 0.27209 0.34929 0.0
C2731 C 0.48885 0.35015 0.38443 0.0
C2732 C 0.52535 0.3006 0.35616 0.0
H2733 H 0.57204 0.26925 0.38147 0.0
C2734 C 0.52797 0.29251 0.33252 0.0
C2735 C 0.54146 0.292 0.37408 0.0
C2736 C 0.53862 0.29811 0.40024 0.0
C2737 C 0.54611 0.27607 0.32636 0.0
C2738 C 0.56207 0.26759 0.34429 0.0
C2739 C 0.55988 0.27603 0.36774 0.0
C2740 C 0.58075 0.2493 0.33955 0.0
C2741 C 0.54816 0.26799 0.30075 0.0
C2742 C 0.5737 0.22616 0.33301 0.0
C2743 C 0.59118 0.20819 0.33164 0.0
C2744 C 0.61595 0.21309 0.33698 0.0
C2745 C 0.62299 0.23647 0.34274 0.0
C2746 C 0.60555 0.25437 0.34408 0.0
H2747 H 0.53886 0.28035 0.28827 0.0
H2748 H 0.56767 0.2664 0.29542 0.0
H2749 H 0.53934 0.25027 0.29886 0.0
H2750 H 0.55457 0.22179 0.32993 0.0
H2751 H 0.58514 0.19033 0.32731 0.0
loop_
_geom_bond_atom_site_label_1
_geom_bond_atom_site_label_2
_geom_bond_distance
_geom_bond_site_symmetry_2
_ccdc_geom_bond_type
Mg0 O1 2.028 . S
Mg0 O7 1.986 . S
Mg0 O9 2.114 . S
Mg0 O10 2.251 . S
Mg0 O13 2.010 . S
O1 Mg0 2.028 . S
O1 C4 1.250 . S
O2 Mg3 2.028 . S
O2 C4 1.248 . S
Mg3 O2 2.028 . S
Mg3 O8 2.032 . S
Mg3 O10 2.079 . S
C4 O1 1.250 . S
C4 O2 1.248 . S
C5 O6 1.264 . S
C5 O13 1.249 . S
O6 C5 1.264 . S
O7 Mg0 1.986 . S
O7 C11 1.246 . S
O8 Mg3 2.032 . S
O8 C11 1.259 . S
O9 Mg0 2.114 . S
O9 C12 1.252 . S
O10 Mg0 2.251 . S
O10 Mg3 2.079 . S
O10 C12 1.273 . S
C11 O7 1.246 . S
C11 O8 1.259 . S
C12 O9 1.252 . S
C12 O10 1.273 . S
O13 Mg0 2.010 . S
O13 C5 1.249 . S
Mg14 O15 2.028 . S
Mg14 O21 1.986 . S
Mg14 O23 2.114 . S
Mg14 O24 2.251 . S
Mg14 O27 2.010 . S
O15 Mg14 2.028 . S
O15 C18 1.250 . S
O16 Mg17 2.028 . S
O16 C18 1.248 . S
Mg17 O16 2.028 . S
Mg17 O22 2.032 . S
Mg17 O24 2.079 . S
C18 O15 1.250 . S
C18 O16 1.248 . S
C19 O20 1.264 . S
C19 O27 1.249 . S
O20 C19 1.264 . S
O21 Mg14 1.986 . S
O21 C25 1.246 . S
O22 Mg17 2.032 . S
O22 C25 1.259 . S
O23 Mg14 2.114 . S
O23 C26 1.252 . S
O24 Mg14 2.251 . S
O24 Mg17 2.079 . S
O24 C26 1.273 . S
C25 O21 1.246 . S
C25 O22 1.259 . S
C26 O23 1.252 . S
C26 O24 1.273 . S
O27 Mg14 2.010 . S
O27 C19 1.249 . S
Mg28 O29 2.028 . S
Mg28 O35 1.986 . S
Mg28 O37 2.114 . S
Mg28 O38 2.251 . S
Mg28 O41 2.010 . S
O29 Mg28 2.028 . S
O29 C32 1.250 . S
O30 Mg31 2.028 . S
O30 C32 1.248 . S
Mg31 O30 2.028 . S
Mg31 O36 2.032 . S
Mg31 O38 2.079 . S
C32 O29 1.250 . S
C32 O30 1.248 . S
C33 O34 1.264 . S
C33 O41 1.249 . S
O34 C33 1.264 . S
O35 Mg28 1.986 . S
O35 C39 1.246 . S
O36 Mg31 2.032 . S
O36 C39 1.259 . S
O37 Mg28 2.114 . S
O37 C40 1.252 . S
O38 Mg28 2.251 . S
O38 Mg31 2.079 . S
O38 C40 1.273 . S
C39 O35 1.246 . S
C39 O36 1.259 . S
C40 O37 1.252 . S
C40 O38 1.273 . S
O41 Mg28 2.010 . S
O41 C33 1.249 . S
Mg42 O43 2.028 . S
Mg42 O49 1.986 . S
Mg42 O51 2.114 . S
Mg42 O52 2.251 . S
Mg42 O55 2.010 . S
O43 Mg42 2.028 . S
O43 C46 1.250 . S
O44 Mg45 2.028 . S
O44 C46 1.248 . S
Mg45 O44 2.028 . S
Mg45 O50 2.032 . S
Mg45 O52 2.079 . S
C46 O43 1.250 . S
C46 O44 1.248 . S
C47 O48 1.264 . S
C47 O55 1.249 . S
O48 C47 1.264 . S
O49 Mg42 1.986 . S
O49 C53 1.246 . S
O50 Mg45 2.032 . S
O50 C53 1.259 . S
O51 Mg42 2.114 . S
O51 C54 1.252 . S
O52 Mg42 2.251 . S
O52 Mg45 2.079 . S
O52 C54 1.273 . S
C53 O49 1.246 . S
C53 O50 1.259 . S
C54 O51 1.252 . S
C54 O52 1.273 . S
O55 Mg42 2.010 . S
O55 C47 1.249 . S
Mg56 O57 2.028 . S
Mg56 O63 1.986 . S
Mg56 O65 2.114 . S
Mg56 O66 2.251 . S
Mg56 O69 2.010 . S
O57 Mg56 2.028 . S
O57 C60 1.250 . S
O58 Mg59 2.028 . S
O58 C60 1.248 . S
Mg59 O58 2.028 . S
Mg59 O64 2.032 . S
Mg59 O66 2.079 . S
C60 O57 1.250 . S
C60 O58 1.248 . S
C61 O62 1.264 . S
C61 O69 1.249 . S
O62 C61 1.264 . S
O63 Mg56 1.986 . S
O63 C67 1.246 . S
O64 Mg59 2.032 . S
O64 C67 1.259 . S
O65 Mg56 2.114 . S
O65 C68 1.252 . S
O66 Mg56 2.251 . S
O66 Mg59 2.079 . S
O66 C68 1.273 . S
C67 O63 1.246 . S
C67 O64 1.259 . S
C68 O65 1.252 . S
C68 O66 1.273 . S
O69 Mg56 2.010 . S
O69 C61 1.249 . S
Mg70 O71 2.028 . S
Mg70 O77 1.986 . S
Mg70 O79 2.114 . S
Mg70 O80 2.251 . S
Mg70 O83 2.010 . S
O71 Mg70 2.028 . S
O71 C74 1.250 . S
O72 Mg73 2.028 . S
O72 C74 1.248 . S
Mg73 O72 2.028 . S
Mg73 O78 2.032 . S
Mg73 O80 2.079 . S
C74 O71 1.250 . S
C74 O72 1.248 . S
C75 O76 1.264 . S
C75 O83 1.249 . S
O76 C75 1.264 . S
O77 Mg70 1.986 . S
O77 C81 1.246 . S
O78 Mg73 2.032 . S
O78 C81 1.259 . S
O79 Mg70 2.114 . S
O79 C82 1.252 . S
O80 Mg70 2.251 . S
O80 Mg73 2.079 . S
O80 C82 1.273 . S
C81 O77 1.246 . S
C81 O78 1.259 . S
C82 O79 1.252 . S
C82 O80 1.273 . S
O83 Mg70 2.010 . S
O83 C75 1.249 . S
Mg84 O85 2.028 . S
Mg84 O91 1.986 . S
Mg84 O93 2.114 . S
Mg84 O94 2.251 . S
Mg84 O97 2.010 . S
O85 Mg84 2.028 . S
O85 C88 1.250 . S
O86 Mg87 2.028 . S
O86 C88 1.248 . S
Mg87 O86 2.028 . S
Mg87 O92 2.032 . S
Mg87 O94 2.079 . S
C88 O85 1.250 . S
C88 O86 1.248 . S
C89 O90 1.264 . S
C89 O97 1.249 . S
O90 C89 1.264 . S
O91 Mg84 1.986 . S
O91 C95 1.246 . S
O92 Mg87 2.032 . S
O92 C95 1.259 . S
O93 Mg84 2.114 . S
O93 C96 1.252 . S
O94 Mg84 2.251 . S
O94 Mg87 2.079 . S
O94 C96 1.273 . S
C95 O91 1.246 . S
C95 O92 1.259 . S
C96 O93 1.252 . S
C96 O94 1.273 . S
O97 Mg84 2.010 . S
O97 C89 1.249 . S
Mg98 O99 2.028 . S
Mg98 O105 1.986 . S
Mg98 O107 2.114 . S
Mg98 O108 2.251 . S
Mg98 O111 2.010 . S
O99 Mg98 2.028 . S
O99 C102 1.250 . S
O100 Mg101 2.028 . S
O100 C102 1.248 . S
Mg101 O100 2.028 . S
Mg101 O106 2.032 . S
Mg101 O108 2.079 . S
C102 O99 1.250 . S
C102 O100 1.248 . S
C103 O104 1.264 . S
C103 O111 1.249 . S
O104 C103 1.264 . S
O105 Mg98 1.986 . S
O105 C109 1.246 . S
O106 Mg101 2.032 . S
O106 C109 1.259 . S
O107 Mg98 2.114 . S
O107 C110 1.252 . S
O108 Mg98 2.251 . S
O108 Mg101 2.079 . S
O108 C110 1.273 . S
C109 O105 1.246 . S
C109 O106 1.259 . S
C110 O107 1.252 . S
C110 O108 1.273 . S
O111 Mg98 2.010 . S
O111 C103 1.249 . S
Mg112 O113 2.028 . S
Mg112 O119 1.986 . S
Mg112 O121 2.114 . S
Mg112 O122 2.251 . S
Mg112 O125 2.010 . S
O113 Mg112 2.028 . S
O113 C116 1.250 . S
O114 Mg115 2.028 . S
O114 C116 1.248 . S
Mg115 O114 2.028 . S
Mg115 O120 2.032 . S
Mg115 O122 2.079 . S
C116 O113 1.250 . S
C116 O114 1.248 . S
C117 O118 1.264 . S
C117 O125 1.249 . S
O118 C117 1.264 . S
O119 Mg112 1.986 . S
O119 C123 1.246 . S
O120 Mg115 2.032 . S
O120 C123 1.259 . S
O121 Mg112 2.114 . S
O121 C124 1.252 . S
O122 Mg112 2.251 . S
O122 Mg115 2.079 . S
O122 C124 1.273 . S
C123 O119 1.246 . S
C123 O120 1.259 . S
C124 O121 1.252 . S
C124 O122 1.273 . S
O125 Mg112 2.010 . S
O125 C117 1.249 . S
Mg126 O127 2.028 . S
Mg126 O133 1.986 . S
Mg126 O135 2.114 . S
Mg126 O136 2.251 . S
Mg126 O139 2.010 . S
O127 Mg126 2.028 . S
O127 C130 1.250 . S
O128 Mg129 2.028 . S
O128 C130 1.248 . S
Mg129 O128 2.028 . S
Mg129 O134 2.032 . S
Mg129 O136 2.079 . S
C130 O127 1.250 . S
C130 O128 1.248 . S
C131 O132 1.264 . S
C131 O139 1.249 . S
O132 C131 1.264 . S
O133 Mg126 1.986 . S
O133 C137 1.246 . S
O134 Mg129 2.032 . S
O134 C137 1.259 . S
O135 Mg126 2.114 . S
O135 C138 1.252 . S
O136 Mg126 2.251 . S
O136 Mg129 2.079 . S
O136 C138 1.273 . S
C137 O133 1.246 . S
C137 O134 1.259 . S
C138 O135 1.252 . S
C138 O136 1.273 . S
O139 Mg126 2.010 . S
O139 C131 1.249 . S
Mg140 O141 2.028 . S
Mg140 O147 1.986 . S
Mg140 O149 2.114 . S
Mg140 O150 2.251 . S
Mg140 O153 2.010 . S
O141 Mg140 2.028 . S
O141 C144 1.250 . S
O142 Mg143 2.028 . S
O142 C144 1.248 . S
Mg143 O142 2.028 . S
Mg143 O148 2.032 . S
Mg143 O150 2.079 . S
C144 O141 1.250 . S
C144 O142 1.248 . S
C145 O146 1.264 . S
C145 O153 1.249 . S
O146 C145 1.264 . S
O147 Mg140 1.986 . S
O147 C151 1.246 . S
O148 Mg143 2.032 . S
O148 C151 1.259 . S
O149 Mg140 2.114 . S
O149 C152 1.252 . S
O150 Mg140 2.251 . S
O150 Mg143 2.079 . S
O150 C152 1.273 . S
C151 O147 1.246 . S
C151 O148 1.259 . S
C152 O149 1.252 . S
C152 O150 1.273 . S
O153 Mg140 2.010 . S
O153 C145 1.249 . S
Mg154 O155 2.028 . S
Mg154 O161 1.986 . S
Mg154 O163 2.114 . S
Mg154 O164 2.251 . S
Mg154 O167 2.010 . S
O155 Mg154 2.028 . S
O155 C158 1.250 . S
O156 Mg157 2.028 . S
O156 C158 1.248 . S
Mg157 O156 2.028 . S
Mg157 O162 2.032 . S
Mg157 O164 2.079 . S
C158 O155 1.250 . S
C158 O156 1.248 . S
C159 O160 1.264 . S
C159 O167 1.249 . S
O160 C159 1.264 . S
O161 Mg154 1.986 . S
O161 C165 1.246 . S
O162 Mg157 2.032 . S
O162 C165 1.259 . S
O163 Mg154 2.114 . S
O163 C166 1.252 . S
O164 Mg154 2.251 . S
O164 Mg157 2.079 . S
O164 C166 1.273 . S
C165 O161 1.246 . S
C165 O162 1.259 . S
C166 O163 1.252 . S
C166 O164 1.273 . S
O167 Mg154 2.010 . S
O167 C159 1.249 . S
Mg168 O169 2.028 . S
Mg168 O175 1.986 . S
Mg168 O177 2.114 . S
Mg168 O178 2.251 . S
Mg168 O181 2.010 . S
O169 Mg168 2.028 . S
O169 C172 1.250 . S
O170 Mg171 2.028 . S
O170 C172 1.248 . S
Mg171 O170 2.028 . S
Mg171 O176 2.032 . S
Mg171 O178 2.079 . S
C172 O169 1.250 . S
C172 O170 1.248 . S
C173 O174 1.264 . S
C173 O181 1.249 . S
O174 C173 1.264 . S
O175 Mg168 1.986 . S
O175 C179 1.246 . S
O176 Mg171 2.032 . S
O176 C179 1.259 . S
O177 Mg168 2.114 . S
O177 C180 1.252 . S
O178 Mg168 2.251 . S
O178 Mg171 2.079 . S
O178 C180 1.273 . S
C179 O175 1.246 . S
C179 O176 1.259 . S
C180 O177 1.252 . S
C180 O178 1.273 . S
O181 Mg168 2.010 . S
O181 C173 1.249 . S
Mg182 O183 2.028 . S
Mg182 O189 1.986 . S
Mg182 O191 2.114 . S
Mg182 O192 2.251 . S
Mg182 O195 2.010 . S
O183 Mg182 2.028 . S
O183 C186 1.250 . S
O184 Mg185 2.028 . S
O184 C186 1.248 . S
Mg185 O184 2.028 . S
Mg185 O190 2.032 . S
Mg185 O192 2.079 . S
C186 O183 1.250 . S
C186 O184 1.248 . S
C187 O188 1.264 . S
C187 O195 1.249 . S
O188 C187 1.264 . S
O189 Mg182 1.986 . S
O189 C193 1.246 . S
O190 Mg185 2.032 . S
O190 C193 1.259 . S
O191 Mg182 2.114 . S
O191 C194 1.252 . S
O192 Mg182 2.251 . S
O192 Mg185 2.079 . S
O192 C194 1.273 . S
C193 O189 1.246 . S
C193 O190 1.259 . S
C194 O191 1.252 . S
C194 O192 1.273 . S
O195 Mg182 2.010 . S
O195 C187 1.249 . S
Mg196 O197 2.028 . S
Mg196 O203 1.986 . S
Mg196 O205 2.114 . S
Mg196 O206 2.251 . S
Mg196 O209 2.010 . S
O197 Mg196 2.028 . S
O197 C200 1.250 . S
O198 Mg199 2.028 . S
O198 C200 1.248 . S
Mg199 O198 2.028 . S
Mg199 O204 2.032 . S
Mg199 O206 2.079 . S
C200 O197 1.250 . S
C200 O198 1.248 . S
C201 O202 1.264 . S
C201 O209 1.249 . S
O202 C201 1.264 . S
O203 Mg196 1.986 . S
O203 C207 1.246 . S
O204 Mg199 2.032 . S
O204 C207 1.259 . S
O205 Mg196 2.114 . S
O205 C208 1.252 . S
O206 Mg196 2.251 . S
O206 Mg199 2.079 . S
O206 C208 1.273 . S
C207 O203 1.246 . S
C207 O204 1.259 . S
C208 O205 1.252 . S
C208 O206 1.273 . S
O209 Mg196 2.010 . S
O209 C201 1.249 . S
Mg210 O211 2.028 . S
Mg210 O217 1.986 . S
Mg210 O219 2.114 . S
Mg210 O220 2.251 . S
Mg210 O223 2.010 . S
O211 Mg210 2.028 . S
O211 C214 1.250 . S
O212 Mg213 2.028 . S
O212 C214 1.248 . S
Mg213 O212 2.028 . S
Mg213 O218 2.032 . S
Mg213 O220 2.079 . S
C214 O211 1.250 . S
C214 O212 1.248 . S
C215 O216 1.264 . S
C215 O223 1.249 . S
O216 C215 1.264 . S
O217 Mg210 1.986 . S
O217 C221 1.246 . S
O218 Mg213 2.032 . S
O218 C221 1.259 . S
O219 Mg210 2.114 . S
O219 C222 1.252 . S
O220 Mg210 2.251 . S
O220 Mg213 2.079 . S
O220 C222 1.273 . S
C221 O217 1.246 . S
C221 O218 1.259 . S
C222 O219 1.252 . S
C222 O220 1.273 . S
O223 Mg210 2.010 . S
O223 C215 1.249 . S
Mg224 O225 2.028 . S
Mg224 O231 1.986 . S
Mg224 O233 2.114 . S
Mg224 O234 2.251 . S
Mg224 O237 2.010 . S
O225 Mg224 2.028 . S
O225 C228 1.250 . S
O226 Mg227 2.028 . S
O226 C228 1.248 . S
Mg227 O226 2.028 . S
Mg227 O232 2.032 . S
Mg227 O234 2.079 . S
C228 O225 1.250 . S
C228 O226 1.248 . S
C229 O230 1.264 . S
C229 O237 1.249 . S
O230 C229 1.264 . S
O231 Mg224 1.986 . S
O231 C235 1.246 . S
O232 Mg227 2.032 . S
O232 C235 1.259 . S
O233 Mg224 2.114 . S
O233 C236 1.252 . S
O234 Mg224 2.251 . S
O234 Mg227 2.079 . S
O234 C236 1.273 . S
C235 O231 1.246 . S
C235 O232 1.259 . S
C236 O233 1.252 . S
C236 O234 1.273 . S
O237 Mg224 2.010 . S
O237 C229 1.249 . S
Mg238 O239 2.028 . S
Mg238 O245 1.986 . S
Mg238 O247 2.114 . S
Mg238 O248 2.251 . S
Mg238 O251 2.010 . S
O239 Mg238 2.028 . S
O239 C242 1.250 . S
O240 Mg241 2.028 . S
O240 C242 1.248 . S
Mg241 O240 2.028 . S
Mg241 O246 2.032 . S
Mg241 O248 2.079 . S
C242 O239 1.250 . S
C242 O240 1.248 . S
C243 O244 1.264 . S
C243 O251 1.249 . S
O244 C243 1.264 . S
O245 Mg238 1.986 . S
O245 C249 1.246 . S
O246 Mg241 2.032 . S
O246 C249 1.259 . S
O247 Mg238 2.114 . S
O247 C250 1.252 . S
O248 Mg238 2.251 . S
O248 Mg241 2.079 . S
O248 C250 1.273 . S
C249 O245 1.246 . S
C249 O246 1.259 . S
C250 O247 1.252 . S
C250 O248 1.273 . S
O251 Mg238 2.010 . S
O251 C243 1.249 . S
Mg252 O253 2.028 . S
Mg252 O259 1.986 . S
Mg252 O261 2.114 . S
Mg252 O262 2.251 . S
Mg252 O265 2.010 . S
O253 Mg252 2.028 . S
O253 C256 1.250 . S
O254 Mg255 2.028 . S
O254 C256 1.248 . S
Mg255 O254 2.028 . S
Mg255 O260 2.032 . S
Mg255 O262 2.079 . S
C256 O253 1.250 . S
C256 O254 1.248 . S
C257 O258 1.264 . S
C257 O265 1.249 . S
O258 C257 1.264 . S
O259 Mg252 1.986 . S
O259 C263 1.246 . S
O260 Mg255 2.032 . S
O260 C263 1.259 . S
O261 Mg252 2.114 . S
O261 C264 1.252 . S
O262 Mg252 2.251 . S
O262 Mg255 2.079 . S
O262 C264 1.273 . S
C263 O259 1.246 . S
C263 O260 1.259 . S
C264 O261 1.252 . S
C264 O262 1.273 . S
O265 Mg252 2.010 . S
O265 C257 1.249 . S
Mg266 O267 2.028 . S
Mg266 O273 1.986 . S
Mg266 O275 2.114 . S
Mg266 O276 2.251 . S
Mg266 O279 2.010 . S
O267 Mg266 2.028 . S
O267 C270 1.250 . S
O268 Mg269 2.028 . S
O268 C270 1.248 . S
Mg269 O268 2.028 . S
Mg269 O274 2.032 . S
Mg269 O276 2.079 . S
C270 O267 1.250 . S
C270 O268 1.248 . S
C271 O272 1.264 . S
C271 O279 1.249 . S
O272 C271 1.264 . S
O273 Mg266 1.986 . S
O273 C277 1.246 . S
O274 Mg269 2.032 . S
O274 C277 1.259 . S
O275 Mg266 2.114 . S
O275 C278 1.252 . S
O276 Mg266 2.251 . S
O276 Mg269 2.079 . S
O276 C278 1.273 . S
C277 O273 1.246 . S
C277 O274 1.259 . S
C278 O275 1.252 . S
C278 O276 1.273 . S
O279 Mg266 2.010 . S
O279 C271 1.249 . S
Mg280 O281 2.028 . S
Mg280 O287 1.986 . S
Mg280 O289 2.114 . S
Mg280 O290 2.251 . S
Mg280 O293 2.010 . S
O281 Mg280 2.028 . S
O281 C284 1.250 . S
O282 Mg283 2.028 . S
O282 C284 1.248 . S
Mg283 O282 2.028 . S
Mg283 O288 2.032 . S
Mg283 O290 2.079 . S
C284 O281 1.250 . S
C284 O282 1.248 . S
C285 O286 1.264 . S
C285 O293 1.249 . S
O286 C285 1.264 . S
O287 Mg280 1.986 . S
O287 C291 1.246 . S
O288 Mg283 2.032 . S
O288 C291 1.259 . S
O289 Mg280 2.114 . S
O289 C292 1.252 . S
O290 Mg280 2.251 . S
O290 Mg283 2.079 . S
O290 C292 1.273 . S
C291 O287 1.246 . S
C291 O288 1.259 . S
C292 O289 1.252 . S
C292 O290 1.273 . S
O293 Mg280 2.010 . S
O293 C285 1.249 . S
Mg294 O295 2.028 . S
Mg294 O301 1.986 . S
Mg294 O303 2.114 . S
Mg294 O304 2.251 . S
Mg294 O307 2.010 . S
O295 Mg294 2.028 . S
O295 C298 1.250 . S
O296 Mg297 2.028 . S
O296 C298 1.248 . S
Mg297 O296 2.028 . S
Mg297 O302 2.032 . S
Mg297 O304 2.079 . S
C298 O295 1.250 . S
C298 O296 1.248 . S
C299 O300 1.264 . S
C299 O307 1.249 . S
O300 C299 1.264 . S
O301 Mg294 1.986 . S
O301 C305 1.246 . S
O302 Mg297 2.032 . S
O302 C305 1.259 . S
O303 Mg294 2.114 . S
O303 C306 1.252 . S
O304 Mg294 2.251 . S
O304 Mg297 2.079 . S
O304 C306 1.273 . S
C305 O301 1.246 . S
C305 O302 1.259 . S
C306 O303 1.252 . S
C306 O304 1.273 . S
O307 Mg294 2.010 . S
O307 C299 1.249 . S
Mg308 O309 2.028 . S
Mg308 O315 1.986 . S
Mg308 O317 2.114 . S
Mg308 O318 2.251 . S
Mg308 O321 2.010 . S
O309 Mg308 2.028 . S
O309 C312 1.250 . S
O310 Mg311 2.028 . S
O310 C312 1.248 . S
Mg311 O310 2.028 . S
Mg311 O316 2.032 . S
Mg311 O318 2.079 . S
C312 O309 1.250 . S
C312 O310 1.248 . S
C313 O314 1.264 . S
C313 O321 1.249 . S
O314 C313 1.264 . S
O315 Mg308 1.986 . S
O315 C319 1.246 . S
O316 Mg311 2.032 . S
O316 C319 1.259 . S
O317 Mg308 2.114 . S
O317 C320 1.252 . S
O318 Mg308 2.251 . S
O318 Mg311 2.079 . S
O318 C320 1.273 . S
C319 O315 1.246 . S
C319 O316 1.259 . S
C320 O317 1.252 . S
C320 O318 1.273 . S
O321 Mg308 2.010 . S
O321 C313 1.249 . S
Mg322 O323 2.028 . S
Mg322 O329 1.986 . S
Mg322 O331 2.114 . S
Mg322 O332 2.251 . S
Mg322 O335 2.010 . S
O323 Mg322 2.028 . S
O323 C326 1.250 . S
O324 Mg325 2.028 . S
O324 C326 1.248 . S
Mg325 O324 2.028 . S
Mg325 O330 2.032 . S
Mg325 O332 2.079 . S
C326 O323 1.250 . S
C326 O324 1.248 . S
C327 O328 1.264 . S
C327 O335 1.249 . S
O328 C327 1.264 . S
O329 Mg322 1.986 . S
O329 C333 1.246 . S
O330 Mg325 2.032 . S
O330 C333 1.259 . S
O331 Mg322 2.114 . S
O331 C334 1.252 . S
O332 Mg322 2.251 . S
O332 Mg325 2.079 . S
O332 C334 1.273 . S
C333 O329 1.246 . S
C333 O330 1.259 . S
C334 O331 1.252 . S
C334 O332 1.273 . S
O335 Mg322 2.010 . S
O335 C327 1.249 . S
Mg336 O337 2.028 . S
Mg336 O343 1.986 . S
Mg336 O345 2.114 . S
Mg336 O346 2.251 . S
Mg336 O349 2.010 . S
O337 Mg336 2.028 . S
O337 C340 1.250 . S
O338 Mg339 2.028 . S
O338 C340 1.248 . S
Mg339 O338 2.028 . S
Mg339 O344 2.032 . S
Mg339 O346 2.079 . S
C340 O337 1.250 . S
C340 O338 1.248 . S
C341 O342 1.264 . S
C341 O349 1.249 . S
O342 C341 1.264 . S
O343 Mg336 1.986 . S
O343 C347 1.246 . S
O344 Mg339 2.032 . S
O344 C347 1.259 . S
O345 Mg336 2.114 . S
O345 C348 1.252 . S
O346 Mg336 2.251 . S
O346 Mg339 2.079 . S
O346 C348 1.273 . S
C347 O343 1.246 . S
C347 O344 1.259 . S
C348 O345 1.252 . S
C348 O346 1.273 . S
O349 Mg336 2.010 . S
O349 C341 1.249 . S
Mg350 O351 2.028 . S
Mg350 O357 1.986 . S
Mg350 O359 2.114 . S
Mg350 O360 2.251 . S
Mg350 O363 2.010 . S
O351 Mg350 2.028 . S
O351 C354 1.250 . S
O352 Mg353 2.028 . S
O352 C354 1.248 . S
Mg353 O352 2.028 . S
Mg353 O358 2.032 . S
Mg353 O360 2.079 . S
C354 O351 1.250 . S
C354 O352 1.248 . S
C355 O356 1.264 . S
C355 O363 1.249 . S
O356 C355 1.264 . S
O357 Mg350 1.986 . S
O357 C361 1.246 . S
O358 Mg353 2.032 . S
O358 C361 1.259 . S
O359 Mg350 2.114 . S
O359 C362 1.252 . S
O360 Mg350 2.251 . S
O360 Mg353 2.079 . S
O360 C362 1.273 . S
C361 O357 1.246 . S
C361 O358 1.259 . S
C362 O359 1.252 . S
C362 O360 1.273 . S
O363 Mg350 2.010 . S
O363 C355 1.249 . S
Mg364 O365 2.028 . S
Mg364 O371 1.986 . S
Mg364 O373 2.114 . S
Mg364 O374 2.251 . S
Mg364 O377 2.010 . S
O365 Mg364 2.028 . S
O365 C368 1.250 . S
O366 Mg367 2.028 . S
O366 C368 1.248 . S
Mg367 O366 2.028 . S
Mg367 O372 2.032 . S
Mg367 O374 2.079 . S
C368 O365 1.250 . S
C368 O366 1.248 . S
C369 O370 1.264 . S
C369 O377 1.249 . S
O370 C369 1.264 . S
O371 Mg364 1.986 . S
O371 C375 1.246 . S
O372 Mg367 2.032 . S
O372 C375 1.259 . S
O373 Mg364 2.114 . S
O373 C376 1.252 . S
O374 Mg364 2.251 . S
O374 Mg367 2.079 . S
O374 C376 1.273 . S
C375 O371 1.246 . S
C375 O372 1.259 . S
C376 O373 1.252 . S
C376 O374 1.273 . S
O377 Mg364 2.010 . S
O377 C369 1.249 . S
Mg378 O379 2.028 . S
Mg378 O385 1.986 . S
Mg378 O387 2.114 . S
Mg378 O388 2.251 . S
Mg378 O391 2.010 . S
O379 Mg378 2.028 . S
O379 C382 1.250 . S
O380 Mg381 2.028 . S
O380 C382 1.248 . S
Mg381 O380 2.028 . S
Mg381 O386 2.032 . S
Mg381 O388 2.079 . S
C382 O379 1.250 . S
C382 O380 1.248 . S
C383 O384 1.264 . S
C383 O391 1.249 . S
O384 C383 1.264 . S
O385 Mg378 1.986 . S
O385 C389 1.246 . S
O386 Mg381 2.032 . S
O386 C389 1.259 . S
O387 Mg378 2.114 . S
O387 C390 1.252 . S
O388 Mg378 2.251 . S
O388 Mg381 2.079 . S
O388 C390 1.273 . S
C389 O385 1.246 . S
C389 O386 1.259 . S
C390 O387 1.252 . S
C390 O388 1.273 . S
O391 Mg378 2.010 . S
O391 C383 1.249 . S
Mg392 O393 2.028 . S
Mg392 O399 1.986 . S
Mg392 O401 2.114 . S
Mg392 O402 2.251 . S
Mg392 O405 2.010 . S
O393 Mg392 2.028 . S
O393 C396 1.250 . S
O394 Mg395 2.028 . S
O394 C396 1.248 . S
Mg395 O394 2.028 . S
Mg395 O400 2.032 . S
Mg395 O402 2.079 . S
C396 O393 1.250 . S
C396 O394 1.248 . S
C397 O398 1.264 . S
C397 O405 1.249 . S
O398 C397 1.264 . S
O399 Mg392 1.986 . S
O399 C403 1.246 . S
O400 Mg395 2.032 . S
O400 C403 1.259 . S
O401 Mg392 2.114 . S
O401 C404 1.252 . S
O402 Mg392 2.251 . S
O402 Mg395 2.079 . S
O402 C404 1.273 . S
C403 O399 1.246 . S
C403 O400 1.259 . S
C404 O401 1.252 . S
C404 O402 1.273 . S
O405 Mg392 2.010 . S
O405 C397 1.249 . S
Mg406 O407 2.028 . S
Mg406 O413 1.986 . S
Mg406 O415 2.114 . S
Mg406 O416 2.251 . S
Mg406 O419 2.010 . S
O407 Mg406 2.028 . S
O407 C410 1.250 . S
O408 Mg409 2.028 . S
O408 C410 1.248 . S
Mg409 O408 2.028 . S
Mg409 O414 2.032 . S
Mg409 O416 2.079 . S
C410 O407 1.250 . S
C410 O408 1.248 . S
C411 O412 1.264 . S
C411 O419 1.249 . S
O412 C411 1.264 . S
O413 Mg406 1.986 . S
O413 C417 1.246 . S
O414 Mg409 2.032 . S
O414 C417 1.259 . S
O415 Mg406 2.114 . S
O415 C418 1.252 . S
O416 Mg406 2.251 . S
O416 Mg409 2.079 . S
O416 C418 1.273 . S
C417 O413 1.246 . S
C417 O414 1.259 . S
C418 O415 1.252 . S
C418 O416 1.273 . S
O419 Mg406 2.010 . S
O419 C411 1.249 . S
Mg420 O421 2.028 . S
Mg420 O427 1.986 . S
Mg420 O429 2.114 . S
Mg420 O430 2.251 . S
Mg420 O433 2.010 . S
O421 Mg420 2.028 . S
O421 C424 1.250 . S
O422 Mg423 2.028 . S
O422 C424 1.248 . S
Mg423 O422 2.028 . S
Mg423 O428 2.032 . S
Mg423 O430 2.079 . S
C424 O421 1.250 . S
C424 O422 1.248 . S
C425 O426 1.264 . S
C425 O433 1.249 . S
O426 C425 1.264 . S
O427 Mg420 1.986 . S
O427 C431 1.246 . S
O428 Mg423 2.032 . S
O428 C431 1.259 . S
O429 Mg420 2.114 . S
O429 C432 1.252 . S
O430 Mg420 2.251 . S
O430 Mg423 2.079 . S
O430 C432 1.273 . S
C431 O427 1.246 . S
C431 O428 1.259 . S
C432 O429 1.252 . S
C432 O430 1.273 . S
O433 Mg420 2.010 . S
O433 C425 1.249 . S
Mg434 O435 2.028 . S
Mg434 O441 1.986 . S
Mg434 O443 2.114 . S
Mg434 O444 2.251 . S
Mg434 O447 2.010 . S
O435 Mg434 2.028 . S
O435 C438 1.250 . S
O436 Mg437 2.028 . S
O436 C438 1.248 . S
Mg437 O436 2.028 . S
Mg437 O442 2.032 . S
Mg437 O444 2.079 . S
C438 O435 1.250 . S
C438 O436 1.248 . S
C439 O440 1.264 . S
C439 O447 1.249 . S
O440 C439 1.264 . S
O441 Mg434 1.986 . S
O441 C445 1.246 . S
O442 Mg437 2.032 . S
O442 C445 1.259 . S
O443 Mg434 2.114 . S
O443 C446 1.252 . S
O444 Mg434 2.251 . S
O444 Mg437 2.079 . S
O444 C446 1.273 . S
C445 O441 1.246 . S
C445 O442 1.259 . S
C446 O443 1.252 . S
C446 O444 1.273 . S
O447 Mg434 2.010 . S
O447 C439 1.249 . S
H448 C456 0.929 . S
H449 C458 0.930 . S
H450 C460 0.930 . S
H451 C463 0.929 . S
H452 C466 0.930 . S
H453 C468 0.960 1_556 S
H454 C468 0.981 1_556 S
H455 C468 0.960 . S
C456 H448 0.929 . S
C456 C457 1.377 . S
C456 C458 1.384 . S
C457 C456 1.377 . S
C457 C463 1.390 . S
C458 H449 0.930 . S
C458 C456 1.384 . S
C458 C459 1.372 . S
C459 C458 1.372 . S
C459 C460 1.400 . S
C459 C464 1.490 . S
C460 H450 0.930 . S
C460 C459 1.400 . S
C460 C463 1.386 . S
H461 C477 0.930 . S
H462 C478 0.931 . S
C463 H451 0.929 . S
C463 C457 1.390 . S
C463 C460 1.386 . S
C464 C459 1.490 . S
C464 C466 1.395 1_545 S
C464 C467 1.403 1_455 S
H465 C471 0.930 . S
C466 H452 0.930 . S
C466 C464 1.395 1_565 S
C466 C469 1.403 1_554 S
C467 C464 1.403 1_655 S
C467 C468 1.524 . S
C467 C471 1.400 1_554 S
C468 H453 0.960 1_554 S
C468 H454 0.981 1_554 S
C468 H455 0.960 . S
C468 C467 1.524 . S
C469 C466 1.403 1_556 S
C469 C470 1.392 1_455 S
C469 C473 1.495 . S
C470 C469 1.392 1_655 S
C470 C471 1.385 1_565 S
C470 C472 1.478 . S
C471 H465 0.930 . S
C471 C467 1.400 1_556 S
C471 C470 1.385 1_545 S
C472 C470 1.478 . S
C472 C474 1.381 . S
C472 C478 1.383 . S
C473 C469 1.495 . S
C473 H479 0.959 . S
C473 H480 0.961 . S
C473 H481 0.960 . S
C474 C472 1.381 . S
C474 C475 1.394 . S
C474 H482 0.930 . S
C475 C474 1.394 . S
C475 C476 1.383 . S
C475 H483 0.929 . S
C476 C475 1.383 . S
C476 C477 1.377 . S
C477 H461 0.930 . S
C477 C476 1.377 . S
C477 C478 1.379 . S
C478 H462 0.931 . S
C478 C472 1.383 . S
C478 C477 1.379 . S
H479 C473 0.959 . S
H480 C473 0.961 . S
H481 C473 0.960 . S
H482 C474 0.930 . S
H483 C475 0.929 . S
H484 C492 0.929 . S
H485 C494 0.930 . S
H486 C496 0.930 . S
H487 C499 0.929 . S
H488 C502 0.930 . S
H489 C504 0.960 . S
H490 C504 0.960 . S
H491 C504 0.960 . S
C492 H484 0.929 . S
C492 C493 1.377 . S
C492 C494 1.384 . S
C493 C492 1.377 . S
C493 C499 1.390 . S
C494 H485 0.930 . S
C494 C492 1.384 . S
C494 C495 1.372 . S
C495 C494 1.372 . S
C495 C496 1.400 . S
C495 C500 1.490 . S
C496 H486 0.930 . S
C496 C495 1.400 . S
C496 C499 1.386 . S
H497 C513 0.930 . S
H498 C514 0.931 . S
C499 H487 0.929 . S
C499 C493 1.390 . S
C499 C496 1.386 . S
C500 C495 1.490 . S
C500 C502 1.395 . S
C500 C503 1.403 . S
H501 C507 0.930 . S
C502 H488 0.930 . S
C502 C500 1.395 . S
C502 C505 1.403 . S
C503 C500 1.403 . S
C503 C504 1.524 . S
C503 C507 1.400 . S
C504 H489 0.960 . S
C504 H490 0.960 . S
C504 H491 0.960 . S
C504 C503 1.524 . S
C505 C502 1.403 . S
C505 C506 1.392 . S
C505 C509 1.495 . S
C506 C505 1.392 . S
C506 C507 1.385 . S
C506 C508 1.478 . S
C507 H501 0.930 . S
C507 C503 1.400 . S
C507 C506 1.385 . S
C508 C506 1.478 . S
C508 C510 1.381 . S
C508 C514 1.383 . S
C509 C505 1.495 . S
C509 H515 0.959 . S
C509 H516 0.961 . S
C509 H517 0.960 . S
C510 C508 1.381 . S
C510 C511 1.394 . S
C510 H518 0.930 . S
C511 C510 1.394 . S
C511 C512 1.383 . S
C511 H519 0.929 . S
C512 C511 1.383 . S
C512 C513 1.377 . S
C513 H497 0.930 . S
C513 C512 1.377 . S
C513 C514 1.379 . S
C514 H498 0.931 . S
C514 C508 1.383 . S
C514 C513 1.379 . S
H515 C509 0.959 . S
H516 C509 0.961 . S
H517 C509 0.960 . S
H518 C510 0.930 . S
H519 C511 0.929 . S
H520 C528 0.929 . S
H521 C530 0.930 . S
H522 C532 0.930 . S
H523 C535 0.929 . S
H524 C538 0.930 . S
H525 C540 0.960 . S
H526 C540 0.960 . S
H527 C540 0.960 . S
C528 H520 0.929 . S
C528 C529 1.377 . S
C528 C530 1.384 . S
C529 C528 1.377 . S
C529 C535 1.390 . S
C530 H521 0.930 . S
C530 C528 1.384 . S
C530 C531 1.372 . S
C531 C530 1.372 . S
C531 C532 1.400 . S
C531 C536 1.490 . S
C532 H522 0.930 . S
C532 C531 1.400 . S
C532 C535 1.386 . S
H533 C549 0.930 . S
H534 C550 0.931 . S
C535 H523 0.929 . S
C535 C529 1.390 . S
C535 C532 1.386 . S
C536 C531 1.490 . S
C536 C538 1.395 . S
C536 C539 1.403 1_565 S
H537 C543 0.930 . S
C538 H524 0.930 . S
C538 C536 1.395 . S
C538 C541 1.403 . S
C539 C536 1.403 1_545 S
C539 C540 1.524 . S
C539 C543 1.400 . S
C540 H525 0.960 . S
C540 H526 0.960 . S
C540 H527 0.960 . S
C540 C539 1.524 . S
C541 C538 1.403 . S
C541 C542 1.392 1_565 S
C541 C545 1.495 . S
C542 C541 1.392 1_545 S
C542 C543 1.385 . S
C542 C544 1.478 . S
C543 H537 0.930 . S
C543 C539 1.400 . S
C543 C542 1.385 . S
C544 C542 1.478 . S
C544 C546 1.381 . S
C544 C550 1.383 . S
C545 C541 1.495 . S
C545 H551 0.959 . S
C545 H552 0.961 . S
C545 H553 0.960 . S
C546 C544 1.381 . S
C546 C547 1.394 . S
C546 H554 0.930 . S
C547 C546 1.394 . S
C547 C548 1.383 . S
C547 H555 0.929 . S
C548 C547 1.383 . S
C548 C549 1.377 . S
C549 H533 0.930 . S
C549 C548 1.377 . S
C549 C550 1.379 . S
C550 H534 0.931 . S
C550 C544 1.383 . S
C550 C549 1.379 . S
H551 C545 0.959 . S
H552 C545 0.961 . S
H553 C545 0.960 . S
H554 C546 0.930 . S
H555 C547 0.929 . S
H556 C564 0.929 . S
H557 C566 0.930 . S
H558 C568 0.930 . S
H559 C571 0.929 . S
H560 C574 0.930 . S
H561 C576 0.960 . S
H562 C576 0.960 . S
H563 C576 0.960 . S
C564 H556 0.929 . S
C564 C565 1.377 . S
C564 C566 1.384 . S
C565 C564 1.377 . S
C565 C571 1.390 . S
C566 H557 0.930 . S
C566 C564 1.384 . S
C566 C567 1.372 . S
C567 C566 1.372 . S
C567 C568 1.400 . S
C567 C572 1.490 . S
C568 H558 0.930 . S
C568 C567 1.400 . S
C568 C571 1.386 . S
H569 C585 0.930 . S
H570 C586 0.931 . S
C571 H559 0.929 . S
C571 C565 1.390 . S
C571 C568 1.386 . S
C572 C567 1.490 . S
C572 C574 1.395 . S
C572 C575 1.403 . S
H573 C579 0.930 . S
C574 H560 0.930 . S
C574 C572 1.395 . S
C574 C577 1.403 . S
C575 C572 1.403 . S
C575 C576 1.524 . S
C575 C579 1.400 . S
C576 H561 0.960 . S
C576 H562 0.960 . S
C576 H563 0.960 . S
C576 C575 1.524 . S
C577 C574 1.403 . S
C577 C578 1.392 . S
C577 C581 1.495 . S
C578 C577 1.392 . S
C578 C579 1.385 . S
C578 C580 1.478 . S
C579 H573 0.930 . S
C579 C575 1.400 . S
C579 C578 1.385 . S
C580 C578 1.478 . S
C580 C582 1.381 . S
C580 C586 1.383 . S
C581 C577 1.495 . S
C581 H587 0.959 . S
C581 H588 0.961 . S
C581 H589 0.960 . S
C582 C580 1.381 . S
C582 C583 1.394 . S
C582 H590 0.930 . S
C583 C582 1.394 . S
C583 C584 1.383 . S
C583 H591 0.929 . S
C584 C583 1.383 . S
C584 C585 1.377 . S
C585 H569 0.930 . S
C585 C584 1.377 . S
C585 C586 1.379 . S
C586 H570 0.931 . S
C586 C580 1.383 . S
C586 C585 1.379 . S
H587 C581 0.959 . S
H588 C581 0.961 . S
H589 C581 0.960 . S
H590 C582 0.930 . S
H591 C583 0.929 . S
H592 C600 0.929 . S
H593 C602 0.945 . S
H594 C604 0.930 . S
H595 C607 0.929 . S
H596 C610 0.925 1_665 S
H597 C612 0.960 . S
H598 C612 0.960 . S
H599 C612 0.960 . S
C600 H592 0.929 . S
C600 C601 1.377 . S
C600 C602 1.384 . S
C601 C600 1.377 . S
C601 C607 1.390 . S
C602 H593 0.945 . S
C602 C600 1.384 . S
C602 C603 1.372 . S
C603 C602 1.372 . S
C603 C604 1.400 . S
C603 C608 1.490 . S
C604 H594 0.930 . S
C604 C603 1.400 . S
C604 C607 1.386 . S
H605 C621 0.930 . S
H606 C622 0.931 . S
C607 H595 0.929 . S
C607 C601 1.390 . S
C607 C604 1.386 . S
C608 C603 1.490 . S
C608 C610 1.428 1_565 S
C608 C611 1.403 . S
H609 C615 0.930 . S
C610 H596 0.925 1_445 S
C610 C608 1.428 1_545 S
C610 C613 1.375 1_455 S
C611 C608 1.403 . S
C611 C612 1.524 . S
C611 C615 1.400 1_565 S
C612 H597 0.960 . S
C612 H598 0.960 . S
C612 H599 0.960 . S
C612 C611 1.524 . S
C613 C610 1.375 1_655 S
C613 C614 1.392 . S
C613 C617 1.495 . S
C614 C613 1.392 . S
C614 C615 1.385 1_655 S
C614 C616 1.478 . S
C615 H609 0.930 . S
C615 C611 1.400 1_545 S
C615 C614 1.385 1_455 S
C616 C614 1.478 . S
C616 C618 1.381 . S
C616 C622 1.383 . S
C617 C613 1.495 . S
C617 H623 0.959 . S
C617 H624 0.961 . S
C617 H625 0.960 . S
C618 C616 1.381 . S
C618 C619 1.394 . S
C618 H626 0.930 . S
C619 C618 1.394 . S
C619 C620 1.383 . S
C619 H627 0.929 . S
C620 C619 1.383 . S
C620 C621 1.377 . S
C621 H605 0.930 . S
C621 C620 1.377 . S
C621 C622 1.379 . S
C622 H606 0.931 . S
C622 C616 1.383 . S
C622 C621 1.379 . S
H623 C617 0.959 . S
H624 C617 0.961 . S
H625 C617 0.960 . S
H626 C618 0.930 . S
H627 C619 0.929 . S
H628 C636 0.929 . S
H629 C638 0.930 . S
H630 C640 0.930 . S
H631 C643 0.929 . S
H632 C646 0.930 . S
H633 C648 0.960 . S
H634 C648 0.960 . S
H635 C648 0.960 . S
C636 H628 0.929 . S
C636 C637 1.377 . S
C636 C638 1.384 . S
C637 C636 1.377 . S
C637 C643 1.390 . S
C638 H629 0.930 . S
C638 C636 1.384 . S
C638 C639 1.372 . S
C639 C638 1.372 . S
C639 C640 1.400 . S
C639 C644 1.490 . S
C640 H630 0.930 . S
C640 C639 1.400 . S
C640 C643 1.386 . S
H641 C657 0.930 . S
H642 C658 0.931 . S
C643 H631 0.929 . S
C643 C637 1.390 . S
C643 C640 1.386 . S
C644 C639 1.490 . S
C644 C646 1.395 . S
C644 C647 1.403 . S
H645 C651 0.930 . S
C646 H632 0.930 . S
C646 C644 1.395 . S
C646 C649 1.403 . S
C647 C644 1.403 . S
C647 C648 1.524 . S
C647 C651 1.400 . S
C648 H633 0.960 . S
C648 H634 0.960 . S
C648 H635 0.960 . S
C648 C647 1.524 . S
C649 C646 1.403 . S
C649 C650 1.392 . S
C649 C653 1.495 . S
C650 C649 1.392 . S
C650 C651 1.385 . S
C650 C652 1.478 . S
C651 H645 0.930 . S
C651 C647 1.400 . S
C651 C650 1.385 . S
C652 C650 1.478 . S
C652 C654 1.381 . S
C652 C658 1.383 . S
C653 C649 1.495 . S
C653 H659 0.959 . S
C653 H660 0.961 . S
C653 H661 0.960 . S
C654 C652 1.381 . S
C654 C655 1.394 . S
C654 H662 0.930 . S
C655 C654 1.394 . S
C655 C656 1.383 . S
C655 H663 0.929 . S
C656 C655 1.383 . S
C656 C657 1.377 . S
C657 H641 0.930 . S
C657 C656 1.377 . S
C657 C658 1.379 . S
C658 H642 0.931 . S
C658 C652 1.383 . S
C658 C657 1.379 . S
H659 C653 0.959 . S
H660 C653 0.961 . S
H661 C653 0.960 . S
H662 C654 0.930 . S
H663 C655 0.929 . S
H664 C672 0.929 . S
H665 C674 0.930 . S
H666 C676 0.930 . S
H667 C679 0.929 . S
H668 C682 0.930 . S
H669 C684 0.962 . S
H670 C684 0.961 . S
H671 C684 0.958 1_556 S
C672 H664 0.929 . S
C672 C673 1.377 . S
C672 C674 1.384 . S
C673 C672 1.377 . S
C673 C679 1.390 . S
C674 H665 0.930 . S
C674 C672 1.384 . S
C674 C675 1.372 . S
C675 C674 1.372 . S
C675 C676 1.400 . S
C675 C680 1.490 . S
C676 H666 0.930 . S
C676 C675 1.400 . S
C676 C679 1.386 . S
H677 C693 0.930 . S
H678 C694 0.931 . S
C679 H667 0.929 . S
C679 C673 1.390 . S
C679 C676 1.386 . S
C680 C675 1.490 . S
C680 C682 1.395 1_545 S
C680 C683 1.420 . S
H681 C687 0.930 . S
C682 H668 0.930 . S
C682 C680 1.395 1_565 S
C682 C685 1.380 1_556 S
C683 C680 1.420 . S
C683 C684 1.523 1_556 S
C683 C687 1.383 1_556 S
C684 H669 0.962 . S
C684 H670 0.961 . S
C684 H671 0.958 1_554 S
C684 C683 1.523 1_554 S
C685 C682 1.380 1_554 S
C685 C686 1.416 . S
C685 C689 1.496 . S
C686 C685 1.416 . S
C686 C687 1.385 1_565 S
C686 C688 1.478 . S
C687 H681 0.930 . S
C687 C683 1.383 1_554 S
C687 C686 1.385 1_545 S
C688 C686 1.478 . S
C688 C690 1.381 . S
C688 C694 1.383 . S
C689 C685 1.496 . S
C689 H695 0.959 1_554 S
C689 H696 0.961 1_554 S
C689 H697 0.960 . S
C690 C688 1.381 . S
C690 C691 1.394 . S
C690 H698 0.930 . S
C691 C690 1.394 . S
C691 C692 1.383 . S
C691 H699 0.929 . S
C692 C691 1.383 . S
C692 C693 1.377 . S
C693 H677 0.930 . S
C693 C692 1.377 . S
C693 C694 1.379 . S
C694 H678 0.931 . S
C694 C688 1.383 . S
C694 C693 1.379 . S
H695 C689 0.959 1_556 S
H696 C689 0.961 1_556 S
H697 C689 0.960 . S
H698 C690 0.930 . S
H699 C691 0.929 . S
H700 C708 0.929 . S
H701 C710 0.930 . S
H702 C712 0.930 . S
H703 C715 0.929 . S
H704 C718 0.930 . S
H705 C720 0.960 . S
H706 C720 0.960 . S
H707 C720 0.960 . S
C708 H700 0.929 . S
C708 C709 1.377 . S
C708 C710 1.384 . S
C709 C708 1.377 . S
C709 C715 1.390 . S
C710 H701 0.930 . S
C710 C708 1.384 . S
C710 C711 1.372 . S
C711 C710 1.372 . S
C711 C712 1.400 . S
C711 C716 1.490 . S
C712 H702 0.930 . S
C712 C711 1.400 . S
C712 C715 1.386 . S
H713 C729 0.930 . S
H714 C730 0.931 . S
C715 H703 0.929 . S
C715 C709 1.390 . S
C715 C712 1.386 . S
C716 C711 1.490 . S
C716 C718 1.395 . S
C716 C719 1.403 . S
H717 C723 0.930 . S
C718 H704 0.930 . S
C718 C716 1.395 . S
C718 C721 1.403 . S
C719 C716 1.403 . S
C719 C720 1.524 . S
C719 C723 1.400 . S
C720 H705 0.960 . S
C720 H706 0.960 . S
C720 H707 0.960 . S
C720 C719 1.524 . S
C721 C718 1.403 . S
C721 C722 1.392 . S
C721 C725 1.495 . S
C722 C721 1.392 . S
C722 C723 1.385 . S
C722 C724 1.478 . S
C723 H717 0.930 . S
C723 C719 1.400 . S
C723 C722 1.385 . S
C724 C722 1.478 . S
C724 C726 1.381 . S
C724 C730 1.383 . S
C725 C721 1.495 . S
C725 H731 0.959 . S
C725 H732 0.961 . S
C725 H733 0.960 . S
C726 C724 1.381 . S
C726 C727 1.394 . S
C726 H734 0.930 . S
C727 C726 1.394 . S
C727 C728 1.383 . S
C727 H735 0.929 . S
C728 C727 1.383 . S
C728 C729 1.377 . S
C729 H713 0.930 . S
C729 C728 1.377 . S
C729 C730 1.379 . S
C730 H714 0.931 . S
C730 C724 1.383 . S
C730 C729 1.379 . S
H731 C725 0.959 . S
H732 C725 0.961 . S
H733 C725 0.960 . S
H734 C726 0.930 . S
H735 C727 0.929 . S
H736 C744 0.929 . S
H737 C746 0.930 . S
H738 C748 0.930 . S
H739 C751 0.929 . S
H740 C754 0.936 . S
H741 C756 0.960 . S
H742 C756 0.960 . S
H743 C756 0.960 . S
C744 H736 0.929 . S
C744 C745 1.377 . S
C744 C746 1.384 . S
C745 C744 1.377 . S
C745 C751 1.390 . S
C746 H737 0.930 . S
C746 C744 1.384 . S
C746 C747 1.372 . S
C747 C746 1.372 . S
C747 C748 1.400 . S
C747 C752 1.490 . S
C748 H738 0.930 . S
C748 C747 1.400 . S
C748 C751 1.386 . S
H749 C765 0.930 . S
H750 C766 0.931 . S
C751 H739 0.929 . S
C751 C745 1.390 . S
C751 C748 1.386 . S
C752 C747 1.490 . S
C752 C754 1.415 . S
C752 C755 1.403 . S
H753 C759 0.930 . S
C754 H740 0.936 . S
C754 C752 1.415 . S
C754 C757 1.379 1_554 S
C755 C752 1.403 . S
C755 C756 1.524 . S
C755 C759 1.400 1_554 S
C756 H741 0.960 . S
C756 H742 0.960 . S
C756 H743 0.960 . S
C756 C755 1.524 . S
C757 C754 1.379 1_556 S
C757 C758 1.392 . S
C757 C761 1.495 . S
C758 C757 1.392 . S
C758 C759 1.385 . S
C758 C760 1.478 . S
C759 H753 0.930 . S
C759 C755 1.400 1_556 S
C759 C758 1.385 . S
C760 C758 1.478 . S
C760 C762 1.381 . S
C760 C766 1.383 . S
C761 C757 1.495 . S
C761 H767 0.959 . S
C761 H768 0.961 . S
C761 H769 0.960 . S
C762 C760 1.381 . S
C762 C763 1.394 . S
C762 H770 0.930 . S
C763 C762 1.394 . S
C763 C764 1.383 . S
C763 H771 0.929 . S
C764 C763 1.383 . S
C764 C765 1.377 . S
C765 H749 0.930 . S
C765 C764 1.377 . S
C765 C766 1.379 . S
C766 H750 0.931 . S
C766 C760 1.383 . S
C766 C765 1.379 . S
H767 C761 0.959 . S
H768 C761 0.961 . S
H769 C761 0.960 . S
H770 C762 0.930 . S
H771 C763 0.929 . S
H772 C780 0.929 . S
H773 C782 0.930 . S
H774 C784 0.930 . S
H775 C787 0.929 . S
H776 C790 0.930 . S
H777 C792 0.960 . S
H778 C792 0.960 . S
H779 C792 0.960 . S
C780 H772 0.929 . S
C780 C781 1.377 . S
C780 C782 1.384 . S
C781 C780 1.377 . S
C781 C787 1.390 . S
C782 H773 0.930 . S
C782 C780 1.384 . S
C782 C783 1.372 . S
C783 C782 1.372 . S
C783 C784 1.400 . S
C783 C788 1.490 . S
C784 H774 0.930 . S
C784 C783 1.400 . S
C784 C787 1.386 . S
H785 C801 0.930 . S
H786 C802 0.931 . S
C787 H775 0.929 . S
C787 C781 1.390 . S
C787 C784 1.386 . S
C788 C783 1.490 . S
C788 C790 1.395 . S
C788 C791 1.403 . S
H789 C795 0.930 . S
C790 H776 0.930 . S
C790 C788 1.395 . S
C790 C793 1.403 . S
C791 C788 1.403 . S
C791 C792 1.524 . S
C791 C795 1.400 . S
C792 H777 0.960 . S
C792 H778 0.960 . S
C792 H779 0.960 . S
C792 C791 1.524 . S
C793 C790 1.403 . S
C793 C794 1.392 . S
C793 C797 1.495 . S
C794 C793 1.392 . S
C794 C795 1.385 . S
C794 C796 1.478 . S
C795 H789 0.930 . S
C795 C791 1.400 . S
C795 C794 1.385 . S
C796 C794 1.478 . S
C796 C798 1.381 . S
C796 C802 1.383 . S
C797 C793 1.495 . S
C797 H803 0.959 . S
C797 H804 0.961 . S
C797 H805 0.960 . S
C798 C796 1.381 . S
C798 C799 1.394 . S
C798 H806 0.930 . S
C799 C798 1.394 . S
C799 C800 1.383 . S
C799 H807 0.929 . S
C800 C799 1.383 . S
C800 C801 1.377 . S
C801 H785 0.930 . S
C801 C800 1.377 . S
C801 C802 1.379 . S
C802 H786 0.931 . S
C802 C796 1.383 . S
C802 C801 1.379 . S
H803 C797 0.959 . S
H804 C797 0.961 . S
H805 C797 0.960 . S
H806 C798 0.930 . S
H807 C799 0.929 . S
H808 C816 0.929 . S
H809 C818 0.930 . S
H810 C820 0.930 . S
H811 C823 0.929 . S
H812 C826 0.930 . S
H813 C828 0.960 . S
H814 C828 0.960 . S
H815 C828 0.960 . S
C816 H808 0.929 . S
C816 C817 1.377 . S
C816 C818 1.384 . S
C817 C816 1.377 . S
C817 C823 1.390 . S
C818 H809 0.930 . S
C818 C816 1.384 . S
C818 C819 1.372 . S
C819 C818 1.372 . S
C819 C820 1.400 . S
C819 C824 1.490 . S
C820 H810 0.930 . S
C820 C819 1.400 . S
C820 C823 1.386 . S
H821 C837 0.930 . S
H822 C838 0.931 . S
C823 H811 0.929 . S
C823 C817 1.390 . S
C823 C820 1.386 . S
C824 C819 1.490 . S
C824 C826 1.395 . S
C824 C827 1.403 1_455 S
H825 C831 0.930 . S
C826 H812 0.930 . S
C826 C824 1.395 . S
C826 C829 1.403 . S
C827 C824 1.403 1_655 S
C827 C828 1.524 . S
C827 C831 1.400 . S
C828 H813 0.960 . S
C828 H814 0.960 . S
C828 H815 0.960 . S
C828 C827 1.524 . S
C829 C826 1.403 . S
C829 C830 1.392 1_455 S
C829 C833 1.495 . S
C830 C829 1.392 1_655 S
C830 C831 1.385 . S
C830 C832 1.478 . S
C831 H825 0.930 . S
C831 C827 1.400 . S
C831 C830 1.385 . S
C832 C830 1.478 . S
C832 C834 1.381 . S
C832 C838 1.383 . S
C833 C829 1.495 . S
C833 H839 0.959 . S
C833 H840 0.961 . S
C833 H841 0.960 . S
C834 C832 1.381 . S
C834 C835 1.394 . S
C834 H842 0.930 . S
C835 C834 1.394 . S
C835 C836 1.383 . S
C835 H843 0.929 . S
C836 C835 1.383 . S
C836 C837 1.377 . S
C837 H821 0.930 . S
C837 C836 1.377 . S
C837 C838 1.379 . S
C838 H822 0.931 . S
C838 C832 1.383 . S
C838 C837 1.379 . S
H839 C833 0.959 . S
H840 C833 0.961 . S
H841 C833 0.960 . S
H842 C834 0.930 . S
H843 C835 0.929 . S
H844 C852 0.929 . S
H845 C854 0.930 . S
H846 C856 0.930 . S
H847 C859 0.929 . S
H848 C862 0.930 . S
H849 C864 0.960 . S
H850 C864 0.960 . S
H851 C864 0.960 . S
C852 H844 0.929 . S
C852 C853 1.377 . S
C852 C854 1.384 . S
C853 C852 1.377 . S
C853 C859 1.390 . S
C854 H845 0.930 . S
C854 C852 1.384 . S
C854 C855 1.372 . S
C855 C854 1.372 . S
C855 C856 1.400 . S
C855 C860 1.490 . S
C856 H846 0.930 . S
C856 C855 1.400 . S
C856 C859 1.386 . S
H857 C873 0.930 . S
H858 C874 0.931 . S
C859 H847 0.929 . S
C859 C853 1.390 . S
C859 C856 1.386 . S
C860 C855 1.490 . S
C860 C862 1.395 . S
C860 C863 1.403 . S
H861 C867 0.930 . S
C862 H848 0.930 . S
C862 C860 1.395 . S
C862 C865 1.403 . S
C863 C860 1.403 . S
C863 C864 1.524 . S
C863 C867 1.400 . S
C864 H849 0.960 . S
C864 H850 0.960 . S
C864 H851 0.960 . S
C864 C863 1.524 . S
C865 C862 1.403 . S
C865 C866 1.392 . S
C865 C869 1.495 . S
C866 C865 1.392 . S
C866 C867 1.385 . S
C866 C868 1.478 . S
C867 H861 0.930 . S
C867 C863 1.400 . S
C867 C866 1.385 . S
C868 C866 1.478 . S
C868 C870 1.381 . S
C868 C874 1.383 . S
C869 C865 1.495 . S
C869 H875 0.959 . S
C869 H876 0.961 . S
C869 H877 0.960 . S
C870 C868 1.381 . S
C870 C871 1.394 . S
C870 H878 0.930 . S
C871 C870 1.394 . S
C871 C872 1.383 . S
C871 H879 0.929 . S
C872 C871 1.383 . S
C872 C873 1.377 . S
C873 H857 0.930 . S
C873 C872 1.377 . S
C873 C874 1.379 . S
C874 H858 0.931 . S
C874 C868 1.383 . S
C874 C873 1.379 . S
H875 C869 0.959 . S
H876 C869 0.961 . S
H877 C869 0.960 . S
H878 C870 0.930 . S
H879 C871 0.929 . S
H880 C888 0.929 . S
H881 C890 0.930 . S
H882 C892 0.930 . S
H883 C895 0.929 . S
H884 C898 0.930 . S
H885 C900 0.960 . S
H886 C900 0.960 . S
H887 C900 0.960 . S
C888 H880 0.929 . S
C888 C889 1.377 . S
C888 C890 1.384 . S
C889 C888 1.377 . S
C889 C895 1.390 . S
C890 H881 0.930 . S
C890 C888 1.384 . S
C890 C891 1.372 . S
C891 C890 1.372 . S
C891 C892 1.400 . S
C891 C896 1.490 . S
C892 H882 0.930 . S
C892 C891 1.400 . S
C892 C895 1.386 . S
H893 C909 0.930 . S
H894 C910 0.931 . S
C895 H883 0.929 . S
C895 C889 1.390 . S
C895 C892 1.386 . S
C896 C891 1.490 . S
C896 C898 1.395 . S
C896 C899 1.403 . S
H897 C903 0.930 . S
C898 H884 0.930 . S
C898 C896 1.395 . S
C898 C901 1.403 . S
C899 C896 1.403 . S
C899 C900 1.524 . S
C899 C903 1.400 . S
C900 H885 0.960 . S
C900 H886 0.960 . S
C900 H887 0.960 . S
C900 C899 1.524 . S
C901 C898 1.403 . S
C901 C902 1.392 . S
C901 C905 1.495 . S
C902 C901 1.392 . S
C902 C903 1.385 . S
C902 C904 1.478 . S
C903 H897 0.930 . S
C903 C899 1.400 . S
C903 C902 1.385 . S
C904 C902 1.478 . S
C904 C906 1.381 . S
C904 C910 1.383 . S
C905 C901 1.495 . S
C905 H911 0.959 . S
C905 H912 0.961 . S
C905 H913 0.960 . S
C906 C904 1.381 . S
C906 C907 1.394 . S
C906 H914 0.930 . S
C907 C906 1.394 . S
C907 C908 1.383 . S
C907 H915 0.929 . S
C908 C907 1.383 . S
C908 C909 1.377 . S
C909 H893 0.930 . S
C909 C908 1.377 . S
C909 C910 1.379 . S
C910 H894 0.931 . S
C910 C904 1.383 . S
C910 C909 1.379 . S
H911 C905 0.959 . S
H912 C905 0.961 . S
H913 C905 0.960 . S
H914 C906 0.930 . S
H915 C907 0.929 . S
H916 C924 0.929 . S
H917 C926 0.930 . S
H918 C928 0.930 . S
H919 C931 0.929 . S
H920 C934 0.930 . S
H921 C936 0.960 . S
H922 C936 0.960 . S
H923 C936 0.960 . S
C924 H916 0.929 . S
C924 C925 1.377 . S
C924 C926 1.384 . S
C925 C924 1.377 . S
C925 C931 1.390 . S
C926 H917 0.930 . S
C926 C924 1.384 . S
C926 C927 1.372 . S
C927 C926 1.372 . S
C927 C928 1.400 . S
C927 C932 1.490 . S
C928 H918 0.930 . S
C928 C927 1.400 . S
C928 C931 1.386 . S
H929 C945 0.930 . S
H930 C946 0.931 . S
C931 H919 0.929 . S
C931 C925 1.390 . S
C931 C928 1.386 . S
C932 C927 1.490 . S
C932 C934 1.395 . S
C932 C935 1.403 . S
H933 C939 0.930 . S
C934 H920 0.930 . S
C934 C932 1.395 . S
C934 C937 1.403 . S
C935 C932 1.403 . S
C935 C936 1.524 . S
C935 C939 1.400 . S
C936 H921 0.960 . S
C936 H922 0.960 . S
C936 H923 0.960 . S
C936 C935 1.524 . S
C937 C934 1.403 . S
C937 C938 1.392 . S
C937 C941 1.495 . S
C938 C937 1.392 . S
C938 C939 1.385 . S
C938 C940 1.478 . S
C939 H933 0.930 . S
C939 C935 1.400 . S
C939 C938 1.385 . S
C940 C938 1.478 . S
C940 C942 1.381 . S
C940 C946 1.383 . S
C941 C937 1.495 . S
C941 H947 0.959 . S
C941 H948 0.961 . S
C941 H949 0.960 . S
C942 C940 1.381 . S
C942 C943 1.394 . S
C942 H950 0.930 . S
C943 C942 1.394 . S
C943 C944 1.383 . S
C943 H951 0.929 . S
C944 C943 1.383 . S
C944 C945 1.377 . S
C945 H929 0.930 . S
C945 C944 1.377 . S
C945 C946 1.379 . S
C946 H930 0.931 . S
C946 C940 1.383 . S
C946 C945 1.379 . S
H947 C941 0.959 . S
H948 C941 0.961 . S
H949 C941 0.960 . S
H950 C942 0.930 . S
H951 C943 0.929 . S
H952 C960 0.929 . S
H953 C962 0.930 . S
H954 C964 0.930 . S
H955 C967 0.929 . S
H956 C970 0.930 . S
H957 C972 0.960 . S
H958 C972 0.960 . S
H959 C972 0.960 . S
C960 H952 0.929 . S
C960 C961 1.377 . S
C960 C962 1.384 . S
C961 C960 1.377 . S
C961 C967 1.390 . S
C962 H953 0.930 . S
C962 C960 1.384 . S
C962 C963 1.372 . S
C963 C962 1.372 . S
C963 C964 1.400 . S
C963 C968 1.490 . S
C964 H954 0.930 . S
C964 C963 1.400 . S
C964 C967 1.386 . S
H965 C981 0.930 . S
H966 C982 0.931 . S
C967 H955 0.929 . S
C967 C961 1.390 . S
C967 C964 1.386 . S
C968 C963 1.490 . S
C968 C970 1.395 . S
C968 C971 1.403 . S
H969 C975 0.930 . S
C970 H956 0.930 . S
C970 C968 1.395 . S
C970 C973 1.403 . S
C971 C968 1.403 . S
C971 C972 1.524 . S
C971 C975 1.400 . S
C972 H957 0.960 . S
C972 H958 0.960 . S
C972 H959 0.960 . S
C972 C971 1.524 . S
C973 C970 1.403 . S
C973 C974 1.392 . S
C973 C977 1.495 . S
C974 C973 1.392 . S
C974 C975 1.385 . S
C974 C976 1.478 . S
C975 H969 0.930 . S
C975 C971 1.400 . S
C975 C974 1.385 . S
C976 C974 1.478 . S
C976 C978 1.381 . S
C976 C982 1.383 . S
C977 C973 1.495 . S
C977 H983 0.959 . S
C977 H984 0.961 . S
C977 H985 0.960 . S
C978 C976 1.381 . S
C978 C979 1.394 . S
C978 H986 0.930 . S
C979 C978 1.394 . S
C979 C980 1.383 . S
C979 H987 0.929 . S
C980 C979 1.383 . S
C980 C981 1.377 . S
C981 H965 0.930 . S
C981 C980 1.377 . S
C981 C982 1.379 . S
C982 H966 0.931 . S
C982 C976 1.383 . S
C982 C981 1.379 . S
H983 C977 0.959 . S
H984 C977 0.961 . S
H985 C977 0.960 . S
H986 C978 0.930 . S
H987 C979 0.929 . S
H988 C996 0.929 . S
H989 C998 0.930 . S
H990 C1000 0.930 . S
H991 C1003 0.929 . S
H992 C1006 0.930 . S
H993 C1008 0.960 1_554 S
H994 C1008 0.960 1_554 S
H995 C1008 0.960 . S
C996 H988 0.929 . S
C996 C997 1.377 . S
C996 C998 1.384 . S
C997 C996 1.377 . S
C997 C1003 1.390 . S
C998 H989 0.930 . S
C998 C996 1.384 . S
C998 C999 1.372 . S
C999 C998 1.372 . S
C999 C1000 1.400 . S
C999 C1004 1.490 . S
C1000 H990 0.930 . S
C1000 C999 1.400 . S
C1000 C1003 1.386 . S
H1001 C1017 0.930 . S
H1002 C1018 0.931 . S
C1003 H991 0.929 . S
C1003 C997 1.390 . S
C1003 C1000 1.386 . S
C1004 C999 1.490 . S
C1004 C1006 1.395 1_455 S
C1004 C1007 1.403 . S
H1005 C1011 0.930 . S
C1006 H992 0.930 . S
C1006 C1004 1.395 1_655 S
C1006 C1009 1.403 1_556 S
C1007 C1004 1.403 . S
C1007 C1008 1.524 . S
C1007 C1011 1.400 1_556 S
C1008 H993 0.960 1_556 S
C1008 H994 0.960 1_556 S
C1008 H995 0.960 . S
C1008 C1007 1.524 . S
C1009 C1006 1.403 1_554 S
C1009 C1010 1.392 . S
C1009 C1013 1.495 . S
C1010 C1009 1.392 . S
C1010 C1011 1.385 1_655 S
C1010 C1012 1.478 . S
C1011 H1005 0.930 . S
C1011 C1007 1.400 1_554 S
C1011 C1010 1.385 1_455 S
C1012 C1010 1.478 . S
C1012 C1014 1.381 . S
C1012 C1018 1.383 . S
C1013 C1009 1.495 . S
C1013 H1019 0.959 1_554 S
C1013 H1020 0.961 1_554 S
C1013 H1021 0.960 . S
C1014 C1012 1.381 . S
C1014 C1015 1.394 . S
C1014 H1022 0.930 . S
C1015 C1014 1.394 . S
C1015 C1016 1.383 . S
C1015 H1023 0.929 . S
C1016 C1015 1.383 . S
C1016 C1017 1.377 . S
C1017 H1001 0.930 . S
C1017 C1016 1.377 . S
C1017 C1018 1.379 . S
C1018 H1002 0.931 . S
C1018 C1012 1.383 . S
C1018 C1017 1.379 . S
H1019 C1013 0.959 1_556 S
H1020 C1013 0.961 1_556 S
H1021 C1013 0.960 . S
H1022 C1014 0.930 . S
H1023 C1015 0.929 . S
H1024 C1032 0.929 . S
H1025 C1034 0.930 1_565 S
H1026 C1036 0.930 . S
H1027 C1039 0.929 . S
H1028 C1042 0.930 . S
H1029 C1044 0.960 . S
H1030 C1044 0.960 . S
H1031 C1044 0.960 . S
C1032 H1024 0.929 . S
C1032 C1033 1.377 . S
C1032 C1034 1.384 . S
C1033 C1032 1.377 . S
C1033 C1039 1.390 . S
C1034 H1025 0.930 1_545 S
C1034 C1032 1.384 . S
C1034 C1035 1.372 . S
C1035 C1034 1.372 . S
C1035 C1036 1.400 . S
C1035 C1040 1.490 1_545 S
C1036 H1026 0.930 . S
C1036 C1035 1.400 . S
C1036 C1039 1.386 . S
H1037 C1053 0.930 . S
H1038 C1054 0.931 . S
C1039 H1027 0.929 . S
C1039 C1033 1.390 . S
C1039 C1036 1.386 . S
C1040 C1035 1.490 1_565 S
C1040 C1042 1.395 . S
C1040 C1043 1.403 . S
H1041 C1047 0.930 . S
C1042 H1028 0.930 . S
C1042 C1040 1.395 . S
C1042 C1045 1.403 . S
C1043 C1040 1.403 . S
C1043 C1044 1.524 . S
C1043 C1047 1.400 . S
C1044 H1029 0.960 . S
C1044 H1030 0.960 . S
C1044 H1031 0.960 . S
C1044 C1043 1.524 . S
C1045 C1042 1.403 . S
C1045 C1046 1.392 . S
C1045 C1049 1.495 . S
C1046 C1045 1.392 . S
C1046 C1047 1.385 . S
C1046 C1048 1.478 . S
C1047 H1041 0.930 . S
C1047 C1043 1.400 . S
C1047 C1046 1.385 . S
C1048 C1046 1.478 . S
C1048 C1050 1.381 . S
C1048 C1054 1.383 . S
C1049 C1045 1.495 . S
C1049 H1055 0.959 . S
C1049 H1056 0.961 . S
C1049 H1057 0.960 . S
C1050 C1048 1.381 . S
C1050 C1051 1.394 . S
C1050 H1058 0.930 . S
C1051 C1050 1.394 . S
C1051 C1052 1.383 . S
C1051 H1059 0.929 . S
C1052 C1051 1.383 . S
C1052 C1053 1.377 . S
C1053 H1037 0.930 . S
C1053 C1052 1.377 . S
C1053 C1054 1.379 . S
C1054 H1038 0.931 . S
C1054 C1048 1.383 . S
C1054 C1053 1.379 . S
H1055 C1049 0.959 . S
H1056 C1049 0.961 . S
H1057 C1049 0.960 . S
H1058 C1050 0.930 . S
H1059 C1051 0.929 . S
H1060 C1068 0.929 . S
H1061 C1070 0.930 . S
H1062 C1072 0.930 . S
H1063 C1075 0.929 . S
H1064 C1078 0.930 . S
H1065 C1080 0.960 . S
H1066 C1080 0.960 . S
H1067 C1080 0.960 . S
C1068 H1060 0.929 . S
C1068 C1069 1.377 . S
C1068 C1070 1.384 . S
C1069 C1068 1.377 . S
C1069 C1075 1.390 . S
C1070 H1061 0.930 . S
C1070 C1068 1.384 . S
C1070 C1071 1.372 . S
C1071 C1070 1.372 . S
C1071 C1072 1.400 . S
C1071 C1076 1.490 . S
C1072 H1062 0.930 . S
C1072 C1071 1.400 . S
C1072 C1075 1.386 . S
H1073 C1089 0.930 . S
H1074 C1090 0.931 . S
C1075 H1063 0.929 . S
C1075 C1069 1.390 . S
C1075 C1072 1.386 . S
C1076 C1071 1.490 . S
C1076 C1078 1.395 . S
C1076 C1079 1.403 . S
H1077 C1083 0.930 . S
C1078 H1064 0.930 . S
C1078 C1076 1.395 . S
C1078 C1081 1.403 . S
C1079 C1076 1.403 . S
C1079 C1080 1.524 . S
C1079 C1083 1.400 . S
C1080 H1065 0.960 . S
C1080 H1066 0.960 . S
C1080 H1067 0.960 . S
C1080 C1079 1.524 . S
C1081 C1078 1.403 . S
C1081 C1082 1.392 . S
C1081 C1085 1.495 . S
C1082 C1081 1.392 . S
C1082 C1083 1.385 . S
C1082 C1084 1.478 . S
C1083 H1077 0.930 . S
C1083 C1079 1.400 . S
C1083 C1082 1.385 . S
C1084 C1082 1.478 . S
C1084 C1086 1.381 . S
C1084 C1090 1.383 . S
C1085 C1081 1.495 . S
C1085 H1091 0.959 . S
C1085 H1092 0.961 . S
C1085 H1093 0.960 . S
C1086 C1084 1.381 . S
C1086 C1087 1.394 . S
C1086 H1094 0.930 . S
C1087 C1086 1.394 . S
C1087 C1088 1.383 . S
C1087 H1095 0.929 . S
C1088 C1087 1.383 . S
C1088 C1089 1.377 . S
C1089 H1073 0.930 . S
C1089 C1088 1.377 . S
C1089 C1090 1.379 . S
C1090 H1074 0.931 . S
C1090 C1084 1.383 . S
C1090 C1089 1.379 . S
H1091 C1085 0.959 . S
H1092 C1085 0.961 . S
H1093 C1085 0.960 . S
H1094 C1086 0.930 . S
H1095 C1087 0.929 . S
H1096 C1104 0.929 . S
H1097 C1106 0.930 . S
H1098 C1108 0.930 . S
H1099 C1111 0.929 . S
H1100 C1114 0.930 . S
H1101 C1116 0.960 1_565 S
H1102 C1116 0.960 . S
H1103 C1116 0.960 . S
C1104 H1096 0.929 . S
C1104 C1105 1.377 . S
C1104 C1106 1.384 . S
C1105 C1104 1.377 . S
C1105 C1111 1.390 . S
C1106 H1097 0.930 . S
C1106 C1104 1.384 . S
C1106 C1107 1.372 . S
C1107 C1106 1.372 . S
C1107 C1108 1.400 . S
C1107 C1112 1.490 . S
C1108 H1098 0.930 . S
C1108 C1107 1.400 . S
C1108 C1111 1.386 . S
H1109 C1125 0.930 . S
H1110 C1126 0.931 . S
C1111 H1099 0.929 . S
C1111 C1105 1.390 . S
C1111 C1108 1.386 . S
C1112 C1107 1.490 . S
C1112 C1114 1.395 . S
C1112 C1115 1.403 . S
H1113 C1119 0.930 1_565 S
C1114 H1100 0.930 . S
C1114 C1112 1.395 . S
C1114 C1117 1.403 . S
C1115 C1112 1.403 . S
C1115 C1116 1.524 . S
C1115 C1119 1.400 . S
C1116 H1101 0.960 1_545 S
C1116 H1102 0.960 . S
C1116 H1103 0.960 . S
C1116 C1115 1.524 . S
C1117 C1114 1.403 . S
C1117 C1118 1.392 . S
C1117 C1121 1.495 . S
C1118 C1117 1.392 . S
C1118 C1119 1.385 . S
C1118 C1120 1.478 1_545 S
C1119 H1113 0.930 1_545 S
C1119 C1115 1.400 . S
C1119 C1118 1.385 . S
C1120 C1118 1.478 1_565 S
C1120 C1122 1.381 . S
C1120 C1126 1.383 . S
C1121 C1117 1.495 . S
C1121 H1127 0.959 . S
C1121 H1128 0.961 . S
C1121 H1129 0.960 . S
C1122 C1120 1.381 . S
C1122 C1123 1.394 . S
C1122 H1130 0.930 1_565 S
C1123 C1122 1.394 . S
C1123 C1124 1.383 . S
C1123 H1131 0.929 . S
C1124 C1123 1.383 . S
C1124 C1125 1.377 . S
C1125 H1109 0.930 . S
C1125 C1124 1.377 . S
C1125 C1126 1.379 . S
C1126 H1110 0.931 . S
C1126 C1120 1.383 . S
C1126 C1125 1.379 . S
H1127 C1121 0.959 . S
H1128 C1121 0.961 . S
H1129 C1121 0.960 . S
H1130 C1122 0.930 1_545 S
H1131 C1123 0.929 . S
H1132 C1140 0.929 . S
H1133 C1142 0.930 . S
H1134 C1144 0.930 . S
H1135 C1147 0.929 . S
H1136 C1150 0.930 . S
H1137 C1152 0.960 . S
H1138 C1152 0.960 . S
H1139 C1152 0.960 . S
C1140 H1132 0.929 . S
C1140 C1141 1.377 . S
C1140 C1142 1.384 . S
C1141 C1140 1.377 . S
C1141 C1147 1.390 . S
C1142 H1133 0.930 . S
C1142 C1140 1.384 . S
C1142 C1143 1.372 . S
C1143 C1142 1.372 . S
C1143 C1144 1.400 . S
C1143 C1148 1.490 . S
C1144 H1134 0.930 . S
C1144 C1143 1.400 . S
C1144 C1147 1.386 . S
H1145 C1161 0.930 . S
H1146 C1162 0.931 1_556 S
C1147 H1135 0.929 . S
C1147 C1141 1.390 . S
C1147 C1144 1.386 . S
C1148 C1143 1.490 . S
C1148 C1150 1.395 . S
C1148 C1151 1.403 . S
H1149 C1155 0.914 1_554 S
C1150 H1136 0.930 . S
C1150 C1148 1.395 . S
C1150 C1153 1.403 . S
C1151 C1148 1.403 . S
C1151 C1152 1.524 . S
C1151 C1155 1.400 . S
C1152 H1137 0.960 . S
C1152 H1138 0.960 . S
C1152 H1139 0.960 . S
C1152 C1151 1.524 . S
C1153 C1150 1.403 . S
C1153 C1154 1.392 . S
C1153 C1157 1.495 . S
C1154 C1153 1.392 . S
C1154 C1155 1.385 . S
C1154 C1156 1.478 1_556 S
C1155 H1149 0.914 1_556 S
C1155 C1151 1.400 . S
C1155 C1154 1.385 . S
C1156 C1154 1.478 1_554 S
C1156 C1158 1.381 . S
C1156 C1162 1.383 . S
C1157 C1153 1.495 . S
C1157 H1163 0.959 . S
C1157 H1164 0.961 . S
C1157 H1165 0.960 . S
C1158 C1156 1.381 . S
C1158 C1159 1.394 . S
C1158 H1166 0.930 . S
C1159 C1158 1.394 . S
C1159 C1160 1.383 . S
C1159 H1167 0.929 . S
C1160 C1159 1.383 . S
C1160 C1161 1.377 . S
C1161 H1145 0.930 . S
C1161 C1160 1.377 . S
C1161 C1162 1.379 . S
C1162 H1146 0.931 1_554 S
C1162 C1156 1.383 . S
C1162 C1161 1.379 . S
H1163 C1157 0.959 . S
H1164 C1157 0.961 . S
H1165 C1157 0.960 . S
H1166 C1158 0.930 . S
H1167 C1159 0.929 . S
H1168 C1176 0.929 . S
H1169 C1178 0.930 . S
H1170 C1180 0.930 . S
H1171 C1183 0.929 . S
H1172 C1186 0.930 . S
H1173 C1188 0.960 . S
H1174 C1188 0.960 . S
H1175 C1188 0.960 . S
C1176 H1168 0.929 . S
C1176 C1177 1.377 . S
C1176 C1178 1.384 . S
C1177 C1176 1.377 . S
C1177 C1183 1.390 . S
C1178 H1169 0.930 . S
C1178 C1176 1.384 . S
C1178 C1179 1.372 . S
C1179 C1178 1.372 . S
C1179 C1180 1.400 . S
C1179 C1184 1.490 . S
C1180 H1170 0.930 . S
C1180 C1179 1.400 . S
C1180 C1183 1.386 . S
H1181 C1197 0.930 . S
H1182 C1198 0.931 . S
C1183 H1171 0.929 . S
C1183 C1177 1.390 . S
C1183 C1180 1.386 . S
C1184 C1179 1.490 . S
C1184 C1186 1.395 . S
C1184 C1187 1.403 . S
H1185 C1191 0.930 . S
C1186 H1172 0.930 . S
C1186 C1184 1.395 . S
C1186 C1189 1.403 . S
C1187 C1184 1.403 . S
C1187 C1188 1.524 . S
C1187 C1191 1.400 . S
C1188 H1173 0.960 . S
C1188 H1174 0.960 . S
C1188 H1175 0.960 . S
C1188 C1187 1.524 . S
C1189 C1186 1.403 . S
C1189 C1190 1.392 . S
C1189 C1193 1.495 1_545 S
C1190 C1189 1.392 . S
C1190 C1191 1.385 . S
C1190 C1192 1.478 1_545 S
C1191 H1185 0.930 . S
C1191 C1187 1.400 . S
C1191 C1190 1.385 . S
C1192 C1190 1.478 1_565 S
C1192 C1194 1.381 . S
C1192 C1198 1.383 . S
C1193 C1189 1.495 1_565 S
C1193 H1199 0.959 . S
C1193 H1200 0.961 . S
C1193 H1201 0.960 . S
C1194 C1192 1.381 . S
C1194 C1195 1.394 . S
C1194 H1202 0.930 . S
C1195 C1194 1.394 . S
C1195 C1196 1.383 . S
C1195 H1203 0.929 . S
C1196 C1195 1.383 . S
C1196 C1197 1.377 . S
C1197 H1181 0.930 . S
C1197 C1196 1.377 . S
C1197 C1198 1.379 . S
C1198 H1182 0.931 . S
C1198 C1192 1.383 . S
C1198 C1197 1.379 . S
H1199 C1193 0.959 . S
H1200 C1193 0.961 . S
H1201 C1193 0.960 . S
H1202 C1194 0.930 . S
H1203 C1195 0.929 . S
H1204 C1212 0.929 . S
H1205 C1214 0.930 . S
H1206 C1216 0.930 . S
H1207 C1219 0.929 . S
H1208 C1222 0.930 . S
H1209 C1224 0.960 . S
H1210 C1224 0.960 . S
H1211 C1224 0.960 . S
C1212 H1204 0.929 . S
C1212 C1213 1.377 . S
C1212 C1214 1.384 . S
C1213 C1212 1.377 . S
C1213 C1219 1.390 . S
C1214 H1205 0.930 . S
C1214 C1212 1.384 . S
C1214 C1215 1.372 . S
C1215 C1214 1.372 . S
C1215 C1216 1.400 . S
C1215 C1220 1.490 . S
C1216 H1206 0.930 . S
C1216 C1215 1.400 . S
C1216 C1219 1.386 . S
H1217 C1233 0.930 . S
H1218 C1234 0.931 . S
C1219 H1207 0.929 . S
C1219 C1213 1.390 . S
C1219 C1216 1.386 . S
C1220 C1215 1.490 . S
C1220 C1222 1.395 . S
C1220 C1223 1.403 . S
H1221 C1227 0.930 . S
C1222 H1208 0.930 . S
C1222 C1220 1.395 . S
C1222 C1225 1.403 . S
C1223 C1220 1.403 . S
C1223 C1224 1.524 . S
C1223 C1227 1.400 . S
C1224 H1209 0.960 . S
C1224 H1210 0.960 . S
C1224 H1211 0.960 . S
C1224 C1223 1.524 . S
C1225 C1222 1.403 . S
C1225 C1226 1.392 . S
C1225 C1229 1.495 . S
C1226 C1225 1.392 . S
C1226 C1227 1.385 . S
C1226 C1228 1.478 . S
C1227 H1221 0.930 . S
C1227 C1223 1.400 . S
C1227 C1226 1.385 . S
C1228 C1226 1.478 . S
C1228 C1230 1.381 . S
C1228 C1234 1.383 . S
C1229 C1225 1.495 . S
C1229 H1235 0.959 . S
C1229 H1236 0.961 . S
C1229 H1237 0.960 . S
C1230 C1228 1.381 . S
C1230 C1231 1.394 . S
C1230 H1238 0.930 . S
C1231 C1230 1.394 . S
C1231 C1232 1.383 . S
C1231 H1239 0.929 . S
C1232 C1231 1.383 . S
C1232 C1233 1.377 . S
C1233 H1217 0.930 . S
C1233 C1232 1.377 . S
C1233 C1234 1.379 . S
C1234 H1218 0.931 . S
C1234 C1228 1.383 . S
C1234 C1233 1.379 . S
H1235 C1229 0.959 . S
H1236 C1229 0.961 . S
H1237 C1229 0.960 . S
H1238 C1230 0.930 . S
H1239 C1231 0.929 . S
H1240 C1248 0.929 . S
H1241 C1250 0.930 1_565 S
H1242 C1252 0.930 . S
H1243 C1255 0.929 . S
H1244 C1258 0.930 . S
H1245 C1260 0.960 . S
H1246 C1260 0.960 . S
H1247 C1260 0.960 1_545 S
C1248 H1240 0.929 . S
C1248 C1249 1.377 . S
C1248 C1250 1.384 . S
C1249 C1248 1.377 . S
C1249 C1255 1.390 . S
C1250 H1241 0.930 1_545 S
C1250 C1248 1.384 . S
C1250 C1251 1.372 . S
C1251 C1250 1.372 . S
C1251 C1252 1.400 . S
C1251 C1256 1.490 1_545 S
C1252 H1242 0.930 . S
C1252 C1251 1.400 . S
C1252 C1255 1.386 . S
H1253 C1269 0.930 . S
H1254 C1270 0.931 . S
C1255 H1243 0.929 . S
C1255 C1249 1.390 . S
C1255 C1252 1.386 . S
C1256 C1251 1.490 1_565 S
C1256 C1258 1.395 . S
C1256 C1259 1.403 . S
H1257 C1263 0.930 . S
C1258 H1244 0.930 . S
C1258 C1256 1.395 . S
C1258 C1261 1.403 . S
C1259 C1256 1.403 . S
C1259 C1260 1.524 . S
C1259 C1263 1.400 . S
C1260 H1245 0.960 . S
C1260 H1246 0.960 . S
C1260 H1247 0.960 1_565 S
C1260 C1259 1.524 . S
C1261 C1258 1.403 . S
C1261 C1262 1.392 . S
C1261 C1265 1.495 . S
C1262 C1261 1.392 . S
C1262 C1263 1.385 . S
C1262 C1264 1.478 . S
C1263 H1257 0.930 . S
C1263 C1259 1.400 . S
C1263 C1262 1.385 . S
C1264 C1262 1.478 . S
C1264 C1266 1.381 . S
C1264 C1270 1.383 . S
C1265 C1261 1.495 . S
C1265 H1271 0.959 . S
C1265 H1272 0.961 . S
C1265 H1273 0.960 . S
C1266 C1264 1.381 . S
C1266 C1267 1.394 . S
C1266 H1274 0.930 . S
C1267 C1266 1.394 . S
C1267 C1268 1.383 . S
C1267 H1275 0.929 . S
C1268 C1267 1.383 . S
C1268 C1269 1.377 . S
C1269 H1253 0.930 . S
C1269 C1268 1.377 . S
C1269 C1270 1.379 . S
C1270 H1254 0.931 . S
C1270 C1264 1.383 . S
C1270 C1269 1.379 . S
H1271 C1265 0.959 . S
H1272 C1265 0.961 . S
H1273 C1265 0.960 . S
H1274 C1266 0.930 . S
H1275 C1267 0.929 . S
H1276 C1284 0.929 . S
H1277 C1286 0.930 . S
H1278 C1288 0.930 . S
H1279 C1291 0.929 . S
H1280 C1294 0.930 1_556 S
H1281 C1296 0.960 . S
H1282 C1296 0.960 . S
H1283 C1296 0.960 . S
C1284 H1276 0.929 . S
C1284 C1285 1.377 . S
C1284 C1286 1.384 . S
C1285 C1284 1.377 . S
C1285 C1291 1.390 . S
C1286 H1277 0.930 . S
C1286 C1284 1.384 . S
C1286 C1287 1.372 . S
C1287 C1286 1.372 . S
C1287 C1288 1.400 . S
C1287 C1292 1.490 1_556 S
C1288 H1278 0.930 . S
C1288 C1287 1.400 . S
C1288 C1291 1.386 . S
H1289 C1305 0.930 . S
H1290 C1306 0.931 . S
C1291 H1279 0.929 . S
C1291 C1285 1.390 . S
C1291 C1288 1.386 . S
C1292 C1287 1.490 1_554 S
C1292 C1294 1.395 . S
C1292 C1295 1.403 . S
H1293 C1299 0.930 . S
C1294 H1280 0.930 1_554 S
C1294 C1292 1.395 . S
C1294 C1297 1.403 . S
C1295 C1292 1.403 . S
C1295 C1296 1.524 . S
C1295 C1299 1.400 . S
C1296 H1281 0.960 . S
C1296 H1282 0.960 . S
C1296 H1283 0.960 . S
C1296 C1295 1.524 . S
C1297 C1294 1.403 . S
C1297 C1298 1.392 . S
C1297 C1301 1.495 . S
C1298 C1297 1.392 . S
C1298 C1299 1.385 . S
C1298 C1300 1.478 . S
C1299 H1293 0.930 . S
C1299 C1295 1.400 . S
C1299 C1298 1.385 . S
C1300 C1298 1.478 . S
C1300 C1302 1.381 . S
C1300 C1306 1.383 . S
C1301 C1297 1.495 . S
C1301 H1307 0.959 1_554 S
C1301 H1308 0.961 . S
C1301 H1309 0.960 . S
C1302 C1300 1.381 . S
C1302 C1303 1.394 . S
C1302 H1310 0.930 . S
C1303 C1302 1.394 . S
C1303 C1304 1.383 . S
C1303 H1311 0.929 . S
C1304 C1303 1.383 . S
C1304 C1305 1.377 . S
C1305 H1289 0.930 . S
C1305 C1304 1.377 . S
C1305 C1306 1.379 . S
C1306 H1290 0.931 . S
C1306 C1300 1.383 . S
C1306 C1305 1.379 . S
H1307 C1301 0.959 1_556 S
H1308 C1301 0.961 . S
H1309 C1301 0.960 . S
H1310 C1302 0.930 . S
H1311 C1303 0.929 . S
H1312 C1320 0.929 . S
H1313 C1322 0.930 . S
H1314 C1324 0.930 . S
H1315 C1327 0.929 . S
H1316 C1330 0.930 . S
H1317 C1332 0.960 . S
H1318 C1332 0.960 . S
H1319 C1332 0.960 . S
C1320 H1312 0.929 . S
C1320 C1321 1.377 . S
C1320 C1322 1.384 . S
C1321 C1320 1.377 . S
C1321 C1327 1.390 . S
C1322 H1313 0.930 . S
C1322 C1320 1.384 . S
C1322 C1323 1.372 . S
C1323 C1322 1.372 . S
C1323 C1324 1.400 . S
C1323 C1328 1.490 . S
C1324 H1314 0.930 . S
C1324 C1323 1.400 . S
C1324 C1327 1.386 . S
H1325 C1341 0.930 . S
H1326 C1342 0.931 . S
C1327 H1315 0.929 . S
C1327 C1321 1.390 . S
C1327 C1324 1.386 . S
C1328 C1323 1.490 . S
C1328 C1330 1.395 . S
C1328 C1331 1.403 . S
H1329 C1335 0.930 . S
C1330 H1316 0.930 . S
C1330 C1328 1.395 . S
C1330 C1333 1.403 . S
C1331 C1328 1.403 . S
C1331 C1332 1.524 . S
C1331 C1335 1.400 . S
C1332 H1317 0.960 . S
C1332 H1318 0.960 . S
C1332 H1319 0.960 . S
C1332 C1331 1.524 . S
C1333 C1330 1.403 . S
C1333 C1334 1.382 1_655 S
C1333 C1337 1.495 1_655 S
C1334 C1333 1.382 1_455 S
C1334 C1335 1.373 1_455 S
C1334 C1336 1.501 . S
C1335 H1329 0.930 . S
C1335 C1331 1.400 . S
C1335 C1334 1.373 1_655 S
C1336 C1334 1.501 . S
C1336 C1338 1.381 . S
C1336 C1342 1.383 . S
C1337 C1333 1.495 1_455 S
C1337 H1343 0.959 1_455 S
C1337 H1344 0.961 . S
C1337 H1345 0.953 1_455 S
C1338 C1336 1.381 . S
C1338 C1339 1.394 . S
C1338 H1346 0.901 1_455 S
C1339 C1338 1.394 . S
C1339 C1340 1.383 . S
C1339 H1347 0.929 . S
C1340 C1339 1.383 . S
C1340 C1341 1.377 . S
C1341 H1325 0.930 . S
C1341 C1340 1.377 . S
C1341 C1342 1.379 . S
C1342 H1326 0.931 . S
C1342 C1336 1.383 . S
C1342 C1341 1.379 . S
H1343 C1337 0.959 1_655 S
H1344 C1337 0.961 . S
H1345 C1337 0.953 1_655 S
H1346 C1338 0.901 1_655 S
H1347 C1339 0.929 . S
H1348 C1356 0.929 . S
H1349 C1358 0.930 . S
H1350 C1360 0.930 . S
H1351 C1363 0.929 . S
H1352 C1366 0.930 . S
H1353 C1368 0.960 . S
H1354 C1368 0.960 . S
H1355 C1368 0.960 . S
C1356 H1348 0.929 . S
C1356 C1357 1.377 . S
C1356 C1358 1.384 . S
C1357 C1356 1.377 . S
C1357 C1363 1.390 . S
C1358 H1349 0.930 . S
C1358 C1356 1.384 . S
C1358 C1359 1.372 . S
C1359 C1358 1.372 . S
C1359 C1360 1.400 . S
C1359 C1364 1.490 . S
C1360 H1350 0.930 . S
C1360 C1359 1.400 . S
C1360 C1363 1.386 . S
H1361 C1377 0.930 . S
H1362 C1378 0.931 . S
C1363 H1351 0.929 . S
C1363 C1357 1.390 . S
C1363 C1360 1.386 . S
C1364 C1359 1.490 . S
C1364 C1366 1.395 . S
C1364 C1367 1.403 . S
H1365 C1371 0.930 . S
C1366 H1352 0.930 . S
C1366 C1364 1.395 . S
C1366 C1369 1.403 . S
C1367 C1364 1.403 . S
C1367 C1368 1.524 . S
C1367 C1371 1.400 . S
C1368 H1353 0.960 . S
C1368 H1354 0.960 . S
C1368 H1355 0.960 . S
C1368 C1367 1.524 . S
C1369 C1366 1.403 . S
C1369 C1370 1.392 . S
C1369 C1373 1.495 . S
C1370 C1369 1.392 . S
C1370 C1371 1.385 . S
C1370 C1372 1.478 . S
C1371 H1365 0.930 . S
C1371 C1367 1.400 . S
C1371 C1370 1.385 . S
C1372 C1370 1.478 . S
C1372 C1374 1.381 . S
C1372 C1378 1.383 . S
C1373 C1369 1.495 . S
C1373 H1379 0.959 . S
C1373 H1380 0.961 . S
C1373 H1381 0.960 . S
C1374 C1372 1.381 . S
C1374 C1375 1.394 . S
C1374 H1382 0.930 . S
C1375 C1374 1.394 . S
C1375 C1376 1.383 . S
C1375 H1383 0.929 . S
C1376 C1375 1.383 . S
C1376 C1377 1.377 . S
C1377 H1361 0.930 . S
C1377 C1376 1.377 . S
C1377 C1378 1.379 . S
C1378 H1362 0.931 . S
C1378 C1372 1.383 . S
C1378 C1377 1.379 . S
H1379 C1373 0.959 . S
H1380 C1373 0.961 . S
H1381 C1373 0.960 . S
H1382 C1374 0.930 . S
H1383 C1375 0.929 . S
H1384 C1392 0.929 . S
H1385 C1394 0.930 . S
H1386 C1396 0.930 . S
H1387 C1399 0.929 . S
H1388 C1402 0.930 1_655 S
H1389 C1404 0.960 . S
H1390 C1404 0.960 . S
H1391 C1404 0.960 1_655 S
C1392 H1384 0.929 . S
C1392 C1393 1.377 . S
C1392 C1394 1.384 . S
C1393 C1392 1.377 . S
C1393 C1399 1.390 . S
C1394 H1385 0.930 . S
C1394 C1392 1.384 . S
C1394 C1395 1.372 . S
C1395 C1394 1.372 . S
C1395 C1396 1.400 . S
C1395 C1400 1.490 . S
C1396 H1386 0.930 . S
C1396 C1395 1.400 . S
C1396 C1399 1.386 . S
H1397 C1413 0.930 . S
H1398 C1414 0.931 . S
C1399 H1387 0.929 . S
C1399 C1393 1.390 . S
C1399 C1396 1.386 . S
C1400 C1395 1.490 . S
C1400 C1402 1.395 1_655 S
C1400 C1403 1.403 1_655 S
H1401 C1407 0.930 . S
C1402 H1388 0.930 1_455 S
C1402 C1400 1.395 1_455 S
C1402 C1405 1.403 . S
C1403 C1400 1.403 1_455 S
C1403 C1404 1.524 . S
C1403 C1407 1.400 . S
C1404 H1389 0.960 . S
C1404 H1390 0.960 . S
C1404 H1391 0.960 1_455 S
C1404 C1403 1.524 . S
C1405 C1402 1.403 . S
C1405 C1406 1.392 . S
C1405 C1409 1.495 . S
C1406 C1405 1.392 . S
C1406 C1407 1.385 . S
C1406 C1408 1.478 . S
C1407 H1401 0.930 . S
C1407 C1403 1.400 . S
C1407 C1406 1.385 . S
C1408 C1406 1.478 . S
C1408 C1410 1.381 . S
C1408 C1414 1.383 . S
C1409 C1405 1.495 . S
C1409 H1415 0.959 . S
C1409 H1416 0.961 . S
C1409 H1417 0.960 . S
C1410 C1408 1.381 . S
C1410 C1411 1.394 . S
C1410 H1418 0.930 . S
C1411 C1410 1.394 . S
C1411 C1412 1.383 . S
C1411 H1419 0.929 . S
C1412 C1411 1.383 . S
C1412 C1413 1.377 . S
C1413 H1397 0.930 . S
C1413 C1412 1.377 . S
C1413 C1414 1.379 . S
C1414 H1398 0.931 . S
C1414 C1408 1.383 . S
C1414 C1413 1.379 . S
H1415 C1409 0.959 . S
H1416 C1409 0.961 . S
H1417 C1409 0.960 . S
H1418 C1410 0.930 . S
H1419 C1411 0.929 . S
H1420 C1428 0.929 . S
H1421 C1430 0.930 . S
H1422 C1432 0.930 . S
H1423 C1435 0.929 . S
H1424 C1438 0.930 . S
H1425 C1440 0.960 . S
H1426 C1440 0.960 . S
H1427 C1440 0.960 . S
C1428 H1420 0.929 . S
C1428 C1429 1.377 . S
C1428 C1430 1.384 . S
C1429 C1428 1.377 . S
C1429 C1435 1.390 . S
C1430 H1421 0.930 . S
C1430 C1428 1.384 . S
C1430 C1431 1.372 . S
C1431 C1430 1.372 . S
C1431 C1432 1.400 . S
C1431 C1436 1.490 . S
C1432 H1422 0.930 . S
C1432 C1431 1.400 . S
C1432 C1435 1.386 . S
H1433 C1449 0.930 . S
H1434 C1450 0.931 . S
C1435 H1423 0.929 . S
C1435 C1429 1.390 . S
C1435 C1432 1.386 . S
C1436 C1431 1.490 . S
C1436 C1438 1.395 . S
C1436 C1439 1.403 1_655 S
H1437 C1443 0.930 . S
C1438 H1424 0.930 . S
C1438 C1436 1.395 . S
C1438 C1441 1.403 1_655 S
C1439 C1436 1.403 1_455 S
C1439 C1440 1.524 . S
C1439 C1443 1.400 . S
C1440 H1425 0.960 . S
C1440 H1426 0.960 . S
C1440 H1427 0.960 . S
C1440 C1439 1.524 . S
C1441 C1438 1.403 1_455 S
C1441 C1442 1.392 . S
C1441 C1445 1.495 1_455 S
C1442 C1441 1.392 . S
C1442 C1443 1.385 . S
C1442 C1444 1.478 . S
C1443 H1437 0.930 . S
C1443 C1439 1.400 . S
C1443 C1442 1.385 . S
C1444 C1442 1.478 . S
C1444 C1446 1.381 . S
C1444 C1450 1.383 . S
C1445 C1441 1.495 1_655 S
C1445 H1451 0.959 . S
C1445 H1452 0.961 . S
C1445 H1453 0.960 . S
C1446 C1444 1.381 . S
C1446 C1447 1.394 . S
C1446 H1454 0.930 . S
C1447 C1446 1.394 . S
C1447 C1448 1.383 . S
C1447 H1455 0.929 . S
C1448 C1447 1.383 . S
C1448 C1449 1.377 . S
C1449 H1433 0.930 . S
C1449 C1448 1.377 . S
C1449 C1450 1.379 . S
C1450 H1434 0.931 . S
C1450 C1444 1.383 . S
C1450 C1449 1.379 . S
H1451 C1445 0.959 . S
H1452 C1445 0.961 . S
H1453 C1445 0.960 . S
H1454 C1446 0.930 . S
H1455 C1447 0.929 . S
H1456 C1464 0.929 . S
H1457 C1466 0.930 . S
H1458 C1468 0.930 . S
H1459 C1471 0.929 . S
H1460 C1474 0.930 . S
H1461 C1476 0.960 . S
H1462 C1476 0.960 . S
H1463 C1476 0.960 . S
C1464 H1456 0.929 . S
C1464 C1465 1.377 . S
C1464 C1466 1.384 . S
C1465 C1464 1.377 . S
C1465 C1471 1.390 . S
C1466 H1457 0.930 . S
C1466 C1464 1.384 . S
C1466 C1467 1.372 . S
C1467 C1466 1.372 . S
C1467 C1468 1.400 . S
C1467 C1472 1.490 . S
C1468 H1458 0.930 . S
C1468 C1467 1.400 . S
C1468 C1471 1.386 . S
H1469 C1485 0.930 . S
H1470 C1486 0.931 . S
C1471 H1459 0.929 . S
C1471 C1465 1.390 . S
C1471 C1468 1.386 . S
C1472 C1467 1.490 . S
C1472 C1474 1.395 . S
C1472 C1475 1.403 . S
H1473 C1479 0.930 . S
C1474 H1460 0.930 . S
C1474 C1472 1.395 . S
C1474 C1477 1.403 . S
C1475 C1472 1.403 . S
C1475 C1476 1.524 . S
C1475 C1479 1.400 . S
C1476 H1461 0.960 . S
C1476 H1462 0.960 . S
C1476 H1463 0.960 . S
C1476 C1475 1.524 . S
C1477 C1474 1.403 . S
C1477 C1478 1.392 . S
C1477 C1481 1.495 . S
C1478 C1477 1.392 . S
C1478 C1479 1.385 . S
C1478 C1480 1.478 . S
C1479 H1473 0.930 . S
C1479 C1475 1.400 . S
C1479 C1478 1.385 . S
C1480 C1478 1.478 . S
C1480 C1482 1.381 . S
C1480 C1486 1.383 . S
C1481 C1477 1.495 . S
C1481 H1487 0.959 . S
C1481 H1488 0.961 . S
C1481 H1489 0.960 . S
C1482 C1480 1.381 . S
C1482 C1483 1.394 . S
C1482 H1490 0.930 . S
C1483 C1482 1.394 . S
C1483 C1484 1.383 . S
C1483 H1491 0.929 . S
C1484 C1483 1.383 . S
C1484 C1485 1.377 . S
C1485 H1469 0.930 . S
C1485 C1484 1.377 . S
C1485 C1486 1.379 . S
C1486 H1470 0.931 . S
C1486 C1480 1.383 . S
C1486 C1485 1.379 . S
H1487 C1481 0.959 . S
H1488 C1481 0.961 . S
H1489 C1481 0.960 . S
H1490 C1482 0.930 . S
H1491 C1483 0.929 . S
H1492 C1500 0.929 . S
H1493 C1502 0.930 . S
H1494 C1504 0.930 . S
H1495 C1507 0.929 . S
H1496 C1510 0.930 . S
H1497 C1512 0.960 . S
H1498 C1512 0.960 1_655 S
H1499 C1512 0.960 1_655 S
C1500 H1492 0.929 . S
C1500 C1501 1.377 . S
C1500 C1502 1.384 . S
C1501 C1500 1.377 . S
C1501 C1507 1.390 . S
C1502 H1493 0.930 . S
C1502 C1500 1.384 . S
C1502 C1503 1.372 . S
C1503 C1502 1.372 . S
C1503 C1504 1.400 . S
C1503 C1508 1.490 . S
C1504 H1494 0.930 . S
C1504 C1503 1.400 . S
C1504 C1507 1.386 . S
H1505 C1521 0.930 . S
H1506 C1522 0.931 . S
C1507 H1495 0.929 . S
C1507 C1501 1.390 . S
C1507 C1504 1.386 . S
C1508 C1503 1.490 . S
C1508 C1510 1.395 . S
C1508 C1511 1.403 . S
H1509 C1515 0.930 . S
C1510 H1496 0.930 . S
C1510 C1508 1.395 . S
C1510 C1513 1.403 . S
C1511 C1508 1.403 . S
C1511 C1512 1.524 1_655 S
C1511 C1515 1.400 1_655 S
C1512 H1497 0.960 . S
C1512 H1498 0.960 1_455 S
C1512 H1499 0.960 1_455 S
C1512 C1511 1.524 1_455 S
C1513 C1510 1.403 . S
C1513 C1514 1.392 . S
C1513 C1517 1.495 . S
C1514 C1513 1.392 . S
C1514 C1515 1.385 1_655 S
C1514 C1516 1.478 1_655 S
C1515 H1509 0.930 . S
C1515 C1511 1.400 1_455 S
C1515 C1514 1.385 1_455 S
C1516 C1514 1.478 1_455 S
C1516 C1518 1.381 . S
C1516 C1522 1.383 . S
C1517 C1513 1.495 . S
C1517 H1523 0.959 . S
C1517 H1524 0.961 . S
C1517 H1525 0.960 . S
C1518 C1516 1.381 . S
C1518 C1519 1.394 . S
C1518 H1526 0.930 . S
C1519 C1518 1.394 . S
C1519 C1520 1.383 . S
C1519 H1527 0.929 . S
C1520 C1519 1.383 . S
C1520 C1521 1.377 . S
C1521 H1505 0.930 . S
C1521 C1520 1.377 . S
C1521 C1522 1.379 . S
C1522 H1506 0.931 . S
C1522 C1516 1.383 . S
C1522 C1521 1.379 . S
H1523 C1517 0.959 . S
H1524 C1517 0.961 . S
H1525 C1517 0.960 . S
H1526 C1518 0.930 . S
H1527 C1519 0.929 . S
H1528 C1536 0.929 . S
H1529 C1538 0.930 . S
H1530 C1540 0.930 . S
H1531 C1543 0.929 . S
H1532 C1546 0.930 . S
H1533 C1548 0.960 . S
H1534 C1548 0.960 . S
H1535 C1548 0.960 . S
C1536 H1528 0.929 . S
C1536 C1537 1.377 . S
C1536 C1538 1.384 . S
C1537 C1536 1.377 . S
C1537 C1543 1.390 . S
C1538 H1529 0.930 . S
C1538 C1536 1.384 . S
C1538 C1539 1.372 . S
C1539 C1538 1.372 . S
C1539 C1540 1.400 . S
C1539 C1544 1.490 . S
C1540 H1530 0.930 . S
C1540 C1539 1.400 . S
C1540 C1543 1.386 . S
H1541 C1557 0.930 . S
H1542 C1558 0.931 . S
C1543 H1531 0.929 . S
C1543 C1537 1.390 . S
C1543 C1540 1.386 . S
C1544 C1539 1.490 . S
C1544 C1546 1.395 . S
C1544 C1547 1.403 . S
H1545 C1551 0.930 . S
C1546 H1532 0.930 . S
C1546 C1544 1.395 . S
C1546 C1549 1.403 . S
C1547 C1544 1.403 . S
C1547 C1548 1.524 . S
C1547 C1551 1.400 . S
C1548 H1533 0.960 . S
C1548 H1534 0.960 . S
C1548 H1535 0.960 . S
C1548 C1547 1.524 . S
C1549 C1546 1.403 . S
C1549 C1550 1.392 . S
C1549 C1553 1.495 . S
C1550 C1549 1.392 . S
C1550 C1551 1.385 . S
C1550 C1552 1.478 . S
C1551 H1545 0.930 . S
C1551 C1547 1.400 . S
C1551 C1550 1.385 . S
C1552 C1550 1.478 . S
C1552 C1554 1.381 . S
C1552 C1558 1.383 . S
C1553 C1549 1.495 . S
C1553 H1559 0.959 . S
C1553 H1560 0.961 . S
C1553 H1561 0.960 . S
C1554 C1552 1.381 . S
C1554 C1555 1.394 . S
C1554 H1562 0.930 . S
C1555 C1554 1.394 . S
C1555 C1556 1.383 . S
C1555 H1563 0.929 . S
C1556 C1555 1.383 . S
C1556 C1557 1.377 . S
C1557 H1541 0.930 . S
C1557 C1556 1.377 . S
C1557 C1558 1.379 . S
C1558 H1542 0.931 . S
C1558 C1552 1.383 . S
C1558 C1557 1.379 . S
H1559 C1553 0.959 . S
H1560 C1553 0.961 . S
H1561 C1553 0.960 . S
H1562 C1554 0.930 . S
H1563 C1555 0.929 . S
H1564 C1572 0.929 . S
H1565 C1574 0.930 . S
H1566 C1576 0.930 . S
H1567 C1579 0.929 . S
H1568 C1582 0.930 . S
H1569 C1584 0.960 1_565 S
H1570 C1584 0.960 . S
H1571 C1584 0.960 . S
C1572 H1564 0.929 . S
C1572 C1573 1.377 . S
C1572 C1574 1.384 . S
C1573 C1572 1.377 . S
C1573 C1579 1.390 . S
C1574 H1565 0.930 . S
C1574 C1572 1.384 . S
C1574 C1575 1.372 . S
C1575 C1574 1.372 . S
C1575 C1576 1.400 . S
C1575 C1580 1.490 . S
C1576 H1566 0.930 . S
C1576 C1575 1.400 . S
C1576 C1579 1.386 . S
H1577 C1593 0.930 . S
H1578 C1594 0.931 . S
C1579 H1567 0.929 . S
C1579 C1573 1.390 . S
C1579 C1576 1.386 . S
C1580 C1575 1.490 . S
C1580 C1582 1.395 . S
C1580 C1583 1.403 . S
H1581 C1587 0.930 1_565 S
C1582 H1568 0.930 . S
C1582 C1580 1.395 . S
C1582 C1585 1.403 . S
C1583 C1580 1.403 . S
C1583 C1584 1.524 . S
C1583 C1587 1.400 . S
C1584 H1569 0.960 1_545 S
C1584 H1570 0.960 . S
C1584 H1571 0.960 . S
C1584 C1583 1.524 . S
C1585 C1582 1.403 . S
C1585 C1586 1.392 . S
C1585 C1589 1.495 . S
C1586 C1585 1.392 . S
C1586 C1587 1.385 . S
C1586 C1588 1.478 1_545 S
C1587 H1581 0.930 1_545 S
C1587 C1583 1.400 . S
C1587 C1586 1.385 . S
C1588 C1586 1.478 1_565 S
C1588 C1590 1.381 . S
C1588 C1594 1.383 . S
C1589 C1585 1.495 . S
C1589 H1595 0.959 . S
C1589 H1596 0.961 . S
C1589 H1597 0.960 . S
C1590 C1588 1.381 . S
C1590 C1591 1.394 . S
C1590 H1598 0.930 . S
C1591 C1590 1.394 . S
C1591 C1592 1.383 . S
C1591 H1599 0.929 . S
C1592 C1591 1.383 . S
C1592 C1593 1.377 . S
C1593 H1577 0.930 . S
C1593 C1592 1.377 . S
C1593 C1594 1.379 . S
C1594 H1578 0.931 . S
C1594 C1588 1.383 . S
C1594 C1593 1.379 . S
H1595 C1589 0.959 . S
H1596 C1589 0.961 . S
H1597 C1589 0.960 . S
H1598 C1590 0.930 . S
H1599 C1591 0.929 . S
H1600 C1608 0.929 . S
H1601 C1610 0.930 . S
H1602 C1612 0.930 . S
H1603 C1615 0.929 . S
H1604 C1618 0.930 . S
H1605 C1620 0.960 . S
H1606 C1620 0.960 . S
H1607 C1620 0.960 . S
C1608 H1600 0.929 . S
C1608 C1609 1.377 . S
C1608 C1610 1.384 . S
C1609 C1608 1.377 . S
C1609 C1615 1.390 . S
C1610 H1601 0.930 . S
C1610 C1608 1.384 . S
C1610 C1611 1.372 . S
C1611 C1610 1.372 . S
C1611 C1612 1.400 . S
C1611 C1616 1.490 . S
C1612 H1602 0.930 . S
C1612 C1611 1.400 . S
C1612 C1615 1.386 . S
H1613 C1629 0.930 . S
H1614 C1630 0.931 . S
C1615 H1603 0.929 . S
C1615 C1609 1.390 . S
C1615 C1612 1.386 . S
C1616 C1611 1.490 . S
C1616 C1618 1.395 . S
C1616 C1619 1.403 . S
H1617 C1623 0.930 . S
C1618 H1604 0.930 . S
C1618 C1616 1.395 . S
C1618 C1621 1.403 . S
C1619 C1616 1.403 . S
C1619 C1620 1.524 . S
C1619 C1623 1.400 . S
C1620 H1605 0.960 . S
C1620 H1606 0.960 . S
C1620 H1607 0.960 . S
C1620 C1619 1.524 . S
C1621 C1618 1.403 . S
C1621 C1622 1.392 . S
C1621 C1625 1.495 . S
C1622 C1621 1.392 . S
C1622 C1623 1.385 . S
C1622 C1624 1.478 . S
C1623 H1617 0.930 . S
C1623 C1619 1.400 . S
C1623 C1622 1.385 . S
C1624 C1622 1.478 . S
C1624 C1626 1.381 . S
C1624 C1630 1.383 . S
C1625 C1621 1.495 . S
C1625 H1631 0.959 . S
C1625 H1632 0.961 . S
C1625 H1633 0.960 . S
C1626 C1624 1.381 . S
C1626 C1627 1.394 . S
C1626 H1634 0.930 . S
C1627 C1626 1.394 . S
C1627 C1628 1.383 . S
C1627 H1635 0.929 . S
C1628 C1627 1.383 . S
C1628 C1629 1.377 . S
C1629 H1613 0.930 . S
C1629 C1628 1.377 . S
C1629 C1630 1.379 . S
C1630 H1614 0.931 . S
C1630 C1624 1.383 . S
C1630 C1629 1.379 . S
H1631 C1625 0.959 . S
H1632 C1625 0.961 . S
H1633 C1625 0.960 . S
H1634 C1626 0.930 . S
H1635 C1627 0.929 . S
H1636 C1644 0.929 . S
H1637 C1646 0.930 . S
H1638 C1648 0.930 . S
H1639 C1651 0.929 . S
H1640 C1654 0.930 . S
H1641 C1656 0.960 . S
H1642 C1656 0.960 . S
H1643 C1656 0.960 . S
C1644 H1636 0.929 . S
C1644 C1645 1.377 . S
C1644 C1646 1.384 . S
C1645 C1644 1.377 . S
C1645 C1651 1.390 . S
C1646 H1637 0.930 . S
C1646 C1644 1.384 . S
C1646 C1647 1.372 . S
C1647 C1646 1.372 . S
C1647 C1648 1.400 . S
C1647 C1652 1.490 . S
C1648 H1638 0.930 . S
C1648 C1647 1.400 . S
C1648 C1651 1.386 . S
H1649 C1665 0.930 . S
H1650 C1666 0.931 . S
C1651 H1639 0.929 . S
C1651 C1645 1.390 . S
C1651 C1648 1.386 . S
C1652 C1647 1.490 . S
C1652 C1654 1.395 . S
C1652 C1655 1.403 . S
H1653 C1659 0.930 1_545 S
C1654 H1640 0.930 . S
C1654 C1652 1.395 . S
C1654 C1657 1.403 . S
C1655 C1652 1.403 . S
C1655 C1656 1.524 . S
C1655 C1659 1.400 . S
C1656 H1641 0.960 . S
C1656 H1642 0.960 . S
C1656 H1643 0.960 . S
C1656 C1655 1.524 . S
C1657 C1654 1.403 . S
C1657 C1658 1.392 . S
C1657 C1661 1.495 . S
C1658 C1657 1.392 . S
C1658 C1659 1.385 . S
C1658 C1660 1.478 1_565 S
C1659 H1653 0.930 1_565 S
C1659 C1655 1.400 . S
C1659 C1658 1.385 . S
C1660 C1658 1.478 1_545 S
C1660 C1662 1.381 . S
C1660 C1666 1.383 . S
C1661 C1657 1.495 . S
C1661 H1667 0.959 . S
C1661 H1668 0.961 . S
C1661 H1669 0.960 . S
C1662 C1660 1.381 . S
C1662 C1663 1.394 . S
C1662 H1670 0.930 1_545 S
C1663 C1662 1.394 . S
C1663 C1664 1.383 . S
C1663 H1671 0.929 . S
C1664 C1663 1.383 . S
C1664 C1665 1.377 . S
C1665 H1649 0.930 . S
C1665 C1664 1.377 . S
C1665 C1666 1.379 . S
C1666 H1650 0.931 . S
C1666 C1660 1.383 . S
C1666 C1665 1.379 . S
H1667 C1661 0.959 . S
H1668 C1661 0.961 . S
H1669 C1661 0.960 . S
H1670 C1662 0.930 1_565 S
H1671 C1663 0.929 . S
H1672 C1680 0.929 . S
H1673 C1682 0.930 . S
H1674 C1684 0.930 . S
H1675 C1687 0.929 . S
H1676 C1690 0.930 . S
H1677 C1692 0.960 . S
H1678 C1692 0.960 . S
H1679 C1692 0.960 . S
C1680 H1672 0.929 . S
C1680 C1681 1.377 . S
C1680 C1682 1.384 . S
C1681 C1680 1.377 . S
C1681 C1687 1.390 . S
C1682 H1673 0.930 . S
C1682 C1680 1.384 . S
C1682 C1683 1.372 . S
C1683 C1682 1.372 . S
C1683 C1684 1.400 . S
C1683 C1688 1.490 1_556 S
C1684 H1674 0.930 . S
C1684 C1683 1.400 . S
C1684 C1687 1.386 . S
H1685 C1701 0.930 . S
H1686 C1702 0.931 . S
C1687 H1675 0.929 . S
C1687 C1681 1.390 . S
C1687 C1684 1.386 . S
C1688 C1683 1.490 1_554 S
C1688 C1690 1.395 . S
C1688 C1691 1.403 1_554 S
H1689 C1695 0.930 . S
C1690 H1676 0.930 . S
C1690 C1688 1.395 . S
C1690 C1693 1.403 . S
C1691 C1688 1.403 1_556 S
C1691 C1692 1.524 . S
C1691 C1695 1.400 1_556 S
C1692 H1677 0.960 . S
C1692 H1678 0.960 . S
C1692 H1679 0.960 . S
C1692 C1691 1.524 . S
C1693 C1690 1.403 . S
C1693 C1694 1.392 . S
C1693 C1697 1.495 . S
C1694 C1693 1.392 . S
C1694 C1695 1.385 . S
C1694 C1696 1.478 . S
C1695 H1689 0.930 . S
C1695 C1691 1.400 1_554 S
C1695 C1694 1.385 . S
C1696 C1694 1.478 . S
C1696 C1698 1.381 . S
C1696 C1702 1.383 . S
C1697 C1693 1.495 . S
C1697 H1703 0.959 . S
C1697 H1704 0.961 . S
C1697 H1705 0.960 . S
C1698 C1696 1.381 . S
C1698 C1699 1.394 . S
C1698 H1706 0.930 . S
C1699 C1698 1.394 . S
C1699 C1700 1.383 . S
C1699 H1707 0.929 . S
C1700 C1699 1.383 . S
C1700 C1701 1.377 . S
C1701 H1685 0.930 . S
C1701 C1700 1.377 . S
C1701 C1702 1.379 . S
C1702 H1686 0.931 . S
C1702 C1696 1.383 . S
C1702 C1701 1.379 . S
H1703 C1697 0.959 . S
H1704 C1697 0.961 . S
H1705 C1697 0.960 . S
H1706 C1698 0.930 . S
H1707 C1699 0.929 . S
H1708 C1716 0.929 . S
H1709 C1718 0.930 . S
H1710 C1720 0.930 . S
H1711 C1723 0.929 . S
H1712 C1726 0.930 1_545 S
H1713 C1728 0.960 . S
H1714 C1728 0.960 . S
H1715 C1728 0.960 . S
C1716 H1708 0.929 . S
C1716 C1717 1.377 . S
C1716 C1718 1.384 . S
C1717 C1716 1.377 . S
C1717 C1723 1.390 . S
C1718 H1709 0.930 . S
C1718 C1716 1.384 . S
C1718 C1719 1.372 . S
C1719 C1718 1.372 . S
C1719 C1720 1.400 . S
C1719 C1724 1.490 1_545 S
C1720 H1710 0.930 . S
C1720 C1719 1.400 . S
C1720 C1723 1.386 . S
H1721 C1737 0.930 . S
H1722 C1738 0.931 . S
C1723 H1711 0.929 . S
C1723 C1717 1.390 . S
C1723 C1720 1.386 . S
C1724 C1719 1.490 1_565 S
C1724 C1726 1.394 . S
C1724 C1727 1.403 . S
H1725 C1731 0.930 . S
C1726 H1712 0.930 1_565 S
C1726 C1724 1.394 . S
C1726 C1729 1.403 . S
C1727 C1724 1.403 . S
C1727 C1728 1.524 . S
C1727 C1731 1.400 . S
C1728 H1713 0.960 . S
C1728 H1714 0.960 . S
C1728 H1715 0.960 . S
C1728 C1727 1.524 . S
C1729 C1726 1.403 . S
C1729 C1730 1.392 . S
C1729 C1733 1.495 . S
C1730 C1729 1.392 . S
C1730 C1731 1.385 . S
C1730 C1732 1.478 . S
C1731 H1725 0.930 . S
C1731 C1727 1.400 . S
C1731 C1730 1.385 . S
C1732 C1730 1.478 . S
C1732 C1734 1.381 . S
C1732 C1738 1.383 . S
C1733 C1729 1.495 . S
C1733 H1739 0.959 1_565 S
C1733 H1740 0.961 . S
C1733 H1741 0.960 . S
C1734 C1732 1.381 . S
C1734 C1735 1.394 . S
C1734 H1742 0.930 . S
C1735 C1734 1.394 . S
C1735 C1736 1.383 . S
C1735 H1743 0.929 . S
C1736 C1735 1.383 . S
C1736 C1737 1.377 . S
C1737 H1721 0.930 . S
C1737 C1736 1.377 . S
C1737 C1738 1.379 . S
C1738 H1722 0.931 . S
C1738 C1732 1.383 . S
C1738 C1737 1.379 . S
H1739 C1733 0.959 1_545 S
H1740 C1733 0.961 . S
H1741 C1733 0.960 . S
H1742 C1734 0.930 . S
H1743 C1735 0.929 . S
H1744 C1752 0.929 . S
H1745 C1754 0.930 . S
H1746 C1756 0.930 . S
H1747 C1759 0.929 . S
H1748 C1762 0.930 . S
H1749 C1764 0.960 . S
H1750 C1764 0.960 . S
H1751 C1764 0.960 . S
C1752 H1744 0.929 . S
C1752 C1753 1.377 . S
C1752 C1754 1.384 . S
C1753 C1752 1.377 . S
C1753 C1759 1.390 . S
C1754 H1745 0.930 . S
C1754 C1752 1.384 . S
C1754 C1755 1.372 . S
C1755 C1754 1.372 . S
C1755 C1756 1.400 . S
C1755 C1760 1.490 . S
C1756 H1746 0.930 . S
C1756 C1755 1.400 . S
C1756 C1759 1.386 . S
H1757 C1773 0.930 . S
H1758 C1774 0.931 . S
C1759 H1747 0.929 . S
C1759 C1753 1.390 . S
C1759 C1756 1.386 . S
C1760 C1755 1.490 . S
C1760 C1762 1.395 . S
C1760 C1763 1.403 . S
H1761 C1767 0.930 . S
C1762 H1748 0.930 . S
C1762 C1760 1.395 . S
C1762 C1765 1.403 . S
C1763 C1760 1.403 . S
C1763 C1764 1.524 . S
C1763 C1767 1.400 . S
C1764 H1749 0.960 . S
C1764 H1750 0.960 . S
C1764 H1751 0.960 . S
C1764 C1763 1.524 . S
C1765 C1762 1.403 . S
C1765 C1766 1.392 . S
C1765 C1769 1.495 . S
C1766 C1765 1.392 . S
C1766 C1767 1.385 . S
C1766 C1768 1.478 . S
C1767 H1761 0.930 . S
C1767 C1763 1.400 . S
C1767 C1766 1.385 . S
C1768 C1766 1.478 . S
C1768 C1770 1.381 . S
C1768 C1774 1.383 . S
C1769 C1765 1.495 . S
C1769 H1775 0.959 . S
C1769 H1776 0.961 . S
C1769 H1777 0.960 . S
C1770 C1768 1.381 . S
C1770 C1771 1.394 . S
C1770 H1778 0.930 . S
C1771 C1770 1.394 . S
C1771 C1772 1.383 . S
C1771 H1779 0.929 . S
C1772 C1771 1.383 . S
C1772 C1773 1.377 . S
C1773 H1757 0.930 . S
C1773 C1772 1.377 . S
C1773 C1774 1.379 . S
C1774 H1758 0.931 . S
C1774 C1768 1.383 . S
C1774 C1773 1.379 . S
H1775 C1769 0.959 . S
H1776 C1769 0.961 . S
H1777 C1769 0.960 . S
H1778 C1770 0.930 . S
H1779 C1771 0.929 . S
H1780 C1788 0.929 . S
H1781 C1790 0.930 . S
H1782 C1792 0.930 . S
H1783 C1795 0.929 . S
H1784 C1798 0.930 . S
H1785 C1800 0.960 . S
H1786 C1800 0.960 . S
H1787 C1800 0.960 . S
C1788 H1780 0.929 . S
C1788 C1789 1.377 . S
C1788 C1790 1.384 . S
C1789 C1788 1.377 . S
C1789 C1795 1.390 . S
C1790 H1781 0.930 . S
C1790 C1788 1.384 . S
C1790 C1791 1.372 . S
C1791 C1790 1.372 . S
C1791 C1792 1.400 . S
C1791 C1796 1.490 1_565 S
C1792 H1782 0.930 . S
C1792 C1791 1.400 . S
C1792 C1795 1.386 . S
H1793 C1809 0.930 . S
H1794 C1810 0.931 . S
C1795 H1783 0.929 . S
C1795 C1789 1.390 . S
C1795 C1792 1.386 . S
C1796 C1791 1.490 1_545 S
C1796 C1798 1.395 . S
C1796 C1799 1.403 . S
H1797 C1803 0.930 . S
C1798 H1784 0.930 . S
C1798 C1796 1.395 . S
C1798 C1801 1.403 . S
C1799 C1796 1.403 . S
C1799 C1800 1.524 1_545 S
C1799 C1803 1.400 . S
C1800 H1785 0.960 . S
C1800 H1786 0.960 . S
C1800 H1787 0.960 . S
C1800 C1799 1.524 1_565 S
C1801 C1798 1.403 . S
C1801 C1802 1.392 . S
C1801 C1805 1.495 . S
C1802 C1801 1.392 . S
C1802 C1803 1.385 . S
C1802 C1804 1.478 . S
C1803 H1797 0.930 . S
C1803 C1799 1.400 . S
C1803 C1802 1.385 . S
C1804 C1802 1.478 . S
C1804 C1806 1.381 . S
C1804 C1810 1.383 . S
C1805 C1801 1.495 . S
C1805 H1811 0.959 . S
C1805 H1812 0.961 . S
C1805 H1813 0.960 . S
C1806 C1804 1.381 . S
C1806 C1807 1.394 . S
C1806 H1814 0.930 . S
C1807 C1806 1.394 . S
C1807 C1808 1.383 . S
C1807 H1815 0.929 . S
C1808 C1807 1.383 . S
C1808 C1809 1.377 . S
C1809 H1793 0.930 . S
C1809 C1808 1.377 . S
C1809 C1810 1.379 . S
C1810 H1794 0.931 . S
C1810 C1804 1.383 . S
C1810 C1809 1.379 . S
H1811 C1805 0.959 . S
H1812 C1805 0.961 . S
H1813 C1805 0.960 . S
H1814 C1806 0.930 . S
H1815 C1807 0.929 . S
H1816 C1824 0.929 . S
H1817 C1826 0.930 . S
H1818 C1828 0.930 1_556 S
H1819 C1831 0.929 . S
H1820 C1834 0.930 1_554 S
H1821 C1836 0.960 . S
H1822 C1836 0.960 . S
H1823 C1836 0.960 . S
C1824 H1816 0.929 . S
C1824 C1825 1.377 . S
C1824 C1826 1.384 . S
C1825 C1824 1.377 . S
C1825 C1831 1.390 . S
C1826 H1817 0.930 . S
C1826 C1824 1.384 . S
C1826 C1827 1.372 . S
C1827 C1826 1.372 . S
C1827 C1828 1.400 . S
C1827 C1832 1.490 1_554 S
C1828 H1818 0.930 1_554 S
C1828 C1827 1.400 . S
C1828 C1831 1.386 . S
H1829 C1845 0.930 . S
H1830 C1846 0.931 . S
C1831 H1819 0.929 . S
C1831 C1825 1.390 . S
C1831 C1828 1.386 . S
C1832 C1827 1.490 1_556 S
C1832 C1834 1.395 . S
C1832 C1835 1.403 . S
H1833 C1839 0.930 . S
C1834 H1820 0.930 1_556 S
C1834 C1832 1.395 . S
C1834 C1837 1.403 . S
C1835 C1832 1.403 . S
C1835 C1836 1.524 . S
C1835 C1839 1.400 . S
C1836 H1821 0.960 . S
C1836 H1822 0.960 . S
C1836 H1823 0.960 . S
C1836 C1835 1.524 . S
C1837 C1834 1.403 . S
C1837 C1838 1.392 . S
C1837 C1841 1.495 . S
C1838 C1837 1.392 . S
C1838 C1839 1.385 . S
C1838 C1840 1.478 . S
C1839 H1833 0.930 . S
C1839 C1835 1.400 . S
C1839 C1838 1.385 . S
C1840 C1838 1.478 . S
C1840 C1842 1.381 . S
C1840 C1846 1.383 . S
C1841 C1837 1.495 . S
C1841 H1847 0.959 1_556 S
C1841 H1848 0.961 . S
C1841 H1849 0.960 . S
C1842 C1840 1.381 . S
C1842 C1843 1.394 . S
C1842 H1850 0.930 . S
C1843 C1842 1.394 . S
C1843 C1844 1.383 . S
C1843 H1851 0.929 . S
C1844 C1843 1.383 . S
C1844 C1845 1.377 . S
C1845 H1829 0.930 . S
C1845 C1844 1.377 . S
C1845 C1846 1.379 . S
C1846 H1830 0.931 . S
C1846 C1840 1.383 . S
C1846 C1845 1.379 . S
H1847 C1841 0.959 1_554 S
H1848 C1841 0.961 . S
H1849 C1841 0.960 . S
H1850 C1842 0.930 . S
H1851 C1843 0.929 . S
H1852 C1860 0.929 . S
H1853 C1862 0.930 . S
H1854 C1864 0.930 . S
H1855 C1867 0.929 . S
H1856 C1870 0.930 . S
H1857 C1872 0.960 . S
H1858 C1872 0.960 . S
H1859 C1872 0.960 . S
C1860 H1852 0.929 . S
C1860 C1861 1.377 . S
C1860 C1862 1.384 . S
C1861 C1860 1.377 . S
C1861 C1867 1.390 . S
C1862 H1853 0.930 . S
C1862 C1860 1.384 . S
C1862 C1863 1.372 . S
C1863 C1862 1.372 . S
C1863 C1864 1.400 . S
C1863 C1868 1.490 1_655 S
C1864 H1854 0.930 . S
C1864 C1863 1.400 . S
C1864 C1867 1.386 . S
H1865 C1881 0.930 . S
H1866 C1882 0.931 . S
C1867 H1855 0.929 . S
C1867 C1861 1.390 . S
C1867 C1864 1.386 . S
C1868 C1863 1.490 1_455 S
C1868 C1870 1.395 1_455 S
C1868 C1871 1.403 . S
H1869 C1875 0.930 . S
C1870 H1856 0.930 . S
C1870 C1868 1.395 1_655 S
C1870 C1873 1.403 1_655 S
C1871 C1868 1.403 . S
C1871 C1872 1.524 . S
C1871 C1875 1.400 . S
C1872 H1857 0.960 . S
C1872 H1858 0.960 . S
C1872 H1859 0.960 . S
C1872 C1871 1.524 . S
C1873 C1870 1.403 1_455 S
C1873 C1874 1.392 . S
C1873 C1877 1.497 1_455 S
C1874 C1873 1.392 . S
C1874 C1875 1.385 . S
C1874 C1876 1.478 . S
C1875 H1869 0.930 . S
C1875 C1871 1.400 . S
C1875 C1874 1.385 . S
C1876 C1874 1.478 . S
C1876 C1878 1.381 . S
C1876 C1882 1.383 . S
C1877 C1873 1.497 1_655 S
C1877 H1883 0.955 . S
C1877 H1884 0.963 1_655 S
C1877 H1885 0.961 1_655 S
C1878 C1876 1.381 . S
C1878 C1879 1.394 . S
C1878 H1886 0.930 . S
C1879 C1878 1.394 . S
C1879 C1880 1.383 . S
C1879 H1887 0.929 . S
C1880 C1879 1.383 . S
C1880 C1881 1.377 . S
C1881 H1865 0.930 . S
C1881 C1880 1.377 . S
C1881 C1882 1.379 . S
C1882 H1866 0.931 . S
C1882 C1876 1.383 . S
C1882 C1881 1.379 . S
H1883 C1877 0.955 . S
H1884 C1877 0.963 1_455 S
H1885 C1877 0.961 1_455 S
H1886 C1878 0.930 . S
H1887 C1879 0.929 . S
H1888 C1896 0.929 . S
H1889 C1898 0.930 . S
H1890 C1900 0.930 . S
H1891 C1903 0.929 . S
H1892 C1906 0.930 . S
H1893 C1908 0.960 . S
H1894 C1908 0.960 . S
H1895 C1908 0.960 . S
C1896 H1888 0.929 . S
C1896 C1897 1.377 . S
C1896 C1898 1.384 . S
C1897 C1896 1.377 . S
C1897 C1903 1.390 . S
C1898 H1889 0.930 . S
C1898 C1896 1.384 . S
C1898 C1899 1.372 . S
C1899 C1898 1.372 . S
C1899 C1900 1.400 . S
C1899 C1904 1.490 . S
C1900 H1890 0.930 . S
C1900 C1899 1.400 . S
C1900 C1903 1.386 . S
H1901 C1917 0.930 . S
H1902 C1918 0.931 . S
C1903 H1891 0.929 . S
C1903 C1897 1.390 . S
C1903 C1900 1.386 . S
C1904 C1899 1.490 . S
C1904 C1906 1.395 . S
C1904 C1907 1.403 . S
H1905 C1911 0.930 . S
C1906 H1892 0.930 . S
C1906 C1904 1.395 . S
C1906 C1909 1.403 . S
C1907 C1904 1.403 . S
C1907 C1908 1.524 . S
C1907 C1911 1.400 . S
C1908 H1893 0.960 . S
C1908 H1894 0.960 . S
C1908 H1895 0.960 . S
C1908 C1907 1.524 . S
C1909 C1906 1.403 . S
C1909 C1910 1.392 . S
C1909 C1913 1.495 . S
C1910 C1909 1.392 . S
C1910 C1911 1.385 . S
C1910 C1912 1.478 . S
C1911 H1905 0.930 . S
C1911 C1907 1.400 . S
C1911 C1910 1.385 . S
C1912 C1910 1.478 . S
C1912 C1914 1.381 . S
C1912 C1918 1.383 . S
C1913 C1909 1.495 . S
C1913 H1919 0.959 . S
C1913 H1920 0.961 . S
C1913 H1921 0.960 . S
C1914 C1912 1.381 . S
C1914 C1915 1.394 . S
C1914 H1922 0.930 . S
C1915 C1914 1.394 . S
C1915 C1916 1.383 . S
C1915 H1923 0.929 . S
C1916 C1915 1.383 . S
C1916 C1917 1.377 . S
C1917 H1901 0.930 . S
C1917 C1916 1.377 . S
C1917 C1918 1.379 . S
C1918 H1902 0.931 . S
C1918 C1912 1.383 . S
C1918 C1917 1.379 . S
H1919 C1913 0.959 . S
H1920 C1913 0.961 . S
H1921 C1913 0.960 . S
H1922 C1914 0.930 . S
H1923 C1915 0.929 . S
H1924 C1932 0.929 . S
H1925 C1934 0.930 1_655 S
H1926 C1936 0.930 . S
H1927 C1939 0.929 . S
H1928 C1942 0.930 . S
H1929 C1944 0.960 . S
H1930 C1944 0.960 . S
H1931 C1944 0.960 . S
C1932 H1924 0.929 . S
C1932 C1933 1.377 . S
C1932 C1934 1.384 . S
C1933 C1932 1.377 . S
C1933 C1939 1.390 . S
C1934 H1925 0.930 1_455 S
C1934 C1932 1.384 . S
C1934 C1935 1.372 . S
C1935 C1934 1.372 . S
C1935 C1936 1.400 . S
C1935 C1940 1.490 1_455 S
C1936 H1926 0.930 . S
C1936 C1935 1.400 . S
C1936 C1939 1.386 . S
H1937 C1953 0.930 . S
H1938 C1954 0.931 . S
C1939 H1927 0.929 . S
C1939 C1933 1.390 . S
C1939 C1936 1.386 . S
C1940 C1935 1.490 1_655 S
C1940 C1942 1.395 . S
C1940 C1943 1.403 . S
H1941 C1947 0.930 . S
C1942 H1928 0.930 . S
C1942 C1940 1.395 . S
C1942 C1945 1.403 . S
C1943 C1940 1.403 . S
C1943 C1944 1.524 1_655 S
C1943 C1947 1.400 . S
C1944 H1929 0.960 . S
C1944 H1930 0.960 . S
C1944 H1931 0.960 . S
C1944 C1943 1.524 1_455 S
C1945 C1942 1.403 . S
C1945 C1946 1.392 . S
C1945 C1949 1.495 . S
C1946 C1945 1.392 . S
C1946 C1947 1.385 . S
C1946 C1948 1.478 . S
C1947 H1941 0.930 . S
C1947 C1943 1.400 . S
C1947 C1946 1.385 . S
C1948 C1946 1.478 . S
C1948 C1950 1.381 . S
C1948 C1954 1.383 . S
C1949 C1945 1.495 . S
C1949 H1955 0.959 . S
C1949 H1956 0.961 . S
C1949 H1957 0.960 . S
C1950 C1948 1.381 . S
C1950 C1951 1.394 . S
C1950 H1958 0.930 . S
C1951 C1950 1.394 . S
C1951 C1952 1.383 . S
C1951 H1959 0.929 . S
C1952 C1951 1.383 . S
C1952 C1953 1.377 . S
C1953 H1937 0.930 . S
C1953 C1952 1.377 . S
C1953 C1954 1.379 . S
C1954 H1938 0.931 . S
C1954 C1948 1.383 . S
C1954 C1953 1.379 . S
H1955 C1949 0.959 . S
H1956 C1949 0.961 . S
H1957 C1949 0.960 . S
H1958 C1950 0.930 . S
H1959 C1951 0.929 . S
H1960 C1968 0.929 . S
H1961 C1970 0.930 . S
H1962 C1972 0.930 . S
H1963 C1975 0.929 . S
H1964 C1978 0.930 . S
H1965 C1980 0.960 . S
H1966 C1980 0.960 . S
H1967 C1980 0.960 . S
C1968 H1960 0.929 . S
C1968 C1969 1.377 . S
C1968 C1970 1.384 . S
C1969 C1968 1.377 . S
C1969 C1975 1.390 . S
C1970 H1961 0.930 . S
C1970 C1968 1.384 . S
C1970 C1971 1.372 . S
C1971 C1970 1.372 . S
C1971 C1972 1.400 . S
C1971 C1976 1.490 1_455 S
C1972 H1962 0.930 . S
C1972 C1971 1.400 . S
C1972 C1975 1.386 . S
H1973 C1989 0.930 . S
H1974 C1990 0.931 . S
C1975 H1963 0.929 . S
C1975 C1969 1.390 . S
C1975 C1972 1.386 . S
C1976 C1971 1.490 1_655 S
C1976 C1978 1.395 1_655 S
C1976 C1979 1.403 . S
H1977 C1983 0.930 . S
C1978 H1964 0.930 . S
C1978 C1976 1.395 1_455 S
C1978 C1981 1.403 1_455 S
C1979 C1976 1.403 . S
C1979 C1980 1.524 . S
C1979 C1983 1.400 . S
C1980 H1965 0.960 . S
C1980 H1966 0.960 . S
C1980 H1967 0.960 . S
C1980 C1979 1.524 . S
C1981 C1978 1.403 1_655 S
C1981 C1982 1.392 . S
C1981 C1985 1.481 1_655 S
C1982 C1981 1.392 . S
C1982 C1983 1.385 . S
C1982 C1984 1.478 . S
C1983 H1977 0.930 . S
C1983 C1979 1.400 . S
C1983 C1982 1.385 . S
C1984 C1982 1.478 . S
C1984 C1986 1.381 . S
C1984 C1990 1.383 . S
C1985 C1981 1.481 1_455 S
C1985 H1991 1.000 . S
C1985 H1992 0.946 1_455 S
C1985 H1993 0.950 1_455 S
C1986 C1984 1.381 . S
C1986 C1987 1.394 . S
C1986 H1994 0.930 . S
C1987 C1986 1.394 . S
C1987 C1988 1.383 . S
C1987 H1995 0.929 . S
C1988 C1987 1.383 . S
C1988 C1989 1.377 . S
C1989 H1973 0.930 . S
C1989 C1988 1.377 . S
C1989 C1990 1.379 . S
C1990 H1974 0.931 . S
C1990 C1984 1.383 . S
C1990 C1989 1.379 . S
H1991 C1985 1.000 . S
H1992 C1985 0.946 1_655 S
H1993 C1985 0.950 1_655 S
H1994 C1986 0.930 . S
H1995 C1987 0.929 . S
H1996 C2004 0.929 . S
H1997 C2006 0.930 . S
H1998 C2008 0.930 . S
H1999 C2011 0.929 . S
H2000 C2014 0.930 . S
H2001 C2016 0.960 . S
H2002 C2016 0.960 . S
H2003 C2016 0.960 . S
C2004 H1996 0.929 . S
C2004 C2005 1.377 . S
C2004 C2006 1.384 . S
C2005 C2004 1.377 . S
C2005 C2011 1.390 . S
C2006 H1997 0.930 . S
C2006 C2004 1.384 . S
C2006 C2007 1.372 . S
C2007 C2006 1.372 . S
C2007 C2008 1.400 . S
C2007 C2012 1.490 . S
C2008 H1998 0.930 . S
C2008 C2007 1.400 . S
C2008 C2011 1.386 . S
H2009 C2025 0.930 . S
H2010 C2026 0.931 . S
C2011 H1999 0.929 . S
C2011 C2005 1.390 . S
C2011 C2008 1.386 . S
C2012 C2007 1.490 . S
C2012 C2014 1.395 . S
C2012 C2015 1.403 . S
H2013 C2019 0.930 . S
C2014 H2000 0.930 . S
C2014 C2012 1.395 . S
C2014 C2017 1.403 . S
C2015 C2012 1.403 . S
C2015 C2016 1.524 . S
C2015 C2019 1.400 . S
C2016 H2001 0.960 . S
C2016 H2002 0.960 . S
C2016 H2003 0.960 . S
C2016 C2015 1.524 . S
C2017 C2014 1.403 . S
C2017 C2018 1.392 . S
C2017 C2021 1.495 . S
C2018 C2017 1.392 . S
C2018 C2019 1.385 . S
C2018 C2020 1.478 . S
C2019 H2013 0.930 . S
C2019 C2015 1.400 . S
C2019 C2018 1.385 . S
C2020 C2018 1.478 . S
C2020 C2022 1.381 . S
C2020 C2026 1.383 . S
C2021 C2017 1.495 . S
C2021 H2027 0.959 . S
C2021 H2028 0.961 . S
C2021 H2029 0.960 . S
C2022 C2020 1.381 . S
C2022 C2023 1.394 . S
C2022 H2030 0.930 . S
C2023 C2022 1.394 . S
C2023 C2024 1.383 . S
C2023 H2031 0.929 . S
C2024 C2023 1.383 . S
C2024 C2025 1.377 . S
C2025 H2009 0.930 . S
C2025 C2024 1.377 . S
C2025 C2026 1.379 . S
C2026 H2010 0.931 . S
C2026 C2020 1.383 . S
C2026 C2025 1.379 . S
H2027 C2021 0.959 . S
H2028 C2021 0.961 . S
H2029 C2021 0.960 . S
H2030 C2022 0.930 . S
H2031 C2023 0.929 . S
H2032 C2040 0.929 . S
H2033 C2042 0.930 . S
H2034 C2044 0.930 . S
H2035 C2047 0.929 . S
H2036 C2050 0.930 . S
H2037 C2052 0.960 . S
H2038 C2052 0.960 . S
H2039 C2052 0.960 . S
C2040 H2032 0.929 . S
C2040 C2041 1.377 . S
C2040 C2042 1.384 . S
C2041 C2040 1.377 . S
C2041 C2047 1.390 . S
C2042 H2033 0.930 . S
C2042 C2040 1.384 . S
C2042 C2043 1.372 . S
C2043 C2042 1.372 . S
C2043 C2044 1.400 . S
C2043 C2048 1.490 1_655 S
C2044 H2034 0.930 . S
C2044 C2043 1.400 . S
C2044 C2047 1.386 . S
H2045 C2061 0.930 . S
H2046 C2062 0.931 . S
C2047 H2035 0.929 . S
C2047 C2041 1.390 . S
C2047 C2044 1.386 . S
C2048 C2043 1.490 1_455 S
C2048 C2050 1.395 . S
C2048 C2051 1.403 . S
H2049 C2055 0.930 . S
C2050 H2036 0.930 . S
C2050 C2048 1.395 . S
C2050 C2053 1.403 . S
C2051 C2048 1.403 . S
C2051 C2052 1.524 1_455 S
C2051 C2055 1.400 . S
C2052 H2037 0.960 . S
C2052 H2038 0.960 . S
C2052 H2039 0.960 . S
C2052 C2051 1.524 1_655 S
C2053 C2050 1.403 . S
C2053 C2054 1.392 . S
C2053 C2057 1.495 . S
C2054 C2053 1.392 . S
C2054 C2055 1.385 . S
C2054 C2056 1.478 . S
C2055 H2049 0.930 . S
C2055 C2051 1.400 . S
C2055 C2054 1.385 . S
C2056 C2054 1.478 . S
C2056 C2058 1.381 . S
C2056 C2062 1.383 . S
C2057 C2053 1.495 . S
C2057 H2063 0.959 . S
C2057 H2064 0.961 . S
C2057 H2065 0.960 . S
C2058 C2056 1.381 . S
C2058 C2059 1.394 . S
C2058 H2066 0.930 . S
C2059 C2058 1.394 . S
C2059 C2060 1.383 . S
C2059 H2067 0.929 . S
C2060 C2059 1.383 . S
C2060 C2061 1.377 . S
C2061 H2045 0.930 . S
C2061 C2060 1.377 . S
C2061 C2062 1.379 . S
C2062 H2046 0.931 . S
C2062 C2056 1.383 . S
C2062 C2061 1.379 . S
H2063 C2057 0.959 . S
H2064 C2057 0.961 . S
H2065 C2057 0.960 . S
H2066 C2058 0.930 . S
H2067 C2059 0.929 . S
H2068 C2076 0.929 . S
H2069 C2078 0.930 . S
H2070 C2080 0.930 . S
H2071 C2083 0.929 . S
H2072 C2086 0.930 . S
H2073 C2088 0.960 . S
H2074 C2088 0.960 . S
H2075 C2088 0.960 . S
C2076 H2068 0.929 . S
C2076 C2077 1.377 . S
C2076 C2078 1.384 . S
C2077 C2076 1.377 . S
C2077 C2083 1.390 . S
C2078 H2069 0.930 . S
C2078 C2076 1.384 . S
C2078 C2079 1.372 . S
C2079 C2078 1.372 . S
C2079 C2080 1.400 . S
C2079 C2084 1.490 . S
C2080 H2070 0.930 . S
C2080 C2079 1.400 . S
C2080 C2083 1.386 . S
H2081 C2097 0.930 . S
H2082 C2098 0.931 . S
C2083 H2071 0.929 . S
C2083 C2077 1.390 . S
C2083 C2080 1.386 . S
C2084 C2079 1.490 . S
C2084 C2086 1.395 . S
C2084 C2087 1.403 . S
H2085 C2091 0.930 . S
C2086 H2072 0.930 . S
C2086 C2084 1.395 . S
C2086 C2089 1.403 . S
C2087 C2084 1.403 . S
C2087 C2088 1.524 . S
C2087 C2091 1.400 . S
C2088 H2073 0.960 . S
C2088 H2074 0.960 . S
C2088 H2075 0.960 . S
C2088 C2087 1.524 . S
C2089 C2086 1.403 . S
C2089 C2090 1.392 . S
C2089 C2093 1.495 . S
C2090 C2089 1.392 . S
C2090 C2091 1.385 . S
C2090 C2092 1.478 . S
C2091 H2085 0.930 . S
C2091 C2087 1.400 . S
C2091 C2090 1.385 . S
C2092 C2090 1.478 . S
C2092 C2094 1.381 . S
C2092 C2098 1.383 . S
C2093 C2089 1.495 . S
C2093 H2099 0.959 . S
C2093 H2100 0.961 . S
C2093 H2101 0.960 . S
C2094 C2092 1.381 . S
C2094 C2095 1.394 . S
C2094 H2102 0.930 . S
C2095 C2094 1.394 . S
C2095 C2096 1.383 . S
C2095 H2103 0.929 . S
C2096 C2095 1.383 . S
C2096 C2097 1.377 . S
C2097 H2081 0.930 . S
C2097 C2096 1.377 . S
C2097 C2098 1.379 . S
C2098 H2082 0.931 . S
C2098 C2092 1.383 . S
C2098 C2097 1.379 . S
H2099 C2093 0.959 . S
H2100 C2093 0.961 . S
H2101 C2093 0.960 . S
H2102 C2094 0.930 . S
H2103 C2095 0.929 . S
H2104 C2112 0.929 . S
H2105 C2114 0.930 . S
H2106 C2116 0.930 . S
H2107 C2119 0.929 . S
H2108 C2122 0.930 . S
H2109 C2124 0.960 . S
H2110 C2124 0.960 . S
H2111 C2124 0.960 . S
C2112 H2104 0.929 . S
C2112 C2113 1.377 . S
C2112 C2114 1.384 . S
C2113 C2112 1.377 . S
C2113 C2119 1.390 . S
C2114 H2105 0.930 . S
C2114 C2112 1.384 . S
C2114 C2115 1.372 . S
C2115 C2114 1.372 . S
C2115 C2116 1.400 . S
C2115 C2120 1.490 . S
C2116 H2106 0.930 . S
C2116 C2115 1.400 . S
C2116 C2119 1.386 . S
H2117 C2133 0.930 . S
H2118 C2134 0.931 . S
C2119 H2107 0.929 . S
C2119 C2113 1.390 . S
C2119 C2116 1.386 . S
C2120 C2115 1.490 . S
C2120 C2122 1.395 . S
C2120 C2123 1.403 . S
H2121 C2127 0.930 . S
C2122 H2108 0.930 . S
C2122 C2120 1.395 . S
C2122 C2125 1.403 . S
C2123 C2120 1.403 . S
C2123 C2124 1.524 . S
C2123 C2127 1.400 . S
C2124 H2109 0.960 . S
C2124 H2110 0.960 . S
C2124 H2111 0.960 . S
C2124 C2123 1.524 . S
C2125 C2122 1.403 . S
C2125 C2126 1.392 . S
C2125 C2129 1.495 . S
C2126 C2125 1.392 . S
C2126 C2127 1.385 . S
C2126 C2128 1.478 . S
C2127 H2121 0.930 . S
C2127 C2123 1.400 . S
C2127 C2126 1.385 . S
C2128 C2126 1.478 . S
C2128 C2130 1.381 . S
C2128 C2134 1.383 . S
C2129 C2125 1.495 . S
C2129 H2135 0.959 . S
C2129 H2136 0.961 . S
C2129 H2137 0.960 . S
C2130 C2128 1.381 . S
C2130 C2131 1.394 . S
C2130 H2138 0.930 . S
C2131 C2130 1.394 . S
C2131 C2132 1.383 . S
C2131 H2139 0.929 . S
C2132 C2131 1.383 . S
C2132 C2133 1.377 . S
C2133 H2117 0.930 . S
C2133 C2132 1.377 . S
C2133 C2134 1.379 . S
C2134 H2118 0.931 . S
C2134 C2128 1.383 . S
C2134 C2133 1.379 . S
H2135 C2129 0.959 . S
H2136 C2129 0.961 . S
H2137 C2129 0.960 . S
H2138 C2130 0.930 . S
H2139 C2131 0.929 . S
H2140 C2148 0.929 . S
H2141 C2150 0.930 . S
H2142 C2152 0.930 1_556 S
H2143 C2155 0.929 . S
H2144 C2158 0.930 1_554 S
H2145 C2160 0.960 . S
H2146 C2160 0.960 . S
H2147 C2160 0.960 . S
C2148 H2140 0.929 . S
C2148 C2149 1.377 . S
C2148 C2150 1.384 . S
C2149 C2148 1.377 . S
C2149 C2155 1.390 . S
C2150 H2141 0.930 . S
C2150 C2148 1.384 . S
C2150 C2151 1.372 . S
C2151 C2150 1.372 . S
C2151 C2152 1.400 . S
C2151 C2156 1.490 1_554 S
C2152 H2142 0.930 1_554 S
C2152 C2151 1.400 . S
C2152 C2155 1.386 . S
H2153 C2169 0.930 . S
H2154 C2170 0.931 . S
C2155 H2143 0.929 . S
C2155 C2149 1.390 . S
C2155 C2152 1.386 . S
C2156 C2151 1.490 1_556 S
C2156 C2158 1.395 . S
C2156 C2159 1.403 . S
H2157 C2163 0.930 . S
C2158 H2144 0.930 1_556 S
C2158 C2156 1.395 . S
C2158 C2161 1.403 . S
C2159 C2156 1.403 . S
C2159 C2160 1.524 . S
C2159 C2163 1.400 . S
C2160 H2145 0.960 . S
C2160 H2146 0.960 . S
C2160 H2147 0.960 . S
C2160 C2159 1.524 . S
C2161 C2158 1.403 . S
C2161 C2162 1.392 . S
C2161 C2165 1.495 . S
C2162 C2161 1.392 . S
C2162 C2163 1.385 . S
C2162 C2164 1.478 . S
C2163 H2157 0.930 . S
C2163 C2159 1.400 . S
C2163 C2162 1.385 . S
C2164 C2162 1.478 . S
C2164 C2166 1.381 . S
C2164 C2170 1.383 . S
C2165 C2161 1.495 . S
C2165 H2171 0.959 1_556 S
C2165 H2172 0.961 . S
C2165 H2173 0.960 . S
C2166 C2164 1.381 . S
C2166 C2167 1.394 . S
C2166 H2174 0.930 . S
C2167 C2166 1.394 . S
C2167 C2168 1.383 . S
C2167 H2175 0.929 . S
C2168 C2167 1.383 . S
C2168 C2169 1.377 . S
C2169 H2153 0.930 . S
C2169 C2168 1.377 . S
C2169 C2170 1.379 . S
C2170 H2154 0.931 . S
C2170 C2164 1.383 . S
C2170 C2169 1.379 . S
H2171 C2165 0.959 1_554 S
H2172 C2165 0.961 . S
H2173 C2165 0.960 . S
H2174 C2166 0.930 . S
H2175 C2167 0.929 . S
H2176 C2184 0.929 . S
H2177 C2186 0.930 . S
H2178 C2188 0.930 . S
H2179 C2191 0.929 . S
H2180 C2194 0.930 . S
H2181 C2196 0.960 . S
H2182 C2196 0.960 . S
H2183 C2196 0.960 . S
C2184 H2176 0.929 . S
C2184 C2185 1.377 . S
C2184 C2186 1.384 . S
C2185 C2184 1.377 . S
C2185 C2191 1.390 . S
C2186 H2177 0.930 . S
C2186 C2184 1.384 . S
C2186 C2187 1.372 . S
C2187 C2186 1.372 . S
C2187 C2188 1.400 . S
C2187 C2192 1.490 . S
C2188 H2178 0.930 . S
C2188 C2187 1.400 . S
C2188 C2191 1.386 . S
H2189 C2205 0.930 . S
H2190 C2206 0.931 . S
C2191 H2179 0.929 . S
C2191 C2185 1.390 . S
C2191 C2188 1.386 . S
C2192 C2187 1.490 . S
C2192 C2194 1.395 . S
C2192 C2195 1.403 . S
H2193 C2199 0.930 . S
C2194 H2180 0.930 . S
C2194 C2192 1.395 . S
C2194 C2197 1.403 . S
C2195 C2192 1.403 . S
C2195 C2196 1.524 . S
C2195 C2199 1.400 . S
C2196 H2181 0.960 . S
C2196 H2182 0.960 . S
C2196 H2183 0.960 . S
C2196 C2195 1.524 . S
C2197 C2194 1.403 . S
C2197 C2198 1.392 . S
C2197 C2201 1.495 . S
C2198 C2197 1.392 . S
C2198 C2199 1.385 . S
C2198 C2200 1.478 . S
C2199 H2193 0.930 . S
C2199 C2195 1.400 . S
C2199 C2198 1.385 . S
C2200 C2198 1.478 . S
C2200 C2202 1.381 . S
C2200 C2206 1.383 . S
C2201 C2197 1.495 . S
C2201 H2207 0.959 . S
C2201 H2208 0.961 . S
C2201 H2209 0.960 . S
C2202 C2200 1.381 . S
C2202 C2203 1.394 . S
C2202 H2210 0.930 . S
C2203 C2202 1.394 . S
C2203 C2204 1.383 . S
C2203 H2211 0.929 . S
C2204 C2203 1.383 . S
C2204 C2205 1.377 . S
C2205 H2189 0.930 . S
C2205 C2204 1.377 . S
C2205 C2206 1.379 . S
C2206 H2190 0.931 . S
C2206 C2200 1.383 . S
C2206 C2205 1.379 . S
H2207 C2201 0.959 . S
H2208 C2201 0.961 . S
H2209 C2201 0.960 . S
H2210 C2202 0.930 . S
H2211 C2203 0.929 . S
H2212 C2220 0.929 . S
H2213 C2222 0.930 . S
H2214 C2224 0.930 . S
H2215 C2227 0.929 . S
H2216 C2230 0.930 . S
H2217 C2232 0.960 . S
H2218 C2232 0.960 . S
H2219 C2232 0.960 . S
C2220 H2212 0.929 . S
C2220 C2221 1.377 . S
C2220 C2222 1.384 . S
C2221 C2220 1.377 . S
C2221 C2227 1.390 . S
C2222 H2213 0.930 . S
C2222 C2220 1.384 . S
C2222 C2223 1.372 . S
C2223 C2222 1.372 . S
C2223 C2224 1.400 . S
C2223 C2228 1.490 . S
C2224 H2214 0.930 . S
C2224 C2223 1.400 . S
C2224 C2227 1.386 . S
H2225 C2241 0.930 . S
H2226 C2242 0.931 . S
C2227 H2215 0.929 . S
C2227 C2221 1.390 . S
C2227 C2224 1.386 . S
C2228 C2223 1.490 . S
C2228 C2230 1.395 . S
C2228 C2231 1.403 . S
H2229 C2235 0.930 . S
C2230 H2216 0.930 . S
C2230 C2228 1.395 . S
C2230 C2233 1.403 . S
C2231 C2228 1.403 . S
C2231 C2232 1.524 . S
C2231 C2235 1.400 . S
C2232 H2217 0.960 . S
C2232 H2218 0.960 . S
C2232 H2219 0.960 . S
C2232 C2231 1.524 . S
C2233 C2230 1.403 . S
C2233 C2234 1.392 . S
C2233 C2237 1.495 . S
C2234 C2233 1.392 . S
C2234 C2235 1.385 . S
C2234 C2236 1.478 . S
C2235 H2229 0.930 . S
C2235 C2231 1.400 . S
C2235 C2234 1.385 . S
C2236 C2234 1.478 . S
C2236 C2238 1.381 . S
C2236 C2242 1.383 . S
C2237 C2233 1.495 . S
C2237 H2243 0.959 . S
C2237 H2244 0.961 . S
C2237 H2245 0.960 . S
C2238 C2236 1.381 . S
C2238 C2239 1.394 . S
C2238 H2246 0.930 . S
C2239 C2238 1.394 . S
C2239 C2240 1.383 . S
C2239 H2247 0.929 . S
C2240 C2239 1.383 . S
C2240 C2241 1.377 . S
C2241 H2225 0.930 . S
C2241 C2240 1.377 . S
C2241 C2242 1.379 . S
C2242 H2226 0.931 . S
C2242 C2236 1.383 . S
C2242 C2241 1.379 . S
H2243 C2237 0.959 . S
H2244 C2237 0.961 . S
H2245 C2237 0.960 . S
H2246 C2238 0.930 . S
H2247 C2239 0.929 . S
H2248 C2256 0.929 . S
H2249 C2258 0.930 . S
H2250 C2260 0.930 . S
H2251 C2263 0.929 . S
H2252 C2266 0.930 . S
H2253 C2268 0.960 . S
H2254 C2268 0.960 . S
H2255 C2268 0.960 . S
C2256 H2248 0.929 . S
C2256 C2257 1.377 . S
C2256 C2258 1.384 . S
C2257 C2256 1.377 . S
C2257 C2263 1.390 . S
C2258 H2249 0.930 . S
C2258 C2256 1.384 . S
C2258 C2259 1.372 . S
C2259 C2258 1.372 . S
C2259 C2260 1.400 . S
C2259 C2264 1.490 . S
C2260 H2250 0.930 . S
C2260 C2259 1.400 . S
C2260 C2263 1.386 . S
H2261 C2277 0.930 . S
H2262 C2278 0.931 . S
C2263 H2251 0.929 . S
C2263 C2257 1.390 . S
C2263 C2260 1.386 . S
C2264 C2259 1.490 . S
C2264 C2266 1.395 . S
C2264 C2267 1.403 . S
H2265 C2271 0.930 . S
C2266 H2252 0.930 . S
C2266 C2264 1.395 . S
C2266 C2269 1.403 . S
C2267 C2264 1.403 . S
C2267 C2268 1.524 . S
C2267 C2271 1.400 . S
C2268 H2253 0.960 . S
C2268 H2254 0.960 . S
C2268 H2255 0.960 . S
C2268 C2267 1.524 . S
C2269 C2266 1.403 . S
C2269 C2270 1.392 . S
C2269 C2273 1.495 . S
C2270 C2269 1.392 . S
C2270 C2271 1.385 . S
C2270 C2272 1.478 . S
C2271 H2265 0.930 . S
C2271 C2267 1.400 . S
C2271 C2270 1.385 . S
C2272 C2270 1.478 . S
C2272 C2274 1.381 . S
C2272 C2278 1.383 . S
C2273 C2269 1.495 . S
C2273 H2279 0.959 . S
C2273 H2280 0.961 . S
C2273 H2281 0.960 . S
C2274 C2272 1.381 . S
C2274 C2275 1.394 . S
C2274 H2282 0.930 . S
C2275 C2274 1.394 . S
C2275 C2276 1.383 . S
C2275 H2283 0.929 . S
C2276 C2275 1.383 . S
C2276 C2277 1.377 . S
C2277 H2261 0.930 . S
C2277 C2276 1.377 . S
C2277 C2278 1.379 . S
C2278 H2262 0.931 . S
C2278 C2272 1.383 . S
C2278 C2277 1.379 . S
H2279 C2273 0.959 . S
H2280 C2273 0.961 . S
H2281 C2273 0.960 . S
H2282 C2274 0.930 . S
H2283 C2275 0.929 . S
H2284 C2292 0.929 . S
H2285 C2294 0.930 . S
H2286 C2296 0.930 . S
H2287 C2299 0.929 . S
H2288 C2302 0.930 . S
H2289 C2304 0.960 . S
H2290 C2304 0.960 . S
H2291 C2304 0.960 . S
C2292 H2284 0.929 . S
C2292 C2293 1.377 . S
C2292 C2294 1.384 . S
C2293 C2292 1.377 . S
C2293 C2299 1.390 . S
C2294 H2285 0.930 . S
C2294 C2292 1.384 . S
C2294 C2295 1.372 . S
C2295 C2294 1.372 . S
C2295 C2296 1.400 . S
C2295 C2300 1.490 . S
C2296 H2286 0.930 . S
C2296 C2295 1.400 . S
C2296 C2299 1.386 . S
H2297 C2313 0.930 . S
H2298 C2314 0.931 . S
C2299 H2287 0.929 . S
C2299 C2293 1.390 . S
C2299 C2296 1.386 . S
C2300 C2295 1.490 . S
C2300 C2302 1.395 . S
C2300 C2303 1.403 . S
H2301 C2307 0.930 . S
C2302 H2288 0.930 . S
C2302 C2300 1.395 . S
C2302 C2305 1.403 . S
C2303 C2300 1.403 . S
C2303 C2304 1.524 . S
C2303 C2307 1.400 . S
C2304 H2289 0.960 . S
C2304 H2290 0.960 . S
C2304 H2291 0.960 . S
C2304 C2303 1.524 . S
C2305 C2302 1.403 . S
C2305 C2306 1.392 . S
C2305 C2309 1.495 1_554 S
C2306 C2305 1.392 . S
C2306 C2307 1.385 . S
C2306 C2308 1.478 1_554 S
C2307 H2301 0.930 . S
C2307 C2303 1.400 . S
C2307 C2306 1.385 . S
C2308 C2306 1.478 1_556 S
C2308 C2310 1.381 . S
C2308 C2314 1.383 . S
C2309 C2305 1.495 1_556 S
C2309 H2315 0.959 . S
C2309 H2316 0.961 . S
C2309 H2317 0.960 . S
C2310 C2308 1.381 . S
C2310 C2311 1.394 . S
C2310 H2318 0.930 . S
C2311 C2310 1.394 . S
C2311 C2312 1.383 . S
C2311 H2319 0.929 . S
C2312 C2311 1.383 . S
C2312 C2313 1.377 . S
C2313 H2297 0.930 . S
C2313 C2312 1.377 . S
C2313 C2314 1.379 . S
C2314 H2298 0.931 . S
C2314 C2308 1.383 . S
C2314 C2313 1.379 . S
H2315 C2309 0.959 . S
H2316 C2309 0.961 . S
H2317 C2309 0.960 . S
H2318 C2310 0.930 . S
H2319 C2311 0.929 . S
H2320 C2328 0.929 . S
H2321 C2330 0.930 . S
H2322 C2332 0.930 . S
H2323 C2335 0.929 . S
H2324 C2338 0.930 . S
H2325 C2340 0.960 . S
H2326 C2340 0.960 . S
H2327 C2340 0.960 . S
C2328 H2320 0.929 . S
C2328 C2329 1.377 . S
C2328 C2330 1.384 . S
C2329 C2328 1.377 . S
C2329 C2335 1.390 . S
C2330 H2321 0.930 . S
C2330 C2328 1.384 . S
C2330 C2331 1.372 . S
C2331 C2330 1.372 . S
C2331 C2332 1.400 . S
C2331 C2336 1.490 . S
C2332 H2322 0.930 . S
C2332 C2331 1.400 . S
C2332 C2335 1.386 . S
H2333 C2349 0.930 . S
H2334 C2350 0.931 . S
C2335 H2323 0.929 . S
C2335 C2329 1.390 . S
C2335 C2332 1.386 . S
C2336 C2331 1.490 . S
C2336 C2338 1.395 . S
C2336 C2339 1.403 . S
H2337 C2343 0.930 . S
C2338 H2324 0.930 . S
C2338 C2336 1.395 . S
C2338 C2341 1.403 . S
C2339 C2336 1.403 . S
C2339 C2340 1.524 . S
C2339 C2343 1.400 . S
C2340 H2325 0.960 . S
C2340 H2326 0.960 . S
C2340 H2327 0.960 . S
C2340 C2339 1.524 . S
C2341 C2338 1.403 . S
C2341 C2342 1.392 . S
C2341 C2345 1.495 . S
C2342 C2341 1.392 . S
C2342 C2343 1.385 . S
C2342 C2344 1.478 . S
C2343 H2337 0.930 . S
C2343 C2339 1.400 . S
C2343 C2342 1.385 . S
C2344 C2342 1.478 . S
C2344 C2346 1.381 . S
C2344 C2350 1.383 . S
C2345 C2341 1.495 . S
C2345 H2351 0.959 . S
C2345 H2352 0.961 . S
C2345 H2353 0.960 . S
C2346 C2344 1.381 . S
C2346 C2347 1.394 . S
C2346 H2354 0.930 . S
C2347 C2346 1.394 . S
C2347 C2348 1.383 . S
C2347 H2355 0.929 . S
C2348 C2347 1.383 . S
C2348 C2349 1.377 . S
C2349 H2333 0.930 . S
C2349 C2348 1.377 . S
C2349 C2350 1.379 . S
C2350 H2334 0.931 . S
C2350 C2344 1.383 . S
C2350 C2349 1.379 . S
H2351 C2345 0.959 . S
H2352 C2345 0.961 . S
H2353 C2345 0.960 . S
H2354 C2346 0.930 . S
H2355 C2347 0.929 . S
H2356 C2364 0.929 . S
H2357 C2366 0.930 . S
H2358 C2368 0.930 . S
H2359 C2371 0.929 . S
H2360 C2374 0.930 . S
H2361 C2376 0.960 . S
H2362 C2376 0.960 . S
H2363 C2376 0.960 . S
C2364 H2356 0.929 . S
C2364 C2365 1.377 . S
C2364 C2366 1.384 . S
C2365 C2364 1.377 . S
C2365 C2371 1.390 . S
C2366 H2357 0.930 . S
C2366 C2364 1.384 . S
C2366 C2367 1.372 . S
C2367 C2366 1.372 . S
C2367 C2368 1.400 . S
C2367 C2372 1.490 . S
C2368 H2358 0.930 . S
C2368 C2367 1.400 . S
C2368 C2371 1.386 . S
H2369 C2385 0.930 . S
H2370 C2386 0.931 . S
C2371 H2359 0.929 . S
C2371 C2365 1.390 . S
C2371 C2368 1.386 . S
C2372 C2367 1.490 . S
C2372 C2374 1.395 . S
C2372 C2375 1.403 . S
H2373 C2379 0.930 . S
C2374 H2360 0.930 . S
C2374 C2372 1.395 . S
C2374 C2377 1.403 . S
C2375 C2372 1.403 . S
C2375 C2376 1.524 . S
C2375 C2379 1.400 . S
C2376 H2361 0.960 . S
C2376 H2362 0.960 . S
C2376 H2363 0.960 . S
C2376 C2375 1.524 . S
C2377 C2374 1.403 . S
C2377 C2378 1.392 . S
C2377 C2381 1.495 . S
C2378 C2377 1.392 . S
C2378 C2379 1.385 . S
C2378 C2380 1.478 . S
C2379 H2373 0.930 . S
C2379 C2375 1.400 . S
C2379 C2378 1.385 . S
C2380 C2378 1.478 . S
C2380 C2382 1.381 . S
C2380 C2386 1.383 . S
C2381 C2377 1.495 . S
C2381 H2387 0.959 . S
C2381 H2388 0.961 . S
C2381 H2389 0.960 . S
C2382 C2380 1.381 . S
C2382 C2383 1.394 . S
C2382 H2390 0.930 . S
C2383 C2382 1.394 . S
C2383 C2384 1.383 . S
C2383 H2391 0.929 . S
C2384 C2383 1.383 . S
C2384 C2385 1.377 . S
C2385 H2369 0.930 . S
C2385 C2384 1.377 . S
C2385 C2386 1.379 . S
C2386 H2370 0.931 . S
C2386 C2380 1.383 . S
C2386 C2385 1.379 . S
H2387 C2381 0.959 . S
H2388 C2381 0.961 . S
H2389 C2381 0.960 . S
H2390 C2382 0.930 . S
H2391 C2383 0.929 . S
H2392 C2400 0.929 . S
H2393 C2402 0.930 . S
H2394 C2404 0.930 . S
H2395 C2407 0.929 . S
H2396 C2410 0.930 . S
H2397 C2412 0.960 . S
H2398 C2412 0.960 . S
H2399 C2412 0.960 . S
C2400 H2392 0.929 . S
C2400 C2401 1.377 . S
C2400 C2402 1.384 . S
C2401 C2400 1.377 . S
C2401 C2407 1.390 . S
C2402 H2393 0.930 . S
C2402 C2400 1.384 . S
C2402 C2403 1.372 . S
C2403 C2402 1.372 . S
C2403 C2404 1.400 . S
C2403 C2408 1.490 . S
C2404 H2394 0.930 . S
C2404 C2403 1.400 . S
C2404 C2407 1.386 . S
H2405 C2421 0.930 . S
H2406 C2422 0.931 . S
C2407 H2395 0.929 . S
C2407 C2401 1.390 . S
C2407 C2404 1.386 . S
C2408 C2403 1.490 . S
C2408 C2410 1.395 . S
C2408 C2411 1.403 . S
H2409 C2415 0.930 . S
C2410 H2396 0.930 . S
C2410 C2408 1.395 . S
C2410 C2413 1.403 . S
C2411 C2408 1.403 . S
C2411 C2412 1.524 . S
C2411 C2415 1.400 . S
C2412 H2397 0.960 . S
C2412 H2398 0.960 . S
C2412 H2399 0.960 . S
C2412 C2411 1.524 . S
C2413 C2410 1.403 . S
C2413 C2414 1.392 . S
C2413 C2417 1.495 . S
C2414 C2413 1.392 . S
C2414 C2415 1.385 . S
C2414 C2416 1.478 . S
C2415 H2409 0.930 . S
C2415 C2411 1.400 . S
C2415 C2414 1.385 . S
C2416 C2414 1.478 . S
C2416 C2418 1.381 . S
C2416 C2422 1.383 . S
C2417 C2413 1.495 . S
C2417 H2423 0.959 . S
C2417 H2424 0.961 . S
C2417 H2425 0.960 . S
C2418 C2416 1.381 . S
C2418 C2419 1.394 . S
C2418 H2426 0.930 . S
C2419 C2418 1.394 . S
C2419 C2420 1.383 . S
C2419 H2427 0.929 . S
C2420 C2419 1.383 . S
C2420 C2421 1.377 . S
C2421 H2405 0.930 . S
C2421 C2420 1.377 . S
C2421 C2422 1.379 . S
C2422 H2406 0.931 . S
C2422 C2416 1.383 . S
C2422 C2421 1.379 . S
H2423 C2417 0.959 . S
H2424 C2417 0.961 . S
H2425 C2417 0.960 . S
H2426 C2418 0.930 . S
H2427 C2419 0.929 . S
H2428 C2436 0.929 . S
H2429 C2438 0.930 . S
H2430 C2440 0.930 . S
H2431 C2443 0.929 . S
H2432 C2446 0.930 . S
H2433 C2448 0.960 . S
H2434 C2448 0.960 . S
H2435 C2448 0.960 . S
C2436 H2428 0.929 . S
C2436 C2437 1.377 . S
C2436 C2438 1.384 . S
C2437 C2436 1.377 . S
C2437 C2443 1.390 . S
C2438 H2429 0.930 . S
C2438 C2436 1.384 . S
C2438 C2439 1.372 . S
C2439 C2438 1.372 . S
C2439 C2440 1.400 . S
C2439 C2444 1.490 . S
C2440 H2430 0.930 . S
C2440 C2439 1.400 . S
C2440 C2443 1.386 . S
H2441 C2457 0.930 . S
H2442 C2458 0.931 . S
C2443 H2431 0.929 . S
C2443 C2437 1.390 . S
C2443 C2440 1.386 . S
C2444 C2439 1.490 . S
C2444 C2446 1.395 . S
C2444 C2447 1.403 . S
H2445 C2451 0.930 . S
C2446 H2432 0.930 . S
C2446 C2444 1.395 . S
C2446 C2449 1.403 . S
C2447 C2444 1.403 . S
C2447 C2448 1.524 . S
C2447 C2451 1.400 . S
C2448 H2433 0.960 . S
C2448 H2434 0.960 . S
C2448 H2435 0.960 . S
C2448 C2447 1.524 . S
C2449 C2446 1.403 . S
C2449 C2450 1.392 . S
C2449 C2453 1.495 . S
C2450 C2449 1.392 . S
C2450 C2451 1.385 . S
C2450 C2452 1.478 . S
C2451 H2445 0.930 . S
C2451 C2447 1.400 . S
C2451 C2450 1.385 . S
C2452 C2450 1.478 . S
C2452 C2454 1.381 . S
C2452 C2458 1.383 . S
C2453 C2449 1.495 . S
C2453 H2459 0.959 . S
C2453 H2460 0.961 . S
C2453 H2461 0.960 . S
C2454 C2452 1.381 . S
C2454 C2455 1.394 . S
C2454 H2462 0.930 . S
C2455 C2454 1.394 . S
C2455 C2456 1.383 . S
C2455 H2463 0.929 . S
C2456 C2455 1.383 . S
C2456 C2457 1.377 . S
C2457 H2441 0.930 . S
C2457 C2456 1.377 . S
C2457 C2458 1.379 . S
C2458 H2442 0.931 . S
C2458 C2452 1.383 . S
C2458 C2457 1.379 . S
H2459 C2453 0.959 . S
H2460 C2453 0.961 . S
H2461 C2453 0.960 . S
H2462 C2454 0.930 . S
H2463 C2455 0.929 . S
H2464 C2472 0.929 . S
H2465 C2474 0.930 . S
H2466 C2476 0.930 . S
H2467 C2479 0.929 . S
H2468 C2482 0.930 . S
H2469 C2484 0.960 1_556 S
H2470 C2484 0.960 . S
H2471 C2484 0.960 . S
C2472 H2464 0.929 . S
C2472 C2473 1.377 . S
C2472 C2474 1.384 . S
C2473 C2472 1.377 . S
C2473 C2479 1.390 . S
C2474 H2465 0.930 . S
C2474 C2472 1.384 . S
C2474 C2475 1.372 . S
C2475 C2474 1.372 . S
C2475 C2476 1.400 . S
C2475 C2480 1.490 . S
C2476 H2466 0.930 . S
C2476 C2475 1.400 . S
C2476 C2479 1.386 . S
H2477 C2493 0.930 . S
H2478 C2494 0.931 . S
C2479 H2467 0.929 . S
C2479 C2473 1.390 . S
C2479 C2476 1.386 . S
C2480 C2475 1.490 . S
C2480 C2482 1.395 . S
C2480 C2483 1.403 . S
H2481 C2487 0.930 1_556 S
C2482 H2468 0.930 . S
C2482 C2480 1.395 . S
C2482 C2485 1.403 . S
C2483 C2480 1.403 . S
C2483 C2484 1.524 . S
C2483 C2487 1.400 . S
C2484 H2469 0.960 1_554 S
C2484 H2470 0.960 . S
C2484 H2471 0.960 . S
C2484 C2483 1.524 . S
C2485 C2482 1.403 . S
C2485 C2486 1.392 . S
C2485 C2489 1.495 . S
C2486 C2485 1.392 . S
C2486 C2487 1.385 . S
C2486 C2488 1.478 1_554 S
C2487 H2481 0.930 1_554 S
C2487 C2483 1.400 . S
C2487 C2486 1.385 . S
C2488 C2486 1.478 1_556 S
C2488 C2490 1.381 . S
C2488 C2494 1.383 . S
C2489 C2485 1.495 . S
C2489 H2495 0.959 . S
C2489 H2496 0.961 . S
C2489 H2497 0.960 . S
C2490 C2488 1.381 . S
C2490 C2491 1.394 . S
C2490 H2498 0.930 1_556 S
C2491 C2490 1.394 . S
C2491 C2492 1.383 . S
C2491 H2499 0.929 . S
C2492 C2491 1.383 . S
C2492 C2493 1.377 . S
C2493 H2477 0.930 . S
C2493 C2492 1.377 . S
C2493 C2494 1.379 . S
C2494 H2478 0.931 . S
C2494 C2488 1.383 . S
C2494 C2493 1.379 . S
H2495 C2489 0.959 . S
H2496 C2489 0.961 . S
H2497 C2489 0.960 . S
H2498 C2490 0.930 1_554 S
H2499 C2491 0.929 . S
H2500 C2508 0.929 . S
H2501 C2510 0.930 . S
H2502 C2512 0.930 . S
H2503 C2515 0.929 . S
H2504 C2518 0.930 . S
H2505 C2520 0.960 . S
H2506 C2520 0.960 . S
H2507 C2520 0.960 . S
C2508 H2500 0.929 . S
C2508 C2509 1.377 . S
C2508 C2510 1.384 . S
C2509 C2508 1.377 . S
C2509 C2515 1.390 . S
C2510 H2501 0.930 . S
C2510 C2508 1.384 . S
C2510 C2511 1.372 . S
C2511 C2510 1.372 . S
C2511 C2512 1.400 . S
C2511 C2516 1.490 . S
C2512 H2502 0.930 . S
C2512 C2511 1.400 . S
C2512 C2515 1.386 . S
H2513 C2529 0.930 . S
H2514 C2530 0.931 . S
C2515 H2503 0.929 . S
C2515 C2509 1.390 . S
C2515 C2512 1.386 . S
C2516 C2511 1.490 . S
C2516 C2518 1.395 . S
C2516 C2519 1.403 . S
H2517 C2523 0.930 . S
C2518 H2504 0.930 . S
C2518 C2516 1.395 . S
C2518 C2521 1.403 . S
C2519 C2516 1.403 . S
C2519 C2520 1.524 . S
C2519 C2523 1.400 . S
C2520 H2505 0.960 . S
C2520 H2506 0.960 . S
C2520 H2507 0.960 . S
C2520 C2519 1.524 . S
C2521 C2518 1.403 . S
C2521 C2522 1.392 . S
C2521 C2525 1.495 . S
C2522 C2521 1.392 . S
C2522 C2523 1.385 . S
C2522 C2524 1.478 . S
C2523 H2517 0.930 . S
C2523 C2519 1.400 . S
C2523 C2522 1.385 . S
C2524 C2522 1.478 . S
C2524 C2526 1.381 . S
C2524 C2530 1.383 . S
C2525 C2521 1.495 . S
C2525 H2531 0.959 . S
C2525 H2532 0.961 . S
C2525 H2533 0.960 . S
C2526 C2524 1.381 . S
C2526 C2527 1.394 . S
C2526 H2534 0.930 . S
C2527 C2526 1.394 . S
C2527 C2528 1.383 . S
C2527 H2535 0.929 . S
C2528 C2527 1.383 . S
C2528 C2529 1.377 . S
C2529 H2513 0.930 . S
C2529 C2528 1.377 . S
C2529 C2530 1.379 . S
C2530 H2514 0.931 . S
C2530 C2524 1.383 . S
C2530 C2529 1.379 . S
H2531 C2525 0.959 . S
H2532 C2525 0.961 . S
H2533 C2525 0.960 . S
H2534 C2526 0.930 . S
H2535 C2527 0.929 . S
H2536 C2544 0.929 . S
H2537 C2546 0.930 . S
H2538 C2548 0.930 . S
H2539 C2551 0.929 . S
H2540 C2554 0.930 . S
H2541 C2556 0.960 . S
H2542 C2556 0.960 . S
H2543 C2556 0.960 . S
C2544 H2536 0.929 . S
C2544 C2545 1.377 . S
C2544 C2546 1.384 . S
C2545 C2544 1.377 . S
C2545 C2551 1.390 . S
C2546 H2537 0.930 . S
C2546 C2544 1.384 . S
C2546 C2547 1.372 . S
C2547 C2546 1.372 . S
C2547 C2548 1.400 . S
C2547 C2552 1.490 . S
C2548 H2538 0.930 . S
C2548 C2547 1.400 . S
C2548 C2551 1.386 . S
H2549 C2565 0.930 . S
H2550 C2566 0.931 . S
C2551 H2539 0.929 . S
C2551 C2545 1.390 . S
C2551 C2548 1.386 . S
C2552 C2547 1.490 . S
C2552 C2554 1.395 . S
C2552 C2555 1.403 . S
H2553 C2559 0.930 . S
C2554 H2540 0.930 . S
C2554 C2552 1.395 . S
C2554 C2557 1.403 . S
C2555 C2552 1.403 . S
C2555 C2556 1.524 . S
C2555 C2559 1.400 . S
C2556 H2541 0.960 . S
C2556 H2542 0.960 . S
C2556 H2543 0.960 . S
C2556 C2555 1.524 . S
C2557 C2554 1.403 . S
C2557 C2558 1.392 . S
C2557 C2561 1.495 . S
C2558 C2557 1.392 . S
C2558 C2559 1.385 . S
C2558 C2560 1.478 . S
C2559 H2553 0.930 . S
C2559 C2555 1.400 . S
C2559 C2558 1.385 . S
C2560 C2558 1.478 . S
C2560 C2562 1.381 . S
C2560 C2566 1.383 . S
C2561 C2557 1.495 . S
C2561 H2567 0.959 . S
C2561 H2568 0.961 . S
C2561 H2569 0.960 . S
C2562 C2560 1.381 . S
C2562 C2563 1.394 . S
C2562 H2570 0.930 . S
C2563 C2562 1.394 . S
C2563 C2564 1.383 . S
C2563 H2571 0.929 . S
C2564 C2563 1.383 . S
C2564 C2565 1.377 . S
C2565 H2549 0.930 . S
C2565 C2564 1.377 . S
C2565 C2566 1.379 . S
C2566 H2550 0.931 . S
C2566 C2560 1.383 . S
C2566 C2565 1.379 . S
H2567 C2561 0.959 . S
H2568 C2561 0.961 . S
H2569 C2561 0.960 . S
H2570 C2562 0.930 . S
H2571 C2563 0.929 . S
H2572 C2580 0.929 . S
H2573 C2582 0.930 . S
H2574 C2584 0.930 . S
H2575 C2587 0.929 . S
H2576 C2590 0.930 . S
H2577 C2592 0.960 . S
H2578 C2592 0.960 . S
H2579 C2592 0.960 . S
C2580 H2572 0.929 . S
C2580 C2581 1.377 . S
C2580 C2582 1.384 . S
C2581 C2580 1.377 . S
C2581 C2587 1.390 . S
C2582 H2573 0.930 . S
C2582 C2580 1.384 . S
C2582 C2583 1.372 . S
C2583 C2582 1.372 . S
C2583 C2584 1.400 . S
C2583 C2588 1.490 . S
C2584 H2574 0.930 . S
C2584 C2583 1.400 . S
C2584 C2587 1.386 . S
H2585 C2601 0.930 . S
H2586 C2602 0.931 . S
C2587 H2575 0.929 . S
C2587 C2581 1.390 . S
C2587 C2584 1.386 . S
C2588 C2583 1.490 . S
C2588 C2590 1.395 . S
C2588 C2591 1.403 . S
H2589 C2595 0.930 . S
C2590 H2576 0.930 . S
C2590 C2588 1.395 . S
C2590 C2593 1.403 . S
C2591 C2588 1.403 . S
C2591 C2592 1.524 . S
C2591 C2595 1.400 . S
C2592 H2577 0.960 . S
C2592 H2578 0.960 . S
C2592 H2579 0.960 . S
C2592 C2591 1.524 . S
C2593 C2590 1.403 . S
C2593 C2594 1.392 . S
C2593 C2597 1.495 . S
C2594 C2593 1.392 . S
C2594 C2595 1.385 . S
C2594 C2596 1.478 . S
C2595 H2589 0.930 . S
C2595 C2591 1.400 . S
C2595 C2594 1.385 . S
C2596 C2594 1.478 . S
C2596 C2598 1.381 . S
C2596 C2602 1.383 . S
C2597 C2593 1.495 . S
C2597 H2603 0.959 . S
C2597 H2604 0.961 . S
C2597 H2605 0.960 . S
C2598 C2596 1.381 . S
C2598 C2599 1.394 . S
C2598 H2606 0.930 . S
C2599 C2598 1.394 . S
C2599 C2600 1.383 . S
C2599 H2607 0.929 . S
C2600 C2599 1.383 . S
C2600 C2601 1.377 . S
C2601 H2585 0.930 . S
C2601 C2600 1.377 . S
C2601 C2602 1.379 . S
C2602 H2586 0.931 . S
C2602 C2596 1.383 . S
C2602 C2601 1.379 . S
H2603 C2597 0.959 . S
H2604 C2597 0.961 . S
H2605 C2597 0.960 . S
H2606 C2598 0.930 . S
H2607 C2599 0.929 . S
H2608 C2616 0.929 . S
H2609 C2618 0.930 . S
H2610 C2620 0.930 1_556 S
H2611 C2623 0.929 . S
H2612 C2626 0.930 1_554 S
H2613 C2628 0.960 . S
H2614 C2628 0.960 . S
H2615 C2628 0.960 . S
C2616 H2608 0.929 . S
C2616 C2617 1.377 . S
C2616 C2618 1.384 . S
C2617 C2616 1.377 . S
C2617 C2623 1.390 . S
C2618 H2609 0.930 . S
C2618 C2616 1.384 . S
C2618 C2619 1.372 . S
C2619 C2618 1.372 . S
C2619 C2620 1.400 . S
C2619 C2624 1.490 1_554 S
C2620 H2610 0.930 1_554 S
C2620 C2619 1.400 . S
C2620 C2623 1.386 . S
H2621 C2637 0.930 . S
H2622 C2638 0.931 . S
C2623 H2611 0.929 . S
C2623 C2617 1.390 . S
C2623 C2620 1.386 . S
C2624 C2619 1.490 1_556 S
C2624 C2626 1.395 . S
C2624 C2627 1.403 . S
H2625 C2631 0.930 . S
C2626 H2612 0.930 1_556 S
C2626 C2624 1.395 . S
C2626 C2629 1.403 . S
C2627 C2624 1.403 . S
C2627 C2628 1.524 . S
C2627 C2631 1.400 . S
C2628 H2613 0.960 . S
C2628 H2614 0.960 . S
C2628 H2615 0.960 . S
C2628 C2627 1.524 . S
C2629 C2626 1.403 . S
C2629 C2630 1.392 . S
C2629 C2633 1.495 . S
C2630 C2629 1.392 . S
C2630 C2631 1.385 . S
C2630 C2632 1.478 . S
C2631 H2625 0.930 . S
C2631 C2627 1.400 . S
C2631 C2630 1.385 . S
C2632 C2630 1.478 . S
C2632 C2634 1.381 . S
C2632 C2638 1.383 . S
C2633 C2629 1.495 . S
C2633 H2639 0.959 . S
C2633 H2640 0.961 . S
C2633 H2641 0.960 . S
C2634 C2632 1.381 . S
C2634 C2635 1.394 . S
C2634 H2642 0.930 . S
C2635 C2634 1.394 . S
C2635 C2636 1.383 . S
C2635 H2643 0.929 . S
C2636 C2635 1.383 . S
C2636 C2637 1.377 . S
C2637 H2621 0.930 . S
C2637 C2636 1.377 . S
C2637 C2638 1.379 . S
C2638 H2622 0.931 . S
C2638 C2632 1.383 . S
C2638 C2637 1.379 . S
H2639 C2633 0.959 . S
H2640 C2633 0.961 . S
H2641 C2633 0.960 . S
H2642 C2634 0.930 . S
H2643 C2635 0.929 . S
H2644 C2652 0.929 . S
H2645 C2654 0.930 . S
H2646 C2656 0.930 . S
H2647 C2659 0.929 . S
H2648 C2662 0.930 . S
H2649 C2664 0.960 . S
H2650 C2664 0.960 . S
H2651 C2664 0.960 . S
C2652 H2644 0.929 . S
C2652 C2653 1.377 . S
C2652 C2654 1.384 . S
C2653 C2652 1.377 . S
C2653 C2659 1.390 . S
C2654 H2645 0.930 . S
C2654 C2652 1.384 . S
C2654 C2655 1.372 . S
C2655 C2654 1.372 . S
C2655 C2656 1.400 . S
C2655 C2660 1.490 . S
C2656 H2646 0.930 . S
C2656 C2655 1.400 . S
C2656 C2659 1.386 . S
H2657 C2673 0.930 . S
H2658 C2674 0.931 . S
C2659 H2647 0.929 . S
C2659 C2653 1.390 . S
C2659 C2656 1.386 . S
C2660 C2655 1.490 . S
C2660 C2662 1.395 . S
C2660 C2663 1.403 . S
H2661 C2667 0.930 . S
C2662 H2648 0.930 . S
C2662 C2660 1.395 . S
C2662 C2665 1.403 . S
C2663 C2660 1.403 . S
C2663 C2664 1.524 . S
C2663 C2667 1.400 . S
C2664 H2649 0.960 . S
C2664 H2650 0.960 . S
C2664 H2651 0.960 . S
C2664 C2663 1.524 . S
C2665 C2662 1.403 . S
C2665 C2666 1.392 . S
C2665 C2669 1.495 . S
C2666 C2665 1.392 . S
C2666 C2667 1.385 . S
C2666 C2668 1.478 . S
C2667 H2661 0.930 . S
C2667 C2663 1.400 . S
C2667 C2666 1.385 . S
C2668 C2666 1.478 . S
C2668 C2670 1.381 . S
C2668 C2674 1.383 . S
C2669 C2665 1.495 . S
C2669 H2675 0.959 . S
C2669 H2676 0.961 . S
C2669 H2677 0.960 . S
C2670 C2668 1.381 . S
C2670 C2671 1.394 . S
C2670 H2678 0.930 . S
C2671 C2670 1.394 . S
C2671 C2672 1.383 . S
C2671 H2679 0.929 . S
C2672 C2671 1.383 . S
C2672 C2673 1.377 . S
C2673 H2657 0.930 . S
C2673 C2672 1.377 . S
C2673 C2674 1.379 . S
C2674 H2658 0.931 . S
C2674 C2668 1.383 . S
C2674 C2673 1.379 . S
H2675 C2669 0.959 . S
H2676 C2669 0.961 . S
H2677 C2669 0.960 . S
H2678 C2670 0.930 . S
H2679 C2671 0.929 . S
H2680 C2688 0.929 . S
H2681 C2690 0.930 . S
H2682 C2692 0.930 . S
H2683 C2695 0.929 . S
H2684 C2698 0.930 . S
H2685 C2700 0.960 . S
H2686 C2700 0.960 . S
H2687 C2700 0.960 . S
C2688 H2680 0.929 . S
C2688 C2689 1.377 . S
C2688 C2690 1.384 . S
C2689 C2688 1.377 . S
C2689 C2695 1.390 . S
C2690 H2681 0.930 . S
C2690 C2688 1.384 . S
C2690 C2691 1.372 . S
C2691 C2690 1.372 . S
C2691 C2692 1.400 . S
C2691 C2696 1.490 . S
C2692 H2682 0.930 . S
C2692 C2691 1.400 . S
C2692 C2695 1.386 . S
H2693 C2709 0.930 . S
H2694 C2710 0.931 . S
C2695 H2683 0.929 . S
C2695 C2689 1.390 . S
C2695 C2692 1.386 . S
C2696 C2691 1.490 . S
C2696 C2698 1.395 . S
C2696 C2699 1.403 . S
H2697 C2703 0.930 . S
C2698 H2684 0.930 . S
C2698 C2696 1.395 . S
C2698 C2701 1.403 . S
C2699 C2696 1.403 . S
C2699 C2700 1.524 . S
C2699 C2703 1.400 . S
C2700 H2685 0.960 . S
C2700 H2686 0.960 . S
C2700 H2687 0.960 . S
C2700 C2699 1.524 . S
C2701 C2698 1.403 . S
C2701 C2702 1.392 . S
C2701 C2705 1.495 . S
C2702 C2701 1.392 . S
C2702 C2703 1.385 . S
C2702 C2704 1.478 . S
C2703 H2697 0.930 . S
C2703 C2699 1.400 . S
C2703 C2702 1.385 . S
C2704 C2702 1.478 . S
C2704 C2706 1.381 . S
C2704 C2710 1.383 . S
C2705 C2701 1.495 . S
C2705 H2711 0.959 . S
C2705 H2712 0.961 . S
C2705 H2713 0.960 . S
C2706 C2704 1.381 . S
C2706 C2707 1.394 . S
C2706 H2714 0.930 . S
C2707 C2706 1.394 . S
C2707 C2708 1.383 . S
C2707 H2715 0.929 . S
C2708 C2707 1.383 . S
C2708 C2709 1.377 . S
C2709 H2693 0.930 . S
C2709 C2708 1.377 . S
C2709 C2710 1.379 . S
C2710 H2694 0.931 . S
C2710 C2704 1.383 . S
C2710 C2709 1.379 . S
H2711 C2705 0.959 . S
H2712 C2705 0.961 . S
H2713 C2705 0.960 . S
H2714 C2706 0.930 . S
H2715 C2707 0.929 . S
H2716 C2724 0.929 . S
H2717 C2726 0.930 . S
H2718 C2728 0.930 . S
H2719 C2731 0.929 . S
H2720 C2734 0.930 . S
H2721 C2736 0.960 . S
H2722 C2736 0.960 . S
H2723 C2736 0.960 . S
C2724 H2716 0.929 . S
C2724 C2725 1.377 . S
C2724 C2726 1.384 . S
C2725 C2724 1.377 . S
C2725 C2731 1.390 . S
C2726 H2717 0.930 . S
C2726 C2724 1.384 . S
C2726 C2727 1.372 . S
C2727 C2726 1.372 . S
C2727 C2728 1.400 . S
C2727 C2732 1.490 . S
C2728 H2718 0.930 . S
C2728 C2727 1.400 . S
C2728 C2731 1.386 . S
H2729 C2745 0.930 . S
H2730 C2746 0.931 . S
C2731 H2719 0.929 . S
C2731 C2725 1.390 . S
C2731 C2728 1.386 . S
C2732 C2727 1.490 . S
C2732 C2734 1.395 . S
C2732 C2735 1.403 . S
H2733 C2739 0.930 . S
C2734 H2720 0.930 . S
C2734 C2732 1.395 . S
C2734 C2737 1.403 . S
C2735 C2732 1.403 . S
C2735 C2736 1.524 . S
C2735 C2739 1.400 . S
C2736 H2721 0.960 . S
C2736 H2722 0.960 . S
C2736 H2723 0.960 . S
C2736 C2735 1.524 . S
C2737 C2734 1.403 . S
C2737 C2738 1.392 . S
C2737 C2741 1.495 . S
C2738 C2737 1.392 . S
C2738 C2739 1.385 . S
C2738 C2740 1.478 . S
C2739 H2733 0.930 . S
C2739 C2735 1.400 . S
C2739 C2738 1.385 . S
C2740 C2738 1.478 . S
C2740 C2742 1.381 . S
C2740 C2746 1.383 . S
C2741 C2737 1.495 . S
C2741 H2747 0.959 . S
C2741 H2748 0.961 . S
C2741 H2749 0.960 . S
C2742 C2740 1.381 . S
C2742 C2743 1.394 . S
C2742 H2750 0.930 . S
C2743 C2742 1.394 . S
C2743 C2744 1.383 . S
C2743 H2751 0.929 . S
C2744 C2743 1.383 . S
C2744 C2745 1.377 . S
C2745 H2729 0.930 . S
C2745 C2744 1.377 . S
C2745 C2746 1.379 . S
C2746 H2730 0.931 . S
C2746 C2740 1.383 . S
C2746 C2745 1.379 . S
H2747 C2741 0.959 . S
H2748 C2741 0.961 . S
H2749 C2741 0.960 . S
H2750 C2742 0.930 . S
H2751 C2743 0.929 . S
C457 C4 1.153 . S
C476 C186 1.121 . S
C493 C354 1.098 . S
C512 C18 1.121 . S
C529 C32 1.191 . S
C548 C214 1.207 . S
C565 C46 1.162 . S
C584 C340 1.168 . S
C601 C60 1.120 . S
C620 C242 1.099 . S
C637 C74 1.171 . S
C656 C312 1.161 . S
C673 C88 1.130 . S
C692 C270 1.123 . S
C709 C438 1.155 . S
C728 C102 1.147 . S
C745 C298 1.117 . S
C764 C116 1.121 . S
C781 C130 1.171 . S
C800 C256 1.190 . S
C817 C326 1.120 . S
C836 C144 1.092 . S
C853 C158 1.163 . S
C872 C228 1.162 . S
C889 C200 1.107 . S
C908 C172 1.076 . S
C925 C284 1.155 . S
C944 C396 1.152 . S
C961 C410 1.145 . S
C980 C368 1.154 . S
C997 C424 1.188 . S
C1016 C382 1.211 . S
C1033 C12 1.522 . S
C1052 C26 1.516 . S
C1069 C33 1.323 . S
C1088 C25 1.462 . S
C1105 C54 1.530 . S
C1124 C40 1.519 . S
C1141 C53 1.480 . S
C1160 C5 1.365 . S
C1177 C110 1.490 . S
C1196 C68 1.491 . S
C1213 C81 1.485 . S
C1232 C61 1.392 . S
C1249 C96 1.452 . S
C1268 C82 1.444 . S
C1285 C89 1.371 . S
C1304 C109 1.511 . S
C1321 C131 1.371 . S
C1340 C11 1.487 . S
C1357 C123 1.406 . S
C1376 C47 1.307 . S
C1393 C151 1.466 . S
C1412 C19 1.366 . S
C1429 C389 1.497 . S
C1448 C103 1.339 . S
C1465 C397 1.374 . S
C1484 C39 1.517 . S
C1501 C159 1.297 . S
C1520 C67 1.385 . S
C1537 C95 1.475 . S
C1556 C173 1.340 . S
C1573 C201 1.313 . S
C1592 C187 1.379 . S
C1609 C222 1.445 . S
C1628 C207 1.395 . S
C1645 C229 1.319 . S
C1664 C215 1.321 . S
C1681 C194 1.450 . S
C1700 C235 1.401 . S
C1717 C243 1.346 . S
C1736 C291 1.459 . S
C1753 C250 1.577 . S
C1772 C264 1.583 . S
C1789 C277 1.525 . S
C1808 C263 1.500 . S
C1825 C271 1.359 . S
C1844 C292 1.508 . S
C1861 C193 1.439 . S
C1880 C313 1.311 . S
C1897 C305 1.440 . S
C1916 C236 1.493 . S
C1933 C334 1.539 . S
C1952 C208 1.542 . S
C1969 C431 1.367 . S
C1988 C285 1.244 . S
C2005 C439 1.278 . S
C2024 C221 1.360 . S
C2041 C249 1.448 . S
C2060 C348 1.476 . S
C2077 C362 1.538 . S
C2096 C278 1.544 . S
C2113 C180 1.524 . S
C2132 C376 1.518 . S
C2149 C383 1.321 . S
C2168 C179 1.462 . S
C2185 C166 1.530 . S
C2204 C390 1.531 . S
C2221 C165 1.475 . S
C2240 C369 1.397 . S
C2257 C124 1.489 . S
C2276 C404 1.493 . S
C2293 C137 1.480 . S
C2312 C117 1.322 . S
C2329 C152 1.452 . S
C2348 C138 1.442 . S
C2365 C145 1.369 . S
C2384 C403 1.468 . S
C2401 C375 1.486 . S
C2420 C75 1.398 . S
C2437 C355 1.313 . S
C2456 C411 1.382 . S
C2473 C361 1.410 . S
C2492 C432 1.439 . S
C2509 C425 1.330 . S
C2528 C341 1.288 . S
C2545 C347 1.403 . S
C2564 C418 1.455 . S
C2581 C445 1.451 . S
C2600 C299 1.343 . S
C2617 C306 1.578 . S
C2636 C320 1.567 . S
C2653 C333 1.520 . S
C2672 C319 1.541 . S
C2689 C327 1.364 . S
C2708 C446 1.514 . S
C2725 C417 1.448 . S
C2744 C257 1.384 . S
