# Generated by pormake.
# Topology umu, (4)-cn, num edge types: 1
# Building blocks:
#     Node 0, Type 0, BuildingBlock: CEKHIL_clean_sbu_0, # of connection points: 4
#     Node 1, Type 0, BuildingBlock: CEKHIL_clean_sbu_0, # of connection points: 4
#     Node 2, Type 0, BuildingBlock: CEKHIL_clean_sbu_0, # of connection points: 4
#     Node 3, Type 0, BuildingBlock: CEKHIL_clean_sbu_0, # of connection points: 4
#     Node 4, Type 0, BuildingBlock: CEKHIL_clean_sbu_0, # of connection points: 4
#     Node 5, Type 0, BuildingBlock: CEKHIL_clean_sbu_0, # of connection points: 4
#     Node 6, Type 0, BuildingBlock: CEKHIL_clean_sbu_0, # of connection points: 4
#     Node 7, Type 0, BuildingBlock: CEKHIL_clean_sbu_0, # of connection points: 4
#     Node 8, Type 0, BuildingBlock: CEKHIL_clean_sbu_0, # of connection points: 4
#     Node 9, Type 0, BuildingBlock: CEKHIL_clean_sbu_0, # of connection points: 4
#     Node 10, Type 0, BuildingBlock: CEKHIL_clean_sbu_0, # of connection points: 4
#     Node 11, Type 0, BuildingBlock: CEKHIL_clean_sbu_0, # of connection points: 4
#     Node 12, Type 0, BuildingBlock: CEKHIL_clean_sbu_0, # of connection points: 4
#     Node 13, Type 0, BuildingBlock: CEKHIL_clean_sbu_0, # of connection points: 4
#     Node 14, Type 0, BuildingBlock: CEKHIL_clean_sbu_0, # of connection points: 4
#     Node 15, Type 0, BuildingBlock: CEKHIL_clean_sbu_0, # of connection points: 4
#     Node 16, Type 0, BuildingBlock: CEKHIL_clean_sbu_0, # of connection points: 4
#     Node 17, Type 0, BuildingBlock: CEKHIL_clean_sbu_0, # of connection points: 4
#     Node 18, Type 0, BuildingBlock: CEKHIL_clean_sbu_0, # of connection points: 4
#     Node 19, Type 0, BuildingBlock: CEKHIL_clean_sbu_0, # of connection points: 4
#     Node 20, Type 0, BuildingBlock: CEKHIL_clean_sbu_0, # of connection points: 4
#     Node 21, Type 0, BuildingBlock: CEKHIL_clean_sbu_0, # of connection points: 4
#     Node 22, Type 0, BuildingBlock: CEKHIL_clean_sbu_0, # of connection points: 4
#     Node 23, Type 0, BuildingBlock: CEKHIL_clean_sbu_0, # of connection points: 4
#     Node 24, Type 0, BuildingBlock: CEKHIL_clean_sbu_0, # of connection points: 4
#     Node 25, Type 0, BuildingBlock: CEKHIL_clean_sbu_0, # of connection points: 4
#     Node 26, Type 0, BuildingBlock: CEKHIL_clean_sbu_0, # of connection points: 4
#     Node 27, Type 0, BuildingBlock: CEKHIL_clean_sbu_0, # of connection points: 4
#     Node 28, Type 0, BuildingBlock: CEKHIL_clean_sbu_0, # of connection points: 4
#     Node 29, Type 0, BuildingBlock: CEKHIL_clean_sbu_0, # of connection points: 4
#     Node 30, Type 0, BuildingBlock: CEKHIL_clean_sbu_0, # of connection points: 4
#     Node 31, Type 0, BuildingBlock: CEKHIL_clean_sbu_0, # of connection points: 4
#     Edge 32, Type (0, 0), BuildingBlock: XUDNAN_clean_linker_2, # of connection points: 2
#     Edge 33, Type (0, 0), BuildingBlock: XUDNAN_clean_linker_2, # of connection points: 2
#     Edge 34, Type (0, 0), BuildingBlock: XUDNAN_clean_linker_2, # of connection points: 2
#     Edge 35, Type (0, 0), BuildingBlock: XUDNAN_clean_linker_2, # of connection points: 2
#     Edge 36, Type (0, 0), BuildingBlock: XUDNAN_clean_linker_2, # of connection points: 2
#     Edge 37, Type (0, 0), BuildingBlock: XUDNAN_clean_linker_2, # of connection points: 2
#     Edge 38, Type (0, 0), BuildingBlock: XUDNAN_clean_linker_2, # of connection points: 2
#     Edge 39, Type (0, 0), BuildingBlock: XUDNAN_clean_linker_2, # of connection points: 2
#     Edge 40, Type (0, 0), BuildingBlock: XUDNAN_clean_linker_2, # of connection points: 2
#     Edge 41, Type (0, 0), BuildingBlock: XUDNAN_clean_linker_2, # of connection points: 2
#     Edge 42, Type (0, 0), BuildingBlock: XUDNAN_clean_linker_2, # of connection points: 2
#     Edge 43, Type (0, 0), BuildingBlock: XUDNAN_clean_linker_2, # of connection points: 2
#     Edge 44, Type (0, 0), BuildingBlock: XUDNAN_clean_linker_2, # of connection points: 2
#     Edge 45, Type (0, 0), BuildingBlock: XUDNAN_clean_linker_2, # of connection points: 2
#     Edge 46, Type (0, 0), BuildingBlock: XUDNAN_clean_linker_2, # of connection points: 2
#     Edge 47, Type (0, 0), BuildingBlock: XUDNAN_clean_linker_2, # of connection points: 2
#     Edge 48, Type (0, 0), BuildingBlock: XUDNAN_clean_linker_2, # of connection points: 2
#     Edge 49, Type (0, 0), BuildingBlock: XUDNAN_clean_linker_2, # of connection points: 2
#     Edge 50, Type (0, 0), BuildingBlock: XUDNAN_clean_linker_2, # of connection points: 2
#     Edge 51, Type (0, 0), BuildingBlock: XUDNAN_clean_linker_2, # of connection points: 2
#     Edge 52, Type (0, 0), BuildingBlock: XUDNAN_clean_linker_2, # of connection points: 2
#     Edge 53, Type (0, 0), BuildingBlock: XUDNAN_clean_linker_2, # of connection points: 2
#     Edge 54, Type (0, 0), BuildingBlock: XUDNAN_clean_linker_2, # of connection points: 2
#     Edge 55, Type (0, 0), BuildingBlock: XUDNAN_clean_linker_2, # of connection points: 2
#     Edge 56, Type (0, 0), BuildingBlock: XUDNAN_clean_linker_2, # of connection points: 2
#     Edge 57, Type (0, 0), BuildingBlock: XUDNAN_clean_linker_2, # of connection points: 2
#     Edge 58, Type (0, 0), BuildingBlock: XUDNAN_clean_linker_2, # of connection points: 2
#     Edge 59, Type (0, 0), BuildingBlock: XUDNAN_clean_linker_2, # of connection points: 2
#     Edge 60, Type (0, 0), BuildingBlock: XUDNAN_clean_linker_2, # of connection points: 2
#     Edge 61, Type (0, 0), BuildingBlock: XUDNAN_clean_linker_2, # of connection points: 2
#     Edge 62, Type (0, 0), BuildingBlock: XUDNAN_clean_linker_2, # of connection points: 2
#     Edge 63, Type (0, 0), BuildingBlock: XUDNAN_clean_linker_2, # of connection points: 2
#     Edge 64, Type (0, 0), BuildingBlock: XUDNAN_clean_linker_2, # of connection points: 2
#     Edge 65, Type (0, 0), BuildingBlock: XUDNAN_clean_linker_2, # of connection points: 2
#     Edge 66, Type (0, 0), BuildingBlock: XUDNAN_clean_linker_2, # of connection points: 2
#     Edge 67, Type (0, 0), BuildingBlock: XUDNAN_clean_linker_2, # of connection points: 2
#     Edge 68, Type (0, 0), BuildingBlock: XUDNAN_clean_linker_2, # of connection points: 2
#     Edge 69, Type (0, 0), BuildingBlock: XUDNAN_clean_linker_2, # of connection points: 2
#     Edge 70, Type (0, 0), BuildingBlock: XUDNAN_clean_linker_2, # of connection points: 2
#     Edge 71, Type (0, 0), BuildingBlock: XUDNAN_clean_linker_2, # of connection points: 2
#     Edge 72, Type (0, 0), BuildingBlock: XUDNAN_clean_linker_2, # of connection points: 2
#     Edge 73, Type (0, 0), BuildingBlock: XUDNAN_clean_linker_2, # of connection points: 2
#     Edge 74, Type (0, 0), BuildingBlock: XUDNAN_clean_linker_2, # of connection points: 2
#     Edge 75, Type (0, 0), BuildingBlock: XUDNAN_clean_linker_2, # of connection points: 2
#     Edge 76, Type (0, 0), BuildingBlock: XUDNAN_clean_linker_2, # of connection points: 2
#     Edge 77, Type (0, 0), BuildingBlock: XUDNAN_clean_linker_2, # of connection points: 2
#     Edge 78, Type (0, 0), BuildingBlock: XUDNAN_clean_linker_2, # of connection points: 2
#     Edge 79, Type (0, 0), BuildingBlock: XUDNAN_clean_linker_2, # of connection points: 2
#     Edge 80, Type (0, 0), BuildingBlock: XUDNAN_clean_linker_2, # of connection points: 2
#     Edge 81, Type (0, 0), BuildingBlock: XUDNAN_clean_linker_2, # of connection points: 2
#     Edge 82, Type (0, 0), BuildingBlock: XUDNAN_clean_linker_2, # of connection points: 2
#     Edge 83, Type (0, 0), BuildingBlock: XUDNAN_clean_linker_2, # of connection points: 2
#     Edge 84, Type (0, 0), BuildingBlock: XUDNAN_clean_linker_2, # of connection points: 2
#     Edge 85, Type (0, 0), BuildingBlock: XUDNAN_clean_linker_2, # of connection points: 2
#     Edge 86, Type (0, 0), BuildingBlock: XUDNAN_clean_linker_2, # of connection points: 2
#     Edge 87, Type (0, 0), BuildingBlock: XUDNAN_clean_linker_2, # of connection points: 2
#     Edge 88, Type (0, 0), BuildingBlock: XUDNAN_clean_linker_2, # of connection points: 2
#     Edge 89, Type (0, 0), BuildingBlock: XUDNAN_clean_linker_2, # of connection points: 2
#     Edge 90, Type (0, 0), BuildingBlock: XUDNAN_clean_linker_2, # of connection points: 2
#     Edge 91, Type (0, 0), BuildingBlock: XUDNAN_clean_linker_2, # of connection points: 2
#     Edge 92, Type (0, 0), BuildingBlock: XUDNAN_clean_linker_2, # of connection points: 2
#     Edge 93, Type (0, 0), BuildingBlock: XUDNAN_clean_linker_2, # of connection points: 2
#     Edge 94, Type (0, 0), BuildingBlock: XUDNAN_clean_linker_2, # of connection points: 2
#     Edge 95, Type (0, 0), BuildingBlock: XUDNAN_clean_linker_2, # of connection points: 2
# Relax obj value: 0.132
# Max RMSD: 0.097
# Mean RMSD: 0.097
data_MOF--net-umu--node1-CEKHIL_clean_sbu_0--edge1-XUDNAN_clean_linker_2
_symmetry_space_group_name_H-M    P1
_symmetry_Int_Tables_number       1
_symmetry_cell_setting            triclinic
loop_
_symmetry_equiv_pos_as_xyz
'x, y, z'
_cell_length_a     80.90069
_cell_length_b     81.210092
_cell_length_c     25.637568
_cell_angle_alpha  90.006587
_cell_angle_beta   89.98429
_cell_angle_gamma 90.10334
loop_
_atom_site_label
_atom_site_type_symbol
_atom_site_fract_x
_atom_site_fract_y
_atom_site_fract_z
_atom_type_partial_charge
Co0 Co 0.2198 0.16346 0.07784 0.0
O1 O 0.21245 0.14184 0.05406 0.0
O2 O 0.19741 0.16445 0.05139 0.0
C3 C 0.23156 0.15561 0.15373 0.0
O4 O 0.22243 0.18776 0.0984 0.0
Co5 Co 0.25716 0.17196 0.09305 0.0
O6 O 0.24888 0.19348 0.11852 0.0
C7 C 0.24342 0.16854 0.98742 0.0
C8 C 0.19862 0.14884 0.04087 0.0
C9 C 0.2338 0.1978 0.11395 0.0
O10 O 0.2287 0.16825 0.00638 0.0
O11 O 0.25646 0.16838 0.01567 0.0
O12 O 0.2156 0.15746 0.15089 0.0
O13 O 0.23944 0.1569 0.1103 0.0
Co14 Co 0.11049 0.96354 0.34788 0.0
O15 O 0.13371 0.95991 0.33525 0.0
O16 O 0.11399 0.94296 0.30957 0.0
C17 C 0.11301 0.97151 0.43205 0.0
O18 O 0.08507 0.96307 0.35491 0.0
Co19 Co 0.09763 0.99869 0.37841 0.0
O20 O 0.07697 0.9866 0.39366 0.0
C21 C 0.10893 0.99185 0.27153 0.0
C22 C 0.12968 0.94659 0.3103 0.0
C23 C 0.07386 0.97223 0.37618 0.0
O24 O 0.10932 0.97626 0.28071 0.0
O25 O 0.10571 1.00276 0.306 0.0
O26 O 0.11267 0.95587 0.42056 0.0
O27 O 0.11317 0.98131 0.39282 0.0
Co28 Co 0.30814 0.86053 0.60473 0.0
O29 O 0.31185 0.88364 0.59262 0.0
O30 O 0.32792 0.86399 0.5619 0.0
C31 C 0.30198 0.86286 0.69048 0.0
O32 O 0.30816 0.8352 0.61002 0.0
Co33 Co 0.2733 0.84845 0.64349 0.0
O34 O 0.28469 0.82697 0.64972 0.0
C35 C 0.27785 0.86135 0.53743 0.0
C36 C 0.32453 0.87965 0.56441 0.0
C37 C 0.29882 0.82386 0.62984 0.0
O38 O 0.29366 0.85973 0.54105 0.0
O39 O 0.26797 0.85945 0.57593 0.0
O40 O 0.31743 0.86218 0.67613 0.0
O41 O 0.29151 0.86333 0.65318 0.0
Co42 Co 0.415 0.06132 0.85184 0.0
O43 O 0.39179 0.06517 0.84074 0.0
O44 O 0.41149 0.08127 0.81011 0.0
C45 C 0.41273 0.05485 0.93731 0.0
O46 O 0.44048 0.06116 0.85679 0.0
Co47 Co 0.42673 0.02627 0.8883 0.0
O48 O 0.44834 0.03746 0.89526 0.0
C49 C 0.41325 0.03149 0.78351 0.0
C50 C 0.39574 0.07803 0.81346 0.0
C51 C 0.4517 0.0516 0.87623 0.0
O52 O 0.41549 0.04716 0.78744 0.0
O53 O 0.41499 0.02148 0.82162 0.0
O54 O 0.41344 0.07029 0.92362 0.0
O55 O 0.41218 0.04457 0.89958 0.0
Co56 Co 0.22073 0.85135 0.08464 0.0
O57 O 0.21899 0.87453 0.09973 0.0
O58 O 0.19805 0.85718 0.10411 0.0
C59 C 0.23687 0.85437 0.01281 0.0
O60 O 0.21792 0.82643 0.07118 0.0
Co61 Co 0.25546 0.83404 0.08243 0.0
O62 O 0.24283 0.81562 0.05177 0.0
C63 C 0.24084 0.84632 0.18069 0.0
C64 C 0.20356 0.8721 0.11122 0.0
C65 C 0.22717 0.81438 0.05578 0.0
O66 O 0.22643 0.84739 0.15975 0.0
O67 O 0.25392 0.84274 0.15503 0.0
O68 O 0.22087 0.85585 0.00845 0.0
O69 O 0.24213 0.85218 0.05931 0.0
Co70 Co 0.41492 0.97361 0.32981 0.0
O71 O 0.392 0.97093 0.34795 0.0
O72 O 0.41021 0.95079 0.35004 0.0
C73 C 0.41011 0.98941 0.25867 0.0
O74 O 0.43978 0.97187 0.31291 0.0
Co75 Co 0.43089 1.00891 0.32378 0.0
O76 O 0.44951 0.997 0.29142 0.0
C77 C 0.42128 0.99395 0.42474 0.0
C78 C 0.39513 0.95567 0.35892 0.0
C79 C 0.45136 0.98148 0.29585 0.0
O80 O 0.41975 0.97957 0.4042 0.0
O81 O 0.4241 1.00703 0.39832 0.0
O82 O 0.40943 0.97342 0.25434 0.0
O83 O 0.41279 0.99482 0.3047 0.0
Co84 Co 0.30574 0.16542 0.55078 0.0
O85 O 0.30781 0.14326 0.57709 0.0
O86 O 0.32607 0.16293 0.59143 0.0
C87 C 0.29776 0.15746 0.46982 0.0
O88 O 0.30799 0.18984 0.53021 0.0
Co89 Co 0.27243 0.17893 0.50609 0.0
O90 O 0.28559 0.19842 0.48607 0.0
C91 C 0.27688 0.17359 0.61988 0.0
C92 C 0.32152 0.14775 0.5992 0.0
C93 C 0.29995 0.20099 0.50478 0.0
O94 O 0.29262 0.17158 0.61486 0.0
O95 O 0.26702 0.17507 0.58112 0.0
O96 O 0.31345 0.15819 0.48094 0.0
O97 O 0.28789 0.161 0.50719 0.0
Co98 Co 0.10654 0.05212 0.82796 0.0
O99 O 0.12904 0.05989 0.83987 0.0
O100 O 0.10663 0.07521 0.8465 0.0
C101 C 0.11158 0.03711 0.75497 0.0
O102 O 0.08143 0.04929 0.81852 0.0
Co103 Co 0.09656 0.01491 0.82709 0.0
O104 O 0.07431 0.02277 0.80694 0.0
C105 C 0.10993 0.03121 0.92068 0.0
C106 C 0.12257 0.07407 0.85163 0.0
C107 C 0.07057 0.03799 0.80897 0.0
O108 O 0.10553 0.04543 0.90348 0.0
O109 O 0.10914 0.01804 0.89342 0.0
O110 O 0.10943 0.05299 0.751 0.0
O111 O 0.11166 0.03153 0.80163 0.0
Co112 Co 0.80427 0.86054 0.06377 0.0
O113 O 0.8094 0.88353 0.07379 0.0
O114 O 0.82419 0.86323 0.10656 0.0
C115 C 0.79856 0.86205 0.97739 0.0
O116 O 0.80285 0.83525 0.0607 0.0
Co117 Co 0.76886 0.85009 0.02717 0.0
O118 O 0.77876 0.82781 0.02329 0.0
C119 C 0.77417 0.86277 0.13336 0.0
C120 C 0.82176 0.87904 0.10271 0.0
C121 C 0.79286 0.82421 0.04242 0.0
O122 O 0.78992 0.86116 0.12816 0.0
O123 O 0.76394 0.86069 0.09586 0.0
O124 O 0.81383 0.86065 0.99277 0.0
O125 O 0.78786 0.86381 0.01386 0.0
Co126 Co 0.91428 0.05752 0.8117 0.0
O127 O 0.89259 0.0663 0.83054 0.0
O128 O 0.91652 0.07737 0.85257 0.0
C129 C 0.90902 0.05158 0.72712 0.0
O130 O 0.93901 0.05324 0.80043 0.0
Co131 Co 0.92051 0.02165 0.77243 0.0
O132 O 0.94396 0.02847 0.76474 0.0
C133 C 0.91031 0.02802 0.88051 0.0
C134 C 0.9005 0.07791 0.85522 0.0
C135 C 0.94899 0.04233 0.78191 0.0
O136 O 0.9141 0.04339 0.87614 0.0
O137 O 0.91001 0.01803 0.84197 0.0
O138 O 0.91265 0.06666 0.74051 0.0
O139 O 0.90742 0.04139 0.76498 0.0
Co140 Co 0.72025 0.16561 0.56797 0.0
O141 O 0.7172 0.14267 0.58548 0.0
O142 O 0.70032 0.16247 0.61027 0.0
C143 C 0.72697 0.16145 0.48305 0.0
O144 O 0.71926 0.19076 0.55708 0.0
Co145 Co 0.75464 0.17839 0.5276 0.0
O146 O 0.74261 0.19932 0.51749 0.0
C147 C 0.75029 0.16729 0.63587 0.0
C148 C 0.70415 0.14691 0.6116 0.0
C149 C 0.72827 0.20216 0.5361 0.0
O150 O 0.73443 0.16837 0.63203 0.0
O151 O 0.76012 0.16878 0.59706 0.0
O152 O 0.71145 0.16186 0.49665 0.0
O153 O 0.73726 0.16238 0.52079 0.0
Co154 Co 0.60685 0.96527 0.31542 0.0
O155 O 0.62903 0.95761 0.33328 0.0
O156 O 0.60582 0.94447 0.35142 0.0
C157 C 0.61185 0.97333 0.23257 0.0
O158 O 0.58192 0.96792 0.30397 0.0
Co159 Co 0.59783 1.00129 0.28459 0.0
O160 O 0.57578 0.99218 0.26695 0.0
C161 C 0.60705 0.99317 0.39284 0.0
C162 C 0.62181 0.945 0.35494 0.0
C163 C 0.57153 0.97794 0.28298 0.0
O164 O 0.60607 0.97764 0.38319 0.0
O165 O 0.6053 1.00439 0.35829 0.0
O166 O 0.60931 0.95781 0.24297 0.0
O167 O 0.61263 0.98294 0.27235 0.0
Co168 Co 0.80823 0.16947 0.09061 0.0
O169 O 0.81391 0.14724 0.06799 0.0
O170 O 0.83143 0.16805 0.07281 0.0
C171 C 0.79244 0.16211 0.15999 0.0
O172 O 0.80784 0.19393 0.11144 0.0
Co173 Co 0.77209 0.18285 0.09813 0.0
O174 O 0.78219 0.20241 0.13137 0.0
C175 C 0.7879 0.17631 -0.00418 0.0
C176 C 0.82881 0.15277 0.06022 0.0
C177 C 0.79769 0.20499 0.12812 0.0
O178 O 0.80231 0.17503 0.01668 0.0
O179 O 0.77456 0.17794 0.0222 0.0
O180 O 0.80847 0.1628 0.16494 0.0
O181 O 0.78694 0.16498 0.11405 0.0
Co182 Co 0.60992 0.0548 0.83572 0.0
O183 O 0.63344 0.05789 0.82755 0.0
O184 O 0.61502 0.07749 0.8154 0.0
C185 C 0.61142 0.03949 0.9101 0.0
O186 O 0.5845 0.05626 0.84165 0.0
Co187 Co 0.59464 0.01921 0.83533 0.0
O188 O 0.57423 0.03083 0.85603 0.0
C189 C 0.61113 0.03322 0.74324 0.0
C190 C 0.63043 0.07293 0.81337 0.0
C191 C 0.57239 0.04638 0.85239 0.0
O192 O 0.60878 0.04795 0.76021 0.0
O193 O 0.60811 0.02031 0.77019 0.0
O194 O 0.61199 0.05552 0.91336 0.0
O195 O 0.61107 0.03386 0.86357 0.0
Co196 Co 0.7171 0.85728 0.58923 0.0
O197 O 0.70849 0.87944 0.5789 0.0
O198 O 0.69496 0.85643 0.5614 0.0
C199 C 0.72828 0.86068 0.66938 0.0
O200 O 0.72091 0.83243 0.59437 0.0
Co201 Co 0.75457 0.84979 0.60104 0.0
O202 O 0.74733 0.82678 0.61427 0.0
C203 C 0.74121 0.85965 0.49904 0.0
C204 C 0.69529 0.87242 0.56019 0.0
C205 C 0.73249 0.82217 0.60588 0.0
O206 O 0.72641 0.85795 0.5166 0.0
O207 O 0.7541 0.85826 0.52763 0.0
O208 O 0.71251 0.85779 0.66451 0.0
O209 O 0.73624 0.86289 0.62647 0.0
Co210 Co 0.91675 0.9695 0.33347 0.0
O211 O 0.89351 0.96771 0.31765 0.0
O212 O 0.91089 0.94688 0.3139 0.0
C213 C 0.91353 0.98566 0.40532 0.0
O214 O 0.94173 0.96669 0.34764 0.0
Co215 Co 0.93423 1.00413 0.33647 0.0
O216 O 0.95268 0.99151 0.36684 0.0
C217 C 0.92294 0.98941 0.23715 0.0
C218 C 0.89595 0.95234 0.30629 0.0
C219 C 0.95388 0.97591 0.36286 0.0
O220 O 0.92101 0.97516 0.25833 0.0
O221 O 0.92659 1.00244 0.26282 0.0
O222 O 0.912 0.96972 0.4097 0.0
O223 O 0.91588 0.99084 0.35882 0.0
Co224 Co 0.72271 0.66443 0.60211 0.0
O225 O 0.71744 0.64128 0.59793 0.0
O226 O 0.70044 0.66111 0.5742 0.0
C227 C 0.73442 0.66418 0.68248 0.0
O228 O 0.72376 0.68973 0.60192 0.0
Co229 Co 0.75978 0.67535 0.60978 0.0
O230 O 0.75014 0.69769 0.61517 0.0
C231 C 0.74675 0.66247 0.51114 0.0
C232 C 0.70335 0.64537 0.57749 0.0
C233 C 0.73486 0.70099 0.60895 0.0
O234 O 0.73193 0.6634 0.52919 0.0
O235 O 0.75962 0.66515 0.53884 0.0
O236 O 0.7184 0.66482 0.67805 0.0
O237 O 0.74235 0.66208 0.63959 0.0
Co238 Co 0.60879 0.47334 0.84516 0.0
O239 O 0.63149 0.47084 0.82419 0.0
O240 O 0.61349 0.45045 0.8252 0.0
C241 C 0.61448 0.48942 0.91522 0.0
O242 O 0.58417 0.47148 0.86554 0.0
Co243 Co 0.59287 0.5086 0.85169 0.0
O244 O 0.57469 0.4967 0.88677 0.0
C245 C 0.60106 0.49326 0.75018 0.0
C246 C 0.62844 0.45546 0.81461 0.0
C247 C 0.57279 0.48115 0.8835 0.0
O248 O 0.60287 0.47897 0.77125 0.0
O249 O 0.59866 0.50645 0.77635 0.0
O250 O 0.61534 0.47344 0.91976 0.0
O251 O 0.61117 0.49467 0.86941 0.0
Co252 Co 0.80652 0.36058 0.11289 0.0
O253 O 0.80932 0.38322 0.09212 0.0
O254 O 0.82701 0.36354 0.07287 0.0
C255 C 0.79855 0.36661 0.19539 0.0
O256 O 0.80774 0.33567 0.12833 0.0
Co257 Co 0.77209 0.34771 0.1517 0.0
O258 O 0.78443 0.32747 0.16889 0.0
C259 C 0.77757 0.35687 0.04132 0.0
C260 C 0.82283 0.37896 0.06857 0.0
C261 C 0.79889 0.32455 0.15148 0.0
O262 O 0.79339 0.35653 0.0472 0.0
O263 O 0.76736 0.35538 0.07919 0.0
O264 O 0.81426 0.36582 0.18455 0.0
O265 O 0.78875 0.36451 0.15681 0.0
Co266 Co 0.91887 0.55713 0.33954 0.0
O267 O 0.89644 0.56491 0.32827 0.0
O268 O 0.91894 0.58029 0.32224 0.0
C269 C 0.91392 0.54186 0.41206 0.0
O270 O 0.94394 0.55416 0.34849 0.0
Co271 Co 0.92804 0.51973 0.33749 0.0
O272 O 0.95062 0.52735 0.35476 0.0
C273 C 0.91516 0.53683 0.24514 0.0
C274 C 0.90299 0.57913 0.31723 0.0
C275 C 0.95462 0.54254 0.35493 0.0
O276 O 0.91979 0.55084 0.26355 0.0
O277 O 0.91553 0.52347 0.27144 0.0
O278 O 0.91615 0.55772 0.41653 0.0
O279 O 0.91357 0.53646 0.36516 0.0
Co280 Co 0.71868 0.35882 0.58675 0.0
O281 O 0.71619 0.38177 0.60336 0.0
O282 O 0.69682 0.3632 0.61733 0.0
C283 C 0.73025 0.36271 0.50735 0.0
O284 O 0.71725 0.33379 0.5734 0.0
Co285 Co 0.75464 0.34533 0.57127 0.0
O286 O 0.74261 0.32533 0.54859 0.0
C287 C 0.74286 0.35434 0.67572 0.0
C288 C 0.70164 0.37847 0.62175 0.0
C289 C 0.72729 0.32256 0.55663 0.0
O290 O 0.72799 0.35503 0.65821 0.0
O291 O 0.75549 0.35207 0.64649 0.0
O292 O 0.71425 0.36334 0.51261 0.0
O293 O 0.73842 0.36134 0.55008 0.0
Co294 Co 0.91496 0.468 0.8185 0.0
O295 O 0.89171 0.46455 0.83127 0.0
O296 O 0.91122 0.44738 0.85645 0.0
C297 C 0.9124 0.4761 0.73452 0.0
O298 O 0.94034 0.46725 0.81103 0.0
Co299 Co 0.92849 0.50292 0.78804 0.0
O300 O 0.94886 0.49057 0.77177 0.0
C301 C 0.91752 0.49614 0.89546 0.0
C302 C 0.89557 0.4511 0.85568 0.0
C303 C 0.9517 0.47617 0.78935 0.0
O304 O 0.91643 0.48061 0.88591 0.0
O305 O 0.92106 0.50702 0.86114 0.0
O306 O 0.91256 0.46045 0.74582 0.0
O307 O 0.91248 0.48588 0.77384 0.0
Co308 Co 0.8096 0.66812 0.07747 0.0
O309 O 0.81844 0.6464 0.09365 0.0
O310 O 0.82926 0.67 0.11967 0.0
C311 C 0.80439 0.66389 0.99193 0.0
O312 O 0.80525 0.6928 0.06906 0.0
Co313 Co 0.77398 0.67466 0.03711 0.0
O314 O 0.78139 0.69782 0.0275 0.0
C315 C 0.77959 0.66394 0.14569 0.0
C316 C 0.82986 0.65402 0.12011 0.0
C317 C 0.7949 0.70279 0.04772 0.0
O318 O 0.79519 0.66691 0.14148 0.0
O319 O 0.76954 0.66475 0.10723 0.0
O320 O 0.81928 0.66779 0.00701 0.0
O321 O 0.79379 0.66161 0.02851 0.0
Co322 Co 0.60923 0.55972 0.32286 0.0
O323 O 0.63191 0.56204 0.34506 0.0
O324 O 0.61201 0.57917 0.36736 0.0
C325 C 0.61518 0.55368 0.2388 0.0
O326 O 0.58426 0.56128 0.30683 0.0
Co327 Co 0.59649 0.52627 0.27564 0.0
O328 O 0.57639 0.53914 0.2599 0.0
C329 C 0.60507 0.52917 0.38709 0.0
C330 C 0.62749 0.57497 0.3712 0.0
C331 C 0.57331 0.55308 0.28061 0.0
O332 O 0.60493 0.54505 0.38476 0.0
O333 O 0.60378 0.51985 0.34706 0.0
O334 O 0.61462 0.56905 0.25338 0.0
O335 O 0.61315 0.54314 0.27526 0.0
Co336 Co 0.31288 0.35595 0.56554 0.0
O337 O 0.31953 0.37826 0.58531 0.0
O338 O 0.33405 0.35579 0.60028 0.0
C339 C 0.30411 0.36154 0.48383 0.0
O340 O 0.31133 0.33109 0.55106 0.0
Co341 Co 0.27698 0.34554 0.53568 0.0
O342 O 0.28724 0.32468 0.51253 0.0
C343 C 0.2854 0.35326 0.64488 0.0
C344 C 0.33275 0.37165 0.60524 0.0
C345 C 0.30168 0.32074 0.52785 0.0
O346 O 0.30093 0.35368 0.63393 0.0
O347 O 0.27399 0.3512 0.61097 0.0
O348 O 0.31984 0.35971 0.49314 0.0
O349 O 0.29464 0.36127 0.52411 0.0
Co350 Co 0.41713 0.55594 0.32082 0.0
O351 O 0.39458 0.5575 0.34505 0.0
O352 O 0.41331 0.5769 0.35666 0.0
C353 C 0.41118 0.54609 0.23996 0.0
O354 O 0.44162 0.55875 0.3014 0.0
Co355 Co 0.43184 0.52159 0.29044 0.0
O356 O 0.45131 0.53488 0.26875 0.0
C357 C 0.42615 0.52994 0.40042 0.0
C358 C 0.39824 0.57181 0.36444 0.0
C359 C 0.45326 0.55001 0.28083 0.0
O360 O 0.42377 0.54514 0.38825 0.0
O361 O 0.42761 0.51835 0.36693 0.0
O362 O 0.41034 0.56182 0.24938 0.0
O363 O 0.41411 0.53705 0.28003 0.0
Co364 Co 0.21941 0.65868 0.07418 0.0
O365 O 0.21606 0.63533 0.08296 0.0
O366 O 0.19779 0.65422 0.10519 0.0
C367 C 0.23022 0.6577 0.99284 0.0
O368 O 0.21834 0.68392 0.06983 0.0
Co369 Co 0.25501 0.67273 0.05941 0.0
O370 O 0.24299 0.69326 0.04172 0.0
C371 C 0.24449 0.66061 0.16226 0.0
C372 C 0.20193 0.63873 0.10443 0.0
C373 C 0.22784 0.69559 0.05322 0.0
O374 O 0.2295 0.6596 0.14584 0.0
O375 O 0.2567 0.66439 0.1328 0.0
O376 O 0.21424 0.6575 -0.00084 0.0
O377 O 0.2388 0.65702 0.03495 0.0
Co378 Co 0.10744 0.46352 0.84342 0.0
O379 O 0.12964 0.45725 0.8651 0.0
O380 O 0.10823 0.44041 0.86119 0.0
C381 C 0.11505 0.47908 0.77407 0.0
O382 O 0.08287 0.46461 0.82351 0.0
Co383 Co 0.09502 0.49992 0.83655 0.0
O384 O 0.07498 0.49041 0.80417 0.0
C385 C 0.10129 0.48385 0.93852 0.0
C386 C 0.12368 0.44259 0.87326 0.0
C387 C 0.07198 0.47504 0.80745 0.0
O388 O 0.10223 0.4695 0.91747 0.0
O389 O 0.09995 0.49721 0.91237 0.0
O390 O 0.11389 0.46314 0.76893 0.0
O391 O 0.11246 0.4846 0.82013 0.0
Co392 Co 0.30795 0.66617 0.59999 0.0
O393 O 0.31233 0.64292 0.59346 0.0
O394 O 0.32858 0.6623 0.56179 0.0
C395 C 0.30034 0.6657 0.68518 0.0
O396 O 0.30757 0.69157 0.60066 0.0
Co397 Co 0.27209 0.67789 0.6274 0.0
O398 O 0.28265 0.69989 0.62992 0.0
C399 C 0.27932 0.66294 0.52573 0.0
C400 C 0.32549 0.64664 0.56699 0.0
C401 C 0.2974 0.70297 0.61521 0.0
O402 O 0.29492 0.66528 0.53277 0.0
O403 O 0.2685 0.66535 0.56129 0.0
O404 O 0.31596 0.66628 0.6731 0.0
O405 O 0.29042 0.66405 0.64656 0.0
Co406 Co 0.11248 0.55058 0.36609 0.0
O407 O 0.13554 0.55405 0.35009 0.0
O408 O 0.11541 0.57033 0.32346 0.0
C409 C 0.11609 0.54415 0.45135 0.0
O410 O 0.08719 0.55101 0.37484 0.0
Co411 Co 0.10027 0.51598 0.40565 0.0
O412 O 0.07839 0.52675 0.40774 0.0
C413 C 0.11197 0.52054 0.29841 0.0
C414 C 0.13111 0.56683 0.3231 0.0
C415 C 0.07561 0.54125 0.39082 0.0
O416 O 0.11043 0.5363 0.3022 0.0
O417 O 0.11072 0.51074 0.33724 0.0
O418 O 0.11551 0.55959 0.43745 0.0
O419 O 0.1157 0.53381 0.41376 0.0
Co420 Co 0.22294 0.35404 0.08918 0.0
O421 O 0.21493 0.37617 0.07394 0.0
O422 O 0.19994 0.35348 0.06933 0.0
C423 C 0.23748 0.36041 0.1623 0.0
O424 O 0.2258 0.32923 0.10189 0.0
Co425 Co 0.26022 0.34422 0.09517 0.0
O426 O 0.25221 0.32226 0.11729 0.0
C427 C 0.24478 0.35576 -0.00252 0.0
C428 C 0.20085 0.3693 0.06239 0.0
C429 C 0.23695 0.31852 0.11383 0.0
O430 O 0.23023 0.35209 0.01423 0.0
O431 O 0.25774 0.35526 0.026 0.0
O432 O 0.22156 0.35797 0.16568 0.0
O433 O 0.2434 0.35975 0.11608 0.0
Co434 Co 0.41929 0.46911 0.84329 0.0
O435 O 0.39799 0.4628 0.81312 0.0
O436 O 0.41991 0.44676 0.81763 0.0
C437 C 0.40892 0.48154 0.91587 0.0
O438 O 0.4431 0.47001 0.87063 0.0
Co439 Co 0.43033 0.50495 0.87051 0.0
O440 O 0.44999 0.49472 0.90303 0.0
C441 C 0.43089 0.49291 0.76064 0.0
C442 C 0.40466 0.44859 0.80295 0.0
C443 C 0.45342 0.47972 0.89349 0.0
O444 O 0.42685 0.47809 0.77359 0.0
O445 O 0.43168 0.50493 0.79284 0.0
O446 O 0.41077 0.46561 0.91505 0.0
O447 O 0.41268 0.48901 0.87344 0.0
H448 H 0.15453 0.07334 0.89062 0.0
H449 H 0.11272 0.10585 0.86639 0.0
H450 H 0.12765 0.12823 0.9114 0.0
H451 H 0.16434 0.08749 0.01885 0.0
H452 H 0.18643 0.08603 0.01091 0.0
H453 H 0.17297 0.07269 0.9741 0.0
H454 H 0.18624 0.08284 0.88797 0.0
H455 H 0.19984 0.09612 0.92454 0.0
H456 H 0.18689 0.1046 0.87409 0.0
H457 H 0.14657 0.1469 0.96167 0.0
H458 H 0.16853 0.16088 0.0116 0.0
H459 H 0.19834 0.11654 0.00531 0.0
C460 C 0.14863 0.08525 0.89404 0.0
C461 C 0.13244 0.08783 0.87448 0.0
C462 C 0.12509 0.10354 0.88071 0.0
C463 C 0.13348 0.11635 0.90636 0.0
C464 C 0.14926 0.11334 0.92594 0.0
C465 C 0.15683 0.09821 0.91996 0.0
C466 C 0.17373 0.09818 0.94607 0.0
C467 C 0.1744 0.08534 0.9901 0.0
C468 C 0.18749 0.09526 0.90576 0.0
C469 C 0.17443 0.11561 0.96773 0.0
C470 C 0.16017 0.12412 0.95554 0.0
C471 C 0.15781 0.14037 0.97131 0.0
C472 C 0.17038 0.14821 -0.00015 0.0
C473 C 0.18521 0.13987 0.01266 0.0
C474 C 0.18716 0.12328 -0.00359 0.0
H475 H 0.12771 0.91503 0.26656 0.0
H476 H 0.1606 0.95691 0.28606 0.0
H477 H 0.18189 0.94281 0.23454 0.0
H478 H 0.15995 0.88397 0.27818 0.0
H479 H 0.15109 0.87035 0.23018 0.0
H480 H 0.13792 0.8838 0.26754 0.0
H481 H 0.12611 0.89593 0.18199 0.0
H482 H 0.13933 0.8826 0.14438 0.0
H483 H 0.14003 0.90456 0.13431 0.0
H484 H 0.19955 0.92501 0.18018 0.0
H485 H 0.21389 0.90322 0.13189 0.0
H486 H 0.171 0.87137 0.14846 0.0
C487 C 0.13941 0.92119 0.25996 0.0
C488 C 0.14241 0.93716 0.28055 0.0
C489 C 0.15794 0.94471 0.27116 0.0
C490 C 0.17014 0.93682 0.2416 0.0
C491 C 0.16682 0.92121 0.22175 0.0
C492 C 0.15196 0.91331 0.23088 0.0
C493 C 0.15208 0.89621 0.20616 0.0
C494 C 0.15015 0.88279 0.24801 0.0
C495 C 0.13858 0.89474 0.16422 0.0
C496 C 0.16929 0.89585 0.18186 0.0
C497 C 0.17741 0.91054 0.19109 0.0
C498 C 0.19335 0.91343 0.17283 0.0
C499 C 0.20139 0.90091 0.14519 0.0
C500 C 0.19366 0.88549 0.1361 0.0
C501 C 0.17726 0.88302 0.15442 0.0
H502 H 0.39728 0.92318 0.39541 0.0
H503 H 0.36381 0.96477 0.38246 0.0
H504 H 0.34284 0.94965 0.4322 0.0
H505 H 0.36477 0.89126 0.38329 0.0
H506 H 0.37431 0.87758 0.42972 0.0
H507 H 0.38691 0.89133 0.39136 0.0
H508 H 0.39962 0.90328 0.47592 0.0
H509 H 0.38697 0.88967 0.51455 0.0
H510 H 0.38619 0.91158 0.52549 0.0
H511 H 0.32613 0.93157 0.4879 0.0
H512 H 0.31312 0.91 0.54088 0.0
H513 H 0.35575 0.87845 0.51689 0.0
C514 C 0.38545 0.92898 0.40247 0.0
C515 C 0.38229 0.94526 0.38478 0.0
C516 C 0.36665 0.95239 0.39528 0.0
C517 C 0.35459 0.9439 0.42373 0.0
C518 C 0.35814 0.9281 0.44134 0.0
C519 C 0.37304 0.92052 0.4307 0.0
C520 C 0.37338 0.90334 0.45479 0.0
C521 C 0.37493 0.89009 0.41225 0.0
C522 C 0.38738 0.90189 0.49508 0.0
C523 C 0.35646 0.90265 0.48103 0.0
C524 C 0.34804 0.9172 0.47277 0.0
C525 C 0.33251 0.92005 0.49424 0.0
C526 C 0.32525 0.90769 0.52462 0.0
C527 C 0.33333 0.89246 0.53319 0.0
C528 C 0.3492 0.8899 0.51086 0.0
H529 H 0.39841 0.10727 0.7558 0.0
H530 H 0.36324 0.07018 0.80729 0.0
H531 H 0.34115 0.0842 0.75939 0.0
H532 H 0.36946 0.142 0.76431 0.0
H533 H 0.37735 0.15218 0.70697 0.0
H534 H 0.3908 0.13945 0.74579 0.0
H535 H 0.398 0.12215 0.66411 0.0
H536 H 0.38453 0.13479 0.62508 0.0
H537 H 0.38158 0.1128 0.62686 0.0
H538 H 0.32298 0.10084 0.70348 0.0
H539 H 0.30901 0.12058 0.64586 0.0
H540 H 0.35457 0.14855 0.63121 0.0
C541 C 0.38604 0.10219 0.75718 0.0
C542 C 0.38266 0.08754 0.78555 0.0
C543 C 0.36626 0.08134 0.78619 0.0
C544 C 0.35355 0.08921 0.75893 0.0
C545 C 0.35724 0.10347 0.73121 0.0
C546 C 0.37299 0.11008 0.73033 0.0
C547 C 0.37329 0.1257 0.69727 0.0
C548 C 0.37801 0.14072 0.73058 0.0
C549 C 0.38505 0.12374 0.65056 0.0
C550 C 0.35532 0.12663 0.6795 0.0
C551 C 0.34641 0.11356 0.69955 0.0
C552 C 0.32978 0.11121 0.68781 0.0
C553 C 0.32196 0.12249 0.65478 0.0
C554 C 0.33062 0.13617 0.63394 0.0
C555 C 0.34757 0.1383 0.64681 0.0
H556 H 0.85308 0.87671 0.14916 0.0
H557 H 0.81157 0.90979 0.1268 0.0
H558 H 0.82552 0.93084 0.17963 0.0
H559 H 0.86305 0.88898 0.28226 0.0
H560 H 0.88513 0.88822 0.27322 0.0
H561 H 0.87185 0.87507 0.23503 0.0
H562 H 0.88452 0.88678 0.15005 0.0
H563 H 0.89791 0.89987 0.18799 0.0
H564 H 0.88454 0.90872 0.13932 0.0
H565 H 0.8431 0.94829 0.23527 0.0
H566 H 0.86483 0.96259 0.28434 0.0
H567 H 0.89667 0.91982 0.26938 0.0
C568 C 0.84697 0.88839 0.15551 0.0
C569 C 0.83114 0.89153 0.13367 0.0
C570 C 0.82366 0.90704 0.14264 0.0
C571 C 0.83146 0.9191 0.17297 0.0
C572 C 0.84694 0.91569 0.19393 0.0
C573 C 0.8548 0.90085 0.18522 0.0
C574 C 0.87185 0.90093 0.21077 0.0
C575 C 0.87304 0.8875 0.25282 0.0
C576 C 0.88551 0.89896 0.16957 0.0
C577 C 0.87222 0.9181 0.23505 0.0
C578 C 0.85756 0.92621 0.22513 0.0
C579 C 0.85467 0.9421 0.24316 0.0
C580 C 0.86715 0.95013 0.27125 0.0
C581 C 0.88256 0.94243 0.281 0.0
C582 C 0.88504 0.92606 0.26293 0.0
H583 H 0.86724 0.08024 0.88241 0.0
H584 H 0.91458 0.10487 0.90022 0.0
H585 H 0.90149 0.12596 0.95539 0.0
H586 H 0.8422 0.11739 0.87716 0.0
H587 H 0.82534 0.10872 0.91409 0.0
H588 H 0.83829 0.09554 0.8751 0.0
H589 H 0.8446 0.07775 0.95649 0.0
H590 H 0.83175 0.09094 -0.0042 0.0
H591 H 0.85296 0.08741 0.01407 0.0
H592 H 0.88357 0.14458 0.00838 0.0
H593 H 0.86174 0.15974 0.05517 0.0
H594 H 0.82565 0.12328 0.00621 0.0
C595 C 0.87481 0.09014 0.89767 0.0
C596 C 0.892 0.09086 0.88667 0.0
C597 C 0.90144 0.10397 0.90786 0.0
C598 C 0.89411 0.11605 0.93939 0.0
C599 C 0.87725 0.11492 0.94987 0.0
C600 C 0.86767 0.10234 0.92968 0.0
C601 C 0.8498 0.10409 0.94758 0.0
C602 C 0.83823 0.10658 0.90068 0.0
C603 C 0.84447 0.08916 0.98044 0.0
C604 C 0.85089 0.1196 0.98079 0.0
C605 C 0.86687 0.12562 0.98139 0.0
C606 C 0.87101 0.13995 0.00833 0.0
C607 C 0.8585 0.14849 0.03491 0.0
C608 C 0.84197 0.1427 0.03486 0.0
C609 C 0.83819 0.12794 0.00764 0.0
H610 H 0.67175 0.14774 0.64974 0.0
H611 H 0.71635 0.11811 0.64798 0.0
H612 H 0.70277 0.09741 0.70338 0.0
H613 H 0.65902 0.13825 0.7832 0.0
H614 H 0.63732 0.13684 0.76794 0.0
H615 H 0.65059 0.15008 0.73001 0.0
H616 H 0.6415 0.13517 0.64547 0.0
H617 H 0.62813 0.12198 0.68311 0.0
H618 H 0.64358 0.11312 0.64099 0.0
H619 H 0.68496 0.07987 0.75879 0.0
H620 H 0.6629 0.06492 0.80458 0.0
H621 H 0.62847 0.10433 0.76893 0.0
C622 C 0.67863 0.13692 0.66129 0.0
C623 C 0.6952 0.13462 0.64449 0.0
C624 C 0.70369 0.12018 0.66 0.0
C625 C 0.6961 0.10835 0.69182 0.0
C626 C 0.67985 0.11092 0.70767 0.0
C627 C 0.67107 0.1247 0.69257 0.0
C628 C 0.6534 0.12379 0.7132 0.0
C629 C 0.64988 0.13809 0.75083 0.0
C630 C 0.64092 0.1235 0.66799 0.0
C631 C 0.6537 0.10736 0.742 0.0
C632 C 0.66921 0.10034 0.73867 0.0
C633 C 0.67275 0.08522 0.7616 0.0
C634 C 0.66007 0.07682 0.78774 0.0
C635 C 0.64386 0.08337 0.79065 0.0
C636 C 0.64072 0.099 0.76784 0.0
H637 H 0.65403 0.9457 0.393 0.0
H638 H 0.61004 0.91511 0.38491 0.0
H639 H 0.6238 0.89395 0.43808 0.0
H640 H 0.68394 0.91223 0.38704 0.0
H641 H 0.69799 0.92161 0.43286 0.0
H642 H 0.6849 0.93434 0.39287 0.0
H643 H 0.67328 0.94837 0.47585 0.0
H644 H 0.68625 0.93558 0.5161 0.0
H645 H 0.66421 0.93587 0.52648 0.0
H646 H 0.64203 0.87591 0.49141 0.0
H647 H 0.66394 0.86186 0.54117 0.0
H648 H 0.69629 0.90396 0.51888 0.0
C649 C 0.64738 0.93447 0.40202 0.0
C650 C 0.63093 0.93207 0.38442 0.0
C651 C 0.62261 0.91728 0.39775 0.0
C652 C 0.63032 0.90516 0.42806 0.0
C653 C 0.6464 0.90795 0.44533 0.0
C654 C 0.65489 0.9222 0.43287 0.0
C655 C 0.67205 0.92206 0.4573 0.0
C656 C 0.68551 0.92259 0.41499 0.0
C657 C 0.67406 0.93632 0.49625 0.0
C658 C 0.67183 0.9055 0.48515 0.0
C659 C 0.65688 0.89761 0.4775 0.0
C660 C 0.65376 0.882 0.49789 0.0
C661 C 0.66629 0.87412 0.52622 0.0
C662 C 0.68178 0.88183 0.53449 0.0
C663 C 0.68448 0.89785 0.51405 0.0
H664 H 0.67335 0.64926 0.52471 0.0
H665 H 0.70843 0.61232 0.57669 0.0
H666 H 0.69236 0.59086 0.53206 0.0
H667 H 0.63629 0.62259 0.53732 0.0
H668 H 0.62647 0.63089 0.47999 0.0
H669 H 0.64023 0.64358 0.51804 0.0
H670 H 0.65776 0.64937 0.43559 0.0
H671 H 0.64413 0.63663 0.39736 0.0
H672 H 0.66598 0.63234 0.39872 0.0
H673 H 0.67435 0.57363 0.47647 0.0
H674 H 0.65377 0.56094 0.41835 0.0
H675 H 0.62855 0.60785 0.40397 0.0
C676 C 0.67748 0.63662 0.52736 0.0
C677 C 0.69223 0.63256 0.55452 0.0
C678 C 0.69723 0.61584 0.55649 0.0
C679 C 0.68817 0.6035 0.53108 0.0
C680 C 0.67393 0.6079 0.50402 0.0
C681 C 0.66841 0.62397 0.50243 0.0
C682 C 0.65269 0.62515 0.46973 0.0
C683 C 0.63805 0.63089 0.50328 0.0
C684 C 0.6553 0.63655 0.42255 0.0
C685 C 0.6505 0.60729 0.45263 0.0
C686 C 0.66302 0.59766 0.47286 0.0
C687 C 0.66436 0.58099 0.46092 0.0
C688 C 0.65262 0.5739 0.42757 0.0
C689 C 0.63947 0.58332 0.40669 0.0
C690 C 0.63834 0.60027 0.41981 0.0
H691 H 0.6263 0.42295 0.77725 0.0
H692 H 0.66002 0.46434 0.79405 0.0
H693 H 0.68141 0.44907 0.74709 0.0
H694 H 0.65813 0.39084 0.79348 0.0
H695 H 0.64917 0.3772 0.74572 0.0
H696 H 0.63614 0.39107 0.78201 0.0
H697 H 0.6249 0.40305 0.69553 0.0
H698 H 0.63798 0.3893 0.65899 0.0
H699 H 0.63917 0.4112 0.64803 0.0
H700 H 0.69882 0.43075 0.69534 0.0
H701 H 0.71264 0.40897 0.64602 0.0
H702 H 0.66926 0.37772 0.66216 0.0
C703 C 0.63825 0.42869 0.7715 0.0
C704 C 0.64136 0.44496 0.78957 0.0
C705 C 0.65718 0.45199 0.78082 0.0
C706 C 0.6695 0.4434 0.75398 0.0
C707 C 0.66602 0.42762 0.73603 0.0
C708 C 0.65092 0.42014 0.7447 0.0
C709 C 0.65077 0.40292 0.72066 0.0
C710 C 0.64842 0.38973 0.763 0.0
C711 C 0.63741 0.40154 0.67829 0.0
C712 C 0.66808 0.40207 0.69701 0.0
C713 C 0.67649 0.41659 0.7064 0.0
C714 C 0.69243 0.41926 0.68801 0.0
C715 C 0.70017 0.40674 0.6597 0.0
C716 C 0.69214 0.39151 0.64993 0.0
C717 C 0.67578 0.38917 0.66892 0.0
H718 H 0.8981 0.42049 0.9055 0.0
H719 H 0.86364 0.45999 0.87099 0.0
H720 H 0.84205 0.44568 0.92072 0.0
H721 H 0.86747 0.38717 0.89571 0.0
H722 H 0.87615 0.37534 0.94846 0.0
H723 H 0.88927 0.38848 0.90968 0.0
H724 H 0.89908 0.40344 0.99329 0.0
H725 H 0.88595 0.39039 0.0323 0.0
H726 H 0.88399 0.41245 0.03642 0.0
H727 H 0.82444 0.42839 0.97677 0.0
H728 H 0.81083 0.4078 0.03213 0.0
H729 H 0.85525 0.37784 0.02972 0.0
C730 C 0.88597 0.42605 0.9082 0.0
C731 C 0.88265 0.44145 0.88407 0.0
C732 C 0.86659 0.44824 0.88869 0.0
C733 C 0.85418 0.44021 0.91708 0.0
C734 C 0.85783 0.42521 0.94057 0.0
C735 C 0.87323 0.41802 0.93618 0.0
C736 C 0.87355 0.40163 0.96533 0.0
C737 C 0.8768 0.38731 0.92753 0.0
C738 C 0.88641 0.40201 0.00946 0.0
C739 C 0.856 0.40092 0.98704 0.0
C740 C 0.84729 0.41477 0.97228 0.0
C741 C 0.83109 0.41743 0.98829 0.0
C742 C 0.82347 0.40563 0.02005 0.0
C743 C 0.83189 0.39112 0.03546 0.0
C744 C 0.84843 0.38873 0.01843 0.0
H745 H 0.83113 0.62089 0.14611 0.0
H746 H 0.8573 0.66719 0.16565 0.0
H747 H 0.87808 0.65328 0.22034 0.0
H748 H 0.83782 0.60608 0.27747 0.0
H749 H 0.84058 0.5849 0.25834 0.0
H750 H 0.82776 0.59831 0.21973 0.0
H751 H 0.84526 0.59171 0.13778 0.0
H752 H 0.85805 0.57818 0.17604 0.0
H753 H 0.86733 0.59479 0.13965 0.0
H754 H 0.89649 0.63439 0.27126 0.0
H755 H 0.91125 0.6117 0.3152 0.0
H756 H 0.87288 0.57759 0.2668 0.0
C757 C 0.84129 0.62807 0.16165 0.0
C758 C 0.84259 0.64516 0.15126 0.0
C759 C 0.85601 0.65411 0.17286 0.0
C760 C 0.86789 0.64631 0.20411 0.0
C761 C 0.8662 0.62952 0.21397 0.0
C762 C 0.85325 0.62047 0.19349 0.0
C763 C 0.85435 0.60257 0.21059 0.0
C764 C 0.83922 0.59768 0.24349 0.0
C765 C 0.85637 0.59114 0.16319 0.0
C766 C 0.86997 0.60299 0.24353 0.0
C767 C 0.87661 0.61868 0.24477 0.0
C768 C 0.89134 0.62209 0.2709 0.0
C769 C 0.89963 0.60911 0.29584 0.0
C770 C 0.89315 0.59291 0.29507 0.0
C771 C 0.87799 0.5899 0.26899 0.0
H772 H 0.33194 0.40446 0.63721 0.0
H773 H 0.36264 0.36066 0.63892 0.0
H774 H 0.38383 0.37558 0.68904 0.0
H775 H 0.36563 0.43412 0.62458 0.0
H776 H 0.35627 0.44912 0.66712 0.0
H777 H 0.34344 0.43521 0.63015 0.0
H778 H 0.32929 0.42551 0.71538 0.0
H779 H 0.34212 0.43935 0.75262 0.0
H780 H 0.34178 0.41769 0.76803 0.0
H781 H 0.40174 0.39478 0.73927 0.0
H782 H 0.41549 0.4173 0.78671 0.0
H783 H 0.37367 0.44924 0.75542 0.0
C784 C 0.34318 0.39807 0.64782 0.0
C785 C 0.34558 0.38133 0.63379 0.0
C786 C 0.36043 0.37342 0.64898 0.0
C787 C 0.37259 0.38181 0.67756 0.0
C788 C 0.36982 0.39818 0.69109 0.0
C789 C 0.35552 0.40629 0.67682 0.0
C790 C 0.35571 0.42391 0.69733 0.0
C791 C 0.35524 0.43633 0.65209 0.0
C792 C 0.34137 0.42678 0.73562 0.0
C793 C 0.37233 0.42436 0.72527 0.0
C794 C 0.38021 0.40934 0.72092 0.0
C795 C 0.39569 0.4066 0.74295 0.0
C796 C 0.40342 0.41951 0.76992 0.0
C797 C 0.39572 0.4351 0.77508 0.0
C798 C 0.37988 0.43748 0.75247 0.0
H799 H 0.35541 0.64903 0.51233 0.0
H800 H 0.3178 0.61415 0.56198 0.0
H801 H 0.33232 0.59197 0.51602 0.0
H802 H 0.36222 0.6318 0.38462 0.0
H803 H 0.38431 0.63478 0.38486 0.0
H804 H 0.37122 0.64831 0.42215 0.0
H805 H 0.38777 0.64151 0.50575 0.0
H806 H 0.40096 0.62801 0.46867 0.0
H807 H 0.39021 0.62032 0.52527 0.0
H808 H 0.34963 0.57367 0.46189 0.0
H809 H 0.3702 0.55955 0.40746 0.0
H810 H 0.39828 0.60498 0.39414 0.0
C811 C 0.35033 0.6367 0.51378 0.0
C812 C 0.33537 0.63343 0.54101 0.0
C813 C 0.32918 0.61708 0.54177 0.0
C814 C 0.33734 0.60433 0.51555 0.0
C815 C 0.35188 0.60793 0.48885 0.0
C816 C 0.3585 0.62362 0.48809 0.0
C817 C 0.3745 0.62384 0.45654 0.0
C818 C 0.37296 0.63537 0.40923 0.0
C819 C 0.38923 0.62871 0.49113 0.0
C820 C 0.37566 0.60588 0.43951 0.0
C821 C 0.36235 0.59705 0.45847 0.0
C822 C 0.36019 0.58042 0.44714 0.0
C823 C 0.37196 0.5725 0.4159 0.0
C824 C 0.38594 0.58107 0.39646 0.0
C825 C 0.3878 0.59804 0.40864 0.0
H826 H 0.12943 0.59855 0.28133 0.0
H827 H 0.16049 0.55508 0.28903 0.0
H828 H 0.18077 0.56837 0.23123 0.0
H829 H 0.138 0.60936 0.14666 0.0
H830 H 0.13887 0.63123 0.15821 0.0
H831 H 0.1262 0.61831 0.19913 0.0
H832 H 0.1414 0.62917 0.28109 0.0
H833 H 0.15402 0.64221 0.24045 0.0
H834 H 0.16361 0.6278 0.28448 0.0
H835 H 0.1974 0.58555 0.17123 0.0
H836 H 0.21121 0.60697 0.11944 0.0
H837 H 0.17103 0.64079 0.15276 0.0
C838 C 0.14051 0.59187 0.27076 0.0
C839 C 0.14332 0.5757 0.28976 0.0
C840 C 0.15805 0.56745 0.27535 0.0
C841 C 0.16964 0.57488 0.2422 0.0
C842 C 0.16653 0.59072 0.22402 0.0
C843 C 0.15249 0.59929 0.23824 0.0
C844 C 0.15276 0.61653 0.21469 0.0
C845 C 0.13808 0.619 0.17746 0.0
C846 C 0.15296 0.62971 0.25775 0.0
C847 C 0.16908 0.6162 0.18498 0.0
C848 C 0.17663 0.60106 0.19058 0.0
C849 C 0.19166 0.59749 0.16673 0.0
C850 C 0.19939 0.60978 0.13712 0.0
C851 C 0.19228 0.62564 0.13178 0.0
C852 C 0.1768 0.62881 0.15587 0.0
H853 H 0.15563 0.44401 0.91261 0.0
H854 H 0.11365 0.41117 0.89385 0.0
H855 H 0.12851 0.38954 0.9421 0.0
H856 H 0.1874 0.4126 0.89788 0.0
H857 H 0.20088 0.42154 0.94619 0.0
H858 H 0.18706 0.43449 0.90951 0.0
H859 H 0.17468 0.44561 -0.00428 0.0
H860 H 0.18836 0.43257 0.03267 0.0
H861 H 0.16634 0.43134 0.04278 0.0
H862 H 0.14747 0.37153 0.99354 0.0
H863 H 0.16998 0.35766 0.04082 0.0
H864 H 0.20023 0.40167 0.02724 0.0
C865 C 0.14963 0.43221 0.91825 0.0
C866 C 0.13343 0.42932 0.89913 0.0
C867 C 0.12602 0.41373 0.90781 0.0
C868 C 0.13436 0.40135 0.93539 0.0
C869 C 0.15017 0.40464 0.95425 0.0
C870 C 0.15783 0.41963 0.94582 0.0
C871 C 0.17496 0.41984 0.97034 0.0
C872 C 0.18837 0.42226 0.92848 0.0
C873 C 0.17615 0.43313 0.0129 0.0
C874 C 0.17571 0.40264 0.99375 0.0
C875 C 0.16121 0.39416 0.98408 0.0
C876 C 0.15888 0.37805 0.00129 0.0
C877 C 0.17177 0.37028 0.0283 0.0
C878 C 0.18692 0.37853 0.03806 0.0
C879 C 0.18879 0.39504 0.02088 0.0
H880 H 0.27207 0.16572 0.9304 0.0
H881 H 0.21915 0.1737 0.91511 0.0
H882 H 0.22238 0.17623 0.82003 0.0
H883 H 0.28482 0.19408 0.83106 0.0
H884 H 0.30138 0.18128 0.80732 0.0
H885 H 0.29509 0.17999 0.87461 0.0
H886 H 0.29016 0.14862 0.86444 0.0
H887 H 0.2965 0.14979 0.79718 0.0
H888 H 0.2766 0.14125 0.81373 0.0
H889 H 0.23105 0.17845 0.72843 0.0
H890 H 0.24444 0.17894 0.64286 0.0
H891 H 0.29196 0.16901 0.71574 0.0
C892 C 0.26115 0.168 0.90712 0.0
C893 C 0.24536 0.16958 0.9303 0.0
C894 C 0.23137 0.17244 0.89834 0.0
C895 C 0.23307 0.17394 0.8443 0.0
C896 C 0.2488 0.17245 0.82288 0.0
C897 C 0.26259 0.16944 0.85303 0.0
C898 C 0.27804 0.16816 0.81974 0.0
C899 C 0.29057 0.18169 0.83405 0.0
C900 C 0.28577 0.15093 0.82403 0.0
C901 C 0.27072 0.17102 0.76617 0.0
C902 C 0.25385 0.17352 0.7692 0.0
C903 C 0.24425 0.17647 0.7254 0.0
C904 C 0.25204 0.17672 0.67688 0.0
C905 C 0.26931 0.17397 0.67235 0.0
C906 C 0.27877 0.17118 0.71781 0.0
H907 H 0.09463 0.01708 0.21855 0.0
H908 H 0.13271 0.97972 0.20741 0.0
H909 H 0.14089 0.99057 0.12108 0.0
H910 H 0.08152 0.01328 0.0901 0.0
H911 H 0.07681 0.03478 0.08116 0.0
H912 H 0.07598 0.02589 0.14527 0.0
H913 H 0.09664 0.04807 0.17807 0.0
H914 H 0.09775 0.05682 0.11351 0.0
H915 H 0.11637 0.05035 0.14616 0.0
H916 H 0.14345 1.00358 0.0353 0.0
H917 H 0.13702 0.01429 0.94791 0.0
H918 H 0.0964 0.04262 0.01157 0.0
C919 C 0.10485 1.01139 0.19806 0.0
C920 C 0.11318 0.9977 0.21925 0.0
C921 C 0.1262 0.99021 0.19133 0.0
C922 C 0.13107 0.99644 0.14285 0.0
C923 C 0.12268 1.01006 0.12302 0.0
C924 C 0.10964 0.01725 0.1492 0.0
C925 C 0.10113 0.03011 0.11598 0.0
C926 C 0.08279 0.02574 0.10762 0.0
C927 C 0.1031 0.04736 0.13987 0.0
C928 C 0.11101 0.02853 0.06611 0.0
C929 C 0.12375 0.0173 0.07189 0.0
C930 C 0.13371 0.01255 0.03039 0.0
C931 C 0.12997 0.0187 0.98103 0.0
C932 C 0.11631 0.0293 0.97365 0.0
C933 C 0.10716 0.03488 0.01683 0.0
H934 H 0.26909 0.84381 0.23745 0.0
H935 H 0.2175 0.85821 0.24934 0.0
H936 H 0.2222 0.86655 0.34102 0.0
H937 H 0.27287 0.82672 0.36254 0.0
H938 H 0.29376 0.83391 0.37179 0.0
H939 H 0.28622 0.82985 0.30709 0.0
H940 H 0.29406 0.85963 0.27977 0.0
H941 H 0.30139 0.86386 0.34477 0.0
H942 H 0.28582 0.87681 0.31586 0.0
H943 H 0.23243 0.87208 0.43183 0.0
H944 H 0.24672 0.87256 0.51671 0.0
H945 H 0.29168 0.85519 0.44245 0.0
C946 C 0.25871 0.84874 0.25902 0.0
C947 C 0.24291 0.85034 0.23626 0.0
C948 C 0.2297 0.85679 0.26615 0.0
C949 C 0.23228 0.86169 0.31797 0.0
C950 C 0.24813 0.86015 0.33873 0.0
C951 C 0.26108 0.85376 0.31018 0.0
C952 C 0.27677 0.85267 0.34179 0.0
C953 C 0.28274 0.83473 0.34607 0.0
C954 C 0.29031 0.86392 0.31919 0.0
C955 C 0.27056 0.85908 0.39332 0.0
C956 C 0.25407 0.86351 0.39066 0.0
C957 C 0.24536 0.86879 0.43429 0.0
C958 C 0.25359 0.86899 0.48225 0.0
C959 C 0.27031 0.86388 0.48597 0.0
C960 C 0.27899 0.85938 0.44064 0.0
H961 H 0.4205 0.04458 0.68828 0.0
H962 H 0.39935 1.00153 0.76357 0.0
H963 H 0.39828 0.9872 0.67889 0.0
H964 H 0.3977 0.0407 0.56363 0.0
H965 H 0.41537 0.04744 0.52643 0.0
H966 H 0.41232 0.05492 0.59188 0.0
H967 H 0.44165 0.04467 0.61648 0.0
H968 H 0.44465 0.03683 0.55155 0.0
H969 H 0.44686 0.02331 0.60684 0.0
H970 H 0.40212 0.97661 0.58773 0.0
H971 H 0.4086 0.97151 0.49473 0.0
H972 H 0.42793 0.02133 0.48189 0.0
C973 C 0.41519 0.03233 0.68669 0.0
C974 C 0.41002 0.02415 0.73222 0.0
C975 C 0.40344 1.00798 0.72891 0.0
C976 C 0.40276 0.99974 0.6811 0.0
C977 C 0.40867 1.00789 0.6372 0.0
C978 C 0.41456 0.02388 0.63945 0.0
C979 C 0.42117 0.02948 0.58743 0.0
C980 C 0.41103 0.04399 0.56608 0.0
C981 C 0.43968 0.03382 0.59082 0.0
C982 C 0.41837 0.01403 0.55596 0.0
C983 C 0.41108 1.00172 0.58507 0.0
C984 C 0.4077 0.98621 0.56426 0.0
C985 C 0.41155 0.98337 0.51169 0.0
C986 C 0.41873 0.99602 0.48111 0.0
C987 C 0.42234 1.01141 0.50402 0.0
H988 H 0.78935 0.8595 0.22863 0.0
H989 H 0.74302 0.87357 0.15565 0.0
H990 H 0.73019 0.87646 0.24217 0.0
H991 H 0.77204 0.8348 0.32466 0.0
H992 H 0.78635 0.84043 0.37555 0.0
H993 H 0.79267 0.8415 0.30837 0.0
H994 H 0.80055 0.87224 0.31993 0.0
H995 H 0.79438 0.87123 0.38742 0.0
H996 H 0.78543 0.88649 0.34495 0.0
H997 H 0.72149 0.87494 0.335 0.0
H998 H 0.71781 0.87001 0.42923 0.0
H999 H 0.76974 0.85703 0.44206 0.0
C1000 C 0.77663 0.86357 0.23088 0.0
C1001 C 0.7672 0.8663 0.18539 0.0
C1002 C 0.75049 0.87134 0.18998 0.0
C1003 C 0.74309 0.87309 0.23895 0.0
C1004 C 0.75257 0.86984 0.28296 0.0
C1005 C 0.76901 0.86532 0.27952 0.0
C1006 C 0.77607 0.86141 0.33273 0.0
C1007 C 0.78213 0.84347 0.33546 0.0
C1008 C 0.78993 0.87357 0.3471 0.0
C1009 C 0.7609 0.86402 0.36628 0.0
C1010 C 0.74752 0.869 0.33686 0.0
C1011 C 0.73192 0.87126 0.35868 0.0
C1012 C 0.72993 0.86832 0.41214 0.0
C1013 C 0.74349 0.86316 0.44303 0.0
C1014 C 0.75918 0.86115 0.41967 0.0
H1015 H 0.9214 0.03998 0.97357 0.0
H1016 H 0.8941 0.99948 0.90399 0.0
H1017 H 0.89405 0.98496 0.98845 0.0
H1018 H 0.94771 0.01586 0.04774 0.0
H1019 H 0.94829 0.02941 0.10339 0.0
H1020 H 0.94445 0.03766 0.03942 0.0
H1021 H 0.91702 0.05073 0.07144 0.0
H1022 H 0.92098 0.04286 0.13591 0.0
H1023 H 0.90183 0.03798 0.10343 0.0
H1024 H 0.89915 0.97381 0.07859 0.0
H1025 H 0.90696 0.96814 0.17027 0.0
H1026 H 0.93157 0.0157 0.17769 0.0
C1027 C 0.915 0.02829 0.97646 0.0
C1028 C 0.90776 0.02085 0.93247 0.0
C1029 C 0.89977 1.00537 0.93743 0.0
C1030 C 0.89968 0.99701 0.98513 0.0
C1031 C 0.90759 1.00435 0.02726 0.0
C1032 C 0.91491 0.01973 0.02355 0.0
C1033 C 0.92336 0.02452 0.0737 0.0
C1034 C 0.94206 0.027 0.06554 0.0
C1035 C 0.91531 0.03993 0.09753 0.0
C1036 C 0.91984 1.00936 0.10584 0.0
C1037 C 0.91071 0.99785 0.07864 0.0
C1038 C 0.90621 0.98277 0.10052 0.0
C1039 C 0.91083 0.97959 0.1523 0.0
C1040 C 0.91983 0.99148 0.18105 0.0
C1041 C 0.9246 1.00637 0.15694 0.0
H1042 H 0.76074 0.18377 0.93809 0.0
H1043 H 0.8108 0.16486 0.92533 0.0
H1044 H 0.80607 0.15925 0.83164 0.0
H1045 H 0.74173 0.15431 0.85579 0.0
H1046 H 0.72739 0.16872 0.82743 0.0
H1047 H 0.73491 0.17192 0.89276 0.0
H1048 H 0.74545 0.20103 0.86752 0.0
H1049 H 0.73768 0.19805 0.80241 0.0
H1050 H 0.75909 0.20335 0.81237 0.0
H1051 H 0.79552 0.15515 0.74067 0.0
H1052 H 0.78082 0.15487 0.65651 0.0
H1053 H 0.73746 0.17586 0.7308 0.0
C1054 C 0.7708 0.17856 0.91569 0.0
C1055 C 0.78614 0.17473 0.93894 0.0
C1056 C 0.79899 0.168 0.90813 0.0
C1057 C 0.79637 0.16465 0.85511 0.0
C1058 C 0.78089 0.16815 0.83397 0.0
C1059 C 0.7684 0.17511 0.86319 0.0
C1060 C 0.75289 0.17772 0.83144 0.0
C1061 C 0.73838 0.16756 0.85316 0.0
C1062 C 0.74853 0.19613 0.82823 0.0
C1063 C 0.7586 0.17115 0.77947 0.0
C1064 C 0.77475 0.16564 0.78181 0.0
C1065 C 0.78288 0.15943 0.73833 0.0
C1066 C 0.77442 0.15932 0.69082 0.0
C1067 C 0.75801 0.16537 0.68734 0.0
C1068 C 0.7499 0.17099 0.7325 0.0
H1069 H 0.59953 0.04587 0.65149 0.0
H1070 H 0.63599 0.01296 0.71783 0.0
H1071 H 0.64129 1.0011 0.63113 0.0
H1072 H 0.58134 0.01845 0.57453 0.0
H1073 H 0.57756 0.03123 0.51832 0.0
H1074 H 0.57945 0.04046 0.58173 0.0
H1075 H 0.60313 0.05934 0.54921 0.0
H1076 H 0.60099 0.05057 0.48495 0.0
H1077 H 0.62079 0.05039 0.51714 0.0
H1078 H 0.6375 0.9882 0.54559 0.0
H1079 H 0.62858 0.97826 0.45893 0.0
H1080 H 0.59547 0.02 0.44501 0.0
C1081 C 0.60925 0.03684 0.64691 0.0
C1082 C 0.61748 0.03036 0.69066 0.0
C1083 C 0.62969 0.01808 0.68424 0.0
C1084 C 0.63277 1.01128 0.63527 0.0
C1085 C 0.62364 0.01705 0.5932 0.0
C1086 C 0.61247 0.02988 0.59796 0.0
C1087 C 0.603 0.0324 0.54767 0.0
C1088 C 0.58423 0.03051 0.55612 0.0
C1089 C 0.60724 0.04917 0.52329 0.0
C1090 C 0.60986 0.01838 0.51541 0.0
C1091 C 0.62181 1.00974 0.54237 0.0
C1092 C 0.62857 0.99516 0.52324 0.0
C1093 C 0.62327 0.98948 0.47452 0.0
C1094 C 0.61147 0.99847 0.44562 0.0
C1095 C 0.60473 0.01309 0.46624 0.0
H1096 H 0.77527 0.66553 0.45463 0.0
H1097 H 0.72351 0.6518 0.4408 0.0
H1098 H 0.72721 0.64794 0.34602 0.0
H1099 H 0.77702 0.68923 0.34249 0.0
H1100 H 0.7977 0.68331 0.32434 0.0
H1101 H 0.79159 0.68293 0.39177 0.0
H1102 H 0.80001 0.65221 0.3981 0.0
H1103 H 0.80621 0.6525 0.33056 0.0
H1104 H 0.79133 0.63754 0.35293 0.0
H1105 H 0.73581 0.64808 0.2528 0.0
H1106 H 0.74847 0.65257 0.16677 0.0
H1107 H 0.79466 0.66645 0.24148 0.0
C1108 C 0.76476 0.66138 0.43197 0.0
C1109 C 0.7491 0.65892 0.45517 0.0
C1110 C 0.73562 0.65377 0.42387 0.0
C1111 C 0.73762 0.65146 0.37008 0.0
C1112 C 0.75317 0.65429 0.34842 0.0
C1113 C 0.76652 0.65909 0.37837 0.0
C1114 C 0.78156 0.6626 0.34505 0.0
C1115 C 0.78729 0.68059 0.35129 0.0
C1116 C 0.79561 0.65049 0.3574 0.0
C1117 C 0.77445 0.6595 0.29145 0.0
C1118 C 0.75812 0.65451 0.29436 0.0
C1119 C 0.74863 0.65179 0.24999 0.0
C1120 C 0.75595 0.65447 0.20129 0.0
C1121 C 0.77258 0.65991 0.19734 0.0
C1122 C 0.78199 0.66216 0.24314 0.0
H1123 H 0.60259 0.54307 0.48431 0.0
H1124 H 0.61045 0.49645 0.40483 0.0
H1125 H 0.61092 0.48211 0.48921 0.0
H1126 H 0.62866 0.53403 0.59692 0.0
H1127 H 0.61499 0.54441 0.64161 0.0
H1128 H 0.61634 0.55114 0.5748 0.0
H1129 H 0.58462 0.54754 0.56507 0.0
H1130 H 0.5832 0.54067 0.63164 0.0
H1131 H 0.57532 0.52789 0.57977 0.0
H1132 H 0.60927 0.47258 0.58189 0.0
H1133 H 0.60622 0.46886 0.67721 0.0
H1134 H 0.59913 0.52166 0.69421 0.0
C1135 C 0.6046 0.52989 0.48464 0.0
C1136 C 0.60639 0.52091 0.43801 0.0
C1137 C 0.60892 0.50362 0.4401 0.0
C1138 C 0.60926 0.49533 0.48781 0.0
C1139 C 0.60712 0.5045 0.53299 0.0
C1140 C 0.60493 0.52139 0.53187 0.0
C1141 C 0.60238 0.52826 0.5859 0.0
C1142 C 0.61643 0.54016 0.60067 0.0
C1143 C 0.58537 0.53657 0.59086 0.0
C1144 C 0.60319 0.51255 0.61727 0.0
C1145 C 0.60604 0.49898 0.58626 0.0
C1146 C 0.60709 0.48311 0.60677 0.0
C1147 C 0.60528 0.48113 0.6608 0.0
C1148 C 0.60237 0.49494 0.69317 0.0
C1149 C 0.60129 0.5108 0.67077 0.0
H1150 H 0.77156 0.34982 0.73143 0.0
H1151 H 0.71997 0.36387 0.74794 0.0
H1152 H 0.72409 0.36765 0.84219 0.0
H1153 H 0.77412 0.32671 0.84842 0.0
H1154 H 0.79487 0.33313 0.8641 0.0
H1155 H 0.78827 0.33239 0.7971 0.0
H1156 H 0.79647 0.36304 0.78553 0.0
H1157 H 0.80307 0.36389 0.85262 0.0
H1158 H 0.78793 0.3783 0.82885 0.0
H1159 H 0.73309 0.36889 0.93347 0.0
H1160 H 0.74633 0.36682 0.01919 0.0
H1161 H 0.79233 0.35196 0.94536 0.0
C1162 C 0.76115 0.35379 0.75478 0.0
C1163 C 0.74543 0.35651 0.73225 0.0
C1164 C 0.73211 0.36161 0.76426 0.0
C1165 C 0.73433 0.36389 0.81781 0.0
C1166 C 0.74993 0.36106 0.83868 0.0
C1167 C 0.76313 0.3561 0.80841 0.0
C1168 C 0.77843 0.3533 0.84134 0.0
C1169 C 0.78426 0.33531 0.83751 0.0
C1170 C 0.79229 0.36535 0.82617 0.0
C1171 C 0.77163 0.35716 0.89497 0.0
C1172 C 0.7552 0.36174 0.89219 0.0
C1173 C 0.74595 0.36539 0.93628 0.0
C1174 C 0.75361 0.36409 0.98482 0.0
C1175 C 0.77036 0.35913 0.989 0.0
C1176 C 0.77956 0.35587 0.94334 0.0
H1177 H 0.93073 0.54682 0.15604 0.0
H1178 H 0.88713 0.522 0.21501 0.0
H1179 H 0.88129 0.51102 0.12744 0.0
H1180 H 0.91355 0.55489 0.01775 0.0
H1181 H 0.9336 0.55104 0.98963 0.0
H1182 H 0.93199 0.5603 0.05335 0.0
H1183 H 0.95067 0.53726 0.09045 0.0
H1184 H 0.95191 0.52759 0.02755 0.0
H1185 H 0.94451 0.51604 0.08291 0.0
H1186 H 0.8842 0.49719 0.04288 0.0
H1187 H 0.89252 0.48556 0.95769 0.0
H1188 H 0.93342 0.52008 0.95031 0.0
C1189 C 0.91947 0.53988 0.1495 0.0
C1190 C 0.90924 0.53534 0.19153 0.0
C1191 C 0.89495 0.52568 0.18271 0.0
C1192 C 0.89158 0.51936 0.13326 0.0
C1193 C 0.90253 0.52302 0.09312 0.0
C1194 C 0.91592 0.53346 0.10005 0.0
C1195 C 0.9267 0.53387 0.05176 0.0
C1196 C 0.92644 0.55105 0.02662 0.0
C1197 C 0.94449 0.52836 0.06394 0.0
C1198 C 0.91779 0.52136 0.01818 0.0
C1199 C 0.90388 0.51527 0.04279 0.0
C1200 C 0.89473 0.50222 0.02228 0.0
C1201 C 0.89966 0.49554 0.97446 0.0
C1202 C 0.91348 0.50207 0.9478 0.0
C1203 C 0.92264 0.51511 0.96987 0.0
H1204 H 0.2608 0.3381 0.69964 0.0
H1205 H 0.29819 0.37632 0.70981 0.0
H1206 H 0.28766 0.38422 0.79674 0.0
H1207 H 0.22774 0.35927 0.77079 0.0
H1208 H 0.22116 0.34094 0.80462 0.0
H1209 H 0.23022 0.33939 0.74055 0.0
H1210 H 0.25245 0.31928 0.77572 0.0
H1211 H 0.24322 0.3205 0.8394 0.0
H1212 H 0.26483 0.32528 0.83105 0.0
H1213 H 0.27405 0.38746 0.88153 0.0
H1214 H 0.26218 0.38228 0.96833 0.0
H1215 H 0.23442 0.34089 0.907 0.0
C1216 C 0.26667 0.34817 0.7203 0.0
C1217 C 0.2802 0.35671 0.69843 0.0
C1218 C 0.28785 0.36962 0.72641 0.0
C1219 C 0.2818 0.37434 0.77527 0.0
C1220 C 0.26825 0.36586 0.7955 0.0
C1221 C 0.26102 0.35279 0.76963 0.0
C1222 C 0.24797 0.34449 0.80298 0.0
C1223 C 0.23075 0.34613 0.77824 0.0
C1224 C 0.25239 0.32632 0.81289 0.0
C1225 C 0.24931 0.35469 0.85224 0.0
C1226 C 0.26073 0.36727 0.84616 0.0
C1227 C 0.26501 0.37777 0.88676 0.0
C1228 C 0.25817 0.37476 0.93576 0.0
C1229 C 0.24737 0.36127 0.94377 0.0
C1230 C 0.24232 0.35151 0.90124 0.0
H1231 H 0.41287 0.50461 0.45731 0.0
H1232 H 0.44665 0.54606 0.46591 0.0
H1233 H 0.45412 0.53821 0.5559 0.0
H1234 H 0.39761 0.50955 0.58782 0.0
H1235 H 0.39511 0.4878 0.59955 0.0
H1236 H 0.39357 0.49576 0.5342 0.0
H1237 H 0.41642 0.47548 0.50454 0.0
H1238 H 0.41822 0.46768 0.57012 0.0
H1239 H 0.43618 0.47568 0.53704 0.0
H1240 H 0.45793 0.52635 0.64274 0.0
H1241 H 0.45434 0.51431 0.72982 0.0
H1242 H 0.41658 0.48134 0.6697 0.0
C1243 C 0.42186 0.51194 0.47837 0.0
C1244 C 0.42931 0.52586 0.45514 0.0
C1245 C 0.44081 0.53541 0.48354 0.0
C1246 C 0.44525 0.53093 0.53425 0.0
C1247 C 0.43786 0.51703 0.55602 0.0
C1248 C 0.42612 0.50788 0.5297 0.0
C1249 C 0.41889 0.49455 0.56444 0.0
C1250 C 0.40019 0.49708 0.57196 0.0
C1251 C 0.42266 0.47732 0.54272 0.0
C1252 C 0.42834 0.49777 0.61451 0.0
C1253 C 0.43947 0.51056 0.60799 0.0
C1254 C 0.44927 0.51634 0.64848 0.0
C1255 C 0.44713 0.50941 0.69774 0.0
C1256 C 0.43514 0.49697 0.70634 0.0
C1257 C 0.42599 0.49066 0.66388 0.0
H1258 H 0.29369 0.66837 0.43007 0.0
H1259 H 0.25065 0.64676 0.50479 0.0
H1260 H 0.2382 0.64153 0.41881 0.0
H1261 H 0.27216 0.68974 0.33539 0.0
H1262 H 0.28685 0.68667 0.28345 0.0
H1263 H 0.2937 0.68653 0.35018 0.0
H1264 H 0.30643 0.65755 0.33724 0.0
H1265 H 0.29976 0.65767 0.27016 0.0
H1266 H 0.29371 0.64104 0.31266 0.0
H1267 H 0.22888 0.64166 0.3269 0.0
H1268 H 0.22372 0.64625 0.23328 0.0
H1269 H 0.27266 0.66782 0.21739 0.0
C1270 C 0.28187 0.66212 0.42817 0.0
C1271 C 0.27314 0.65796 0.47398 0.0
C1272 C 0.25752 0.65012 0.4701 0.0
C1273 C 0.25037 0.64702 0.42147 0.0
C1274 C 0.25901 0.65178 0.37708 0.0
C1275 C 0.27447 0.65903 0.37979 0.0
C1276 C 0.28044 0.66418 0.32624 0.0
C1277 C 0.28346 0.68289 0.3237 0.0
C1278 C 0.29601 0.65453 0.31066 0.0
C1279 C 0.2657 0.65915 0.29346 0.0
C1280 C 0.25356 0.65187 0.32352 0.0
C1281 C 0.23839 0.64712 0.30269 0.0
C1282 C 0.23553 0.64988 0.24956 0.0
C1283 C 0.24779 0.65737 0.21797 0.0
C1284 C 0.26311 0.6619 0.24033 0.0
H1285 H 0.10374 0.53371 0.20386 0.0
H1286 H 0.12374 0.48984 0.27716 0.0
H1287 H 0.12282 0.47531 0.19286 0.0
H1288 H 0.07539 0.51328 0.12334 0.0
H1289 H 0.07797 0.52684 0.06827 0.0
H1290 H 0.08151 0.53441 0.13331 0.0
H1291 H 0.11114 0.54363 0.10774 0.0
H1292 H 0.10756 0.53641 0.04228 0.0
H1293 H 0.12507 0.52894 0.0787 0.0
H1294 H 0.11806 0.46501 0.10207 0.0
H1295 H 0.1121 0.46058 0.00846 0.0
H1296 H 0.09467 0.51104 -0.00331 0.0
C1297 C 0.10828 0.52119 0.20192 0.0
C1298 C 0.11378 0.51289 0.24685 0.0
C1299 C 0.1194 0.4964 0.24304 0.0
C1300 C 0.11891 0.48803 0.19545 0.0
C1301 C 0.11281 0.49635 0.15225 0.0
C1302 C 0.10778 0.51261 0.15486 0.0
C1303 C 0.10123 0.51854 0.10313 0.0
C1304 C 0.08294 0.52356 0.1073 0.0
C1305 C 0.11189 0.53271 0.0817 0.0
C1306 C 0.10328 0.50305 0.07126 0.0
C1307 C 0.10994 0.49036 0.10016 0.0
C1308 C 0.1129 0.47486 0.07882 0.0
C1309 C 0.10935 0.47242 0.02586 0.0
C1310 C 0.10297 0.48547 0.99536 0.0
C1311 C 0.09962 0.50082 0.01885 0.0
H1312 H 0.2549 0.22266 0.14307 0.0
H1313 H 0.2037 0.21334 0.10162 0.0
H1314 H 0.19817 0.24328 0.10468 0.0
H1315 H 0.24736 0.25813 0.23005 0.0
H1316 H 0.26577 0.26859 0.20813 0.0
H1317 H 0.26504 0.24641 0.20889 0.0
H1318 H 0.27278 0.24586 0.1108 0.0
H1319 H 0.27343 0.26799 0.10963 0.0
H1320 H 0.26024 0.25704 0.06477 0.0
H1321 H 0.19905 0.27475 0.10421 0.0
H1322 H 0.2062 0.30435 0.10048 0.0
H1323 H 0.2569 0.29256 0.14134 0.0
C1324 C 0.24241 0.2268 0.13567 0.0
C1325 C 0.22973 0.21551 0.12229 0.0
C1326 C 0.21363 0.22164 0.11231 0.0
C1327 C 0.21037 0.23866 0.11393 0.0
C1328 C 0.22329 0.24944 0.12588 0.0
C1329 C 0.23897 0.24368 0.13696 0.0
C1330 C 0.25102 0.25774 0.14527 0.0
C1331 C 0.25769 0.25771 0.20143 0.0
C1332 C 0.26519 0.25711 0.10523 0.0
C1333 C 0.23982 0.27235 0.13577 0.0
C1334 C 0.22382 0.26737 0.12523 0.0
C1335 C 0.21151 0.27875 0.113 0.0
C1336 C 0.2157 0.29557 0.11095 0.0
C1337 C 0.23212 0.30091 0.12068 0.0
C1338 C 0.24421 0.28903 0.13393 0.0
H1339 H 0.04827 0.98798 0.4239 0.0
H1340 H 0.05916 0.94473 0.33073 0.0
H1341 H 0.02912 0.93845 0.32626 0.0
H1342 H 1.01278 0.97178 0.49604 0.0
H1343 H 1.00214 0.99124 0.49286 0.0
H1344 H 0.0244 0.99075 0.49408 0.0
H1345 H 0.02535 1.00776 0.40853 0.0
H1346 H 1.00316 1.00833 0.4071 0.0
H1347 H 0.0144 1.00037 0.35192 0.0
H1348 H 0.99689 0.93903 0.32483 0.0
H1349 H 0.96723 0.94692 0.32418 0.0
H1350 H 0.9789 0.98973 0.41838 0.0
C1351 C 0.04451 0.97696 0.40326 0.0
C1352 C 0.05621 0.96683 0.37777 0.0
C1353 C 0.05051 0.95264 0.35095 0.0
C1354 C 0.03345 0.94899 0.34822 0.0
C1355 C 0.02225 0.95957 0.37279 0.0
C1356 C 0.0277 0.97324 0.39997 0.0
C1357 C 1.01348 0.98364 0.41919 0.0
C1358 C 1.01319 0.98439 0.4791 0.0
C1359 C 0.01414 1.00104 0.39524 0.0
C1360 C 0.99905 0.97387 0.39821 0.0
C1361 C 1.00418 0.95994 0.37182 0.0
C1362 C 0.99281 0.94979 0.34609 0.0
C1363 C 0.97594 0.9543 0.34615 0.0
C1364 C 0.97067 0.96892 0.37136 0.0
C1365 C 0.98242 0.97843 0.39893 0.0
H1366 H 0.28299 0.79765 0.67424 0.0
H1367 H 0.32548 0.80972 0.57814 0.0
H1368 H 0.33131 0.77989 0.56765 0.0
H1369 H 0.30028 0.7617 0.73891 0.0
H1370 H 0.28077 0.75096 0.73799 0.0
H1371 H 0.28121 0.77312 0.74122 0.0
H1372 H 0.26272 0.77464 0.65876 0.0
H1373 H 0.26229 0.75253 0.65512 0.0
H1374 H 0.26926 0.7644 0.5999 0.0
H1375 H 0.33097 0.74769 0.56375 0.0
H1376 H 0.32436 0.71778 0.5666 0.0
H1377 H 0.2819 0.72837 0.66432 0.0
C1378 C 0.2937 0.79417 0.65147 0.0
C1379 C 0.30378 0.80617 0.62711 0.0
C1380 C 0.3176 0.80084 0.59754 0.0
C1381 C 0.32099 0.78388 0.59129 0.0
C1382 C 0.31049 0.77241 0.61504 0.0
C1383 C 0.29717 0.77746 0.64476 0.0
C1384 C 0.28712 0.76301 0.6642 0.0
C1385 C 0.28737 0.76215 0.72413 0.0
C1386 C 0.2693 0.76369 0.64322 0.0
C1387 C 0.29665 0.74892 0.64031 0.0
C1388 C 0.31019 0.75441 0.61235 0.0
C1389 C 0.32044 0.74334 0.58588 0.0
C1390 C 0.31662 0.72635 0.58773 0.0
C1391 C 0.30256 0.72063 0.61543 0.0
C1392 C 0.29269 0.7322 0.64243 0.0
H1393 H 0.47764 0.03412 0.91535 0.0
H1394 H 0.46658 0.07917 0.83134 0.0
H1395 H 0.4967 0.08458 0.82239 0.0
H1396 H 0.51427 0.04826 0.98411 0.0
H1397 H 0.52441 0.02865 0.97684 0.0
H1398 H 0.5022 0.0296 0.98079 0.0
H1399 H 0.49989 0.0139 0.893 0.0
H1400 H 0.52204 0.01291 0.88876 0.0
H1401 H 0.51032 0.02189 0.83623 0.0
H1402 H 0.52906 0.0835 0.81798 0.0
H1403 H 0.55875 0.0756 0.81608 0.0
H1404 H 0.54692 0.03111 0.90191 0.0
C1405 C 0.48138 0.04532 0.89565 0.0
C1406 C 0.46958 0.05625 0.87423 0.0
C1407 C 0.47529 0.07063 0.84846 0.0
C1408 C 0.49241 0.07379 0.84318 0.0
C1409 C 0.50366 0.06248 0.864 0.0
C1410 C 0.49822 0.04855 0.88981 0.0
C1411 C 0.51241 0.03757 0.90573 0.0
C1412 C 0.51338 0.03593 0.96541 0.0
C1413 C 0.51108 0.02057 0.87934 0.0
C1414 C 0.52681 0.04733 0.88451 0.0
C1415 C 0.52171 0.06175 0.86088 0.0
C1416 C 0.5331 0.07228 0.8368 0.0
C1417 C 0.54997 0.06775 0.83607 0.0
C1418 C 0.55523 0.05272 0.85875 0.0
C1419 C 0.54341 0.04267 0.88407 0.0
H1420 H 0.23991 0.79013 0.99509 0.0
H1421 H 0.19941 0.80046 0.10072 0.0
H1422 H 0.19233 0.77071 0.10234 0.0
H1423 H 0.22015 0.75459 0.92429 0.0
H1424 H 0.23968 0.74403 0.92035 0.0
H1425 H 0.23908 0.76622 0.9193 0.0
H1426 H 0.25928 0.76705 -0.0023 0.0
H1427 H 0.25979 0.74496 -0.00052 0.0
H1428 H 0.25392 0.75633 0.05694 0.0
H1429 H 0.19289 0.73896 0.10318 0.0
H1430 H 0.20065 0.70942 0.10179 0.0
H1431 H 0.24108 0.72077 -0.00337 0.0
C1432 C 0.22918 0.78624 0.01724 0.0
C1433 C 0.22016 0.79765 0.0476 0.0
C1434 C 0.20635 0.792 0.07651 0.0
C1435 C 0.2023 0.7751 0.07782 0.0
C1436 C 0.21204 0.76406 0.04939 0.0
C1437 C 0.22505 0.76954 0.01895 0.0
C1438 C 0.23478 0.75534 -0.00372 0.0
C1439 C 0.23333 0.75503 0.9365 0.0
C1440 C 0.25301 0.75597 0.01368 0.0
C1441 C 0.22576 0.74095 0.02059 0.0
C1442 C 0.21248 0.74609 0.05035 0.0
C1443 C 0.20309 0.73485 0.07921 0.0
C1444 C 0.20758 0.71807 0.0782 0.0
C1445 C 0.2215 0.71274 0.0492 0.0
C1446 C 0.23037 0.72438 0.01924 0.0
H1447 H 0.4763 0.99669 0.24271 0.0
H1448 H 0.46509 0.95216 0.32933 0.0
H1449 H 0.49474 0.94457 0.327 0.0
H1450 H 0.51062 0.97964 0.16212 0.0
H1451 H 0.52201 0.9987 0.16614 0.0
H1452 H 0.49973 0.99893 0.16707 0.0
H1453 H 0.50038 0.01518 0.25405 0.0
H1454 H 0.52259 0.01484 0.25377 0.0
H1455 H 0.51142 1.00679 0.30904 0.0
H1456 H 0.52641 0.94405 0.32536 0.0
H1457 H 0.55636 0.95019 0.32278 0.0
H1458 H 0.54617 0.99538 0.23835 0.0
C1459 C 0.47994 0.98509 0.26008 0.0
C1460 C 0.46829 0.975 0.28615 0.0
C1461 C 0.4737 0.96001 0.30862 0.0
C1462 C 0.49055 0.95564 0.30763 0.0
C1463 C 0.50179 0.96629 0.28348 0.0
C1464 C 0.4966 0.98061 0.25951 0.0
C1465 C 0.51108 0.99074 0.24012 0.0
C1466 C 0.51084 0.99207 0.18031 0.0
C1467 C 0.51138 1.00789 0.2658 0.0
C1468 C 0.52534 0.98023 0.25859 0.0
C1469 C 0.51981 0.96605 0.28287 0.0
C1470 C 0.53083 0.955 0.30571 0.0
C1471 C 0.54785 0.95862 0.30411 0.0
C1472 C 0.55372 0.97328 0.2803 0.0
C1473 C 0.54221 0.98402 0.25662 0.0
H1474 H 0.28629 0.22724 0.45355 0.0
H1475 H 0.32744 0.21413 0.5538 0.0
H1476 H 0.33453 0.24366 0.56284 0.0
H1477 H 0.30568 0.26376 0.39039 0.0
H1478 H 0.28636 0.27477 0.39034 0.0
H1479 H 0.28645 0.25264 0.38488 0.0
H1480 H 0.26698 0.25063 0.4649 0.0
H1481 H 0.26695 0.27268 0.47097 0.0
H1482 H 0.27307 0.2601 0.52556 0.0
H1483 H 0.3348 0.27517 0.56953 0.0
H1484 H 0.32829 0.30493 0.57288 0.0
H1485 H 0.28653 0.29671 0.46985 0.0
C1486 C 0.2971 0.23044 0.47631 0.0
C1487 C 0.30634 0.21823 0.50276 0.0
C1488 C 0.32024 0.22316 0.53267 0.0
C1489 C 0.32434 0.23995 0.53812 0.0
C1490 C 0.31451 0.25167 0.51314 0.0
C1491 C 0.30127 0.24706 0.48238 0.0
C1492 C 0.29167 0.26189 0.46343 0.0
C1493 C 0.29261 0.26335 0.40372 0.0
C1494 C 0.27361 0.26128 0.48237 0.0
C1495 C 0.3012 0.27561 0.48973 0.0
C1496 C 0.3145 0.26958 0.5176 0.0
C1497 C 0.32454 0.28 0.54723 0.0
C1498 C 0.32074 0.29692 0.5489 0.0
C1499 C 0.30688 0.30325 0.52166 0.0
C1500 C 0.29724 0.29237 0.49107 0.0
H1501 H 0.97428 0.0202 0.7673 0.0
H1502 H 0.96493 0.07176 0.80064 0.0
H1503 H 0.99504 0.07671 0.80716 0.0
H1504 H 1.00726 0.01556 0.85707 0.0
H1505 H 0.01888 1.00168 0.8163 0.0
H1506 H 0.99671 1.00252 0.81086 0.0
H1507 H 0.9993 1.00869 0.71202 0.0
H1508 H 0.02149 1.00785 0.71714 0.0
H1509 H 1.01167 0.02591 0.69063 0.0
H1510 H 0.02658 0.0757 0.81288 0.0
H1511 H 0.05625 0.06866 0.81942 0.0
H1512 H 0.04451 0.01768 0.78387 0.0
C1513 C 0.97851 0.03261 0.77527 0.0
C1514 C 0.96714 0.04562 0.78308 0.0
C1515 C 0.97333 0.06158 0.79433 0.0
C1516 C 0.99044 0.06452 0.79804 0.0
C1517 C 1.00127 0.05137 0.79062 0.0
C1518 C 0.99551 0.03573 0.77954 0.0
C1519 C 1.00961 0.02352 0.77561 0.0
C1520 C 1.00802 1.01003 0.81746 0.0
C1521 C 1.01057 0.01606 0.72057 0.0
C1522 C 0.02423 0.03471 0.78639 0.0
C1523 C 0.01922 0.05075 0.79468 0.0
C1524 C 0.0306 0.06317 0.80625 0.0
C1525 C 0.04747 0.05905 0.80984 0.0
C1526 C 0.05285 0.04261 0.80219 0.0
C1527 C 0.04095 0.03039 0.78991 0.0
H1528 H 0.77627 0.72796 0.00623 0.0
H1529 H 0.82168 0.71861 0.09137 0.0
H1530 H 0.82697 0.74855 0.09608 0.0
H1531 H 0.79156 0.76292 0.9311 0.0
H1532 H 0.77215 0.77372 0.93461 0.0
H1533 H 0.77246 0.75154 0.93579 0.0
H1534 H 0.7561 0.7517 0.02271 0.0
H1535 H 0.75575 0.77385 0.02182 0.0
H1536 H 0.76405 0.76315 0.07752 0.0
H1537 H 0.82657 0.78006 0.09476 0.0
H1538 H 0.82037 0.80984 0.08748 0.0
H1539 H 0.77537 0.79804 0.00296 0.0
C1540 C 0.78741 0.73214 0.02554 0.0
C1541 C 0.79854 0.72081 0.04842 0.0
C1542 C 0.81294 0.72695 0.07341 0.0
C1543 C 0.81607 0.74398 0.07628 0.0
C1544 C 0.80475 0.75478 0.05377 0.0
C1545 C 0.79074 0.74906 0.0287 0.0
C1546 C 0.78026 0.76317 0.0089 0.0
C1547 C 0.77904 0.76281 0.94905 0.0
C1548 C 0.76302 0.76295 0.03427 0.0
C1549 C 0.7904 0.77774 0.02747 0.0
C1550 C 0.80454 0.77272 0.053 0.0
C1551 C 0.81556 0.78411 0.07454 0.0
C1552 C 0.81194 0.80102 0.0702 0.0
C1553 C 0.79738 0.80642 0.04469 0.0
C1554 C 0.78663 0.79448 0.02274 0.0
H1555 H 0.74503 0.22879 0.49816 0.0
H1556 H 0.69933 0.21561 0.57655 0.0
H1557 H 0.69228 0.24529 0.58372 0.0
H1558 H 0.75432 0.26233 0.57808 0.0
H1559 H 0.76357 0.27428 0.52651 0.0
H1560 H 0.76379 0.25217 0.52319 0.0
H1561 H 0.74941 0.25326 0.43287 0.0
H1562 H 0.74914 0.27542 0.43593 0.0
H1563 H 0.73015 0.26419 0.42598 0.0
H1564 H 0.69178 0.27753 0.58799 0.0
H1565 H 0.69822 0.30747 0.59023 0.0
H1566 H 0.74419 0.29788 0.50856 0.0
C1567 C 0.73335 0.23197 0.51611 0.0
C1568 C 0.72271 0.2197 0.53651 0.0
C1569 C 0.70768 0.22469 0.56023 0.0
C1570 C 0.70357 0.24155 0.5645 0.0
C1571 C 0.71461 0.25329 0.54477 0.0
C1572 C 0.72917 0.24857 0.52093 0.0
C1573 C 0.73966 0.26324 0.50606 0.0
C1574 C 0.75631 0.26298 0.53521 0.0
C1575 C 0.74223 0.26407 0.44668 0.0
C1576 C 0.72879 0.2771 0.52509 0.0
C1577 C 0.71435 0.2713 0.54732 0.0
C1578 C 0.703 0.28212 0.57011 0.0
C1579 C 0.70671 0.29914 0.57104 0.0
C1580 C 0.72171 0.30516 0.54954 0.0
C1581 C 0.73258 0.29387 0.52533 0.0
H1582 H 0.78325 0.29859 0.19836 0.0
H1583 H 0.82705 0.31065 0.10825 0.0
H1584 H 0.83376 0.28093 0.10238 0.0
H1585 H 0.80005 0.26224 0.26792 0.0
H1586 H 0.78059 0.25151 0.26341 0.0
H1587 H 0.78096 0.27366 0.26767 0.0
H1588 H 0.76379 0.27554 0.18255 0.0
H1589 H 0.76341 0.25347 0.17791 0.0
H1590 H 0.77127 0.26555 0.12435 0.0
H1591 H 0.83374 0.24926 0.09842 0.0
H1592 H 0.82644 0.21967 0.09366 0.0
H1593 H 0.78213 0.22916 0.18397 0.0
C1594 C 0.79451 0.29513 0.17836 0.0
C1595 C 0.80466 0.3071 0.15396 0.0
C1596 C 0.81914 0.30182 0.12772 0.0
C1597 C 0.82304 0.28492 0.12419 0.0
C1598 C 0.81241 0.27346 0.14734 0.0
C1599 C 0.79847 0.27844 0.17416 0.0
C1600 C 0.7881 0.26388 0.19131 0.0
C1601 C 0.78739 0.26276 0.25113 0.0
C1602 C 0.77062 0.26466 0.16759 0.0
C1603 C 0.79801 0.24985 0.16846 0.0
C1604 C 0.81218 0.25551 0.14411 0.0
C1605 C 0.82277 0.24474 0.11796 0.0
C1606 C 0.81855 0.22791 0.11561 0.0
C1607 C 0.80372 0.22202 0.13851 0.0
C1608 C 0.7936 0.23319 0.16623 0.0
H1609 H 0.75447 0.72718 0.63509 0.0
H1610 H 0.70469 0.71515 0.58432 0.0
H1611 H 0.69797 0.74493 0.58196 0.0
H1612 H 0.74361 0.76194 0.7171 0.0
H1613 H 0.76193 0.77331 0.69947 0.0
H1614 H 0.76226 0.75113 0.69979 0.0
H1615 H 0.77212 0.75111 0.60357 0.0
H1616 H 0.77179 0.77326 0.60289 0.0
H1617 H 0.76015 0.76185 0.55504 0.0
H1618 H 0.69745 0.77663 0.58135 0.0
H1619 H 0.70307 0.80659 0.58237 0.0
H1620 H 0.75329 0.79696 0.63348 0.0
C1621 C 0.74207 0.73068 0.6237 0.0
C1622 C 0.73012 0.71872 0.60973 0.0
C1623 C 0.71407 0.72402 0.59531 0.0
C1624 C 0.71015 0.74093 0.59385 0.0
C1625 C 0.72237 0.75236 0.60727 0.0
C1626 C 0.73798 0.74738 0.62214 0.0
C1627 C 0.74915 0.76192 0.63331 0.0
C1628 C 0.75455 0.76208 0.69083 0.0
C1629 C 0.76418 0.76204 0.5965 0.0
C1630 C 0.73752 0.77599 0.62151 0.0
C1631 C 0.72208 0.7703 0.6069 0.0
C1632 C 0.70948 0.78116 0.59304 0.0
C1633 C 0.7128 0.79819 0.59375 0.0
C1634 C 0.72864 0.80423 0.60797 0.0
C1635 C 0.74104 0.79286 0.62244 0.0
H1636 H 0.54836 0.49687 0.93731 0.0
H1637 H 0.55871 0.45138 0.85492 0.0
H1638 H 0.52907 0.44382 0.86079 0.0
H1639 H 0.51412 0.48094 0.02214 0.0
H1640 H 0.50293 0.50002 0.01607 0.0
H1641 H 0.52521 0.50007 0.01453 0.0
H1642 H 0.52455 0.51523 0.92562 0.0
H1643 H 0.50236 0.51514 0.92667 0.0
H1644 H 0.51322 0.50629 0.87206 0.0
H1645 H 0.49747 0.44353 0.86378 0.0
H1646 H 0.46775 0.45048 0.86293 0.0
H1647 H 0.47859 0.49647 0.94214 0.0
C1648 C 0.54456 0.48506 0.92175 0.0
C1649 C 0.55596 0.4747 0.89574 0.0
C1650 C 0.55032 0.45945 0.87558 0.0
C1651 C 0.53346 0.45508 0.87866 0.0
C1652 C 0.52245 0.46599 0.90258 0.0
C1653 C 0.52788 0.48059 0.92433 0.0
C1654 C 0.51357 0.49108 0.94285 0.0
C1655 C 0.51399 0.49314 0.00244 0.0
C1656 C 0.51342 0.50792 0.91512 0.0
C1657 C 0.49912 0.48048 0.9261 0.0
C1658 C 0.50442 0.4659 0.90385 0.0
C1659 C 0.49323 0.45478 0.88199 0.0
C1660 C 0.47631 0.45884 0.88174 0.0
C1661 C 0.47071 0.47403 0.90262 0.0
C1662 C 0.48234 0.4847 0.92631 0.0
H1663 H 0.9808 0.52166 0.34479 0.0
H1664 H 0.96902 0.57269 0.37809 0.0
H1665 H 0.99894 0.57874 0.38854 0.0
H1666 H 1.01308 0.51678 0.43492 0.0
H1667 H 0.02535 0.504 0.39247 0.0
H1668 H 1.00322 0.50422 0.38592 0.0
H1669 H 1.00614 0.51218 0.28837 0.0
H1670 H 0.02832 0.51199 0.29462 0.0
H1671 H 0.01801 0.53014 0.27072 0.0
H1672 H 0.03117 0.57863 0.39606 0.0
H1673 H 0.06117 0.57204 0.40246 0.0
H1674 H 0.05027 0.5211 0.36547 0.0
C1675 C 0.9844 0.53415 0.3544 0.0
C1676 C 0.97247 0.54667 0.36094 0.0
C1677 C 0.9779 0.56286 0.37286 0.0
C1678 C 0.99488 0.56641 0.37884 0.0
C1679 C 1.00629 0.55367 0.37225 0.0
C1680 C 1.00116 0.53788 0.36008 0.0
C1681 C 0.01559 0.52622 0.3551 0.0
C1682 C 0.01423 0.51197 0.39446 0.0
C1683 C 0.0171 0.51976 0.29887 0.0
C1684 C 0.02969 0.53767 0.36834 0.0
C1685 C 0.02429 0.55356 0.37721 0.0
C1686 C 0.03545 0.5662 0.38927 0.0
C1687 C 0.05245 0.56238 0.39275 0.0
C1688 C 0.058 0.54603 0.3852 0.0
C1689 C 0.0464 0.53367 0.37241 0.0
H1690 H 0.97797 0.49191 0.74454 0.0
H1691 H 0.96536 0.44783 0.83175 0.0
H1692 H 0.99512 0.44064 0.83638 0.0
H1693 H 1.01353 0.47502 0.67215 0.0
H1694 H 0.0248 0.49412 0.67731 0.0
H1695 H 1.00253 0.49429 0.67462 0.0
H1696 H 1.0016 0.51079 0.76114 0.0
H1697 H 0.02379 0.51066 0.76414 0.0
H1698 H 1.01189 0.5027 0.818 0.0
H1699 H 0.02695 0.43998 0.83838 0.0
H1700 H 0.05685 0.44652 0.84123 0.0
H1701 H 0.0477 0.49145 0.75455 0.0
C1702 C 0.98131 0.48053 0.76383 0.0
C1703 C 0.9692 0.47042 0.78767 0.0
C1704 C 0.97433 0.45575 0.81285 0.0
C1705 C 0.99123 0.45156 0.81561 0.0
C1706 C 1.00283 0.46211 0.79274 0.0
C1707 C 0.99799 0.47627 0.76717 0.0
C1708 C 1.01271 0.4864 0.74971 0.0
C1709 C 1.01343 0.48752 0.68989 0.0
C1710 C 1.01248 0.50364 0.77477 0.0
C1711 C 0.02669 0.47605 0.77082 0.0
C1712 C 0.02086 0.46191 0.7947 0.0
C1713 C 0.0316 0.45093 0.81923 0.0
C1714 C 0.0486 0.45471 0.82048 0.0
C1715 C 0.05468 0.4695 0.79805 0.0
C1716 C 0.04352 0.48002 0.7719 0.0
H1717 H 0.47863 0.53821 0.22118 0.0
H1718 H 0.46677 0.57676 0.33202 0.0
H1719 H 0.49639 0.58443 0.3364 0.0
H1720 H 0.5136 0.52456 0.28154 0.0
H1721 H 0.52501 0.52012 0.22282 0.0
H1722 H 0.50281 0.51965 0.22197 0.0
H1723 H 0.50248 0.54091 0.14661 0.0
H1724 H 0.52475 0.54137 0.14693 0.0
H1725 H 0.51325 0.56022 0.15418 0.0
H1726 H 0.5283 0.58491 0.33804 0.0
H1727 H 0.55828 0.57863 0.33459 0.0
H1728 H 0.54838 0.54013 0.22139 0.0
C1729 C 0.48214 0.54858 0.24532 0.0
C1730 C 0.47029 0.55691 0.27609 0.0
C1731 C 0.47553 0.5703 0.30753 0.0
C1732 C 0.49238 0.57471 0.3104 0.0
C1733 C 0.50383 0.56579 0.28099 0.0
C1734 C 0.49881 0.55316 0.2484 0.0
C1735 C 0.51344 0.54454 0.22386 0.0
C1736 C 0.51372 0.52614 0.23845 0.0
C1737 C 0.51348 0.54691 0.16437 0.0
C1738 C 0.52756 0.55382 0.24917 0.0
C1739 C 0.52189 0.56617 0.2816 0.0
C1740 C 0.53283 0.57547 0.31196 0.0
C1741 C 0.54988 0.57183 0.30971 0.0
C1742 C 0.55583 0.55891 0.27762 0.0
C1743 C 0.54441 0.55017 0.24617 0.0
H1744 H 0.26053 0.16974 0.18584 0.0
H1745 H 0.22245 0.1352 0.23294 0.0
H1746 H 0.23821 0.12904 0.31346 0.0
H1747 H 0.29631 0.14863 0.2391 0.0
H1748 H 0.30607 0.16723 0.2621 0.0
H1749 H 0.29273 0.16785 0.20581 0.0
H1750 H 0.27469 0.19023 0.24982 0.0
H1751 H 0.28815 0.1899 0.30568 0.0
H1752 H 0.26629 0.18646 0.31386 0.0
H1753 H 0.25767 0.12683 0.38802 0.0
H1754 H 0.27663 0.13238 0.46107 0.0
H1755 H 0.30136 0.17003 0.37006 0.0
C1756 C 0.2556 0.16081 0.213 0.0
C1757 C 0.2404 0.15275 0.20317 0.0
C1758 C 0.23409 0.14144 0.23998 0.0
C1759 C 0.24304 0.13777 0.28541 0.0
C1760 C 0.2581 0.14577 0.29372 0.0
C1761 C 0.26414 0.15737 0.25927 0.0
C1762 C 0.2797 0.16551 0.28033 0.0
C1763 C 0.29458 0.16209 0.2447 0.0
C1764 C 0.27704 0.18412 0.28788 0.0
C1765 C 0.28146 0.15669 0.33223 0.0
C1766 C 0.26904 0.14509 0.33834 0.0
C1767 C 0.2675 0.13579 0.38357 0.0
C1768 C 0.2784 0.13894 0.42466 0.0
C1769 C 0.29064 0.15135 0.42064 0.0
C1770 C 0.2925 0.16007 0.37334 0.0
H1771 H 0.11005 1.00375 0.46052 0.0
H1772 H 0.11479 0.9545 0.52461 0.0
H1773 H 0.11485 0.96631 0.61373 0.0
H1774 H 0.13623 0.0243 0.55095 0.0
H1775 H 0.12374 0.04263 0.55453 0.0
H1776 H 0.12373 0.03035 0.49602 0.0
H1777 H 0.09188 0.02745 0.50149 0.0
H1778 H 0.09177 0.03981 0.55986 0.0
H1779 H 0.08258 0.01957 0.56033 0.0
H1780 H 0.11559 0.98339 0.69418 0.0
H1781 H 0.11545 1.00417 0.76308 0.0
H1782 H 0.1092 0.04286 0.64762 0.0
C1783 C 0.111 0.99538 0.49323 0.0
C1784 C 0.11242 0.97815 0.4857 0.0
C1785 C 0.11366 0.96769 0.52955 0.0
C1786 C 0.11373 0.97431 0.58017 0.0
C1787 C 0.11242 0.99136 0.58603 0.0
C1788 C 0.11095 1.00176 0.54383 0.0
C1789 C 0.1097 0.01964 0.56085 0.0
C1790 C 0.12422 0.02982 0.5393 0.0
C1791 C 0.09299 0.02705 0.54467 0.0
C1792 C 0.11087 0.01773 0.61951 0.0
C1793 C 0.11248 1.00128 0.63286 0.0
C1794 C 0.11417 0.99626 0.68423 0.0
C1795 C 0.11406 1.00828 0.72315 0.0
C1796 C 0.11214 0.02525 0.71099 0.0
C1797 C 0.1106 0.03003 0.65824 0.0
H1798 H 0.23131 0.85983 0.90717 0.0
H1799 H 0.26994 0.84965 0.02029 0.0
H1800 H 0.29083 0.85077 0.9513 0.0
H1801 H 0.24942 0.83606 0.80136 0.0
H1802 H 0.24343 0.85059 0.75174 0.0
H1803 H 0.23121 0.84854 0.81013 0.0
H1804 H 0.23445 0.87982 0.82776 0.0
H1805 H 0.24674 0.88193 0.76957 0.0
H1806 H 0.25487 0.88868 0.83145 0.0
H1807 H 0.30806 0.85339 0.87005 0.0
H1808 H 0.31969 0.85682 0.78094 0.0
H1809 H 0.2702 0.8658 0.72205 0.0
C1810 C 0.24414 0.85773 0.91722 0.0
C1811 C 0.24888 0.85456 0.96918 0.0
C1812 C 0.26586 0.85199 0.98079 0.0
C1813 C 0.27794 0.85264 0.94185 0.0
C1814 C 0.27294 0.85592 0.89118 0.0
C1815 C 0.25647 0.85838 0.87864 0.0
C1816 C 0.25453 0.86187 0.82103 0.0
C1817 C 0.24403 0.84846 0.79451 0.0
C1818 C 0.24722 0.8791 0.81194 0.0
C1819 C 0.27243 0.86103 0.80366 0.0
C1820 C 0.28289 0.85756 0.84454 0.0
C1821 C 0.29999 0.85612 0.83754 0.0
C1822 C 0.30651 0.85812 0.78702 0.0
C1823 C 0.2959 0.86153 0.74464 0.0
C1824 C 0.2787 0.86312 0.75354 0.0
H1825 H 0.41585 0.023 0.96741 0.0
H1826 H 0.40961 0.07237 0.0293 0.0
H1827 H 0.40786 0.06062 0.11865 0.0
H1828 H 0.38808 1.00252 0.05027 0.0
H1829 H 0.40052 0.98424 0.05666 0.0
H1830 H 0.40191 0.99656 -0.00155 0.0
H1831 H 0.43352 0.99971 0.01141 0.0
H1832 H 0.4323 0.98719 0.06928 0.0
H1833 H 0.44134 1.00746 0.07251 0.0
H1834 H 0.4057 0.04322 0.19946 0.0
H1835 H 0.4051 0.02211 0.26788 0.0
H1836 H 0.41322 0.98393 0.15209 0.0
C1837 C 0.41431 0.03148 -0.00045 0.0
C1838 C 0.4129 0.04867 0.99145 0.0
C1839 C 0.4108 0.05921 0.03477 0.0
C1840 C 0.40974 0.05261 0.08543 0.0
C1841 C 0.41094 0.03554 0.09163 0.0
C1842 C 0.41337 0.02516 0.04987 0.0
C1843 C 0.41428 1.00728 0.06657 0.0
C1844 C 0.40037 0.99706 0.0415 0.0
C1845 C 0.43138 0.99998 0.05422 0.0
C1846 C 0.41172 1.00909 0.12464 0.0
C1847 C 0.40983 0.02551 0.13813 0.0
C1848 C 0.40727 0.03038 0.18934 0.0
C1849 C 0.40694 0.01822 0.22788 0.0
C1850 C 0.40917 1.00133 0.21528 0.0
C1851 C 0.41139 0.9967 0.1628 0.0
H1852 H 0.78699 0.88445 0.90788 0.0
H1853 H 0.79552 0.83231 0.92993 0.0
H1854 H 0.77743 0.82614 0.85445 0.0
H1855 H 0.74593 0.88274 0.87418 0.0
H1856 H 0.74646 0.89826 0.82395 0.0
H1857 H 0.76129 0.89885 0.87624 0.0
H1858 H 0.78551 0.8984 0.81019 0.0
H1859 H 0.77077 0.89839 0.75753 0.0
H1860 H 0.78625 0.88251 0.76115 0.0
H1861 H 0.75482 0.82576 0.78582 0.0
H1862 H 0.73462 0.83121 0.71531 0.0
H1863 H 0.74327 0.88361 0.73117 0.0
C1864 C 0.78562 0.87179 0.8952 0.0
C1865 C 0.79282 0.85883 0.92393 0.0
C1866 C 0.79034 0.84238 0.90765 0.0
C1867 C 0.77996 0.83878 0.86521 0.0
C1868 C 0.77245 0.85183 0.83893 0.0
C1869 C 0.77566 0.86804 0.85204 0.0
C1870 C 0.76604 0.87978 0.81755 0.0
C1871 C 0.75423 0.89054 0.84994 0.0
C1872 C 0.77785 0.89039 0.78464 0.0
C1873 C 0.75656 0.86767 0.78393 0.0
C1874 C 0.76021 0.8516 0.79749 0.0
C1875 C 0.75216 0.83829 0.77416 0.0
C1876 C 0.7406 0.84148 0.73454 0.0
C1877 C 0.73745 0.85779 0.71811 0.0
C1878 C 0.74543 0.87103 0.74339 0.0
H1879 H 0.90425 0.01985 0.69658 0.0
H1880 H 0.91503 0.06859 0.63565 0.0
H1881 H 0.91718 0.05671 0.54669 0.0
H1882 H 0.93297 0.99824 0.616 0.0
H1883 H 0.91994 0.98036 0.60874 0.0
H1884 H 0.91851 0.99281 0.66671 0.0
H1885 H 0.88715 0.99678 0.65088 0.0
H1886 H 0.88844 0.9843 0.59295 0.0
H1887 H 0.88014 1.00485 0.58925 0.0
H1888 H 0.9183 0.03945 0.46577 0.0
H1889 H 0.91855 0.01854 0.39718 0.0
H1890 H 0.90822 0.98041 0.51162 0.0
C1891 C 0.90704 0.02813 0.66467 0.0
C1892 C 0.90949 0.04522 0.67304 0.0
C1893 C 0.91306 0.05552 0.63008 0.0
C1894 C 0.91433 0.04885 0.57958 0.0
C1895 C 0.91209 0.03189 0.57309 0.0
C1896 C 0.90854 0.02167 0.61449 0.0
C1897 C 0.9071 1.00381 0.59749 0.0
C1898 C 0.92043 0.99318 0.6238 0.0
C1899 C 0.88967 0.99704 0.60828 0.0
C1900 C 0.91028 1.00552 0.53957 0.0
C1901 C 0.9131 0.02184 0.52655 0.0
C1902 C 0.91618 0.02666 0.47559 0.0
C1903 C 0.91634 0.01456 0.43686 0.0
C1904 C 0.91354 0.99769 0.4489 0.0
C1905 C 0.9105 0.99313 0.50117 0.0
H1906 H 0.79799 0.16356 0.26693 0.0
H1907 H 0.75961 0.15647 0.1507 0.0
H1908 H 0.73855 0.15544 0.21964 0.0
H1909 H 0.77979 0.1365 0.36534 0.0
H1910 H 0.78579 0.14957 0.41893 0.0
H1911 H 0.79802 0.1492 0.36023 0.0
H1912 H 0.79485 0.18086 0.35181 0.0
H1913 H 0.78247 0.18128 0.41019 0.0
H1914 H 0.77445 0.18975 0.35038 0.0
H1915 H 0.72113 0.15644 0.30139 0.0
H1916 H 0.7094 0.15793 0.39091 0.0
H1917 H 0.75905 0.16366 0.45268 0.0
C1918 C 0.7852 0.16158 0.25617 0.0
C1919 C 0.7805 0.16014 0.2034 0.0
C1920 C 0.76356 0.15769 0.19088 0.0
C1921 C 0.75144 0.15708 0.22975 0.0
C1922 C 0.75637 0.15887 0.2813 0.0
C1923 C 0.77284 0.16093 0.29469 0.0
C1924 C 0.77473 0.16274 0.3531 0.0
C1925 C 0.7852 0.14866 0.37572 0.0
C1926 C 0.78205 0.17966 0.36717 0.0
C1927 C 0.75682 0.1614 0.37005 0.0
C1928 C 0.74636 0.15925 0.32821 0.0
C1929 C 0.72922 0.15803 0.33463 0.0
C1930 C 0.72264 0.15893 0.38544 0.0
C1931 C 0.73323 0.16094 0.4288 0.0
C1932 C 0.75051 0.16217 0.42054 0.0
H1933 H 0.61406 1.00582 0.20497 0.0
H1934 H 0.60891 0.95672 0.13974 0.0
H1935 H 0.60782 0.96878 0.05116 0.0
H1936 H 0.58615 0.02601 0.11584 0.0
H1937 H 0.59822 0.04466 0.11217 0.0
H1938 H 0.59873 0.03226 0.17042 0.0
H1939 H 0.6306 0.03026 0.16359 0.0
H1940 H 0.63021 0.04268 0.1054 0.0
H1941 H 0.63984 0.02268 0.10428 0.0
H1942 H 0.60761 0.9858 0.97121 0.0
H1943 H 0.60833 1.00646 0.90231 0.0
H1944 H 0.61295 0.04538 0.0179 0.0
C1945 C 0.6127 0.99756 0.17209 0.0
C1946 C 0.61158 0.98027 0.1792 0.0
C1947 C 0.60982 0.96995 0.13518 0.0
C1948 C 0.60916 0.97671 0.08483 0.0
C1949 C 0.61021 0.99379 0.07935 0.0
C1950 C 0.61193 1.0041 0.12167 0.0
C1951 C 0.61274 0.02205 0.10482 0.0
C1952 C 0.59809 0.03182 0.12714 0.0
C1953 C 0.62934 0.02988 0.12045 0.0
C1954 C 0.61134 0.02022 0.04609 0.0
C1955 C 0.60987 1.00377 0.03268 0.0
C1956 C 0.60866 0.9987 0.98123 0.0
C1957 C 0.60904 1.01068 0.94227 0.0
C1958 C 0.61055 0.0277 0.9544 0.0
C1959 C 0.61166 0.03253 0.00728 0.0
H1960 H 0.78623 0.64187 0.93721 0.0
H1961 H 0.80742 0.6908 0.92903 0.0
H1962 H 0.79051 0.69668 0.85051 0.0
H1963 H 0.78421 0.63526 0.79337 0.0
H1964 H 0.76522 0.62373 0.79858 0.0
H1965 H 0.77999 0.62331 0.85114 0.0
H1966 H 0.75703 0.63284 0.91474 0.0
H1967 H 0.74232 0.63383 0.86214 0.0
H1968 H 0.74613 0.65175 0.90187 0.0
H1969 H 0.76852 0.6982 0.78036 0.0
H1970 H 0.74761 0.69354 0.71183 0.0
H1971 H 0.74235 0.6428 0.76093 0.0
C1972 C 0.78773 0.65359 0.91758 0.0
C1973 C 0.79833 0.6658 0.9382 0.0
C1974 C 0.79972 0.68117 0.91271 0.0
C1975 C 0.78998 0.68466 0.86867 0.0
C1976 C 0.77917 0.67253 0.85038 0.0
C1977 C 0.7784 0.65711 0.87303 0.0
C1978 C 0.76583 0.64621 0.84578 0.0
C1979 C 0.77432 0.63125 0.82071 0.0
C1980 C 0.75201 0.64085 0.88339 0.0
C1981 C 0.75936 0.658 0.80484 0.0
C1982 C 0.76705 0.67319 0.80869 0.0
C1983 C 0.7627 0.68626 0.77637 0.0
C1984 C 0.75077 0.68352 0.7376 0.0
C1985 C 0.74348 0.66782 0.731 0.0
C1986 C 0.74762 0.65498 0.76565 0.0
H1987 H 0.61684 0.5219 0.20802 0.0
H1988 H 0.61636 0.57179 0.14708 0.0
H1989 H 0.61739 0.56045 0.05699 0.0
H1990 H 0.64416 0.504 0.11321 0.0
H1991 H 0.63301 0.48477 0.11126 0.0
H1992 H 0.63312 0.49692 0.17005 0.0
H1993 H 0.60108 0.49727 0.17014 0.0
H1994 H 0.60085 0.48513 0.1114 0.0
H1995 H 0.59022 0.50461 0.11335 0.0
H1996 H 0.61753 0.54341 0.97473 0.0
H1997 H 0.61635 0.52255 0.9056 0.0
H1998 H 0.61607 0.48364 0.02181 0.0
C1999 C 0.617 0.53057 0.17594 0.0
C2000 C 0.61649 0.54779 0.18448 0.0
C2001 C 0.61678 0.55859 0.14131 0.0
C2002 C 0.61736 0.55224 0.09021 0.0
C2003 C 0.61765 0.53513 0.08349 0.0
C2004 C 0.61746 0.52448 0.12528 0.0
C2005 C 0.61723 0.50663 0.1081 0.0
C2006 C 0.63281 0.49755 0.12676 0.0
C2007 C 0.6014 0.4979 0.12686 0.0
C2008 C 0.61725 0.50878 0.04961 0.0
C2009 C 0.61756 0.52532 0.03633 0.0
C2010 C 0.61732 0.53046 0.98475 0.0
C2011 C 0.61661 0.51844 0.94578 0.0
C2012 C 0.61608 0.5014 0.95834 0.0
C2013 C 0.61655 0.49653 0.01104 0.0
H2014 H 0.75779 0.34692 0.4709 0.0
H2015 H 0.72228 0.38495 0.43241 0.0
H2016 H 0.73878 0.39234 0.35449 0.0
H2017 H 0.79479 0.36727 0.42729 0.0
H2018 H 0.80386 0.34912 0.39873 0.0
H2019 H 0.78987 0.3472 0.45311 0.0
H2020 H 0.77116 0.32749 0.39974 0.0
H2021 H 0.78532 0.32904 0.34577 0.0
H2022 H 0.76379 0.33388 0.33656 0.0
H2023 H 0.75925 0.39618 0.28352 0.0
H2024 H 0.77895 0.39245 0.21129 0.0
H2025 H 0.80038 0.35041 0.29018 0.0
C2026 C 0.75349 0.35674 0.44576 0.0
C2027 C 0.73884 0.36548 0.45747 0.0
C2028 C 0.73342 0.37809 0.42369 0.0
C2029 C 0.74281 0.38248 0.37985 0.0
C2030 C 0.75741 0.37389 0.36995 0.0
C2031 C 0.76248 0.36095 0.40092 0.0
C2032 C 0.77785 0.3528 0.37867 0.0
C2033 C 0.79246 0.35419 0.41673 0.0
C2034 C 0.77431 0.33474 0.36432 0.0
C2035 C 0.78068 0.36327 0.3304 0.0
C2036 C 0.76892 0.37559 0.32709 0.0
C2037 C 0.76853 0.38662 0.28569 0.0
C2038 C 0.77988 0.38451 0.24515 0.0
C2039 C 0.79138 0.3714 0.24587 0.0
C2040 C 0.79211 0.36088 0.28967 0.0
H2041 H 0.91522 0.50837 0.70618 0.0
H2042 H 0.91069 0.4591 0.64191 0.0
H2043 H 0.91071 0.47092 0.5528 0.0
H2044 H 0.88904 0.52871 0.61524 0.0
H2045 H 0.90144 0.54714 0.61201 0.0
H2046 H 0.90139 0.53485 0.67047 0.0
H2047 H 0.93326 0.53222 0.66567 0.0
H2048 H 0.93344 0.54458 0.60732 0.0
H2049 H 0.94272 0.52442 0.60701 0.0
H2050 H 0.91015 0.48802 0.47227 0.0
H2051 H 0.91033 0.50885 0.40344 0.0
H2052 H 0.91617 0.5475 0.51932 0.0
C2053 C 0.91432 0.5 0.67344 0.0
C2054 C 0.91295 0.48276 0.6809 0.0
C2055 C 0.91178 0.4723 0.63701 0.0
C2056 C 0.91176 0.47892 0.58639 0.0
C2057 C 0.91303 0.49598 0.58059 0.0
C2058 C 0.9144 0.50638 0.62285 0.0
C2059 C 0.91561 0.52427 0.60591 0.0
C2060 C 0.901 0.53433 0.62717 0.0
C2061 C 0.93225 0.53182 0.62246 0.0
C2062 C 0.91456 0.52236 0.54722 0.0
C2063 C 0.91303 0.50591 0.53377 0.0
C2064 C 0.91149 0.50089 0.48231 0.0
C2065 C 0.91163 0.51293 0.44344 0.0
C2066 C 0.91343 0.5299 0.45578 0.0
C2067 C 0.91486 0.53467 0.50858 0.0
H2068 H 0.23174 0.35758 0.26989 0.0
H2069 H 0.27002 0.36719 0.1547 0.0
H2070 H 0.29084 0.3684 0.22349 0.0
H2071 H 0.24909 0.38505 0.36939 0.0
H2072 H 0.24374 0.37171 0.423 0.0
H2073 H 0.23136 0.37166 0.36461 0.0
H2074 H 0.23573 0.34019 0.35558 0.0
H2075 H 0.24821 0.34017 0.41377 0.0
H2076 H 0.25645 0.33208 0.35371 0.0
H2077 H 0.30818 0.3673 0.30288 0.0
H2078 H 0.32046 0.36592 0.39118 0.0
H2079 H 0.27151 0.35851 0.45667 0.0
C2080 C 0.24447 0.36007 0.25938 0.0
C2081 C 0.24916 0.36213 0.20665 0.0
C2082 C 0.266 0.36538 0.19459 0.0
C2083 C 0.27804 0.36613 0.23345 0.0
C2084 C 0.27316 0.36378 0.28471 0.0
C2085 C 0.2568 0.361 0.29812 0.0
C2086 C 0.25513 0.35904 0.35674 0.0
C2087 C 0.24418 0.37268 0.37979 0.0
C2088 C 0.24849 0.34185 0.37075 0.0
C2089 C 0.27305 0.36106 0.37351 0.0
C2090 C 0.28324 0.36366 0.33123 0.0
C2091 C 0.30033 0.3654 0.33655 0.0
C2092 C 0.30722 0.36457 0.38672 0.0
C2093 C 0.29699 0.36217 0.43075 0.0
C2094 C 0.27969 0.36042 0.42382 0.0
H2095 H 0.41622 0.47559 0.02057 0.0
H2096 H 0.39341 0.51071 0.91547 0.0
H2097 H 0.39088 0.53068 0.98706 0.0
H2098 H 0.39141 0.48721 0.13798 0.0
H2099 H 0.40871 0.48469 0.18153 0.0
H2100 H 0.40729 0.47238 0.12319 0.0
H2101 H 0.43633 0.48256 0.09524 0.0
H2102 H 0.43773 0.49509 0.15302 0.0
H2103 H 0.44019 0.50436 0.08961 0.0
H2104 H 0.39347 0.54811 0.06649 0.0
H2105 H 0.39842 0.56083 0.15279 0.0
H2106 H 0.41877 0.51467 0.20858 0.0
C2107 C 0.41022 0.48728 0.01325 0.0
C2108 C 0.4049 0.49155 0.9625 0.0
C2109 C 0.39753 0.50715 0.95407 0.0
C2110 C 0.39606 0.51863 0.99446 0.0
C2111 C 0.40195 0.51437 0.04352 0.0
C2112 C 0.40865 0.49901 0.05352 0.0
C2113 C 0.4146 0.498 0.10962 0.0
C2114 C 0.40492 0.48478 0.13987 0.0
C2115 C 0.43332 0.49481 0.11198 0.0
C2116 C 0.41041 0.5152 0.12891 0.0
C2117 C 0.40318 0.52445 0.09002 0.0
C2118 C 0.39891 0.54093 0.09759 0.0
C2119 C 0.40185 0.54809 0.14659 0.0
C2120 C 0.40889 0.53876 0.18747 0.0
C2121 C 0.41324 0.52211 0.17825 0.0
H2122 H 0.2503 0.63755 0.93666 0.0
H2123 H 0.22941 0.68661 0.93936 0.0
H2124 H 0.24793 0.69486 0.86682 0.0
H2125 H 0.29174 0.64814 0.90635 0.0
H2126 H 0.29514 0.6313 0.86186 0.0
H2127 H 0.28041 0.62916 0.91414 0.0
H2128 H 0.25729 0.62175 0.84818 0.0
H2129 H 0.27208 0.62336 0.79593 0.0
H2130 H 0.25334 0.63531 0.79394 0.0
H2131 H 0.27028 0.69815 0.7985 0.0
H2132 H 0.28992 0.69477 0.7255 0.0
H2133 H 0.29417 0.64281 0.7606 0.0
C2134 C 0.24941 0.64991 0.92102 0.0
C2135 C 0.2384 0.66146 0.94298 0.0
C2136 C 0.23763 0.67757 0.92235 0.0
C2137 C 0.24824 0.68239 0.88168 0.0
C2138 C 0.25931 0.67083 0.86165 0.0
C2139 C 0.25958 0.65477 0.87946 0.0
C2140 C 0.27192 0.64448 0.84913 0.0
C2141 C 0.28561 0.63789 0.88503 0.0
C2142 C 0.26313 0.6304 0.82005 0.0
C2143 C 0.27865 0.65728 0.81161 0.0
C2144 C 0.27149 0.67249 0.82039 0.0
C2145 C 0.27581 0.68627 0.79097 0.0
C2146 C 0.28705 0.68426 0.74974 0.0
C2147 C 0.29361 0.66858 0.73776 0.0
C2148 C 0.28965 0.65501 0.76984 0.0
H2149 H 0.11341 0.5123 0.4819 0.0
H2150 H 0.11958 0.56175 0.54336 0.0
H2151 H 0.12102 0.55009 0.63295 0.0
H2152 H 0.08711 0.49733 0.5841 0.0
H2153 H 0.0958 0.47692 0.58235 0.0
H2154 H 0.0955 0.48931 0.52412 0.0
H2155 H 0.12719 0.48574 0.51489 0.0
H2156 H 0.12764 0.47347 0.57339 0.0
H2157 H 0.1405 0.49155 0.56823 0.0
H2158 H 0.12214 0.53271 0.71464 0.0
H2159 H 0.12112 0.51172 0.78349 0.0
H2160 H 0.11335 0.47358 0.66727 0.0
C2161 C 0.11495 0.52082 0.51396 0.0
C2162 C 0.11635 0.53801 0.50564 0.0
C2163 C 0.11844 0.54858 0.54892 0.0
C2164 C 0.11931 0.54204 0.59974 0.0
C2165 C 0.11797 0.52498 0.60619 0.0
C2166 C 0.11568 0.51456 0.56441 0.0
C2167 C 0.11421 0.49673 0.58134 0.0
C2168 C 0.09714 0.48966 0.56714 0.0
C2169 C 0.12822 0.48626 0.55807 0.0
C2170 C 0.11614 0.49861 0.63964 0.0
C2171 C 0.11836 0.51501 0.65304 0.0
C2172 C 0.12035 0.51989 0.70453 0.0
C2173 C 0.11974 0.5078 0.74334 0.0
C2174 C 0.11709 0.49096 0.73077 0.0
C2175 C 0.11547 0.4863 0.67806 0.0
loop_
_geom_bond_atom_site_label_1
_geom_bond_atom_site_label_2
_geom_bond_distance
_geom_bond_site_symmetry_2
_ccdc_geom_bond_type
Co0 O1 2.216 . S
Co0 O2 2.091 . S
Co0 O4 2.004 . S
Co0 O10 2.021 1_554 S
Co0 O12 2.137 . S
Co0 O13 2.244 . S
O1 Co0 2.216 . S
O1 C8 1.247 . S
O2 Co0 2.091 . S
O2 C8 1.261 . S
C3 O12 1.247 . S
C3 O13 1.272 . S
O4 Co0 2.004 . S
O4 C9 1.259 . S
Co5 O6 2.061 . S
Co5 O11 2.052 . S
Co5 O13 2.135 . S
O6 Co5 2.061 . S
O6 C9 1.235 . S
C7 O10 1.238 . S
C7 O11 1.241 1_556 S
C8 O1 1.247 . S
C8 O2 1.261 . S
C9 O4 1.259 . S
C9 O6 1.235 . S
O10 Co0 2.021 1_556 S
O10 C7 1.238 . S
O11 Co5 2.052 . S
O11 C7 1.241 1_554 S
O12 Co0 2.137 . S
O12 C3 1.247 . S
O13 Co0 2.244 . S
O13 C3 1.272 . S
O13 Co5 2.135 . S
Co14 O15 2.216 . S
Co14 O16 2.091 . S
Co14 O18 2.004 . S
Co14 O24 2.021 . S
Co14 O26 2.137 . S
Co14 O27 2.244 . S
O15 Co14 2.216 . S
O15 C22 1.247 . S
O16 Co14 2.091 . S
O16 C22 1.261 . S
C17 O26 1.247 . S
C17 O27 1.272 . S
O18 Co14 2.004 . S
O18 C23 1.259 . S
Co19 O20 2.061 . S
Co19 O25 2.052 . S
Co19 O27 2.135 . S
O20 Co19 2.061 . S
O20 C23 1.235 . S
C21 O24 1.238 . S
C21 O25 1.241 . S
C22 O15 1.247 . S
C22 O16 1.261 . S
C23 O18 1.259 . S
C23 O20 1.235 . S
O24 Co14 2.021 . S
O24 C21 1.238 . S
O25 Co19 2.052 . S
O25 C21 1.241 . S
O26 Co14 2.137 . S
O26 C17 1.247 . S
O27 Co14 2.244 . S
O27 C17 1.272 . S
O27 Co19 2.135 . S
Co28 O29 2.216 . S
Co28 O30 2.091 . S
Co28 O32 2.004 . S
Co28 O38 2.021 . S
Co28 O40 2.137 . S
Co28 O41 2.244 . S
O29 Co28 2.216 . S
O29 C36 1.247 . S
O30 Co28 2.091 . S
O30 C36 1.261 . S
C31 O40 1.247 . S
C31 O41 1.272 . S
O32 Co28 2.004 . S
O32 C37 1.259 . S
Co33 O34 2.061 . S
Co33 O39 2.052 . S
Co33 O41 2.135 . S
O34 Co33 2.061 . S
O34 C37 1.235 . S
C35 O38 1.238 . S
C35 O39 1.241 . S
C36 O29 1.247 . S
C36 O30 1.261 . S
C37 O32 1.259 . S
C37 O34 1.235 . S
O38 Co28 2.021 . S
O38 C35 1.238 . S
O39 Co33 2.052 . S
O39 C35 1.241 . S
O40 Co28 2.137 . S
O40 C31 1.247 . S
O41 Co28 2.244 . S
O41 C31 1.272 . S
O41 Co33 2.135 . S
Co42 O43 2.216 . S
Co42 O44 2.091 . S
Co42 O46 2.004 . S
Co42 O52 2.021 . S
Co42 O54 2.137 . S
Co42 O55 2.244 . S
O43 Co42 2.216 . S
O43 C50 1.247 . S
O44 Co42 2.091 . S
O44 C50 1.261 . S
C45 O54 1.247 . S
C45 O55 1.272 . S
O46 Co42 2.004 . S
O46 C51 1.259 . S
Co47 O48 2.061 . S
Co47 O53 2.052 . S
Co47 O55 2.135 . S
O48 Co47 2.061 . S
O48 C51 1.235 . S
C49 O52 1.238 . S
C49 O53 1.241 . S
C50 O43 1.247 . S
C50 O44 1.261 . S
C51 O46 1.259 . S
C51 O48 1.235 . S
O52 Co42 2.021 . S
O52 C49 1.238 . S
O53 Co47 2.052 . S
O53 C49 1.241 . S
O54 Co42 2.137 . S
O54 C45 1.247 . S
O55 Co42 2.244 . S
O55 C45 1.272 . S
O55 Co47 2.135 . S
Co56 O57 2.216 . S
Co56 O58 2.091 . S
Co56 O60 2.004 . S
Co56 O66 2.021 . S
Co56 O68 2.137 . S
Co56 O69 2.244 . S
O57 Co56 2.216 . S
O57 C64 1.247 . S
O58 Co56 2.091 . S
O58 C64 1.261 . S
C59 O68 1.247 . S
C59 O69 1.272 . S
O60 Co56 2.004 . S
O60 C65 1.259 . S
Co61 O62 2.061 . S
Co61 O67 2.052 . S
Co61 O69 2.135 . S
O62 Co61 2.061 . S
O62 C65 1.235 . S
C63 O66 1.238 . S
C63 O67 1.241 . S
C64 O57 1.247 . S
C64 O58 1.261 . S
C65 O60 1.259 . S
C65 O62 1.235 . S
O66 Co56 2.021 . S
O66 C63 1.238 . S
O67 Co61 2.052 . S
O67 C63 1.241 . S
O68 Co56 2.137 . S
O68 C59 1.247 . S
O69 Co56 2.244 . S
O69 C59 1.272 . S
O69 Co61 2.135 . S
Co70 O71 2.216 . S
Co70 O72 2.091 . S
Co70 O74 2.004 . S
Co70 O80 2.021 . S
Co70 O82 2.137 . S
Co70 O83 2.244 . S
O71 Co70 2.216 . S
O71 C78 1.247 . S
O72 Co70 2.091 . S
O72 C78 1.261 . S
C73 O82 1.247 . S
C73 O83 1.272 . S
O74 Co70 2.004 . S
O74 C79 1.259 . S
Co75 O76 2.061 . S
Co75 O81 2.052 . S
Co75 O83 2.135 . S
O76 Co75 2.061 . S
O76 C79 1.235 . S
C77 O80 1.238 . S
C77 O81 1.241 . S
C78 O71 1.247 . S
C78 O72 1.261 . S
C79 O74 1.259 . S
C79 O76 1.235 . S
O80 Co70 2.021 . S
O80 C77 1.238 . S
O81 Co75 2.052 . S
O81 C77 1.241 . S
O82 Co70 2.137 . S
O82 C73 1.247 . S
O83 Co70 2.244 . S
O83 C73 1.272 . S
O83 Co75 2.135 . S
Co84 O85 2.216 . S
Co84 O86 2.091 . S
Co84 O88 2.004 . S
Co84 O94 2.021 . S
Co84 O96 2.137 . S
Co84 O97 2.244 . S
O85 Co84 2.216 . S
O85 C92 1.247 . S
O86 Co84 2.091 . S
O86 C92 1.261 . S
C87 O96 1.247 . S
C87 O97 1.272 . S
O88 Co84 2.004 . S
O88 C93 1.259 . S
Co89 O90 2.061 . S
Co89 O95 2.052 . S
Co89 O97 2.135 . S
O90 Co89 2.061 . S
O90 C93 1.235 . S
C91 O94 1.238 . S
C91 O95 1.241 . S
C92 O85 1.247 . S
C92 O86 1.261 . S
C93 O88 1.259 . S
C93 O90 1.235 . S
O94 Co84 2.021 . S
O94 C91 1.238 . S
O95 Co89 2.052 . S
O95 C91 1.241 . S
O96 Co84 2.137 . S
O96 C87 1.247 . S
O97 Co84 2.244 . S
O97 C87 1.272 . S
O97 Co89 2.135 . S
Co98 O99 2.216 . S
Co98 O100 2.091 . S
Co98 O102 2.004 . S
Co98 O108 2.021 . S
Co98 O110 2.137 . S
Co98 O111 2.244 . S
O99 Co98 2.216 . S
O99 C106 1.247 . S
O100 Co98 2.091 . S
O100 C106 1.261 . S
C101 O110 1.247 . S
C101 O111 1.272 . S
O102 Co98 2.004 . S
O102 C107 1.259 . S
Co103 O104 2.061 . S
Co103 O109 2.052 . S
Co103 O111 2.135 . S
O104 Co103 2.061 . S
O104 C107 1.235 . S
C105 O108 1.238 . S
C105 O109 1.241 . S
C106 O99 1.247 . S
C106 O100 1.261 . S
C107 O102 1.259 . S
C107 O104 1.235 . S
O108 Co98 2.021 . S
O108 C105 1.238 . S
O109 Co103 2.052 . S
O109 C105 1.241 . S
O110 Co98 2.137 . S
O110 C101 1.247 . S
O111 Co98 2.244 . S
O111 C101 1.272 . S
O111 Co103 2.135 . S
Co112 O113 2.216 . S
Co112 O114 2.091 . S
Co112 O116 2.004 . S
Co112 O122 2.021 . S
Co112 O124 2.137 . S
Co112 O125 2.244 . S
O113 Co112 2.216 . S
O113 C120 1.247 . S
O114 Co112 2.091 . S
O114 C120 1.261 . S
C115 O124 1.247 . S
C115 O125 1.272 . S
O116 Co112 2.004 . S
O116 C121 1.259 . S
Co117 O118 2.061 . S
Co117 O123 2.052 . S
Co117 O125 2.135 . S
O118 Co117 2.061 . S
O118 C121 1.235 . S
C119 O122 1.238 . S
C119 O123 1.241 . S
C120 O113 1.247 . S
C120 O114 1.261 . S
C121 O116 1.259 . S
C121 O118 1.235 . S
O122 Co112 2.021 . S
O122 C119 1.238 . S
O123 Co117 2.052 . S
O123 C119 1.241 . S
O124 Co112 2.137 . S
O124 C115 1.247 . S
O125 Co112 2.244 . S
O125 C115 1.272 . S
O125 Co117 2.135 . S
Co126 O127 2.216 . S
Co126 O128 2.091 . S
Co126 O130 2.004 . S
Co126 O136 2.021 . S
Co126 O138 2.137 . S
Co126 O139 2.244 . S
O127 Co126 2.216 . S
O127 C134 1.247 . S
O128 Co126 2.091 . S
O128 C134 1.261 . S
C129 O138 1.247 . S
C129 O139 1.272 . S
O130 Co126 2.004 . S
O130 C135 1.259 . S
Co131 O132 2.061 . S
Co131 O137 2.052 . S
Co131 O139 2.135 . S
O132 Co131 2.061 . S
O132 C135 1.235 . S
C133 O136 1.238 . S
C133 O137 1.241 . S
C134 O127 1.247 . S
C134 O128 1.261 . S
C135 O130 1.259 . S
C135 O132 1.235 . S
O136 Co126 2.021 . S
O136 C133 1.238 . S
O137 Co131 2.052 . S
O137 C133 1.241 . S
O138 Co126 2.137 . S
O138 C129 1.247 . S
O139 Co126 2.244 . S
O139 C129 1.272 . S
O139 Co131 2.135 . S
Co140 O141 2.216 . S
Co140 O142 2.091 . S
Co140 O144 2.004 . S
Co140 O150 2.021 . S
Co140 O152 2.137 . S
Co140 O153 2.244 . S
O141 Co140 2.216 . S
O141 C148 1.247 . S
O142 Co140 2.091 . S
O142 C148 1.261 . S
C143 O152 1.247 . S
C143 O153 1.272 . S
O144 Co140 2.004 . S
O144 C149 1.259 . S
Co145 O146 2.061 . S
Co145 O151 2.052 . S
Co145 O153 2.135 . S
O146 Co145 2.061 . S
O146 C149 1.235 . S
C147 O150 1.238 . S
C147 O151 1.241 . S
C148 O141 1.247 . S
C148 O142 1.261 . S
C149 O144 1.259 . S
C149 O146 1.235 . S
O150 Co140 2.021 . S
O150 C147 1.238 . S
O151 Co145 2.052 . S
O151 C147 1.241 . S
O152 Co140 2.137 . S
O152 C143 1.247 . S
O153 Co140 2.244 . S
O153 C143 1.272 . S
O153 Co145 2.135 . S
Co154 O155 2.216 . S
Co154 O156 2.091 . S
Co154 O158 2.004 . S
Co154 O164 2.021 . S
Co154 O166 2.137 . S
Co154 O167 2.244 . S
O155 Co154 2.216 . S
O155 C162 1.247 . S
O156 Co154 2.091 . S
O156 C162 1.261 . S
C157 O166 1.247 . S
C157 O167 1.272 . S
O158 Co154 2.004 . S
O158 C163 1.259 . S
Co159 O160 2.061 . S
Co159 O165 2.052 . S
Co159 O167 2.135 . S
O160 Co159 2.061 . S
O160 C163 1.235 . S
C161 O164 1.238 . S
C161 O165 1.241 . S
C162 O155 1.247 . S
C162 O156 1.261 . S
C163 O158 1.259 . S
C163 O160 1.235 . S
O164 Co154 2.021 . S
O164 C161 1.238 . S
O165 Co159 2.052 . S
O165 C161 1.241 . S
O166 Co154 2.137 . S
O166 C157 1.247 . S
O167 Co154 2.244 . S
O167 C157 1.272 . S
O167 Co159 2.135 . S
Co168 O169 2.216 . S
Co168 O170 2.091 . S
Co168 O172 2.004 . S
Co168 O178 2.021 1_554 S
Co168 O180 2.137 . S
Co168 O181 2.244 . S
O169 Co168 2.216 . S
O169 C176 1.247 . S
O170 Co168 2.091 . S
O170 C176 1.261 . S
C171 O180 1.247 . S
C171 O181 1.272 . S
O172 Co168 2.004 . S
O172 C177 1.259 . S
Co173 O174 2.061 . S
Co173 O179 2.052 . S
Co173 O181 2.135 . S
O174 Co173 2.061 . S
O174 C177 1.235 . S
C175 O178 1.238 . S
C175 O179 1.241 1_556 S
C176 O169 1.247 . S
C176 O170 1.261 . S
C177 O172 1.259 . S
C177 O174 1.235 . S
O178 Co168 2.021 1_556 S
O178 C175 1.238 . S
O179 Co173 2.052 . S
O179 C175 1.241 1_554 S
O180 Co168 2.137 . S
O180 C171 1.247 . S
O181 Co168 2.244 . S
O181 C171 1.272 . S
O181 Co173 2.135 . S
Co182 O183 2.216 . S
Co182 O184 2.091 . S
Co182 O186 2.004 . S
Co182 O192 2.021 . S
Co182 O194 2.137 . S
Co182 O195 2.244 . S
O183 Co182 2.216 . S
O183 C190 1.247 . S
O184 Co182 2.091 . S
O184 C190 1.261 . S
C185 O194 1.247 . S
C185 O195 1.272 . S
O186 Co182 2.004 . S
O186 C191 1.259 . S
Co187 O188 2.061 . S
Co187 O193 2.052 . S
Co187 O195 2.135 . S
O188 Co187 2.061 . S
O188 C191 1.235 . S
C189 O192 1.238 . S
C189 O193 1.241 . S
C190 O183 1.247 . S
C190 O184 1.261 . S
C191 O186 1.259 . S
C191 O188 1.235 . S
O192 Co182 2.021 . S
O192 C189 1.238 . S
O193 Co187 2.052 . S
O193 C189 1.241 . S
O194 Co182 2.137 . S
O194 C185 1.247 . S
O195 Co182 2.244 . S
O195 C185 1.272 . S
O195 Co187 2.135 . S
Co196 O197 2.216 . S
Co196 O198 2.091 . S
Co196 O200 2.004 . S
Co196 O206 2.021 . S
Co196 O208 2.137 . S
Co196 O209 2.244 . S
O197 Co196 2.216 . S
O197 C204 1.247 . S
O198 Co196 2.091 . S
O198 C204 1.261 . S
C199 O208 1.247 . S
C199 O209 1.272 . S
O200 Co196 2.004 . S
O200 C205 1.259 . S
Co201 O202 2.061 . S
Co201 O207 2.052 . S
Co201 O209 2.135 . S
O202 Co201 2.061 . S
O202 C205 1.235 . S
C203 O206 1.238 . S
C203 O207 1.241 . S
C204 O197 1.247 . S
C204 O198 1.261 . S
C205 O200 1.259 . S
C205 O202 1.235 . S
O206 Co196 2.021 . S
O206 C203 1.238 . S
O207 Co201 2.052 . S
O207 C203 1.241 . S
O208 Co196 2.137 . S
O208 C199 1.247 . S
O209 Co196 2.244 . S
O209 C199 1.272 . S
O209 Co201 2.135 . S
Co210 O211 2.216 . S
Co210 O212 2.091 . S
Co210 O214 2.004 . S
Co210 O220 2.021 . S
Co210 O222 2.137 . S
Co210 O223 2.244 . S
O211 Co210 2.216 . S
O211 C218 1.247 . S
O212 Co210 2.091 . S
O212 C218 1.261 . S
C213 O222 1.247 . S
C213 O223 1.272 . S
O214 Co210 2.004 . S
O214 C219 1.259 . S
Co215 O216 2.061 . S
Co215 O221 2.052 . S
Co215 O223 2.135 . S
O216 Co215 2.061 . S
O216 C219 1.235 . S
C217 O220 1.238 . S
C217 O221 1.241 . S
C218 O211 1.247 . S
C218 O212 1.261 . S
C219 O214 1.259 . S
C219 O216 1.235 . S
O220 Co210 2.021 . S
O220 C217 1.238 . S
O221 Co215 2.052 . S
O221 C217 1.241 . S
O222 Co210 2.137 . S
O222 C213 1.247 . S
O223 Co210 2.244 . S
O223 C213 1.272 . S
O223 Co215 2.135 . S
Co224 O225 2.216 . S
Co224 O226 2.091 . S
Co224 O228 2.004 . S
Co224 O234 2.021 . S
Co224 O236 2.137 . S
Co224 O237 2.244 . S
O225 Co224 2.216 . S
O225 C232 1.247 . S
O226 Co224 2.091 . S
O226 C232 1.261 . S
C227 O236 1.247 . S
C227 O237 1.272 . S
O228 Co224 2.004 . S
O228 C233 1.259 . S
Co229 O230 2.061 . S
Co229 O235 2.052 . S
Co229 O237 2.135 . S
O230 Co229 2.061 . S
O230 C233 1.235 . S
C231 O234 1.238 . S
C231 O235 1.241 . S
C232 O225 1.247 . S
C232 O226 1.261 . S
C233 O228 1.259 . S
C233 O230 1.235 . S
O234 Co224 2.021 . S
O234 C231 1.238 . S
O235 Co229 2.052 . S
O235 C231 1.241 . S
O236 Co224 2.137 . S
O236 C227 1.247 . S
O237 Co224 2.244 . S
O237 C227 1.272 . S
O237 Co229 2.135 . S
Co238 O239 2.216 . S
Co238 O240 2.091 . S
Co238 O242 2.004 . S
Co238 O248 2.021 . S
Co238 O250 2.137 . S
Co238 O251 2.244 . S
O239 Co238 2.216 . S
O239 C246 1.247 . S
O240 Co238 2.091 . S
O240 C246 1.261 . S
C241 O250 1.247 . S
C241 O251 1.272 . S
O242 Co238 2.004 . S
O242 C247 1.259 . S
Co243 O244 2.061 . S
Co243 O249 2.052 . S
Co243 O251 2.135 . S
O244 Co243 2.061 . S
O244 C247 1.235 . S
C245 O248 1.238 . S
C245 O249 1.241 . S
C246 O239 1.247 . S
C246 O240 1.261 . S
C247 O242 1.259 . S
C247 O244 1.235 . S
O248 Co238 2.021 . S
O248 C245 1.238 . S
O249 Co243 2.052 . S
O249 C245 1.241 . S
O250 Co238 2.137 . S
O250 C241 1.247 . S
O251 Co238 2.244 . S
O251 C241 1.272 . S
O251 Co243 2.135 . S
Co252 O253 2.216 . S
Co252 O254 2.091 . S
Co252 O256 2.004 . S
Co252 O262 2.021 1_554 S
Co252 O264 2.137 . S
Co252 O265 2.244 . S
O253 Co252 2.216 . S
O253 C260 1.247 . S
O254 Co252 2.091 . S
O254 C260 1.261 . S
C255 O264 1.247 . S
C255 O265 1.272 . S
O256 Co252 2.004 . S
O256 C261 1.259 . S
Co257 O258 2.061 . S
Co257 O263 2.052 . S
Co257 O265 2.135 . S
O258 Co257 2.061 . S
O258 C261 1.235 . S
C259 O262 1.238 . S
C259 O263 1.241 1_556 S
C260 O253 1.247 . S
C260 O254 1.261 . S
C261 O256 1.259 . S
C261 O258 1.235 . S
O262 Co252 2.021 1_556 S
O262 C259 1.238 . S
O263 Co257 2.052 . S
O263 C259 1.241 1_554 S
O264 Co252 2.137 . S
O264 C255 1.247 . S
O265 Co252 2.244 . S
O265 C255 1.272 . S
O265 Co257 2.135 . S
Co266 O267 2.216 . S
Co266 O268 2.091 . S
Co266 O270 2.004 . S
Co266 O276 2.021 . S
Co266 O278 2.137 . S
Co266 O279 2.244 . S
O267 Co266 2.216 . S
O267 C274 1.247 . S
O268 Co266 2.091 . S
O268 C274 1.261 . S
C269 O278 1.247 . S
C269 O279 1.272 . S
O270 Co266 2.004 . S
O270 C275 1.259 . S
Co271 O272 2.061 . S
Co271 O277 2.052 . S
Co271 O279 2.135 . S
O272 Co271 2.061 . S
O272 C275 1.235 . S
C273 O276 1.238 . S
C273 O277 1.241 . S
C274 O267 1.247 . S
C274 O268 1.261 . S
C275 O270 1.259 . S
C275 O272 1.235 . S
O276 Co266 2.021 . S
O276 C273 1.238 . S
O277 Co271 2.052 . S
O277 C273 1.241 . S
O278 Co266 2.137 . S
O278 C269 1.247 . S
O279 Co266 2.244 . S
O279 C269 1.272 . S
O279 Co271 2.135 . S
Co280 O281 2.216 . S
Co280 O282 2.091 . S
Co280 O284 2.004 . S
Co280 O290 2.021 . S
Co280 O292 2.137 . S
Co280 O293 2.244 . S
O281 Co280 2.216 . S
O281 C288 1.247 . S
O282 Co280 2.091 . S
O282 C288 1.261 . S
C283 O292 1.247 . S
C283 O293 1.272 . S
O284 Co280 2.004 . S
O284 C289 1.259 . S
Co285 O286 2.061 . S
Co285 O291 2.052 . S
Co285 O293 2.135 . S
O286 Co285 2.061 . S
O286 C289 1.235 . S
C287 O290 1.238 . S
C287 O291 1.241 . S
C288 O281 1.247 . S
C288 O282 1.261 . S
C289 O284 1.259 . S
C289 O286 1.235 . S
O290 Co280 2.021 . S
O290 C287 1.238 . S
O291 Co285 2.052 . S
O291 C287 1.241 . S
O292 Co280 2.137 . S
O292 C283 1.247 . S
O293 Co280 2.244 . S
O293 C283 1.272 . S
O293 Co285 2.135 . S
Co294 O295 2.216 . S
Co294 O296 2.091 . S
Co294 O298 2.004 . S
Co294 O304 2.021 . S
Co294 O306 2.137 . S
Co294 O307 2.244 . S
O295 Co294 2.216 . S
O295 C302 1.247 . S
O296 Co294 2.091 . S
O296 C302 1.261 . S
C297 O306 1.247 . S
C297 O307 1.272 . S
O298 Co294 2.004 . S
O298 C303 1.259 . S
Co299 O300 2.061 . S
Co299 O305 2.052 . S
Co299 O307 2.135 . S
O300 Co299 2.061 . S
O300 C303 1.235 . S
C301 O304 1.238 . S
C301 O305 1.241 . S
C302 O295 1.247 . S
C302 O296 1.261 . S
C303 O298 1.259 . S
C303 O300 1.235 . S
O304 Co294 2.021 . S
O304 C301 1.238 . S
O305 Co299 2.052 . S
O305 C301 1.241 . S
O306 Co294 2.137 . S
O306 C297 1.247 . S
O307 Co294 2.244 . S
O307 C297 1.272 . S
O307 Co299 2.135 . S
Co308 O309 2.216 . S
Co308 O310 2.091 . S
Co308 O312 2.004 . S
Co308 O318 2.021 . S
Co308 O320 2.137 . S
Co308 O321 2.244 . S
O309 Co308 2.216 . S
O309 C316 1.247 . S
O310 Co308 2.091 . S
O310 C316 1.261 . S
C311 O320 1.247 . S
C311 O321 1.272 . S
O312 Co308 2.004 . S
O312 C317 1.259 . S
Co313 O314 2.061 . S
Co313 O319 2.052 . S
Co313 O321 2.135 . S
O314 Co313 2.061 . S
O314 C317 1.235 . S
C315 O318 1.238 . S
C315 O319 1.241 . S
C316 O309 1.247 . S
C316 O310 1.261 . S
C317 O312 1.259 . S
C317 O314 1.235 . S
O318 Co308 2.021 . S
O318 C315 1.238 . S
O319 Co313 2.052 . S
O319 C315 1.241 . S
O320 Co308 2.137 . S
O320 C311 1.247 . S
O321 Co308 2.244 . S
O321 C311 1.272 . S
O321 Co313 2.135 . S
Co322 O323 2.216 . S
Co322 O324 2.091 . S
Co322 O326 2.004 . S
Co322 O332 2.021 . S
Co322 O334 2.137 . S
Co322 O335 2.244 . S
O323 Co322 2.216 . S
O323 C330 1.247 . S
O324 Co322 2.091 . S
O324 C330 1.261 . S
C325 O334 1.247 . S
C325 O335 1.272 . S
O326 Co322 2.004 . S
O326 C331 1.259 . S
Co327 O328 2.061 . S
Co327 O333 2.052 . S
Co327 O335 2.135 . S
O328 Co327 2.061 . S
O328 C331 1.235 . S
C329 O332 1.238 . S
C329 O333 1.241 . S
C330 O323 1.247 . S
C330 O324 1.261 . S
C331 O326 1.259 . S
C331 O328 1.235 . S
O332 Co322 2.021 . S
O332 C329 1.238 . S
O333 Co327 2.052 . S
O333 C329 1.241 . S
O334 Co322 2.137 . S
O334 C325 1.247 . S
O335 Co322 2.244 . S
O335 C325 1.272 . S
O335 Co327 2.135 . S
Co336 O337 2.216 . S
Co336 O338 2.091 . S
Co336 O340 2.004 . S
Co336 O346 2.021 . S
Co336 O348 2.137 . S
Co336 O349 2.244 . S
O337 Co336 2.216 . S
O337 C344 1.247 . S
O338 Co336 2.091 . S
O338 C344 1.261 . S
C339 O348 1.247 . S
C339 O349 1.272 . S
O340 Co336 2.004 . S
O340 C345 1.259 . S
Co341 O342 2.061 . S
Co341 O347 2.052 . S
Co341 O349 2.135 . S
O342 Co341 2.061 . S
O342 C345 1.235 . S
C343 O346 1.238 . S
C343 O347 1.241 . S
C344 O337 1.247 . S
C344 O338 1.261 . S
C345 O340 1.259 . S
C345 O342 1.235 . S
O346 Co336 2.021 . S
O346 C343 1.238 . S
O347 Co341 2.052 . S
O347 C343 1.241 . S
O348 Co336 2.137 . S
O348 C339 1.247 . S
O349 Co336 2.244 . S
O349 C339 1.272 . S
O349 Co341 2.135 . S
Co350 O351 2.216 . S
Co350 O352 2.091 . S
Co350 O354 2.004 . S
Co350 O360 2.021 . S
Co350 O362 2.137 . S
Co350 O363 2.244 . S
O351 Co350 2.216 . S
O351 C358 1.247 . S
O352 Co350 2.091 . S
O352 C358 1.261 . S
C353 O362 1.247 . S
C353 O363 1.272 . S
O354 Co350 2.004 . S
O354 C359 1.259 . S
Co355 O356 2.061 . S
Co355 O361 2.052 . S
Co355 O363 2.135 . S
O356 Co355 2.061 . S
O356 C359 1.235 . S
C357 O360 1.238 . S
C357 O361 1.241 . S
C358 O351 1.247 . S
C358 O352 1.261 . S
C359 O354 1.259 . S
C359 O356 1.235 . S
O360 Co350 2.021 . S
O360 C357 1.238 . S
O361 Co355 2.052 . S
O361 C357 1.241 . S
O362 Co350 2.137 . S
O362 C353 1.247 . S
O363 Co350 2.244 . S
O363 C353 1.272 . S
O363 Co355 2.135 . S
Co364 O365 2.216 . S
Co364 O366 2.091 . S
Co364 O368 2.004 . S
Co364 O374 2.021 . S
Co364 O376 2.137 . S
Co364 O377 2.244 . S
O365 Co364 2.216 . S
O365 C372 1.247 . S
O366 Co364 2.091 . S
O366 C372 1.261 . S
C367 O376 1.247 . S
C367 O377 1.272 . S
O368 Co364 2.004 . S
O368 C373 1.259 . S
Co369 O370 2.061 . S
Co369 O375 2.052 . S
Co369 O377 2.135 . S
O370 Co369 2.061 . S
O370 C373 1.235 . S
C371 O374 1.238 . S
C371 O375 1.241 . S
C372 O365 1.247 . S
C372 O366 1.261 . S
C373 O368 1.259 . S
C373 O370 1.235 . S
O374 Co364 2.021 . S
O374 C371 1.238 . S
O375 Co369 2.052 . S
O375 C371 1.241 . S
O376 Co364 2.137 . S
O376 C367 1.247 . S
O377 Co364 2.244 . S
O377 C367 1.272 . S
O377 Co369 2.135 . S
Co378 O379 2.216 . S
Co378 O380 2.091 . S
Co378 O382 2.004 . S
Co378 O388 2.021 . S
Co378 O390 2.137 . S
Co378 O391 2.244 . S
O379 Co378 2.216 . S
O379 C386 1.247 . S
O380 Co378 2.091 . S
O380 C386 1.261 . S
C381 O390 1.247 . S
C381 O391 1.272 . S
O382 Co378 2.004 . S
O382 C387 1.259 . S
Co383 O384 2.061 . S
Co383 O389 2.052 . S
Co383 O391 2.135 . S
O384 Co383 2.061 . S
O384 C387 1.235 . S
C385 O388 1.238 . S
C385 O389 1.241 . S
C386 O379 1.247 . S
C386 O380 1.261 . S
C387 O382 1.259 . S
C387 O384 1.235 . S
O388 Co378 2.021 . S
O388 C385 1.238 . S
O389 Co383 2.052 . S
O389 C385 1.241 . S
O390 Co378 2.137 . S
O390 C381 1.247 . S
O391 Co378 2.244 . S
O391 C381 1.272 . S
O391 Co383 2.135 . S
Co392 O393 2.216 . S
Co392 O394 2.091 . S
Co392 O396 2.004 . S
Co392 O402 2.021 . S
Co392 O404 2.137 . S
Co392 O405 2.244 . S
O393 Co392 2.216 . S
O393 C400 1.247 . S
O394 Co392 2.091 . S
O394 C400 1.261 . S
C395 O404 1.247 . S
C395 O405 1.272 . S
O396 Co392 2.004 . S
O396 C401 1.259 . S
Co397 O398 2.061 . S
Co397 O403 2.052 . S
Co397 O405 2.135 . S
O398 Co397 2.061 . S
O398 C401 1.235 . S
C399 O402 1.238 . S
C399 O403 1.241 . S
C400 O393 1.247 . S
C400 O394 1.261 . S
C401 O396 1.259 . S
C401 O398 1.235 . S
O402 Co392 2.021 . S
O402 C399 1.238 . S
O403 Co397 2.052 . S
O403 C399 1.241 . S
O404 Co392 2.137 . S
O404 C395 1.247 . S
O405 Co392 2.244 . S
O405 C395 1.272 . S
O405 Co397 2.135 . S
Co406 O407 2.216 . S
Co406 O408 2.091 . S
Co406 O410 2.004 . S
Co406 O416 2.021 . S
Co406 O418 2.137 . S
Co406 O419 2.244 . S
O407 Co406 2.216 . S
O407 C414 1.247 . S
O408 Co406 2.091 . S
O408 C414 1.261 . S
C409 O418 1.247 . S
C409 O419 1.272 . S
O410 Co406 2.004 . S
O410 C415 1.259 . S
Co411 O412 2.061 . S
Co411 O417 2.052 . S
Co411 O419 2.135 . S
O412 Co411 2.061 . S
O412 C415 1.235 . S
C413 O416 1.238 . S
C413 O417 1.241 . S
C414 O407 1.247 . S
C414 O408 1.261 . S
C415 O410 1.259 . S
C415 O412 1.235 . S
O416 Co406 2.021 . S
O416 C413 1.238 . S
O417 Co411 2.052 . S
O417 C413 1.241 . S
O418 Co406 2.137 . S
O418 C409 1.247 . S
O419 Co406 2.244 . S
O419 C409 1.272 . S
O419 Co411 2.135 . S
Co420 O421 2.216 . S
Co420 O422 2.091 . S
Co420 O424 2.004 . S
Co420 O430 2.021 1_554 S
Co420 O432 2.137 . S
Co420 O433 2.244 . S
O421 Co420 2.216 . S
O421 C428 1.247 . S
O422 Co420 2.091 . S
O422 C428 1.261 . S
C423 O432 1.247 . S
C423 O433 1.272 . S
O424 Co420 2.004 . S
O424 C429 1.259 . S
Co425 O426 2.061 . S
Co425 O431 2.052 . S
Co425 O433 2.135 . S
O426 Co425 2.061 . S
O426 C429 1.235 . S
C427 O430 1.238 . S
C427 O431 1.241 1_556 S
C428 O421 1.247 . S
C428 O422 1.261 . S
C429 O424 1.259 . S
C429 O426 1.235 . S
O430 Co420 2.021 1_556 S
O430 C427 1.238 . S
O431 Co425 2.052 . S
O431 C427 1.241 1_554 S
O432 Co420 2.137 . S
O432 C423 1.247 . S
O433 Co420 2.244 . S
O433 C423 1.272 . S
O433 Co425 2.135 . S
Co434 O435 2.216 . S
Co434 O436 2.091 . S
Co434 O438 2.004 . S
Co434 O444 2.021 . S
Co434 O446 2.137 . S
Co434 O447 2.244 . S
O435 Co434 2.216 . S
O435 C442 1.247 . S
O436 Co434 2.091 . S
O436 C442 1.261 . S
C437 O446 1.247 . S
C437 O447 1.272 . S
O438 Co434 2.004 . S
O438 C443 1.259 . S
Co439 O440 2.061 . S
Co439 O445 2.052 . S
Co439 O447 2.135 . S
O440 Co439 2.061 . S
O440 C443 1.235 . S
C441 O444 1.238 . S
C441 O445 1.241 . S
C442 O435 1.247 . S
C442 O436 1.261 . S
C443 O438 1.259 . S
C443 O440 1.235 . S
O444 Co434 2.021 . S
O444 C441 1.238 . S
O445 Co439 2.052 . S
O445 C441 1.241 . S
O446 Co434 2.137 . S
O446 C437 1.247 . S
O447 Co434 2.244 . S
O447 C437 1.272 . S
O447 Co439 2.135 . S
H448 C460 0.930 . S
H449 C462 0.930 . S
H450 C463 0.930 . S
H451 C467 0.959 1_554 S
H452 C467 0.959 . S
H453 C467 0.961 . S
H454 C468 0.960 . S
H455 C468 0.961 . S
H456 C468 0.959 . S
H457 C471 0.929 . S
H458 C472 0.931 . S
H459 C474 0.930 . S
C460 H448 0.930 . S
C460 C461 1.399 . S
C460 C465 1.399 . S
C461 C460 1.399 . S
C461 C462 1.376 . S
C462 H449 0.930 . S
C462 C461 1.376 . S
C462 C463 1.388 . S
C463 H450 0.930 . S
C463 C462 1.388 . S
C463 C464 1.390 . S
C464 C463 1.390 . S
C464 C465 1.394 . S
C464 C470 1.465 . S
C465 C460 1.399 . S
C465 C464 1.394 . S
C465 C466 1.516 . S
C466 C465 1.516 . S
C466 C467 1.502 . S
C466 C468 1.561 . S
C466 C469 1.526 . S
C467 H451 0.959 1_556 S
C467 H452 0.959 . S
C467 H453 0.961 . S
C467 C466 1.502 . S
C468 H454 0.960 . S
C468 H455 0.961 . S
C468 H456 0.959 . S
C468 C466 1.561 . S
C469 C466 1.526 . S
C469 C470 1.396 . S
C469 C474 1.390 1_556 S
C470 C464 1.465 . S
C470 C469 1.396 . S
C470 C471 1.399 1_556 S
C471 H457 0.929 . S
C471 C470 1.399 1_554 S
C471 C472 1.385 . S
C472 H458 0.931 . S
C472 C471 1.385 . S
C472 C473 1.389 . S
C473 C472 1.389 . S
C473 C474 1.387 . S
C474 H459 0.930 . S
C474 C469 1.390 1_554 S
C474 C473 1.387 . S
H475 C487 0.930 . S
H476 C489 0.930 . S
H477 C490 0.930 . S
H478 C494 0.959 . S
H479 C494 0.959 . S
H480 C494 0.961 . S
H481 C495 0.960 . S
H482 C495 0.961 . S
H483 C495 0.959 . S
H484 C498 0.929 . S
H485 C499 0.931 . S
H486 C501 0.930 . S
C487 H475 0.930 . S
C487 C488 1.399 . S
C487 C492 1.399 . S
C488 C487 1.399 . S
C488 C489 1.376 . S
C489 H476 0.930 . S
C489 C488 1.376 . S
C489 C490 1.388 . S
C490 H477 0.930 . S
C490 C489 1.388 . S
C490 C491 1.390 . S
C491 C490 1.390 . S
C491 C492 1.394 . S
C491 C497 1.465 . S
C492 C487 1.399 . S
C492 C491 1.394 . S
C492 C493 1.516 . S
C493 C492 1.516 . S
C493 C494 1.502 . S
C493 C495 1.561 . S
C493 C496 1.526 . S
C494 H478 0.959 . S
C494 H479 0.959 . S
C494 H480 0.961 . S
C494 C493 1.502 . S
C495 H481 0.960 . S
C495 H482 0.961 . S
C495 H483 0.959 . S
C495 C493 1.561 . S
C496 C493 1.526 . S
C496 C497 1.396 . S
C496 C501 1.390 . S
C497 C491 1.465 . S
C497 C496 1.396 . S
C497 C498 1.399 . S
C498 H484 0.929 . S
C498 C497 1.399 . S
C498 C499 1.385 . S
C499 H485 0.931 . S
C499 C498 1.385 . S
C499 C500 1.389 . S
C500 C499 1.389 . S
C500 C501 1.387 . S
C501 H486 0.930 . S
C501 C496 1.390 . S
C501 C500 1.387 . S
H502 C514 0.930 . S
H503 C516 0.930 . S
H504 C517 0.930 . S
H505 C521 0.959 . S
H506 C521 0.959 . S
H507 C521 0.961 . S
H508 C522 0.960 . S
H509 C522 0.961 . S
H510 C522 0.959 . S
H511 C525 0.929 . S
H512 C526 0.931 . S
H513 C528 0.930 . S
C514 H502 0.930 . S
C514 C515 1.399 . S
C514 C519 1.399 . S
C515 C514 1.399 . S
C515 C516 1.376 . S
C516 H503 0.930 . S
C516 C515 1.376 . S
C516 C517 1.388 . S
C517 H504 0.930 . S
C517 C516 1.388 . S
C517 C518 1.390 . S
C518 C517 1.390 . S
C518 C519 1.394 . S
C518 C524 1.465 . S
C519 C514 1.399 . S
C519 C518 1.394 . S
C519 C520 1.516 . S
C520 C519 1.516 . S
C520 C521 1.502 . S
C520 C522 1.561 . S
C520 C523 1.526 . S
C521 H505 0.959 . S
C521 H506 0.959 . S
C521 H507 0.961 . S
C521 C520 1.502 . S
C522 H508 0.960 . S
C522 H509 0.961 . S
C522 H510 0.959 . S
C522 C520 1.561 . S
C523 C520 1.526 . S
C523 C524 1.396 . S
C523 C528 1.390 . S
C524 C518 1.465 . S
C524 C523 1.396 . S
C524 C525 1.399 . S
C525 H511 0.929 . S
C525 C524 1.399 . S
C525 C526 1.385 . S
C526 H512 0.931 . S
C526 C525 1.385 . S
C526 C527 1.389 . S
C527 C526 1.389 . S
C527 C528 1.387 . S
C528 H513 0.930 . S
C528 C523 1.390 . S
C528 C527 1.387 . S
H529 C541 0.930 . S
H530 C543 0.930 . S
H531 C544 0.930 . S
H532 C548 0.959 . S
H533 C548 0.959 . S
H534 C548 0.961 . S
H535 C549 0.960 . S
H536 C549 0.961 . S
H537 C549 0.959 . S
H538 C552 0.929 . S
H539 C553 0.931 . S
H540 C555 0.930 . S
C541 H529 0.930 . S
C541 C542 1.399 . S
C541 C546 1.399 . S
C542 C541 1.399 . S
C542 C543 1.376 . S
C543 H530 0.930 . S
C543 C542 1.376 . S
C543 C544 1.388 . S
C544 H531 0.930 . S
C544 C543 1.388 . S
C544 C545 1.390 . S
C545 C544 1.390 . S
C545 C546 1.394 . S
C545 C551 1.465 . S
C546 C541 1.399 . S
C546 C545 1.394 . S
C546 C547 1.516 . S
C547 C546 1.516 . S
C547 C548 1.502 . S
C547 C549 1.561 . S
C547 C550 1.526 . S
C548 H532 0.959 . S
C548 H533 0.959 . S
C548 H534 0.961 . S
C548 C547 1.502 . S
C549 H535 0.960 . S
C549 H536 0.961 . S
C549 H537 0.959 . S
C549 C547 1.561 . S
C550 C547 1.526 . S
C550 C551 1.396 . S
C550 C555 1.390 . S
C551 C545 1.465 . S
C551 C550 1.396 . S
C551 C552 1.399 . S
C552 H538 0.929 . S
C552 C551 1.399 . S
C552 C553 1.385 . S
C553 H539 0.931 . S
C553 C552 1.385 . S
C553 C554 1.389 . S
C554 C553 1.389 . S
C554 C555 1.387 . S
C555 H540 0.930 . S
C555 C550 1.390 . S
C555 C554 1.387 . S
H556 C568 0.930 . S
H557 C570 0.930 . S
H558 C571 0.930 . S
H559 C575 0.959 . S
H560 C575 0.959 . S
H561 C575 0.961 . S
H562 C576 0.960 . S
H563 C576 0.961 . S
H564 C576 0.959 . S
H565 C579 0.929 . S
H566 C580 0.931 . S
H567 C582 0.930 . S
C568 H556 0.930 . S
C568 C569 1.399 . S
C568 C573 1.399 . S
C569 C568 1.399 . S
C569 C570 1.376 . S
C570 H557 0.930 . S
C570 C569 1.376 . S
C570 C571 1.388 . S
C571 H558 0.930 . S
C571 C570 1.388 . S
C571 C572 1.390 . S
C572 C571 1.390 . S
C572 C573 1.394 . S
C572 C578 1.465 . S
C573 C568 1.399 . S
C573 C572 1.394 . S
C573 C574 1.516 . S
C574 C573 1.516 . S
C574 C575 1.502 . S
C574 C576 1.561 . S
C574 C577 1.526 . S
C575 H559 0.959 . S
C575 H560 0.959 . S
C575 H561 0.961 . S
C575 C574 1.502 . S
C576 H562 0.960 . S
C576 H563 0.961 . S
C576 H564 0.959 . S
C576 C574 1.561 . S
C577 C574 1.526 . S
C577 C578 1.396 . S
C577 C582 1.390 . S
C578 C572 1.465 . S
C578 C577 1.396 . S
C578 C579 1.399 . S
C579 H565 0.929 . S
C579 C578 1.399 . S
C579 C580 1.385 . S
C580 H566 0.931 . S
C580 C579 1.385 . S
C580 C581 1.389 . S
C581 C580 1.389 . S
C581 C582 1.387 . S
C582 H567 0.930 . S
C582 C577 1.390 . S
C582 C581 1.387 . S
H583 C595 0.930 . S
H584 C597 0.930 . S
H585 C598 0.930 . S
H586 C602 0.959 . S
H587 C602 0.959 . S
H588 C602 0.961 . S
H589 C603 0.960 . S
H590 C603 0.961 . S
H591 C603 0.959 . S
H592 C606 0.929 . S
H593 C607 0.931 . S
H594 C609 0.930 . S
C595 H583 0.930 . S
C595 C596 1.399 . S
C595 C600 1.399 . S
C596 C595 1.399 . S
C596 C597 1.376 . S
C597 H584 0.930 . S
C597 C596 1.376 . S
C597 C598 1.388 . S
C598 H585 0.930 . S
C598 C597 1.388 . S
C598 C599 1.390 . S
C599 C598 1.390 . S
C599 C600 1.394 . S
C599 C605 1.465 . S
C600 C595 1.399 . S
C600 C599 1.394 . S
C600 C601 1.516 1_556 S
C601 C600 1.516 1_554 S
C601 C602 1.502 . S
C601 C603 1.561 . S
C601 C604 1.526 . S
C602 H586 0.959 . S
C602 H587 0.959 . S
C602 H588 0.961 . S
C602 C601 1.502 . S
C603 H589 0.960 . S
C603 H590 0.961 . S
C603 H591 0.959 . S
C603 C601 1.561 . S
C604 C601 1.526 . S
C604 C605 1.396 1_554 S
C604 C609 1.390 . S
C605 C599 1.465 . S
C605 C604 1.396 1_556 S
C605 C606 1.399 . S
C606 H592 0.929 . S
C606 C605 1.399 . S
C606 C607 1.385 . S
C607 H593 0.931 . S
C607 C606 1.385 . S
C607 C608 1.389 1_556 S
C608 C607 1.389 1_554 S
C608 C609 1.387 . S
C609 H594 0.930 . S
C609 C604 1.390 . S
C609 C608 1.387 . S
H610 C622 0.930 . S
H611 C624 0.930 . S
H612 C625 0.930 . S
H613 C629 0.959 . S
H614 C629 0.959 . S
H615 C629 0.961 . S
H616 C630 0.960 . S
H617 C630 0.961 . S
H618 C630 0.959 . S
H619 C633 0.929 . S
H620 C634 0.931 . S
H621 C636 0.930 . S
C622 H610 0.930 . S
C622 C623 1.399 . S
C622 C627 1.399 . S
C623 C622 1.399 . S
C623 C624 1.376 . S
C624 H611 0.930 . S
C624 C623 1.376 . S
C624 C625 1.388 . S
C625 H612 0.930 . S
C625 C624 1.388 . S
C625 C626 1.390 . S
C626 C625 1.390 . S
C626 C627 1.394 . S
C626 C632 1.465 . S
C627 C622 1.399 . S
C627 C626 1.394 . S
C627 C628 1.516 . S
C628 C627 1.516 . S
C628 C629 1.502 . S
C628 C630 1.561 . S
C628 C631 1.526 . S
C629 H613 0.959 . S
C629 H614 0.959 . S
C629 H615 0.961 . S
C629 C628 1.502 . S
C630 H616 0.960 . S
C630 H617 0.961 . S
C630 H618 0.959 . S
C630 C628 1.561 . S
C631 C628 1.526 . S
C631 C632 1.396 . S
C631 C636 1.390 . S
C632 C626 1.465 . S
C632 C631 1.396 . S
C632 C633 1.399 . S
C633 H619 0.929 . S
C633 C632 1.399 . S
C633 C634 1.385 . S
C634 H620 0.931 . S
C634 C633 1.385 . S
C634 C635 1.389 . S
C635 C634 1.389 . S
C635 C636 1.387 . S
C636 H621 0.930 . S
C636 C631 1.390 . S
C636 C635 1.387 . S
H637 C649 0.930 . S
H638 C651 0.930 . S
H639 C652 0.930 . S
H640 C656 0.959 . S
H641 C656 0.959 . S
H642 C656 0.961 . S
H643 C657 0.960 . S
H644 C657 0.961 . S
H645 C657 0.959 . S
H646 C660 0.929 . S
H647 C661 0.931 . S
H648 C663 0.930 . S
C649 H637 0.930 . S
C649 C650 1.399 . S
C649 C654 1.399 . S
C650 C649 1.399 . S
C650 C651 1.376 . S
C651 H638 0.930 . S
C651 C650 1.376 . S
C651 C652 1.388 . S
C652 H639 0.930 . S
C652 C651 1.388 . S
C652 C653 1.390 . S
C653 C652 1.390 . S
C653 C654 1.394 . S
C653 C659 1.465 . S
C654 C649 1.399 . S
C654 C653 1.394 . S
C654 C655 1.516 . S
C655 C654 1.516 . S
C655 C656 1.502 . S
C655 C657 1.561 . S
C655 C658 1.526 . S
C656 H640 0.959 . S
C656 H641 0.959 . S
C656 H642 0.961 . S
C656 C655 1.502 . S
C657 H643 0.960 . S
C657 H644 0.961 . S
C657 H645 0.959 . S
C657 C655 1.561 . S
C658 C655 1.526 . S
C658 C659 1.396 . S
C658 C663 1.390 . S
C659 C653 1.465 . S
C659 C658 1.396 . S
C659 C660 1.399 . S
C660 H646 0.929 . S
C660 C659 1.399 . S
C660 C661 1.385 . S
C661 H647 0.931 . S
C661 C660 1.385 . S
C661 C662 1.389 . S
C662 C661 1.389 . S
C662 C663 1.387 . S
C663 H648 0.930 . S
C663 C658 1.390 . S
C663 C662 1.387 . S
H664 C676 0.930 . S
H665 C678 0.930 . S
H666 C679 0.930 . S
H667 C683 0.959 . S
H668 C683 0.959 . S
H669 C683 0.961 . S
H670 C684 0.960 . S
H671 C684 0.961 . S
H672 C684 0.959 . S
H673 C687 0.929 . S
H674 C688 0.931 . S
H675 C690 0.930 . S
C676 H664 0.930 . S
C676 C677 1.399 . S
C676 C681 1.399 . S
C677 C676 1.399 . S
C677 C678 1.376 . S
C678 H665 0.930 . S
C678 C677 1.376 . S
C678 C679 1.388 . S
C679 H666 0.930 . S
C679 C678 1.388 . S
C679 C680 1.390 . S
C680 C679 1.390 . S
C680 C681 1.394 . S
C680 C686 1.465 . S
C681 C676 1.399 . S
C681 C680 1.394 . S
C681 C682 1.516 . S
C682 C681 1.516 . S
C682 C683 1.502 . S
C682 C684 1.561 . S
C682 C685 1.526 . S
C683 H667 0.959 . S
C683 H668 0.959 . S
C683 H669 0.961 . S
C683 C682 1.502 . S
C684 H670 0.960 . S
C684 H671 0.961 . S
C684 H672 0.959 . S
C684 C682 1.561 . S
C685 C682 1.526 . S
C685 C686 1.396 . S
C685 C690 1.390 . S
C686 C680 1.465 . S
C686 C685 1.396 . S
C686 C687 1.399 . S
C687 H673 0.929 . S
C687 C686 1.399 . S
C687 C688 1.385 . S
C688 H674 0.931 . S
C688 C687 1.385 . S
C688 C689 1.389 . S
C689 C688 1.389 . S
C689 C690 1.387 . S
C690 H675 0.930 . S
C690 C685 1.390 . S
C690 C689 1.387 . S
H691 C703 0.930 . S
H692 C705 0.930 . S
H693 C706 0.930 . S
H694 C710 0.959 . S
H695 C710 0.959 . S
H696 C710 0.961 . S
H697 C711 0.960 . S
H698 C711 0.961 . S
H699 C711 0.959 . S
H700 C714 0.929 . S
H701 C715 0.931 . S
H702 C717 0.930 . S
C703 H691 0.930 . S
C703 C704 1.399 . S
C703 C708 1.399 . S
C704 C703 1.399 . S
C704 C705 1.376 . S
C705 H692 0.930 . S
C705 C704 1.376 . S
C705 C706 1.388 . S
C706 H693 0.930 . S
C706 C705 1.388 . S
C706 C707 1.390 . S
C707 C706 1.390 . S
C707 C708 1.394 . S
C707 C713 1.465 . S
C708 C703 1.399 . S
C708 C707 1.394 . S
C708 C709 1.516 . S
C709 C708 1.516 . S
C709 C710 1.502 . S
C709 C711 1.561 . S
C709 C712 1.526 . S
C710 H694 0.959 . S
C710 H695 0.959 . S
C710 H696 0.961 . S
C710 C709 1.502 . S
C711 H697 0.960 . S
C711 H698 0.961 . S
C711 H699 0.959 . S
C711 C709 1.561 . S
C712 C709 1.526 . S
C712 C713 1.396 . S
C712 C717 1.390 . S
C713 C707 1.465 . S
C713 C712 1.396 . S
C713 C714 1.399 . S
C714 H700 0.929 . S
C714 C713 1.399 . S
C714 C715 1.385 . S
C715 H701 0.931 . S
C715 C714 1.385 . S
C715 C716 1.389 . S
C716 C715 1.389 . S
C716 C717 1.387 . S
C717 H702 0.930 . S
C717 C712 1.390 . S
C717 C716 1.387 . S
H718 C730 0.930 . S
H719 C732 0.930 . S
H720 C733 0.930 1_554 S
H721 C737 0.959 . S
H722 C737 0.959 . S
H723 C737 0.961 . S
H724 C738 0.960 . S
H725 C738 0.961 . S
H726 C738 0.959 . S
H727 C741 0.929 . S
H728 C742 0.931 . S
H729 C744 0.930 . S
C730 H718 0.930 . S
C730 C731 1.399 . S
C730 C735 1.399 . S
C731 C730 1.399 . S
C731 C732 1.376 . S
C732 H719 0.930 . S
C732 C731 1.376 . S
C732 C733 1.388 . S
C733 H720 0.930 1_556 S
C733 C732 1.388 . S
C733 C734 1.390 . S
C734 C733 1.390 . S
C734 C735 1.394 . S
C734 C740 1.465 . S
C735 C730 1.399 . S
C735 C734 1.394 . S
C735 C736 1.516 . S
C736 C735 1.516 . S
C736 C737 1.502 . S
C736 C738 1.561 . S
C736 C739 1.526 . S
C737 H721 0.959 . S
C737 H722 0.959 . S
C737 H723 0.961 . S
C737 C736 1.502 . S
C738 H724 0.960 . S
C738 H725 0.961 . S
C738 H726 0.959 . S
C738 C736 1.561 . S
C739 C736 1.526 . S
C739 C740 1.396 . S
C739 C744 1.390 . S
C740 C734 1.465 . S
C740 C739 1.396 . S
C740 C741 1.398 1_556 S
C741 H727 0.929 . S
C741 C740 1.398 1_554 S
C741 C742 1.385 . S
C742 H728 0.931 . S
C742 C741 1.385 . S
C742 C743 1.389 . S
C743 C742 1.389 . S
C743 C744 1.387 1_554 S
C744 H729 0.930 . S
C744 C739 1.390 . S
C744 C743 1.387 1_556 S
H745 C757 0.930 . S
H746 C759 0.930 . S
H747 C760 0.930 . S
H748 C764 0.959 . S
H749 C764 0.959 . S
H750 C764 0.961 . S
H751 C765 0.960 . S
H752 C765 0.961 . S
H753 C765 0.959 . S
H754 C768 0.929 . S
H755 C769 0.931 . S
H756 C771 0.930 . S
C757 H745 0.930 . S
C757 C758 1.399 . S
C757 C762 1.399 . S
C758 C757 1.399 . S
C758 C759 1.376 . S
C759 H746 0.930 . S
C759 C758 1.376 . S
C759 C760 1.388 . S
C760 H747 0.930 . S
C760 C759 1.388 . S
C760 C761 1.390 . S
C761 C760 1.390 . S
C761 C762 1.394 . S
C761 C767 1.465 . S
C762 C757 1.399 . S
C762 C761 1.394 . S
C762 C763 1.516 . S
C763 C762 1.516 . S
C763 C764 1.502 . S
C763 C765 1.561 . S
C763 C766 1.526 . S
C764 H748 0.959 . S
C764 H749 0.959 . S
C764 H750 0.961 . S
C764 C763 1.502 . S
C765 H751 0.960 . S
C765 H752 0.961 . S
C765 H753 0.959 . S
C765 C763 1.561 . S
C766 C763 1.526 . S
C766 C767 1.396 . S
C766 C771 1.390 . S
C767 C761 1.465 . S
C767 C766 1.396 . S
C767 C768 1.399 . S
C768 H754 0.929 . S
C768 C767 1.399 . S
C768 C769 1.385 . S
C769 H755 0.931 . S
C769 C768 1.385 . S
C769 C770 1.389 . S
C770 C769 1.389 . S
C770 C771 1.387 . S
C771 H756 0.930 . S
C771 C766 1.390 . S
C771 C770 1.387 . S
H772 C784 0.930 . S
H773 C786 0.930 . S
H774 C787 0.930 . S
H775 C791 0.959 . S
H776 C791 0.959 . S
H777 C791 0.961 . S
H778 C792 0.960 . S
H779 C792 0.961 . S
H780 C792 0.959 . S
H781 C795 0.929 . S
H782 C796 0.931 . S
H783 C798 0.930 . S
C784 H772 0.930 . S
C784 C785 1.399 . S
C784 C789 1.399 . S
C785 C784 1.399 . S
C785 C786 1.376 . S
C786 H773 0.930 . S
C786 C785 1.376 . S
C786 C787 1.388 . S
C787 H774 0.930 . S
C787 C786 1.388 . S
C787 C788 1.390 . S
C788 C787 1.390 . S
C788 C789 1.394 . S
C788 C794 1.465 . S
C789 C784 1.399 . S
C789 C788 1.394 . S
C789 C790 1.516 . S
C790 C789 1.516 . S
C790 C791 1.502 . S
C790 C792 1.561 . S
C790 C793 1.526 . S
C791 H775 0.959 . S
C791 H776 0.959 . S
C791 H777 0.961 . S
C791 C790 1.502 . S
C792 H778 0.960 . S
C792 H779 0.961 . S
C792 H780 0.959 . S
C792 C790 1.561 . S
C793 C790 1.526 . S
C793 C794 1.396 . S
C793 C798 1.390 . S
C794 C788 1.465 . S
C794 C793 1.396 . S
C794 C795 1.399 . S
C795 H781 0.929 . S
C795 C794 1.399 . S
C795 C796 1.385 . S
C796 H782 0.931 . S
C796 C795 1.385 . S
C796 C797 1.389 . S
C797 C796 1.389 . S
C797 C798 1.387 . S
C798 H783 0.930 . S
C798 C793 1.390 . S
C798 C797 1.387 . S
H799 C811 0.930 . S
H800 C813 0.930 . S
H801 C814 0.930 . S
H802 C818 0.959 . S
H803 C818 0.959 . S
H804 C818 0.961 . S
H805 C819 0.960 . S
H806 C819 0.961 . S
H807 C819 0.959 . S
H808 C822 0.929 . S
H809 C823 0.931 . S
H810 C825 0.930 . S
C811 H799 0.930 . S
C811 C812 1.399 . S
C811 C816 1.399 . S
C812 C811 1.399 . S
C812 C813 1.376 . S
C813 H800 0.930 . S
C813 C812 1.376 . S
C813 C814 1.388 . S
C814 H801 0.930 . S
C814 C813 1.388 . S
C814 C815 1.390 . S
C815 C814 1.390 . S
C815 C816 1.394 . S
C815 C821 1.465 . S
C816 C811 1.399 . S
C816 C815 1.394 . S
C816 C817 1.516 . S
C817 C816 1.516 . S
C817 C818 1.502 . S
C817 C819 1.561 . S
C817 C820 1.526 . S
C818 H802 0.959 . S
C818 H803 0.959 . S
C818 H804 0.961 . S
C818 C817 1.502 . S
C819 H805 0.960 . S
C819 H806 0.961 . S
C819 H807 0.959 . S
C819 C817 1.561 . S
C820 C817 1.526 . S
C820 C821 1.396 . S
C820 C825 1.390 . S
C821 C815 1.465 . S
C821 C820 1.396 . S
C821 C822 1.399 . S
C822 H808 0.929 . S
C822 C821 1.399 . S
C822 C823 1.385 . S
C823 H809 0.931 . S
C823 C822 1.385 . S
C823 C824 1.389 . S
C824 C823 1.389 . S
C824 C825 1.387 . S
C825 H810 0.930 . S
C825 C820 1.390 . S
C825 C824 1.387 . S
H826 C838 0.930 . S
H827 C840 0.930 . S
H828 C841 0.930 . S
H829 C845 0.959 . S
H830 C845 0.959 . S
H831 C845 0.961 . S
H832 C846 0.960 . S
H833 C846 0.961 . S
H834 C846 0.959 . S
H835 C849 0.929 . S
H836 C850 0.931 . S
H837 C852 0.930 . S
C838 H826 0.930 . S
C838 C839 1.399 . S
C838 C843 1.399 . S
C839 C838 1.399 . S
C839 C840 1.376 . S
C840 H827 0.930 . S
C840 C839 1.376 . S
C840 C841 1.388 . S
C841 H828 0.930 . S
C841 C840 1.388 . S
C841 C842 1.390 . S
C842 C841 1.390 . S
C842 C843 1.394 . S
C842 C848 1.465 . S
C843 C838 1.399 . S
C843 C842 1.394 . S
C843 C844 1.516 . S
C844 C843 1.516 . S
C844 C845 1.502 . S
C844 C846 1.561 . S
C844 C847 1.526 . S
C845 H829 0.959 . S
C845 H830 0.959 . S
C845 H831 0.961 . S
C845 C844 1.502 . S
C846 H832 0.960 . S
C846 H833 0.961 . S
C846 H834 0.959 . S
C846 C844 1.561 . S
C847 C844 1.526 . S
C847 C848 1.396 . S
C847 C852 1.390 . S
C848 C842 1.465 . S
C848 C847 1.396 . S
C848 C849 1.399 . S
C849 H835 0.929 . S
C849 C848 1.399 . S
C849 C850 1.385 . S
C850 H836 0.931 . S
C850 C849 1.385 . S
C850 C851 1.389 . S
C851 C850 1.389 . S
C851 C852 1.387 . S
C852 H837 0.930 . S
C852 C847 1.390 . S
C852 C851 1.387 . S
H853 C865 0.930 . S
H854 C867 0.930 . S
H855 C868 0.930 . S
H856 C872 0.959 . S
H857 C872 0.959 . S
H858 C872 0.961 . S
H859 C873 0.960 . S
H860 C873 0.961 . S
H861 C873 0.959 . S
H862 C876 0.929 . S
H863 C877 0.931 . S
H864 C879 0.930 . S
C865 H853 0.930 . S
C865 C866 1.399 . S
C865 C870 1.399 . S
C866 C865 1.399 . S
C866 C867 1.376 . S
C867 H854 0.930 . S
C867 C866 1.376 . S
C867 C868 1.388 . S
C868 H855 0.930 . S
C868 C867 1.388 . S
C868 C869 1.390 . S
C869 C868 1.390 . S
C869 C870 1.394 . S
C869 C875 1.465 . S
C870 C865 1.399 . S
C870 C869 1.394 . S
C870 C871 1.516 1_556 S
C871 C870 1.516 1_554 S
C871 C872 1.502 . S
C871 C873 1.561 . S
C871 C874 1.526 . S
C872 H856 0.959 . S
C872 H857 0.959 . S
C872 H858 0.961 . S
C872 C871 1.502 . S
C873 H859 0.960 . S
C873 H860 0.961 . S
C873 H861 0.959 . S
C873 C871 1.561 . S
C874 C871 1.526 . S
C874 C875 1.396 1_554 S
C874 C879 1.390 . S
C875 C869 1.465 . S
C875 C874 1.396 1_556 S
C875 C876 1.399 . S
C876 H862 0.929 . S
C876 C875 1.399 . S
C876 C877 1.385 . S
C877 H863 0.931 . S
C877 C876 1.385 . S
C877 C878 1.389 1_556 S
C878 C877 1.389 1_554 S
C878 C879 1.387 . S
C879 H864 0.930 . S
C879 C874 1.390 . S
C879 C878 1.387 . S
H880 C892 0.930 . S
H881 C894 0.930 . S
H882 C895 0.930 . S
H883 C899 0.959 . S
H884 C899 0.959 . S
H885 C899 0.961 . S
H886 C900 0.960 . S
H887 C900 0.961 . S
H888 C900 0.959 . S
H889 C903 0.929 . S
H890 C904 0.931 . S
H891 C906 0.930 . S
C892 H880 0.930 . S
C892 C893 1.399 . S
C892 C897 1.399 . S
C893 C892 1.399 . S
C893 C894 1.376 . S
C894 H881 0.930 . S
C894 C893 1.376 . S
C894 C895 1.388 . S
C895 H882 0.930 . S
C895 C894 1.388 . S
C895 C896 1.390 . S
C896 C895 1.390 . S
C896 C897 1.394 . S
C896 C902 1.465 . S
C897 C892 1.399 . S
C897 C896 1.394 . S
C897 C898 1.516 . S
C898 C897 1.516 . S
C898 C899 1.502 . S
C898 C900 1.561 . S
C898 C901 1.526 . S
C899 H883 0.959 . S
C899 H884 0.959 . S
C899 H885 0.961 . S
C899 C898 1.502 . S
C900 H886 0.960 . S
C900 H887 0.961 . S
C900 H888 0.959 . S
C900 C898 1.561 . S
C901 C898 1.526 . S
C901 C902 1.396 . S
C901 C906 1.390 . S
C902 C896 1.465 . S
C902 C901 1.396 . S
C902 C903 1.399 . S
C903 H889 0.929 . S
C903 C902 1.399 . S
C903 C904 1.385 . S
C904 H890 0.931 . S
C904 C903 1.385 . S
C904 C905 1.389 . S
C905 C904 1.389 . S
C905 C906 1.387 . S
C906 H891 0.930 . S
C906 C901 1.390 . S
C906 C905 1.387 . S
H907 C919 0.930 1_545 S
H908 C921 0.930 . S
H909 C922 0.930 . S
H910 C926 0.959 . S
H911 C926 0.959 . S
H912 C926 0.961 . S
H913 C927 0.960 . S
H914 C927 0.961 . S
H915 C927 0.959 . S
H916 C930 0.929 . S
H917 C931 0.929 1_565 S
H918 C933 0.930 . S
C919 H907 0.930 1_565 S
C919 C920 1.399 . S
C919 C924 1.390 1_565 S
C920 C919 1.399 . S
C920 C921 1.376 . S
C921 H908 0.930 . S
C921 C920 1.376 . S
C921 C922 1.388 . S
C922 H909 0.930 . S
C922 C921 1.388 . S
C922 C923 1.390 . S
C923 C922 1.390 . S
C923 C924 1.376 1_565 S
C923 C929 1.465 . S
C924 C919 1.390 1_545 S
C924 C923 1.376 1_545 S
C924 C925 1.543 . S
C925 C924 1.543 . S
C925 C926 1.502 . S
C925 C927 1.561 . S
C925 C928 1.526 . S
C926 H910 0.959 . S
C926 H911 0.959 . S
C926 H912 0.961 . S
C926 C925 1.502 . S
C927 H913 0.960 . S
C927 H914 0.961 . S
C927 H915 0.959 . S
C927 C925 1.561 . S
C928 C925 1.526 . S
C928 C929 1.396 1_545 S
C928 C933 1.390 . S
C929 C923 1.465 . S
C929 C928 1.396 1_565 S
C929 C930 1.399 . S
C930 H916 0.929 . S
C930 C929 1.399 . S
C930 C931 1.385 1_564 S
C931 H917 0.929 1_545 S
C931 C930 1.385 1_546 S
C931 C932 1.389 . S
C932 C931 1.389 . S
C932 C933 1.387 1_556 S
C933 H918 0.930 . S
C933 C928 1.390 . S
C933 C932 1.387 1_554 S
H934 C946 0.930 . S
H935 C948 0.930 . S
H936 C949 0.930 . S
H937 C953 0.959 . S
H938 C953 0.959 . S
H939 C953 0.961 . S
H940 C954 0.960 . S
H941 C954 0.961 . S
H942 C954 0.959 . S
H943 C957 0.929 . S
H944 C958 0.931 . S
H945 C960 0.930 . S
C946 H934 0.930 . S
C946 C947 1.399 . S
C946 C951 1.399 . S
C947 C946 1.399 . S
C947 C948 1.376 . S
C948 H935 0.930 . S
C948 C947 1.376 . S
C948 C949 1.388 . S
C949 H936 0.930 . S
C949 C948 1.388 . S
C949 C950 1.390 . S
C950 C949 1.390 . S
C950 C951 1.394 . S
C950 C956 1.465 . S
C951 C946 1.399 . S
C951 C950 1.394 . S
C951 C952 1.516 . S
C952 C951 1.516 . S
C952 C953 1.502 . S
C952 C954 1.561 . S
C952 C955 1.526 . S
C953 H937 0.959 . S
C953 H938 0.959 . S
C953 H939 0.961 . S
C953 C952 1.502 . S
C954 H940 0.960 . S
C954 H941 0.961 . S
C954 H942 0.959 . S
C954 C952 1.561 . S
C955 C952 1.526 . S
C955 C956 1.396 . S
C955 C960 1.390 . S
C956 C950 1.465 . S
C956 C955 1.396 . S
C956 C957 1.399 . S
C957 H943 0.929 . S
C957 C956 1.399 . S
C957 C958 1.385 . S
C958 H944 0.931 . S
C958 C957 1.385 . S
C958 C959 1.389 . S
C959 C958 1.389 . S
C959 C960 1.387 . S
C960 H945 0.930 . S
C960 C955 1.390 . S
C960 C959 1.387 . S
H961 C973 0.930 . S
H962 C975 0.930 . S
H963 C976 0.930 . S
H964 C980 0.959 . S
H965 C980 0.959 . S
H966 C980 0.961 . S
H967 C981 0.960 1_545 S
H968 C981 0.961 . S
H969 C981 0.959 . S
H970 C984 0.929 . S
H971 C985 0.931 . S
H972 C987 0.930 . S
C973 H961 0.930 . S
C973 C974 1.399 . S
C973 C978 1.399 . S
C974 C973 1.399 . S
C974 C975 1.376 . S
C975 H962 0.930 . S
C975 C974 1.376 . S
C975 C976 1.388 1_545 S
C976 H963 0.930 . S
C976 C975 1.388 1_565 S
C976 C977 1.390 . S
C977 C976 1.390 . S
C977 C978 1.394 1_565 S
C977 C983 1.465 . S
C978 C973 1.399 . S
C978 C977 1.394 1_545 S
C978 C979 1.516 . S
C979 C978 1.516 . S
C979 C980 1.502 . S
C979 C981 1.561 1_545 S
C979 C982 1.526 1_545 S
C980 H964 0.959 . S
C980 H965 0.959 . S
C980 H966 0.961 . S
C980 C979 1.502 . S
C981 H967 0.960 1_565 S
C981 H968 0.961 . S
C981 H969 0.959 . S
C981 C979 1.561 1_565 S
C982 C979 1.526 1_565 S
C982 C983 1.396 . S
C982 C987 1.390 . S
C983 C977 1.465 . S
C983 C982 1.396 . S
C983 C984 1.399 . S
C984 H970 0.929 . S
C984 C983 1.399 . S
C984 C985 1.385 . S
C985 H971 0.931 . S
C985 C984 1.385 . S
C985 C986 1.389 . S
C986 C985 1.389 . S
C986 C987 1.387 . S
C987 H972 0.930 . S
C987 C982 1.390 . S
C987 C986 1.387 . S
H988 C1000 0.930 . S
H989 C1002 0.930 . S
H990 C1003 0.930 . S
H991 C1007 0.959 . S
H992 C1007 0.959 . S
H993 C1007 0.961 . S
H994 C1008 0.960 . S
H995 C1008 0.961 . S
H996 C1008 0.959 . S
H997 C1011 0.929 . S
H998 C1012 0.931 . S
H999 C1014 0.930 . S
C1000 H988 0.930 . S
C1000 C1001 1.399 . S
C1000 C1005 1.399 . S
C1001 C1000 1.399 . S
C1001 C1002 1.376 . S
C1002 H989 0.930 . S
C1002 C1001 1.376 . S
C1002 C1003 1.388 . S
C1003 H990 0.930 . S
C1003 C1002 1.388 . S
C1003 C1004 1.390 . S
C1004 C1003 1.390 . S
C1004 C1005 1.394 . S
C1004 C1010 1.465 . S
C1005 C1000 1.399 . S
C1005 C1004 1.394 . S
C1005 C1006 1.516 . S
C1006 C1005 1.516 . S
C1006 C1007 1.502 . S
C1006 C1008 1.561 . S
C1006 C1009 1.526 . S
C1007 H991 0.959 . S
C1007 H992 0.959 . S
C1007 H993 0.961 . S
C1007 C1006 1.502 . S
C1008 H994 0.960 . S
C1008 H995 0.961 . S
C1008 H996 0.959 . S
C1008 C1006 1.561 . S
C1009 C1006 1.526 . S
C1009 C1010 1.396 . S
C1009 C1014 1.390 . S
C1010 C1004 1.465 . S
C1010 C1009 1.396 . S
C1010 C1011 1.399 . S
C1011 H997 0.929 . S
C1011 C1010 1.399 . S
C1011 C1012 1.385 . S
C1012 H998 0.931 . S
C1012 C1011 1.385 . S
C1012 C1013 1.389 . S
C1013 C1012 1.389 . S
C1013 C1014 1.387 . S
C1014 H999 0.930 . S
C1014 C1009 1.390 . S
C1014 C1013 1.387 . S
H1015 C1027 0.930 . S
H1016 C1029 0.930 . S
H1017 C1030 0.930 . S
H1018 C1034 0.959 . S
H1019 C1034 0.959 . S
H1020 C1034 0.961 . S
H1021 C1035 0.960 . S
H1022 C1035 0.961 . S
H1023 C1035 0.959 . S
H1024 C1038 0.929 . S
H1025 C1039 0.931 . S
H1026 C1041 0.930 1_545 S
C1027 H1015 0.930 . S
C1027 C1028 1.399 1_554 S
C1027 C1032 1.399 . S
C1028 C1027 1.399 1_556 S
C1028 C1029 1.376 1_545 S
C1029 H1016 0.930 . S
C1029 C1028 1.376 1_565 S
C1029 C1030 1.388 1_556 S
C1030 H1017 0.930 . S
C1030 C1029 1.388 1_554 S
C1030 C1031 1.390 . S
C1031 C1030 1.390 . S
C1031 C1032 1.394 1_565 S
C1031 C1037 1.465 . S
C1032 C1027 1.399 . S
C1032 C1031 1.394 1_545 S
C1032 C1033 1.516 . S
C1033 C1032 1.516 . S
C1033 C1034 1.502 . S
C1033 C1035 1.561 . S
C1033 C1036 1.526 . S
C1034 H1018 0.959 . S
C1034 H1019 0.959 . S
C1034 H1020 0.961 . S
C1034 C1033 1.502 . S
C1035 H1021 0.960 . S
C1035 H1022 0.961 . S
C1035 H1023 0.959 . S
C1035 C1033 1.561 . S
C1036 C1033 1.526 . S
C1036 C1037 1.396 1_545 S
C1036 C1041 1.390 1_545 S
C1037 C1031 1.465 . S
C1037 C1036 1.396 1_565 S
C1037 C1038 1.399 . S
C1038 H1024 0.929 . S
C1038 C1037 1.399 . S
C1038 C1039 1.385 . S
C1039 H1025 0.931 . S
C1039 C1038 1.385 . S
C1039 C1040 1.389 . S
C1040 C1039 1.389 . S
C1040 C1041 1.387 . S
C1041 H1026 0.930 1_565 S
C1041 C1036 1.390 1_565 S
C1041 C1040 1.387 . S
H1042 C1054 0.930 . S
H1043 C1056 0.930 . S
H1044 C1057 0.930 . S
H1045 C1061 0.959 . S
H1046 C1061 0.959 . S
H1047 C1061 0.961 . S
H1048 C1062 0.960 . S
H1049 C1062 0.961 . S
H1050 C1062 0.959 . S
H1051 C1065 0.929 . S
H1052 C1066 0.931 . S
H1053 C1068 0.930 . S
C1054 H1042 0.930 . S
C1054 C1055 1.399 . S
C1054 C1059 1.399 . S
C1055 C1054 1.399 . S
C1055 C1056 1.376 . S
C1056 H1043 0.930 . S
C1056 C1055 1.376 . S
C1056 C1057 1.388 . S
C1057 H1044 0.930 . S
C1057 C1056 1.388 . S
C1057 C1058 1.390 . S
C1058 C1057 1.390 . S
C1058 C1059 1.394 . S
C1058 C1064 1.465 . S
C1059 C1054 1.399 . S
C1059 C1058 1.394 . S
C1059 C1060 1.516 . S
C1060 C1059 1.516 . S
C1060 C1061 1.502 . S
C1060 C1062 1.561 . S
C1060 C1063 1.526 . S
C1061 H1045 0.959 . S
C1061 H1046 0.959 . S
C1061 H1047 0.961 . S
C1061 C1060 1.502 . S
C1062 H1048 0.960 . S
C1062 H1049 0.961 . S
C1062 H1050 0.959 . S
C1062 C1060 1.561 . S
C1063 C1060 1.526 . S
C1063 C1064 1.396 . S
C1063 C1068 1.390 . S
C1064 C1058 1.465 . S
C1064 C1063 1.396 . S
C1064 C1065 1.399 . S
C1065 H1051 0.929 . S
C1065 C1064 1.399 . S
C1065 C1066 1.385 . S
C1066 H1052 0.931 . S
C1066 C1065 1.385 . S
C1066 C1067 1.389 . S
C1067 C1066 1.389 . S
C1067 C1068 1.387 . S
C1068 H1053 0.930 . S
C1068 C1063 1.390 . S
C1068 C1067 1.387 . S
H1069 C1081 0.930 . S
H1070 C1083 0.930 . S
H1071 C1084 0.930 . S
H1072 C1088 0.959 . S
H1073 C1088 0.959 . S
H1074 C1088 0.961 . S
H1075 C1089 0.960 . S
H1076 C1089 0.961 . S
H1077 C1089 0.959 . S
H1078 C1092 0.929 . S
H1079 C1093 0.931 . S
H1080 C1095 0.930 1_545 S
C1081 H1069 0.930 . S
C1081 C1082 1.399 . S
C1081 C1086 1.399 . S
C1082 C1081 1.399 . S
C1082 C1083 1.376 1_545 S
C1083 H1070 0.930 . S
C1083 C1082 1.376 1_565 S
C1083 C1084 1.388 . S
C1084 H1071 0.930 . S
C1084 C1083 1.388 . S
C1084 C1085 1.390 . S
C1085 C1084 1.390 . S
C1085 C1086 1.394 1_565 S
C1085 C1091 1.465 . S
C1086 C1081 1.399 . S
C1086 C1085 1.394 1_545 S
C1086 C1087 1.516 . S
C1087 C1086 1.516 . S
C1087 C1088 1.502 . S
C1087 C1089 1.561 . S
C1087 C1090 1.526 . S
C1088 H1072 0.959 . S
C1088 H1073 0.959 . S
C1088 H1074 0.961 . S
C1088 C1087 1.502 . S
C1089 H1075 0.960 . S
C1089 H1076 0.961 . S
C1089 H1077 0.959 . S
C1089 C1087 1.561 . S
C1090 C1087 1.526 . S
C1090 C1091 1.396 1_545 S
C1090 C1095 1.390 1_545 S
C1091 C1085 1.465 . S
C1091 C1090 1.396 1_565 S
C1091 C1092 1.399 . S
C1092 H1078 0.929 . S
C1092 C1091 1.399 . S
C1092 C1093 1.385 . S
C1093 H1079 0.931 . S
C1093 C1092 1.385 . S
C1093 C1094 1.389 . S
C1094 C1093 1.389 . S
C1094 C1095 1.387 . S
C1095 H1080 0.930 1_565 S
C1095 C1090 1.390 1_565 S
C1095 C1094 1.387 . S
H1096 C1108 0.930 . S
H1097 C1110 0.930 . S
H1098 C1111 0.930 . S
H1099 C1115 0.959 . S
H1100 C1115 0.959 . S
H1101 C1115 0.961 . S
H1102 C1116 0.960 . S
H1103 C1116 0.961 . S
H1104 C1116 0.959 . S
H1105 C1119 0.929 . S
H1106 C1120 0.931 . S
H1107 C1122 0.930 . S
C1108 H1096 0.930 . S
C1108 C1109 1.399 . S
C1108 C1113 1.399 . S
C1109 C1108 1.399 . S
C1109 C1110 1.376 . S
C1110 H1097 0.930 . S
C1110 C1109 1.376 . S
C1110 C1111 1.388 . S
C1111 H1098 0.930 . S
C1111 C1110 1.388 . S
C1111 C1112 1.390 . S
C1112 C1111 1.390 . S
C1112 C1113 1.394 . S
C1112 C1118 1.465 . S
C1113 C1108 1.399 . S
C1113 C1112 1.394 . S
C1113 C1114 1.516 . S
C1114 C1113 1.516 . S
C1114 C1115 1.502 . S
C1114 C1116 1.561 . S
C1114 C1117 1.526 . S
C1115 H1099 0.959 . S
C1115 H1100 0.959 . S
C1115 H1101 0.961 . S
C1115 C1114 1.502 . S
C1116 H1102 0.960 . S
C1116 H1103 0.961 . S
C1116 H1104 0.959 . S
C1116 C1114 1.561 . S
C1117 C1114 1.526 . S
C1117 C1118 1.396 . S
C1117 C1122 1.390 . S
C1118 C1112 1.465 . S
C1118 C1117 1.396 . S
C1118 C1119 1.399 . S
C1119 H1105 0.929 . S
C1119 C1118 1.399 . S
C1119 C1120 1.385 . S
C1120 H1106 0.931 . S
C1120 C1119 1.385 . S
C1120 C1121 1.389 . S
C1121 C1120 1.389 . S
C1121 C1122 1.387 . S
C1122 H1107 0.930 . S
C1122 C1117 1.390 . S
C1122 C1121 1.387 . S
H1123 C1135 0.930 . S
H1124 C1137 0.930 . S
H1125 C1138 0.930 . S
H1126 C1142 0.959 . S
H1127 C1142 0.959 . S
H1128 C1142 0.961 . S
H1129 C1143 0.960 . S
H1130 C1143 0.961 . S
H1131 C1143 0.959 . S
H1132 C1146 0.929 . S
H1133 C1147 0.931 . S
H1134 C1149 0.930 . S
C1135 H1123 0.930 . S
C1135 C1136 1.399 . S
C1135 C1140 1.399 . S
C1136 C1135 1.399 . S
C1136 C1137 1.376 . S
C1137 H1124 0.930 . S
C1137 C1136 1.376 . S
C1137 C1138 1.388 . S
C1138 H1125 0.930 . S
C1138 C1137 1.388 . S
C1138 C1139 1.390 . S
C1139 C1138 1.390 . S
C1139 C1140 1.394 . S
C1139 C1145 1.465 . S
C1140 C1135 1.399 . S
C1140 C1139 1.394 . S
C1140 C1141 1.516 . S
C1141 C1140 1.516 . S
C1141 C1142 1.502 . S
C1141 C1143 1.561 . S
C1141 C1144 1.526 . S
C1142 H1126 0.959 . S
C1142 H1127 0.959 . S
C1142 H1128 0.961 . S
C1142 C1141 1.502 . S
C1143 H1129 0.960 . S
C1143 H1130 0.961 . S
C1143 H1131 0.959 . S
C1143 C1141 1.561 . S
C1144 C1141 1.526 . S
C1144 C1145 1.396 . S
C1144 C1149 1.390 . S
C1145 C1139 1.465 . S
C1145 C1144 1.396 . S
C1145 C1146 1.399 . S
C1146 H1132 0.929 . S
C1146 C1145 1.399 . S
C1146 C1147 1.385 . S
C1147 H1133 0.931 . S
C1147 C1146 1.385 . S
C1147 C1148 1.389 . S
C1148 C1147 1.389 . S
C1148 C1149 1.387 . S
C1149 H1134 0.930 . S
C1149 C1144 1.390 . S
C1149 C1148 1.387 . S
H1150 C1162 0.930 . S
H1151 C1164 0.930 . S
H1152 C1165 0.930 . S
H1153 C1169 0.959 . S
H1154 C1169 0.959 . S
H1155 C1169 0.961 . S
H1156 C1170 0.960 . S
H1157 C1170 0.961 . S
H1158 C1170 0.959 . S
H1159 C1173 0.929 . S
H1160 C1174 0.931 . S
H1161 C1176 0.930 . S
C1162 H1150 0.930 . S
C1162 C1163 1.399 . S
C1162 C1167 1.399 . S
C1163 C1162 1.399 . S
C1163 C1164 1.376 . S
C1164 H1151 0.930 . S
C1164 C1163 1.376 . S
C1164 C1165 1.388 . S
C1165 H1152 0.930 . S
C1165 C1164 1.388 . S
C1165 C1166 1.390 . S
C1166 C1165 1.390 . S
C1166 C1167 1.394 . S
C1166 C1172 1.465 . S
C1167 C1162 1.399 . S
C1167 C1166 1.394 . S
C1167 C1168 1.516 . S
C1168 C1167 1.516 . S
C1168 C1169 1.502 . S
C1168 C1170 1.561 . S
C1168 C1171 1.526 . S
C1169 H1153 0.959 . S
C1169 H1154 0.959 . S
C1169 H1155 0.961 . S
C1169 C1168 1.502 . S
C1170 H1156 0.960 . S
C1170 H1157 0.961 . S
C1170 H1158 0.959 . S
C1170 C1168 1.561 . S
C1171 C1168 1.526 . S
C1171 C1172 1.396 . S
C1171 C1176 1.390 . S
C1172 C1166 1.465 . S
C1172 C1171 1.396 . S
C1172 C1173 1.399 . S
C1173 H1159 0.929 . S
C1173 C1172 1.399 . S
C1173 C1174 1.385 . S
C1174 H1160 0.931 . S
C1174 C1173 1.385 . S
C1174 C1175 1.389 . S
C1175 C1174 1.389 . S
C1175 C1176 1.387 . S
C1176 H1161 0.930 . S
C1176 C1171 1.390 . S
C1176 C1175 1.387 . S
H1177 C1189 0.930 . S
H1178 C1191 0.930 . S
H1179 C1192 0.930 . S
H1180 C1196 0.959 . S
H1181 C1196 0.959 . S
H1182 C1196 0.961 . S
H1183 C1197 0.960 . S
H1184 C1197 0.961 . S
H1185 C1197 0.959 . S
H1186 C1200 0.929 . S
H1187 C1201 0.931 . S
H1188 C1203 0.930 . S
C1189 H1177 0.930 . S
C1189 C1190 1.399 . S
C1189 C1194 1.399 . S
C1190 C1189 1.399 . S
C1190 C1191 1.376 . S
C1191 H1178 0.930 . S
C1191 C1190 1.376 . S
C1191 C1192 1.388 . S
C1192 H1179 0.930 . S
C1192 C1191 1.388 . S
C1192 C1193 1.390 . S
C1193 C1192 1.390 . S
C1193 C1194 1.394 . S
C1193 C1199 1.465 . S
C1194 C1189 1.399 . S
C1194 C1193 1.394 . S
C1194 C1195 1.516 . S
C1195 C1194 1.516 . S
C1195 C1196 1.502 . S
C1195 C1197 1.561 . S
C1195 C1198 1.526 . S
C1196 H1180 0.959 . S
C1196 H1181 0.959 . S
C1196 H1182 0.961 . S
C1196 C1195 1.502 . S
C1197 H1183 0.960 . S
C1197 H1184 0.961 . S
C1197 H1185 0.959 . S
C1197 C1195 1.561 . S
C1198 C1195 1.526 . S
C1198 C1199 1.396 . S
C1198 C1203 1.390 1_554 S
C1199 C1193 1.465 . S
C1199 C1198 1.396 . S
C1199 C1200 1.399 . S
C1200 H1186 0.929 . S
C1200 C1199 1.399 . S
C1200 C1201 1.385 1_554 S
C1201 H1187 0.931 . S
C1201 C1200 1.385 1_556 S
C1201 C1202 1.389 . S
C1202 C1201 1.389 . S
C1202 C1203 1.387 . S
C1203 H1188 0.930 . S
C1203 C1198 1.390 1_556 S
C1203 C1202 1.387 . S
H1204 C1216 0.930 . S
H1205 C1218 0.930 . S
H1206 C1219 0.930 . S
H1207 C1223 0.959 . S
H1208 C1223 0.959 . S
H1209 C1223 0.961 . S
H1210 C1224 0.960 . S
H1211 C1224 0.961 . S
H1212 C1224 0.959 . S
H1213 C1227 0.929 . S
H1214 C1228 0.931 . S
H1215 C1230 0.930 . S
C1216 H1204 0.930 . S
C1216 C1217 1.399 . S
C1216 C1221 1.399 . S
C1217 C1216 1.399 . S
C1217 C1218 1.376 . S
C1218 H1205 0.930 . S
C1218 C1217 1.376 . S
C1218 C1219 1.388 . S
C1219 H1206 0.930 . S
C1219 C1218 1.388 . S
C1219 C1220 1.390 . S
C1220 C1219 1.390 . S
C1220 C1221 1.394 . S
C1220 C1226 1.465 . S
C1221 C1216 1.399 . S
C1221 C1220 1.394 . S
C1221 C1222 1.516 . S
C1222 C1221 1.516 . S
C1222 C1223 1.502 . S
C1222 C1224 1.561 . S
C1222 C1225 1.526 . S
C1223 H1207 0.959 . S
C1223 H1208 0.959 . S
C1223 H1209 0.961 . S
C1223 C1222 1.502 . S
C1224 H1210 0.960 . S
C1224 H1211 0.961 . S
C1224 H1212 0.959 . S
C1224 C1222 1.561 . S
C1225 C1222 1.526 . S
C1225 C1226 1.396 . S
C1225 C1230 1.390 . S
C1226 C1220 1.465 . S
C1226 C1225 1.396 . S
C1226 C1227 1.399 . S
C1227 H1213 0.929 . S
C1227 C1226 1.399 . S
C1227 C1228 1.385 . S
C1228 H1214 0.931 . S
C1228 C1227 1.385 . S
C1228 C1229 1.389 . S
C1229 C1228 1.389 . S
C1229 C1230 1.387 . S
C1230 H1215 0.930 . S
C1230 C1225 1.390 . S
C1230 C1229 1.387 . S
H1231 C1243 0.930 . S
H1232 C1245 0.930 . S
H1233 C1246 0.930 . S
H1234 C1250 0.959 . S
H1235 C1250 0.959 . S
H1236 C1250 0.961 . S
H1237 C1251 0.960 . S
H1238 C1251 0.961 . S
H1239 C1251 0.959 . S
H1240 C1254 0.929 . S
H1241 C1255 0.931 . S
H1242 C1257 0.930 . S
C1243 H1231 0.930 . S
C1243 C1244 1.399 . S
C1243 C1248 1.399 . S
C1244 C1243 1.399 . S
C1244 C1245 1.376 . S
C1245 H1232 0.930 . S
C1245 C1244 1.376 . S
C1245 C1246 1.388 . S
C1246 H1233 0.930 . S
C1246 C1245 1.388 . S
C1246 C1247 1.390 . S
C1247 C1246 1.390 . S
C1247 C1248 1.394 . S
C1247 C1253 1.465 . S
C1248 C1243 1.399 . S
C1248 C1247 1.394 . S
C1248 C1249 1.516 . S
C1249 C1248 1.516 . S
C1249 C1250 1.502 . S
C1249 C1251 1.561 . S
C1249 C1252 1.526 . S
C1250 H1234 0.959 . S
C1250 H1235 0.959 . S
C1250 H1236 0.961 . S
C1250 C1249 1.502 . S
C1251 H1237 0.960 . S
C1251 H1238 0.961 . S
C1251 H1239 0.959 . S
C1251 C1249 1.561 . S
C1252 C1249 1.526 . S
C1252 C1253 1.396 . S
C1252 C1257 1.390 . S
C1253 C1247 1.465 . S
C1253 C1252 1.396 . S
C1253 C1254 1.399 . S
C1254 H1240 0.929 . S
C1254 C1253 1.399 . S
C1254 C1255 1.385 . S
C1255 H1241 0.931 . S
C1255 C1254 1.385 . S
C1255 C1256 1.389 . S
C1256 C1255 1.389 . S
C1256 C1257 1.387 . S
C1257 H1242 0.930 . S
C1257 C1252 1.390 . S
C1257 C1256 1.387 . S
H1258 C1270 0.930 . S
H1259 C1272 0.930 . S
H1260 C1273 0.930 . S
H1261 C1277 0.959 . S
H1262 C1277 0.959 . S
H1263 C1277 0.961 . S
H1264 C1278 0.960 . S
H1265 C1278 0.961 . S
H1266 C1278 0.959 . S
H1267 C1281 0.929 . S
H1268 C1282 0.931 . S
H1269 C1284 0.930 . S
C1270 H1258 0.930 . S
C1270 C1271 1.399 . S
C1270 C1275 1.399 . S
C1271 C1270 1.399 . S
C1271 C1272 1.376 . S
C1272 H1259 0.930 . S
C1272 C1271 1.376 . S
C1272 C1273 1.388 . S
C1273 H1260 0.930 . S
C1273 C1272 1.388 . S
C1273 C1274 1.390 . S
C1274 C1273 1.390 . S
C1274 C1275 1.394 . S
C1274 C1280 1.465 . S
C1275 C1270 1.399 . S
C1275 C1274 1.394 . S
C1275 C1276 1.516 . S
C1276 C1275 1.516 . S
C1276 C1277 1.502 . S
C1276 C1278 1.561 . S
C1276 C1279 1.526 . S
C1277 H1261 0.959 . S
C1277 H1262 0.959 . S
C1277 H1263 0.961 . S
C1277 C1276 1.502 . S
C1278 H1264 0.960 . S
C1278 H1265 0.961 . S
C1278 H1266 0.959 . S
C1278 C1276 1.561 . S
C1279 C1276 1.526 . S
C1279 C1280 1.396 . S
C1279 C1284 1.390 . S
C1280 C1274 1.465 . S
C1280 C1279 1.396 . S
C1280 C1281 1.399 . S
C1281 H1267 0.929 . S
C1281 C1280 1.399 . S
C1281 C1282 1.385 . S
C1282 H1268 0.931 . S
C1282 C1281 1.385 . S
C1282 C1283 1.389 . S
C1283 C1282 1.389 . S
C1283 C1284 1.387 . S
C1284 H1269 0.930 . S
C1284 C1279 1.390 . S
C1284 C1283 1.387 . S
H1285 C1297 0.930 . S
H1286 C1299 0.930 . S
H1287 C1300 0.930 . S
H1288 C1304 0.959 . S
H1289 C1304 0.959 . S
H1290 C1304 0.961 . S
H1291 C1305 0.960 . S
H1292 C1305 0.961 . S
H1293 C1305 0.959 . S
H1294 C1308 0.929 . S
H1295 C1309 0.931 . S
H1296 C1311 0.930 . S
C1297 H1285 0.930 . S
C1297 C1298 1.399 . S
C1297 C1302 1.399 . S
C1298 C1297 1.399 . S
C1298 C1299 1.376 . S
C1299 H1286 0.930 . S
C1299 C1298 1.376 . S
C1299 C1300 1.388 . S
C1300 H1287 0.930 . S
C1300 C1299 1.388 . S
C1300 C1301 1.390 . S
C1301 C1300 1.390 . S
C1301 C1302 1.394 . S
C1301 C1307 1.465 . S
C1302 C1297 1.399 . S
C1302 C1301 1.394 . S
C1302 C1303 1.516 . S
C1303 C1302 1.516 . S
C1303 C1304 1.502 . S
C1303 C1305 1.561 . S
C1303 C1306 1.526 . S
C1304 H1288 0.959 . S
C1304 H1289 0.959 . S
C1304 H1290 0.961 . S
C1304 C1303 1.502 . S
C1305 H1291 0.960 . S
C1305 H1292 0.961 . S
C1305 H1293 0.959 . S
C1305 C1303 1.561 . S
C1306 C1303 1.526 . S
C1306 C1307 1.396 . S
C1306 C1311 1.390 1_554 S
C1307 C1301 1.465 . S
C1307 C1306 1.396 . S
C1307 C1308 1.399 . S
C1308 H1294 0.929 . S
C1308 C1307 1.399 . S
C1308 C1309 1.385 1_554 S
C1309 H1295 0.931 . S
C1309 C1308 1.385 1_556 S
C1309 C1310 1.389 . S
C1310 C1309 1.389 . S
C1310 C1311 1.387 . S
C1311 H1296 0.930 . S
C1311 C1306 1.390 1_556 S
C1311 C1310 1.387 . S
H1312 C1324 0.930 . S
H1313 C1326 0.930 . S
H1314 C1327 0.930 . S
H1315 C1331 0.959 1_554 S
H1316 C1331 0.959 . S
H1317 C1331 0.961 . S
H1318 C1332 0.960 . S
H1319 C1332 0.961 . S
H1320 C1332 0.959 . S
H1321 C1335 0.929 . S
H1322 C1336 0.931 . S
H1323 C1338 0.930 . S
C1324 H1312 0.930 . S
C1324 C1325 1.399 . S
C1324 C1329 1.399 . S
C1325 C1324 1.399 . S
C1325 C1326 1.376 . S
C1326 H1313 0.930 . S
C1326 C1325 1.376 . S
C1326 C1327 1.388 . S
C1327 H1314 0.930 . S
C1327 C1326 1.388 . S
C1327 C1328 1.390 . S
C1328 C1327 1.390 . S
C1328 C1329 1.394 . S
C1328 C1334 1.465 . S
C1329 C1324 1.399 . S
C1329 C1328 1.394 . S
C1329 C1330 1.516 . S
C1330 C1329 1.516 . S
C1330 C1331 1.502 1_554 S
C1330 C1332 1.561 1_554 S
C1330 C1333 1.526 . S
C1331 H1315 0.959 1_556 S
C1331 H1316 0.959 . S
C1331 H1317 0.961 . S
C1331 C1330 1.502 1_556 S
C1332 H1318 0.960 . S
C1332 H1319 0.961 . S
C1332 H1320 0.959 . S
C1332 C1330 1.561 1_556 S
C1333 C1330 1.526 . S
C1333 C1334 1.396 . S
C1333 C1338 1.390 . S
C1334 C1328 1.465 . S
C1334 C1333 1.396 . S
C1334 C1335 1.399 . S
C1335 H1321 0.929 . S
C1335 C1334 1.399 . S
C1335 C1336 1.385 . S
C1336 H1322 0.931 . S
C1336 C1335 1.385 . S
C1336 C1337 1.389 . S
C1337 C1336 1.389 . S
C1337 C1338 1.387 . S
C1338 H1323 0.930 . S
C1338 C1333 1.390 . S
C1338 C1337 1.387 . S
H1339 C1351 0.930 . S
H1340 C1353 0.930 . S
H1341 C1354 0.930 . S
H1342 C1358 0.962 . S
H1343 C1358 0.977 . S
H1344 C1358 0.942 1_455 S
H1345 C1359 0.960 1_455 S
H1346 C1359 0.961 . S
H1347 C1359 0.959 . S
H1348 C1362 0.929 . S
H1349 C1363 0.931 . S
H1350 C1365 0.930 . S
C1351 H1339 0.930 . S
C1351 C1352 1.399 . S
C1351 C1356 1.399 . S
C1352 C1351 1.399 . S
C1352 C1353 1.376 . S
C1353 H1340 0.930 . S
C1353 C1352 1.376 . S
C1353 C1354 1.388 . S
C1354 H1341 0.930 . S
C1354 C1353 1.388 . S
C1354 C1355 1.390 . S
C1355 C1354 1.390 . S
C1355 C1356 1.394 . S
C1355 C1361 1.465 1_455 S
C1356 C1351 1.399 . S
C1356 C1355 1.394 . S
C1356 C1357 1.519 1_455 S
C1357 C1356 1.519 1_655 S
C1357 C1358 1.502 . S
C1357 C1359 1.561 . S
C1357 C1360 1.523 . S
C1358 H1342 0.962 . S
C1358 H1343 0.977 . S
C1358 H1344 0.942 1_655 S
C1358 C1357 1.502 . S
C1359 H1345 0.960 1_655 S
C1359 H1346 0.961 . S
C1359 H1347 0.959 . S
C1359 C1357 1.561 . S
C1360 C1357 1.523 . S
C1360 C1361 1.396 . S
C1360 C1365 1.390 . S
C1361 C1355 1.465 1_655 S
C1361 C1360 1.396 . S
C1361 C1362 1.399 . S
C1362 H1348 0.929 . S
C1362 C1361 1.399 . S
C1362 C1363 1.385 . S
C1363 H1349 0.931 . S
C1363 C1362 1.385 . S
C1363 C1364 1.389 . S
C1364 C1363 1.389 . S
C1364 C1365 1.387 . S
C1365 H1350 0.930 . S
C1365 C1360 1.390 . S
C1365 C1364 1.387 . S
H1366 C1378 0.930 . S
H1367 C1380 0.930 . S
H1368 C1381 0.930 . S
H1369 C1385 0.959 . S
H1370 C1385 0.959 . S
H1371 C1385 0.961 . S
H1372 C1386 0.960 . S
H1373 C1386 0.961 . S
H1374 C1386 0.959 . S
H1375 C1389 0.929 . S
H1376 C1390 0.931 . S
H1377 C1392 0.930 . S
C1378 H1366 0.930 . S
C1378 C1379 1.399 . S
C1378 C1383 1.399 . S
C1379 C1378 1.399 . S
C1379 C1380 1.376 . S
C1380 H1367 0.930 . S
C1380 C1379 1.376 . S
C1380 C1381 1.388 . S
C1381 H1368 0.930 . S
C1381 C1380 1.388 . S
C1381 C1382 1.390 . S
C1382 C1381 1.390 . S
C1382 C1383 1.394 . S
C1382 C1388 1.465 . S
C1383 C1378 1.399 . S
C1383 C1382 1.394 . S
C1383 C1384 1.516 . S
C1384 C1383 1.516 . S
C1384 C1385 1.502 . S
C1384 C1386 1.561 . S
C1384 C1387 1.526 . S
C1385 H1369 0.959 . S
C1385 H1370 0.959 . S
C1385 H1371 0.961 . S
C1385 C1384 1.502 . S
C1386 H1372 0.960 . S
C1386 H1373 0.961 . S
C1386 H1374 0.959 . S
C1386 C1384 1.561 . S
C1387 C1384 1.526 . S
C1387 C1388 1.396 . S
C1387 C1392 1.390 . S
C1388 C1382 1.465 . S
C1388 C1387 1.396 . S
C1388 C1389 1.399 . S
C1389 H1375 0.929 . S
C1389 C1388 1.399 . S
C1389 C1390 1.385 . S
C1390 H1376 0.931 . S
C1390 C1389 1.385 . S
C1390 C1391 1.389 . S
C1391 C1390 1.389 . S
C1391 C1392 1.387 . S
C1392 H1377 0.930 . S
C1392 C1387 1.390 . S
C1392 C1391 1.387 . S
H1393 C1405 0.930 . S
H1394 C1407 0.930 . S
H1395 C1408 0.930 . S
H1396 C1412 0.959 . S
H1397 C1412 0.959 . S
H1398 C1412 0.961 . S
H1399 C1413 0.960 . S
H1400 C1413 0.961 . S
H1401 C1413 0.959 . S
H1402 C1416 0.929 . S
H1403 C1417 0.931 . S
H1404 C1419 0.930 . S
C1405 H1393 0.930 . S
C1405 C1406 1.399 . S
C1405 C1410 1.399 . S
C1406 C1405 1.399 . S
C1406 C1407 1.376 . S
C1407 H1394 0.930 . S
C1407 C1406 1.376 . S
C1407 C1408 1.388 . S
C1408 H1395 0.930 . S
C1408 C1407 1.388 . S
C1408 C1409 1.390 . S
C1409 C1408 1.390 . S
C1409 C1410 1.394 . S
C1409 C1415 1.465 . S
C1410 C1405 1.399 . S
C1410 C1409 1.394 . S
C1410 C1411 1.516 . S
C1411 C1410 1.516 . S
C1411 C1412 1.502 . S
C1411 C1413 1.561 . S
C1411 C1414 1.526 . S
C1412 H1396 0.959 . S
C1412 H1397 0.959 . S
C1412 H1398 0.961 . S
C1412 C1411 1.502 . S
C1413 H1399 0.960 . S
C1413 H1400 0.961 . S
C1413 H1401 0.959 . S
C1413 C1411 1.561 . S
C1414 C1411 1.526 . S
C1414 C1415 1.396 . S
C1414 C1419 1.390 . S
C1415 C1409 1.465 . S
C1415 C1414 1.396 . S
C1415 C1416 1.399 . S
C1416 H1402 0.929 . S
C1416 C1415 1.399 . S
C1416 C1417 1.385 . S
C1417 H1403 0.931 . S
C1417 C1416 1.385 . S
C1417 C1418 1.389 . S
C1418 C1417 1.389 . S
C1418 C1419 1.387 . S
C1419 H1404 0.930 . S
C1419 C1414 1.390 . S
C1419 C1418 1.387 . S
H1420 C1432 0.930 . S
H1421 C1434 0.930 . S
H1422 C1435 0.930 . S
H1423 C1439 0.959 . S
H1424 C1439 0.959 . S
H1425 C1439 0.961 . S
H1426 C1440 0.960 . S
H1427 C1440 0.961 . S
H1428 C1440 0.959 . S
H1429 C1443 0.929 . S
H1430 C1444 0.931 . S
H1431 C1446 0.930 . S
C1432 H1420 0.930 . S
C1432 C1433 1.399 . S
C1432 C1437 1.399 . S
C1433 C1432 1.399 . S
C1433 C1434 1.376 . S
C1434 H1421 0.930 . S
C1434 C1433 1.376 . S
C1434 C1435 1.388 . S
C1435 H1422 0.930 . S
C1435 C1434 1.388 . S
C1435 C1436 1.390 . S
C1436 C1435 1.390 . S
C1436 C1437 1.394 . S
C1436 C1442 1.465 . S
C1437 C1432 1.399 . S
C1437 C1436 1.394 . S
C1437 C1438 1.516 . S
C1438 C1437 1.516 . S
C1438 C1439 1.502 . S
C1438 C1440 1.561 1_554 S
C1438 C1441 1.526 . S
C1439 H1423 0.959 . S
C1439 H1424 0.959 . S
C1439 H1425 0.961 . S
C1439 C1438 1.502 . S
C1440 H1426 0.960 . S
C1440 H1427 0.961 . S
C1440 H1428 0.959 . S
C1440 C1438 1.561 1_556 S
C1441 C1438 1.526 . S
C1441 C1442 1.396 . S
C1441 C1446 1.390 . S
C1442 C1436 1.465 . S
C1442 C1441 1.396 . S
C1442 C1443 1.399 . S
C1443 H1429 0.929 . S
C1443 C1442 1.399 . S
C1443 C1444 1.385 . S
C1444 H1430 0.931 . S
C1444 C1443 1.385 . S
C1444 C1445 1.389 . S
C1445 C1444 1.389 . S
C1445 C1446 1.387 . S
C1446 H1431 0.930 . S
C1446 C1441 1.390 . S
C1446 C1445 1.387 . S
H1447 C1459 0.930 . S
H1448 C1461 0.930 . S
H1449 C1462 0.930 . S
H1450 C1466 0.959 . S
H1451 C1466 0.959 . S
H1452 C1466 0.961 . S
H1453 C1467 0.960 . S
H1454 C1467 0.961 . S
H1455 C1467 0.959 . S
H1456 C1470 0.929 . S
H1457 C1471 0.931 . S
H1458 C1473 0.930 . S
C1459 H1447 0.930 . S
C1459 C1460 1.399 . S
C1459 C1464 1.399 . S
C1460 C1459 1.399 . S
C1460 C1461 1.376 . S
C1461 H1448 0.930 . S
C1461 C1460 1.376 . S
C1461 C1462 1.388 . S
C1462 H1449 0.930 . S
C1462 C1461 1.388 . S
C1462 C1463 1.390 . S
C1463 C1462 1.390 . S
C1463 C1464 1.394 . S
C1463 C1469 1.465 . S
C1464 C1459 1.399 . S
C1464 C1463 1.394 . S
C1464 C1465 1.516 . S
C1465 C1464 1.516 . S
C1465 C1466 1.502 . S
C1465 C1467 1.561 . S
C1465 C1468 1.526 . S
C1466 H1450 0.959 . S
C1466 H1451 0.959 . S
C1466 H1452 0.961 . S
C1466 C1465 1.502 . S
C1467 H1453 0.960 . S
C1467 H1454 0.961 . S
C1467 H1455 0.959 . S
C1467 C1465 1.561 . S
C1468 C1465 1.526 . S
C1468 C1469 1.396 . S
C1468 C1473 1.390 . S
C1469 C1463 1.465 . S
C1469 C1468 1.396 . S
C1469 C1470 1.399 . S
C1470 H1456 0.929 . S
C1470 C1469 1.399 . S
C1470 C1471 1.385 . S
C1471 H1457 0.931 . S
C1471 C1470 1.385 . S
C1471 C1472 1.389 . S
C1472 C1471 1.389 . S
C1472 C1473 1.387 . S
C1473 H1458 0.930 . S
C1473 C1468 1.390 . S
C1473 C1472 1.387 . S
H1474 C1486 0.930 . S
H1475 C1488 0.930 . S
H1476 C1489 0.930 . S
H1477 C1493 0.959 . S
H1478 C1493 0.959 . S
H1479 C1493 0.961 . S
H1480 C1494 0.960 . S
H1481 C1494 0.961 . S
H1482 C1494 0.959 . S
H1483 C1497 0.929 . S
H1484 C1498 0.931 . S
H1485 C1500 0.930 . S
C1486 H1474 0.930 . S
C1486 C1487 1.399 . S
C1486 C1491 1.399 . S
C1487 C1486 1.399 . S
C1487 C1488 1.376 . S
C1488 H1475 0.930 . S
C1488 C1487 1.376 . S
C1488 C1489 1.388 . S
C1489 H1476 0.930 . S
C1489 C1488 1.388 . S
C1489 C1490 1.390 . S
C1490 C1489 1.390 . S
C1490 C1491 1.394 . S
C1490 C1496 1.465 . S
C1491 C1486 1.399 . S
C1491 C1490 1.394 . S
C1491 C1492 1.516 . S
C1492 C1491 1.516 . S
C1492 C1493 1.502 . S
C1492 C1494 1.561 . S
C1492 C1495 1.526 . S
C1493 H1477 0.959 . S
C1493 H1478 0.959 . S
C1493 H1479 0.961 . S
C1493 C1492 1.502 . S
C1494 H1480 0.960 . S
C1494 H1481 0.961 . S
C1494 H1482 0.959 . S
C1494 C1492 1.561 . S
C1495 C1492 1.526 . S
C1495 C1496 1.396 . S
C1495 C1500 1.390 . S
C1496 C1490 1.465 . S
C1496 C1495 1.396 . S
C1496 C1497 1.399 . S
C1497 H1483 0.929 . S
C1497 C1496 1.399 . S
C1497 C1498 1.385 . S
C1498 H1484 0.931 . S
C1498 C1497 1.385 . S
C1498 C1499 1.389 . S
C1499 C1498 1.389 . S
C1499 C1500 1.387 . S
C1500 H1485 0.930 . S
C1500 C1495 1.390 . S
C1500 C1499 1.387 . S
H1501 C1513 0.930 . S
H1502 C1515 0.930 . S
H1503 C1516 0.930 . S
H1504 C1520 0.962 . S
H1505 C1520 0.977 . S
H1506 C1520 0.942 1_655 S
H1507 C1521 0.960 1_655 S
H1508 C1521 0.961 . S
H1509 C1521 0.959 . S
H1510 C1524 0.929 . S
H1511 C1525 0.931 . S
H1512 C1527 0.930 . S
C1513 H1501 0.930 . S
C1513 C1514 1.399 . S
C1513 C1518 1.399 . S
C1514 C1513 1.399 . S
C1514 C1515 1.376 . S
C1515 H1502 0.930 . S
C1515 C1514 1.376 . S
C1515 C1516 1.388 . S
C1516 H1503 0.930 . S
C1516 C1515 1.388 . S
C1516 C1517 1.390 . S
C1517 C1516 1.390 . S
C1517 C1518 1.394 . S
C1517 C1523 1.465 1_655 S
C1518 C1513 1.399 . S
C1518 C1517 1.394 . S
C1518 C1519 1.519 1_655 S
C1519 C1518 1.519 1_455 S
C1519 C1520 1.502 . S
C1519 C1521 1.561 . S
C1519 C1522 1.523 . S
C1520 H1504 0.962 . S
C1520 H1505 0.977 . S
C1520 H1506 0.942 1_455 S
C1520 C1519 1.502 . S
C1521 H1507 0.960 1_455 S
C1521 H1508 0.961 . S
C1521 H1509 0.959 . S
C1521 C1519 1.561 . S
C1522 C1519 1.523 . S
C1522 C1523 1.396 . S
C1522 C1527 1.390 . S
C1523 C1517 1.465 1_455 S
C1523 C1522 1.396 . S
C1523 C1524 1.399 . S
C1524 H1510 0.929 . S
C1524 C1523 1.399 . S
C1524 C1525 1.385 . S
C1525 H1511 0.931 . S
C1525 C1524 1.385 . S
C1525 C1526 1.389 . S
C1526 C1525 1.389 . S
C1526 C1527 1.387 . S
C1527 H1512 0.930 . S
C1527 C1522 1.390 . S
C1527 C1526 1.387 . S
H1528 C1540 0.930 . S
H1529 C1542 0.930 . S
H1530 C1543 0.930 . S
H1531 C1547 0.959 . S
H1532 C1547 0.959 . S
H1533 C1547 0.961 . S
H1534 C1548 0.960 . S
H1535 C1548 0.961 . S
H1536 C1548 0.959 . S
H1537 C1551 0.929 . S
H1538 C1552 0.931 . S
H1539 C1554 0.930 . S
C1540 H1528 0.930 . S
C1540 C1541 1.399 . S
C1540 C1545 1.399 . S
C1541 C1540 1.399 . S
C1541 C1542 1.376 . S
C1542 H1529 0.930 . S
C1542 C1541 1.376 . S
C1542 C1543 1.388 . S
C1543 H1530 0.930 . S
C1543 C1542 1.388 . S
C1543 C1544 1.390 . S
C1544 C1543 1.390 . S
C1544 C1545 1.394 . S
C1544 C1550 1.465 . S
C1545 C1540 1.399 . S
C1545 C1544 1.394 . S
C1545 C1546 1.516 . S
C1546 C1545 1.516 . S
C1546 C1547 1.502 . S
C1546 C1548 1.561 1_554 S
C1546 C1549 1.526 . S
C1547 H1531 0.959 . S
C1547 H1532 0.959 . S
C1547 H1533 0.961 . S
C1547 C1546 1.502 . S
C1548 H1534 0.960 . S
C1548 H1535 0.961 . S
C1548 H1536 0.959 . S
C1548 C1546 1.561 1_556 S
C1549 C1546 1.526 . S
C1549 C1550 1.396 . S
C1549 C1554 1.390 . S
C1550 C1544 1.465 . S
C1550 C1549 1.396 . S
C1550 C1551 1.399 . S
C1551 H1537 0.929 . S
C1551 C1550 1.399 . S
C1551 C1552 1.385 . S
C1552 H1538 0.931 . S
C1552 C1551 1.385 . S
C1552 C1553 1.389 . S
C1553 C1552 1.389 . S
C1553 C1554 1.387 . S
C1554 H1539 0.930 . S
C1554 C1549 1.390 . S
C1554 C1553 1.387 . S
H1555 C1567 0.930 . S
H1556 C1569 0.930 . S
H1557 C1570 0.930 . S
H1558 C1574 0.959 . S
H1559 C1574 0.959 . S
H1560 C1574 0.961 . S
H1561 C1575 0.960 . S
H1562 C1575 0.961 . S
H1563 C1575 0.959 . S
H1564 C1578 0.929 . S
H1565 C1579 0.931 . S
H1566 C1581 0.930 . S
C1567 H1555 0.930 . S
C1567 C1568 1.399 . S
C1567 C1572 1.399 . S
C1568 C1567 1.399 . S
C1568 C1569 1.376 . S
C1569 H1556 0.930 . S
C1569 C1568 1.376 . S
C1569 C1570 1.388 . S
C1570 H1557 0.930 . S
C1570 C1569 1.388 . S
C1570 C1571 1.390 . S
C1571 C1570 1.390 . S
C1571 C1572 1.394 . S
C1571 C1577 1.465 . S
C1572 C1567 1.399 . S
C1572 C1571 1.394 . S
C1572 C1573 1.516 . S
C1573 C1572 1.516 . S
C1573 C1574 1.502 . S
C1573 C1575 1.561 . S
C1573 C1576 1.526 . S
C1574 H1558 0.959 . S
C1574 H1559 0.959 . S
C1574 H1560 0.961 . S
C1574 C1573 1.502 . S
C1575 H1561 0.960 . S
C1575 H1562 0.961 . S
C1575 H1563 0.959 . S
C1575 C1573 1.561 . S
C1576 C1573 1.526 . S
C1576 C1577 1.396 . S
C1576 C1581 1.390 . S
C1577 C1571 1.465 . S
C1577 C1576 1.396 . S
C1577 C1578 1.399 . S
C1578 H1564 0.929 . S
C1578 C1577 1.399 . S
C1578 C1579 1.385 . S
C1579 H1565 0.931 . S
C1579 C1578 1.385 . S
C1579 C1580 1.389 . S
C1580 C1579 1.389 . S
C1580 C1581 1.387 . S
C1581 H1566 0.930 . S
C1581 C1576 1.390 . S
C1581 C1580 1.387 . S
H1582 C1594 0.930 . S
H1583 C1596 0.930 1_556 S
H1584 C1597 0.930 1_556 S
H1585 C1601 0.959 . S
H1586 C1601 0.959 . S
H1587 C1601 0.961 . S
H1588 C1602 0.960 . S
H1589 C1602 0.961 . S
H1590 C1602 0.959 . S
H1591 C1605 0.929 1_556 S
H1592 C1606 0.931 1_556 S
H1593 C1608 0.930 . S
C1594 H1582 0.930 . S
C1594 C1595 1.399 . S
C1594 C1599 1.399 . S
C1595 C1594 1.399 . S
C1595 C1596 1.376 . S
C1596 H1583 0.930 1_554 S
C1596 C1595 1.376 . S
C1596 C1597 1.388 . S
C1597 H1584 0.930 1_554 S
C1597 C1596 1.388 . S
C1597 C1598 1.390 . S
C1598 C1597 1.390 . S
C1598 C1599 1.394 . S
C1598 C1604 1.465 . S
C1599 C1594 1.399 . S
C1599 C1598 1.394 . S
C1599 C1600 1.516 . S
C1600 C1599 1.516 . S
C1600 C1601 1.502 . S
C1600 C1602 1.561 . S
C1600 C1603 1.526 . S
C1601 H1585 0.959 . S
C1601 H1586 0.959 . S
C1601 H1587 0.961 . S
C1601 C1600 1.502 . S
C1602 H1588 0.960 . S
C1602 H1589 0.961 . S
C1602 H1590 0.959 . S
C1602 C1600 1.561 . S
C1603 C1600 1.526 . S
C1603 C1604 1.396 . S
C1603 C1608 1.390 . S
C1604 C1598 1.465 . S
C1604 C1603 1.396 . S
C1604 C1605 1.399 . S
C1605 H1591 0.929 1_554 S
C1605 C1604 1.399 . S
C1605 C1606 1.385 . S
C1606 H1592 0.931 1_554 S
C1606 C1605 1.385 . S
C1606 C1607 1.389 . S
C1607 C1606 1.389 . S
C1607 C1608 1.387 . S
C1608 H1593 0.930 . S
C1608 C1603 1.390 . S
C1608 C1607 1.387 . S
H1609 C1621 0.930 . S
H1610 C1623 0.930 . S
H1611 C1624 0.930 . S
H1612 C1628 0.959 . S
H1613 C1628 0.959 . S
H1614 C1628 0.961 . S
H1615 C1629 0.960 . S
H1616 C1629 0.961 . S
H1617 C1629 0.959 . S
H1618 C1632 0.929 . S
H1619 C1633 0.931 . S
H1620 C1635 0.930 . S
C1621 H1609 0.930 . S
C1621 C1622 1.399 . S
C1621 C1626 1.399 . S
C1622 C1621 1.399 . S
C1622 C1623 1.376 . S
C1623 H1610 0.930 . S
C1623 C1622 1.376 . S
C1623 C1624 1.388 . S
C1624 H1611 0.930 . S
C1624 C1623 1.388 . S
C1624 C1625 1.390 . S
C1625 C1624 1.390 . S
C1625 C1626 1.394 . S
C1625 C1631 1.465 . S
C1626 C1621 1.399 . S
C1626 C1625 1.394 . S
C1626 C1627 1.516 . S
C1627 C1626 1.516 . S
C1627 C1628 1.502 . S
C1627 C1629 1.561 . S
C1627 C1630 1.526 . S
C1628 H1612 0.959 . S
C1628 H1613 0.959 . S
C1628 H1614 0.961 . S
C1628 C1627 1.502 . S
C1629 H1615 0.960 . S
C1629 H1616 0.961 . S
C1629 H1617 0.959 . S
C1629 C1627 1.561 . S
C1630 C1627 1.526 . S
C1630 C1631 1.396 . S
C1630 C1635 1.390 . S
C1631 C1625 1.465 . S
C1631 C1630 1.396 . S
C1631 C1632 1.399 . S
C1632 H1618 0.929 . S
C1632 C1631 1.399 . S
C1632 C1633 1.385 . S
C1633 H1619 0.931 . S
C1633 C1632 1.385 . S
C1633 C1634 1.389 . S
C1634 C1633 1.389 . S
C1634 C1635 1.387 . S
C1635 H1620 0.930 . S
C1635 C1630 1.390 . S
C1635 C1634 1.387 . S
H1636 C1648 0.930 . S
H1637 C1650 0.930 . S
H1638 C1651 0.930 . S
H1639 C1655 0.959 . S
H1640 C1655 0.959 . S
H1641 C1655 0.961 . S
H1642 C1656 0.960 . S
H1643 C1656 0.961 . S
H1644 C1656 0.959 . S
H1645 C1659 0.929 . S
H1646 C1660 0.931 . S
H1647 C1662 0.930 . S
C1648 H1636 0.930 . S
C1648 C1649 1.399 . S
C1648 C1653 1.399 . S
C1649 C1648 1.399 . S
C1649 C1650 1.376 . S
C1650 H1637 0.930 . S
C1650 C1649 1.376 . S
C1650 C1651 1.388 . S
C1651 H1638 0.930 . S
C1651 C1650 1.388 . S
C1651 C1652 1.390 . S
C1652 C1651 1.390 . S
C1652 C1653 1.394 . S
C1652 C1658 1.465 . S
C1653 C1648 1.399 . S
C1653 C1652 1.394 . S
C1653 C1654 1.516 . S
C1654 C1653 1.516 . S
C1654 C1655 1.502 . S
C1654 C1656 1.561 . S
C1654 C1657 1.526 . S
C1655 H1639 0.959 . S
C1655 H1640 0.959 . S
C1655 H1641 0.961 . S
C1655 C1654 1.502 . S
C1656 H1642 0.960 . S
C1656 H1643 0.961 . S
C1656 H1644 0.959 . S
C1656 C1654 1.561 . S
C1657 C1654 1.526 . S
C1657 C1658 1.396 . S
C1657 C1662 1.390 . S
C1658 C1652 1.465 . S
C1658 C1657 1.396 . S
C1658 C1659 1.399 . S
C1659 H1645 0.929 . S
C1659 C1658 1.399 . S
C1659 C1660 1.385 . S
C1660 H1646 0.931 . S
C1660 C1659 1.385 . S
C1660 C1661 1.389 . S
C1661 C1660 1.389 . S
C1661 C1662 1.387 . S
C1662 H1647 0.930 . S
C1662 C1657 1.390 . S
C1662 C1661 1.387 . S
H1663 C1675 0.930 . S
H1664 C1677 0.930 . S
H1665 C1678 0.930 . S
H1666 C1682 0.962 . S
H1667 C1682 0.977 . S
H1668 C1682 0.942 1_655 S
H1669 C1683 0.960 1_655 S
H1670 C1683 0.961 . S
H1671 C1683 0.959 . S
H1672 C1686 0.929 . S
H1673 C1687 0.931 . S
H1674 C1689 0.930 . S
C1675 H1663 0.930 . S
C1675 C1676 1.399 . S
C1675 C1680 1.399 . S
C1676 C1675 1.399 . S
C1676 C1677 1.376 . S
C1677 H1664 0.930 . S
C1677 C1676 1.376 . S
C1677 C1678 1.388 . S
C1678 H1665 0.930 . S
C1678 C1677 1.388 . S
C1678 C1679 1.390 . S
C1679 C1678 1.390 . S
C1679 C1680 1.394 . S
C1679 C1685 1.465 1_655 S
C1680 C1675 1.399 . S
C1680 C1679 1.394 . S
C1680 C1681 1.519 1_655 S
C1681 C1680 1.519 1_455 S
C1681 C1682 1.502 . S
C1681 C1683 1.561 . S
C1681 C1684 1.523 . S
C1682 H1666 0.962 . S
C1682 H1667 0.977 . S
C1682 H1668 0.942 1_455 S
C1682 C1681 1.502 . S
C1683 H1669 0.960 1_455 S
C1683 H1670 0.961 . S
C1683 H1671 0.959 . S
C1683 C1681 1.561 . S
C1684 C1681 1.523 . S
C1684 C1685 1.396 . S
C1684 C1689 1.390 . S
C1685 C1679 1.465 1_455 S
C1685 C1684 1.396 . S
C1685 C1686 1.399 . S
C1686 H1672 0.929 . S
C1686 C1685 1.399 . S
C1686 C1687 1.385 . S
C1687 H1673 0.931 . S
C1687 C1686 1.385 . S
C1687 C1688 1.389 . S
C1688 C1687 1.389 . S
C1688 C1689 1.387 . S
C1689 H1674 0.930 . S
C1689 C1684 1.390 . S
C1689 C1688 1.387 . S
H1690 C1702 0.930 . S
H1691 C1704 0.930 . S
H1692 C1705 0.930 . S
H1693 C1709 0.962 . S
H1694 C1709 0.977 . S
H1695 C1709 0.942 1_655 S
H1696 C1710 0.960 1_655 S
H1697 C1710 0.961 . S
H1698 C1710 0.959 . S
H1699 C1713 0.929 . S
H1700 C1714 0.931 . S
H1701 C1716 0.930 . S
C1702 H1690 0.930 . S
C1702 C1703 1.399 . S
C1702 C1707 1.399 . S
C1703 C1702 1.399 . S
C1703 C1704 1.376 . S
C1704 H1691 0.930 . S
C1704 C1703 1.376 . S
C1704 C1705 1.388 . S
C1705 H1692 0.930 . S
C1705 C1704 1.388 . S
C1705 C1706 1.390 . S
C1706 C1705 1.390 . S
C1706 C1707 1.394 . S
C1706 C1712 1.465 1_655 S
C1707 C1702 1.399 . S
C1707 C1706 1.394 . S
C1707 C1708 1.519 1_655 S
C1708 C1707 1.519 1_455 S
C1708 C1709 1.502 . S
C1708 C1710 1.561 . S
C1708 C1711 1.523 . S
C1709 H1693 0.962 . S
C1709 H1694 0.977 . S
C1709 H1695 0.942 1_455 S
C1709 C1708 1.502 . S
C1710 H1696 0.960 1_455 S
C1710 H1697 0.961 . S
C1710 H1698 0.959 . S
C1710 C1708 1.561 . S
C1711 C1708 1.523 . S
C1711 C1712 1.396 . S
C1711 C1716 1.390 . S
C1712 C1706 1.465 1_455 S
C1712 C1711 1.396 . S
C1712 C1713 1.399 . S
C1713 H1699 0.929 . S
C1713 C1712 1.399 . S
C1713 C1714 1.385 . S
C1714 H1700 0.931 . S
C1714 C1713 1.385 . S
C1714 C1715 1.389 . S
C1715 C1714 1.389 . S
C1715 C1716 1.387 . S
C1716 H1701 0.930 . S
C1716 C1711 1.390 . S
C1716 C1715 1.387 . S
H1717 C1729 0.930 . S
H1718 C1731 0.930 . S
H1719 C1732 0.930 . S
H1720 C1736 0.959 . S
H1721 C1736 0.959 . S
H1722 C1736 0.961 . S
H1723 C1737 0.960 . S
H1724 C1737 0.961 . S
H1725 C1737 0.959 . S
H1726 C1740 0.929 . S
H1727 C1741 0.931 . S
H1728 C1743 0.930 . S
C1729 H1717 0.930 . S
C1729 C1730 1.399 . S
C1729 C1734 1.399 . S
C1730 C1729 1.399 . S
C1730 C1731 1.376 . S
C1731 H1718 0.930 . S
C1731 C1730 1.376 . S
C1731 C1732 1.388 . S
C1732 H1719 0.930 . S
C1732 C1731 1.388 . S
C1732 C1733 1.390 . S
C1733 C1732 1.390 . S
C1733 C1734 1.394 . S
C1733 C1739 1.465 . S
C1734 C1729 1.399 . S
C1734 C1733 1.394 . S
C1734 C1735 1.516 . S
C1735 C1734 1.516 . S
C1735 C1736 1.502 . S
C1735 C1737 1.561 . S
C1735 C1738 1.526 . S
C1736 H1720 0.959 . S
C1736 H1721 0.959 . S
C1736 H1722 0.961 . S
C1736 C1735 1.502 . S
C1737 H1723 0.960 . S
C1737 H1724 0.961 . S
C1737 H1725 0.959 . S
C1737 C1735 1.561 . S
C1738 C1735 1.526 . S
C1738 C1739 1.396 . S
C1738 C1743 1.390 . S
C1739 C1733 1.465 . S
C1739 C1738 1.396 . S
C1739 C1740 1.399 . S
C1740 H1726 0.929 . S
C1740 C1739 1.399 . S
C1740 C1741 1.385 . S
C1741 H1727 0.931 . S
C1741 C1740 1.385 . S
C1741 C1742 1.389 . S
C1742 C1741 1.389 . S
C1742 C1743 1.387 . S
C1743 H1728 0.930 . S
C1743 C1738 1.390 . S
C1743 C1742 1.387 . S
H1744 C1756 0.930 . S
H1745 C1758 0.930 . S
H1746 C1759 0.930 . S
H1747 C1763 0.959 . S
H1748 C1763 0.959 . S
H1749 C1763 0.961 . S
H1750 C1764 0.960 . S
H1751 C1764 0.961 . S
H1752 C1764 0.959 . S
H1753 C1767 0.929 . S
H1754 C1768 0.931 . S
H1755 C1770 0.930 . S
C1756 H1744 0.930 . S
C1756 C1757 1.399 . S
C1756 C1761 1.399 . S
C1757 C1756 1.399 . S
C1757 C1758 1.376 . S
C1758 H1745 0.930 . S
C1758 C1757 1.376 . S
C1758 C1759 1.388 . S
C1759 H1746 0.930 . S
C1759 C1758 1.388 . S
C1759 C1760 1.390 . S
C1760 C1759 1.390 . S
C1760 C1761 1.394 . S
C1760 C1766 1.465 . S
C1761 C1756 1.399 . S
C1761 C1760 1.394 . S
C1761 C1762 1.516 . S
C1762 C1761 1.516 . S
C1762 C1763 1.502 . S
C1762 C1764 1.561 . S
C1762 C1765 1.526 . S
C1763 H1747 0.959 . S
C1763 H1748 0.959 . S
C1763 H1749 0.961 . S
C1763 C1762 1.502 . S
C1764 H1750 0.960 . S
C1764 H1751 0.961 . S
C1764 H1752 0.959 . S
C1764 C1762 1.561 . S
C1765 C1762 1.526 . S
C1765 C1766 1.396 . S
C1765 C1770 1.390 . S
C1766 C1760 1.465 . S
C1766 C1765 1.396 . S
C1766 C1767 1.399 . S
C1767 H1753 0.929 . S
C1767 C1766 1.399 . S
C1767 C1768 1.385 . S
C1768 H1754 0.931 . S
C1768 C1767 1.385 . S
C1768 C1769 1.389 . S
C1769 C1768 1.389 . S
C1769 C1770 1.387 . S
C1770 H1755 0.930 . S
C1770 C1765 1.390 . S
C1770 C1769 1.387 . S
H1771 C1783 0.930 1_545 S
H1772 C1785 0.930 . S
H1773 C1786 0.930 . S
H1774 C1790 0.959 . S
H1775 C1790 0.959 . S
H1776 C1790 0.961 . S
H1777 C1791 0.960 . S
H1778 C1791 0.961 . S
H1779 C1791 0.959 . S
H1780 C1794 0.929 . S
H1781 C1795 0.931 1_565 S
H1782 C1797 0.930 . S
C1783 H1771 0.930 1_565 S
C1783 C1784 1.399 . S
C1783 C1788 1.385 1_565 S
C1784 C1783 1.399 . S
C1784 C1785 1.376 . S
C1785 H1772 0.930 . S
C1785 C1784 1.376 . S
C1785 C1786 1.388 . S
C1786 H1773 0.930 . S
C1786 C1785 1.388 . S
C1786 C1787 1.390 . S
C1787 C1786 1.390 . S
C1787 C1788 1.358 1_565 S
C1787 C1793 1.465 . S
C1788 C1783 1.385 1_545 S
C1788 C1787 1.358 1_545 S
C1788 C1789 1.566 . S
C1789 C1788 1.566 . S
C1789 C1790 1.502 . S
C1789 C1791 1.561 . S
C1789 C1792 1.526 . S
C1790 H1774 0.959 . S
C1790 H1775 0.959 . S
C1790 H1776 0.961 . S
C1790 C1789 1.502 . S
C1791 H1777 0.960 . S
C1791 H1778 0.961 . S
C1791 H1779 0.959 . S
C1791 C1789 1.561 . S
C1792 C1789 1.526 . S
C1792 C1793 1.396 1_545 S
C1792 C1797 1.390 . S
C1793 C1787 1.465 . S
C1793 C1792 1.396 1_565 S
C1793 C1794 1.399 . S
C1794 H1780 0.929 . S
C1794 C1793 1.399 . S
C1794 C1795 1.385 1_565 S
C1795 H1781 0.931 1_545 S
C1795 C1794 1.385 1_545 S
C1795 C1796 1.389 . S
C1796 C1795 1.389 . S
C1796 C1797 1.387 . S
C1797 H1782 0.930 . S
C1797 C1792 1.390 . S
C1797 C1796 1.387 . S
H1798 C1810 0.930 . S
H1799 C1812 0.930 . S
H1800 C1813 0.930 . S
H1801 C1817 0.959 . S
H1802 C1817 0.959 . S
H1803 C1817 0.961 . S
H1804 C1818 0.960 . S
H1805 C1818 0.961 . S
H1806 C1818 0.959 . S
H1807 C1821 0.929 . S
H1808 C1822 0.931 . S
H1809 C1824 0.930 . S
C1810 H1798 0.930 . S
C1810 C1811 1.399 . S
C1810 C1815 1.399 . S
C1811 C1810 1.399 . S
C1811 C1812 1.376 . S
C1812 H1799 0.930 . S
C1812 C1811 1.376 . S
C1812 C1813 1.388 . S
C1813 H1800 0.930 . S
C1813 C1812 1.388 . S
C1813 C1814 1.390 . S
C1814 C1813 1.390 . S
C1814 C1815 1.394 . S
C1814 C1820 1.465 . S
C1815 C1810 1.399 . S
C1815 C1814 1.394 . S
C1815 C1816 1.516 . S
C1816 C1815 1.516 . S
C1816 C1817 1.502 . S
C1816 C1818 1.561 . S
C1816 C1819 1.526 . S
C1817 H1801 0.959 . S
C1817 H1802 0.959 . S
C1817 H1803 0.961 . S
C1817 C1816 1.502 . S
C1818 H1804 0.960 . S
C1818 H1805 0.961 . S
C1818 H1806 0.959 . S
C1818 C1816 1.561 . S
C1819 C1816 1.526 . S
C1819 C1820 1.396 . S
C1819 C1824 1.390 . S
C1820 C1814 1.465 . S
C1820 C1819 1.396 . S
C1820 C1821 1.399 . S
C1821 H1807 0.929 . S
C1821 C1820 1.399 . S
C1821 C1822 1.385 . S
C1822 H1808 0.931 . S
C1822 C1821 1.385 . S
C1822 C1823 1.389 . S
C1823 C1822 1.389 . S
C1823 C1824 1.387 . S
C1824 H1809 0.930 . S
C1824 C1819 1.390 . S
C1824 C1823 1.387 . S
H1825 C1837 0.930 . S
H1826 C1839 0.930 . S
H1827 C1840 0.930 . S
H1828 C1844 0.959 . S
H1829 C1844 0.959 . S
H1830 C1844 0.961 . S
H1831 C1845 0.960 . S
H1832 C1845 0.961 1_565 S
H1833 C1845 0.959 . S
H1834 C1848 0.929 . S
H1835 C1849 0.931 . S
H1836 C1851 0.930 . S
C1837 H1825 0.930 . S
C1837 C1838 1.399 . S
C1837 C1842 1.399 1_556 S
C1838 C1837 1.399 . S
C1838 C1839 1.376 . S
C1839 H1826 0.930 . S
C1839 C1838 1.376 . S
C1839 C1840 1.388 1_556 S
C1840 H1827 0.930 . S
C1840 C1839 1.388 1_554 S
C1840 C1841 1.390 . S
C1841 C1840 1.390 . S
C1841 C1842 1.394 . S
C1841 C1847 1.465 . S
C1842 C1837 1.399 1_554 S
C1842 C1841 1.394 . S
C1842 C1843 1.516 1_545 S
C1843 C1842 1.516 1_565 S
C1843 C1844 1.502 . S
C1843 C1845 1.561 1_565 S
C1843 C1846 1.526 . S
C1844 H1828 0.959 . S
C1844 H1829 0.959 . S
C1844 H1830 0.961 . S
C1844 C1843 1.502 . S
C1845 H1831 0.960 . S
C1845 H1832 0.961 1_545 S
C1845 H1833 0.959 . S
C1845 C1843 1.561 1_545 S
C1846 C1843 1.526 . S
C1846 C1847 1.396 1_565 S
C1846 C1851 1.390 . S
C1847 C1841 1.465 . S
C1847 C1846 1.396 1_545 S
C1847 C1848 1.399 . S
C1848 H1834 0.929 . S
C1848 C1847 1.399 . S
C1848 C1849 1.385 1_545 S
C1849 H1835 0.931 . S
C1849 C1848 1.385 1_565 S
C1849 C1850 1.389 . S
C1850 C1849 1.389 . S
C1850 C1851 1.387 . S
C1851 H1836 0.930 . S
C1851 C1846 1.390 . S
C1851 C1850 1.387 . S
H1852 C1864 0.930 . S
H1853 C1866 0.930 . S
H1854 C1867 0.930 . S
H1855 C1871 0.959 . S
H1856 C1871 0.959 . S
H1857 C1871 0.961 . S
H1858 C1872 0.960 . S
H1859 C1872 0.961 . S
H1860 C1872 0.959 . S
H1861 C1875 0.929 . S
H1862 C1876 0.931 . S
H1863 C1878 0.930 . S
C1864 H1852 0.930 . S
C1864 C1865 1.399 . S
C1864 C1869 1.399 . S
C1865 C1864 1.399 . S
C1865 C1866 1.376 . S
C1866 H1853 0.930 . S
C1866 C1865 1.376 . S
C1866 C1867 1.388 . S
C1867 H1854 0.930 . S
C1867 C1866 1.388 . S
C1867 C1868 1.390 . S
C1868 C1867 1.390 . S
C1868 C1869 1.394 . S
C1868 C1874 1.465 . S
C1869 C1864 1.399 . S
C1869 C1868 1.394 . S
C1869 C1870 1.516 . S
C1870 C1869 1.516 . S
C1870 C1871 1.502 . S
C1870 C1872 1.561 . S
C1870 C1873 1.526 . S
C1871 H1855 0.959 . S
C1871 H1856 0.959 . S
C1871 H1857 0.961 . S
C1871 C1870 1.502 . S
C1872 H1858 0.960 . S
C1872 H1859 0.961 . S
C1872 H1860 0.959 . S
C1872 C1870 1.561 . S
C1873 C1870 1.526 . S
C1873 C1874 1.396 . S
C1873 C1878 1.390 . S
C1874 C1868 1.465 . S
C1874 C1873 1.396 . S
C1874 C1875 1.399 . S
C1875 H1861 0.929 . S
C1875 C1874 1.399 . S
C1875 C1876 1.385 . S
C1876 H1862 0.931 . S
C1876 C1875 1.385 . S
C1876 C1877 1.389 . S
C1877 C1876 1.389 . S
C1877 C1878 1.387 . S
C1878 H1863 0.930 . S
C1878 C1873 1.390 . S
C1878 C1877 1.387 . S
H1879 C1891 0.930 1_565 S
H1880 C1893 0.930 . S
H1881 C1894 0.930 . S
H1882 C1898 0.959 . S
H1883 C1898 0.959 . S
H1884 C1898 0.961 . S
H1885 C1899 0.960 . S
H1886 C1899 0.961 . S
H1887 C1899 0.959 . S
H1888 C1902 0.929 . S
H1889 C1903 0.929 . S
H1890 C1905 0.930 . S
C1891 H1879 0.930 1_545 S
C1891 C1892 1.399 . S
C1891 C1896 1.399 1_545 S
C1892 C1891 1.399 . S
C1892 C1893 1.376 . S
C1893 H1880 0.930 . S
C1893 C1892 1.376 . S
C1893 C1894 1.388 . S
C1894 H1881 0.930 . S
C1894 C1893 1.388 . S
C1894 C1895 1.390 . S
C1895 C1894 1.390 . S
C1895 C1896 1.394 1_545 S
C1895 C1901 1.465 . S
C1896 C1891 1.399 1_565 S
C1896 C1895 1.394 1_565 S
C1896 C1897 1.516 . S
C1897 C1896 1.516 . S
C1897 C1898 1.502 . S
C1897 C1899 1.561 . S
C1897 C1900 1.526 . S
C1898 H1882 0.959 . S
C1898 H1883 0.959 . S
C1898 H1884 0.961 . S
C1898 C1897 1.502 . S
C1899 H1885 0.960 . S
C1899 H1886 0.961 . S
C1899 H1887 0.959 . S
C1899 C1897 1.561 . S
C1900 C1897 1.526 . S
C1900 C1901 1.396 1_565 S
C1900 C1905 1.390 . S
C1901 C1895 1.465 . S
C1901 C1900 1.396 1_545 S
C1901 C1902 1.399 . S
C1902 H1888 0.929 . S
C1902 C1901 1.399 . S
C1902 C1903 1.382 . S
C1903 H1889 0.929 . S
C1903 C1902 1.382 . S
C1903 C1904 1.394 1_545 S
C1904 C1903 1.394 1_565 S
C1904 C1905 1.387 . S
C1905 H1890 0.930 . S
C1905 C1900 1.390 . S
C1905 C1904 1.387 . S
H1906 C1918 0.930 . S
H1907 C1920 0.930 . S
H1908 C1921 0.930 . S
H1909 C1925 0.959 . S
H1910 C1925 0.959 . S
H1911 C1925 0.961 . S
H1912 C1926 0.960 . S
H1913 C1926 0.961 . S
H1914 C1926 0.959 . S
H1915 C1929 0.929 . S
H1916 C1930 0.931 . S
H1917 C1932 0.930 . S
C1918 H1906 0.930 . S
C1918 C1919 1.399 . S
C1918 C1923 1.399 . S
C1919 C1918 1.399 . S
C1919 C1920 1.376 . S
C1920 H1907 0.930 . S
C1920 C1919 1.376 . S
C1920 C1921 1.388 . S
C1921 H1908 0.930 . S
C1921 C1920 1.388 . S
C1921 C1922 1.390 . S
C1922 C1921 1.390 . S
C1922 C1923 1.394 . S
C1922 C1928 1.465 . S
C1923 C1918 1.399 . S
C1923 C1922 1.394 . S
C1923 C1924 1.516 . S
C1924 C1923 1.516 . S
C1924 C1925 1.502 . S
C1924 C1926 1.561 . S
C1924 C1927 1.526 . S
C1925 H1909 0.959 . S
C1925 H1910 0.959 . S
C1925 H1911 0.961 . S
C1925 C1924 1.502 . S
C1926 H1912 0.960 . S
C1926 H1913 0.961 . S
C1926 H1914 0.959 . S
C1926 C1924 1.561 . S
C1927 C1924 1.526 . S
C1927 C1928 1.396 . S
C1927 C1932 1.390 . S
C1928 C1922 1.465 . S
C1928 C1927 1.396 . S
C1928 C1929 1.399 . S
C1929 H1915 0.929 . S
C1929 C1928 1.399 . S
C1929 C1930 1.385 . S
C1930 H1916 0.931 . S
C1930 C1929 1.385 . S
C1930 C1931 1.389 . S
C1931 C1930 1.389 . S
C1931 C1932 1.387 . S
C1932 H1917 0.930 . S
C1932 C1927 1.390 . S
C1932 C1931 1.387 . S
H1933 C1945 0.930 1_545 S
H1934 C1947 0.930 . S
H1935 C1948 0.930 . S
H1936 C1952 0.959 . S
H1937 C1952 0.959 . S
H1938 C1952 0.961 . S
H1939 C1953 0.960 . S
H1940 C1953 0.961 . S
H1941 C1953 0.959 . S
H1942 C1956 0.929 . S
H1943 C1957 0.924 1_565 S
H1944 C1959 0.930 . S
C1945 H1933 0.930 1_565 S
C1945 C1946 1.399 . S
C1945 C1950 1.393 1_565 S
C1946 C1945 1.399 . S
C1946 C1947 1.376 . S
C1947 H1934 0.930 . S
C1947 C1946 1.376 . S
C1947 C1948 1.388 . S
C1948 H1935 0.930 . S
C1948 C1947 1.388 . S
C1948 C1949 1.390 . S
C1949 C1948 1.390 . S
C1949 C1950 1.382 1_565 S
C1949 C1955 1.465 . S
C1950 C1945 1.393 1_545 S
C1950 C1949 1.382 1_545 S
C1950 C1951 1.534 . S
C1951 C1950 1.534 . S
C1951 C1952 1.502 . S
C1951 C1953 1.561 . S
C1951 C1954 1.526 . S
C1952 H1936 0.959 . S
C1952 H1937 0.959 . S
C1952 H1938 0.961 . S
C1952 C1951 1.502 . S
C1953 H1939 0.960 . S
C1953 H1940 0.961 . S
C1953 H1941 0.959 . S
C1953 C1951 1.561 . S
C1954 C1951 1.526 . S
C1954 C1955 1.396 1_545 S
C1954 C1959 1.390 . S
C1955 C1949 1.465 . S
C1955 C1954 1.396 1_565 S
C1955 C1956 1.399 . S
C1956 H1942 0.929 . S
C1956 C1955 1.399 . S
C1956 C1957 1.385 1_564 S
C1957 H1943 0.924 1_545 S
C1957 C1956 1.385 1_546 S
C1957 C1958 1.389 . S
C1958 C1957 1.389 . S
C1958 C1959 1.387 1_556 S
C1959 H1944 0.930 . S
C1959 C1954 1.390 . S
C1959 C1958 1.387 1_554 S
H1960 C1972 0.930 . S
H1961 C1974 0.930 . S
H1962 C1975 0.930 . S
H1963 C1979 0.959 . S
H1964 C1979 0.959 . S
H1965 C1979 0.961 . S
H1966 C1980 0.960 . S
H1967 C1980 0.961 . S
H1968 C1980 0.959 . S
H1969 C1983 0.929 . S
H1970 C1984 0.931 . S
H1971 C1986 0.930 . S
C1972 H1960 0.930 . S
C1972 C1973 1.399 . S
C1972 C1977 1.399 . S
C1973 C1972 1.399 . S
C1973 C1974 1.376 . S
C1974 H1961 0.930 . S
C1974 C1973 1.376 . S
C1974 C1975 1.388 . S
C1975 H1962 0.930 . S
C1975 C1974 1.388 . S
C1975 C1976 1.390 . S
C1976 C1975 1.390 . S
C1976 C1977 1.394 . S
C1976 C1982 1.465 . S
C1977 C1972 1.399 . S
C1977 C1976 1.394 . S
C1977 C1978 1.516 . S
C1978 C1977 1.516 . S
C1978 C1979 1.502 . S
C1978 C1980 1.561 . S
C1978 C1981 1.526 . S
C1979 H1963 0.959 . S
C1979 H1964 0.959 . S
C1979 H1965 0.961 . S
C1979 C1978 1.502 . S
C1980 H1966 0.960 . S
C1980 H1967 0.961 . S
C1980 H1968 0.959 . S
C1980 C1978 1.561 . S
C1981 C1978 1.526 . S
C1981 C1982 1.396 . S
C1981 C1986 1.390 . S
C1982 C1976 1.465 . S
C1982 C1981 1.396 . S
C1982 C1983 1.399 . S
C1983 H1969 0.929 . S
C1983 C1982 1.399 . S
C1983 C1984 1.385 . S
C1984 H1970 0.931 . S
C1984 C1983 1.385 . S
C1984 C1985 1.389 . S
C1985 C1984 1.389 . S
C1985 C1986 1.387 . S
C1986 H1971 0.930 . S
C1986 C1981 1.390 . S
C1986 C1985 1.387 . S
H1987 C1999 0.930 . S
H1988 C2001 0.930 . S
H1989 C2002 0.930 . S
H1990 C2006 0.959 . S
H1991 C2006 0.959 . S
H1992 C2006 0.961 . S
H1993 C2007 0.960 . S
H1994 C2007 0.961 . S
H1995 C2007 0.959 . S
H1996 C2010 0.931 . S
H1997 C2011 0.931 . S
H1998 C2013 0.930 . S
C1999 H1987 0.930 . S
C1999 C2000 1.399 . S
C1999 C2004 1.399 . S
C2000 C1999 1.399 . S
C2000 C2001 1.376 . S
C2001 H1988 0.930 . S
C2001 C2000 1.376 . S
C2001 C2002 1.388 . S
C2002 H1989 0.930 . S
C2002 C2001 1.388 . S
C2002 C2003 1.390 . S
C2003 C2002 1.390 . S
C2003 C2004 1.394 . S
C2003 C2009 1.465 . S
C2004 C1999 1.399 . S
C2004 C2003 1.394 . S
C2004 C2005 1.516 . S
C2005 C2004 1.516 . S
C2005 C2006 1.502 . S
C2005 C2007 1.561 . S
C2005 C2008 1.526 . S
C2006 H1990 0.959 . S
C2006 H1991 0.959 . S
C2006 H1992 0.961 . S
C2006 C2005 1.502 . S
C2007 H1993 0.960 . S
C2007 H1994 0.961 . S
C2007 H1995 0.959 . S
C2007 C2005 1.561 . S
C2008 C2005 1.526 . S
C2008 C2009 1.396 . S
C2008 C2013 1.390 . S
C2009 C2003 1.465 . S
C2009 C2008 1.396 . S
C2009 C2010 1.387 1_554 S
C2010 H1996 0.931 . S
C2010 C2009 1.387 1_556 S
C2010 C2011 1.396 . S
C2011 H1997 0.931 . S
C2011 C2010 1.396 . S
C2011 C2012 1.389 . S
C2012 C2011 1.389 . S
C2012 C2013 1.387 1_556 S
C2013 H1998 0.930 . S
C2013 C2008 1.390 . S
C2013 C2012 1.387 1_554 S
H2014 C2026 0.930 . S
H2015 C2028 0.930 . S
H2016 C2029 0.930 . S
H2017 C2033 0.959 . S
H2018 C2033 0.959 . S
H2019 C2033 0.961 . S
H2020 C2034 0.960 . S
H2021 C2034 0.961 . S
H2022 C2034 0.959 . S
H2023 C2037 0.929 . S
H2024 C2038 0.931 . S
H2025 C2040 0.930 . S
C2026 H2014 0.930 . S
C2026 C2027 1.399 . S
C2026 C2031 1.399 . S
C2027 C2026 1.399 . S
C2027 C2028 1.376 . S
C2028 H2015 0.930 . S
C2028 C2027 1.376 . S
C2028 C2029 1.388 . S
C2029 H2016 0.930 . S
C2029 C2028 1.388 . S
C2029 C2030 1.390 . S
C2030 C2029 1.390 . S
C2030 C2031 1.394 . S
C2030 C2036 1.465 . S
C2031 C2026 1.399 . S
C2031 C2030 1.394 . S
C2031 C2032 1.516 . S
C2032 C2031 1.516 . S
C2032 C2033 1.502 . S
C2032 C2034 1.561 . S
C2032 C2035 1.526 . S
C2033 H2017 0.959 . S
C2033 H2018 0.959 . S
C2033 H2019 0.961 . S
C2033 C2032 1.502 . S
C2034 H2020 0.960 . S
C2034 H2021 0.961 . S
C2034 H2022 0.959 . S
C2034 C2032 1.561 . S
C2035 C2032 1.526 . S
C2035 C2036 1.396 . S
C2035 C2040 1.390 . S
C2036 C2030 1.465 . S
C2036 C2035 1.396 . S
C2036 C2037 1.399 . S
C2037 H2023 0.929 . S
C2037 C2036 1.399 . S
C2037 C2038 1.385 . S
C2038 H2024 0.931 . S
C2038 C2037 1.385 . S
C2038 C2039 1.389 . S
C2039 C2038 1.389 . S
C2039 C2040 1.387 . S
C2040 H2025 0.930 . S
C2040 C2035 1.390 . S
C2040 C2039 1.387 . S
H2041 C2053 0.930 . S
H2042 C2055 0.930 . S
H2043 C2056 0.930 . S
H2044 C2060 0.959 . S
H2045 C2060 0.959 . S
H2046 C2060 0.961 . S
H2047 C2061 0.960 . S
H2048 C2061 0.961 . S
H2049 C2061 0.959 . S
H2050 C2064 0.929 . S
H2051 C2065 0.931 . S
H2052 C2067 0.930 . S
C2053 H2041 0.930 . S
C2053 C2054 1.399 . S
C2053 C2058 1.399 . S
C2054 C2053 1.399 . S
C2054 C2055 1.376 . S
C2055 H2042 0.930 . S
C2055 C2054 1.376 . S
C2055 C2056 1.388 . S
C2056 H2043 0.930 . S
C2056 C2055 1.388 . S
C2056 C2057 1.390 . S
C2057 C2056 1.390 . S
C2057 C2058 1.394 . S
C2057 C2063 1.465 . S
C2058 C2053 1.399 . S
C2058 C2057 1.394 . S
C2058 C2059 1.516 . S
C2059 C2058 1.516 . S
C2059 C2060 1.502 . S
C2059 C2061 1.561 . S
C2059 C2062 1.526 . S
C2060 H2044 0.959 . S
C2060 H2045 0.959 . S
C2060 H2046 0.961 . S
C2060 C2059 1.502 . S
C2061 H2047 0.960 . S
C2061 H2048 0.961 . S
C2061 H2049 0.959 . S
C2061 C2059 1.561 . S
C2062 C2059 1.526 . S
C2062 C2063 1.396 . S
C2062 C2067 1.390 . S
C2063 C2057 1.465 . S
C2063 C2062 1.396 . S
C2063 C2064 1.399 . S
C2064 H2050 0.929 . S
C2064 C2063 1.399 . S
C2064 C2065 1.385 . S
C2065 H2051 0.931 . S
C2065 C2064 1.385 . S
C2065 C2066 1.389 . S
C2066 C2065 1.389 . S
C2066 C2067 1.387 . S
C2067 H2052 0.930 . S
C2067 C2062 1.390 . S
C2067 C2066 1.387 . S
H2068 C2080 0.930 . S
H2069 C2082 0.930 . S
H2070 C2083 0.930 . S
H2071 C2087 0.959 . S
H2072 C2087 0.959 . S
H2073 C2087 0.961 . S
H2074 C2088 0.960 . S
H2075 C2088 0.961 . S
H2076 C2088 0.959 . S
H2077 C2091 0.929 . S
H2078 C2092 0.931 . S
H2079 C2094 0.930 . S
C2080 H2068 0.930 . S
C2080 C2081 1.399 . S
C2080 C2085 1.399 . S
C2081 C2080 1.399 . S
C2081 C2082 1.376 . S
C2082 H2069 0.930 . S
C2082 C2081 1.376 . S
C2082 C2083 1.388 . S
C2083 H2070 0.930 . S
C2083 C2082 1.388 . S
C2083 C2084 1.390 . S
C2084 C2083 1.390 . S
C2084 C2085 1.394 . S
C2084 C2090 1.465 . S
C2085 C2080 1.399 . S
C2085 C2084 1.394 . S
C2085 C2086 1.516 . S
C2086 C2085 1.516 . S
C2086 C2087 1.502 . S
C2086 C2088 1.561 . S
C2086 C2089 1.526 . S
C2087 H2071 0.959 . S
C2087 H2072 0.959 . S
C2087 H2073 0.961 . S
C2087 C2086 1.502 . S
C2088 H2074 0.960 . S
C2088 H2075 0.961 . S
C2088 H2076 0.959 . S
C2088 C2086 1.561 . S
C2089 C2086 1.526 . S
C2089 C2090 1.396 . S
C2089 C2094 1.390 . S
C2090 C2084 1.465 . S
C2090 C2089 1.396 . S
C2090 C2091 1.399 . S
C2091 H2077 0.929 . S
C2091 C2090 1.399 . S
C2091 C2092 1.385 . S
C2092 H2078 0.931 . S
C2092 C2091 1.385 . S
C2092 C2093 1.389 . S
C2093 C2092 1.389 . S
C2093 C2094 1.387 . S
C2094 H2079 0.930 . S
C2094 C2089 1.390 . S
C2094 C2093 1.387 . S
H2095 C2107 0.930 . S
H2096 C2109 0.930 . S
H2097 C2110 0.930 . S
H2098 C2114 0.959 . S
H2099 C2114 0.959 . S
H2100 C2114 0.961 . S
H2101 C2115 0.960 . S
H2102 C2115 0.961 . S
H2103 C2115 0.959 . S
H2104 C2118 0.929 . S
H2105 C2119 0.931 . S
H2106 C2121 0.930 . S
C2107 H2095 0.930 . S
C2107 C2108 1.399 1_554 S
C2107 C2112 1.399 . S
C2108 C2107 1.399 1_556 S
C2108 C2109 1.376 . S
C2109 H2096 0.930 . S
C2109 C2108 1.376 . S
C2109 C2110 1.388 1_556 S
C2110 H2097 0.930 . S
C2110 C2109 1.388 1_554 S
C2110 C2111 1.390 . S
C2111 C2110 1.390 . S
C2111 C2112 1.394 . S
C2111 C2117 1.465 . S
C2112 C2107 1.399 . S
C2112 C2111 1.394 . S
C2112 C2113 1.516 . S
C2113 C2112 1.516 . S
C2113 C2114 1.502 . S
C2113 C2115 1.561 . S
C2113 C2116 1.526 . S
C2114 H2098 0.959 . S
C2114 H2099 0.959 . S
C2114 H2100 0.961 . S
C2114 C2113 1.502 . S
C2115 H2101 0.960 . S
C2115 H2102 0.961 . S
C2115 H2103 0.959 . S
C2115 C2113 1.561 . S
C2116 C2113 1.526 . S
C2116 C2117 1.396 . S
C2116 C2121 1.390 . S
C2117 C2111 1.465 . S
C2117 C2116 1.396 . S
C2117 C2118 1.399 . S
C2118 H2104 0.929 . S
C2118 C2117 1.399 . S
C2118 C2119 1.385 . S
C2119 H2105 0.931 . S
C2119 C2118 1.385 . S
C2119 C2120 1.389 . S
C2120 C2119 1.389 . S
C2120 C2121 1.387 . S
C2121 H2106 0.930 . S
C2121 C2116 1.390 . S
C2121 C2120 1.387 . S
H2122 C2134 0.930 . S
H2123 C2136 0.930 . S
H2124 C2137 0.930 . S
H2125 C2141 0.959 . S
H2126 C2141 0.959 . S
H2127 C2141 0.961 . S
H2128 C2142 0.960 . S
H2129 C2142 0.961 . S
H2130 C2142 0.959 . S
H2131 C2145 0.929 . S
H2132 C2146 0.931 . S
H2133 C2148 0.930 . S
C2134 H2122 0.930 . S
C2134 C2135 1.399 . S
C2134 C2139 1.399 . S
C2135 C2134 1.399 . S
C2135 C2136 1.376 . S
C2136 H2123 0.930 . S
C2136 C2135 1.376 . S
C2136 C2137 1.388 . S
C2137 H2124 0.930 . S
C2137 C2136 1.388 . S
C2137 C2138 1.390 . S
C2138 C2137 1.390 . S
C2138 C2139 1.394 . S
C2138 C2144 1.465 . S
C2139 C2134 1.399 . S
C2139 C2138 1.394 . S
C2139 C2140 1.516 . S
C2140 C2139 1.516 . S
C2140 C2141 1.502 . S
C2140 C2142 1.561 . S
C2140 C2143 1.526 . S
C2141 H2125 0.959 . S
C2141 H2126 0.959 . S
C2141 H2127 0.961 . S
C2141 C2140 1.502 . S
C2142 H2128 0.960 . S
C2142 H2129 0.961 . S
C2142 H2130 0.959 . S
C2142 C2140 1.561 . S
C2143 C2140 1.526 . S
C2143 C2144 1.396 . S
C2143 C2148 1.390 . S
C2144 C2138 1.465 . S
C2144 C2143 1.396 . S
C2144 C2145 1.399 . S
C2145 H2131 0.929 . S
C2145 C2144 1.399 . S
C2145 C2146 1.385 . S
C2146 H2132 0.931 . S
C2146 C2145 1.385 . S
C2146 C2147 1.389 . S
C2147 C2146 1.389 . S
C2147 C2148 1.387 . S
C2148 H2133 0.930 . S
C2148 C2143 1.390 . S
C2148 C2147 1.387 . S
H2149 C2161 0.930 . S
H2150 C2163 0.930 . S
H2151 C2164 0.930 . S
H2152 C2168 0.959 . S
H2153 C2168 0.959 . S
H2154 C2168 0.961 . S
H2155 C2169 0.960 . S
H2156 C2169 0.961 . S
H2157 C2169 0.959 . S
H2158 C2172 0.929 . S
H2159 C2173 0.931 . S
H2160 C2175 0.930 . S
C2161 H2149 0.930 . S
C2161 C2162 1.399 . S
C2161 C2166 1.399 . S
C2162 C2161 1.399 . S
C2162 C2163 1.376 . S
C2163 H2150 0.930 . S
C2163 C2162 1.376 . S
C2163 C2164 1.388 . S
C2164 H2151 0.930 . S
C2164 C2163 1.388 . S
C2164 C2165 1.390 . S
C2165 C2164 1.390 . S
C2165 C2166 1.394 . S
C2165 C2171 1.465 . S
C2166 C2161 1.399 . S
C2166 C2165 1.394 . S
C2166 C2167 1.516 . S
C2167 C2166 1.516 . S
C2167 C2168 1.502 . S
C2167 C2169 1.561 . S
C2167 C2170 1.526 . S
C2168 H2152 0.959 . S
C2168 H2153 0.959 . S
C2168 H2154 0.961 . S
C2168 C2167 1.502 . S
C2169 H2155 0.960 . S
C2169 H2156 0.961 . S
C2169 H2157 0.959 . S
C2169 C2167 1.561 . S
C2170 C2167 1.526 . S
C2170 C2171 1.396 . S
C2170 C2175 1.390 . S
C2171 C2165 1.465 . S
C2171 C2170 1.396 . S
C2171 C2172 1.399 . S
C2172 H2158 0.929 . S
C2172 C2171 1.399 . S
C2172 C2173 1.385 . S
C2173 H2159 0.931 . S
C2173 C2172 1.385 . S
C2173 C2174 1.389 . S
C2174 C2173 1.389 . S
C2174 C2175 1.387 . S
C2175 H2160 0.930 . S
C2175 C2170 1.390 . S
C2175 C2174 1.387 . S
C461 C106 1.552 . S
C473 C8 1.551 . S
C488 C22 1.576 . S
C500 C64 1.534 . S
C515 C78 1.535 . S
C527 C36 1.575 . S
C542 C50 1.531 . S
C554 C92 1.577 . S
C569 C120 1.577 . S
C581 C218 1.539 . S
C596 C134 1.563 . S
C608 C176 1.532 . S
C623 C148 1.554 . S
C635 C190 1.571 . S
C650 C162 1.557 . S
C662 C204 1.536 . S
C677 C232 1.552 . S
C689 C330 1.561 . S
C704 C246 1.530 . S
C716 C288 1.577 . S
C731 C302 1.530 . S
C743 C260 1.577 . S
C758 C316 1.568 . S
C770 C274 1.537 . S
C785 C344 1.531 . S
C797 C442 1.573 . S
C812 C400 1.547 . S
C824 C358 1.575 . S
C839 C414 1.549 . S
C851 C372 1.574 . S
C866 C386 1.564 . S
C878 C428 1.532 . S
C893 C7 0.583 . S
C905 C91 0.539 . S
C920 C21 0.660 . S
C932 C105 0.624 . S
C947 C63 0.605 . S
C959 C35 0.539 . S
C974 C49 0.607 . S
C986 C77 0.660 . S
C1001 C119 0.538 . S
C1013 C203 0.568 . S
C1028 C133 0.614 . S
C1040 C217 0.651 . S
C1055 C175 0.660 . S
C1067 C147 0.632 . S
C1082 C189 0.605 . S
C1094 C161 0.646 . S
C1109 C231 0.584 . S
C1121 C315 0.539 . S
C1136 C329 0.537 . S
C1148 C245 0.593 . S
C1163 C287 0.584 . S
C1175 C259 0.539 . S
C1190 C273 0.629 . S
C1202 C301 0.658 . S
C1217 C343 0.661 . S
C1229 C427 0.636 . S
C1244 C357 0.558 . S
C1256 C441 0.538 . S
C1271 C399 0.563 . S
C1283 C371 0.610 . S
C1298 C413 0.616 . S
C1310 C385 0.652 . S
C1325 C9 1.529 . S
C1337 C429 1.523 . S
C1352 C23 1.527 . S
C1364 C219 1.520 . S
C1379 C37 1.532 . S
C1391 C401 1.526 . S
C1406 C51 1.528 . S
C1418 C191 1.521 . S
C1433 C65 1.495 . S
C1445 C373 1.501 . S
C1460 C79 1.535 . S
C1472 C163 1.531 . S
C1487 C93 1.498 . S
C1499 C345 1.505 . S
C1514 C135 1.493 . S
C1526 C107 1.498 . S
C1541 C317 1.493 . S
C1553 C121 1.498 . S
C1568 C149 1.495 . S
C1580 C289 1.501 . S
C1595 C261 1.501 . S
C1607 C177 1.508 . S
C1622 C233 1.500 . S
C1634 C205 1.507 . S
C1649 C247 1.537 . S
C1661 C443 1.535 . S
C1676 C275 1.494 . S
C1688 C415 1.492 . S
C1703 C303 1.532 . S
C1715 C387 1.527 . S
C1730 C359 1.526 . S
C1742 C331 1.532 . S
C1757 C3 1.607 . S
C1769 C87 1.609 . S
C1784 C17 1.590 . S
C1796 C101 1.593 . S
C1811 C59 1.591 1_556 S
C1823 C31 1.590 . S
C1838 C45 1.606 . S
C1850 C73 1.608 . S
C1865 C115 1.589 1_556 S
C1877 C199 1.588 . S
C1892 C129 1.605 . S
C1904 C213 1.602 . S
C1919 C171 1.608 . S
C1931 C143 1.610 . S
C1946 C157 1.609 . S
C1958 C185 1.607 . S
C1973 C311 1.589 1_556 S
C1985 C227 1.588 . S
C2000 C325 1.593 . S
C2012 C241 1.596 . S
C2027 C283 1.608 . S
C2039 C255 1.610 . S
C2054 C297 1.588 . S
C2066 C269 1.591 . S
C2081 C423 1.587 . S
C2093 C339 1.588 . S
C2108 C437 1.589 . S
C2120 C353 1.592 . S
C2135 C367 1.590 1_556 S
C2147 C395 1.588 . S
C2162 C409 1.607 . S
C2174 C381 1.604 . S
