# Generated by pormake.
# Topology atn, (4)-cn, num edge types: 1
# Building blocks:
#     Node 0, Type 0, BuildingBlock: NAHDIM_clean_sbu_0, # of connection points: 4
#     Node 1, Type 0, BuildingBlock: NAHDIM_clean_sbu_0, # of connection points: 4
#     Node 2, Type 0, BuildingBlock: NAHDIM_clean_sbu_0, # of connection points: 4
#     Node 3, Type 0, BuildingBlock: NAHDIM_clean_sbu_0, # of connection points: 4
#     Node 4, Type 0, BuildingBlock: NAHDIM_clean_sbu_0, # of connection points: 4
#     Node 5, Type 0, BuildingBlock: NAHDIM_clean_sbu_0, # of connection points: 4
#     Node 6, Type 0, BuildingBlock: NAHDIM_clean_sbu_0, # of connection points: 4
#     Node 7, Type 0, BuildingBlock: NAHDIM_clean_sbu_0, # of connection points: 4
#     Node 8, Type 0, BuildingBlock: NAHDIM_clean_sbu_0, # of connection points: 4
#     Node 9, Type 0, BuildingBlock: NAHDIM_clean_sbu_0, # of connection points: 4
#     Node 10, Type 0, BuildingBlock: NAHDIM_clean_sbu_0, # of connection points: 4
#     Node 11, Type 0, BuildingBlock: NAHDIM_clean_sbu_0, # of connection points: 4
#     Node 12, Type 0, BuildingBlock: NAHDIM_clean_sbu_0, # of connection points: 4
#     Node 13, Type 0, BuildingBlock: NAHDIM_clean_sbu_0, # of connection points: 4
#     Node 14, Type 0, BuildingBlock: NAHDIM_clean_sbu_0, # of connection points: 4
#     Node 15, Type 0, BuildingBlock: NAHDIM_clean_sbu_0, # of connection points: 4
#     Edge 16, Type (0, 0), BuildingBlock: MIFKUJ_clean_linker_0, # of connection points: 2
#     Edge 17, Type (0, 0), BuildingBlock: MIFKUJ_clean_linker_0, # of connection points: 2
#     Edge 18, Type (0, 0), BuildingBlock: MIFKUJ_clean_linker_0, # of connection points: 2
#     Edge 19, Type (0, 0), BuildingBlock: MIFKUJ_clean_linker_0, # of connection points: 2
#     Edge 20, Type (0, 0), BuildingBlock: MIFKUJ_clean_linker_0, # of connection points: 2
#     Edge 21, Type (0, 0), BuildingBlock: MIFKUJ_clean_linker_0, # of connection points: 2
#     Edge 22, Type (0, 0), BuildingBlock: MIFKUJ_clean_linker_0, # of connection points: 2
#     Edge 23, Type (0, 0), BuildingBlock: MIFKUJ_clean_linker_0, # of connection points: 2
#     Edge 24, Type (0, 0), BuildingBlock: MIFKUJ_clean_linker_0, # of connection points: 2
#     Edge 25, Type (0, 0), BuildingBlock: MIFKUJ_clean_linker_0, # of connection points: 2
#     Edge 26, Type (0, 0), BuildingBlock: MIFKUJ_clean_linker_0, # of connection points: 2
#     Edge 27, Type (0, 0), BuildingBlock: MIFKUJ_clean_linker_0, # of connection points: 2
#     Edge 28, Type (0, 0), BuildingBlock: MIFKUJ_clean_linker_0, # of connection points: 2
#     Edge 29, Type (0, 0), BuildingBlock: MIFKUJ_clean_linker_0, # of connection points: 2
#     Edge 30, Type (0, 0), BuildingBlock: MIFKUJ_clean_linker_0, # of connection points: 2
#     Edge 31, Type (0, 0), BuildingBlock: MIFKUJ_clean_linker_0, # of connection points: 2
#     Edge 32, Type (0, 0), BuildingBlock: MIFKUJ_clean_linker_0, # of connection points: 2
#     Edge 33, Type (0, 0), BuildingBlock: MIFKUJ_clean_linker_0, # of connection points: 2
#     Edge 34, Type (0, 0), BuildingBlock: MIFKUJ_clean_linker_0, # of connection points: 2
#     Edge 35, Type (0, 0), BuildingBlock: MIFKUJ_clean_linker_0, # of connection points: 2
#     Edge 36, Type (0, 0), BuildingBlock: MIFKUJ_clean_linker_0, # of connection points: 2
#     Edge 37, Type (0, 0), BuildingBlock: MIFKUJ_clean_linker_0, # of connection points: 2
#     Edge 38, Type (0, 0), BuildingBlock: MIFKUJ_clean_linker_0, # of connection points: 2
#     Edge 39, Type (0, 0), BuildingBlock: MIFKUJ_clean_linker_0, # of connection points: 2
#     Edge 40, Type (0, 0), BuildingBlock: MIFKUJ_clean_linker_0, # of connection points: 2
#     Edge 41, Type (0, 0), BuildingBlock: MIFKUJ_clean_linker_0, # of connection points: 2
#     Edge 42, Type (0, 0), BuildingBlock: MIFKUJ_clean_linker_0, # of connection points: 2
#     Edge 43, Type (0, 0), BuildingBlock: MIFKUJ_clean_linker_0, # of connection points: 2
#     Edge 44, Type (0, 0), BuildingBlock: MIFKUJ_clean_linker_0, # of connection points: 2
#     Edge 45, Type (0, 0), BuildingBlock: MIFKUJ_clean_linker_0, # of connection points: 2
#     Edge 46, Type (0, 0), BuildingBlock: MIFKUJ_clean_linker_0, # of connection points: 2
#     Edge 47, Type (0, 0), BuildingBlock: MIFKUJ_clean_linker_0, # of connection points: 2
# Relax obj value: 0.100
# Max RMSD: 0.109
# Mean RMSD: 0.109
data_MOF--net-atn--node1-NAHDIM_clean_sbu_0--edge1-MIFKUJ_clean_linker_0
_symmetry_space_group_name_H-M    P1
_symmetry_Int_Tables_number       1
_symmetry_cell_setting            triclinic
loop_
_symmetry_equiv_pos_as_xyz
'x, y, z'
_cell_length_a     81.432407
_cell_length_b     81.458181
_cell_length_c     32.31228
_cell_angle_alpha  90.01894
_cell_angle_beta   89.98125
_cell_angle_gamma 90.0023
loop_
_atom_site_label
_atom_site_type_symbol
_atom_site_fract_x
_atom_site_fract_y
_atom_site_fract_z
_atom_type_partial_charge
C0 C 0.20434 0.41341 0.99778 0.0
O1 O 0.18983 0.40636 -0.00101 0.0
O2 O 0.19612 0.37502 0.03665 0.0
Zn3 Zn 0.21322 0.38022 0.99369 0.0
O4 O 0.20532 0.37364 0.93706 0.0
C5 C 0.23619 0.36032 0.04046 0.0
O6 O 0.22475 0.36088 0.06907 0.0
O7 O 0.21706 0.40448 0.9948 0.0
C8 C 0.20888 0.35966 0.92203 0.0
O9 O 0.21769 0.34938 0.9441 0.0
C10 C 0.18762 0.36196 0.03678 0.0
O11 O 0.18966 0.35115 0.00704 0.0
O12 O 0.23411 0.36807 0.00673 0.0
C13 C 0.57978 0.21689 0.97115 0.0
O14 O 0.59021 0.21738 0.94014 0.0
O15 O 0.6113 0.19527 0.06919 0.0
Zn16 Zn 0.6088 0.20891 0.01746 0.0
O17 O 0.61851 0.19739 0.96786 0.0
C18 C 0.63243 0.23134 0.05129 0.0
O19 O 0.63609 0.2185 0.07406 0.0
O20 O 0.585 0.2135 0.00721 0.0
C21 C 0.63395 0.19721 0.96199 0.0
O22 O 0.64362 0.20423 0.98927 0.0
C23 C 0.61797 0.18117 0.06998 0.0
O24 O 0.62277 0.17437 0.03516 0.0
O25 O 0.62079 0.23031 0.02523 0.0
C26 C 0.7925 0.58468 0.9967 0.0
O27 O 0.80723 0.59111 0.00018 0.0
O28 O 0.79636 0.62243 0.05195 0.0
Zn29 Zn 0.78489 0.6183 0.99768 0.0
O30 O 0.79921 0.62503 0.94987 0.0
C31 C 0.76247 0.64444 0.01623 0.0
O32 O 0.77457 0.64897 0.04057 0.0
O33 O 0.78019 0.5942 0.99404 0.0
C34 C 0.80369 0.6399 0.94602 0.0
O35 O 0.79899 0.65069 0.97382 0.0
C36 C 0.81178 0.62449 0.05522 0.0
O37 O 0.821 0.62403 0.02188 0.0
O38 O 0.76389 0.63133 0.99519 0.0
C39 C 0.41155 0.778 0.0416 0.0
O40 O 0.40614 0.78193 0.07861 0.0
O41 O 0.37645 0.80337 0.06274 0.0
Zn42 Zn 0.3793 0.78839 0.0138 0.0
O43 O 0.3744 0.79993 0.96043 0.0
C44 C 0.34858 0.77242 0.01031 0.0
O45 O 0.34406 0.78752 0.0017 0.0
O46 O 0.4022 0.77975 0.0105 0.0
C47 C 0.3748 0.79107 0.92809 0.0
O48 O 0.37889 0.77552 0.93159 0.0
C49 C 0.36693 0.81572 0.0615 0.0
O50 O 0.35916 0.81913 0.02695 0.0
O51 O 0.36359 0.76955 0.01816 0.0
C52 C 0.19772 0.58854 0.0047 0.0
O53 O 0.18323 0.59478 0.01328 0.0
O54 O 0.18799 0.62673 0.94918 0.0
Zn55 Zn 0.20388 0.62204 0.9953 0.0
O56 O 0.19398 0.62747 0.05037 0.0
C57 C 0.22226 0.65104 0.98281 0.0
O58 O 0.20731 0.65704 0.98148 0.0
O59 O 0.20937 0.59816 0.9951 0.0
C60 C 0.20292 0.62586 0.08231 0.0
O61 O 0.21817 0.62086 0.07789 0.0
C62 C 0.17612 0.63674 0.95295 0.0
O63 O 0.17375 0.64419 0.98853 0.0
O64 O 0.22418 0.6357 0.98803 0.0
C65 C 0.40609 0.21614 0.96212 0.0
O66 O 0.39618 0.2154 0.93009 0.0
O67 O 0.36932 0.19311 0.95884 0.0
Zn68 Zn 0.37702 0.20672 0.00698 0.0
O69 O 0.37528 0.19375 0.05961 0.0
C70 C 0.35132 0.22804 0.03694 0.0
O71 O 0.34779 0.2152 0.05986 0.0
O72 O 0.40052 0.213 0.99799 0.0
C73 C 0.38058 0.20007 0.09298 0.0
O74 O 0.38755 0.21461 0.09169 0.0
C75 C 0.35427 0.19256 0.94858 0.0
O76 O 0.34345 0.20076 0.97051 0.0
O77 O 0.3633 0.22725 0.01175 0.0
C78 C 0.789 0.40918 0.00445 0.0
O79 O 0.80293 0.40208 0.01438 0.0
O80 O 0.78863 0.37091 0.92839 0.0
Zn81 Zn 0.78065 0.37606 0.98574 0.0
O82 O 0.79673 0.36844 0.02918 0.0
C83 C 0.76072 0.34831 0.99685 0.0
O84 O 0.77525 0.34154 0.99258 0.0
O85 O 0.7772 0.4004 0.99134 0.0
C86 C 0.80803 0.35788 0.02372 0.0
O87 O 0.81006 0.35128 0.98699 0.0
C88 C 0.80239 0.37562 0.91417 0.0
O89 O 0.81224 0.38431 0.93776 0.0
O90 O 0.75949 0.36384 0.99477 0.0
C91 C 0.58299 0.77571 0.97171 0.0
O92 O 0.59042 0.77225 0.93668 0.0
O93 O 0.61646 0.80317 0.94031 0.0
Zn94 Zn 0.6143 0.78943 0.99188 0.0
O95 O 0.62201 0.80122 0.04287 0.0
C96 C 0.64024 0.76791 0.96347 0.0
O97 O 0.64469 0.78077 0.94166 0.0
O98 O 0.59084 0.78319 -7e-05 0.0
C99 C 0.63684 0.80571 0.0475 0.0
O100 O 0.64741 0.80322 0.01742 0.0
C101 C 0.62076 0.81817 0.93963 0.0
O102 O 0.62382 0.82586 0.97449 0.0
O103 O 0.62756 0.76881 0.98629 0.0
C104 C 0.70794 0.90946 0.49237 0.0
O105 O 0.69396 0.90265 0.48155 0.0
O106 O 0.69995 0.87214 0.55321 0.0
Zn107 Zn 0.71462 0.8762 0.50396 0.0
O108 O 0.70379 0.87009 0.45009 0.0
C109 C 0.73324 0.84791 0.52269 0.0
O110 O 0.71858 0.84308 0.53447 0.0
O111 O 0.7198 0.90026 0.50303 0.0
C112 C 0.69484 0.85747 0.44502 0.0
O113 O 0.69192 0.84769 0.47648 0.0
C114 C 0.68434 0.87221 0.55293 0.0
O115 O 0.67643 0.87494 0.5182 0.0
O116 O 0.73504 0.86245 0.50917 0.0
C117 C 0.08587 0.7214 0.44767 0.0
O118 O 0.09597 0.72065 0.416 0.0
O119 O 0.11628 0.70294 0.55227 0.0
Zn120 Zn 0.11436 0.71134 0.49408 0.0
O121 O 0.12125 0.69392 0.4537 0.0
C122 C 0.13758 0.73322 0.45482 0.0
O123 O 0.13617 0.72291 0.42379 0.0
O124 O 0.09114 0.71795 0.48362 0.0
C125 C 0.13518 0.6871 0.45768 0.0
O126 O 0.14447 0.69106 0.48941 0.0
C127 C 0.11447 0.68786 0.56123 0.0
O128 O 0.11103 0.6773 0.53175 0.0
O129 O 0.12921 0.73091 0.48753 0.0
C130 C 0.27233 0.08332 0.52861 0.0
O131 O 0.26583 0.0933 0.55605 0.0
O132 O 0.29096 0.12138 0.55203 0.0
Zn133 Zn 0.2835 0.11361 0.49631 0.0
O134 O 0.30034 0.11973 0.45351 0.0
C135 C 0.25899 0.13033 0.44746 0.0
O136 O 0.26955 0.12794 0.41731 0.0
O137 O 0.28045 0.08931 0.49863 0.0
C138 C 0.30751 0.13355 0.45615 0.0
O139 O 0.30412 0.14323 0.48753 0.0
C140 C 0.30478 0.11724 0.56688 0.0
O141 O 0.31446 0.10761 0.54522 0.0
O142 O 0.26219 0.12484 0.48336 0.0
C143 C 0.91273 0.29664 0.49739 0.0
O144 O 0.90561 0.31092 0.50344 0.0
O145 O 0.87171 0.30225 0.52784 0.0
Zn146 Zn 0.87965 0.2875 0.48222 0.0
O147 O 0.87423 0.29799 0.42787 0.0
C148 C 0.86298 0.26046 0.52079 0.0
O149 O 0.8662 0.2689 0.55448 0.0
O150 O 0.90395 0.28437 0.48745 0.0
C151 C 0.87877 0.29169 0.39377 0.0
O152 O 0.8875 0.27813 0.39417 0.0
C153 C 0.8565 0.30537 0.53139 0.0
O154 O 0.84617 0.29906 0.5045 0.0
O155 O 0.86797 0.26579 0.48603 0.0
C156 C 0.70206 0.0848 0.51341 0.0
O157 O 0.68732 0.09128 0.51048 0.0
O158 O 0.69656 0.12308 0.46211 0.0
Zn159 Zn 0.70969 0.11836 0.51333 0.0
O160 O 0.69717 0.12452 0.5647 0.0
C161 C 0.7309 0.14583 0.52529 0.0
O162 O 0.71733 0.15211 0.54053 0.0
O163 O 0.71442 0.09427 0.51527 0.0
C164 C 0.70479 0.12408 0.59899 0.0
O165 O 0.72019 0.11927 0.59946 0.0
C166 C 0.68513 0.13368 0.46063 0.0
O167 O 0.68146 0.1421 0.49407 0.0
O168 O 0.73073 0.13128 0.51108 0.0
C169 C 0.91344 0.71792 0.45471 0.0
O170 O 0.90297 0.71813 0.42377 0.0
O171 O 0.88088 0.68944 0.44768 0.0
Zn172 Zn 0.88572 0.70443 0.4954 0.0
O173 O 0.8827 0.69268 0.5494 0.0
C174 C 0.85534 0.72137 0.50409 0.0
O175 O 0.85058 0.70664 0.51546 0.0
O176 O 0.90875 0.71258 0.48971 0.0
C177 C 0.88247 0.70111 0.58247 0.0
O178 O 0.88501 0.71702 0.58025 0.0
C179 C 0.87028 0.678 0.44874 0.0
O180 O 0.86205 0.6753 0.48303 0.0
O181 O 0.87021 0.72359 0.49357 0.0
C182 C 0.28541 0.90942 0.55056 0.0
O183 O 0.29634 0.90217 0.57421 0.0
O184 O 0.29959 0.879 0.45495 0.0
Zn185 Zn 0.28615 0.87852 0.50704 0.0
O186 O 0.29899 0.86899 0.55436 0.0
C187 C 0.26635 0.85326 0.46977 0.0
O188 O 0.27949 0.85134 0.44667 0.0
O189 O 0.2792 0.90156 0.52041 0.0
C190 C 0.30343 0.85405 0.55515 0.0
O191 O 0.29983 0.84447 0.52373 0.0
C192 C 0.31491 0.87621 0.45281 0.0
O193 O 0.32323 0.87329 0.48682 0.0
O194 O 0.26626 0.86436 0.49748 0.0
C195 C 0.08824 0.29228 0.50998 0.0
O196 O 0.09569 0.30624 0.51791 0.0
O197 O 0.12267 0.29679 0.43234 0.0
Zn198 Zn 0.12053 0.28423 0.48552 0.0
O199 O 0.13022 0.2962 0.53409 0.0
C200 C 0.14469 0.26243 0.45349 0.0
O201 O 0.14874 0.27585 0.43342 0.0
O202 O 0.09659 0.28034 0.49597 0.0
C203 C 0.14355 0.30429 0.53307 0.0
O204 O 0.15167 0.30552 0.49806 0.0
C205 C 0.12264 0.31219 0.42635 0.0
O206 O 0.1208 0.32222 0.45786 0.0
O207 O 0.13263 0.26281 0.47851 0.0
H208 H 0.22626 0.57166 0.99065 0.0
H209 H 0.23032 0.54191 0.99298 0.0
H210 H 0.17924 0.53526 0.02431 0.0
H211 H 0.17513 0.56492 0.02269 0.0
H212 H 0.19872 0.51623 0.07138 0.0
H213 H 0.19308 0.52915 0.92594 0.0
H214 H 0.20028 0.54337 0.86105 0.0
H215 H 0.24903 0.52339 0.86674 0.0
H216 H 0.24217 0.50922 0.932 0.0
H217 H 0.17988 0.4353 0.01386 0.0
H218 H 0.18206 0.46509 0.01899 0.0
H219 H 0.23399 0.46221 0.99364 0.0
H220 H 0.23194 0.43226 0.98837 0.0
H221 H 0.21811 0.486 0.94727 0.0
H222 H 0.22244 0.47039 0.0889 0.0
H223 H 0.21479 0.45589 0.15302 0.0
H224 H 0.16827 0.4807 0.15436 0.0
H225 H 0.17553 0.49518 0.08986 0.0
C226 C 0.2159 0.56386 0.99809 0.0
C227 C 0.20035 0.57062 0.0063 0.0
C228 C 0.21824 0.54687 -0.00068 0.0
C229 C 0.20505 0.5364 0.00847 0.0
C230 C 0.18959 0.54315 0.01724 0.0
C231 C 0.18724 0.5601 0.01612 0.0
C232 C 0.20716 0.51837 0.00842 0.0
C233 C 0.20286 0.5096 0.04418 0.0
C234 C 0.21305 0.5098 0.97332 0.0
C235 C 0.21717 0.51829 0.93408 0.0
C236 C 0.20538 0.52791 0.91353 0.0
C237 C 0.20939 0.53593 0.87665 0.0
C238 C 0.22512 0.53433 0.85985 0.0
C239 C 0.23686 0.52465 0.87983 0.0
C240 C 0.23291 0.51661 0.91675 0.0
C241 C 0.19179 0.44097 0.00941 0.0
C242 C 0.20575 0.43144 0.00074 0.0
C243 C 0.19301 0.45799 0.01258 0.0
C244 C 0.20821 0.46579 0.00716 0.0
C245 C 0.22217 0.45637 0.9981 0.0
C246 C 0.22097 0.43929 0.99517 0.0
C247 C 0.20928 0.48386 0.00987 0.0
C248 C 0.2142 0.49264 0.97467 0.0
C249 C 0.20392 0.49244 0.04545 0.0
C250 C 0.19949 0.48378 0.08433 0.0
C251 C 0.21052 0.47266 0.10266 0.0
C252 C 0.20627 0.46446 0.13912 0.0
C253 C 0.19104 0.46735 0.15771 0.0
C254 C 0.18006 0.47847 0.13991 0.0
C255 C 0.18425 0.48669 0.10343 0.0
H256 H 0.18777 0.46099 0.18594 0.0
H257 H 0.2282 0.54055 0.83129 0.0
H258 H 0.42898 0.22113 0.02234 0.0
H259 H 0.45836 0.22552 0.01362 0.0
H260 H 0.45266 0.2239 0.88094 0.0
H261 H 0.42309 0.21936 0.88939 0.0
H262 H 0.47736 0.20421 0.90728 0.0
H263 H 0.46193 0.25975 0.92607 0.0
H264 H 0.44789 0.28336 0.95814 0.0
H265 H 0.47442 0.27536 0.07115 0.0
H266 H 0.48845 0.25155 0.04 0.0
H267 H 0.56379 0.22052 0.89717 0.0
H268 H 0.53426 0.2243 0.88621 0.0
H269 H 0.52641 0.22376 0.01824 0.0
H270 H 0.5558 0.22005 0.0295 0.0
H271 H 0.50863 0.24808 0.979 0.0
H272 H 0.51998 0.18982 0.96274 0.0
H273 H 0.5337 0.16595 0.9309 0.0
H274 H 0.51447 0.17951 0.812 0.0
H275 H 0.50081 0.2036 0.8431 0.0
C276 C 0.43391 0.22184 0.99125 0.0
C277 C 0.42371 0.21985 0.95654 0.0
C278 C 0.45071 0.22447 0.98632 0.0
C279 C 0.45765 0.22521 0.94662 0.0
C280 C 0.4475 0.22343 0.91183 0.0
C281 C 0.43063 0.22087 0.91673 0.0
C282 C 0.47567 0.22673 0.94206 0.0
C283 C 0.48419 0.21403 0.92205 0.0
C284 C 0.48456 0.23944 0.96177 0.0
C285 C 0.47618 0.25379 0.98073 0.0
C286 C 0.46469 0.26295 0.95787 0.0
C287 C 0.45675 0.27638 0.97587 0.0
C288 C 0.46025 0.28084 0.01667 0.0
C289 C 0.47172 0.27189 0.03954 0.0
C290 C 0.4797 0.25844 0.0217 0.0
C291 C 0.55578 0.22131 0.92386 0.0
C292 C 0.5621 0.21988 0.96421 0.0
C293 C 0.53893 0.22345 0.91752 0.0
C294 C 0.52819 0.22422 0.95142 0.0
C295 C 0.53453 0.22324 0.99168 0.0
C296 C 0.55131 0.22102 0.99804 0.0
C297 C 0.51022 0.22531 0.94539 0.0
C298 C 0.50175 0.2385 0.96341 0.0
C299 C 0.50136 0.21308 0.92378 0.0
C300 C 0.50956 0.19861 0.90512 0.0
C301 C 0.5188 0.18779 0.92974 0.0
C302 C 0.52654 0.17421 0.91185 0.0
C303 C 0.525 0.17125 0.86942 0.0
C304 C 0.51568 0.18184 0.84483 0.0
C305 C 0.50794 0.19545 0.86257 0.0
H306 H 0.531 0.16072 0.85563 0.0
H307 H 0.45408 0.29125 0.03055 0.0
H308 H 0.76158 0.42783 0.99008 0.0
H309 H 0.7594 0.45778 0.99218 0.0
H310 H 0.81055 0.46118 0.02591 0.0
H311 H 0.81275 0.43134 0.02478 0.0
H312 H 0.79276 0.48208 0.07028 0.0
H313 H 0.79742 0.46744 0.92587 0.0
H314 H 0.78938 0.45312 0.86173 0.0
H315 H 0.74205 0.47631 0.86581 0.0
H316 H 0.74975 0.49061 0.93032 0.0
H317 H 0.81603 0.56153 0.0101 0.0
H318 H 0.81247 0.53186 0.0144 0.0
H319 H 0.76064 0.53731 0.99061 0.0
H320 H 0.76408 0.56715 0.98612 0.0
H321 H 0.77518 0.51232 0.94455 0.0
H322 H 0.7723 0.52943 0.08591 0.0
H323 H 0.78144 0.54424 0.14834 0.0
H324 H 0.8264 0.51672 0.14888 0.0
H325 H 0.81764 0.50189 0.08606 0.0
C326 C 0.77234 0.43496 0.99813 0.0
C327 C 0.78736 0.42722 0.00704 0.0
C328 C 0.77108 0.45207 -0.00081 0.0
C329 C 0.78487 0.46171 0.00872 0.0
C330 C 0.79976 0.45398 0.01851 0.0
C331 C 0.801 0.43691 0.01769 0.0
C332 C 0.78402 0.47987 0.00758 0.0
C333 C 0.78901 0.48869 0.04271 0.0
C334 C 0.77872 0.48848 0.97195 0.0
C335 C 0.77409 0.47993 0.93315 0.0
C336 C 0.78526 0.46938 0.91326 0.0
C337 C 0.78077 0.46129 0.87682 0.0
C338 C 0.76519 0.46376 0.85978 0.0
C339 C 0.75409 0.47438 0.87909 0.0
C340 C 0.75852 0.48248 0.91558 0.0
C341 C 0.80387 0.55646 0.00568 0.0
C342 C 0.79032 0.56669 0.99791 0.0
C343 C 0.80185 0.5395 0.00834 0.0
C344 C 0.78626 0.53245 0.00336 0.0
C345 C 0.77275 0.54256 0.99474 0.0
C346 C 0.77474 0.55958 0.99225 0.0
C347 C 0.78424 0.51447 0.00691 0.0
C348 C 0.7787 0.5057 0.97229 0.0
C349 C 0.78914 0.5059 0.04291 0.0
C350 C 0.79436 0.51463 0.08107 0.0
C351 C 0.78419 0.5266 0.09917 0.0
C352 C 0.78929 0.535 0.13466 0.0
C353 C 0.80451 0.53145 0.15251 0.0
C354 C 0.81462 0.51946 0.135 0.0
C355 C 0.80958 0.51104 0.09948 0.0
H356 H 0.80845 0.53798 0.17996 0.0
H357 H 0.76174 0.45749 0.83156 0.0
H358 H 0.56531 0.77809 0.04311 0.0
H359 H 0.53606 0.77298 0.05264 0.0
H360 H 0.5318 0.75879 0.92444 0.0
H361 H 0.56117 0.76396 0.91451 0.0
H362 H 0.50923 0.78175 0.94688 0.0
H363 H 0.52769 0.73017 0.99792 0.0
H364 H 0.54445 0.71123 0.03978 0.0
H365 H 0.52501 0.73236 0.15125 0.0
H366 H 0.5083 0.7516 0.11007 0.0
H367 H 0.42515 0.76548 0.97128 0.0
H368 H 0.4541 0.75983 0.95813 0.0
H369 H 0.46586 0.77345 0.08372 0.0
H370 H 0.43679 0.77883 0.09746 0.0
H371 H 0.48436 0.74748 0.05733 0.0
H372 H 0.4692 0.80122 0.00694 0.0
H373 H 0.45273 0.82077 0.96605 0.0
H374 H 0.46655 0.79594 0.85407 0.0
H375 H 0.48294 0.7761 0.89441 0.0
C376 C 0.55821 0.77374 0.01699 0.0
C377 C 0.56553 0.77152 0.97797 0.0
C378 C 0.54151 0.77069 0.02259 0.0
C379 C 0.53182 0.76536 0.98934 0.0
C380 C 0.53912 0.76283 0.95051 0.0
C381 C 0.55588 0.76579 0.94492 0.0
C382 C 0.51385 0.76385 0.99452 0.0
C383 C 0.50376 0.77396 0.97037 0.0
C384 C 0.5068 0.75399 0.0259 0.0
C385 C 0.51682 0.74242 0.05086 0.0
C386 C 0.52709 0.73088 0.03136 0.0
C387 C 0.53656 0.72007 0.05498 0.0
C388 C 0.53582 0.72061 0.09815 0.0
C389 C 0.52557 0.73195 0.1178 0.0
C390 C 0.51608 0.74281 0.09433 0.0
C391 C 0.43386 0.76709 0.99629 0.0
C392 C 0.42874 0.77285 0.03526 0.0
C393 C 0.45039 0.76385 0.9887 0.0
C394 C 0.46212 0.76651 0.01973 0.0
C395 C 0.45697 0.77137 0.05934 0.0
C396 C 0.44038 0.7745 0.06708 0.0
C397 C 0.47984 0.76552 0.00999 0.0
C398 C 0.48985 0.75502 0.03337 0.0
C399 C 0.48688 0.77509 0.97802 0.0
C400 C 0.47714 0.78708 0.95371 0.0
C401 C 0.46863 0.79987 0.97362 0.0
C402 C 0.45933 0.81101 0.95055 0.0
C403 C 0.45855 0.80957 0.9075 0.0
C404 C 0.46713 0.79702 0.88743 0.0
C405 C 0.47644 0.78583 0.91037 0.0
H406 H 0.45134 0.81821 0.88968 0.0
H407 H 0.54316 0.71223 0.11638 0.0
H408 H 0.73049 0.06737 0.52434 0.0
H409 H 0.73375 0.03751 0.52452 0.0
H410 H 0.68176 0.03176 0.50322 0.0
H411 H 0.67834 0.0615 0.50384 0.0
H412 H 0.69205 0.01087 0.56071 0.0
H413 H 0.7101 0.02762 0.42469 0.0
H414 H 0.72702 0.04316 0.37496 0.0
H415 H 0.77073 0.02147 0.42521 0.0
H416 H 0.75407 0.00595 0.47563 0.0
H417 H 0.68378 0.93188 0.47863 0.0
H418 H 0.68538 0.9616 0.48602 0.0
H419 H 0.73658 0.95783 0.51877 0.0
H420 H 0.73513 0.92788 0.51141 0.0
H421 H 0.72963 0.98319 0.46188 0.0
H422 H 0.71072 0.96419 0.59346 0.0
H423 H 0.69322 0.94815 0.64081 0.0
H424 H 0.65056 0.97383 0.59722 0.0
H425 H 0.66777 0.98987 0.54912 0.0
C426 C 0.71975 0.05974 0.51975 0.0
C427 C 0.70416 0.06679 0.51394 0.0
C428 C 0.72165 0.04268 0.51973 0.0
C429 C 0.70802 0.03242 0.51347 0.0
C430 C 0.69244 0.03945 0.50816 0.0
C431 C 0.69051 0.05647 0.50839 0.0
C432 C 0.70987 0.01434 0.51218 0.0
C433 C 0.70019 0.00482 0.53891 0.0
C434 C 0.72084 0.00647 0.48454 0.0
C435 C 0.73086 0.01578 0.45424 0.0
C436 C 0.72333 0.02627 0.42536 0.0
C437 C 0.73287 0.03505 0.39701 0.0
C438 C 0.74994 0.03334 0.39702 0.0
C439 C 0.75751 0.02281 0.4253 0.0
C440 C 0.74803 0.01401 0.45375 0.0
C441 C 0.69543 0.93732 0.48722 0.0
C442 C 0.70932 0.92751 0.49467 0.0
C443 C 0.69629 0.95431 0.49157 0.0
C444 C 0.71103 0.96183 0.50348 0.0
C445 C 0.72508 0.95219 0.50974 0.0
C446 C 0.72421 0.93511 0.5056 0.0
C447 C 0.71154 0.9798 0.5097 0.0
C448 C 0.72167 0.98927 0.48403 0.0
C449 C 0.70092 0.98764 0.53816 0.0
C450 C 0.69054 0.97816 0.56745 0.0
C451 C 0.69759 0.96635 0.59375 0.0
C452 C 0.68773 0.95726 0.62076 0.0
C453 C 0.67079 0.95994 0.62197 0.0
C454 C 0.66369 0.97176 0.59624 0.0
C455 C 0.6735 0.98087 0.56913 0.0
H456 H 0.66317 0.95289 0.64288 0.0
H457 H 0.75731 0.04015 0.37503 0.0
H458 H 0.92864 0.72546 0.38163 0.0
H459 H 0.95781 0.73139 0.37082 0.0
H460 H 0.96634 0.72732 0.50216 0.0
H461 H 0.93728 0.72145 0.5133 0.0
H462 H 0.98338 0.75323 0.46656 0.0
H463 H 0.97325 0.69515 0.44106 0.0
H464 H 0.9598 0.67195 0.40558 0.0
H465 H 0.97796 0.68923 0.28865 0.0
H466 H 0.99134 0.71267 0.32346 0.0
H467 H 0.06266 0.72564 0.50737 0.0
H468 H 0.03344 0.7306 0.49805 0.0
H469 H 0.04002 0.73155 0.36557 0.0
H470 H 0.06946 0.72637 0.37463 0.0
H471 H 0.01519 0.71172 0.38769 0.0
H472 H 0.03023 0.76667 0.41607 0.0
H473 H 0.04405 0.78945 0.45225 0.0
H474 H 0.01712 0.77848 0.56309 0.0
H475 H 0.0033 0.75547 0.5278 0.0
C476 C 0.9367 0.72601 0.40826 0.0
C477 C 0.9307 0.72283 0.4483 0.0
C478 C 0.95334 0.72939 0.402 0.0
C479 C 0.9642 0.72966 0.43567 0.0
C480 C 0.95812 0.72719 0.4758 0.0
C481 C 0.94154 0.72374 0.48207 0.0
C482 C 0.98209 0.73137 0.42929 0.0
C483 C 0.99038 0.74419 0.44934 0.0
C484 C 0.9911 0.71985 0.40562 0.0
C485 C 0.9831 0.70576 0.38476 0.0
C486 C 0.97425 0.69407 0.40774 0.0
C487 C 0.96666 0.68087 0.38777 0.0
C488 C 0.96797 0.67915 0.34487 0.0
C489 C 0.97692 0.6906 0.32187 0.0
C490 C 0.98451 0.70384 0.34169 0.0
C491 C 0.05797 0.72706 0.47621 0.0
C492 C 0.06837 0.72555 0.44171 0.0
C493 C 0.04126 0.73003 0.47095 0.0
C494 C 0.0346 0.73167 0.43114 0.0
C495 C 0.04496 0.73043 0.39657 0.0
C496 C 0.06176 0.72747 0.40181 0.0
C497 C 0.01661 0.7333 0.42614 0.0
C498 C 0.00824 0.72108 0.40398 0.0
C499 C 0.00756 0.74539 0.44784 0.0
C500 C 0.01578 0.75928 0.46928 0.0
C501 C 0.02733 0.76904 0.44824 0.0
C502 C 0.03516 0.78201 0.46859 0.0
C503 C 0.03148 0.7854 0.50995 0.0
C504 C 0.01995 0.77584 0.53104 0.0
C505 C 0.01209 0.76285 0.51085 0.0
H506 H 0.03756 0.79544 0.52565 0.0
H507 H 0.9621 0.66892 0.32946 0.0
H508 H 0.2583 0.06651 0.5928 0.0
H509 H 0.25864 0.03683 0.60444 0.0
H510 H 0.28408 0.0299 0.48862 0.0
H511 H 0.28402 0.0595 0.47699 0.0
H512 H 0.24679 0.01048 0.56234 0.0
H513 H 0.31303 0.00087 0.50082 0.0
H514 H 0.33893 0.01643 0.49517 0.0
H515 H 0.32492 0.04619 0.59905 0.0
H516 H 0.29907 0.03066 0.60571 0.0
H517 H 0.26425 0.92835 0.50549 0.0
H518 H 0.25978 0.95787 0.51152 0.0
H519 H 0.29293 0.9597 0.61557 0.0
H520 H 0.29766 0.93017 0.60943 0.0
H521 H 0.30075 0.98217 0.56 0.0
H522 H 0.25204 0.96587 0.62955 0.0
H523 H 0.22625 0.95062 0.64055 0.0
H524 H 0.20548 0.97283 0.53204 0.0
H525 H 0.23123 0.98805 0.52003 0.0
C526 C 0.26387 0.05866 0.56967 0.0
C527 C 0.27129 0.06536 0.53416 0.0
C528 C 0.26401 0.04171 0.57634 0.0
C529 C 0.2716 0.03123 0.54771 0.0
C530 C 0.27841 0.03783 0.51145 0.0
C531 C 0.27832 0.05474 0.50481 0.0
C532 C 0.27295 0.01344 0.55616 0.0
C533 C 0.25856 0.00426 0.56196 0.0
C534 C 0.28837 0.00545 0.55679 0.0
C535 C 0.30405 0.01468 0.55352 0.0
C536 C 0.31552 0.01067 0.52259 0.0
C537 C 0.33018 0.0195 0.51919 0.0
C538 C 0.33355 0.03232 0.54666 0.0
C539 C 0.32228 0.03629 0.57771 0.0
C540 C 0.30761 0.02749 0.58128 0.0
C541 C 0.27044 0.93498 0.53 0.0
C542 C 0.28141 0.92694 0.5568 0.0
C543 C 0.26779 0.95185 0.53356 0.0
C544 C 0.27596 0.96095 0.56414 0.0
C545 C 0.28651 0.95288 0.59175 0.0
C546 C 0.28918 0.93601 0.58821 0.0
C547 C 0.27454 0.97907 0.56494 0.0
C548 C 0.28895 0.98835 0.5608 0.0
C549 C 0.25916 0.98713 0.56665 0.0
C550 C 0.24363 0.97801 0.57373 0.0
C551 C 0.24202 0.96741 0.60784 0.0
C552 C 0.2274 0.95878 0.61429 0.0
C553 C 0.21425 0.96073 0.58697 0.0
C554 C 0.21568 0.97133 0.55317 0.0
C555 C 0.23028 0.97998 0.54656 0.0
H556 H 0.20294 0.95404 0.59202 0.0
H557 H 0.3449 0.03915 0.54394 0.0
H558 H 0.06691 0.31596 0.53604 0.0
H559 H 0.03704 0.31438 0.53916 0.0
H560 H 0.03887 0.264 0.49812 0.0
H561 H 0.06884 0.26555 0.49426 0.0
H562 H 0.01703 0.28122 0.45454 0.0
H563 H 0.0287 0.27338 0.59791 0.0
H564 H 0.04135 0.2794 0.66555 0.0
H565 H 0.01679 0.32602 0.66926 0.0
H566 H 0.00417 0.32039 0.60134 0.0
H567 H 0.93137 0.26918 0.48446 0.0
H568 H 0.96115 0.26653 0.49131 0.0
H569 H 0.96448 0.3174 0.5275 0.0
H570 H 0.93471 0.32014 0.52112 0.0
H571 H 0.98355 0.29758 0.57607 0.0
H572 H 0.97381 0.30623 0.4305 0.0
H573 H 0.96123 0.30036 0.36267 0.0
H574 H 0.98236 0.25207 0.36352 0.0
H575 H 0.99489 0.25758 0.43167 0.0
C576 C 0.061 0.30448 0.52804 0.0
C577 C 0.07025 0.29089 0.51478 0.0
C578 C 0.04391 0.30357 0.53006 0.0
C579 C 0.03574 0.28902 0.51924 0.0
C580 C 0.04495 0.27534 0.50666 0.0
C581 C 0.06206 0.27624 0.50456 0.0
C582 C 0.01757 0.28847 0.51868 0.0
C583 C 0.00971 0.28448 0.48137 0.0
C584 C 0.00804 0.29308 0.55343 0.0
C585 C 0.01559 0.29651 0.59434 0.0
C586 C 0.0261 0.28498 0.61298 0.0
C587 C 0.03324 0.2883 0.65141 0.0
C588 C 0.0299 0.30309 0.67165 0.0
C589 C 0.01938 0.31457 0.65354 0.0
C590 C 0.01221 0.31131 0.61509 0.0
C591 C 0.93842 0.2798 0.49396 0.0
C592 C 0.93069 0.2949 0.50204 0.0
C593 C 0.95543 0.27826 0.49779 0.0
C594 C 0.965 0.29181 0.50957 0.0
C595 C 0.95729 0.3068 0.51839 0.0
C596 C 0.94029 0.30836 0.51453 0.0
C597 C 0.9831 0.29048 0.51189 0.0
C598 C 0.99091 0.29414 0.54945 0.0
C599 C 0.99261 0.28556 0.4774 0.0
C600 C 0.98513 0.28225 0.43638 0.0
C601 C 0.97566 0.29431 0.41638 0.0
C602 C 0.96856 0.29106 0.37785 0.0
C603 C 0.97096 0.27583 0.35886 0.0
C604 C 0.9805 0.26384 0.37831 0.0
C605 C 0.98761 0.26703 0.41687 0.0
H606 H 0.96545 0.27334 0.32903 0.0
H607 H 0.03545 0.30565 0.7014 0.0
H608 H 0.26363 0.35874 0.99206 0.0
H609 H 0.28551 0.33826 0.99505 0.0
H610 H 0.26251 0.316 0.10145 0.0
H611 H 0.2408 0.3367 0.09937 0.0
H612 H 0.29526 0.31552 0.10913 0.0
H613 H 0.25593 0.30102 0.00465 0.0
H614 H 0.23891 0.30585 0.94272 0.0
H615 H 0.28236 0.31301 0.86961 0.0
H616 H 0.29964 0.3085 0.93131 0.0
H617 H 0.32639 0.23434 0.09114 0.0
H618 H 0.30903 0.25876 0.09436 0.0
H619 H 0.33578 0.28004 0.99238 0.0
H620 H 0.35319 0.25559 0.98874 0.0
H621 H 0.30243 0.28196 0.98217 0.0
H622 H 0.34171 0.29438 0.08847 0.0
H623 H 0.35788 0.28892 0.15149 0.0
H624 H 0.31346 0.28443 0.22224 0.0
H625 H 0.29702 0.28963 0.1595 0.0
C626 C 0.26335 0.34962 0.01644 0.0
C627 C 0.2504 0.34921 0.04519 0.0
C628 C 0.27583 0.33791 0.01804 0.0
C629 C 0.27544 0.32542 0.04795 0.0
C630 C 0.263 0.3255 0.07802 0.0
C631 C 0.25059 0.33732 0.07672 0.0
C632 C 0.28736 0.31169 0.04626 0.0
C633 C 0.29674 0.30809 0.08151 0.0
C634 C 0.28943 0.30215 0.00998 0.0
C635 C 0.27907 0.30459 0.97268 0.0
C636 C 0.26185 0.30373 0.97542 0.0
C637 C 0.25216 0.3064 0.94036 0.0
C638 C 0.25955 0.30977 0.90228 0.0
C639 C 0.27666 0.31042 0.89915 0.0
C640 C 0.28641 0.3078 0.93415 0.0
C641 C 0.32865 0.24424 0.06948 0.0
C642 C 0.34116 0.24303 0.03965 0.0
C643 C 0.31876 0.25821 0.07152 0.0
C644 C 0.32123 0.27125 0.04385 0.0
C645 C 0.33372 0.27011 0.01408 0.0
C646 C 0.34367 0.25616 0.01211 0.0
C647 C 0.31034 0.28579 0.04503 0.0
C648 C 0.30107 0.28949 0.00967 0.0
C649 C 0.30826 0.29528 0.08134 0.0
C650 C 0.31813 0.29226 0.11919 0.0
C651 C 0.33539 0.2921 0.1174 0.0
C652 C 0.3446 0.28908 0.15309 0.0
C653 C 0.3367 0.28629 0.19083 0.0
C654 C 0.31957 0.28657 0.19298 0.0
C655 C 0.31029 0.28958 0.15737 0.0
H656 H 0.34386 0.28395 0.21842 0.0
H657 H 0.25202 0.31185 0.87517 0.0
H658 H 0.72825 0.35727 0.99479 0.0
H659 H 0.70434 0.33949 0.00518 0.0
H660 H 0.7365 0.29824 0.02657 0.0
H661 H 0.76031 0.31574 0.01515 0.0
H662 H 0.71299 0.28942 0.9771 0.0
H663 H 0.71613 0.31844 0.10627 0.0
H664 H 0.71718 0.34273 0.15174 0.0
H665 H 0.66998 0.35822 0.10719 0.0
H666 H 0.66876 0.33411 0.06101 0.0
H667 H 0.66293 0.23382 0.08512 0.0
H668 H 0.68233 0.25647 0.07749 0.0
H669 H 0.64594 0.28445 0.01113 0.0
H670 H 0.62643 0.26163 0.01779 0.0
H671 H 0.6692 0.30137 0.07972 0.0
H672 H 0.66706 0.27049 0.95045 0.0
H673 H 0.66654 0.24441 0.91166 0.0
H674 H 0.71327 0.23113 0.96328 0.0
H675 H 0.7139 0.25702 0.00301 0.0
C676 C 0.7302 0.34441 0.0018 0.0
C677 C 0.74616 0.33789 0.00406 0.0
C678 C 0.71653 0.33428 0.00789 0.0
C679 C 0.71863 0.31755 0.01695 0.0
C680 C 0.73457 0.31109 0.01944 0.0
C681 C 0.74818 0.32113 0.01298 0.0
C682 C 0.70432 0.30656 0.02314 0.0
C683 C 0.70348 0.29207 -0.00033 0.0
C684 C 0.69173 0.31007 0.05215 0.0
C685 C 0.69245 0.32458 0.07982 0.0
C686 C 0.70604 0.3271 0.1059 0.0
C687 C 0.70665 0.34082 0.13186 0.0
C688 C 0.69368 0.35204 0.13226 0.0
C689 C 0.68004 0.34953 0.10678 0.0
C690 C 0.67938 0.33584 0.08073 0.0
C691 C 0.65891 0.24489 0.06953 0.0
C692 C 0.64321 0.2459 0.0517 0.0
C693 C 0.67001 0.2578 0.06528 0.0
C694 C 0.6655 0.27202 0.0437 0.0
C695 C 0.64954 0.27354 0.02801 0.0
C696 C 0.63848 0.26049 0.03165 0.0
C697 C 0.67812 0.28439 0.03396 0.0
C698 C 0.67863 0.299 0.05676 0.0
C699 C 0.69056 0.28094 0.00478 0.0
C700 C 0.69044 0.26561 0.97999 0.0
C701 C 0.67716 0.26195 0.95377 0.0
C702 C 0.67685 0.24721 0.93159 0.0
C703 C 0.68985 0.2361 0.93509 0.0
C704 C 0.70321 0.23974 0.96064 0.0
C705 C 0.70355 0.25445 0.98297 0.0
H706 H 0.68957 0.22468 0.91795 0.0
H707 H 0.69417 0.36265 0.15239 0.0
H708 H 0.75754 0.67484 0.04933 0.0
H709 H 0.73417 0.69303 0.03868 0.0
H710 H 0.7109 0.6564 0.96208 0.0
H711 H 0.73451 0.6382 0.97179 0.0
H712 H 0.70868 0.68544 0.92676 0.0
H713 H 0.69706 0.66412 0.06081 0.0
H714 H 0.70271 0.65659 0.13333 0.0
H715 H 0.7117 0.70718 0.16303 0.0
H716 H 0.70633 0.71499 0.09054 0.0
H717 H 0.63368 0.73884 0.00219 0.0
H718 H 0.65161 0.71492 0.00785 0.0
H719 H 0.68816 0.73943 0.93345 0.0
H720 H 0.67016 0.76326 0.92689 0.0
H721 H 0.68026 0.71287 0.04368 0.0
H722 H 0.71093 0.71181 0.88097 0.0
H723 H 0.70351 0.71774 0.80849 0.0
H724 H 0.65275 0.70853 0.83599 0.0
H725 H 0.65988 0.70231 0.90846 0.0
C726 C 0.74741 0.67057 0.03044 0.0
C727 C 0.74787 0.65505 0.01147 0.0
C728 C 0.73402 0.68098 0.02452 0.0
C729 C 0.72069 0.676 0.0 0.0
C730 C 0.72105 0.66047 0.98117 0.0
C731 C 0.73452 0.65008 0.98686 0.0
C732 C 0.70667 0.68727 0.9931 0.0
C733 C 0.70239 0.69137 0.9523 0.0
C734 C 0.69822 0.69475 0.02643 0.0
C735 C 0.7014 0.69012 0.07014 0.0
C736 C 0.70035 0.67363 0.08274 0.0
C737 C 0.70349 0.66931 0.12385 0.0
C738 C 0.70759 0.6814 0.15275 0.0
C739 C 0.70853 0.69783 0.14061 0.0
C740 C 0.70542 0.70221 0.09952 0.0
C741 C 0.64546 0.73907 0.9866 0.0
C742 C 0.65053 0.75297 0.96419 0.0
C743 C 0.6557 0.7254 0.98995 0.0
C744 C 0.67118 0.72534 0.97092 0.0
C745 C 0.67615 0.73908 0.94784 0.0
C746 C 0.66587 0.75274 0.94428 0.0
C747 C 0.68257 0.71137 0.97735 0.0
C748 C 0.6864 0.70681 0.0181 0.0
C749 C 0.69032 0.70322 0.94396 0.0
C750 C 0.68594 0.70672 0.90025 0.0
C751 C 0.69819 0.71097 0.87151 0.0
C752 C 0.69403 0.7144 0.83043 0.0
C753 C 0.67766 0.71356 0.81768 0.0
C754 C 0.66542 0.70923 0.84594 0.0
C755 C 0.66951 0.70577 0.88704 0.0
H756 H 0.67447 0.71623 0.78587 0.0
H757 H 0.71001 0.67803 0.18457 0.0
H758 H 0.25474 0.64332 0.9934 0.0
H759 H 0.27806 0.66229 0.99433 0.0
H760 H 0.2454 0.70274 0.96885 0.0
H761 H 0.22209 0.68392 0.9675 0.0
H762 H 0.27376 0.70467 0.92385 0.0
H763 H 0.25764 0.69522 0.06601 0.0
H764 H 0.25178 0.67807 0.12713 0.0
H765 H 0.30116 0.65959 0.12501 0.0
H766 H 0.30724 0.67648 0.06346 0.0
H767 H 0.31595 0.7746 0.99246 0.0
H768 H 0.29636 0.75216 0.98479 0.0
H769 H 0.33436 0.71716 0.0142 0.0
H770 H 0.35408 0.73961 0.02243 0.0
H771 H 0.30573 0.71024 0.05387 0.0
H772 H 0.3227 0.72198 0.91572 0.0
H773 H 0.32855 0.73947 0.85524 0.0
H774 H 0.27784 0.7537 0.84943 0.0
H775 H 0.27172 0.73649 0.91032 0.0
C776 C 0.25255 0.65623 0.98764 0.0
C777 C 0.23656 0.66215 0.98068 0.0
C778 C 0.26587 0.66704 0.98829 0.0
C779 C 0.2634 0.68392 0.98208 0.0
C780 C 0.24755 0.68975 0.97373 0.0
C781 C 0.23424 0.67899 0.97316 0.0
C782 C 0.27715 0.69568 0.98592 0.0
C783 C 0.2807 0.70598 0.95232 0.0
C784 C 0.28645 0.69704 0.02275 0.0
C785 C 0.28283 0.68696 0.05987 0.0
C786 C 0.2672 0.6874 0.07838 0.0
C787 C 0.26385 0.67774 0.11313 0.0
C788 C 0.27607 0.66771 0.12987 0.0
C789 C 0.29169 0.66734 0.11196 0.0
C790 C 0.2951 0.67696 0.07716 0.0
C791 C 0.32016 0.76215 0.99747 0.0
C792 C 0.33659 0.75887 0.00786 0.0
C793 C 0.30896 0.74933 0.99285 0.0
C794 C 0.31399 0.733 0.99825 0.0
C795 C 0.33027 0.72969 0.00968 0.0
C796 C 0.34151 0.74252 0.01434 0.0
C797 C 0.30216 0.71946 0.99204 0.0
C798 C 0.29896 0.70881 0.02518 0.0
C799 C 0.2932 0.71778 0.95475 0.0
C800 C 0.29678 0.72803 0.91782 0.0
C801 C 0.31282 0.72892 0.90174 0.0
C802 C 0.31618 0.73878 0.86735 0.0
C803 C 0.30358 0.74772 0.84855 0.0
C804 C 0.28758 0.74678 0.86404 0.0
C805 C 0.28416 0.73696 0.89847 0.0
H806 H 0.30621 0.75535 0.82194 0.0
H807 H 0.27345 0.66024 0.15678 0.0
H808 H 0.86149 0.75375 0.48721 0.0
H809 H 0.84192 0.77654 0.48855 0.0
H810 H 0.80319 0.74309 0.52303 0.0
H811 H 0.82259 0.72025 0.52147 0.0
H812 H 0.79361 0.7639 0.46226 0.0
H813 H 0.82073 0.76753 0.59441 0.0
H814 H 0.84457 0.76975 0.64109 0.0
H815 H 0.85787 0.81569 0.58524 0.0
H816 H 0.83421 0.81362 0.53778 0.0
H817 H 0.7322 0.81535 0.54158 0.0
H818 H 0.75433 0.79532 0.53598 0.0
H819 H 0.78758 0.83344 0.49647 0.0
H820 H 0.76541 0.8537 0.50199 0.0
H821 H 0.80131 0.81194 0.55477 0.0
H822 H 0.77253 0.80907 0.42602 0.0
H823 H 0.74844 0.80656 0.38029 0.0
H824 H 0.73807 0.75886 0.43035 0.0
H825 H 0.76193 0.7612 0.47699 0.0
C826 C 0.8488 0.75124 0.49502 0.0
C827 C 0.84359 0.7352 0.50432 0.0
C828 C 0.83766 0.76429 0.49592 0.0
C829 C 0.82115 0.7615 0.50621 0.0
C830 C 0.81589 0.74548 0.51501 0.0
C831 C 0.82701 0.73246 0.51422 0.0
C832 C 0.80925 0.77523 0.50779 0.0
C833 C 0.79522 0.77434 0.48275 0.0
C834 C 0.81161 0.78904 0.53368 0.0
C835 C 0.82582 0.79032 0.56222 0.0
C836 C 0.82882 0.77803 0.59183 0.0
C837 C 0.84228 0.77928 0.61848 0.0
C838 C 0.85276 0.79283 0.61605 0.0
C839 C 0.84976 0.80519 0.58703 0.0
C840 C 0.83632 0.80399 0.56026 0.0
C841 C 0.74423 0.81954 0.53194 0.0
C842 C 0.74702 0.83611 0.52199 0.0
C843 C 0.75684 0.80805 0.52861 0.0
C844 C 0.7725 0.81289 0.51527 0.0
C845 C 0.77553 0.82949 0.50664 0.0
C846 C 0.76286 0.84102 0.50975 0.0
C847 C 0.78554 0.80043 0.50982 0.0
C848 C 0.79979 0.80158 0.53402 0.0
C849 C 0.78336 0.7868 0.48322 0.0
C850 C 0.76896 0.78538 0.45527 0.0
C851 C 0.76503 0.79811 0.42757 0.0
C852 C 0.75143 0.7967 0.40142 0.0
C853 C 0.74172 0.78256 0.40244 0.0
C854 C 0.7456 0.76981 0.42962 0.0
C855 C 0.75916 0.77117 0.45591 0.0
H856 H 0.73123 0.78146 0.38211 0.0
H857 H 0.86317 0.79377 0.63672 0.0
H858 H 0.26337 0.82735 0.41658 0.0
H859 H 0.24058 0.80796 0.41151 0.0
H860 H 0.21453 0.83443 0.50677 0.0
H861 H 0.2374 0.85372 0.51263 0.0
H862 H 0.21439 0.80196 0.52117 0.0
H863 H 0.20321 0.83718 0.40451 0.0
H864 H 0.21018 0.85153 0.33964 0.0
H865 H 0.2199 0.80533 0.28048 0.0
H866 H 0.21318 0.79072 0.34517 0.0
H867 H 0.13896 0.76052 0.50366 0.0
H868 H 0.15983 0.78206 0.50295 0.0
H869 H 0.18463 0.75763 0.40217 0.0
H870 H 0.16343 0.73639 0.4017 0.0
H871 H 0.18529 0.78936 0.39005 0.0
H872 H 0.19766 0.75399 0.50451 0.0
H873 H 0.19188 0.7388 0.56891 0.0
H874 H 0.18146 0.78408 0.63169 0.0
H875 H 0.18696 0.79953 0.56749 0.0
C876 C 0.25275 0.82911 0.43631 0.0
C877 C 0.2522 0.84206 0.46507 0.0
C878 C 0.23971 0.81805 0.43322 0.0
C879 C 0.2258 0.81984 0.45851 0.0
C880 C 0.22515 0.83284 0.48696 0.0
C881 C 0.23821 0.84387 0.49018 0.0
C882 C 0.21218 0.80782 0.45641 0.0
C883 C 0.20784 0.79939 0.49265 0.0
C884 C 0.20403 0.8041 0.41889 0.0
C885 C 0.20781 0.81287 0.37979 0.0
C886 C 0.20692 0.83009 0.37774 0.0
C887 C 0.21082 0.83827 0.34099 0.0
C888 C 0.21552 0.82935 0.30599 0.0
C889 C 0.21627 0.81223 0.30762 0.0
C890 C 0.2124 0.80399 0.3443 0.0
C891 C 0.1488 0.7598 0.48119 0.0
C892 C 0.14963 0.74673 0.45292 0.0
C893 C 0.16076 0.77208 0.48092 0.0
C894 C 0.17399 0.77128 0.45307 0.0
C895 C 0.17457 0.75848 0.42401 0.0
C896 C 0.16246 0.74634 0.42382 0.0
C897 C 0.18742 0.78356 0.4549 0.0
C898 C 0.19177 0.79199 0.41862 0.0
C899 C 0.19574 0.78716 0.49231 0.0
C900 C 0.19257 0.7779 0.53108 0.0
C901 C 0.19403 0.7607 0.53198 0.0
C902 C 0.19082 0.75204 0.56845 0.0
C903 C 0.18626 0.76047 0.60434 0.0
C904 C 0.18497 0.77757 0.60386 0.0
C905 C 0.18815 0.78629 0.56745 0.0
H906 H 0.18377 0.75375 0.63254 0.0
H907 H 0.21855 0.83571 0.27759 0.0
H908 H 0.25251 0.15019 0.38136 0.0
H909 H 0.23068 0.17069 0.37572 0.0
H910 H 0.21119 0.15533 0.49361 0.0
H911 H 0.23299 0.13482 0.49966 0.0
H912 H 0.18666 0.16293 0.4329 0.0
H913 H 0.23569 0.18605 0.49455 0.0
H914 H 0.26533 0.19219 0.49663 0.0
H915 H 0.26128 0.21912 0.38286 0.0
H916 H 0.23163 0.21291 0.37982 0.0
H917 H 0.14369 0.23421 0.49951 0.0
H918 H 0.16113 0.20995 0.49186 0.0
H919 H 0.18481 0.2321 0.38621 0.0
H920 H 0.16778 0.25651 0.39437 0.0
H921 H 0.20687 0.2204 0.43616 0.0
H922 H 0.15749 0.19948 0.37643 0.0
H923 H 0.12795 0.19302 0.3727 0.0
H924 H 0.13232 0.16195 0.47945 0.0
H925 H 0.16186 0.1684 0.48419 0.0
C926 C 0.24341 0.15096 0.40574 0.0
C927 C 0.24457 0.14103 0.44119 0.0
C928 C 0.23097 0.16268 0.40246 0.0
C929 C 0.21947 0.16458 0.43445 0.0
C930 C 0.21998 0.15401 0.46864 0.0
C931 C 0.23249 0.14238 0.47212 0.0
C932 C 0.20794 0.17858 0.43423 0.0
C933 C 0.191 0.17552 0.43388 0.0
C934 C 0.21372 0.19494 0.43467 0.0
C935 C 0.23149 0.19887 0.43674 0.0
C936 C 0.24115 0.19317 0.46982 0.0
C937 C 0.25794 0.19668 0.4712 0.0
C938 C 0.26519 0.206 0.43984 0.0
C939 C 0.25565 0.21187 0.40709 0.0
C940 C 0.23885 0.20838 0.40554 0.0
C941 C 0.15252 0.23384 0.47446 0.0
C942 C 0.15441 0.24729 0.44765 0.0
C943 C 0.16242 0.21993 0.46997 0.0
C944 C 0.17418 0.21914 0.4382 0.0
C945 C 0.17584 0.23244 0.41097 0.0
C946 C 0.16608 0.24639 0.41567 0.0
C947 C 0.18542 0.20487 0.43475 0.0
C948 C 0.2024 0.20787 0.43467 0.0
C949 C 0.17963 0.18848 0.43364 0.0
C950 C 0.16187 0.18455 0.43088 0.0
C951 C 0.15213 0.19137 0.39931 0.0
C952 C 0.13539 0.18769 0.39698 0.0
C953 C 0.12825 0.17711 0.42588 0.0
C954 C 0.13786 0.17016 0.45711 0.0
C955 C 0.15461 0.17381 0.45961 0.0
H956 H 0.11529 0.17427 0.42401 0.0
H957 H 0.2782 0.20871 0.44102 0.0
H958 H 0.84161 0.25231 0.58216 0.0
H959 H 0.82182 0.22989 0.58252 0.0
H960 H 0.84043 0.21301 0.4648 0.0
H961 H 0.85976 0.23603 0.46339 0.0
H962 H 0.80944 0.21283 0.46115 0.0
H963 H 0.84687 0.19155 0.5599 0.0
H964 H 0.86488 0.19138 0.6212 0.0
H965 H 0.82329 0.20007 0.69992 0.0
H966 H 0.80504 0.20052 0.63904 0.0
H967 H 0.75846 0.14086 0.47856 0.0
H968 H 0.78348 0.15765 0.47758 0.0
H969 H 0.76296 0.18919 0.57151 0.0
H970 H 0.73785 0.1727 0.5722 0.0
H971 H 0.79714 0.17858 0.58426 0.0
H972 H 0.76086 0.20243 0.48031 0.0
H973 H 0.74369 0.20099 0.41755 0.0
H974 H 0.78531 0.18487 0.34675 0.0
H975 H 0.80267 0.18599 0.40929 0.0
C976 C 0.84164 0.24369 0.55661 0.0
C977 C 0.85223 0.2459 0.52275 0.0
C978 C 0.83038 0.23079 0.55695 0.0
C979 C 0.82977 0.21954 0.524 0.0
C980 C 0.84065 0.22151 0.4906 0.0
C981 C 0.85171 0.23463 0.48986 0.0
C982 C 0.817 0.20651 0.52317 0.0
C983 C 0.80704 0.20511 0.48782 0.0
C984 C 0.81367 0.19647 0.55802 0.0
C985 C 0.82459 0.19618 0.59481 0.0
C986 C 0.84157 0.19354 0.59024 0.0
C987 C 0.85182 0.19337 0.62493 0.0
C988 C 0.84524 0.19574 0.66442 0.0
C989 C 0.82837 0.19824 0.66931 0.0
C990 C 0.81806 0.19843 0.63472 0.0
C991 C 0.75933 0.15134 0.4991 0.0
C992 C 0.74619 0.15554 0.5253 0.0
C993 C 0.77359 0.16089 0.49848 0.0
C994 C 0.77499 0.17461 0.52447 0.0
C995 C 0.76207 0.1786 0.55134 0.0
C996 C 0.74772 0.16923 0.55149 0.0
C997 C 0.78964 0.18526 0.52272 0.0
C998 C 0.79986 0.18617 0.55753 0.0
C999 C 0.79341 0.19461 0.48718 0.0
C1000 C 0.78301 0.1941 0.44955 0.0
C1001 C 0.76631 0.19844 0.45144 0.0
C1002 C 0.75655 0.19771 0.4159 0.0
C1003 C 0.76339 0.19279 0.37821 0.0
C1004 C 0.78002 0.18864 0.37597 0.0
C1005 C 0.78982 0.18933 0.41145 0.0
H1006 H 0.75581 0.19222 0.35073 0.0
H1007 H 0.8532 0.1956 0.69124 0.0
H1008 H 0.12776 0.34412 0.40217 0.0
H1009 H 0.13559 0.3538 0.33309 0.0
H1010 H 0.13259 0.30423 0.2866 0.0
H1011 H 0.12501 0.29447 0.35518 0.0
H1012 H 0.16103 0.31819 0.26601 0.0
H1013 H 0.10394 0.33292 0.26079 0.0
H1014 H 0.07851 0.3463 0.28491 0.0
H1015 H 0.10163 0.39353 0.27544 0.0
H1016 H 0.12728 0.38041 0.25179 0.0
H1017 H 0.17197 0.33309 0.05429 0.0
H1018 H 0.15745 0.32596 0.11805 0.0
H1019 H 0.1649 0.37506 0.16431 0.0
H1020 H 0.17939 0.38235 0.10063 0.0
H1021 H 0.1338 0.36207 0.18457 0.0
H1022 H 0.1909 0.34741 0.19214 0.0
H1023 H 0.21634 0.33429 0.16724 0.0
H1024 H 0.19317 0.287 0.17317 0.0
H1025 H 0.16747 0.29989 0.19738 0.0
C1026 C 0.12859 0.33533 0.3771 0.0
C1027 C 0.12588 0.31852 0.38424 0.0
C1028 C 0.133 0.34088 0.33764 0.0
C1029 C 0.13464 0.32972 0.30472 0.0
C1030 C 0.13146 0.31304 0.31159 0.0
C1031 C 0.12711 0.30749 0.35087 0.0
C1032 C 0.14071 0.33513 0.26371 0.0
C1033 C 0.15491 0.32761 0.24798 0.0
C1034 C 0.133 0.34775 0.24072 0.0
C1035 C 0.11759 0.35567 0.25493 0.0
C1036 C 0.10365 0.34615 0.2642 0.0
C1037 C 0.08919 0.35369 0.27772 0.0
C1038 C 0.08847 0.37075 0.28182 0.0
C1039 C 0.10221 0.38031 0.27231 0.0
C1040 C 0.11671 0.37283 0.25881 0.0
C1041 C 0.17029 0.34245 0.0777 0.0
C1042 C 0.17702 0.35821 0.07267 0.0
C1043 C 0.162 0.33836 0.11409 0.0
C1044 C 0.16031 0.34994 0.14598 0.0
C1045 C 0.16611 0.36596 0.14003 0.0
C1046 C 0.17447 0.37006 0.10374 0.0
C1047 C 0.15389 0.34492 0.18687 0.0
C1048 C 0.13979 0.35258 0.20264 0.0
C1049 C 0.16169 0.33244 0.2101 0.0
C1050 C 0.17721 0.32463 0.19615 0.0
C1051 C 0.19119 0.33423 0.18783 0.0
C1052 C 0.20566 0.32683 0.17387 0.0
C1053 C 0.20636 0.30983 0.16853 0.0
C1054 C 0.1926 0.30018 0.17726 0.0
C1055 C 0.17808 0.30752 0.1911 0.0
H1056 H 0.21758 0.30413 0.15771 0.0
H1057 H 0.07726 0.37656 0.29228 0.0
H1058 H 0.68997 0.11839 0.38639 0.0
H1059 H 0.67664 0.12436 0.32047 0.0
H1060 H 0.64755 0.16202 0.37908 0.0
H1061 H 0.66071 0.15601 0.44548 0.0
H1062 H 0.62938 0.14359 0.32482 0.0
H1063 H 0.6807 0.17257 0.32446 0.0
H1064 H 0.7107 0.17559 0.33149 0.0
H1065 H 0.71809 0.14129 0.23228 0.0
H1066 H 0.68812 0.13789 0.22505 0.0
H1067 H 0.60874 0.19126 0.14724 0.0
H1068 H 0.61814 0.18047 0.21364 0.0
H1069 H 0.64611 0.14316 0.1503 0.0
H1070 H 0.6368 0.1539 0.08363 0.0
H1071 H 0.66448 0.16013 0.20639 0.0
H1072 H 0.61266 0.13253 0.20433 0.0
H1073 H 0.58261 0.13014 0.19745 0.0
H1074 H 0.576 0.16255 0.30095 0.0
H1075 H 0.60604 0.16533 0.30809 0.0
C1076 C 0.68068 0.1279 0.3854 0.0
C1077 C 0.6765 0.13683 0.42115 0.0
C1078 C 0.6731 0.13131 0.34765 0.0
C1079 C 0.66126 0.14377 0.34482 0.0
C1080 C 0.65668 0.15237 0.38064 0.0
C1081 C 0.66426 0.14896 0.41849 0.0
C1082 C 0.6541 0.14818 0.30417 0.0
C1083 C 0.63701 0.14737 0.299 0.0
C1084 C 0.66413 0.15278 0.27033 0.0
C1085 C 0.68217 0.15484 0.27452 0.0
C1086 C 0.68872 0.16557 0.30438 0.0
C1087 C 0.70572 0.16737 0.30836 0.0
C1088 C 0.7163 0.1586 0.28243 0.0
C1089 C 0.70989 0.14805 0.25239 0.0
C1090 C 0.69289 0.14619 0.24832 0.0
C1091 C 0.61671 0.18061 0.1474 0.0
C1092 C 0.62209 0.17348 0.11014 0.0
C1093 C 0.62201 0.17442 0.18541 0.0
C1094 C 0.63277 0.16099 0.18687 0.0
C1095 C 0.63779 0.15354 0.14979 0.0
C1096 C 0.63242 0.15967 0.11175 0.0
C1097 C 0.63974 0.15552 0.22691 0.0
C1098 C 0.65683 0.15621 0.23204 0.0
C1099 C 0.62969 0.1509 0.26068 0.0
C1100 C 0.61161 0.14926 0.2565 0.0
C1101 C 0.60481 0.13927 0.22541 0.0
C1102 C 0.58777 0.13782 0.2215 0.0
C1103 C 0.5774 0.14622 0.24868 0.0
C1104 C 0.58405 0.15606 0.27989 0.0
C1105 C 0.60108 0.15757 0.28391 0.0
H1106 H 0.56422 0.14508 0.24561 0.0
H1107 H 0.72945 0.16002 0.28556 0.0
H1108 H 0.88824 0.67663 0.37763 0.0
H1109 H 0.88022 0.66434 0.31179 0.0
H1110 H 0.83511 0.64711 0.36679 0.0
H1111 H 0.84328 0.65899 0.43324 0.0
H1112 H 0.84678 0.62497 0.31273 0.0
H1113 H 0.83607 0.68291 0.31254 0.0
H1114 H 0.84289 0.71222 0.32099 0.0
H1115 H 0.8792 0.70839 0.22507 0.0
H1116 H 0.87275 0.67898 0.21645 0.0
H1117 H 0.79709 0.62196 0.13096 0.0
H1118 H 0.80912 0.62807 0.19852 0.0
H1119 H 0.85511 0.64028 0.13985 0.0
H1120 H 0.8432 0.63416 0.07206 0.0
H1121 H 0.8441 0.664 0.19498 0.0
H1122 H 0.85249 0.60572 0.19236 0.0
H1123 H 0.84409 0.57683 0.18393 0.0
H1124 H 0.81024 0.58173 0.28509 0.0
H1125 H 0.81825 0.61074 0.29374 0.0
C1126 C 0.8767 0.67005 0.37588 0.0
C1127 C 0.86628 0.66897 0.41044 0.0
C1128 C 0.87212 0.66305 0.33821 0.0
C1129 C 0.8569 0.65513 0.33418 0.0
C1130 C 0.84687 0.65324 0.3692 0.0
C1131 C 0.85154 0.66007 0.4071 0.0
C1132 C 0.85097 0.64987 0.2929 0.0
C1133 C 0.84606 0.63352 0.28705 0.0
C1134 C 0.85023 0.661 0.25928 0.0
C1135 C 0.85404 0.67871 0.26415 0.0
C1136 C 0.84559 0.68829 0.29345 0.0
C1137 C 0.84937 0.70492 0.29824 0.0
C1138 C 0.8615 0.71215 0.27366 0.0
C1139 C 0.86983 0.70277 0.24414 0.0
C1140 C 0.8661 0.68612 0.23926 0.0
C1141 C 0.80979 0.62585 0.13242 0.0
C1142 C 0.81919 0.62762 0.09617 0.0
C1143 C 0.81666 0.62925 0.17105 0.0
C1144 C 0.83302 0.6345 0.1741 0.0
C1145 C 0.84247 0.63618 0.13805 0.0
C1146 C 0.83565 0.63266 0.0994 0.0
C1147 C 0.83997 0.6391 0.21474 0.0
C1148 C 0.84498 0.6554 0.22052 0.0
C1149 C 0.84059 0.62796 0.24829 0.0
C1150 C 0.83587 0.61046 0.24345 0.0
C1151 C 0.84316 0.60068 0.21261 0.0
C1152 C 0.83849 0.58427 0.20783 0.0
C1153 C 0.82661 0.57746 0.23389 0.0
C1154 C 0.81943 0.58703 0.26489 0.0
C1155 C 0.82404 0.60345 0.26978 0.0
H1156 H 0.823 0.56476 0.23011 0.0
H1157 H 0.86442 0.72503 0.27742 0.0
H1158 H 0.30286 0.8861 0.37823 0.0
H1159 H 0.31375 0.8796 0.30979 0.0
H1160 H 0.35507 0.85506 0.36596 0.0
H1161 H 0.34445 0.86191 0.43471 0.0
H1162 H 0.3642 0.87104 0.29629 0.0
H1163 H 0.32164 0.83356 0.33676 0.0
H1164 H 0.29405 0.826 0.36186 0.0
H1165 H 0.27228 0.84874 0.2553 0.0
H1166 H 0.29975 0.8567 0.22994 0.0
H1167 H 0.38262 0.81349 0.13608 0.0
H1168 H 0.3755 0.82757 0.20044 0.0
H1169 H 0.33658 0.8534 0.13762 0.0
H1170 H 0.34359 0.83938 0.07305 0.0
H1171 H 0.32629 0.83818 0.20906 0.0
H1172 H 0.36999 0.87393 0.1668 0.0
H1173 H 0.39796 0.88084 0.14334 0.0
H1174 H 0.41807 0.8599 0.25422 0.0
H1175 H 0.39023 0.85265 0.2781 0.0
C1176 C 0.3144 0.87954 0.37604 0.0
C1177 C 0.32269 0.8743 0.41182 0.0
C1178 C 0.32059 0.87582 0.33692 0.0
C1179 C 0.33502 0.86654 0.33286 0.0
C1180 C 0.34387 0.86217 0.36846 0.0
C1181 C 0.33777 0.86606 0.4077 0.0
C1182 C 0.34011 0.86028 0.29178 0.0
C1183 C 0.35598 0.86374 0.27731 0.0
C1184 C 0.32927 0.85093 0.26689 0.0
C1185 C 0.31275 0.84587 0.28166 0.0
C1186 C 0.31097 0.83704 0.31881 0.0
C1187 C 0.29535 0.83268 0.33308 0.0
C1188 C 0.28142 0.83692 0.31024 0.0
C1189 C 0.28308 0.84548 0.273 0.0
C1190 C 0.29867 0.84992 0.25865 0.0
C1191 C 0.37265 0.8223 0.13582 0.0
C1192 C 0.36361 0.82527 0.0995 0.0
C1193 C 0.36866 0.83039 0.17258 0.0
C1194 C 0.35556 0.84157 0.17369 0.0
C1195 C 0.34674 0.84482 0.13733 0.0
C1196 C 0.3508 0.83683 0.10047 0.0
C1197 C 0.35037 0.84899 0.21341 0.0
C1198 C 0.33447 0.84563 0.22778 0.0
C1199 C 0.36125 0.85825 0.23832 0.0
C1200 C 0.37802 0.86262 0.22407 0.0
C1201 C 0.38038 0.87067 0.18603 0.0
C1202 C 0.39621 0.87467 0.17268 0.0
C1203 C 0.40979 0.87077 0.19722 0.0
C1204 C 0.40755 0.8629 0.23522 0.0
C1205 C 0.39174 0.85886 0.2487 0.0
H1206 H 0.42204 0.87388 0.18684 0.0
H1207 H 0.26934 0.83355 0.32136 0.0
H1208 H 0.11398 0.7062 0.6318 0.0
H1209 H 0.12074 0.69724 0.70188 0.0
H1210 H 0.12889 0.64799 0.65703 0.0
H1211 H 0.12146 0.65675 0.58712 0.0
H1212 H 0.11485 0.64657 0.72945 0.0
H1213 H 0.16098 0.67561 0.67337 0.0
H1214 H 0.17538 0.69886 0.6406 0.0
H1215 H 0.16253 0.72989 0.74307 0.0
H1216 H 0.14785 0.70686 0.7762 0.0
H1217 H 0.17313 0.61964 0.88076 0.0
H1218 H 0.1587 0.62818 0.81795 0.0
H1219 H 0.14264 0.67239 0.8792 0.0
H1220 H 0.15685 0.66385 0.94243 0.0
H1221 H 0.1591 0.6771 0.80173 0.0
H1222 H 0.11496 0.64552 0.85992 0.0
H1223 H 0.10229 0.62095 0.89098 0.0
H1224 H 0.11386 0.59299 0.78214 0.0
H1225 H 0.12682 0.61735 0.75064 0.0
C1226 C 0.11708 0.69343 0.63696 0.0
C1227 C 0.11737 0.6822 0.60396 0.0
C1228 C 0.12099 0.68834 0.67699 0.0
C1229 C 0.12569 0.67202 0.68456 0.0
C1230 C 0.12536 0.66065 0.65191 0.0
C1231 C 0.12116 0.66567 0.61196 0.0
C1232 C 0.13164 0.66699 0.72604 0.0
C1233 C 0.12462 0.65317 0.74508 0.0
C1234 C 0.14425 0.67572 0.74675 0.0
C1235 C 0.15317 0.68956 0.72704 0.0
C1236 C 0.16113 0.68743 0.68877 0.0
C1237 C 0.16935 0.70056 0.67015 0.0
C1238 C 0.16983 0.71586 0.68968 0.0
C1239 C 0.16213 0.71804 0.72794 0.0
C1240 C 0.15386 0.70495 0.74667 0.0
C1241 C 0.16635 0.63108 0.88103 0.0
C1242 C 0.16616 0.64112 0.91643 0.0
C1243 C 0.15808 0.6359 0.84522 0.0
C1244 C 0.14961 0.65088 0.84411 0.0
C1245 C 0.14909 0.66077 0.87962 0.0
C1246 C 0.15717 0.65585 0.91568 0.0
C1247 C 0.14233 0.65672 0.80491 0.0
C1248 C 0.1492 0.67064 0.78623 0.0
C1249 C 0.12984 0.64789 0.78427 0.0
C1250 C 0.12199 0.63324 0.80307 0.0
C1251 C 0.11493 0.6341 0.84275 0.0
C1252 C 0.10767 0.62022 0.8604 0.0
C1253 C 0.1073 0.60541 0.83859 0.0
C1254 C 0.11416 0.60447 0.79902 0.0
C1255 C 0.12145 0.61832 0.78123 0.0
H1256 H 0.10167 0.59468 0.85231 0.0
H1257 H 0.1762 0.72601 0.67521 0.0
H1258 H 0.28672 0.13545 0.62117 0.0
H1259 H 0.29561 0.14706 0.687 0.0
H1260 H 0.34362 0.12564 0.67028 0.0
H1261 H 0.3347 0.11367 0.60449 0.0
H1262 H 0.3332 0.12226 0.74902 0.0
H1263 H 0.33745 0.16601 0.65098 0.0
H1264 H 0.32788 0.18447 0.59554 0.0
H1265 H 0.28994 0.20294 0.67525 0.0
H1266 H 0.29913 0.1844 0.73101 0.0
H1267 H 0.3732 0.17308 0.89876 0.0
H1268 H 0.3649 0.15907 0.8352 0.0
H1269 H 0.31557 0.17745 0.8501 0.0
H1270 H 0.32376 0.19156 0.9136 0.0
H1271 H 0.32759 0.18226 0.77175 0.0
H1272 H 0.32369 0.138 0.86983 0.0
H1273 H 0.33376 0.11952 0.92467 0.0
H1274 H 0.37201 0.10229 0.84412 0.0
H1275 H 0.36229 0.12084 0.78896 0.0
C1276 C 0.29917 0.13315 0.63148 0.0
C1277 C 0.31006 0.12374 0.60745 0.0
C1278 C 0.30424 0.13984 0.66907 0.0
C1279 C 0.32035 0.13744 0.68318 0.0
C1280 C 0.33114 0.12769 0.65984 0.0
C1281 C 0.32604 0.1209 0.62224 0.0
C1282 C 0.32593 0.14532 0.72201 0.0
C1283 C 0.3322 0.13541 0.75381 0.0
C1284 C 0.32437 0.16244 0.72841 0.0
C1285 C 0.31889 0.1737 0.69505 0.0
C1286 C 0.32699 0.17392 0.65659 0.0
C1287 C 0.32165 0.18441 0.62512 0.0
C1288 C 0.30829 0.19484 0.63184 0.0
C1289 C 0.30027 0.19484 0.67008 0.0
C1290 C 0.30555 0.18435 0.70165 0.0
C1291 C 0.36056 0.17407 0.88867 0.0
C1292 C 0.34913 0.18344 0.91121 0.0
C1293 C 0.35583 0.166 0.85243 0.0
C1294 C 0.33961 0.16716 0.83814 0.0
C1295 C 0.32816 0.17641 0.86068 0.0
C1296 C 0.33285 0.18442 0.89701 0.0
C1297 C 0.33468 0.15918 0.7989 0.0
C1298 C 0.3286 0.16911 0.76695 0.0
C1299 C 0.33652 0.14211 0.79231 0.0
C1300 C 0.34237 0.13093 0.82542 0.0
C1301 C 0.33433 0.13037 0.86393 0.0
C1302 C 0.33996 0.11987 0.89505 0.0
C1303 C 0.35354 0.10977 0.88793 0.0
C1304 C 0.3615 0.11013 0.84962 0.0
C1305 C 0.35593 0.12063 0.8184 0.0
H1306 H 0.35788 0.10164 0.91205 0.0
H1307 H 0.30417 0.20295 0.60743 0.0
H1308 H 0.78346 0.3616 0.8542 0.0
H1309 H 0.79219 0.35178 0.78635 0.0
H1310 H 0.84168 0.36787 0.81159 0.0
H1311 H 0.83292 0.37816 0.87928 0.0
H1312 H 0.83359 0.37439 0.73334 0.0
H1313 H 0.8306 0.32756 0.82271 0.0
H1314 H 0.81764 0.30864 0.87254 0.0
H1315 H 0.78014 0.29709 0.7838 0.0
H1316 H 0.79275 0.31613 0.73362 0.0
H1317 H 0.8746 0.32241 0.58816 0.0
H1318 H 0.86463 0.33655 0.65001 0.0
H1319 H 0.81482 0.32387 0.61781 0.0
H1320 H 0.82467 0.30969 0.55584 0.0
H1321 H 0.82275 0.31606 0.69839 0.0
H1322 H 0.82718 0.36254 0.60776 0.0
H1323 H 0.84109 0.38112 0.55878 0.0
H1324 H 0.87727 0.39273 0.65089 0.0
H1325 H 0.8637 0.37403 0.70027 0.0
C1326 C 0.79619 0.36314 0.84527 0.0
C1327 C 0.80754 0.37051 0.87225 0.0
C1328 C 0.80117 0.35748 0.80651 0.0
C1329 C 0.81765 0.35882 0.79423 0.0
C1330 C 0.82891 0.36666 0.82052 0.0
C1331 C 0.82389 0.37249 0.85922 0.0
C1332 C 0.8232 0.35157 0.75454 0.0
C1333 C 0.8314 0.3616 0.72587 0.0
C1334 C 0.82009 0.33493 0.74454 0.0
C1335 C 0.81253 0.32339 0.77456 0.0
C1336 C 0.81952 0.32107 0.81393 0.0
C1337 C 0.81225 0.31032 0.84222 0.0
C1338 C 0.79805 0.3017 0.83138 0.0
C1339 C 0.79112 0.30379 0.79218 0.0
C1340 C 0.79833 0.31455 0.76378 0.0
C1341 C 0.86151 0.32275 0.59402 0.0
C1342 C 0.85042 0.3149 0.56717 0.0
C1343 C 0.85584 0.3309 0.62927 0.0
C1344 C 0.83899 0.33131 0.63831 0.0
C1345 C 0.82787 0.32369 0.61128 0.0
C1346 C 0.83352 0.31564 0.57586 0.0
C1347 C 0.83308 0.33889 0.67716 0.0
C1348 C 0.82487 0.32889 0.70577 0.0
C1349 C 0.83634 0.35548 0.6872 0.0
C1350 C 0.84451 0.36676 0.65759 0.0
C1351 C 0.83818 0.36894 0.61746 0.0
C1352 C 0.84599 0.37952 0.58965 0.0
C1353 C 0.86008 0.38807 0.60168 0.0
C1354 C 0.86636 0.38609 0.6416 0.0
C1355 C 0.85861 0.37551 0.66952 0.0
H1356 H 0.8661 0.39625 0.5801 0.0
H1357 H 0.79243 0.29338 0.85333 0.0
H1358 H 0.60723 0.81064 0.86493 0.0
H1359 H 0.61428 0.8223 0.79755 0.0
H1360 H 0.64883 0.85503 0.85643 0.0
H1361 H 0.64116 0.84398 0.92407 0.0
H1362 H 0.63559 0.87031 0.79517 0.0
H1363 H 0.66046 0.81747 0.81167 0.0
H1364 H 0.66126 0.78772 0.82569 0.0
H1365 H 0.62995 0.77884 0.72116 0.0
H1366 H 0.62876 0.80858 0.70689 0.0
H1367 H 0.69514 0.87617 0.63199 0.0
H1368 H 0.68056 0.86933 0.69596 0.0
H1369 H 0.63876 0.85316 0.62495 0.0
H1370 H 0.65312 0.86036 0.56064 0.0
H1371 H 0.65338 0.83012 0.68873 0.0
H1372 H 0.63222 0.88498 0.6705 0.0
H1373 H 0.63504 0.9147 0.65796 0.0
H1374 H 0.66395 0.91958 0.76839 0.0
H1375 H 0.66153 0.88982 0.78123 0.0
C1376 C 0.61616 0.82048 0.86348 0.0
C1377 C 0.62379 0.8263 0.8996 0.0
C1378 C 0.62024 0.82709 0.82498 0.0
C1379 C 0.6324 0.83925 0.82177 0.0
C1380 C 0.63946 0.84561 0.85806 0.0
C1381 C 0.6351 0.83926 0.8967 0.0
C1382 C 0.6385 0.84463 0.78063 0.0
C1383 C 0.63954 0.86151 0.77204 0.0
C1384 C 0.64359 0.83316 0.75019 0.0
C1385 C 0.64437 0.81526 0.7585 0.0
C1386 C 0.65365 0.80918 0.79185 0.0
C1387 C 0.65419 0.79232 0.79982 0.0
C1388 C 0.64562 0.7814 0.7744 0.0
C1389 C 0.63655 0.78732 0.74087 0.0
C1390 C 0.63594 0.80417 0.73282 0.0
C1391 C 0.68279 0.87127 0.63 0.0
C1392 C 0.67525 0.86875 0.59141 0.0
C1393 C 0.67448 0.86745 0.66651 0.0
C1394 C 0.65862 0.86082 0.66496 0.0
C1395 C 0.651 0.85834 0.62656 0.0
C1396 C 0.65918 0.86248 0.58999 0.0
C1397 C 0.65043 0.85569 0.70358 0.0
C1398 C 0.64914 0.83886 0.71174 0.0
C1399 C 0.64556 0.86719 0.73392 0.0
C1400 C 0.6468 0.88514 0.72662 0.0
C1401 C 0.63929 0.89236 0.69193 0.0
C1402 C 0.6408 0.90922 0.6848 0.0
C1403 C 0.6497 0.91902 0.7123 0.0
C1404 C 0.65706 0.91198 0.74708 0.0
C1405 C 0.65561 0.89512 0.75433 0.0
H1406 H 0.65087 0.93207 0.7067 0.0
H1407 H 0.64606 0.76835 0.78061 0.0
H1408 H 0.87712 0.71631 0.6566 0.0
H1409 H 0.86665 0.70403 0.72019 0.0
H1410 H 0.8667 0.65632 0.66208 0.0
H1411 H 0.87685 0.66859 0.59794 0.0
H1412 H 0.83826 0.66197 0.69843 0.0
H1413 H 0.8945 0.66627 0.7389 0.0
H1414 H 0.92119 0.67992 0.74961 0.0
H1415 H 0.89879 0.71388 0.83416 0.0
H1416 H 0.87191 0.70058 0.82353 0.0
H1417 H 0.81542 0.62075 0.88301 0.0
H1418 H 0.83152 0.62955 0.82313 0.0
H1419 H 0.83114 0.67934 0.86865 0.0
H1420 H 0.8152 0.67064 0.92885 0.0
H1421 H 0.86125 0.67065 0.83893 0.0
H1422 H 0.80486 0.66781 0.79371 0.0
H1423 H 0.77806 0.65439 0.78279 0.0
H1424 H 0.801 0.61774 0.70673 0.0
H1425 H 0.82799 0.63083 0.71767 0.0
C1426 C 0.87511 0.70317 0.65746 0.0
C1427 C 0.87776 0.69343 0.62217 0.0
C1428 C 0.8692 0.69615 0.69395 0.0
C1429 C 0.86602 0.67923 0.69602 0.0
C1430 C 0.86908 0.6694 0.66116 0.0
C1431 C 0.87491 0.67643 0.62457 0.0
C1432 C 0.8584 0.67202 0.73353 0.0
C1433 C 0.84348 0.66359 0.72906 0.0
C1434 C 0.86499 0.67448 0.77359 0.0
C1435 C 0.88116 0.6825 0.78014 0.0
C1436 C 0.89524 0.67673 0.75953 0.0
C1437 C 0.91041 0.68439 0.76564 0.0
C1438 C 0.91168 0.69778 0.79248 0.0
C1439 C 0.89779 0.70351 0.81335 0.0
C1440 C 0.88258 0.6959 0.80734 0.0
C1441 C 0.81881 0.63357 0.88039 0.0
C1442 C 0.81392 0.64503 0.91052 0.0
C1443 C 0.82799 0.63857 0.84613 0.0
C1444 C 0.83236 0.65513 0.84128 0.0
C1445 C 0.82788 0.66651 0.87184 0.0
C1446 C 0.81871 0.66152 0.90612 0.0
C1447 C 0.84113 0.66072 0.80369 0.0
C1448 C 0.85619 0.66889 0.80818 0.0
C1449 C 0.83469 0.65803 0.76361 0.0
C1450 C 0.81846 0.65019 0.75688 0.0
C1451 C 0.80421 0.65681 0.77493 0.0
C1452 C 0.78898 0.64928 0.76869 0.0
C1453 C 0.78784 0.63519 0.74419 0.0
C1454 C 0.80191 0.62863 0.72577 0.0
C1455 C 0.81717 0.63611 0.73195 0.0
H1456 H 0.77604 0.62938 0.73938 0.0
H1457 H 0.92344 0.70369 0.79716 0.0
H1458 H 0.31548 0.82301 0.56633 0.0
H1459 H 0.32942 0.81213 0.62747 0.0
H1460 H 0.32514 0.8593 0.68733 0.0
H1461 H 0.31148 0.87035 0.62616 0.0
H1462 H 0.35493 0.84641 0.69982 0.0
H1463 H 0.29902 0.82796 0.7106 0.0
H1464 H 0.27365 0.81422 0.68743 0.0
H1465 H 0.2995 0.76842 0.67804 0.0
H1466 H 0.32509 0.78196 0.70059 0.0
H1467 H 0.36549 0.82253 0.91004 0.0
H1468 H 0.35536 0.83301 0.8439 0.0
H1469 H 0.36226 0.78526 0.78874 0.0
H1470 H 0.37227 0.77465 0.85476 0.0
H1471 H 0.33218 0.79773 0.77209 0.0
H1472 H 0.38796 0.8163 0.76513 0.0
H1473 H 0.41292 0.83029 0.79004 0.0
H1474 H 0.38694 0.87613 0.79403 0.0
H1475 H 0.36174 0.86237 0.7697 0.0
C1476 C 0.31755 0.83108 0.59245 0.0
C1477 C 0.31229 0.84751 0.59149 0.0
C1478 C 0.32548 0.82483 0.6274 0.0
C1479 C 0.32813 0.83486 0.66211 0.0
C1480 C 0.3232 0.85135 0.66088 0.0
C1481 C 0.31534 0.85762 0.62593 0.0
C1482 C 0.3358 0.82814 0.70006 0.0
C1483 C 0.34987 0.83587 0.71587 0.0
C1484 C 0.32938 0.81417 0.72047 0.0
C1485 C 0.31401 0.80602 0.70681 0.0
C1486 C 0.29933 0.815 0.70323 0.0
C1487 C 0.2849 0.80724 0.69028 0.0
C1488 C 0.28498 0.79047 0.68114 0.0
C1489 C 0.29947 0.78142 0.68504 0.0
C1490 C 0.31394 0.78912 0.69792 0.0
C1491 C 0.36499 0.8143 0.88375 0.0
C1492 C 0.36967 0.79776 0.88763 0.0
C1493 C 0.35926 0.82032 0.84595 0.0
C1494 C 0.35818 0.80993 0.81139 0.0
C1495 C 0.36302 0.79347 0.81506 0.0
C1496 C 0.36878 0.78745 0.85279 0.0
C1497 C 0.35128 0.81603 0.77192 0.0
C1498 C 0.33732 0.8082 0.75587 0.0
C1499 C 0.35776 0.82994 0.75145 0.0
C1500 C 0.37292 0.83827 0.76594 0.0
C1501 C 0.38753 0.82934 0.77164 0.0
C1502 C 0.40173 0.83723 0.78559 0.0
C1503 C 0.40151 0.85408 0.7937 0.0
C1504 C 0.38709 0.86308 0.78777 0.0
C1505 C 0.37285 0.85524 0.77386 0.0
H1506 H 0.41252 0.86017 0.8045 0.0
H1507 H 0.2738 0.78448 0.67114 0.0
H1508 H 0.16986 0.325 0.54176 0.0
H1509 H 0.18122 0.33597 0.60623 0.0
H1510 H 0.1439 0.3104 0.67578 0.0
H1511 H 0.13222 0.29985 0.61167 0.0
H1512 H 0.14782 0.33942 0.70694 0.0
H1513 H 0.18388 0.29557 0.66626 0.0
H1514 H 0.20248 0.28054 0.61939 0.0
H1515 H 0.23508 0.32196 0.61606 0.0
H1516 H 0.21655 0.33731 0.66251 0.0
H1517 H 0.21126 0.32965 0.88482 0.0
H1518 H 0.20047 0.3215 0.81736 0.0
H1519 H 0.18271 0.37077 0.79734 0.0
H1520 H 0.19306 0.37891 0.86528 0.0
H1521 H 0.20655 0.33038 0.74089 0.0
H1522 H 0.14724 0.36951 0.74264 0.0
H1523 H 0.12786 0.38141 0.79317 0.0
H1524 H 0.14036 0.34383 0.88086 0.0
H1525 H 0.15964 0.3316 0.83067 0.0
C1526 C 0.16404 0.32179 0.57079 0.0
C1527 C 0.15019 0.31149 0.57162 0.0
C1528 C 0.17058 0.32801 0.60762 0.0
C1529 C 0.16355 0.32383 0.64591 0.0
C1530 C 0.14953 0.31382 0.64664 0.0
C1531 C 0.14289 0.30775 0.60991 0.0
C1532 C 0.17086 0.32958 0.68542 0.0
C1533 C 0.16068 0.33751 0.71425 0.0
C1534 C 0.18758 0.32686 0.69533 0.0
C1535 C 0.19875 0.31764 0.66748 0.0
C1536 C 0.19496 0.30151 0.65528 0.0
C1537 C 0.20549 0.29293 0.62883 0.0
C1538 C 0.21993 0.30031 0.61466 0.0
C1539 C 0.22388 0.31627 0.627 0.0
C1540 C 0.21337 0.32491 0.65341 0.0
C1541 C 0.20506 0.33876 0.86608 0.0
C1542 C 0.20288 0.35489 0.88056 0.0
C1543 C 0.19896 0.33409 0.82744 0.0
C1544 C 0.19062 0.34547 0.80249 0.0
C1545 C 0.18884 0.36171 0.81638 0.0
C1546 C 0.19481 0.36635 0.85518 0.0
C1547 C 0.1835 0.3402 0.76236 0.0
C1548 C 0.19372 0.33241 0.7334 0.0
C1549 C 0.16671 0.34262 0.75281 0.0
C1550 C 0.15501 0.34977 0.78305 0.0
C1551 C 0.14581 0.36377 0.77266 0.0
C1552 C 0.13485 0.37057 0.80125 0.0
C1553 C 0.13293 0.36342 0.84025 0.0
C1554 C 0.14191 0.3494 0.8507 0.0
C1555 C 0.15287 0.34254 0.82221 0.0
H1556 H 0.12445 0.36871 0.86234 0.0
H1557 H 0.22807 0.29364 0.59419 0.0
H1558 H 0.61743 0.18337 0.89706 0.0
H1559 H 0.62913 0.1704 0.8356 0.0
H1560 H 0.67796 0.17974 0.88178 0.0
H1561 H 0.66637 0.1931 0.94283 0.0
H1562 H 0.67647 0.1869 0.80264 0.0
H1563 H 0.66037 0.14115 0.88616 0.0
H1564 H 0.64158 0.12418 0.92801 0.0
H1565 H 0.60999 0.11782 0.82284 0.0
H1566 H 0.62849 0.13495 0.78048 0.0
H1567 H 0.71966 0.13185 0.672 0.0
H1568 H 0.70696 0.14369 0.73373 0.0
H1569 H 0.65957 0.14207 0.67434 0.0
H1570 H 0.6722 0.13036 0.6121 0.0
H1571 H 0.66008 0.1308 0.75913 0.0
H1572 H 0.6773 0.17672 0.67592 0.0
H1573 H 0.69723 0.19278 0.63517 0.0
H1574 H 0.72802 0.19787 0.74226 0.0
H1575 H 0.70839 0.18159 0.78351 0.0
C1576 C 0.63066 0.18263 0.8942 0.0
C1577 C 0.64097 0.18918 0.92494 0.0
C1578 C 0.63733 0.17515 0.85911 0.0
C1579 C 0.65442 0.17388 0.85435 0.0
C1580 C 0.66474 0.18054 0.88484 0.0
C1581 C 0.65808 0.18812 0.9198 0.0
C1582 C 0.66157 0.1658 0.81734 0.0
C1583 C 0.67303 0.17455 0.79349 0.0
C1584 C 0.65687 0.1498 0.8049 0.0
C1585 C 0.64573 0.13947 0.83026 0.0
C1586 C 0.64935 0.13624 0.87204 0.0
C1587 C 0.63877 0.12658 0.89584 0.0
C1588 C 0.62458 0.11997 0.87813 0.0
C1589 C 0.62097 0.12297 0.83654 0.0
C1590 C 0.63151 0.13265 0.81261 0.0
C1591 C 0.70651 0.13389 0.67213 0.0
C1592 C 0.69693 0.13023 0.63715 0.0
C1593 C 0.6993 0.14069 0.70737 0.0
C1594 C 0.68238 0.14383 0.70835 0.0
C1595 C 0.67267 0.13973 0.67404 0.0
C1596 C 0.67991 0.1331 0.63854 0.0
C1597 C 0.67494 0.15189 0.74481 0.0
C1598 C 0.66346 0.14314 0.76843 0.0
C1599 C 0.67973 0.16782 0.7573 0.0
C1600 C 0.69146 0.17779 0.73269 0.0
C1601 C 0.68839 0.18114 0.6907 0.0
C1602 C 0.69962 0.19031 0.66752 0.0
C1603 C 0.71391 0.1963 0.68609 0.0
C1604 C 0.71696 0.19319 0.72791 0.0
C1605 C 0.70578 0.18401 0.75121 0.0
H1606 H 0.72259 0.20339 0.66809 0.0
H1607 H 0.6164 0.11248 0.8966 0.0
H1608 H 0.88516 0.28087 0.31511 0.0
H1609 H 0.87503 0.2925 0.25012 0.0
H1610 H 0.85044 0.33093 0.31799 0.0
H1611 H 0.86032 0.31932 0.38296 0.0
H1612 H 0.83038 0.3168 0.26228 0.0
H1613 H 0.88533 0.33868 0.26347 0.0
H1614 H 0.91553 0.33715 0.26726 0.0
H1615 H 0.91643 0.30682 0.15857 0.0
H1616 H 0.88619 0.30799 0.15445 0.0
H1617 H 0.80773 0.36999 0.10244 0.0
H1618 H 0.8218 0.35895 0.16294 0.0
H1619 H 0.84416 0.32152 0.0871 0.0
H1620 H 0.83026 0.33265 0.02603 0.0
H1621 H 0.86567 0.33389 0.1447 0.0
H1622 H 0.81106 0.31219 0.14258 0.0
H1623 H 0.78086 0.31354 0.13813 0.0
H1624 H 0.77933 0.34291 0.24843 0.0
H1625 H 0.80955 0.34195 0.25319 0.0
C1626 C 0.87769 0.29186 0.31618 0.0
C1627 C 0.8735 0.29914 0.35421 0.0
C1628 C 0.87197 0.29852 0.279 0.0
C1629 C 0.86205 0.31262 0.27925 0.0
C1630 C 0.85805 0.32002 0.31713 0.0
C1631 C 0.86375 0.31339 0.35424 0.0
C1632 C 0.85523 0.31933 0.24028 0.0
C1633 C 0.83811 0.32074 0.23679 0.0
C1634 C 0.86531 0.32396 0.20655 0.0
C1635 C 0.88349 0.32329 0.20891 0.0
C1636 C 0.89195 0.33157 0.24057 0.0
C1637 C 0.90908 0.33079 0.24275 0.0
C1638 C 0.91789 0.32185 0.21325 0.0
C1639 C 0.90959 0.31371 0.18144 0.0
C1640 C 0.89246 0.31445 0.17915 0.0
C1641 C 0.81574 0.35949 0.09847 0.0
C1642 C 0.81773 0.35208 0.05949 0.0
C1643 C 0.82375 0.35318 0.13312 0.0
C1644 C 0.83378 0.33925 0.12958 0.0
C1645 C 0.8364 0.33225 0.09046 0.0
C1646 C 0.82842 0.3386 0.05565 0.0
C1647 C 0.84087 0.33162 0.16712 0.0
C1648 C 0.85797 0.32995 0.17023 0.0
C1649 C 0.83079 0.32666 0.20054 0.0
C1650 C 0.81259 0.32712 0.19803 0.0
C1651 C 0.80429 0.31903 0.16573 0.0
C1652 C 0.78717 0.31972 0.16317 0.0
C1653 C 0.77818 0.32834 0.19293 0.0
C1654 C 0.7863 0.33625 0.22538 0.0
C1655 C 0.80343 0.33563 0.22804 0.0
H1656 H 0.76493 0.32885 0.19089 0.0
H1657 H 0.93115 0.32126 0.21498 0.0
H1658 H 0.62081 0.8051 0.12152 0.0
H1659 H 0.63034 0.81587 0.18767 0.0
H1660 H 0.67429 0.83416 0.12883 0.0
H1661 H 0.66509 0.82276 0.06272 0.0
H1662 H 0.6823 0.82002 0.19669 0.0
H1663 H 0.64196 0.86001 0.16181 0.0
H1664 H 0.61493 0.87055 0.14005 0.0
H1665 H 0.59261 0.84919 0.24774 0.0
H1666 H 0.61948 0.83832 0.26987 0.0
H1667 H 0.7053 0.8692 0.37053 0.0
H1668 H 0.69486 0.86203 0.30184 0.0
H1669 H 0.65862 0.83036 0.35742 0.0
H1670 H 0.66919 0.8372 0.42635 0.0
H1671 H 0.64714 0.85297 0.29075 0.0
H1672 H 0.68868 0.8123 0.32236 0.0
H1673 H 0.71639 0.80353 0.34348 0.0
H1674 H 0.73721 0.8287 0.23918 0.0
H1675 H 0.70961 0.83793 0.21792 0.0
C1676 C 0.63245 0.81153 0.12259 0.0
C1677 C 0.64221 0.81309 0.08695 0.0
C1678 C 0.63784 0.81778 0.16042 0.0
C1679 C 0.65292 0.82607 0.16319 0.0
C1680 C 0.6626 0.82782 0.12747 0.0
C1681 C 0.65733 0.82133 0.08971 0.0
C1682 C 0.65892 0.83217 0.20375 0.0
C1683 C 0.67468 0.82747 0.21684 0.0
C1684 C 0.64893 0.8417 0.23049 0.0
C1685 C 0.63273 0.84822 0.21731 0.0
C1686 C 0.63127 0.85745 0.18069 0.0
C1687 C 0.61598 0.8635 0.16832 0.0
C1688 C 0.60206 0.86051 0.19245 0.0
C1689 C 0.60341 0.85148 0.22906 0.0
C1690 C 0.61867 0.84539 0.24156 0.0
C1691 C 0.69505 0.86077 0.36816 0.0
C1692 C 0.68809 0.85369 0.40375 0.0
C1693 C 0.68913 0.8567 0.32896 0.0
C1694 C 0.67603 0.84567 0.32478 0.0
C1695 C 0.66874 0.83892 0.36022 0.0
C1696 C 0.67484 0.84277 0.39945 0.0
C1697 C 0.67034 0.84071 0.28328 0.0
C1698 C 0.65469 0.84562 0.2702 0.0
C1699 C 0.68051 0.83162 0.25627 0.0
C1700 C 0.69709 0.82597 0.26883 0.0
C1701 C 0.69918 0.81611 0.30416 0.0
C1702 C 0.71487 0.81102 0.31612 0.0
C1703 C 0.72856 0.81557 0.29273 0.0
C1704 C 0.72659 0.8252 0.2573 0.0
C1705 C 0.71093 0.83037 0.24529 0.0
H1706 H 0.7407 0.81159 0.30199 0.0
H1707 H 0.59023 0.8652 0.18282 0.0
H1708 H 0.16516 0.67204 0.45401 0.0
H1709 H 0.17714 0.65768 0.39481 0.0
H1710 H 0.13214 0.66429 0.32643 0.0
H1711 H 0.11997 0.67844 0.38557 0.0
H1712 H 0.14581 0.63432 0.31139 0.0
H1713 H 0.16305 0.69101 0.31454 0.0
H1714 H 0.17539 0.71556 0.34661 0.0
H1715 H 0.2212 0.69003 0.36032 0.0
H1716 H 0.20904 0.66524 0.32879 0.0
H1717 H 0.17153 0.6346 0.10237 0.0
H1718 H 0.16074 0.64133 0.17083 0.0
H1719 H 0.20839 0.63234 0.22456 0.0
H1720 H 0.21935 0.62569 0.15606 0.0
H1721 H 0.19506 0.6611 0.25107 0.0
H1722 H 0.17805 0.60514 0.23949 0.0
H1723 H 0.16518 0.58116 0.20609 0.0
H1724 H 0.11853 0.60571 0.20656 0.0
H1725 H 0.13116 0.62995 0.23943 0.0
C1726 C 0.15772 0.67022 0.42662 0.0
C1727 C 0.14169 0.67657 0.42426 0.0
C1728 C 0.1646 0.66204 0.39282 0.0
C1729 C 0.15561 0.66017 0.35607 0.0
C1730 C 0.13929 0.66564 0.3545 0.0
C1731 C 0.13239 0.67379 0.38828 0.0
C1732 C 0.16354 0.65375 0.31817 0.0
C1733 C 0.15653 0.6402 0.29804 0.0
C1734 C 0.1777 0.66128 0.30127 0.0
C1735 C 0.18509 0.67622 0.31975 0.0
C1736 C 0.17572 0.6906 0.32466 0.0
C1737 C 0.18268 0.70456 0.34271 0.0
C1738 C 0.19905 0.70434 0.35563 0.0
C1739 C 0.20851 0.69017 0.35037 0.0
C1740 C 0.2016 0.67617 0.3324 0.0
C1741 C 0.17971 0.63398 0.12875 0.0
C1742 C 0.1963 0.62961 0.12381 0.0
C1743 C 0.1735 0.63774 0.16788 0.0
C1744 C 0.18373 0.63714 0.20278 0.0
C1745 C 0.20029 0.6328 0.19799 0.0
C1746 C 0.20651 0.62899 0.15885 0.0
C1747 C 0.17725 0.64174 0.24397 0.0
C1748 C 0.1845 0.65503 0.26468 0.0
C1749 C 0.16326 0.63403 0.2612 0.0
C1750 C 0.15559 0.61942 0.24166 0.0
C1751 C 0.16507 0.60548 0.2322 0.0
C1752 C 0.15781 0.59183 0.2134 0.0
C1753 C 0.14106 0.59192 0.20413 0.0
C1754 C 0.13151 0.60566 0.21374 0.0
C1755 C 0.13871 0.61935 0.2325 0.0
H1756 H 0.13546 0.58134 0.18957 0.0
H1757 H 0.20442 0.71516 0.36962 0.0
H1758 H 0.32631 0.16131 0.45467 0.0
H1759 H 0.34253 0.17189 0.39691 0.0
H1760 H 0.32935 0.12957 0.32377 0.0
H1761 H 0.3134 0.11872 0.38168 0.0
H1762 H 0.36076 0.13774 0.31084 0.0
H1763 H 0.3088 0.16591 0.31427 0.0
H1764 H 0.28663 0.18257 0.34505 0.0
H1765 H 0.32041 0.2223 0.36457 0.0
H1766 H 0.34284 0.20578 0.33452 0.0
H1767 H 0.36768 0.16955 0.10634 0.0
H1768 H 0.35938 0.15759 0.17245 0.0
H1769 H 0.37722 0.20051 0.23644 0.0
H1770 H 0.38554 0.21261 0.17043 0.0
H1771 H 0.34566 0.19278 0.25727 0.0
H1772 H 0.39715 0.16488 0.24705 0.0
H1773 H 0.41856 0.14814 0.21347 0.0
H1774 H 0.38495 0.10771 0.20375 0.0
H1775 H 0.36324 0.12429 0.23676 0.0
C1776 C 0.32699 0.15418 0.42643 0.0
C1777 C 0.31844 0.13926 0.42259 0.0
C1778 C 0.33623 0.16026 0.39343 0.0
C1779 C 0.33692 0.15165 0.35582 0.0
C1780 C 0.32896 0.13643 0.35249 0.0
C1781 C 0.31981 0.13028 0.38558 0.0
C1782 C 0.3452 0.15887 0.31925 0.0
C1783 C 0.35739 0.14972 0.29892 0.0
C1784 C 0.34101 0.17465 0.30421 0.0
C1785 C 0.32754 0.18454 0.32257 0.0
C1786 C 0.31154 0.17814 0.32548 0.0
C1787 C 0.29892 0.18756 0.34274 0.0
C1788 C 0.30212 0.20347 0.35681 0.0
C1789 C 0.31795 0.20997 0.35371 0.0
C1790 C 0.33062 0.20059 0.33657 0.0
C1791 C 0.37005 0.17636 0.13451 0.0
C1792 C 0.37719 0.19207 0.13313 0.0
C1793 C 0.36537 0.16947 0.17228 0.0
C1794 C 0.36776 0.17815 0.20932 0.0
C1795 C 0.3753 0.19362 0.20816 0.0
C1796 C 0.38007 0.20049 0.17042 0.0
C1797 C 0.36116 0.17163 0.24872 0.0
C1798 C 0.34921 0.18089 0.2695 0.0
C1799 C 0.36548 0.15592 0.26387 0.0
C1800 C 0.37852 0.14589 0.24409 0.0
C1801 C 0.39427 0.15247 0.23745 0.0
C1802 C 0.40648 0.14299 0.21858 0.0
C1803 C 0.40311 0.12688 0.2064 0.0
C1804 C 0.38753 0.1202 0.21317 0.0
C1805 C 0.37528 0.12962 0.23201 0.0
H1806 H 0.41257 0.11957 0.19179 0.0
H1807 H 0.29234 0.21078 0.36995 0.0
loop_
_geom_bond_atom_site_label_1
_geom_bond_atom_site_label_2
_geom_bond_distance
_geom_bond_site_symmetry_2
_ccdc_geom_bond_type
C0 O1 1.160 . S
C0 O7 1.185 1_554 S
O1 C0 1.160 . S
O2 Zn3 1.899 . S
O2 C10 1.284 . S
Zn3 O2 1.899 . S
Zn3 O4 2.032 1_554 S
Zn3 O7 2.086 1_554 S
Zn3 O12 1.977 1_554 S
O4 Zn3 2.032 1_556 S
O4 C8 1.278 . S
C5 O6 1.203 . S
C5 O12 1.267 1_554 S
O6 C5 1.203 . S
O7 C0 1.185 1_556 S
O7 Zn3 2.086 1_556 S
C8 O4 1.278 . S
C8 O9 1.211 . S
O9 C8 1.211 . S
C10 O2 1.284 . S
C10 O11 1.273 . S
O11 C10 1.273 . S
O12 Zn3 1.977 1_556 S
O12 C5 1.267 1_556 S
C13 O14 1.160 . S
C13 O20 1.185 1_554 S
O14 C13 1.160 . S
O15 Zn16 1.899 . S
O15 C23 1.284 . S
Zn16 O15 1.899 . S
Zn16 O17 2.032 1_554 S
Zn16 O20 2.086 1_554 S
Zn16 O25 1.977 1_554 S
O17 Zn16 2.032 1_556 S
O17 C21 1.278 . S
C18 O19 1.203 . S
C18 O25 1.267 1_554 S
O19 C18 1.203 . S
O20 C13 1.185 1_556 S
O20 Zn16 2.086 1_556 S
C21 O17 1.278 . S
C21 O22 1.211 . S
O22 C21 1.211 . S
C23 O15 1.284 . S
C23 O24 1.273 . S
O24 C23 1.273 . S
O25 Zn16 1.977 1_556 S
O25 C18 1.267 1_556 S
C26 O27 1.160 . S
C26 O33 1.185 1_554 S
O27 C26 1.160 . S
O28 Zn29 1.899 . S
O28 C36 1.284 . S
Zn29 O28 1.899 . S
Zn29 O30 2.032 1_554 S
Zn29 O33 2.086 1_554 S
Zn29 O38 1.977 1_554 S
O30 Zn29 2.032 1_556 S
O30 C34 1.278 . S
C31 O32 1.203 . S
C31 O38 1.267 1_554 S
O32 C31 1.203 . S
O33 C26 1.185 1_556 S
O33 Zn29 2.086 1_556 S
C34 O30 1.278 . S
C34 O35 1.211 . S
O35 C34 1.211 . S
C36 O28 1.284 . S
C36 O37 1.273 . S
O37 C36 1.273 . S
O38 Zn29 1.977 1_556 S
O38 C31 1.267 1_556 S
C39 O40 1.160 . S
C39 O46 1.185 1_554 S
O40 C39 1.160 . S
O41 Zn42 1.899 . S
O41 C49 1.284 . S
Zn42 O41 1.899 . S
Zn42 O43 2.032 1_554 S
Zn42 O46 2.086 1_554 S
Zn42 O51 1.977 1_554 S
O43 Zn42 2.032 1_556 S
O43 C47 1.278 . S
C44 O45 1.203 . S
C44 O51 1.267 1_554 S
O45 C44 1.203 . S
O46 C39 1.185 1_556 S
O46 Zn42 2.086 1_556 S
C47 O43 1.278 . S
C47 O48 1.211 . S
O48 C47 1.211 . S
C49 O41 1.284 . S
C49 O50 1.273 . S
O50 C49 1.273 . S
O51 Zn42 1.977 1_556 S
O51 C44 1.267 1_556 S
C52 O53 1.160 . S
C52 O59 1.185 1_556 S
O53 C52 1.160 . S
O54 Zn55 1.899 . S
O54 C62 1.284 . S
Zn55 O54 1.899 . S
Zn55 O56 2.032 1_556 S
Zn55 O59 2.086 1_556 S
Zn55 O64 1.977 1_556 S
O56 Zn55 2.032 1_554 S
O56 C60 1.278 . S
C57 O58 1.203 . S
C57 O64 1.267 1_556 S
O58 C57 1.203 . S
O59 C52 1.185 1_554 S
O59 Zn55 2.086 1_554 S
C60 O56 1.278 . S
C60 O61 1.211 . S
O61 C60 1.211 . S
C62 O54 1.284 . S
C62 O63 1.273 . S
O63 C62 1.273 . S
O64 Zn55 1.977 1_554 S
O64 C57 1.267 1_554 S
C65 O66 1.160 . S
C65 O72 1.185 1_556 S
O66 C65 1.160 . S
O67 Zn68 1.899 . S
O67 C75 1.284 . S
Zn68 O67 1.899 . S
Zn68 O69 2.032 1_556 S
Zn68 O72 2.086 1_556 S
Zn68 O77 1.977 1_556 S
O69 Zn68 2.032 1_554 S
O69 C73 1.278 . S
C70 O71 1.203 . S
C70 O77 1.267 1_556 S
O71 C70 1.203 . S
O72 C65 1.185 1_554 S
O72 Zn68 2.086 1_554 S
C73 O69 1.278 . S
C73 O74 1.211 . S
O74 C73 1.211 . S
C75 O67 1.284 . S
C75 O76 1.273 . S
O76 C75 1.273 . S
O77 Zn68 1.977 1_554 S
O77 C70 1.267 1_554 S
C78 O79 1.160 . S
C78 O85 1.185 1_556 S
O79 C78 1.160 . S
O80 Zn81 1.899 . S
O80 C88 1.284 . S
Zn81 O80 1.899 . S
Zn81 O82 2.032 1_556 S
Zn81 O85 2.086 1_556 S
Zn81 O90 1.977 1_556 S
O82 Zn81 2.032 1_554 S
O82 C86 1.278 . S
C83 O84 1.203 . S
C83 O90 1.267 1_556 S
O84 C83 1.203 . S
O85 C78 1.185 1_554 S
O85 Zn81 2.086 1_554 S
C86 O82 1.278 . S
C86 O87 1.211 . S
O87 C86 1.211 . S
C88 O80 1.284 . S
C88 O89 1.273 . S
O89 C88 1.273 . S
O90 Zn81 1.977 1_554 S
O90 C83 1.267 1_554 S
C91 O92 1.160 . S
C91 O98 1.185 1_556 S
O92 C91 1.160 . S
O93 Zn94 1.899 . S
O93 C101 1.284 . S
Zn94 O93 1.899 . S
Zn94 O95 2.032 1_556 S
Zn94 O98 2.086 1_556 S
Zn94 O103 1.977 1_556 S
O95 Zn94 2.032 1_554 S
O95 C99 1.278 . S
C96 O97 1.203 . S
C96 O103 1.267 1_556 S
O97 C96 1.203 . S
O98 C91 1.185 1_554 S
O98 Zn94 2.086 1_554 S
C99 O95 1.278 . S
C99 O100 1.211 . S
O100 C99 1.211 . S
C101 O93 1.284 . S
C101 O102 1.273 . S
O102 C101 1.273 . S
O103 Zn94 1.977 1_554 S
O103 C96 1.267 1_554 S
C104 O105 1.160 . S
C104 O111 1.185 . S
O105 C104 1.160 . S
O106 Zn107 1.899 . S
O106 C114 1.284 . S
Zn107 O106 1.899 . S
Zn107 O108 2.032 . S
Zn107 O111 2.086 . S
Zn107 O116 1.977 . S
O108 Zn107 2.032 . S
O108 C112 1.278 . S
C109 O110 1.203 . S
C109 O116 1.267 . S
O110 C109 1.203 . S
O111 C104 1.185 . S
O111 Zn107 2.086 . S
C112 O108 1.278 . S
C112 O113 1.211 . S
O113 C112 1.211 . S
C114 O106 1.284 . S
C114 O115 1.273 . S
O115 C114 1.273 . S
O116 Zn107 1.977 . S
O116 C109 1.267 . S
C117 O118 1.160 . S
C117 O124 1.185 . S
O118 C117 1.160 . S
O119 Zn120 1.899 . S
O119 C127 1.284 . S
Zn120 O119 1.899 . S
Zn120 O121 2.032 . S
Zn120 O124 2.086 . S
Zn120 O129 1.977 . S
O121 Zn120 2.032 . S
O121 C125 1.278 . S
C122 O123 1.203 . S
C122 O129 1.267 . S
O123 C122 1.203 . S
O124 C117 1.185 . S
O124 Zn120 2.086 . S
C125 O121 1.278 . S
C125 O126 1.211 . S
O126 C125 1.211 . S
C127 O119 1.284 . S
C127 O128 1.273 . S
O128 C127 1.273 . S
O129 Zn120 1.977 . S
O129 C122 1.267 . S
C130 O131 1.160 . S
C130 O137 1.185 . S
O131 C130 1.160 . S
O132 Zn133 1.899 . S
O132 C140 1.284 . S
Zn133 O132 1.899 . S
Zn133 O134 2.032 . S
Zn133 O137 2.086 . S
Zn133 O142 1.977 . S
O134 Zn133 2.032 . S
O134 C138 1.278 . S
C135 O136 1.203 . S
C135 O142 1.267 . S
O136 C135 1.203 . S
O137 C130 1.185 . S
O137 Zn133 2.086 . S
C138 O134 1.278 . S
C138 O139 1.211 . S
O139 C138 1.211 . S
C140 O132 1.284 . S
C140 O141 1.273 . S
O141 C140 1.273 . S
O142 Zn133 1.977 . S
O142 C135 1.267 . S
C143 O144 1.160 . S
C143 O150 1.185 . S
O144 C143 1.160 . S
O145 Zn146 1.899 . S
O145 C153 1.284 . S
Zn146 O145 1.899 . S
Zn146 O147 2.032 . S
Zn146 O150 2.086 . S
Zn146 O155 1.977 . S
O147 Zn146 2.032 . S
O147 C151 1.278 . S
C148 O149 1.203 . S
C148 O155 1.267 . S
O149 C148 1.203 . S
O150 C143 1.185 . S
O150 Zn146 2.086 . S
C151 O147 1.278 . S
C151 O152 1.211 . S
O152 C151 1.211 . S
C153 O145 1.284 . S
C153 O154 1.273 . S
O154 C153 1.273 . S
O155 Zn146 1.977 . S
O155 C148 1.267 . S
C156 O157 1.160 . S
C156 O163 1.185 . S
O157 C156 1.160 . S
O158 Zn159 1.899 . S
O158 C166 1.284 . S
Zn159 O158 1.899 . S
Zn159 O160 2.032 . S
Zn159 O163 2.086 . S
Zn159 O168 1.977 . S
O160 Zn159 2.032 . S
O160 C164 1.278 . S
C161 O162 1.203 . S
C161 O168 1.267 . S
O162 C161 1.203 . S
O163 C156 1.185 . S
O163 Zn159 2.086 . S
C164 O160 1.278 . S
C164 O165 1.211 . S
O165 C164 1.211 . S
C166 O158 1.284 . S
C166 O167 1.273 . S
O167 C166 1.273 . S
O168 Zn159 1.977 . S
O168 C161 1.267 . S
C169 O170 1.160 . S
C169 O176 1.185 . S
O170 C169 1.160 . S
O171 Zn172 1.899 . S
O171 C179 1.284 . S
Zn172 O171 1.899 . S
Zn172 O173 2.032 . S
Zn172 O176 2.086 . S
Zn172 O181 1.977 . S
O173 Zn172 2.032 . S
O173 C177 1.278 . S
C174 O175 1.203 . S
C174 O181 1.267 . S
O175 C174 1.203 . S
O176 C169 1.185 . S
O176 Zn172 2.086 . S
C177 O173 1.278 . S
C177 O178 1.211 . S
O178 C177 1.211 . S
C179 O171 1.284 . S
C179 O180 1.273 . S
O180 C179 1.273 . S
O181 Zn172 1.977 . S
O181 C174 1.267 . S
C182 O183 1.160 . S
C182 O189 1.185 . S
O183 C182 1.160 . S
O184 Zn185 1.899 . S
O184 C192 1.284 . S
Zn185 O184 1.899 . S
Zn185 O186 2.032 . S
Zn185 O189 2.086 . S
Zn185 O194 1.977 . S
O186 Zn185 2.032 . S
O186 C190 1.278 . S
C187 O188 1.203 . S
C187 O194 1.267 . S
O188 C187 1.203 . S
O189 C182 1.185 . S
O189 Zn185 2.086 . S
C190 O186 1.278 . S
C190 O191 1.211 . S
O191 C190 1.211 . S
C192 O184 1.284 . S
C192 O193 1.273 . S
O193 C192 1.273 . S
O194 Zn185 1.977 . S
O194 C187 1.267 . S
C195 O196 1.160 . S
C195 O202 1.185 . S
O196 C195 1.160 . S
O197 Zn198 1.899 . S
O197 C205 1.284 . S
Zn198 O197 1.899 . S
Zn198 O199 2.032 . S
Zn198 O202 2.086 . S
Zn198 O207 1.977 . S
O199 Zn198 2.032 . S
O199 C203 1.278 . S
C200 O201 1.203 . S
C200 O207 1.267 . S
O201 C200 1.203 . S
O202 C195 1.185 . S
O202 Zn198 2.086 . S
C203 O199 1.278 . S
C203 O204 1.211 . S
O204 C203 1.211 . S
C205 O197 1.284 . S
C205 O206 1.273 . S
O206 C205 1.273 . S
O207 Zn198 1.977 . S
O207 C200 1.267 . S
H208 C226 0.951 . S
H209 C228 0.951 . S
H210 C230 0.950 . S
H211 C231 0.950 . S
H212 C233 0.950 . S
H213 C236 0.950 . S
H214 C237 0.950 . S
H215 C239 0.950 . S
H216 C240 0.950 . S
H217 C241 0.951 . S
H218 C243 0.951 . S
H219 C245 0.950 . S
H220 C246 0.950 . S
H221 C248 0.950 . S
H222 C251 0.950 . S
H223 C252 0.950 . S
H224 C254 0.950 . S
H225 C255 0.950 . S
C226 H208 0.951 . S
C226 C227 1.366 1_556 S
C226 C228 1.388 . S
C227 C226 1.366 1_554 S
C227 C231 1.385 . S
C228 H209 0.951 . S
C228 C226 1.388 . S
C228 C229 1.365 1_556 S
C229 C228 1.365 1_554 S
C229 C230 1.414 . S
C229 C232 1.499 1_554 S
C230 H210 0.950 . S
C230 C229 1.414 . S
C230 C231 1.374 . S
C231 H211 0.950 . S
C231 C227 1.385 . S
C231 C230 1.374 . S
C232 C229 1.499 1_556 S
C232 C233 1.371 1_556 S
C232 C234 1.392 . S
C233 H212 0.950 . S
C233 C232 1.371 1_554 S
C233 C249 1.377 . S
C234 C232 1.392 . S
C234 C235 1.524 . S
C234 C248 1.377 . S
C235 C234 1.524 . S
C235 C236 1.397 . S
C235 C240 1.363 . S
C236 H213 0.950 . S
C236 C235 1.397 . S
C236 C237 1.334 . S
C237 H214 0.950 . S
C237 C236 1.334 . S
C237 C238 1.287 . S
C238 C237 1.287 . S
C238 C239 1.524 . S
C238 H257 0.913 . S
C239 H215 0.950 . S
C239 C238 1.524 . S
C239 C240 1.415 . S
C240 H216 0.950 . S
C240 C235 1.363 . S
C240 C239 1.415 . S
C241 H217 0.951 . S
C241 C242 1.366 1_554 S
C241 C243 1.388 . S
C242 C241 1.366 1_556 S
C242 C246 1.385 . S
C243 H218 0.951 . S
C243 C241 1.388 . S
C243 C244 1.364 . S
C244 C243 1.364 . S
C244 C245 1.415 1_554 S
C244 C247 1.499 . S
C245 H219 0.950 . S
C245 C244 1.415 1_556 S
C245 C246 1.374 . S
C246 H220 0.950 . S
C246 C242 1.385 . S
C246 C245 1.374 . S
C247 C244 1.499 . S
C247 C248 1.367 1_554 S
C247 C249 1.396 . S
C248 H221 0.950 . S
C248 C234 1.377 . S
C248 C247 1.367 1_556 S
C249 C233 1.377 . S
C249 C247 1.396 . S
C249 C250 1.524 . S
C250 C249 1.524 . S
C250 C251 1.397 . S
C250 C255 1.363 . S
C251 H222 0.950 . S
C251 C250 1.397 . S
C251 C252 1.334 . S
C252 H223 0.950 . S
C252 C251 1.334 . S
C252 C253 1.287 . S
C253 C252 1.287 . S
C253 C254 1.524 . S
C253 H256 0.999 . S
C254 H224 0.950 . S
C254 C253 1.524 . S
C254 C255 1.415 . S
C255 H225 0.950 . S
C255 C250 1.363 . S
C255 C254 1.415 . S
H256 C253 0.999 . S
H257 C238 0.913 . S
H258 C276 0.951 . S
H259 C278 0.951 . S
H260 C280 0.950 . S
H261 C281 0.950 . S
H262 C283 0.950 . S
H263 C286 0.950 . S
H264 C287 0.950 . S
H265 C289 0.950 . S
H266 C290 0.950 . S
H267 C291 0.951 . S
H268 C293 0.951 . S
H269 C295 0.950 . S
H270 C296 0.950 . S
H271 C298 0.950 . S
H272 C301 0.950 . S
H273 C302 0.950 . S
H274 C304 0.950 . S
H275 C305 0.950 . S
C276 H258 0.951 . S
C276 C277 1.366 . S
C276 C278 1.388 . S
C277 C276 1.366 . S
C277 C281 1.385 1_554 S
C278 H259 0.951 . S
C278 C276 1.388 . S
C278 C279 1.381 . S
C279 C278 1.381 . S
C279 C280 1.400 1_554 S
C279 C282 1.498 1_554 S
C280 H260 0.950 . S
C280 C279 1.400 1_556 S
C280 C281 1.374 . S
C281 H261 0.950 . S
C281 C277 1.385 1_556 S
C281 C280 1.374 . S
C282 C279 1.498 1_556 S
C282 C283 1.373 . S
C282 C284 1.389 1_556 S
C283 H262 0.950 . S
C283 C282 1.373 . S
C283 C299 1.377 . S
C284 C282 1.389 1_554 S
C284 C285 1.524 . S
C284 C298 1.377 . S
C285 C284 1.524 . S
C285 C286 1.397 1_554 S
C285 C290 1.363 . S
C286 H263 0.950 . S
C286 C285 1.397 1_556 S
C286 C287 1.334 . S
C287 H264 0.950 . S
C287 C286 1.334 . S
C287 C288 1.287 1_556 S
C288 C287 1.287 1_554 S
C288 C289 1.524 . S
C288 H307 0.913 . S
C289 H265 0.950 . S
C289 C288 1.524 . S
C289 C290 1.415 . S
C290 H266 0.950 . S
C290 C285 1.363 . S
C290 C289 1.415 . S
C291 H267 0.951 . S
C291 C292 1.366 . S
C291 C293 1.388 . S
C292 C291 1.366 . S
C292 C296 1.385 1_556 S
C293 H268 0.951 . S
C293 C291 1.388 . S
C293 C294 1.377 . S
C294 C293 1.377 . S
C294 C295 1.403 1_556 S
C294 C297 1.498 1_556 S
C295 H269 0.950 . S
C295 C294 1.403 1_554 S
C295 C296 1.374 . S
C296 H270 0.950 . S
C296 C292 1.385 1_554 S
C296 C295 1.374 . S
C297 C294 1.498 1_554 S
C297 C298 1.373 . S
C297 C299 1.389 1_554 S
C298 H271 0.950 . S
C298 C284 1.377 . S
C298 C297 1.373 . S
C299 C283 1.377 . S
C299 C297 1.389 1_556 S
C299 C300 1.524 . S
C300 C299 1.524 . S
C300 C301 1.397 1_556 S
C300 C305 1.363 . S
C301 H272 0.950 . S
C301 C300 1.397 1_554 S
C301 C302 1.334 . S
C302 H273 0.950 . S
C302 C301 1.334 . S
C302 C303 1.287 1_554 S
C303 C302 1.287 1_556 S
C303 C304 1.524 . S
C303 H306 0.999 . S
C304 H274 0.950 . S
C304 C303 1.524 . S
C304 C305 1.415 . S
C305 H275 0.950 . S
C305 C300 1.363 . S
C305 C304 1.415 . S
H306 C303 0.999 . S
H307 C288 0.913 . S
H308 C326 0.951 . S
H309 C328 0.951 . S
H310 C330 0.950 . S
H311 C331 0.950 . S
H312 C333 0.950 . S
H313 C336 0.950 . S
H314 C337 0.950 . S
H315 C339 0.950 . S
H316 C340 0.950 . S
H317 C341 0.951 . S
H318 C343 0.951 . S
H319 C345 0.950 . S
H320 C346 0.950 . S
H321 C348 0.950 . S
H322 C351 0.950 . S
H323 C352 0.950 . S
H324 C354 0.950 . S
H325 C355 0.950 . S
C326 H308 0.951 . S
C326 C327 1.366 1_556 S
C326 C328 1.388 . S
C327 C326 1.366 1_554 S
C327 C331 1.385 . S
C328 H309 0.951 . S
C328 C326 1.388 . S
C328 C329 1.364 1_556 S
C329 C328 1.364 1_554 S
C329 C330 1.415 . S
C329 C332 1.499 1_554 S
C330 H310 0.950 . S
C330 C329 1.415 . S
C330 C331 1.374 . S
C331 H311 0.950 . S
C331 C327 1.385 . S
C331 C330 1.374 . S
C332 C329 1.499 1_556 S
C332 C333 1.374 1_556 S
C332 C334 1.389 . S
C333 H312 0.950 . S
C333 C332 1.374 1_554 S
C333 C349 1.377 . S
C334 C332 1.389 . S
C334 C335 1.524 . S
C334 C348 1.377 . S
C335 C334 1.524 . S
C335 C336 1.397 . S
C335 C340 1.363 . S
C336 H313 0.950 . S
C336 C335 1.397 . S
C336 C337 1.334 . S
C337 H314 0.950 . S
C337 C336 1.334 . S
C337 C338 1.287 . S
C338 C337 1.287 . S
C338 C339 1.524 . S
C338 H357 0.913 . S
C339 H315 0.950 . S
C339 C338 1.524 . S
C339 C340 1.415 . S
C340 H316 0.950 . S
C340 C335 1.363 . S
C340 C339 1.415 . S
C341 H317 0.951 . S
C341 C342 1.366 1_554 S
C341 C343 1.388 . S
C342 C341 1.366 1_556 S
C342 C346 1.385 . S
C343 H318 0.951 . S
C343 C341 1.388 . S
C343 C344 1.367 1_554 S
C344 C343 1.367 1_556 S
C344 C345 1.413 . S
C344 C347 1.499 1_556 S
C345 H319 0.950 . S
C345 C344 1.413 . S
C345 C346 1.374 . S
C346 H320 0.950 . S
C346 C342 1.385 . S
C346 C345 1.374 . S
C347 C344 1.499 1_554 S
C347 C348 1.370 1_554 S
C347 C349 1.393 . S
C348 H321 0.950 . S
C348 C334 1.377 . S
C348 C347 1.370 1_556 S
C349 C333 1.377 . S
C349 C347 1.393 . S
C349 C350 1.524 . S
C350 C349 1.524 . S
C350 C351 1.397 . S
C350 C355 1.363 . S
C351 H322 0.950 . S
C351 C350 1.397 . S
C351 C352 1.334 . S
C352 H323 0.950 . S
C352 C351 1.334 . S
C352 C353 1.287 . S
C353 C352 1.287 . S
C353 C354 1.524 . S
C353 H356 0.999 . S
C354 H324 0.950 . S
C354 C353 1.524 . S
C354 C355 1.415 . S
C355 H325 0.950 . S
C355 C350 1.363 . S
C355 C354 1.415 . S
H356 C353 0.999 . S
H357 C338 0.913 . S
H358 C376 0.951 . S
H359 C378 0.951 . S
H360 C380 0.950 . S
H361 C381 0.950 . S
H362 C383 0.950 . S
H363 C386 0.950 1_556 S
H364 C387 0.950 . S
H365 C389 0.950 . S
H366 C390 0.950 . S
H367 C391 0.951 . S
H368 C393 0.951 . S
H369 C395 0.950 . S
H370 C396 0.950 . S
H371 C398 0.950 . S
H372 C401 0.950 1_554 S
H373 C402 0.950 . S
H374 C404 0.950 . S
H375 C405 0.950 . S
C376 H358 0.951 . S
C376 C377 1.366 . S
C376 C378 1.388 . S
C377 C376 1.366 . S
C377 C381 1.385 1_554 S
C378 H359 0.951 . S
C378 C376 1.388 . S
C378 C379 1.366 . S
C379 C378 1.366 . S
C379 C380 1.414 1_554 S
C379 C382 1.498 1_554 S
C380 H360 0.950 . S
C380 C379 1.414 1_556 S
C380 C381 1.374 . S
C381 H361 0.950 . S
C381 C377 1.385 1_556 S
C381 C380 1.374 . S
C382 C379 1.498 1_556 S
C382 C383 1.384 . S
C382 C384 1.379 1_556 S
C383 H362 0.950 . S
C383 C382 1.384 . S
C383 C399 1.377 . S
C384 C382 1.379 1_554 S
C384 C385 1.524 . S
C384 C398 1.377 . S
C385 C384 1.524 . S
C385 C386 1.397 . S
C385 C390 1.363 . S
C386 H363 0.950 1_554 S
C386 C385 1.397 . S
C386 C387 1.334 . S
C387 H364 0.950 . S
C387 C386 1.334 . S
C387 C388 1.287 . S
C388 C387 1.287 . S
C388 C389 1.524 . S
C388 H407 0.913 . S
C389 H365 0.950 . S
C389 C388 1.524 . S
C389 C390 1.415 . S
C390 H366 0.950 . S
C390 C385 1.363 . S
C390 C389 1.415 . S
C391 H367 0.951 . S
C391 C392 1.366 . S
C391 C393 1.388 . S
C392 C391 1.366 . S
C392 C396 1.385 1_556 S
C393 H368 0.951 . S
C393 C391 1.388 . S
C393 C394 1.366 . S
C394 C393 1.366 . S
C394 C395 1.414 1_556 S
C394 C397 1.498 1_556 S
C395 H369 0.950 . S
C395 C394 1.414 1_554 S
C395 C396 1.374 . S
C396 H370 0.950 . S
C396 C392 1.385 1_554 S
C396 C395 1.374 . S
C397 C394 1.498 1_554 S
C397 C398 1.386 . S
C397 C399 1.377 1_554 S
C398 H371 0.950 . S
C398 C384 1.377 . S
C398 C397 1.386 . S
C399 C383 1.377 . S
C399 C397 1.377 1_556 S
C399 C400 1.524 . S
C400 C399 1.524 . S
C400 C401 1.397 . S
C400 C405 1.363 . S
C401 H372 0.950 1_556 S
C401 C400 1.397 . S
C401 C402 1.334 . S
C402 H373 0.950 . S
C402 C401 1.334 . S
C402 C403 1.287 . S
C403 C402 1.287 . S
C403 C404 1.524 . S
C403 H406 0.999 . S
C404 H374 0.950 . S
C404 C403 1.524 . S
C404 C405 1.415 . S
C405 H375 0.950 . S
C405 C400 1.363 . S
C405 C404 1.415 . S
H406 C403 0.999 . S
H407 C388 0.913 . S
H408 C426 0.951 . S
H409 C428 0.951 . S
H410 C430 0.950 . S
H411 C431 0.950 . S
H412 C433 0.950 . S
H413 C436 0.950 . S
H414 C437 0.950 . S
H415 C439 0.950 . S
H416 C440 0.950 . S
H417 C441 0.951 . S
H418 C443 0.951 . S
H419 C445 0.950 . S
H420 C446 0.950 . S
H421 C448 0.950 . S
H422 C451 0.950 . S
H423 C452 0.950 . S
H424 C454 0.950 . S
H425 C455 0.950 . S
C426 H408 0.951 . S
C426 C427 1.366 . S
C426 C428 1.388 . S
C427 C426 1.366 . S
C427 C431 1.385 . S
C428 H409 0.951 . S
C428 C426 1.388 . S
C428 C429 1.366 . S
C429 C428 1.366 . S
C429 C430 1.414 . S
C429 C432 1.499 . S
C430 H410 0.950 . S
C430 C429 1.414 . S
C430 C431 1.374 . S
C431 H411 0.950 . S
C431 C427 1.385 . S
C431 C430 1.374 . S
C432 C429 1.499 . S
C432 C433 1.373 . S
C432 C434 1.389 . S
C433 H412 0.950 . S
C433 C432 1.373 . S
C433 C449 1.377 1_545 S
C434 C432 1.389 . S
C434 C435 1.524 . S
C434 C448 1.377 1_545 S
C435 C434 1.524 . S
C435 C436 1.397 . S
C435 C440 1.363 . S
C436 H413 0.950 . S
C436 C435 1.397 . S
C436 C437 1.334 . S
C437 H414 0.950 . S
C437 C436 1.334 . S
C437 C438 1.287 . S
C438 C437 1.287 . S
C438 C439 1.524 . S
C438 H457 0.913 . S
C439 H415 0.950 . S
C439 C438 1.524 . S
C439 C440 1.415 . S
C440 H416 0.950 . S
C440 C435 1.363 . S
C440 C439 1.415 . S
C441 H417 0.951 . S
C441 C442 1.366 . S
C441 C443 1.388 . S
C442 C441 1.366 . S
C442 C446 1.385 . S
C443 H418 0.951 . S
C443 C441 1.388 . S
C443 C444 1.366 . S
C444 C443 1.366 . S
C444 C445 1.414 . S
C444 C447 1.499 . S
C445 H419 0.950 . S
C445 C444 1.414 . S
C445 C446 1.374 . S
C446 H420 0.950 . S
C446 C442 1.385 . S
C446 C445 1.374 . S
C447 C444 1.499 . S
C447 C448 1.373 . S
C447 C449 1.389 . S
C448 H421 0.950 . S
C448 C434 1.377 1_565 S
C448 C447 1.373 . S
C449 C433 1.377 1_565 S
C449 C447 1.389 . S
C449 C450 1.524 . S
C450 C449 1.524 . S
C450 C451 1.397 . S
C450 C455 1.363 . S
C451 H422 0.950 . S
C451 C450 1.397 . S
C451 C452 1.334 . S
C452 H423 0.950 . S
C452 C451 1.334 . S
C452 C453 1.287 . S
C453 C452 1.287 . S
C453 C454 1.524 . S
C453 H456 0.999 . S
C454 H424 0.950 . S
C454 C453 1.524 . S
C454 C455 1.415 . S
C455 H425 0.950 . S
C455 C450 1.363 . S
C455 C454 1.415 . S
H456 C453 0.999 . S
H457 C438 0.913 . S
H458 C476 0.951 . S
H459 C478 0.951 . S
H460 C480 0.950 . S
H461 C481 0.950 . S
H462 C483 0.950 . S
H463 C486 0.950 . S
H464 C487 0.950 . S
H465 C489 0.950 . S
H466 C490 0.950 . S
H467 C491 0.951 . S
H468 C493 0.951 . S
H469 C495 0.950 . S
H470 C496 0.950 . S
H471 C498 0.950 . S
H472 C501 0.950 . S
H473 C502 0.950 . S
H474 C504 0.950 . S
H475 C505 0.950 . S
C476 H458 0.951 . S
C476 C477 1.366 . S
C476 C478 1.388 . S
C477 C476 1.366 . S
C477 C481 1.385 . S
C478 H459 0.951 . S
C478 C476 1.388 . S
C478 C479 1.366 . S
C479 C478 1.366 . S
C479 C480 1.414 . S
C479 C482 1.499 . S
C480 H460 0.950 . S
C480 C479 1.414 . S
C480 C481 1.374 . S
C481 H461 0.950 . S
C481 C477 1.385 . S
C481 C480 1.374 . S
C482 C479 1.499 . S
C482 C483 1.373 . S
C482 C484 1.389 . S
C483 H462 0.950 . S
C483 C482 1.373 . S
C483 C499 1.377 1_655 S
C484 C482 1.389 . S
C484 C485 1.524 . S
C484 C498 1.377 1_655 S
C485 C484 1.524 . S
C485 C486 1.397 . S
C485 C490 1.363 . S
C486 H463 0.950 . S
C486 C485 1.397 . S
C486 C487 1.334 . S
C487 H464 0.950 . S
C487 C486 1.334 . S
C487 C488 1.287 . S
C488 C487 1.287 . S
C488 C489 1.524 . S
C488 H507 0.913 . S
C489 H465 0.950 . S
C489 C488 1.524 . S
C489 C490 1.415 . S
C490 H466 0.950 . S
C490 C485 1.363 . S
C490 C489 1.415 . S
C491 H467 0.951 . S
C491 C492 1.366 . S
C491 C493 1.388 . S
C492 C491 1.366 . S
C492 C496 1.385 . S
C493 H468 0.951 . S
C493 C491 1.388 . S
C493 C494 1.366 . S
C494 C493 1.366 . S
C494 C495 1.414 . S
C494 C497 1.499 . S
C495 H469 0.950 . S
C495 C494 1.414 . S
C495 C496 1.374 . S
C496 H470 0.950 . S
C496 C492 1.385 . S
C496 C495 1.374 . S
C497 C494 1.499 . S
C497 C498 1.373 . S
C497 C499 1.389 . S
C498 H471 0.950 . S
C498 C484 1.377 1_455 S
C498 C497 1.373 . S
C499 C483 1.377 1_455 S
C499 C497 1.389 . S
C499 C500 1.524 . S
C500 C499 1.524 . S
C500 C501 1.397 . S
C500 C505 1.363 . S
C501 H472 0.950 . S
C501 C500 1.397 . S
C501 C502 1.334 . S
C502 H473 0.950 . S
C502 C501 1.334 . S
C502 C503 1.287 . S
C503 C502 1.287 . S
C503 C504 1.524 . S
C503 H506 0.999 . S
C504 H474 0.950 . S
C504 C503 1.524 . S
C504 C505 1.415 . S
C505 H475 0.950 . S
C505 C500 1.363 . S
C505 C504 1.415 . S
H506 C503 0.999 . S
H507 C488 0.913 . S
H508 C526 0.951 . S
H509 C528 0.951 . S
H510 C530 0.950 . S
H511 C531 0.950 . S
H512 C533 0.950 . S
H513 C536 0.950 . S
H514 C537 0.950 . S
H515 C539 0.950 . S
H516 C540 0.950 . S
H517 C541 0.951 . S
H518 C543 0.951 . S
H519 C545 0.950 . S
H520 C546 0.950 . S
H521 C548 0.950 . S
H522 C551 0.950 . S
H523 C552 0.950 . S
H524 C554 0.950 . S
H525 C555 0.950 . S
C526 H508 0.951 . S
C526 C527 1.366 . S
C526 C528 1.388 . S
C527 C526 1.366 . S
C527 C531 1.385 . S
C528 H509 0.951 . S
C528 C526 1.388 . S
C528 C529 1.366 . S
C529 C528 1.366 . S
C529 C530 1.414 . S
C529 C532 1.499 . S
C530 H510 0.950 . S
C530 C529 1.414 . S
C530 C531 1.374 . S
C531 H511 0.950 . S
C531 C527 1.385 . S
C531 C530 1.374 . S
C532 C529 1.499 . S
C532 C533 1.373 . S
C532 C534 1.389 . S
C533 H512 0.950 . S
C533 C532 1.373 . S
C533 C549 1.377 1_545 S
C534 C532 1.389 . S
C534 C535 1.524 . S
C534 C548 1.377 1_545 S
C535 C534 1.524 . S
C535 C536 1.397 . S
C535 C540 1.363 . S
C536 H513 0.950 . S
C536 C535 1.397 . S
C536 C537 1.334 . S
C537 H514 0.950 . S
C537 C536 1.334 . S
C537 C538 1.287 . S
C538 C537 1.287 . S
C538 C539 1.524 . S
C538 H557 0.913 . S
C539 H515 0.950 . S
C539 C538 1.524 . S
C539 C540 1.415 . S
C540 H516 0.950 . S
C540 C535 1.363 . S
C540 C539 1.415 . S
C541 H517 0.951 . S
C541 C542 1.366 . S
C541 C543 1.388 . S
C542 C541 1.366 . S
C542 C546 1.385 . S
C543 H518 0.951 . S
C543 C541 1.388 . S
C543 C544 1.366 . S
C544 C543 1.366 . S
C544 C545 1.414 . S
C544 C547 1.499 . S
C545 H519 0.950 . S
C545 C544 1.414 . S
C545 C546 1.374 . S
C546 H520 0.950 . S
C546 C542 1.385 . S
C546 C545 1.374 . S
C547 C544 1.499 . S
C547 C548 1.373 . S
C547 C549 1.389 . S
C548 H521 0.950 . S
C548 C534 1.377 1_565 S
C548 C547 1.373 . S
C549 C533 1.377 1_565 S
C549 C547 1.389 . S
C549 C550 1.524 . S
C550 C549 1.524 . S
C550 C551 1.397 . S
C550 C555 1.363 . S
C551 H522 0.950 . S
C551 C550 1.397 . S
C551 C552 1.334 . S
C552 H523 0.950 . S
C552 C551 1.334 . S
C552 C553 1.287 . S
C553 C552 1.287 . S
C553 C554 1.524 . S
C553 H556 0.999 . S
C554 H524 0.950 . S
C554 C553 1.524 . S
C554 C555 1.415 . S
C555 H525 0.950 . S
C555 C550 1.363 . S
C555 C554 1.415 . S
H556 C553 0.999 . S
H557 C538 0.913 . S
H558 C576 0.951 . S
H559 C578 0.951 . S
H560 C580 0.950 . S
H561 C581 0.950 . S
H562 C583 0.950 . S
H563 C586 0.950 . S
H564 C587 0.950 . S
H565 C589 0.950 . S
H566 C590 0.950 . S
H567 C591 0.951 . S
H568 C593 0.951 . S
H569 C595 0.950 . S
H570 C596 0.950 . S
H571 C598 0.950 . S
H572 C601 0.950 . S
H573 C602 0.950 . S
H574 C604 0.950 . S
H575 C605 0.950 . S
C576 H558 0.951 . S
C576 C577 1.366 . S
C576 C578 1.388 . S
C577 C576 1.366 . S
C577 C581 1.385 . S
C578 H559 0.951 . S
C578 C576 1.388 . S
C578 C579 1.366 . S
C579 C578 1.366 . S
C579 C580 1.414 . S
C579 C582 1.499 . S
C580 H560 0.950 . S
C580 C579 1.414 . S
C580 C581 1.374 . S
C581 H561 0.950 . S
C581 C577 1.385 . S
C581 C580 1.374 . S
C582 C579 1.499 . S
C582 C583 1.373 . S
C582 C584 1.389 . S
C583 H562 0.950 . S
C583 C582 1.373 . S
C583 C599 1.377 1_455 S
C584 C582 1.389 . S
C584 C585 1.524 . S
C584 C598 1.377 1_455 S
C585 C584 1.524 . S
C585 C586 1.397 . S
C585 C590 1.363 . S
C586 H563 0.950 . S
C586 C585 1.397 . S
C586 C587 1.334 . S
C587 H564 0.950 . S
C587 C586 1.334 . S
C587 C588 1.287 . S
C588 C587 1.287 . S
C588 C589 1.524 . S
C588 H607 0.913 . S
C589 H565 0.950 . S
C589 C588 1.524 . S
C589 C590 1.415 . S
C590 H566 0.950 . S
C590 C585 1.363 . S
C590 C589 1.415 . S
C591 H567 0.951 . S
C591 C592 1.366 . S
C591 C593 1.388 . S
C592 C591 1.366 . S
C592 C596 1.385 . S
C593 H568 0.951 . S
C593 C591 1.388 . S
C593 C594 1.366 . S
C594 C593 1.366 . S
C594 C595 1.414 . S
C594 C597 1.499 . S
C595 H569 0.950 . S
C595 C594 1.414 . S
C595 C596 1.374 . S
C596 H570 0.950 . S
C596 C592 1.385 . S
C596 C595 1.374 . S
C597 C594 1.499 . S
C597 C598 1.373 . S
C597 C599 1.389 . S
C598 H571 0.950 . S
C598 C584 1.377 1_655 S
C598 C597 1.373 . S
C599 C583 1.377 1_655 S
C599 C597 1.389 . S
C599 C600 1.524 . S
C600 C599 1.524 . S
C600 C601 1.397 . S
C600 C605 1.363 . S
C601 H572 0.950 . S
C601 C600 1.397 . S
C601 C602 1.334 . S
C602 H573 0.950 . S
C602 C601 1.334 . S
C602 C603 1.287 . S
C603 C602 1.287 . S
C603 C604 1.524 . S
C603 H606 0.999 . S
C604 H574 0.950 . S
C604 C603 1.524 . S
C604 C605 1.415 . S
C605 H575 0.950 . S
C605 C600 1.363 . S
C605 C604 1.415 . S
H606 C603 0.999 . S
H607 C588 0.913 . S
H608 C626 0.951 . S
H609 C628 0.951 . S
H610 C630 0.950 . S
H611 C631 0.950 . S
H612 C633 0.950 . S
H613 C636 0.950 . S
H614 C637 0.950 . S
H615 C639 0.950 . S
H616 C640 0.950 . S
H617 C641 0.951 . S
H618 C643 0.951 . S
H619 C645 0.950 . S
H620 C646 0.950 . S
H621 C648 0.950 . S
H622 C651 0.950 . S
H623 C652 0.950 . S
H624 C654 0.950 . S
H625 C655 0.950 . S
C626 H608 0.951 . S
C626 C627 1.366 1_556 S
C626 C628 1.388 . S
C627 C626 1.366 1_554 S
C627 C631 1.385 . S
C628 H609 0.951 . S
C628 C626 1.388 . S
C628 C629 1.370 . S
C629 C628 1.370 . S
C629 C630 1.408 1_556 S
C629 C632 1.499 . S
C630 H610 0.950 . S
C630 C629 1.408 1_554 S
C630 C631 1.374 . S
C631 H611 0.950 . S
C631 C627 1.385 . S
C631 C630 1.374 . S
C632 C629 1.499 . S
C632 C633 1.373 1_556 S
C632 C634 1.389 . S
C633 H612 0.950 . S
C633 C632 1.373 1_554 S
C633 C649 1.377 . S
C634 C632 1.389 . S
C634 C635 1.524 . S
C634 C648 1.377 . S
C635 C634 1.524 . S
C635 C636 1.397 . S
C635 C640 1.363 . S
C636 H613 0.950 . S
C636 C635 1.397 . S
C636 C637 1.334 . S
C637 H614 0.950 . S
C637 C636 1.334 . S
C637 C638 1.287 . S
C638 C637 1.287 . S
C638 C639 1.524 . S
C638 H657 0.913 . S
C639 H615 0.950 . S
C639 C638 1.524 . S
C639 C640 1.415 . S
C640 H616 0.950 . S
C640 C635 1.363 . S
C640 C639 1.415 . S
C641 H617 0.951 . S
C641 C642 1.366 1_554 S
C641 C643 1.388 . S
C642 C641 1.366 1_556 S
C642 C646 1.385 . S
C643 H618 0.951 . S
C643 C641 1.388 . S
C643 C644 1.366 . S
C644 C643 1.366 . S
C644 C645 1.414 1_554 S
C644 C647 1.499 . S
C645 H619 0.950 . S
C645 C644 1.414 1_556 S
C645 C646 1.374 . S
C646 H620 0.950 . S
C646 C642 1.385 . S
C646 C645 1.374 . S
C647 C644 1.499 . S
C647 C648 1.373 1_554 S
C647 C649 1.389 . S
C648 H621 0.950 . S
C648 C634 1.377 . S
C648 C647 1.373 1_556 S
C649 C633 1.377 . S
C649 C647 1.389 . S
C649 C650 1.524 . S
C650 C649 1.524 . S
C650 C651 1.397 . S
C650 C655 1.363 . S
C651 H622 0.950 . S
C651 C650 1.397 . S
C651 C652 1.334 . S
C652 H623 0.950 . S
C652 C651 1.334 . S
C652 C653 1.287 . S
C653 C652 1.287 . S
C653 C654 1.524 . S
C653 H656 0.999 . S
C654 H624 0.950 . S
C654 C653 1.524 . S
C654 C655 1.415 . S
C655 H625 0.950 . S
C655 C650 1.363 . S
C655 C654 1.415 . S
H656 C653 0.999 . S
H657 C638 0.913 . S
H658 C676 0.951 . S
H659 C678 0.951 . S
H660 C680 0.950 . S
H661 C681 0.950 . S
H662 C683 0.950 . S
H663 C686 0.950 . S
H664 C687 0.950 . S
H665 C689 0.950 . S
H666 C690 0.950 . S
H667 C691 0.951 . S
H668 C693 0.951 . S
H669 C695 0.950 . S
H670 C696 0.950 . S
H671 C698 0.950 . S
H672 C701 0.950 . S
H673 C702 0.950 . S
H674 C704 0.950 . S
H675 C705 0.950 . S
C676 H658 0.951 . S
C676 C677 1.366 . S
C676 C678 1.388 . S
C677 C676 1.366 . S
C677 C681 1.385 1_556 S
C678 H659 0.951 . S
C678 C676 1.388 . S
C678 C679 1.366 1_556 S
C679 C678 1.366 1_554 S
C679 C680 1.414 . S
C679 C682 1.499 . S
C680 H660 0.950 . S
C680 C679 1.414 . S
C680 C681 1.374 . S
C681 H661 0.950 . S
C681 C677 1.385 1_554 S
C681 C680 1.374 . S
C682 C679 1.499 . S
C682 C683 1.373 1_554 S
C682 C684 1.389 . S
C683 H662 0.950 . S
C683 C682 1.373 1_556 S
C683 C699 1.377 . S
C684 C682 1.389 . S
C684 C685 1.524 . S
C684 C698 1.377 . S
C685 C684 1.524 . S
C685 C686 1.397 . S
C685 C690 1.363 . S
C686 H663 0.950 . S
C686 C685 1.397 . S
C686 C687 1.334 . S
C687 H664 0.950 . S
C687 C686 1.334 . S
C687 C688 1.287 . S
C688 C687 1.287 . S
C688 C689 1.524 . S
C688 H707 0.913 . S
C689 H665 0.950 . S
C689 C688 1.524 . S
C689 C690 1.415 . S
C690 H666 0.950 . S
C690 C685 1.363 . S
C690 C689 1.415 . S
C691 H667 0.951 . S
C691 C692 1.366 . S
C691 C693 1.388 . S
C692 C691 1.366 . S
C692 C696 1.385 1_554 S
C693 H668 0.951 . S
C693 C691 1.388 . S
C693 C694 1.366 1_554 S
C694 C693 1.366 1_556 S
C694 C695 1.414 . S
C694 C697 1.499 . S
C695 H669 0.950 . S
C695 C694 1.414 . S
C695 C696 1.374 . S
C696 H670 0.950 . S
C696 C692 1.385 1_556 S
C696 C695 1.374 . S
C697 C694 1.499 . S
C697 C698 1.373 1_556 S
C697 C699 1.389 . S
C698 H671 0.950 . S
C698 C684 1.377 . S
C698 C697 1.373 1_554 S
C699 C683 1.377 . S
C699 C697 1.389 . S
C699 C700 1.524 . S
C700 C699 1.524 . S
C700 C701 1.397 . S
C700 C705 1.363 . S
C701 H672 0.950 . S
C701 C700 1.397 . S
C701 C702 1.334 . S
C702 H673 0.950 . S
C702 C701 1.334 . S
C702 C703 1.287 . S
C703 C702 1.287 . S
C703 C704 1.524 . S
C703 H706 0.999 . S
C704 H674 0.950 . S
C704 C703 1.524 . S
C704 C705 1.415 . S
C705 H675 0.950 . S
C705 C700 1.363 . S
C705 C704 1.415 . S
H706 C703 0.999 . S
H707 C688 0.913 . S
H708 C726 0.951 . S
H709 C728 0.951 . S
H710 C730 0.950 . S
H711 C731 0.950 . S
H712 C733 0.950 . S
H713 C736 0.950 . S
H714 C737 0.950 . S
H715 C739 0.950 . S
H716 C740 0.950 . S
H717 C741 0.951 . S
H718 C743 0.951 . S
H719 C745 0.950 . S
H720 C746 0.950 . S
H721 C748 0.950 . S
H722 C751 0.950 . S
H723 C752 0.950 . S
H724 C754 0.950 . S
H725 C755 0.950 . S
C726 H708 0.951 . S
C726 C727 1.366 . S
C726 C728 1.388 . S
C727 C726 1.366 . S
C727 C731 1.385 1_554 S
C728 H709 0.951 . S
C728 C726 1.388 . S
C728 C729 1.366 . S
C729 C728 1.366 . S
C729 C730 1.414 1_554 S
C729 C732 1.499 . S
C730 H710 0.950 . S
C730 C729 1.414 1_556 S
C730 C731 1.374 . S
C731 H711 0.950 . S
C731 C727 1.385 1_556 S
C731 C730 1.374 . S
C732 C729 1.499 . S
C732 C733 1.373 1_554 S
C732 C734 1.389 . S
C733 H712 0.950 . S
C733 C732 1.373 1_556 S
C733 C749 1.377 . S
C734 C732 1.389 . S
C734 C735 1.524 . S
C734 C748 1.377 . S
C735 C734 1.524 . S
C735 C736 1.397 . S
C735 C740 1.363 . S
C736 H713 0.950 . S
C736 C735 1.397 . S
C736 C737 1.334 . S
C737 H714 0.950 . S
C737 C736 1.334 . S
C737 C738 1.287 . S
C738 C737 1.287 . S
C738 C739 1.524 . S
C738 H757 0.913 . S
C739 H715 0.950 . S
C739 C738 1.524 . S
C739 C740 1.415 . S
C740 H716 0.950 . S
C740 C735 1.363 . S
C740 C739 1.415 . S
C741 H717 0.951 . S
C741 C742 1.366 . S
C741 C743 1.388 . S
C742 C741 1.366 . S
C742 C746 1.385 1_556 S
C743 H718 0.951 . S
C743 C741 1.388 . S
C743 C744 1.366 . S
C744 C743 1.366 . S
C744 C745 1.414 1_556 S
C744 C747 1.499 . S
C745 H719 0.950 . S
C745 C744 1.414 1_554 S
C745 C746 1.374 . S
C746 H720 0.950 . S
C746 C742 1.385 1_554 S
C746 C745 1.374 . S
C747 C744 1.499 . S
C747 C748 1.373 1_556 S
C747 C749 1.389 . S
C748 H721 0.950 . S
C748 C734 1.377 . S
C748 C747 1.373 1_554 S
C749 C733 1.377 . S
C749 C747 1.389 . S
C749 C750 1.524 . S
C750 C749 1.524 . S
C750 C751 1.397 . S
C750 C755 1.363 . S
C751 H722 0.950 . S
C751 C750 1.397 . S
C751 C752 1.334 . S
C752 H723 0.950 . S
C752 C751 1.334 . S
C752 C753 1.287 . S
C753 C752 1.287 . S
C753 C754 1.524 . S
C753 H756 0.999 . S
C754 H724 0.950 . S
C754 C753 1.524 . S
C754 C755 1.415 . S
C755 H725 0.950 . S
C755 C750 1.363 . S
C755 C754 1.415 . S
H756 C753 0.999 . S
H757 C738 0.913 . S
H758 C776 0.951 . S
H759 C778 0.951 . S
H760 C780 0.950 . S
H761 C781 0.950 . S
H762 C783 0.950 . S
H763 C786 0.950 . S
H764 C787 0.950 . S
H765 C789 0.950 . S
H766 C790 0.950 . S
H767 C791 0.951 . S
H768 C793 0.951 . S
H769 C795 0.950 . S
H770 C796 0.950 . S
H771 C798 0.950 . S
H772 C801 0.950 . S
H773 C802 0.950 . S
H774 C804 0.950 . S
H775 C805 0.950 . S
C776 H758 0.951 . S
C776 C777 1.366 1_554 S
C776 C778 1.388 . S
C777 C776 1.366 1_556 S
C777 C781 1.385 . S
C778 H759 0.951 . S
C778 C776 1.388 . S
C778 C779 1.366 . S
C779 C778 1.366 . S
C779 C780 1.414 1_554 S
C779 C782 1.499 . S
C780 H760 0.950 . S
C780 C779 1.414 1_556 S
C780 C781 1.374 . S
C781 H761 0.950 . S
C781 C777 1.385 . S
C781 C780 1.374 . S
C782 C779 1.499 . S
C782 C783 1.373 1_554 S
C782 C784 1.389 . S
C783 H762 0.950 . S
C783 C782 1.373 1_556 S
C783 C799 1.377 . S
C784 C782 1.389 . S
C784 C785 1.524 . S
C784 C798 1.377 . S
C785 C784 1.524 . S
C785 C786 1.397 . S
C785 C790 1.363 . S
C786 H763 0.950 . S
C786 C785 1.397 . S
C786 C787 1.334 . S
C787 H764 0.950 . S
C787 C786 1.334 . S
C787 C788 1.287 . S
C788 C787 1.287 . S
C788 C789 1.524 . S
C788 H807 0.913 . S
C789 H765 0.950 . S
C789 C788 1.524 . S
C789 C790 1.415 . S
C790 H766 0.950 . S
C790 C785 1.363 . S
C790 C789 1.415 . S
C791 H767 0.951 . S
C791 C792 1.366 1_556 S
C791 C793 1.388 . S
C792 C791 1.366 1_554 S
C792 C796 1.385 . S
C793 H768 0.951 . S
C793 C791 1.388 . S
C793 C794 1.370 . S
C794 C793 1.370 . S
C794 C795 1.408 1_556 S
C794 C797 1.499 . S
C795 H769 0.950 . S
C795 C794 1.408 1_554 S
C795 C796 1.374 . S
C796 H770 0.950 . S
C796 C792 1.385 . S
C796 C795 1.374 . S
C797 C794 1.499 . S
C797 C798 1.373 1_556 S
C797 C799 1.389 . S
C798 H771 0.950 . S
C798 C784 1.377 . S
C798 C797 1.373 1_554 S
C799 C783 1.377 . S
C799 C797 1.389 . S
C799 C800 1.524 . S
C800 C799 1.524 . S
C800 C801 1.397 . S
C800 C805 1.363 . S
C801 H772 0.950 . S
C801 C800 1.397 . S
C801 C802 1.334 . S
C802 H773 0.950 . S
C802 C801 1.334 . S
C802 C803 1.287 . S
C803 C802 1.287 . S
C803 C804 1.524 . S
C803 H806 0.999 . S
C804 H774 0.950 . S
C804 C803 1.524 . S
C804 C805 1.415 . S
C805 H775 0.950 . S
C805 C800 1.363 . S
C805 C804 1.415 . S
H806 C803 0.999 . S
H807 C788 0.913 . S
H808 C826 0.951 . S
H809 C828 0.951 . S
H810 C830 0.950 . S
H811 C831 0.950 . S
H812 C833 0.950 . S
H813 C836 0.950 . S
H814 C837 0.950 . S
H815 C839 0.950 . S
H816 C840 0.950 . S
H817 C841 0.951 . S
H818 C843 0.951 . S
H819 C845 0.950 . S
H820 C846 0.950 . S
H821 C848 0.950 . S
H822 C851 0.950 . S
H823 C852 0.950 . S
H824 C854 0.950 . S
H825 C855 0.950 . S
C826 H808 0.951 . S
C826 C827 1.366 . S
C826 C828 1.388 . S
C827 C826 1.366 . S
C827 C831 1.385 . S
C828 H809 0.951 . S
C828 C826 1.388 . S
C828 C829 1.366 . S
C829 C828 1.366 . S
C829 C830 1.414 . S
C829 C832 1.499 . S
C830 H810 0.950 . S
C830 C829 1.414 . S
C830 C831 1.374 . S
C831 H811 0.950 . S
C831 C827 1.385 . S
C831 C830 1.374 . S
C832 C829 1.499 . S
C832 C833 1.373 . S
C832 C834 1.389 . S
C833 H812 0.950 . S
C833 C832 1.373 . S
C833 C849 1.377 . S
C834 C832 1.389 . S
C834 C835 1.524 . S
C834 C848 1.377 . S
C835 C834 1.524 . S
C835 C836 1.397 . S
C835 C840 1.363 . S
C836 H813 0.950 . S
C836 C835 1.397 . S
C836 C837 1.334 . S
C837 H814 0.950 . S
C837 C836 1.334 . S
C837 C838 1.287 . S
C838 C837 1.287 . S
C838 C839 1.524 . S
C838 H857 0.913 . S
C839 H815 0.950 . S
C839 C838 1.524 . S
C839 C840 1.415 . S
C840 H816 0.950 . S
C840 C835 1.363 . S
C840 C839 1.415 . S
C841 H817 0.951 . S
C841 C842 1.366 . S
C841 C843 1.388 . S
C842 C841 1.366 . S
C842 C846 1.385 . S
C843 H818 0.951 . S
C843 C841 1.388 . S
C843 C844 1.366 . S
C844 C843 1.366 . S
C844 C845 1.414 . S
C844 C847 1.499 . S
C845 H819 0.950 . S
C845 C844 1.414 . S
C845 C846 1.374 . S
C846 H820 0.950 . S
C846 C842 1.385 . S
C846 C845 1.374 . S
C847 C844 1.499 . S
C847 C848 1.373 . S
C847 C849 1.389 . S
C848 H821 0.950 . S
C848 C834 1.377 . S
C848 C847 1.373 . S
C849 C833 1.377 . S
C849 C847 1.389 . S
C849 C850 1.524 . S
C850 C849 1.524 . S
C850 C851 1.397 . S
C850 C855 1.363 . S
C851 H822 0.950 . S
C851 C850 1.397 . S
C851 C852 1.334 . S
C852 H823 0.950 . S
C852 C851 1.334 . S
C852 C853 1.287 . S
C853 C852 1.287 . S
C853 C854 1.524 . S
C853 H856 0.999 . S
C854 H824 0.950 . S
C854 C853 1.524 . S
C854 C855 1.415 . S
C855 H825 0.950 . S
C855 C850 1.363 . S
C855 C854 1.415 . S
H856 C853 0.999 . S
H857 C838 0.913 . S
H858 C876 0.951 . S
H859 C878 0.951 . S
H860 C880 0.950 . S
H861 C881 0.950 . S
H862 C883 0.950 . S
H863 C886 0.950 . S
H864 C887 0.950 . S
H865 C889 0.950 . S
H866 C890 0.950 . S
H867 C891 0.951 . S
H868 C893 0.951 . S
H869 C895 0.950 . S
H870 C896 0.950 . S
H871 C898 0.950 . S
H872 C901 0.950 . S
H873 C902 0.950 . S
H874 C904 0.950 . S
H875 C905 0.950 . S
C876 H858 0.951 . S
C876 C877 1.366 . S
C876 C878 1.388 . S
C877 C876 1.366 . S
C877 C881 1.385 . S
C878 H859 0.951 . S
C878 C876 1.388 . S
C878 C879 1.366 . S
C879 C878 1.366 . S
C879 C880 1.414 . S
C879 C882 1.499 . S
C880 H860 0.950 . S
C880 C879 1.414 . S
C880 C881 1.374 . S
C881 H861 0.950 . S
C881 C877 1.385 . S
C881 C880 1.374 . S
C882 C879 1.499 . S
C882 C883 1.373 . S
C882 C884 1.389 . S
C883 H862 0.950 . S
C883 C882 1.373 . S
C883 C899 1.377 . S
C884 C882 1.389 . S
C884 C885 1.524 . S
C884 C898 1.377 . S
C885 C884 1.524 . S
C885 C886 1.397 . S
C885 C890 1.363 . S
C886 H863 0.950 . S
C886 C885 1.397 . S
C886 C887 1.334 . S
C887 H864 0.950 . S
C887 C886 1.334 . S
C887 C888 1.287 . S
C888 C887 1.287 . S
C888 C889 1.524 . S
C888 H907 0.913 . S
C889 H865 0.950 . S
C889 C888 1.524 . S
C889 C890 1.415 . S
C890 H866 0.950 . S
C890 C885 1.363 . S
C890 C889 1.415 . S
C891 H867 0.951 . S
C891 C892 1.366 . S
C891 C893 1.388 . S
C892 C891 1.366 . S
C892 C896 1.385 . S
C893 H868 0.951 . S
C893 C891 1.388 . S
C893 C894 1.366 . S
C894 C893 1.366 . S
C894 C895 1.414 . S
C894 C897 1.499 . S
C895 H869 0.950 . S
C895 C894 1.414 . S
C895 C896 1.374 . S
C896 H870 0.950 . S
C896 C892 1.385 . S
C896 C895 1.374 . S
C897 C894 1.499 . S
C897 C898 1.373 . S
C897 C899 1.389 . S
C898 H871 0.950 . S
C898 C884 1.377 . S
C898 C897 1.373 . S
C899 C883 1.377 . S
C899 C897 1.389 . S
C899 C900 1.524 . S
C900 C899 1.524 . S
C900 C901 1.397 . S
C900 C905 1.363 . S
C901 H872 0.950 . S
C901 C900 1.397 . S
C901 C902 1.334 . S
C902 H873 0.950 . S
C902 C901 1.334 . S
C902 C903 1.287 . S
C903 C902 1.287 . S
C903 C904 1.524 . S
C903 H906 0.999 . S
C904 H874 0.950 . S
C904 C903 1.524 . S
C904 C905 1.415 . S
C905 H875 0.950 . S
C905 C900 1.363 . S
C905 C904 1.415 . S
H906 C903 0.999 . S
H907 C888 0.913 . S
H908 C926 0.951 . S
H909 C928 0.951 . S
H910 C930 0.950 . S
H911 C931 0.950 . S
H912 C933 0.950 . S
H913 C936 0.950 . S
H914 C937 0.950 . S
H915 C939 0.950 . S
H916 C940 0.950 . S
H917 C941 0.951 . S
H918 C943 0.951 . S
H919 C945 0.950 . S
H920 C946 0.950 . S
H921 C948 0.950 . S
H922 C951 0.950 . S
H923 C952 0.950 . S
H924 C954 0.950 . S
H925 C955 0.950 . S
C926 H908 0.951 . S
C926 C927 1.366 . S
C926 C928 1.388 . S
C927 C926 1.366 . S
C927 C931 1.385 . S
C928 H909 0.951 . S
C928 C926 1.388 . S
C928 C929 1.366 . S
C929 C928 1.366 . S
C929 C930 1.414 . S
C929 C932 1.499 . S
C930 H910 0.950 . S
C930 C929 1.414 . S
C930 C931 1.374 . S
C931 H911 0.950 . S
C931 C927 1.385 . S
C931 C930 1.374 . S
C932 C929 1.499 . S
C932 C933 1.373 . S
C932 C934 1.389 . S
C933 H912 0.950 . S
C933 C932 1.373 . S
C933 C949 1.377 . S
C934 C932 1.389 . S
C934 C935 1.524 . S
C934 C948 1.377 . S
C935 C934 1.524 . S
C935 C936 1.397 . S
C935 C940 1.363 . S
C936 H913 0.950 . S
C936 C935 1.397 . S
C936 C937 1.334 . S
C937 H914 0.950 . S
C937 C936 1.334 . S
C937 C938 1.287 . S
C938 C937 1.287 . S
C938 C939 1.524 . S
C938 H957 0.913 . S
C939 H915 0.950 . S
C939 C938 1.524 . S
C939 C940 1.415 . S
C940 H916 0.950 . S
C940 C935 1.363 . S
C940 C939 1.415 . S
C941 H917 0.951 . S
C941 C942 1.366 . S
C941 C943 1.388 . S
C942 C941 1.366 . S
C942 C946 1.385 . S
C943 H918 0.951 . S
C943 C941 1.388 . S
C943 C944 1.366 . S
C944 C943 1.366 . S
C944 C945 1.414 . S
C944 C947 1.499 . S
C945 H919 0.950 . S
C945 C944 1.414 . S
C945 C946 1.374 . S
C946 H920 0.950 . S
C946 C942 1.385 . S
C946 C945 1.374 . S
C947 C944 1.499 . S
C947 C948 1.373 . S
C947 C949 1.389 . S
C948 H921 0.950 . S
C948 C934 1.377 . S
C948 C947 1.373 . S
C949 C933 1.377 . S
C949 C947 1.389 . S
C949 C950 1.524 . S
C950 C949 1.524 . S
C950 C951 1.397 . S
C950 C955 1.363 . S
C951 H922 0.950 . S
C951 C950 1.397 . S
C951 C952 1.334 . S
C952 H923 0.950 . S
C952 C951 1.334 . S
C952 C953 1.287 . S
C953 C952 1.287 . S
C953 C954 1.524 . S
C953 H956 0.999 . S
C954 H924 0.950 . S
C954 C953 1.524 . S
C954 C955 1.415 . S
C955 H925 0.950 . S
C955 C950 1.363 . S
C955 C954 1.415 . S
H956 C953 0.999 . S
H957 C938 0.913 . S
H958 C976 0.951 . S
H959 C978 0.951 . S
H960 C980 0.950 . S
H961 C981 0.950 . S
H962 C983 0.950 . S
H963 C986 0.950 . S
H964 C987 0.950 . S
H965 C989 0.950 . S
H966 C990 0.950 . S
H967 C991 0.951 . S
H968 C993 0.951 . S
H969 C995 0.950 . S
H970 C996 0.950 . S
H971 C998 0.950 . S
H972 C1001 0.950 . S
H973 C1002 0.950 . S
H974 C1004 0.950 . S
H975 C1005 0.950 . S
C976 H958 0.951 . S
C976 C977 1.366 . S
C976 C978 1.388 . S
C977 C976 1.366 . S
C977 C981 1.385 . S
C978 H959 0.951 . S
C978 C976 1.388 . S
C978 C979 1.366 . S
C979 C978 1.366 . S
C979 C980 1.414 . S
C979 C982 1.499 . S
C980 H960 0.950 . S
C980 C979 1.414 . S
C980 C981 1.374 . S
C981 H961 0.950 . S
C981 C977 1.385 . S
C981 C980 1.374 . S
C982 C979 1.499 . S
C982 C983 1.373 . S
C982 C984 1.389 . S
C983 H962 0.950 . S
C983 C982 1.373 . S
C983 C999 1.377 . S
C984 C982 1.389 . S
C984 C985 1.524 . S
C984 C998 1.377 . S
C985 C984 1.524 . S
C985 C986 1.397 . S
C985 C990 1.363 . S
C986 H963 0.950 . S
C986 C985 1.397 . S
C986 C987 1.334 . S
C987 H964 0.950 . S
C987 C986 1.334 . S
C987 C988 1.287 . S
C988 C987 1.287 . S
C988 C989 1.524 . S
C988 H1007 0.913 . S
C989 H965 0.950 . S
C989 C988 1.524 . S
C989 C990 1.415 . S
C990 H966 0.950 . S
C990 C985 1.363 . S
C990 C989 1.415 . S
C991 H967 0.951 . S
C991 C992 1.366 . S
C991 C993 1.388 . S
C992 C991 1.366 . S
C992 C996 1.385 . S
C993 H968 0.951 . S
C993 C991 1.388 . S
C993 C994 1.366 . S
C994 C993 1.366 . S
C994 C995 1.414 . S
C994 C997 1.499 . S
C995 H969 0.950 . S
C995 C994 1.414 . S
C995 C996 1.374 . S
C996 H970 0.950 . S
C996 C992 1.385 . S
C996 C995 1.374 . S
C997 C994 1.499 . S
C997 C998 1.373 . S
C997 C999 1.389 . S
C998 H971 0.950 . S
C998 C984 1.377 . S
C998 C997 1.373 . S
C999 C983 1.377 . S
C999 C997 1.389 . S
C999 C1000 1.524 . S
C1000 C999 1.524 . S
C1000 C1001 1.397 . S
C1000 C1005 1.363 . S
C1001 H972 0.950 . S
C1001 C1000 1.397 . S
C1001 C1002 1.334 . S
C1002 H973 0.950 . S
C1002 C1001 1.334 . S
C1002 C1003 1.287 . S
C1003 C1002 1.287 . S
C1003 C1004 1.524 . S
C1003 H1006 0.999 . S
C1004 H974 0.950 . S
C1004 C1003 1.524 . S
C1004 C1005 1.415 . S
C1005 H975 0.950 . S
C1005 C1000 1.363 . S
C1005 C1004 1.415 . S
H1006 C1003 0.999 . S
H1007 C988 0.913 . S
H1008 C1026 0.951 . S
H1009 C1028 0.951 . S
H1010 C1030 0.950 . S
H1011 C1031 0.950 . S
H1012 C1033 0.950 . S
H1013 C1036 0.950 . S
H1014 C1037 0.950 . S
H1015 C1039 0.950 . S
H1016 C1040 0.950 . S
H1017 C1041 0.951 . S
H1018 C1043 0.951 . S
H1019 C1045 0.950 . S
H1020 C1046 0.950 . S
H1021 C1048 0.950 . S
H1022 C1051 0.950 . S
H1023 C1052 0.950 . S
H1024 C1054 0.950 . S
H1025 C1055 0.950 . S
C1026 H1008 0.951 . S
C1026 C1027 1.366 . S
C1026 C1028 1.388 . S
C1027 C1026 1.366 . S
C1027 C1031 1.385 . S
C1028 H1009 0.951 . S
C1028 C1026 1.388 . S
C1028 C1029 1.366 . S
C1029 C1028 1.366 . S
C1029 C1030 1.414 . S
C1029 C1032 1.499 . S
C1030 H1010 0.950 . S
C1030 C1029 1.414 . S
C1030 C1031 1.374 . S
C1031 H1011 0.950 . S
C1031 C1027 1.385 . S
C1031 C1030 1.374 . S
C1032 C1029 1.499 . S
C1032 C1033 1.373 . S
C1032 C1034 1.389 . S
C1033 H1012 0.950 . S
C1033 C1032 1.373 . S
C1033 C1049 1.377 . S
C1034 C1032 1.389 . S
C1034 C1035 1.524 . S
C1034 C1048 1.377 . S
C1035 C1034 1.524 . S
C1035 C1036 1.397 . S
C1035 C1040 1.363 . S
C1036 H1013 0.950 . S
C1036 C1035 1.397 . S
C1036 C1037 1.334 . S
C1037 H1014 0.950 . S
C1037 C1036 1.334 . S
C1037 C1038 1.287 . S
C1038 C1037 1.287 . S
C1038 C1039 1.524 . S
C1038 H1057 0.913 . S
C1039 H1015 0.950 . S
C1039 C1038 1.524 . S
C1039 C1040 1.415 . S
C1040 H1016 0.950 . S
C1040 C1035 1.363 . S
C1040 C1039 1.415 . S
C1041 H1017 0.951 . S
C1041 C1042 1.366 . S
C1041 C1043 1.388 . S
C1042 C1041 1.366 . S
C1042 C1046 1.385 . S
C1043 H1018 0.951 . S
C1043 C1041 1.388 . S
C1043 C1044 1.366 . S
C1044 C1043 1.366 . S
C1044 C1045 1.414 . S
C1044 C1047 1.499 . S
C1045 H1019 0.950 . S
C1045 C1044 1.414 . S
C1045 C1046 1.374 . S
C1046 H1020 0.950 . S
C1046 C1042 1.385 . S
C1046 C1045 1.374 . S
C1047 C1044 1.499 . S
C1047 C1048 1.373 . S
C1047 C1049 1.389 . S
C1048 H1021 0.950 . S
C1048 C1034 1.377 . S
C1048 C1047 1.373 . S
C1049 C1033 1.377 . S
C1049 C1047 1.389 . S
C1049 C1050 1.524 . S
C1050 C1049 1.524 . S
C1050 C1051 1.397 . S
C1050 C1055 1.363 . S
C1051 H1022 0.950 . S
C1051 C1050 1.397 . S
C1051 C1052 1.334 . S
C1052 H1023 0.950 . S
C1052 C1051 1.334 . S
C1052 C1053 1.287 . S
C1053 C1052 1.287 . S
C1053 C1054 1.524 . S
C1053 H1056 0.999 . S
C1054 H1024 0.950 . S
C1054 C1053 1.524 . S
C1054 C1055 1.415 . S
C1055 H1025 0.950 . S
C1055 C1050 1.363 . S
C1055 C1054 1.415 . S
H1056 C1053 0.999 . S
H1057 C1038 0.913 . S
H1058 C1076 0.951 . S
H1059 C1078 0.951 . S
H1060 C1080 0.950 . S
H1061 C1081 0.950 . S
H1062 C1083 0.950 . S
H1063 C1086 0.950 . S
H1064 C1087 0.950 . S
H1065 C1089 0.950 . S
H1066 C1090 0.950 . S
H1067 C1091 0.951 . S
H1068 C1093 0.951 . S
H1069 C1095 0.950 . S
H1070 C1096 0.950 . S
H1071 C1098 0.950 . S
H1072 C1101 0.950 . S
H1073 C1102 0.950 . S
H1074 C1104 0.950 . S
H1075 C1105 0.950 . S
C1076 H1058 0.951 . S
C1076 C1077 1.366 . S
C1076 C1078 1.388 . S
C1077 C1076 1.366 . S
C1077 C1081 1.385 . S
C1078 H1059 0.951 . S
C1078 C1076 1.388 . S
C1078 C1079 1.366 . S
C1079 C1078 1.366 . S
C1079 C1080 1.414 . S
C1079 C1082 1.499 . S
C1080 H1060 0.950 . S
C1080 C1079 1.414 . S
C1080 C1081 1.374 . S
C1081 H1061 0.950 . S
C1081 C1077 1.385 . S
C1081 C1080 1.374 . S
C1082 C1079 1.499 . S
C1082 C1083 1.373 . S
C1082 C1084 1.389 . S
C1083 H1062 0.950 . S
C1083 C1082 1.373 . S
C1083 C1099 1.377 . S
C1084 C1082 1.389 . S
C1084 C1085 1.524 . S
C1084 C1098 1.377 . S
C1085 C1084 1.524 . S
C1085 C1086 1.397 . S
C1085 C1090 1.363 . S
C1086 H1063 0.950 . S
C1086 C1085 1.397 . S
C1086 C1087 1.334 . S
C1087 H1064 0.950 . S
C1087 C1086 1.334 . S
C1087 C1088 1.287 . S
C1088 C1087 1.287 . S
C1088 C1089 1.524 . S
C1088 H1107 0.913 . S
C1089 H1065 0.950 . S
C1089 C1088 1.524 . S
C1089 C1090 1.415 . S
C1090 H1066 0.950 . S
C1090 C1085 1.363 . S
C1090 C1089 1.415 . S
C1091 H1067 0.951 . S
C1091 C1092 1.366 . S
C1091 C1093 1.388 . S
C1092 C1091 1.366 . S
C1092 C1096 1.385 . S
C1093 H1068 0.951 . S
C1093 C1091 1.388 . S
C1093 C1094 1.366 . S
C1094 C1093 1.366 . S
C1094 C1095 1.414 . S
C1094 C1097 1.499 . S
C1095 H1069 0.950 . S
C1095 C1094 1.414 . S
C1095 C1096 1.374 . S
C1096 H1070 0.950 . S
C1096 C1092 1.385 . S
C1096 C1095 1.374 . S
C1097 C1094 1.499 . S
C1097 C1098 1.373 . S
C1097 C1099 1.389 . S
C1098 H1071 0.950 . S
C1098 C1084 1.377 . S
C1098 C1097 1.373 . S
C1099 C1083 1.377 . S
C1099 C1097 1.389 . S
C1099 C1100 1.524 . S
C1100 C1099 1.524 . S
C1100 C1101 1.397 . S
C1100 C1105 1.363 . S
C1101 H1072 0.950 . S
C1101 C1100 1.397 . S
C1101 C1102 1.334 . S
C1102 H1073 0.950 . S
C1102 C1101 1.334 . S
C1102 C1103 1.287 . S
C1103 C1102 1.287 . S
C1103 C1104 1.524 . S
C1103 H1106 0.999 . S
C1104 H1074 0.950 . S
C1104 C1103 1.524 . S
C1104 C1105 1.415 . S
C1105 H1075 0.950 . S
C1105 C1100 1.363 . S
C1105 C1104 1.415 . S
H1106 C1103 0.999 . S
H1107 C1088 0.913 . S
H1108 C1126 0.951 . S
H1109 C1128 0.951 . S
H1110 C1130 0.950 . S
H1111 C1131 0.950 . S
H1112 C1133 0.950 . S
H1113 C1136 0.950 . S
H1114 C1137 0.950 . S
H1115 C1139 0.950 . S
H1116 C1140 0.950 . S
H1117 C1141 0.951 . S
H1118 C1143 0.951 . S
H1119 C1145 0.950 . S
H1120 C1146 0.950 . S
H1121 C1148 0.950 . S
H1122 C1151 0.950 . S
H1123 C1152 0.950 . S
H1124 C1154 0.950 . S
H1125 C1155 0.950 . S
C1126 H1108 0.951 . S
C1126 C1127 1.366 . S
C1126 C1128 1.388 . S
C1127 C1126 1.366 . S
C1127 C1131 1.385 . S
C1128 H1109 0.951 . S
C1128 C1126 1.388 . S
C1128 C1129 1.366 . S
C1129 C1128 1.366 . S
C1129 C1130 1.414 . S
C1129 C1132 1.499 . S
C1130 H1110 0.950 . S
C1130 C1129 1.414 . S
C1130 C1131 1.374 . S
C1131 H1111 0.950 . S
C1131 C1127 1.385 . S
C1131 C1130 1.374 . S
C1132 C1129 1.499 . S
C1132 C1133 1.373 . S
C1132 C1134 1.389 . S
C1133 H1112 0.950 . S
C1133 C1132 1.373 . S
C1133 C1149 1.377 . S
C1134 C1132 1.389 . S
C1134 C1135 1.524 . S
C1134 C1148 1.377 . S
C1135 C1134 1.524 . S
C1135 C1136 1.397 . S
C1135 C1140 1.363 . S
C1136 H1113 0.950 . S
C1136 C1135 1.397 . S
C1136 C1137 1.334 . S
C1137 H1114 0.950 . S
C1137 C1136 1.334 . S
C1137 C1138 1.287 . S
C1138 C1137 1.287 . S
C1138 C1139 1.524 . S
C1138 H1157 0.913 . S
C1139 H1115 0.950 . S
C1139 C1138 1.524 . S
C1139 C1140 1.415 . S
C1140 H1116 0.950 . S
C1140 C1135 1.363 . S
C1140 C1139 1.415 . S
C1141 H1117 0.951 . S
C1141 C1142 1.366 . S
C1141 C1143 1.388 . S
C1142 C1141 1.366 . S
C1142 C1146 1.385 . S
C1143 H1118 0.951 . S
C1143 C1141 1.388 . S
C1143 C1144 1.366 . S
C1144 C1143 1.366 . S
C1144 C1145 1.414 . S
C1144 C1147 1.499 . S
C1145 H1119 0.950 . S
C1145 C1144 1.414 . S
C1145 C1146 1.374 . S
C1146 H1120 0.950 . S
C1146 C1142 1.385 . S
C1146 C1145 1.374 . S
C1147 C1144 1.499 . S
C1147 C1148 1.373 . S
C1147 C1149 1.389 . S
C1148 H1121 0.950 . S
C1148 C1134 1.377 . S
C1148 C1147 1.373 . S
C1149 C1133 1.377 . S
C1149 C1147 1.389 . S
C1149 C1150 1.524 . S
C1150 C1149 1.524 . S
C1150 C1151 1.397 . S
C1150 C1155 1.363 . S
C1151 H1122 0.950 . S
C1151 C1150 1.397 . S
C1151 C1152 1.334 . S
C1152 H1123 0.950 . S
C1152 C1151 1.334 . S
C1152 C1153 1.287 . S
C1153 C1152 1.287 . S
C1153 C1154 1.524 . S
C1153 H1156 0.999 . S
C1154 H1124 0.950 . S
C1154 C1153 1.524 . S
C1154 C1155 1.415 . S
C1155 H1125 0.950 . S
C1155 C1150 1.363 . S
C1155 C1154 1.415 . S
H1156 C1153 0.999 . S
H1157 C1138 0.913 . S
H1158 C1176 0.951 . S
H1159 C1178 0.951 . S
H1160 C1180 0.950 . S
H1161 C1181 0.950 . S
H1162 C1183 0.950 . S
H1163 C1186 0.950 . S
H1164 C1187 0.950 . S
H1165 C1189 0.950 . S
H1166 C1190 0.950 . S
H1167 C1191 0.951 . S
H1168 C1193 0.951 . S
H1169 C1195 0.950 . S
H1170 C1196 0.950 . S
H1171 C1198 0.950 . S
H1172 C1201 0.950 . S
H1173 C1202 0.950 . S
H1174 C1204 0.950 . S
H1175 C1205 0.950 . S
C1176 H1158 0.951 . S
C1176 C1177 1.366 . S
C1176 C1178 1.388 . S
C1177 C1176 1.366 . S
C1177 C1181 1.385 . S
C1178 H1159 0.951 . S
C1178 C1176 1.388 . S
C1178 C1179 1.366 . S
C1179 C1178 1.366 . S
C1179 C1180 1.414 . S
C1179 C1182 1.499 . S
C1180 H1160 0.950 . S
C1180 C1179 1.414 . S
C1180 C1181 1.374 . S
C1181 H1161 0.950 . S
C1181 C1177 1.385 . S
C1181 C1180 1.374 . S
C1182 C1179 1.499 . S
C1182 C1183 1.373 . S
C1182 C1184 1.389 . S
C1183 H1162 0.950 . S
C1183 C1182 1.373 . S
C1183 C1199 1.377 . S
C1184 C1182 1.389 . S
C1184 C1185 1.524 . S
C1184 C1198 1.377 . S
C1185 C1184 1.524 . S
C1185 C1186 1.397 . S
C1185 C1190 1.363 . S
C1186 H1163 0.950 . S
C1186 C1185 1.397 . S
C1186 C1187 1.334 . S
C1187 H1164 0.950 . S
C1187 C1186 1.334 . S
C1187 C1188 1.287 . S
C1188 C1187 1.287 . S
C1188 C1189 1.524 . S
C1188 H1207 0.913 . S
C1189 H1165 0.950 . S
C1189 C1188 1.524 . S
C1189 C1190 1.415 . S
C1190 H1166 0.950 . S
C1190 C1185 1.363 . S
C1190 C1189 1.415 . S
C1191 H1167 0.951 . S
C1191 C1192 1.366 . S
C1191 C1193 1.388 . S
C1192 C1191 1.366 . S
C1192 C1196 1.385 . S
C1193 H1168 0.951 . S
C1193 C1191 1.388 . S
C1193 C1194 1.366 . S
C1194 C1193 1.366 . S
C1194 C1195 1.414 . S
C1194 C1197 1.499 . S
C1195 H1169 0.950 . S
C1195 C1194 1.414 . S
C1195 C1196 1.374 . S
C1196 H1170 0.950 . S
C1196 C1192 1.385 . S
C1196 C1195 1.374 . S
C1197 C1194 1.499 . S
C1197 C1198 1.373 . S
C1197 C1199 1.389 . S
C1198 H1171 0.950 . S
C1198 C1184 1.377 . S
C1198 C1197 1.373 . S
C1199 C1183 1.377 . S
C1199 C1197 1.389 . S
C1199 C1200 1.524 . S
C1200 C1199 1.524 . S
C1200 C1201 1.397 . S
C1200 C1205 1.363 . S
C1201 H1172 0.950 . S
C1201 C1200 1.397 . S
C1201 C1202 1.334 . S
C1202 H1173 0.950 . S
C1202 C1201 1.334 . S
C1202 C1203 1.287 . S
C1203 C1202 1.287 . S
C1203 C1204 1.524 . S
C1203 H1206 0.999 . S
C1204 H1174 0.950 . S
C1204 C1203 1.524 . S
C1204 C1205 1.415 . S
C1205 H1175 0.950 . S
C1205 C1200 1.363 . S
C1205 C1204 1.415 . S
H1206 C1203 0.999 . S
H1207 C1188 0.913 . S
H1208 C1226 0.951 . S
H1209 C1228 0.951 . S
H1210 C1230 0.950 . S
H1211 C1231 0.950 . S
H1212 C1233 0.950 . S
H1213 C1236 0.950 . S
H1214 C1237 0.950 . S
H1215 C1239 0.950 . S
H1216 C1240 0.950 . S
H1217 C1241 0.951 . S
H1218 C1243 0.951 . S
H1219 C1245 0.950 . S
H1220 C1246 0.950 . S
H1221 C1248 0.950 . S
H1222 C1251 0.950 . S
H1223 C1252 0.950 . S
H1224 C1254 0.950 . S
H1225 C1255 0.950 . S
C1226 H1208 0.951 . S
C1226 C1227 1.366 . S
C1226 C1228 1.388 . S
C1227 C1226 1.366 . S
C1227 C1231 1.385 . S
C1228 H1209 0.951 . S
C1228 C1226 1.388 . S
C1228 C1229 1.366 . S
C1229 C1228 1.366 . S
C1229 C1230 1.414 . S
C1229 C1232 1.499 . S
C1230 H1210 0.950 . S
C1230 C1229 1.414 . S
C1230 C1231 1.374 . S
C1231 H1211 0.950 . S
C1231 C1227 1.385 . S
C1231 C1230 1.374 . S
C1232 C1229 1.499 . S
C1232 C1233 1.373 . S
C1232 C1234 1.389 . S
C1233 H1212 0.950 . S
C1233 C1232 1.373 . S
C1233 C1249 1.377 . S
C1234 C1232 1.389 . S
C1234 C1235 1.524 . S
C1234 C1248 1.377 . S
C1235 C1234 1.524 . S
C1235 C1236 1.397 . S
C1235 C1240 1.363 . S
C1236 H1213 0.950 . S
C1236 C1235 1.397 . S
C1236 C1237 1.334 . S
C1237 H1214 0.950 . S
C1237 C1236 1.334 . S
C1237 C1238 1.287 . S
C1238 C1237 1.287 . S
C1238 C1239 1.524 . S
C1238 H1257 0.913 . S
C1239 H1215 0.950 . S
C1239 C1238 1.524 . S
C1239 C1240 1.415 . S
C1240 H1216 0.950 . S
C1240 C1235 1.363 . S
C1240 C1239 1.415 . S
C1241 H1217 0.951 . S
C1241 C1242 1.366 . S
C1241 C1243 1.388 . S
C1242 C1241 1.366 . S
C1242 C1246 1.385 . S
C1243 H1218 0.951 . S
C1243 C1241 1.388 . S
C1243 C1244 1.366 . S
C1244 C1243 1.366 . S
C1244 C1245 1.414 . S
C1244 C1247 1.499 . S
C1245 H1219 0.950 . S
C1245 C1244 1.414 . S
C1245 C1246 1.374 . S
C1246 H1220 0.950 . S
C1246 C1242 1.385 . S
C1246 C1245 1.374 . S
C1247 C1244 1.499 . S
C1247 C1248 1.373 . S
C1247 C1249 1.389 . S
C1248 H1221 0.950 . S
C1248 C1234 1.377 . S
C1248 C1247 1.373 . S
C1249 C1233 1.377 . S
C1249 C1247 1.389 . S
C1249 C1250 1.524 . S
C1250 C1249 1.524 . S
C1250 C1251 1.397 . S
C1250 C1255 1.363 . S
C1251 H1222 0.950 . S
C1251 C1250 1.397 . S
C1251 C1252 1.334 . S
C1252 H1223 0.950 . S
C1252 C1251 1.334 . S
C1252 C1253 1.287 . S
C1253 C1252 1.287 . S
C1253 C1254 1.524 . S
C1253 H1256 0.999 . S
C1254 H1224 0.950 . S
C1254 C1253 1.524 . S
C1254 C1255 1.415 . S
C1255 H1225 0.950 . S
C1255 C1250 1.363 . S
C1255 C1254 1.415 . S
H1256 C1253 0.999 . S
H1257 C1238 0.913 . S
H1258 C1276 0.951 . S
H1259 C1278 0.951 . S
H1260 C1280 0.950 . S
H1261 C1281 0.950 . S
H1262 C1283 0.950 . S
H1263 C1286 0.950 . S
H1264 C1287 0.950 . S
H1265 C1289 0.950 . S
H1266 C1290 0.950 . S
H1267 C1291 0.951 . S
H1268 C1293 0.951 . S
H1269 C1295 0.950 . S
H1270 C1296 0.950 . S
H1271 C1298 0.950 . S
H1272 C1301 0.950 . S
H1273 C1302 0.950 . S
H1274 C1304 0.950 . S
H1275 C1305 0.950 . S
C1276 H1258 0.951 . S
C1276 C1277 1.366 . S
C1276 C1278 1.388 . S
C1277 C1276 1.366 . S
C1277 C1281 1.385 . S
C1278 H1259 0.951 . S
C1278 C1276 1.388 . S
C1278 C1279 1.366 . S
C1279 C1278 1.366 . S
C1279 C1280 1.414 . S
C1279 C1282 1.499 . S
C1280 H1260 0.950 . S
C1280 C1279 1.414 . S
C1280 C1281 1.374 . S
C1281 H1261 0.950 . S
C1281 C1277 1.385 . S
C1281 C1280 1.374 . S
C1282 C1279 1.499 . S
C1282 C1283 1.373 . S
C1282 C1284 1.389 . S
C1283 H1262 0.950 . S
C1283 C1282 1.373 . S
C1283 C1299 1.377 . S
C1284 C1282 1.389 . S
C1284 C1285 1.524 . S
C1284 C1298 1.377 . S
C1285 C1284 1.524 . S
C1285 C1286 1.397 . S
C1285 C1290 1.363 . S
C1286 H1263 0.950 . S
C1286 C1285 1.397 . S
C1286 C1287 1.334 . S
C1287 H1264 0.950 . S
C1287 C1286 1.334 . S
C1287 C1288 1.287 . S
C1288 C1287 1.287 . S
C1288 C1289 1.524 . S
C1288 H1307 0.913 . S
C1289 H1265 0.950 . S
C1289 C1288 1.524 . S
C1289 C1290 1.415 . S
C1290 H1266 0.950 . S
C1290 C1285 1.363 . S
C1290 C1289 1.415 . S
C1291 H1267 0.951 . S
C1291 C1292 1.366 . S
C1291 C1293 1.388 . S
C1292 C1291 1.366 . S
C1292 C1296 1.385 . S
C1293 H1268 0.951 . S
C1293 C1291 1.388 . S
C1293 C1294 1.366 . S
C1294 C1293 1.366 . S
C1294 C1295 1.414 . S
C1294 C1297 1.499 . S
C1295 H1269 0.950 . S
C1295 C1294 1.414 . S
C1295 C1296 1.374 . S
C1296 H1270 0.950 . S
C1296 C1292 1.385 . S
C1296 C1295 1.374 . S
C1297 C1294 1.499 . S
C1297 C1298 1.373 . S
C1297 C1299 1.389 . S
C1298 H1271 0.950 . S
C1298 C1284 1.377 . S
C1298 C1297 1.373 . S
C1299 C1283 1.377 . S
C1299 C1297 1.389 . S
C1299 C1300 1.524 . S
C1300 C1299 1.524 . S
C1300 C1301 1.397 . S
C1300 C1305 1.363 . S
C1301 H1272 0.950 . S
C1301 C1300 1.397 . S
C1301 C1302 1.334 . S
C1302 H1273 0.950 . S
C1302 C1301 1.334 . S
C1302 C1303 1.287 . S
C1303 C1302 1.287 . S
C1303 C1304 1.524 . S
C1303 H1306 0.999 . S
C1304 H1274 0.950 . S
C1304 C1303 1.524 . S
C1304 C1305 1.415 . S
C1305 H1275 0.950 . S
C1305 C1300 1.363 . S
C1305 C1304 1.415 . S
H1306 C1303 0.999 . S
H1307 C1288 0.913 . S
H1308 C1326 0.951 . S
H1309 C1328 0.951 . S
H1310 C1330 0.950 . S
H1311 C1331 0.950 . S
H1312 C1333 0.950 . S
H1313 C1336 0.950 . S
H1314 C1337 0.950 . S
H1315 C1339 0.950 . S
H1316 C1340 0.950 . S
H1317 C1341 0.951 . S
H1318 C1343 0.951 . S
H1319 C1345 0.950 . S
H1320 C1346 0.950 . S
H1321 C1348 0.950 . S
H1322 C1351 0.950 . S
H1323 C1352 0.950 . S
H1324 C1354 0.950 . S
H1325 C1355 0.950 . S
C1326 H1308 0.951 . S
C1326 C1327 1.366 . S
C1326 C1328 1.388 . S
C1327 C1326 1.366 . S
C1327 C1331 1.385 . S
C1328 H1309 0.951 . S
C1328 C1326 1.388 . S
C1328 C1329 1.366 . S
C1329 C1328 1.366 . S
C1329 C1330 1.414 . S
C1329 C1332 1.499 . S
C1330 H1310 0.950 . S
C1330 C1329 1.414 . S
C1330 C1331 1.374 . S
C1331 H1311 0.950 . S
C1331 C1327 1.385 . S
C1331 C1330 1.374 . S
C1332 C1329 1.499 . S
C1332 C1333 1.373 . S
C1332 C1334 1.389 . S
C1333 H1312 0.950 . S
C1333 C1332 1.373 . S
C1333 C1349 1.377 . S
C1334 C1332 1.389 . S
C1334 C1335 1.524 . S
C1334 C1348 1.377 . S
C1335 C1334 1.524 . S
C1335 C1336 1.397 . S
C1335 C1340 1.363 . S
C1336 H1313 0.950 . S
C1336 C1335 1.397 . S
C1336 C1337 1.334 . S
C1337 H1314 0.950 . S
C1337 C1336 1.334 . S
C1337 C1338 1.287 . S
C1338 C1337 1.287 . S
C1338 C1339 1.524 . S
C1338 H1357 0.913 . S
C1339 H1315 0.950 . S
C1339 C1338 1.524 . S
C1339 C1340 1.415 . S
C1340 H1316 0.950 . S
C1340 C1335 1.363 . S
C1340 C1339 1.415 . S
C1341 H1317 0.951 . S
C1341 C1342 1.366 . S
C1341 C1343 1.388 . S
C1342 C1341 1.366 . S
C1342 C1346 1.385 . S
C1343 H1318 0.951 . S
C1343 C1341 1.388 . S
C1343 C1344 1.366 . S
C1344 C1343 1.366 . S
C1344 C1345 1.414 . S
C1344 C1347 1.499 . S
C1345 H1319 0.950 . S
C1345 C1344 1.414 . S
C1345 C1346 1.374 . S
C1346 H1320 0.950 . S
C1346 C1342 1.385 . S
C1346 C1345 1.374 . S
C1347 C1344 1.499 . S
C1347 C1348 1.373 . S
C1347 C1349 1.389 . S
C1348 H1321 0.950 . S
C1348 C1334 1.377 . S
C1348 C1347 1.373 . S
C1349 C1333 1.377 . S
C1349 C1347 1.389 . S
C1349 C1350 1.524 . S
C1350 C1349 1.524 . S
C1350 C1351 1.397 . S
C1350 C1355 1.363 . S
C1351 H1322 0.950 . S
C1351 C1350 1.397 . S
C1351 C1352 1.334 . S
C1352 H1323 0.950 . S
C1352 C1351 1.334 . S
C1352 C1353 1.287 . S
C1353 C1352 1.287 . S
C1353 C1354 1.524 . S
C1353 H1356 0.999 . S
C1354 H1324 0.950 . S
C1354 C1353 1.524 . S
C1354 C1355 1.415 . S
C1355 H1325 0.950 . S
C1355 C1350 1.363 . S
C1355 C1354 1.415 . S
H1356 C1353 0.999 . S
H1357 C1338 0.913 . S
H1358 C1376 0.951 . S
H1359 C1378 0.951 . S
H1360 C1380 0.950 . S
H1361 C1381 0.950 . S
H1362 C1383 0.950 . S
H1363 C1386 0.950 . S
H1364 C1387 0.950 . S
H1365 C1389 0.950 . S
H1366 C1390 0.950 . S
H1367 C1391 0.951 . S
H1368 C1393 0.951 . S
H1369 C1395 0.950 . S
H1370 C1396 0.950 . S
H1371 C1398 0.950 . S
H1372 C1401 0.950 . S
H1373 C1402 0.950 . S
H1374 C1404 0.950 . S
H1375 C1405 0.950 . S
C1376 H1358 0.951 . S
C1376 C1377 1.366 . S
C1376 C1378 1.388 . S
C1377 C1376 1.366 . S
C1377 C1381 1.385 . S
C1378 H1359 0.951 . S
C1378 C1376 1.388 . S
C1378 C1379 1.366 . S
C1379 C1378 1.366 . S
C1379 C1380 1.414 . S
C1379 C1382 1.499 . S
C1380 H1360 0.950 . S
C1380 C1379 1.414 . S
C1380 C1381 1.374 . S
C1381 H1361 0.950 . S
C1381 C1377 1.385 . S
C1381 C1380 1.374 . S
C1382 C1379 1.499 . S
C1382 C1383 1.373 . S
C1382 C1384 1.389 . S
C1383 H1362 0.950 . S
C1383 C1382 1.373 . S
C1383 C1399 1.377 . S
C1384 C1382 1.389 . S
C1384 C1385 1.524 . S
C1384 C1398 1.377 . S
C1385 C1384 1.524 . S
C1385 C1386 1.397 . S
C1385 C1390 1.363 . S
C1386 H1363 0.950 . S
C1386 C1385 1.397 . S
C1386 C1387 1.334 . S
C1387 H1364 0.950 . S
C1387 C1386 1.334 . S
C1387 C1388 1.287 . S
C1388 C1387 1.287 . S
C1388 C1389 1.524 . S
C1388 H1407 0.913 . S
C1389 H1365 0.950 . S
C1389 C1388 1.524 . S
C1389 C1390 1.415 . S
C1390 H1366 0.950 . S
C1390 C1385 1.363 . S
C1390 C1389 1.415 . S
C1391 H1367 0.951 . S
C1391 C1392 1.366 . S
C1391 C1393 1.388 . S
C1392 C1391 1.366 . S
C1392 C1396 1.385 . S
C1393 H1368 0.951 . S
C1393 C1391 1.388 . S
C1393 C1394 1.366 . S
C1394 C1393 1.366 . S
C1394 C1395 1.414 . S
C1394 C1397 1.499 . S
C1395 H1369 0.950 . S
C1395 C1394 1.414 . S
C1395 C1396 1.374 . S
C1396 H1370 0.950 . S
C1396 C1392 1.385 . S
C1396 C1395 1.374 . S
C1397 C1394 1.499 . S
C1397 C1398 1.373 . S
C1397 C1399 1.389 . S
C1398 H1371 0.950 . S
C1398 C1384 1.377 . S
C1398 C1397 1.373 . S
C1399 C1383 1.377 . S
C1399 C1397 1.389 . S
C1399 C1400 1.524 . S
C1400 C1399 1.524 . S
C1400 C1401 1.397 . S
C1400 C1405 1.363 . S
C1401 H1372 0.950 . S
C1401 C1400 1.397 . S
C1401 C1402 1.334 . S
C1402 H1373 0.950 . S
C1402 C1401 1.334 . S
C1402 C1403 1.287 . S
C1403 C1402 1.287 . S
C1403 C1404 1.524 . S
C1403 H1406 0.999 . S
C1404 H1374 0.950 . S
C1404 C1403 1.524 . S
C1404 C1405 1.415 . S
C1405 H1375 0.950 . S
C1405 C1400 1.363 . S
C1405 C1404 1.415 . S
H1406 C1403 0.999 . S
H1407 C1388 0.913 . S
H1408 C1426 0.951 . S
H1409 C1428 0.951 . S
H1410 C1430 0.950 . S
H1411 C1431 0.950 . S
H1412 C1433 0.950 . S
H1413 C1436 0.950 . S
H1414 C1437 0.950 . S
H1415 C1439 0.950 . S
H1416 C1440 0.950 . S
H1417 C1441 0.951 . S
H1418 C1443 0.951 . S
H1419 C1445 0.950 . S
H1420 C1446 0.950 . S
H1421 C1448 0.950 . S
H1422 C1451 0.950 . S
H1423 C1452 0.950 . S
H1424 C1454 0.950 . S
H1425 C1455 0.950 . S
C1426 H1408 0.951 . S
C1426 C1427 1.366 . S
C1426 C1428 1.388 . S
C1427 C1426 1.366 . S
C1427 C1431 1.385 . S
C1428 H1409 0.951 . S
C1428 C1426 1.388 . S
C1428 C1429 1.366 . S
C1429 C1428 1.366 . S
C1429 C1430 1.414 . S
C1429 C1432 1.499 . S
C1430 H1410 0.950 . S
C1430 C1429 1.414 . S
C1430 C1431 1.374 . S
C1431 H1411 0.950 . S
C1431 C1427 1.385 . S
C1431 C1430 1.374 . S
C1432 C1429 1.499 . S
C1432 C1433 1.373 . S
C1432 C1434 1.389 . S
C1433 H1412 0.950 . S
C1433 C1432 1.373 . S
C1433 C1449 1.377 . S
C1434 C1432 1.389 . S
C1434 C1435 1.524 . S
C1434 C1448 1.377 . S
C1435 C1434 1.524 . S
C1435 C1436 1.397 . S
C1435 C1440 1.363 . S
C1436 H1413 0.950 . S
C1436 C1435 1.397 . S
C1436 C1437 1.334 . S
C1437 H1414 0.950 . S
C1437 C1436 1.334 . S
C1437 C1438 1.287 . S
C1438 C1437 1.287 . S
C1438 C1439 1.524 . S
C1438 H1457 0.913 . S
C1439 H1415 0.950 . S
C1439 C1438 1.524 . S
C1439 C1440 1.415 . S
C1440 H1416 0.950 . S
C1440 C1435 1.363 . S
C1440 C1439 1.415 . S
C1441 H1417 0.951 . S
C1441 C1442 1.366 . S
C1441 C1443 1.388 . S
C1442 C1441 1.366 . S
C1442 C1446 1.385 . S
C1443 H1418 0.951 . S
C1443 C1441 1.388 . S
C1443 C1444 1.366 . S
C1444 C1443 1.366 . S
C1444 C1445 1.414 . S
C1444 C1447 1.499 . S
C1445 H1419 0.950 . S
C1445 C1444 1.414 . S
C1445 C1446 1.374 . S
C1446 H1420 0.950 . S
C1446 C1442 1.385 . S
C1446 C1445 1.374 . S
C1447 C1444 1.499 . S
C1447 C1448 1.373 . S
C1447 C1449 1.389 . S
C1448 H1421 0.950 . S
C1448 C1434 1.377 . S
C1448 C1447 1.373 . S
C1449 C1433 1.377 . S
C1449 C1447 1.389 . S
C1449 C1450 1.524 . S
C1450 C1449 1.524 . S
C1450 C1451 1.397 . S
C1450 C1455 1.363 . S
C1451 H1422 0.950 . S
C1451 C1450 1.397 . S
C1451 C1452 1.334 . S
C1452 H1423 0.950 . S
C1452 C1451 1.334 . S
C1452 C1453 1.287 . S
C1453 C1452 1.287 . S
C1453 C1454 1.524 . S
C1453 H1456 0.999 . S
C1454 H1424 0.950 . S
C1454 C1453 1.524 . S
C1454 C1455 1.415 . S
C1455 H1425 0.950 . S
C1455 C1450 1.363 . S
C1455 C1454 1.415 . S
H1456 C1453 0.999 . S
H1457 C1438 0.913 . S
H1458 C1476 0.951 . S
H1459 C1478 0.951 . S
H1460 C1480 0.950 . S
H1461 C1481 0.950 . S
H1462 C1483 0.950 . S
H1463 C1486 0.950 . S
H1464 C1487 0.950 . S
H1465 C1489 0.950 . S
H1466 C1490 0.950 . S
H1467 C1491 0.951 . S
H1468 C1493 0.951 . S
H1469 C1495 0.950 . S
H1470 C1496 0.950 . S
H1471 C1498 0.950 . S
H1472 C1501 0.950 . S
H1473 C1502 0.950 . S
H1474 C1504 0.950 . S
H1475 C1505 0.950 . S
C1476 H1458 0.951 . S
C1476 C1477 1.366 . S
C1476 C1478 1.388 . S
C1477 C1476 1.366 . S
C1477 C1481 1.385 . S
C1478 H1459 0.951 . S
C1478 C1476 1.388 . S
C1478 C1479 1.366 . S
C1479 C1478 1.366 . S
C1479 C1480 1.414 . S
C1479 C1482 1.499 . S
C1480 H1460 0.950 . S
C1480 C1479 1.414 . S
C1480 C1481 1.374 . S
C1481 H1461 0.950 . S
C1481 C1477 1.385 . S
C1481 C1480 1.374 . S
C1482 C1479 1.499 . S
C1482 C1483 1.373 . S
C1482 C1484 1.389 . S
C1483 H1462 0.950 . S
C1483 C1482 1.373 . S
C1483 C1499 1.377 . S
C1484 C1482 1.389 . S
C1484 C1485 1.524 . S
C1484 C1498 1.377 . S
C1485 C1484 1.524 . S
C1485 C1486 1.397 . S
C1485 C1490 1.363 . S
C1486 H1463 0.950 . S
C1486 C1485 1.397 . S
C1486 C1487 1.334 . S
C1487 H1464 0.950 . S
C1487 C1486 1.334 . S
C1487 C1488 1.287 . S
C1488 C1487 1.287 . S
C1488 C1489 1.524 . S
C1488 H1507 0.913 . S
C1489 H1465 0.950 . S
C1489 C1488 1.524 . S
C1489 C1490 1.415 . S
C1490 H1466 0.950 . S
C1490 C1485 1.363 . S
C1490 C1489 1.415 . S
C1491 H1467 0.951 . S
C1491 C1492 1.366 . S
C1491 C1493 1.388 . S
C1492 C1491 1.366 . S
C1492 C1496 1.385 . S
C1493 H1468 0.951 . S
C1493 C1491 1.388 . S
C1493 C1494 1.366 . S
C1494 C1493 1.366 . S
C1494 C1495 1.414 . S
C1494 C1497 1.499 . S
C1495 H1469 0.950 . S
C1495 C1494 1.414 . S
C1495 C1496 1.374 . S
C1496 H1470 0.950 . S
C1496 C1492 1.385 . S
C1496 C1495 1.374 . S
C1497 C1494 1.499 . S
C1497 C1498 1.373 . S
C1497 C1499 1.389 . S
C1498 H1471 0.950 . S
C1498 C1484 1.377 . S
C1498 C1497 1.373 . S
C1499 C1483 1.377 . S
C1499 C1497 1.389 . S
C1499 C1500 1.524 . S
C1500 C1499 1.524 . S
C1500 C1501 1.397 . S
C1500 C1505 1.363 . S
C1501 H1472 0.950 . S
C1501 C1500 1.397 . S
C1501 C1502 1.334 . S
C1502 H1473 0.950 . S
C1502 C1501 1.334 . S
C1502 C1503 1.287 . S
C1503 C1502 1.287 . S
C1503 C1504 1.524 . S
C1503 H1506 0.999 . S
C1504 H1474 0.950 . S
C1504 C1503 1.524 . S
C1504 C1505 1.415 . S
C1505 H1475 0.950 . S
C1505 C1500 1.363 . S
C1505 C1504 1.415 . S
H1506 C1503 0.999 . S
H1507 C1488 0.913 . S
H1508 C1526 0.951 . S
H1509 C1528 0.951 . S
H1510 C1530 0.950 . S
H1511 C1531 0.950 . S
H1512 C1533 0.950 . S
H1513 C1536 0.950 . S
H1514 C1537 0.950 . S
H1515 C1539 0.950 . S
H1516 C1540 0.950 . S
H1517 C1541 0.951 . S
H1518 C1543 0.951 . S
H1519 C1545 0.950 . S
H1520 C1546 0.950 . S
H1521 C1548 0.950 . S
H1522 C1551 0.950 . S
H1523 C1552 0.950 . S
H1524 C1554 0.950 . S
H1525 C1555 0.950 . S
C1526 H1508 0.951 . S
C1526 C1527 1.366 . S
C1526 C1528 1.388 . S
C1527 C1526 1.366 . S
C1527 C1531 1.385 . S
C1528 H1509 0.951 . S
C1528 C1526 1.388 . S
C1528 C1529 1.366 . S
C1529 C1528 1.366 . S
C1529 C1530 1.414 . S
C1529 C1532 1.499 . S
C1530 H1510 0.950 . S
C1530 C1529 1.414 . S
C1530 C1531 1.374 . S
C1531 H1511 0.950 . S
C1531 C1527 1.385 . S
C1531 C1530 1.374 . S
C1532 C1529 1.499 . S
C1532 C1533 1.373 . S
C1532 C1534 1.389 . S
C1533 H1512 0.950 . S
C1533 C1532 1.373 . S
C1533 C1549 1.377 . S
C1534 C1532 1.389 . S
C1534 C1535 1.524 . S
C1534 C1548 1.377 . S
C1535 C1534 1.524 . S
C1535 C1536 1.397 . S
C1535 C1540 1.363 . S
C1536 H1513 0.950 . S
C1536 C1535 1.397 . S
C1536 C1537 1.334 . S
C1537 H1514 0.950 . S
C1537 C1536 1.334 . S
C1537 C1538 1.287 . S
C1538 C1537 1.287 . S
C1538 C1539 1.524 . S
C1538 H1557 0.913 . S
C1539 H1515 0.950 . S
C1539 C1538 1.524 . S
C1539 C1540 1.415 . S
C1540 H1516 0.950 . S
C1540 C1535 1.363 . S
C1540 C1539 1.415 . S
C1541 H1517 0.951 . S
C1541 C1542 1.366 . S
C1541 C1543 1.388 . S
C1542 C1541 1.366 . S
C1542 C1546 1.385 . S
C1543 H1518 0.951 . S
C1543 C1541 1.388 . S
C1543 C1544 1.366 . S
C1544 C1543 1.366 . S
C1544 C1545 1.414 . S
C1544 C1547 1.499 . S
C1545 H1519 0.950 . S
C1545 C1544 1.414 . S
C1545 C1546 1.374 . S
C1546 H1520 0.950 . S
C1546 C1542 1.385 . S
C1546 C1545 1.374 . S
C1547 C1544 1.499 . S
C1547 C1548 1.373 . S
C1547 C1549 1.389 . S
C1548 H1521 0.950 . S
C1548 C1534 1.377 . S
C1548 C1547 1.373 . S
C1549 C1533 1.377 . S
C1549 C1547 1.389 . S
C1549 C1550 1.524 . S
C1550 C1549 1.524 . S
C1550 C1551 1.397 . S
C1550 C1555 1.363 . S
C1551 H1522 0.950 . S
C1551 C1550 1.397 . S
C1551 C1552 1.334 . S
C1552 H1523 0.950 . S
C1552 C1551 1.334 . S
C1552 C1553 1.287 . S
C1553 C1552 1.287 . S
C1553 C1554 1.524 . S
C1553 H1556 0.999 . S
C1554 H1524 0.950 . S
C1554 C1553 1.524 . S
C1554 C1555 1.415 . S
C1555 H1525 0.950 . S
C1555 C1550 1.363 . S
C1555 C1554 1.415 . S
H1556 C1553 0.999 . S
H1557 C1538 0.913 . S
H1558 C1576 0.951 . S
H1559 C1578 0.951 . S
H1560 C1580 0.950 . S
H1561 C1581 0.950 . S
H1562 C1583 0.950 . S
H1563 C1586 0.950 . S
H1564 C1587 0.950 . S
H1565 C1589 0.950 . S
H1566 C1590 0.950 . S
H1567 C1591 0.951 . S
H1568 C1593 0.951 . S
H1569 C1595 0.950 . S
H1570 C1596 0.950 . S
H1571 C1598 0.950 . S
H1572 C1601 0.950 . S
H1573 C1602 0.950 . S
H1574 C1604 0.950 . S
H1575 C1605 0.950 . S
C1576 H1558 0.951 . S
C1576 C1577 1.366 . S
C1576 C1578 1.388 . S
C1577 C1576 1.366 . S
C1577 C1581 1.385 . S
C1578 H1559 0.951 . S
C1578 C1576 1.388 . S
C1578 C1579 1.366 . S
C1579 C1578 1.366 . S
C1579 C1580 1.414 . S
C1579 C1582 1.499 . S
C1580 H1560 0.950 . S
C1580 C1579 1.414 . S
C1580 C1581 1.374 . S
C1581 H1561 0.950 . S
C1581 C1577 1.385 . S
C1581 C1580 1.374 . S
C1582 C1579 1.499 . S
C1582 C1583 1.373 . S
C1582 C1584 1.389 . S
C1583 H1562 0.950 . S
C1583 C1582 1.373 . S
C1583 C1599 1.377 . S
C1584 C1582 1.389 . S
C1584 C1585 1.524 . S
C1584 C1598 1.377 . S
C1585 C1584 1.524 . S
C1585 C1586 1.397 . S
C1585 C1590 1.363 . S
C1586 H1563 0.950 . S
C1586 C1585 1.397 . S
C1586 C1587 1.334 . S
C1587 H1564 0.950 . S
C1587 C1586 1.334 . S
C1587 C1588 1.287 . S
C1588 C1587 1.287 . S
C1588 C1589 1.524 . S
C1588 H1607 0.913 . S
C1589 H1565 0.950 . S
C1589 C1588 1.524 . S
C1589 C1590 1.415 . S
C1590 H1566 0.950 . S
C1590 C1585 1.363 . S
C1590 C1589 1.415 . S
C1591 H1567 0.951 . S
C1591 C1592 1.366 . S
C1591 C1593 1.388 . S
C1592 C1591 1.366 . S
C1592 C1596 1.385 . S
C1593 H1568 0.951 . S
C1593 C1591 1.388 . S
C1593 C1594 1.366 . S
C1594 C1593 1.366 . S
C1594 C1595 1.414 . S
C1594 C1597 1.499 . S
C1595 H1569 0.950 . S
C1595 C1594 1.414 . S
C1595 C1596 1.374 . S
C1596 H1570 0.950 . S
C1596 C1592 1.385 . S
C1596 C1595 1.374 . S
C1597 C1594 1.499 . S
C1597 C1598 1.373 . S
C1597 C1599 1.389 . S
C1598 H1571 0.950 . S
C1598 C1584 1.377 . S
C1598 C1597 1.373 . S
C1599 C1583 1.377 . S
C1599 C1597 1.389 . S
C1599 C1600 1.524 . S
C1600 C1599 1.524 . S
C1600 C1601 1.397 . S
C1600 C1605 1.363 . S
C1601 H1572 0.950 . S
C1601 C1600 1.397 . S
C1601 C1602 1.334 . S
C1602 H1573 0.950 . S
C1602 C1601 1.334 . S
C1602 C1603 1.287 . S
C1603 C1602 1.287 . S
C1603 C1604 1.524 . S
C1603 H1606 0.999 . S
C1604 H1574 0.950 . S
C1604 C1603 1.524 . S
C1604 C1605 1.415 . S
C1605 H1575 0.950 . S
C1605 C1600 1.363 . S
C1605 C1604 1.415 . S
H1606 C1603 0.999 . S
H1607 C1588 0.913 . S
H1608 C1626 0.951 . S
H1609 C1628 0.951 . S
H1610 C1630 0.950 . S
H1611 C1631 0.950 . S
H1612 C1633 0.950 . S
H1613 C1636 0.950 . S
H1614 C1637 0.950 . S
H1615 C1639 0.950 . S
H1616 C1640 0.950 . S
H1617 C1641 0.951 . S
H1618 C1643 0.951 . S
H1619 C1645 0.950 . S
H1620 C1646 0.950 . S
H1621 C1648 0.950 . S
H1622 C1651 0.950 . S
H1623 C1652 0.950 . S
H1624 C1654 0.950 . S
H1625 C1655 0.950 . S
C1626 H1608 0.951 . S
C1626 C1627 1.366 . S
C1626 C1628 1.388 . S
C1627 C1626 1.366 . S
C1627 C1631 1.385 . S
C1628 H1609 0.951 . S
C1628 C1626 1.388 . S
C1628 C1629 1.366 . S
C1629 C1628 1.366 . S
C1629 C1630 1.414 . S
C1629 C1632 1.499 . S
C1630 H1610 0.950 . S
C1630 C1629 1.414 . S
C1630 C1631 1.374 . S
C1631 H1611 0.950 . S
C1631 C1627 1.385 . S
C1631 C1630 1.374 . S
C1632 C1629 1.499 . S
C1632 C1633 1.373 . S
C1632 C1634 1.389 . S
C1633 H1612 0.950 . S
C1633 C1632 1.373 . S
C1633 C1649 1.377 . S
C1634 C1632 1.389 . S
C1634 C1635 1.524 . S
C1634 C1648 1.377 . S
C1635 C1634 1.524 . S
C1635 C1636 1.397 . S
C1635 C1640 1.363 . S
C1636 H1613 0.950 . S
C1636 C1635 1.397 . S
C1636 C1637 1.334 . S
C1637 H1614 0.950 . S
C1637 C1636 1.334 . S
C1637 C1638 1.287 . S
C1638 C1637 1.287 . S
C1638 C1639 1.524 . S
C1638 H1657 0.913 . S
C1639 H1615 0.950 . S
C1639 C1638 1.524 . S
C1639 C1640 1.415 . S
C1640 H1616 0.950 . S
C1640 C1635 1.363 . S
C1640 C1639 1.415 . S
C1641 H1617 0.951 . S
C1641 C1642 1.366 . S
C1641 C1643 1.388 . S
C1642 C1641 1.366 . S
C1642 C1646 1.385 . S
C1643 H1618 0.951 . S
C1643 C1641 1.388 . S
C1643 C1644 1.366 . S
C1644 C1643 1.366 . S
C1644 C1645 1.414 . S
C1644 C1647 1.499 . S
C1645 H1619 0.950 . S
C1645 C1644 1.414 . S
C1645 C1646 1.374 . S
C1646 H1620 0.950 . S
C1646 C1642 1.385 . S
C1646 C1645 1.374 . S
C1647 C1644 1.499 . S
C1647 C1648 1.373 . S
C1647 C1649 1.389 . S
C1648 H1621 0.950 . S
C1648 C1634 1.377 . S
C1648 C1647 1.373 . S
C1649 C1633 1.377 . S
C1649 C1647 1.389 . S
C1649 C1650 1.524 . S
C1650 C1649 1.524 . S
C1650 C1651 1.397 . S
C1650 C1655 1.363 . S
C1651 H1622 0.950 . S
C1651 C1650 1.397 . S
C1651 C1652 1.334 . S
C1652 H1623 0.950 . S
C1652 C1651 1.334 . S
C1652 C1653 1.287 . S
C1653 C1652 1.287 . S
C1653 C1654 1.524 . S
C1653 H1656 0.999 . S
C1654 H1624 0.950 . S
C1654 C1653 1.524 . S
C1654 C1655 1.415 . S
C1655 H1625 0.950 . S
C1655 C1650 1.363 . S
C1655 C1654 1.415 . S
H1656 C1653 0.999 . S
H1657 C1638 0.913 . S
H1658 C1676 0.951 . S
H1659 C1678 0.951 . S
H1660 C1680 0.950 . S
H1661 C1681 0.950 . S
H1662 C1683 0.950 . S
H1663 C1686 0.950 . S
H1664 C1687 0.950 . S
H1665 C1689 0.950 . S
H1666 C1690 0.950 . S
H1667 C1691 0.951 . S
H1668 C1693 0.951 . S
H1669 C1695 0.950 . S
H1670 C1696 0.950 . S
H1671 C1698 0.950 . S
H1672 C1701 0.950 . S
H1673 C1702 0.950 . S
H1674 C1704 0.950 . S
H1675 C1705 0.950 . S
C1676 H1658 0.951 . S
C1676 C1677 1.366 . S
C1676 C1678 1.388 . S
C1677 C1676 1.366 . S
C1677 C1681 1.385 . S
C1678 H1659 0.951 . S
C1678 C1676 1.388 . S
C1678 C1679 1.366 . S
C1679 C1678 1.366 . S
C1679 C1680 1.414 . S
C1679 C1682 1.499 . S
C1680 H1660 0.950 . S
C1680 C1679 1.414 . S
C1680 C1681 1.374 . S
C1681 H1661 0.950 . S
C1681 C1677 1.385 . S
C1681 C1680 1.374 . S
C1682 C1679 1.499 . S
C1682 C1683 1.373 . S
C1682 C1684 1.389 . S
C1683 H1662 0.950 . S
C1683 C1682 1.373 . S
C1683 C1699 1.377 . S
C1684 C1682 1.389 . S
C1684 C1685 1.524 . S
C1684 C1698 1.377 . S
C1685 C1684 1.524 . S
C1685 C1686 1.397 . S
C1685 C1690 1.363 . S
C1686 H1663 0.950 . S
C1686 C1685 1.397 . S
C1686 C1687 1.334 . S
C1687 H1664 0.950 . S
C1687 C1686 1.334 . S
C1687 C1688 1.287 . S
C1688 C1687 1.287 . S
C1688 C1689 1.524 . S
C1688 H1707 0.913 . S
C1689 H1665 0.950 . S
C1689 C1688 1.524 . S
C1689 C1690 1.415 . S
C1690 H1666 0.950 . S
C1690 C1685 1.363 . S
C1690 C1689 1.415 . S
C1691 H1667 0.951 . S
C1691 C1692 1.366 . S
C1691 C1693 1.388 . S
C1692 C1691 1.366 . S
C1692 C1696 1.385 . S
C1693 H1668 0.951 . S
C1693 C1691 1.388 . S
C1693 C1694 1.366 . S
C1694 C1693 1.366 . S
C1694 C1695 1.414 . S
C1694 C1697 1.499 . S
C1695 H1669 0.950 . S
C1695 C1694 1.414 . S
C1695 C1696 1.374 . S
C1696 H1670 0.950 . S
C1696 C1692 1.385 . S
C1696 C1695 1.374 . S
C1697 C1694 1.499 . S
C1697 C1698 1.373 . S
C1697 C1699 1.389 . S
C1698 H1671 0.950 . S
C1698 C1684 1.377 . S
C1698 C1697 1.373 . S
C1699 C1683 1.377 . S
C1699 C1697 1.389 . S
C1699 C1700 1.524 . S
C1700 C1699 1.524 . S
C1700 C1701 1.397 . S
C1700 C1705 1.363 . S
C1701 H1672 0.950 . S
C1701 C1700 1.397 . S
C1701 C1702 1.334 . S
C1702 H1673 0.950 . S
C1702 C1701 1.334 . S
C1702 C1703 1.287 . S
C1703 C1702 1.287 . S
C1703 C1704 1.524 . S
C1703 H1706 0.999 . S
C1704 H1674 0.950 . S
C1704 C1703 1.524 . S
C1704 C1705 1.415 . S
C1705 H1675 0.950 . S
C1705 C1700 1.363 . S
C1705 C1704 1.415 . S
H1706 C1703 0.999 . S
H1707 C1688 0.913 . S
H1708 C1726 0.951 . S
H1709 C1728 0.951 . S
H1710 C1730 0.950 . S
H1711 C1731 0.950 . S
H1712 C1733 0.950 . S
H1713 C1736 0.950 . S
H1714 C1737 0.950 . S
H1715 C1739 0.950 . S
H1716 C1740 0.950 . S
H1717 C1741 0.951 . S
H1718 C1743 0.951 . S
H1719 C1745 0.950 . S
H1720 C1746 0.950 . S
H1721 C1748 0.950 . S
H1722 C1751 0.950 . S
H1723 C1752 0.950 . S
H1724 C1754 0.950 . S
H1725 C1755 0.950 . S
C1726 H1708 0.951 . S
C1726 C1727 1.366 . S
C1726 C1728 1.388 . S
C1727 C1726 1.366 . S
C1727 C1731 1.385 . S
C1728 H1709 0.951 . S
C1728 C1726 1.388 . S
C1728 C1729 1.366 . S
C1729 C1728 1.366 . S
C1729 C1730 1.414 . S
C1729 C1732 1.499 . S
C1730 H1710 0.950 . S
C1730 C1729 1.414 . S
C1730 C1731 1.374 . S
C1731 H1711 0.950 . S
C1731 C1727 1.385 . S
C1731 C1730 1.374 . S
C1732 C1729 1.499 . S
C1732 C1733 1.373 . S
C1732 C1734 1.389 . S
C1733 H1712 0.950 . S
C1733 C1732 1.373 . S
C1733 C1749 1.377 . S
C1734 C1732 1.389 . S
C1734 C1735 1.524 . S
C1734 C1748 1.377 . S
C1735 C1734 1.524 . S
C1735 C1736 1.397 . S
C1735 C1740 1.363 . S
C1736 H1713 0.950 . S
C1736 C1735 1.397 . S
C1736 C1737 1.334 . S
C1737 H1714 0.950 . S
C1737 C1736 1.334 . S
C1737 C1738 1.287 . S
C1738 C1737 1.287 . S
C1738 C1739 1.524 . S
C1738 H1757 0.913 . S
C1739 H1715 0.950 . S
C1739 C1738 1.524 . S
C1739 C1740 1.415 . S
C1740 H1716 0.950 . S
C1740 C1735 1.363 . S
C1740 C1739 1.415 . S
C1741 H1717 0.951 . S
C1741 C1742 1.366 . S
C1741 C1743 1.388 . S
C1742 C1741 1.366 . S
C1742 C1746 1.385 . S
C1743 H1718 0.951 . S
C1743 C1741 1.388 . S
C1743 C1744 1.366 . S
C1744 C1743 1.366 . S
C1744 C1745 1.414 . S
C1744 C1747 1.499 . S
C1745 H1719 0.950 . S
C1745 C1744 1.414 . S
C1745 C1746 1.374 . S
C1746 H1720 0.950 . S
C1746 C1742 1.385 . S
C1746 C1745 1.374 . S
C1747 C1744 1.499 . S
C1747 C1748 1.373 . S
C1747 C1749 1.389 . S
C1748 H1721 0.950 . S
C1748 C1734 1.377 . S
C1748 C1747 1.373 . S
C1749 C1733 1.377 . S
C1749 C1747 1.389 . S
C1749 C1750 1.524 . S
C1750 C1749 1.524 . S
C1750 C1751 1.397 . S
C1750 C1755 1.363 . S
C1751 H1722 0.950 . S
C1751 C1750 1.397 . S
C1751 C1752 1.334 . S
C1752 H1723 0.950 . S
C1752 C1751 1.334 . S
C1752 C1753 1.287 . S
C1753 C1752 1.287 . S
C1753 C1754 1.524 . S
C1753 H1756 0.999 . S
C1754 H1724 0.950 . S
C1754 C1753 1.524 . S
C1754 C1755 1.415 . S
C1755 H1725 0.950 . S
C1755 C1750 1.363 . S
C1755 C1754 1.415 . S
H1756 C1753 0.999 . S
H1757 C1738 0.913 . S
H1758 C1776 0.951 . S
H1759 C1778 0.951 . S
H1760 C1780 0.950 . S
H1761 C1781 0.950 . S
H1762 C1783 0.950 . S
H1763 C1786 0.950 . S
H1764 C1787 0.950 . S
H1765 C1789 0.950 . S
H1766 C1790 0.950 . S
H1767 C1791 0.951 . S
H1768 C1793 0.951 . S
H1769 C1795 0.950 . S
H1770 C1796 0.950 . S
H1771 C1798 0.950 . S
H1772 C1801 0.950 . S
H1773 C1802 0.950 . S
H1774 C1804 0.950 . S
H1775 C1805 0.950 . S
C1776 H1758 0.951 . S
C1776 C1777 1.366 . S
C1776 C1778 1.388 . S
C1777 C1776 1.366 . S
C1777 C1781 1.385 . S
C1778 H1759 0.951 . S
C1778 C1776 1.388 . S
C1778 C1779 1.366 . S
C1779 C1778 1.366 . S
C1779 C1780 1.414 . S
C1779 C1782 1.499 . S
C1780 H1760 0.950 . S
C1780 C1779 1.414 . S
C1780 C1781 1.374 . S
C1781 H1761 0.950 . S
C1781 C1777 1.385 . S
C1781 C1780 1.374 . S
C1782 C1779 1.499 . S
C1782 C1783 1.373 . S
C1782 C1784 1.389 . S
C1783 H1762 0.950 . S
C1783 C1782 1.373 . S
C1783 C1799 1.377 . S
C1784 C1782 1.389 . S
C1784 C1785 1.524 . S
C1784 C1798 1.377 . S
C1785 C1784 1.524 . S
C1785 C1786 1.397 . S
C1785 C1790 1.363 . S
C1786 H1763 0.950 . S
C1786 C1785 1.397 . S
C1786 C1787 1.334 . S
C1787 H1764 0.950 . S
C1787 C1786 1.334 . S
C1787 C1788 1.287 . S
C1788 C1787 1.287 . S
C1788 C1789 1.524 . S
C1788 H1807 0.913 . S
C1789 H1765 0.950 . S
C1789 C1788 1.524 . S
C1789 C1790 1.415 . S
C1790 H1766 0.950 . S
C1790 C1785 1.363 . S
C1790 C1789 1.415 . S
C1791 H1767 0.951 . S
C1791 C1792 1.366 . S
C1791 C1793 1.388 . S
C1792 C1791 1.366 . S
C1792 C1796 1.385 . S
C1793 H1768 0.951 . S
C1793 C1791 1.388 . S
C1793 C1794 1.366 . S
C1794 C1793 1.366 . S
C1794 C1795 1.414 . S
C1794 C1797 1.499 . S
C1795 H1769 0.950 . S
C1795 C1794 1.414 . S
C1795 C1796 1.374 . S
C1796 H1770 0.950 . S
C1796 C1792 1.385 . S
C1796 C1795 1.374 . S
C1797 C1794 1.499 . S
C1797 C1798 1.373 . S
C1797 C1799 1.389 . S
C1798 H1771 0.950 . S
C1798 C1784 1.377 . S
C1798 C1797 1.373 . S
C1799 C1783 1.377 . S
C1799 C1797 1.389 . S
C1799 C1800 1.524 . S
C1800 C1799 1.524 . S
C1800 C1801 1.397 . S
C1800 C1805 1.363 . S
C1801 H1772 0.950 . S
C1801 C1800 1.397 . S
C1801 C1802 1.334 . S
C1802 H1773 0.950 . S
C1802 C1801 1.334 . S
C1802 C1803 1.287 . S
C1803 C1802 1.287 . S
C1803 C1804 1.524 . S
C1803 H1806 0.999 . S
C1804 H1774 0.950 . S
C1804 C1803 1.524 . S
C1804 C1805 1.415 . S
C1805 H1775 0.950 . S
C1805 C1800 1.363 . S
C1805 C1804 1.415 . S
H1806 C1803 0.999 . S
H1807 C1788 0.913 . S
C227 C52 1.071 1_554 S
C242 C0 1.071 1_556 S
C277 C65 1.070 1_554 S
C292 C13 1.071 1_556 S
C327 C78 1.071 1_554 S
C342 C26 1.071 1_556 S
C377 C91 1.070 1_554 S
C392 C39 1.071 1_556 S
C427 C156 1.071 . S
C442 C104 1.071 . S
C477 C169 1.070 . S
C492 C117 1.070 . S
C527 C130 1.070 . S
C542 C182 1.069 . S
C577 C195 1.070 . S
C592 C143 1.070 . S
C627 C5 1.214 . S
C642 C70 1.214 . S
C677 C83 1.214 . S
C692 C18 1.215 . S
C727 C31 1.215 . S
C742 C96 1.215 . S
C777 C57 1.214 . S
C792 C44 1.214 . S
C827 C174 1.214 . S
C842 C109 1.214 . S
C877 C187 1.215 . S
C892 C122 1.215 . S
C927 C135 1.215 . S
C942 C200 1.214 . S
C977 C148 1.214 . S
C992 C161 1.215 . S
C1027 C205 1.391 . S
C1042 C10 1.389 . S
C1077 C166 1.391 . S
C1092 C23 1.389 . S
C1127 C179 1.391 . S
C1142 C36 1.389 . S
C1177 C192 1.391 . S
C1192 C49 1.389 . S
C1227 C127 1.392 . S
C1242 C62 1.392 . S
C1277 C140 1.392 . S
C1292 C75 1.392 . S
C1327 C88 1.392 . S
C1342 C153 1.392 . S
C1377 C101 1.391 . S
C1392 C114 1.392 . S
C1427 C177 1.430 . S
C1442 C34 1.433 . S
C1477 C190 1.431 . S
C1492 C47 1.432 . S
C1527 C203 1.431 . S
C1542 C8 1.432 . S
C1577 C21 1.430 . S
C1592 C164 1.433 . S
C1627 C151 1.430 . S
C1642 C86 1.430 . S
C1677 C99 1.430 . S
C1692 C112 1.430 . S
C1727 C125 1.431 . S
C1742 C60 1.429 . S
C1777 C138 1.431 . S
C1792 C73 1.429 . S
