# Generated by pormake.
# Topology ukj, (4)-cn, num edge types: 1
# Building blocks:
#     Node 0, Type 0, BuildingBlock: ESEHIV_clean_sbu_0, # of connection points: 4
#     Node 1, Type 0, BuildingBlock: ESEHIV_clean_sbu_0, # of connection points: 4
#     Node 2, Type 0, BuildingBlock: ESEHIV_clean_sbu_0, # of connection points: 4
#     Node 3, Type 0, BuildingBlock: ESEHIV_clean_sbu_0, # of connection points: 4
#     Node 4, Type 0, BuildingBlock: ESEHIV_clean_sbu_0, # of connection points: 4
#     Node 5, Type 0, BuildingBlock: ESEHIV_clean_sbu_0, # of connection points: 4
#     Node 6, Type 0, BuildingBlock: ESEHIV_clean_sbu_0, # of connection points: 4
#     Node 7, Type 0, BuildingBlock: ESEHIV_clean_sbu_0, # of connection points: 4
#     Node 8, Type 0, BuildingBlock: ESEHIV_clean_sbu_0, # of connection points: 4
#     Node 9, Type 0, BuildingBlock: ESEHIV_clean_sbu_0, # of connection points: 4
#     Node 10, Type 0, BuildingBlock: ESEHIV_clean_sbu_0, # of connection points: 4
#     Node 11, Type 0, BuildingBlock: ESEHIV_clean_sbu_0, # of connection points: 4
#     Node 12, Type 0, BuildingBlock: ESEHIV_clean_sbu_0, # of connection points: 4
#     Node 13, Type 0, BuildingBlock: ESEHIV_clean_sbu_0, # of connection points: 4
#     Node 14, Type 0, BuildingBlock: ESEHIV_clean_sbu_0, # of connection points: 4
#     Node 15, Type 0, BuildingBlock: ESEHIV_clean_sbu_0, # of connection points: 4
#     Node 16, Type 0, BuildingBlock: ESEHIV_clean_sbu_0, # of connection points: 4
#     Node 17, Type 0, BuildingBlock: ESEHIV_clean_sbu_0, # of connection points: 4
#     Node 18, Type 0, BuildingBlock: ESEHIV_clean_sbu_0, # of connection points: 4
#     Node 19, Type 0, BuildingBlock: ESEHIV_clean_sbu_0, # of connection points: 4
#     Node 20, Type 0, BuildingBlock: ESEHIV_clean_sbu_0, # of connection points: 4
#     Node 21, Type 0, BuildingBlock: ESEHIV_clean_sbu_0, # of connection points: 4
#     Node 22, Type 0, BuildingBlock: ESEHIV_clean_sbu_0, # of connection points: 4
#     Node 23, Type 0, BuildingBlock: ESEHIV_clean_sbu_0, # of connection points: 4
#     Node 24, Type 0, BuildingBlock: ESEHIV_clean_sbu_0, # of connection points: 4
#     Node 25, Type 0, BuildingBlock: ESEHIV_clean_sbu_0, # of connection points: 4
#     Node 26, Type 0, BuildingBlock: ESEHIV_clean_sbu_0, # of connection points: 4
#     Node 27, Type 0, BuildingBlock: ESEHIV_clean_sbu_0, # of connection points: 4
#     Node 28, Type 0, BuildingBlock: ESEHIV_clean_sbu_0, # of connection points: 4
#     Node 29, Type 0, BuildingBlock: ESEHIV_clean_sbu_0, # of connection points: 4
#     Node 30, Type 0, BuildingBlock: ESEHIV_clean_sbu_0, # of connection points: 4
#     Node 31, Type 0, BuildingBlock: ESEHIV_clean_sbu_0, # of connection points: 4
#     Edge 32, Type (0, 0), BuildingBlock: AJUNOK_clean_linker_0, # of connection points: 2
#     Edge 33, Type (0, 0), BuildingBlock: AJUNOK_clean_linker_0, # of connection points: 2
#     Edge 34, Type (0, 0), BuildingBlock: AJUNOK_clean_linker_0, # of connection points: 2
#     Edge 35, Type (0, 0), BuildingBlock: AJUNOK_clean_linker_0, # of connection points: 2
#     Edge 36, Type (0, 0), BuildingBlock: AJUNOK_clean_linker_0, # of connection points: 2
#     Edge 37, Type (0, 0), BuildingBlock: AJUNOK_clean_linker_0, # of connection points: 2
#     Edge 38, Type (0, 0), BuildingBlock: AJUNOK_clean_linker_0, # of connection points: 2
#     Edge 39, Type (0, 0), BuildingBlock: AJUNOK_clean_linker_0, # of connection points: 2
#     Edge 40, Type (0, 0), BuildingBlock: AJUNOK_clean_linker_0, # of connection points: 2
#     Edge 41, Type (0, 0), BuildingBlock: AJUNOK_clean_linker_0, # of connection points: 2
#     Edge 42, Type (0, 0), BuildingBlock: AJUNOK_clean_linker_0, # of connection points: 2
#     Edge 43, Type (0, 0), BuildingBlock: AJUNOK_clean_linker_0, # of connection points: 2
#     Edge 44, Type (0, 0), BuildingBlock: AJUNOK_clean_linker_0, # of connection points: 2
#     Edge 45, Type (0, 0), BuildingBlock: AJUNOK_clean_linker_0, # of connection points: 2
#     Edge 46, Type (0, 0), BuildingBlock: AJUNOK_clean_linker_0, # of connection points: 2
#     Edge 47, Type (0, 0), BuildingBlock: AJUNOK_clean_linker_0, # of connection points: 2
#     Edge 48, Type (0, 0), BuildingBlock: AJUNOK_clean_linker_0, # of connection points: 2
#     Edge 49, Type (0, 0), BuildingBlock: AJUNOK_clean_linker_0, # of connection points: 2
#     Edge 50, Type (0, 0), BuildingBlock: AJUNOK_clean_linker_0, # of connection points: 2
#     Edge 51, Type (0, 0), BuildingBlock: AJUNOK_clean_linker_0, # of connection points: 2
#     Edge 52, Type (0, 0), BuildingBlock: AJUNOK_clean_linker_0, # of connection points: 2
#     Edge 53, Type (0, 0), BuildingBlock: AJUNOK_clean_linker_0, # of connection points: 2
#     Edge 54, Type (0, 0), BuildingBlock: AJUNOK_clean_linker_0, # of connection points: 2
#     Edge 55, Type (0, 0), BuildingBlock: AJUNOK_clean_linker_0, # of connection points: 2
#     Edge 56, Type (0, 0), BuildingBlock: AJUNOK_clean_linker_0, # of connection points: 2
#     Edge 57, Type (0, 0), BuildingBlock: AJUNOK_clean_linker_0, # of connection points: 2
#     Edge 58, Type (0, 0), BuildingBlock: AJUNOK_clean_linker_0, # of connection points: 2
#     Edge 59, Type (0, 0), BuildingBlock: AJUNOK_clean_linker_0, # of connection points: 2
#     Edge 60, Type (0, 0), BuildingBlock: AJUNOK_clean_linker_0, # of connection points: 2
#     Edge 61, Type (0, 0), BuildingBlock: AJUNOK_clean_linker_0, # of connection points: 2
#     Edge 62, Type (0, 0), BuildingBlock: AJUNOK_clean_linker_0, # of connection points: 2
#     Edge 63, Type (0, 0), BuildingBlock: AJUNOK_clean_linker_0, # of connection points: 2
#     Edge 64, Type (0, 0), BuildingBlock: AJUNOK_clean_linker_0, # of connection points: 2
#     Edge 65, Type (0, 0), BuildingBlock: AJUNOK_clean_linker_0, # of connection points: 2
#     Edge 66, Type (0, 0), BuildingBlock: AJUNOK_clean_linker_0, # of connection points: 2
#     Edge 67, Type (0, 0), BuildingBlock: AJUNOK_clean_linker_0, # of connection points: 2
#     Edge 68, Type (0, 0), BuildingBlock: AJUNOK_clean_linker_0, # of connection points: 2
#     Edge 69, Type (0, 0), BuildingBlock: AJUNOK_clean_linker_0, # of connection points: 2
#     Edge 70, Type (0, 0), BuildingBlock: AJUNOK_clean_linker_0, # of connection points: 2
#     Edge 71, Type (0, 0), BuildingBlock: AJUNOK_clean_linker_0, # of connection points: 2
#     Edge 72, Type (0, 0), BuildingBlock: AJUNOK_clean_linker_0, # of connection points: 2
#     Edge 73, Type (0, 0), BuildingBlock: AJUNOK_clean_linker_0, # of connection points: 2
#     Edge 74, Type (0, 0), BuildingBlock: AJUNOK_clean_linker_0, # of connection points: 2
#     Edge 75, Type (0, 0), BuildingBlock: AJUNOK_clean_linker_0, # of connection points: 2
#     Edge 76, Type (0, 0), BuildingBlock: AJUNOK_clean_linker_0, # of connection points: 2
#     Edge 77, Type (0, 0), BuildingBlock: AJUNOK_clean_linker_0, # of connection points: 2
#     Edge 78, Type (0, 0), BuildingBlock: AJUNOK_clean_linker_0, # of connection points: 2
#     Edge 79, Type (0, 0), BuildingBlock: AJUNOK_clean_linker_0, # of connection points: 2
#     Edge 80, Type (0, 0), BuildingBlock: AJUNOK_clean_linker_0, # of connection points: 2
#     Edge 81, Type (0, 0), BuildingBlock: AJUNOK_clean_linker_0, # of connection points: 2
#     Edge 82, Type (0, 0), BuildingBlock: AJUNOK_clean_linker_0, # of connection points: 2
#     Edge 83, Type (0, 0), BuildingBlock: AJUNOK_clean_linker_0, # of connection points: 2
#     Edge 84, Type (0, 0), BuildingBlock: AJUNOK_clean_linker_0, # of connection points: 2
#     Edge 85, Type (0, 0), BuildingBlock: AJUNOK_clean_linker_0, # of connection points: 2
#     Edge 86, Type (0, 0), BuildingBlock: AJUNOK_clean_linker_0, # of connection points: 2
#     Edge 87, Type (0, 0), BuildingBlock: AJUNOK_clean_linker_0, # of connection points: 2
#     Edge 88, Type (0, 0), BuildingBlock: AJUNOK_clean_linker_0, # of connection points: 2
#     Edge 89, Type (0, 0), BuildingBlock: AJUNOK_clean_linker_0, # of connection points: 2
#     Edge 90, Type (0, 0), BuildingBlock: AJUNOK_clean_linker_0, # of connection points: 2
#     Edge 91, Type (0, 0), BuildingBlock: AJUNOK_clean_linker_0, # of connection points: 2
#     Edge 92, Type (0, 0), BuildingBlock: AJUNOK_clean_linker_0, # of connection points: 2
#     Edge 93, Type (0, 0), BuildingBlock: AJUNOK_clean_linker_0, # of connection points: 2
#     Edge 94, Type (0, 0), BuildingBlock: AJUNOK_clean_linker_0, # of connection points: 2
#     Edge 95, Type (0, 0), BuildingBlock: AJUNOK_clean_linker_0, # of connection points: 2
# Relax obj value: 0.004
# Max RMSD: 0.104
# Mean RMSD: 0.104
data_MOF--net-ukj--node1-ESEHIV_clean_sbu_0--edge1-AJUNOK_clean_linker_0
_symmetry_space_group_name_H-M    P1
_symmetry_Int_Tables_number       1
_symmetry_cell_setting            triclinic
loop_
_symmetry_equiv_pos_as_xyz
'x, y, z'
_cell_length_a     30.061908
_cell_length_b     54.076448
_cell_length_c     40.609242
_cell_angle_alpha  89.961885
_cell_angle_beta   89.753521
_cell_angle_gamma 90.000871
loop_
_atom_site_label
_atom_site_type_symbol
_atom_site_fract_x
_atom_site_fract_y
_atom_site_fract_z
_atom_type_partial_charge
Cu0 Cu 0.20393 0.34375 0.27041 0.0
N1 N 0.26548 0.34153 0.27673 0.0
N2 N 0.33514 0.35511 0.28368 0.0
C3 C 0.29151 0.361 0.28416 0.0
C4 C 0.33659 0.33089 0.27562 0.0
C5 C 0.29358 0.32256 0.27134 0.0
O6 O 0.18209 0.36373 0.30685 0.0
C7 C 0.22102 0.35823 0.2042 0.0
O8 O 0.26084 0.34967 0.21071 0.0
H9 H 0.27863 0.37939 0.28865 0.0
H10 H 0.28383 0.30442 0.26288 0.0
N11 N 0.17497 0.31313 0.27261 0.0
N12 N 0.11838 0.28624 0.27269 0.0
C13 C 0.13155 0.3096 0.26599 0.0
C14 C 0.1899 0.29121 0.28376 0.0
C15 C 0.15514 0.27455 0.28359 0.0
C16 C 0.1845 0.35407 0.33546 0.0
O17 O 0.19943 0.33133 0.33806 0.0
H18 H 0.11005 0.32404 0.25673 0.0
H19 H 0.22312 0.28778 0.2927 0.0
O20 O 0.19156 0.35812 0.22696 0.0
H21 H 0.36656 0.32032 0.27111 0.0
H22 H 0.15637 0.25556 0.29203 0.0
Cu23 Cu 0.11923 0.93008 0.27167 0.0
N24 N 0.05813 0.93216 0.2792 0.0
N25 N 0.98827 0.91885 0.28558 0.0
C26 C 1.02997 0.913 0.27603 0.0
C27 C 0.99003 0.94286 0.29454 0.0
C28 C 1.03339 0.951 0.29082 0.0
O29 O 0.14534 0.91679 0.31146 0.0
C30 C 0.16146 0.91092 0.21409 0.0
O31 O 0.19784 0.92079 0.22616 0.0
H32 H 0.04002 0.89504 0.26691 0.0
H33 H 0.04613 0.96915 0.29679 0.0
N34 N 0.14503 0.96103 0.26486 0.0
N35 N 0.19838 0.98974 0.26172 0.0
C36 C 0.18716 0.96701 0.27268 0.0
C37 C 0.12871 0.98073 0.24868 0.0
C38 C 0.16156 0.99855 0.2468 0.0
C39 C 0.13371 0.89647 0.32459 0.0
O40 O 0.10833 0.88119 0.30796 0.0
H41 H 0.2098 0.95447 0.28491 0.0
H42 H 0.09568 0.98179 0.23832 0.0
O43 O 0.12635 0.91082 0.23163 0.0
H44 H 0.96227 0.95352 0.30394 0.0
H45 H 0.15859 0.0165 0.23521 0.0
Cu46 Cu 0.20272 0.93179 1.0178 0.0
N47 N 0.26445 0.93354 1.01384 0.0
N48 N 0.3344 0.91991 1.00947 0.0
C49 C 0.29099 0.91368 1.01011 0.0
C50 C 0.33532 0.9447 1.01332 0.0
C51 C 0.29199 0.9531 1.01582 0.0
O52 O 0.17993 0.9208 0.97569 0.0
C53 C 0.15514 0.91117 0.07189 0.0
O54 O 0.12061 0.92253 0.0592 0.0
H55 H 0.27871 0.8949 1.00912 0.0
H56 H 0.28139 0.97203 1.01937 0.0
N57 N 0.17681 0.96246 0.02661 0.0
N58 N 0.12143 0.9899 0.03138 0.0
C59 C 0.1366 0.96956 1.01561 0.0
C60 C 0.18799 0.97906 0.04979 0.0
C61 C 0.15403 0.99615 0.05259 0.0
C62 C 0.18447 0.89928 0.96366 0.0
O63 O 0.20072 0.88156 0.98219 0.0
H64 H 0.1181 0.95924 0.99744 0.0
H65 H 0.21731 0.97789 0.06505 0.0
O66 O 0.19138 0.91067 0.05562 0.0
H67 H 0.36515 0.95587 1.01437 0.0
H68 H 0.15217 1.01102 0.07037 0.0
Cu69 Cu 0.11767 0.34177 1.0189 0.0
N70 N 0.05556 0.34102 1.01869 0.0
N71 N 0.9857 0.35504 1.01783 0.0
C72 C 1.02914 0.36099 1.0154 0.0
C73 C 0.98459 0.33036 0.02253 0.0
C74 C 1.0278 0.32172 0.02292 0.0
O75 O 0.13706 0.35404 0.97633 0.0
C76 C 0.1762 0.36196 0.06578 0.0
O77 O 0.20688 0.35401 0.04524 0.0
H78 H 0.04155 0.37961 1.01202 0.0
H79 H 0.03809 0.30274 0.02615 0.0
N80 N 0.14273 0.31041 0.02394 0.0
N81 N 0.19583 0.28148 0.02366 0.0
C82 C 0.18262 0.30357 1.01176 0.0
C83 C 0.1304 0.2921 0.0445 0.0
C84 C 0.16299 0.27412 0.0442 0.0
C85 C 0.13744 0.37648 0.96705 0.0
O86 O 0.12747 0.39392 0.98833 0.0
H87 H 0.20254 0.31515 0.99569 0.0
H88 H 0.10126 0.2925 0.06018 0.0
O89 O 0.13567 0.36073 0.05715 0.0
H90 H 0.95469 0.31937 0.02521 0.0
H91 H 0.16382 0.25774 0.05953 0.0
Cu92 Cu 0.86917 0.68405 0.7635 0.0
N93 N 0.80746 0.68589 0.7591 0.0
N94 N 0.737 0.67269 0.7563 0.0
C95 C 0.77987 0.66633 0.76124 0.0
C96 C 0.73767 0.69739 0.75116 0.0
C97 C 0.78124 0.70546 0.75278 0.0
O98 O 0.89239 0.67144 0.72222 0.0
C99 C 0.91443 0.66492 0.81956 0.0
O100 O 0.94933 0.67651 0.80757 0.0
H101 H 0.79121 0.64767 0.76596 0.0
H102 H 0.79293 0.72423 0.74963 0.0
N103 N 0.89509 0.71499 0.7706 0.0
N104 N 0.94861 0.74359 0.77414 0.0
C105 C 0.93662 0.7215 0.76148 0.0
C106 C 0.87999 0.7337 0.78936 0.0
C107 C 0.91289 0.75145 0.79148 0.0
C108 C 0.88486 0.6498 0.71154 0.0
O109 O 0.8656 0.63362 0.7311 0.0
H110 H 0.95853 0.70963 0.74736 0.0
H111 H 0.84797 0.734 0.8016 0.0
O112 O 0.87924 0.66388 0.80236 0.0
H113 H 0.7088 0.70893 0.74714 0.0
H114 H 0.91084 0.76861 0.80509 0.0
Cu115 Cu 0.95702 0.09519 0.76667 0.0
N116 N 1.01836 0.09252 0.76022 0.0
N117 N 0.08903 0.10521 0.75556 0.0
C118 C 0.04609 0.11206 0.75916 0.0
C119 C 0.08816 0.08023 0.7544 0.0
C120 C 0.0445 0.07247 0.75712 0.0
O121 O 0.93464 0.11464 0.73023 0.0
C122 C 0.91176 0.11254 0.82345 0.0
O123 O 0.87592 0.10589 0.80733 0.0
H124 H 1.03478 0.131 0.76114 0.0
H125 H 1.03285 0.05356 0.75735 0.0
N126 N 0.92812 0.06452 0.76851 0.0
N127 N 0.87241 0.03701 0.76886 0.0
C128 C 0.88587 0.05979 0.75935 0.0
C129 C 0.94175 0.0441 0.78449 0.0
C130 C 0.90755 0.02711 0.78469 0.0
C131 C 0.93548 0.10487 0.7017 0.0
O132 O 0.9482 0.08172 0.69893 0.0
H133 H 0.86455 0.07342 0.74792 0.0
H134 H 0.97346 0.04221 0.7967 0.0
O135 O 0.9493 0.11093 0.80913 0.0
H136 H 0.11696 0.06829 0.75288 0.0
H137 H 0.90801 1.00915 0.79647 0.0
Cu138 Cu 0.86476 0.09335 0.02445 0.0
N139 N 0.80333 0.09082 0.02995 0.0
N140 N 0.73295 0.10382 0.03436 0.0
C141 C 0.7763 0.11003 0.03673 0.0
C142 C 0.73276 0.07974 0.02555 0.0
C143 C 0.77624 0.07181 0.0227 0.0
O144 O 0.88543 0.11594 0.05817 0.0
C145 C 0.90753 0.11364 0.96628 0.0
O146 O 0.94416 0.11569 0.98358 0.0
H147 H 0.78832 0.12848 0.04197 0.0
H148 H 0.78723 0.05391 1.01404 0.0
N149 N 0.89336 0.06278 0.02934 0.0
N150 N 0.94742 0.03431 0.03116 0.0
C151 C 0.93609 0.05749 0.02192 0.0
C152 C 0.87721 0.04233 0.044 0.0
C153 C 0.9104 0.0248 0.04525 0.0
C154 C 0.88369 0.10821 0.08779 0.0
O155 O 0.87108 0.08531 0.09323 0.0
H156 H 0.95871 0.07056 1.01061 0.0
H157 H 0.84424 0.04067 0.0545 0.0
O158 O 0.87252 0.10525 0.97985 0.0
H159 H 0.70346 0.06906 1.01952 0.0
H160 H 0.90797 1.00697 0.05719 0.0
Cu161 Cu 0.94736 0.67561 0.02187 0.0
N162 N 1.00781 0.67793 0.03155 0.0
N163 N 0.07737 0.66489 0.04005 0.0
C164 C 0.03619 0.65874 0.0298 0.0
C165 C 0.07492 0.68904 0.04824 0.0
C166 C 1.03176 0.697 0.04325 0.0
O167 O 0.92198 0.65549 0.05678 0.0
C168 C 0.90756 0.65939 0.96206 0.0
O169 O 0.86983 0.6649 0.97674 0.0
H170 H 1.02671 0.64063 0.02093 0.0
H171 H 1.01869 0.71524 0.04833 0.0
N172 N 0.91965 0.70656 0.0207 0.0
N173 N 0.8661 0.7353 0.02141 0.0
C174 C 0.87671 0.71149 0.02781 0.0
C175 C 0.93669 0.72785 1.00908 0.0
C176 C 0.9038 0.74562 1.00953 0.0
C177 C 0.92206 0.66482 0.08558 0.0
O178 O 0.93489 0.6879 0.08902 0.0
H179 H 0.85349 0.69774 0.03683 0.0
H180 H 0.97019 0.73003 0.9997 0.0
O181 O 0.94357 0.66122 0.97818 0.0
H182 H 0.10214 0.69999 0.05772 0.0
H183 H 0.9069 0.76432 1.0003 0.0
Cu184 Cu 0.20304 0.84729 0.77026 0.0
N185 N 0.26466 0.84462 0.77466 0.0
N186 N 0.33551 0.85701 0.77863 0.0
C187 C 0.29254 0.86407 0.77639 0.0
C188 C 0.33453 0.83202 0.77802 0.0
C189 C 0.29075 0.82444 0.77568 0.0
O190 O 0.18021 0.85965 0.81179 0.0
C191 C 0.1588 0.86724 0.71438 0.0
O192 O 0.12335 0.85618 0.72637 0.0
H193 H 0.2814 0.88309 0.77597 0.0
H194 H 0.27891 0.80559 0.77432 0.0
N195 N 0.17573 0.81676 0.76279 0.0
N196 N 0.12136 0.78851 0.76108 0.0
C197 C 0.13496 0.81032 0.77374 0.0
C198 C 0.18841 0.79849 0.74235 0.0
C199 C 0.15492 0.78102 0.74125 0.0
C200 C 0.18463 0.8816 0.82237 0.0
O201 O 0.20152 0.89856 0.80281 0.0
H202 H 0.11465 0.82221 0.78906 0.0
H203 H 0.21899 0.79838 0.72823 0.0
O204 O 0.19395 0.86784 0.73164 0.0
H205 H 0.36332 0.82003 0.77822 0.0
H206 H 0.15485 0.76439 0.72643 0.0
Cu207 Cu 0.12021 0.43232 0.77389 0.0
N208 N 0.05853 0.43526 0.77804 0.0
N209 N 0.98722 0.42351 0.78152 0.0
C210 C 1.02997 0.41608 0.77879 0.0
C211 C 0.98905 0.44848 0.78219 0.0
C212 C 1.03309 0.45566 0.78016 0.0
O213 O 0.1424 0.41936 0.81522 0.0
C214 C 0.16661 0.41328 0.71838 0.0
O215 O 0.20117 0.42441 0.73138 0.0
H216 H 0.04046 0.39698 0.77739 0.0
H217 H 0.0456 0.47441 0.77984 0.0
N218 N 0.14791 0.46287 0.76739 0.0
N219 N 0.20288 0.49076 0.76637 0.0
C220 C 0.18833 0.46909 0.77896 0.0
C221 C 0.13639 0.48119 0.74669 0.0
C222 C 0.17027 0.49844 0.74601 0.0
C223 C 0.13465 0.39788 0.82651 0.0
O224 O 0.11499 0.38154 0.80759 0.0
H225 H 0.20788 0.45707 0.79454 0.0
H226 H 0.10646 0.48141 0.732 0.0
O227 O 0.13054 0.41237 0.7348 0.0
H228 H 0.96068 0.46077 0.78311 0.0
H229 H 0.17138 0.51497 0.73099 0.0
Cu230 Cu 0.20573 0.42863 0.51625 0.0
N231 N 0.26683 0.4314 0.50859 0.0
N232 N 0.3365 0.41809 0.50079 0.0
C233 C 0.29301 0.41198 0.50115 0.0
C234 C 0.33785 0.44235 0.50847 0.0
C235 C 0.29478 0.45049 0.51351 0.0
O236 O 0.18378 0.40637 0.48247 0.0
C237 C 0.16584 0.40798 0.57544 0.0
O238 O 0.12935 0.4047 0.55833 0.0
H239 H 0.28043 0.39343 0.49738 0.0
H240 H 0.28496 0.46861 0.52206 0.0
N241 N 0.17523 0.45874 0.51255 0.0
N242 N 0.11796 0.48515 0.51095 0.0
C243 C 0.13136 0.46192 0.51808 0.0
C244 C 0.1901 0.48075 0.50154 0.0
C245 C 0.15493 0.49711 0.5008 0.0
C246 C 0.18404 0.4149 0.45318 0.0
O247 O 0.19603 0.43802 0.44862 0.0
H248 H 0.1097 0.4474 0.527 0.0
H249 H 0.22371 0.48448 0.49347 0.0
O250 O 0.20021 0.41669 0.56122 0.0
H251 H 0.36786 0.45301 0.51227 0.0
H252 H 0.15614 0.51612 0.49243 0.0
Cu253 Cu 0.1206 0.84494 0.51843 0.0
N254 N 0.05919 0.84112 0.51452 0.0
N255 N 0.98766 0.85206 0.51188 0.0
C256 C 1.03008 0.86003 0.51336 0.0
C257 C 0.99006 0.82714 0.51184 0.0
C258 C 1.03436 0.82042 0.51336 0.0
O259 O 0.14213 0.85698 0.47638 0.0
C260 C 0.1656 0.86736 0.57228 0.0
O261 O 0.20161 0.85763 0.55923 0.0
H262 H 0.03979 0.87929 0.51435 0.0
H263 H 0.04743 0.8018 0.51372 0.0
N264 N 0.14961 0.81506 0.52672 0.0
N265 N 0.2058 0.78814 0.53028 0.0
C266 C 0.1917 0.80984 0.51762 0.0
C267 C 0.13646 0.79597 0.54567 0.0
C268 C 0.17098 0.77918 0.54764 0.0
C269 C 0.13774 0.87889 0.46564 0.0
O270 O 0.12165 0.89606 0.48522 0.0
H271 H 0.21186 0.82202 0.50257 0.0
H272 H 0.10469 0.79477 0.55816 0.0
O273 O 0.12929 0.86619 0.5564 0.0
H274 H 0.96189 0.81472 0.51055 0.0
H275 H 0.17114 0.76222 0.56181 0.0
Cu276 Cu 0.86324 0.18369 0.26763 0.0
N277 N 0.80124 0.18532 0.26443 0.0
N278 N 0.73132 0.17193 0.25872 0.0
C279 C 0.77486 0.1664 0.25533 0.0
C280 C 0.73025 0.19533 0.27026 0.0
C281 C 0.77347 0.20353 0.27384 0.0
O282 O 0.88362 0.16317 0.23141 0.0
C283 C 0.85313 0.16081 0.33105 0.0
O284 O 0.81198 0.15674 0.32192 0.0
H285 H 0.78746 0.14852 0.24773 0.0
H286 H 0.78385 0.22104 0.2841 0.0
N287 N 0.89009 0.21475 0.26346 0.0
N288 N 0.94386 0.24334 0.26304 0.0
C289 C 0.9332 0.21958 0.26964 0.0
C290 C 0.87284 0.23613 0.25233 0.0
C291 C 0.90596 0.25381 0.25203 0.0
C292 C 0.88065 0.17213 0.20247 0.0
O293 O 0.86554 0.19476 0.19898 0.0
H294 H 0.95639 0.20585 0.27861 0.0
H295 H 0.83899 0.23852 0.24403 0.0
O296 O 0.88019 0.17072 0.31069 0.0
H297 H 0.70051 0.20527 0.27746 0.0
H298 H 0.90273 0.27262 0.24325 0.0
Cu299 Cu 0.95196 0.5969 0.26878 0.0
N300 N 1.01258 0.5943 0.25956 0.0
N301 N 0.08286 0.607 0.25309 0.0
C302 C 0.04143 0.61311 0.26306 0.0
C303 C 0.07996 0.58324 0.24304 0.0
C304 C 0.03642 0.57548 0.24691 0.0
O305 O 0.92665 0.6161 0.23305 0.0
C306 C 0.91136 0.61453 0.32774 0.0
O307 O 0.87387 0.60903 0.31294 0.0
H308 H 1.03185 0.63117 0.27211 0.0
H309 H 1.02308 0.55752 0.24067 0.0
N310 N 0.92366 0.56614 0.27137 0.0
N311 N 0.86827 0.53858 0.27407 0.0
C312 C 0.87996 0.56206 0.26663 0.0
C313 C 0.94037 0.54448 0.28195 0.0
C314 C 0.90632 0.52738 0.28337 0.0
C315 C 0.92534 0.60572 0.20489 0.0
O316 O 0.93812 0.58256 0.20252 0.0
H317 H 0.85716 0.57619 0.25828 0.0
H318 H 0.97454 0.54157 0.28922 0.0
O319 O 0.94762 0.61232 0.31183 0.0
H320 H 0.10731 0.57213 0.23396 0.0
H321 H 0.90899 0.50845 0.29183 0.0
Cu322 Cu 0.86305 0.58717 0.52451 0.0
N323 N 0.80118 0.5857 0.52826 0.0
N324 N 0.7315 0.60003 0.53161 0.0
C325 C 0.77496 0.6049 0.53673 0.0
C326 C 0.73037 0.57687 0.51929 0.0
C327 C 0.77339 0.56809 0.51718 0.0
O328 O 0.88543 0.60234 0.56431 0.0
C329 C 0.91016 0.61169 0.47065 0.0
O330 O 0.94666 0.61074 0.48826 0.0
H331 H 0.78778 0.62274 0.54408 0.0
H332 H 0.78375 0.55076 0.50636 0.0
N333 N 0.88888 0.55571 0.52257 0.0
N334 N 0.94246 0.52702 0.51984 0.0
C335 C 0.93173 0.551 0.51501 0.0
C336 C 0.87195 0.53399 0.53289 0.0
C337 C 0.90486 0.51624 0.5311 0.0
C338 C 0.88442 0.62506 0.57214 0.0
O339 O 0.8712 0.64144 0.55038 0.0
H340 H 0.95508 0.56505 0.50723 0.0
H341 H 0.83879 0.53148 0.54272 0.0
O342 O 0.87375 0.60417 0.48312 0.0
H343 H 0.70073 0.56736 0.51107 0.0
H344 H 0.90197 0.49725 0.53929 0.0
Cu345 Cu 0.95616 0.18053 0.52023 0.0
N346 N 1.01811 0.18216 0.52199 0.0
N347 N 0.08856 0.16924 0.52615 0.0
C348 C 0.04522 0.16321 0.52974 0.0
C349 C 0.08862 0.19291 0.51549 0.0
C350 C 0.04511 0.20081 0.51291 0.0
O351 O 0.93669 0.15883 0.5556 0.0
C352 C 0.90318 0.15928 0.46947 0.0
O353 O 0.87402 0.15528 0.49306 0.0
H354 H 1.03327 0.14516 0.53721 0.0
H355 H 1.03394 0.21855 0.50385 0.0
N356 N 0.92948 0.21156 0.52555 0.0
N357 N 0.87668 0.24073 0.52539 0.0
C358 C 0.88725 0.21719 0.51753 0.0
C359 C 0.94629 0.23224 0.53911 0.0
C360 C 0.91376 0.25026 0.53911 0.0
C361 C 0.94015 0.16688 0.58494 0.0
O362 O 0.95477 0.18951 0.58945 0.0
H363 H 0.8646 0.20422 0.50623 0.0
H364 H 0.97944 0.23389 0.54909 0.0
O365 O 0.94061 0.16867 0.47677 0.0
H366 H 0.11784 0.2034 0.50853 0.0
H367 H 0.91678 0.26861 0.54945 0.0
Cu368 Cu 0.70301 0.34807 0.77087 0.0
N369 N 0.76424 0.34625 0.77805 0.0
N370 N 0.83432 0.35951 0.78294 0.0
C371 C 0.79141 0.36604 0.77871 0.0
C372 C 0.83421 0.3346 0.78486 0.0
C373 C 0.79082 0.32645 0.78209 0.0
O374 O 0.6787 0.36822 0.80601 0.0
C375 C 0.65901 0.36289 0.7126 0.0
O376 O 0.62308 0.35543 0.72821 0.0
H377 H 0.77999 0.38483 0.77516 0.0
H378 H 0.77962 0.30747 0.78267 0.0
N379 N 0.6756 0.31696 0.7702 0.0
N380 N 0.62151 0.2885 0.77094 0.0
C381 C 0.63361 0.31165 0.77971 0.0
C382 C 0.69044 0.29654 0.75477 0.0
C383 C 0.65725 0.27896 0.75525 0.0
C384 C 0.67989 0.35953 0.83514 0.0
O385 O 0.69396 0.33674 0.83936 0.0
H386 H 0.61147 0.32507 0.79083 0.0
H387 H 0.72229 0.29501 0.74246 0.0
O388 O 0.69591 0.36271 0.72771 0.0
H389 H 0.86341 0.32314 0.78804 0.0
H390 H 0.65876 0.26083 0.74399 0.0
Cu391 Cu 0.61871 0.93389 0.77371 0.0
N392 N 0.55699 0.93562 0.77866 0.0
N393 N 0.48682 0.92212 0.78182 0.0
C394 C 0.52989 0.91581 0.77779 0.0
C395 C 0.48667 0.94695 0.785 0.0
C396 C 0.53014 0.95525 0.78329 0.0
O397 O 0.64222 0.92144 0.81489 0.0
C398 C 0.66366 0.91352 0.71799 0.0
O399 O 0.6992 0.92445 0.7298 0.0
H400 H 0.54152 0.89714 0.77357 0.0
H401 H 0.5413 0.9742 0.78525 0.0
N402 N 0.64463 0.9648 0.76569 0.0
N403 N 0.698 0.99349 0.7607 0.0
C404 C 0.68684 0.97109 0.77299 0.0
C405 C 0.62826 0.98397 0.74842 0.0
C406 C 0.661 1.00176 0.74548 0.0
C407 C 0.63561 0.89967 0.8256 0.0
O408 O 0.617 0.88329 0.80614 0.0
H409 H 0.70959 0.95892 0.78574 0.0
H410 H 0.59531 0.98465 0.73788 0.0
O411 O 0.62824 0.91336 0.73517 0.0
H412 H 0.45731 0.95823 0.78862 0.0
H413 H 0.65775 0.01934 0.73297 0.0
Cu414 Cu 0.701 0.9253 0.51717 0.0
N415 N 0.76237 0.92758 0.51096 0.0
N416 N 0.83301 0.91459 0.5091 0.0
C417 C 0.79 0.9081 0.5134 0.0
C418 C 0.83218 0.93917 0.50312 0.0
C419 C 0.78852 0.94715 0.50435 0.0
O420 O 0.67827 0.9065 0.48021 0.0
C421 C 0.6575 0.90861 0.57576 0.0
O422 O 0.62078 0.91615 0.56151 0.0
H423 H 0.77835 0.88945 0.51773 0.0
H424 H 0.77681 0.96586 0.5008 0.0
N425 N 0.67335 0.95627 0.5194 0.0
N426 N 0.61929 0.98473 0.51978 0.0
C427 C 0.63096 0.96147 0.51116 0.0
C428 C 0.68896 0.97686 0.53388 0.0
C429 C 0.65574 0.99445 0.53412 0.0
C430 C 0.67953 0.91675 0.45195 0.0
O431 O 0.69286 0.93984 0.44993 0.0
H432 H 0.60844 0.94796 0.50082 0.0
H433 H 0.72157 0.9786 0.54479 0.0
O434 O 0.69381 0.90933 0.55964 0.0
H435 H 0.8611 0.95064 0.49866 0.0
H436 H 0.65788 0.01276 0.54473 0.0
Cu437 Cu 0.61692 0.34187 0.51156 0.0
N438 N 0.55606 0.33897 0.50369 0.0
N439 N 0.48596 0.35193 0.49707 0.0
C440 C 0.52915 0.35856 0.49918 0.0
C441 C 0.48578 0.32709 0.5007 0.0
C442 C 0.52905 0.31915 0.50487 0.0
O443 O 0.63883 0.36569 0.47969 0.0
C444 C 0.65565 0.3634 0.56952 0.0
O445 O 0.69024 0.36871 0.55095 0.0
H446 H 0.54105 0.37744 0.49948 0.0
H447 H 0.53965 0.30044 0.50989 0.0
N448 N 0.64804 0.31206 0.5067 0.0
N449 N 0.70477 0.28529 0.5075 0.0
C450 C 0.69034 0.30804 0.51618 0.0
C451 C 0.63526 0.29112 0.49152 0.0
C452 C 0.67007 0.27452 0.4922 0.0
C453 C 0.64126 0.35865 0.44981 0.0
O454 O 0.6325 0.33544 0.44289 0.0
H455 H 0.71011 0.32158 0.52913 0.0
H456 H 0.60347 0.28834 0.47979 0.0
O457 O 0.62217 0.35285 0.5567 0.0
H458 H 0.45639 0.31554 0.50125 0.0
H459 H 0.67035 0.25623 0.48138 0.0
Cu460 Cu 0.36599 0.68092 0.26732 0.0
N461 N 0.30475 0.68433 0.26195 0.0
N462 N 0.23404 0.672 0.25764 0.0
C463 C 0.27718 0.66579 0.25344 0.0
C464 C 0.23456 0.69535 0.26936 0.0
C465 C 0.27823 0.70289 0.27207 0.0
O466 O 0.38603 0.65856 0.23287 0.0
C467 C 0.40734 0.66097 0.3264 0.0
O468 O 0.4448 0.65931 0.30977 0.0
H469 H 0.2887 0.64748 0.24684 0.0
H470 H 0.28981 0.72004 0.28269 0.0
N471 N 0.39574 0.71126 0.26333 0.0
N472 N 0.45061 0.73925 0.26386 0.0
C473 C 0.43882 0.71562 0.27036 0.0
C474 C 0.37985 0.73281 0.25166 0.0
C475 C 0.41361 0.75008 0.2519 0.0
C476 C 0.38394 0.66665 0.20343 0.0
O477 O 0.37161 0.68969 0.19873 0.0
H478 H 0.4614 0.70151 0.279 0.0
H479 H 0.34632 0.73567 0.24294 0.0
O480 O 0.37252 0.66862 0.31198 0.0
H481 H 0.20552 0.7058 0.27686 0.0
H482 H 0.41115 0.76912 0.24387 0.0
Cu483 Cu 0.45106 0.09391 0.2674 0.0
N484 N 0.51239 0.09209 0.26078 0.0
N485 N 0.58212 0.10572 0.25458 0.0
C486 C 0.53978 0.11173 0.2622 0.0
C487 C 0.58153 0.08116 0.24866 0.0
C488 C 0.53828 0.07281 0.25226 0.0
O489 O 0.42621 0.10745 0.22733 0.0
C490 C 0.40639 0.11261 0.32418 0.0
O491 O 0.37067 0.10275 0.31111 0.0
H492 H 0.52877 0.13008 0.26904 0.0
H493 H 0.52649 0.05412 0.24855 0.0
N494 N 0.42497 0.0629 0.27314 0.0
N495 N 0.37128 0.03427 0.27364 0.0
C496 C 0.38362 0.05699 0.26328 0.0
C497 C 0.43945 0.04333 0.2905 0.0
C498 C 0.4063 0.02562 0.2909 0.0
C499 C 0.43413 0.12893 0.21612 0.0
O500 O 0.45545 0.14493 0.23455 0.0
H501 H 0.36214 0.06974 0.25034 0.0
H502 H 0.47118 0.04236 0.30289 0.0
O503 O 0.44239 0.11275 0.30762 0.0
H504 H 0.61012 0.07016 0.24165 0.0
H505 H 0.40754 1.00795 0.30342 0.0
Cu506 Cu 0.37077 0.09195 0.52399 0.0
N507 N 0.3094 0.09058 0.53077 0.0
N508 N 0.23952 0.10436 0.53504 0.0
C509 C 0.28188 0.10998 0.52688 0.0
C510 C 0.24028 0.08032 0.54396 0.0
C511 C 0.28361 0.07189 0.54155 0.0
O512 O 0.39629 0.10547 0.56393 0.0
C513 C 0.41404 0.11089 0.46649 0.0
O514 O 0.45012 0.10063 0.47847 0.0
H515 H 0.2928 0.12785 0.51799 0.0
H516 H 0.29551 0.05358 0.54761 0.0
N517 N 0.39543 0.06062 0.51714 0.0
N518 N 0.44728 0.0311 0.51267 0.0
C519 C 0.43788 0.05418 0.52334 0.0
C520 C 0.37711 0.04088 0.50231 0.0
C521 C 0.40896 0.02257 0.49966 0.0
C522 C 0.38847 0.12723 0.57423 0.0
O523 O 0.36685 0.14269 0.55514 0.0
H524 H 0.46191 0.06658 0.53427 0.0
H525 H 0.34329 0.04006 0.49341 0.0
O526 O 0.37891 0.11119 0.484 0.0
H527 H 0.21176 0.06977 0.55227 0.0
H528 H 0.40419 1.00445 0.48897 0.0
Cu529 Cu 0.45564 0.68271 0.52496 0.0
N530 N 0.51701 0.68361 0.53124 0.0
N531 N 0.58638 0.6692 0.53618 0.0
C532 C 0.54426 0.66411 0.52706 0.0
C533 C 0.58568 0.69302 0.54618 0.0
C534 C 0.54272 0.70184 0.54322 0.0
O535 O 0.43002 0.66875 0.56466 0.0
C536 C 0.40845 0.66499 0.4693 0.0
O537 O 0.37375 0.67481 0.48405 0.0
H538 H 0.53304 0.64625 0.51842 0.0
H539 H 0.53091 0.72007 0.54984 0.0
N540 N 0.43124 0.71421 0.52015 0.0
N541 N 0.37879 0.74352 0.51927 0.0
C542 C 0.38971 0.72054 0.52936 0.0
C543 C 0.44737 0.73384 0.50363 0.0
C544 C 0.41506 0.75201 0.50308 0.0
C545 C 0.43787 0.64702 0.57498 0.0
O546 O 0.45964 0.63155 0.55589 0.0
H547 H 0.3674 0.70814 0.54229 0.0
H548 H 0.47954 0.73446 0.49162 0.0
O549 O 0.44547 0.66464 0.48433 0.0
H550 H 0.6141 0.70338 0.55486 0.0
H551 H 0.41731 0.76951 0.49024 0.0
Cu552 Cu 0.70602 0.84321 0.27 0.0
N553 N 0.7674 0.84067 0.27566 0.0
N554 N 0.83762 0.85368 0.28113 0.0
C555 C 0.79416 0.85942 0.28478 0.0
C556 C 0.83814 0.83044 0.26901 0.0
C557 C 0.7948 0.82252 0.26549 0.0
O558 O 0.68414 0.86509 0.30443 0.0
C559 C 0.66435 0.86315 0.21121 0.0
O560 O 0.62693 0.86446 0.22794 0.0
H561 H 0.78188 0.87735 0.29242 0.0
H562 H 0.78411 0.80545 0.25417 0.0
N563 N 0.67756 0.81244 0.27377 0.0
N564 N 0.62336 0.78408 0.27558 0.0
C565 C 0.63409 0.80777 0.26854 0.0
C566 C 0.6949 0.79093 0.28438 0.0
C567 C 0.66165 0.77338 0.28535 0.0
C568 C 0.68444 0.85648 0.33365 0.0
O569 O 0.69689 0.83343 0.33807 0.0
H570 H 0.61048 0.82164 0.26066 0.0
H571 H 0.72909 0.78826 0.29165 0.0
O572 O 0.69933 0.85557 0.22546 0.0
H573 H 0.86753 0.82052 0.26104 0.0
H574 H 0.66547 0.75423 0.29256 0.0
Cu575 Cu 0.61379 0.43472 0.27302 0.0
N576 N 0.55279 0.43607 0.28147 0.0
N577 N 0.48356 0.42188 0.28837 0.0
C578 C 0.52599 0.41615 0.28064 0.0
C579 C 0.48352 0.44646 0.29406 0.0
C580 C 0.52646 0.45516 0.29009 0.0
O581 O 0.63918 0.4154 0.30838 0.0
C582 C 0.65781 0.41668 0.21577 0.0
O583 O 0.69443 0.42187 0.23188 0.0
H584 H 0.53743 0.39783 0.27398 0.0
H585 H 0.53763 0.47398 0.29351 0.0
N586 N 0.64057 0.46592 0.27153 0.0
N587 N 0.69411 0.49466 0.27137 0.0
C588 C 0.68359 0.47088 0.27801 0.0
C589 C 0.62337 0.4872 0.26006 0.0
C590 C 0.65627 0.50499 0.26005 0.0
C591 C 0.63666 0.42457 0.33721 0.0
O592 O 0.62044 0.44699 0.34056 0.0
H593 H 0.70699 0.45714 0.28664 0.0
H594 H 0.58985 0.48935 0.25095 0.0
O595 O 0.62054 0.41964 0.23009 0.0
H596 H 0.45464 0.45727 0.30096 0.0
H597 H 0.65313 0.5237 0.25084 0.0
Cu598 Cu 0.70474 0.43298 1.01486 0.0
N599 N 0.76605 0.43448 1.00802 0.0
N600 N 0.83639 0.42092 1.00788 0.0
C601 C 0.79366 0.4158 1.01567 0.0
C602 C 0.83537 0.44371 0.99423 0.0
C603 C 0.79189 0.45204 0.99433 0.0
O604 O 0.68089 0.4126 0.97987 0.0
C605 C 0.66083 0.41511 0.07299 0.0
O606 O 0.62356 0.41898 0.05702 0.0
H607 H 0.78204 0.39841 0.02569 0.0
H608 H 0.77999 0.46943 0.98461 0.0
N609 N 0.67729 0.46408 1.01455 0.0
N610 N 0.62289 0.4924 1.01404 0.0
C611 C 0.63328 0.46814 1.01148 0.0
C612 C 0.69549 0.48648 1.01953 0.0
C613 C 0.66207 0.50397 1.01918 0.0
C614 C 0.67925 0.42205 0.95117 0.0
O615 O 0.69086 0.4453 0.94744 0.0
H616 H 0.60932 0.45338 1.0088 0.0
H617 H 0.73039 0.48983 0.02399 0.0
O618 O 0.69762 0.4188 0.05833 0.0
H619 H 0.86394 0.45364 0.98474 0.0
H620 H 0.66627 0.52365 0.02285 0.0
Cu621 Cu 0.61373 0.83981 1.01462 0.0
N622 N 0.55215 0.83856 1.00946 0.0
N623 N 0.4823 0.85253 1.00566 0.0
C624 C 0.52526 0.85843 1.01112 0.0
C625 C 0.48219 0.82783 1.00059 0.0
C626 C 0.52539 0.81929 1.00277 0.0
O627 O 0.63806 0.85323 0.97412 0.0
C628 C 0.66183 0.86007 0.06839 0.0
O629 O 0.69698 0.8515 0.05286 0.0
H630 H 0.5372 0.87697 1.01583 0.0
H631 H 0.53644 0.8004 0.99966 0.0
N632 N 0.63913 0.8086 0.02086 0.0
N633 N 0.69294 0.78028 0.02546 0.0
C634 C 0.68204 0.80309 1.01468 0.0
C635 C 0.62209 0.78848 0.03584 0.0
C636 C 0.65519 0.77085 0.03842 0.0
C637 C 0.63451 0.87565 0.96515 0.0
O638 O 0.61775 0.89188 0.98581 0.0
H639 H 0.70512 0.81587 1.00324 0.0
H640 H 0.58856 0.7871 0.04541 0.0
O641 O 0.62422 0.8589 0.0543 0.0
H642 H 0.45302 0.8166 0.99625 0.0
H643 H 0.65232 0.75297 0.05024 0.0
Cu644 Cu 0.372 0.18196 0.76736 0.0
N645 N 0.31042 0.18364 0.76181 0.0
N646 N 0.24042 0.17028 0.75687 0.0
C647 C 0.2833 0.16383 0.76131 0.0
C648 C 0.24039 0.19518 0.7548 0.0
C649 C 0.28377 0.20339 0.75758 0.0
O650 O 0.3965 0.17007 0.72601 0.0
C651 C 0.41715 0.16094 0.8223 0.0
O652 O 0.45281 0.17136 0.80966 0.0
H653 H 0.29474 0.14503 0.76477 0.0
H654 H 0.295 0.22237 0.75652 0.0
N655 N 0.39716 0.21296 0.77582 0.0
N656 N 0.44949 0.24219 0.78077 0.0
C657 C 0.4392 0.21971 0.76845 0.0
C658 C 0.38005 0.23188 0.79324 0.0
C659 C 0.41212 0.25002 0.79613 0.0
C660 C 0.39015 0.14853 0.71447 0.0
O661 O 0.37161 0.13162 0.73329 0.0
H662 H 0.4624 0.20785 0.75548 0.0
H663 H 0.34698 0.2322 0.80381 0.0
O664 O 0.38116 0.16137 0.80597 0.0
H665 H 0.21119 0.20656 0.7512 0.0
H666 H 0.4081 0.26755 0.80861 0.0
Cu667 Cu 0.45608 0.59348 0.7687 0.0
N668 N 0.51798 0.59219 0.76475 0.0
N669 N 0.58782 0.60612 0.76067 0.0
C670 C 0.54434 0.61222 0.76171 0.0
C671 C 0.58897 0.58126 0.76345 0.0
C672 C 0.54575 0.57268 0.76573 0.0
O673 O 0.43317 0.60495 0.72689 0.0
C674 C 0.40738 0.61316 0.82264 0.0
O675 O 0.37321 0.60213 0.80894 0.0
H676 H 0.53189 0.63099 0.76133 0.0
H677 H 0.53541 0.55362 0.76829 0.0
N678 N 0.43056 0.5625 0.77658 0.0
N679 N 0.37659 0.53412 0.78049 0.0
C680 C 0.38964 0.55566 0.76667 0.0
C681 C 0.44416 0.54455 0.79716 0.0
C682 C 0.41106 0.52691 0.79945 0.0
C683 C 0.43698 0.62671 0.71547 0.0
O684 O 0.45254 0.6443 0.73451 0.0
H685 H 0.36871 0.56709 0.75126 0.0
H686 H 0.47507 0.54481 0.81069 0.0
O687 O 0.44404 0.61393 0.80698 0.0
H688 H 0.61891 0.57013 0.76378 0.0
H689 H 0.41204 0.51035 0.81439 0.0
Cu690 Cu 0.3621 0.5928 0.02242 0.0
N691 N 0.30071 0.58923 0.02788 0.0
N692 N 0.23006 0.60132 0.03455 0.0
C693 C 0.27331 0.60719 0.03883 0.0
C694 C 0.23029 0.57883 0.02015 0.0
C695 C 0.27387 0.57152 1.01583 0.0
O696 O 0.38273 0.61351 0.05833 0.0
C697 C 0.40451 0.61508 0.96544 0.0
O698 O 0.44118 0.61608 0.98283 0.0
H699 H 0.28497 0.6248 0.04805 0.0
H700 H 0.28504 0.55537 1.00251 0.0
N701 N 0.3923 0.56243 0.02346 0.0
N702 N 0.44785 0.53499 0.02063 0.0
C703 C 0.4365 0.55913 0.01958 0.0
C704 C 0.37539 0.53957 0.02774 0.0
C705 C 0.40956 0.52261 0.02585 0.0
C706 C 0.38207 0.60398 0.08706 0.0
O707 O 0.36992 0.58075 0.09013 0.0
H708 H 0.45988 0.57408 1.01581 0.0
H709 H 0.3408 0.53544 0.03238 0.0
O710 O 0.36904 0.60706 0.97884 0.0
H711 H 0.20125 0.56924 1.01103 0.0
H712 H 0.40664 0.50277 0.02875 0.0
Cu713 Cu 0.45076 0.17895 0.0212 0.0
N714 N 0.51185 0.18162 0.02777 0.0
N715 N 0.58186 0.16879 0.03446 0.0
C716 C 0.53996 0.1623 0.02655 0.0
C717 C 0.58027 0.19335 0.04033 0.0
C718 C 0.53681 0.20121 0.03642 0.0
O719 O 0.42563 0.16635 0.06189 0.0
C720 C 0.40847 0.15911 0.96446 0.0
O721 O 0.3722 0.16921 0.9766 0.0
H722 H 0.52977 0.14379 0.01982 0.0
H723 H 0.5242 0.21974 0.04014 0.0
N724 N 0.42381 0.20945 1.01361 0.0
N725 N 0.36829 0.23679 1.00997 0.0
C726 C 0.38186 0.21499 0.02261 0.0
C727 C 0.43771 0.22854 0.99496 0.0
C728 C 0.40355 0.24558 0.9929 0.0
C729 C 0.43575 0.14578 0.07495 0.0
O730 O 0.45896 0.12964 0.05791 0.0
H731 H 0.36142 0.20288 0.03755 0.0
H732 H 0.46968 0.22951 0.98271 0.0
O733 O 0.4435 0.15893 0.98189 0.0
H734 H 0.60826 0.20464 0.04765 0.0
H735 H 0.40394 0.26257 0.97879 0.0
C736 C 0.16493 0.36386 0.15905 0.0
C737 C 0.20948 0.36426 0.16951 0.0
C738 C 0.15414 0.36491 0.12543 0.0
C739 C 0.1875 0.36637 0.10095 0.0
H740 H 0.13826 0.36132 0.17675 0.0
H741 H 0.1195 0.36312 0.1186 0.0
S742 S 0.30872 0.37268 0.11576 0.0
N743 N 0.28676 0.36975 0.15288 0.0
N744 N 0.2665 0.37158 0.08995 0.0
C745 C 0.23187 0.3688 0.11128 0.0
C746 C 0.24285 0.36777 0.14545 0.0
C747 C 0.19656 0.90471 0.12462 0.0
C748 C 0.15574 0.90523 0.10768 0.0
C749 C 0.19808 0.90486 0.15914 0.0
C750 C 0.15891 0.90523 0.17824 0.0
H751 H 0.22774 0.90581 0.11123 0.0
H752 H 0.23032 0.90592 0.17088 0.0
S753 S 0.04351 0.90221 0.14586 0.0
N754 N 0.07527 0.90295 0.1126 0.0
N755 N 0.07795 0.90282 0.1774 0.0
C756 C 0.11789 0.90349 0.16161 0.0
C757 C 0.11637 0.90363 0.12639 0.0
C758 C 0.95168 0.66039 0.8743 0.0
C759 C 0.91292 0.65829 0.85518 0.0
C760 C 0.94999 0.6591 0.90878 0.0
C761 C 0.90938 0.65588 0.9257 0.0
H762 H 0.98346 0.66419 0.86269 0.0
H763 H 0.98058 0.662 0.92224 0.0
S764 S 0.79916 0.64549 0.88722 0.0
N765 N 0.83331 0.64976 0.85579 0.0
N766 N 0.83021 0.64764 0.92052 0.0
C767 C 0.87083 0.65196 0.90687 0.0
C768 C 0.87259 0.65305 0.87167 0.0
C769 C 0.94845 0.11792 0.91262 0.0
C770 C 0.90794 0.11767 0.93006 0.0
C771 C 0.94937 0.1177 0.87806 0.0
C772 C 0.9098 0.11724 0.85953 0.0
H773 H 0.97976 0.11705 0.92566 0.0
H774 H 0.98146 0.11672 0.86591 0.0
S775 S 0.79503 0.12081 0.89337 0.0
N776 N 0.82725 0.12016 0.92616 0.0
N777 N 0.82902 0.1197 0.86138 0.0
C778 C 0.86912 0.11882 0.87667 0.0
C779 C 0.86818 0.11903 0.91186 0.0
C780 C 0.12186 0.8727 0.65969 0.0
C781 C 0.16096 0.87333 0.67861 0.0
C782 C 0.1235 0.87288 0.62517 0.0
C783 C 0.16438 0.87338 0.60804 0.0
H784 H 0.08971 0.87076 0.67157 0.0
H785 H 0.09249 0.87094 0.61193 0.0
S786 S 0.27608 0.87948 0.64574 0.0
N787 N 0.24161 0.87794 0.67743 0.0
N788 N 0.24455 0.87787 0.61262 0.0
C789 C 0.2035 0.8761 0.62658 0.0
C790 C 0.20183 0.8762 0.66181 0.0
C791 C 0.20556 0.40976 0.62952 0.0
C792 C 0.16617 0.4049 0.61196 0.0
C793 C 0.2059 0.41081 0.664 0.0
C794 C 0.16689 0.40703 0.68261 0.0
H795 H 0.23628 0.4138 0.61656 0.0
H796 H 0.23676 0.41572 0.67602 0.0
S797 S 0.05614 0.39013 0.64901 0.0
N798 N 0.08798 0.39363 0.61611 0.0
N799 N 0.08859 0.39551 0.68089 0.0
C800 C 0.12789 0.40038 0.66553 0.0
C801 C 0.12754 0.39936 0.63028 0.0
C802 C 0.90975 0.16322 0.3761 0.0
C803 C 0.86644 0.15702 0.36599 0.0
C804 C 0.92174 0.16282 0.40942 0.0
C805 C 0.89096 0.15625 0.4342 0.0
H806 H 0.9344 0.1692 0.35827 0.0
H807 H 0.95516 0.16851 0.41578 0.0
S808 S 0.77436 0.13604 0.4207 0.0
N809 N 0.79349 0.14223 0.38345 0.0
N810 N 0.81604 0.14157 0.44596 0.0
C811 C 0.84815 0.14881 0.42434 0.0
C812 C 0.83591 0.14917 0.39033 0.0
C813 C 0.87193 0.61756 0.38201 0.0
C814 C 0.91199 0.61864 0.36403 0.0
C815 C 0.87173 0.6169 0.4165 0.0
C816 C 0.91158 0.61725 0.43468 0.0
H817 H 0.84036 0.61609 0.3694 0.0
H818 H 0.83992 0.61501 0.42888 0.0
S819 S 1.0253 0.62387 0.39969 0.0
N820 N 0.99252 0.62301 0.36721 0.0
N821 N 0.99207 0.62162 0.43202 0.0
C822 C 0.95174 0.62019 0.41715 0.0
C823 C 0.95196 0.62091 0.38188 0.0
C824 C 0.61782 0.36238 0.62448 0.0
C825 C 0.65654 0.36706 0.60582 0.0
C826 C 0.61847 0.36245 0.65896 0.0
C827 C 0.65791 0.36712 0.6764 0.0
H828 H 0.5868 0.35783 0.61243 0.0
H829 H 0.58804 0.35781 0.67193 0.0
S830 S 0.76739 0.38342 0.63943 0.0
N831 N 0.73467 0.37873 0.60749 0.0
N832 N 0.73596 0.37889 0.67231 0.0
C833 C 0.69635 0.3733 0.65812 0.0
C834 C 0.69565 0.37327 0.62288 0.0
C835 C 0.70101 0.90769 0.66331 0.0
C836 C 0.66192 0.90677 0.68246 0.0
C837 C 0.69949 0.90649 0.62884 0.0
C838 C 0.65874 0.90457 0.61199 0.0
H839 H 0.733 0.91056 0.67488 0.0
H840 H 0.73042 0.90854 0.61534 0.0
S841 S 0.54738 0.89731 0.65059 0.0
N842 N 0.58161 0.90051 0.68198 0.0
N843 N 0.57889 0.89863 0.61724 0.0
C844 C 0.61973 0.90171 0.63086 0.0
C845 C 0.62129 0.90268 0.66604 0.0
C846 C 0.44669 0.65682 0.38058 0.0
C847 C 0.4066 0.65761 0.36282 0.0
C848 C 0.44689 0.65764 0.41515 0.0
C849 C 0.40701 0.65934 0.43342 0.0
H850 H 0.47834 0.65677 0.36774 0.0
H851 H 0.47876 0.65821 0.42748 0.0
S852 S 0.29282 0.65774 0.39904 0.0
N853 N 0.32571 0.65701 0.36641 0.0
N854 N 0.32621 0.6587 0.43117 0.0
C855 C 0.36664 0.65836 0.41607 0.0
C856 C 0.36641 0.65746 0.38088 0.0
C857 C 0.45063 0.11633 0.41138 0.0
C858 C 0.41166 0.1169 0.4307 0.0
C859 C 0.44878 0.11689 0.37687 0.0
C860 C 0.40781 0.11774 0.36017 0.0
H861 H 0.48285 0.11425 0.4229 0.0
H862 H 0.47969 0.11508 0.36328 0.0
S863 S 0.2964 0.12366 0.39904 0.0
N864 N 0.33102 0.12168 0.43037 0.0
N865 N 0.32771 0.12231 0.36559 0.0
C866 C 0.36882 0.12025 0.37913 0.0
C867 C 0.37069 0.11996 0.41433 0.0
C868 C 0.62477 0.86829 0.15732 0.0
C869 C 0.66496 0.86688 0.17486 0.0
C870 C 0.62425 0.86773 0.12276 0.0
C871 C 0.66389 0.86569 0.10426 0.0
H872 H 0.59323 0.86863 0.1703 0.0
H873 H 0.59224 0.86763 0.11061 0.0
S874 S 0.77845 0.86569 0.1381 0.0
N875 N 0.74585 0.86659 0.17089 0.0
N876 N 0.74475 0.8654 0.10613 0.0
C877 C 0.70445 0.86614 0.12142 0.0
C878 C 0.70501 0.86676 0.15662 0.0
C879 C 0.62009 0.41281 0.12683 0.0
C880 C 0.66032 0.41089 0.1092 0.0
C881 C 0.61945 0.41321 0.16134 0.0
C882 C 0.65903 0.41179 0.17973 0.0
H883 H 0.58889 0.41519 0.11397 0.0
H884 H 0.5877 0.41586 0.17356 0.0
S885 S 0.77251 0.4022 0.14561 0.0
N886 N 0.74033 0.40427 0.1129 0.0
N887 N 0.73905 0.40523 0.17769 0.0
C888 C 0.69917 0.40804 0.16249 0.0
C889 C 0.69983 0.40753 0.12729 0.0
C890 C 0.37454 0.15458 0.87481 0.0
C891 C 0.41565 0.15464 0.85798 0.0
C892 C 0.37244 0.15425 0.90933 0.0
C893 C 0.4113 0.15367 0.92853 0.0
H894 H 0.34367 0.15642 0.86137 0.0
H895 H 0.34008 0.15573 0.921 0.0
S896 S 0.52699 0.14893 0.89636 0.0
N897 N 0.49586 0.15077 0.86305 0.0
N898 N 0.49208 0.14975 0.92783 0.0
C899 C 0.45247 0.15141 0.91196 0.0
C900 C 0.45459 0.15203 0.87675 0.0
C901 C 0.36649 0.61531 0.87636 0.0
C902 C 0.40615 0.61899 0.8585 0.0
C903 C 0.36595 0.61556 0.91086 0.0
C904 C 0.40508 0.61944 0.92917 0.0
H905 H 0.33581 0.611 0.8637 0.0
H906 H 0.33476 0.61154 0.9232 0.0
S907 S 0.51651 0.63395 0.89436 0.0
N908 N 0.48474 0.62968 0.86181 0.0
N909 N 0.48369 0.63001 0.92663 0.0
C910 C 0.44434 0.62504 0.91166 0.0
C911 C 0.44488 0.62487 0.87639 0.0
C912 C 1.02573 0.24079 0.25784 0.0
C913 C 0.98732 0.25456 0.26549 0.0
C914 C 0.06831 0.25129 0.26013 0.0
C915 C 0.07418 0.27597 0.27012 0.0
H916 H 1.02283 0.22182 0.24961 0.0
H917 H 0.09688 0.24008 0.25367 0.0
S918 S 0.98471 0.31918 0.29601 0.0
N919 N 0.95813 0.2937 0.28541 0.0
N920 N 0.03803 0.3134 0.28981 0.0
C921 C 0.03609 0.28985 0.27831 0.0
C922 C 0.99273 0.27915 0.27596 0.0
C923 C 0.26711 0.99822 0.29292 0.0
C924 C 0.24154 1.00127 0.26425 0.0
C925 C 0.30955 1.00883 0.29572 0.0
C926 C 0.32815 0.02286 0.26991 0.0
H927 H 0.25391 0.98778 0.31352 0.0
H928 H 0.32761 1.00638 0.31849 0.0
S929 S 0.27685 0.03416 0.18832 0.0
N930 N 0.23921 0.01793 0.2087 0.0
N931 N 0.31891 0.03777 0.21388 0.0
C932 C 0.30328 0.02564 0.24086 0.0
C933 C 0.26003 0.01489 0.23805 0.0
C934 C 0.07205 0.02647 0.0335 0.0
C935 C 0.07758 1.0008 0.02953 0.0
C936 C 1.02962 0.03736 0.03326 0.0
C937 C 0.99094 0.02297 0.02933 0.0
H938 H 0.10081 0.03822 0.03693 0.0
H939 H 1.02705 0.05711 0.03705 0.0
S940 S 0.98704 0.95494 1.01762 0.0
N941 N 0.04042 0.96125 0.02178 0.0
N942 N 0.96114 0.98179 0.02015 0.0
C943 C 0.99604 0.99733 0.02483 0.0
C944 C 0.0392 0.98623 0.02517 0.0
C945 C 0.31981 0.27352 1.0153 0.0
C946 C 0.32459 0.24772 1.01256 0.0
C947 C 0.27766 0.28446 1.01853 0.0
C948 C 0.23872 0.27 1.01917 0.0
H949 H 0.34896 0.28528 1.01558 0.0
H950 H 0.27558 0.30434 0.0213 0.0
S951 S 0.23253 0.20202 1.00891 0.0
N952 N 0.28629 0.20825 1.00781 0.0
N953 N 0.20733 0.22885 1.01439 0.0
C954 C 0.24292 0.24429 1.01567 0.0
C955 C 0.28576 0.23314 1.01222 0.0
C956 C 1.01564 0.75407 0.74153 0.0
C957 C 0.99176 0.75517 0.77137 0.0
C958 C 0.05797 0.76483 0.7384 0.0
C959 C 0.07821 0.77705 0.76504 0.0
H960 H 1.00118 0.74506 0.72031 0.0
H961 H 0.07466 0.76392 0.71476 0.0
S962 S 1.03173 0.78272 0.8495 0.0
N963 N 0.99282 0.76796 0.82871 0.0
N964 N 0.07231 0.78806 0.8229 0.0
C965 C 0.05504 0.77784 0.79521 0.0
C966 C 1.01189 0.76695 0.79836 0.0
C967 C 0.76788 1.00203 0.7905 0.0
C968 C 0.74123 1.00517 0.76239 0.0
C969 C 0.81053 1.01248 0.79243 0.0
C970 C 0.82833 0.02655 0.76634 0.0
H971 H 0.75551 0.99153 0.81132 0.0
H972 H 0.82953 1.00976 0.81472 0.0
S973 S 0.7738 0.03878 0.68624 0.0
N974 N 0.73692 0.02236 0.70712 0.0
N975 N 0.81686 0.04214 0.71095 0.0
C976 C 0.80223 0.02975 0.73802 0.0
C977 C 0.75878 0.01904 0.73599 0.0
C978 C 0.74176 0.74398 1.01742 0.0
C979 C 0.7365 0.7691 0.02543 0.0
C980 C 0.78409 0.73297 1.01651 0.0
C981 C 0.8227 0.74666 0.02376 0.0
H982 H 0.71298 0.73293 1.01115 0.0
H983 H 0.78668 0.71374 1.00936 0.0
S984 S 0.82608 0.8122 0.05063 0.0
N985 N 0.77292 0.80676 0.04363 0.0
N986 N 0.85227 0.78611 0.04215 0.0
C987 C 0.81764 0.7716 0.03288 0.0
C988 C 0.77462 0.7828 0.03367 0.0
C989 C 0.31065 0.52348 0.74722 0.0
C990 C 0.33331 0.52272 0.77746 0.0
C991 C 0.26804 0.51319 0.74383 0.0
C992 C 0.24632 0.50174 0.77057 0.0
H993 H 0.32623 0.53191 0.72591 0.0
H994 H 0.25228 0.51385 0.71993 0.0
S995 S 0.28925 0.49698 0.85584 0.0
N996 N 0.32948 0.51097 0.83522 0.0
N997 N 0.24957 0.4916 0.82879 0.0
C998 C 0.26829 0.50117 0.80107 0.0
C999 C 0.3117 0.51165 0.80454 0.0
C1000 C 1.02419 0.53 0.52545 0.0
C1001 C 0.9862 0.51612 0.51721 0.0
C1002 C 0.06698 0.51975 0.52337 0.0
C1003 C 0.07353 0.49519 0.51306 0.0
H1004 H 1.0208 0.54884 0.53409 0.0
H1005 H 0.09516 0.53103 0.53032 0.0
S1006 S 0.98556 0.45174 0.48579 0.0
N1007 N 0.95823 0.477 0.49646 0.0
N1008 N 0.0386 0.45774 0.49254 0.0
C1009 C 0.03593 0.4812 0.50429 0.0
C1010 C 0.99232 0.49166 0.50639 0.0
C1011 C 0.29663 0.74084 0.52052 0.0
C1012 C 0.3357 0.75517 0.52216 0.0
C1013 C 0.25439 0.75172 0.52324 0.0
C1014 C 0.24954 0.77737 0.52748 0.0
H1015 H 0.29866 0.72107 0.51665 0.0
H1016 H 0.22524 0.74004 0.52155 0.0
S1017 S 0.34109 0.82284 0.53647 0.0
N1018 N 0.36667 0.79619 0.53042 0.0
N1019 N 0.28734 0.81663 0.53534 0.0
C1020 C 0.28825 0.79189 0.52962 0.0
C1021 C 0.33129 0.78081 0.52697 0.0
C1022 C 0.81819 0.50308 0.26429 0.0
C1023 C 0.82425 0.52787 0.27377 0.0
C1024 C 0.77571 0.49229 0.26382 0.0
C1025 C 0.73762 0.50588 0.27281 0.0
H1026 H 0.84648 0.49205 0.2567 0.0
H1027 H 0.77254 0.47329 0.25575 0.0
S1028 S 0.73587 0.57055 0.30311 0.0
N1029 N 0.78879 0.56509 0.29484 0.0
N1030 N 0.70908 0.54487 0.29368 0.0
C1031 C 0.74329 0.53052 0.28298 0.0
C1032 C 0.78653 0.54149 0.28354 0.0
C1033 C 0.75258 0.24947 0.52034 0.0
C1034 C 0.74827 0.2747 0.51258 0.0
C1035 C 0.79452 0.2386 0.5247 0.0
C1036 C 0.83389 0.2525 0.52135 0.0
H1037 H 0.72321 0.23809 0.52336 0.0
H1038 H 0.79609 0.21918 0.53106 0.0
S1039 S 0.8409 0.31883 0.49844 0.0
N1040 N 0.78702 0.31302 0.50002 0.0
N1041 N 0.86581 0.2926 0.50804 0.0
C1042 C 0.83007 0.27772 0.51328 0.0
C1043 C 0.7873 0.28881 0.50893 0.0
C1044 C 0.51904 0.25155 0.75051 0.0
C1045 C 0.49217 0.25449 0.77871 0.0
C1046 C 0.56109 0.2627 0.74816 0.0
C1047 C 0.57803 0.27731 0.7739 0.0
H1048 H 0.5073 0.24069 0.72992 0.0
H1049 H 0.58029 0.2601 0.72582 0.0
S1050 S 0.52273 0.28935 0.85407 0.0
N1051 N 0.48683 0.2721 0.83371 0.0
N1052 N 0.56561 0.29323 0.82904 0.0
C1053 C 0.55173 0.28033 0.8023 0.0
C1054 C 0.50891 0.26889 0.80478 0.0
C1055 C 0.51806 0.02259 0.54127 0.0
C1056 C 0.48996 0.01883 0.5141 0.0
C1057 C 0.56012 1.01141 0.54294 0.0
C1058 C 0.57585 0.99601 0.51749 0.0
H1059 H 0.50725 0.0341 0.56158 0.0
H1060 H 0.58028 0.01461 0.56454 0.0
S1061 S 0.51699 0.98184 0.43968 0.0
N1062 N 0.48204 0.99968 0.46028 0.0
N1063 N 0.56097 0.97862 0.46353 0.0
C1064 C 0.54832 0.99226 0.49004 0.0
C1065 C 0.50544 1.00367 0.48831 0.0
C1066 C 0.55128 0.77898 0.2473 0.0
C1067 C 0.57997 0.77276 0.27329 0.0
C1068 C 0.50914 0.76801 0.2444 0.0
C1069 C 0.49399 0.75042 0.26744 0.0
H1070 H 0.56182 0.79215 0.22874 0.0
H1071 H 0.48853 0.77306 0.22367 0.0
S1072 S 0.55433 0.72977 0.34208 0.0
N1073 N 0.58894 0.74918 0.32381 0.0
N1074 N 0.50982 0.72866 0.31844 0.0
C1075 C 0.52199 0.74442 0.29394 0.0
C1076 C 0.56491 0.75556 0.29685 0.0
C1077 C 0.57022 0.52451 0.03364 0.0
C1078 C 0.579 0.50342 1.01426 0.0
C1079 C 0.52751 0.53499 0.03519 0.0
C1080 C 0.49183 0.52462 1.01774 0.0
H1081 H 0.59628 0.5327 0.04834 0.0
H1082 H 0.52203 0.55094 0.05079 0.0
S1083 S 0.49764 0.4714 0.96049 0.0
N1084 N 0.54874 0.47409 0.97481 0.0
N1085 N 0.4684 0.49338 0.97868 0.0
C1086 C 0.50017 0.50397 0.99773 0.0
C1087 C 0.54373 0.49347 0.99576 0.0
C1088 C 0.17628 0.40953 0.39232 0.0
C1089 C 0.17699 0.39882 0.42399 0.0
C1090 C 0.17625 0.39496 0.36379 0.0
C1091 C 0.17712 0.36902 0.36569 0.0
H1092 H 0.17732 0.42944 0.38937 0.0
H1093 H 0.17759 0.40416 0.34011 0.0
S1094 S 0.1731 0.33165 0.44253 0.0
N1095 N 0.17411 0.36057 0.45545 0.0
N1096 N 0.17394 0.33313 0.40193 0.0
C1097 C 0.17502 0.35801 0.39718 0.0
C1098 C 0.17493 0.3729 0.42628 0.0
C1099 C 0.13742 0.86817 0.37326 0.0
C1100 C 0.14166 0.89214 0.36022 0.0
C1101 C 0.13861 0.86397 0.40733 0.0
C1102 C 0.14317 0.88365 0.42982 0.0
H1103 H 0.13196 0.85255 0.35708 0.0
H1104 H 0.13381 0.84523 0.41609 0.0
S1105 S 0.15884 0.94976 0.40843 0.0
N1106 N 0.15371 0.93573 0.37255 0.0
N1107 N 0.15489 0.92779 0.43654 0.0
C1108 C 0.14917 0.90759 0.41712 0.0
C1109 C 0.14875 0.91184 0.38236 0.0
C1110 C 0.17922 0.86688 0.88075 0.0
C1111 C 0.17818 0.88662 0.85806 0.0
C1112 C 0.17945 0.87111 0.91482 0.0
C1113 C 0.17799 0.89523 0.92772 0.0
H1114 H 0.18187 0.84797 0.87219 0.0
H1115 H 0.18203 0.85531 0.93112 0.0
S1116 S 0.16967 0.95324 0.87884 0.0
N1117 N 0.17212 0.93109 0.85094 0.0
N1118 N 0.17174 0.93914 0.91487 0.0
C1119 C 0.17432 0.9151 0.90531 0.0
C1120 C 0.17468 0.91077 0.87056 0.0
C1121 C 0.13583 0.36837 0.8741 0.0
C1122 C 0.14159 0.39258 0.86212 0.0
C1123 C 0.13658 0.36326 0.90795 0.0
C1124 C 0.14256 0.38218 0.93139 0.0
H1125 H 0.1295 0.35326 0.85726 0.0
H1126 H 0.13064 0.34439 0.91576 0.0
S1127 S 0.16352 0.4484 0.91301 0.0
N1128 N 0.1571 0.43547 0.87653 0.0
N1129 N 0.15779 0.42582 0.94008 0.0
C1130 C 0.1503 0.4063 0.91977 0.0
C1131 C 0.15006 0.4115 0.8852 0.0
C1132 C 0.88924 0.61935 0.6653 0.0
C1133 C 0.89127 0.64402 0.67602 0.0
C1134 C 0.88932 0.61344 0.63171 0.0
C1135 C 0.89078 0.63198 0.60728 0.0
H1136 H 0.88638 0.60442 0.68298 0.0
H1137 H 0.88634 0.59414 0.62495 0.0
S1138 S 0.9003 0.69946 0.62217 0.0
N1139 N 0.8981 0.68717 0.65937 0.0
N1140 N 0.89756 0.676 0.59626 0.0
C1141 C 0.89477 0.65669 0.6176 0.0
C1142 C 0.89525 0.66272 0.65192 0.0
C1143 C 0.93183 0.14618 0.67406 0.0
C1144 C 0.92961 0.12027 0.67172 0.0
C1145 C 0.93336 0.16104 0.64581 0.0
C1146 C 0.93243 0.15068 0.61399 0.0
H1147 H 0.9344 0.15508 0.69786 0.0
H1148 H 0.93665 0.18084 0.64907 0.0
S1149 S 0.92078 0.08396 0.59438 0.0
N1150 N 0.92216 0.08496 0.63499 0.0
N1151 N 0.92494 0.11294 0.58192 0.0
C1152 C 0.92743 0.12489 0.61128 0.0
C1153 C 0.92609 0.1097 0.64011 0.0
C1154 C 0.88977 0.13061 0.17614 0.0
C1155 C 0.88822 0.15647 0.17296 0.0
C1156 C 0.89044 0.11526 0.14836 0.0
C1157 C 0.88985 0.12511 0.11622 0.0
H1158 H 0.88852 0.12203 0.20024 0.0
H1159 H 0.88995 0.09544 0.15224 0.0
S1160 S 0.89179 0.19177 0.09443 0.0
N1161 N 0.89059 0.19138 0.13507 0.0
N1162 N 0.89184 0.1625 0.08292 0.0
C1163 C 0.89113 0.15097 0.11267 0.0
C1164 C 0.89025 0.16664 0.141 0.0
C1165 C 0.91618 0.66049 0.14681 0.0
C1166 C 0.91504 0.64933 0.11545 0.0
C1167 C 0.91692 0.6463 0.17571 0.0
C1168 C 0.91671 0.62032 0.17452 0.0
H1169 H 0.91826 0.68041 0.14915 0.0
H1170 H 0.91977 0.65583 0.19906 0.0
S1171 S 0.90752 0.58195 0.09893 0.0
N1172 N 0.90905 0.61067 0.0852 0.0
N1173 N 0.91033 0.58399 0.13943 0.0
C1174 C 0.91258 0.60892 0.14345 0.0
C1175 C 0.91173 0.6234 0.11397 0.0
C1176 C 0.67488 0.38044 0.9243 0.0
C1177 C 0.67169 0.40632 0.92174 0.0
C1178 C 0.67521 0.36541 0.89618 0.0
C1179 C 0.67217 0.3756 0.86432 0.0
H1180 H 0.67928 0.37173 0.94809 0.0
H1181 H 0.67958 0.34569 0.89952 0.0
S1182 S 0.65644 0.44206 0.84444 0.0
N1183 N 0.66041 0.4413 0.88495 0.0
N1184 N 0.66103 0.41308 0.83218 0.0
C1185 C 0.66587 0.40131 0.86153 0.0
C1186 C 0.66568 0.41664 0.8902 0.0
C1187 C 0.63972 0.86352 0.90576 0.0
C1188 C 0.64152 0.88217 0.92994 0.0
C1189 C 0.6397 0.8693 0.87208 0.0
C1190 C 0.64218 0.89394 0.8611 0.0
H1191 H 0.63621 0.84429 0.91281 0.0
H1192 H 0.63644 0.85431 0.85457 0.0
S1193 S 0.65276 0.9495 0.91441 0.0
N1194 N 0.64942 0.92616 0.94054 0.0
N1195 N 0.65019 0.93709 0.87734 0.0
C1196 C 0.64668 0.91269 0.88501 0.0
C1197 C 0.64609 0.9068 0.91936 0.0
C1198 C 0.6737 0.87598 0.42311 0.0
C1199 C 0.67347 0.90194 0.42145 0.0
C1200 C 0.67517 0.86153 0.39449 0.0
C1201 C 0.67625 0.87239 0.36292 0.0
H1202 H 0.67477 0.86664 0.4467 0.0
H1203 H 0.67696 0.84164 0.3973 0.0
S1204 S 0.6699 0.93959 0.3449 0.0
N1205 N 0.66973 0.93794 0.38549 0.0
N1206 N 0.67253 0.91075 0.33175 0.0
C1207 C 0.67312 0.8983 0.36082 0.0
C1208 C 0.67176 0.91306 0.39005 0.0
C1209 C 0.6542 0.36767 0.39023 0.0
C1210 C 0.64729 0.37656 0.42244 0.0
C1211 C 0.65314 0.38353 0.36297 0.0
C1212 C 0.6449 0.40898 0.36672 0.0
H1213 H 0.65897 0.34809 0.38582 0.0
H1214 H 0.65695 0.37553 0.33867 0.0
S1215 S 0.62955 0.44211 0.44616 0.0
N1216 N 0.63564 0.41284 0.45678 0.0
N1217 N 0.63373 0.44272 0.40563 0.0
C1218 C 0.64058 0.41838 0.39898 0.0
C1219 C 0.64179 0.40218 0.4268 0.0
C1220 C 0.38945 0.66035 0.14251 0.0
C1221 C 0.38978 0.65013 0.17445 0.0
C1222 C 0.38911 0.64534 0.11437 0.0
C1223 C 0.38886 0.61941 0.11694 0.0
H1224 H 0.38813 0.68021 0.13906 0.0
H1225 H 0.38728 0.6542 0.09049 0.0
S1226 S 0.39446 0.58324 0.1947 0.0
N1227 N 0.39347 0.61235 0.20685 0.0
N1228 N 0.39289 0.58411 0.15409 0.0
C1229 C 0.39153 0.6089 0.14868 0.0
C1230 C 0.39202 0.62424 0.17738 0.0
C1231 C 0.42794 0.11389 0.15806 0.0
C1232 C 0.4277 0.13379 0.18047 0.0
C1233 C 0.42882 0.1179 0.12393 0.0
C1234 C 0.42848 0.14195 0.1108 0.0
H1235 H 0.42969 0.095 0.16688 0.0
H1236 H 0.43093 0.10203 0.10774 0.0
S1237 S 0.42369 0.20038 0.15889 0.0
N1238 N 0.42446 0.17838 0.18709 0.0
N1239 N 0.42494 0.18603 0.12303 0.0
C1240 C 0.42573 0.16201 0.13292 0.0
C1241 C 0.42569 0.15791 0.16771 0.0
C1242 C 0.39764 0.11928 0.66691 0.0
C1243 C 0.39665 0.14373 0.67869 0.0
C1244 C 0.39767 0.11417 0.63302 0.0
C1245 C 0.39585 0.1333 0.60948 0.0
H1246 H 0.39716 0.10389 0.68399 0.0
H1247 H 0.39691 0.095 0.62533 0.0
S1248 S 0.39641 0.20059 0.62715 0.0
N1249 N 0.39707 0.1874 0.66382 0.0
N1250 N 0.39617 0.17769 0.60029 0.0
C1251 C 0.39675 0.15784 0.62084 0.0
C1252 C 0.39744 0.16308 0.65536 0.0
C1253 C 0.42929 0.65561 0.66756 0.0
C1254 C 0.43049 0.63124 0.67966 0.0
C1255 C 0.42903 0.66047 0.63362 0.0
C1256 C 0.43071 0.64116 0.61034 0.0
H1257 H 0.42982 0.67113 0.6844 0.0
H1258 H 0.4297 0.67959 0.62566 0.0
S1259 S 0.42992 0.57401 0.62889 0.0
N1260 N 0.42968 0.58745 0.66537 0.0
N1261 N 0.43011 0.59674 0.60173 0.0
C1262 C 0.42987 0.61672 0.62202 0.0
C1263 C 0.42947 0.61172 0.6566 0.0
C1264 C 0.36883 0.39631 0.2744 0.0
C1265 C 0.37218 0.37197 0.28658 0.0
C1266 C 0.40502 0.41268 0.27568 0.0
C1267 C 0.446 0.4053 0.28901 0.0
H1268 H 0.33837 0.40257 0.26299 0.0
H1269 H 0.40134 0.43101 0.26533 0.0
S1270 S 0.47057 0.34474 0.3278 0.0
N1271 N 0.41872 0.34212 0.31497 0.0
N1272 N 0.48677 0.37282 0.31712 0.0
C1273 C 0.44945 0.38131 0.30214 0.0
C1274 C 0.41256 0.36467 0.30097 0.0
C1275 C 0.87131 0.89528 0.2755 0.0
C1276 C 0.87512 0.87017 0.28437 0.0
C1277 C 0.90817 0.91122 0.27658 0.0
C1278 C 0.9502 0.90262 0.28642 0.0
H1279 H 0.83993 0.9025 0.26674 0.0
H1280 H 0.90409 0.93022 0.26874 0.0
S1281 S 0.97643 0.83947 0.31635 0.0
N1282 N 0.92333 0.83814 0.30624 0.0
N1283 N 0.99249 0.86804 0.30824 0.0
C1284 C 0.95407 0.87782 0.2965 0.0
C1285 C 0.91659 0.86162 0.29545 0.0
C1286 C 0.40903 0.90671 0.02764 0.0
C1287 C 0.37174 0.90324 1.00742 0.0
C1288 C 0.44483 0.89004 0.02698 0.0
C1289 C 0.44488 0.86934 1.0059 0.0
H1290 H 0.41006 0.92211 0.04464 0.0
H1291 H 0.47237 0.89319 0.04353 0.0
S1292 S 0.35709 0.85367 0.94537 0.0
N1293 N 0.33815 0.87862 0.96417 0.0
N1294 N 0.40562 0.84754 0.96245 0.0
C1295 C 0.40817 0.86606 0.98494 0.0
C1296 C 0.37161 0.88295 0.9858 0.0
C1297 C 0.94628 0.38961 0.99102 0.0
C1298 C 0.94846 0.37172 1.01608 0.0
C1299 C 0.90983 0.40575 0.98864 0.0
C1300 C 0.87447 0.4048 1.01151 0.0
H1301 H 0.97255 0.39074 0.97276 0.0
H1302 H 0.90897 0.41872 0.96836 0.0
S1303 S 0.86782 0.36333 0.08438 0.0
N1304 N 0.91428 0.35509 0.06553 0.0
N1305 N 0.84657 0.38588 0.06199 0.0
C1306 C 0.87725 0.3875 0.03742 0.0
C1307 C 0.91403 0.37086 0.03948 0.0
C1308 C 0.69863 0.63559 0.77813 0.0
C1309 C 0.69901 0.65626 0.75696 0.0
C1310 C 0.66249 0.61915 0.77896 0.0
C1311 C 0.62514 0.62283 0.75884 0.0
H1312 H 0.72626 0.63225 0.79454 0.0
H1313 H 0.66337 0.60369 0.7959 0.0
S1314 S 0.61107 0.67247 0.69675 0.0
N1315 N 0.65985 0.67831 0.71363 0.0
N1316 N 0.59171 0.64767 0.71574 0.0
C1317 C 0.62522 0.64316 0.73725 0.0
C1318 C 0.66216 0.65981 0.73619 0.0
C1319 C 0.12658 0.14387 0.77273 0.0
C1320 C 0.1274 0.12139 0.75513 0.0
C1321 C 0.16332 0.15989 0.77282 0.0
C1322 C 0.20253 0.15397 0.75564 0.0
H1323 H 0.09756 0.14898 0.78703 0.0
H1324 H 0.16143 0.1768 0.78702 0.0
S1325 S 0.22087 0.09883 0.70313 0.0
N1326 N 0.17008 0.09513 0.718 0.0
N1327 N 0.23932 0.125 0.71893 0.0
C1328 C 0.20375 0.13183 0.73756 0.0
C1329 C 0.1662 0.1156 0.73714 0.0
C1330 C 0.66165 0.16064 0.02439 0.0
C1331 C 0.62005 0.15271 0.03627 0.0
C1332 C 0.69856 0.14472 0.0243 0.0
C1333 C 0.69524 0.1203 0.0362 0.0
H1334 H 0.66535 0.17905 1.01425 0.0
H1335 H 0.7296 0.15137 1.01399 0.0
S1336 S 0.59522 0.09174 0.07409 0.0
N1337 N 0.57871 0.11966 0.06305 0.0
N1338 N 0.64798 0.08979 0.06288 0.0
C1339 C 0.6542 0.11247 0.04921 0.0
C1340 C 0.61666 0.12865 0.04927 0.0
C1341 C 0.19543 0.64273 0.03068 0.0
C1342 C 0.19217 0.61743 0.03859 0.0
C1343 C 0.15803 0.65826 0.03195 0.0
C1344 C 0.116 0.64907 0.04112 0.0
H1345 H 0.22679 0.6504 0.02236 0.0
H1346 H 0.16172 0.67742 0.02467 0.0
S1347 S 0.09118 0.5851 0.06874 0.0
N1348 N 0.14455 0.5845 0.05895 0.0
N1349 N 0.07435 0.61366 0.06153 0.0
C1350 C 0.11272 0.62406 0.05042 0.0
C1351 C 0.15076 0.60826 0.0491 0.0
C1352 C 0.41008 0.9122 0.76476 0.0
C1353 C 0.44896 0.90573 0.7818 0.0
C1354 C 0.37336 0.89617 0.76372 0.0
C1355 C 0.37392 0.8731 0.77994 0.0
H1356 H 0.40841 0.92959 0.75159 0.0
H1357 H 0.34454 0.90176 0.74968 0.0
S1358 S 0.4663 0.84878 0.831 0.0
N1359 N 0.48501 0.87551 0.81694 0.0
N1360 N 0.41587 0.84557 0.81559 0.0
C1361 C 0.41237 0.8667 0.79771 0.0
C1362 C 0.44986 0.88296 0.79851 0.0
C1363 C 0.91129 0.36928 0.7659 0.0
C1364 C 0.87246 0.37568 0.78329 0.0
C1365 C 0.94837 0.38504 0.76528 0.0
C1366 C 0.94829 0.40777 0.78229 0.0
H1367 H 0.91265 0.35214 0.75215 0.0
H1368 H 0.97713 0.37951 0.75096 0.0
S1369 S 0.85602 0.43179 0.83429 0.0
N1370 N 0.83679 0.40549 0.8194 0.0
N1371 N 0.90667 0.43492 0.81893 0.0
C1372 C 0.90984 0.41412 0.80035 0.0
C1373 C 0.87194 0.39813 0.8007 0.0
C1374 C 0.37194 0.37808 0.51367 0.0
C1375 C 0.37361 0.40132 0.49813 0.0
C1376 C 0.40836 0.36189 0.51269 0.0
C1377 C 0.44786 0.36822 0.49593 0.0
H1378 H 0.34267 0.37267 0.52753 0.0
H1379 H 0.40595 0.34459 0.52598 0.0
S1380 S 0.46693 0.42573 0.44784 0.0
N1381 N 0.41651 0.42916 0.46353 0.0
N1382 N 0.48474 0.39857 0.46094 0.0
C1383 C 0.44932 0.39109 0.47929 0.0
C1384 C 0.41231 0.40767 0.48059 0.0
C1385 C 0.94673 0.88835 0.49091 0.0
C1386 C 0.94833 0.86727 0.51117 0.0
C1387 C 0.90902 0.90366 0.49033 0.0
C1388 C 0.87162 0.89863 0.51026 0.0
H1389 H 0.97471 0.89282 0.47512 0.0
H1390 H 0.90897 0.9194 0.47385 0.0
S1391 S 0.86166 0.84713 0.57048 0.0
N1392 N 0.91079 0.84294 0.55305 0.0
N1393 N 0.84044 0.87196 0.55285 0.0
C1394 C 0.87338 0.87786 0.53123 0.0
C1395 C 0.91158 0.86214 0.53147 0.0
C1396 C 0.66152 0.11429 0.26545 0.0
C1397 C 0.61996 0.12214 0.25358 0.0
C1398 C 0.69799 0.1305 0.26647 0.0
C1399 C 0.69426 0.15515 0.25563 0.0
H1400 H 0.66548 0.0957 0.2749 0.0
H1401 H 0.72899 0.1239 0.27673 0.0
S1402 S 0.59458 0.18379 0.2181 0.0
N1403 N 0.57852 0.15548 0.22774 0.0
N1404 N 0.64694 0.18592 0.22994 0.0
C1405 C 0.65338 0.16296 0.24263 0.0
C1406 C 0.6163 0.14646 0.24151 0.0
C1407 C 0.12613 0.64054 0.27895 0.0
C1408 C 0.12151 0.62288 0.25372 0.0
C1409 C 0.16263 0.65665 0.27985 0.0
C1410 C 0.19615 0.65571 0.25564 0.0
H1411 H 0.10153 0.64174 0.29843 0.0
H1412 H 0.16504 0.66964 0.30004 0.0
S1413 S 0.19857 0.61423 0.18298 0.0
N1414 N 0.15269 0.60637 0.20292 0.0
N1415 N 0.22161 0.63648 0.20493 0.0
C1416 C 0.19194 0.6383 0.23014 0.0
C1417 C 0.1546 0.62193 0.22911 0.0
C1418 C 0.66198 0.61751 0.50922 0.0
C1419 C 0.69504 0.61734 0.53362 0.0
C1420 C 0.62696 0.63462 0.51013 0.0
C1421 C 0.6235 0.65225 0.5355 0.0
H1422 H 0.66363 0.6046 0.48889 0.0
H1423 H 0.60262 0.63424 0.49057 0.0
S1424 S 0.69938 0.65813 0.60693 0.0
N1425 N 0.72088 0.63542 0.58484 0.0
N1426 N 0.65485 0.66748 0.58674 0.0
C1427 C 0.65601 0.65208 0.56034 0.0
C1428 C 0.69179 0.63465 0.55935 0.0
C1429 C 0.12326 0.12789 0.52092 0.0
C1430 C 0.12642 0.15302 0.52978 0.0
C1431 C 0.16011 0.11202 0.52315 0.0
C1432 C 0.20154 0.12067 0.53422 0.0
H1433 H 0.09235 0.12057 0.51145 0.0
H1434 H 0.15647 0.09297 0.51541 0.0
S1435 S 0.22594 0.18397 0.56433 0.0
N1436 N 0.1734 0.18519 0.55273 0.0
N1437 N 0.24254 0.15541 0.55684 0.0
C1438 C 0.20481 0.14554 0.54408 0.0
C1439 C 0.16731 0.16168 0.54186 0.0
loop_
_geom_bond_atom_site_label_1
_geom_bond_atom_site_label_2
_geom_bond_distance
_geom_bond_site_symmetry_2
_ccdc_geom_bond_type
Cu0 N1 1.999 . S
Cu0 O6 1.974 . S
Cu0 N11 1.985 . S
Cu0 O20 1.959 . S
N1 Cu0 1.999 . S
N1 C3 1.263 . S
N1 C5 1.389 . S
N2 C3 1.358 . S
N2 C4 1.400 . S
C3 N1 1.263 . S
C3 N2 1.358 . S
C3 H9 0.930 . S
C4 N2 1.400 . S
C4 C5 1.351 . S
C4 H21 0.930 . S
C5 N1 1.389 . S
C5 C4 1.351 . S
C5 H10 0.930 . S
O6 Cu0 1.974 . S
O6 C16 1.282 . S
C7 O8 1.261 . S
C7 O20 1.251 . S
O8 C7 1.261 . S
H9 C3 0.930 . S
H10 C5 0.930 . S
N11 Cu0 1.985 . S
N11 C13 1.335 . S
N11 C14 1.390 . S
N12 C13 1.345 . S
N12 C15 1.336 . S
C13 N11 1.335 . S
C13 N12 1.345 . S
C13 H18 0.930 . S
C14 N11 1.390 . S
C14 C15 1.346 . S
C14 H19 0.930 . S
C15 N12 1.336 . S
C15 C14 1.346 . S
C15 H22 0.929 . S
C16 O6 1.282 . S
C16 O17 1.216 . S
O17 C16 1.216 . S
H18 C13 0.930 . S
H19 C14 0.930 . S
O20 Cu0 1.959 . S
O20 C7 1.251 . S
H21 C4 0.930 . S
H22 C15 0.929 . S
Cu23 N24 1.999 . S
Cu23 O29 1.974 . S
Cu23 N34 1.985 . S
Cu23 O43 1.959 . S
N24 Cu23 1.999 . S
N24 C26 1.263 1_455 S
N24 C28 1.389 1_455 S
N25 C26 1.358 . S
N25 C27 1.400 . S
C26 N24 1.263 1_655 S
C26 N25 1.358 . S
C26 H32 0.930 1_655 S
C27 N25 1.400 . S
C27 C28 1.351 . S
C27 H44 0.930 . S
C28 N24 1.389 1_655 S
C28 C27 1.351 . S
C28 H33 0.930 . S
O29 Cu23 1.974 . S
O29 C39 1.282 . S
C30 O31 1.261 . S
C30 O43 1.251 . S
O31 C30 1.261 . S
H32 C26 0.930 1_455 S
H33 C28 0.930 . S
N34 Cu23 1.985 . S
N34 C36 1.335 . S
N34 C37 1.390 . S
N35 C36 1.345 . S
N35 C38 1.336 . S
C36 N34 1.335 . S
C36 N35 1.345 . S
C36 H41 0.930 . S
C37 N34 1.390 . S
C37 C38 1.346 . S
C37 H42 0.930 . S
C38 N35 1.336 . S
C38 C37 1.346 . S
C38 H45 0.929 . S
C39 O29 1.282 . S
C39 O40 1.216 . S
O40 C39 1.216 . S
H41 C36 0.930 . S
H42 C37 0.930 . S
O43 Cu23 1.959 . S
O43 C30 1.251 . S
H44 C27 0.930 . S
H45 C38 0.929 . S
Cu46 N47 1.999 1_556 S
Cu46 O52 1.974 . S
Cu46 N57 1.985 . S
Cu46 O66 1.959 1_556 S
N47 Cu46 1.999 1_554 S
N47 C49 1.263 1_554 S
N47 C51 1.389 . S
N48 C49 1.353 1_554 S
N48 C50 1.410 . S
C49 N47 1.263 1_556 S
C49 N48 1.353 1_556 S
C49 H55 0.930 . S
C50 N48 1.410 . S
C50 C51 1.351 . S
C50 H67 0.930 . S
C51 N47 1.389 . S
C51 C50 1.351 . S
C51 H56 0.930 . S
O52 Cu46 1.974 . S
O52 C62 1.282 . S
C53 O54 1.261 . S
C53 O66 1.251 . S
O54 C53 1.261 . S
H55 C49 0.930 . S
H56 C51 0.930 . S
N57 Cu46 1.985 . S
N57 C59 1.335 1_556 S
N57 C60 1.390 . S
N58 C59 1.345 1_556 S
N58 C61 1.336 . S
C59 N57 1.335 1_554 S
C59 N58 1.345 1_554 S
C59 H64 0.930 . S
C60 N57 1.390 . S
C60 C61 1.346 . S
C60 H65 0.930 . S
C61 N58 1.336 . S
C61 C60 1.346 . S
C61 H68 0.929 . S
C62 O52 1.282 . S
C62 O63 1.216 . S
O63 C62 1.216 . S
H64 C59 0.930 . S
H65 C60 0.930 . S
O66 Cu46 1.959 1_554 S
O66 C53 1.251 . S
H67 C50 0.930 . S
H68 C61 0.929 . S
Cu69 N70 1.999 1_556 S
Cu69 O75 1.974 . S
Cu69 N80 1.985 . S
Cu69 O89 1.959 1_556 S
N70 Cu69 1.999 1_554 S
N70 C72 1.263 1_454 S
N70 C74 1.389 1_455 S
N71 C72 1.353 1_554 S
N71 C73 1.410 . S
C72 N70 1.263 1_656 S
C72 N71 1.353 1_556 S
C72 H78 0.930 1_655 S
C73 N71 1.410 . S
C73 C74 1.351 . S
C73 H90 0.930 . S
C74 N70 1.389 1_655 S
C74 C73 1.351 . S
C74 H79 0.930 . S
O75 Cu69 1.974 . S
O75 C85 1.282 . S
C76 O77 1.261 . S
C76 O89 1.251 . S
O77 C76 1.261 . S
H78 C72 0.930 1_455 S
H79 C74 0.930 . S
N80 Cu69 1.985 . S
N80 C82 1.335 1_556 S
N80 C83 1.390 . S
N81 C82 1.345 1_556 S
N81 C84 1.336 . S
C82 N80 1.335 1_554 S
C82 N81 1.345 1_554 S
C82 H87 0.930 . S
C83 N80 1.390 . S
C83 C84 1.346 . S
C83 H88 0.930 . S
C84 N81 1.336 . S
C84 C83 1.346 . S
C84 H91 0.929 . S
C85 O75 1.282 . S
C85 O86 1.216 . S
O86 C85 1.216 . S
H87 C82 0.930 . S
H88 C83 0.930 . S
O89 Cu69 1.959 1_554 S
O89 C76 1.251 . S
H90 C73 0.930 . S
H91 C84 0.929 . S
Cu92 N93 1.999 . S
Cu92 O98 1.974 . S
Cu92 N103 1.985 . S
Cu92 O112 1.959 . S
N93 Cu92 1.999 . S
N93 C95 1.263 . S
N93 C97 1.389 . S
N94 C95 1.358 . S
N94 C96 1.400 . S
C95 N93 1.263 . S
C95 N94 1.358 . S
C95 H101 0.930 . S
C96 N94 1.400 . S
C96 C97 1.351 . S
C96 H113 0.930 . S
C97 N93 1.389 . S
C97 C96 1.351 . S
C97 H102 0.930 . S
O98 Cu92 1.974 . S
O98 C108 1.282 . S
C99 O100 1.261 . S
C99 O112 1.251 . S
O100 C99 1.261 . S
H101 C95 0.930 . S
H102 C97 0.930 . S
N103 Cu92 1.985 . S
N103 C105 1.335 . S
N103 C106 1.390 . S
N104 C105 1.345 . S
N104 C107 1.336 . S
C105 N103 1.335 . S
C105 N104 1.345 . S
C105 H110 0.930 . S
C106 N103 1.390 . S
C106 C107 1.346 . S
C106 H111 0.930 . S
C107 N104 1.336 . S
C107 C106 1.346 . S
C107 H114 0.929 . S
C108 O98 1.282 . S
C108 O109 1.216 . S
O109 C108 1.216 . S
H110 C105 0.930 . S
H111 C106 0.930 . S
O112 Cu92 1.959 . S
O112 C99 1.251 . S
H113 C96 0.930 . S
H114 C107 0.929 . S
Cu115 N116 1.999 . S
Cu115 O121 1.974 . S
Cu115 N126 1.985 . S
Cu115 O135 1.959 . S
N116 Cu115 1.999 . S
N116 C118 1.263 1_655 S
N116 C120 1.389 1_655 S
N117 C118 1.358 . S
N117 C119 1.400 . S
C118 N116 1.263 1_455 S
C118 N117 1.358 . S
C118 H124 0.930 1_455 S
C119 N117 1.400 . S
C119 C120 1.351 . S
C119 H136 0.930 . S
C120 N116 1.389 1_455 S
C120 C119 1.351 . S
C120 H125 0.930 . S
O121 Cu115 1.974 . S
O121 C131 1.282 . S
C122 O123 1.261 . S
C122 O135 1.251 . S
O123 C122 1.261 . S
H124 C118 0.930 1_655 S
H125 C120 0.930 . S
N126 Cu115 1.985 . S
N126 C128 1.335 . S
N126 C129 1.390 . S
N127 C128 1.345 . S
N127 C130 1.336 . S
C128 N126 1.335 . S
C128 N127 1.345 . S
C128 H133 0.930 . S
C129 N126 1.390 . S
C129 C130 1.346 . S
C129 H134 0.930 . S
C130 N127 1.336 . S
C130 C129 1.346 . S
C130 H137 0.929 . S
C131 O121 1.282 . S
C131 O132 1.216 . S
O132 C131 1.216 . S
H133 C128 0.930 . S
H134 C129 0.930 . S
O135 Cu115 1.959 . S
O135 C122 1.251 . S
H136 C119 0.930 . S
H137 C130 0.929 . S
Cu138 N139 1.999 1_554 S
Cu138 O144 1.974 . S
Cu138 N149 1.985 . S
Cu138 O158 1.959 1_554 S
N139 Cu138 1.999 1_556 S
N139 C141 1.263 1_556 S
N139 C143 1.389 . S
N140 C141 1.353 1_556 S
N140 C142 1.410 . S
C141 N139 1.263 1_554 S
C141 N140 1.353 1_554 S
C141 H147 0.930 . S
C142 N140 1.410 . S
C142 C143 1.351 . S
C142 H159 0.930 . S
C143 N139 1.389 . S
C143 C142 1.351 . S
C143 H148 0.930 . S
O144 Cu138 1.974 . S
O144 C154 1.282 . S
C145 O146 1.261 . S
C145 O158 1.251 . S
O146 C145 1.261 . S
H147 C141 0.930 . S
H148 C143 0.930 . S
N149 Cu138 1.985 . S
N149 C151 1.335 1_554 S
N149 C152 1.390 . S
N150 C151 1.345 1_554 S
N150 C153 1.336 . S
C151 N149 1.335 1_556 S
C151 N150 1.345 1_556 S
C151 H156 0.930 . S
C152 N149 1.390 . S
C152 C153 1.346 . S
C152 H157 0.930 . S
C153 N150 1.336 . S
C153 C152 1.346 . S
C153 H160 0.929 . S
C154 O144 1.282 . S
C154 O155 1.216 . S
O155 C154 1.216 . S
H156 C151 0.930 . S
H157 C152 0.930 . S
O158 Cu138 1.959 1_556 S
O158 C145 1.251 . S
H159 C142 0.930 . S
H160 C153 0.929 . S
Cu161 N162 1.999 1_554 S
Cu161 O167 1.974 . S
Cu161 N172 1.985 . S
Cu161 O181 1.959 1_554 S
N162 Cu161 1.999 1_556 S
N162 C164 1.263 1_656 S
N162 C166 1.389 1_655 S
N163 C164 1.353 1_556 S
N163 C165 1.410 . S
C164 N162 1.263 1_454 S
C164 N163 1.353 1_554 S
C164 H170 0.930 1_455 S
C165 N163 1.410 . S
C165 C166 1.351 . S
C165 H182 0.930 . S
C166 N162 1.389 1_455 S
C166 C165 1.351 . S
C166 H171 0.930 . S
O167 Cu161 1.974 . S
O167 C177 1.282 . S
C168 O169 1.261 . S
C168 O181 1.251 . S
O169 C168 1.261 . S
H170 C164 0.930 1_655 S
H171 C166 0.930 . S
N172 Cu161 1.985 . S
N172 C174 1.335 1_554 S
N172 C175 1.390 . S
N173 C174 1.345 1_554 S
N173 C176 1.336 . S
C174 N172 1.335 1_556 S
C174 N173 1.345 1_556 S
C174 H179 0.930 . S
C175 N172 1.390 . S
C175 C176 1.346 . S
C175 H180 0.930 . S
C176 N173 1.336 . S
C176 C175 1.346 . S
C176 H183 0.929 . S
C177 O167 1.282 . S
C177 O178 1.216 . S
O178 C177 1.216 . S
H179 C174 0.930 . S
H180 C175 0.930 . S
O181 Cu161 1.959 1_556 S
O181 C168 1.251 . S
H182 C165 0.930 . S
H183 C176 0.929 . S
Cu184 N185 1.999 . S
Cu184 O190 1.974 . S
Cu184 N195 1.985 . S
Cu184 O204 1.959 . S
N185 Cu184 1.999 . S
N185 C187 1.263 . S
N185 C189 1.389 . S
N186 C187 1.358 . S
N186 C188 1.400 . S
C187 N185 1.263 . S
C187 N186 1.358 . S
C187 H193 0.930 . S
C188 N186 1.400 . S
C188 C189 1.351 . S
C188 H205 0.930 . S
C189 N185 1.389 . S
C189 C188 1.351 . S
C189 H194 0.930 . S
O190 Cu184 1.974 . S
O190 C200 1.282 . S
C191 O192 1.261 . S
C191 O204 1.251 . S
O192 C191 1.261 . S
H193 C187 0.930 . S
H194 C189 0.930 . S
N195 Cu184 1.985 . S
N195 C197 1.335 . S
N195 C198 1.390 . S
N196 C197 1.345 . S
N196 C199 1.336 . S
C197 N195 1.335 . S
C197 N196 1.345 . S
C197 H202 0.930 . S
C198 N195 1.390 . S
C198 C199 1.346 . S
C198 H203 0.930 . S
C199 N196 1.336 . S
C199 C198 1.346 . S
C199 H206 0.929 . S
C200 O190 1.282 . S
C200 O201 1.216 . S
O201 C200 1.216 . S
H202 C197 0.930 . S
H203 C198 0.930 . S
O204 Cu184 1.959 . S
O204 C191 1.251 . S
H205 C188 0.930 . S
H206 C199 0.929 . S
Cu207 N208 1.999 . S
Cu207 O213 1.974 . S
Cu207 N218 1.985 . S
Cu207 O227 1.959 . S
N208 Cu207 1.999 . S
N208 C210 1.263 1_455 S
N208 C212 1.389 1_455 S
N209 C210 1.358 . S
N209 C211 1.400 . S
C210 N208 1.263 1_655 S
C210 N209 1.358 . S
C210 H216 0.930 1_655 S
C211 N209 1.400 . S
C211 C212 1.351 . S
C211 H228 0.930 . S
C212 N208 1.389 1_655 S
C212 C211 1.351 . S
C212 H217 0.930 . S
O213 Cu207 1.974 . S
O213 C223 1.282 . S
C214 O215 1.261 . S
C214 O227 1.251 . S
O215 C214 1.261 . S
H216 C210 0.930 1_455 S
H217 C212 0.930 . S
N218 Cu207 1.985 . S
N218 C220 1.335 . S
N218 C221 1.390 . S
N219 C220 1.345 . S
N219 C222 1.336 . S
C220 N218 1.335 . S
C220 N219 1.345 . S
C220 H225 0.930 . S
C221 N218 1.390 . S
C221 C222 1.346 . S
C221 H226 0.930 . S
C222 N219 1.336 . S
C222 C221 1.346 . S
C222 H229 0.929 . S
C223 O213 1.282 . S
C223 O224 1.216 . S
O224 C223 1.216 . S
H225 C220 0.930 . S
H226 C221 0.930 . S
O227 Cu207 1.959 . S
O227 C214 1.251 . S
H228 C211 0.930 . S
H229 C222 0.929 . S
Cu230 N231 1.999 . S
Cu230 O236 1.974 . S
Cu230 N241 1.985 . S
Cu230 O250 1.959 . S
N231 Cu230 1.999 . S
N231 C233 1.263 . S
N231 C235 1.389 . S
N232 C233 1.358 . S
N232 C234 1.400 . S
C233 N231 1.263 . S
C233 N232 1.358 . S
C233 H239 0.930 . S
C234 N232 1.400 . S
C234 C235 1.351 . S
C234 H251 0.930 . S
C235 N231 1.389 . S
C235 C234 1.351 . S
C235 H240 0.930 . S
O236 Cu230 1.974 . S
O236 C246 1.282 . S
C237 O238 1.261 . S
C237 O250 1.251 . S
O238 C237 1.261 . S
H239 C233 0.930 . S
H240 C235 0.930 . S
N241 Cu230 1.985 . S
N241 C243 1.335 . S
N241 C244 1.390 . S
N242 C243 1.345 . S
N242 C245 1.336 . S
C243 N241 1.335 . S
C243 N242 1.345 . S
C243 H248 0.930 . S
C244 N241 1.390 . S
C244 C245 1.346 . S
C244 H249 0.930 . S
C245 N242 1.336 . S
C245 C244 1.346 . S
C245 H252 0.929 . S
C246 O236 1.282 . S
C246 O247 1.216 . S
O247 C246 1.216 . S
H248 C243 0.930 . S
H249 C244 0.930 . S
O250 Cu230 1.959 . S
O250 C237 1.251 . S
H251 C234 0.930 . S
H252 C245 0.929 . S
Cu253 N254 1.999 . S
Cu253 O259 1.974 . S
Cu253 N264 1.985 . S
Cu253 O273 1.959 . S
N254 Cu253 1.999 . S
N254 C256 1.263 1_455 S
N254 C258 1.389 1_455 S
N255 C256 1.358 . S
N255 C257 1.400 . S
C256 N254 1.263 1_655 S
C256 N255 1.358 . S
C256 H262 0.930 1_655 S
C257 N255 1.400 . S
C257 C258 1.351 . S
C257 H274 0.930 . S
C258 N254 1.389 1_655 S
C258 C257 1.351 . S
C258 H263 0.930 . S
O259 Cu253 1.974 . S
O259 C269 1.282 . S
C260 O261 1.261 . S
C260 O273 1.251 . S
O261 C260 1.261 . S
H262 C256 0.930 1_455 S
H263 C258 0.930 . S
N264 Cu253 1.985 . S
N264 C266 1.335 . S
N264 C267 1.390 . S
N265 C266 1.345 . S
N265 C268 1.336 . S
C266 N264 1.335 . S
C266 N265 1.345 . S
C266 H271 0.930 . S
C267 N264 1.390 . S
C267 C268 1.346 . S
C267 H272 0.930 . S
C268 N265 1.336 . S
C268 C267 1.346 . S
C268 H275 0.929 . S
C269 O259 1.282 . S
C269 O270 1.216 . S
O270 C269 1.216 . S
H271 C266 0.930 . S
H272 C267 0.930 . S
O273 Cu253 1.959 . S
O273 C260 1.251 . S
H274 C257 0.930 . S
H275 C268 0.929 . S
Cu276 N277 1.999 . S
Cu276 O282 1.974 . S
Cu276 N287 1.985 . S
Cu276 O296 1.959 . S
N277 Cu276 1.999 . S
N277 C279 1.263 . S
N277 C281 1.389 . S
N278 C279 1.358 . S
N278 C280 1.400 . S
C279 N277 1.263 . S
C279 N278 1.358 . S
C279 H285 0.930 . S
C280 N278 1.400 . S
C280 C281 1.351 . S
C280 H297 0.930 . S
C281 N277 1.389 . S
C281 C280 1.351 . S
C281 H286 0.930 . S
O282 Cu276 1.974 . S
O282 C292 1.282 . S
C283 O284 1.261 . S
C283 O296 1.251 . S
O284 C283 1.261 . S
H285 C279 0.930 . S
H286 C281 0.930 . S
N287 Cu276 1.985 . S
N287 C289 1.335 . S
N287 C290 1.390 . S
N288 C289 1.345 . S
N288 C291 1.336 . S
C289 N287 1.335 . S
C289 N288 1.345 . S
C289 H294 0.930 . S
C290 N287 1.390 . S
C290 C291 1.346 . S
C290 H295 0.930 . S
C291 N288 1.336 . S
C291 C290 1.346 . S
C291 H298 0.929 . S
C292 O282 1.282 . S
C292 O293 1.216 . S
O293 C292 1.216 . S
H294 C289 0.930 . S
H295 C290 0.930 . S
O296 Cu276 1.959 . S
O296 C283 1.251 . S
H297 C280 0.930 . S
H298 C291 0.929 . S
Cu299 N300 1.999 . S
Cu299 O305 1.974 . S
Cu299 N310 1.985 . S
Cu299 O319 1.959 . S
N300 Cu299 1.999 . S
N300 C302 1.263 1_655 S
N300 C304 1.389 1_655 S
N301 C302 1.358 . S
N301 C303 1.400 . S
C302 N300 1.263 1_455 S
C302 N301 1.358 . S
C302 H308 0.930 1_455 S
C303 N301 1.400 . S
C303 C304 1.351 . S
C303 H320 0.930 . S
C304 N300 1.389 1_455 S
C304 C303 1.351 . S
C304 H309 0.930 . S
O305 Cu299 1.974 . S
O305 C315 1.282 . S
C306 O307 1.261 . S
C306 O319 1.251 . S
O307 C306 1.261 . S
H308 C302 0.930 1_655 S
H309 C304 0.930 . S
N310 Cu299 1.985 . S
N310 C312 1.335 . S
N310 C313 1.390 . S
N311 C312 1.345 . S
N311 C314 1.336 . S
C312 N310 1.335 . S
C312 N311 1.345 . S
C312 H317 0.930 . S
C313 N310 1.390 . S
C313 C314 1.346 . S
C313 H318 0.930 . S
C314 N311 1.336 . S
C314 C313 1.346 . S
C314 H321 0.929 . S
C315 O305 1.282 . S
C315 O316 1.216 . S
O316 C315 1.216 . S
H317 C312 0.930 . S
H318 C313 0.930 . S
O319 Cu299 1.959 . S
O319 C306 1.251 . S
H320 C303 0.930 . S
H321 C314 0.929 . S
Cu322 N323 1.999 . S
Cu322 O328 1.974 . S
Cu322 N333 1.985 . S
Cu322 O342 1.959 . S
N323 Cu322 1.999 . S
N323 C325 1.263 . S
N323 C327 1.389 . S
N324 C325 1.358 . S
N324 C326 1.400 . S
C325 N323 1.263 . S
C325 N324 1.358 . S
C325 H331 0.930 . S
C326 N324 1.400 . S
C326 C327 1.351 . S
C326 H343 0.930 . S
C327 N323 1.389 . S
C327 C326 1.351 . S
C327 H332 0.930 . S
O328 Cu322 1.974 . S
O328 C338 1.282 . S
C329 O330 1.261 . S
C329 O342 1.251 . S
O330 C329 1.261 . S
H331 C325 0.930 . S
H332 C327 0.930 . S
N333 Cu322 1.985 . S
N333 C335 1.335 . S
N333 C336 1.390 . S
N334 C335 1.345 . S
N334 C337 1.336 . S
C335 N333 1.335 . S
C335 N334 1.345 . S
C335 H340 0.930 . S
C336 N333 1.390 . S
C336 C337 1.346 . S
C336 H341 0.930 . S
C337 N334 1.336 . S
C337 C336 1.346 . S
C337 H344 0.929 . S
C338 O328 1.282 . S
C338 O339 1.216 . S
O339 C338 1.216 . S
H340 C335 0.930 . S
H341 C336 0.930 . S
O342 Cu322 1.959 . S
O342 C329 1.251 . S
H343 C326 0.930 . S
H344 C337 0.929 . S
Cu345 N346 1.999 . S
Cu345 O351 1.974 . S
Cu345 N356 1.985 . S
Cu345 O365 1.959 . S
N346 Cu345 1.999 . S
N346 C348 1.263 1_655 S
N346 C350 1.389 1_655 S
N347 C348 1.358 . S
N347 C349 1.400 . S
C348 N346 1.263 1_455 S
C348 N347 1.358 . S
C348 H354 0.930 1_455 S
C349 N347 1.400 . S
C349 C350 1.351 . S
C349 H366 0.930 . S
C350 N346 1.389 1_455 S
C350 C349 1.351 . S
C350 H355 0.930 . S
O351 Cu345 1.974 . S
O351 C361 1.282 . S
C352 O353 1.261 . S
C352 O365 1.251 . S
O353 C352 1.261 . S
H354 C348 0.930 1_655 S
H355 C350 0.930 . S
N356 Cu345 1.985 . S
N356 C358 1.335 . S
N356 C359 1.390 . S
N357 C358 1.345 . S
N357 C360 1.336 . S
C358 N356 1.335 . S
C358 N357 1.345 . S
C358 H363 0.930 . S
C359 N356 1.390 . S
C359 C360 1.346 . S
C359 H364 0.930 . S
C360 N357 1.336 . S
C360 C359 1.346 . S
C360 H367 0.929 . S
C361 O351 1.282 . S
C361 O362 1.216 . S
O362 C361 1.216 . S
H363 C358 0.930 . S
H364 C359 0.930 . S
O365 Cu345 1.959 . S
O365 C352 1.251 . S
H366 C349 0.930 . S
H367 C360 0.929 . S
Cu368 N369 1.999 . S
Cu368 O374 1.974 . S
Cu368 N379 1.985 . S
Cu368 O388 1.959 . S
N369 Cu368 1.999 . S
N369 C371 1.263 . S
N369 C373 1.389 . S
N370 C371 1.358 . S
N370 C372 1.400 . S
C371 N369 1.263 . S
C371 N370 1.358 . S
C371 H377 0.930 . S
C372 N370 1.400 . S
C372 C373 1.351 . S
C372 H389 0.930 . S
C373 N369 1.389 . S
C373 C372 1.351 . S
C373 H378 0.930 . S
O374 Cu368 1.974 . S
O374 C384 1.282 . S
C375 O376 1.261 . S
C375 O388 1.251 . S
O376 C375 1.261 . S
H377 C371 0.930 . S
H378 C373 0.930 . S
N379 Cu368 1.985 . S
N379 C381 1.335 . S
N379 C382 1.390 . S
N380 C381 1.345 . S
N380 C383 1.336 . S
C381 N379 1.335 . S
C381 N380 1.345 . S
C381 H386 0.930 . S
C382 N379 1.390 . S
C382 C383 1.346 . S
C382 H387 0.930 . S
C383 N380 1.336 . S
C383 C382 1.346 . S
C383 H390 0.929 . S
C384 O374 1.282 . S
C384 O385 1.216 . S
O385 C384 1.216 . S
H386 C381 0.930 . S
H387 C382 0.930 . S
O388 Cu368 1.959 . S
O388 C375 1.251 . S
H389 C372 0.930 . S
H390 C383 0.929 . S
Cu391 N392 1.999 . S
Cu391 O397 1.974 . S
Cu391 N402 1.985 . S
Cu391 O411 1.959 . S
N392 Cu391 1.999 . S
N392 C394 1.263 . S
N392 C396 1.389 . S
N393 C394 1.358 . S
N393 C395 1.400 . S
C394 N392 1.263 . S
C394 N393 1.358 . S
C394 H400 0.930 . S
C395 N393 1.400 . S
C395 C396 1.351 . S
C395 H412 0.930 . S
C396 N392 1.389 . S
C396 C395 1.351 . S
C396 H401 0.930 . S
O397 Cu391 1.974 . S
O397 C407 1.282 . S
C398 O399 1.261 . S
C398 O411 1.251 . S
O399 C398 1.261 . S
H400 C394 0.930 . S
H401 C396 0.930 . S
N402 Cu391 1.985 . S
N402 C404 1.335 . S
N402 C405 1.390 . S
N403 C404 1.345 . S
N403 C406 1.336 . S
C404 N402 1.335 . S
C404 N403 1.345 . S
C404 H409 0.930 . S
C405 N402 1.390 . S
C405 C406 1.346 . S
C405 H410 0.930 . S
C406 N403 1.336 . S
C406 C405 1.346 . S
C406 H413 0.929 . S
C407 O397 1.282 . S
C407 O408 1.216 . S
O408 C407 1.216 . S
H409 C404 0.930 . S
H410 C405 0.930 . S
O411 Cu391 1.959 . S
O411 C398 1.251 . S
H412 C395 0.930 . S
H413 C406 0.929 . S
Cu414 N415 1.999 . S
Cu414 O420 1.974 . S
Cu414 N425 1.985 . S
Cu414 O434 1.959 . S
N415 Cu414 1.999 . S
N415 C417 1.263 . S
N415 C419 1.389 . S
N416 C417 1.358 . S
N416 C418 1.400 . S
C417 N415 1.263 . S
C417 N416 1.358 . S
C417 H423 0.930 . S
C418 N416 1.400 . S
C418 C419 1.351 . S
C418 H435 0.930 . S
C419 N415 1.389 . S
C419 C418 1.351 . S
C419 H424 0.930 . S
O420 Cu414 1.974 . S
O420 C430 1.282 . S
C421 O422 1.261 . S
C421 O434 1.251 . S
O422 C421 1.261 . S
H423 C417 0.930 . S
H424 C419 0.930 . S
N425 Cu414 1.985 . S
N425 C427 1.335 . S
N425 C428 1.390 . S
N426 C427 1.345 . S
N426 C429 1.336 . S
C427 N425 1.335 . S
C427 N426 1.345 . S
C427 H432 0.930 . S
C428 N425 1.390 . S
C428 C429 1.346 . S
C428 H433 0.930 . S
C429 N426 1.336 . S
C429 C428 1.346 . S
C429 H436 0.929 . S
C430 O420 1.282 . S
C430 O431 1.216 . S
O431 C430 1.216 . S
H432 C427 0.930 . S
H433 C428 0.930 . S
O434 Cu414 1.959 . S
O434 C421 1.251 . S
H435 C418 0.930 . S
H436 C429 0.929 . S
Cu437 N438 1.999 . S
Cu437 O443 1.974 . S
Cu437 N448 1.985 . S
Cu437 O457 1.959 . S
N438 Cu437 1.999 . S
N438 C440 1.263 . S
N438 C442 1.389 . S
N439 C440 1.358 . S
N439 C441 1.400 . S
C440 N438 1.263 . S
C440 N439 1.358 . S
C440 H446 0.930 . S
C441 N439 1.400 . S
C441 C442 1.351 . S
C441 H458 0.930 . S
C442 N438 1.389 . S
C442 C441 1.351 . S
C442 H447 0.930 . S
O443 Cu437 1.974 . S
O443 C453 1.282 . S
C444 O445 1.261 . S
C444 O457 1.251 . S
O445 C444 1.261 . S
H446 C440 0.930 . S
H447 C442 0.930 . S
N448 Cu437 1.985 . S
N448 C450 1.335 . S
N448 C451 1.390 . S
N449 C450 1.345 . S
N449 C452 1.336 . S
C450 N448 1.335 . S
C450 N449 1.345 . S
C450 H455 0.930 . S
C451 N448 1.390 . S
C451 C452 1.346 . S
C451 H456 0.930 . S
C452 N449 1.336 . S
C452 C451 1.346 . S
C452 H459 0.929 . S
C453 O443 1.282 . S
C453 O454 1.216 . S
O454 C453 1.216 . S
H455 C450 0.930 . S
H456 C451 0.930 . S
O457 Cu437 1.959 . S
O457 C444 1.251 . S
H458 C441 0.930 . S
H459 C452 0.929 . S
Cu460 N461 1.999 . S
Cu460 O466 1.974 . S
Cu460 N471 1.985 . S
Cu460 O480 1.959 . S
N461 Cu460 1.999 . S
N461 C463 1.263 . S
N461 C465 1.389 . S
N462 C463 1.358 . S
N462 C464 1.400 . S
C463 N461 1.263 . S
C463 N462 1.358 . S
C463 H469 0.930 . S
C464 N462 1.400 . S
C464 C465 1.351 . S
C464 H481 0.930 . S
C465 N461 1.389 . S
C465 C464 1.351 . S
C465 H470 0.930 . S
O466 Cu460 1.974 . S
O466 C476 1.282 . S
C467 O468 1.261 . S
C467 O480 1.251 . S
O468 C467 1.261 . S
H469 C463 0.930 . S
H470 C465 0.930 . S
N471 Cu460 1.985 . S
N471 C473 1.335 . S
N471 C474 1.390 . S
N472 C473 1.345 . S
N472 C475 1.336 . S
C473 N471 1.335 . S
C473 N472 1.345 . S
C473 H478 0.930 . S
C474 N471 1.390 . S
C474 C475 1.346 . S
C474 H479 0.930 . S
C475 N472 1.336 . S
C475 C474 1.346 . S
C475 H482 0.929 . S
C476 O466 1.282 . S
C476 O477 1.216 . S
O477 C476 1.216 . S
H478 C473 0.930 . S
H479 C474 0.930 . S
O480 Cu460 1.959 . S
O480 C467 1.251 . S
H481 C464 0.930 . S
H482 C475 0.929 . S
Cu483 N484 1.999 . S
Cu483 O489 1.974 . S
Cu483 N494 1.985 . S
Cu483 O503 1.959 . S
N484 Cu483 1.999 . S
N484 C486 1.263 . S
N484 C488 1.389 . S
N485 C486 1.358 . S
N485 C487 1.400 . S
C486 N484 1.263 . S
C486 N485 1.358 . S
C486 H492 0.930 . S
C487 N485 1.400 . S
C487 C488 1.351 . S
C487 H504 0.930 . S
C488 N484 1.389 . S
C488 C487 1.351 . S
C488 H493 0.930 . S
O489 Cu483 1.974 . S
O489 C499 1.282 . S
C490 O491 1.261 . S
C490 O503 1.251 . S
O491 C490 1.261 . S
H492 C486 0.930 . S
H493 C488 0.930 . S
N494 Cu483 1.985 . S
N494 C496 1.335 . S
N494 C497 1.390 . S
N495 C496 1.345 . S
N495 C498 1.336 . S
C496 N494 1.335 . S
C496 N495 1.345 . S
C496 H501 0.930 . S
C497 N494 1.390 . S
C497 C498 1.346 . S
C497 H502 0.930 . S
C498 N495 1.336 . S
C498 C497 1.346 . S
C498 H505 0.929 . S
C499 O489 1.282 . S
C499 O500 1.216 . S
O500 C499 1.216 . S
H501 C496 0.930 . S
H502 C497 0.930 . S
O503 Cu483 1.959 . S
O503 C490 1.251 . S
H504 C487 0.930 . S
H505 C498 0.929 . S
Cu506 N507 1.999 . S
Cu506 O512 1.974 . S
Cu506 N517 1.985 . S
Cu506 O526 1.959 . S
N507 Cu506 1.999 . S
N507 C509 1.263 . S
N507 C511 1.389 . S
N508 C509 1.358 . S
N508 C510 1.400 . S
C509 N507 1.263 . S
C509 N508 1.358 . S
C509 H515 0.930 . S
C510 N508 1.400 . S
C510 C511 1.351 . S
C510 H527 0.930 . S
C511 N507 1.389 . S
C511 C510 1.351 . S
C511 H516 0.930 . S
O512 Cu506 1.974 . S
O512 C522 1.282 . S
C513 O514 1.261 . S
C513 O526 1.251 . S
O514 C513 1.261 . S
H515 C509 0.930 . S
H516 C511 0.930 . S
N517 Cu506 1.985 . S
N517 C519 1.335 . S
N517 C520 1.390 . S
N518 C519 1.345 . S
N518 C521 1.336 . S
C519 N517 1.335 . S
C519 N518 1.345 . S
C519 H524 0.930 . S
C520 N517 1.390 . S
C520 C521 1.346 . S
C520 H525 0.930 . S
C521 N518 1.336 . S
C521 C520 1.346 . S
C521 H528 0.929 . S
C522 O512 1.282 . S
C522 O523 1.216 . S
O523 C522 1.216 . S
H524 C519 0.930 . S
H525 C520 0.930 . S
O526 Cu506 1.959 . S
O526 C513 1.251 . S
H527 C510 0.930 . S
H528 C521 0.929 . S
Cu529 N530 1.999 . S
Cu529 O535 1.974 . S
Cu529 N540 1.985 . S
Cu529 O549 1.959 . S
N530 Cu529 1.999 . S
N530 C532 1.263 . S
N530 C534 1.389 . S
N531 C532 1.358 . S
N531 C533 1.400 . S
C532 N530 1.263 . S
C532 N531 1.358 . S
C532 H538 0.930 . S
C533 N531 1.400 . S
C533 C534 1.351 . S
C533 H550 0.930 . S
C534 N530 1.389 . S
C534 C533 1.351 . S
C534 H539 0.930 . S
O535 Cu529 1.974 . S
O535 C545 1.282 . S
C536 O537 1.261 . S
C536 O549 1.251 . S
O537 C536 1.261 . S
H538 C532 0.930 . S
H539 C534 0.930 . S
N540 Cu529 1.985 . S
N540 C542 1.335 . S
N540 C543 1.390 . S
N541 C542 1.345 . S
N541 C544 1.336 . S
C542 N540 1.335 . S
C542 N541 1.345 . S
C542 H547 0.930 . S
C543 N540 1.390 . S
C543 C544 1.346 . S
C543 H548 0.930 . S
C544 N541 1.336 . S
C544 C543 1.346 . S
C544 H551 0.929 . S
C545 O535 1.282 . S
C545 O546 1.216 . S
O546 C545 1.216 . S
H547 C542 0.930 . S
H548 C543 0.930 . S
O549 Cu529 1.959 . S
O549 C536 1.251 . S
H550 C533 0.930 . S
H551 C544 0.929 . S
Cu552 N553 1.999 . S
Cu552 O558 1.974 . S
Cu552 N563 1.985 . S
Cu552 O572 1.959 . S
N553 Cu552 1.999 . S
N553 C555 1.263 . S
N553 C557 1.389 . S
N554 C555 1.358 . S
N554 C556 1.400 . S
C555 N553 1.263 . S
C555 N554 1.358 . S
C555 H561 0.930 . S
C556 N554 1.400 . S
C556 C557 1.351 . S
C556 H573 0.930 . S
C557 N553 1.389 . S
C557 C556 1.351 . S
C557 H562 0.930 . S
O558 Cu552 1.974 . S
O558 C568 1.282 . S
C559 O560 1.261 . S
C559 O572 1.251 . S
O560 C559 1.261 . S
H561 C555 0.930 . S
H562 C557 0.930 . S
N563 Cu552 1.985 . S
N563 C565 1.335 . S
N563 C566 1.390 . S
N564 C565 1.345 . S
N564 C567 1.336 . S
C565 N563 1.335 . S
C565 N564 1.345 . S
C565 H570 0.930 . S
C566 N563 1.390 . S
C566 C567 1.346 . S
C566 H571 0.930 . S
C567 N564 1.336 . S
C567 C566 1.346 . S
C567 H574 0.929 . S
C568 O558 1.282 . S
C568 O569 1.216 . S
O569 C568 1.216 . S
H570 C565 0.930 . S
H571 C566 0.930 . S
O572 Cu552 1.959 . S
O572 C559 1.251 . S
H573 C556 0.930 . S
H574 C567 0.929 . S
Cu575 N576 1.999 . S
Cu575 O581 1.974 . S
Cu575 N586 1.985 . S
Cu575 O595 1.959 . S
N576 Cu575 1.999 . S
N576 C578 1.263 . S
N576 C580 1.389 . S
N577 C578 1.358 . S
N577 C579 1.400 . S
C578 N576 1.263 . S
C578 N577 1.358 . S
C578 H584 0.930 . S
C579 N577 1.400 . S
C579 C580 1.351 . S
C579 H596 0.930 . S
C580 N576 1.389 . S
C580 C579 1.351 . S
C580 H585 0.930 . S
O581 Cu575 1.974 . S
O581 C591 1.282 . S
C582 O583 1.261 . S
C582 O595 1.251 . S
O583 C582 1.261 . S
H584 C578 0.930 . S
H585 C580 0.930 . S
N586 Cu575 1.985 . S
N586 C588 1.335 . S
N586 C589 1.390 . S
N587 C588 1.345 . S
N587 C590 1.336 . S
C588 N586 1.335 . S
C588 N587 1.345 . S
C588 H593 0.930 . S
C589 N586 1.390 . S
C589 C590 1.346 . S
C589 H594 0.930 . S
C590 N587 1.336 . S
C590 C589 1.346 . S
C590 H597 0.929 . S
C591 O581 1.282 . S
C591 O592 1.216 . S
O592 C591 1.216 . S
H593 C588 0.930 . S
H594 C589 0.930 . S
O595 Cu575 1.959 . S
O595 C582 1.251 . S
H596 C579 0.930 . S
H597 C590 0.929 . S
Cu598 N599 1.999 1_556 S
Cu598 O604 1.974 . S
Cu598 N609 1.985 . S
Cu598 O618 1.959 1_556 S
N599 Cu598 1.999 1_554 S
N599 C601 1.263 1_554 S
N599 C603 1.389 . S
N600 C601 1.353 1_554 S
N600 C602 1.410 . S
C601 N599 1.263 1_556 S
C601 N600 1.353 1_556 S
C601 H607 0.930 . S
C602 N600 1.410 . S
C602 C603 1.351 . S
C602 H619 0.930 . S
C603 N599 1.389 . S
C603 C602 1.351 . S
C603 H608 0.930 . S
O604 Cu598 1.974 . S
O604 C614 1.282 . S
C605 O606 1.261 . S
C605 O618 1.251 . S
O606 C605 1.261 . S
H607 C601 0.930 . S
H608 C603 0.930 . S
N609 Cu598 1.985 . S
N609 C611 1.335 1_556 S
N609 C612 1.390 . S
N610 C611 1.345 1_556 S
N610 C613 1.336 . S
C611 N609 1.335 1_554 S
C611 N610 1.345 1_554 S
C611 H616 0.930 . S
C612 N609 1.390 . S
C612 C613 1.346 . S
C612 H617 0.930 . S
C613 N610 1.336 . S
C613 C612 1.346 . S
C613 H620 0.929 . S
C614 O604 1.282 . S
C614 O615 1.216 . S
O615 C614 1.216 . S
H616 C611 0.930 . S
H617 C612 0.930 . S
O618 Cu598 1.959 1_554 S
O618 C605 1.251 . S
H619 C602 0.930 . S
H620 C613 0.929 . S
Cu621 N622 1.999 1_556 S
Cu621 O627 1.974 . S
Cu621 N632 1.985 . S
Cu621 O641 1.959 1_556 S
N622 Cu621 1.999 1_554 S
N622 C624 1.263 1_554 S
N622 C626 1.389 . S
N623 C624 1.353 1_554 S
N623 C625 1.410 . S
C624 N622 1.263 1_556 S
C624 N623 1.353 1_556 S
C624 H630 0.930 . S
C625 N623 1.410 . S
C625 C626 1.351 . S
C625 H642 0.930 . S
C626 N622 1.389 . S
C626 C625 1.351 . S
C626 H631 0.930 . S
O627 Cu621 1.974 . S
O627 C637 1.282 . S
C628 O629 1.261 . S
C628 O641 1.251 . S
O629 C628 1.261 . S
H630 C624 0.930 . S
H631 C626 0.930 . S
N632 Cu621 1.985 . S
N632 C634 1.335 1_556 S
N632 C635 1.390 . S
N633 C634 1.345 1_556 S
N633 C636 1.336 . S
C634 N632 1.335 1_554 S
C634 N633 1.345 1_554 S
C634 H639 0.930 . S
C635 N632 1.390 . S
C635 C636 1.346 . S
C635 H640 0.930 . S
C636 N633 1.336 . S
C636 C635 1.346 . S
C636 H643 0.929 . S
C637 O627 1.282 . S
C637 O638 1.216 . S
O638 C637 1.216 . S
H639 C634 0.930 . S
H640 C635 0.930 . S
O641 Cu621 1.959 1_554 S
O641 C628 1.251 . S
H642 C625 0.930 . S
H643 C636 0.929 . S
Cu644 N645 1.999 . S
Cu644 O650 1.974 . S
Cu644 N655 1.985 . S
Cu644 O664 1.959 . S
N645 Cu644 1.999 . S
N645 C647 1.263 . S
N645 C649 1.389 . S
N646 C647 1.358 . S
N646 C648 1.400 . S
C647 N645 1.263 . S
C647 N646 1.358 . S
C647 H653 0.930 . S
C648 N646 1.400 . S
C648 C649 1.351 . S
C648 H665 0.930 . S
C649 N645 1.389 . S
C649 C648 1.351 . S
C649 H654 0.930 . S
O650 Cu644 1.974 . S
O650 C660 1.282 . S
C651 O652 1.261 . S
C651 O664 1.251 . S
O652 C651 1.261 . S
H653 C647 0.930 . S
H654 C649 0.930 . S
N655 Cu644 1.985 . S
N655 C657 1.335 . S
N655 C658 1.390 . S
N656 C657 1.345 . S
N656 C659 1.336 . S
C657 N655 1.335 . S
C657 N656 1.345 . S
C657 H662 0.930 . S
C658 N655 1.390 . S
C658 C659 1.346 . S
C658 H663 0.930 . S
C659 N656 1.336 . S
C659 C658 1.346 . S
C659 H666 0.929 . S
C660 O650 1.282 . S
C660 O661 1.216 . S
O661 C660 1.216 . S
H662 C657 0.930 . S
H663 C658 0.930 . S
O664 Cu644 1.959 . S
O664 C651 1.251 . S
H665 C648 0.930 . S
H666 C659 0.929 . S
Cu667 N668 1.999 . S
Cu667 O673 1.974 . S
Cu667 N678 1.985 . S
Cu667 O687 1.959 . S
N668 Cu667 1.999 . S
N668 C670 1.263 . S
N668 C672 1.389 . S
N669 C670 1.358 . S
N669 C671 1.400 . S
C670 N668 1.263 . S
C670 N669 1.358 . S
C670 H676 0.930 . S
C671 N669 1.400 . S
C671 C672 1.351 . S
C671 H688 0.930 . S
C672 N668 1.389 . S
C672 C671 1.351 . S
C672 H677 0.930 . S
O673 Cu667 1.974 . S
O673 C683 1.282 . S
C674 O675 1.261 . S
C674 O687 1.251 . S
O675 C674 1.261 . S
H676 C670 0.930 . S
H677 C672 0.930 . S
N678 Cu667 1.985 . S
N678 C680 1.335 . S
N678 C681 1.390 . S
N679 C680 1.345 . S
N679 C682 1.336 . S
C680 N678 1.335 . S
C680 N679 1.345 . S
C680 H685 0.930 . S
C681 N678 1.390 . S
C681 C682 1.346 . S
C681 H686 0.930 . S
C682 N679 1.336 . S
C682 C681 1.346 . S
C682 H689 0.929 . S
C683 O673 1.282 . S
C683 O684 1.216 . S
O684 C683 1.216 . S
H685 C680 0.930 . S
H686 C681 0.930 . S
O687 Cu667 1.959 . S
O687 C674 1.251 . S
H688 C671 0.930 . S
H689 C682 0.929 . S
Cu690 N691 1.999 1_554 S
Cu690 O696 1.974 . S
Cu690 N701 1.985 . S
Cu690 O710 1.959 1_554 S
N691 Cu690 1.999 1_556 S
N691 C693 1.263 1_556 S
N691 C695 1.389 . S
N692 C693 1.353 1_556 S
N692 C694 1.410 . S
C693 N691 1.263 1_554 S
C693 N692 1.353 1_554 S
C693 H699 0.930 . S
C694 N692 1.410 . S
C694 C695 1.351 . S
C694 H711 0.930 . S
C695 N691 1.389 . S
C695 C694 1.351 . S
C695 H700 0.930 . S
O696 Cu690 1.974 . S
O696 C706 1.282 . S
C697 O698 1.261 . S
C697 O710 1.251 . S
O698 C697 1.261 . S
H699 C693 0.930 . S
H700 C695 0.930 . S
N701 Cu690 1.985 . S
N701 C703 1.335 1_554 S
N701 C704 1.390 . S
N702 C703 1.345 1_554 S
N702 C705 1.336 . S
C703 N701 1.335 1_556 S
C703 N702 1.345 1_556 S
C703 H708 0.930 . S
C704 N701 1.390 . S
C704 C705 1.346 . S
C704 H709 0.930 . S
C705 N702 1.336 . S
C705 C704 1.346 . S
C705 H712 0.929 . S
C706 O696 1.282 . S
C706 O707 1.216 . S
O707 C706 1.216 . S
H708 C703 0.930 . S
H709 C704 0.930 . S
O710 Cu690 1.959 1_556 S
O710 C697 1.251 . S
H711 C694 0.930 . S
H712 C705 0.929 . S
Cu713 N714 1.999 1_554 S
Cu713 O719 1.974 . S
Cu713 N724 1.985 . S
Cu713 O733 1.959 1_554 S
N714 Cu713 1.999 1_556 S
N714 C716 1.263 1_556 S
N714 C718 1.389 . S
N715 C716 1.353 1_556 S
N715 C717 1.410 . S
C716 N714 1.263 1_554 S
C716 N715 1.353 1_554 S
C716 H722 0.930 . S
C717 N715 1.410 . S
C717 C718 1.351 . S
C717 H734 0.930 . S
C718 N714 1.389 . S
C718 C717 1.351 . S
C718 H723 0.930 . S
O719 Cu713 1.974 . S
O719 C729 1.282 . S
C720 O721 1.261 . S
C720 O733 1.251 . S
O721 C720 1.261 . S
H722 C716 0.930 . S
H723 C718 0.930 . S
N724 Cu713 1.985 . S
N724 C726 1.335 1_554 S
N724 C727 1.390 . S
N725 C726 1.345 1_554 S
N725 C728 1.336 . S
C726 N724 1.335 1_556 S
C726 N725 1.345 1_556 S
C726 H731 0.930 . S
C727 N724 1.390 . S
C727 C728 1.346 . S
C727 H732 0.930 . S
C728 N725 1.336 . S
C728 C727 1.346 . S
C728 H735 0.929 . S
C729 O719 1.282 . S
C729 O730 1.216 . S
O730 C729 1.216 . S
H731 C726 0.930 . S
H732 C727 0.930 . S
O733 Cu713 1.959 1_556 S
O733 C720 1.251 . S
H734 C717 0.930 . S
H735 C728 0.929 . S
C736 C737 1.369 . S
C736 C738 1.419 . S
C736 H740 0.930 . S
C737 C736 1.369 . S
C737 C746 1.429 . S
C738 C736 1.419 . S
C738 C739 1.363 . S
C738 H741 0.929 . S
C739 C738 1.363 . S
C739 C745 1.428 . S
H740 C736 0.930 . S
H741 C738 0.929 . S
S742 N743 1.613 . S
S742 N744 1.610 . S
N743 S742 1.613 . S
N743 C746 1.350 . S
N744 S742 1.610 . S
N744 C745 1.351 . S
C745 C739 1.428 . S
C745 N744 1.351 . S
C745 C746 1.434 . S
C746 C737 1.429 . S
C746 N743 1.350 . S
C746 C745 1.434 . S
C747 C748 1.369 . S
C747 C749 1.419 . S
C747 H751 0.930 . S
C748 C747 1.369 . S
C748 C757 1.429 . S
C749 C747 1.419 . S
C749 C750 1.363 . S
C749 H752 0.929 . S
C750 C749 1.363 . S
C750 C756 1.428 . S
H751 C747 0.930 . S
H752 C749 0.929 . S
S753 N754 1.613 . S
S753 N755 1.610 . S
N754 S753 1.613 . S
N754 C757 1.350 . S
N755 S753 1.610 . S
N755 C756 1.351 . S
C756 C750 1.428 . S
C756 N755 1.351 . S
C756 C757 1.434 . S
C757 C748 1.429 . S
C757 N754 1.350 . S
C757 C756 1.434 . S
C758 C759 1.369 . S
C758 C760 1.419 . S
C758 H762 0.930 . S
C759 C758 1.369 . S
C759 C768 1.429 . S
C760 C758 1.419 . S
C760 C761 1.363 . S
C760 H763 0.929 . S
C761 C760 1.363 . S
C761 C767 1.428 . S
H762 C758 0.930 . S
H763 C760 0.929 . S
S764 N765 1.613 . S
S764 N766 1.610 . S
N765 S764 1.613 . S
N765 C768 1.350 . S
N766 S764 1.610 . S
N766 C767 1.351 . S
C767 C761 1.428 . S
C767 N766 1.351 . S
C767 C768 1.434 . S
C768 C759 1.429 . S
C768 N765 1.350 . S
C768 C767 1.434 . S
C769 C770 1.369 . S
C769 C771 1.419 . S
C769 H773 0.930 . S
C770 C769 1.369 . S
C770 C779 1.429 . S
C771 C769 1.419 . S
C771 C772 1.363 . S
C771 H774 0.929 . S
C772 C771 1.363 . S
C772 C778 1.428 . S
H773 C769 0.930 . S
H774 C771 0.929 . S
S775 N776 1.613 . S
S775 N777 1.610 . S
N776 S775 1.613 . S
N776 C779 1.350 . S
N777 S775 1.610 . S
N777 C778 1.351 . S
C778 C772 1.428 . S
C778 N777 1.351 . S
C778 C779 1.434 . S
C779 C770 1.429 . S
C779 N776 1.350 . S
C779 C778 1.434 . S
C780 C781 1.369 . S
C780 C782 1.419 . S
C780 H784 0.930 . S
C781 C780 1.369 . S
C781 C790 1.429 . S
C782 C780 1.419 . S
C782 C783 1.363 . S
C782 H785 0.929 . S
C783 C782 1.363 . S
C783 C789 1.428 . S
H784 C780 0.930 . S
H785 C782 0.929 . S
S786 N787 1.613 . S
S786 N788 1.610 . S
N787 S786 1.613 . S
N787 C790 1.350 . S
N788 S786 1.610 . S
N788 C789 1.351 . S
C789 C783 1.428 . S
C789 N788 1.351 . S
C789 C790 1.434 . S
C790 C781 1.429 . S
C790 N787 1.350 . S
C790 C789 1.434 . S
C791 C792 1.369 . S
C791 C793 1.419 . S
C791 H795 0.930 . S
C792 C791 1.369 . S
C792 C801 1.429 . S
C793 C791 1.419 . S
C793 C794 1.363 . S
C793 H796 0.929 . S
C794 C793 1.363 . S
C794 C800 1.428 . S
H795 C791 0.930 . S
H796 C793 0.929 . S
S797 N798 1.613 . S
S797 N799 1.610 . S
N798 S797 1.613 . S
N798 C801 1.350 . S
N799 S797 1.610 . S
N799 C800 1.351 . S
C800 C794 1.428 . S
C800 N799 1.351 . S
C800 C801 1.434 . S
C801 C792 1.429 . S
C801 N798 1.350 . S
C801 C800 1.434 . S
C802 C803 1.369 . S
C802 C804 1.419 . S
C802 H806 0.930 . S
C803 C802 1.369 . S
C803 C812 1.429 . S
C804 C802 1.419 . S
C804 C805 1.363 . S
C804 H807 0.929 . S
C805 C804 1.363 . S
C805 C811 1.428 . S
H806 C802 0.930 . S
H807 C804 0.929 . S
S808 N809 1.613 . S
S808 N810 1.610 . S
N809 S808 1.613 . S
N809 C812 1.350 . S
N810 S808 1.610 . S
N810 C811 1.351 . S
C811 C805 1.428 . S
C811 N810 1.351 . S
C811 C812 1.434 . S
C812 C803 1.429 . S
C812 N809 1.350 . S
C812 C811 1.434 . S
C813 C814 1.369 . S
C813 C815 1.419 . S
C813 H817 0.930 . S
C814 C813 1.369 . S
C814 C823 1.429 . S
C815 C813 1.419 . S
C815 C816 1.363 . S
C815 H818 0.929 . S
C816 C815 1.363 . S
C816 C822 1.428 . S
H817 C813 0.930 . S
H818 C815 0.929 . S
S819 N820 1.613 . S
S819 N821 1.610 . S
N820 S819 1.613 . S
N820 C823 1.350 . S
N821 S819 1.610 . S
N821 C822 1.351 . S
C822 C816 1.428 . S
C822 N821 1.351 . S
C822 C823 1.434 . S
C823 C814 1.429 . S
C823 N820 1.350 . S
C823 C822 1.434 . S
C824 C825 1.369 . S
C824 C826 1.419 . S
C824 H828 0.930 . S
C825 C824 1.369 . S
C825 C834 1.429 . S
C826 C824 1.419 . S
C826 C827 1.363 . S
C826 H829 0.929 . S
C827 C826 1.363 . S
C827 C833 1.428 . S
H828 C824 0.930 . S
H829 C826 0.929 . S
S830 N831 1.613 . S
S830 N832 1.610 . S
N831 S830 1.613 . S
N831 C834 1.350 . S
N832 S830 1.610 . S
N832 C833 1.351 . S
C833 C827 1.428 . S
C833 N832 1.351 . S
C833 C834 1.434 . S
C834 C825 1.429 . S
C834 N831 1.350 . S
C834 C833 1.434 . S
C835 C836 1.369 . S
C835 C837 1.419 . S
C835 H839 0.930 . S
C836 C835 1.369 . S
C836 C845 1.429 . S
C837 C835 1.419 . S
C837 C838 1.363 . S
C837 H840 0.929 . S
C838 C837 1.363 . S
C838 C844 1.428 . S
H839 C835 0.930 . S
H840 C837 0.929 . S
S841 N842 1.613 . S
S841 N843 1.610 . S
N842 S841 1.613 . S
N842 C845 1.350 . S
N843 S841 1.610 . S
N843 C844 1.351 . S
C844 C838 1.428 . S
C844 N843 1.351 . S
C844 C845 1.434 . S
C845 C836 1.429 . S
C845 N842 1.350 . S
C845 C844 1.434 . S
C846 C847 1.369 . S
C846 C848 1.419 . S
C846 H850 0.930 . S
C847 C846 1.369 . S
C847 C856 1.429 . S
C848 C846 1.419 . S
C848 C849 1.363 . S
C848 H851 0.929 . S
C849 C848 1.363 . S
C849 C855 1.428 . S
H850 C846 0.930 . S
H851 C848 0.929 . S
S852 N853 1.613 . S
S852 N854 1.610 . S
N853 S852 1.613 . S
N853 C856 1.350 . S
N854 S852 1.610 . S
N854 C855 1.351 . S
C855 C849 1.428 . S
C855 N854 1.351 . S
C855 C856 1.434 . S
C856 C847 1.429 . S
C856 N853 1.350 . S
C856 C855 1.434 . S
C857 C858 1.369 . S
C857 C859 1.419 . S
C857 H861 0.930 . S
C858 C857 1.369 . S
C858 C867 1.429 . S
C859 C857 1.419 . S
C859 C860 1.363 . S
C859 H862 0.929 . S
C860 C859 1.363 . S
C860 C866 1.428 . S
H861 C857 0.930 . S
H862 C859 0.929 . S
S863 N864 1.613 . S
S863 N865 1.610 . S
N864 S863 1.613 . S
N864 C867 1.350 . S
N865 S863 1.610 . S
N865 C866 1.351 . S
C866 C860 1.428 . S
C866 N865 1.351 . S
C866 C867 1.434 . S
C867 C858 1.429 . S
C867 N864 1.350 . S
C867 C866 1.434 . S
C868 C869 1.369 . S
C868 C870 1.419 . S
C868 H872 0.930 . S
C869 C868 1.369 . S
C869 C878 1.429 . S
C870 C868 1.419 . S
C870 C871 1.363 . S
C870 H873 0.929 . S
C871 C870 1.363 . S
C871 C877 1.428 . S
H872 C868 0.930 . S
H873 C870 0.929 . S
S874 N875 1.613 . S
S874 N876 1.610 . S
N875 S874 1.613 . S
N875 C878 1.350 . S
N876 S874 1.610 . S
N876 C877 1.351 . S
C877 C871 1.428 . S
C877 N876 1.351 . S
C877 C878 1.434 . S
C878 C869 1.429 . S
C878 N875 1.350 . S
C878 C877 1.434 . S
C879 C880 1.369 . S
C879 C881 1.419 . S
C879 H883 0.930 . S
C880 C879 1.369 . S
C880 C889 1.429 . S
C881 C879 1.419 . S
C881 C882 1.363 . S
C881 H884 0.929 . S
C882 C881 1.363 . S
C882 C888 1.428 . S
H883 C879 0.930 . S
H884 C881 0.929 . S
S885 N886 1.613 . S
S885 N887 1.610 . S
N886 S885 1.613 . S
N886 C889 1.350 . S
N887 S885 1.610 . S
N887 C888 1.351 . S
C888 C882 1.428 . S
C888 N887 1.351 . S
C888 C889 1.434 . S
C889 C880 1.429 . S
C889 N886 1.350 . S
C889 C888 1.434 . S
C890 C891 1.369 . S
C890 C892 1.419 . S
C890 H894 0.930 . S
C891 C890 1.369 . S
C891 C900 1.429 . S
C892 C890 1.419 . S
C892 C893 1.363 . S
C892 H895 0.929 . S
C893 C892 1.363 . S
C893 C899 1.428 . S
H894 C890 0.930 . S
H895 C892 0.929 . S
S896 N897 1.613 . S
S896 N898 1.610 . S
N897 S896 1.613 . S
N897 C900 1.350 . S
N898 S896 1.610 . S
N898 C899 1.351 . S
C899 C893 1.428 . S
C899 N898 1.351 . S
C899 C900 1.434 . S
C900 C891 1.429 . S
C900 N897 1.350 . S
C900 C899 1.434 . S
C901 C902 1.369 . S
C901 C903 1.419 . S
C901 H905 0.930 . S
C902 C901 1.369 . S
C902 C911 1.429 . S
C903 C901 1.419 . S
C903 C904 1.363 . S
C903 H906 0.929 . S
C904 C903 1.363 . S
C904 C910 1.428 . S
H905 C901 0.930 . S
H906 C903 0.929 . S
S907 N908 1.613 . S
S907 N909 1.610 . S
N908 S907 1.613 . S
N908 C911 1.350 . S
N909 S907 1.610 . S
N909 C910 1.351 . S
C910 C904 1.428 . S
C910 N909 1.351 . S
C910 C911 1.434 . S
C911 C902 1.429 . S
C911 N908 1.350 . S
C911 C910 1.434 . S
C912 C913 1.369 . S
C912 C914 1.419 1_655 S
C912 H916 0.931 . S
C913 C912 1.369 . S
C913 C922 1.429 . S
C914 C912 1.419 1_455 S
C914 C915 1.363 . S
C914 H917 0.929 . S
C915 C914 1.363 . S
C915 C921 1.434 . S
H916 C912 0.931 . S
H917 C914 0.929 . S
S918 N919 1.613 . S
S918 N920 1.610 . S
N919 S918 1.613 . S
N919 C922 1.350 . S
N920 S918 1.610 . S
N920 C921 1.350 1_655 S
C921 C915 1.434 . S
C921 N920 1.350 1_455 S
C921 C922 1.428 1_455 S
C922 C913 1.429 . S
C922 N919 1.350 . S
C922 C921 1.428 1_655 S
C923 C924 1.369 . S
C923 C925 1.419 . S
C923 H927 0.930 . S
C924 C923 1.369 . S
C924 C933 1.429 1_565 S
C925 C923 1.419 . S
C925 C926 1.363 1_565 S
C925 H928 0.929 . S
C926 C925 1.363 1_545 S
C926 C932 1.428 . S
H927 C923 0.930 . S
H928 C925 0.929 . S
S929 N930 1.613 . S
S929 N931 1.610 . S
N930 S929 1.613 . S
N930 C933 1.350 . S
N931 S929 1.610 . S
N931 C932 1.351 . S
C932 C926 1.428 . S
C932 N931 1.351 . S
C932 C933 1.434 . S
C933 C924 1.429 1_545 S
C933 N930 1.350 . S
C933 C932 1.434 . S
C934 C935 1.369 1_545 S
C934 C936 1.419 . S
C934 H938 0.930 . S
C935 C934 1.369 1_565 S
C935 C944 1.429 1_456 S
C936 C934 1.419 . S
C936 C937 1.363 1_456 S
C936 H939 0.929 . S
C937 C936 1.363 1_654 S
C937 C943 1.428 1_545 S
H938 C934 0.930 . S
H939 C936 0.929 . S
S940 N941 1.613 . S
S940 N942 1.610 . S
N941 S940 1.613 . S
N941 C944 1.350 . S
N942 S940 1.610 . S
N942 C943 1.351 . S
C943 C937 1.428 1_565 S
C943 N942 1.351 . S
C943 C944 1.434 . S
C944 C935 1.429 1_654 S
C944 N941 1.350 . S
C944 C943 1.434 . S
C945 C946 1.369 . S
C945 C947 1.419 . S
C945 H949 0.930 . S
C946 C945 1.369 . S
C946 C955 1.429 1_554 S
C947 C945 1.419 . S
C947 C948 1.363 1_554 S
C947 H950 0.929 . S
C948 C947 1.363 1_556 S
C948 C954 1.428 . S
H949 C945 0.930 . S
H950 C947 0.929 . S
S951 N952 1.613 . S
S951 N953 1.610 . S
N952 S951 1.613 . S
N952 C955 1.350 . S
N953 S951 1.610 . S
N953 C954 1.351 . S
C954 C948 1.428 . S
C954 N953 1.351 . S
C954 C955 1.434 . S
C955 C946 1.429 1_556 S
C955 N952 1.350 . S
C955 C954 1.434 . S
C956 C957 1.369 . S
C956 C958 1.419 1_655 S
C956 H960 0.930 . S
C957 C956 1.369 . S
C957 C966 1.429 . S
C958 C956 1.419 1_455 S
C958 C959 1.363 . S
C958 H961 0.929 . S
C959 C958 1.363 . S
C959 C965 1.428 . S
H960 C956 0.930 . S
H961 C958 0.929 . S
S962 N963 1.613 . S
S962 N964 1.610 1_655 S
N963 S962 1.613 . S
N963 C966 1.350 . S
N964 S962 1.610 1_455 S
N964 C965 1.351 . S
C965 C959 1.428 . S
C965 N964 1.351 . S
C965 C966 1.434 1_455 S
C966 C957 1.429 . S
C966 N963 1.350 . S
C966 C965 1.434 1_655 S
C967 C968 1.369 . S
C967 C969 1.386 1_565 S
C967 H971 0.930 . S
C968 C967 1.369 . S
C968 C977 1.425 1_565 S
C969 C967 1.386 1_545 S
C969 C970 1.397 . S
C969 H972 0.929 . S
C970 C969 1.397 . S
C970 C976 1.428 . S
H971 C967 0.930 . S
H972 C969 0.929 . S
S973 N974 1.613 . S
S973 N975 1.610 . S
N974 S973 1.613 . S
N974 C977 1.351 . S
N975 S973 1.610 . S
N975 C976 1.351 . S
C976 C970 1.428 . S
C976 N975 1.351 . S
C976 C977 1.438 . S
C977 C968 1.425 1_545 S
C977 N974 1.351 . S
C977 C976 1.438 . S
C978 C979 1.369 . S
C978 C980 1.419 . S
C978 H982 0.930 . S
C979 C978 1.369 . S
C979 C988 1.429 1_556 S
C980 C978 1.419 . S
C980 C981 1.363 1_556 S
C980 H983 0.929 . S
C981 C980 1.363 1_554 S
C981 C987 1.428 . S
H982 C978 0.930 . S
H983 C980 0.929 . S
S984 N985 1.613 . S
S984 N986 1.610 . S
N985 S984 1.613 . S
N985 C988 1.350 . S
N986 S984 1.610 . S
N986 C987 1.351 . S
C987 C981 1.428 . S
C987 N986 1.351 . S
C987 C988 1.434 . S
C988 C979 1.429 1_554 S
C988 N985 1.350 . S
C988 C987 1.434 . S
C989 C990 1.369 . S
C989 C991 1.419 . S
C989 H993 0.930 . S
C990 C989 1.369 . S
C990 C999 1.429 . S
C991 C989 1.419 . S
C991 C992 1.363 . S
C991 H994 0.929 . S
C992 C991 1.363 . S
C992 C998 1.428 . S
H993 C989 0.930 . S
H994 C991 0.929 . S
S995 N996 1.613 . S
S995 N997 1.610 . S
N996 S995 1.613 . S
N996 C999 1.350 . S
N997 S995 1.610 . S
N997 C998 1.351 . S
C998 C992 1.428 . S
C998 N997 1.351 . S
C998 C999 1.434 . S
C999 C990 1.429 . S
C999 N996 1.350 . S
C999 C998 1.434 . S
C1000 C1001 1.369 1_455 S
C1000 C1002 1.419 . S
C1000 H1004 0.930 . S
C1001 C1000 1.369 1_655 S
C1001 C1010 1.429 . S
C1002 C1000 1.419 . S
C1002 C1003 1.363 . S
C1002 H1005 0.929 . S
C1003 C1002 1.363 . S
C1003 C1009 1.428 1_455 S
H1004 C1000 0.930 . S
H1005 C1002 0.929 . S
S1006 N1007 1.613 . S
S1006 N1008 1.610 . S
N1007 S1006 1.613 . S
N1007 C1010 1.350 . S
N1008 S1006 1.610 . S
N1008 C1009 1.351 . S
C1009 C1003 1.428 1_655 S
C1009 N1008 1.351 . S
C1009 C1010 1.434 . S
C1010 C1001 1.429 . S
C1010 N1007 1.350 . S
C1010 C1009 1.434 . S
C1011 C1012 1.369 . S
C1011 C1013 1.419 . S
C1011 H1015 0.930 . S
C1012 C1011 1.369 . S
C1012 C1021 1.429 . S
C1013 C1011 1.419 . S
C1013 C1014 1.363 . S
C1013 H1016 0.929 . S
C1014 C1013 1.363 . S
C1014 C1020 1.428 . S
H1015 C1011 0.930 . S
H1016 C1013 0.929 . S
S1017 N1018 1.613 . S
S1017 N1019 1.610 . S
N1018 S1017 1.613 . S
N1018 C1021 1.350 . S
N1019 S1017 1.610 . S
N1019 C1020 1.351 . S
C1020 C1014 1.428 . S
C1020 N1019 1.351 . S
C1020 C1021 1.434 . S
C1021 C1012 1.429 . S
C1021 N1018 1.350 . S
C1021 C1020 1.434 . S
C1022 C1023 1.369 . S
C1022 C1024 1.419 . S
C1022 H1026 0.930 . S
C1023 C1022 1.369 . S
C1023 C1032 1.429 . S
C1024 C1022 1.419 . S
C1024 C1025 1.363 . S
C1024 H1027 0.929 . S
C1025 C1024 1.363 . S
C1025 C1031 1.428 . S
H1026 C1022 0.930 . S
H1027 C1024 0.929 . S
S1028 N1029 1.613 . S
S1028 N1030 1.610 . S
N1029 S1028 1.613 . S
N1029 C1032 1.350 . S
N1030 S1028 1.610 . S
N1030 C1031 1.351 . S
C1031 C1025 1.428 . S
C1031 N1030 1.351 . S
C1031 C1032 1.434 . S
C1032 C1023 1.429 . S
C1032 N1029 1.350 . S
C1032 C1031 1.434 . S
C1033 C1034 1.369 . S
C1033 C1035 1.419 . S
C1033 H1037 0.930 . S
C1034 C1033 1.369 . S
C1034 C1043 1.429 . S
C1035 C1033 1.419 . S
C1035 C1036 1.363 . S
C1035 H1038 0.929 . S
C1036 C1035 1.363 . S
C1036 C1042 1.428 . S
H1037 C1033 0.930 . S
H1038 C1035 0.929 . S
S1039 N1040 1.613 . S
S1039 N1041 1.610 . S
N1040 S1039 1.613 . S
N1040 C1043 1.350 . S
N1041 S1039 1.610 . S
N1041 C1042 1.351 . S
C1042 C1036 1.428 . S
C1042 N1041 1.351 . S
C1042 C1043 1.434 . S
C1043 C1034 1.429 . S
C1043 N1040 1.350 . S
C1043 C1042 1.434 . S
C1044 C1045 1.369 . S
C1044 C1046 1.419 . S
C1044 H1048 0.930 . S
C1045 C1044 1.369 . S
C1045 C1054 1.429 . S
C1046 C1044 1.419 . S
C1046 C1047 1.363 . S
C1046 H1049 0.929 . S
C1047 C1046 1.363 . S
C1047 C1053 1.428 . S
H1048 C1044 0.930 . S
H1049 C1046 0.929 . S
S1050 N1051 1.613 . S
S1050 N1052 1.610 . S
N1051 S1050 1.613 . S
N1051 C1054 1.350 . S
N1052 S1050 1.610 . S
N1052 C1053 1.351 . S
C1053 C1047 1.428 . S
C1053 N1052 1.351 . S
C1053 C1054 1.434 . S
C1054 C1045 1.429 . S
C1054 N1051 1.350 . S
C1054 C1053 1.434 . S
C1055 C1056 1.369 . S
C1055 C1057 1.419 . S
C1055 H1059 0.930 . S
C1056 C1055 1.369 . S
C1056 C1065 1.429 1_545 S
C1057 C1055 1.419 . S
C1057 C1058 1.363 1_545 S
C1057 H1060 0.929 . S
C1058 C1057 1.363 1_565 S
C1058 C1064 1.428 . S
H1059 C1055 0.930 . S
H1060 C1057 0.929 . S
S1061 N1062 1.613 . S
S1061 N1063 1.610 . S
N1062 S1061 1.613 . S
N1062 C1065 1.350 . S
N1063 S1061 1.610 . S
N1063 C1064 1.351 . S
C1064 C1058 1.428 . S
C1064 N1063 1.351 . S
C1064 C1065 1.434 . S
C1065 C1056 1.429 1_565 S
C1065 N1062 1.350 . S
C1065 C1064 1.434 . S
C1066 C1067 1.369 . S
C1066 C1068 1.419 . S
C1066 H1070 0.930 . S
C1067 C1066 1.369 . S
C1067 C1076 1.429 . S
C1068 C1066 1.419 . S
C1068 C1069 1.363 . S
C1068 H1071 0.929 . S
C1069 C1068 1.363 . S
C1069 C1075 1.428 . S
H1070 C1066 0.930 . S
H1071 C1068 0.929 . S
S1072 N1073 1.613 . S
S1072 N1074 1.610 . S
N1073 S1072 1.613 . S
N1073 C1076 1.350 . S
N1074 S1072 1.610 . S
N1074 C1075 1.351 . S
C1075 C1069 1.428 . S
C1075 N1074 1.351 . S
C1075 C1076 1.434 . S
C1076 C1067 1.429 . S
C1076 N1073 1.350 . S
C1076 C1075 1.434 . S
C1077 C1078 1.369 . S
C1077 C1079 1.419 . S
C1077 H1081 0.930 . S
C1078 C1077 1.369 . S
C1078 C1087 1.429 1_556 S
C1079 C1077 1.419 . S
C1079 C1080 1.363 1_556 S
C1079 H1082 0.929 . S
C1080 C1079 1.363 1_554 S
C1080 C1086 1.428 . S
H1081 C1077 0.930 . S
H1082 C1079 0.929 . S
S1083 N1084 1.613 . S
S1083 N1085 1.610 . S
N1084 S1083 1.613 . S
N1084 C1087 1.350 . S
N1085 S1083 1.610 . S
N1085 C1086 1.351 . S
C1086 C1080 1.428 . S
C1086 N1085 1.351 . S
C1086 C1087 1.434 . S
C1087 C1078 1.429 1_554 S
C1087 N1084 1.350 . S
C1087 C1086 1.434 . S
C1088 C1089 1.369 . S
C1088 C1090 1.419 . S
C1088 H1092 0.930 . S
C1089 C1088 1.369 . S
C1089 C1098 1.429 . S
C1090 C1088 1.419 . S
C1090 C1091 1.363 . S
C1090 H1093 0.929 . S
C1091 C1090 1.363 . S
C1091 C1097 1.428 . S
H1092 C1088 0.930 . S
H1093 C1090 0.929 . S
S1094 N1095 1.613 . S
S1094 N1096 1.610 . S
N1095 S1094 1.613 . S
N1095 C1098 1.350 . S
N1096 S1094 1.610 . S
N1096 C1097 1.351 . S
C1097 C1091 1.428 . S
C1097 N1096 1.351 . S
C1097 C1098 1.434 . S
C1098 C1089 1.429 . S
C1098 N1095 1.350 . S
C1098 C1097 1.434 . S
C1099 C1100 1.369 . S
C1099 C1101 1.419 . S
C1099 H1103 0.930 . S
C1100 C1099 1.369 . S
C1100 C1109 1.429 . S
C1101 C1099 1.419 . S
C1101 C1102 1.363 . S
C1101 H1104 0.929 . S
C1102 C1101 1.363 . S
C1102 C1108 1.428 . S
H1103 C1099 0.930 . S
H1104 C1101 0.929 . S
S1105 N1106 1.613 . S
S1105 N1107 1.610 . S
N1106 S1105 1.613 . S
N1106 C1109 1.350 . S
N1107 S1105 1.610 . S
N1107 C1108 1.351 . S
C1108 C1102 1.428 . S
C1108 N1107 1.351 . S
C1108 C1109 1.434 . S
C1109 C1100 1.429 . S
C1109 N1106 1.350 . S
C1109 C1108 1.434 . S
C1110 C1111 1.369 . S
C1110 C1112 1.419 . S
C1110 H1114 0.930 . S
C1111 C1110 1.369 . S
C1111 C1120 1.429 . S
C1112 C1110 1.419 . S
C1112 C1113 1.363 . S
C1112 H1115 0.929 . S
C1113 C1112 1.363 . S
C1113 C1119 1.428 . S
H1114 C1110 0.930 . S
H1115 C1112 0.929 . S
S1116 N1117 1.613 . S
S1116 N1118 1.610 . S
N1117 S1116 1.613 . S
N1117 C1120 1.350 . S
N1118 S1116 1.610 . S
N1118 C1119 1.351 . S
C1119 C1113 1.428 . S
C1119 N1118 1.351 . S
C1119 C1120 1.434 . S
C1120 C1111 1.429 . S
C1120 N1117 1.350 . S
C1120 C1119 1.434 . S
C1121 C1122 1.369 . S
C1121 C1123 1.419 . S
C1121 H1125 0.930 . S
C1122 C1121 1.369 . S
C1122 C1131 1.429 . S
C1123 C1121 1.419 . S
C1123 C1124 1.363 . S
C1123 H1126 0.929 . S
C1124 C1123 1.363 . S
C1124 C1130 1.428 . S
H1125 C1121 0.930 . S
H1126 C1123 0.929 . S
S1127 N1128 1.613 . S
S1127 N1129 1.610 . S
N1128 S1127 1.613 . S
N1128 C1131 1.350 . S
N1129 S1127 1.610 . S
N1129 C1130 1.351 . S
C1130 C1124 1.428 . S
C1130 N1129 1.351 . S
C1130 C1131 1.434 . S
C1131 C1122 1.429 . S
C1131 N1128 1.350 . S
C1131 C1130 1.434 . S
C1132 C1133 1.369 . S
C1132 C1134 1.419 . S
C1132 H1136 0.930 . S
C1133 C1132 1.369 . S
C1133 C1142 1.429 . S
C1134 C1132 1.419 . S
C1134 C1135 1.363 . S
C1134 H1137 0.929 . S
C1135 C1134 1.363 . S
C1135 C1141 1.428 . S
H1136 C1132 0.930 . S
H1137 C1134 0.929 . S
S1138 N1139 1.613 . S
S1138 N1140 1.610 . S
N1139 S1138 1.613 . S
N1139 C1142 1.350 . S
N1140 S1138 1.610 . S
N1140 C1141 1.351 . S
C1141 C1135 1.428 . S
C1141 N1140 1.351 . S
C1141 C1142 1.434 . S
C1142 C1133 1.429 . S
C1142 N1139 1.350 . S
C1142 C1141 1.434 . S
C1143 C1144 1.369 . S
C1143 C1145 1.419 . S
C1143 H1147 0.930 . S
C1144 C1143 1.369 . S
C1144 C1153 1.429 . S
C1145 C1143 1.419 . S
C1145 C1146 1.363 . S
C1145 H1148 0.929 . S
C1146 C1145 1.363 . S
C1146 C1152 1.428 . S
H1147 C1143 0.930 . S
H1148 C1145 0.929 . S
S1149 N1150 1.613 . S
S1149 N1151 1.610 . S
N1150 S1149 1.613 . S
N1150 C1153 1.350 1_455 S
N1151 S1149 1.610 . S
N1151 C1152 1.351 1_455 S
C1152 C1146 1.428 . S
C1152 N1151 1.351 1_655 S
C1152 C1153 1.434 . S
C1153 C1144 1.429 . S
C1153 N1150 1.350 1_655 S
C1153 C1152 1.434 . S
C1154 C1155 1.369 . S
C1154 C1156 1.419 . S
C1154 H1158 0.930 . S
C1155 C1154 1.369 . S
C1155 C1164 1.429 . S
C1156 C1154 1.419 . S
C1156 C1157 1.363 . S
C1156 H1159 0.929 . S
C1157 C1156 1.363 . S
C1157 C1163 1.428 . S
H1158 C1154 0.930 . S
H1159 C1156 0.929 . S
S1160 N1161 1.613 . S
S1160 N1162 1.610 . S
N1161 S1160 1.613 . S
N1161 C1164 1.350 . S
N1162 S1160 1.610 . S
N1162 C1163 1.351 . S
C1163 C1157 1.428 . S
C1163 N1162 1.351 . S
C1163 C1164 1.434 . S
C1164 C1155 1.429 . S
C1164 N1161 1.350 . S
C1164 C1163 1.434 . S
C1165 C1166 1.369 . S
C1165 C1167 1.419 . S
C1165 H1169 0.930 . S
C1166 C1165 1.369 . S
C1166 C1175 1.429 . S
C1167 C1165 1.419 . S
C1167 C1168 1.363 . S
C1167 H1170 0.929 . S
C1168 C1167 1.363 . S
C1168 C1174 1.428 . S
H1169 C1165 0.930 . S
H1170 C1167 0.929 . S
S1171 N1172 1.613 . S
S1171 N1173 1.610 . S
N1172 S1171 1.613 . S
N1172 C1175 1.350 . S
N1173 S1171 1.610 . S
N1173 C1174 1.351 . S
C1174 C1168 1.428 . S
C1174 N1173 1.351 . S
C1174 C1175 1.434 . S
C1175 C1166 1.429 . S
C1175 N1172 1.350 . S
C1175 C1174 1.434 . S
C1176 C1177 1.369 . S
C1176 C1178 1.419 . S
C1176 H1180 0.930 . S
C1177 C1176 1.369 . S
C1177 C1186 1.429 . S
C1178 C1176 1.419 . S
C1178 C1179 1.363 . S
C1178 H1181 0.929 . S
C1179 C1178 1.363 . S
C1179 C1185 1.428 . S
H1180 C1176 0.930 . S
H1181 C1178 0.929 . S
S1182 N1183 1.613 . S
S1182 N1184 1.610 . S
N1183 S1182 1.613 . S
N1183 C1186 1.350 . S
N1184 S1182 1.610 . S
N1184 C1185 1.351 . S
C1185 C1179 1.428 . S
C1185 N1184 1.351 . S
C1185 C1186 1.434 . S
C1186 C1177 1.429 . S
C1186 N1183 1.350 . S
C1186 C1185 1.434 . S
C1187 C1188 1.369 . S
C1187 C1189 1.419 . S
C1187 H1191 0.930 . S
C1188 C1187 1.369 . S
C1188 C1197 1.429 . S
C1189 C1187 1.419 . S
C1189 C1190 1.363 . S
C1189 H1192 0.929 . S
C1190 C1189 1.363 . S
C1190 C1196 1.428 . S
H1191 C1187 0.930 . S
H1192 C1189 0.929 . S
S1193 N1194 1.613 . S
S1193 N1195 1.610 . S
N1194 S1193 1.613 . S
N1194 C1197 1.350 . S
N1195 S1193 1.610 . S
N1195 C1196 1.351 . S
C1196 C1190 1.428 . S
C1196 N1195 1.351 . S
C1196 C1197 1.434 . S
C1197 C1188 1.429 . S
C1197 N1194 1.350 . S
C1197 C1196 1.434 . S
C1198 C1199 1.369 . S
C1198 C1200 1.419 . S
C1198 H1202 0.930 . S
C1199 C1198 1.369 . S
C1199 C1208 1.429 . S
C1200 C1198 1.419 . S
C1200 C1201 1.363 . S
C1200 H1203 0.929 . S
C1201 C1200 1.363 . S
C1201 C1207 1.428 . S
H1202 C1198 0.930 . S
H1203 C1200 0.929 . S
S1204 N1205 1.613 . S
S1204 N1206 1.610 . S
N1205 S1204 1.613 . S
N1205 C1208 1.350 . S
N1206 S1204 1.610 . S
N1206 C1207 1.351 . S
C1207 C1201 1.428 . S
C1207 N1206 1.351 . S
C1207 C1208 1.434 . S
C1208 C1199 1.429 . S
C1208 N1205 1.350 . S
C1208 C1207 1.434 . S
C1209 C1210 1.369 . S
C1209 C1211 1.419 . S
C1209 H1213 0.930 . S
C1210 C1209 1.369 . S
C1210 C1219 1.429 . S
C1211 C1209 1.419 . S
C1211 C1212 1.363 . S
C1211 H1214 0.929 . S
C1212 C1211 1.363 . S
C1212 C1218 1.428 . S
H1213 C1209 0.930 . S
H1214 C1211 0.929 . S
S1215 N1216 1.613 . S
S1215 N1217 1.610 . S
N1216 S1215 1.613 . S
N1216 C1219 1.350 . S
N1217 S1215 1.610 . S
N1217 C1218 1.351 . S
C1218 C1212 1.428 . S
C1218 N1217 1.351 . S
C1218 C1219 1.434 . S
C1219 C1210 1.429 . S
C1219 N1216 1.350 . S
C1219 C1218 1.434 . S
C1220 C1221 1.369 . S
C1220 C1222 1.419 . S
C1220 H1224 0.930 . S
C1221 C1220 1.369 . S
C1221 C1230 1.429 . S
C1222 C1220 1.419 . S
C1222 C1223 1.363 . S
C1222 H1225 0.929 . S
C1223 C1222 1.363 . S
C1223 C1229 1.428 . S
H1224 C1220 0.930 . S
H1225 C1222 0.929 . S
S1226 N1227 1.613 . S
S1226 N1228 1.610 . S
N1227 S1226 1.613 . S
N1227 C1230 1.350 . S
N1228 S1226 1.610 . S
N1228 C1229 1.351 . S
C1229 C1223 1.428 . S
C1229 N1228 1.351 . S
C1229 C1230 1.434 . S
C1230 C1221 1.429 . S
C1230 N1227 1.350 . S
C1230 C1229 1.434 . S
C1231 C1232 1.369 . S
C1231 C1233 1.419 . S
C1231 H1235 0.930 . S
C1232 C1231 1.369 . S
C1232 C1241 1.429 . S
C1233 C1231 1.419 . S
C1233 C1234 1.363 . S
C1233 H1236 0.929 . S
C1234 C1233 1.363 . S
C1234 C1240 1.428 . S
H1235 C1231 0.930 . S
H1236 C1233 0.929 . S
S1237 N1238 1.613 . S
S1237 N1239 1.610 . S
N1238 S1237 1.613 . S
N1238 C1241 1.350 . S
N1239 S1237 1.610 . S
N1239 C1240 1.351 . S
C1240 C1234 1.428 . S
C1240 N1239 1.351 . S
C1240 C1241 1.434 . S
C1241 C1232 1.429 . S
C1241 N1238 1.350 . S
C1241 C1240 1.434 . S
C1242 C1243 1.369 . S
C1242 C1244 1.419 . S
C1242 H1246 0.930 . S
C1243 C1242 1.369 . S
C1243 C1252 1.429 . S
C1244 C1242 1.419 . S
C1244 C1245 1.363 . S
C1244 H1247 0.929 . S
C1245 C1244 1.363 . S
C1245 C1251 1.428 . S
H1246 C1242 0.930 . S
H1247 C1244 0.929 . S
S1248 N1249 1.613 . S
S1248 N1250 1.610 . S
N1249 S1248 1.613 . S
N1249 C1252 1.350 . S
N1250 S1248 1.610 . S
N1250 C1251 1.351 . S
C1251 C1245 1.428 . S
C1251 N1250 1.351 . S
C1251 C1252 1.434 . S
C1252 C1243 1.429 . S
C1252 N1249 1.350 . S
C1252 C1251 1.434 . S
C1253 C1254 1.369 . S
C1253 C1255 1.419 . S
C1253 H1257 0.930 . S
C1254 C1253 1.369 . S
C1254 C1263 1.429 . S
C1255 C1253 1.419 . S
C1255 C1256 1.363 . S
C1255 H1258 0.929 . S
C1256 C1255 1.363 . S
C1256 C1262 1.428 . S
H1257 C1253 0.930 . S
H1258 C1255 0.929 . S
S1259 N1260 1.613 . S
S1259 N1261 1.610 . S
N1260 S1259 1.613 . S
N1260 C1263 1.350 . S
N1261 S1259 1.610 . S
N1261 C1262 1.351 . S
C1262 C1256 1.428 . S
C1262 N1261 1.351 . S
C1262 C1263 1.434 . S
C1263 C1254 1.429 . S
C1263 N1260 1.350 . S
C1263 C1262 1.434 . S
C1264 C1265 1.369 . S
C1264 C1266 1.419 . S
C1264 H1268 0.930 . S
C1265 C1264 1.369 . S
C1265 C1274 1.429 . S
C1266 C1264 1.419 . S
C1266 C1267 1.363 . S
C1266 H1269 0.929 . S
C1267 C1266 1.363 . S
C1267 C1273 1.428 . S
H1268 C1264 0.930 . S
H1269 C1266 0.929 . S
S1270 N1271 1.613 . S
S1270 N1272 1.610 . S
N1271 S1270 1.613 . S
N1271 C1274 1.350 . S
N1272 S1270 1.610 . S
N1272 C1273 1.351 . S
C1273 C1267 1.428 . S
C1273 N1272 1.351 . S
C1273 C1274 1.434 . S
C1274 C1265 1.429 . S
C1274 N1271 1.350 . S
C1274 C1273 1.434 . S
C1275 C1276 1.369 . S
C1275 C1277 1.419 . S
C1275 H1279 0.930 . S
C1276 C1275 1.369 . S
C1276 C1285 1.429 . S
C1277 C1275 1.419 . S
C1277 C1278 1.363 . S
C1277 H1280 0.929 . S
C1278 C1277 1.363 . S
C1278 C1284 1.428 . S
H1279 C1275 0.930 . S
H1280 C1277 0.929 . S
S1281 N1282 1.613 . S
S1281 N1283 1.610 . S
N1282 S1281 1.613 . S
N1282 C1285 1.350 . S
N1283 S1281 1.610 . S
N1283 C1284 1.351 . S
C1284 C1278 1.428 . S
C1284 N1283 1.351 . S
C1284 C1285 1.434 . S
C1285 C1276 1.429 . S
C1285 N1282 1.350 . S
C1285 C1284 1.434 . S
C1286 C1287 1.369 . S
C1286 C1288 1.419 . S
C1286 H1290 0.930 . S
C1287 C1286 1.369 . S
C1287 C1296 1.429 1_556 S
C1288 C1286 1.419 . S
C1288 C1289 1.363 . S
C1288 H1291 0.929 . S
C1289 C1288 1.363 . S
C1289 C1295 1.428 1_556 S
H1290 C1286 0.930 . S
H1291 C1288 0.929 . S
S1292 N1293 1.613 . S
S1292 N1294 1.610 . S
N1293 S1292 1.613 . S
N1293 C1296 1.350 . S
N1294 S1292 1.610 . S
N1294 C1295 1.351 . S
C1295 C1289 1.428 1_554 S
C1295 N1294 1.351 . S
C1295 C1296 1.434 . S
C1296 C1287 1.429 1_554 S
C1296 N1293 1.350 . S
C1296 C1295 1.434 . S
C1297 C1298 1.369 . S
C1297 C1299 1.419 . S
C1297 H1301 0.930 . S
C1298 C1297 1.369 . S
C1298 C1307 1.429 1_556 S
C1299 C1297 1.419 . S
C1299 C1300 1.363 . S
C1299 H1302 0.929 . S
C1300 C1299 1.363 . S
C1300 C1306 1.428 1_556 S
H1301 C1297 0.930 . S
H1302 C1299 0.929 . S
S1303 N1304 1.613 . S
S1303 N1305 1.610 . S
N1304 S1303 1.613 . S
N1304 C1307 1.350 . S
N1305 S1303 1.610 . S
N1305 C1306 1.351 . S
C1306 C1300 1.428 1_554 S
C1306 N1305 1.351 . S
C1306 C1307 1.434 . S
C1307 C1298 1.429 1_554 S
C1307 N1304 1.350 . S
C1307 C1306 1.434 . S
C1308 C1309 1.369 . S
C1308 C1310 1.419 . S
C1308 H1312 0.930 . S
C1309 C1308 1.369 . S
C1309 C1318 1.429 . S
C1310 C1308 1.419 . S
C1310 C1311 1.363 . S
C1310 H1313 0.929 . S
C1311 C1310 1.363 . S
C1311 C1317 1.428 . S
H1312 C1308 0.930 . S
H1313 C1310 0.929 . S
S1314 N1315 1.613 . S
S1314 N1316 1.610 . S
N1315 S1314 1.613 . S
N1315 C1318 1.350 . S
N1316 S1314 1.610 . S
N1316 C1317 1.351 . S
C1317 C1311 1.428 . S
C1317 N1316 1.351 . S
C1317 C1318 1.434 . S
C1318 C1309 1.429 . S
C1318 N1315 1.350 . S
C1318 C1317 1.434 . S
C1319 C1320 1.369 . S
C1319 C1321 1.419 . S
C1319 H1323 0.930 . S
C1320 C1319 1.369 . S
C1320 C1329 1.429 . S
C1321 C1319 1.419 . S
C1321 C1322 1.363 . S
C1321 H1324 0.929 . S
C1322 C1321 1.363 . S
C1322 C1328 1.428 . S
H1323 C1319 0.930 . S
H1324 C1321 0.929 . S
S1325 N1326 1.613 . S
S1325 N1327 1.610 . S
N1326 S1325 1.613 . S
N1326 C1329 1.350 . S
N1327 S1325 1.610 . S
N1327 C1328 1.351 . S
C1328 C1322 1.428 . S
C1328 N1327 1.351 . S
C1328 C1329 1.434 . S
C1329 C1320 1.429 . S
C1329 N1326 1.350 . S
C1329 C1328 1.434 . S
C1330 C1331 1.364 1_556 S
C1330 C1332 1.418 . S
C1330 H1334 0.937 . S
C1331 C1330 1.364 1_554 S
C1331 C1340 1.429 . S
C1332 C1330 1.418 . S
C1332 C1333 1.359 1_556 S
C1332 H1335 0.933 . S
C1333 C1332 1.359 1_554 S
C1333 C1339 1.428 . S
H1334 C1330 0.937 . S
H1335 C1332 0.933 . S
S1336 N1337 1.613 . S
S1336 N1338 1.610 . S
N1337 S1336 1.613 . S
N1337 C1340 1.350 . S
N1338 S1336 1.610 . S
N1338 C1339 1.351 . S
C1339 C1333 1.428 . S
C1339 N1338 1.351 . S
C1339 C1340 1.434 . S
C1340 C1331 1.429 . S
C1340 N1337 1.350 . S
C1340 C1339 1.434 . S
C1341 C1342 1.369 . S
C1341 C1343 1.419 . S
C1341 H1345 0.930 . S
C1342 C1341 1.369 . S
C1342 C1351 1.429 1_554 S
C1343 C1341 1.419 . S
C1343 C1344 1.363 . S
C1343 H1346 0.929 . S
C1344 C1343 1.363 . S
C1344 C1350 1.428 1_554 S
H1345 C1341 0.930 . S
H1346 C1343 0.929 . S
S1347 N1348 1.613 . S
S1347 N1349 1.610 . S
N1348 S1347 1.613 . S
N1348 C1351 1.350 . S
N1349 S1347 1.610 . S
N1349 C1350 1.351 . S
C1350 C1344 1.428 1_556 S
C1350 N1349 1.351 . S
C1350 C1351 1.434 . S
C1351 C1342 1.429 1_556 S
C1351 N1348 1.350 . S
C1351 C1350 1.434 . S
C1352 C1353 1.369 . S
C1352 C1354 1.419 . S
C1352 H1356 0.930 . S
C1353 C1352 1.369 . S
C1353 C1362 1.429 . S
C1354 C1352 1.419 . S
C1354 C1355 1.363 . S
C1354 H1357 0.929 . S
C1355 C1354 1.363 . S
C1355 C1361 1.428 . S
H1356 C1352 0.930 . S
H1357 C1354 0.929 . S
S1358 N1359 1.613 . S
S1358 N1360 1.610 . S
N1359 S1358 1.613 . S
N1359 C1362 1.350 . S
N1360 S1358 1.610 . S
N1360 C1361 1.351 . S
C1361 C1355 1.428 . S
C1361 N1360 1.351 . S
C1361 C1362 1.434 . S
C1362 C1353 1.429 . S
C1362 N1359 1.350 . S
C1362 C1361 1.434 . S
C1363 C1364 1.369 . S
C1363 C1365 1.419 . S
C1363 H1367 0.930 . S
C1364 C1363 1.369 . S
C1364 C1373 1.429 . S
C1365 C1363 1.419 . S
C1365 C1366 1.363 . S
C1365 H1368 0.929 . S
C1366 C1365 1.363 . S
C1366 C1372 1.428 . S
H1367 C1363 0.930 . S
H1368 C1365 0.929 . S
S1369 N1370 1.613 . S
S1369 N1371 1.610 . S
N1370 S1369 1.613 . S
N1370 C1373 1.350 . S
N1371 S1369 1.610 . S
N1371 C1372 1.351 . S
C1372 C1366 1.428 . S
C1372 N1371 1.351 . S
C1372 C1373 1.434 . S
C1373 C1364 1.429 . S
C1373 N1370 1.350 . S
C1373 C1372 1.434 . S
C1374 C1375 1.369 . S
C1374 C1376 1.419 . S
C1374 H1378 0.930 . S
C1375 C1374 1.369 . S
C1375 C1384 1.429 . S
C1376 C1374 1.419 . S
C1376 C1377 1.363 . S
C1376 H1379 0.929 . S
C1377 C1376 1.363 . S
C1377 C1383 1.428 . S
H1378 C1374 0.930 . S
H1379 C1376 0.929 . S
S1380 N1381 1.613 . S
S1380 N1382 1.610 . S
N1381 S1380 1.613 . S
N1381 C1384 1.350 . S
N1382 S1380 1.610 . S
N1382 C1383 1.351 . S
C1383 C1377 1.428 . S
C1383 N1382 1.351 . S
C1383 C1384 1.434 . S
C1384 C1375 1.429 . S
C1384 N1381 1.350 . S
C1384 C1383 1.434 . S
C1385 C1386 1.369 . S
C1385 C1387 1.419 . S
C1385 H1389 0.930 . S
C1386 C1385 1.369 . S
C1386 C1395 1.429 . S
C1387 C1385 1.419 . S
C1387 C1388 1.363 . S
C1387 H1390 0.929 . S
C1388 C1387 1.363 . S
C1388 C1394 1.428 . S
H1389 C1385 0.930 . S
H1390 C1387 0.929 . S
S1391 N1392 1.613 . S
S1391 N1393 1.610 . S
N1392 S1391 1.613 . S
N1392 C1395 1.350 . S
N1393 S1391 1.610 . S
N1393 C1394 1.351 . S
C1394 C1388 1.428 . S
C1394 N1393 1.351 . S
C1394 C1395 1.434 . S
C1395 C1386 1.429 . S
C1395 N1392 1.350 . S
C1395 C1394 1.434 . S
C1396 C1397 1.369 . S
C1396 C1398 1.419 . S
C1396 H1400 0.930 . S
C1397 C1396 1.369 . S
C1397 C1406 1.429 . S
C1398 C1396 1.419 . S
C1398 C1399 1.363 . S
C1398 H1401 0.929 . S
C1399 C1398 1.363 . S
C1399 C1405 1.428 . S
H1400 C1396 0.930 . S
H1401 C1398 0.929 . S
S1402 N1403 1.613 . S
S1402 N1404 1.610 . S
N1403 S1402 1.613 . S
N1403 C1406 1.350 . S
N1404 S1402 1.610 . S
N1404 C1405 1.351 . S
C1405 C1399 1.428 . S
C1405 N1404 1.351 . S
C1405 C1406 1.434 . S
C1406 C1397 1.429 . S
C1406 N1403 1.350 . S
C1406 C1405 1.434 . S
C1407 C1408 1.369 . S
C1407 C1409 1.419 . S
C1407 H1411 0.930 . S
C1408 C1407 1.369 . S
C1408 C1417 1.429 . S
C1409 C1407 1.419 . S
C1409 C1410 1.363 . S
C1409 H1412 0.929 . S
C1410 C1409 1.363 . S
C1410 C1416 1.428 . S
H1411 C1407 0.930 . S
H1412 C1409 0.929 . S
S1413 N1414 1.613 . S
S1413 N1415 1.610 . S
N1414 S1413 1.613 . S
N1414 C1417 1.350 . S
N1415 S1413 1.610 . S
N1415 C1416 1.351 . S
C1416 C1410 1.428 . S
C1416 N1415 1.351 . S
C1416 C1417 1.434 . S
C1417 C1408 1.429 . S
C1417 N1414 1.350 . S
C1417 C1416 1.434 . S
C1418 C1419 1.369 . S
C1418 C1420 1.419 . S
C1418 H1422 0.930 . S
C1419 C1418 1.369 . S
C1419 C1428 1.429 . S
C1420 C1418 1.419 . S
C1420 C1421 1.363 . S
C1420 H1423 0.929 . S
C1421 C1420 1.363 . S
C1421 C1427 1.428 . S
H1422 C1418 0.930 . S
H1423 C1420 0.929 . S
S1424 N1425 1.613 . S
S1424 N1426 1.610 . S
N1425 S1424 1.613 . S
N1425 C1428 1.350 . S
N1426 S1424 1.610 . S
N1426 C1427 1.351 . S
C1427 C1421 1.428 . S
C1427 N1426 1.351 . S
C1427 C1428 1.434 . S
C1428 C1419 1.429 . S
C1428 N1425 1.350 . S
C1428 C1427 1.434 . S
C1429 C1430 1.369 . S
C1429 C1431 1.419 . S
C1429 H1433 0.930 . S
C1430 C1429 1.369 . S
C1430 C1439 1.429 . S
C1431 C1429 1.419 . S
C1431 C1432 1.363 . S
C1431 H1434 0.929 . S
C1432 C1431 1.363 . S
C1432 C1438 1.428 . S
H1433 C1429 0.930 . S
H1434 C1431 0.929 . S
S1435 N1436 1.613 . S
S1435 N1437 1.610 . S
N1436 S1435 1.613 . S
N1436 C1439 1.350 . S
N1437 S1435 1.610 . S
N1437 C1438 1.351 . S
C1438 C1432 1.428 . S
C1438 N1437 1.351 . S
C1438 C1439 1.434 . S
C1439 C1430 1.429 . S
C1439 N1436 1.350 . S
C1439 C1438 1.434 . S
C737 C7 1.634 . S
C739 C76 1.634 . S
C748 C53 1.633 . S
C750 C30 1.635 . S
C759 C99 1.638 . S
C761 C168 1.636 . S
C770 C145 1.638 . S
C772 C122 1.636 . S
C781 C191 1.634 . S
C783 C260 1.634 . S
C792 C237 1.638 . S
C794 C214 1.637 . S
C803 C283 1.637 . S
C805 C352 1.634 . S
C814 C306 1.638 . S
C816 C329 1.637 . S
C825 C444 1.635 . S
C827 C375 1.637 . S
C836 C398 1.634 . S
C838 C421 1.634 . S
C847 C467 1.638 . S
C849 C536 1.637 . S
C858 C513 1.638 . S
C860 C490 1.636 . S
C869 C559 1.633 . S
C871 C628 1.634 . S
C880 C605 1.633 . S
C882 C582 1.634 . S
C891 C651 1.634 . S
C893 C720 1.634 . S
C902 C674 1.636 . S
C904 C697 1.634 . S
C913 N288 1.488 . S
C915 N12 1.493 . S
C924 N35 1.492 . S
C926 N495 1.491 . S
C935 N58 1.491 . S
C937 N150 1.491 . S
C946 N725 1.491 . S
C948 N81 1.491 . S
C957 N104 1.488 . S
C959 N196 1.493 . S
C968 N403 1.489 . S
C970 N127 1.493 . S
C979 N633 1.494 . S
C981 N173 1.489 . S
C990 N679 1.490 . S
C992 N219 1.491 . S
C1001 N334 1.488 . S
C1003 N242 1.493 . S
C1012 N541 1.490 . S
C1014 N265 1.492 . S
C1023 N311 1.491 . S
C1025 N587 1.491 . S
C1034 N449 1.491 . S
C1036 N357 1.491 . S
C1045 N656 1.488 . S
C1047 N380 1.493 . S
C1056 N518 1.490 . S
C1058 N426 1.492 . S
C1067 N564 1.489 . S
C1069 N472 1.493 . S
C1078 N610 1.491 . S
C1080 N702 1.491 . S
C1089 C246 1.667 . S
C1091 C16 1.661 . S
C1100 C39 1.664 . S
C1102 C269 1.659 . S
C1111 C200 1.663 . S
C1113 C62 1.665 . S
C1122 C223 1.666 . S
C1124 C85 1.659 . S
C1133 C108 1.667 . S
C1135 C338 1.660 . S
C1144 C131 1.662 . S
C1146 C361 1.665 . S
C1155 C292 1.660 . S
C1157 C154 1.666 . S
C1166 C177 1.665 . S
C1168 C315 1.659 . S
C1177 C614 1.658 . S
C1179 C384 1.663 . S
C1188 C637 1.660 . S
C1190 C407 1.666 . S
C1199 C430 1.658 . S
C1201 C568 1.662 . S
C1210 C453 1.667 . S
C1212 C591 1.660 . S
C1221 C476 1.664 . S
C1223 C706 1.664 . S
C1232 C499 1.658 . S
C1234 C729 1.665 . S
C1243 C660 1.666 . S
C1245 C522 1.659 . S
C1254 C683 1.666 . S
C1256 C545 1.662 . S
C1265 N2 1.467 . S
C1267 N577 1.475 . S
C1276 N554 1.466 . S
C1278 N25 1.475 . S
C1287 N48 1.470 1_556 S
C1289 N623 1.467 1_556 S
C1298 N71 1.465 1_556 S
C1300 N600 1.471 1_556 S
C1309 N94 1.466 . S
C1311 N669 1.474 . S
C1320 N117 1.466 . S
C1322 N646 1.475 . S
C1331 N715 1.475 1_554 S
C1333 N140 1.468 1_554 S
C1342 N692 1.465 1_554 S
C1344 N163 1.473 1_554 S
C1353 N393 1.477 . S
C1355 N186 1.468 . S
C1364 N370 1.477 . S
C1366 N209 1.468 . S
C1375 N232 1.473 . S
C1377 N439 1.475 . S
C1386 N255 1.467 . S
C1388 N416 1.473 . S
C1397 N485 1.476 . S
C1399 N278 1.468 . S
C1408 N301 1.467 . S
C1410 N462 1.473 . S
C1419 N324 1.477 . S
C1421 N531 1.470 . S
C1430 N347 1.466 . S
C1432 N508 1.475 . S
