# Generated by pormake.
# Topology wkx, (5)-cn, num edge types: 1
# Building blocks:
#     Node 0, Type 0, BuildingBlock: BEQFEK_clean_sbu_0, # of connection points: 5
#     Node 1, Type 0, BuildingBlock: BEQFEK_clean_sbu_0, # of connection points: 5
#     Node 2, Type 0, BuildingBlock: BEQFEK_clean_sbu_0, # of connection points: 5
#     Node 3, Type 0, BuildingBlock: BEQFEK_clean_sbu_0, # of connection points: 5
#     Node 4, Type 0, BuildingBlock: BEQFEK_clean_sbu_0, # of connection points: 5
#     Node 5, Type 0, BuildingBlock: BEQFEK_clean_sbu_0, # of connection points: 5
#     Node 6, Type 0, BuildingBlock: BEQFEK_clean_sbu_0, # of connection points: 5
#     Node 7, Type 0, BuildingBlock: BEQFEK_clean_sbu_0, # of connection points: 5
#     Node 8, Type 0, BuildingBlock: BEQFEK_clean_sbu_0, # of connection points: 5
#     Node 9, Type 0, BuildingBlock: BEQFEK_clean_sbu_0, # of connection points: 5
#     Node 10, Type 0, BuildingBlock: BEQFEK_clean_sbu_0, # of connection points: 5
#     Node 11, Type 0, BuildingBlock: BEQFEK_clean_sbu_0, # of connection points: 5
#     Edge 12, Type (0, 0), BuildingBlock: XUDNAN_clean_linker_2, # of connection points: 2
#     Edge 13, Type (0, 0), BuildingBlock: XUDNAN_clean_linker_2, # of connection points: 2
#     Edge 14, Type (0, 0), BuildingBlock: XUDNAN_clean_linker_2, # of connection points: 2
#     Edge 15, Type (0, 0), BuildingBlock: XUDNAN_clean_linker_2, # of connection points: 2
#     Edge 16, Type (0, 0), BuildingBlock: XUDNAN_clean_linker_2, # of connection points: 2
#     Edge 17, Type (0, 0), BuildingBlock: XUDNAN_clean_linker_2, # of connection points: 2
#     Edge 18, Type (0, 0), BuildingBlock: XUDNAN_clean_linker_2, # of connection points: 2
#     Edge 19, Type (0, 0), BuildingBlock: XUDNAN_clean_linker_2, # of connection points: 2
#     Edge 20, Type (0, 0), BuildingBlock: XUDNAN_clean_linker_2, # of connection points: 2
#     Edge 21, Type (0, 0), BuildingBlock: XUDNAN_clean_linker_2, # of connection points: 2
#     Edge 22, Type (0, 0), BuildingBlock: XUDNAN_clean_linker_2, # of connection points: 2
#     Edge 23, Type (0, 0), BuildingBlock: XUDNAN_clean_linker_2, # of connection points: 2
#     Edge 24, Type (0, 0), BuildingBlock: XUDNAN_clean_linker_2, # of connection points: 2
#     Edge 25, Type (0, 0), BuildingBlock: XUDNAN_clean_linker_2, # of connection points: 2
#     Edge 26, Type (0, 0), BuildingBlock: XUDNAN_clean_linker_2, # of connection points: 2
#     Edge 27, Type (0, 0), BuildingBlock: XUDNAN_clean_linker_2, # of connection points: 2
#     Edge 28, Type (0, 0), BuildingBlock: XUDNAN_clean_linker_2, # of connection points: 2
#     Edge 29, Type (0, 0), BuildingBlock: XUDNAN_clean_linker_2, # of connection points: 2
#     Edge 30, Type (0, 0), BuildingBlock: XUDNAN_clean_linker_2, # of connection points: 2
#     Edge 31, Type (0, 0), BuildingBlock: XUDNAN_clean_linker_2, # of connection points: 2
#     Edge 32, Type (0, 0), BuildingBlock: XUDNAN_clean_linker_2, # of connection points: 2
#     Edge 33, Type (0, 0), BuildingBlock: XUDNAN_clean_linker_2, # of connection points: 2
#     Edge 34, Type (0, 0), BuildingBlock: XUDNAN_clean_linker_2, # of connection points: 2
#     Edge 35, Type (0, 0), BuildingBlock: XUDNAN_clean_linker_2, # of connection points: 2
#     Edge 36, Type (0, 0), BuildingBlock: XUDNAN_clean_linker_2, # of connection points: 2
#     Edge 37, Type (0, 0), BuildingBlock: XUDNAN_clean_linker_2, # of connection points: 2
#     Edge 38, Type (0, 0), BuildingBlock: XUDNAN_clean_linker_2, # of connection points: 2
#     Edge 39, Type (0, 0), BuildingBlock: XUDNAN_clean_linker_2, # of connection points: 2
#     Edge 40, Type (0, 0), BuildingBlock: XUDNAN_clean_linker_2, # of connection points: 2
#     Edge 41, Type (0, 0), BuildingBlock: XUDNAN_clean_linker_2, # of connection points: 2
# Relax obj value: 0.426
# Max RMSD: 0.258
# Mean RMSD: 0.258
data_MOF--net-wkx--node1-BEQFEK_clean_sbu_0--edge1-XUDNAN_clean_linker_2
_symmetry_space_group_name_H-M    P1
_symmetry_Int_Tables_number       1
_symmetry_cell_setting            triclinic
loop_
_symmetry_equiv_pos_as_xyz
'x, y, z'
_cell_length_a     35.474684
_cell_length_b     35.501966
_cell_length_c     76.129314
_cell_angle_alpha  90.059822
_cell_angle_beta   89.913014
_cell_angle_gamma 120.0827
loop_
_atom_site_label
_atom_site_type_symbol
_atom_site_fract_x
_atom_site_fract_y
_atom_site_fract_z
_atom_type_partial_charge
Co0 Co 0.21207 0.16093 0.44243 0.0
Co1 Co 0.31149 0.20922 0.4502 0.0
C2 C 0.25046 0.23794 0.46565 0.0
O3 O 0.21851 0.20949 0.45684 0.0
O4 O 0.28793 0.24138 0.46435 0.0
C5 C 0.12202 0.13763 0.43778 0.0
O6 O 0.13172 0.17265 0.44697 0.0
C7 C 0.39456 0.2836 0.44174 0.0
C8 C 0.44225 0.26437 0.44988 0.0
C9 C 0.43863 0.29682 0.44123 0.0
N10 N 0.37323 0.24479 0.44976 0.0
N11 N 0.40188 0.23364 0.45487 0.0
C12 C 0.37223 0.30672 0.43469 0.0
H13 H 0.36211 0.29638 0.42092 0.0
H14 H 0.39423 0.34253 0.43507 0.0
H15 H 0.34242 0.29793 0.44238 0.0
C16 C 0.24201 0.16168 0.40649 0.0
N17 N 0.25001 0.17697 0.42309 0.0
N18 N 0.29203 0.19587 0.42622 0.0
C19 C 0.31211 0.19275 0.4116 0.0
C20 C 0.28107 0.17111 0.3986 0.0
C21 C 0.19728 0.1334 0.39918 0.0
H22 H 0.18193 0.10124 0.40581 0.0
H23 H 0.17697 0.14844 0.40186 0.0
H24 H 0.19825 0.12862 0.38481 0.0
O25 O 0.22231 0.12185 0.45765 0.0
O26 O 0.2936 0.1535 0.46267 0.0
H27 H 0.36603 0.1909 0.4234 0.0
H28 H 0.36437 0.18651 0.39975 0.0
C29 C 0.35831 0.20235 0.41111 0.0
H30 H 0.38041 0.23798 0.40999 0.0
H31 H 0.39371 0.20433 0.46108 0.0
O32 O 0.15128 0.12791 0.43451 0.0
C33 C 0.25489 0.12162 0.46461 0.0
Co34 Co 0.05373 0.21849 0.61081 0.0
Co35 Co 0.10381 0.31702 0.61934 0.0
C36 C 0.01188 0.25558 0.63251 0.0
O37 O 0.00846 0.22453 0.6231 0.0
O38 O 0.04704 0.29231 0.6328 0.0
C39 C 0.99237 0.13824 0.59364 0.0
O40 O 0.97389 0.15954 0.58741 0.0
C41 C 0.11413 0.40364 0.61871 0.0
C42 C 0.18552 0.44656 0.62051 0.0
C43 C 0.14684 0.44683 0.61864 0.0
N44 N 0.13251 0.37879 0.62054 0.0
N45 N 0.17516 0.40459 0.62185 0.0
C46 C 0.06664 0.38596 0.61538 0.0
H47 H 0.05209 0.35327 0.60921 0.0
H48 H 0.06144 0.40825 0.60682 0.0
H49 H 0.04997 0.38273 0.6281 0.0
C50 C 0.0913 0.25054 0.5757 0.0
N51 N 0.07992 0.25718 0.59183 0.0
N52 N 0.0999 0.29917 0.59515 0.0
C53 C 0.12401 0.3207 0.58093 0.0
C54 C 0.11971 0.29067 0.56814 0.0
C55 C 0.08244 0.20687 0.56932 0.0
H56 H 0.08592 0.18839 0.5803 0.0
H57 H 0.04854 0.18834 0.56435 0.0
H58 H 0.10492 0.2095 0.55865 0.0
O59 O 0.09928 0.2268 0.62781 0.0
O60 O 0.13991 0.29812 0.6322 0.0
H61 H 0.18271 0.37786 0.58862 0.0
H62 H 0.16513 0.37997 0.56656 0.0
C63 C 0.15395 0.3689 0.58019 0.0
H64 H 0.13691 0.38573 0.58517 0.0
H65 H 0.19728 0.39351 0.62307 0.0
O66 O 0.02607 0.15778 0.60321 0.0
C67 C 0.13188 0.25938 0.63487 0.0
Co68 Co 0.83311 0.04646 0.77732 0.0
Co69 Co 0.78565 0.098 0.7848 0.0
C70 C 0.75324 0.00553 0.79808 0.0
O71 O 0.78049 0.00123 0.78879 0.0
O72 O 0.753 0.04132 0.79841 0.0
C73 C 0.86421 0.9861 0.77731 0.0
O74 O 0.83598 0.96709 0.79009 0.0
C75 C 0.71164 0.10661 0.77563 0.0
C76 C 0.73004 0.17294 0.78441 0.0
C77 C 0.69829 0.13733 0.77523 0.0
N78 N 0.74984 0.12377 0.78411 0.0
N79 N 0.7605 0.16321 0.78957 0.0
C80 C 0.68919 0.06155 0.76812 0.0
H81 H 0.69813 0.0404 0.77558 0.0
H82 H 0.70001 0.06274 0.75434 0.0
H83 H 0.65329 0.04723 0.76838 0.0
C84 C 0.83829 0.08009 0.74164 0.0
N85 N 0.82146 0.07169 0.75799 0.0
N86 N 0.80191 0.0942 0.76097 0.0
C87 C 0.80611 0.11814 0.74649 0.0
C88 C 0.82918 0.10985 0.73374 0.0
C89 C 0.8667 0.06363 0.7345 0.0
H90 H 0.89851 0.08012 0.74141 0.0
H91 H 0.85129 0.02817 0.73701 0.0
H92 H 0.87228 0.06982 0.72018 0.0
O93 O 0.86898 0.09283 0.79459 0.0
O94 O 0.83963 0.13499 0.79817 0.0
H95 H 0.80543 0.17253 0.75844 0.0
H96 H 0.81216 0.17667 0.73487 0.0
C97 C 0.79553 0.154 0.74595 0.0
H98 H 0.7599 0.13973 0.7443 0.0
H99 H 0.7893 0.18407 0.7962 0.0
O100 O 0.86755 0.01985 0.77003 0.0
C101 C 0.86954 0.12602 0.80136 0.0
Co102 Co 0.77919 0.8283 0.94139 0.0
Co103 Co 0.67937 0.7816 0.94947 0.0
C104 C 0.7388 0.75115 0.96475 0.0
O105 O 0.77097 0.77897 0.95579 0.0
O106 O 0.70158 0.74836 0.96352 0.0
C107 C 0.87072 0.8606 0.94244 0.0
O108 O 0.86094 0.83681 0.95674 0.0
C109 C 0.58861 0.70983 0.94606 0.0
C110 C 0.55213 0.74244 0.95396 0.0
C111 C 0.54648 0.70296 0.94802 0.0
N112 N 0.61718 0.75133 0.95042 0.0
N113 N 0.59513 0.77052 0.95523 0.0
C114 C 0.60225 0.67795 0.94056 0.0
H115 H 0.6011 0.67533 0.92603 0.0
H116 H 0.58007 0.64537 0.94625 0.0
H117 H 0.63617 0.6892 0.94476 0.0
C118 C 0.74835 0.82839 0.90573 0.0
N119 N 0.74051 0.81295 0.92228 0.0
N120 N 0.69841 0.79355 0.92544 0.0
C121 C 0.67811 0.79618 0.91085 0.0
C122 C 0.70915 0.8185 0.89789 0.0
C123 C 0.79305 0.85714 0.89844 0.0
H124 H 0.80827 0.88902 0.9053 0.0
H125 H 0.8135 0.84216 0.90088 0.0
H126 H 0.79208 0.86244 0.88412 0.0
O127 O 0.77161 0.86856 0.95683 0.0
O128 O 0.70047 0.83808 0.96175 0.0
H129 H 0.62529 0.80221 0.92119 0.0
H130 H 0.62279 0.79394 0.8977 0.0
C131 C 0.63145 0.78497 0.9104 0.0
H132 H 0.61022 0.74948 0.91248 0.0
H133 H 0.60946 0.80299 0.95915 0.0
O134 O 0.84038 0.86049 0.93354 0.0
C135 C 0.73935 0.86932 0.96381 0.0
Co136 Co 0.9401 0.77602 0.11106 0.0
Co137 Co 0.89026 0.67651 0.11812 0.0
C138 C 0.98035 0.73812 0.1332 0.0
O139 O 0.98403 0.76978 0.12418 0.0
O140 O 0.94592 0.70089 0.13224 0.0
C141 C 0.99101 0.86605 0.11597 0.0
O142 O 0.99705 0.85311 0.13133 0.0
C143 C 0.88433 0.5944 0.10987 0.0
C144 C 0.81616 0.54587 0.11628 0.0
C145 C 0.8537 0.55036 0.10858 0.0
N146 N 0.86532 0.61494 0.11733 0.0
N147 N 0.8248 0.58574 0.12146 0.0
C148 C 0.9307 0.61748 0.10373 0.0
H149 H 0.93231 0.62973 0.09019 0.0
H150 H 0.94436 0.59539 0.10386 0.0
H151 H 0.95084 0.64598 0.11221 0.0
C152 C 0.90706 0.74792 0.07542 0.0
N153 N 0.91728 0.73936 0.09141 0.0
N154 N 0.89545 0.69718 0.09429 0.0
C155 C 0.87051 0.67745 0.08004 0.0
C156 C 0.87664 0.70888 0.06763 0.0
C157 C 0.91876 0.79282 0.06966 0.0
H158 H 0.90333 0.80575 0.07867 0.0
H159 H 0.95457 0.81454 0.07056 0.0
H160 H 0.908 0.79337 0.05605 0.0
O161 O 0.89141 0.76378 0.12698 0.0
O162 O 0.85143 0.69225 0.13114 0.0
H163 H 0.81415 0.62135 0.09036 0.0
H164 H 0.81881 0.62113 0.06666 0.0
C165 C 0.83715 0.63001 0.07919 0.0
H166 H 0.85365 0.61066 0.08019 0.0
H167 H 0.80249 0.59326 0.12704 0.0
O168 O 0.96734 0.83776 0.10461 0.0
C169 C 0.85854 0.73079 0.13373 0.0
Co170 Co 0.16402 0.94587 0.2769 0.0
Co171 Co 0.21232 0.89511 0.28544 0.0
C172 C 0.24471 0.98784 0.29784 0.0
O173 O 0.21635 0.99089 0.2888 0.0
O174 O 0.24632 0.95273 0.29814 0.0
C175 C 0.12944 0.00292 0.27775 0.0
O176 O 0.15365 0.01804 0.2919 0.0
C177 C 0.28306 0.87611 0.28003 0.0
C178 C 0.25101 0.80692 0.28781 0.0
C179 C 0.28877 0.84024 0.28045 0.0
N180 N 0.24347 0.8643 0.28661 0.0
N181 N 0.22498 0.82323 0.29168 0.0
C182 C 0.31173 0.9187 0.27114 0.0
H183 H 0.29498 0.93792 0.27004 0.0
H184 H 0.32113 0.91311 0.25789 0.0
H185 H 0.34204 0.93741 0.2789 0.0
C186 C 0.15664 0.9072 0.24216 0.0
N187 N 0.17574 0.91875 0.25807 0.0
N188 N 0.19624 0.89728 0.26139 0.0
C189 C 0.19079 0.87123 0.24749 0.0
C190 C 0.16527 0.87635 0.23484 0.0
C191 C 0.12359 0.91874 0.23601 0.0
H192 H 0.09673 0.90693 0.24576 0.0
H193 H 0.13897 0.95468 0.23526 0.0
H194 H 0.10965 0.90446 0.22304 0.0
O195 O 0.12689 0.90103 0.29428 0.0
O196 O 0.15791 0.86091 0.29898 0.0
H197 H 0.18993 0.81489 0.25798 0.0
H198 H 0.1977 0.82064 0.2344 0.0
C199 C 0.20551 0.83841 0.24707 0.0
H200 H 0.24123 0.85522 0.24883 0.0
H201 H 0.19343 0.80552 0.29672 0.0
O202 O 0.13012 0.97279 0.26898 0.0
C203 C 0.12718 0.86893 0.30162 0.0
Co204 Co 0.83883 0.78064 0.40513 0.0
Co205 Co 0.79294 0.68152 0.39778 0.0
C206 C 0.76063 0.74018 0.38289 0.0
O207 O 0.78867 0.77272 0.39159 0.0
O208 O 0.75878 0.70341 0.38402 0.0
C209 C 0.8577 0.86702 0.41553 0.0
O210 O 0.81551 0.85157 0.41664 0.0
C211 C 0.71745 0.59473 0.39943 0.0
C212 C 0.74613 0.55204 0.39826 0.0
C213 C 0.70706 0.55165 0.39992 0.0
N214 N 0.76072 0.61967 0.39752 0.0
N215 N 0.77773 0.59402 0.39664 0.0
C216 C 0.68742 0.61235 0.40218 0.0
H217 H 0.70509 0.64484 0.40853 0.0
H218 H 0.659 0.58988 0.41035 0.0
H219 H 0.67535 0.61608 0.38923 0.0
C220 C 0.8405 0.75201 0.44117 0.0
N221 N 0.82516 0.74349 0.42461 0.0
N222 N 0.80576 0.70133 0.42174 0.0
C223 C 0.80788 0.68159 0.4366 0.0
C224 C 0.83026 0.71312 0.44937 0.0
C225 C 0.86893 0.79695 0.44824 0.0
H226 H 0.9002 0.81287 0.44091 0.0
H227 H 0.85279 0.81645 0.44619 0.0
H228 H 0.87557 0.79648 0.46245 0.0
O229 O 0.87737 0.77196 0.38919 0.0
O230 O 0.8485 0.70092 0.38488 0.0
H231 H 0.81607 0.62854 0.42853 0.0
H232 H 0.79934 0.62537 0.45114 0.0
C233 C 0.79534 0.63466 0.43766 0.0
H234 H 0.7609 0.61407 0.43357 0.0
H235 H 0.811 0.60522 0.39539 0.0
O236 O 0.87233 0.84187 0.41179 0.0
C237 C 0.87875 0.74001 0.38231 0.0
Co238 Co 0.05522 0.84255 0.57007 0.0
Co239 Co 0.1063 0.79417 0.56428 0.0
C240 C 0.01357 0.76105 0.55085 0.0
O241 O 0.00908 0.78861 0.55982 0.0
O242 O 0.04956 0.76115 0.55069 0.0
C243 C 0.00378 0.88078 0.5645 0.0
O244 O 0.99614 0.85954 0.54958 0.0
C245 C 0.11225 0.71964 0.57516 0.0
C246 C 0.17778 0.73477 0.56647 0.0
C247 C 0.14165 0.7046 0.57591 0.0
N248 N 0.13062 0.7572 0.56617 0.0
N249 N 0.16962 0.76596 0.56082 0.0
C250 C 0.0672 0.69923 0.58266 0.0
H251 H 0.06898 0.71011 0.59645 0.0
H252 H 0.05117 0.66319 0.58234 0.0
H253 H 0.04724 0.70976 0.57524 0.0
C254 C 0.08899 0.85162 0.60604 0.0
N255 N 0.08071 0.83344 0.58994 0.0
N256 N 0.10288 0.81327 0.58763 0.0
C257 C 0.12645 0.81835 0.60231 0.0
C258 C 0.11835 0.84274 0.61449 0.0
C259 C 0.07218 0.88028 0.61249 0.0
H260 H 0.03699 0.86517 0.60938 0.0
H261 H 0.07701 0.88588 0.62686 0.0
H262 H 0.08958 0.91205 0.60557 0.0
O263 O 0.10098 0.87509 0.55215 0.0
O264 O 0.14394 0.84626 0.54995 0.0
H265 H 0.18459 0.82451 0.61441 0.0
H266 H 0.14661 0.77141 0.60596 0.0
C267 C 0.16161 0.80684 0.60355 0.0
H268 H 0.18001 0.81479 0.59103 0.0
H269 H 0.19115 0.79383 0.55381 0.0
O270 O 0.02882 0.87809 0.57572 0.0
C271 C 0.13422 0.8751 0.54571 0.0
Co272 Co 0.21942 0.06091 0.73952 0.0
Co273 Co 0.31797 0.11428 0.73133 0.0
C274 C 0.258 0.02243 0.71718 0.0
O275 O 0.22649 0.01695 0.72684 0.0
O276 O 0.29399 0.05844 0.71713 0.0
C277 C 0.13476 0.99478 0.75202 0.0
O278 O 0.15182 0.96982 0.75449 0.0
C279 C 0.40394 0.12373 0.73255 0.0
C280 C 0.44797 0.19492 0.73099 0.0
C281 C 0.44735 0.15582 0.73282 0.0
N282 N 0.37978 0.1428 0.7306 0.0
N283 N 0.40622 0.18536 0.72947 0.0
C284 C 0.38534 0.07604 0.73562 0.0
H285 H 0.35253 0.06183 0.74168 0.0
H286 H 0.40709 0.06999 0.74417 0.0
H287 H 0.38209 0.05973 0.72282 0.0
C288 C 0.24961 0.09317 0.77528 0.0
N289 N 0.25728 0.08558 0.75869 0.0
N290 N 0.29933 0.10806 0.75547 0.0
C291 C 0.31986 0.13057 0.77014 0.0
C292 C 0.28897 0.12203 0.78315 0.0
C293 C 0.20503 0.07713 0.7827 0.0
H294 H 0.18811 0.09064 0.77492 0.0
H295 H 0.18594 0.04117 0.78164 0.0
H296 H 0.20628 0.08652 0.79669 0.0
O297 O 0.22798 0.10733 0.72293 0.0
O298 O 0.29908 0.15089 0.71893 0.0
H299 H 0.37289 0.19137 0.76153 0.0
H300 H 0.37682 0.17876 0.7842 0.0
C301 C 0.36694 0.16488 0.77081 0.0
H302 H 0.38718 0.15071 0.76669 0.0
H303 H 0.39573 0.20792 0.72819 0.0
O304 O 0.15843 0.03359 0.74664 0.0
C305 C 0.25982 0.14113 0.71616 0.0
Co306 Co 0.15833 0.21562 0.90516 0.0
Co307 Co 0.20462 0.31486 0.89723 0.0
C308 C 0.23898 0.25605 0.88442 0.0
O309 O 0.21078 0.22375 0.89318 0.0
O310 O 0.23961 0.29234 0.8844 0.0
C311 C 0.13728 0.12996 0.918 0.0
O312 O 0.17902 0.14612 0.92106 0.0
C313 C 0.27581 0.40359 0.90376 0.0
C314 C 0.24614 0.44283 0.89593 0.0
C315 C 0.28302 0.44573 0.90347 0.0
N316 N 0.23634 0.37695 0.89682 0.0
N317 N 0.21917 0.40075 0.89182 0.0
C318 C 0.30322 0.38811 0.91257 0.0
H319 H 0.28527 0.35208 0.91366 0.0
H320 H 0.31309 0.40297 0.92582 0.0
H321 H 0.33332 0.39867 0.90476 0.0
C322 C 0.15371 0.24523 0.94077 0.0
N323 N 0.16989 0.25338 0.92432 0.0
N324 N 0.18903 0.29544 0.9212 0.0
C325 C 0.18536 0.31539 0.93575 0.0
C326 C 0.16297 0.2842 0.94862 0.0
C327 C 0.12573 0.20049 0.9481 0.0
H328 H 0.09567 0.18289 0.9401 0.0
H329 H 0.14353 0.18229 0.94728 0.0
H330 H 0.11676 0.20141 0.962 0.0
O331 O 0.12137 0.22395 0.88807 0.0
O332 O 0.15018 0.29491 0.88357 0.0
H333 H 0.18334 0.36974 0.92464 0.0
H334 H 0.1833 0.36907 0.94839 0.0
C335 C 0.19653 0.36199 0.93641 0.0
H336 H 0.23243 0.38322 0.93641 0.0
H337 H 0.18802 0.38795 0.8865 0.0
O338 O 0.12355 0.15434 0.91209 0.0
C339 C 0.12032 0.25573 0.88085 0.0
Co340 Co 0.93525 0.15176 0.07052 0.0
Co341 Co 0.8843 0.19919 0.06212 0.0
C342 C 0.9775 0.23235 0.04991 0.0
O343 O 0.98107 0.2046 0.05915 0.0
O344 O 0.94184 0.23287 0.04935 0.0
C345 C 0.99641 0.13261 0.08756 0.0
O346 O 0.01482 0.17236 0.0939 0.0
C347 C 0.8741 0.27527 0.0633 0.0
C348 C 0.80286 0.24729 0.06114 0.0
C349 C 0.84165 0.28603 0.06336 0.0
N350 N 0.85551 0.2321 0.0611 0.0
N351 N 0.81295 0.21552 0.05959 0.0
C352 C 0.9215 0.30465 0.06703 0.0
H353 H 0.93528 0.28614 0.07343 0.0
H354 H 0.92669 0.33226 0.07554 0.0
H355 H 0.93896 0.31797 0.05444 0.0
C356 C 0.89585 0.14397 0.10554 0.0
N357 N 0.90737 0.16231 0.08947 0.0
N358 N 0.88718 0.18408 0.08621 0.0
C359 C 0.86283 0.1811 0.1004 0.0
C360 C 0.86715 0.15528 0.11312 0.0
C361 C 0.90535 0.10963 0.1119 0.0
H362 H 0.9027 0.08806 0.10086 0.0
H363 H 0.93912 0.12552 0.11704 0.0
H364 H 0.88268 0.08927 0.12242 0.0
O365 O 0.89128 0.11557 0.05276 0.0
O366 O 0.84945 0.14491 0.04855 0.0
H367 H 0.80447 0.18016 0.09275 0.0
H368 H 0.82187 0.19927 0.1149 0.0
C369 C 0.83316 0.19961 0.10126 0.0
H370 H 0.85048 0.23363 0.09646 0.0
H371 H 0.79069 0.18239 0.05809 0.0
O372 O 0.96278 0.11851 0.07796 0.0
C373 C 0.85871 0.11517 0.04554 0.0
Co374 Co 0.77375 0.93056 0.23705 0.0
Co375 Co 0.67394 0.88157 0.22964 0.0
C376 C 0.73586 0.97262 0.21559 0.0
O377 O 0.76775 0.97485 0.22404 0.0
O378 O 0.69807 0.9388 0.2166 0.0
C379 C 0.85806 0.99384 0.25111 0.0
O380 O 0.84031 0.01746 0.2552 0.0
C381 C 0.58485 0.86704 0.23356 0.0
C382 C 0.5454 0.79766 0.22628 0.0
C383 C 0.542 0.83289 0.2321 0.0
N384 N 0.61178 0.85216 0.22909 0.0
N385 N 0.58795 0.81077 0.22464 0.0
C386 C 0.60058 0.91317 0.23885 0.0
H387 H 0.60119 0.91537 0.2534 0.0
H388 H 0.57862 0.92434 0.23365 0.0
H389 H 0.63415 0.93485 0.23402 0.0
C390 C 0.74343 0.89541 0.27249 0.0
N391 N 0.73573 0.90599 0.25641 0.0
N392 N 0.69351 0.88549 0.25349 0.0
C393 C 0.67291 0.86141 0.26783 0.0
C394 C 0.70379 0.86661 0.28036 0.0
C395 C 0.7878 0.90562 0.27848 0.0
H396 H 0.80388 0.89719 0.26792 0.0
H397 H 0.80786 0.94106 0.28104 0.0
H398 H 0.78674 0.88765 0.29052 0.0
O399 O 0.76352 0.88416 0.22041 0.0
O400 O 0.69202 0.84518 0.21605 0.0
H401 H 0.61569 0.80407 0.25903 0.0
H402 H 0.61474 0.81605 0.28211 0.0
C403 C 0.62489 0.83044 0.26881 0.0
H404 H 0.60726 0.84793 0.26562 0.0
H405 H 0.60077 0.79127 0.22074 0.0
O406 O 0.83508 0.95682 0.24398 0.0
C407 C 0.73047 0.85227 0.2133 0.0
H408 H 0.0942 0.06922 0.41547 0.0
H409 H 0.04756 0.13573 0.44928 0.0
H410 H 0.97167 0.07693 0.44413 0.0
H411 H 9e-05 0.02134 0.3843 0.0
H412 H 0.00255 0.97198 0.3825 0.0
H413 H 0.05166 0.02324 0.38621 0.0
H414 H 0.06768 0.99087 0.41383 0.0
H415 H 0.01853 0.9399 0.41033 0.0
H416 H 0.02737 0.96782 0.43103 0.0
H417 H 0.9019 0.0053 0.43854 0.0
H418 H 0.84565 0.92835 0.43289 0.0
H419 H 0.94045 0.9106 0.40348 0.0
C420 C 0.06802 0.07208 0.42145 0.0
C421 C 0.07664 0.10688 0.43278 0.0
C422 C 0.04155 0.10935 0.44045 0.0
C423 C -0.00162 0.07617 0.43758 0.0
C424 C 0.99112 0.0413 0.42685 0.0
C425 C 0.0251 0.03944 0.41876 0.0
C426 C 0.00969 0.99679 0.40935 0.0
C427 C 0.01638 0.00377 0.38941 0.0
C428 C 0.03213 0.97244 0.41658 0.0
C429 C 0.96204 0.97399 0.41411 0.0
C430 C 0.9515 0.00024 0.42389 0.0
C431 C 0.90964 0.9847 0.43064 0.0
C432 C 0.87799 0.94106 0.42743 0.0
C433 C 0.88892 0.91367 0.41787 0.0
C434 C 0.9312 0.93075 0.41091 0.0
H435 H 0.01602 0.93048 0.59352 0.0
H436 H 0.95417 0.89905 0.54228 0.0
H437 H 0.93353 0.95543 0.54632 0.0
H438 H 0.93927 0.95981 0.61525 0.0
H439 H 0.98321 0.00325 0.62736 0.0
H440 H 0.98552 0.95506 0.62182 0.0
H441 H 0.06023 0.00289 0.60665 0.0
H442 H 0.0581 0.05101 0.61208 0.0
H443 H 0.06486 0.04003 0.58952 0.0
H444 H 0.92918 0.02216 0.55417 0.0
H445 H 0.94357 0.09416 0.56481 0.0
H446 H 0.0088 0.08101 0.61056 0.0
C447 C 0.99712 0.9346 0.58333 0.0
C448 C 0.98663 0.9104 0.56761 0.0
C449 C 0.9624 0.91717 0.55448 0.0
C450 C 0.95035 0.94897 0.55668 0.0
C451 C 0.9624 0.97323 0.57216 0.0
C452 C 0.985 0.96611 0.5853 0.0
C453 C -0.00152 -0.0005 0.59977 0.0
C454 C 0.97521 0.97812 0.61707 0.0
C455 C 0.04835 0.02484 0.60212 0.0
C456 C 0.98199 0.02791 0.59229 0.0
C457 C 0.96033 0.01182 0.57658 0.0
C458 C 0.94533 0.03465 0.56663 0.0
C459 C 0.95361 0.07544 0.57275 0.0
C460 C 0.97729 0.09296 0.58846 0.0
C461 C 0.99049 0.06828 0.59851 0.0
H462 H 0.92808 0.0214 0.75261 0.0
H463 H 0.87186 0.91958 0.79206 0.0
H464 H 0.9311 0.90332 0.78695 0.0
H465 H 0.97226 0.96853 0.72314 0.0
H466 H 0.02022 0.02016 0.71855 0.0
H467 H 0.96907 0.01764 0.72297 0.0
H468 H 0.00564 0.07426 0.74794 0.0
H469 H 0.0566 0.07663 0.74374 0.0
H470 H 0.03307 0.06334 0.76543 0.0
H471 H 0.00209 0.90527 0.78027 0.0
H472 H 0.07829 0.92619 0.7729 0.0
H473 H 0.08683 0.02783 0.73868 0.0
C474 C 0.92745 0.99487 0.75987 0.0
C475 C 0.89541 0.97174 0.77272 0.0
C476 C 0.89608 0.93763 0.78209 0.0
C477 C 0.92951 0.92807 0.77924 0.0
C478 C 0.96158 0.95268 0.76689 0.0
C479 C 0.96051 0.98517 0.75727 0.0
C480 C 0.00099 0.01028 0.74625 0.0
C481 C 0.98996 0.00373 0.72656 0.0
C482 C 0.0255 0.05897 0.75115 0.0
C483 C 0.02594 0.98816 0.75173 0.0
C484 C 0.00253 0.95441 0.76335 0.0
C485 C 0.02046 0.93119 0.77097 0.0
C486 C 0.06367 0.94329 0.76676 0.0
C487 C 0.0883 0.9787 0.75533 0.0
C488 C 0.06877 0.00067 0.74752 0.0
H489 H 0.90084 0.925 0.91787 0.0
H490 H 0.94405 0.86819 0.95791 0.0
H491 H 0.02002 0.92733 0.95346 0.0
H492 H -0.00077 0.96903 0.88925 0.0
H493 H 0.99642 0.0173 0.8845 0.0
H494 H 0.94718 0.96646 0.88867 0.0
H495 H 0.92681 0.00336 0.9134 0.0
H496 H 0.97604 0.05403 0.90943 0.0
H497 H 0.96466 0.03042 0.93111 0.0
H498 H 0.09 0.99755 0.94696 0.0
H499 H 0.14685 0.07295 0.93943 0.0
H500 H 0.05574 0.08331 0.90462 0.0
C501 C 0.92637 0.92421 0.92536 0.0
C502 C 0.91661 0.8919 0.93817 0.0
C503 C 0.95087 0.89256 0.94796 0.0
C504 C 0.99412 0.92594 0.94548 0.0
C505 C 0.00242 0.95818 0.93314 0.0
C506 C 0.96942 0.95736 0.92318 0.0
C507 C 0.98578 0.99797 0.91218 0.0
C508 C 0.98194 0.98702 0.89248 0.0
C509 C 0.96192 0.0229 0.91682 0.0
C510 C 0.03279 0.02252 0.91795 0.0
C511 C 0.04217 -0.00114 0.92978 0.0
C512 C 0.08318 0.01614 0.93754 0.0
C513 C 0.1152 0.05892 0.93322 0.0
C514 C 0.10555 0.08388 0.92152 0.0
C515 C 0.06404 0.06503 0.91364 0.0
H516 H 0.97584 0.90208 0.08719 0.0
H517 H 0.04201 0.93495 0.13755 0.0
H518 H 0.06099 0.01151 0.13354 0.0
H519 H 0.04918 0.00827 0.0647 0.0
H520 H 0.00372 0.00646 0.05337 0.0
H521 H 0.00296 0.9566 0.05867 0.0
H522 H 0.92946 0.92875 0.07497 0.0
H523 H 0.9301 0.97841 0.06982 0.0
H524 H 0.92569 0.96122 0.09237 0.0
H525 H 0.06342 0.08175 0.12596 0.0
H526 H 0.04734 0.13846 0.11577 0.0
H527 H 0.97878 0.05821 0.07079 0.0
C528 C 0.99541 0.92557 0.09716 0.0
C529 C 0.00754 0.91265 0.11265 0.0
C530 C 0.03249 0.94423 0.12553 0.0
C531 C 0.04361 0.98782 0.12333 0.0
C532 C 0.02987 -0.00077 0.10813 0.0
C533 C 0.00656 0.96899 0.09521 0.0
C534 C 0.99123 0.98803 0.0811 0.0
C535 C 0.0131 0.98996 0.06341 0.0
C536 C 0.94118 0.9626 0.07949 0.0
C537 C 0.00761 0.03303 0.08853 0.0
C538 C 0.03072 0.03939 0.10391 0.0
C539 C 0.0461 0.07747 0.11376 0.0
C540 C 0.03683 0.10945 0.1079 0.0
C541 C 0.01181 0.10256 0.09253 0.0
C542 C -0.00192 0.06437 0.08257 0.0
H543 H 0.06653 0.96843 0.25255 0.0
H544 H 0.11874 0.06645 0.2936 0.0
H545 H 0.05856 0.08141 0.28881 0.0
H546 H 0.02277 0.02266 0.22395 0.0
H547 H 0.97553 0.97129 0.2184 0.0
H548 H 0.02663 0.97396 0.22305 0.0
H549 H 0.98878 0.91481 0.24704 0.0
H550 H 0.93781 0.91224 0.2426 0.0
H551 H 0.95973 0.92352 0.26456 0.0
H552 H 0.9878 0.07932 0.28183 0.0
H553 H 0.91254 0.05946 0.27354 0.0
H554 H 0.90724 0.96153 0.23785 0.0
C555 C 0.06607 0.9939 0.26023 0.0
C556 C 0.09739 0.0164 0.2734 0.0
C557 C 0.09514 0.04893 0.28337 0.0
C558 C 0.06117 0.05774 0.28072 0.0
C559 C 0.02996 0.03389 0.26799 0.0
C560 C 0.03236 0.00281 0.25784 0.0
C561 C 0.9927 0.97851 0.2463 0.0
C562 C 0.00516 0.98714 0.22677 0.0
C563 C 0.96833 0.92939 0.25038 0.0
C564 C 0.96681 -0.00041 0.252 0.0
C565 C 0.98903 0.03202 0.26427 0.0
C566 C 0.97034 0.05439 0.27206 0.0
C567 C 0.92763 0.04288 0.2673 0.0
C568 C 0.90411 0.00891 0.25511 0.0
C569 C 0.92438 0.98763 0.24723 0.0
H570 H 0.68293 0.48957 0.42527 0.0
H571 H 0.63412 0.52839 0.38079 0.0
H572 H 0.56036 0.46534 0.38583 0.0
H573 H 0.61485 0.37212 0.41997 0.0
H574 H 0.60629 0.362 0.44323 0.0
H575 H 0.6558 0.40814 0.43531 0.0
H576 H 0.64102 0.45946 0.45467 0.0
H577 H 0.59144 0.41353 0.46261 0.0
H578 H 0.59004 0.45868 0.45249 0.0
H579 H 0.493 0.39798 0.39537 0.0
H580 H 0.43425 0.33396 0.41011 0.0
H581 H 0.52475 0.34263 0.45039 0.0
C582 C 0.65669 0.48425 0.41649 0.0
C583 C 0.6638 0.51322 0.40256 0.0
C584 C 0.62892 0.50622 0.3915 0.0
C585 C 0.58714 0.47056 0.39424 0.0
C586 C 0.58093 0.44271 0.40822 0.0
C587 C 0.61458 0.4493 0.41927 0.0
C588 C 0.59847 0.41606 0.43398 0.0
C589 C 0.62014 0.38791 0.43306 0.0
C590 C 0.60567 0.43827 0.452 0.0
C591 C 0.5505 0.38983 0.42947 0.0
C592 C 0.54129 0.40548 0.41444 0.0
C593 C 0.49957 0.38604 0.40738 0.0
C594 C 0.46614 0.35004 0.41608 0.0
C595 C 0.4743 0.33454 0.43195 0.0
C596 C 0.51731 0.3543 0.43849 0.0
H597 H 0.18671 0.50866 0.59338 0.0
H598 H 0.09597 0.47036 0.6369 0.0
H599 H 0.0868 0.5341 0.63142 0.0
H600 H 0.23756 0.62577 0.59871 0.0
H601 H 0.24088 0.63624 0.57543 0.0
H602 H 0.24256 0.58945 0.58355 0.0
H603 H 0.17717 0.53917 0.56365 0.0
H604 H 0.17526 0.58576 0.55548 0.0
H605 H 0.12742 0.54104 0.56523 0.0
H606 H 0.08957 0.60287 0.62173 0.0
H607 H 0.09781 0.66787 0.60691 0.0
H608 H 0.18049 0.65711 0.56749 0.0
C609 C 0.16537 0.51418 0.60184 0.0
C610 C 0.1423 0.48525 0.61566 0.0
C611 C 0.11388 0.49252 0.62629 0.0
C612 C 0.10864 0.52857 0.62331 0.0
C613 C 0.13161 0.55647 0.60948 0.0
C614 C 0.15903 0.54945 0.59879 0.0
C615 C 0.17775 0.58281 0.58417 0.0
C616 C 0.22765 0.61019 0.58556 0.0
C617 C 0.16354 0.56087 0.56606 0.0
C618 C 0.1566 0.60972 0.58832 0.0
C619 C 0.13062 0.59429 0.60311 0.0
C620 C 0.10889 0.61458 0.60987 0.0
C621 C 0.11316 0.65119 0.60111 0.0
C622 C 0.1379 0.66642 0.58543 0.0
C623 C 0.16055 0.64574 0.57921 0.0
H624 H 0.50901 0.19287 0.75836 0.0
H625 H 0.46948 0.10497 0.71388 0.0
H626 H 0.53141 0.09278 0.71922 0.0
H627 H 0.62634 0.24023 0.75355 0.0
H628 H 0.63577 0.24159 0.77686 0.0
H629 H 0.59046 0.24597 0.76872 0.0
H630 H 0.53762 0.18019 0.78793 0.0
H631 H 0.58272 0.17553 0.79609 0.0
H632 H 0.53722 0.12941 0.78582 0.0
H633 H 0.59801 0.0916 0.72901 0.0
H634 H 0.66124 0.09592 0.74396 0.0
H635 H 0.65326 0.17847 0.78416 0.0
C636 C 0.51396 0.17158 0.74965 0.0
C637 C 0.48514 0.15011 0.73562 0.0
C638 C 0.49158 0.12168 0.72465 0.0
C639 C 0.5266 0.11472 0.72756 0.0
C640 C 0.55432 0.13602 0.74163 0.0
C641 C 0.5482 0.16355 0.75261 0.0
C642 C 0.58108 0.18016 0.76744 0.0
C643 C 0.61014 0.22994 0.76658 0.0
C644 C 0.55829 0.16543 0.78538 0.0
C645 C 0.60658 0.15762 0.76308 0.0
C646 C 0.59092 0.13282 0.74802 0.0
C647 C 0.60991 0.11003 0.74106 0.0
C648 C 0.64546 0.11204 0.74989 0.0
C649 C 0.66093 0.13564 0.7658 0.0
C650 C 0.6416 0.15936 0.77225 0.0
H651 H 0.37156 0.48256 0.8998 0.0
H652 H 0.27181 0.49571 0.92741 0.0
H653 H 0.32872 0.56036 0.94304 0.0
H654 H 0.451 0.51826 0.93519 0.0
H655 H 0.49712 0.54838 0.92088 0.0
H656 H 0.44874 0.5014 0.91268 0.0
H657 H 0.44344 0.54804 0.88768 0.0
H658 H 0.49193 0.59501 0.89574 0.0
H659 H 0.44247 0.597 0.89311 0.0
H660 H 0.39583 0.62316 0.9555 0.0
H661 H 0.46885 0.68406 0.96244 0.0
H662 H 0.5251 0.63393 0.92481 0.0
C663 C 0.36193 0.49891 0.90928 0.0
C664 C 0.31753 0.4842 0.9126 0.0
C665 C 0.30579 0.50672 0.92476 0.0
C666 C 0.33782 0.54322 0.93374 0.0
C667 C 0.38138 0.55706 0.9302 0.0
C668 C 0.39356 0.53602 0.91812 0.0
C669 C 0.44265 0.55944 0.91595 0.0
C670 C 0.46094 0.53011 0.92151 0.0
C671 C 0.45589 0.57585 0.897 0.0
C672 C 0.45608 0.59688 0.9287 0.0
C673 C 0.42023 0.59447 0.93693 0.0
C674 C 0.42419 0.6254 0.94915 0.0
C675 C 0.46591 0.65997 0.95296 0.0
C676 C 0.50333 0.66378 0.94449 0.0
C677 C 0.498 0.63164 0.93214 0.0
H678 H 0.80137 0.30771 0.0886 0.0
H679 H 0.89416 0.36096 0.04578 0.0
H680 H 0.90549 0.43438 0.05208 0.0
H681 H 0.75416 0.37772 0.08391 0.0
H682 H 0.75007 0.38334 0.10727 0.0
H683 H 0.7468 0.33461 0.09852 0.0
H684 H 0.81038 0.34587 0.11872 0.0
H685 H 0.81397 0.39471 0.12747 0.0
H686 H 0.86132 0.39659 0.11783 0.0
H687 H 0.90553 0.50096 0.06268 0.0
H688 H 0.89921 0.55817 0.07816 0.0
H689 H 0.81199 0.46337 0.1162 0.0
C690 C 0.82353 0.33486 0.08044 0.0
C691 C 0.84667 0.3291 0.06662 0.0
C692 C 0.87618 0.36513 0.05639 0.0
C693 C 0.88268 0.40673 0.05984 0.0
C694 C 0.85977 0.41157 0.07371 0.0
C695 C 0.83106 0.37676 0.08395 0.0
C696 C 0.81266 0.39136 0.09873 0.0
C697 C 0.76297 0.37052 0.097 0.0
C698 C 0.82536 0.38156 0.11675 0.0
C699 C 0.83557 0.43984 0.0952 0.0
C700 C 0.86214 0.45063 0.08059 0.0
C701 C 0.88568 0.49312 0.07439 0.0
C702 C 0.88249 0.52564 0.08352 0.0
C703 C 0.85695 0.51578 0.09899 0.0
C704 C 0.83259 0.47208 0.10466 0.0
H705 H 0.37781 0.88823 0.28345 0.0
H706 H 0.27313 0.77873 0.25603 0.0
H707 H 0.32698 0.76795 0.23948 0.0
H708 H 0.45548 0.92966 0.24734 0.0
H709 H 0.50189 0.9431 0.26108 0.0
H710 H 0.45537 0.94416 0.27004 0.0
H711 H 0.4485 0.89035 0.29451 0.0
H712 H 0.49517 0.88943 0.28571 0.0
H713 H 0.44435 0.83925 0.28853 0.0
H714 H 0.39151 0.76876 0.22609 0.0
H715 H 0.46268 0.77726 0.21817 0.0
H716 H 0.52536 0.88236 0.2561 0.0
C717 C 0.36648 0.8623 0.27384 0.0
C718 C 0.32156 0.83441 0.27085 0.0
C719 C 0.30754 0.80027 0.25847 0.0
C720 C 0.33782 0.79409 0.24895 0.0
C721 C 0.38195 0.82203 0.25218 0.0
C722 C 0.39633 0.85513 0.26445 0.0
C723 C 0.44552 0.87868 0.26614 0.0
C724 C 0.46575 0.92675 0.26083 0.0
C725 C 0.45917 0.87413 0.28483 0.0
C726 C 0.45642 0.8536 0.2529 0.0
C727 C 0.41928 0.82149 0.24486 0.0
C728 C 0.42087 0.79385 0.23229 0.0
C729 C 0.46152 0.79892 0.22791 0.0
C730 C 0.50015 0.83113 0.23617 0.0
C731 C 0.49724 0.85866 0.2489 0.0
H732 H 0.23458 0.97755 0.33294 0.0
H733 H 0.30118 0.07466 0.29265 0.0
H734 H 0.32437 0.13307 0.31499 0.0
H735 H 0.18915 0.03252 0.35275 0.0
H736 H 0.19163 0.01635 0.37496 0.0
H737 H 0.18847 0.98219 0.3569 0.0
H738 H 0.25909 0.98451 0.36732 0.0
H739 H 0.26208 0.01806 0.38565 0.0
H740 H 0.30768 0.03634 0.37086 0.0
H741 H 0.33415 0.18095 0.34149 0.0
H742 H 0.32699 0.21368 0.36926 0.0
H743 H 0.24792 0.08486 0.39131 0.0
C744 C 0.25592 0.01107 0.32904 0.0
C745 C 0.26787 0.02174 0.31126 0.0
C746 C 0.29321 0.06597 0.30633 0.0
C747 C 0.30623 0.09925 0.31893 0.0
C748 C 0.29273 0.08772 0.33631 0.0
C749 C 0.26801 0.04458 0.34135 0.0
C750 C 0.25261 0.04073 0.3602 0.0
C751 C 0.20251 0.01652 0.36125 0.0
C752 C 0.27151 0.01861 0.37169 0.0
C753 C 0.27202 0.08833 0.36496 0.0
C754 C 0.29568 0.11502 0.35113 0.0
C755 C 0.31586 0.16029 0.3524 0.0
C756 C 0.31158 0.17862 0.36814 0.0
C757 C 0.28663 0.1517 0.38223 0.0
C758 C 0.26693 0.10607 0.38063 0.0
H759 H 0.17152 0.22864 0.4748 0.0
H760 H 0.30853 0.29972 0.48878 0.0
H761 H 0.29056 0.32885 0.51504 0.0
H762 H 0.14178 0.30884 0.4916 0.0
H763 H 0.08975 0.26624 0.49943 0.0
H764 H 0.11438 0.2572 0.48036 0.0
H765 H 0.1088 0.18895 0.49519 0.0
H766 H 0.08458 0.19791 0.51434 0.0
H767 H 0.13314 0.19409 0.51648 0.0
H768 H 0.2561 0.34157 0.54194 0.0
H769 H 0.20882 0.33733 0.56664 0.0
H770 H 0.0945 0.25811 0.53494 0.0
C771 C 0.1981 0.25142 0.48301 0.0
C772 C 0.24162 0.26212 0.47954 0.0
C773 C 0.27504 0.29132 0.49099 0.0
C774 C 0.26509 0.308 0.50597 0.0
C775 C 0.2216 0.2954 0.5093 0.0
C776 C 0.1887 0.26801 0.49803 0.0
C777 C 0.14422 0.25584 0.50533 0.0
C778 C 0.12118 0.27307 0.49347 0.0
C779 C 0.11606 0.20627 0.50799 0.0
C780 C 0.15701 0.27968 0.52273 0.0
C781 C 0.2018 0.30272 0.52472 0.0
C782 C 0.22108 0.32449 0.54032 0.0
C783 C 0.19396 0.32213 0.55426 0.0
C784 C 0.14802 0.29815 0.55256 0.0
C785 C 0.12952 0.27733 0.53646 0.0
H786 H 0.9156 0.16198 0.72622 0.0
H787 H 0.7866 0.11412 0.70466 0.0
H788 H 0.81933 0.15368 0.67684 0.0
H789 H 0.96572 0.27038 0.7058 0.0
H790 H 0.01695 0.27247 0.70212 0.0
H791 H 0.98317 0.24228 0.72048 0.0
H792 H 0.98301 0.17288 0.70974 0.0
H793 H 0.01711 0.20295 0.6915 0.0
H794 H 0.96593 0.15387 0.68762 0.0
H795 H 0.86694 0.19116 0.65021 0.0
H796 H 0.92508 0.22583 0.62768 0.0
H797 H 0.0227 0.25489 0.66757 0.0
C798 C 0.89436 0.16016 0.71564 0.0
C799 C 0.84866 0.13483 0.71739 0.0
C800 C 0.82171 0.13333 0.70344 0.0
C801 C 0.84003 0.15575 0.68766 0.0
C802 C 0.88536 0.18022 0.68624 0.0
C803 C 0.91213 0.18291 0.69996 0.0
C804 C 0.95976 0.21034 0.69499 0.0
C805 C 0.98275 0.2513 0.70653 0.0
C806 C 0.98279 0.1834 0.69602 0.0
C807 C 0.95577 0.22184 0.67618 0.0
C808 C 0.91258 0.2041 0.67133 0.0
C809 C 0.90084 0.20631 0.65401 0.0
C810 C 0.93396 0.22626 0.64132 0.0
C811 C 0.97825 0.24459 0.64609 0.0
C812 C 0.98917 0.24306 0.66379 0.0
H813 H 0.76032 0.0148 0.83337 0.0
H814 H 0.69661 0.91925 0.79227 0.0
H815 H 0.67084 0.86004 0.81431 0.0
H816 H 0.80302 0.95858 0.85385 0.0
H817 H 0.79867 0.97391 0.87601 0.0
H818 H 0.80363 0.00889 0.85801 0.0
H819 H 0.73232 0.00657 0.86749 0.0
H820 H 0.72748 0.97213 0.88575 0.0
H821 H 0.68327 0.95474 0.87034 0.0
H822 H 0.65909 0.81112 0.84049 0.0
H823 H 0.66468 0.77711 0.86813 0.0
H824 H 0.7414 0.90485 0.89142 0.0
C825 C 0.73904 0.98148 0.82921 0.0
C826 C 0.72876 0.97145 0.81129 0.0
C827 C 0.7034 0.92745 0.80605 0.0
C828 C 0.68889 0.8937 0.81848 0.0
C829 C 0.70081 0.90455 0.83603 0.0
C830 C 0.72539 0.94747 0.84138 0.0
C831 C 0.73907 0.95044 0.86043 0.0
C832 C 0.78904 0.97436 0.86216 0.0
C833 C 0.71934 0.97226 0.87166 0.0
C834 C 0.719 0.90262 0.8649 0.0
C835 C 0.69642 0.87657 0.85077 0.0
C836 C 0.67639 0.83125 0.85166 0.0
C837 C 0.67975 0.81219 0.86733 0.0
C838 C 0.70358 0.83846 0.88173 0.0
C839 C 0.72305 0.88414 0.88052 0.0
H840 H 0.81632 0.7553 0.97248 0.0
H841 H 0.68239 0.69759 0.99034 0.0
H842 H 0.70215 0.67428 0.01771 0.0
H843 H 0.84139 0.67514 0.9932 0.0
H844 H 0.89596 0.71714 0.99863 0.0
H845 H 0.8696 0.72243 0.97933 0.0
H846 H 0.88352 0.79721 0.99056 0.0
H847 H 0.9092 0.79193 0.01002 0.0
H848 H 0.86363 0.80087 0.01193 0.0
H849 H 0.73888 0.66756 0.04494 0.0
H850 H 0.7884 0.6733 0.06892 0.0
H851 H 0.8984 0.73515 0.03336 0.0
C852 C 0.79069 0.73659 0.98185 0.0
C853 C 0.74763 0.72821 0.97913 0.0
C854 C 0.71545 0.70411 0.99196 0.0
C855 C 0.72646 0.69088 0.00762 0.0
C856 C 0.76969 0.70168 0.01021 0.0
C857 C 0.80118 0.72346 0.99755 0.0
C858 C 0.84597 0.7345 1.00409 0.0
C859 C 0.86431 0.71088 0.99316 0.0
C860 C 0.87741 0.78406 1.00415 0.0
C861 C 0.83504 0.71658 0.02261 0.0
C862 C 0.79081 0.69751 0.02584 0.0
C863 C 0.77335 0.68143 0.04239 0.0
C864 C 0.8017 0.68473 0.05592 0.0
C865 C 0.84703 0.70376 0.05286 0.0
C866 C 0.86377 0.71978 0.03595 0.0
H867 H 0.05301 0.81641 0.14082 0.0
H868 H 0.98041 0.68187 0.1581 0.0
H869 H 0.02574 0.70166 0.18487 0.0
H870 H 0.16076 0.84296 0.15963 0.0
H871 H 0.17285 0.89699 0.16568 0.0
H872 H 0.13973 0.8708 0.14666 0.0
H873 H 0.0788 0.88277 0.15941 0.0
H874 H 0.11131 0.90838 0.17857 0.0
H875 H 0.05732 0.86208 0.18097 0.0
H876 H 0.07096 0.73825 0.21179 0.0
H877 H 0.11523 0.78768 0.23574 0.0
H878 H 0.15946 0.89815 0.20078 0.0
C879 C 0.04742 0.79068 0.14992 0.0
C880 C 0.01311 0.7474 0.14722 0.0
C881 C 0.00664 0.71511 0.15971 0.0
C882 C 0.03219 0.72611 0.17501 0.0
C883 C 0.06437 0.76947 0.17759 0.0
C884 C 0.07244 0.80114 0.16525 0.0
C885 C 0.10622 0.84595 0.17178 0.0
C886 C 0.14733 0.86531 0.16025 0.0
C887 C 0.08726 0.87657 0.17274 0.0
C888 C 0.11509 0.83479 0.18994 0.0
C889 C 0.09084 0.79047 0.19301 0.0
C890 C 0.09093 0.77282 0.20935 0.0
C891 C 0.11631 0.80113 0.22286 0.0
C892 C 0.14152 0.8466 0.21998 0.0
C893 C 0.14108 0.86344 0.20323 0.0
H894 H 0.02391 0.76569 0.5156 0.0
H895 H 0.92681 0.70572 0.55649 0.0
H896 H 0.8683 0.67921 0.5341 0.0
H897 H 0.96933 0.80812 0.49363 0.0
H898 H 0.98522 0.80213 0.47178 0.0
H899 H 0.01945 0.80779 0.49016 0.0
H900 H 0.01643 0.73552 0.4819 0.0
H901 H 0.98273 0.72994 0.46326 0.0
H902 H 0.96433 0.68671 0.47919 0.0
H903 H 0.82036 0.66645 0.50749 0.0
H904 H 0.78754 0.67085 0.47931 0.0
H905 H 0.91626 0.7445 0.45642 0.0
C906 C 0.99038 0.74504 0.51968 0.0
C907 C 0.97972 0.73605 0.53764 0.0
C908 C 0.93547 0.71153 0.54271 0.0
C909 C 0.90212 0.6966 0.53009 0.0
C910 C 0.91362 0.70727 0.51248 0.0
C911 C 0.95677 0.73102 0.50729 0.0
C912 C 0.96053 0.74351 0.48806 0.0
C913 C 0.98507 0.79333 0.48579 0.0
C914 C 0.98229 0.72266 0.47748 0.0
C915 C 0.91287 0.72369 0.48328 0.0
C916 C 0.88623 0.70229 0.49744 0.0
C917 C 0.84095 0.68278 0.49629 0.0
C918 C 0.82257 0.68545 0.48031 0.0
C919 C 0.84946 0.70804 0.46585 0.0
C920 C 0.89508 0.72701 0.46734 0.0
H921 H 0.16751 0.92921 0.62274 0.0
H922 H 0.12346 0.80005 0.64335 0.0
H923 H 0.16192 0.83235 0.67137 0.0
H924 H 0.27546 0.98164 0.64338 0.0
H925 H 0.27551 0.03166 0.64754 0.0
H926 H 0.24626 -0.00167 0.62896 0.0
H927 H 0.17531 0.9948 0.6399 0.0
H928 H 0.20447 0.02852 0.65836 0.0
H929 H 0.15642 0.97629 0.66192 0.0
H930 H 0.19817 0.87906 0.69824 0.0
H931 H 0.23119 0.93617 0.7212 0.0
H932 H 0.25708 0.0349 0.68221 0.0
C933 C 0.16616 0.90784 0.63317 0.0
C934 C 0.14228 0.86218 0.63106 0.0
C935 C 0.14154 0.83512 0.64483 0.0
C936 C 0.16335 0.8532 0.66072 0.0
C937 C 0.18644 0.89844 0.66248 0.0
C938 C 0.1883 0.9254 0.64899 0.0
C939 C 0.21434 0.97287 0.65431 0.0
C940 C 0.25533 0.99757 0.64287 0.0
C941 C 0.18594 0.99437 0.65359 0.0
C942 C 0.22605 0.96851 0.67305 0.0
C943 C 0.2096 0.9253 0.67756 0.0
C944 C 0.21228 0.91302 0.69472 0.0
C945 C 0.2313 0.94558 0.70766 0.0
C946 C 0.24825 0.98988 0.70327 0.0
C947 C 0.24632 0.00142 0.68569 0.0
H948 H 0.23822 0.26471 0.84913 0.0
H949 H 0.29202 0.22233 0.89047 0.0
H950 H 0.31949 0.19092 0.86821 0.0
H951 H 0.19561 0.16934 0.82606 0.0
H952 H 0.20434 0.19284 0.80443 0.0
H953 H 0.19807 0.22085 0.82289 0.0
H954 H 0.27227 0.28938 0.81589 0.0
H955 H 0.27853 0.26181 0.79718 0.0
H956 H 0.32033 0.28461 0.81377 0.0
H957 H 0.33319 0.15641 0.84161 0.0
H958 H 0.32919 0.11962 0.81333 0.0
H959 H 0.26102 0.17947 0.78984 0.0
C960 C 0.25777 0.2508 0.85337 0.0
C961 C 0.26468 0.24744 0.87142 0.0
C962 C 0.28779 0.22645 0.87665 0.0
C963 C 0.30329 0.20838 0.86409 0.0
C964 C 0.29462 0.21085 0.84638 0.0
C965 C 0.27232 0.23155 0.84103 0.0
C966 C 0.26156 0.22431 0.82161 0.0
C967 C 0.21197 0.20042 0.81858 0.0
C968 C 0.28456 0.26761 0.81152 0.0
C969 C 0.28049 0.19567 0.81692 0.0
C970 C 0.30015 0.18889 0.83128 0.0
C971 C 0.31828 0.16193 0.83025 0.0
C972 C 0.31587 0.14113 0.81421 0.0
C973 C 0.29486 0.14688 0.79956 0.0
C974 C 0.27744 0.17484 0.8009 0.0
H975 H 0.96869 0.23171 0.01459 0.0
H976 H 0.06464 0.28416 0.05614 0.0
H977 H 0.12383 0.31177 0.03397 0.0
H978 H 0.02161 0.18923 0.99125 0.0
H979 H 0.00694 0.19851 0.9697 0.0
H980 H 0.97254 0.19177 0.9882 0.0
H981 H 0.97838 0.26609 0.98158 0.0
H982 H 0.01239 0.27285 0.96286 0.0
H983 H 0.03136 0.31417 0.97966 0.0
H984 H 0.17236 0.32661 0.00732 0.0
H985 H 0.20542 0.32373 0.97892 0.0
H986 H 0.07731 0.25561 0.95531 0.0
C987 C 0.00219 0.25088 0.01892 0.0
C988 C 0.0123 0.25742 0.03699 0.0
C989 C 0.05642 0.28014 0.04231 0.0
C990 C 0.09016 0.29574 0.0298 0.0
C991 C 0.07916 0.28754 0.01205 0.0
C992 C 0.03614 0.26548 1.00663 0.0
C993 C 0.03273 0.25524 0.98715 0.0
C994 C 0.00694 0.20577 0.9839 0.0
C995 C 0.01252 0.27849 0.97723 0.0
C996 C 0.08039 0.27427 0.9825 0.0
C997 C 0.10679 0.29353 0.99694 0.0
C998 C 0.15197 0.31194 0.99592 0.0
C999 C 0.1705 0.31017 0.9798 0.0
C1000 C 0.14379 0.28946 0.96509 0.0
C1001 C 0.09831 0.27177 0.96643 0.0
H1002 H 0.81541 0.04172 0.20657 0.0
H1003 H 0.67817 0.97875 0.19314 0.0
H1004 H 0.69657 0.02604 0.16699 0.0
H1005 H 0.84754 0.15272 0.18972 0.0
H1006 H 0.89884 0.16068 0.18165 0.0
H1007 H 0.87411 0.12756 0.20084 0.0
H1008 H 0.87743 0.06362 0.18595 0.0
H1009 H 0.90162 0.09622 0.16668 0.0
H1010 H 0.85219 0.04438 0.16479 0.0
H1011 H 0.73108 0.07209 0.13993 0.0
H1012 H 0.77812 0.11392 0.115 0.0
H1013 H 0.89275 0.1473 0.14618 0.0
C1014 C 0.78892 0.03874 0.19851 0.0
C1015 C 0.74517 0.00657 0.20208 0.0
C1016 C 0.71183 0.00332 0.19086 0.0
C1017 C 0.72203 0.03006 0.17592 0.0
C1018 C 0.76568 0.06011 0.17242 0.0
C1019 C 0.79855 0.06487 0.18353 0.0
C1020 C 0.84311 0.09628 0.17601 0.0
C1021 C 0.86732 0.13672 0.18776 0.0
C1022 C 0.87015 0.07377 0.17319 0.0
C1023 C 0.83034 0.10755 0.15867 0.0
C1024 C 0.78553 0.08673 0.1569 0.0
C1025 C 0.76614 0.08938 0.14138 0.0
C1026 C 0.79315 0.11345 0.1273 0.0
C1027 C 0.8391 0.13462 0.12878 0.0
C1028 C 0.85774 0.13206 0.1448 0.0
H1029 H 0.76652 0.81772 0.37406 0.0
H1030 H 0.70011 0.68095 0.35973 0.0
H1031 H 0.67044 0.69758 0.33336 0.0
H1032 H 0.68379 0.84365 0.35669 0.0
H1033 H 0.72547 0.89636 0.34909 0.0
H1034 H 0.73487 0.87244 0.36826 0.0
H1035 H 0.80498 0.88096 0.3539 0.0
H1036 H 0.79562 0.90438 0.33464 0.0
H1037 H 0.80165 0.85709 0.33263 0.0
H1038 H 0.65748 0.731 0.3063 0.0
H1039 H 0.66074 0.77764 0.28158 0.0
H1040 H 0.73525 0.8924 0.31367 0.0
C1041 C 0.74456 0.79087 0.36574 0.0
C1042 C 0.73543 0.74785 0.36912 0.0
C1043 C 0.7073 0.71405 0.35758 0.0
C1044 C 0.69034 0.72324 0.34252 0.0
C1045 C 0.70156 0.76633 0.33923 0.0
C1046 C 0.7277 0.79952 0.35065 0.0
C1047 C 0.7386 0.84359 0.34336 0.0
C1048 C 0.71953 0.86528 0.35505 0.0
C1049 C 0.78814 0.87322 0.34099 0.0
C1050 C 0.71555 0.83027 0.32581 0.0
C1051 C 0.69399 0.78553 0.32372 0.0
C1052 C 0.67335 0.76592 0.30799 0.0
C1053 C 0.67518 0.79266 0.29403 0.0
C1054 C 0.69747 0.83854 0.29586 0.0
C1055 C 0.71731 0.85737 0.31206 0.0
H1056 H 0.17639 0.05871 0.47696 0.0
H1057 H 0.31412 0.10004 0.47788 0.0
H1058 H 0.29826 0.03801 0.49749 0.0
H1059 H 0.1565 0.03092 0.52148 0.0
H1060 H 0.1026 0.98526 0.51794 0.0
H1061 H 0.1248 0.03036 0.50288 0.0
H1062 H 0.11175 0.97773 0.47696 0.0
H1063 H 0.08945 0.93238 0.49195 0.0
H1064 H 0.13436 0.94222 0.47787 0.0
H1065 H 0.26597 0.97114 0.51785 0.0
H1066 H 0.22156 0.90997 0.53822 0.0
H1067 H 0.10691 0.91718 0.52415 0.0
C1068 C 0.20334 0.05458 0.48103 0.0
C1069 C 0.24649 0.08406 0.47576 0.0
C1070 C 0.28075 0.07774 0.48171 0.0
C1071 C 0.27203 0.04255 0.49279 0.0
C1072 C 0.22896 0.01428 0.49782 0.0
C1073 C 0.19531 0.02022 0.49214 0.0
C1074 C 0.15224 0.98733 0.50012 0.0
C1075 C 0.13293 0.00982 0.51127 0.0
C1076 C 0.12007 0.95819 0.48588 0.0
C1077 C 0.1668 0.96214 0.51143 0.0
C1078 C 0.21096 0.97749 0.5098 0.0
C1079 C 0.23138 0.95892 0.51919 0.0
C1080 C 0.20597 0.92422 0.53068 0.0
C1081 C 0.16098 0.90922 0.53283 0.0
C1082 C 0.14135 0.92826 0.52291 0.0
H1083 H 0.11035 0.18364 0.65158 0.0
H1084 H 0.21578 0.31683 0.64544 0.0
H1085 H 0.26143 0.30162 0.66559 0.0
H1086 H 0.1265 0.17515 0.69736 0.0
H1087 H 0.11223 0.11885 0.69593 0.0
H1088 H 0.08902 0.14041 0.68073 0.0
H1089 H 0.11792 0.11515 0.65457 0.0
H1090 H 0.14121 0.0935 0.6697 0.0
H1091 H 0.17513 0.13261 0.65335 0.0
H1092 H 0.29588 0.26994 0.68599 0.0
H1093 H 0.31405 0.22627 0.70604 0.0
H1094 H 0.18366 0.11606 0.69918 0.0
C1095 C 0.14314 0.20964 0.65435 0.0
C1096 C 0.15973 0.2513 0.64685 0.0
C1097 C 0.20252 0.28462 0.65106 0.0
C1098 C 0.22865 0.27625 0.66243 0.0
C1099 C 0.21118 0.23463 0.66958 0.0
C1100 C 0.16923 0.20206 0.66578 0.0
C1101 C 0.15732 0.16045 0.67543 0.0
C1102 C 0.11902 0.14801 0.68812 0.0
C1103 C 0.14733 0.12325 0.66249 0.0
C1104 C 0.19921 0.17447 0.68524 0.0
C1105 C 0.23014 0.21718 0.68166 0.0
C1106 C 0.27178 0.23656 0.68898 0.0
C1107 C 0.28183 0.21157 0.7003 0.0
C1108 C 0.25013 0.16799 0.70428 0.0
C1109 C 0.20843 0.14949 0.69661 0.0
H1110 H 0.9206 0.10296 0.81962 0.0
H1111 H 0.89992 0.21177 0.81018 0.0
H1112 H 0.96254 0.25812 0.82954 0.0
H1113 H 0.94864 0.12612 0.86532 0.0
H1114 H 0.9882 0.10846 0.86445 0.0
H1115 H 0.94208 0.08476 0.84986 0.0
H1116 H 0.99421 0.10614 0.8231 0.0
H1117 H 0.04046 0.13004 0.8376 0.0
H1118 H 0.03619 0.16214 0.82023 0.0
H1119 H 0.03034 0.29303 0.84921 0.0
H1120 H 0.09301 0.31147 0.86886 0.0
H1121 H 0.06507 0.17781 0.86569 0.0
C1122 C 0.9292 0.13657 0.82157 0.0
C1123 C 0.9057 0.15394 0.8133 0.0
C1124 C 0.91758 0.19787 0.81641 0.0
C1125 C 0.95312 0.22441 0.82733 0.0
C1126 C 0.97586 0.20623 0.83517 0.0
C1127 C 0.96393 0.16312 0.83255 0.0
C1128 C 0.99277 0.15082 0.84264 0.0
C1129 C 0.96634 0.11546 0.85638 0.0
C1130 C 0.01736 0.13646 0.83014 0.0
C1131 C 0.02326 0.19387 0.85124 0.0
C1132 C 0.01336 0.22563 0.84677 0.0
C1133 C 0.03813 0.26828 0.8529 0.0
C1134 C 0.0737 0.2785 0.86399 0.0
C1135 C 0.08372 0.24603 0.8689 0.0
C1136 C 0.05805 0.20332 0.86236 0.0
H1137 H 0.88458 0.06636 0.02729 0.0
H1138 H 0.77379 0.08479 0.03538 0.0
H1139 H 0.73024 0.024 0.01479 0.0
H1140 H 0.86708 0.04269 0.98104 0.0
H1141 H 0.88515 0.00346 0.98182 0.0
H1142 H 0.90679 0.04817 0.99711 0.0
H1143 H 0.8828 0.9938 0.02314 0.0
H1144 H 0.8611 0.94896 0.00792 0.0
H1145 H 0.82666 0.9512 0.02483 0.0
H1146 H 0.69817 0.95783 0.9943 0.0
H1147 H 0.68219 0.89607 0.97448 0.0
H1148 H 0.81623 0.92577 0.97933 0.0
C1149 C 0.85112 0.05763 0.02479 0.0
C1150 C 0.83235 0.07992 0.03302 0.0
C1151 C 0.7887 0.06799 0.02918 0.0
C1152 C 0.76377 0.03353 0.01756 0.0
C1153 C 0.78333 0.01201 0.00974 0.0
C1154 C 0.8262 0.02404 0.0131 0.0
C1155 C 0.84013 0.99649 1.00296 0.0
C1156 C 0.87696 0.02437 0.98996 0.0
C1157 C 0.85343 0.97111 0.01546 0.0
C1158 C 0.79822 0.96654 0.9935 0.0
C1159 C 0.76564 0.97564 0.99759 0.0
C1160 C 0.72359 0.95076 0.99087 0.0
C1161 C 0.71479 0.91575 0.97968 0.0
C1162 C 0.74807 0.90644 0.97524 0.0
C1163 C 0.79023 0.93243 0.98223 0.0
H1164 H 0.87463 0.80862 0.1467 0.0
H1165 H 0.77726 0.67118 0.1469 0.0
H1166 H 0.7306 0.68692 0.16639 0.0
H1167 H 0.86493 0.82822 0.19123 0.0
H1168 H 0.8738 0.88219 0.18746 0.0
H1169 H 0.89722 0.85973 0.17278 0.0
H1170 H 0.85924 0.87305 0.14637 0.0
H1171 H 0.83562 0.89556 0.16098 0.0
H1172 H 0.80105 0.85072 0.14679 0.0
H1173 H 0.69505 0.71972 0.1863 0.0
H1174 H 0.67746 0.76484 0.20598 0.0
H1175 H 0.80116 0.87844 0.19271 0.0
C1176 C 0.84333 0.78165 0.15064 0.0
C1177 C 0.82944 0.73868 0.14517 0.0
C1178 C 0.78849 0.70441 0.15091 0.0
C1179 C 0.76177 0.71309 0.16191 0.0
C1180 C 0.77671 0.75607 0.16706 0.0
C1181 C 0.81676 0.78961 0.16163 0.0
C1182 C 0.82687 0.83269 0.16945 0.0
C1183 C 0.86813 0.8518 0.18091 0.0
C1184 C 0.83092 0.86489 0.15504 0.0
C1185 C 0.78653 0.81834 0.18039 0.0
C1186 C 0.75745 0.77424 0.17873 0.0
C1187 C 0.7177 0.75423 0.18769 0.0
C1188 C 0.70791 0.78 0.19877 0.0
C1189 C 0.73821 0.82488 0.20095 0.0
C1190 C 0.77763 0.84405 0.19148 0.0
H1191 H 0.93127 0.8166 0.36591 0.0
H1192 H 0.90894 0.68538 0.37178 0.0
H1193 H 0.97155 0.70393 0.35197 0.0
H1194 H 0.95768 0.82714 0.32036 0.0
H1195 H -0.00215 0.88412 0.32203 0.0
H1196 H 0.95251 0.86039 0.33703 0.0
H1197 H 0.00589 0.88738 0.36341 0.0
H1198 H 0.05143 0.91118 0.3485 0.0
H1199 H 0.04753 0.87254 0.36478 0.0
H1200 H 0.03863 0.73889 0.33186 0.0
H1201 H 0.10003 0.78484 0.31188 0.0
H1202 H 0.07371 0.89085 0.31881 0.0
C1203 C 0.93959 0.7917 0.36317 0.0
C1204 C 0.91557 0.74965 0.37051 0.0
C1205 C 0.92707 0.71784 0.36631 0.0
C1206 C 0.96258 0.72814 0.35513 0.0
C1207 C 0.98566 0.77013 0.34817 0.0
C1208 C 0.97424 0.80118 0.35196 0.0
C1209 C 0.00291 0.84347 0.34248 0.0
C1210 C 0.97613 0.85439 0.32972 0.0
C1211 C 0.02845 0.88083 0.35558 0.0
C1212 C 0.03257 0.83162 0.33275 0.0
C1213 C 0.02257 0.7894 0.33626 0.0
C1214 C 0.04651 0.77188 0.32895 0.0
C1215 C 0.08133 0.79819 0.31767 0.0
C1216 C 0.09131 0.84121 0.3137 0.0
C1217 C 0.06654 0.85791 0.32141 0.0
loop_
_geom_bond_atom_site_label_1
_geom_bond_atom_site_label_2
_geom_bond_distance
_geom_bond_site_symmetry_2
_ccdc_geom_bond_type
Co0 O3 1.970 . S
Co0 N17 1.989 . S
Co0 O25 1.967 . S
Co0 O32 1.920 . S
Co1 O4 1.966 . S
Co1 N10 2.022 . S
Co1 N18 1.993 . S
Co1 O26 1.941 . S
C2 O3 1.258 . S
C2 O4 1.263 . S
O3 Co0 1.970 . S
O3 C2 1.258 . S
O4 Co1 1.966 . S
O4 C2 1.263 . S
C5 O6 1.235 . S
C5 O32 1.289 . S
O6 C5 1.235 . S
C7 C9 1.400 . S
C7 N10 1.351 . S
C7 C12 1.501 . S
C8 C9 1.387 . S
C8 N11 1.341 . S
C9 C7 1.400 . S
C9 C8 1.387 . S
N10 Co1 2.022 . S
N10 C7 1.351 . S
N10 N11 1.365 . S
N11 C8 1.341 . S
N11 N10 1.365 . S
N11 H31 0.862 . S
C12 C7 1.501 . S
C12 H13 0.961 . S
C12 H14 0.961 . S
C12 H15 0.960 . S
H13 C12 0.961 . S
H14 C12 0.961 . S
H15 C12 0.960 . S
C16 N17 1.342 . S
C16 C20 1.401 . S
C16 C21 1.499 . S
N17 Co0 1.989 . S
N17 C16 1.342 . S
N17 N18 1.388 . S
N18 Co1 1.993 . S
N18 N17 1.388 . S
N18 C19 1.346 . S
C19 N18 1.346 . S
C19 C20 1.396 . S
C19 C29 1.510 . S
C20 C16 1.401 . S
C20 C19 1.396 . S
C21 C16 1.499 . S
C21 H22 0.959 . S
C21 H23 0.960 . S
C21 H24 0.961 . S
H22 C21 0.959 . S
H23 C21 0.960 . S
H24 C21 0.961 . S
O25 Co0 1.967 . S
O25 C33 1.258 . S
O26 Co1 1.941 . S
O26 C33 1.266 . S
H27 C29 0.959 . S
H28 C29 0.961 . S
C29 C19 1.510 . S
C29 H27 0.959 . S
C29 H28 0.961 . S
C29 H30 0.960 . S
H30 C29 0.960 . S
H31 N11 0.862 . S
O32 Co0 1.920 . S
O32 C5 1.289 . S
C33 O25 1.258 . S
C33 O26 1.266 . S
Co34 O37 1.970 . S
Co34 N51 1.989 . S
Co34 O59 1.967 . S
Co34 O66 1.920 . S
Co35 O38 1.966 . S
Co35 N44 2.022 . S
Co35 N52 1.993 . S
Co35 O60 1.941 . S
C36 O37 1.258 . S
C36 O38 1.263 . S
O37 Co34 1.970 . S
O37 C36 1.258 . S
O38 Co35 1.966 . S
O38 C36 1.263 . S
C39 O40 1.235 . S
C39 O66 1.289 . S
O40 C39 1.235 . S
C41 C43 1.400 . S
C41 N44 1.351 . S
C41 C46 1.501 . S
C42 C43 1.387 . S
C42 N45 1.341 . S
C43 C41 1.400 . S
C43 C42 1.387 . S
N44 Co35 2.022 . S
N44 C41 1.351 . S
N44 N45 1.365 . S
N45 C42 1.341 . S
N45 N44 1.365 . S
N45 H65 0.862 . S
C46 C41 1.501 . S
C46 H47 0.961 . S
C46 H48 0.961 . S
C46 H49 0.960 . S
H47 C46 0.961 . S
H48 C46 0.961 . S
H49 C46 0.960 . S
C50 N51 1.342 . S
C50 C54 1.401 . S
C50 C55 1.499 . S
N51 Co34 1.989 . S
N51 C50 1.342 . S
N51 N52 1.388 . S
N52 Co35 1.993 . S
N52 N51 1.388 . S
N52 C53 1.346 . S
C53 N52 1.346 . S
C53 C54 1.396 . S
C53 C63 1.510 . S
C54 C50 1.401 . S
C54 C53 1.396 . S
C55 C50 1.499 . S
C55 H56 0.959 . S
C55 H57 0.960 . S
C55 H58 0.961 . S
H56 C55 0.959 . S
H57 C55 0.960 . S
H58 C55 0.961 . S
O59 Co34 1.967 . S
O59 C67 1.258 . S
O60 Co35 1.941 . S
O60 C67 1.266 . S
H61 C63 0.959 . S
H62 C63 0.961 . S
C63 C53 1.510 . S
C63 H61 0.959 . S
C63 H62 0.961 . S
C63 H64 0.960 . S
H64 C63 0.960 . S
H65 N45 0.862 . S
O66 Co34 1.920 . S
O66 C39 1.289 . S
C67 O59 1.258 . S
C67 O60 1.266 . S
Co68 O71 1.970 . S
Co68 N85 1.989 . S
Co68 O93 1.967 . S
Co68 O100 1.920 . S
Co69 O72 1.966 . S
Co69 N78 2.022 . S
Co69 N86 1.993 . S
Co69 O94 1.941 . S
C70 O71 1.258 . S
C70 O72 1.263 . S
O71 Co68 1.970 . S
O71 C70 1.258 . S
O72 Co69 1.966 . S
O72 C70 1.263 . S
C73 O74 1.235 . S
C73 O100 1.289 . S
O74 C73 1.235 . S
C75 C77 1.400 . S
C75 N78 1.351 . S
C75 C80 1.501 . S
C76 C77 1.387 . S
C76 N79 1.341 . S
C77 C75 1.400 . S
C77 C76 1.387 . S
N78 Co69 2.022 . S
N78 C75 1.351 . S
N78 N79 1.365 . S
N79 C76 1.341 . S
N79 N78 1.365 . S
N79 H99 0.862 . S
C80 C75 1.501 . S
C80 H81 0.961 . S
C80 H82 0.961 . S
C80 H83 0.960 . S
H81 C80 0.961 . S
H82 C80 0.961 . S
H83 C80 0.960 . S
C84 N85 1.342 . S
C84 C88 1.401 . S
C84 C89 1.499 . S
N85 Co68 1.989 . S
N85 C84 1.342 . S
N85 N86 1.388 . S
N86 Co69 1.993 . S
N86 N85 1.388 . S
N86 C87 1.346 . S
C87 N86 1.346 . S
C87 C88 1.396 . S
C87 C97 1.510 . S
C88 C84 1.401 . S
C88 C87 1.396 . S
C89 C84 1.499 . S
C89 H90 0.959 . S
C89 H91 0.960 . S
C89 H92 0.961 . S
H90 C89 0.959 . S
H91 C89 0.960 . S
H92 C89 0.961 . S
O93 Co68 1.967 . S
O93 C101 1.258 . S
O94 Co69 1.941 . S
O94 C101 1.266 . S
H95 C97 0.959 . S
H96 C97 0.961 . S
C97 C87 1.510 . S
C97 H95 0.959 . S
C97 H96 0.961 . S
C97 H98 0.960 . S
H98 C97 0.960 . S
H99 N79 0.862 . S
O100 Co68 1.920 . S
O100 C73 1.289 . S
C101 O93 1.258 . S
C101 O94 1.266 . S
Co102 O105 1.970 . S
Co102 N119 1.989 . S
Co102 O127 1.967 . S
Co102 O134 1.920 . S
Co103 O106 1.966 . S
Co103 N112 2.022 . S
Co103 N120 1.993 . S
Co103 O128 1.941 . S
C104 O105 1.258 . S
C104 O106 1.263 . S
O105 Co102 1.970 . S
O105 C104 1.258 . S
O106 Co103 1.966 . S
O106 C104 1.263 . S
C107 O108 1.235 . S
C107 O134 1.289 . S
O108 C107 1.235 . S
C109 C111 1.400 . S
C109 N112 1.351 . S
C109 C114 1.501 . S
C110 C111 1.387 . S
C110 N113 1.341 . S
C111 C109 1.400 . S
C111 C110 1.387 . S
N112 Co103 2.022 . S
N112 C109 1.351 . S
N112 N113 1.365 . S
N113 C110 1.341 . S
N113 N112 1.365 . S
N113 H133 0.862 . S
C114 C109 1.501 . S
C114 H115 0.961 . S
C114 H116 0.961 . S
C114 H117 0.960 . S
H115 C114 0.961 . S
H116 C114 0.961 . S
H117 C114 0.960 . S
C118 N119 1.342 . S
C118 C122 1.401 . S
C118 C123 1.499 . S
N119 Co102 1.989 . S
N119 C118 1.342 . S
N119 N120 1.388 . S
N120 Co103 1.993 . S
N120 N119 1.388 . S
N120 C121 1.346 . S
C121 N120 1.346 . S
C121 C122 1.396 . S
C121 C131 1.510 . S
C122 C118 1.401 . S
C122 C121 1.396 . S
C123 C118 1.499 . S
C123 H124 0.959 . S
C123 H125 0.960 . S
C123 H126 0.961 . S
H124 C123 0.959 . S
H125 C123 0.960 . S
H126 C123 0.961 . S
O127 Co102 1.967 . S
O127 C135 1.258 . S
O128 Co103 1.941 . S
O128 C135 1.266 . S
H129 C131 0.959 . S
H130 C131 0.961 . S
C131 C121 1.510 . S
C131 H129 0.959 . S
C131 H130 0.961 . S
C131 H132 0.960 . S
H132 C131 0.960 . S
H133 N113 0.862 . S
O134 Co102 1.920 . S
O134 C107 1.289 . S
C135 O127 1.258 . S
C135 O128 1.266 . S
Co136 O139 1.970 . S
Co136 N153 1.989 . S
Co136 O161 1.967 . S
Co136 O168 1.920 . S
Co137 O140 1.966 . S
Co137 N146 2.022 . S
Co137 N154 1.993 . S
Co137 O162 1.941 . S
C138 O139 1.258 . S
C138 O140 1.263 . S
O139 Co136 1.970 . S
O139 C138 1.258 . S
O140 Co137 1.966 . S
O140 C138 1.263 . S
C141 O142 1.235 . S
C141 O168 1.289 . S
O142 C141 1.235 . S
C143 C145 1.400 . S
C143 N146 1.351 . S
C143 C148 1.501 . S
C144 C145 1.387 . S
C144 N147 1.341 . S
C145 C143 1.400 . S
C145 C144 1.387 . S
N146 Co137 2.022 . S
N146 C143 1.351 . S
N146 N147 1.365 . S
N147 C144 1.341 . S
N147 N146 1.365 . S
N147 H167 0.862 . S
C148 C143 1.501 . S
C148 H149 0.961 . S
C148 H150 0.961 . S
C148 H151 0.960 . S
H149 C148 0.961 . S
H150 C148 0.961 . S
H151 C148 0.960 . S
C152 N153 1.342 . S
C152 C156 1.401 . S
C152 C157 1.499 . S
N153 Co136 1.989 . S
N153 C152 1.342 . S
N153 N154 1.388 . S
N154 Co137 1.993 . S
N154 N153 1.388 . S
N154 C155 1.346 . S
C155 N154 1.346 . S
C155 C156 1.396 . S
C155 C165 1.510 . S
C156 C152 1.401 . S
C156 C155 1.396 . S
C157 C152 1.499 . S
C157 H158 0.959 . S
C157 H159 0.960 . S
C157 H160 0.961 . S
H158 C157 0.959 . S
H159 C157 0.960 . S
H160 C157 0.961 . S
O161 Co136 1.967 . S
O161 C169 1.258 . S
O162 Co137 1.941 . S
O162 C169 1.266 . S
H163 C165 0.959 . S
H164 C165 0.961 . S
C165 C155 1.510 . S
C165 H163 0.959 . S
C165 H164 0.961 . S
C165 H166 0.960 . S
H166 C165 0.960 . S
H167 N147 0.862 . S
O168 Co136 1.920 . S
O168 C141 1.289 . S
C169 O161 1.258 . S
C169 O162 1.266 . S
Co170 O173 1.970 . S
Co170 N187 1.989 . S
Co170 O195 1.967 . S
Co170 O202 1.920 . S
Co171 O174 1.966 . S
Co171 N180 2.022 . S
Co171 N188 1.993 . S
Co171 O196 1.941 . S
C172 O173 1.258 . S
C172 O174 1.263 . S
O173 Co170 1.970 . S
O173 C172 1.258 . S
O174 Co171 1.966 . S
O174 C172 1.263 . S
C175 O176 1.235 . S
C175 O202 1.289 . S
O176 C175 1.235 . S
C177 C179 1.400 . S
C177 N180 1.351 . S
C177 C182 1.501 . S
C178 C179 1.387 . S
C178 N181 1.341 . S
C179 C177 1.400 . S
C179 C178 1.387 . S
N180 Co171 2.022 . S
N180 C177 1.351 . S
N180 N181 1.365 . S
N181 C178 1.341 . S
N181 N180 1.365 . S
N181 H201 0.862 . S
C182 C177 1.501 . S
C182 H183 0.961 . S
C182 H184 0.961 . S
C182 H185 0.960 . S
H183 C182 0.961 . S
H184 C182 0.961 . S
H185 C182 0.960 . S
C186 N187 1.342 . S
C186 C190 1.401 . S
C186 C191 1.499 . S
N187 Co170 1.989 . S
N187 C186 1.342 . S
N187 N188 1.388 . S
N188 Co171 1.993 . S
N188 N187 1.388 . S
N188 C189 1.346 . S
C189 N188 1.346 . S
C189 C190 1.396 . S
C189 C199 1.510 . S
C190 C186 1.401 . S
C190 C189 1.396 . S
C191 C186 1.499 . S
C191 H192 0.959 . S
C191 H193 0.960 . S
C191 H194 0.961 . S
H192 C191 0.959 . S
H193 C191 0.960 . S
H194 C191 0.961 . S
O195 Co170 1.967 . S
O195 C203 1.258 . S
O196 Co171 1.941 . S
O196 C203 1.266 . S
H197 C199 0.959 . S
H198 C199 0.961 . S
C199 C189 1.510 . S
C199 H197 0.959 . S
C199 H198 0.961 . S
C199 H200 0.960 . S
H200 C199 0.960 . S
H201 N181 0.862 . S
O202 Co170 1.920 . S
O202 C175 1.289 . S
C203 O195 1.258 . S
C203 O196 1.266 . S
Co204 O207 1.970 . S
Co204 N221 1.989 . S
Co204 O229 1.967 . S
Co204 O236 1.920 . S
Co205 O208 1.966 . S
Co205 N214 2.022 . S
Co205 N222 1.993 . S
Co205 O230 1.941 . S
C206 O207 1.258 . S
C206 O208 1.263 . S
O207 Co204 1.970 . S
O207 C206 1.258 . S
O208 Co205 1.966 . S
O208 C206 1.263 . S
C209 O210 1.235 . S
C209 O236 1.289 . S
O210 C209 1.235 . S
C211 C213 1.400 . S
C211 N214 1.351 . S
C211 C216 1.501 . S
C212 C213 1.387 . S
C212 N215 1.341 . S
C213 C211 1.400 . S
C213 C212 1.387 . S
N214 Co205 2.022 . S
N214 C211 1.351 . S
N214 N215 1.365 . S
N215 C212 1.341 . S
N215 N214 1.365 . S
N215 H235 0.862 . S
C216 C211 1.501 . S
C216 H217 0.961 . S
C216 H218 0.961 . S
C216 H219 0.960 . S
H217 C216 0.961 . S
H218 C216 0.961 . S
H219 C216 0.960 . S
C220 N221 1.342 . S
C220 C224 1.401 . S
C220 C225 1.499 . S
N221 Co204 1.989 . S
N221 C220 1.342 . S
N221 N222 1.388 . S
N222 Co205 1.993 . S
N222 N221 1.388 . S
N222 C223 1.346 . S
C223 N222 1.346 . S
C223 C224 1.396 . S
C223 C233 1.510 . S
C224 C220 1.401 . S
C224 C223 1.396 . S
C225 C220 1.499 . S
C225 H226 0.959 . S
C225 H227 0.960 . S
C225 H228 0.961 . S
H226 C225 0.959 . S
H227 C225 0.960 . S
H228 C225 0.961 . S
O229 Co204 1.967 . S
O229 C237 1.258 . S
O230 Co205 1.941 . S
O230 C237 1.266 . S
H231 C233 0.959 . S
H232 C233 0.961 . S
C233 C223 1.510 . S
C233 H231 0.959 . S
C233 H232 0.961 . S
C233 H234 0.960 . S
H234 C233 0.960 . S
H235 N215 0.862 . S
O236 Co204 1.920 . S
O236 C209 1.289 . S
C237 O229 1.258 . S
C237 O230 1.266 . S
Co238 O241 1.970 . S
Co238 N255 1.989 . S
Co238 O263 1.967 . S
Co238 O270 1.920 . S
Co239 O242 1.966 . S
Co239 N248 2.022 . S
Co239 N256 1.993 . S
Co239 O264 1.941 . S
C240 O241 1.258 . S
C240 O242 1.263 . S
O241 Co238 1.970 . S
O241 C240 1.258 . S
O242 Co239 1.966 . S
O242 C240 1.263 . S
C243 O244 1.235 . S
C243 O270 1.289 . S
O244 C243 1.235 . S
C245 C247 1.400 . S
C245 N248 1.351 . S
C245 C250 1.501 . S
C246 C247 1.387 . S
C246 N249 1.341 . S
C247 C245 1.400 . S
C247 C246 1.387 . S
N248 Co239 2.022 . S
N248 C245 1.351 . S
N248 N249 1.365 . S
N249 C246 1.341 . S
N249 N248 1.365 . S
N249 H269 0.862 . S
C250 C245 1.501 . S
C250 H251 0.961 . S
C250 H252 0.961 . S
C250 H253 0.960 . S
H251 C250 0.961 . S
H252 C250 0.961 . S
H253 C250 0.960 . S
C254 N255 1.342 . S
C254 C258 1.401 . S
C254 C259 1.499 . S
N255 Co238 1.989 . S
N255 C254 1.342 . S
N255 N256 1.388 . S
N256 Co239 1.993 . S
N256 N255 1.388 . S
N256 C257 1.346 . S
C257 N256 1.346 . S
C257 C258 1.396 . S
C257 C267 1.510 . S
C258 C254 1.401 . S
C258 C257 1.396 . S
C259 C254 1.499 . S
C259 H260 0.959 . S
C259 H261 0.960 . S
C259 H262 0.961 . S
H260 C259 0.959 . S
H261 C259 0.960 . S
H262 C259 0.961 . S
O263 Co238 1.967 . S
O263 C271 1.258 . S
O264 Co239 1.941 . S
O264 C271 1.266 . S
H265 C267 0.959 . S
H266 C267 0.961 . S
C267 C257 1.510 . S
C267 H265 0.959 . S
C267 H266 0.961 . S
C267 H268 0.960 . S
H268 C267 0.960 . S
H269 N249 0.862 . S
O270 Co238 1.920 . S
O270 C243 1.289 . S
C271 O263 1.258 . S
C271 O264 1.266 . S
Co272 O275 1.970 . S
Co272 N289 1.989 . S
Co272 O297 1.967 . S
Co272 O304 1.920 . S
Co273 O276 1.966 . S
Co273 N282 2.022 . S
Co273 N290 1.993 . S
Co273 O298 1.941 . S
C274 O275 1.258 . S
C274 O276 1.263 . S
O275 Co272 1.970 . S
O275 C274 1.258 . S
O276 Co273 1.966 . S
O276 C274 1.263 . S
C277 O278 1.235 . S
C277 O304 1.289 . S
O278 C277 1.235 . S
C279 C281 1.400 . S
C279 N282 1.351 . S
C279 C284 1.501 . S
C280 C281 1.387 . S
C280 N283 1.341 . S
C281 C279 1.400 . S
C281 C280 1.387 . S
N282 Co273 2.022 . S
N282 C279 1.351 . S
N282 N283 1.365 . S
N283 C280 1.341 . S
N283 N282 1.365 . S
N283 H303 0.862 . S
C284 C279 1.501 . S
C284 H285 0.961 . S
C284 H286 0.961 . S
C284 H287 0.960 . S
H285 C284 0.961 . S
H286 C284 0.961 . S
H287 C284 0.960 . S
C288 N289 1.342 . S
C288 C292 1.401 . S
C288 C293 1.499 . S
N289 Co272 1.989 . S
N289 C288 1.342 . S
N289 N290 1.388 . S
N290 Co273 1.993 . S
N290 N289 1.388 . S
N290 C291 1.346 . S
C291 N290 1.346 . S
C291 C292 1.396 . S
C291 C301 1.510 . S
C292 C288 1.401 . S
C292 C291 1.396 . S
C293 C288 1.499 . S
C293 H294 0.959 . S
C293 H295 0.960 . S
C293 H296 0.961 . S
H294 C293 0.959 . S
H295 C293 0.960 . S
H296 C293 0.961 . S
O297 Co272 1.967 . S
O297 C305 1.258 . S
O298 Co273 1.941 . S
O298 C305 1.266 . S
H299 C301 0.959 . S
H300 C301 0.961 . S
C301 C291 1.510 . S
C301 H299 0.959 . S
C301 H300 0.961 . S
C301 H302 0.960 . S
H302 C301 0.960 . S
H303 N283 0.862 . S
O304 Co272 1.920 . S
O304 C277 1.289 . S
C305 O297 1.258 . S
C305 O298 1.266 . S
Co306 O309 1.970 . S
Co306 N323 1.989 . S
Co306 O331 1.967 . S
Co306 O338 1.920 . S
Co307 O310 1.966 . S
Co307 N316 2.022 . S
Co307 N324 1.993 . S
Co307 O332 1.941 . S
C308 O309 1.258 . S
C308 O310 1.263 . S
O309 Co306 1.970 . S
O309 C308 1.258 . S
O310 Co307 1.966 . S
O310 C308 1.263 . S
C311 O312 1.235 . S
C311 O338 1.289 . S
O312 C311 1.235 . S
C313 C315 1.400 . S
C313 N316 1.351 . S
C313 C318 1.501 . S
C314 C315 1.387 . S
C314 N317 1.341 . S
C315 C313 1.400 . S
C315 C314 1.387 . S
N316 Co307 2.022 . S
N316 C313 1.351 . S
N316 N317 1.365 . S
N317 C314 1.341 . S
N317 N316 1.365 . S
N317 H337 0.862 . S
C318 C313 1.501 . S
C318 H319 0.961 . S
C318 H320 0.961 . S
C318 H321 0.960 . S
H319 C318 0.961 . S
H320 C318 0.961 . S
H321 C318 0.960 . S
C322 N323 1.342 . S
C322 C326 1.401 . S
C322 C327 1.499 . S
N323 Co306 1.989 . S
N323 C322 1.342 . S
N323 N324 1.388 . S
N324 Co307 1.993 . S
N324 N323 1.388 . S
N324 C325 1.346 . S
C325 N324 1.346 . S
C325 C326 1.396 . S
C325 C335 1.510 . S
C326 C322 1.401 . S
C326 C325 1.396 . S
C327 C322 1.499 . S
C327 H328 0.959 . S
C327 H329 0.960 . S
C327 H330 0.961 . S
H328 C327 0.959 . S
H329 C327 0.960 . S
H330 C327 0.961 . S
O331 Co306 1.967 . S
O331 C339 1.258 . S
O332 Co307 1.941 . S
O332 C339 1.266 . S
H333 C335 0.959 . S
H334 C335 0.961 . S
C335 C325 1.510 . S
C335 H333 0.959 . S
C335 H334 0.961 . S
C335 H336 0.960 . S
H336 C335 0.960 . S
H337 N317 0.862 . S
O338 Co306 1.920 . S
O338 C311 1.289 . S
C339 O331 1.258 . S
C339 O332 1.266 . S
Co340 O343 1.970 . S
Co340 N357 1.989 . S
Co340 O365 1.967 . S
Co340 O372 1.920 . S
Co341 O344 1.966 . S
Co341 N350 2.022 . S
Co341 N358 1.993 . S
Co341 O366 1.941 . S
C342 O343 1.258 . S
C342 O344 1.263 . S
O343 Co340 1.970 . S
O343 C342 1.258 . S
O344 Co341 1.966 . S
O344 C342 1.263 . S
C345 O346 1.235 . S
C345 O372 1.289 . S
O346 C345 1.235 . S
C347 C349 1.400 . S
C347 N350 1.351 . S
C347 C352 1.501 . S
C348 C349 1.387 . S
C348 N351 1.341 . S
C349 C347 1.400 . S
C349 C348 1.387 . S
N350 Co341 2.022 . S
N350 C347 1.351 . S
N350 N351 1.365 . S
N351 C348 1.341 . S
N351 N350 1.365 . S
N351 H371 0.862 . S
C352 C347 1.501 . S
C352 H353 0.961 . S
C352 H354 0.961 . S
C352 H355 0.960 . S
H353 C352 0.961 . S
H354 C352 0.961 . S
H355 C352 0.960 . S
C356 N357 1.342 . S
C356 C360 1.401 . S
C356 C361 1.499 . S
N357 Co340 1.989 . S
N357 C356 1.342 . S
N357 N358 1.388 . S
N358 Co341 1.993 . S
N358 N357 1.388 . S
N358 C359 1.346 . S
C359 N358 1.346 . S
C359 C360 1.396 . S
C359 C369 1.510 . S
C360 C356 1.401 . S
C360 C359 1.396 . S
C361 C356 1.499 . S
C361 H362 0.959 . S
C361 H363 0.960 . S
C361 H364 0.961 . S
H362 C361 0.959 . S
H363 C361 0.960 . S
H364 C361 0.961 . S
O365 Co340 1.967 . S
O365 C373 1.258 . S
O366 Co341 1.941 . S
O366 C373 1.266 . S
H367 C369 0.959 . S
H368 C369 0.961 . S
C369 C359 1.510 . S
C369 H367 0.959 . S
C369 H368 0.961 . S
C369 H370 0.960 . S
H370 C369 0.960 . S
H371 N351 0.862 . S
O372 Co340 1.920 . S
O372 C345 1.289 . S
C373 O365 1.258 . S
C373 O366 1.266 . S
Co374 O377 1.970 . S
Co374 N391 1.989 . S
Co374 O399 1.967 . S
Co374 O406 1.920 . S
Co375 O378 1.966 . S
Co375 N384 2.022 . S
Co375 N392 1.993 . S
Co375 O400 1.941 . S
C376 O377 1.258 . S
C376 O378 1.263 . S
O377 Co374 1.970 . S
O377 C376 1.258 . S
O378 Co375 1.966 . S
O378 C376 1.263 . S
C379 O380 1.235 . S
C379 O406 1.289 . S
O380 C379 1.235 . S
C381 C383 1.400 . S
C381 N384 1.351 . S
C381 C386 1.501 . S
C382 C383 1.387 . S
C382 N385 1.341 . S
C383 C381 1.400 . S
C383 C382 1.387 . S
N384 Co375 2.022 . S
N384 C381 1.351 . S
N384 N385 1.365 . S
N385 C382 1.341 . S
N385 N384 1.365 . S
N385 H405 0.862 . S
C386 C381 1.501 . S
C386 H387 0.961 . S
C386 H388 0.961 . S
C386 H389 0.960 . S
H387 C386 0.961 . S
H388 C386 0.961 . S
H389 C386 0.960 . S
C390 N391 1.342 . S
C390 C394 1.401 . S
C390 C395 1.499 . S
N391 Co374 1.989 . S
N391 C390 1.342 . S
N391 N392 1.388 . S
N392 Co375 1.993 . S
N392 N391 1.388 . S
N392 C393 1.346 . S
C393 N392 1.346 . S
C393 C394 1.396 . S
C393 C403 1.510 . S
C394 C390 1.401 . S
C394 C393 1.396 . S
C395 C390 1.499 . S
C395 H396 0.959 . S
C395 H397 0.960 . S
C395 H398 0.961 . S
H396 C395 0.959 . S
H397 C395 0.960 . S
H398 C395 0.961 . S
O399 Co374 1.967 . S
O399 C407 1.258 . S
O400 Co375 1.941 . S
O400 C407 1.266 . S
H401 C403 0.959 . S
H402 C403 0.961 . S
C403 C393 1.510 . S
C403 H401 0.959 . S
C403 H402 0.961 . S
C403 H404 0.960 . S
H404 C403 0.960 . S
H405 N385 0.862 . S
O406 Co374 1.920 . S
O406 C379 1.289 . S
C407 O399 1.258 . S
C407 O400 1.266 . S
H408 C420 0.930 . S
H409 C422 0.930 . S
H410 C423 0.930 . S
H411 C427 0.979 1_545 S
H412 C427 0.959 1_655 S
H413 C427 0.961 1_545 S
H414 C428 0.960 . S
H415 C428 0.961 . S
H416 C428 0.959 . S
H417 C431 0.929 1_455 S
H418 C432 0.931 . S
H419 C434 0.930 . S
C420 H408 0.930 . S
C420 C421 1.399 . S
C420 C425 1.392 1_545 S
C421 C420 1.399 . S
C421 C422 1.376 . S
C422 H409 0.930 . S
C422 C421 1.376 . S
C422 C423 1.388 1_545 S
C423 H410 0.930 . S
C423 C422 1.388 1_565 S
C423 C424 1.390 . S
C424 C423 1.390 . S
C424 C425 1.399 . S
C424 C430 1.465 . S
C425 C420 1.392 1_565 S
C425 C424 1.399 . S
C425 C426 1.519 . S
C426 C425 1.519 . S
C426 C427 1.502 . S
C426 C428 1.561 . S
C426 C429 1.526 . S
C427 H411 0.979 1_565 S
C427 H412 0.959 1_455 S
C427 H413 0.961 1_565 S
C427 C426 1.502 . S
C428 H414 0.960 . S
C428 H415 0.961 . S
C428 H416 0.959 . S
C428 C426 1.561 . S
C429 C426 1.526 . S
C429 C430 1.396 . S
C429 C434 1.390 1_455 S
C430 C424 1.465 . S
C430 C429 1.396 . S
C430 C431 1.399 1_455 S
C431 H417 0.929 1_655 S
C431 C430 1.399 1_655 S
C431 C432 1.385 . S
C432 H418 0.931 . S
C432 C431 1.385 . S
C432 C433 1.389 . S
C433 C432 1.389 . S
C433 C434 1.387 . S
C434 H419 0.930 . S
C434 C429 1.390 1_655 S
C434 C433 1.387 . S
H435 C447 0.930 . S
H436 C449 0.930 . S
H437 C450 0.930 . S
H438 C454 0.959 1_665 S
H439 C454 0.959 . S
H440 C454 0.961 1_565 S
H441 C455 0.960 . S
H442 C455 0.961 . S
H443 C455 0.959 . S
H444 C458 0.929 . S
H445 C459 0.931 . S
H446 C461 0.930 . S
C447 H435 0.930 . S
C447 C448 1.399 . S
C447 C452 1.406 . S
C448 C447 1.399 . S
C448 C449 1.376 . S
C449 H436 0.930 . S
C449 C448 1.376 . S
C449 C450 1.388 1_565 S
C450 H437 0.930 . S
C450 C449 1.388 1_545 S
C450 C451 1.390 . S
C451 C450 1.390 . S
C451 C452 1.391 1_545 S
C451 C457 1.465 . S
C452 C447 1.406 . S
C452 C451 1.391 1_565 S
C452 C453 1.511 1_565 S
C453 C452 1.511 1_545 S
C453 C454 1.502 . S
C453 C455 1.561 . S
C453 C456 1.526 . S
C454 H438 0.959 1_445 S
C454 H439 0.959 . S
C454 H440 0.961 1_545 S
C454 C453 1.502 . S
C455 H441 0.960 . S
C455 H442 0.961 . S
C455 H443 0.959 . S
C455 C453 1.561 . S
C456 C453 1.526 . S
C456 C457 1.396 . S
C456 C461 1.390 . S
C457 C451 1.465 . S
C457 C456 1.396 . S
C457 C458 1.399 . S
C458 H444 0.929 . S
C458 C457 1.399 . S
C458 C459 1.385 . S
C459 H445 0.931 . S
C459 C458 1.385 . S
C459 C460 1.389 . S
C460 C459 1.389 . S
C460 C461 1.387 . S
C461 H446 0.930 . S
C461 C456 1.390 . S
C461 C460 1.387 . S
H462 C474 0.930 . S
H463 C476 0.930 . S
H464 C477 0.930 . S
H465 C481 0.959 . S
H466 C481 0.959 . S
H467 C481 0.961 . S
H468 C482 0.960 . S
H469 C482 0.961 . S
H470 C482 0.959 . S
H471 C485 0.929 . S
H472 C486 0.931 . S
H473 C488 0.930 . S
C474 H462 0.930 . S
C474 C475 1.399 . S
C474 C479 1.399 1_655 S
C475 C474 1.399 . S
C475 C476 1.376 . S
C476 H463 0.930 . S
C476 C475 1.376 . S
C476 C477 1.388 . S
C477 H464 0.930 . S
C477 C476 1.388 . S
C477 C478 1.390 1_655 S
C478 C477 1.390 1_455 S
C478 C479 1.394 . S
C478 C484 1.465 . S
C479 C474 1.399 1_455 S
C479 C478 1.394 . S
C479 C480 1.516 . S
C480 C479 1.516 . S
C480 C481 1.502 . S
C480 C482 1.561 . S
C480 C483 1.526 . S
C481 H465 0.959 . S
C481 H466 0.959 . S
C481 H467 0.961 . S
C481 C480 1.502 . S
C482 H468 0.960 . S
C482 H469 0.961 . S
C482 H470 0.959 . S
C482 C480 1.561 . S
C483 C480 1.526 . S
C483 C484 1.396 . S
C483 C488 1.390 . S
C484 C478 1.465 . S
C484 C483 1.396 . S
C484 C485 1.399 . S
C485 H471 0.929 . S
C485 C484 1.399 . S
C485 C486 1.385 . S
C486 H472 0.931 . S
C486 C485 1.385 . S
C486 C487 1.389 . S
C487 C486 1.389 . S
C487 C488 1.387 . S
C488 H473 0.930 . S
C488 C483 1.390 . S
C488 C487 1.387 . S
H489 C501 0.930 . S
H490 C503 0.930 . S
H491 C504 0.930 1_545 S
H492 C508 0.959 . S
H493 C508 0.959 . S
H494 C508 0.961 1_565 S
H495 C509 0.960 . S
H496 C509 0.961 . S
H497 C509 0.959 . S
H498 C512 0.929 . S
H499 C513 0.931 . S
H500 C515 0.930 . S
C501 H489 0.930 . S
C501 C502 1.399 . S
C501 C506 1.399 1_565 S
C502 C501 1.399 . S
C502 C503 1.376 . S
C503 H490 0.930 . S
C503 C502 1.376 . S
C503 C504 1.388 . S
C504 H491 0.930 1_565 S
C504 C503 1.388 . S
C504 C505 1.390 1_565 S
C505 C504 1.390 1_545 S
C505 C506 1.394 . S
C505 C511 1.465 . S
C506 C501 1.399 1_545 S
C506 C505 1.394 . S
C506 C507 1.516 . S
C507 C506 1.516 . S
C507 C508 1.502 . S
C507 C509 1.561 . S
C507 C510 1.526 . S
C508 H492 0.959 . S
C508 H493 0.959 . S
C508 H494 0.961 1_545 S
C508 C507 1.502 . S
C509 H495 0.960 . S
C509 H496 0.961 . S
C509 H497 0.959 . S
C509 C507 1.561 . S
C510 C507 1.526 . S
C510 C511 1.396 . S
C510 C515 1.390 1_655 S
C511 C505 1.465 . S
C511 C510 1.396 . S
C511 C512 1.399 1_655 S
C512 H498 0.929 . S
C512 C511 1.399 1_455 S
C512 C513 1.385 . S
C513 H499 0.931 . S
C513 C512 1.385 . S
C513 C514 1.389 . S
C514 C513 1.389 . S
C514 C515 1.387 . S
C515 H500 0.930 . S
C515 C510 1.390 1_455 S
C515 C514 1.387 . S
H516 C528 0.930 . S
H517 C530 0.930 . S
H518 C531 0.930 . S
H519 C535 0.959 1_445 S
H520 C535 0.959 1_545 S
H521 C535 0.961 . S
H522 C536 0.960 . S
H523 C536 0.961 . S
H524 C536 0.959 . S
H525 C539 0.929 1_565 S
H526 C540 0.931 . S
H527 C542 0.930 . S
C528 H516 0.930 . S
C528 C529 1.399 . S
C528 C533 1.399 . S
C529 C528 1.399 . S
C529 C530 1.376 . S
C530 H517 0.930 . S
C530 C529 1.376 . S
C530 C531 1.388 . S
C531 H518 0.930 . S
C531 C530 1.388 . S
C531 C532 1.390 . S
C532 C531 1.390 . S
C532 C533 1.394 . S
C532 C538 1.465 . S
C533 C528 1.399 . S
C533 C532 1.394 . S
C533 C534 1.516 . S
C534 C533 1.516 . S
C534 C535 1.502 . S
C534 C536 1.561 . S
C534 C537 1.526 . S
C535 H519 0.959 1_665 S
C535 H520 0.959 1_565 S
C535 H521 0.961 . S
C535 C534 1.502 . S
C536 H522 0.960 . S
C536 H523 0.961 . S
C536 H524 0.959 . S
C536 C534 1.561 . S
C537 C534 1.526 . S
C537 C538 1.396 . S
C537 C542 1.390 1_565 S
C538 C532 1.465 . S
C538 C537 1.396 . S
C538 C539 1.399 1_565 S
C539 H525 0.929 1_545 S
C539 C538 1.399 1_545 S
C539 C540 1.385 . S
C540 H526 0.931 . S
C540 C539 1.385 . S
C540 C541 1.389 . S
C541 C540 1.389 . S
C541 C542 1.387 . S
C542 H527 0.930 . S
C542 C537 1.390 1_545 S
C542 C541 1.387 . S
H543 C555 0.930 . S
H544 C557 0.930 . S
H545 C558 0.930 1_545 S
H546 C562 0.959 . S
H547 C562 0.959 . S
H548 C562 0.961 . S
H549 C563 0.960 . S
H550 C563 0.961 . S
H551 C563 0.959 . S
H552 C566 0.929 1_545 S
H553 C567 0.931 . S
H554 C569 0.930 . S
C555 H543 0.930 . S
C555 C556 1.399 . S
C555 C560 1.399 1_455 S
C556 C555 1.399 . S
C556 C557 1.376 . S
C557 H544 0.930 . S
C557 C556 1.376 . S
C557 C558 1.388 . S
C558 H545 0.930 1_565 S
C558 C557 1.388 . S
C558 C559 1.390 1_455 S
C559 C558 1.390 1_655 S
C559 C560 1.394 . S
C559 C565 1.465 . S
C560 C555 1.399 1_655 S
C560 C559 1.394 . S
C560 C561 1.516 . S
C561 C560 1.516 . S
C561 C562 1.502 . S
C561 C563 1.561 . S
C561 C564 1.526 . S
C562 H546 0.959 . S
C562 H547 0.959 . S
C562 H548 0.961 . S
C562 C561 1.502 . S
C563 H549 0.960 . S
C563 H550 0.961 . S
C563 H551 0.959 . S
C563 C561 1.561 . S
C564 C561 1.526 . S
C564 C565 1.396 . S
C564 C569 1.390 . S
C565 C559 1.465 . S
C565 C564 1.396 . S
C565 C566 1.399 . S
C566 H552 0.929 1_565 S
C566 C565 1.399 . S
C566 C567 1.385 . S
C567 H553 0.931 . S
C567 C566 1.385 . S
C567 C568 1.389 . S
C568 C567 1.389 . S
C568 C569 1.387 . S
C569 H554 0.930 . S
C569 C564 1.390 . S
C569 C568 1.387 . S
H570 C582 0.930 . S
H571 C584 0.930 . S
H572 C585 0.930 . S
H573 C589 0.959 . S
H574 C589 0.959 . S
H575 C589 0.961 . S
H576 C590 0.960 . S
H577 C590 0.961 . S
H578 C590 0.959 . S
H579 C593 0.929 . S
H580 C594 0.931 . S
H581 C596 0.930 . S
C582 H570 0.930 . S
C582 C583 1.399 . S
C582 C587 1.399 . S
C583 C582 1.399 . S
C583 C584 1.376 . S
C584 H571 0.930 . S
C584 C583 1.376 . S
C584 C585 1.388 . S
C585 H572 0.930 . S
C585 C584 1.388 . S
C585 C586 1.390 . S
C586 C585 1.390 . S
C586 C587 1.394 . S
C586 C592 1.465 . S
C587 C582 1.399 . S
C587 C586 1.394 . S
C587 C588 1.516 . S
C588 C587 1.516 . S
C588 C589 1.502 . S
C588 C590 1.561 . S
C588 C591 1.526 . S
C589 H573 0.959 . S
C589 H574 0.959 . S
C589 H575 0.961 . S
C589 C588 1.502 . S
C590 H576 0.960 . S
C590 H577 0.961 . S
C590 H578 0.959 . S
C590 C588 1.561 . S
C591 C588 1.526 . S
C591 C592 1.396 . S
C591 C596 1.390 . S
C592 C586 1.465 . S
C592 C591 1.396 . S
C592 C593 1.399 . S
C593 H579 0.929 . S
C593 C592 1.399 . S
C593 C594 1.385 . S
C594 H580 0.931 . S
C594 C593 1.385 . S
C594 C595 1.389 . S
C595 C594 1.389 . S
C595 C596 1.387 . S
C596 H581 0.930 . S
C596 C591 1.390 . S
C596 C595 1.387 . S
H597 C609 0.930 . S
H598 C611 0.930 . S
H599 C612 0.930 . S
H600 C616 0.959 . S
H601 C616 0.959 . S
H602 C616 0.961 . S
H603 C617 0.960 . S
H604 C617 0.961 . S
H605 C617 0.959 . S
H606 C620 0.929 . S
H607 C621 0.931 . S
H608 C623 0.930 . S
C609 H597 0.930 . S
C609 C610 1.399 . S
C609 C614 1.399 . S
C610 C609 1.399 . S
C610 C611 1.376 . S
C611 H598 0.930 . S
C611 C610 1.376 . S
C611 C612 1.388 . S
C612 H599 0.930 . S
C612 C611 1.388 . S
C612 C613 1.390 . S
C613 C612 1.390 . S
C613 C614 1.394 . S
C613 C619 1.465 . S
C614 C609 1.399 . S
C614 C613 1.394 . S
C614 C615 1.516 . S
C615 C614 1.516 . S
C615 C616 1.502 . S
C615 C617 1.561 . S
C615 C618 1.526 . S
C616 H600 0.959 . S
C616 H601 0.959 . S
C616 H602 0.961 . S
C616 C615 1.502 . S
C617 H603 0.960 . S
C617 H604 0.961 . S
C617 H605 0.959 . S
C617 C615 1.561 . S
C618 C615 1.526 . S
C618 C619 1.396 . S
C618 C623 1.390 . S
C619 C613 1.465 . S
C619 C618 1.396 . S
C619 C620 1.399 . S
C620 H606 0.929 . S
C620 C619 1.399 . S
C620 C621 1.385 . S
C621 H607 0.931 . S
C621 C620 1.385 . S
C621 C622 1.389 . S
C622 C621 1.389 . S
C622 C623 1.387 . S
C623 H608 0.930 . S
C623 C618 1.390 . S
C623 C622 1.387 . S
H624 C636 0.930 . S
H625 C638 0.930 . S
H626 C639 0.930 . S
H627 C643 0.959 . S
H628 C643 0.959 . S
H629 C643 0.961 . S
H630 C644 0.960 . S
H631 C644 0.961 . S
H632 C644 0.959 . S
H633 C647 0.929 . S
H634 C648 0.931 . S
H635 C650 0.930 . S
C636 H624 0.930 . S
C636 C637 1.399 . S
C636 C641 1.399 . S
C637 C636 1.399 . S
C637 C638 1.376 . S
C638 H625 0.930 . S
C638 C637 1.376 . S
C638 C639 1.388 . S
C639 H626 0.930 . S
C639 C638 1.388 . S
C639 C640 1.390 . S
C640 C639 1.390 . S
C640 C641 1.394 . S
C640 C646 1.465 . S
C641 C636 1.399 . S
C641 C640 1.394 . S
C641 C642 1.516 . S
C642 C641 1.516 . S
C642 C643 1.502 . S
C642 C644 1.561 . S
C642 C645 1.526 . S
C643 H627 0.959 . S
C643 H628 0.959 . S
C643 H629 0.961 . S
C643 C642 1.502 . S
C644 H630 0.960 . S
C644 H631 0.961 . S
C644 H632 0.959 . S
C644 C642 1.561 . S
C645 C642 1.526 . S
C645 C646 1.396 . S
C645 C650 1.390 . S
C646 C640 1.465 . S
C646 C645 1.396 . S
C646 C647 1.399 . S
C647 H633 0.929 . S
C647 C646 1.399 . S
C647 C648 1.385 . S
C648 H634 0.931 . S
C648 C647 1.385 . S
C648 C649 1.389 . S
C649 C648 1.389 . S
C649 C650 1.387 . S
C650 H635 0.930 . S
C650 C645 1.390 . S
C650 C649 1.387 . S
H651 C663 0.930 . S
H652 C665 0.930 . S
H653 C666 0.930 . S
H654 C670 0.959 . S
H655 C670 0.959 . S
H656 C670 0.961 . S
H657 C671 0.960 . S
H658 C671 0.961 . S
H659 C671 0.959 . S
H660 C674 0.929 . S
H661 C675 0.931 . S
H662 C677 0.930 . S
C663 H651 0.930 . S
C663 C664 1.399 . S
C663 C668 1.399 . S
C664 C663 1.399 . S
C664 C665 1.376 . S
C665 H652 0.930 . S
C665 C664 1.376 . S
C665 C666 1.388 . S
C666 H653 0.930 . S
C666 C665 1.388 . S
C666 C667 1.390 . S
C667 C666 1.390 . S
C667 C668 1.394 . S
C667 C673 1.465 . S
C668 C663 1.399 . S
C668 C667 1.394 . S
C668 C669 1.516 . S
C669 C668 1.516 . S
C669 C670 1.502 . S
C669 C671 1.561 . S
C669 C672 1.526 . S
C670 H654 0.959 . S
C670 H655 0.959 . S
C670 H656 0.961 . S
C670 C669 1.502 . S
C671 H657 0.960 . S
C671 H658 0.961 . S
C671 H659 0.959 . S
C671 C669 1.561 . S
C672 C669 1.526 . S
C672 C673 1.396 . S
C672 C677 1.390 . S
C673 C667 1.465 . S
C673 C672 1.396 . S
C673 C674 1.399 . S
C674 H660 0.929 . S
C674 C673 1.399 . S
C674 C675 1.385 . S
C675 H661 0.931 . S
C675 C674 1.385 . S
C675 C676 1.389 . S
C676 C675 1.389 . S
C676 C677 1.387 . S
C677 H662 0.930 . S
C677 C672 1.390 . S
C677 C676 1.387 . S
H678 C690 0.930 . S
H679 C692 0.930 . S
H680 C693 0.930 . S
H681 C697 0.959 . S
H682 C697 0.959 . S
H683 C697 0.961 . S
H684 C698 0.960 . S
H685 C698 0.961 . S
H686 C698 0.959 . S
H687 C701 0.929 . S
H688 C702 0.931 . S
H689 C704 0.930 . S
C690 H678 0.930 . S
C690 C691 1.399 . S
C690 C695 1.399 . S
C691 C690 1.399 . S
C691 C692 1.376 . S
C692 H679 0.930 . S
C692 C691 1.376 . S
C692 C693 1.388 . S
C693 H680 0.930 . S
C693 C692 1.388 . S
C693 C694 1.390 . S
C694 C693 1.390 . S
C694 C695 1.394 . S
C694 C700 1.465 . S
C695 C690 1.399 . S
C695 C694 1.394 . S
C695 C696 1.516 . S
C696 C695 1.516 . S
C696 C697 1.502 . S
C696 C698 1.561 . S
C696 C699 1.526 . S
C697 H681 0.959 . S
C697 H682 0.959 . S
C697 H683 0.961 . S
C697 C696 1.502 . S
C698 H684 0.960 . S
C698 H685 0.961 . S
C698 H686 0.959 . S
C698 C696 1.561 . S
C699 C696 1.526 . S
C699 C700 1.396 . S
C699 C704 1.390 . S
C700 C694 1.465 . S
C700 C699 1.396 . S
C700 C701 1.399 . S
C701 H687 0.929 . S
C701 C700 1.399 . S
C701 C702 1.385 . S
C702 H688 0.931 . S
C702 C701 1.385 . S
C702 C703 1.389 . S
C703 C702 1.389 . S
C703 C704 1.387 . S
C704 H689 0.930 . S
C704 C699 1.390 . S
C704 C703 1.387 . S
H705 C717 0.930 . S
H706 C719 0.930 . S
H707 C720 0.930 . S
H708 C724 0.959 . S
H709 C724 0.959 . S
H710 C724 0.961 . S
H711 C725 0.960 . S
H712 C725 0.961 . S
H713 C725 0.959 . S
H714 C728 0.929 . S
H715 C729 0.931 . S
H716 C731 0.930 . S
C717 H705 0.930 . S
C717 C718 1.399 . S
C717 C722 1.399 . S
C718 C717 1.399 . S
C718 C719 1.376 . S
C719 H706 0.930 . S
C719 C718 1.376 . S
C719 C720 1.388 . S
C720 H707 0.930 . S
C720 C719 1.388 . S
C720 C721 1.390 . S
C721 C720 1.390 . S
C721 C722 1.394 . S
C721 C727 1.465 . S
C722 C717 1.399 . S
C722 C721 1.394 . S
C722 C723 1.516 . S
C723 C722 1.516 . S
C723 C724 1.502 . S
C723 C725 1.561 . S
C723 C726 1.526 . S
C724 H708 0.959 . S
C724 H709 0.959 . S
C724 H710 0.961 . S
C724 C723 1.502 . S
C725 H711 0.960 . S
C725 H712 0.961 . S
C725 H713 0.959 . S
C725 C723 1.561 . S
C726 C723 1.526 . S
C726 C727 1.396 . S
C726 C731 1.390 . S
C727 C721 1.465 . S
C727 C726 1.396 . S
C727 C728 1.399 . S
C728 H714 0.929 . S
C728 C727 1.399 . S
C728 C729 1.385 . S
C729 H715 0.931 . S
C729 C728 1.385 . S
C729 C730 1.389 . S
C730 C729 1.389 . S
C730 C731 1.387 . S
C731 H716 0.930 . S
C731 C726 1.390 . S
C731 C730 1.387 . S
H732 C744 0.930 . S
H733 C746 0.930 . S
H734 C747 0.930 . S
H735 C751 0.959 1_565 S
H736 C751 0.959 . S
H737 C751 0.961 1_565 S
H738 C752 0.960 . S
H739 C752 0.961 . S
H740 C752 0.959 . S
H741 C755 0.929 . S
H742 C756 0.931 . S
H743 C758 0.930 . S
C744 H732 0.930 . S
C744 C745 1.399 . S
C744 C749 1.399 1_565 S
C745 C744 1.399 . S
C745 C746 1.376 . S
C746 H733 0.930 . S
C746 C745 1.376 . S
C746 C747 1.388 1_565 S
C747 H734 0.930 . S
C747 C746 1.388 1_545 S
C747 C748 1.390 . S
C748 C747 1.390 . S
C748 C749 1.394 . S
C748 C754 1.465 . S
C749 C744 1.399 1_545 S
C749 C748 1.394 . S
C749 C750 1.516 . S
C750 C749 1.516 . S
C750 C751 1.502 . S
C750 C752 1.561 . S
C750 C753 1.526 . S
C751 H735 0.959 1_545 S
C751 H736 0.959 . S
C751 H737 0.961 1_545 S
C751 C750 1.502 . S
C752 H738 0.960 . S
C752 H739 0.961 . S
C752 H740 0.959 . S
C752 C750 1.561 . S
C753 C750 1.526 . S
C753 C754 1.396 . S
C753 C758 1.390 . S
C754 C748 1.465 . S
C754 C753 1.396 . S
C754 C755 1.399 . S
C755 H741 0.929 . S
C755 C754 1.399 . S
C755 C756 1.385 . S
C756 H742 0.931 . S
C756 C755 1.385 . S
C756 C757 1.389 . S
C757 C756 1.389 . S
C757 C758 1.387 . S
C758 H743 0.930 . S
C758 C753 1.390 . S
C758 C757 1.387 . S
H759 C771 0.930 . S
H760 C773 0.930 . S
H761 C774 0.930 . S
H762 C778 0.959 . S
H763 C778 0.959 . S
H764 C778 0.961 . S
H765 C779 0.960 . S
H766 C779 0.961 . S
H767 C779 0.959 . S
H768 C782 0.929 . S
H769 C783 0.931 . S
H770 C785 0.930 . S
C771 H759 0.930 . S
C771 C772 1.399 . S
C771 C776 1.399 . S
C772 C771 1.399 . S
C772 C773 1.376 . S
C773 H760 0.930 . S
C773 C772 1.376 . S
C773 C774 1.388 . S
C774 H761 0.930 . S
C774 C773 1.388 . S
C774 C775 1.390 . S
C775 C774 1.390 . S
C775 C776 1.394 . S
C775 C781 1.465 . S
C776 C771 1.399 . S
C776 C775 1.394 . S
C776 C777 1.516 . S
C777 C776 1.516 . S
C777 C778 1.502 . S
C777 C779 1.561 . S
C777 C780 1.526 . S
C778 H762 0.959 . S
C778 H763 0.959 . S
C778 H764 0.961 . S
C778 C777 1.502 . S
C779 H765 0.960 . S
C779 H766 0.961 . S
C779 H767 0.959 . S
C779 C777 1.561 . S
C780 C777 1.526 . S
C780 C781 1.396 . S
C780 C785 1.390 . S
C781 C775 1.465 . S
C781 C780 1.396 . S
C781 C782 1.399 . S
C782 H768 0.929 . S
C782 C781 1.399 . S
C782 C783 1.385 . S
C783 H769 0.931 . S
C783 C782 1.385 . S
C783 C784 1.389 . S
C784 C783 1.389 . S
C784 C785 1.387 . S
C785 H770 0.930 . S
C785 C780 1.390 . S
C785 C784 1.387 . S
H786 C798 0.930 . S
H787 C800 0.930 . S
H788 C801 0.930 . S
H789 C805 0.959 . S
H790 C805 0.959 . S
H791 C805 0.961 . S
H792 C806 0.960 . S
H793 C806 0.961 . S
H794 C806 0.959 . S
H795 C809 0.929 . S
H796 C810 0.919 1_455 S
H797 C812 0.930 . S
C798 H786 0.930 . S
C798 C799 1.399 . S
C798 C803 1.399 . S
C799 C798 1.399 . S
C799 C800 1.376 . S
C800 H787 0.930 . S
C800 C799 1.376 . S
C800 C801 1.388 . S
C801 H788 0.930 . S
C801 C800 1.388 . S
C801 C802 1.390 . S
C802 C801 1.390 . S
C802 C803 1.394 . S
C802 C808 1.465 . S
C803 C798 1.399 . S
C803 C802 1.394 . S
C803 C804 1.516 . S
C804 C803 1.516 . S
C804 C805 1.502 . S
C804 C806 1.561 1_655 S
C804 C807 1.526 . S
C805 H789 0.959 . S
C805 H790 0.959 . S
C805 H791 0.961 . S
C805 C804 1.502 . S
C806 H792 0.960 . S
C806 H793 0.961 . S
C806 H794 0.959 . S
C806 C804 1.561 1_455 S
C807 C804 1.526 . S
C807 C808 1.396 . S
C807 C812 1.390 1_655 S
C808 C802 1.465 . S
C808 C807 1.396 . S
C808 C809 1.399 . S
C809 H795 0.929 . S
C809 C808 1.399 . S
C809 C810 1.396 . S
C810 H796 0.919 1_655 S
C810 C809 1.396 . S
C810 C811 1.391 1_655 S
C811 C810 1.391 1_455 S
C811 C812 1.387 . S
C812 H797 0.930 . S
C812 C807 1.390 1_455 S
C812 C811 1.387 . S
H813 C825 0.930 . S
H814 C827 0.930 . S
H815 C828 0.930 1_545 S
H816 C832 0.959 . S
H817 C832 0.959 . S
H818 C832 0.961 . S
H819 C833 0.960 . S
H820 C833 0.961 . S
H821 C833 0.959 . S
H822 C836 0.929 . S
H823 C837 0.931 . S
H824 C839 0.930 . S
C825 H813 0.930 . S
C825 C826 1.399 1_565 S
C825 C830 1.399 . S
C826 C825 1.399 1_545 S
C826 C827 1.376 . S
C827 H814 0.930 . S
C827 C826 1.376 . S
C827 C828 1.388 1_545 S
C828 H815 0.930 1_565 S
C828 C827 1.388 1_565 S
C828 C829 1.390 . S
C829 C828 1.390 . S
C829 C830 1.394 . S
C829 C835 1.465 . S
C830 C825 1.399 . S
C830 C829 1.394 . S
C830 C831 1.516 . S
C831 C830 1.516 . S
C831 C832 1.502 . S
C831 C833 1.561 . S
C831 C834 1.526 . S
C832 H816 0.959 . S
C832 H817 0.959 . S
C832 H818 0.961 . S
C832 C831 1.502 . S
C833 H819 0.960 . S
C833 H820 0.961 . S
C833 H821 0.959 . S
C833 C831 1.561 . S
C834 C831 1.526 . S
C834 C835 1.396 . S
C834 C839 1.390 . S
C835 C829 1.465 . S
C835 C834 1.396 . S
C835 C836 1.399 . S
C836 H822 0.929 . S
C836 C835 1.399 . S
C836 C837 1.385 . S
C837 H823 0.931 . S
C837 C836 1.385 . S
C837 C838 1.389 . S
C838 C837 1.389 . S
C838 C839 1.387 . S
C839 H824 0.930 . S
C839 C834 1.390 . S
C839 C838 1.387 . S
H840 C852 0.930 . S
H841 C854 0.930 . S
H842 C855 0.930 . S
H843 C859 0.954 1_556 S
H844 C859 0.968 . S
H845 C859 0.955 1_556 S
H846 C860 0.960 . S
H847 C860 0.961 . S
H848 C860 0.959 . S
H849 C863 0.929 . S
H850 C864 0.931 . S
H851 C866 0.930 . S
C852 H840 0.930 . S
C852 C853 1.399 . S
C852 C857 1.399 . S
C853 C852 1.399 . S
C853 C854 1.376 . S
C854 H841 0.930 . S
C854 C853 1.376 . S
C854 C855 1.388 . S
C855 H842 0.930 . S
C855 C854 1.388 . S
C855 C856 1.390 . S
C856 C855 1.390 . S
C856 C857 1.394 . S
C856 C862 1.465 1_556 S
C857 C852 1.399 . S
C857 C856 1.394 . S
C857 C858 1.516 1_556 S
C858 C857 1.516 1_554 S
C858 C859 1.503 . S
C858 C860 1.561 . S
C858 C861 1.526 . S
C859 H843 0.954 1_554 S
C859 H844 0.968 . S
C859 H845 0.955 1_554 S
C859 C858 1.503 . S
C860 H846 0.960 . S
C860 H847 0.961 . S
C860 H848 0.959 . S
C860 C858 1.561 . S
C861 C858 1.526 . S
C861 C862 1.396 . S
C861 C866 1.390 . S
C862 C856 1.465 1_554 S
C862 C861 1.396 . S
C862 C863 1.399 . S
C863 H849 0.929 . S
C863 C862 1.399 . S
C863 C864 1.385 . S
C864 H850 0.931 . S
C864 C863 1.385 . S
C864 C865 1.389 . S
C865 C864 1.389 . S
C865 C866 1.387 . S
C866 H851 0.930 . S
C866 C861 1.390 . S
C866 C865 1.387 . S
H867 C879 0.930 . S
H868 C881 0.930 . S
H869 C882 0.930 . S
H870 C886 0.959 . S
H871 C886 0.959 . S
H872 C886 0.961 . S
H873 C887 0.960 . S
H874 C887 0.961 . S
H875 C887 0.959 . S
H876 C890 0.929 . S
H877 C891 0.931 . S
H878 C893 0.930 . S
C879 H867 0.930 . S
C879 C880 1.399 1_455 S
C879 C884 1.399 . S
C880 C879 1.399 1_655 S
C880 C881 1.376 . S
C881 H868 0.930 . S
C881 C880 1.376 . S
C881 C882 1.388 . S
C882 H869 0.930 . S
C882 C881 1.388 . S
C882 C883 1.390 1_655 S
C883 C882 1.390 1_455 S
C883 C884 1.394 . S
C883 C889 1.465 . S
C884 C879 1.399 . S
C884 C883 1.394 . S
C884 C885 1.516 . S
C885 C884 1.516 . S
C885 C886 1.502 . S
C885 C887 1.561 . S
C885 C888 1.526 . S
C886 H870 0.959 . S
C886 H871 0.959 . S
C886 H872 0.961 . S
C886 C885 1.502 . S
C887 H873 0.960 . S
C887 H874 0.961 . S
C887 H875 0.959 . S
C887 C885 1.561 . S
C888 C885 1.526 . S
C888 C889 1.396 . S
C888 C893 1.390 . S
C889 C883 1.465 . S
C889 C888 1.396 . S
C889 C890 1.399 . S
C890 H876 0.929 . S
C890 C889 1.399 . S
C890 C891 1.385 . S
C891 H877 0.931 . S
C891 C890 1.385 . S
C891 C892 1.389 . S
C892 C891 1.389 . S
C892 C893 1.387 . S
C893 H878 0.930 . S
C893 C888 1.390 . S
C893 C892 1.387 . S
H894 C906 0.930 . S
H895 C908 0.930 1_455 S
H896 C909 0.930 . S
H897 C913 0.959 1_455 S
H898 C913 0.959 . S
H899 C913 0.961 1_455 S
H900 C914 0.960 . S
H901 C914 0.961 . S
H902 C914 0.959 . S
H903 C917 0.929 . S
H904 C918 0.931 . S
H905 C920 0.930 . S
C906 H894 0.930 . S
C906 C907 1.399 . S
C906 C911 1.399 1_455 S
C907 C906 1.399 . S
C907 C908 1.376 1_455 S
C908 H895 0.930 1_655 S
C908 C907 1.376 1_655 S
C908 C909 1.388 . S
C909 H896 0.930 . S
C909 C908 1.388 . S
C909 C910 1.390 . S
C910 C909 1.390 . S
C910 C911 1.394 . S
C910 C916 1.465 . S
C911 C906 1.399 1_655 S
C911 C910 1.394 . S
C911 C912 1.516 . S
C912 C911 1.516 . S
C912 C913 1.502 . S
C912 C914 1.561 . S
C912 C915 1.526 . S
C913 H897 0.959 1_655 S
C913 H898 0.959 . S
C913 H899 0.961 1_655 S
C913 C912 1.502 . S
C914 H900 0.960 . S
C914 H901 0.961 . S
C914 H902 0.959 . S
C914 C912 1.561 . S
C915 C912 1.526 . S
C915 C916 1.396 . S
C915 C920 1.390 . S
C916 C910 1.465 . S
C916 C915 1.396 . S
C916 C917 1.399 . S
C917 H903 0.929 . S
C917 C916 1.399 . S
C917 C918 1.385 . S
C918 H904 0.931 . S
C918 C917 1.385 . S
C918 C919 1.389 . S
C919 C918 1.389 . S
C919 C920 1.387 . S
C920 H905 0.930 . S
C920 C915 1.390 . S
C920 C919 1.387 . S
H921 C933 0.930 . S
H922 C935 0.930 . S
H923 C936 0.930 . S
H924 C940 0.959 . S
H925 C940 0.959 . S
H926 C940 0.961 . S
H927 C941 0.960 . S
H928 C941 0.961 . S
H929 C941 0.959 1_565 S
H930 C944 0.929 . S
H931 C945 0.931 . S
H932 C947 0.930 . S
C933 H921 0.930 . S
C933 C934 1.399 . S
C933 C938 1.399 . S
C934 C933 1.399 . S
C934 C935 1.376 . S
C935 H922 0.930 . S
C935 C934 1.376 . S
C935 C936 1.388 . S
C936 H923 0.930 . S
C936 C935 1.388 . S
C936 C937 1.390 . S
C937 C936 1.390 . S
C937 C938 1.394 . S
C937 C943 1.465 . S
C938 C933 1.399 . S
C938 C937 1.394 . S
C938 C939 1.516 . S
C939 C938 1.516 . S
C939 C940 1.502 1_565 S
C939 C941 1.561 1_565 S
C939 C942 1.526 . S
C940 H924 0.959 . S
C940 H925 0.959 . S
C940 H926 0.961 . S
C940 C939 1.502 1_545 S
C941 H927 0.960 . S
C941 H928 0.961 . S
C941 H929 0.959 1_545 S
C941 C939 1.561 1_545 S
C942 C939 1.526 . S
C942 C943 1.396 . S
C942 C947 1.390 1_565 S
C943 C937 1.465 . S
C943 C942 1.396 . S
C943 C944 1.399 . S
C944 H930 0.929 . S
C944 C943 1.399 . S
C944 C945 1.385 . S
C945 H931 0.931 . S
C945 C944 1.385 . S
C945 C946 1.389 1_565 S
C946 C945 1.389 1_545 S
C946 C947 1.387 . S
C947 H932 0.930 . S
C947 C942 1.390 1_545 S
C947 C946 1.387 . S
H948 C960 0.930 . S
H949 C962 0.930 . S
H950 C963 0.930 . S
H951 C967 0.959 . S
H952 C967 0.959 . S
H953 C967 0.961 . S
H954 C968 0.960 . S
H955 C968 0.961 . S
H956 C968 0.959 . S
H957 C971 0.929 . S
H958 C972 0.931 . S
H959 C974 0.930 . S
C960 H948 0.930 . S
C960 C961 1.399 . S
C960 C965 1.399 . S
C961 C960 1.399 . S
C961 C962 1.376 . S
C962 H949 0.930 . S
C962 C961 1.376 . S
C962 C963 1.388 . S
C963 H950 0.930 . S
C963 C962 1.388 . S
C963 C964 1.390 . S
C964 C963 1.390 . S
C964 C965 1.394 . S
C964 C970 1.465 . S
C965 C960 1.399 . S
C965 C964 1.394 . S
C965 C966 1.516 . S
C966 C965 1.516 . S
C966 C967 1.502 . S
C966 C968 1.561 . S
C966 C969 1.526 . S
C967 H951 0.959 . S
C967 H952 0.959 . S
C967 H953 0.961 . S
C967 C966 1.502 . S
C968 H954 0.960 . S
C968 H955 0.961 . S
C968 H956 0.959 . S
C968 C966 1.561 . S
C969 C966 1.526 . S
C969 C970 1.396 . S
C969 C974 1.390 . S
C970 C964 1.465 . S
C970 C969 1.396 . S
C970 C971 1.399 . S
C971 H957 0.929 . S
C971 C970 1.399 . S
C971 C972 1.385 . S
C972 H958 0.931 . S
C972 C971 1.385 . S
C972 C973 1.389 . S
C973 C972 1.389 . S
C973 C974 1.387 . S
C974 H959 0.930 . S
C974 C969 1.390 . S
C974 C973 1.387 . S
H975 C987 0.930 . S
H976 C989 0.930 . S
H977 C990 0.930 . S
H978 C994 0.971 . S
H979 C994 0.959 . S
H980 C994 0.961 . S
H981 C995 0.960 . S
H982 C995 0.961 . S
H983 C995 0.959 . S
H984 C998 0.929 . S
H985 C999 0.931 . S
H986 C1001 0.930 . S
C987 H975 0.930 . S
C987 C988 1.399 1_455 S
C987 C992 1.399 . S
C988 C987 1.399 1_655 S
C988 C989 1.376 . S
C989 H976 0.930 . S
C989 C988 1.376 . S
C989 C990 1.388 . S
C990 H977 0.930 . S
C990 C989 1.388 . S
C990 C991 1.390 1_655 S
C991 C990 1.390 1_455 S
C991 C992 1.394 . S
C991 C997 1.465 1_554 S
C992 C987 1.399 . S
C992 C991 1.394 . S
C992 C993 1.516 . S
C993 C992 1.516 . S
C993 C994 1.502 . S
C993 C995 1.561 . S
C993 C996 1.526 1_554 S
C994 H978 0.971 . S
C994 H979 0.959 . S
C994 H980 0.961 . S
C994 C993 1.502 . S
C995 H981 0.960 . S
C995 H982 0.961 . S
C995 H983 0.959 . S
C995 C993 1.561 . S
C996 C993 1.526 1_556 S
C996 C997 1.396 . S
C996 C1001 1.390 . S
C997 C991 1.465 1_556 S
C997 C996 1.396 . S
C997 C998 1.399 . S
C998 H984 0.929 . S
C998 C997 1.399 . S
C998 C999 1.385 . S
C999 H985 0.931 . S
C999 C998 1.385 . S
C999 C1000 1.389 . S
C1000 C999 1.389 . S
C1000 C1001 1.387 . S
C1001 H986 0.930 . S
C1001 C996 1.390 . S
C1001 C1000 1.387 . S
H1002 C1014 0.930 . S
H1003 C1016 0.933 1_565 S
H1004 C1017 0.930 . S
H1005 C1021 0.959 . S
H1006 C1021 0.959 . S
H1007 C1021 0.961 . S
H1008 C1022 0.960 . S
H1009 C1022 0.961 . S
H1010 C1022 0.959 . S
H1011 C1025 0.929 . S
H1012 C1026 0.931 . S
H1013 C1028 0.930 . S
C1014 H1002 0.930 . S
C1014 C1015 1.399 . S
C1014 C1019 1.399 1_565 S
C1015 C1014 1.399 . S
C1015 C1016 1.376 1_565 S
C1016 H1003 0.933 1_545 S
C1016 C1015 1.376 1_545 S
C1016 C1017 1.388 . S
C1017 H1004 0.930 . S
C1017 C1016 1.388 . S
C1017 C1018 1.390 . S
C1018 C1017 1.390 . S
C1018 C1019 1.394 . S
C1018 C1024 1.465 . S
C1019 C1014 1.399 1_545 S
C1019 C1018 1.394 . S
C1019 C1020 1.516 . S
C1020 C1019 1.516 . S
C1020 C1021 1.502 . S
C1020 C1022 1.561 1_545 S
C1020 C1023 1.526 . S
C1021 H1005 0.959 . S
C1021 H1006 0.959 . S
C1021 H1007 0.961 . S
C1021 C1020 1.502 . S
C1022 H1008 0.960 . S
C1022 H1009 0.961 . S
C1022 H1010 0.959 . S
C1022 C1020 1.561 1_565 S
C1023 C1020 1.526 . S
C1023 C1024 1.396 . S
C1023 C1028 1.390 . S
C1024 C1018 1.465 . S
C1024 C1023 1.396 . S
C1024 C1025 1.399 . S
C1025 H1011 0.929 . S
C1025 C1024 1.399 . S
C1025 C1026 1.385 . S
C1026 H1012 0.931 . S
C1026 C1025 1.385 . S
C1026 C1027 1.389 . S
C1027 C1026 1.389 . S
C1027 C1028 1.387 . S
C1028 H1013 0.930 . S
C1028 C1023 1.390 . S
C1028 C1027 1.387 . S
H1029 C1041 0.930 . S
H1030 C1043 0.930 . S
H1031 C1044 0.930 . S
H1032 C1048 0.959 . S
H1033 C1048 0.959 . S
H1034 C1048 0.961 . S
H1035 C1049 0.960 . S
H1036 C1049 0.961 . S
H1037 C1049 0.959 . S
H1038 C1052 0.929 . S
H1039 C1053 0.931 . S
H1040 C1055 0.930 . S
C1041 H1029 0.930 . S
C1041 C1042 1.399 . S
C1041 C1046 1.399 . S
C1042 C1041 1.399 . S
C1042 C1043 1.376 . S
C1043 H1030 0.930 . S
C1043 C1042 1.376 . S
C1043 C1044 1.388 . S
C1044 H1031 0.930 . S
C1044 C1043 1.388 . S
C1044 C1045 1.390 . S
C1045 C1044 1.390 . S
C1045 C1046 1.394 . S
C1045 C1051 1.465 . S
C1046 C1041 1.399 . S
C1046 C1045 1.394 . S
C1046 C1047 1.516 . S
C1047 C1046 1.516 . S
C1047 C1048 1.502 . S
C1047 C1049 1.561 . S
C1047 C1050 1.526 . S
C1048 H1032 0.959 . S
C1048 H1033 0.959 . S
C1048 H1034 0.961 . S
C1048 C1047 1.502 . S
C1049 H1035 0.960 . S
C1049 H1036 0.961 . S
C1049 H1037 0.959 . S
C1049 C1047 1.561 . S
C1050 C1047 1.526 . S
C1050 C1051 1.396 . S
C1050 C1055 1.390 . S
C1051 C1045 1.465 . S
C1051 C1050 1.396 . S
C1051 C1052 1.399 . S
C1052 H1038 0.929 . S
C1052 C1051 1.399 . S
C1052 C1053 1.385 . S
C1053 H1039 0.931 . S
C1053 C1052 1.385 . S
C1053 C1054 1.389 . S
C1054 C1053 1.389 . S
C1054 C1055 1.387 . S
C1055 H1040 0.930 . S
C1055 C1050 1.390 . S
C1055 C1054 1.387 . S
H1056 C1068 0.930 . S
H1057 C1070 0.930 . S
H1058 C1071 0.930 . S
H1059 C1075 0.959 . S
H1060 C1075 0.959 . S
H1061 C1075 0.961 . S
H1062 C1076 0.960 . S
H1063 C1076 0.961 . S
H1064 C1076 0.959 . S
H1065 C1079 0.929 . S
H1066 C1080 0.931 . S
H1067 C1082 0.930 . S
C1068 H1056 0.930 . S
C1068 C1069 1.399 . S
C1068 C1073 1.399 . S
C1069 C1068 1.399 . S
C1069 C1070 1.376 . S
C1070 H1057 0.930 . S
C1070 C1069 1.376 . S
C1070 C1071 1.388 . S
C1071 H1058 0.930 . S
C1071 C1070 1.388 . S
C1071 C1072 1.390 . S
C1072 C1071 1.390 . S
C1072 C1073 1.394 . S
C1072 C1078 1.456 1_545 S
C1073 C1068 1.399 . S
C1073 C1072 1.394 . S
C1073 C1074 1.516 1_545 S
C1074 C1073 1.516 1_565 S
C1074 C1075 1.502 . S
C1074 C1076 1.561 . S
C1074 C1077 1.526 . S
C1075 H1059 0.959 . S
C1075 H1060 0.959 . S
C1075 H1061 0.961 . S
C1075 C1074 1.502 . S
C1076 H1062 0.960 . S
C1076 H1063 0.961 . S
C1076 H1064 0.959 . S
C1076 C1074 1.561 . S
C1077 C1074 1.526 . S
C1077 C1078 1.408 . S
C1077 C1082 1.390 . S
C1078 C1072 1.456 1_565 S
C1078 C1077 1.408 . S
C1078 C1079 1.398 1_565 S
C1079 H1065 0.929 . S
C1079 C1078 1.398 1_545 S
C1079 C1080 1.385 1_545 S
C1080 H1066 0.931 . S
C1080 C1079 1.385 1_565 S
C1080 C1081 1.389 . S
C1081 C1080 1.389 . S
C1081 C1082 1.387 . S
C1082 H1067 0.930 . S
C1082 C1077 1.390 . S
C1082 C1081 1.387 . S
H1083 C1095 0.930 . S
H1084 C1097 0.930 . S
H1085 C1098 0.930 . S
H1086 C1102 0.959 . S
H1087 C1102 0.959 . S
H1088 C1102 0.961 . S
H1089 C1103 0.960 . S
H1090 C1103 0.961 . S
H1091 C1103 0.959 . S
H1092 C1106 0.929 . S
H1093 C1107 0.931 . S
H1094 C1109 0.930 . S
C1095 H1083 0.930 . S
C1095 C1096 1.399 . S
C1095 C1100 1.399 . S
C1096 C1095 1.399 . S
C1096 C1097 1.376 . S
C1097 H1084 0.930 . S
C1097 C1096 1.376 . S
C1097 C1098 1.388 . S
C1098 H1085 0.930 . S
C1098 C1097 1.388 . S
C1098 C1099 1.390 . S
C1099 C1098 1.390 . S
C1099 C1100 1.394 . S
C1099 C1105 1.465 . S
C1100 C1095 1.399 . S
C1100 C1099 1.394 . S
C1100 C1101 1.516 . S
C1101 C1100 1.516 . S
C1101 C1102 1.502 . S
C1101 C1103 1.561 . S
C1101 C1104 1.526 . S
C1102 H1086 0.959 . S
C1102 H1087 0.959 . S
C1102 H1088 0.961 . S
C1102 C1101 1.502 . S
C1103 H1089 0.960 . S
C1103 H1090 0.961 . S
C1103 H1091 0.959 . S
C1103 C1101 1.561 . S
C1104 C1101 1.526 . S
C1104 C1105 1.396 . S
C1104 C1109 1.390 . S
C1105 C1099 1.465 . S
C1105 C1104 1.396 . S
C1105 C1106 1.399 . S
C1106 H1092 0.929 . S
C1106 C1105 1.399 . S
C1106 C1107 1.385 . S
C1107 H1093 0.931 . S
C1107 C1106 1.385 . S
C1107 C1108 1.389 . S
C1108 C1107 1.389 . S
C1108 C1109 1.387 . S
C1109 H1094 0.930 . S
C1109 C1104 1.390 . S
C1109 C1108 1.387 . S
H1110 C1122 0.930 . S
H1111 C1124 0.930 . S
H1112 C1125 0.930 . S
H1113 C1129 0.959 . S
H1114 C1129 0.959 . S
H1115 C1129 0.961 . S
H1116 C1130 0.960 . S
H1117 C1130 0.961 . S
H1118 C1130 0.959 . S
H1119 C1133 0.929 . S
H1120 C1134 0.931 . S
H1121 C1136 0.930 . S
C1122 H1110 0.930 . S
C1122 C1123 1.399 . S
C1122 C1127 1.399 . S
C1123 C1122 1.399 . S
C1123 C1124 1.376 . S
C1124 H1111 0.930 . S
C1124 C1123 1.376 . S
C1124 C1125 1.388 1_655 S
C1125 H1112 0.930 . S
C1125 C1124 1.388 1_455 S
C1125 C1126 1.388 1_455 S
C1126 C1125 1.388 1_655 S
C1126 C1127 1.413 . S
C1126 C1132 1.451 1_655 S
C1127 C1122 1.399 . S
C1127 C1126 1.413 . S
C1127 C1128 1.516 . S
C1128 C1127 1.516 . S
C1128 C1129 1.502 . S
C1128 C1130 1.561 . S
C1128 C1131 1.526 1_655 S
C1129 H1113 0.959 . S
C1129 H1114 0.959 . S
C1129 H1115 0.961 . S
C1129 C1128 1.502 . S
C1130 H1116 0.960 . S
C1130 H1117 0.961 . S
C1130 H1118 0.959 . S
C1130 C1128 1.561 . S
C1131 C1128 1.526 1_455 S
C1131 C1132 1.396 . S
C1131 C1136 1.390 . S
C1132 C1126 1.451 1_455 S
C1132 C1131 1.396 . S
C1132 C1133 1.399 . S
C1133 H1119 0.929 . S
C1133 C1132 1.399 . S
C1133 C1134 1.385 . S
C1134 H1120 0.931 . S
C1134 C1133 1.385 . S
C1134 C1135 1.389 . S
C1135 C1134 1.389 . S
C1135 C1136 1.387 . S
C1136 H1121 0.930 . S
C1136 C1131 1.390 . S
C1136 C1135 1.387 . S
H1137 C1149 0.930 . S
H1138 C1151 0.930 . S
H1139 C1152 0.930 . S
H1140 C1156 0.999 . S
H1141 C1156 0.968 1_565 S
H1142 C1156 0.930 1_554 S
H1143 C1157 0.960 . S
H1144 C1157 0.961 . S
H1145 C1157 0.959 . S
H1146 C1160 0.929 . S
H1147 C1161 0.931 . S
H1148 C1163 0.930 . S
C1149 H1137 0.930 . S
C1149 C1150 1.399 . S
C1149 C1154 1.399 . S
C1150 C1149 1.399 . S
C1150 C1151 1.376 . S
C1151 H1138 0.930 . S
C1151 C1150 1.376 . S
C1151 C1152 1.388 . S
C1152 H1139 0.930 . S
C1152 C1151 1.388 . S
C1152 C1153 1.390 . S
C1153 C1152 1.390 . S
C1153 C1154 1.394 . S
C1153 C1159 1.465 1_544 S
C1154 C1149 1.399 . S
C1154 C1153 1.394 . S
C1154 C1155 1.516 1_545 S
C1155 C1154 1.516 1_565 S
C1155 C1156 1.489 1_564 S
C1155 C1157 1.561 . S
C1155 C1158 1.526 1_554 S
C1156 H1140 0.999 . S
C1156 H1141 0.968 1_545 S
C1156 H1142 0.930 1_556 S
C1156 C1155 1.489 1_546 S
C1157 H1143 0.960 . S
C1157 H1144 0.961 . S
C1157 H1145 0.959 . S
C1157 C1155 1.561 . S
C1158 C1155 1.526 1_556 S
C1158 C1159 1.396 . S
C1158 C1163 1.390 . S
C1159 C1153 1.465 1_566 S
C1159 C1158 1.396 . S
C1159 C1160 1.399 . S
C1160 H1146 0.929 . S
C1160 C1159 1.399 . S
C1160 C1161 1.385 . S
C1161 H1147 0.931 . S
C1161 C1160 1.385 . S
C1161 C1162 1.389 . S
C1162 C1161 1.389 . S
C1162 C1163 1.387 . S
C1163 H1148 0.930 . S
C1163 C1158 1.390 . S
C1163 C1162 1.387 . S
H1164 C1176 0.930 . S
H1165 C1178 0.930 . S
H1166 C1179 0.930 . S
H1167 C1183 0.959 . S
H1168 C1183 0.959 . S
H1169 C1183 0.961 . S
H1170 C1184 0.960 . S
H1171 C1184 0.961 . S
H1172 C1184 0.959 . S
H1173 C1187 0.929 . S
H1174 C1188 0.931 . S
H1175 C1190 0.930 . S
C1176 H1164 0.930 . S
C1176 C1177 1.399 . S
C1176 C1181 1.399 . S
C1177 C1176 1.399 . S
C1177 C1178 1.376 . S
C1178 H1165 0.930 . S
C1178 C1177 1.376 . S
C1178 C1179 1.388 . S
C1179 H1166 0.930 . S
C1179 C1178 1.388 . S
C1179 C1180 1.390 . S
C1180 C1179 1.390 . S
C1180 C1181 1.394 . S
C1180 C1186 1.465 . S
C1181 C1176 1.399 . S
C1181 C1180 1.394 . S
C1181 C1182 1.516 . S
C1182 C1181 1.516 . S
C1182 C1183 1.502 . S
C1182 C1184 1.561 . S
C1182 C1185 1.526 . S
C1183 H1167 0.959 . S
C1183 H1168 0.959 . S
C1183 H1169 0.961 . S
C1183 C1182 1.502 . S
C1184 H1170 0.960 . S
C1184 H1171 0.961 . S
C1184 H1172 0.959 . S
C1184 C1182 1.561 . S
C1185 C1182 1.526 . S
C1185 C1186 1.396 . S
C1185 C1190 1.390 . S
C1186 C1180 1.465 . S
C1186 C1185 1.396 . S
C1186 C1187 1.399 . S
C1187 H1173 0.929 . S
C1187 C1186 1.399 . S
C1187 C1188 1.385 . S
C1188 H1174 0.931 . S
C1188 C1187 1.385 . S
C1188 C1189 1.389 . S
C1189 C1188 1.389 . S
C1189 C1190 1.387 . S
C1190 H1175 0.930 . S
C1190 C1185 1.390 . S
C1190 C1189 1.387 . S
H1191 C1203 0.930 . S
H1192 C1205 0.930 . S
H1193 C1206 0.921 1_455 S
H1194 C1210 0.959 . S
H1195 C1210 0.959 . S
H1196 C1210 0.961 . S
H1197 C1211 0.960 . S
H1198 C1211 0.961 . S
H1199 C1211 0.959 . S
H1200 C1214 0.929 . S
H1201 C1215 0.931 . S
H1202 C1217 0.930 . S
C1203 H1191 0.930 . S
C1203 C1204 1.399 . S
C1203 C1208 1.399 . S
C1204 C1203 1.399 . S
C1204 C1205 1.376 . S
C1205 H1192 0.930 . S
C1205 C1204 1.376 . S
C1205 C1206 1.399 . S
C1206 H1193 0.921 1_655 S
C1206 C1205 1.399 . S
C1206 C1207 1.388 . S
C1207 C1206 1.388 . S
C1207 C1208 1.394 . S
C1207 C1213 1.465 1_655 S
C1208 C1203 1.399 . S
C1208 C1207 1.394 . S
C1208 C1209 1.516 . S
C1209 C1208 1.516 . S
C1209 C1210 1.502 . S
C1209 C1211 1.561 . S
C1209 C1212 1.526 1_655 S
C1210 H1194 0.959 . S
C1210 H1195 0.959 . S
C1210 H1196 0.961 . S
C1210 C1209 1.502 . S
C1211 H1197 0.960 . S
C1211 H1198 0.961 . S
C1211 H1199 0.959 . S
C1211 C1209 1.561 . S
C1212 C1209 1.526 1_455 S
C1212 C1213 1.396 . S
C1212 C1217 1.390 . S
C1213 C1207 1.465 1_455 S
C1213 C1212 1.396 . S
C1213 C1214 1.399 . S
C1214 H1200 0.929 . S
C1214 C1213 1.399 . S
C1214 C1215 1.385 . S
C1215 H1201 0.931 . S
C1215 C1214 1.385 . S
C1215 C1216 1.389 . S
C1216 C1215 1.389 . S
C1216 C1217 1.387 . S
C1217 H1202 0.930 . S
C1217 C1212 1.390 . S
C1217 C1216 1.387 . S
C421 C5 0.229 . S
C433 C209 0.053 . S
C448 C243 0.225 . S
C460 C39 0.058 . S
C475 C73 0.257 . S
C487 C277 0.122 . S
C502 C107 0.249 . S
C514 C311 0.054 . S
C529 C141 0.225 . S
C541 C345 0.057 . S
C556 C175 0.246 . S
C568 C379 0.168 . S
C583 C213 1.276 . S
C595 C9 1.287 . S
C610 C43 1.275 . S
C622 C247 1.286 . S
C637 C281 1.291 . S
C649 C77 1.295 . S
C664 C315 1.221 . S
C676 C111 1.216 . S
C691 C349 1.273 . S
C703 C145 1.286 . S
C718 C179 1.215 . S
C730 C383 1.217 . S
C745 C172 1.508 . S
C757 C20 1.455 . S
C772 C2 1.509 . S
C784 C54 1.495 . S
C799 C88 1.442 . S
C811 C36 1.499 . S
C826 C70 1.494 . S
C838 C122 1.438 . S
C853 C104 1.519 . S
C865 C156 1.505 . S
C880 C138 1.488 . S
C892 C190 1.461 . S
C907 C240 1.509 . S
C919 C224 1.457 . S
C934 C258 1.493 . S
C946 C274 1.528 . S
C961 C308 1.521 . S
C973 C292 1.476 . S
C988 C342 1.491 . S
C1000 C326 1.436 . S
C1015 C376 1.520 . S
C1027 C360 1.506 . S
C1042 C206 1.489 . S
C1054 C394 1.464 . S
C1069 C33 1.424 . S
C1081 C271 1.406 . S
C1096 C67 1.436 . S
C1108 C305 1.434 . S
C1123 C101 1.383 . S
C1135 C339 1.402 . S
C1150 C373 1.435 . S
C1162 C135 1.434 . S
C1177 C169 1.403 . S
C1189 C407 1.385 . S
C1204 C237 1.376 . S
C1216 C203 1.392 . S
