# Generated by pormake.
# Topology mmt, (4)-cn, num edge types: 1
# Building blocks:
#     Node 0, Type 0, BuildingBlock: QUQFOY_clean_sbu_3, # of connection points: 4
#     Node 1, Type 0, BuildingBlock: QUQFOY_clean_sbu_3, # of connection points: 4
#     Node 2, Type 0, BuildingBlock: QUQFOY_clean_sbu_3, # of connection points: 4
#     Node 3, Type 0, BuildingBlock: QUQFOY_clean_sbu_3, # of connection points: 4
#     Node 4, Type 0, BuildingBlock: QUQFOY_clean_sbu_3, # of connection points: 4
#     Node 5, Type 0, BuildingBlock: QUQFOY_clean_sbu_3, # of connection points: 4
#     Node 6, Type 0, BuildingBlock: QUQFOY_clean_sbu_3, # of connection points: 4
#     Node 7, Type 0, BuildingBlock: QUQFOY_clean_sbu_3, # of connection points: 4
#     Edge 8, Type (0, 0), BuildingBlock: EZIPEK_clean_linker_0, # of connection points: 2
#     Edge 9, Type (0, 0), BuildingBlock: EZIPEK_clean_linker_0, # of connection points: 2
#     Edge 10, Type (0, 0), BuildingBlock: EZIPEK_clean_linker_0, # of connection points: 2
#     Edge 11, Type (0, 0), BuildingBlock: EZIPEK_clean_linker_0, # of connection points: 2
#     Edge 12, Type (0, 0), BuildingBlock: EZIPEK_clean_linker_0, # of connection points: 2
#     Edge 13, Type (0, 0), BuildingBlock: EZIPEK_clean_linker_0, # of connection points: 2
#     Edge 14, Type (0, 0), BuildingBlock: EZIPEK_clean_linker_0, # of connection points: 2
#     Edge 15, Type (0, 0), BuildingBlock: EZIPEK_clean_linker_0, # of connection points: 2
#     Edge 16, Type (0, 0), BuildingBlock: EZIPEK_clean_linker_0, # of connection points: 2
#     Edge 17, Type (0, 0), BuildingBlock: EZIPEK_clean_linker_0, # of connection points: 2
#     Edge 18, Type (0, 0), BuildingBlock: EZIPEK_clean_linker_0, # of connection points: 2
#     Edge 19, Type (0, 0), BuildingBlock: EZIPEK_clean_linker_0, # of connection points: 2
#     Edge 20, Type (0, 0), BuildingBlock: EZIPEK_clean_linker_0, # of connection points: 2
#     Edge 21, Type (0, 0), BuildingBlock: EZIPEK_clean_linker_0, # of connection points: 2
#     Edge 22, Type (0, 0), BuildingBlock: EZIPEK_clean_linker_0, # of connection points: 2
#     Edge 23, Type (0, 0), BuildingBlock: EZIPEK_clean_linker_0, # of connection points: 2
# Relax obj value: 0.025
# Max RMSD: 0.041
# Mean RMSD: 0.041
data_MOF--net-mmt--node1-QUQFOY_clean_sbu_3--edge1-EZIPEK_clean_linker_0
_symmetry_space_group_name_H-M    P1
_symmetry_Int_Tables_number       1
_symmetry_cell_setting            triclinic
loop_
_symmetry_equiv_pos_as_xyz
'x, y, z'
_cell_length_a     17.692298
_cell_length_b     29.260739
_cell_length_c     34.940141
_cell_angle_alpha  89.521892
_cell_angle_beta   88.456944
_cell_angle_gamma 89.537349
loop_
_atom_site_label
_atom_site_type_symbol
_atom_site_fract_x
_atom_site_fract_y
_atom_site_fract_z
_atom_type_partial_charge
C0 C 0.10892 0.65189 0.31745 0.0
O1 O 0.07676 0.6553 0.2855 0.0
Cd2 Cd 0.00967 0.59529 0.25506 0.0
O3 O 0.10145 0.61612 0.33824 0.0
Cd4 Cd 0.03466 0.5417 0.3336 0.0
C5 C 0.15523 0.5173 0.26002 0.0
O6 O 0.92063 0.56061 0.29803 0.0
O7 O 0.95673 0.48981 0.29822 0.0
O8 O -0.02019 0.54683 0.39832 0.0
C9 C 0.90743 0.51944 0.28934 0.0
O10 O 0.11113 0.54134 0.23965 0.0
C11 C 0.00658 0.50886 0.40975 0.0
O12 O 0.1446 0.51367 0.29617 0.0
O13 O 0.04916 0.48682 0.38642 0.0
C14 C 0.31828 0.79897 0.32034 0.0
O15 O 0.35651 0.79601 0.28926 0.0
Cd16 Cd 0.42389 0.85885 0.26127 0.0
O17 O 0.32119 0.83477 0.34072 0.0
Cd18 Cd 0.38894 0.90926 0.33499 0.0
C19 C 0.27708 0.93482 0.26176 0.0
O20 O 0.51177 0.89522 0.3017 0.0
O21 O 0.46129 0.96223 0.29521 0.0
O22 O 0.44387 0.90605 0.3984 0.0
C23 C 0.51885 0.93652 0.29071 0.0
O24 O 0.32515 0.91179 0.242 0.0
C25 C 0.41311 0.94267 0.41057 0.0
O26 O 0.282 0.93759 0.29802 0.0
O27 O 0.36765 0.96298 0.38841 0.0
C28 C 0.62379 0.30471 0.14976 0.0
O29 O 0.58999 0.30243 0.18215 0.0
Cd30 Cd 0.5249 0.36601 0.21024 0.0
O31 O 0.61727 0.34023 0.12873 0.0
Cd32 Cd 0.54747 0.41483 0.13481 0.0
C33 C 0.66512 0.44568 0.20319 0.0
O34 O 0.42863 0.3991 0.17142 0.0
O35 O 0.47444 0.46694 0.17516 0.0
O36 O 0.49014 0.40767 0.07217 0.0
C37 C 0.41916 0.4404 0.18151 0.0
O38 O 0.62345 0.42045 0.22466 0.0
C39 C 0.51501 0.44517 0.05864 0.0
O40 O 0.65421 0.44883 0.16734 0.0
O41 O 0.55747 0.46822 0.07986 0.0
C42 C 0.82537 0.15258 0.1507 0.0
O43 O 0.86003 0.15606 0.18179 0.0
Cd44 Cd 0.9237 0.09284 0.21082 0.0
O45 O 0.82984 0.11599 0.13128 0.0
Cd46 Cd 0.89616 0.04104 0.13847 0.0
C47 C 0.77831 0.01749 0.21232 0.0
O48 O 0.01645 0.05519 0.1708 0.0
O49 O -0.03322 -0.01158 0.17824 0.0
O50 O 0.95187 0.04235 0.07373 0.0
C51 C 0.02334 0.01412 0.18237 0.0
O52 O 0.82427 0.04053 0.23171 0.0
C53 C 0.9208 0.00588 0.06294 0.0
O54 O 0.78642 0.01443 0.17608 0.0
O55 O 0.87631 -0.01394 0.08681 0.0
C56 C 0.82501 0.294 0.65225 0.0
O57 O 0.85727 0.29058 0.68415 0.0
Cd58 Cd 0.92243 0.35152 0.71458 0.0
O59 O 0.83138 0.33005 0.63175 0.0
Cd60 Cd 0.89765 0.40458 0.63646 0.0
C61 C 0.77632 0.42906 0.70962 0.0
O62 O 0.01214 0.38663 0.67211 0.0
O63 O -0.02599 0.45707 0.67209 0.0
O64 O 0.95319 0.39938 0.57189 0.0
C65 C 0.02428 0.42795 0.68076 0.0
O66 O 0.82064 0.40537 0.73015 0.0
C67 C 0.92614 0.4372 0.56028 0.0
O68 O 0.78704 0.43232 0.67345 0.0
O69 O 0.88309 0.45917 0.58344 0.0
C70 C 0.6218 0.14465 0.65111 0.0
O71 O 0.59138 0.14589 0.68439 0.0
Cd72 Cd 0.52212 0.08535 0.71481 0.0
O73 O 0.61159 0.11072 0.62915 0.0
Cd74 Cd 0.53976 0.03695 0.63404 0.0
C75 C 0.65835 0.00175 0.70306 0.0
O76 O 0.42777 0.05858 0.67326 0.0
O77 O 0.45524 -0.0134 0.67014 0.0
O78 O 0.48468 0.04772 0.57084 0.0
C79 C 0.40908 0.01762 0.68065 0.0
O80 O 0.61944 0.02756 0.7253 0.0
C81 C 0.50565 0.00906 0.558 0.0
O82 O 0.64486 -0.00043 0.66743 0.0
O83 O 0.54547 -0.01592 0.57966 0.0
C84 C 0.31111 0.64661 0.81816 0.0
O85 O 0.34467 0.6489 0.78572 0.0
Cd86 Cd 0.40702 0.58436 0.75731 0.0
O87 O 0.31668 0.6108 0.83893 0.0
Cd88 Cd 0.38561 0.53597 0.83285 0.0
C89 C 0.26688 0.50451 0.76513 0.0
O90 O 0.50367 0.55043 0.79542 0.0
O91 O 0.45693 0.48259 0.79306 0.0
O92 O 0.45047 0.54146 0.89348 0.0
C93 C 0.51242 0.5088 0.78609 0.0
O94 O 0.30743 0.53021 0.74351 0.0
C95 C 0.42035 0.50642 0.90886 0.0
O96 O 0.27911 0.50104 0.80082 0.0
O97 O 0.37169 0.48555 0.88955 0.0
C98 C 0.11448 0.80053 0.81796 0.0
O99 O 0.087 0.79894 0.78483 0.0
Cd100 Cd 0.02141 0.86023 0.75413 0.0
O101 O 0.10298 0.83511 0.83942 0.0
Cd102 Cd 0.03165 0.90942 0.83467 0.0
C103 C 0.15583 0.94319 0.76496 0.0
O104 O 0.92317 0.88768 0.79623 0.0
O105 O 0.94687 0.95976 0.79983 0.0
O106 O -0.02331 0.89971 0.89946 0.0
C107 C 0.9034 0.92853 0.78896 0.0
O108 O 0.11976 0.91722 0.74293 0.0
C109 C -0.00166 0.93818 0.91143 0.0
O110 O 0.13845 0.94588 0.80052 0.0
O111 O 0.037 0.96281 0.88822 0.0
C112 C 0.2676 0.52357 0.21548 0.0
C113 C 0.22311 0.49652 0.24113 0.0
C114 C 0.31099 0.43236 0.23065 0.0
C115 C 0.3487 0.45763 0.20091 0.0
N116 N 0.3456 0.52297 0.15801 0.0
N117 N 0.19367 0.42161 0.26678 0.0
C118 C 0.32187 0.50198 0.19122 0.0
C119 C 0.24212 0.44981 0.24694 0.0
N120 N 0.26061 0.57013 0.21524 0.0
N121 N 0.34216 0.39315 0.24493 0.0
H122 H 0.14168 0.43264 0.27819 0.0
H123 H 0.20175 0.38633 0.26846 0.0
H124 H 0.39421 0.38014 0.23555 0.0
H125 H 0.32007 0.37628 0.26907 0.0
H126 H 0.29684 0.59122 0.19919 0.0
H127 H 0.22515 0.58786 0.23439 0.0
H128 H 0.32256 0.55378 0.14844 0.0
H129 H 0.38088 0.50695 0.13781 0.0
C130 C 0.11861 0.95183 0.1921 0.0
C131 C 0.09207 -0.00361 0.2014 0.0
C132 C 0.19417 0.00305 0.24725 0.0
C133 C 0.21245 0.95619 0.24199 0.0
N134 N 0.17763 0.88315 0.21606 0.0
N135 N 0.09672 0.06105 0.24424 0.0
C136 C 0.17057 0.92971 0.2163 0.0
C137 C 0.12775 0.02131 0.23065 0.0
N138 N 0.09656 0.9311 0.15936 0.0
N139 N 0.24122 0.03062 0.26693 0.0
H140 H 0.04674 0.07506 0.23432 0.0
H141 H 0.11655 0.07762 0.26823 0.0
H142 H 0.29143 0.01893 0.27868 0.0
H143 H 0.23427 0.06598 0.26815 0.0
H144 H 0.11968 0.9002 0.14984 0.0
H145 H 0.06241 0.94726 0.1394 0.0
H146 H 0.1429 0.86229 0.20021 0.0
H147 H 0.2117 0.86509 0.23493 0.0
C148 C 0.7096 0.50005 0.25248 0.0
C149 C 0.72704 0.47118 0.22093 0.0
C150 C 0.86188 0.48545 0.22881 0.0
C151 C 0.84482 0.50727 0.26415 0.0
N152 N 0.75238 0.5327 0.31152 0.0
N153 N 0.82082 0.43255 0.18104 0.0
C154 C 0.76859 0.51442 0.27634 0.0
C155 C 0.80345 0.46324 0.20926 0.0
N156 N 0.63676 0.51444 0.25911 0.0
N157 N 0.93368 0.48694 0.21344 0.0
H158 H 0.78009 0.41545 0.16584 0.0
H159 H 0.87573 0.42128 0.17476 0.0
H160 H -0.02257 0.50404 0.2265 0.0
H161 H 0.94789 0.47556 0.18599 0.0
H162 H 0.62156 0.53893 0.27942 0.0
H163 H 0.59252 0.50535 0.2416 0.0
H164 H 0.69807 0.53375 0.32376 0.0
H165 H 0.79391 0.54368 0.32989 0.0
C166 C 0.66792 0.02148 0.25865 0.0
C167 C 0.71303 -0.00437 0.23242 0.0
C168 C 0.62885 0.9303 0.2426 0.0
C169 C 0.58929 0.95457 0.27217 0.0
N170 N 0.58793 0.01856 0.31556 0.0
N171 N 0.74681 0.92165 0.20661 0.0
C172 C 0.61391 -0.00123 0.2824 0.0
C173 C 0.69667 0.94886 0.22647 0.0
N174 N 0.67384 0.06799 0.25981 0.0
N175 N 0.60031 0.89095 0.22827 0.0
H176 H 0.79832 0.93346 0.19539 0.0
H177 H 0.74082 0.88633 0.20482 0.0
H178 H 0.54951 0.87678 0.23784 0.0
H179 H 0.62332 0.87493 0.20406 0.0
H180 H 0.63696 0.08843 0.27611 0.0
H181 H 0.70943 0.08656 0.2413 0.0
H182 H 0.60929 0.04912 0.32572 0.0
H183 H 0.55212 0.00179 0.33516 0.0
C184 C 0.62036 0.51479 0.73679 0.0
C185 C 0.58283 0.49077 0.76728 0.0
C186 C 0.66457 0.4245 0.75495 0.0
C187 C 0.70876 0.45049 0.72835 0.0
N188 N 0.73784 0.5245 0.70066 0.0
N189 N 0.58629 0.42757 0.81235 0.0
C190 C 0.68944 0.49691 0.72115 0.0
C191 C 0.61004 0.44704 0.77848 0.0
N192 N 0.58883 0.5532 0.72127 0.0
N193 N 0.67189 0.378 0.75674 0.0
H194 H 0.55063 0.44434 0.83199 0.0
H195 H 0.60958 0.39731 0.82296 0.0
H196 H 0.7073 0.35947 0.73813 0.0
H197 H 0.63591 0.35757 0.77354 0.0
H198 H 0.61083 0.56906 0.69662 0.0
H199 H 0.5366 0.56639 0.73022 0.0
H200 H 0.72932 0.55965 0.6979 0.0
H201 H 0.79027 0.51333 0.68992 0.0
C202 C 0.79728 -0.01625 0.708 0.0
C203 C 0.72123 -0.025 0.71969 0.0
C204 C 0.76476 0.93042 0.77481 0.0
C205 C 0.84061 0.93936 0.76313 0.0
N206 N 0.92928 0.96242 0.71324 0.0
N207 N 0.63276 0.93034 0.75755 0.0
C208 C 0.85688 0.96218 0.72794 0.0
C209 C 0.70511 0.94511 0.75101 0.0
N210 N 0.81297 0.01469 0.67943 0.0
N211 N 0.74951 0.91009 0.8095 0.0
H212 H 0.58827 0.93989 0.74008 0.0
H213 H 0.61821 0.90532 0.77774 0.0
H214 H 0.79169 0.89838 0.8275 0.0
H215 H 0.69529 0.90757 0.82163 0.0
H216 H 0.86711 0.02683 0.67315 0.0
H217 H 0.77134 0.03078 0.6636 0.0
H218 H 0.94368 -0.02532 0.68596 0.0
H219 H -0.02609 0.94604 0.72679 0.0
C220 C 0.12891 0.48515 0.76015 0.0
C221 C 0.20521 0.47842 0.74771 0.0
C222 C 0.16333 0.43491 0.69251 0.0
C223 C 0.08728 0.44089 0.70543 0.0
N224 N -0.00066 0.45979 0.75692 0.0
N225 N 0.29575 0.43663 0.70852 0.0
C226 C 0.07061 0.4623 0.74098 0.0
C227 C 0.22261 0.44999 0.71587 0.0
N228 N 0.11142 0.51525 0.78881 0.0
N229 N 0.17899 0.41705 0.65712 0.0
H230 H 0.34027 0.44617 0.72567 0.0
H231 H 0.31113 0.41246 0.68797 0.0
H232 H 0.13723 0.40553 0.63912 0.0
H233 H 0.23288 0.41687 0.64436 0.0
H234 H 0.05634 0.52575 0.79565 0.0
H235 H 0.15204 0.53256 0.80391 0.0
H236 H -0.01442 0.47082 0.78452 0.0
H237 H 0.95576 0.44224 0.74413 0.0
C238 C 0.20658 -0.00063 0.71672 0.0
C239 C 0.21981 0.96981 0.7483 0.0
C240 C 0.35582 -0.01608 0.74131 0.0
C241 C 0.34333 0.00644 0.70594 0.0
N242 N 0.25746 0.03433 0.65849 0.0
N243 N 0.30783 0.9313 0.78963 0.0
C244 C 0.26879 0.01446 0.69344 0.0
C245 C 0.29458 0.96187 0.76075 0.0
N246 N 0.13452 0.01357 0.70949 0.0
N247 N 0.4261 -0.01559 0.75664 0.0
H248 H 0.26487 0.91489 0.80516 0.0
H249 H 0.36167 0.91973 0.79647 0.0
H250 H 0.4718 0.00109 0.74342 0.0
H251 H 0.43728 0.97244 0.78408 0.0
H252 H 0.12168 0.03836 0.68907 0.0
H253 H 0.08806 0.00387 0.72663 0.0
H254 H 0.20491 0.03611 0.64581 0.0
H255 H 0.30154 0.04635 0.64083 0.0
C256 C 0.04194 0.48763 0.4767 0.0
C257 C -0.0137 0.49017 0.44822 0.0
C258 C 0.89097 0.4582 0.49326 0.0
C259 C 0.94653 0.45578 0.52178 0.0
N260 N 0.07531 0.46481 0.54122 0.0
N261 N 0.85739 0.4814 0.42889 0.0
C262 C 0.02225 0.46948 0.5136 0.0
C263 C 0.91058 0.4765 0.45641 0.0
N264 N 0.11243 0.50493 0.46891 0.0
N265 N 0.82063 0.44061 0.50093 0.0
H266 H 0.87046 0.49138 0.40078 0.0
H267 H 0.7996 0.47745 0.43385 0.0
H268 H 0.80445 0.42686 0.52751 0.0
H269 H 0.77919 0.43685 0.4807 0.0
H270 H 0.15416 0.50844 0.48903 0.0
H271 H 0.12862 0.51856 0.44229 0.0
H272 H 0.13308 0.46896 0.53639 0.0
H273 H 0.06213 0.45494 0.56934 0.0
C274 C 0.41312 0.93643 0.4824 0.0
C275 C 0.43221 0.96139 0.44852 0.0
C276 C 0.50318 0.0163 0.48626 0.0
C277 C 0.48067 -0.00729 0.52027 0.0
N278 N 0.40255 0.9358 0.55177 0.0
N279 N 0.48653 0.02849 0.41825 0.0
C280 C 0.43265 0.95414 0.51864 0.0
C281 C 0.47412 0.00256 0.45052 0.0
N282 N 0.3763 0.89568 0.47996 0.0
N283 N 0.55541 0.05041 0.48791 0.0
H284 H 0.46993 0.01866 0.39118 0.0
H285 H 0.50866 0.06133 0.41854 0.0
H286 H 0.57837 0.06115 0.51347 0.0
H287 H 0.58091 0.06556 0.46386 0.0
H288 H 0.36965 0.87294 0.50285 0.0
H289 H 0.35565 0.88326 0.45441 0.0
H290 H 0.36066 0.91102 0.5525 0.0
H291 H 0.41445 0.94812 0.57886 0.0
C292 C 0.51205 0.43542 -0.01264 0.0
C293 C 0.49288 0.46177 0.02018 0.0
C294 C 0.42843 0.51832 0.97978 0.0
C295 C 0.44287 0.49027 0.94737 0.0
N296 N 0.49184 0.41997 0.92033 0.0
N297 N 0.42416 0.52481 0.04895 0.0
C298 C 0.48237 0.44803 0.95123 0.0
C299 C 0.4492 0.50249 0.01673 0.0
N300 N 0.5618 0.39962 -0.00954 0.0
N301 N 0.39462 0.56016 0.97528 0.0
H302 H 0.4386 0.51469 0.07646 0.0
H303 H 0.38455 0.55129 0.04885 0.0
H304 H 0.37268 0.57148 0.94944 0.0
H305 H 0.39169 0.58479 -0.00339 0.0
H306 H 0.58483 0.38199 0.96712 0.0
H307 H 0.58563 0.38987 0.01629 0.0
H308 H 0.51162 0.38646 0.9222 0.0
H309 H 0.47554 0.42901 0.89284 0.0
C310 C 0.00392 0.93136 0.98306 0.0
C311 C -0.02334 0.95453 0.9503 0.0
C312 C 0.91313 0.01158 -0.0086 0.0
C313 C 0.93712 -0.0129 0.02423 0.0
N314 N -0.00282 0.92078 0.05202 0.0
N315 N 0.89439 0.01139 0.92286 0.0
C316 C -0.02037 0.94591 0.02024 0.0
C317 C 0.92845 -0.00668 0.95434 0.0
N318 N 0.05609 0.89691 0.97861 0.0
N319 N 0.87581 0.05243 -0.00436 0.0
H320 H 0.90341 -0.00133 0.8953 0.0
H321 H 0.85224 0.03638 0.92426 0.0
H322 H 0.85848 0.06537 0.0222 0.0
H323 H 0.86553 0.0748 0.97302 0.0
H324 H 0.08486 0.88198 0.00116 0.0
H325 H 0.07546 0.88546 0.95188 0.0
H326 H 0.01996 0.88789 0.05091 0.0
H327 H -0.01541 0.93148 0.07986 0.0
C328 C 0.24053 0.6797 0.32922 0.0
C329 C 0.16145 0.68857 0.32825 0.0
C330 C 0.18459 0.771 0.32873 0.0
C331 C 0.26367 0.76214 0.32997 0.0
N332 N 0.36508 0.70921 0.34204 0.0
N333 N 0.05772 0.7412 0.33788 0.0
C334 C 0.29089 0.71675 0.33389 0.0
C335 C 0.13342 0.73385 0.33173 0.0
N336 N 0.26816 0.63655 0.32292 0.0
N337 N 0.15829 0.81429 0.32185 0.0
H338 H 0.01915 0.71445 0.34039 0.0
H339 H 0.03446 0.77314 0.34428 0.0
H340 H 0.19321 0.84268 0.31907 0.0
H341 H 0.10208 0.82164 0.31592 0.0
H342 H 0.32547 0.62927 0.31864 0.0
H343 H 0.23384 0.60831 0.31898 0.0
H344 H 0.387 0.67709 0.34879 0.0
H345 H 0.40292 0.7359 0.34581 0.0
C346 C 0.80288 0.23401 0.13203 0.0
C347 C 0.7732 0.18999 0.13964 0.0
C348 C 0.64455 0.22158 0.13806 0.0
C349 C 0.67465 0.26628 0.13828 0.0
N350 N 0.78351 0.31579 0.13617 0.0
N351 N 0.66522 0.14135 0.15188 0.0
C352 C 0.75411 0.27283 0.13458 0.0
C353 C 0.69375 0.18337 0.14241 0.0
N354 N 0.87781 0.23851 0.12233 0.0
N355 N 0.5687 0.21589 0.13368 0.0
H356 H 0.69884 0.11229 0.15539 0.0
H357 H 0.60845 0.13586 0.15897 0.0
H358 H 0.53175 0.24348 0.13001 0.0
H359 H 0.54391 0.18416 0.12977 0.0
H360 H 0.90184 0.2691 0.1129 0.0
H361 H 0.91447 0.21045 0.12016 0.0
H362 H 0.84094 0.32221 0.13876 0.0
H363 H 0.75025 0.34524 0.13718 0.0
C364 C 0.64327 0.22781 0.64006 0.0
C365 C 0.67278 0.18269 0.63945 0.0
C366 C 0.8015 0.21321 0.63336 0.0
C367 C 0.77243 0.25741 0.64144 0.0
N368 N 0.66542 0.3074 0.65412 0.0
N369 N 0.78047 0.13152 0.6355 0.0
C370 C 0.69311 0.26514 0.64447 0.0
C371 C 0.75205 0.17506 0.63523 0.0
N372 N 0.56732 0.23472 0.63639 0.0
N373 N 0.87646 0.20793 0.62381 0.0
H374 H 0.74637 0.10272 0.63552 0.0
H375 H 0.83775 0.1238 0.63769 0.0
H376 H 0.9136 0.23547 0.62222 0.0
H377 H 0.90026 0.17736 0.61409 0.0
H378 H 0.54267 0.2669 0.6331 0.0
H379 H 0.52993 0.20777 0.63273 0.0
H380 H 0.60887 0.31368 0.66145 0.0
H381 H 0.69963 0.33585 0.65743 0.0
C382 C 0.29126 0.72897 0.83404 0.0
C383 C 0.26022 0.6849 0.82979 0.0
C384 C 0.13236 0.71797 0.8336 0.0
C385 C 0.16385 0.76216 0.83013 0.0
N386 N 0.27331 0.81083 0.82752 0.0
N387 N 0.15082 0.63658 0.82513 0.0
C388 C 0.24336 0.7681 0.83135 0.0
C389 C 0.18052 0.67897 0.83035 0.0
N390 N 0.36663 0.73313 0.84074 0.0
N391 N 0.05621 0.71356 0.83998 0.0
H392 H 0.18385 0.60705 0.82326 0.0
H393 H 0.09385 0.63087 0.82036 0.0
H394 H 0.02009 0.74181 0.84267 0.0
H395 H 0.03009 0.68254 0.84629 0.0
H396 H 0.39202 0.76389 0.84751 0.0
H397 H 0.40252 0.7048 0.84308 0.0
H398 H 0.33078 0.81702 0.82319 0.0
H399 H 0.24005 0.84031 0.82674 0.0
loop_
_geom_bond_atom_site_label_1
_geom_bond_atom_site_label_2
_geom_bond_distance
_geom_bond_site_symmetry_2
_ccdc_geom_bond_type
C0 O1 1.306 . S
C0 O3 1.160 . S
O1 C0 1.306 . S
O1 Cd2 2.228 . S
Cd2 O1 2.228 . S
Cd2 O6 2.273 . S
Cd2 O10 2.277 . S
O3 C0 1.160 . S
O3 Cd4 2.203 . S
Cd4 O3 2.203 . S
Cd4 O6 2.411 . S
Cd4 O7 2.333 . S
Cd4 O8 2.352 . S
Cd4 O12 2.277 . S
Cd4 O13 2.356 . S
C5 O10 1.209 . S
C5 O12 1.226 . S
O6 Cd2 2.273 . S
O6 Cd4 2.411 . S
O6 C9 1.320 . S
O7 Cd4 2.333 . S
O7 C9 1.214 . S
O8 Cd4 2.352 . S
O8 C11 1.258 . S
C9 O6 1.320 . S
C9 O7 1.214 . S
O10 Cd2 2.277 . S
O10 C5 1.209 . S
C11 O8 1.258 . S
C11 O13 1.282 . S
O12 Cd4 2.277 . S
O12 C5 1.226 . S
O13 Cd4 2.356 . S
O13 C11 1.282 . S
C14 O15 1.306 . S
C14 O17 1.160 . S
O15 C14 1.306 . S
O15 Cd16 2.228 . S
Cd16 O15 2.228 . S
Cd16 O20 2.273 . S
Cd16 O24 2.277 . S
O17 C14 1.160 . S
O17 Cd18 2.203 . S
Cd18 O17 2.203 . S
Cd18 O20 2.411 . S
Cd18 O21 2.333 1_565 S
Cd18 O22 2.352 . S
Cd18 O26 2.277 . S
Cd18 O27 2.356 . S
C19 O24 1.209 . S
C19 O26 1.226 . S
O20 Cd16 2.273 . S
O20 Cd18 2.411 . S
O20 C23 1.320 . S
O21 Cd18 2.333 1_545 S
O21 C23 1.214 1_545 S
O22 Cd18 2.352 . S
O22 C25 1.258 . S
C23 O20 1.320 . S
C23 O21 1.214 1_565 S
O24 Cd16 2.277 . S
O24 C19 1.209 . S
C25 O22 1.258 . S
C25 O27 1.282 . S
O26 Cd18 2.277 . S
O26 C19 1.226 . S
O27 Cd18 2.356 . S
O27 C25 1.282 . S
C28 O29 1.306 . S
C28 O31 1.160 . S
O29 C28 1.306 . S
O29 Cd30 2.228 . S
Cd30 O29 2.228 . S
Cd30 O34 2.273 . S
Cd30 O38 2.277 . S
O31 C28 1.160 . S
O31 Cd32 2.203 . S
Cd32 O31 2.203 . S
Cd32 O34 2.411 . S
Cd32 O35 2.333 . S
Cd32 O36 2.352 . S
Cd32 O40 2.277 . S
Cd32 O41 2.356 . S
C33 O38 1.209 . S
C33 O40 1.226 . S
O34 Cd30 2.273 . S
O34 Cd32 2.411 . S
O34 C37 1.320 . S
O35 Cd32 2.333 . S
O35 C37 1.214 . S
O36 Cd32 2.352 . S
O36 C39 1.258 . S
C37 O34 1.320 . S
C37 O35 1.214 . S
O38 Cd30 2.277 . S
O38 C33 1.209 . S
C39 O36 1.258 . S
C39 O41 1.282 . S
O40 Cd32 2.277 . S
O40 C33 1.226 . S
O41 Cd32 2.356 . S
O41 C39 1.282 . S
C42 O43 1.306 . S
C42 O45 1.160 . S
O43 C42 1.306 . S
O43 Cd44 2.228 . S
Cd44 O43 2.228 . S
Cd44 O48 2.273 . S
Cd44 O52 2.277 . S
O45 C42 1.160 . S
O45 Cd46 2.203 . S
Cd46 O45 2.203 . S
Cd46 O48 2.411 . S
Cd46 O49 2.333 1_545 S
Cd46 O50 2.352 . S
Cd46 O54 2.277 . S
Cd46 O55 2.356 . S
C47 O52 1.209 . S
C47 O54 1.226 . S
O48 Cd44 2.273 . S
O48 Cd46 2.411 . S
O48 C51 1.320 . S
O49 Cd46 2.333 1_565 S
O49 C51 1.214 1_565 S
O50 Cd46 2.352 . S
O50 C53 1.258 . S
C51 O48 1.320 . S
C51 O49 1.214 1_545 S
O52 Cd44 2.277 . S
O52 C47 1.209 . S
C53 O50 1.258 . S
C53 O55 1.282 . S
O54 Cd46 2.277 . S
O54 C47 1.226 . S
O55 Cd46 2.356 . S
O55 C53 1.282 . S
C56 O57 1.306 . S
C56 O59 1.160 . S
O57 C56 1.306 . S
O57 Cd58 2.228 . S
Cd58 O57 2.228 . S
Cd58 O62 2.273 . S
Cd58 O66 2.277 . S
O59 C56 1.160 . S
O59 Cd60 2.203 . S
Cd60 O59 2.203 . S
Cd60 O62 2.411 . S
Cd60 O63 2.333 . S
Cd60 O64 2.352 . S
Cd60 O68 2.277 . S
Cd60 O69 2.356 . S
C61 O66 1.209 . S
C61 O68 1.226 . S
O62 Cd58 2.273 . S
O62 Cd60 2.411 . S
O62 C65 1.320 . S
O63 Cd60 2.333 . S
O63 C65 1.214 . S
O64 Cd60 2.352 . S
O64 C67 1.258 . S
C65 O62 1.320 . S
C65 O63 1.214 . S
O66 Cd58 2.277 . S
O66 C61 1.209 . S
C67 O64 1.258 . S
C67 O69 1.282 . S
O68 Cd60 2.277 . S
O68 C61 1.226 . S
O69 Cd60 2.356 . S
O69 C67 1.282 . S
C70 O71 1.306 . S
C70 O73 1.160 . S
O71 C70 1.306 . S
O71 Cd72 2.228 . S
Cd72 O71 2.228 . S
Cd72 O76 2.273 . S
Cd72 O80 2.277 . S
O73 C70 1.160 . S
O73 Cd74 2.203 . S
Cd74 O73 2.203 . S
Cd74 O76 2.411 . S
Cd74 O77 2.333 1_545 S
Cd74 O78 2.352 . S
Cd74 O82 2.277 . S
Cd74 O83 2.356 . S
C75 O80 1.209 . S
C75 O82 1.226 . S
O76 Cd72 2.273 . S
O76 Cd74 2.411 . S
O76 C79 1.320 . S
O77 Cd74 2.333 1_565 S
O77 C79 1.214 1_565 S
O78 Cd74 2.352 . S
O78 C81 1.258 . S
C79 O76 1.320 . S
C79 O77 1.214 1_545 S
O80 Cd72 2.277 . S
O80 C75 1.209 . S
C81 O78 1.258 . S
C81 O83 1.282 . S
O82 Cd74 2.277 . S
O82 C75 1.226 . S
O83 Cd74 2.356 . S
O83 C81 1.282 . S
C84 O85 1.306 . S
C84 O87 1.160 . S
O85 C84 1.306 . S
O85 Cd86 2.228 . S
Cd86 O85 2.228 . S
Cd86 O90 2.273 . S
Cd86 O94 2.277 . S
O87 C84 1.160 . S
O87 Cd88 2.203 . S
Cd88 O87 2.203 . S
Cd88 O90 2.411 . S
Cd88 O91 2.333 . S
Cd88 O92 2.352 . S
Cd88 O96 2.277 . S
Cd88 O97 2.356 . S
C89 O94 1.209 . S
C89 O96 1.226 . S
O90 Cd86 2.273 . S
O90 Cd88 2.411 . S
O90 C93 1.320 . S
O91 Cd88 2.333 . S
O91 C93 1.214 . S
O92 Cd88 2.352 . S
O92 C95 1.258 . S
C93 O90 1.320 . S
C93 O91 1.214 . S
O94 Cd86 2.277 . S
O94 C89 1.209 . S
C95 O92 1.258 . S
C95 O97 1.282 . S
O96 Cd88 2.277 . S
O96 C89 1.226 . S
O97 Cd88 2.356 . S
O97 C95 1.282 . S
C98 O99 1.306 . S
C98 O101 1.160 . S
O99 C98 1.306 . S
O99 Cd100 2.228 . S
Cd100 O99 2.228 . S
Cd100 O104 2.273 . S
Cd100 O108 2.277 . S
O101 C98 1.160 . S
O101 Cd102 2.203 . S
Cd102 O101 2.203 . S
Cd102 O104 2.411 . S
Cd102 O105 2.333 1_565 S
Cd102 O106 2.352 . S
Cd102 O110 2.277 . S
Cd102 O111 2.356 . S
C103 O108 1.209 . S
C103 O110 1.226 . S
O104 Cd100 2.273 . S
O104 Cd102 2.411 . S
O104 C107 1.320 . S
O105 Cd102 2.333 1_545 S
O105 C107 1.214 1_545 S
O106 Cd102 2.352 . S
O106 C109 1.258 . S
C107 O104 1.320 . S
C107 O105 1.214 1_565 S
O108 Cd100 2.277 . S
O108 C103 1.209 . S
C109 O106 1.258 . S
C109 O111 1.282 . S
O110 Cd102 2.277 . S
O110 C103 1.226 . S
O111 Cd102 2.356 . S
O111 C109 1.282 . S
C112 C113 1.363 . S
C112 C118 1.379 . S
C112 N120 1.356 . S
C113 C112 1.363 . S
C113 C119 1.363 . S
C114 C115 1.363 . S
C114 C119 1.379 . S
C114 N121 1.356 . S
C115 C114 1.363 . S
C115 C118 1.363 . S
N116 C118 1.356 . S
N116 H128 0.984 . S
N116 H129 0.985 . S
N117 C119 1.356 . S
N117 H122 0.984 . S
N117 H123 0.985 . S
C118 C112 1.379 . S
C118 C115 1.363 . S
C118 N116 1.356 . S
C119 C113 1.363 . S
C119 C114 1.379 . S
C119 N117 1.356 . S
N120 C112 1.356 . S
N120 H126 0.984 . S
N120 H127 0.984 . S
N121 C114 1.356 . S
N121 H124 0.984 . S
N121 H125 0.985 . S
H122 N117 0.984 . S
H123 N117 0.985 . S
H124 N121 0.984 . S
H125 N121 0.985 . S
H126 N120 0.984 . S
H127 N120 0.984 . S
H128 N116 0.984 . S
H129 N116 0.985 . S
C130 C131 1.363 1_565 S
C130 C136 1.379 . S
C130 N138 1.356 . S
C131 C130 1.363 1_545 S
C131 C137 1.363 . S
C132 C133 1.363 1_545 S
C132 C137 1.379 . S
C132 N139 1.356 . S
C133 C132 1.363 1_565 S
C133 C136 1.363 . S
N134 C136 1.356 . S
N134 H146 0.984 . S
N134 H147 0.985 . S
N135 C137 1.356 . S
N135 H140 0.984 1_455 S
N135 H141 0.985 1_455 S
C136 C130 1.379 . S
C136 C133 1.363 . S
C136 N134 1.356 . S
C137 C131 1.363 . S
C137 C132 1.379 . S
C137 N135 1.356 . S
N138 C130 1.356 . S
N138 H144 0.984 . S
N138 H145 0.984 . S
N139 C132 1.356 . S
N139 H142 0.984 . S
N139 H143 0.985 . S
H140 N135 0.984 1_655 S
H141 N135 0.985 1_655 S
H142 N139 0.984 . S
H143 N139 0.985 . S
H144 N138 0.984 . S
H145 N138 0.984 . S
H146 N134 0.984 . S
H147 N134 0.985 . S
C148 C149 1.363 . S
C148 C154 1.379 . S
C148 N156 1.356 . S
C149 C148 1.363 . S
C149 C155 1.363 . S
C150 C151 1.363 . S
C150 C155 1.379 . S
C150 N157 1.356 1_655 S
C151 C150 1.363 . S
C151 C154 1.363 . S
N152 C154 1.356 . S
N152 H164 0.984 . S
N152 H165 0.985 . S
N153 C155 1.356 . S
N153 H158 0.984 . S
N153 H159 0.985 . S
C154 C148 1.379 . S
C154 C151 1.363 . S
C154 N152 1.356 . S
C155 C149 1.363 . S
C155 C150 1.379 . S
C155 N153 1.356 . S
N156 C148 1.356 . S
N156 H162 0.984 . S
N156 H163 0.984 . S
N157 C150 1.356 1_455 S
N157 H160 0.984 . S
N157 H161 0.985 . S
H158 N153 0.984 . S
H159 N153 0.985 . S
H160 N157 0.984 . S
H161 N157 0.985 . S
H162 N156 0.984 . S
H163 N156 0.984 . S
H164 N152 0.984 . S
H165 N152 0.985 . S
C166 C167 1.363 . S
C166 C172 1.379 . S
C166 N174 1.356 . S
C167 C166 1.363 . S
C167 C173 1.363 1_545 S
C168 C169 1.363 . S
C168 C173 1.379 . S
C168 N175 1.356 . S
C169 C168 1.363 . S
C169 C172 1.363 1_565 S
N170 C172 1.356 . S
N170 H182 0.984 . S
N170 H183 0.985 . S
N171 C173 1.356 . S
N171 H176 0.984 . S
N171 H177 0.985 . S
C172 C166 1.379 . S
C172 C169 1.363 1_545 S
C172 N170 1.356 . S
C173 C167 1.363 1_565 S
C173 C168 1.379 . S
C173 N171 1.356 . S
N174 C166 1.356 . S
N174 H180 0.984 . S
N174 H181 0.984 . S
N175 C168 1.356 . S
N175 H178 0.984 . S
N175 H179 0.985 . S
H176 N171 0.984 . S
H177 N171 0.985 . S
H178 N175 0.984 . S
H179 N175 0.985 . S
H180 N174 0.984 . S
H181 N174 0.984 . S
H182 N170 0.984 . S
H183 N170 0.985 . S
C184 C185 1.363 . S
C184 C190 1.379 . S
C184 N192 1.356 . S
C185 C184 1.363 . S
C185 C191 1.363 . S
C186 C187 1.363 . S
C186 C191 1.379 . S
C186 N193 1.356 . S
C187 C186 1.363 . S
C187 C190 1.363 . S
N188 C190 1.356 . S
N188 H200 0.984 . S
N188 H201 0.985 . S
N189 C191 1.356 . S
N189 H194 0.984 . S
N189 H195 0.985 . S
C190 C184 1.379 . S
C190 C187 1.363 . S
C190 N188 1.356 . S
C191 C185 1.363 . S
C191 C186 1.379 . S
C191 N189 1.356 . S
N192 C184 1.356 . S
N192 H198 0.984 . S
N192 H199 0.984 . S
N193 C186 1.356 . S
N193 H196 0.984 . S
N193 H197 0.985 . S
H194 N189 0.984 . S
H195 N189 0.985 . S
H196 N193 0.984 . S
H197 N193 0.985 . S
H198 N192 0.984 . S
H199 N192 0.984 . S
H200 N188 0.984 . S
H201 N188 0.985 . S
C202 C203 1.363 . S
C202 C208 1.379 . S
C202 N210 1.356 . S
C203 C202 1.363 . S
C203 C209 1.363 1_545 S
C204 C205 1.363 . S
C204 C209 1.379 . S
C204 N211 1.356 . S
C205 C204 1.363 . S
C205 C208 1.363 1_565 S
N206 C208 1.356 1_455 S
N206 H218 0.984 . S
N206 H219 0.985 . S
N207 C209 1.356 . S
N207 H212 0.984 . S
N207 H213 0.985 . S
C208 C202 1.379 . S
C208 C205 1.363 1_545 S
C208 N206 1.356 1_655 S
C209 C203 1.363 1_565 S
C209 C204 1.379 . S
C209 N207 1.356 . S
N210 C202 1.356 . S
N210 H216 0.984 . S
N210 H217 0.984 . S
N211 C204 1.356 . S
N211 H214 0.984 . S
N211 H215 0.985 . S
H212 N207 0.984 . S
H213 N207 0.985 . S
H214 N211 0.984 . S
H215 N211 0.985 . S
H216 N210 0.984 . S
H217 N210 0.984 . S
H218 N206 0.984 . S
H219 N206 0.985 . S
C220 C221 1.363 . S
C220 C226 1.379 . S
C220 N228 1.356 . S
C221 C220 1.363 . S
C221 C227 1.363 . S
C222 C223 1.363 . S
C222 C227 1.379 . S
C222 N229 1.356 . S
C223 C222 1.363 . S
C223 C226 1.363 . S
N224 C226 1.356 1_655 S
N224 H236 0.984 . S
N224 H237 0.985 . S
N225 C227 1.356 . S
N225 H230 0.984 . S
N225 H231 0.985 . S
C226 C220 1.379 . S
C226 C223 1.363 . S
C226 N224 1.356 1_455 S
C227 C221 1.363 . S
C227 C222 1.379 . S
C227 N225 1.356 . S
N228 C220 1.356 . S
N228 H234 0.984 . S
N228 H235 0.984 . S
N229 C222 1.356 . S
N229 H232 0.984 . S
N229 H233 0.985 . S
H230 N225 0.984 . S
H231 N225 0.985 . S
H232 N229 0.984 . S
H233 N229 0.985 . S
H234 N228 0.984 . S
H235 N228 0.984 . S
H236 N224 0.984 . S
H237 N224 0.985 . S
C238 C239 1.363 1_545 S
C238 C244 1.379 . S
C238 N246 1.356 . S
C239 C238 1.363 1_565 S
C239 C245 1.363 . S
C240 C241 1.363 1_565 S
C240 C245 1.379 . S
C240 N247 1.356 . S
C241 C240 1.363 1_545 S
C241 C244 1.363 . S
N242 C244 1.356 . S
N242 H254 0.984 . S
N242 H255 0.985 . S
N243 C245 1.356 . S
N243 H248 0.984 . S
N243 H249 0.985 . S
C244 C238 1.379 . S
C244 C241 1.363 . S
C244 N242 1.356 . S
C245 C239 1.363 . S
C245 C240 1.379 . S
C245 N243 1.356 . S
N246 C238 1.356 . S
N246 H252 0.984 . S
N246 H253 0.984 . S
N247 C240 1.356 . S
N247 H250 0.984 . S
N247 H251 0.985 . S
H248 N243 0.984 . S
H249 N243 0.985 . S
H250 N247 0.984 . S
H251 N247 0.985 . S
H252 N246 0.984 . S
H253 N246 0.984 . S
H254 N242 0.984 . S
H255 N242 0.985 . S
C256 C257 1.363 . S
C256 C262 1.379 . S
C256 N264 1.356 . S
C257 C256 1.363 . S
C257 C263 1.363 1_455 S
C258 C259 1.363 . S
C258 C263 1.379 . S
C258 N265 1.356 . S
C259 C258 1.363 . S
C259 C262 1.363 1_655 S
N260 C262 1.356 . S
N260 H272 0.984 . S
N260 H273 0.985 . S
N261 C263 1.356 . S
N261 H266 0.984 . S
N261 H267 0.985 . S
C262 C256 1.379 . S
C262 C259 1.363 1_455 S
C262 N260 1.356 . S
C263 C257 1.363 1_655 S
C263 C258 1.379 . S
C263 N261 1.356 . S
N264 C256 1.356 . S
N264 H270 0.984 . S
N264 H271 0.984 . S
N265 C258 1.356 . S
N265 H268 0.984 . S
N265 H269 0.985 . S
H266 N261 0.984 . S
H267 N261 0.985 . S
H268 N265 0.984 . S
H269 N265 0.985 . S
H270 N264 0.984 . S
H271 N264 0.984 . S
H272 N260 0.984 . S
H273 N260 0.985 . S
C274 C275 1.363 . S
C274 C280 1.379 . S
C274 N282 1.356 . S
C275 C274 1.363 . S
C275 C281 1.363 1_565 S
C276 C277 1.363 . S
C276 C281 1.379 . S
C276 N283 1.356 . S
C277 C276 1.363 . S
C277 C280 1.363 1_545 S
N278 C280 1.356 . S
N278 H290 0.984 . S
N278 H291 0.985 . S
N279 C281 1.356 . S
N279 H284 0.984 . S
N279 H285 0.985 . S
C280 C274 1.379 . S
C280 C277 1.363 1_565 S
C280 N278 1.356 . S
C281 C275 1.363 1_545 S
C281 C276 1.379 . S
C281 N279 1.356 . S
N282 C274 1.356 . S
N282 H288 0.984 . S
N282 H289 0.984 . S
N283 C276 1.356 . S
N283 H286 0.984 . S
N283 H287 0.985 . S
H284 N279 0.984 . S
H285 N279 0.985 . S
H286 N283 0.984 . S
H287 N283 0.985 . S
H288 N282 0.984 . S
H289 N282 0.984 . S
H290 N278 0.984 . S
H291 N278 0.985 . S
C292 C293 1.363 1_556 S
C292 C298 1.379 . S
C292 N300 1.356 1_556 S
C293 C292 1.363 1_554 S
C293 C299 1.363 . S
C294 C295 1.363 1_554 S
C294 C299 1.379 . S
C294 N301 1.356 1_554 S
C295 C294 1.363 1_556 S
C295 C298 1.363 . S
N296 C298 1.356 . S
N296 H308 0.984 . S
N296 H309 0.985 . S
N297 C299 1.356 . S
N297 H302 0.984 . S
N297 H303 0.985 . S
C298 C292 1.379 . S
C298 C295 1.363 . S
C298 N296 1.356 . S
C299 C293 1.363 . S
C299 C294 1.379 . S
C299 N297 1.356 . S
N300 C292 1.356 1_554 S
N300 H306 0.984 1_554 S
N300 H307 0.984 . S
N301 C294 1.356 1_556 S
N301 H304 0.984 . S
N301 H305 0.985 1_556 S
H302 N297 0.984 . S
H303 N297 0.985 . S
H304 N301 0.984 . S
H305 N301 0.985 1_554 S
H306 N300 0.984 1_556 S
H307 N300 0.984 . S
H308 N296 0.984 . S
H309 N296 0.985 . S
C310 C311 1.363 1_655 S
C310 C316 1.379 1_556 S
C310 N318 1.356 . S
C311 C310 1.363 1_455 S
C311 C317 1.363 1_565 S
C312 C313 1.363 1_455 S
C312 C317 1.379 1_554 S
C312 N319 1.356 . S
C313 C312 1.363 1_655 S
C313 C316 1.363 1_545 S
N314 C316 1.356 . S
N314 H326 0.984 . S
N314 H327 0.985 . S
N315 C317 1.356 . S
N315 H320 0.984 . S
N315 H321 0.985 . S
C316 C310 1.379 1_554 S
C316 C313 1.363 1_565 S
C316 N314 1.356 . S
C317 C311 1.363 1_545 S
C317 C312 1.379 1_556 S
C317 N315 1.356 . S
N318 C310 1.356 . S
N318 H324 0.984 . S
N318 H325 0.984 1_655 S
N319 C312 1.356 . S
N319 H322 0.984 1_455 S
N319 H323 0.985 . S
H320 N315 0.984 . S
H321 N315 0.985 . S
H322 N319 0.984 1_655 S
H323 N319 0.985 . S
H324 N318 0.984 . S
H325 N318 0.984 1_455 S
H326 N314 0.984 . S
H327 N314 0.985 . S
C328 C329 1.363 . S
C328 C334 1.379 . S
C328 N336 1.356 . S
C329 C328 1.363 . S
C329 C335 1.363 . S
C330 C331 1.363 . S
C330 C335 1.379 . S
C330 N337 1.356 . S
C331 C330 1.363 . S
C331 C334 1.363 . S
N332 C334 1.356 . S
N332 H344 0.984 . S
N332 H345 0.985 . S
N333 C335 1.356 . S
N333 H338 0.984 . S
N333 H339 0.985 . S
C334 C328 1.379 . S
C334 C331 1.363 . S
C334 N332 1.356 . S
C335 C329 1.363 . S
C335 C330 1.379 . S
C335 N333 1.356 . S
N336 C328 1.356 . S
N336 H342 0.984 . S
N336 H343 0.984 . S
N337 C330 1.356 . S
N337 H340 0.984 . S
N337 H341 0.985 . S
H338 N333 0.984 . S
H339 N333 0.985 . S
H340 N337 0.984 . S
H341 N337 0.985 . S
H342 N336 0.984 . S
H343 N336 0.984 . S
H344 N332 0.984 . S
H345 N332 0.985 . S
C346 C347 1.363 . S
C346 C352 1.379 . S
C346 N354 1.356 . S
C347 C346 1.363 . S
C347 C353 1.363 . S
C348 C349 1.363 . S
C348 C353 1.379 . S
C348 N355 1.356 . S
C349 C348 1.363 . S
C349 C352 1.363 . S
N350 C352 1.356 . S
N350 H362 0.984 . S
N350 H363 0.985 . S
N351 C353 1.356 . S
N351 H356 0.984 . S
N351 H357 0.985 . S
C352 C346 1.379 . S
C352 C349 1.363 . S
C352 N350 1.356 . S
C353 C347 1.363 . S
C353 C348 1.379 . S
C353 N351 1.356 . S
N354 C346 1.356 . S
N354 H360 0.984 . S
N354 H361 0.984 . S
N355 C348 1.356 . S
N355 H358 0.984 . S
N355 H359 0.985 . S
H356 N351 0.984 . S
H357 N351 0.985 . S
H358 N355 0.984 . S
H359 N355 0.985 . S
H360 N354 0.984 . S
H361 N354 0.984 . S
H362 N350 0.984 . S
H363 N350 0.985 . S
C364 C365 1.363 . S
C364 C370 1.379 . S
C364 N372 1.356 . S
C365 C364 1.363 . S
C365 C371 1.363 . S
C366 C367 1.363 . S
C366 C371 1.379 . S
C366 N373 1.356 . S
C367 C366 1.363 . S
C367 C370 1.363 . S
N368 C370 1.356 . S
N368 H380 0.984 . S
N368 H381 0.985 . S
N369 C371 1.356 . S
N369 H374 0.984 . S
N369 H375 0.985 . S
C370 C364 1.379 . S
C370 C367 1.363 . S
C370 N368 1.356 . S
C371 C365 1.363 . S
C371 C366 1.379 . S
C371 N369 1.356 . S
N372 C364 1.356 . S
N372 H378 0.984 . S
N372 H379 0.984 . S
N373 C366 1.356 . S
N373 H376 0.984 . S
N373 H377 0.985 . S
H374 N369 0.984 . S
H375 N369 0.985 . S
H376 N373 0.984 . S
H377 N373 0.985 . S
H378 N372 0.984 . S
H379 N372 0.984 . S
H380 N368 0.984 . S
H381 N368 0.985 . S
C382 C383 1.363 . S
C382 C388 1.379 . S
C382 N390 1.356 . S
C383 C382 1.363 . S
C383 C389 1.363 . S
C384 C385 1.363 . S
C384 C389 1.379 . S
C384 N391 1.356 . S
C385 C384 1.363 . S
C385 C388 1.363 . S
N386 C388 1.356 . S
N386 H398 0.984 . S
N386 H399 0.985 . S
N387 C389 1.356 . S
N387 H392 0.984 . S
N387 H393 0.985 . S
C388 C382 1.379 . S
C388 C385 1.363 . S
C388 N386 1.356 . S
C389 C383 1.363 . S
C389 C384 1.379 . S
C389 N387 1.356 . S
N390 C382 1.356 . S
N390 H396 0.984 . S
N390 H397 0.984 . S
N391 C384 1.356 . S
N391 H394 0.984 . S
N391 H395 0.985 . S
H392 N387 0.984 . S
H393 N387 0.985 . S
H394 N391 0.984 . S
H395 N391 0.985 . S
H396 N390 0.984 . S
H397 N390 0.984 . S
H398 N386 0.984 . S
H399 N386 0.985 . S
C113 C5 1.442 . S
C115 C37 1.447 . S
C131 C51 1.447 1_455 S
C133 C19 1.442 . S
C149 C33 1.442 . S
C151 C9 1.447 1_655 S
C167 C47 1.442 . S
C169 C23 1.447 . S
C185 C93 1.447 . S
C187 C61 1.442 . S
C203 C75 1.442 . S
C205 C107 1.447 1_655 S
C221 C89 1.442 . S
C223 C65 1.447 1_455 S
C239 C103 1.442 . S
C241 C79 1.447 . S
C257 C11 1.510 . S
C259 C67 1.510 . S
C275 C25 1.510 . S
C277 C81 1.510 . S
C293 C39 1.510 . S
C295 C95 1.510 . S
C311 C109 1.510 . S
C313 C53 1.510 . S
C329 C0 1.506 . S
C331 C14 1.506 . S
C347 C42 1.506 . S
C349 C28 1.506 . S
C365 C70 1.506 . S
C367 C56 1.506 . S
C383 C84 1.506 . S
C385 C98 1.506 . S
