# Generated by pormake.
# Topology ukh, (4)-cn, num edge types: 1
# Building blocks:
#     Node 0, Type 0, BuildingBlock: CEKHIL_clean_sbu_0, # of connection points: 4
#     Node 1, Type 0, BuildingBlock: CEKHIL_clean_sbu_0, # of connection points: 4
#     Node 2, Type 0, BuildingBlock: CEKHIL_clean_sbu_0, # of connection points: 4
#     Node 3, Type 0, BuildingBlock: CEKHIL_clean_sbu_0, # of connection points: 4
#     Node 4, Type 0, BuildingBlock: CEKHIL_clean_sbu_0, # of connection points: 4
#     Node 5, Type 0, BuildingBlock: CEKHIL_clean_sbu_0, # of connection points: 4
#     Node 6, Type 0, BuildingBlock: CEKHIL_clean_sbu_0, # of connection points: 4
#     Node 7, Type 0, BuildingBlock: CEKHIL_clean_sbu_0, # of connection points: 4
#     Node 8, Type 0, BuildingBlock: CEKHIL_clean_sbu_0, # of connection points: 4
#     Node 9, Type 0, BuildingBlock: CEKHIL_clean_sbu_0, # of connection points: 4
#     Node 10, Type 0, BuildingBlock: CEKHIL_clean_sbu_0, # of connection points: 4
#     Node 11, Type 0, BuildingBlock: CEKHIL_clean_sbu_0, # of connection points: 4
#     Edge 12, Type (0, 0), BuildingBlock: OJICUG_clean_linker_0, # of connection points: 2
#     Edge 13, Type (0, 0), BuildingBlock: OJICUG_clean_linker_0, # of connection points: 2
#     Edge 14, Type (0, 0), BuildingBlock: OJICUG_clean_linker_0, # of connection points: 2
#     Edge 15, Type (0, 0), BuildingBlock: OJICUG_clean_linker_0, # of connection points: 2
#     Edge 16, Type (0, 0), BuildingBlock: OJICUG_clean_linker_0, # of connection points: 2
#     Edge 17, Type (0, 0), BuildingBlock: OJICUG_clean_linker_0, # of connection points: 2
#     Edge 18, Type (0, 0), BuildingBlock: OJICUG_clean_linker_0, # of connection points: 2
#     Edge 19, Type (0, 0), BuildingBlock: OJICUG_clean_linker_0, # of connection points: 2
#     Edge 20, Type (0, 0), BuildingBlock: OJICUG_clean_linker_0, # of connection points: 2
#     Edge 21, Type (0, 0), BuildingBlock: OJICUG_clean_linker_0, # of connection points: 2
#     Edge 22, Type (0, 0), BuildingBlock: OJICUG_clean_linker_0, # of connection points: 2
#     Edge 23, Type (0, 0), BuildingBlock: OJICUG_clean_linker_0, # of connection points: 2
#     Edge 24, Type (0, 0), BuildingBlock: OJICUG_clean_linker_0, # of connection points: 2
#     Edge 25, Type (0, 0), BuildingBlock: OJICUG_clean_linker_0, # of connection points: 2
#     Edge 26, Type (0, 0), BuildingBlock: OJICUG_clean_linker_0, # of connection points: 2
#     Edge 27, Type (0, 0), BuildingBlock: OJICUG_clean_linker_0, # of connection points: 2
#     Edge 28, Type (0, 0), BuildingBlock: OJICUG_clean_linker_0, # of connection points: 2
#     Edge 29, Type (0, 0), BuildingBlock: OJICUG_clean_linker_0, # of connection points: 2
#     Edge 30, Type (0, 0), BuildingBlock: OJICUG_clean_linker_0, # of connection points: 2
#     Edge 31, Type (0, 0), BuildingBlock: OJICUG_clean_linker_0, # of connection points: 2
#     Edge 32, Type (0, 0), BuildingBlock: OJICUG_clean_linker_0, # of connection points: 2
#     Edge 33, Type (0, 0), BuildingBlock: OJICUG_clean_linker_0, # of connection points: 2
#     Edge 34, Type (0, 0), BuildingBlock: OJICUG_clean_linker_0, # of connection points: 2
#     Edge 35, Type (0, 0), BuildingBlock: OJICUG_clean_linker_0, # of connection points: 2
# Relax obj value: 0.070
# Max RMSD: 0.092
# Mean RMSD: 0.092
data_MOF--net-ukh--node1-CEKHIL_clean_sbu_0--edge1-OJICUG_clean_linker_0
_symmetry_space_group_name_H-M    P1
_symmetry_Int_Tables_number       1
_symmetry_cell_setting            triclinic
loop_
_symmetry_equiv_pos_as_xyz
'x, y, z'
_cell_length_a     23.671004
_cell_length_b     23.67524
_cell_length_c     44.345241
_cell_angle_alpha  89.998512
_cell_angle_beta   89.978114
_cell_angle_gamma 119.94128
loop_
_atom_site_label
_atom_site_type_symbol
_atom_site_fract_x
_atom_site_fract_y
_atom_site_fract_z
_atom_type_partial_charge
Co0 Co 0.32067 0.26035 0.04445 0.0
O1 O 0.34818 0.34899 0.05483 0.0
O2 O 0.41134 0.31778 0.03237 0.0
C3 C 0.22633 0.2409 0.02336 0.0
O4 O 0.30325 0.17089 0.02948 0.0
Co5 Co 0.19349 0.15492 0.07604 0.0
O6 O 0.20704 0.09536 0.04969 0.0
C7 C 0.3175 0.21559 0.10901 0.0
C8 C 0.40364 0.36528 0.04252 0.0
C9 C 0.25672 0.11132 0.03303 0.0
O10 O 0.34916 0.2444 0.08499 0.0
O11 O 0.2553 0.18377 0.11075 0.0
O12 O 0.27996 0.26854 0.0079 0.0
O13 O 0.23261 0.23249 0.05164 0.0
Co14 Co 0.07178 0.32692 0.37534 0.0
O15 O 0.00951 0.35305 0.38564 0.0
O16 O 0.10503 0.41837 0.36468 0.0
C17 C 0.99875 0.23372 0.35273 0.0
O18 O 0.14509 0.31101 0.36074 0.0
Co19 Co 0.0489 0.19801 0.40567 0.0
O20 O 0.1241 0.21404 0.38022 0.0
C21 C 0.10758 0.31947 0.44043 0.0
C22 C 0.04916 0.40958 0.37448 0.0
C23 C 0.15842 0.2646 0.36417 0.0
O24 O 0.11349 0.35268 0.41653 0.0
O25 O 0.07661 0.2572 0.44136 0.0
O26 O 0.02504 0.28829 0.33798 0.0
O27 O 0.01208 0.23852 0.38112 0.0
Co28 Co 0.74935 0.064 0.71092 0.0
O29 O 0.66087 1.00279 0.7215 0.0
O30 O 0.69149 0.09678 0.69884 0.0
C31 C 0.76911 0.98918 0.68995 0.0
O32 O 0.83852 0.13603 0.69569 0.0
Co33 Co 0.85564 0.04322 0.74235 0.0
O34 O 0.91462 0.11586 0.71569 0.0
C35 C 0.79498 0.10682 0.77528 0.0
C36 C 0.64423 0.04166 0.70914 0.0
C37 C 0.89821 0.14923 0.69905 0.0
O38 O 0.76532 0.10875 0.75138 0.0
O39 O 0.82754 0.07716 0.77698 0.0
O40 O 0.74114 0.01484 0.67448 0.0
O41 O 0.77772 0.00417 0.71819 0.0
Co42 Co 0.67784 0.74528 0.04089 0.0
O43 O 0.65198 0.65683 0.05084 0.0
O44 O 0.58634 0.68719 0.03032 0.0
C45 C 0.77109 0.76584 0.0181 0.0
O46 O 0.69343 0.83461 0.02672 0.0
Co47 Co 0.80688 0.85088 0.07127 0.0
O48 O 0.79027 0.91034 0.04633 0.0
C49 C 0.68581 0.78656 0.10626 0.0
C50 C 0.59532 0.64006 0.03986 0.0
C51 C 0.73964 0.89428 0.03037 0.0
O52 O 0.65233 0.76055 0.08229 0.0
O53 O 0.7481 0.81733 0.10706 0.0
O54 O 0.71653 0.73781 0.00334 0.0
O55 O 0.76622 0.77399 0.04651 0.0
Co56 Co 0.94346 0.68419 0.37754 0.0
O57 O 1.00453 0.65688 0.38849 0.0
O58 O 0.91041 0.59324 0.36604 0.0
C59 C 0.01848 0.77793 0.35605 0.0
O60 O 0.87149 0.70119 0.36198 0.0
Co61 Co 0.96487 0.81252 0.40792 0.0
O62 O 0.89204 0.79815 0.38123 0.0
C63 C 0.89993 0.68917 0.44157 0.0
C64 C 0.96553 0.60116 0.37641 0.0
C65 C 0.85841 0.74786 0.36496 0.0
O66 O 0.89877 0.65679 0.41809 0.0
O67 O 0.92931 0.75138 0.44278 0.0
O68 O 0.99262 0.72391 0.34091 0.0
O69 O 1.0035 0.77242 0.38428 0.0
Co70 Co 0.26384 0.93501 0.70827 0.0
O71 O 0.35229 0.99762 0.71814 0.0
O72 O 0.3221 0.9018 0.69752 0.0
C73 C 0.24297 0.00762 0.68564 0.0
O74 O 0.17458 0.8613 0.69412 0.0
Co75 Co 0.15801 0.95788 0.73886 0.0
O76 O 0.09861 0.88214 0.7138 0.0
C77 C 0.22336 0.902 0.77373 0.0
C78 C 0.36917 0.95787 0.70704 0.0
C79 C 0.11483 0.84778 0.69775 0.0
O80 O 0.24896 0.89424 0.74966 0.0
O81 O 0.19246 0.93344 0.7746 0.0
O82 O 0.27101 0.98115 0.67079 0.0
O83 O 0.23493 0.99456 0.71406 0.0
Co84 Co 0.74782 0.6769 0.61395 0.0
O85 O 0.65955 0.65119 0.60362 0.0
O86 O 0.68939 0.58544 0.62448 0.0
C87 C 0.76818 0.77015 0.63662 0.0
O88 O 0.8368 0.69227 0.62857 0.0
Co89 Co 0.85432 0.80586 0.58383 0.0
O90 O 0.91309 0.78924 0.60927 0.0
C91 C 0.79086 0.68478 0.54881 0.0
C92 C 0.64249 0.59452 0.61469 0.0
C93 C 0.89658 0.73851 0.62523 0.0
O94 O 0.76378 0.65133 0.57268 0.0
O95 O 0.82217 0.74706 0.54803 0.0
O96 O 0.73972 0.71555 0.65135 0.0
O97 O 0.77684 0.76536 0.60825 0.0
Co98 Co 0.06589 0.74785 0.94409 0.0
O99 O 0.00516 0.65984 0.93259 0.0
O100 O 0.09815 0.68944 0.95598 0.0
C101 C 0.9901 0.76646 0.96484 0.0
O102 O 0.13729 0.8363 0.96034 0.0
Co103 Co 0.04614 0.85581 0.91361 0.0
O104 O 0.11752 0.9133 0.94111 0.0
C105 C 0.11338 0.79857 0.88069 0.0
C106 C 0.04342 0.64264 0.94513 0.0
C107 C 0.15044 0.8961 0.95761 0.0
O108 O 0.11241 0.76578 0.90398 0.0
O109 O 0.08472 0.83214 0.87929 0.0
O110 O 0.01522 0.73785 0.98022 0.0
O111 O 0.00623 0.77648 0.93675 0.0
Co112 Co 0.33002 0.0692 0.27961 0.0
O113 O 0.35645 0.00735 0.2689 0.0
O114 O 0.42152 0.10249 0.29021 0.0
C115 C 0.23692 0.9955 0.3021 0.0
O116 O 0.31385 0.14205 0.29462 0.0
Co117 Co 0.20075 0.04634 0.24962 0.0
O118 O 0.21681 0.12122 0.2753 0.0
C119 C 0.32234 0.10676 0.21484 0.0
C120 C 0.4129 0.04686 0.28018 0.0
C121 C 0.2674 0.15536 0.29133 0.0
O122 O 0.35565 0.11182 0.23858 0.0
O123 O 0.26006 0.07572 0.21395 0.0
O124 O 0.2915 0.02167 0.31683 0.0
O125 O 0.24166 0.00937 0.27377 0.0
Co126 Co 0.26235 0.32056 0.61112 0.0
O127 O 0.35069 0.3479 0.60012 0.0
O128 O 0.32019 0.41134 0.62285 0.0
C129 C 0.24352 0.22648 0.63229 0.0
O130 O 0.17342 0.30346 0.62678 0.0
Co131 Co 0.15554 0.19266 0.58045 0.0
O132 O 0.0971 0.20677 0.60732 0.0
C133 C 0.21459 0.3163 0.54705 0.0
C134 C 0.36738 0.40347 0.61238 0.0
C135 C 0.11373 0.25685 0.62377 0.0
O136 O 0.24511 0.34845 0.57069 0.0
O137 O 0.18216 0.2541 0.54566 0.0
O138 O 0.2717 0.28029 0.64758 0.0
O139 O 0.23413 0.2324 0.6041 0.0
Co140 Co 0.93539 0.26189 0.94699 0.0
O141 O 0.99778 0.35005 0.93651 0.0
O142 O 0.90228 0.32042 0.9574 0.0
C143 C 0.00841 0.24176 0.96975 0.0
O144 O 0.86197 0.17299 0.96172 0.0
Co145 Co 0.95833 0.15537 0.91707 0.0
O146 O 0.88289 0.09672 0.94248 0.0
C147 C 0.89954 0.2178 0.88201 0.0
C148 C 0.95821 0.36722 0.94757 0.0
C149 C 0.84855 0.11322 0.95839 0.0
O150 O 0.89372 0.24556 0.90576 0.0
O151 O 0.9305 0.18642 0.88126 0.0
O152 O 0.98216 0.27027 0.9844 0.0
O153 O 0.99497 0.23292 0.94139 0.0
Co154 Co 0.6873 0.94082 0.27731 0.0
O155 O 0.66012 1.00198 0.26633 0.0
O156 O 0.5964 0.90796 0.28887 0.0
C157 C 0.78119 0.01569 0.2987 0.0
O158 O 0.70419 0.86879 0.29288 0.0
Co159 Co 0.81543 0.96188 0.24679 0.0
O160 O 0.80102 0.88909 0.27352 0.0
C161 C 0.69183 0.89662 0.21336 0.0
C162 C 0.60439 0.96307 0.27845 0.0
C163 C 0.75077 0.85559 0.28986 0.0
O164 O 0.65964 0.89599 0.23682 0.0
O165 O 0.75404 0.92574 0.21206 0.0
O166 O 0.72719 0.99 0.31387 0.0
O167 O 0.7756 1.00071 0.27047 0.0
C168 C 0.56549 0.52291 0.0372 0.0
C169 C 0.54557 0.57001 0.03802 0.0
H170 H 0.53644 0.42115 0.03734 0.0
C171 C 0.47884 0.54904 0.0386 0.0
H172 H 0.6168 0.53772 0.03651 0.0
C173 C 0.43309 0.48232 0.0397 0.0
C174 C 0.45306 0.43524 0.03951 0.0
H175 H 0.46212 0.58407 0.03926 0.0
H176 H 0.38184 0.46757 0.04091 0.0
C177 C 0.51968 0.45617 0.03757 0.0
C178 C 0.96173 0.43932 0.37183 0.0
C179 C 0.02873 0.45929 0.37261 0.0
H180 H 0.88891 0.46831 0.37178 0.0
C181 C 0.07434 0.52602 0.37305 0.0
H182 H 0.92534 0.38801 0.37125 0.0
C183 C 0.05325 0.57174 0.37399 0.0
C184 C 0.98621 0.55173 0.37377 0.0
H185 H 0.12608 0.54277 0.37368 0.0
H186 H 0.08963 0.62301 0.37504 0.0
C187 C 0.94067 0.4851 0.37203 0.0
C188 C 0.48615 0.04531 0.70411 0.0
C189 C 0.43927 0.97832 0.70504 0.0
H190 H 0.58782 0.11816 0.70403 0.0
C191 C 0.46052 0.93275 0.70559 0.0
H192 H 0.47112 0.08166 0.70344 0.0
C193 C 0.52731 0.95388 0.70655 0.0
C194 C 0.57418 0.02092 0.70625 0.0
H195 H 0.42564 0.88102 0.70633 0.0
H196 H 0.5423 0.91754 0.70774 0.0
C197 C 0.55296 0.0664 0.70434 0.0
C198 C 0.52541 0.56508 0.61727 0.0
C199 C 0.57235 0.54495 0.61647 0.0
H200 H 0.4237 0.53634 0.61725 0.0
C201 C 0.55116 0.47818 0.61591 0.0
H202 H 0.54038 0.61642 0.61793 0.0
C203 C 0.48439 0.43259 0.61488 0.0
C204 C 0.43745 0.45276 0.61512 0.0
H205 H 0.58608 0.46131 0.61526 0.0
H206 H 0.46946 0.3813 0.61373 0.0
C207 C 0.4586 0.51943 0.61698 0.0
C208 C 0.04591 0.484 0.9508 0.0
C209 C 0.97888 0.43738 0.94935 0.0
H210 H 0.11913 0.58552 0.95126 0.0
C211 C 0.93361 0.45894 0.94805 0.0
H212 H 0.08201 0.4687 0.95204 0.0
C213 C 0.95512 0.5258 0.94693 0.0
C214 C 0.02221 0.57244 0.94785 0.0
H215 H 0.88186 0.42426 0.94686 0.0
H216 H 0.91902 0.54104 0.94521 0.0
C217 C 0.06734 0.55087 0.95044 0.0
C218 C 0.44256 0.95939 0.28278 0.0
C219 C 0.46258 0.02639 0.28205 0.0
H220 H 0.47148 0.88653 0.28287 0.0
C221 C 0.52933 0.07196 0.28173 0.0
H222 H 0.39123 0.92303 0.28327 0.0
C223 C 0.57505 0.05084 0.28086 0.0
C224 C 0.55498 0.9838 0.28105 0.0
H225 H 0.54612 0.12371 0.28115 0.0
H226 H 0.62634 0.08718 0.27989 0.0
C227 C 0.48831 0.93829 0.28266 0.0
C228 C 0.36004 0.21052 0.18869 0.0
C229 C 0.35449 0.14861 0.18885 0.0
H230 H 0.35296 0.28215 0.16188 0.0
C231 C 0.35663 0.12006 0.16155 0.0
H232 H 0.35702 0.23256 0.20961 0.0
C233 C 0.35614 0.14937 0.1343 0.0
C234 C 0.35172 0.20637 0.13427 0.0
H235 H 0.35092 0.07171 0.16125 0.0
H236 H 0.35018 0.12289 0.1135 0.0
C237 C 0.35773 0.23895 0.16145 0.0
C238 C 0.11773 0.35204 0.49383 0.0
C239 C 0.14804 0.35184 0.46676 0.0
H240 H 0.11888 0.34456 0.54187 0.0
C241 C 0.21097 0.35986 0.4674 0.0
H242 H 0.06864 0.34448 0.49374 0.0
C243 C 0.23901 0.35816 0.49487 0.0
C244 C 0.20486 0.35015 0.52178 0.0
H245 H 0.23442 0.35835 0.44665 0.0
H246 H 0.28331 0.35533 0.49478 0.0
C247 C 0.14652 0.35205 0.52129 0.0
C248 C 0.76942 0.12335 0.82741 0.0
C249 C 0.80356 0.15 0.80056 0.0
H250 H 0.77343 0.12815 0.87561 0.0
C251 C 0.861 0.21094 0.80111 0.0
H252 H 0.72583 0.07574 0.82744 0.0
C253 C 0.88908 0.24009 0.82862 0.0
C254 C 0.85896 0.20918 0.85565 0.0
H255 H 0.88861 0.23151 0.78058 0.0
H256 H 0.93769 0.28228 0.82878 0.0
C257 C 0.79671 0.15342 0.8549 0.0
C258 C 0.64462 0.84808 0.134 0.0
C259 C 0.65394 0.79396 0.13299 0.0
H260 H 0.64912 0.9246 0.16165 0.0
C261 C 0.65606 0.76425 0.15992 0.0
H262 H 0.64436 0.87244 0.11335 0.0
C263 C 0.65721 0.79321 0.18749 0.0
C264 C 0.65777 0.85279 0.18821 0.0
H265 H 0.66464 0.72337 0.15955 0.0
H266 H 0.66642 0.77377 0.20786 0.0
C267 C 0.6474 0.878 0.16157 0.0
C268 C 0.76805 0.65377 0.4953 0.0
C269 C 0.79838 0.65268 0.52221 0.0
H270 H 0.77671 0.66281 0.44729 0.0
C271 C 0.85283 0.64391 0.52119 0.0
H272 H 0.7269 0.66194 0.49568 0.0
C273 C 0.88237 0.64612 0.49358 0.0
C274 C 0.85648 0.65542 0.46689 0.0
H275 H 0.87766 0.64444 0.54182 0.0
H276 H 0.92917 0.64826 0.49343 0.0
C277 C 0.79666 0.65436 0.46769 0.0
C278 C 0.21681 0.86829 0.85505 0.0
C279 C 0.15801 0.80861 0.85583 0.0
H280 H 0.28582 0.94578 0.827 0.0
C281 C 0.13387 0.77233 0.82929 0.0
H282 H 0.23544 0.89742 0.87533 0.0
C283 C 0.16379 0.79941 0.8017 0.0
C284 C 0.21682 0.86339 0.80058 0.0
H285 H 0.08787 0.72688 0.82943 0.0
H286 H 0.14 0.77413 0.78109 0.0
C287 C 0.24577 0.89595 0.82747 0.0
C288 C 0.23738 0.01148 0.96457 0.0
C289 C 0.20057 0.9482 0.97663 0.0
H290 H 0.28658 0.11423 0.97349 0.0
C291 C 0.19864 0.93999 0.00796 0.0
H292 H 0.2395 0.019 0.94039 0.0
C293 C 0.22495 0.99461 0.02688 0.0
C294 C 0.25432 0.05803 0.01469 0.0
H295 H 0.17019 0.89194 0.01783 0.0
H296 H 0.21663 0.98714 0.05095 0.0
C297 C 0.26457 0.06609 0.98349 0.0
C298 C 0.24542 0.23548 0.35904 0.0
C299 C 0.21031 0.26316 0.34625 0.0
H300 H 0.29385 0.18071 0.35113 0.0
C301 C 0.21152 0.27099 0.3149 0.0
H302 H 0.24518 0.22893 0.38324 0.0
C303 C 0.23883 0.24271 0.29654 0.0
C304 C 0.26608 0.20719 0.30933 0.0
H305 H 0.18448 0.29159 0.30445 0.0
H306 H 0.23252 0.24273 0.27234 0.0
C307 C 0.2736 0.20807 0.34069 0.0
C308 C 0.01446 0.23491 0.69265 0.0
C309 C 0.95112 0.19983 0.68047 0.0
H310 H 0.1172 0.28321 0.68372 0.0
C311 C 0.9431 0.2004 0.6492 0.0
H312 H 0.02185 0.23522 0.71678 0.0
C313 C 0.99779 0.22731 0.6303 0.0
C314 C 0.06109 0.25485 0.64246 0.0
H315 H 0.89502 0.1734 0.63922 0.0
H316 H 0.99037 0.22074 0.60615 0.0
C317 C 0.06915 0.26272 0.67376 0.0
C318 C 0.7685 0.01037 0.0258 0.0
C319 C 0.74078 0.94784 0.01277 0.0
H320 H 0.82327 0.11359 0.01824 0.0
C321 C 0.73264 0.94176 0.98142 0.0
H322 H 0.77526 0.01626 0.05 0.0
C323 C 0.76075 0.9976 0.96326 0.0
C324 C 0.79643 0.06009 0.97625 0.0
H325 H 0.71198 0.89435 0.97079 0.0
H326 H 0.7606 0.99168 0.93902 0.0
C327 C 0.79576 0.06621 0.00765 0.0
C328 C 0.78038 0.76918 0.29624 0.0
C329 C 0.75254 0.80471 0.30843 0.0
H330 H 0.83462 0.72059 0.30513 0.0
C331 C 0.74427 0.80449 0.33972 0.0
H332 H 0.78724 0.76864 0.2721 0.0
C333 C 0.77206 0.77754 0.3586 0.0
C334 C 0.80753 0.74966 0.3464 0.0
H335 H 0.72352 0.83185 0.3497 0.0
H336 H 0.77153 0.78443 0.38273 0.0
C337 C 0.80729 0.74136 0.31512 0.0
C338 C 0.99877 0.76079 0.69286 0.0
C339 C 0.06147 0.79568 0.67998 0.0
H340 H 0.89562 0.71243 0.68506 0.0
C341 C 0.06793 0.79401 0.64864 0.0
H342 H 0.99257 0.76137 0.71705 0.0
C343 C 0.01231 0.76654 0.63034 0.0
C344 C 0.94965 0.73956 0.64319 0.0
H345 H 0.11548 0.82084 0.63812 0.0
H346 H 0.01853 0.77257 0.60613 0.0
C347 C 0.94315 0.73244 0.67457 0.0
C348 C 0.10276 0.2235 0.96558 0.0
C349 C 0.05722 0.22914 0.98369 0.0
H350 H 0.19293 0.22312 0.96424 0.0
C351 C 0.06304 0.22956 0.0152 0.0
H352 H 0.09915 0.22282 0.94121 0.0
C353 C 0.11605 0.22856 0.02838 0.0
C354 C 0.16442 0.22847 0.01013 0.0
H355 H 0.02807 0.23329 0.02961 0.0
H356 H 0.12121 0.23198 0.05269 0.0
C357 C 0.15641 0.22385 0.97872 0.0
C358 C 0.85006 0.06863 0.34363 0.0
C359 C 0.84288 0.06492 0.31217 0.0
H360 H 0.90664 0.12493 0.38126 0.0
C361 C 0.89198 0.1128 0.29403 0.0
H362 H 0.81297 0.03181 0.35804 0.0
C363 C 0.94492 0.16659 0.30731 0.0
C364 C 0.94994 0.17233 0.33883 0.0
H365 H 0.88749 0.1108 0.26969 0.0
H366 H 0.98048 0.20488 0.29294 0.0
C367 C 0.90365 0.1217 0.35689 0.0
C368 C 0.7865 0.88272 0.63231 0.0
C369 C 0.7809 0.83167 0.65048 0.0
H370 H 0.78687 0.97323 0.63086 0.0
C371 C 0.78058 0.83727 0.68199 0.0
H372 H 0.78712 0.87964 0.60794 0.0
C373 C 0.78161 0.89136 0.6951 0.0
C374 C 0.78162 0.93967 0.67679 0.0
H375 H 0.77687 0.79867 0.69645 0.0
H376 H 0.77823 0.89325 0.71941 0.0
C377 C 0.78618 0.93608 0.64538 0.0
C378 C 0.88342 0.78359 0.02245 0.0
C379 C 0.83259 0.77841 0.00425 0.0
H380 H 0.97373 0.78354 0.02393 0.0
C381 C 0.83838 0.77835 0.97274 0.0
H382 H 0.8802 0.784 0.04681 0.0
C383 C 0.89246 0.77928 0.95965 0.0
C384 C 0.94054 0.77891 0.97798 0.0
H385 H 0.79994 0.77494 0.95826 0.0
H386 H 0.89454 0.77614 0.93534 0.0
C387 C 0.93675 0.78315 0.0094 0.0
C388 C 0.11576 0.88855 0.36073 0.0
C389 C 0.06792 0.83951 0.34257 0.0
H390 H 0.20788 0.977 0.36186 0.0
C391 C 0.07182 0.84669 0.3111 0.0
H392 H 0.11363 0.88404 0.38507 0.0
C393 C 0.12499 0.90027 0.29787 0.0
C394 C 0.17553 0.94654 0.31596 0.0
H395 H 0.03505 0.80964 0.29669 0.0
H396 H 0.12836 0.90331 0.2735 0.0
C397 C 0.16966 0.94146 0.34748 0.0
C398 C 0.22651 0.10303 0.6901 0.0
C399 C 0.23063 0.05678 0.67189 0.0
H400 H 0.22775 0.19398 0.69155 0.0
C401 C 0.23003 0.06224 0.64038 0.0
H402 H 0.22667 0.09972 0.71446 0.0
C403 C 0.22949 0.11555 0.62728 0.0
C404 C 0.23092 0.16457 0.64558 0.0
H405 H 0.23262 0.02674 0.6259 0.0
H406 H 0.23206 0.12037 0.60295 0.0
C407 C 0.22734 0.15698 0.67702 0.0
loop_
_geom_bond_atom_site_label_1
_geom_bond_atom_site_label_2
_geom_bond_distance
_geom_bond_site_symmetry_2
_ccdc_geom_bond_type
Co0 O1 2.216 . S
Co0 O2 2.091 . S
Co0 O4 2.004 . S
Co0 O10 2.021 . S
Co0 O12 2.137 . S
Co0 O13 2.244 . S
O1 Co0 2.216 . S
O1 C8 1.247 . S
O2 Co0 2.091 . S
O2 C8 1.261 . S
C3 O12 1.247 . S
C3 O13 1.272 . S
O4 Co0 2.004 . S
O4 C9 1.259 . S
Co5 O6 2.061 . S
Co5 O11 2.052 . S
Co5 O13 2.135 . S
O6 Co5 2.061 . S
O6 C9 1.235 . S
C7 O10 1.238 . S
C7 O11 1.241 . S
C8 O1 1.247 . S
C8 O2 1.261 . S
C9 O4 1.259 . S
C9 O6 1.235 . S
O10 Co0 2.021 . S
O10 C7 1.238 . S
O11 Co5 2.052 . S
O11 C7 1.241 . S
O12 Co0 2.137 . S
O12 C3 1.247 . S
O13 Co0 2.244 . S
O13 C3 1.272 . S
O13 Co5 2.135 . S
Co14 O15 2.216 . S
Co14 O16 2.091 . S
Co14 O18 2.004 . S
Co14 O24 2.021 . S
Co14 O26 2.137 . S
Co14 O27 2.244 . S
O15 Co14 2.216 . S
O15 C22 1.247 . S
O16 Co14 2.091 . S
O16 C22 1.261 . S
C17 O26 1.247 1_655 S
C17 O27 1.272 1_655 S
O18 Co14 2.004 . S
O18 C23 1.259 . S
Co19 O20 2.061 . S
Co19 O25 2.052 . S
Co19 O27 2.135 . S
O20 Co19 2.061 . S
O20 C23 1.235 . S
C21 O24 1.238 . S
C21 O25 1.241 . S
C22 O15 1.247 . S
C22 O16 1.261 . S
C23 O18 1.259 . S
C23 O20 1.235 . S
O24 Co14 2.021 . S
O24 C21 1.238 . S
O25 Co19 2.052 . S
O25 C21 1.241 . S
O26 Co14 2.137 . S
O26 C17 1.247 1_455 S
O27 Co14 2.244 . S
O27 C17 1.272 1_455 S
O27 Co19 2.135 . S
Co28 O29 2.216 . S
Co28 O30 2.091 . S
Co28 O32 2.004 . S
Co28 O38 2.021 . S
Co28 O40 2.137 . S
Co28 O41 2.244 . S
O29 Co28 2.216 . S
O29 C36 1.247 . S
O30 Co28 2.091 . S
O30 C36 1.261 . S
C31 O40 1.247 1_565 S
C31 O41 1.272 1_565 S
O32 Co28 2.004 . S
O32 C37 1.259 . S
Co33 O34 2.061 . S
Co33 O39 2.052 . S
Co33 O41 2.135 . S
O34 Co33 2.061 . S
O34 C37 1.235 . S
C35 O38 1.238 . S
C35 O39 1.241 . S
C36 O29 1.247 . S
C36 O30 1.261 . S
C37 O32 1.259 . S
C37 O34 1.235 . S
O38 Co28 2.021 . S
O38 C35 1.238 . S
O39 Co33 2.052 . S
O39 C35 1.241 . S
O40 Co28 2.137 . S
O40 C31 1.247 1_545 S
O41 Co28 2.244 . S
O41 C31 1.272 1_545 S
O41 Co33 2.135 . S
Co42 O43 2.216 . S
Co42 O44 2.091 . S
Co42 O46 2.004 . S
Co42 O52 2.021 . S
Co42 O54 2.137 . S
Co42 O55 2.244 . S
O43 Co42 2.216 . S
O43 C50 1.247 . S
O44 Co42 2.091 . S
O44 C50 1.261 . S
C45 O54 1.247 . S
C45 O55 1.272 . S
O46 Co42 2.004 . S
O46 C51 1.259 . S
Co47 O48 2.061 . S
Co47 O53 2.052 . S
Co47 O55 2.135 . S
O48 Co47 2.061 . S
O48 C51 1.235 . S
C49 O52 1.238 . S
C49 O53 1.241 . S
C50 O43 1.247 . S
C50 O44 1.261 . S
C51 O46 1.259 . S
C51 O48 1.235 . S
O52 Co42 2.021 . S
O52 C49 1.238 . S
O53 Co47 2.052 . S
O53 C49 1.241 . S
O54 Co42 2.137 . S
O54 C45 1.247 . S
O55 Co42 2.244 . S
O55 C45 1.272 . S
O55 Co47 2.135 . S
Co56 O57 2.216 . S
Co56 O58 2.091 . S
Co56 O60 2.004 . S
Co56 O66 2.021 . S
Co56 O68 2.137 . S
Co56 O69 2.244 . S
O57 Co56 2.216 . S
O57 C64 1.247 . S
O58 Co56 2.091 . S
O58 C64 1.261 . S
C59 O68 1.247 1_455 S
C59 O69 1.272 1_455 S
O60 Co56 2.004 . S
O60 C65 1.259 . S
Co61 O62 2.061 . S
Co61 O67 2.052 . S
Co61 O69 2.135 . S
O62 Co61 2.061 . S
O62 C65 1.235 . S
C63 O66 1.238 . S
C63 O67 1.241 . S
C64 O57 1.247 . S
C64 O58 1.261 . S
C65 O60 1.259 . S
C65 O62 1.235 . S
O66 Co56 2.021 . S
O66 C63 1.238 . S
O67 Co61 2.052 . S
O67 C63 1.241 . S
O68 Co56 2.137 . S
O68 C59 1.247 1_655 S
O69 Co56 2.244 . S
O69 C59 1.272 1_655 S
O69 Co61 2.135 . S
Co70 O71 2.216 . S
Co70 O72 2.091 . S
Co70 O74 2.004 . S
Co70 O80 2.021 . S
Co70 O82 2.137 . S
Co70 O83 2.244 . S
O71 Co70 2.216 . S
O71 C78 1.247 . S
O72 Co70 2.091 . S
O72 C78 1.261 . S
C73 O82 1.247 1_545 S
C73 O83 1.272 1_545 S
O74 Co70 2.004 . S
O74 C79 1.259 . S
Co75 O76 2.061 . S
Co75 O81 2.052 . S
Co75 O83 2.135 . S
O76 Co75 2.061 . S
O76 C79 1.235 . S
C77 O80 1.238 . S
C77 O81 1.241 . S
C78 O71 1.247 . S
C78 O72 1.261 . S
C79 O74 1.259 . S
C79 O76 1.235 . S
O80 Co70 2.021 . S
O80 C77 1.238 . S
O81 Co75 2.052 . S
O81 C77 1.241 . S
O82 Co70 2.137 . S
O82 C73 1.247 1_565 S
O83 Co70 2.244 . S
O83 C73 1.272 1_565 S
O83 Co75 2.135 . S
Co84 O85 2.216 . S
Co84 O86 2.091 . S
Co84 O88 2.004 . S
Co84 O94 2.021 . S
Co84 O96 2.137 . S
Co84 O97 2.244 . S
O85 Co84 2.216 . S
O85 C92 1.247 . S
O86 Co84 2.091 . S
O86 C92 1.261 . S
C87 O96 1.247 . S
C87 O97 1.272 . S
O88 Co84 2.004 . S
O88 C93 1.259 . S
Co89 O90 2.061 . S
Co89 O95 2.052 . S
Co89 O97 2.135 . S
O90 Co89 2.061 . S
O90 C93 1.235 . S
C91 O94 1.238 . S
C91 O95 1.241 . S
C92 O85 1.247 . S
C92 O86 1.261 . S
C93 O88 1.259 . S
C93 O90 1.235 . S
O94 Co84 2.021 . S
O94 C91 1.238 . S
O95 Co89 2.052 . S
O95 C91 1.241 . S
O96 Co84 2.137 . S
O96 C87 1.247 . S
O97 Co84 2.244 . S
O97 C87 1.272 . S
O97 Co89 2.135 . S
Co98 O99 2.216 . S
Co98 O100 2.091 . S
Co98 O102 2.004 . S
Co98 O108 2.021 . S
Co98 O110 2.137 . S
Co98 O111 2.244 . S
O99 Co98 2.216 . S
O99 C106 1.247 . S
O100 Co98 2.091 . S
O100 C106 1.261 . S
C101 O110 1.247 1_655 S
C101 O111 1.272 1_655 S
O102 Co98 2.004 . S
O102 C107 1.259 . S
Co103 O104 2.061 . S
Co103 O109 2.052 . S
Co103 O111 2.135 . S
O104 Co103 2.061 . S
O104 C107 1.235 . S
C105 O108 1.238 . S
C105 O109 1.241 . S
C106 O99 1.247 . S
C106 O100 1.261 . S
C107 O102 1.259 . S
C107 O104 1.235 . S
O108 Co98 2.021 . S
O108 C105 1.238 . S
O109 Co103 2.052 . S
O109 C105 1.241 . S
O110 Co98 2.137 . S
O110 C101 1.247 1_455 S
O111 Co98 2.244 . S
O111 C101 1.272 1_455 S
O111 Co103 2.135 . S
Co112 O113 2.216 . S
Co112 O114 2.091 . S
Co112 O116 2.004 . S
Co112 O122 2.021 . S
Co112 O124 2.137 . S
Co112 O125 2.244 . S
O113 Co112 2.216 . S
O113 C120 1.247 . S
O114 Co112 2.091 . S
O114 C120 1.261 . S
C115 O124 1.247 1_565 S
C115 O125 1.272 1_565 S
O116 Co112 2.004 . S
O116 C121 1.259 . S
Co117 O118 2.061 . S
Co117 O123 2.052 . S
Co117 O125 2.135 . S
O118 Co117 2.061 . S
O118 C121 1.235 . S
C119 O122 1.238 . S
C119 O123 1.241 . S
C120 O113 1.247 . S
C120 O114 1.261 . S
C121 O116 1.259 . S
C121 O118 1.235 . S
O122 Co112 2.021 . S
O122 C119 1.238 . S
O123 Co117 2.052 . S
O123 C119 1.241 . S
O124 Co112 2.137 . S
O124 C115 1.247 1_545 S
O125 Co112 2.244 . S
O125 C115 1.272 1_545 S
O125 Co117 2.135 . S
Co126 O127 2.216 . S
Co126 O128 2.091 . S
Co126 O130 2.004 . S
Co126 O136 2.021 . S
Co126 O138 2.137 . S
Co126 O139 2.244 . S
O127 Co126 2.216 . S
O127 C134 1.247 . S
O128 Co126 2.091 . S
O128 C134 1.261 . S
C129 O138 1.247 . S
C129 O139 1.272 . S
O130 Co126 2.004 . S
O130 C135 1.259 . S
Co131 O132 2.061 . S
Co131 O137 2.052 . S
Co131 O139 2.135 . S
O132 Co131 2.061 . S
O132 C135 1.235 . S
C133 O136 1.238 . S
C133 O137 1.241 . S
C134 O127 1.247 . S
C134 O128 1.261 . S
C135 O130 1.259 . S
C135 O132 1.235 . S
O136 Co126 2.021 . S
O136 C133 1.238 . S
O137 Co131 2.052 . S
O137 C133 1.241 . S
O138 Co126 2.137 . S
O138 C129 1.247 . S
O139 Co126 2.244 . S
O139 C129 1.272 . S
O139 Co131 2.135 . S
Co140 O141 2.216 . S
Co140 O142 2.091 . S
Co140 O144 2.004 . S
Co140 O150 2.021 . S
Co140 O152 2.137 . S
Co140 O153 2.244 . S
O141 Co140 2.216 . S
O141 C148 1.247 . S
O142 Co140 2.091 . S
O142 C148 1.261 . S
C143 O152 1.247 1_455 S
C143 O153 1.272 1_455 S
O144 Co140 2.004 . S
O144 C149 1.259 . S
Co145 O146 2.061 . S
Co145 O151 2.052 . S
Co145 O153 2.135 . S
O146 Co145 2.061 . S
O146 C149 1.235 . S
C147 O150 1.238 . S
C147 O151 1.241 . S
C148 O141 1.247 . S
C148 O142 1.261 . S
C149 O144 1.259 . S
C149 O146 1.235 . S
O150 Co140 2.021 . S
O150 C147 1.238 . S
O151 Co145 2.052 . S
O151 C147 1.241 . S
O152 Co140 2.137 . S
O152 C143 1.247 1_655 S
O153 Co140 2.244 . S
O153 C143 1.272 1_655 S
O153 Co145 2.135 . S
Co154 O155 2.216 . S
Co154 O156 2.091 . S
Co154 O158 2.004 . S
Co154 O164 2.021 . S
Co154 O166 2.137 . S
Co154 O167 2.244 . S
O155 Co154 2.216 . S
O155 C162 1.247 . S
O156 Co154 2.091 . S
O156 C162 1.261 . S
C157 O166 1.247 1_545 S
C157 O167 1.272 1_545 S
O158 Co154 2.004 . S
O158 C163 1.259 . S
Co159 O160 2.061 . S
Co159 O165 2.052 . S
Co159 O167 2.135 . S
O160 Co159 2.061 . S
O160 C163 1.235 . S
C161 O164 1.238 . S
C161 O165 1.241 . S
C162 O155 1.247 . S
C162 O156 1.261 . S
C163 O158 1.259 . S
C163 O160 1.235 . S
O164 Co154 2.021 . S
O164 C161 1.238 . S
O165 Co159 2.052 . S
O165 C161 1.241 . S
O166 Co154 2.137 . S
O166 C157 1.247 1_565 S
O167 Co154 2.244 . S
O167 C157 1.272 1_565 S
O167 Co159 2.135 . S
C168 C169 1.387 . S
C168 H172 0.950 1_554 S
C168 C177 1.390 . S
C169 C168 1.387 . S
C169 C171 1.387 . S
H170 C177 0.950 1_556 S
C171 C169 1.387 . S
C171 C173 1.390 . S
C171 H175 0.950 . S
H172 C168 0.950 1_556 S
C173 C171 1.390 . S
C173 C174 1.387 . S
C173 H176 0.950 . S
C174 C173 1.387 . S
C174 C177 1.387 . S
H175 C171 0.950 . S
H176 C173 0.950 . S
C177 C168 1.390 . S
C177 H170 0.950 1_554 S
C177 C174 1.387 . S
C178 C179 1.387 . S
C178 H182 0.950 . S
C178 C187 1.390 1_455 S
C179 C178 1.387 . S
C179 C181 1.387 . S
H180 C187 0.950 . S
C181 C179 1.387 . S
C181 C183 1.390 1_455 S
C181 H185 0.950 . S
H182 C178 0.950 . S
C183 C181 1.390 1_655 S
C183 C184 1.387 . S
C183 H186 0.950 . S
C184 C183 1.387 . S
C184 C187 1.387 . S
H185 C181 0.950 . S
H186 C183 0.950 . S
C187 C178 1.390 1_655 S
C187 H180 0.950 . S
C187 C184 1.387 . S
C188 C189 1.387 . S
C188 H192 0.950 . S
C188 C197 1.390 1_565 S
C189 C188 1.387 . S
C189 C191 1.387 . S
H190 C197 0.950 . S
C191 C189 1.387 . S
C191 C193 1.390 1_565 S
C191 H195 0.950 . S
H192 C188 0.950 . S
C193 C191 1.390 1_545 S
C193 C194 1.387 . S
C193 H196 0.950 . S
C194 C193 1.387 . S
C194 C197 1.387 . S
H195 C191 0.950 . S
H196 C193 0.950 . S
C197 C188 1.390 1_545 S
C197 H190 0.950 . S
C197 C194 1.387 . S
C198 C199 1.387 . S
C198 H202 0.950 . S
C198 C207 1.390 . S
C199 C198 1.387 . S
C199 C201 1.387 . S
H200 C207 0.950 . S
C201 C199 1.387 . S
C201 C203 1.390 . S
C201 H205 0.950 . S
H202 C198 0.950 . S
C203 C201 1.390 . S
C203 C204 1.387 . S
C203 H206 0.950 . S
C204 C203 1.387 . S
C204 C207 1.387 . S
H205 C201 0.950 . S
H206 C203 0.950 . S
C207 C198 1.390 . S
C207 H200 0.950 . S
C207 C204 1.387 . S
C208 C209 1.387 . S
C208 H212 0.950 1_556 S
C208 C217 1.390 1_655 S
C209 C208 1.387 . S
C209 C211 1.387 . S
H210 C217 0.950 1_554 S
C211 C209 1.387 . S
C211 C213 1.390 1_655 S
C211 H215 0.950 . S
H212 C208 0.950 1_554 S
C213 C211 1.390 1_455 S
C213 C214 1.387 . S
C213 H216 0.950 . S
C214 C213 1.387 . S
C214 C217 1.387 . S
H215 C211 0.950 . S
H216 C213 0.950 . S
C217 C208 1.390 1_455 S
C217 H210 0.950 1_556 S
C217 C214 1.387 . S
C218 C219 1.387 . S
C218 H222 0.950 . S
C218 C227 1.390 1_545 S
C219 C218 1.387 . S
C219 C221 1.387 . S
H220 C227 0.950 . S
C221 C219 1.387 . S
C221 C223 1.390 1_545 S
C221 H225 0.950 . S
H222 C218 0.950 . S
C223 C221 1.390 1_565 S
C223 C224 1.387 . S
C223 H226 0.950 . S
C224 C223 1.387 . S
C224 C227 1.387 . S
H225 C221 0.950 . S
H226 C223 0.950 . S
C227 C218 1.390 1_565 S
C227 H220 0.950 . S
C227 C224 1.387 . S
C228 C229 1.387 . S
C228 H232 0.950 . S
C228 C237 1.390 . S
C229 C228 1.387 . S
C229 C231 1.387 . S
H230 C237 0.950 . S
C231 C229 1.387 . S
C231 C233 1.390 . S
C231 H235 0.950 . S
H232 C228 0.950 . S
C233 C231 1.390 . S
C233 C234 1.387 . S
C233 H236 0.950 . S
C234 C233 1.387 . S
C234 C237 1.387 . S
H235 C231 0.950 . S
H236 C233 0.950 . S
C237 C228 1.390 . S
C237 H230 0.950 . S
C237 C234 1.387 . S
C238 C239 1.387 . S
C238 H242 0.950 . S
C238 C247 1.390 . S
C239 C238 1.387 . S
C239 C241 1.387 . S
H240 C247 0.950 . S
C241 C239 1.387 . S
C241 C243 1.390 . S
C241 H245 0.950 . S
H242 C238 0.950 . S
C243 C241 1.390 . S
C243 C244 1.387 . S
C243 H246 0.950 . S
C244 C243 1.387 . S
C244 C247 1.387 . S
H245 C241 0.950 . S
H246 C243 0.950 . S
C247 C238 1.390 . S
C247 H240 0.950 . S
C247 C244 1.387 . S
C248 C249 1.387 . S
C248 H252 0.950 . S
C248 C257 1.390 . S
C249 C248 1.387 . S
C249 C251 1.387 . S
H250 C257 0.950 . S
C251 C249 1.387 . S
C251 C253 1.390 . S
C251 H255 0.950 . S
H252 C248 0.950 . S
C253 C251 1.390 . S
C253 C254 1.387 . S
C253 H256 0.950 . S
C254 C253 1.387 . S
C254 C257 1.387 . S
H255 C251 0.950 . S
H256 C253 0.950 . S
C257 C248 1.390 . S
C257 H250 0.950 . S
C257 C254 1.387 . S
C258 C259 1.387 . S
C258 H262 0.950 . S
C258 C267 1.390 . S
C259 C258 1.387 . S
C259 C261 1.387 . S
H260 C267 0.950 . S
C261 C259 1.387 . S
C261 C263 1.390 . S
C261 H265 0.950 . S
H262 C258 0.950 . S
C263 C261 1.390 . S
C263 C264 1.387 . S
C263 H266 0.950 . S
C264 C263 1.387 . S
C264 C267 1.387 . S
H265 C261 0.950 . S
H266 C263 0.950 . S
C267 C258 1.390 . S
C267 H260 0.950 . S
C267 C264 1.387 . S
C268 C269 1.387 . S
C268 H272 0.950 . S
C268 C277 1.390 . S
C269 C268 1.387 . S
C269 C271 1.387 . S
H270 C277 0.950 . S
C271 C269 1.387 . S
C271 C273 1.390 . S
C271 H275 0.950 . S
H272 C268 0.950 . S
C273 C271 1.390 . S
C273 C274 1.387 . S
C273 H276 0.950 . S
C274 C273 1.387 . S
C274 C277 1.387 . S
H275 C271 0.950 . S
H276 C273 0.950 . S
C277 C268 1.390 . S
C277 H270 0.950 . S
C277 C274 1.387 . S
C278 C279 1.387 . S
C278 H282 0.950 . S
C278 C287 1.390 . S
C279 C278 1.387 . S
C279 C281 1.387 . S
H280 C287 0.950 . S
C281 C279 1.387 . S
C281 C283 1.390 . S
C281 H285 0.950 . S
H282 C278 0.950 . S
C283 C281 1.390 . S
C283 C284 1.387 . S
C283 H286 0.950 . S
C284 C283 1.387 . S
C284 C287 1.387 . S
H285 C281 0.950 . S
H286 C283 0.950 . S
C287 C278 1.390 . S
C287 H280 0.950 . S
C287 C284 1.387 . S
C288 C289 1.387 . S
C288 H292 0.950 . S
C288 C297 1.390 1_566 S
C289 C288 1.387 . S
C289 C291 1.387 . S
H290 C297 0.950 . S
C291 C289 1.387 . S
C291 C293 1.390 1_566 S
C291 H295 0.950 . S
H292 C288 0.950 . S
C293 C291 1.390 1_544 S
C293 C294 1.387 . S
C293 H296 0.950 . S
C294 C293 1.387 . S
C294 C297 1.387 . S
H295 C291 0.950 . S
H296 C293 0.950 . S
C297 C288 1.390 1_544 S
C297 H290 0.950 . S
C297 C294 1.387 . S
C298 C299 1.387 . S
C298 H302 0.950 . S
C298 C307 1.390 . S
C299 C298 1.387 . S
C299 C301 1.387 . S
H300 C307 0.950 . S
C301 C299 1.387 . S
C301 C303 1.390 . S
C301 H305 0.950 . S
H302 C298 0.950 . S
C303 C301 1.390 . S
C303 C304 1.387 . S
C303 H306 0.950 . S
C304 C303 1.387 . S
C304 C307 1.387 . S
H305 C301 0.950 . S
H306 C303 0.950 . S
C307 C298 1.390 . S
C307 H300 0.950 . S
C307 C304 1.387 . S
C308 C309 1.387 . S
C308 H312 0.950 . S
C308 C317 1.390 1_655 S
C309 C308 1.387 . S
C309 C311 1.387 . S
H310 C317 0.950 . S
C311 C309 1.387 . S
C311 C313 1.390 1_655 S
C311 H315 0.950 . S
H312 C308 0.950 . S
C313 C311 1.390 1_455 S
C313 C314 1.387 . S
C313 H316 0.950 . S
C314 C313 1.387 . S
C314 C317 1.387 . S
H315 C311 0.950 . S
H316 C313 0.950 . S
C317 C308 1.390 1_455 S
C317 H310 0.950 . S
C317 C314 1.387 . S
C318 C319 1.387 . S
C318 H322 0.950 . S
C318 C327 1.390 1_564 S
C319 C318 1.387 . S
C319 C321 1.387 . S
H320 C327 0.950 . S
C321 C319 1.387 . S
C321 C323 1.390 1_564 S
C321 H325 0.950 . S
H322 C318 0.950 . S
C323 C321 1.390 1_546 S
C323 C324 1.387 . S
C323 H326 0.950 . S
C324 C323 1.387 . S
C324 C327 1.387 . S
H325 C321 0.950 . S
H326 C323 0.950 . S
C327 C318 1.390 1_546 S
C327 H320 0.950 . S
C327 C324 1.387 . S
C328 C329 1.387 . S
C328 H332 0.950 . S
C328 C337 1.390 . S
C329 C328 1.387 . S
C329 C331 1.387 . S
H330 C337 0.950 . S
C331 C329 1.387 . S
C331 C333 1.390 . S
C331 H335 0.950 . S
H332 C328 0.950 . S
C333 C331 1.390 . S
C333 C334 1.387 . S
C333 H336 0.950 . S
C334 C333 1.387 . S
C334 C337 1.387 . S
H335 C331 0.950 . S
H336 C333 0.950 . S
C337 C328 1.390 . S
C337 H330 0.950 . S
C337 C334 1.387 . S
C338 C339 1.387 . S
C338 H342 0.950 . S
C338 C347 1.390 1_455 S
C339 C338 1.387 . S
C339 C341 1.387 . S
H340 C347 0.950 . S
C341 C339 1.387 . S
C341 C343 1.390 1_455 S
C341 H345 0.950 . S
H342 C338 0.950 . S
C343 C341 1.390 1_655 S
C343 C344 1.387 . S
C343 H346 0.950 . S
C344 C343 1.387 . S
C344 C347 1.387 . S
H345 C341 0.950 . S
H346 C343 0.950 . S
C347 C338 1.390 1_655 S
C347 H340 0.950 . S
C347 C344 1.387 . S
C348 C349 1.387 . S
C348 H352 0.950 . S
C348 C357 1.390 1_556 S
C349 C348 1.387 . S
C349 C351 1.387 . S
H350 C357 0.950 . S
C351 C349 1.387 . S
C351 C353 1.390 1_556 S
C351 H355 0.950 . S
H352 C348 0.950 . S
C353 C351 1.390 1_554 S
C353 C354 1.387 . S
C353 H356 0.950 . S
C354 C353 1.387 . S
C354 C357 1.387 . S
H355 C351 0.950 . S
H356 C353 0.950 . S
C357 C348 1.390 1_554 S
C357 H350 0.950 . S
C357 C354 1.387 . S
C358 C359 1.387 . S
C358 H362 0.950 . S
C358 C367 1.390 . S
C359 C358 1.387 . S
C359 C361 1.387 . S
H360 C367 0.950 . S
C361 C359 1.387 . S
C361 C363 1.390 . S
C361 H365 0.950 . S
H362 C358 0.950 . S
C363 C361 1.390 . S
C363 C364 1.387 . S
C363 H366 0.950 . S
C364 C363 1.387 . S
C364 C367 1.387 . S
H365 C361 0.950 . S
H366 C363 0.950 . S
C367 C358 1.390 . S
C367 H360 0.950 . S
C367 C364 1.387 . S
C368 C369 1.387 . S
C368 H372 0.950 . S
C368 C377 1.390 . S
C369 C368 1.387 . S
C369 C371 1.387 . S
H370 C377 0.950 . S
C371 C369 1.387 . S
C371 C373 1.390 . S
C371 H375 0.950 . S
H372 C368 0.950 . S
C373 C371 1.390 . S
C373 C374 1.387 . S
C373 H376 0.950 . S
C374 C373 1.387 . S
C374 C377 1.387 . S
H375 C371 0.950 . S
H376 C373 0.950 . S
C377 C368 1.390 . S
C377 H370 0.950 . S
C377 C374 1.387 . S
C378 C379 1.387 . S
C378 H382 0.950 . S
C378 C387 1.390 1_554 S
C379 C378 1.387 . S
C379 C381 1.387 . S
H380 C387 0.950 . S
C381 C379 1.387 . S
C381 C383 1.390 1_554 S
C381 H385 0.950 . S
H382 C378 0.950 . S
C383 C381 1.390 1_556 S
C383 C384 1.387 . S
C383 H386 0.950 . S
C384 C383 1.387 . S
C384 C387 1.387 . S
H385 C381 0.950 . S
H386 C383 0.950 . S
C387 C378 1.390 1_556 S
C387 H380 0.950 . S
C387 C384 1.387 . S
C388 C389 1.387 . S
C388 H392 0.950 . S
C388 C397 1.390 . S
C389 C388 1.387 . S
C389 C391 1.387 . S
H390 C397 0.950 . S
C391 C389 1.387 . S
C391 C393 1.390 . S
C391 H395 0.950 . S
H392 C388 0.950 . S
C393 C391 1.390 . S
C393 C394 1.387 . S
C393 H396 0.950 . S
C394 C393 1.387 . S
C394 C397 1.387 . S
H395 C391 0.950 . S
H396 C393 0.950 . S
C397 C388 1.390 . S
C397 H390 0.950 . S
C397 C394 1.387 . S
C398 C399 1.387 . S
C398 H402 0.950 . S
C398 C407 1.390 . S
C399 C398 1.387 . S
C399 C401 1.387 . S
H400 C407 0.950 . S
C401 C399 1.387 . S
C401 C403 1.390 . S
C401 H405 0.950 . S
H402 C398 0.950 . S
C403 C401 1.390 . S
C403 C404 1.387 . S
C403 H406 0.950 . S
C404 C403 1.387 . S
C404 C407 1.387 . S
H405 C401 0.950 . S
H406 C403 0.950 . S
C407 C398 1.390 . S
C407 H400 0.950 . S
C407 C404 1.387 . S
C169 C50 1.458 . S
C174 C8 1.458 . S
C179 C22 1.458 . S
C184 C64 1.458 . S
C189 C78 1.458 . S
C194 C36 1.458 . S
C199 C92 1.456 . S
C204 C134 1.456 . S
C209 C148 1.458 . S
C214 C106 1.458 . S
C219 C120 1.458 . S
C224 C162 1.458 . S
C229 C119 1.554 . S
C234 C7 1.557 . S
C239 C21 1.556 . S
C244 C133 1.556 . S
C249 C35 1.557 . S
C254 C147 1.555 . S
C259 C49 1.556 . S
C264 C161 1.556 . S
C269 C91 1.556 . S
C274 C63 1.556 . S
C279 C105 1.555 . S
C284 C77 1.557 . S
C289 C107 1.279 . S
C294 C9 1.279 . S
C299 C23 1.279 . S
C304 C121 1.276 . S
C309 C37 1.280 . S
C314 C135 1.277 . S
C319 C51 1.277 . S
C324 C149 1.277 . S
C329 C163 1.280 . S
C334 C65 1.276 . S
C339 C79 1.280 . S
C344 C93 1.276 . S
C349 C143 1.495 . S
C354 C3 1.495 . S
C359 C157 1.495 . S
C364 C17 1.495 . S
C369 C87 1.495 . S
C374 C31 1.495 . S
C379 C45 1.495 . S
C384 C101 1.495 . S
C389 C59 1.495 . S
C394 C115 1.495 . S
C399 C73 1.495 . S
C404 C129 1.495 . S
