# Generated by pormake.
# Topology sow, (4)-cn, num edge types: 1
# Building blocks:
#     Node 0, Type 0, BuildingBlock: ICAMEG_clean_sbu_1, # of connection points: 4
#     Node 1, Type 0, BuildingBlock: ICAMEG_clean_sbu_1, # of connection points: 4
#     Node 2, Type 0, BuildingBlock: ICAMEG_clean_sbu_1, # of connection points: 4
#     Node 3, Type 0, BuildingBlock: ICAMEG_clean_sbu_1, # of connection points: 4
#     Node 4, Type 0, BuildingBlock: ICAMEG_clean_sbu_1, # of connection points: 4
#     Node 5, Type 0, BuildingBlock: ICAMEG_clean_sbu_1, # of connection points: 4
#     Node 6, Type 0, BuildingBlock: ICAMEG_clean_sbu_1, # of connection points: 4
#     Node 7, Type 0, BuildingBlock: ICAMEG_clean_sbu_1, # of connection points: 4
#     Edge 8, Type (0, 0), BuildingBlock: UVAHIK_clean_linker_0, # of connection points: 2
#     Edge 9, Type (0, 0), BuildingBlock: UVAHIK_clean_linker_0, # of connection points: 2
#     Edge 10, Type (0, 0), BuildingBlock: UVAHIK_clean_linker_0, # of connection points: 2
#     Edge 11, Type (0, 0), BuildingBlock: UVAHIK_clean_linker_0, # of connection points: 2
#     Edge 12, Type (0, 0), BuildingBlock: UVAHIK_clean_linker_0, # of connection points: 2
#     Edge 13, Type (0, 0), BuildingBlock: UVAHIK_clean_linker_0, # of connection points: 2
#     Edge 14, Type (0, 0), BuildingBlock: UVAHIK_clean_linker_0, # of connection points: 2
#     Edge 15, Type (0, 0), BuildingBlock: UVAHIK_clean_linker_0, # of connection points: 2
#     Edge 16, Type (0, 0), BuildingBlock: UVAHIK_clean_linker_0, # of connection points: 2
#     Edge 17, Type (0, 0), BuildingBlock: UVAHIK_clean_linker_0, # of connection points: 2
#     Edge 18, Type (0, 0), BuildingBlock: UVAHIK_clean_linker_0, # of connection points: 2
#     Edge 19, Type (0, 0), BuildingBlock: UVAHIK_clean_linker_0, # of connection points: 2
#     Edge 20, Type (0, 0), BuildingBlock: UVAHIK_clean_linker_0, # of connection points: 2
#     Edge 21, Type (0, 0), BuildingBlock: UVAHIK_clean_linker_0, # of connection points: 2
#     Edge 22, Type (0, 0), BuildingBlock: UVAHIK_clean_linker_0, # of connection points: 2
#     Edge 23, Type (0, 0), BuildingBlock: UVAHIK_clean_linker_0, # of connection points: 2
# Relax obj value: 0.056
# Max RMSD: 0.146
# Mean RMSD: 0.146
data_MOF--net-sow--node1-ICAMEG_clean_sbu_1--edge1-UVAHIK_clean_linker_0
_symmetry_space_group_name_H-M    P1
_symmetry_Int_Tables_number       1
_symmetry_cell_setting            triclinic
loop_
_symmetry_equiv_pos_as_xyz
'x, y, z'
_cell_length_a     54.470993
_cell_length_b     24.418034
_cell_length_c     33.786448
_cell_angle_alpha  89.993828
_cell_angle_beta   90.015553
_cell_angle_gamma 90.000679
loop_
_atom_site_label
_atom_site_type_symbol
_atom_site_fract_x
_atom_site_fract_y
_atom_site_fract_z
_atom_type_partial_charge
Co0 Co 0.12623 0.27176 0.04866 0.0
Co1 Co 0.1445 0.16865 0.11236 0.0
O2 O 0.15128 0.22758 0.07503 0.0
C3 C 0.15379 0.21888 0.98476 0.0
O4 O 0.15218 0.17379 0.0057 0.0
C5 C 0.17608 0.24411 0.15794 0.0
O6 O 0.16219 0.28458 0.14556 0.0
O7 O 0.12079 0.21527 0.14181 0.0
O8 O 0.10763 0.27981 0.09922 0.0
H9 H 0.09072 0.04627 0.19469 0.0
H10 H 0.17878 0.30155 0.04055 0.0
O11 O 0.14428 0.26323 0.99738 0.0
H12 H 0.1393 0.4615 0.10291 0.0
H13 H 0.09728 0.4164 0.95334 0.0
H14 H 0.07185 0.27791 0.05135 0.0
H15 H 0.11491 0.38008 0.08496 0.0
H16 H 0.12819 0.36022 0.98803 0.0
O17 O 0.17168 0.19521 0.14699 0.0
H18 H 0.0994 0.1197 0.14656 0.0
H19 H 0.17604 0.09304 0.15948 0.0
H20 H 0.04035 0.33348 0.01761 0.0
H21 H 0.20384 0.38228 0.05773 0.0
H22 H 0.05301 0.40332 0.9682 0.0
H23 H 0.1841 0.46295 0.08923 0.0
O24 O 0.1062 0.20612 0.03551 0.0
H25 H 0.2244 0.1277 0.04424 0.0
H26 H 0.1429 0.05502 0.08001 0.0
H27 H 0.17151 0.99739 0.04171 0.0
H28 H 0.2126 0.0337 0.0236 0.0
H29 H 0.19515 0.1841 0.08225 0.0
H30 H 0.16819 0.01957 0.20798 0.0
H31 H 0.12527 0.99564 0.22576 0.0
O32 O 0.11712 0.14087 0.0789 0.0
C33 C 0.10711 0.25587 0.13281 0.0
C34 C 0.1095 0.05618 0.18708 0.0
C35 C 0.15298 0.04125 0.19457 0.0
N36 N 0.13819 0.1103 0.14996 0.0
C37 C 0.11453 0.09761 0.15975 0.0
C38 C 0.15731 0.08295 0.16715 0.0
C39 C 0.12889 0.02783 0.20453 0.0
C40 C 0.17003 0.3367 0.05394 0.0
N41 N 0.1454 0.33626 0.06153 0.0
C42 C 0.18433 0.3822 0.06374 0.0
C43 C 0.17324 0.42742 0.08146 0.0
C44 C 0.14811 0.42662 0.08916 0.0
C45 C 0.1344 0.38037 0.079 0.0
C46 C 0.09154 0.38619 0.97488 0.0
C47 C 0.07751 0.30849 0.0301 0.0
C48 C 0.10895 0.35421 0.99456 0.0
N49 N 0.10183 0.31619 0.02193 0.0
C50 C 0.05959 0.33971 0.01099 0.0
C51 C 0.0667 0.37884 0.98324 0.0
C52 C 0.10391 0.1585 0.05051 0.0
C53 C 0.20658 0.11136 0.05207 0.0
C54 C 0.16073 0.07113 0.07219 0.0
C55 C 0.17687 0.03827 0.05056 0.0
C56 C 0.19993 0.05865 0.04044 0.0
N57 N 0.1674 0.12277 0.08352 0.0
C58 C 0.18998 0.14301 0.07373 0.0
Co59 Co 0.36933 0.23409 0.55051 0.0
Co60 Co 0.35374 0.3396 0.61394 0.0
O61 O 0.34543 0.28085 0.57727 0.0
C62 C 0.3417 0.28711 0.48644 0.0
O63 O 0.34536 0.33329 0.50541 0.0
C64 C 0.32068 0.26734 0.65932 0.0
O65 O 0.33209 0.22529 0.64362 0.0
O66 O 0.37693 0.29138 0.64299 0.0
O67 O 0.38881 0.22589 0.60026 0.0
H68 H 0.41091 0.45837 0.69305 0.0
H69 H 0.31626 0.20764 0.545 0.0
O70 O 0.3503 0.24243 0.50018 0.0
H71 H 0.35458 0.0469 0.60821 0.0
H72 H 0.3943 0.0848 0.45605 0.0
H73 H 0.42363 0.2241 0.55058 0.0
H74 H 0.37976 0.12605 0.588 0.0
H75 H 0.36491 0.14416 0.49136 0.0
O76 O 0.32678 0.31602 0.65013 0.0
H77 H 0.40018 0.38503 0.64592 0.0
H78 H 0.3243 0.41873 0.66155 0.0
H79 H 0.45364 0.16534 0.51616 0.0
H80 H 0.29042 0.12918 0.56445 0.0
H81 H 0.43901 0.09508 0.4685 0.0
H82 H 0.30957 0.04813 0.59641 0.0
O83 O 0.39007 0.29796 0.53554 0.0
H84 H 0.27383 0.38583 0.54763 0.0
H85 H 0.35678 0.4526 0.58069 0.0
H86 H 0.32873 0.51179 0.54253 0.0
H87 H 0.28692 0.47845 0.52576 0.0
H88 H 0.30253 0.32785 0.58553 0.0
H89 H 0.3342 0.49218 0.70908 0.0
H90 H 0.37778 0.51252 0.72499 0.0
O91 O 0.38102 0.36433 0.57918 0.0
C92 C 0.39001 0.24996 0.63374 0.0
C93 C 0.39186 0.45003 0.68625 0.0
C94 C 0.3488 0.46896 0.69528 0.0
N95 N 0.36166 0.39795 0.65074 0.0
C96 C 0.38567 0.40867 0.6595 0.0
C97 C 0.34331 0.42727 0.6684 0.0
C98 C 0.37326 0.48036 0.70419 0.0
C99 C 0.32476 0.17229 0.55853 0.0
N100 N 0.3495 0.17131 0.56517 0.0
C101 C 0.31002 0.12809 0.56964 0.0
C102 C 0.32077 0.08266 0.58763 0.0
C103 C 0.34602 0.08196 0.59429 0.0
C104 C 0.36018 0.12695 0.58286 0.0
C105 C 0.40089 0.11518 0.47681 0.0
C106 C 0.41712 0.19336 0.53009 0.0
C107 C 0.38435 0.14896 0.49683 0.0
N108 N 0.39255 0.1872 0.52325 0.0
C109 C 0.4342 0.16033 0.51059 0.0
C110 C 0.42598 0.12096 0.48382 0.0
C111 C 0.39341 0.34548 0.55025 0.0
C112 C 0.29197 0.40088 0.55486 0.0
C113 C 0.33862 0.43781 0.57349 0.0
C114 C 0.3228 0.47153 0.55193 0.0
C115 C 0.29934 0.45281 0.54255 0.0
N116 N 0.33124 0.38695 0.5855 0.0
C117 C 0.30826 0.36833 0.57646 0.0
Co118 Co 0.62673 0.22789 0.94701 0.0
Co119 Co 0.64422 0.3336 0.88521 0.0
O120 O 0.6514 0.27386 0.92155 0.0
C121 C 0.65386 0.27888 0.0123 0.0
O122 O 0.65049 0.32538 0.99361 0.0
C123 C 0.67667 0.26108 0.83902 0.0
O124 O 0.66295 0.21985 0.85055 0.0
O125 O 0.62114 0.28682 0.85459 0.0
O126 O 0.60786 0.22159 0.89653 0.0
H127 H 0.58968 0.45613 0.80427 0.0
H128 H 0.67949 0.19904 0.95366 0.0
O129 O 0.64522 0.23455 -0.00197 0.0
H130 H 0.64039 0.04101 0.88818 0.0
H131 H 0.59915 0.07837 0.03937 0.0
H132 H 0.57237 0.22032 0.94491 0.0
H133 H 0.61572 0.12098 0.90837 0.0
H134 H 0.62954 0.13692 0.00555 0.0
O135 O 0.67186 0.30951 0.85059 0.0
H136 H 0.59882 0.38151 0.85122 0.0
H137 H 0.67525 0.41229 0.83995 0.0
H138 H 0.54137 0.16242 0.97781 0.0
H139 H 0.70483 0.11973 0.93425 0.0
H140 H 0.55472 0.09083 0.02543 0.0
H141 H 0.68528 0.04004 0.90117 0.0
O142 O 0.60637 0.29245 0.96184 0.0
H143 H 0.72306 0.37566 0.95618 0.0
H144 H 0.64133 0.44606 0.91938 0.0
H145 H 0.669 0.50351 0.95959 0.0
H146 H 0.71019 0.46833 0.97826 0.0
H147 H 0.69475 0.31945 0.91621 0.0
H148 H 0.66694 0.487 0.79264 0.0
H149 H 0.62389 0.50946 0.77463 0.0
O150 O 0.61641 0.35878 0.91872 0.0
C151 C 0.60744 0.24604 0.86313 0.0
C152 C 0.60851 0.44687 0.81199 0.0
C153 C 0.65188 0.46414 0.80542 0.0
N154 N 0.63753 0.39289 0.84857 0.0
C155 C 0.6138 0.40477 0.83865 0.0
C156 C 0.65647 0.42174 0.83217 0.0
C157 C 0.62771 0.47673 0.79534 0.0
C158 C 0.67082 0.1643 0.9396 0.0
N159 N 0.64614 0.16448 0.93237 0.0
C160 C 0.68527 0.1196 0.92853 0.0
C161 C 0.6743 0.07493 0.90993 0.0
C162 C 0.64912 0.07547 0.90261 0.0
C163 C 0.63525 0.1209 0.91404 0.0
C164 C 0.59311 0.10934 0.01862 0.0
C165 C 0.57832 0.18901 0.96539 0.0
C166 C 0.61022 0.14267 -0.00055 0.0
N167 N 0.60273 0.18165 0.97305 0.0
C168 C 0.56069 0.15646 0.98402 0.0
C169 C 0.56818 0.11635 0.01077 0.0
C170 C 0.60351 0.34014 0.94715 0.0
C171 C 0.70519 0.39151 0.94813 0.0
C172 C 0.65922 0.43047 0.92739 0.0
C173 C 0.67482 0.46321 0.95012 0.0
C174 C 0.69794 0.44347 0.96056 0.0
N175 N 0.66647 0.37957 0.91529 0.0
C176 C 0.68912 0.35996 0.92537 0.0
Co177 Co 0.87077 0.27198 0.44726 0.0
Co178 Co 0.85343 0.16638 0.38526 0.0
O179 O 0.84616 0.22601 0.42163 0.0
C180 C 0.84359 0.22084 0.51241 0.0
O181 O 0.84696 0.17436 0.49368 0.0
C182 C 0.821 0.23887 0.33892 0.0
O183 O 0.83467 0.28015 0.35052 0.0
O184 O 0.87654 0.21328 0.35479 0.0
O185 O 0.88969 0.27845 0.39689 0.0
H186 H 0.90817 0.04418 0.30447 0.0
H187 H 0.81798 0.3007 0.4537 0.0
O188 O 0.85223 0.26518 0.49818 0.0
H189 H 0.8571 0.45898 0.38858 0.0
H190 H 0.89817 0.42138 0.53987 0.0
H191 H 0.92513 0.27968 0.4454 0.0
H192 H 0.88178 0.37902 0.40879 0.0
H193 H 0.86785 0.36283 0.50588 0.0
O194 O 0.82583 0.19045 0.35051 0.0
H195 H 0.89891 0.11866 0.35145 0.0
H196 H 0.82251 0.0877 0.33975 0.0
H197 H 0.95605 0.33759 0.47846 0.0
H198 H 0.79264 0.37999 0.43427 0.0
H199 H 0.94262 0.40905 0.52609 0.0
H200 H 0.81219 0.45981 0.40137 0.0
O201 O 0.89114 0.20743 0.46212 0.0
H202 H 0.77449 0.12394 0.45577 0.0
H203 H 0.85632 0.05384 0.41932 0.0
H204 H 0.82862 0.99623 0.45933 0.0
H205 H 0.78737 0.03125 0.47781 0.0
H206 H 0.80284 0.18032 0.416 0.0
H207 H 0.83094 0.01313 0.2924 0.0
H208 H 0.87404 0.99083 0.27459 0.0
O209 O 0.8812 0.14118 0.41888 0.0
C210 C 0.89019 0.25408 0.36346 0.0
C211 C 0.88932 0.05337 0.3121 0.0
C212 C 0.84597 0.036 0.30529 0.0
N213 N 0.86021 0.10719 0.34858 0.0
C214 C 0.88396 0.09539 0.33877 0.0
C215 C 0.84131 0.07832 0.33205 0.0
C216 C 0.87016 0.0235 0.29531 0.0
C217 C 0.82666 0.33549 0.43972 0.0
N218 N 0.85135 0.33538 0.4326 0.0
C219 C 0.8122 0.38018 0.42864 0.0
C220 C 0.82318 0.42492 0.41013 0.0
C221 C 0.84837 0.42447 0.40293 0.0
C222 C 0.86224 0.37904 0.41437 0.0
C223 C 0.90425 0.39047 0.51911 0.0
C224 C 0.91914 0.31094 0.46588 0.0
C225 C 0.88717 0.35714 0.49984 0.0
N226 N 0.89472 0.31822 0.47345 0.0
C227 C 0.93673 0.34349 0.48461 0.0
C228 C 0.92918 0.38354 0.51136 0.0
C229 C 0.89404 0.15978 0.44739 0.0
C230 C 0.79239 0.10816 0.4478 0.0
C231 C 0.83841 0.06936 0.42726 0.0
C232 C 0.82279 0.03653 0.44987 0.0
C233 C 0.79964 0.05619 0.46021 0.0
N234 N 0.83115 0.12028 0.41518 0.0
C235 C 0.80848 0.1398 0.42515 0.0
Co236 Co 0.85502 0.82641 0.87529 0.0
Co237 Co 0.8702 0.7237 0.94154 0.0
O238 O 0.84643 0.76972 0.91357 0.0
C239 C 0.82167 0.75263 0.83126 0.0
O240 O 0.83235 0.71077 0.84852 0.0
C241 C 0.84331 0.78226 0.00381 0.0
O242 O 0.84554 0.8262 0.98177 0.0
O243 O 0.89171 0.78737 0.95374 0.0
O244 O 0.88221 0.85275 0.90962 0.0
H245 H 0.95422 0.65318 0.97588 0.0
H246 H 0.80362 0.81699 0.90313 0.0
O247 O 0.82818 0.8014 0.8394 0.0
H248 H 0.83009 0.00281 0.94117 0.0
H249 H 0.83638 0.97411 0.77569 0.0
H250 H 0.90173 0.86921 0.84251 0.0
H251 H 0.85823 0.94109 0.90538 0.0
H252 H 0.82603 0.90349 0.82517 0.0
O253 O 0.8521 0.73661 0.99227 0.0
H254 H 0.92437 0.71098 0.94025 0.0
H255 H 0.86564 0.6382 0.00402 0.0
H256 H 0.9129 0.93973 0.79345 0.0
H257 H 0.77481 0.87752 0.93865 0.0
H258 H 0.88009 0.99274 0.75965 0.0
H259 H 0.78804 0.9711 0.95802 0.0
O260 O 0.87815 0.77628 0.84789 0.0
H261 H 0.79006 0.62233 0.93375 0.0
H262 H 0.87905 0.61264 0.90781 0.0
H263 H 0.85278 0.53358 0.89126 0.0
H264 H 0.80795 0.53813 0.90428 0.0
H265 H 0.81697 0.7006 0.94954 0.0
H266 H 0.89487 0.57991 0.0406 0.0
H267 H 0.93951 0.58706 0.02648 0.0
O268 O 0.88894 0.71106 0.89159 0.0
C269 C 0.8949 0.83453 0.9384 0.0
C270 C 0.93481 0.64953 0.98219 0.0
C271 C 0.9015 0.60846 0.01856 0.0
N272 N 0.89328 0.67756 0.96978 0.0
C273 C 0.91782 0.68202 0.96201 0.0
C274 C 0.88504 0.64162 0.9978 0.0
C275 C 0.92655 0.61249 0.01061 0.0
C276 C 0.8094 0.85787 0.9111 0.0
N277 N 0.83251 0.8756 0.90201 0.0
C278 C 0.79306 0.89187 0.93136 0.0
C279 C 0.80051 0.94434 0.94227 0.0
C280 C 0.8241 0.96214 0.93286 0.0
C281 C 0.83997 0.92698 0.91265 0.0
C282 C 0.85084 0.95138 0.79028 0.0
C283 C 0.88735 0.89238 0.82813 0.0
C284 C 0.8451 0.91129 0.81828 0.0
N285 N 0.86327 0.8826 0.83695 0.0
C286 C 0.89379 0.93214 0.80028 0.0
C287 C 0.87537 0.96182 0.7813 0.0
C288 C 0.89051 0.73403 0.85775 0.0
C289 C 0.80958 0.6198 0.92804 0.0
C290 C 0.85955 0.61496 0.91347 0.0
C291 C 0.84477 0.57003 0.90412 0.0
C292 C 0.81962 0.5726 0.91146 0.0
N293 N 0.84956 0.66107 0.9298 0.0
C294 C 0.82492 0.6639 0.93708 0.0
Co295 Co 0.64434 0.67068 0.3749 0.0
Co296 Co 0.62891 0.77308 0.44122 0.0
O297 O 0.65278 0.72742 0.41323 0.0
C298 C 0.67748 0.74497 0.33095 0.0
O299 O 0.66671 0.78668 0.34822 0.0
C300 C 0.65601 0.71491 0.5035 0.0
O301 O 0.6539 0.67092 0.48148 0.0
O302 O 0.60757 0.70908 0.45336 0.0
O303 O 0.61723 0.64391 0.40918 0.0
H304 H 0.54469 0.84237 0.47554 0.0
H305 H 0.69572 0.68078 0.40277 0.0
O306 O 0.6711 0.69611 0.33906 0.0
H307 H 0.66978 0.49455 0.44072 0.0
H308 H 0.6634 0.52336 0.27525 0.0
H309 H 0.59775 0.62723 0.34207 0.0
H310 H 0.64146 0.55592 0.40495 0.0
H311 H 0.67354 0.59408 0.32476 0.0
O312 O 0.64706 0.76041 0.49194 0.0
H313 H 0.5747 0.78505 0.43989 0.0
H314 H 0.63323 0.85857 0.50374 0.0
H315 H 0.58678 0.55659 0.29298 0.0
H316 H 0.7247 0.62062 0.43827 0.0
H317 H 0.61974 0.5041 0.25919 0.0
H318 H 0.71175 0.52683 0.4576 0.0
O319 O 0.62105 0.72051 0.34751 0.0
H320 H 0.70874 0.87562 0.43346 0.0
H321 H 0.61972 0.88405 0.40754 0.0
H322 H 0.64575 0.96352 0.39104 0.0
H323 H 0.6906 0.9596 0.40405 0.0
H324 H 0.68207 0.79693 0.44921 0.0
H325 H 0.60383 0.9164 0.54034 0.0
H326 H 0.55921 0.90863 0.52618 0.0
O327 O 0.61011 0.78551 0.39128 0.0
C328 C 0.60449 0.66193 0.43797 0.0
C329 C 0.56409 0.84629 0.48187 0.0
C330 C 0.59728 0.88778 0.51827 0.0
N331 N 0.60569 0.81886 0.46947 0.0
C332 C 0.58117 0.81407 0.46168 0.0
C333 C 0.61383 0.85488 0.49751 0.0
C334 C 0.57225 0.88341 0.51031 0.0
C335 C 0.69005 0.63981 0.41072 0.0
N336 N 0.66699 0.62177 0.40162 0.0
C337 C 0.7065 0.60602 0.43097 0.0
C338 C 0.6992 0.55344 0.44186 0.0
C339 C 0.67565 0.53531 0.43242 0.0
C340 C 0.65968 0.57027 0.41223 0.0
C341 C 0.64887 0.54587 0.28985 0.0
C342 C 0.61219 0.60429 0.32769 0.0
C343 C 0.6545 0.58601 0.31786 0.0
N344 N 0.63625 0.61442 0.33653 0.0
C345 C 0.60587 0.56447 0.29983 0.0
C346 C 0.62437 0.53507 0.28085 0.0
C347 C 0.60858 0.76256 0.35742 0.0
C348 C 0.68922 0.87787 0.42776 0.0
C349 C 0.63923 0.88201 0.4132 0.0
C350 C 0.65386 0.92716 0.40387 0.0
C351 C 0.67903 0.92496 0.4112 0.0
N352 N 0.64936 0.83602 0.4295 0.0
C353 C 0.67401 0.83354 0.43678 0.0
Co354 Co 0.35346 0.67216 0.11969 0.0
Co355 Co 0.36954 0.77404 0.05334 0.0
O356 O 0.34539 0.72868 0.08097 0.0
C357 C 0.32 0.74682 0.1627 0.0
O358 O 0.33096 0.78841 0.14558 0.0
C359 C 0.34294 0.71554 0.99067 0.0
O360 O 0.34481 0.67171 0.01292 0.0
O361 O 0.39091 0.70987 0.04188 0.0
O362 O 0.38084 0.64507 0.08611 0.0
H363 H 0.4541 0.84275 0.0206 0.0
H364 H 0.30233 0.68223 0.09063 0.0
O365 O 0.32641 0.6979 0.15484 0.0
H366 H 0.32848 0.49567 0.05395 0.0
H367 H 0.33346 0.52556 0.21944 0.0
H368 H 0.39974 0.62883 0.15373 0.0
H369 H 0.35652 0.55719 0.09014 0.0
H370 H 0.32378 0.59595 0.16943 0.0
O371 O 0.35181 0.76109 0.00226 0.0
H372 H 0.42374 0.78576 0.05578 0.0
H373 H 0.36581 0.85916 0.99044 0.0
H374 H 0.41024 0.55852 0.20334 0.0
H375 H 0.27362 0.62192 0.05469 0.0
H376 H 0.37697 0.50634 0.23658 0.0
H377 H 0.28669 0.52797 0.036 0.0
O378 O 0.37654 0.72211 0.14742 0.0
H379 H 0.28973 0.87695 0.05898 0.0
H380 H 0.37854 0.88519 0.08683 0.0
H381 H 0.35244 0.96487 0.10248 0.0
H382 H 0.3077 0.96105 0.08849 0.0
H383 H 0.31648 0.79806 0.04408 0.0
H384 H 0.39556 0.91664 0.95429 0.0
H385 H 0.44005 0.90877 0.96943 0.0
O386 O 0.38793 0.78672 0.10364 0.0
C387 C 0.39382 0.66281 0.05752 0.0
C388 C 0.43476 0.84671 0.01384 0.0
C389 C 0.4019 0.88812 0.97659 0.0
N390 N 0.39303 0.81953 0.02543 0.0
C391 C 0.41748 0.81468 0.03376 0.0
C392 C 0.38515 0.85542 0.9971 0.0
C393 C 0.42686 0.8837 0.98511 0.0
C394 C 0.30805 0.64119 0.08296 0.0
N395 N 0.33101 0.62314 0.09265 0.0
C396 C 0.29176 0.60732 0.06246 0.0
C397 C 0.29911 0.55463 0.05193 0.0
C398 C 0.32257 0.5365 0.06196 0.0
C399 C 0.33838 0.57155 0.08239 0.0
C400 C 0.34813 0.54794 0.2051 0.0
C401 C 0.38516 0.60603 0.16787 0.0
C402 C 0.34276 0.5879 0.17681 0.0
N403 N 0.36119 0.61614 0.15845 0.0
C404 C 0.39122 0.56639 0.19603 0.0
C405 C 0.37254 0.53716 0.21469 0.0
C406 C 0.38914 0.76403 0.13762 0.0
C407 C 0.30921 0.87916 0.0651 0.0
C408 C 0.35908 0.88319 0.08075 0.0
C409 C 0.3444 0.92846 0.08959 0.0
C410 C 0.3193 0.92631 0.08171 0.0
N411 N 0.34905 0.83714 0.06438 0.0
C412 C 0.32446 0.83472 0.05657 0.0
Co413 Co 0.1446 0.82861 0.61945 0.0
Co414 Co 0.12867 0.72685 0.5529 0.0
O415 O 0.15275 0.77244 0.58053 0.0
C416 C 0.1784 0.75431 0.66215 0.0
O417 O 0.16754 0.71261 0.645 0.0
C418 C 0.15495 0.78605 0.49024 0.0
O419 O 0.15301 0.82976 0.51259 0.0
O420 O 0.10707 0.79075 0.54173 0.0
O421 O 0.11703 0.85542 0.58611 0.0
H422 H 0.04424 0.65699 0.52048 0.0
H423 H 0.19567 0.81956 0.59006 0.0
O424 O 0.17182 0.80315 0.65438 0.0
H425 H 0.1688 0.00588 0.55405 0.0
H426 H 0.16434 0.97502 0.71947 0.0
H427 H 0.09826 0.87093 0.65389 0.0
H428 H 0.14107 0.94369 0.59023 0.0
H429 H 0.17413 0.90508 0.66921 0.0
O430 O 0.14623 0.74033 0.50177 0.0
H431 H 0.07451 0.71426 0.55564 0.0
H432 H 0.1325 0.64213 0.48975 0.0
H433 H 0.08764 0.94078 0.70376 0.0
H434 H 0.22408 0.88055 0.55412 0.0
H435 H 0.12082 0.99337 0.73693 0.0
H436 H 0.21065 0.97438 0.53577 0.0
O437 O 0.12177 0.7781 0.64719 0.0
H438 H 0.20881 0.62515 0.55783 0.0
H439 H 0.1201 0.61537 0.58613 0.0
H440 H 0.14648 0.53601 0.60141 0.0
H441 H 0.19117 0.5406 0.58719 0.0
H442 H 0.18178 0.70371 0.5433 0.0
H443 H 0.10283 0.58438 0.45363 0.0
H444 H 0.05836 0.59147 0.46906 0.0
O445 O 0.11046 0.7136 0.60327 0.0
C446 C 0.10404 0.83767 0.55752 0.0
C447 C 0.06358 0.65337 0.5136 0.0
C448 C 0.09646 0.61267 0.47604 0.0
N449 N 0.10525 0.68114 0.52501 0.0
C450 C 0.08081 0.68556 0.5335 0.0
C451 C 0.11316 0.64553 0.49653 0.0
C452 C 0.07151 0.61667 0.48472 0.0
C453 C 0.1898 0.86055 0.58253 0.0
N454 N 0.1668 0.87815 0.59241 0.0
C455 C 0.20593 0.8948 0.56204 0.0
C456 C 0.19836 0.94742 0.55169 0.0
C457 C 0.17488 0.9651 0.56191 0.0
C458 C 0.15923 0.92968 0.58234 0.0
C459 C 0.14972 0.95246 0.70515 0.0
C460 C 0.11279 0.89391 0.668 0.0
C461 C 0.15515 0.91275 0.67672 0.0
N462 N 0.13677 0.88428 0.6584 0.0
C463 C 0.10667 0.93329 0.6963 0.0
C464 C 0.1253 0.96275 0.71493 0.0
C465 C 0.10929 0.73603 0.63734 0.0
C466 C 0.18935 0.6226 0.56405 0.0
C467 C 0.13954 0.61771 0.57995 0.0
C468 C 0.15438 0.57261 0.58859 0.0
C469 C 0.17945 0.5752 0.58058 0.0
N470 N 0.14939 0.664 0.56366 0.0
C471 C 0.17395 0.66686 0.55573 0.0
C472 C 0.2877 0.21026 0.69047 0.0
C473 C 0.30134 0.25898 0.68916 0.0
C474 C 0.26922 0.20337 0.71883 0.0
C475 C 0.23194 0.28299 0.79192 0.0
H476 H 0.22113 0.14012 0.83856 0.0
C477 C 0.16174 0.25593 0.91719 0.0
C478 C 0.16762 0.21876 0.94737 0.0
C479 C 0.17539 0.25696 0.88223 0.0
C480 C 0.22407 0.1805 0.82622 0.0
H481 H 0.30692 0.33806 0.7169 0.0
H482 H 0.27589 0.32518 0.76731 0.0
H483 H 0.25072 0.15008 0.78536 0.0
H484 H 0.1922 0.15342 0.96496 0.0
H485 H 0.217 0.15729 0.90523 0.0
H486 H 0.20688 0.31436 0.83458 0.0
C487 C 0.27844 0.29304 0.74564 0.0
C488 C 0.24079 0.18604 0.79508 0.0
C489 C 0.29646 0.30032 0.71689 0.0
C490 C 0.18721 0.18226 0.94194 0.0
C491 C 0.20129 0.18424 0.90745 0.0
C492 C 0.2157 0.2777 0.82357 0.0
C493 C 0.26439 0.2447 0.74688 0.0
C494 C 0.24523 0.23757 0.77791 0.0
C495 C 0.1957 0.22189 0.87716 0.0
C496 C 0.21172 0.2265 0.84153 0.0
H497 H 0.29104 0.17788 0.66921 0.0
H498 H 0.25861 0.1659 0.71845 0.0
H499 H 0.2343 0.32313 0.77886 0.0
H500 H 0.14649 0.28405 0.92054 0.0
H501 H 0.17003 0.28553 0.85932 0.0
C502 C 0.19868 0.3051 0.20548 0.0
C503 C 0.19586 0.25387 0.18706 0.0
C504 C 0.21594 0.31204 0.23578 0.0
C505 C 0.24825 0.23087 0.31094 0.0
H506 H 0.28982 0.35869 0.32294 0.0
C507 C 0.32419 0.23785 0.42809 0.0
C508 C 0.32671 0.2864 0.45001 0.0
C509 C 0.30922 0.23634 0.39462 0.0
C510 C 0.27815 0.32301 0.32015 0.0
H511 H 0.20988 0.17067 0.18438 0.0
H512 H 0.23994 0.18299 0.23668 0.0
H513 H 0.26196 0.35231 0.26625 0.0
H514 H 0.31581 0.37175 0.45364 0.0
H515 H 0.28938 0.36885 0.39531 0.0
H516 H 0.2641 0.20159 0.36473 0.0
C517 C 0.22851 0.21745 0.22842 0.0
C518 C 0.26223 0.31937 0.28772 0.0
C519 C 0.21133 0.21051 0.1983 0.0
C520 C 0.3143 0.33372 0.4373 0.0
C521 C 0.29925 0.33216 0.40379 0.0
C522 C 0.26406 0.23453 0.34325 0.0
C523 C 0.23063 0.26786 0.24812 0.0
C524 C 0.24728 0.27298 0.28264 0.0
C525 C 0.29633 0.28326 0.38236 0.0
C526 C 0.27934 0.28038 0.3481 0.0
H527 H 0.18708 0.33933 0.19738 0.0
H528 H 0.21714 0.35134 0.25052 0.0
H529 H 0.23655 0.19518 0.30835 0.0
H530 H 0.33365 0.20078 0.43691 0.0
H531 H 0.30771 0.19829 0.37833 0.0
C532 C 0.78585 0.20299 0.2993 0.0
C533 C 0.80093 0.24725 0.31012 0.0
C534 C 0.76828 0.20893 0.26966 0.0
C535 C 0.73294 0.3095 0.2114 0.0
H536 H 0.73115 0.19195 0.13423 0.0
C537 C 0.68096 0.32473 0.06213 0.0
C538 C 0.66866 0.27753 0.04891 0.0
C539 C 0.69588 0.32275 0.09575 0.0
C540 C 0.73115 0.22478 0.15578 0.0
H541 H 0.80863 0.33316 0.29949 0.0
H542 H 0.77793 0.34339 0.24719 0.0
H543 H 0.7591 0.18602 0.19014 0.0
H544 H 0.66182 0.19164 0.06117 0.0
H545 H 0.68757 0.1884 0.12003 0.0
H546 H 0.70498 0.34834 0.17667 0.0
C547 C 0.77971 0.30418 0.2619 0.0
C548 C 0.74718 0.2214 0.18783 0.0
C549 C 0.79735 0.29825 0.29172 0.0
C550 C 0.67118 0.22863 0.07043 0.0
C551 C 0.68603 0.2267 0.10405 0.0
C552 C 0.71681 0.31287 0.17925 0.0
C553 C 0.76535 0.25921 0.25003 0.0
C554 C 0.7482 0.26356 0.21609 0.0
C555 C 0.69878 0.27355 0.11683 0.0
C556 C 0.7157 0.2704 0.15117 0.0
H557 H 0.78791 0.16328 0.31321 0.0
H558 H 0.75714 0.17384 0.26175 0.0
H559 H 0.7332 0.34243 0.23287 0.0
H560 H 0.67947 0.36302 0.04611 0.0
H561 H 0.70566 0.35938 0.10459 0.0
C562 C 0.71189 0.29682 0.79956 0.0
C563 C 0.69676 0.25263 0.8103 0.0
C564 C 0.72948 0.29083 0.76995 0.0
C565 C 0.76469 0.19019 0.7116 0.0
H566 H 0.76652 0.30784 0.6345 0.0
C567 C 0.81649 0.17498 0.56222 0.0
C568 C 0.82882 0.22214 0.54904 0.0
C569 C 0.80161 0.17695 0.59587 0.0
C570 C 0.76651 0.27498 0.65604 0.0
H571 H 0.68896 0.16678 0.79959 0.0
H572 H 0.71968 0.15647 0.74735 0.0
H573 H 0.73863 0.31383 0.69046 0.0
H574 H 0.83578 0.30796 0.5614 0.0
H575 H 0.8101 0.31119 0.6203 0.0
H576 H 0.79257 0.15126 0.67681 0.0
C577 C 0.71794 0.19566 0.76209 0.0
C578 C 0.75051 0.2784 0.68811 0.0
C579 C 0.70029 0.20163 0.79187 0.0
C580 C 0.82639 0.271 0.57062 0.0
C581 C 0.81157 0.27292 0.60427 0.0
C582 C 0.78078 0.18678 0.67943 0.0
C583 C 0.73235 0.24057 0.75029 0.0
C584 C 0.74948 0.2362 0.71634 0.0
C585 C 0.79878 0.22611 0.61701 0.0
C586 C 0.7819 0.22929 0.65138 0.0
H587 H 0.70988 0.33652 0.8135 0.0
H588 H 0.74066 0.32587 0.76209 0.0
H589 H 0.76441 0.15723 0.73306 0.0
H590 H 0.81792 0.13673 0.54614 0.0
H591 H 0.79179 0.14036 0.60468 0.0
C592 C 0.83555 0.74919 0.07241 0.0
C593 C 0.82977 0.78511 0.04142 0.0
C594 C 0.82206 0.75021 0.10751 0.0
C595 C 0.77377 0.82948 0.16233 0.0
H596 H 0.7626 0.68803 0.21101 0.0
C597 C 0.71036 0.80209 0.29921 0.0
C598 C 0.69641 0.75377 0.30045 0.0
C599 C 0.72863 0.80882 0.27044 0.0
C600 C 0.76526 0.72787 0.1976 0.0
H601 H 0.80566 0.85066 0.02261 0.0
H602 H 0.78108 0.85035 0.08276 0.0
H603 H 0.79016 0.69494 0.15537 0.0
H604 H 0.68991 0.67557 0.27187 0.0
H605 H 0.72064 0.68814 0.22103 0.0
H606 H 0.74728 0.86141 0.20299 0.0
C607 C 0.79659 0.82276 0.08095 0.0
C608 C 0.78156 0.73209 0.166 0.0
C609 C 0.81053 0.8227 0.04625 0.0
C610 C 0.70065 0.71292 0.27206 0.0
C611 C 0.71848 0.72001 0.24303 0.0
C612 C 0.757 0.82502 0.19353 0.0
C613 C 0.80198 0.78606 0.11194 0.0
C614 C 0.78588 0.78281 0.14755 0.0
C615 C 0.73297 0.76767 0.24205 0.0
C616 C 0.75222 0.77392 0.21111 0.0
H617 H 0.85057 0.72034 0.06956 0.0
H618 H 0.8273 0.72241 0.13099 0.0
H619 H 0.77696 0.8695 0.14953 0.0
H620 H 0.70747 0.83414 0.32089 0.0
H621 H 0.73955 0.84585 0.27085 0.0
C622 C 0.68888 0.67484 0.54598 0.0
C623 C 0.6696 0.71232 0.54109 0.0
C624 C 0.70286 0.67499 0.58067 0.0
C625 C 0.71785 0.7659 0.66564 0.0
H626 H 0.75205 0.63662 0.70294 0.0
C627 C 0.79852 0.78502 0.7724 0.0
C628 C 0.80273 0.74406 0.80072 0.0
C629 C 0.78074 0.77804 0.74326 0.0
C630 C 0.74235 0.673 0.6934 0.0
H631 H 0.6488 0.77716 0.5691 0.0
H632 H 0.67213 0.77547 0.63049 0.0
H633 H 0.72248 0.62846 0.64934 0.0
H634 H 0.79162 0.66362 0.82097 0.0
H635 H 0.75962 0.6521 0.77076 0.0
H636 H 0.73672 0.81002 0.71073 0.0
C637 C 0.67737 0.74758 0.60708 0.0
C638 C 0.72564 0.6685 0.66211 0.0
C639 C 0.66384 0.74838 0.572 0.0
C640 C 0.78877 0.69576 0.79934 0.0
C641 C 0.77054 0.68914 0.77047 0.0
C642 C 0.7341 0.77016 0.69734 0.0
C643 C 0.69746 0.7118 0.61158 0.0
C644 C 0.71355 0.71514 0.64722 0.0
C645 C 0.76626 0.73036 0.7421 0.0
C646 C 0.74709 0.72412 0.71099 0.0
H647 H 0.69375 0.64678 0.52241 0.0
H648 H 0.71838 0.64744 0.58254 0.0
H649 H 0.70926 0.80302 0.65493 0.0
H650 H 0.80926 0.82237 0.77233 0.0
H651 H 0.77862 0.80998 0.7213 0.0
C652 C 0.33593 0.74821 0.92175 0.0
C653 C 0.32972 0.71269 0.95276 0.0
C654 C 0.32274 0.74723 0.88635 0.0
C655 C 0.27442 0.66879 0.83085 0.0
H656 H 0.26433 0.81015 0.78142 0.0
C657 C 0.21129 0.69689 0.69365 0.0
C658 C 0.19755 0.7455 0.69233 0.0
C659 C 0.22962 0.68996 0.72232 0.0
C660 C 0.26669 0.77034 0.79502 0.0
H661 H 0.30513 0.64788 0.97128 0.0
H662 H 0.28106 0.6483 0.91058 0.0
H663 H 0.29157 0.80289 0.83746 0.0
H664 H 0.19155 0.82411 0.72061 0.0
H665 H 0.22238 0.81124 0.77124 0.0
H666 H 0.24793 0.63732 0.78999 0.0
C667 C 0.29669 0.67552 0.91262 0.0
C668 C 0.28281 0.7659 0.82687 0.0
C669 C 0.31034 0.67553 0.94764 0.0
C670 C 0.20211 0.78651 0.72047 0.0
C671 C 0.22 0.77925 0.7494 0.0
C672 C 0.25783 0.67348 0.7994 0.0
C673 C 0.30252 0.71184 0.8816 0.0
C674 C 0.28671 0.71522 0.84563 0.0
C675 C 0.23423 0.73121 0.75053 0.0
C676 C 0.25342 0.72459 0.78156 0.0
H677 H 0.35106 0.77673 0.92483 0.0
H678 H 0.32831 0.77471 0.86287 0.0
H679 H 0.27729 0.62879 0.84386 0.0
H680 H 0.20816 0.66469 0.67218 0.0
H681 H 0.24034 0.65263 0.72204 0.0
C682 C 0.2872 0.80456 0.19408 0.0
C683 C 0.30087 0.75585 0.19285 0.0
C684 C 0.26883 0.81163 0.22265 0.0
C685 C 0.24043 0.82829 0.2995 0.0
H686 H 0.20643 0.69906 0.33728 0.0
C687 C 0.18754 0.82633 0.44735 0.0
C688 C 0.16816 0.78916 0.45234 0.0
C689 C 0.20124 0.8264 0.4124 0.0
C690 C 0.21526 0.736 0.32676 0.0
H691 H 0.30672 0.67722 0.22121 0.0
H692 H 0.27582 0.69034 0.27168 0.0
H693 H 0.23384 0.69166 0.28148 0.0
H694 H 0.14682 0.72526 0.42422 0.0
H695 H 0.16965 0.72742 0.36237 0.0
H696 H 0.22088 0.87309 0.34378 0.0
C697 C 0.27828 0.72231 0.24983 0.0
C698 C 0.23148 0.73148 0.29506 0.0
C699 C 0.29621 0.71489 0.221 0.0
C700 C 0.16196 0.75377 0.42124 0.0
C701 C 0.1752 0.75483 0.3859 0.0
C702 C 0.22375 0.83308 0.33079 0.0
C703 C 0.26411 0.77043 0.25084 0.0
C704 C 0.24484 0.77716 0.28171 0.0
C705 C 0.19545 0.79016 0.38132 0.0
C706 C 0.21135 0.78671 0.34547 0.0
H707 H 0.2904 0.83671 0.17259 0.0
H708 H 0.25815 0.84902 0.22227 0.0
H709 H 0.2504 0.8644 0.29017 0.0
H710 H 0.19273 0.85388 0.47106 0.0
H711 H 0.21689 0.85359 0.41047 0.0
C712 C 0.07025 0.31213 0.15107 0.0
C713 C 0.08776 0.27213 0.16128 0.0
C714 C 0.04937 0.31993 0.17446 0.0
C715 C 0.01019 0.23907 0.239 0.0
H716 H 0.97797 0.37657 0.26365 0.0
C717 C 0.92662 0.31123 0.34444 0.0
C718 C 0.90945 0.27023 0.3348 0.0
C719 C 0.94742 0.31934 0.32092 0.0
C720 C 0.98681 0.33795 0.25692 0.0
H721 H 0.09805 0.21247 0.20604 0.0
H722 H 0.06178 0.22645 0.24672 0.0
H723 H 0.01821 0.37714 0.23094 0.0
H724 H 0.89969 0.20891 0.29094 0.0
H725 H 0.93583 0.22341 0.25001 0.0
H726 H 0.97912 0.19969 0.26492 0.0
C727 C 0.06399 0.25093 0.22021 0.0
C728 C 0.00974 0.33827 0.23816 0.0
C729 C 0.08485 0.24317 0.19695 0.0
C730 C 0.91263 0.24042 0.29956 0.0
C731 C 0.93341 0.24849 0.27617 0.0
C732 C 0.9873 0.23875 0.25735 0.0
C733 C 0.04562 0.28788 0.20843 0.0
C734 C 0.02168 0.28875 0.22925 0.0
C735 C 0.95144 0.28659 0.28739 0.0
C736 C 0.97534 0.28809 0.26649 0.0
H737 H 0.07196 0.33548 0.12395 0.0
H738 H 0.0355 0.3487 0.16466 0.0
H739 H 0.01875 0.20024 0.23193 0.0
H740 H 0.9247 0.33525 0.37121 0.0
H741 H 0.96102 0.34898 0.33029 0.0
C742 C 0.42677 0.19261 0.65097 0.0
C743 C 0.40954 0.23296 0.6617 0.0
C744 C 0.44781 0.18411 0.6739 0.0
C745 C 0.48792 0.26355 0.73788 0.0
H746 H 0.51928 0.12513 0.76275 0.0
C747 C 0.57083 0.18955 0.84389 0.0
C748 C 0.58823 0.23008 0.83429 0.0
C749 C 0.55008 0.18177 0.82017 0.0
C750 C 0.51069 0.16401 0.75593 0.0
H751 H 0.39994 0.29251 0.70691 0.0
H752 H 0.43648 0.27736 0.74675 0.0
H753 H 0.47899 0.12574 0.73011 0.0
H754 H 0.59847 0.2908 0.79028 0.0
H755 H 0.56242 0.2769 0.74902 0.0
H756 H 0.51926 0.30204 0.76366 0.0
C757 C 0.43392 0.25313 0.7202 0.0
C758 C 0.48774 0.16435 0.73721 0.0
C759 C 0.41291 0.26158 0.69741 0.0
C760 C 0.58534 0.25967 0.79889 0.0
C761 C 0.56462 0.25194 0.77529 0.0
C762 C 0.51083 0.26321 0.75616 0.0
C763 C 0.452 0.21582 0.70791 0.0
C764 C 0.47608 0.21422 0.7283 0.0
C765 C 0.54635 0.21438 0.78647 0.0
C766 C 0.52248 0.21353 0.76542 0.0
H767 H 0.42471 0.16953 0.62379 0.0
H768 H 0.46145 0.15507 0.66373 0.0
H769 H 0.47958 0.30263 0.73081 0.0
H770 H 0.57252 0.1657 0.87079 0.0
H771 H 0.53629 0.15256 0.82951 0.0
C772 C 0.07329 0.67598 0.65383 0.0
C773 C 0.0903 0.71638 0.66534 0.0
C774 C 0.05238 0.66588 0.67672 0.0
C775 C 0.01199 0.64455 0.73942 0.0
H776 H 0.98019 0.78252 0.76415 0.0
C777 C 0.92678 0.6745 0.84182 0.0
C778 C 0.90979 0.71486 0.83013 0.0
C779 C 0.94791 0.66484 0.81936 0.0
C780 C 0.98873 0.74363 0.75718 0.0
H781 H 0.09989 0.77372 0.71203 0.0
H782 H 0.06355 0.75588 0.75173 0.0
H783 H 0.02054 0.78278 0.73358 0.0
H784 H 0.90053 0.77266 0.78354 0.0
H785 H 0.93726 0.75561 0.74462 0.0
H786 H 0.97984 0.60565 0.76331 0.0
C787 C 0.06617 0.73286 0.72465 0.0
C788 C 0.012 0.74377 0.74021 0.0
C789 C 0.08704 0.7429 0.70191 0.0
C790 C 0.91335 0.74185 0.7938 0.0
C791 C 0.93444 0.73226 0.77151 0.0
C792 C 0.98867 0.6444 0.75695 0.0
C793 C 0.04816 0.696 0.71144 0.0
C794 C 0.02389 0.69435 0.73114 0.0
C795 C 0.95239 0.6954 0.78491 0.0
C796 C 0.97679 0.69406 0.76566 0.0
H797 H 0.0753 0.65439 0.62601 0.0
H798 H 0.03878 0.63721 0.66588 0.0
H799 H 0.02079 0.6059 0.73261 0.0
H800 H 0.92455 0.65259 0.86946 0.0
H801 H 0.96147 0.63614 0.83032 0.0
C802 C 0.41158 0.75625 0.20198 0.0
C803 C 0.40831 0.78309 0.16553 0.0
C804 C 0.43257 0.76571 0.2246 0.0
C805 C 0.48673 0.75381 0.24007 0.0
H806 H 0.51941 0.89135 0.26308 0.0
C807 C 0.58548 0.75421 0.29371 0.0
C808 C 0.58921 0.78155 0.32985 0.0
C809 C 0.56435 0.76386 0.27148 0.0
C810 C 0.51043 0.85275 0.25675 0.0
H811 H 0.42345 0.84498 0.12627 0.0
H812 H 0.46017 0.86115 0.16592 0.0
H813 H 0.47844 0.89184 0.23245 0.0
H814 H 0.5747 0.84439 0.36894 0.0
H815 H 0.53774 0.86096 0.32991 0.0
H816 H 0.51841 0.71449 0.26401 0.0
C817 C 0.44649 0.83269 0.17677 0.0
C818 C 0.4871 0.85303 0.23924 0.0
C819 C 0.42547 0.82318 0.15401 0.0
C820 C 0.57234 0.82221 0.34144 0.0
C821 C 0.55118 0.83194 0.31904 0.0
C822 C 0.51001 0.75353 0.25703 0.0
C823 C 0.4507 0.80228 0.21138 0.0
C824 C 0.475 0.80346 0.23099 0.0
C825 C 0.54654 0.80115 0.28476 0.0
C826 C 0.52214 0.80288 0.26549 0.0
H827 H 0.39863 0.72565 0.21212 0.0
H828 H 0.43517 0.74248 0.2516 0.0
H829 H 0.47803 0.71496 0.23347 0.0
H830 H 0.59819 0.72314 0.28354 0.0
H831 H 0.56141 0.74031 0.24472 0.0
C832 C 0.06714 0.14187 0.00744 0.0
C833 C 0.08395 0.1227 0.03584 0.0
C834 C 0.04696 0.11 0.99654 0.0
C835 C 0.02242 0.96896 -0.00157 0.0
H836 H 0.95937 0.04213 0.99116 0.0
C837 C 0.93171 0.8492 0.98185 0.0
C838 C 0.91517 0.86922 0.95333 0.0
C839 C 0.95202 0.88039 0.99327 0.0
C840 C 0.97688 0.02119 0.99276 0.0
H841 H 0.09306 0.05405 0.07408 0.0
H842 H 0.05783 0.99888 0.05517 0.0
H843 H 0.99609 0.09527 0.00621 0.0
H844 H 0.90677 0.93849 0.91525 0.0
H845 H 0.94214 0.9924 0.93505 0.0
H846 H 0.00318 0.89487 0.98493 0.0
C847 C 0.06036 0.03837 0.04116 0.0
C848 C 0.99791 0.05163 0.00126 0.0
C849 C 0.08052 0.0702 0.0521 0.0
C850 C 0.91906 0.92171 0.93734 0.0
C851 C 0.93931 0.95283 0.94881 0.0
C852 C 0.00137 0.9385 0.98993 0.0
C853 C 0.04316 0.05826 0.01372 0.0
C854 C 0.02092 0.02588 0.00409 0.0
C855 C 0.95618 0.93227 0.97652 0.0
C856 C 0.97838 0.96431 0.98691 0.0
H857 H 0.06922 0.18203 0.99424 0.0
H858 H 0.03421 0.12605 0.97484 0.0
H859 H 0.03993 0.94805 -0.0 0.0
H860 H 0.92929 0.80898 0.9948 0.0
H861 H 0.96454 0.86379 0.0151 0.0
C862 C 0.58037 0.57469 0.43652 0.0
C863 C 0.58417 0.62718 0.45259 0.0
C864 C 0.55991 0.54379 0.44736 0.0
C865 C 0.4974 0.5596 0.48612 0.0
H866 H 0.50159 0.40292 0.50367 0.0
C867 C 0.41752 0.43269 0.54982 0.0
C868 C 0.41358 0.37979 0.53457 0.0
C869 C 0.43786 0.46329 0.5381 0.0
C870 C 0.50008 0.44652 0.4983 0.0
H871 H 0.56975 0.6875 0.4937 0.0
H872 H 0.53415 0.63311 0.51289 0.0
H873 H 0.53876 0.45479 0.48903 0.0
H874 H 0.42763 0.31838 0.49399 0.0
H875 H 0.46305 0.37229 0.4732 0.0
H876 H 0.45872 0.55137 0.49541 0.0
C877 C 0.54689 0.61635 0.49145 0.0
C878 C 0.52137 0.47624 0.49006 0.0
C879 C 0.56739 0.6473 0.48068 0.0
C880 C 0.4301 0.35893 0.50637 0.0
C881 C 0.4505 0.38961 0.49469 0.0
C882 C 0.47611 0.52989 0.49433 0.0
C883 C 0.54276 0.56461 0.47448 0.0
C884 C 0.52026 0.53311 0.48397 0.0
C885 C 0.45477 0.44179 0.51086 0.0
C886 C 0.47722 0.47305 0.5006 0.0
H887 H 0.59286 0.55783 0.41477 0.0
H888 H 0.55713 0.50427 0.4335 0.0
H889 H 0.49589 0.60323 0.48083 0.0
H890 H 0.40523 0.45014 0.57163 0.0
H891 H 0.44076 0.50312 0.55141 0.0
C892 C 0.43106 0.64738 0.01524 0.0
C893 C 0.41414 0.62772 0.04328 0.0
C894 C 0.45144 0.61592 0.00462 0.0
C895 C 0.47612 0.47509 0.00613 0.0
H896 H 0.53924 0.54819 0.00064 0.0
C897 C 0.56662 0.35478 0.99039 0.0
C898 C 0.5834 0.37504 0.96235 0.0
C899 C 0.54636 0.38613 0.0018 0.0
C900 C 0.52171 0.52727 0.00174 0.0
H901 H 0.4051 0.55875 0.08127 0.0
H902 H 0.44061 0.50432 0.06279 0.0
H903 H 0.5024 0.60127 0.01516 0.0
H904 H 0.59234 0.44498 0.92524 0.0
H905 H 0.55705 0.49912 0.94495 0.0
H906 H 0.49541 0.40111 0.99261 0.0
C907 C 0.43803 0.54385 0.04884 0.0
C908 C 0.50062 0.55769 0.00994 0.0
C909 C 0.41771 0.57526 0.05954 0.0
C910 C 0.57985 0.42798 0.94694 0.0
C911 C 0.55964 0.45925 0.95837 0.0
C912 C 0.49721 0.44467 0.99791 0.0
C913 C 0.45529 0.56413 0.02168 0.0
C914 C 0.47759 0.53193 0.01217 0.0
C915 C 0.54249 0.4384 0.98549 0.0
C916 C 0.52023 0.47045 0.99557 0.0
H917 H 0.42889 0.68755 0.0021 0.0
H918 H 0.46427 0.63229 0.98317 0.0
H919 H 0.45859 0.4542 0.00722 0.0
H920 H 0.56879 0.31422 0.00291 0.0
H921 H 0.53363 0.3693 0.0232 0.0
C922 C 0.07997 0.92494 0.55985 0.0
C923 C 0.08361 0.87259 0.54346 0.0
C924 C 0.05958 0.95624 0.54925 0.0
C925 C 0.997 0.94229 0.51023 0.0
H926 H 0.00212 0.09895 0.49317 0.0
C927 C 0.91774 0.07198 0.44719 0.0
C928 C 0.91415 0.12488 0.46264 0.0
C929 C 0.93795 0.04072 0.45866 0.0
C930 C 0.00034 0.05536 0.4984 0.0
H931 H 0.06891 0.81281 0.5022 0.0
H932 H 0.03342 0.86789 0.48343 0.0
H933 H 0.03896 0.04594 0.50778 0.0
H934 H 0.9287 0.18564 0.5033 0.0
H935 H 0.96386 0.13059 0.52366 0.0
H936 H 0.95838 0.9517 0.50085 0.0
C937 C 0.04624 0.88425 0.5049 0.0
C938 C 0.02145 0.02499 0.50663 0.0
C939 C 0.06669 0.85291 0.51543 0.0
C940 C 0.93089 0.14511 0.49076 0.0
C941 C 0.95115 0.11377 0.5022 0.0
C942 C 0.97589 0.97267 0.50204 0.0
C943 C 0.04234 0.93597 0.52206 0.0
C944 C 0.02001 0.96812 0.51257 0.0
C945 C 0.95506 0.06154 0.48586 0.0
C946 C 0.97734 0.02952 0.49597 0.0
H947 H 0.09257 0.94147 0.58159 0.0
H948 H 0.05696 0.9957 0.56328 0.0
H949 H 0.99524 0.89868 0.51537 0.0
H950 H 0.90527 0.055 0.42544 0.0
H951 H 0.94057 0.00088 0.44522 0.0
loop_
_geom_bond_atom_site_label_1
_geom_bond_atom_site_label_2
_geom_bond_distance
_geom_bond_site_symmetry_2
_ccdc_geom_bond_type
Co0 O2 2.143 . S
Co0 O8 2.074 . S
Co0 O11 2.093 . S
Co0 O24 2.097 . S
Co0 N41 2.151 . S
Co0 N49 2.214 . S
Co1 O2 2.160 . S
Co1 O7 2.058 . S
Co1 O17 2.057 . S
Co1 O32 2.037 . S
Co1 N36 2.145 . S
Co1 N57 2.257 . S
O2 Co0 2.143 . S
O2 Co1 2.160 . S
C3 O4 1.278 . S
C3 O11 1.224 . S
O4 C3 1.278 . S
C5 O6 1.245 . S
C5 O17 1.232 . S
O6 C5 1.245 . S
O7 Co1 2.058 . S
O7 C33 1.269 . S
O8 Co0 2.074 . S
O8 C33 1.257 . S
H9 C34 0.930 . S
H10 C40 0.930 . S
O11 Co0 2.093 . S
O11 C3 1.224 . S
H12 C44 0.929 . S
H13 C46 0.930 . S
H14 C47 0.930 . S
H15 C45 0.929 . S
H16 C48 0.928 . S
O17 Co1 2.057 . S
O17 C5 1.232 . S
H18 C37 0.929 . S
H19 C38 0.929 . S
H20 C50 0.931 . S
H21 C42 0.929 . S
H22 C51 0.930 . S
H23 C43 0.931 . S
O24 Co0 2.097 . S
O24 C52 1.214 . S
H25 C53 0.929 . S
H26 C54 0.929 . S
H27 C55 0.930 . S
H28 C56 0.929 . S
H29 C58 0.930 . S
H30 C35 0.930 . S
H31 C39 0.930 . S
O32 Co1 2.037 . S
O32 C52 1.234 . S
C33 O7 1.269 . S
C33 O8 1.257 . S
C34 H9 0.930 . S
C34 C37 1.388 . S
C34 C39 1.418 . S
C35 H30 0.930 . S
C35 C38 1.404 . S
C35 C39 1.353 . S
N36 Co1 2.145 . S
N36 C37 1.397 . S
N36 C38 1.334 . S
C37 H18 0.929 . S
C37 C34 1.388 . S
C37 N36 1.397 . S
C38 H19 0.929 . S
C38 C35 1.404 . S
C38 N36 1.334 . S
C39 H31 0.930 . S
C39 C34 1.418 . S
C39 C35 1.353 . S
C40 H10 0.930 . S
C40 N41 1.330 . S
C40 C42 1.446 . S
N41 Co0 2.151 . S
N41 C40 1.330 . S
N41 C45 1.418 . S
C42 H21 0.929 . S
C42 C40 1.446 . S
C42 C43 1.332 . S
C43 H23 0.931 . S
C43 C42 1.332 . S
C43 C44 1.267 . S
C44 H12 0.929 . S
C44 C43 1.267 . S
C44 C45 1.251 . S
C45 H15 0.929 . S
C45 N41 1.418 . S
C45 C44 1.251 . S
C46 H13 0.930 . S
C46 C48 1.406 . S
C46 C51 1.261 . S
C47 H14 0.930 . S
C47 N49 1.325 . S
C47 C50 1.357 . S
C48 H16 0.928 . S
C48 C46 1.406 . S
C48 N49 1.261 1_556 S
N49 Co0 2.214 . S
N49 C47 1.325 . S
N49 C48 1.261 1_554 S
C50 H20 0.931 . S
C50 C47 1.357 . S
C50 C51 1.312 1_554 S
C51 H22 0.930 . S
C51 C46 1.261 . S
C51 C50 1.312 1_556 S
C52 O24 1.214 . S
C52 O32 1.234 . S
C53 H25 0.929 . S
C53 C56 1.391 . S
C53 C58 1.391 . S
C54 H26 0.929 . S
C54 C55 1.390 . S
C54 N57 1.391 . S
C55 H27 0.930 . S
C55 C54 1.390 . S
C55 C56 1.392 . S
C56 H28 0.929 . S
C56 C53 1.391 . S
C56 C55 1.392 . S
N57 Co1 2.257 . S
N57 C54 1.391 . S
N57 C58 1.388 . S
C58 H29 0.930 . S
C58 C53 1.391 . S
C58 N57 1.388 . S
Co59 O61 2.143 . S
Co59 O67 2.074 . S
Co59 O70 2.093 . S
Co59 O83 2.097 . S
Co59 N100 2.151 . S
Co59 N108 2.214 . S
Co60 O61 2.160 . S
Co60 O66 2.058 . S
Co60 O76 2.057 . S
Co60 O91 2.037 . S
Co60 N95 2.145 . S
Co60 N116 2.257 . S
O61 Co59 2.143 . S
O61 Co60 2.160 . S
C62 O63 1.278 . S
C62 O70 1.224 . S
O63 C62 1.278 . S
C64 O65 1.245 . S
C64 O76 1.232 . S
O65 C64 1.245 . S
O66 Co60 2.058 . S
O66 C92 1.269 . S
O67 Co59 2.074 . S
O67 C92 1.257 . S
H68 C93 0.930 . S
H69 C99 0.930 . S
O70 Co59 2.093 . S
O70 C62 1.224 . S
H71 C103 0.929 . S
H72 C105 0.930 . S
H73 C106 0.930 . S
H74 C104 0.929 . S
H75 C107 0.928 . S
O76 Co60 2.057 . S
O76 C64 1.232 . S
H77 C96 0.929 . S
H78 C97 0.929 . S
H79 C109 0.931 . S
H80 C101 0.929 . S
H81 C110 0.930 . S
H82 C102 0.931 1_565 S
O83 Co59 2.097 . S
O83 C111 1.214 . S
H84 C112 0.929 . S
H85 C113 0.929 . S
H86 C114 0.930 . S
H87 C115 0.929 . S
H88 C117 0.930 . S
H89 C94 0.930 . S
H90 C98 0.930 . S
O91 Co60 2.037 . S
O91 C111 1.234 . S
C92 O66 1.269 . S
C92 O67 1.257 . S
C93 H68 0.930 . S
C93 C96 1.388 . S
C93 C98 1.418 . S
C94 H89 0.930 . S
C94 C97 1.404 . S
C94 C98 1.353 . S
N95 Co60 2.145 . S
N95 C96 1.397 . S
N95 C97 1.334 . S
C96 H77 0.929 . S
C96 C93 1.388 . S
C96 N95 1.397 . S
C97 H78 0.929 . S
C97 C94 1.404 . S
C97 N95 1.334 . S
C98 H90 0.930 . S
C98 C93 1.418 . S
C98 C94 1.353 . S
C99 H69 0.930 . S
C99 N100 1.330 . S
C99 C101 1.446 . S
N100 Co59 2.151 . S
N100 C99 1.330 . S
N100 C104 1.418 . S
C101 H80 0.929 . S
C101 C99 1.446 . S
C101 C102 1.332 . S
C102 H82 0.931 1_545 S
C102 C101 1.332 . S
C102 C103 1.267 . S
C103 H71 0.929 . S
C103 C102 1.267 . S
C103 C104 1.251 . S
C104 H74 0.929 . S
C104 N100 1.418 . S
C104 C103 1.251 . S
C105 H72 0.930 . S
C105 C107 1.406 . S
C105 C110 1.261 . S
C106 H73 0.930 . S
C106 N108 1.325 . S
C106 C109 1.357 . S
C107 H75 0.928 . S
C107 C105 1.406 . S
C107 N108 1.261 . S
N108 Co59 2.214 . S
N108 C106 1.325 . S
N108 C107 1.261 . S
C109 H79 0.931 . S
C109 C106 1.357 . S
C109 C110 1.312 . S
C110 H81 0.930 . S
C110 C105 1.261 . S
C110 C109 1.312 . S
C111 O83 1.214 . S
C111 O91 1.234 . S
C112 H84 0.929 . S
C112 C115 1.391 . S
C112 C117 1.391 . S
C113 H85 0.929 . S
C113 C114 1.390 . S
C113 N116 1.391 . S
C114 H86 0.930 . S
C114 C113 1.390 . S
C114 C115 1.392 . S
C115 H87 0.929 . S
C115 C112 1.391 . S
C115 C114 1.392 . S
N116 Co60 2.257 . S
N116 C113 1.391 . S
N116 C117 1.388 . S
C117 H88 0.930 . S
C117 C112 1.391 . S
C117 N116 1.388 . S
Co118 O120 2.143 . S
Co118 O126 2.074 . S
Co118 O129 2.093 . S
Co118 O142 2.097 . S
Co118 N159 2.151 . S
Co118 N167 2.214 . S
Co119 O120 2.160 . S
Co119 O125 2.058 . S
Co119 O135 2.057 . S
Co119 O150 2.037 . S
Co119 N154 2.145 . S
Co119 N175 2.257 . S
O120 Co118 2.143 . S
O120 Co119 2.160 . S
C121 O122 1.278 . S
C121 O129 1.224 . S
O122 C121 1.278 . S
C123 O124 1.245 . S
C123 O135 1.232 . S
O124 C123 1.245 . S
O125 Co119 2.058 . S
O125 C151 1.269 . S
O126 Co118 2.074 . S
O126 C151 1.257 . S
H127 C152 0.930 . S
H128 C158 0.930 . S
O129 Co118 2.093 . S
O129 C121 1.224 . S
H130 C162 0.929 . S
H131 C164 0.930 . S
H132 C165 0.930 . S
H133 C163 0.929 . S
H134 C166 0.928 . S
O135 Co119 2.057 . S
O135 C123 1.232 . S
H136 C155 0.929 . S
H137 C156 0.929 . S
H138 C168 0.931 . S
H139 C160 0.929 . S
H140 C169 0.930 . S
H141 C161 0.931 1_565 S
O142 Co118 2.097 . S
O142 C170 1.214 . S
H143 C171 0.929 . S
H144 C172 0.929 . S
H145 C173 0.930 . S
H146 C174 0.929 . S
H147 C176 0.930 . S
H148 C153 0.930 . S
H149 C157 0.930 . S
O150 Co119 2.037 . S
O150 C170 1.234 . S
C151 O125 1.269 . S
C151 O126 1.257 . S
C152 H127 0.930 . S
C152 C155 1.388 . S
C152 C157 1.418 . S
C153 H148 0.930 . S
C153 C156 1.404 . S
C153 C157 1.353 . S
N154 Co119 2.145 . S
N154 C155 1.397 . S
N154 C156 1.334 . S
C155 H136 0.929 . S
C155 C152 1.388 . S
C155 N154 1.397 . S
C156 H137 0.929 . S
C156 C153 1.404 . S
C156 N154 1.334 . S
C157 H149 0.930 . S
C157 C152 1.418 . S
C157 C153 1.353 . S
C158 H128 0.930 . S
C158 N159 1.330 . S
C158 C160 1.446 . S
N159 Co118 2.151 . S
N159 C158 1.330 . S
N159 C163 1.418 . S
C160 H139 0.929 . S
C160 C158 1.446 . S
C160 C161 1.332 . S
C161 H141 0.931 1_545 S
C161 C160 1.332 . S
C161 C162 1.267 . S
C162 H130 0.929 . S
C162 C161 1.267 . S
C162 C163 1.251 . S
C163 H133 0.929 . S
C163 N159 1.418 . S
C163 C162 1.251 . S
C164 H131 0.930 . S
C164 C166 1.406 . S
C164 C169 1.261 . S
C165 H132 0.930 . S
C165 N167 1.325 . S
C165 C168 1.357 . S
C166 H134 0.928 . S
C166 C164 1.406 . S
C166 N167 1.261 1_554 S
N167 Co118 2.214 . S
N167 C165 1.325 . S
N167 C166 1.261 1_556 S
C168 H138 0.931 . S
C168 C165 1.357 . S
C168 C169 1.312 1_556 S
C169 H140 0.930 . S
C169 C164 1.261 . S
C169 C168 1.312 1_554 S
C170 O142 1.214 . S
C170 O150 1.234 . S
C171 H143 0.929 . S
C171 C174 1.391 . S
C171 C176 1.391 . S
C172 H144 0.929 . S
C172 C173 1.390 . S
C172 N175 1.391 . S
C173 H145 0.930 . S
C173 C172 1.390 . S
C173 C174 1.392 . S
C174 H146 0.929 . S
C174 C171 1.391 . S
C174 C173 1.392 . S
N175 Co119 2.257 . S
N175 C172 1.391 . S
N175 C176 1.388 . S
C176 H147 0.930 . S
C176 C171 1.391 . S
C176 N175 1.388 . S
Co177 O179 2.143 . S
Co177 O185 2.074 . S
Co177 O188 2.093 . S
Co177 O201 2.097 . S
Co177 N218 2.151 . S
Co177 N226 2.214 . S
Co178 O179 2.160 . S
Co178 O184 2.058 . S
Co178 O194 2.057 . S
Co178 O209 2.037 . S
Co178 N213 2.145 . S
Co178 N234 2.257 . S
O179 Co177 2.143 . S
O179 Co178 2.160 . S
C180 O181 1.278 . S
C180 O188 1.224 . S
O181 C180 1.278 . S
C182 O183 1.245 . S
C182 O194 1.232 . S
O183 C182 1.245 . S
O184 Co178 2.058 . S
O184 C210 1.269 . S
O185 Co177 2.074 . S
O185 C210 1.257 . S
H186 C211 0.930 . S
H187 C217 0.930 . S
O188 Co177 2.093 . S
O188 C180 1.224 . S
H189 C221 0.929 . S
H190 C223 0.930 . S
H191 C224 0.930 . S
H192 C222 0.929 . S
H193 C225 0.928 . S
O194 Co178 2.057 . S
O194 C182 1.232 . S
H195 C214 0.929 . S
H196 C215 0.929 . S
H197 C227 0.931 . S
H198 C219 0.929 . S
H199 C228 0.930 . S
H200 C220 0.931 . S
O201 Co177 2.097 . S
O201 C229 1.214 . S
H202 C230 0.929 . S
H203 C231 0.929 . S
H204 C232 0.930 . S
H205 C233 0.929 . S
H206 C235 0.930 . S
H207 C212 0.930 . S
H208 C216 0.930 . S
O209 Co178 2.037 . S
O209 C229 1.234 . S
C210 O184 1.269 . S
C210 O185 1.257 . S
C211 H186 0.930 . S
C211 C214 1.388 . S
C211 C216 1.418 . S
C212 H207 0.930 . S
C212 C215 1.404 . S
C212 C216 1.353 . S
N213 Co178 2.145 . S
N213 C214 1.397 . S
N213 C215 1.334 . S
C214 H195 0.929 . S
C214 C211 1.388 . S
C214 N213 1.397 . S
C215 H196 0.929 . S
C215 C212 1.404 . S
C215 N213 1.334 . S
C216 H208 0.930 . S
C216 C211 1.418 . S
C216 C212 1.353 . S
C217 H187 0.930 . S
C217 N218 1.330 . S
C217 C219 1.446 . S
N218 Co177 2.151 . S
N218 C217 1.330 . S
N218 C222 1.418 . S
C219 H198 0.929 . S
C219 C217 1.446 . S
C219 C220 1.332 . S
C220 H200 0.931 . S
C220 C219 1.332 . S
C220 C221 1.267 . S
C221 H189 0.929 . S
C221 C220 1.267 . S
C221 C222 1.251 . S
C222 H192 0.929 . S
C222 N218 1.418 . S
C222 C221 1.251 . S
C223 H190 0.930 . S
C223 C225 1.406 . S
C223 C228 1.261 . S
C224 H191 0.930 . S
C224 N226 1.325 . S
C224 C227 1.357 . S
C225 H193 0.928 . S
C225 C223 1.406 . S
C225 N226 1.261 . S
N226 Co177 2.214 . S
N226 C224 1.325 . S
N226 C225 1.261 . S
C227 H197 0.931 . S
C227 C224 1.357 . S
C227 C228 1.312 . S
C228 H199 0.930 . S
C228 C223 1.261 . S
C228 C227 1.312 . S
C229 O201 1.214 . S
C229 O209 1.234 . S
C230 H202 0.929 . S
C230 C233 1.391 . S
C230 C235 1.391 . S
C231 H203 0.929 . S
C231 C232 1.390 . S
C231 N234 1.391 . S
C232 H204 0.930 . S
C232 C231 1.390 . S
C232 C233 1.392 . S
C233 H205 0.929 . S
C233 C230 1.391 . S
C233 C232 1.392 . S
N234 Co178 2.257 . S
N234 C231 1.391 . S
N234 C235 1.388 . S
C235 H206 0.930 . S
C235 C230 1.391 . S
C235 N234 1.388 . S
Co236 O238 2.143 . S
Co236 O244 2.074 . S
Co236 O247 2.093 . S
Co236 O260 2.097 . S
Co236 N277 2.151 . S
Co236 N285 2.214 . S
Co237 O238 2.160 . S
Co237 O243 2.058 . S
Co237 O253 2.057 . S
Co237 O268 2.037 . S
Co237 N272 2.145 . S
Co237 N293 2.257 . S
O238 Co236 2.143 . S
O238 Co237 2.160 . S
C239 O240 1.278 . S
C239 O247 1.224 . S
O240 C239 1.278 . S
C241 O242 1.245 . S
C241 O253 1.232 . S
O242 C241 1.245 . S
O243 Co237 2.058 . S
O243 C269 1.269 . S
O244 Co236 2.074 . S
O244 C269 1.257 . S
H245 C270 0.930 . S
H246 C276 0.930 . S
O247 Co236 2.093 . S
O247 C239 1.224 . S
H248 C280 0.929 1_545 S
H249 C282 0.930 . S
H250 C283 0.930 . S
H251 C281 0.929 . S
H252 C284 0.928 . S
O253 Co237 2.057 . S
O253 C241 1.232 . S
H254 C273 0.929 . S
H255 C274 0.929 . S
H256 C286 0.931 . S
H257 C278 0.929 . S
H258 C287 0.930 . S
H259 C279 0.931 1_545 S
O260 Co236 2.097 . S
O260 C288 1.214 . S
H261 C289 0.929 . S
H262 C290 0.929 . S
H263 C291 0.930 . S
H264 C292 0.929 . S
H265 C294 0.930 . S
H266 C271 0.930 . S
H267 C275 0.930 . S
O268 Co237 2.037 . S
O268 C288 1.234 . S
C269 O243 1.269 . S
C269 O244 1.257 . S
C270 H245 0.930 . S
C270 C273 1.388 . S
C270 C275 1.418 1_556 S
C271 H266 0.930 . S
C271 C274 1.404 . S
C271 C275 1.353 . S
N272 Co237 2.145 . S
N272 C273 1.397 . S
N272 C274 1.334 1_556 S
C273 H254 0.929 . S
C273 C270 1.388 . S
C273 N272 1.397 . S
C274 H255 0.929 . S
C274 C271 1.404 . S
C274 N272 1.334 1_554 S
C275 H267 0.930 . S
C275 C270 1.418 1_554 S
C275 C271 1.353 . S
C276 H246 0.930 . S
C276 N277 1.330 . S
C276 C278 1.446 . S
N277 Co236 2.151 . S
N277 C276 1.330 . S
N277 C281 1.418 . S
C278 H257 0.929 . S
C278 C276 1.446 . S
C278 C279 1.332 . S
C279 H259 0.931 1_565 S
C279 C278 1.332 . S
C279 C280 1.267 . S
C280 H248 0.929 1_565 S
C280 C279 1.267 . S
C280 C281 1.251 . S
C281 H251 0.929 . S
C281 N277 1.418 . S
C281 C280 1.251 . S
C282 H249 0.930 . S
C282 C284 1.406 . S
C282 C287 1.261 . S
C283 H250 0.930 . S
C283 N285 1.325 . S
C283 C286 1.357 . S
C284 H252 0.928 . S
C284 C282 1.406 . S
C284 N285 1.261 . S
N285 Co236 2.214 . S
N285 C283 1.325 . S
N285 C284 1.261 . S
C286 H256 0.931 . S
C286 C283 1.357 . S
C286 C287 1.312 . S
C287 H258 0.930 . S
C287 C282 1.261 . S
C287 C286 1.312 . S
C288 O260 1.214 . S
C288 O268 1.234 . S
C289 H261 0.929 . S
C289 C292 1.391 . S
C289 C294 1.391 . S
C290 H262 0.929 . S
C290 C291 1.390 . S
C290 N293 1.391 . S
C291 H263 0.930 . S
C291 C290 1.390 . S
C291 C292 1.392 . S
C292 H264 0.929 . S
C292 C289 1.391 . S
C292 C291 1.392 . S
N293 Co237 2.257 . S
N293 C290 1.391 . S
N293 C294 1.388 . S
C294 H265 0.930 . S
C294 C289 1.391 . S
C294 N293 1.388 . S
Co295 O297 2.143 . S
Co295 O303 2.074 . S
Co295 O306 2.093 . S
Co295 O319 2.097 . S
Co295 N336 2.151 . S
Co295 N344 2.214 . S
Co296 O297 2.160 . S
Co296 O302 2.058 . S
Co296 O312 2.057 . S
Co296 O327 2.037 . S
Co296 N331 2.145 . S
Co296 N352 2.257 . S
O297 Co295 2.143 . S
O297 Co296 2.160 . S
C298 O299 1.278 . S
C298 O306 1.224 . S
O299 C298 1.278 . S
C300 O301 1.245 . S
C300 O312 1.232 . S
O301 C300 1.245 . S
O302 Co296 2.058 . S
O302 C328 1.269 . S
O303 Co295 2.074 . S
O303 C328 1.257 . S
H304 C329 0.930 . S
H305 C335 0.930 . S
O306 Co295 2.093 . S
O306 C298 1.224 . S
H307 C339 0.929 . S
H308 C341 0.930 . S
H309 C342 0.930 . S
H310 C340 0.929 . S
H311 C343 0.928 . S
O312 Co296 2.057 . S
O312 C300 1.232 . S
H313 C332 0.929 . S
H314 C333 0.929 . S
H315 C345 0.931 . S
H316 C337 0.929 . S
H317 C346 0.930 . S
H318 C338 0.931 . S
O319 Co295 2.097 . S
O319 C347 1.214 . S
H320 C348 0.929 . S
H321 C349 0.929 . S
H322 C350 0.930 . S
H323 C351 0.929 . S
H324 C353 0.930 . S
H325 C330 0.930 . S
H326 C334 0.930 . S
O327 Co296 2.037 . S
O327 C347 1.234 . S
C328 O302 1.269 . S
C328 O303 1.257 . S
C329 H304 0.930 . S
C329 C332 1.388 . S
C329 C334 1.418 . S
C330 H325 0.930 . S
C330 C333 1.404 . S
C330 C334 1.353 . S
N331 Co296 2.145 . S
N331 C332 1.397 . S
N331 C333 1.334 . S
C332 H313 0.929 . S
C332 C329 1.388 . S
C332 N331 1.397 . S
C333 H314 0.929 . S
C333 C330 1.404 . S
C333 N331 1.334 . S
C334 H326 0.930 . S
C334 C329 1.418 . S
C334 C330 1.353 . S
C335 H305 0.930 . S
C335 N336 1.330 . S
C335 C337 1.446 . S
N336 Co295 2.151 . S
N336 C335 1.330 . S
N336 C340 1.418 . S
C337 H316 0.929 . S
C337 C335 1.446 . S
C337 C338 1.332 . S
C338 H318 0.931 . S
C338 C337 1.332 . S
C338 C339 1.267 . S
C339 H307 0.929 . S
C339 C338 1.267 . S
C339 C340 1.251 . S
C340 H310 0.929 . S
C340 N336 1.418 . S
C340 C339 1.251 . S
C341 H308 0.930 . S
C341 C343 1.406 . S
C341 C346 1.261 . S
C342 H309 0.930 . S
C342 N344 1.325 . S
C342 C345 1.357 . S
C343 H311 0.928 . S
C343 C341 1.406 . S
C343 N344 1.261 . S
N344 Co295 2.214 . S
N344 C342 1.325 . S
N344 C343 1.261 . S
C345 H315 0.931 . S
C345 C342 1.357 . S
C345 C346 1.312 . S
C346 H317 0.930 . S
C346 C341 1.261 . S
C346 C345 1.312 . S
C347 O319 1.214 . S
C347 O327 1.234 . S
C348 H320 0.929 . S
C348 C351 1.391 . S
C348 C353 1.391 . S
C349 H321 0.929 . S
C349 C350 1.390 . S
C349 N352 1.391 . S
C350 H322 0.930 . S
C350 C349 1.390 . S
C350 C351 1.392 . S
C351 H323 0.929 . S
C351 C348 1.391 . S
C351 C350 1.392 . S
N352 Co296 2.257 . S
N352 C349 1.391 . S
N352 C353 1.388 . S
C353 H324 0.930 . S
C353 C348 1.391 . S
C353 N352 1.388 . S
Co354 O356 2.143 . S
Co354 O362 2.074 . S
Co354 O365 2.093 . S
Co354 O378 2.097 . S
Co354 N395 2.151 . S
Co354 N403 2.214 . S
Co355 O356 2.160 . S
Co355 O361 2.058 . S
Co355 O371 2.057 . S
Co355 O386 2.037 . S
Co355 N390 2.145 . S
Co355 N411 2.257 . S
O356 Co354 2.143 . S
O356 Co355 2.160 . S
C357 O358 1.278 . S
C357 O365 1.224 . S
O358 C357 1.278 . S
C359 O360 1.245 . S
C359 O371 1.232 . S
O360 C359 1.245 . S
O361 Co355 2.058 . S
O361 C387 1.269 . S
O362 Co354 2.074 . S
O362 C387 1.257 . S
H363 C388 0.930 . S
H364 C394 0.930 . S
O365 Co354 2.093 . S
O365 C357 1.224 . S
H366 C398 0.929 . S
H367 C400 0.930 . S
H368 C401 0.930 . S
H369 C399 0.929 . S
H370 C402 0.928 . S
O371 Co355 2.057 . S
O371 C359 1.232 . S
H372 C391 0.929 . S
H373 C392 0.929 . S
H374 C404 0.931 . S
H375 C396 0.929 . S
H376 C405 0.930 . S
H377 C397 0.931 . S
O378 Co354 2.097 . S
O378 C406 1.214 . S
H379 C407 0.929 . S
H380 C408 0.929 . S
H381 C409 0.930 . S
H382 C410 0.929 . S
H383 C412 0.930 . S
H384 C389 0.930 . S
H385 C393 0.930 . S
O386 Co355 2.037 . S
O386 C406 1.234 . S
C387 O361 1.269 . S
C387 O362 1.257 . S
C388 H363 0.930 . S
C388 C391 1.388 . S
C388 C393 1.418 1_554 S
C389 H384 0.930 . S
C389 C392 1.404 . S
C389 C393 1.353 . S
N390 Co355 2.145 . S
N390 C391 1.397 . S
N390 C392 1.334 1_554 S
C391 H372 0.929 . S
C391 C388 1.388 . S
C391 N390 1.397 . S
C392 H373 0.929 . S
C392 C389 1.404 . S
C392 N390 1.334 1_556 S
C393 H385 0.930 . S
C393 C388 1.418 1_556 S
C393 C389 1.353 . S
C394 H364 0.930 . S
C394 N395 1.330 . S
C394 C396 1.446 . S
N395 Co354 2.151 . S
N395 C394 1.330 . S
N395 C399 1.418 . S
C396 H375 0.929 . S
C396 C394 1.446 . S
C396 C397 1.332 . S
C397 H377 0.931 . S
C397 C396 1.332 . S
C397 C398 1.267 . S
C398 H366 0.929 . S
C398 C397 1.267 . S
C398 C399 1.251 . S
C399 H369 0.929 . S
C399 N395 1.418 . S
C399 C398 1.251 . S
C400 H367 0.930 . S
C400 C402 1.406 . S
C400 C405 1.261 . S
C401 H368 0.930 . S
C401 N403 1.325 . S
C401 C404 1.357 . S
C402 H370 0.928 . S
C402 C400 1.406 . S
C402 N403 1.261 . S
N403 Co354 2.214 . S
N403 C401 1.325 . S
N403 C402 1.261 . S
C404 H374 0.931 . S
C404 C401 1.357 . S
C404 C405 1.312 . S
C405 H376 0.930 . S
C405 C400 1.261 . S
C405 C404 1.312 . S
C406 O378 1.214 . S
C406 O386 1.234 . S
C407 H379 0.929 . S
C407 C410 1.391 . S
C407 C412 1.391 . S
C408 H380 0.929 . S
C408 C409 1.390 . S
C408 N411 1.391 . S
C409 H381 0.930 . S
C409 C408 1.390 . S
C409 C410 1.392 . S
C410 H382 0.929 . S
C410 C407 1.391 . S
C410 C409 1.392 . S
N411 Co355 2.257 . S
N411 C408 1.391 . S
N411 C412 1.388 . S
C412 H383 0.930 . S
C412 C407 1.391 . S
C412 N411 1.388 . S
Co413 O415 2.143 . S
Co413 O421 2.074 . S
Co413 O424 2.093 . S
Co413 O437 2.097 . S
Co413 N454 2.151 . S
Co413 N462 2.214 . S
Co414 O415 2.160 . S
Co414 O420 2.058 . S
Co414 O430 2.057 . S
Co414 O445 2.037 . S
Co414 N449 2.145 . S
Co414 N470 2.257 . S
O415 Co413 2.143 . S
O415 Co414 2.160 . S
C416 O417 1.278 . S
C416 O424 1.224 . S
O417 C416 1.278 . S
C418 O419 1.245 . S
C418 O430 1.232 . S
O419 C418 1.245 . S
O420 Co414 2.058 . S
O420 C446 1.269 . S
O421 Co413 2.074 . S
O421 C446 1.257 . S
H422 C447 0.930 . S
H423 C453 0.930 . S
O424 Co413 2.093 . S
O424 C416 1.224 . S
H425 C457 0.929 1_545 S
H426 C459 0.930 . S
H427 C460 0.930 . S
H428 C458 0.929 . S
H429 C461 0.928 . S
O430 Co414 2.057 . S
O430 C418 1.232 . S
H431 C450 0.929 . S
H432 C451 0.929 . S
H433 C463 0.931 . S
H434 C455 0.929 . S
H435 C464 0.930 . S
H436 C456 0.931 1_545 S
O437 Co413 2.097 . S
O437 C465 1.214 . S
H438 C466 0.929 . S
H439 C467 0.929 . S
H440 C468 0.930 . S
H441 C469 0.929 . S
H442 C471 0.930 . S
H443 C448 0.930 . S
H444 C452 0.930 . S
O445 Co414 2.037 . S
O445 C465 1.234 . S
C446 O420 1.269 . S
C446 O421 1.257 . S
C447 H422 0.930 . S
C447 C450 1.388 . S
C447 C452 1.418 . S
C448 H443 0.930 . S
C448 C451 1.404 . S
C448 C452 1.353 . S
N449 Co414 2.145 . S
N449 C450 1.397 . S
N449 C451 1.334 . S
C450 H431 0.929 . S
C450 C447 1.388 . S
C450 N449 1.397 . S
C451 H432 0.929 . S
C451 C448 1.404 . S
C451 N449 1.334 . S
C452 H444 0.930 . S
C452 C447 1.418 . S
C452 C448 1.353 . S
C453 H423 0.930 . S
C453 N454 1.330 . S
C453 C455 1.446 . S
N454 Co413 2.151 . S
N454 C453 1.330 . S
N454 C458 1.418 . S
C455 H434 0.929 . S
C455 C453 1.446 . S
C455 C456 1.332 . S
C456 H436 0.931 1_565 S
C456 C455 1.332 . S
C456 C457 1.267 . S
C457 H425 0.929 1_565 S
C457 C456 1.267 . S
C457 C458 1.251 . S
C458 H428 0.929 . S
C458 N454 1.418 . S
C458 C457 1.251 . S
C459 H426 0.930 . S
C459 C461 1.406 . S
C459 C464 1.261 . S
C460 H427 0.930 . S
C460 N462 1.325 . S
C460 C463 1.357 . S
C461 H429 0.928 . S
C461 C459 1.406 . S
C461 N462 1.261 . S
N462 Co413 2.214 . S
N462 C460 1.325 . S
N462 C461 1.261 . S
C463 H433 0.931 . S
C463 C460 1.357 . S
C463 C464 1.312 . S
C464 H435 0.930 . S
C464 C459 1.261 . S
C464 C463 1.312 . S
C465 O437 1.214 . S
C465 O445 1.234 . S
C466 H438 0.929 . S
C466 C469 1.391 . S
C466 C471 1.391 . S
C467 H439 0.929 . S
C467 C468 1.390 . S
C467 N470 1.391 . S
C468 H440 0.930 . S
C468 C467 1.390 . S
C468 C469 1.392 . S
C469 H441 0.929 . S
C469 C466 1.391 . S
C469 C468 1.392 . S
N470 Co414 2.257 . S
N470 C467 1.391 . S
N470 C471 1.388 . S
C471 H442 0.930 . S
C471 C466 1.391 . S
C471 N470 1.388 . S
C472 C473 1.349 . S
C472 C474 1.327 . S
C472 H497 0.950 . S
C473 C472 1.349 . S
C473 C489 1.349 . S
C474 C472 1.327 . S
C474 C493 1.429 . S
C474 H498 0.950 . S
C475 C492 1.574 . S
C475 C494 1.368 . S
C475 H499 0.949 . S
H476 C480 0.949 . S
C477 C478 1.349 . S
C477 C479 1.327 . S
C477 H500 0.950 . S
C478 C477 1.349 . S
C478 C490 1.349 . S
C479 C477 1.327 . S
C479 C495 1.429 . S
C479 H501 0.950 . S
C480 H476 0.949 . S
C480 C488 1.574 . S
C480 C496 1.368 . S
H481 C489 0.950 . S
H482 C487 0.950 . S
H483 C488 0.949 . S
H484 C490 0.950 1_554 S
H485 C491 0.950 . S
H486 C492 0.949 . S
C487 H482 0.950 . S
C487 C489 1.327 . S
C487 C493 1.429 . S
C488 C480 1.574 . S
C488 H483 0.949 . S
C488 C494 1.368 . S
C489 C473 1.349 . S
C489 H481 0.950 . S
C489 C487 1.327 . S
C490 C478 1.349 . S
C490 H484 0.950 1_556 S
C490 C491 1.327 . S
C491 H485 0.950 . S
C491 C490 1.327 . S
C491 C495 1.429 . S
C492 C475 1.574 . S
C492 H486 0.949 . S
C492 C496 1.368 . S
C493 C474 1.429 . S
C493 C487 1.429 . S
C493 C494 1.523 . S
C494 C475 1.368 . S
C494 C488 1.368 . S
C494 C493 1.523 . S
C495 C479 1.429 . S
C495 C491 1.429 . S
C495 C496 1.523 . S
C496 C480 1.368 . S
C496 C492 1.368 . S
C496 C495 1.523 . S
H497 C472 0.950 . S
H498 C474 0.950 . S
H499 C475 0.949 . S
H500 C477 0.950 . S
H501 C479 0.950 . S
C502 C503 1.349 . S
C502 C504 1.327 . S
C502 H527 0.950 . S
C503 C502 1.349 . S
C503 C519 1.349 . S
C504 C502 1.327 . S
C504 C523 1.429 . S
C504 H528 0.950 . S
C505 C522 1.574 . S
C505 C524 1.368 . S
C505 H529 0.949 . S
H506 C510 0.949 . S
C507 C508 1.349 . S
C507 C509 1.327 . S
C507 H530 0.950 . S
C508 C507 1.349 . S
C508 C520 1.349 . S
C509 C507 1.327 . S
C509 C525 1.429 . S
C509 H531 0.950 . S
C510 H506 0.949 . S
C510 C518 1.574 . S
C510 C526 1.368 . S
H511 C519 0.950 . S
H512 C517 0.950 . S
H513 C518 0.949 . S
H514 C520 0.950 . S
H515 C521 0.950 . S
H516 C522 0.949 . S
C517 H512 0.950 . S
C517 C519 1.327 . S
C517 C523 1.429 . S
C518 C510 1.574 . S
C518 H513 0.949 . S
C518 C524 1.368 . S
C519 C503 1.349 . S
C519 H511 0.950 . S
C519 C517 1.327 . S
C520 C508 1.349 . S
C520 H514 0.950 . S
C520 C521 1.327 . S
C521 H515 0.950 . S
C521 C520 1.327 . S
C521 C525 1.429 . S
C522 C505 1.574 . S
C522 H516 0.949 . S
C522 C526 1.368 . S
C523 C504 1.429 . S
C523 C517 1.429 . S
C523 C524 1.523 . S
C524 C505 1.368 . S
C524 C518 1.368 . S
C524 C523 1.523 . S
C525 C509 1.429 . S
C525 C521 1.429 . S
C525 C526 1.523 . S
C526 C510 1.368 . S
C526 C522 1.368 . S
C526 C525 1.523 . S
H527 C502 0.950 . S
H528 C504 0.950 . S
H529 C505 0.949 . S
H530 C507 0.950 . S
H531 C509 0.950 . S
C532 C533 1.349 . S
C532 C534 1.327 . S
C532 H557 0.950 . S
C533 C532 1.349 . S
C533 C549 1.349 . S
C534 C532 1.327 . S
C534 C553 1.429 . S
C534 H558 0.950 . S
C535 C552 1.574 . S
C535 C554 1.368 . S
C535 H559 0.949 . S
H536 C540 0.949 . S
C537 C538 1.349 . S
C537 C539 1.327 . S
C537 H560 0.950 1_554 S
C538 C537 1.349 . S
C538 C550 1.349 . S
C539 C537 1.327 . S
C539 C555 1.429 . S
C539 H561 0.950 . S
C540 H536 0.949 . S
C540 C548 1.574 . S
C540 C556 1.368 . S
H541 C549 0.950 . S
H542 C547 0.950 . S
H543 C548 0.949 . S
H544 C550 0.950 . S
H545 C551 0.950 . S
H546 C552 0.949 . S
C547 H542 0.950 . S
C547 C549 1.327 . S
C547 C553 1.429 . S
C548 C540 1.574 . S
C548 H543 0.949 . S
C548 C554 1.368 . S
C549 C533 1.349 . S
C549 H541 0.950 . S
C549 C547 1.327 . S
C550 C538 1.349 . S
C550 H544 0.950 . S
C550 C551 1.327 . S
C551 H545 0.950 . S
C551 C550 1.327 . S
C551 C555 1.429 . S
C552 C535 1.574 . S
C552 H546 0.949 . S
C552 C556 1.368 . S
C553 C534 1.429 . S
C553 C547 1.429 . S
C553 C554 1.523 . S
C554 C535 1.368 . S
C554 C548 1.368 . S
C554 C553 1.523 . S
C555 C539 1.429 . S
C555 C551 1.429 . S
C555 C556 1.523 . S
C556 C540 1.368 . S
C556 C552 1.368 . S
C556 C555 1.523 . S
H557 C532 0.950 . S
H558 C534 0.950 . S
H559 C535 0.949 . S
H560 C537 0.950 1_556 S
H561 C539 0.950 . S
C562 C563 1.349 . S
C562 C564 1.327 . S
C562 H587 0.950 . S
C563 C562 1.349 . S
C563 C579 1.349 . S
C564 C562 1.327 . S
C564 C583 1.429 . S
C564 H588 0.950 . S
C565 C582 1.574 . S
C565 C584 1.368 . S
C565 H589 0.949 . S
H566 C570 0.949 . S
C567 C568 1.349 . S
C567 C569 1.327 . S
C567 H590 0.950 . S
C568 C567 1.349 . S
C568 C580 1.349 . S
C569 C567 1.327 . S
C569 C585 1.429 . S
C569 H591 0.950 . S
C570 H566 0.949 . S
C570 C578 1.574 . S
C570 C586 1.368 . S
H571 C579 0.950 . S
H572 C577 0.950 . S
H573 C578 0.949 . S
H574 C580 0.950 . S
H575 C581 0.950 . S
H576 C582 0.949 . S
C577 H572 0.950 . S
C577 C579 1.327 . S
C577 C583 1.429 . S
C578 C570 1.574 . S
C578 H573 0.949 . S
C578 C584 1.368 . S
C579 C563 1.349 . S
C579 H571 0.950 . S
C579 C577 1.327 . S
C580 C568 1.349 . S
C580 H574 0.950 . S
C580 C581 1.327 . S
C581 H575 0.950 . S
C581 C580 1.327 . S
C581 C585 1.429 . S
C582 C565 1.574 . S
C582 H576 0.949 . S
C582 C586 1.368 . S
C583 C564 1.429 . S
C583 C577 1.429 . S
C583 C584 1.523 . S
C584 C565 1.368 . S
C584 C578 1.368 . S
C584 C583 1.523 . S
C585 C569 1.429 . S
C585 C581 1.429 . S
C585 C586 1.523 . S
C586 C570 1.368 . S
C586 C582 1.368 . S
C586 C585 1.523 . S
H587 C562 0.950 . S
H588 C564 0.950 . S
H589 C565 0.949 . S
H590 C567 0.950 . S
H591 C569 0.950 . S
C592 C593 1.349 . S
C592 C594 1.327 . S
C592 H617 0.950 . S
C593 C592 1.349 . S
C593 C609 1.349 . S
C594 C592 1.327 . S
C594 C613 1.429 . S
C594 H618 0.950 . S
C595 C612 1.574 . S
C595 C614 1.368 . S
C595 H619 0.949 . S
H596 C600 0.949 . S
C597 C598 1.349 . S
C597 C599 1.327 . S
C597 H620 0.950 . S
C598 C597 1.349 . S
C598 C610 1.349 . S
C599 C597 1.327 . S
C599 C615 1.429 . S
C599 H621 0.950 . S
C600 H596 0.949 . S
C600 C608 1.574 . S
C600 C616 1.368 . S
H601 C609 0.950 1_556 S
H602 C607 0.950 . S
H603 C608 0.949 . S
H604 C610 0.950 . S
H605 C611 0.950 . S
H606 C612 0.949 . S
C607 H602 0.950 . S
C607 C609 1.327 . S
C607 C613 1.429 . S
C608 C600 1.574 . S
C608 H603 0.949 . S
C608 C614 1.368 . S
C609 C593 1.349 . S
C609 H601 0.950 1_554 S
C609 C607 1.327 . S
C610 C598 1.349 . S
C610 H604 0.950 . S
C610 C611 1.327 . S
C611 H605 0.950 . S
C611 C610 1.327 . S
C611 C615 1.429 . S
C612 C595 1.574 . S
C612 H606 0.949 . S
C612 C616 1.368 . S
C613 C594 1.429 . S
C613 C607 1.429 . S
C613 C614 1.523 . S
C614 C595 1.368 . S
C614 C608 1.368 . S
C614 C613 1.523 . S
C615 C599 1.429 . S
C615 C611 1.429 . S
C615 C616 1.523 . S
C616 C600 1.368 . S
C616 C612 1.368 . S
C616 C615 1.523 . S
H617 C592 0.950 . S
H618 C594 0.950 . S
H619 C595 0.949 . S
H620 C597 0.950 . S
H621 C599 0.950 . S
C622 C623 1.349 . S
C622 C624 1.327 . S
C622 H647 0.950 . S
C623 C622 1.349 . S
C623 C639 1.349 . S
C624 C622 1.327 . S
C624 C643 1.429 . S
C624 H648 0.950 . S
C625 C642 1.574 . S
C625 C644 1.368 . S
C625 H649 0.949 . S
H626 C630 0.949 . S
C627 C628 1.349 . S
C627 C629 1.327 . S
C627 H650 0.950 . S
C628 C627 1.349 . S
C628 C640 1.349 . S
C629 C627 1.327 . S
C629 C645 1.429 . S
C629 H651 0.950 . S
C630 H626 0.949 . S
C630 C638 1.574 . S
C630 C646 1.368 . S
H631 C639 0.950 . S
H632 C637 0.950 . S
H633 C638 0.949 . S
H634 C640 0.950 . S
H635 C641 0.950 . S
H636 C642 0.949 . S
C637 H632 0.950 . S
C637 C639 1.327 . S
C637 C643 1.429 . S
C638 C630 1.574 . S
C638 H633 0.949 . S
C638 C644 1.368 . S
C639 C623 1.349 . S
C639 H631 0.950 . S
C639 C637 1.327 . S
C640 C628 1.349 . S
C640 H634 0.950 . S
C640 C641 1.327 . S
C641 H635 0.950 . S
C641 C640 1.327 . S
C641 C645 1.429 . S
C642 C625 1.574 . S
C642 H636 0.949 . S
C642 C646 1.368 . S
C643 C624 1.429 . S
C643 C637 1.429 . S
C643 C644 1.523 . S
C644 C625 1.368 . S
C644 C638 1.368 . S
C644 C643 1.523 . S
C645 C629 1.429 . S
C645 C641 1.429 . S
C645 C646 1.523 . S
C646 C630 1.368 . S
C646 C642 1.368 . S
C646 C645 1.523 . S
H647 C622 0.950 . S
H648 C624 0.950 . S
H649 C625 0.949 . S
H650 C627 0.950 . S
H651 C629 0.950 . S
C652 C653 1.349 . S
C652 C654 1.327 . S
C652 H677 0.950 . S
C653 C652 1.349 . S
C653 C669 1.349 . S
C654 C652 1.327 . S
C654 C673 1.429 . S
C654 H678 0.950 . S
C655 C672 1.574 . S
C655 C674 1.368 . S
C655 H679 0.949 . S
H656 C660 0.949 . S
C657 C658 1.349 . S
C657 C659 1.327 . S
C657 H680 0.950 . S
C658 C657 1.349 . S
C658 C670 1.349 . S
C659 C657 1.327 . S
C659 C675 1.429 . S
C659 H681 0.950 . S
C660 H656 0.949 . S
C660 C668 1.574 . S
C660 C676 1.368 . S
H661 C669 0.944 1_554 S
H662 C667 0.950 . S
H663 C668 0.949 . S
H664 C670 0.950 . S
H665 C671 0.950 . S
H666 C672 0.949 . S
C667 H662 0.950 . S
C667 C669 1.327 . S
C667 C673 1.429 . S
C668 C660 1.574 . S
C668 H663 0.949 . S
C668 C674 1.368 . S
C669 C653 1.349 . S
C669 H661 0.944 1_556 S
C669 C667 1.327 . S
C670 C658 1.349 . S
C670 H664 0.950 . S
C670 C671 1.327 . S
C671 H665 0.950 . S
C671 C670 1.327 . S
C671 C675 1.429 . S
C672 C655 1.574 . S
C672 H666 0.949 . S
C672 C676 1.368 . S
C673 C654 1.429 . S
C673 C667 1.429 . S
C673 C674 1.523 . S
C674 C655 1.368 . S
C674 C668 1.368 . S
C674 C673 1.523 . S
C675 C659 1.429 . S
C675 C671 1.429 . S
C675 C676 1.523 . S
C676 C660 1.368 . S
C676 C672 1.368 . S
C676 C675 1.523 . S
H677 C652 0.950 . S
H678 C654 0.950 . S
H679 C655 0.949 . S
H680 C657 0.950 . S
H681 C659 0.950 . S
C682 C683 1.349 . S
C682 C684 1.327 . S
C682 H707 0.950 . S
C683 C682 1.349 . S
C683 C699 1.349 . S
C684 C682 1.327 . S
C684 C703 1.429 . S
C684 H708 0.950 . S
C685 C702 1.574 . S
C685 C704 1.368 . S
C685 H709 0.949 . S
H686 C690 0.949 . S
C687 C688 1.349 . S
C687 C689 1.327 . S
C687 H710 0.950 . S
C688 C687 1.349 . S
C688 C700 1.349 . S
C689 C687 1.327 . S
C689 C705 1.429 . S
C689 H711 0.950 . S
C690 H686 0.949 . S
C690 C698 1.574 . S
C690 C706 1.368 . S
H691 C699 0.950 . S
H692 C697 0.950 . S
H693 C698 0.949 . S
H694 C700 0.950 . S
H695 C701 0.950 . S
H696 C702 0.949 . S
C697 H692 0.950 . S
C697 C699 1.327 . S
C697 C703 1.429 . S
C698 C690 1.574 . S
C698 H693 0.949 . S
C698 C704 1.368 . S
C699 C683 1.349 . S
C699 H691 0.950 . S
C699 C697 1.327 . S
C700 C688 1.349 . S
C700 H694 0.950 . S
C700 C701 1.327 . S
C701 H695 0.950 . S
C701 C700 1.327 . S
C701 C705 1.429 . S
C702 C685 1.574 . S
C702 H696 0.949 . S
C702 C706 1.368 . S
C703 C684 1.429 . S
C703 C697 1.429 . S
C703 C704 1.523 . S
C704 C685 1.368 . S
C704 C698 1.368 . S
C704 C703 1.523 . S
C705 C689 1.429 . S
C705 C701 1.429 . S
C705 C706 1.523 . S
C706 C690 1.368 . S
C706 C702 1.368 . S
C706 C705 1.523 . S
H707 C682 0.950 . S
H708 C684 0.950 . S
H709 C685 0.949 . S
H710 C687 0.950 . S
H711 C689 0.950 . S
C712 C713 1.349 . S
C712 C714 1.327 . S
C712 H737 0.950 . S
C713 C712 1.349 . S
C713 C729 1.349 . S
C714 C712 1.327 . S
C714 C733 1.429 . S
C714 H738 0.950 . S
C715 C732 1.574 1_455 S
C715 C734 1.368 . S
C715 H739 0.949 . S
H716 C720 0.949 . S
C717 C718 1.349 . S
C717 C719 1.327 . S
C717 H740 0.950 . S
C718 C717 1.349 . S
C718 C730 1.349 . S
C719 C717 1.327 . S
C719 C735 1.429 . S
C719 H741 0.950 . S
C720 H716 0.949 . S
C720 C728 1.574 1_655 S
C720 C736 1.368 . S
H721 C729 0.950 . S
H722 C727 0.950 . S
H723 C728 0.949 . S
H724 C730 0.950 . S
H725 C731 0.950 . S
H726 C732 0.949 . S
C727 H722 0.950 . S
C727 C729 1.327 . S
C727 C733 1.429 . S
C728 C720 1.574 1_455 S
C728 H723 0.949 . S
C728 C734 1.368 . S
C729 C713 1.349 . S
C729 H721 0.950 . S
C729 C727 1.327 . S
C730 C718 1.349 . S
C730 H724 0.950 . S
C730 C731 1.327 . S
C731 H725 0.950 . S
C731 C730 1.327 . S
C731 C735 1.429 . S
C732 C715 1.574 1_655 S
C732 H726 0.949 . S
C732 C736 1.368 . S
C733 C714 1.429 . S
C733 C727 1.429 . S
C733 C734 1.523 . S
C734 C715 1.368 . S
C734 C728 1.368 . S
C734 C733 1.523 . S
C735 C719 1.429 . S
C735 C731 1.429 . S
C735 C736 1.523 . S
C736 C720 1.368 . S
C736 C732 1.368 . S
C736 C735 1.523 . S
H737 C712 0.950 . S
H738 C714 0.950 . S
H739 C715 0.949 . S
H740 C717 0.950 . S
H741 C719 0.950 . S
C742 C743 1.349 . S
C742 C744 1.327 . S
C742 H767 0.950 . S
C743 C742 1.349 . S
C743 C759 1.349 . S
C744 C742 1.327 . S
C744 C763 1.429 . S
C744 H768 0.950 . S
C745 C762 1.574 . S
C745 C764 1.368 . S
C745 H769 0.949 . S
H746 C750 0.949 . S
C747 C748 1.349 . S
C747 C749 1.327 . S
C747 H770 0.950 . S
C748 C747 1.349 . S
C748 C760 1.349 . S
C749 C747 1.327 . S
C749 C765 1.429 . S
C749 H771 0.950 . S
C750 H746 0.949 . S
C750 C758 1.574 . S
C750 C766 1.368 . S
H751 C759 0.950 . S
H752 C757 0.950 . S
H753 C758 0.949 . S
H754 C760 0.950 . S
H755 C761 0.950 . S
H756 C762 0.949 . S
C757 H752 0.950 . S
C757 C759 1.327 . S
C757 C763 1.429 . S
C758 C750 1.574 . S
C758 H753 0.949 . S
C758 C764 1.368 . S
C759 C743 1.349 . S
C759 H751 0.950 . S
C759 C757 1.327 . S
C760 C748 1.349 . S
C760 H754 0.950 . S
C760 C761 1.327 . S
C761 H755 0.950 . S
C761 C760 1.327 . S
C761 C765 1.429 . S
C762 C745 1.574 . S
C762 H756 0.949 . S
C762 C766 1.368 . S
C763 C744 1.429 . S
C763 C757 1.429 . S
C763 C764 1.523 . S
C764 C745 1.368 . S
C764 C758 1.368 . S
C764 C763 1.523 . S
C765 C749 1.429 . S
C765 C761 1.429 . S
C765 C766 1.523 . S
C766 C750 1.368 . S
C766 C762 1.368 . S
C766 C765 1.523 . S
H767 C742 0.950 . S
H768 C744 0.950 . S
H769 C745 0.949 . S
H770 C747 0.950 . S
H771 C749 0.950 . S
C772 C773 1.349 . S
C772 C774 1.327 . S
C772 H797 0.950 . S
C773 C772 1.349 . S
C773 C789 1.349 . S
C774 C772 1.327 . S
C774 C793 1.429 . S
C774 H798 0.950 . S
C775 C792 1.574 1_455 S
C775 C794 1.368 . S
C775 H799 0.949 . S
H776 C780 0.949 . S
C777 C778 1.349 . S
C777 C779 1.327 . S
C777 H800 0.950 . S
C778 C777 1.349 . S
C778 C790 1.349 . S
C779 C777 1.327 . S
C779 C795 1.429 . S
C779 H801 0.950 . S
C780 H776 0.949 . S
C780 C788 1.574 1_655 S
C780 C796 1.368 . S
H781 C789 0.950 . S
H782 C787 0.950 . S
H783 C788 0.949 . S
H784 C790 0.950 . S
H785 C791 0.950 . S
H786 C792 0.949 . S
C787 H782 0.950 . S
C787 C789 1.327 . S
C787 C793 1.429 . S
C788 C780 1.574 1_455 S
C788 H783 0.949 . S
C788 C794 1.368 . S
C789 C773 1.349 . S
C789 H781 0.950 . S
C789 C787 1.327 . S
C790 C778 1.349 . S
C790 H784 0.950 . S
C790 C791 1.327 . S
C791 H785 0.950 . S
C791 C790 1.327 . S
C791 C795 1.429 . S
C792 C775 1.574 1_655 S
C792 H786 0.949 . S
C792 C796 1.368 . S
C793 C774 1.429 . S
C793 C787 1.429 . S
C793 C794 1.523 . S
C794 C775 1.368 . S
C794 C788 1.368 . S
C794 C793 1.523 . S
C795 C779 1.429 . S
C795 C791 1.429 . S
C795 C796 1.523 . S
C796 C780 1.368 . S
C796 C792 1.368 . S
C796 C795 1.523 . S
H797 C772 0.950 . S
H798 C774 0.950 . S
H799 C775 0.949 . S
H800 C777 0.950 . S
H801 C779 0.950 . S
C802 C803 1.349 . S
C802 C804 1.327 . S
C802 H827 0.950 . S
C803 C802 1.349 . S
C803 C819 1.349 . S
C804 C802 1.327 . S
C804 C823 1.429 . S
C804 H828 0.950 . S
C805 C822 1.574 . S
C805 C824 1.368 . S
C805 H829 0.949 . S
H806 C810 0.949 . S
C807 C808 1.349 . S
C807 C809 1.327 . S
C807 H830 0.950 . S
C808 C807 1.349 . S
C808 C820 1.349 . S
C809 C807 1.327 . S
C809 C825 1.429 . S
C809 H831 0.950 . S
C810 H806 0.949 . S
C810 C818 1.574 . S
C810 C826 1.368 . S
H811 C819 0.950 . S
H812 C817 0.950 . S
H813 C818 0.949 . S
H814 C820 0.950 . S
H815 C821 0.950 . S
H816 C822 0.949 . S
C817 H812 0.950 . S
C817 C819 1.327 . S
C817 C823 1.429 . S
C818 C810 1.574 . S
C818 H813 0.949 . S
C818 C824 1.368 . S
C819 C803 1.349 . S
C819 H811 0.950 . S
C819 C817 1.327 . S
C820 C808 1.349 . S
C820 H814 0.950 . S
C820 C821 1.327 . S
C821 H815 0.950 . S
C821 C820 1.327 . S
C821 C825 1.429 . S
C822 C805 1.574 . S
C822 H816 0.949 . S
C822 C826 1.368 . S
C823 C804 1.429 . S
C823 C817 1.429 . S
C823 C824 1.523 . S
C824 C805 1.368 . S
C824 C818 1.368 . S
C824 C823 1.523 . S
C825 C809 1.429 . S
C825 C821 1.429 . S
C825 C826 1.523 . S
C826 C810 1.368 . S
C826 C822 1.368 . S
C826 C825 1.523 . S
H827 C802 0.950 . S
H828 C804 0.950 . S
H829 C805 0.949 . S
H830 C807 0.950 . S
H831 C809 0.950 . S
C832 C833 1.349 . S
C832 C834 1.327 . S
C832 H857 0.950 1_554 S
C833 C832 1.349 . S
C833 C849 1.349 . S
C834 C832 1.327 . S
C834 C853 1.429 . S
C834 H858 0.950 1_554 S
C835 C852 1.574 1_445 S
C835 C854 1.368 . S
C835 H859 0.949 . S
H836 C840 0.949 . S
C837 C838 1.349 . S
C837 C839 1.327 . S
C837 H860 0.950 1_556 S
C838 C837 1.349 . S
C838 C850 1.349 . S
C839 C837 1.327 . S
C839 C855 1.429 . S
C839 H861 0.950 1_556 S
C840 H836 0.949 . S
C840 C848 1.574 1_665 S
C840 C856 1.368 . S
H841 C849 0.950 . S
H842 C847 0.950 . S
H843 C848 0.949 . S
H844 C850 0.950 . S
H845 C851 0.950 . S
H846 C852 0.949 . S
C847 H842 0.950 . S
C847 C849 1.327 . S
C847 C853 1.429 . S
C848 C840 1.574 1_445 S
C848 H843 0.949 . S
C848 C854 1.368 1_556 S
C849 C833 1.349 . S
C849 H841 0.950 . S
C849 C847 1.327 . S
C850 C838 1.349 . S
C850 H844 0.950 . S
C850 C851 1.327 . S
C851 H845 0.950 . S
C851 C850 1.327 . S
C851 C855 1.429 . S
C852 C835 1.574 1_665 S
C852 H846 0.949 . S
C852 C856 1.368 1_554 S
C853 C834 1.429 . S
C853 C847 1.429 . S
C853 C854 1.523 . S
C854 C835 1.368 . S
C854 C848 1.368 1_554 S
C854 C853 1.523 . S
C855 C839 1.429 . S
C855 C851 1.429 . S
C855 C856 1.523 . S
C856 C840 1.368 . S
C856 C852 1.368 1_556 S
C856 C855 1.523 . S
H857 C832 0.950 1_556 S
H858 C834 0.950 1_556 S
H859 C835 0.949 . S
H860 C837 0.950 1_554 S
H861 C839 0.950 1_554 S
C862 C863 1.349 . S
C862 C864 1.327 . S
C862 H887 0.950 . S
C863 C862 1.349 . S
C863 C879 1.349 . S
C864 C862 1.327 . S
C864 C883 1.429 . S
C864 H888 0.950 . S
C865 C882 1.574 . S
C865 C884 1.368 . S
C865 H889 0.949 . S
H866 C870 0.949 . S
C867 C868 1.349 . S
C867 C869 1.327 . S
C867 H890 0.950 . S
C868 C867 1.349 . S
C868 C880 1.349 . S
C869 C867 1.327 . S
C869 C885 1.429 . S
C869 H891 0.950 . S
C870 H866 0.949 . S
C870 C878 1.574 . S
C870 C886 1.368 . S
H871 C879 0.950 . S
H872 C877 0.950 . S
H873 C878 0.949 . S
H874 C880 0.950 . S
H875 C881 0.950 . S
H876 C882 0.949 . S
C877 H872 0.950 . S
C877 C879 1.327 . S
C877 C883 1.429 . S
C878 C870 1.574 . S
C878 H873 0.949 . S
C878 C884 1.368 . S
C879 C863 1.349 . S
C879 H871 0.950 . S
C879 C877 1.327 . S
C880 C868 1.349 . S
C880 H874 0.950 . S
C880 C881 1.327 . S
C881 H875 0.950 . S
C881 C880 1.327 . S
C881 C885 1.429 . S
C882 C865 1.574 . S
C882 H876 0.949 . S
C882 C886 1.368 . S
C883 C864 1.429 . S
C883 C877 1.429 . S
C883 C884 1.523 . S
C884 C865 1.368 . S
C884 C878 1.368 . S
C884 C883 1.523 . S
C885 C869 1.429 . S
C885 C881 1.429 . S
C885 C886 1.523 . S
C886 C870 1.368 . S
C886 C882 1.368 . S
C886 C885 1.523 . S
H887 C862 0.950 . S
H888 C864 0.950 . S
H889 C865 0.949 . S
H890 C867 0.950 . S
H891 C869 0.950 . S
C892 C893 1.349 . S
C892 C894 1.327 . S
C892 H917 0.950 . S
C893 C892 1.349 . S
C893 C909 1.349 . S
C894 C892 1.327 . S
C894 C913 1.429 . S
C894 H918 0.950 1_554 S
C895 C912 1.574 . S
C895 C914 1.368 . S
C895 H919 0.949 . S
H896 C900 0.949 . S
C897 C898 1.349 . S
C897 C899 1.327 . S
C897 H920 0.950 . S
C898 C897 1.349 . S
C898 C910 1.349 . S
C899 C897 1.327 . S
C899 C915 1.429 . S
C899 H921 0.950 1_556 S
C900 H896 0.949 . S
C900 C908 1.574 . S
C900 C916 1.368 . S
H901 C909 0.950 . S
H902 C907 0.950 . S
H903 C908 0.949 . S
H904 C910 0.950 . S
H905 C911 0.950 . S
H906 C912 0.949 . S
C907 H902 0.950 . S
C907 C909 1.327 . S
C907 C913 1.429 . S
C908 C900 1.574 . S
C908 H903 0.949 . S
C908 C914 1.368 1_556 S
C909 C893 1.349 . S
C909 H901 0.950 . S
C909 C907 1.327 . S
C910 C898 1.349 . S
C910 H904 0.950 . S
C910 C911 1.327 . S
C911 H905 0.950 . S
C911 C910 1.327 . S
C911 C915 1.429 . S
C912 C895 1.574 . S
C912 H906 0.949 . S
C912 C916 1.368 1_554 S
C913 C894 1.429 . S
C913 C907 1.429 . S
C913 C914 1.523 . S
C914 C895 1.368 . S
C914 C908 1.368 1_554 S
C914 C913 1.523 . S
C915 C899 1.429 . S
C915 C911 1.429 . S
C915 C916 1.523 . S
C916 C900 1.368 . S
C916 C912 1.368 1_556 S
C916 C915 1.523 . S
H917 C892 0.950 . S
H918 C894 0.950 1_556 S
H919 C895 0.949 . S
H920 C897 0.950 . S
H921 C899 0.950 1_554 S
C922 C923 1.349 . S
C922 C924 1.327 . S
C922 H947 0.950 . S
C923 C922 1.349 . S
C923 C939 1.349 . S
C924 C922 1.327 . S
C924 C943 1.429 . S
C924 H948 0.950 . S
C925 C942 1.574 1_455 S
C925 C944 1.368 . S
C925 H949 0.949 . S
H926 C930 0.949 . S
C927 C928 1.349 . S
C927 C929 1.327 . S
C927 H950 0.950 . S
C928 C927 1.349 . S
C928 C940 1.349 . S
C929 C927 1.327 . S
C929 C945 1.429 . S
C929 H951 0.950 . S
C930 H926 0.949 . S
C930 C938 1.574 1_655 S
C930 C946 1.368 . S
H931 C939 0.950 . S
H932 C937 0.950 . S
H933 C938 0.949 . S
H934 C940 0.950 . S
H935 C941 0.950 . S
H936 C942 0.949 . S
C937 H932 0.950 . S
C937 C939 1.327 . S
C937 C943 1.429 . S
C938 C930 1.574 1_455 S
C938 H933 0.949 . S
C938 C944 1.368 1_545 S
C939 C923 1.349 . S
C939 H931 0.950 . S
C939 C937 1.327 . S
C940 C928 1.349 . S
C940 H934 0.950 . S
C940 C941 1.327 . S
C941 H935 0.950 . S
C941 C940 1.327 . S
C941 C945 1.429 . S
C942 C925 1.574 1_655 S
C942 H936 0.949 . S
C942 C946 1.368 1_565 S
C943 C924 1.429 . S
C943 C937 1.429 . S
C943 C944 1.523 . S
C944 C925 1.368 . S
C944 C938 1.368 1_565 S
C944 C943 1.523 . S
C945 C929 1.429 . S
C945 C941 1.429 . S
C945 C946 1.523 . S
C946 C930 1.368 . S
C946 C942 1.368 1_545 S
C946 C945 1.523 . S
H947 C922 0.950 . S
H948 C924 0.950 . S
H949 C925 0.949 . S
H950 C927 0.950 . S
H951 C929 0.950 . S
C473 C64 1.654 . S
C478 C3 1.623 1_556 S
C503 C5 1.655 . S
C508 C62 1.623 . S
C533 C182 1.654 . S
C538 C121 1.623 1_554 S
C563 C123 1.655 . S
C568 C180 1.623 . S
C593 C241 1.636 1_554 S
C598 C298 1.641 . S
C623 C300 1.636 . S
C628 C239 1.642 . S
C653 C359 1.636 1_556 S
C658 C416 1.641 . S
C683 C357 1.642 . S
C688 C418 1.636 . S
C713 C33 0.481 . S
C718 C210 0.481 . S
C743 C92 0.481 . S
C748 C151 0.481 . S
C773 C465 0.476 . S
C778 C288 0.476 . S
C803 C406 0.476 . S
C808 C347 0.476 . S
C833 C52 1.534 . S
C838 C269 1.526 . S
C863 C328 1.526 . S
C868 C111 1.533 . S
C893 C387 1.526 . S
C898 C170 1.534 . S
C923 C446 1.526 . S
C928 C229 1.533 . S
