# Generated by pormake.
# Topology upd, (4)-cn, num edge types: 1
# Building blocks:
#     Node 0, Type 0, BuildingBlock: KOZSID_clean_sbu_0, # of connection points: 4
#     Node 1, Type 0, BuildingBlock: KOZSID_clean_sbu_0, # of connection points: 4
#     Node 2, Type 0, BuildingBlock: KOZSID_clean_sbu_0, # of connection points: 4
#     Node 3, Type 0, BuildingBlock: KOZSID_clean_sbu_0, # of connection points: 4
#     Node 4, Type 0, BuildingBlock: KOZSID_clean_sbu_0, # of connection points: 4
#     Node 5, Type 0, BuildingBlock: KOZSID_clean_sbu_0, # of connection points: 4
#     Node 6, Type 0, BuildingBlock: KOZSID_clean_sbu_0, # of connection points: 4
#     Node 7, Type 0, BuildingBlock: KOZSID_clean_sbu_0, # of connection points: 4
#     Node 8, Type 0, BuildingBlock: KOZSID_clean_sbu_0, # of connection points: 4
#     Node 9, Type 0, BuildingBlock: KOZSID_clean_sbu_0, # of connection points: 4
#     Node 10, Type 0, BuildingBlock: KOZSID_clean_sbu_0, # of connection points: 4
#     Node 11, Type 0, BuildingBlock: KOZSID_clean_sbu_0, # of connection points: 4
#     Node 12, Type 0, BuildingBlock: KOZSID_clean_sbu_0, # of connection points: 4
#     Node 13, Type 0, BuildingBlock: KOZSID_clean_sbu_0, # of connection points: 4
#     Node 14, Type 0, BuildingBlock: KOZSID_clean_sbu_0, # of connection points: 4
#     Node 15, Type 0, BuildingBlock: KOZSID_clean_sbu_0, # of connection points: 4
#     Node 16, Type 0, BuildingBlock: KOZSID_clean_sbu_0, # of connection points: 4
#     Node 17, Type 0, BuildingBlock: KOZSID_clean_sbu_0, # of connection points: 4
#     Node 18, Type 0, BuildingBlock: KOZSID_clean_sbu_0, # of connection points: 4
#     Node 19, Type 0, BuildingBlock: KOZSID_clean_sbu_0, # of connection points: 4
#     Node 20, Type 0, BuildingBlock: KOZSID_clean_sbu_0, # of connection points: 4
#     Node 21, Type 0, BuildingBlock: KOZSID_clean_sbu_0, # of connection points: 4
#     Node 22, Type 0, BuildingBlock: KOZSID_clean_sbu_0, # of connection points: 4
#     Node 23, Type 0, BuildingBlock: KOZSID_clean_sbu_0, # of connection points: 4
#     Node 24, Type 0, BuildingBlock: KOZSID_clean_sbu_0, # of connection points: 4
#     Node 25, Type 0, BuildingBlock: KOZSID_clean_sbu_0, # of connection points: 4
#     Node 26, Type 0, BuildingBlock: KOZSID_clean_sbu_0, # of connection points: 4
#     Node 27, Type 0, BuildingBlock: KOZSID_clean_sbu_0, # of connection points: 4
#     Node 28, Type 0, BuildingBlock: KOZSID_clean_sbu_0, # of connection points: 4
#     Node 29, Type 0, BuildingBlock: KOZSID_clean_sbu_0, # of connection points: 4
#     Node 30, Type 0, BuildingBlock: KOZSID_clean_sbu_0, # of connection points: 4
#     Node 31, Type 0, BuildingBlock: KOZSID_clean_sbu_0, # of connection points: 4
#     Edge 32, Type (0, 0), BuildingBlock: XIVTED_clean_linker_0, # of connection points: 2
#     Edge 33, Type (0, 0), BuildingBlock: XIVTED_clean_linker_0, # of connection points: 2
#     Edge 34, Type (0, 0), BuildingBlock: XIVTED_clean_linker_0, # of connection points: 2
#     Edge 35, Type (0, 0), BuildingBlock: XIVTED_clean_linker_0, # of connection points: 2
#     Edge 36, Type (0, 0), BuildingBlock: XIVTED_clean_linker_0, # of connection points: 2
#     Edge 37, Type (0, 0), BuildingBlock: XIVTED_clean_linker_0, # of connection points: 2
#     Edge 38, Type (0, 0), BuildingBlock: XIVTED_clean_linker_0, # of connection points: 2
#     Edge 39, Type (0, 0), BuildingBlock: XIVTED_clean_linker_0, # of connection points: 2
#     Edge 40, Type (0, 0), BuildingBlock: XIVTED_clean_linker_0, # of connection points: 2
#     Edge 41, Type (0, 0), BuildingBlock: XIVTED_clean_linker_0, # of connection points: 2
#     Edge 42, Type (0, 0), BuildingBlock: XIVTED_clean_linker_0, # of connection points: 2
#     Edge 43, Type (0, 0), BuildingBlock: XIVTED_clean_linker_0, # of connection points: 2
#     Edge 44, Type (0, 0), BuildingBlock: XIVTED_clean_linker_0, # of connection points: 2
#     Edge 45, Type (0, 0), BuildingBlock: XIVTED_clean_linker_0, # of connection points: 2
#     Edge 46, Type (0, 0), BuildingBlock: XIVTED_clean_linker_0, # of connection points: 2
#     Edge 47, Type (0, 0), BuildingBlock: XIVTED_clean_linker_0, # of connection points: 2
#     Edge 48, Type (0, 0), BuildingBlock: XIVTED_clean_linker_0, # of connection points: 2
#     Edge 49, Type (0, 0), BuildingBlock: XIVTED_clean_linker_0, # of connection points: 2
#     Edge 50, Type (0, 0), BuildingBlock: XIVTED_clean_linker_0, # of connection points: 2
#     Edge 51, Type (0, 0), BuildingBlock: XIVTED_clean_linker_0, # of connection points: 2
#     Edge 52, Type (0, 0), BuildingBlock: XIVTED_clean_linker_0, # of connection points: 2
#     Edge 53, Type (0, 0), BuildingBlock: XIVTED_clean_linker_0, # of connection points: 2
#     Edge 54, Type (0, 0), BuildingBlock: XIVTED_clean_linker_0, # of connection points: 2
#     Edge 55, Type (0, 0), BuildingBlock: XIVTED_clean_linker_0, # of connection points: 2
#     Edge 56, Type (0, 0), BuildingBlock: XIVTED_clean_linker_0, # of connection points: 2
#     Edge 57, Type (0, 0), BuildingBlock: XIVTED_clean_linker_0, # of connection points: 2
#     Edge 58, Type (0, 0), BuildingBlock: XIVTED_clean_linker_0, # of connection points: 2
#     Edge 59, Type (0, 0), BuildingBlock: XIVTED_clean_linker_0, # of connection points: 2
#     Edge 60, Type (0, 0), BuildingBlock: XIVTED_clean_linker_0, # of connection points: 2
#     Edge 61, Type (0, 0), BuildingBlock: XIVTED_clean_linker_0, # of connection points: 2
#     Edge 62, Type (0, 0), BuildingBlock: XIVTED_clean_linker_0, # of connection points: 2
#     Edge 63, Type (0, 0), BuildingBlock: XIVTED_clean_linker_0, # of connection points: 2
#     Edge 64, Type (0, 0), BuildingBlock: XIVTED_clean_linker_0, # of connection points: 2
#     Edge 65, Type (0, 0), BuildingBlock: XIVTED_clean_linker_0, # of connection points: 2
#     Edge 66, Type (0, 0), BuildingBlock: XIVTED_clean_linker_0, # of connection points: 2
#     Edge 67, Type (0, 0), BuildingBlock: XIVTED_clean_linker_0, # of connection points: 2
#     Edge 68, Type (0, 0), BuildingBlock: XIVTED_clean_linker_0, # of connection points: 2
#     Edge 69, Type (0, 0), BuildingBlock: XIVTED_clean_linker_0, # of connection points: 2
#     Edge 70, Type (0, 0), BuildingBlock: XIVTED_clean_linker_0, # of connection points: 2
#     Edge 71, Type (0, 0), BuildingBlock: XIVTED_clean_linker_0, # of connection points: 2
#     Edge 72, Type (0, 0), BuildingBlock: XIVTED_clean_linker_0, # of connection points: 2
#     Edge 73, Type (0, 0), BuildingBlock: XIVTED_clean_linker_0, # of connection points: 2
#     Edge 74, Type (0, 0), BuildingBlock: XIVTED_clean_linker_0, # of connection points: 2
#     Edge 75, Type (0, 0), BuildingBlock: XIVTED_clean_linker_0, # of connection points: 2
#     Edge 76, Type (0, 0), BuildingBlock: XIVTED_clean_linker_0, # of connection points: 2
#     Edge 77, Type (0, 0), BuildingBlock: XIVTED_clean_linker_0, # of connection points: 2
#     Edge 78, Type (0, 0), BuildingBlock: XIVTED_clean_linker_0, # of connection points: 2
#     Edge 79, Type (0, 0), BuildingBlock: XIVTED_clean_linker_0, # of connection points: 2
#     Edge 80, Type (0, 0), BuildingBlock: XIVTED_clean_linker_0, # of connection points: 2
#     Edge 81, Type (0, 0), BuildingBlock: XIVTED_clean_linker_0, # of connection points: 2
#     Edge 82, Type (0, 0), BuildingBlock: XIVTED_clean_linker_0, # of connection points: 2
#     Edge 83, Type (0, 0), BuildingBlock: XIVTED_clean_linker_0, # of connection points: 2
#     Edge 84, Type (0, 0), BuildingBlock: XIVTED_clean_linker_0, # of connection points: 2
#     Edge 85, Type (0, 0), BuildingBlock: XIVTED_clean_linker_0, # of connection points: 2
#     Edge 86, Type (0, 0), BuildingBlock: XIVTED_clean_linker_0, # of connection points: 2
#     Edge 87, Type (0, 0), BuildingBlock: XIVTED_clean_linker_0, # of connection points: 2
#     Edge 88, Type (0, 0), BuildingBlock: XIVTED_clean_linker_0, # of connection points: 2
#     Edge 89, Type (0, 0), BuildingBlock: XIVTED_clean_linker_0, # of connection points: 2
#     Edge 90, Type (0, 0), BuildingBlock: XIVTED_clean_linker_0, # of connection points: 2
#     Edge 91, Type (0, 0), BuildingBlock: XIVTED_clean_linker_0, # of connection points: 2
#     Edge 92, Type (0, 0), BuildingBlock: XIVTED_clean_linker_0, # of connection points: 2
#     Edge 93, Type (0, 0), BuildingBlock: XIVTED_clean_linker_0, # of connection points: 2
#     Edge 94, Type (0, 0), BuildingBlock: XIVTED_clean_linker_0, # of connection points: 2
#     Edge 95, Type (0, 0), BuildingBlock: XIVTED_clean_linker_0, # of connection points: 2
# Relax obj value: 0.024
# Max RMSD: 0.119
# Mean RMSD: 0.086
data_MOF--net-upd--node1-KOZSID_clean_sbu_0--edge1-XIVTED_clean_linker_0
_symmetry_space_group_name_H-M    P1
_symmetry_Int_Tables_number       1
_symmetry_cell_setting            triclinic
loop_
_symmetry_equiv_pos_as_xyz
'x, y, z'
_cell_length_a     48.618422
_cell_length_b     41.044772
_cell_length_c     105.62885
_cell_angle_alpha  90.00683
_cell_angle_beta   89.99165
_cell_angle_gamma 89.996652
loop_
_atom_site_label
_atom_site_type_symbol
_atom_site_fract_x
_atom_site_fract_y
_atom_site_fract_z
_atom_type_partial_charge
C0 C 0.09157 0.12649 0.33283 0.0
C1 C 0.06315 0.12376 0.33253 0.0
C2 C 0.05439 0.14205 0.32251 0.0
C3 C 0.0779 0.15471 0.31728 0.0
N4 N 0.10115 0.145 0.3232 0.0
Co5 Co 0.13981 0.15804 0.31912 0.0
N6 N 0.1268 0.19054 0.30626 0.0
C7 C 0.1004 0.19797 0.30338 0.0
C8 C 0.09789 0.22098 0.29406 0.0
C9 C 0.12423 0.2285 0.29069 0.0
C10 C 0.14137 0.20957 0.29821 0.0
N11 N 0.17856 0.17014 0.31472 0.0
C12 C 0.18816 0.19037 0.30561 0.0
C13 C 0.21671 0.19096 0.30535 0.0
C14 C 0.22546 0.1697 0.31442 0.0
C15 C 0.20187 0.15748 0.31969 0.0
N16 N 0.15265 0.12659 0.33242 0.0
C17 C 0.17892 0.11965 0.33564 0.0
C18 C 0.18121 0.09945 0.34592 0.0
C19 C 0.1548 0.09389 0.34974 0.0
C20 C 0.13795 0.11094 0.34147 0.0
N21 N 0.14125 0.12347 0.30587 0.0
C22 C 0.14512 0.07736 0.28612 0.0
C23 C 0.16358 0.07682 0.29623 0.0
C24 C 0.16141 0.10004 0.30589 0.0
C25 C 0.12436 0.10079 0.28619 0.0
C26 C 0.12266 0.12315 0.29611 0.0
N27 N 0.13836 0.19255 0.33227 0.0
C28 C 0.15958 0.22258 0.34939 0.0
C29 C 0.13529 0.24 0.35157 0.0
C30 C 0.11269 0.23334 0.34381 0.0
C31 C 0.1147 0.20992 0.33427 0.0
C32 C 0.16063 0.1991 0.3398 0.0
H33 H 0.09668 0.206 0.32873 0.0
H34 H 0.17961 0.18639 0.33871 0.0
H35 H 0.1765 0.09873 0.31317 0.0
H36 H 0.10618 0.14007 0.29556 0.0
C37 C 0.07856 0.18002 0.30844 0.0
C38 C 0.10834 0.11389 0.34312 0.0
C39 C 0.17116 0.20847 0.29667 0.0
C40 C 0.20094 0.13438 0.32938 0.0
H41 H 0.05012 0.11117 0.33925 0.0
H42 H 0.03332 0.14727 0.31989 0.0
H43 H 0.07915 0.23008 0.2898 0.0
H44 H 0.13003 0.24516 0.28323 0.0
H45 H 0.22984 0.20495 0.29911 0.0
H46 H 0.2465 0.16361 0.31679 0.0
H47 H 0.19986 0.09098 0.35044 0.0
H48 H 0.14875 0.07984 0.35794 0.0
H49 H 0.18004 0.05905 0.29655 0.0
H50 H 0.10926 0.10174 0.27866 0.0
H51 H 0.17783 0.22704 0.355 0.0
H52 H 0.09321 0.24562 0.3452 0.0
C53 C 0.11785 0.8142 0.5816 0.0
C54 C 0.11032 0.78164 0.58275 0.0
C55 C 0.09421 0.77446 0.57258 0.0
C56 C 0.09242 0.80294 0.56591 0.0
N57 N 0.10669 0.82792 0.5711 0.0
Co58 Co 0.10664 0.87457 0.56532 0.0
N59 N 0.08042 0.86455 0.55119 0.0
C60 C 0.07108 0.83481 0.54773 0.0
C61 C 0.05429 0.83525 0.53732 0.0
C62 C 0.05279 0.8672 0.53389 0.0
C63 C 0.06866 0.88452 0.54252 0.0
N64 N 0.10567 0.92148 0.55989 0.0
C65 C 0.09062 0.93631 0.55074 0.0
C66 C 0.09512 0.96972 0.55055 0.0
C67 C 0.11383 0.97622 0.55984 0.0
C68 C 0.1195 0.9466 0.56522 0.0
N69 N 0.1335 0.88434 0.57922 0.0
C70 C 0.14603 0.91317 0.58151 0.0
C71 C 0.1638 0.91234 0.59157 0.0
C72 C 0.16234 0.88123 0.59607 0.0
C73 C 0.14346 0.86487 0.58853 0.0
N74 N 0.13782 0.86587 0.55359 0.0
C75 C 0.17988 0.85604 0.53555 0.0
C76 C 0.17795 0.88513 0.54235 0.0
C77 C 0.15723 0.88933 0.5513 0.0
C78 C 0.16075 0.83157 0.53818 0.0
C79 C 0.14009 0.83695 0.54716 0.0
N80 N 0.07563 0.88333 0.57692 0.0
C81 C 0.05552 0.91423 0.59406 0.0
C82 C 0.03276 0.89358 0.59428 0.0
C83 C 0.03135 0.8684 0.58541 0.0
C84 C 0.05279 0.86384 0.57683 0.0
C85 C 0.07666 0.90863 0.58539 0.0
H86 H 0.05064 0.84416 0.57032 0.0
H87 H 0.09384 0.92471 0.58584 0.0
H88 H 0.15724 0.91205 0.55608 0.0
H89 H 0.12614 0.81736 0.54861 0.0
C90 C 0.07681 0.80727 0.55497 0.0
C91 C 0.13501 0.83123 0.59087 0.0
C92 C 0.07183 0.91984 0.54207 0.0
C93 C 0.13838 0.94135 0.57498 0.0
H94 H 0.11535 0.76478 0.59026 0.0
H95 H 0.08437 0.75143 0.57048 0.0
H96 H 0.04403 0.81483 0.53288 0.0
H97 H 0.0412 0.87666 0.52596 0.0
H98 H 0.08586 0.98758 0.54434 0.0
H99 H 0.12233 0.99972 0.56235 0.0
H100 H 0.17568 0.93228 0.59546 0.0
H101 H 0.17343 0.87184 0.60417 0.0
H102 H 0.19196 0.90516 0.54061 0.0
H103 H 0.16164 0.8083 0.53337 0.0
H104 H 0.05749 0.93394 0.60082 0.0
H105 H 0.01383 0.8521 0.58514 0.0
C106 C 0.40978 0.87612 0.83129 0.0
C107 C 0.43832 0.87735 0.83077 0.0
C108 C 0.44619 0.85746 0.82109 0.0
C109 C 0.42219 0.84513 0.81631 0.0
N110 N 0.39935 0.85641 0.82218 0.0
Co111 Co 0.36027 0.84309 0.81891 0.0
N112 N 0.37217 0.81063 0.80578 0.0
C113 C 0.39821 0.80403 0.80201 0.0
C114 C 0.39982 0.78149 0.79248 0.0
C115 C 0.37322 0.77348 0.78987 0.0
C116 C 0.35686 0.79161 0.79803 0.0
N117 N 0.32124 0.82976 0.81571 0.0
C118 C 0.31087 0.80879 0.80705 0.0
C119 C 0.28242 0.80668 0.80783 0.0
C120 C 0.27446 0.82764 0.81715 0.0
C121 C 0.2984 0.84117 0.82154 0.0
N122 N 0.34842 0.87554 0.83203 0.0
C123 C 0.32239 0.88294 0.83554 0.0
C124 C 0.3209 0.90554 0.84508 0.0
C125 C 0.34758 0.91251 0.84801 0.0
C126 C 0.36379 0.89357 0.84009 0.0
N127 N 0.35702 0.87684 0.8055 0.0
C128 C 0.35053 0.92064 0.78519 0.0
C129 C 0.33083 0.91874 0.79477 0.0
C130 C 0.33438 0.8967 0.80473 0.0
C131 C 0.37387 0.90106 0.78613 0.0
C132 C 0.3768 0.8798 0.79632 0.0
N133 N 0.36345 0.80924 0.83224 0.0
C134 C 0.34617 0.78279 0.85109 0.0
C135 C 0.36897 0.76205 0.85147 0.0
C136 C 0.38871 0.76511 0.84193 0.0
C137 C 0.38565 0.78872 0.83256 0.0
C138 C 0.34381 0.80596 0.84146 0.0
H139 H 0.40164 0.78998 0.82572 0.0
H140 H 0.32608 0.82117 0.84174 0.0
H141 H 0.31834 0.89585 0.81156 0.0
H142 H 0.39513 0.86576 0.79647 0.0
C143 C 0.42062 0.82076 0.80711 0.0
C144 C 0.39358 0.89193 0.84116 0.0
C145 C 0.32692 0.79163 0.79751 0.0
C146 C 0.29995 0.86604 0.83054 0.0
H147 H 0.45219 0.89027 0.83699 0.0
H148 H 0.467 0.85158 0.81825 0.0
H149 H 0.41811 0.77268 0.78775 0.0
H150 H 0.36667 0.75683 0.78252 0.0
H151 H 0.26883 0.79204 0.80204 0.0
H152 H 0.25365 0.83305 0.82014 0.0
H153 H 0.30262 0.91481 0.84969 0.0
H154 H 0.3544 0.92885 0.85542 0.0
H155 H 0.31241 0.93357 0.79441 0.0
H156 H 0.38995 0.90226 0.77904 0.0
H157 H 0.33045 0.78172 0.85834 0.0
H158 H 0.40654 0.7493 0.84164 0.0
C159 C 0.37772 0.19175 0.07817 0.0
C160 C 0.38003 0.22544 0.07876 0.0
C161 C 0.3949 0.23479 0.06843 0.0
C162 C 0.40066 0.20643 0.06212 0.0
N163 N 0.38981 0.17957 0.06762 0.0
Co164 Co 0.39414 0.13318 0.06196 0.0
N165 N 0.41922 0.14638 0.04779 0.0
C166 C 0.42605 0.1771 0.04436 0.0
C167 C 0.44314 0.1786 0.03406 0.0
C168 C 0.44751 0.14696 0.03069 0.0
C169 C 0.43287 0.12788 0.03921 0.0
N170 N 0.3991 0.08663 0.05655 0.0
C171 C 0.41511 0.07373 0.04731 0.0
C172 C 0.4133 0.03996 0.04704 0.0
C173 C 0.39534 0.03123 0.05636 0.0
C174 C 0.38739 0.05998 0.06183 0.0
N175 N 0.3687 0.12016 0.07606 0.0
C176 C 0.35915 0.08987 0.07856 0.0
C177 C 0.34329 0.08817 0.08926 0.0
C178 C 0.34301 0.11908 0.094 0.0
C179 C 0.35865 0.13804 0.08584 0.0
N180 N 0.36211 0.13762 0.05031 0.0
C181 C 0.31949 0.14151 0.03219 0.0
C182 C 0.32331 0.11347 0.03947 0.0
C183 C 0.34426 0.11223 0.04847 0.0
C184 C 0.33686 0.16798 0.03445 0.0
C185 C 0.35783 0.1655 0.04343 0.0
N186 N 0.42597 0.12869 0.07345 0.0
C187 C 0.44951 0.09994 0.09018 0.0
C188 C 0.46982 0.12393 0.09065 0.0
C189 C 0.46822 0.14992 0.08215 0.0
C190 C 0.44633 0.15173 0.07364 0.0
C191 C 0.42788 0.10281 0.08159 0.0
H192 H 0.44606 0.17217 0.0674 0.0
H193 H 0.4127 0.08412 0.08184 0.0
H194 H 0.34574 0.09017 0.05365 0.0
H195 H 0.37037 0.18646 0.04449 0.0
C196 C 0.41716 0.204 0.05134 0.0
C197 C 0.365 0.17234 0.08815 0.0
C198 C 0.43239 0.09237 0.03865 0.0
C199 C 0.36875 0.06285 0.07184 0.0
H200 H 0.37232 0.24151 0.08607 0.0
H201 H 0.40137 0.25923 0.066 0.0
H202 H 0.45161 0.20013 0.02962 0.0
H203 H 0.46008 0.13886 0.02284 0.0
H204 H 0.4239 0.02331 0.04077 0.0
H205 H 0.3889 0.00682 0.05887 0.0
H206 H 0.33434 0.06665 0.09352 0.0
H207 H 0.33326 0.12635 0.10276 0.0
H208 H 0.31065 0.09206 0.03809 0.0
H209 H 0.3344 0.19063 0.02932 0.0
H210 H 0.44975 0.07954 0.09669 0.0
H211 H 0.48372 0.16887 0.08208 0.0
C212 C 0.08453 0.87147 0.16727 0.0
C213 C 0.05599 0.8724 0.16763 0.0
C214 C 0.04806 0.85315 0.1775 0.0
C215 C 0.07206 0.84148 0.18254 0.0
N216 N 0.09493 0.85258 0.17664 0.0
Co217 Co 0.13404 0.84014 0.1803 0.0
N218 N 0.12213 0.80817 0.19361 0.0
C219 C 0.09605 0.80121 0.1972 0.0
C220 C 0.09438 0.77904 0.20685 0.0
C221 C 0.12098 0.77163 0.20974 0.0
C222 C 0.13741 0.78971 0.20159 0.0
N223 N 0.17314 0.82786 0.18395 0.0
C224 C 0.18349 0.80749 0.19284 0.0
C225 C 0.212 0.80602 0.19231 0.0
C226 C 0.22 0.8268 0.18293 0.0
C227 C 0.19603 0.83958 0.17826 0.0
N228 N 0.14589 0.8719 0.16693 0.0
C229 C 0.17193 0.87949 0.1635 0.0
C230 C 0.17346 0.90128 0.15369 0.0
C231 C 0.14679 0.90747 0.15047 0.0
C232 C 0.13056 0.88892 0.15852 0.0
N233 N 0.13635 0.87486 0.19345 0.0
C234 C 0.1415 0.92062 0.21325 0.0
C235 C 0.16118 0.9188 0.20365 0.0
C236 C 0.15831 0.89581 0.19396 0.0
C237 C 0.11887 0.8998 0.21259 0.0
C238 C 0.11659 0.87757 0.20264 0.0
N239 N 0.1318 0.80538 0.16725 0.0
C240 C 0.15055 0.77764 0.14896 0.0
C241 C 0.12772 0.75697 0.14835 0.0
C242 C 0.10716 0.76079 0.15748 0.0
C243 C 0.10955 0.78495 0.16672 0.0
C244 C 0.15218 0.80142 0.15842 0.0
H245 H 0.09302 0.78673 0.17328 0.0
H246 H 0.16997 0.81654 0.1583 0.0
H247 H 0.17435 0.89517 0.18712 0.0
H248 H 0.09875 0.86264 0.20271 0.0
C249 C 0.07364 0.81749 0.19188 0.0
C250 C 0.10082 0.88669 0.15728 0.0
C251 C 0.16733 0.79021 0.20232 0.0
C252 C 0.19443 0.86364 0.16894 0.0
H253 H 0.04216 0.88466 0.16119 0.0
H254 H 0.02724 0.84714 0.18028 0.0
H255 H 0.07603 0.77012 0.21151 0.0
H256 H 0.12747 0.75541 0.21723 0.0
H257 H 0.22561 0.79186 0.19827 0.0
H258 H 0.24083 0.83245 0.18006 0.0
H259 H 0.19176 0.91055 0.14911 0.0
H260 H 0.14001 0.92305 0.14282 0.0
H261 H 0.17911 0.93447 0.20379 0.0
H262 H 0.10282 0.90078 0.2197 0.0
H263 H 0.1669 0.77603 0.14202 0.0
H264 H 0.08924 0.74512 0.15758 0.0
C265 C 0.3789 0.81238 0.41974 0.0
C266 C 0.3794 0.77856 0.41961 0.0
C267 C 0.39067 0.76897 0.43093 0.0
C268 C 0.39626 0.79736 0.43733 0.0
N269 N 0.38919 0.82406 0.43072 0.0
Co270 Co 0.3932 0.86974 0.43636 0.0
N271 N 0.42151 0.85749 0.44902 0.0
C272 C 0.42593 0.82725 0.45354 0.0
C273 C 0.44644 0.82616 0.46245 0.0
C274 C 0.45518 0.85774 0.46374 0.0
C275 C 0.43944 0.87645 0.4555 0.0
N276 N 0.39686 0.91552 0.4421 0.0
C277 C 0.41666 0.9297 0.44923 0.0
C278 C 0.41098 0.96254 0.45108 0.0
C279 C 0.38647 0.96877 0.44514 0.0
C280 C 0.37861 0.93959 0.43994 0.0
N281 N 0.36498 0.88162 0.42361 0.0
C282 C 0.35007 0.90921 0.42339 0.0
C283 C 0.33342 0.9113 0.41292 0.0
C284 C 0.33817 0.88326 0.40618 0.0
C285 C 0.35732 0.86536 0.41302 0.0
N286 N 0.36446 0.86297 0.44901 0.0
C287 C 0.32279 0.85716 0.46717 0.0
C288 C 0.31895 0.84529 0.45483 0.0
C289 C 0.34013 0.84826 0.44591 0.0
C290 C 0.34828 0.87089 0.47026 0.0
C291 C 0.36856 0.87389 0.46108 0.0
N292 N 0.42193 0.87681 0.42381 0.0
C293 C 0.44233 0.91048 0.40776 0.0
C294 C 0.4636 0.88788 0.40611 0.0
C295 C 0.46348 0.85952 0.4135 0.0
C296 C 0.44248 0.85446 0.4223 0.0
C297 C 0.42172 0.90447 0.41662 0.0
H298 H 0.44285 0.83247 0.42787 0.0
H299 H 0.40567 0.92233 0.41768 0.0
H300 H 0.33667 0.83917 0.43646 0.0
H301 H 0.38748 0.8855 0.46379 0.0
C302 C 0.41286 0.80021 0.4481 0.0
C303 C 0.36731 0.83266 0.40964 0.0
C304 C 0.43939 0.91227 0.45544 0.0
C305 C 0.35675 0.93506 0.43148 0.0
H306 H 0.37244 0.76257 0.41212 0.0
H307 H 0.39542 0.74433 0.43386 0.0
H308 H 0.45439 0.80493 0.4673 0.0
H309 H 0.47079 0.86613 0.47027 0.0
H310 H 0.42306 0.98007 0.45635 0.0
H311 H 0.37607 0.99201 0.44441 0.0
H312 H 0.32067 0.93166 0.41009 0.0
H313 H 0.3289 0.87721 0.39719 0.0
H314 H 0.2996 0.83454 0.45197 0.0
H315 H 0.35267 0.87954 0.47973 0.0
H316 H 0.44172 0.9329 0.40235 0.0
H317 H 0.47926 0.84111 0.41241 0.0
C318 C 0.40913 0.12827 0.66718 0.0
C319 C 0.43754 0.12768 0.66832 0.0
C320 C 0.4439 0.14648 0.67857 0.0
C321 C 0.41909 0.1573 0.6831 0.0
N322 N 0.39724 0.14595 0.67651 0.0
Co323 Co 0.35745 0.1563 0.67939 0.0
N324 N 0.36696 0.18897 0.69282 0.0
C325 C 0.39245 0.19775 0.69671 0.0
C326 C 0.39243 0.22116 0.70596 0.0
C327 C 0.36533 0.22747 0.70823 0.0
C328 C 0.35033 0.20724 0.70026 0.0
N329 N 0.31759 0.16617 0.68244 0.0
C330 C 0.30564 0.18577 0.69119 0.0
C331 C 0.27712 0.18397 0.69062 0.0
C332 C 0.27086 0.16248 0.68122 0.0
C333 C 0.29574 0.15223 0.67664 0.0
N334 N 0.34814 0.12427 0.66567 0.0
C335 C 0.32276 0.11554 0.66167 0.0
C336 C 0.32294 0.09505 0.65143 0.0
C337 C 0.35005 0.09105 0.6485 0.0
C338 C 0.36487 0.1093 0.65721 0.0
N339 N 0.35541 0.12142 0.69246 0.0
C340 C 0.34965 0.07609 0.71231 0.0
C341 C 0.33228 0.07501 0.70181 0.0
C342 C 0.33541 0.09784 0.69209 0.0
C343 C 0.37052 0.09935 0.71251 0.0
C344 C 0.37318 0.12131 0.70253 0.0
N345 N 0.35944 0.19117 0.66646 0.0
C346 C 0.34069 0.21889 0.64821 0.0
C347 C 0.36369 0.23926 0.64754 0.0
C348 C 0.38422 0.23549 0.65668 0.0
C349 C 0.38175 0.21148 0.66592 0.0
C350 C 0.33896 0.19522 0.65769 0.0
H351 H 0.3983 0.20963 0.67246 0.0
H352 H 0.32108 0.18018 0.65766 0.0
H353 H 0.32111 0.09617 0.6845 0.0
H354 H 0.38962 0.13818 0.70331 0.0
C355 C 0.41589 0.18183 0.69216 0.0
C356 C 0.39453 0.11391 0.65653 0.0
C357 C 0.32041 0.20507 0.70059 0.0
C358 C 0.29922 0.1291 0.66708 0.0
H359 H 0.45214 0.11599 0.66205 0.0
H360 H 0.46424 0.15303 0.68186 0.0
H361 H 0.41 0.23172 0.71073 0.0
H362 H 0.35746 0.24448 0.71517 0.0
H363 H 0.26228 0.19631 0.69655 0.0
H364 H 0.25058 0.15475 0.67824 0.0
H365 H 0.30542 0.08535 0.64636 0.0
H366 H 0.35789 0.07722 0.64057 0.0
H367 H 0.31587 0.05721 0.70125 0.0
H368 H 0.38487 0.10056 0.72035 0.0
H369 H 0.32433 0.2206 0.64128 0.0
H370 H 0.40222 0.25103 0.65674 0.0
C371 C 0.11653 0.17971 0.91776 0.0
C372 C 0.11699 0.21351 0.91733 0.0
C373 C 0.10642 0.22422 0.92865 0.0
C374 C 0.10027 0.19645 0.93534 0.0
N375 N 0.10635 0.1691 0.92891 0.0
Co376 Co 0.10145 0.12396 0.935 0.0
N377 N 0.07403 0.13801 0.94776 0.0
C378 C 0.07042 0.16866 0.95202 0.0
C379 C 0.04995 0.171 0.96092 0.0
C380 C 0.04038 0.13984 0.96247 0.0
C381 C 0.0557 0.1201 0.95443 0.0
N382 N 0.09693 0.07874 0.9412 0.0
C383 C 0.07698 0.06572 0.94856 0.0
C384 C 0.08224 0.03301 0.95095 0.0
C385 C 0.10649 0.0256 0.94497 0.0
C386 C 0.1147 0.05404 0.93928 0.0
N387 N 0.12881 0.11027 0.92214 0.0
C388 C 0.14312 0.08223 0.9221 0.0
C389 C 0.15922 0.07886 0.9115 0.0
C390 C 0.15477 0.10656 0.90449 0.0
C391 C 0.13635 0.12554 0.91131 0.0
N392 N 0.13086 0.13048 0.94734 0.0
C393 C 0.17352 0.13548 0.96503 0.0
C394 C 0.17708 0.14662 0.95257 0.0
C395 C 0.15543 0.14406 0.94389 0.0
C396 C 0.14783 0.12289 0.96848 0.0
C397 C 0.12702 0.12034 0.95953 0.0
N398 N 0.07202 0.11706 0.92279 0.0
C399 C 0.04965 0.08231 0.90767 0.0
C400 C 0.02866 0.10528 0.90602 0.0
C401 C 0.03002 0.13449 0.91289 0.0
C402 C 0.05185 0.13988 0.92123 0.0
C403 C 0.07113 0.08871 0.91602 0.0
H404 H 0.05237 0.16243 0.92646 0.0
H405 H 0.0869 0.07051 0.9171 0.0
H406 H 0.1587 0.15251 0.93433 0.0
H407 H 0.10789 0.10965 0.96251 0.0
C408 C 0.08397 0.1949 0.94625 0.0
C409 C 0.127 0.15835 0.90773 0.0
C410 C 0.05468 0.08431 0.95457 0.0
C411 C 0.13632 0.05724 0.93058 0.0
H412 H 0.12409 0.22877 0.90964 0.0
H413 H 0.10246 0.24919 0.93138 0.0
H414 H 0.04246 0.19281 0.96553 0.0
H415 H 0.0244 0.13239 0.96899 0.0
H416 H 0.07009 0.01639 0.9566 0.0
H417 H 0.1165 0.00207 0.94454 0.0
H418 H 0.17142 0.05794 0.90878 0.0
H419 H 0.16379 0.11169 0.89536 0.0
H420 H 0.19658 0.15648 0.94944 0.0
H421 H 0.1437 0.11484 0.97805 0.0
H422 H 0.04935 0.05924 0.9027 0.0
H423 H 0.01452 0.15321 0.91177 0.0
C424 C 0.83184 0.78938 0.67756 0.0
C425 C 0.85393 0.76783 0.67691 0.0
C426 C 0.87555 0.78232 0.68293 0.0
C427 C 0.86572 0.81178 0.68694 0.0
N428 N 0.83895 0.81661 0.68411 0.0
Co429 Co 0.81807 0.8576 0.68738 0.0
N430 N 0.84645 0.87353 0.69942 0.0
C431 C 0.87248 0.86276 0.70039 0.0
C432 C 0.88727 0.87854 0.7096 0.0
C433 C 0.86938 0.90066 0.71477 0.0
C434 C 0.8446 0.89696 0.7084 0.0
N435 N 0.79778 0.89888 0.6905 0.0
C436 C 0.80015 0.92029 0.7002 0.0
C437 C 0.78095 0.94519 0.69911 0.0
C438 C 0.76638 0.93926 0.68825 0.0
C439 C 0.77724 0.91105 0.68339 0.0
N440 N 0.78926 0.84147 0.67553 0.0
C441 C 0.76856 0.85926 0.67061 0.0
C442 C 0.75118 0.84145 0.66309 0.0
C443 C 0.76193 0.81064 0.663 0.0
C444 C 0.78557 0.81147 0.67038 0.0
N445 N 0.7988 0.83689 0.70145 0.0
C446 C 0.77196 0.80873 0.72212 0.0
C447 C 0.75747 0.82806 0.71348 0.0
C448 C 0.77123 0.84172 0.70316 0.0
C449 C 0.80008 0.80361 0.72017 0.0
C450 C 0.81311 0.81804 0.70983 0.0
N451 N 0.83779 0.87822 0.67336 0.0
C452 C 0.86025 0.87054 0.65338 0.0
C453 C 0.8776 0.89685 0.65587 0.0
C454 C 0.87246 0.91626 0.6665 0.0
C455 C 0.85206 0.90665 0.67511 0.0
C456 C 0.84053 0.86171 0.66221 0.0
H457 H 0.84927 0.92088 0.6836 0.0
H458 H 0.82915 0.83995 0.66037 0.0
H459 H 0.75954 0.85634 0.69664 0.0
H460 H 0.83488 0.81419 0.70873 0.0
C461 C 0.88049 0.8344 0.69413 0.0
C462 C 0.80646 0.78551 0.67007 0.0
C463 C 0.82046 0.91762 0.71043 0.0
C464 C 0.7647 0.89172 0.67417 0.0
H465 H 0.85499 0.74461 0.67213 0.0
H466 H 0.89608 0.77258 0.68415 0.0
H467 H 0.90818 0.87366 0.71257 0.0
H468 H 0.87405 0.91763 0.72231 0.0
H469 H 0.77728 0.96511 0.70559 0.0
H470 H 0.74872 0.95269 0.68482 0.0
H471 H 0.73288 0.84983 0.65825 0.0
H472 H 0.75414 0.79028 0.65757 0.0
H473 H 0.73562 0.83234 0.71461 0.0
H474 H 0.81208 0.78909 0.72671 0.0
H475 H 0.86329 0.85537 0.6451 0.0
H476 H 0.88532 0.93711 0.66861 0.0
C477 C 0.89021 0.07775 0.42692 0.0
C478 C 0.87606 0.05878 0.41823 0.0
C479 C 0.87838 0.02727 0.42224 0.0
C480 C 0.89378 0.0288 0.4331 0.0
N481 N 0.90111 0.05946 0.43635 0.0
Co482 Co 0.92428 0.07292 0.45116 0.0
N483 N 0.93269 0.02636 0.45551 0.0
C484 C 0.92385 0.99947 0.44931 0.0
C485 C 0.9337 0.9709 0.45425 0.0
C486 C 0.94992 0.98005 0.46418 0.0
C487 C 0.94885 0.01383 0.46477 0.0
N488 N 0.94677 0.0865 0.46617 0.0
C489 C 0.96095 0.06823 0.47463 0.0
C490 C 0.97303 0.0874 0.48393 0.0
C491 C 0.96636 0.1189 0.48121 0.0
C492 C 0.95056 0.1172 0.4705 0.0
N493 N 0.91688 0.11946 0.44648 0.0
C494 C 0.92531 0.14648 0.45271 0.0
C495 C 0.91827 0.17502 0.44682 0.0
C496 C 0.90513 0.1657 0.436 0.0
C497 C 0.90496 0.13187 0.43595 0.0
N498 N 0.89083 0.07193 0.46209 0.0
C499 C 0.8413 0.0716 0.47612 0.0
C500 C 0.85754 0.09961 0.47534 0.0
C501 C 0.88208 0.09914 0.46847 0.0
C502 C 0.85082 0.04348 0.4701 0.0
C503 C 0.87525 0.04422 0.46318 0.0
N504 N 0.95721 0.074 0.44019 0.0
C505 C 0.99698 0.10253 0.43215 0.0
C506 C -0.00021 0.07994 0.42232 0.0
C507 C 0.98179 0.05341 0.42203 0.0
C508 C 0.96091 0.05087 0.43101 0.0
C509 C 0.97577 0.09903 0.44097 0.0
H510 H 0.94741 0.03054 0.4301 0.0
H511 H 0.97428 0.11725 0.44816 0.0
H512 H 0.89335 0.12128 0.4684 0.0
H513 H 0.88084 0.02198 0.45876 0.0
C514 C 0.9053 0.00188 0.43923 0.0
C515 C 0.89448 0.11266 0.42543 0.0
C516 C 0.96333 0.03282 0.47435 0.0
C517 C 0.94052 0.14409 0.46387 0.0
H518 H 0.86598 0.06673 0.40963 0.0
H519 H 0.87106 0.00567 0.41742 0.0
H520 H 0.92943 0.94634 0.45108 0.0
H521 H 0.96114 0.9637 0.47033 0.0
H522 H 0.98543 0.07946 0.49186 0.0
H523 H 0.97259 0.1405 0.48635 0.0
H524 H 0.92279 0.19963 0.44986 0.0
H525 H 0.89711 0.1819 0.4288 0.0
H526 H 0.85117 0.12218 0.47977 0.0
H527 H 0.83954 0.02079 0.47069 0.0
H528 H 0.01081 0.12312 0.43293 0.0
H529 H 0.98297 0.03534 0.41458 0.0
C530 C 0.651 0.2111 0.18091 0.0
C531 C 0.63125 0.23554 0.18151 0.0
C532 C 0.61611 0.22997 0.19215 0.0
C533 C 0.62708 0.20232 0.19733 0.0
N534 N 0.64874 0.19018 0.19081 0.0
Co535 Co 0.66757 0.14729 0.19387 0.0
N536 N 0.64341 0.13747 0.2088 0.0
C537 C 0.62447 0.15758 0.214 0.0
C538 C 0.61306 0.14596 0.22494 0.0
C539 C 0.62569 0.1168 0.22699 0.0
C540 C 0.6439 0.11202 0.21701 0.0
N541 N 0.68521 0.10361 0.19635 0.0
C542 C 0.68011 0.08007 0.20504 0.0
C543 C 0.69598 0.05249 0.20284 0.0
C544 C 0.71224 0.05925 0.19265 0.0
C545 C 0.70516 0.09023 0.1891 0.0
N546 N 0.69276 0.15792 0.17946 0.0
C547 C 0.71464 0.14031 0.17552 0.0
C548 C 0.72857 0.15424 0.16562 0.0
C549 C 0.71448 0.18217 0.16296 0.0
C550 C 0.69249 0.18344 0.17133 0.0
N551 N 0.69424 0.16779 0.20565 0.0
C552 C 0.73103 0.19569 0.22313 0.0
C553 C 0.73909 0.16951 0.21556 0.0
C554 C 0.72056 0.15614 0.20688 0.0
C555 C 0.70445 0.20792 0.2217 0.0
C556 C 0.68657 0.19374 0.21301 0.0
N557 N 0.64096 0.12723 0.18207 0.0
C558 C 0.63124 0.10636 0.16117 0.0
C559 C 0.60342 0.11395 0.16263 0.0
C560 C 0.59433 0.12481 0.17443 0.0
C561 C 0.61329 0.13096 0.184 0.0
C562 C 0.64958 0.11292 0.17104 0.0
H563 H 0.60518 0.14027 0.19265 0.0
H564 H 0.67079 0.10778 0.1693 0.0
H565 H 0.728 0.1363 0.20135 0.0
H566 H 0.66657 0.20408 0.21258 0.0
C567 C 0.61719 0.18676 0.20814 0.0
C568 C 0.67069 0.20779 0.17051 0.0
C569 C 0.66162 0.08335 0.21588 0.0
C570 C 0.71882 0.10867 0.17994 0.0
H571 H 0.62749 0.25501 0.17485 0.0
H572 H 0.59864 0.24386 0.1955 0.0
H573 H 0.59757 0.15744 0.2308 0.0
H574 H 0.62202 0.10115 0.23505 0.0
H575 H 0.69628 0.03008 0.20823 0.0
H576 H 0.72796 0.0438 0.18857 0.0
H577 H 0.74599 0.1444 0.16051 0.0
H578 H 0.71916 0.199 0.15537 0.0
H579 H 0.75963 0.15946 0.21627 0.0
H580 H 0.69715 0.22792 0.2275 0.0
H581 H 0.6391 0.09735 0.15224 0.0
H582 H 0.57275 0.1299 0.1761 0.0
C583 C 0.61523 0.92753 0.92502 0.0
C584 C 0.6307 0.94588 0.91659 0.0
C585 C 0.62814 0.97761 0.92026 0.0
C586 C 0.61143 0.97683 0.9307 0.0
N587 N 0.60332 0.94647 0.93401 0.0
Co588 Co 0.57893 0.93417 0.94858 0.0
N589 N 0.57293 0.98117 0.9532 0.0
C590 C 0.58357 0.00762 0.94731 0.0
C591 C 0.5753 0.03667 0.95243 0.0
C592 C 0.55829 0.02837 0.96218 0.0
C593 C 0.5573 0.99456 0.96247 0.0
N594 N 0.55475 0.92183 0.9632 0.0
C595 C 0.54115 0.94084 0.97163 0.0
C596 C 0.52707 0.9223 0.98052 0.0
C597 C 0.53174 0.89047 0.97755 0.0
C598 C 0.54842 0.89135 0.9671 0.0
N599 N 0.58454 0.88721 0.94382 0.0
C600 C 0.57399 0.86078 0.94975 0.0
C601 C 0.58017 0.83184 0.94399 0.0
C602 C 0.5954 0.84018 0.93366 0.0
C603 C 0.59785 0.87393 0.93379 0.0
N604 N 0.6117 0.93233 0.95983 0.0
C605 C 0.66049 0.92837 0.97424 0.0
C606 C 0.64186 0.90243 0.97389 0.0
C607 C 0.61767 0.90506 0.96681 0.0
C608 C 0.65366 0.9567 0.96763 0.0
C609 C 0.6296 0.95803 0.9605 0.0
N610 N 0.54653 0.9359 0.93724 0.0
C611 C 0.50718 0.90961 0.92772 0.0
C612 C 0.50484 0.93455 0.91874 0.0
C613 C 0.52264 0.96115 0.91978 0.0
C614 C 0.54324 0.96121 0.92894 0.0
C615 C 0.5278 0.911 0.93692 0.0
H616 H 0.55668 0.98165 0.9289 0.0
H617 H 0.5287 0.89122 0.94345 0.0
H618 H 0.60436 0.88453 0.96702 0.0
H619 H 0.62619 0.98014 0.95555 0.0
C620 C 0.60152 0.00429 0.93705 0.0
C621 C 0.61214 0.89229 0.92394 0.0
C622 C 0.54105 0.97637 0.97167 0.0
C623 C 0.55763 0.86402 0.96052 0.0
H624 H 0.64234 0.93723 0.90853 0.0
H625 H 0.6369 0.9988 0.91568 0.0
H626 H 0.58094 0.06099 0.94943 0.0
H627 H 0.54776 0.04531 0.96835 0.0
H628 H 0.51468 0.93089 0.98835 0.0
H629 H 0.52377 0.86921 0.98237 0.0
H630 H 0.57386 0.80761 0.94681 0.0
H631 H 0.60331 0.82322 0.92673 0.0
H632 H 0.64605 0.87985 0.97882 0.0
H633 H 0.6668 0.97799 0.96789 0.0
H634 H 0.49395 0.88842 0.9274 0.0
H635 H 0.52115 0.9817 0.91339 0.0
C636 C 0.85639 0.19781 0.81799 0.0
C637 C 0.879 0.21845 0.81736 0.0
C638 C 0.89427 0.20867 0.80723 0.0
C639 C 0.88041 0.18254 0.80232 0.0
N640 N 0.85679 0.17542 0.80851 0.0
Co641 Co 0.83247 0.13651 0.80565 0.0
N642 N 0.8568 0.1199 0.7917 0.0
C643 C 0.87984 0.13421 0.78715 0.0
C644 C 0.89178 0.11764 0.77732 0.0
C645 C 0.87508 0.09148 0.77529 0.0
C646 C 0.85376 0.09371 0.78401 0.0
N647 N 0.80873 0.09703 0.80317 0.0
C648 C 0.81052 0.07262 0.79454 0.0
C649 C 0.78935 0.05022 0.796 0.0
C650 C 0.77363 0.06087 0.80586 0.0
C651 C 0.78594 0.08909 0.80984 0.0
N652 N 0.80764 0.15376 0.81925 0.0
C653 C 0.78339 0.14099 0.82308 0.0
C654 C 0.771 0.15827 0.8326 0.0
C655 C 0.78868 0.18321 0.8352 0.0
C656 C 0.81103 0.17943 0.82715 0.0
N657 N 0.81079 0.16063 0.79278 0.0
C658 C 0.78064 0.19175 0.77353 0.0
C659 C 0.76738 0.17292 0.78267 0.0
C660 C 0.78275 0.15753 0.7921 0.0
C661 C 0.80909 0.19543 0.77434 0.0
C662 C 0.8236 0.18005 0.78403 0.0
N663 N 0.85421 0.11266 0.81854 0.0
C664 C 0.85786 0.09005 0.83961 0.0
C665 C 0.88653 0.09019 0.83879 0.0
C666 C 0.89859 0.09943 0.82736 0.0
C667 C 0.88221 0.11044 0.81745 0.0
C668 C 0.84215 0.1008 0.82933 0.0
H669 H 0.89287 0.11829 0.80922 0.0
H670 H 0.82035 0.10035 0.8305 0.0
H671 H 0.77151 0.14289 0.7986 0.0
H672 H 0.84519 0.18402 0.78414 0.0
C673 C 0.89004 0.16287 0.79249 0.0
C674 C 0.83601 0.19893 0.82817 0.0
C675 C 0.83076 0.07085 0.78434 0.0
C676 C 0.77477 0.11052 0.81874 0.0
H677 H 0.88457 0.23787 0.82378 0.0
H678 H 0.9138 0.21856 0.80415 0.0
H679 H 0.91033 0.12393 0.77221 0.0
H680 H 0.87811 0.073 0.76812 0.0
H681 H 0.7851 0.02894 0.79029 0.0
H682 H 0.75478 0.05008 0.80935 0.0
H683 H 0.75209 0.15248 0.83752 0.0
H684 H 0.78605 0.20128 0.84256 0.0
H685 H 0.74531 0.16934 0.78236 0.0
H686 H 0.82013 0.21026 0.76754 0.0
H687 H 0.84763 0.0824 0.84822 0.0
H688 H 0.92075 0.1 0.82626 0.0
C689 C 0.61452 0.07851 0.57149 0.0
C690 C 0.62926 0.06079 0.58037 0.0
C691 C 0.62705 0.0288 0.57697 0.0
C692 C 0.61111 0.02881 0.56626 0.0
N693 N 0.60334 0.05894 0.56251 0.0
Co694 Co 0.57914 0.07024 0.54776 0.0
N695 N 0.5718 0.02302 0.54409 0.0
C696 C 0.58147 0.99701 0.5506 0.0
C697 C 0.57274 0.96765 0.54591 0.0
C698 C 0.55655 0.97529 0.53578 0.0
C699 C 0.55644 0.00903 0.53486 0.0
N700 N 0.55549 0.08163 0.53284 0.0
C701 C 0.54214 0.06206 0.52453 0.0
C702 C 0.52868 0.07995 0.51525 0.0
C703 C 0.53379 0.11197 0.51775 0.0
C704 C 0.55004 0.11182 0.52834 0.0
N705 N 0.58574 0.11744 0.55167 0.0
C706 C 0.57621 0.14355 0.5452 0.0
C707 C 0.58318 0.17287 0.5505 0.0
C708 C 0.5975 0.16505 0.56118 0.0
C709 C 0.59835 0.13127 0.56175 0.0
N710 N 0.61194 0.06937 0.53648 0.0
C711 C 0.66026 0.0695 0.52176 0.0
C712 C 0.6429 0.09652 0.52195 0.0
C713 C 0.61885 0.09578 0.52918 0.0
C714 C 0.65276 0.04211 0.52874 0.0
C715 C 0.62882 0.04262 0.53602 0.0
N716 N 0.54676 0.07128 0.55913 0.0
C717 C 0.50751 0.10003 0.56764 0.0
C718 C 0.50589 0.07834 0.57782 0.0
C719 C 0.52403 0.05194 0.57802 0.0
C720 C 0.54401 0.0488 0.56863 0.0
C721 C 0.52786 0.09597 0.55842 0.0
H722 H 0.55762 0.02861 0.56949 0.0
H723 H 0.52844 0.11359 0.551 0.0
H724 H 0.60637 0.11698 0.52874 0.0
H725 H 0.6247 0.02114 0.54128 0.0
C726 C 0.60002 0.00097 0.5606 0.0
C727 C 0.61002 0.11353 0.57241 0.0
C728 C 0.54191 0.02656 0.52489 0.0
C729 C 0.55991 0.13964 0.53443 0.0
H730 H 0.63972 0.0699 0.58869 0.0
H731 H 0.63492 0.00792 0.58207 0.0
H732 H 0.57792 0.94354 0.54931 0.0
H733 H 0.54627 0.958 0.52966 0.0
H734 H 0.51653 0.07078 0.50744 0.0
H735 H 0.52653 0.13287 0.51247 0.0
H736 H 0.57786 0.19701 0.54719 0.0
H737 H 0.60581 0.18221 0.56796 0.0
H738 H 0.64776 0.1181 0.51648 0.0
H739 H 0.66571 0.02062 0.52888 0.0
H740 H 0.49344 0.1204 0.56687 0.0
H741 H 0.52372 0.03445 0.5857 0.0
C742 C 0.64874 0.78891 0.32026 0.0
C743 C 0.62817 0.76539 0.31994 0.0
C744 C 0.61256 0.77166 0.3095 0.0
C745 C 0.62411 0.79877 0.30417 0.0
N746 N 0.64655 0.8099 0.31038 0.0
Co747 Co 0.66674 0.85174 0.30699 0.0
N748 N 0.6418 0.86287 0.29248 0.0
C749 C 0.6218 0.84374 0.28758 0.0
C750 C 0.60987 0.85611 0.27688 0.0
C751 C 0.62322 0.88475 0.27469 0.0
C752 C 0.64239 0.88848 0.28435 0.0
N753 N 0.68585 0.89442 0.30418 0.0
C754 C 0.6808 0.91838 0.29566 0.0
C755 C 0.69789 0.94505 0.29758 0.0
C756 C 0.71486 0.93726 0.30741 0.0
C757 C 0.70695 0.90663 0.31105 0.0
N758 N 0.69257 0.83978 0.321 0.0
C759 C 0.71543 0.85614 0.32455 0.0
C760 C 0.72948 0.84154 0.33426 0.0
C761 C 0.71445 0.8145 0.33722 0.0
C762 C 0.69185 0.81441 0.32919 0.0
N763 N 0.69166 0.82984 0.29476 0.0
C764 C 0.72566 0.80144 0.27621 0.0
C765 C 0.73537 0.82663 0.28388 0.0
C766 C 0.71823 0.84023 0.29308 0.0
C767 C 0.69895 0.79015 0.27819 0.0
C768 C 0.68247 0.80453 0.28742 0.0
N769 N 0.64188 0.87338 0.31918 0.0
C770 C 0.63464 0.8986 0.33957 0.0
C771 C 0.60622 0.89451 0.33842 0.0
C772 C 0.59591 0.88173 0.32713 0.0
C773 C 0.61395 0.87152 0.31768 0.0
C774 C 0.65199 0.8882 0.32983 0.0
H775 H 0.60483 0.86105 0.30946 0.0
H776 H 0.67354 0.89146 0.33129 0.0
H777 H 0.72693 0.85931 0.29861 0.0
H778 H 0.66226 0.79496 0.28827 0.0
C779 C 0.614 0.81485 0.29351 0.0
C780 C 0.66917 0.79132 0.33039 0.0
C781 C 0.66103 0.91637 0.28526 0.0
C782 C 0.72057 0.88748 0.32 0.0
H783 H 0.62422 0.74611 0.32665 0.0
H784 H 0.59443 0.75859 0.3064 0.0
H785 H 0.59352 0.84548 0.27128 0.0
H786 H 0.61936 0.90077 0.26677 0.0
H787 H 0.69847 0.96756 0.29226 0.0
H788 H 0.73145 0.95184 0.31123 0.0
H789 H 0.74765 0.85042 0.33908 0.0
H790 H 0.71897 0.79752 0.34477 0.0
H791 H 0.75614 0.83581 0.28282 0.0
H792 H 0.69043 0.77083 0.2724 0.0
H793 H 0.64351 0.90909 0.34804 0.0
H794 H 0.57405 0.87799 0.32579 0.0
C795 C 0.88427 0.92717 0.07363 0.0
C796 C 0.87084 0.94606 0.0826 0.0
C797 C 0.873 0.97761 0.07864 0.0
C798 C 0.88764 0.97618 0.06757 0.0
N799 N 0.89456 0.94554 0.06407 0.0
Co800 Co 0.91774 0.93233 0.04919 0.0
N801 N 0.92371 0.97902 0.04418 0.0
C802 C 0.91318 0.0058 0.04989 0.0
C803 C 0.92026 0.03447 0.04411 0.0
C804 C 0.93618 0.02553 0.03406 0.0
C805 C 0.938 0.99177 0.03433 0.0
N806 N 0.94123 0.91903 0.03446 0.0
C807 C 0.95416 0.9375 0.02564 0.0
C808 C 0.96882 0.91846 0.01711 0.0
C809 C 0.96474 0.88683 0.02057 0.0
C810 C 0.94803 0.88832 0.03099 0.0
N811 N 0.9115 0.88569 0.0541 0.0
C812 C 0.92041 0.85877 0.04794 0.0
C813 C 0.91312 0.83014 0.05371 0.0
C814 C 0.89912 0.8393 0.06431 0.0
C815 C 0.89884 0.87313 0.06441 0.0
N816 N 0.88449 0.93077 0.03826 0.0
C817 C 0.83677 0.92814 0.02325 0.0
C818 C 0.85593 0.90292 0.02293 0.0
C819 C 0.87967 0.90493 0.03032 0.0
C820 C 0.84182 0.95476 0.03109 0.0
C821 C 0.86548 0.95542 0.03854 0.0
N822 N 0.95068 0.93377 0.06022 0.0
C823 C 0.98795 0.90565 0.07069 0.0
C824 C 0.99176 0.93181 0.07901 0.0
C825 C 0.97601 0.95986 0.07707 0.0
C826 C 0.95572 0.96026 0.06775 0.0
C827 C 0.9677 0.90732 0.06133 0.0
H828 H 0.94382 0.98195 0.06709 0.0
H829 H 0.96553 0.88649 0.05539 0.0
H830 H 0.89378 0.88531 0.02942 0.0
H831 H 0.86776 0.97611 0.04446 0.0
C832 C 0.89678 0.0032 0.06072 0.0
C833 C 0.88813 0.89215 0.07494 0.0
C834 C 0.95309 0.97296 0.0249 0.0
C835 C 0.93767 0.86128 0.03743 0.0
H836 H 0.86112 0.93797 0.09126 0.0
H837 H 0.8656 0.99913 0.08349 0.0
H838 H 0.91442 0.05893 0.04683 0.0
H839 H 0.94525 0.04203 0.02724 0.0
H840 H 0.9811 0.92657 0.00917 0.0
H841 H 0.97279 0.86529 0.01595 0.0
H842 H 0.91828 0.80559 0.05081 0.0
H843 H 0.89084 0.823 0.07141 0.0
H844 H 0.85282 0.882 0.01684 0.0
H845 H 0.82732 0.97476 0.03163 0.0
H846 H -0.00037 0.88334 0.0717 0.0
H847 H 0.97878 0.98127 0.08292 0.0
C848 C 0.59449 0.63316 0.83385 0.0
C849 C 0.56595 0.63337 0.83376 0.0
C850 C 0.5582 0.65217 0.82372 0.0
C851 C 0.58235 0.66215 0.81826 0.0
N852 N 0.60507 0.6503 0.82405 0.0
Co853 Co 0.64444 0.65928 0.81959 0.0
N854 N 0.63326 0.69147 0.80623 0.0
C855 C 0.60731 0.70038 0.80311 0.0
C856 C 0.60604 0.72241 0.79339 0.0
C857 C 0.63273 0.72779 0.79004 0.0
C858 C 0.64887 0.70874 0.79798 0.0
N859 N 0.68381 0.66785 0.81501 0.0
C860 C 0.6946 0.68718 0.80588 0.0
C861 C 0.72314 0.68591 0.80581 0.0
C862 C 0.73064 0.66446 0.81504 0.0
C863 C 0.70638 0.65403 0.82024 0.0
N864 N 0.65549 0.62763 0.83316 0.0
C865 C 0.68132 0.61833 0.83626 0.0
C866 C 0.68252 0.59817 0.84659 0.0
C867 C 0.65593 0.59496 0.85052 0.0
C868 C 0.64 0.61332 0.84228 0.0
N869 N 0.64348 0.62358 0.80681 0.0
C870 C 0.64371 0.57586 0.7875 0.0
C871 C 0.6643 0.57657 0.79674 0.0
C872 C 0.66376 0.60038 0.80623 0.0
C873 C 0.6228 0.5991 0.78827 0.0
C874 C 0.62302 0.6223 0.7979 0.0
N875 N 0.64542 0.69495 0.83225 0.0
C876 C 0.66817 0.72368 0.84929 0.0
C877 C 0.64571 0.74469 0.85069 0.0
C878 C 0.62325 0.74041 0.84261 0.0
C879 C 0.62358 0.71577 0.83352 0.0
C880 C 0.66757 0.69914 0.84011 0.0
H881 H 0.60575 0.71379 0.82773 0.0
H882 H 0.68516 0.6837 0.83959 0.0
H883 H 0.68011 0.59965 0.81291 0.0
H884 H 0.60655 0.63923 0.79777 0.0
C885 C 0.58446 0.68579 0.8088 0.0
C886 C 0.61059 0.6185 0.84397 0.0
C887 C 0.67874 0.70647 0.79686 0.0
C888 C 0.70413 0.6313 0.83002 0.0
H889 H 0.55224 0.62215 0.84055 0.0
H890 H 0.53748 0.65908 0.82111 0.0
H891 H 0.58784 0.73256 0.789 0.0
H892 H 0.6394 0.74337 0.78237 0.0
H893 H 0.73711 0.69892 0.79964 0.0
H894 H 0.7513 0.65716 0.8176 0.0
H895 H 0.70069 0.58821 0.85108 0.0
H896 H 0.6492 0.58157 0.85877 0.0
H897 H 0.68076 0.55879 0.7967 0.0
H898 H 0.60653 0.60001 0.78128 0.0
H899 H 0.68624 0.72614 0.85521 0.0
H900 H 0.60507 0.75552 0.84343 0.0
C901 C 0.61864 0.31123 0.08018 0.0
C902 C 0.61197 0.27836 0.08099 0.0
C903 C 0.59594 0.27134 0.07078 0.0
C904 C 0.59343 0.30017 0.06438 0.0
N905 N 0.60704 0.32527 0.06984 0.0
Co906 Co 0.60725 0.37189 0.06408 0.0
N907 N 0.58017 0.36231 0.05021 0.0
C908 C 0.56886 0.3331 0.04737 0.0
C909 C 0.5509 0.33399 0.0374 0.0
C910 C 0.55049 0.36576 0.03367 0.0
C911 C 0.56826 0.38249 0.04167 0.0
N912 N 0.60792 0.41838 0.05815 0.0
C913 C 0.59372 0.43318 0.04871 0.0
C914 C 0.60036 0.46599 0.04777 0.0
C915 C 0.61956 0.47212 0.05688 0.0
C916 C 0.62348 0.44288 0.06287 0.0
N917 N 0.63365 0.38165 0.07821 0.0
C918 C 0.64545 0.41072 0.08088 0.0
C919 C 0.66229 0.41011 0.09127 0.0
C920 C 0.66081 0.37892 0.09566 0.0
C921 C 0.64293 0.36229 0.0877 0.0
N922 N 0.63831 0.36209 0.05239 0.0
C923 C 0.67924 0.3545 0.03371 0.0
C924 C 0.68206 0.37754 0.04333 0.0
C925 C 0.66161 0.38086 0.05248 0.0
C926 C 0.65648 0.33377 0.03409 0.0
C927 C 0.63653 0.3378 0.04351 0.0
N928 N 0.57632 0.38189 0.07562 0.0
C929 C 0.55495 0.41733 0.091 0.0
C930 C 0.53312 0.39557 0.09254 0.0
C931 C 0.53305 0.3671 0.08528 0.0
C932 C 0.55466 0.36082 0.07692 0.0
C933 C 0.57614 0.41007 0.08257 0.0
H934 H 0.5536 0.33861 0.07171 0.0
H935 H 0.59226 0.42753 0.08188 0.0
H936 H 0.66502 0.39929 0.05933 0.0
H937 H 0.61961 0.32144 0.04319 0.0
C938 C 0.5759 0.30514 0.05413 0.0
C939 C 0.63502 0.32834 0.08972 0.0
C940 C 0.57333 0.41741 0.04063 0.0
C941 C 0.64025 0.43819 0.07344 0.0
H942 H 0.61729 0.26122 0.08835 0.0
H943 H 0.58623 0.24828 0.06859 0.0
H944 H 0.53953 0.31391 0.03331 0.0
H945 H 0.53854 0.37545 0.02589 0.0
H946 H 0.59195 0.48379 0.04128 0.0
H947 H 0.6291 0.49528 0.05904 0.0
H948 H 0.67404 0.43004 0.09524 0.0
H949 H 0.67151 0.36958 0.10388 0.0
H950 H 0.69982 0.39345 0.04373 0.0
H951 H 0.65347 0.31528 0.02691 0.0
H952 H 0.55573 0.43995 0.09627 0.0
H953 H 0.51675 0.34928 0.08624 0.0
C954 C 0.90729 0.37432 0.33483 0.0
C955 C 0.93579 0.37518 0.33576 0.0
C956 C 0.94579 0.35687 0.32603 0.0
C957 C 0.92297 0.34569 0.3198 0.0
N958 N 0.89894 0.35629 0.32479 0.0
Co959 Co 0.86086 0.34312 0.31953 0.0
N960 N 0.87563 0.31412 0.30583 0.0
C961 C 0.90229 0.31024 0.30247 0.0
C962 C 0.90602 0.29036 0.2922 0.0
C963 C 0.88017 0.28136 0.28863 0.0
C964 C 0.86212 0.2962 0.29703 0.0
N965 N 0.82287 0.32875 0.31474 0.0
C966 C 0.81449 0.30827 0.30547 0.0
C967 C 0.78614 0.3042 0.30555 0.0
C968 C 0.7762 0.32334 0.31507 0.0
C969 C 0.79896 0.33773 0.32029 0.0
N970 N 0.84607 0.37317 0.33285 0.0
C971 C 0.81936 0.38011 0.3352 0.0
C972 C 0.81563 0.40167 0.34497 0.0
C973 C 0.84149 0.40862 0.34921 0.0
C974 C 0.8595 0.39064 0.34179 0.0
N975 N 0.85909 0.37927 0.30701 0.0
C976 C 0.85611 0.42699 0.28786 0.0
C977 C 0.83267 0.41776 0.29459 0.0
C978 C 0.83466 0.39432 0.30416 0.0
C979 C 0.88114 0.41256 0.29107 0.0
C980 C 0.88214 0.38891 0.30054 0.0
N981 N 0.86262 0.30698 0.33197 0.0
C982 C 0.84495 0.27962 0.35054 0.0
C983 C 0.86698 0.25772 0.35046 0.0
C984 C 0.88634 0.26043 0.34074 0.0
C985 C 0.88383 0.28502 0.3317 0.0
C986 C 0.84312 0.30377 0.34126 0.0
H987 H 0.8995 0.28597 0.32467 0.0
H988 H 0.82597 0.31989 0.3419 0.0
H989 H 0.81607 0.38859 0.309 0.0
H990 H 0.90179 0.37849 0.30227 0.0
C991 C 0.92339 0.32494 0.30935 0.0
C992 C 0.88899 0.38946 0.34407 0.0
C993 C 0.83234 0.29368 0.29596 0.0
C994 C 0.79836 0.36236 0.32941 0.0
H995 H 0.94818 0.38712 0.34289 0.0
H996 H 0.96713 0.35169 0.32392 0.0
H997 H 0.92524 0.28345 0.28777 0.0
H998 H 0.87519 0.26596 0.28064 0.0
H999 H 0.77387 0.28959 0.29915 0.0
H1000 H 0.75486 0.3272 0.31758 0.0
H1001 H 0.79637 0.41006 0.34894 0.0
H1002 H 0.84653 0.42424 0.35713 0.0
H1003 H 0.81289 0.4287 0.29254 0.0
H1004 H 0.89984 0.41882 0.28605 0.0
H1005 H 0.82951 0.27877 0.35793 0.0
H1006 H 0.9035 0.24368 0.34008 0.0
C1007 C 0.87493 0.67873 0.58476 0.0
C1008 C 0.87983 0.71168 0.58682 0.0
C1009 C 0.89497 0.72257 0.57682 0.0
C1010 C 0.89886 0.69575 0.56934 0.0
N1011 N 0.88701 0.66831 0.5739 0.0
Co1012 Co 0.89045 0.62322 0.56667 0.0
N1013 N 0.91354 0.63927 0.55221 0.0
C1014 C 0.91962 0.67063 0.54945 0.0
C1015 C 0.93496 0.67434 0.53867 0.0
C1016 C 0.93895 0.64348 0.53425 0.0
C1017 C 0.92591 0.62265 0.54269 0.0
N1018 N 0.89505 0.57789 0.55982 0.0
C1019 C 0.91019 0.56688 0.54991 0.0
C1020 C 0.90895 0.53317 0.54889 0.0
C1021 C 0.89232 0.52251 0.55843 0.0
C1022 C 0.88458 0.55013 0.56477 0.0
N1023 N 0.86639 0.6074 0.58084 0.0
C1024 C 0.85713 0.57664 0.58258 0.0
C1025 C 0.83992 0.57328 0.59276 0.0
C1026 C 0.83807 0.60369 0.59788 0.0
C1027 C 0.85459 0.6239 0.59058 0.0
N1028 N 0.85722 0.62992 0.55607 0.0
C1029 C 0.81375 0.63761 0.53868 0.0
C1030 C 0.81868 0.60762 0.54451 0.0
C1031 C 0.84012 0.60444 0.55319 0.0
C1032 C 0.83007 0.66408 0.54223 0.0
C1033 C 0.85148 0.65974 0.55085 0.0
N1034 N 0.92368 0.61653 0.57713 0.0
C1035 C 0.94882 0.58603 0.5929 0.0
C1036 C 0.97025 0.60866 0.59256 0.0
C1037 C 0.96839 0.63465 0.58409 0.0
C1038 C 0.94513 0.63809 0.57652 0.0
C1039 C 0.92585 0.59042 0.58515 0.0
H1040 H 0.94486 0.65859 0.57035 0.0
H1041 H 0.90992 0.57269 0.58595 0.0
H1042 H 0.84274 0.58091 0.55721 0.0
H1043 H 0.8633 0.68084 0.55296 0.0
C1044 C 0.91295 0.69569 0.55783 0.0
C1045 C 0.85865 0.65846 0.59336 0.0
C1046 C 0.92614 0.58729 0.54131 0.0
C1047 C 0.86664 0.55101 0.57508 0.0
H1048 H 0.87328 0.72647 0.59474 0.0
H1049 H 0.90236 0.74711 0.57523 0.0
H1050 H 0.94288 0.69674 0.53467 0.0
H1051 H 0.95043 0.63703 0.52583 0.0
H1052 H 0.91903 0.51782 0.54197 0.0
H1053 H 0.88653 0.4976 0.56048 0.0
H1054 H 0.83026 0.55122 0.59619 0.0
H1055 H 0.8261 0.61015 0.60615 0.0
H1056 H 0.80671 0.58625 0.54211 0.0
H1057 H 0.82659 0.68807 0.53827 0.0
H1058 H 0.94931 0.56564 0.5994 0.0
H1059 H 0.98471 0.65252 0.58337 0.0
C1060 C 0.58409 0.36404 0.66833 0.0
C1061 C 0.55568 0.36105 0.66898 0.0
C1062 C 0.55016 0.34105 0.67897 0.0
C1063 C 0.57538 0.33286 0.68379 0.0
N1064 N 0.59672 0.34701 0.67767 0.0
Co1065 Co 0.63699 0.33964 0.68077 0.0
N1066 N 0.62895 0.30655 0.69426 0.0
C1067 C 0.6039 0.29662 0.69832 0.0
C1068 C 0.60493 0.27369 0.70773 0.0
C1069 C 0.63225 0.26897 0.70995 0.0
C1070 C 0.64637 0.28959 0.70179 0.0
N1071 N 0.67725 0.33201 0.68373 0.0
C1072 C 0.69009 0.31275 0.69233 0.0
C1073 C 0.71851 0.31559 0.6915 0.0
C1074 C 0.72381 0.33736 0.68207 0.0
C1075 C 0.69848 0.3467 0.67772 0.0
N1076 N 0.64494 0.37288 0.66735 0.0
C1077 C 0.66985 0.38414 0.6637 0.0
C1078 C 0.66871 0.40604 0.65392 0.0
C1079 C 0.64148 0.4084 0.65095 0.0
C1080 C 0.62762 0.38763 0.65911 0.0
N1081 N 0.63716 0.37439 0.69394 0.0
C1082 C 0.63879 0.42083 0.71369 0.0
C1083 C 0.65929 0.41992 0.70442 0.0
C1084 C 0.65805 0.39676 0.69471 0.0
C1085 C 0.61727 0.39842 0.71276 0.0
C1086 C 0.61681 0.37582 0.7029 0.0
N1087 N 0.63679 0.30496 0.66768 0.0
C1088 C 0.65452 0.28182 0.64825 0.0
C1089 C 0.63349 0.25856 0.64804 0.0
C1090 C 0.61483 0.25827 0.65809 0.0
C1091 C 0.6168 0.28146 0.66769 0.0
C1092 C 0.65583 0.30454 0.65811 0.0
H1093 H 0.60161 0.28014 0.67491 0.0
H1094 H 0.6721 0.32193 0.65768 0.0
H1095 H 0.67437 0.39732 0.68801 0.0
H1096 H 0.5999 0.35948 0.70287 0.0
C1097 C 0.57976 0.30959 0.69322 0.0
C1098 C 0.59829 0.38107 0.65813 0.0
C1099 C 0.67624 0.29291 0.70186 0.0
C1100 C 0.69399 0.37086 0.66864 0.0
H1101 H 0.54048 0.37121 0.66264 0.0
H1102 H 0.5302 0.33229 0.68198 0.0
H1103 H 0.58784 0.26204 0.71249 0.0
H1104 H 0.64082 0.25252 0.71691 0.0
H1105 H 0.73391 0.30388 0.69732 0.0
H1106 H 0.74373 0.34611 0.67901 0.0
H1107 H 0.68575 0.41768 0.64912 0.0
H1108 H 0.63283 0.42285 0.64336 0.0
H1109 H 0.6762 0.4371 0.70457 0.0
H1110 H 0.60102 0.39772 0.71976 0.0
H1111 H 0.66945 0.28317 0.64066 0.0
H1112 H 0.59855 0.24029 0.65857 0.0
C1113 C 0.88665 0.30402 0.91933 0.0
C1114 C 0.89438 0.27143 0.91891 0.0
C1115 C 0.90861 0.26525 0.92976 0.0
C1116 C 0.90914 0.29431 0.9361 0.0
N1117 N 0.89577 0.3187 0.93007 0.0
Co1118 Co 0.89477 0.3658 0.93519 0.0
N1119 N 0.9181 0.35716 0.95051 0.0
C1120 C 0.92703 0.32782 0.95466 0.0
C1121 C 0.94248 0.32941 0.96548 0.0
C1122 C 0.94353 0.3617 0.96844 0.0
C1123 C 0.92855 0.37802 0.95921 0.0
N1124 N 0.89478 0.41315 0.93996 0.0
C1125 C 0.90843 0.4289 0.94934 0.0
C1126 C 0.90366 0.46223 0.949 0.0
C1127 C 0.88659 0.46781 0.93898 0.0
C1128 C 0.88194 0.43771 0.93379 0.0
N1129 N 0.8706 0.37423 0.92014 0.0
C1130 C 0.8586 0.40282 0.91693 0.0
C1131 C 0.84265 0.40099 0.90627 0.0
C1132 C 0.84483 0.36945 0.90232 0.0
C1133 C 0.86233 0.35388 0.91077 0.0
N1134 N 0.86147 0.35818 0.94573 0.0
C1135 C 0.81775 0.35184 0.9631 0.0
C1136 C 0.81923 0.37841 0.95489 0.0
C1137 C 0.84101 0.38107 0.94638 0.0
C1138 C 0.83756 0.32737 0.96189 0.0
C1139 C 0.85893 0.3309 0.95314 0.0
N1140 N 0.928 0.37358 0.92481 0.0
C1141 C 0.95096 0.40227 0.90788 0.0
C1142 C 0.97525 0.38478 0.90995 0.0
C1143 C 0.9754 0.36177 0.91973 0.0
C1144 C 0.95168 0.35632 0.92686 0.0
C1145 C 0.92793 0.39663 0.91543 0.0
H1146 H 0.95298 0.33796 0.93398 0.0
H1147 H 0.91024 0.41106 0.91345 0.0
H1148 H 0.84105 0.40227 0.94065 0.0
H1149 H 0.87348 0.31157 0.95278 0.0
C1150 C 0.92285 0.29971 0.94751 0.0
C1151 C 0.87146 0.32022 0.90915 0.0
C1152 C 0.92581 0.41339 0.95884 0.0
C1153 C 0.86512 0.43161 0.92333 0.0
H1154 H 0.89076 0.25392 0.91146 0.0
H1155 H 0.91812 0.24249 0.93253 0.0
H1156 H 0.95251 0.30956 0.9704 0.0
H1157 H 0.9546 0.37208 0.97636 0.0
H1158 H 0.91166 0.4806 0.95537 0.0
H1159 H 0.8785 0.49103 0.93587 0.0
H1160 H 0.83154 0.42053 0.90166 0.0
H1161 H 0.83518 0.35929 0.89397 0.0
H1162 H 0.80387 0.39752 0.95514 0.0
H1163 H 0.83724 0.30614 0.96797 0.0
H1164 H 0.94933 0.4199 0.9003 0.0
H1165 H 0.9937 0.3479 0.92195 0.0
C1166 C 0.911 0.63119 0.16556 0.0
C1167 C 0.93954 0.63244 0.16521 0.0
C1168 C 0.94762 0.65082 0.1753 0.0
C1169 C 0.92367 0.65994 0.18113 0.0
N1170 N 0.90076 0.64788 0.17558 0.0
Co1171 Co 0.86158 0.65817 0.18006 0.0
N1172 N 0.87342 0.68802 0.19408 0.0
C1173 C 0.89946 0.6935 0.19807 0.0
C1174 C 0.90113 0.71343 0.20844 0.0
C1175 C 0.87455 0.72077 0.21139 0.0
C1176 C 0.85814 0.70499 0.20254 0.0
N1177 N 0.82247 0.66971 0.18405 0.0
C1178 C 0.8121 0.68966 0.19307 0.0
C1179 C 0.78363 0.69164 0.19237 0.0
C1180 C 0.77569 0.67165 0.18272 0.0
C1181 C 0.79966 0.6589 0.17803 0.0
N1182 N 0.84976 0.62727 0.16643 0.0
C1183 C 0.82376 0.61819 0.16357 0.0
C1184 C 0.82216 0.59677 0.15363 0.0
C1185 C 0.8487 0.59229 0.14979 0.0
C1186 C 0.86494 0.61146 0.15761 0.0
N1187 N 0.86042 0.62189 0.19256 0.0
C1188 C 0.85725 0.57671 0.21267 0.0
C1189 C 0.83433 0.58333 0.20511 0.0
C1190 C 0.83643 0.60557 0.19512 0.0
C1191 C 0.88211 0.59171 0.2095 0.0
C1192 C 0.88322 0.61396 0.19954 0.0
N1193 N 0.8627 0.69447 0.16771 0.0
C1194 C 0.84546 0.72085 0.14885 0.0
C1195 C 0.86634 0.74424 0.14942 0.0
C1196 C 0.88487 0.74272 0.15951 0.0
C1197 C 0.88274 0.71784 0.16845 0.0
C1198 C 0.84397 0.69644 0.15805 0.0
H1199 H 0.89775 0.71783 0.17579 0.0
H1200 H 0.82775 0.67912 0.15705 0.0
H1201 H 0.81814 0.60964 0.1898 0.0
H1202 H 0.90273 0.62478 0.19787 0.0
C1203 C 0.92195 0.68037 0.19166 0.0
C1204 C 0.89441 0.61551 0.1558 0.0
C1205 C 0.82818 0.70569 0.2029 0.0
C1206 C 0.8013 0.63426 0.16894 0.0
H1207 H 0.95319 0.62192 0.15824 0.0
H1208 H 0.96842 0.6575 0.17787 0.0
H1209 H 0.91949 0.72147 0.21333 0.0
H1210 H 0.86803 0.7357 0.21928 0.0
H1211 H 0.76998 0.70542 0.19844 0.0
H1212 H 0.75487 0.66622 0.17976 0.0
H1213 H 0.8038 0.58704 0.14925 0.0
H1214 H 0.85532 0.57758 0.14185 0.0
H1215 H 0.81458 0.57226 0.20708 0.0
H1216 H 0.90074 0.58658 0.21476 0.0
H1217 H 0.83072 0.72075 0.14116 0.0
H1218 H 0.90109 0.76062 0.16054 0.0
C1219 C 0.61856 0.68793 0.42079 0.0
C1220 C 0.61254 0.72099 0.41996 0.0
C1221 C 0.59814 0.72895 0.43059 0.0
C1222 C 0.59572 0.70041 0.43718 0.0
N1223 N 0.60805 0.67468 0.43152 0.0
Co1224 Co 0.60583 0.62786 0.43696 0.0
N1225 N 0.58179 0.63917 0.45173 0.0
C1226 C 0.57521 0.66942 0.4558 0.0
C1227 C 0.55945 0.6697 0.46655 0.0
C1228 C 0.55574 0.63769 0.46955 0.0
C1229 C 0.56936 0.61967 0.46035 0.0
N1230 N 0.60226 0.58081 0.44192 0.0
C1231 C 0.58674 0.56667 0.45106 0.0
C1232 C 0.58898 0.53295 0.45079 0.0
C1233 C 0.60669 0.52552 0.44119 0.0
C1234 C 0.61402 0.55496 0.43609 0.0
N1235 N 0.63088 0.61677 0.42254 0.0
C1236 C 0.6419 0.58727 0.41995 0.0
C1237 C 0.65904 0.5873 0.40964 0.0
C1238 C 0.65872 0.61862 0.40532 0.0
C1239 C 0.64109 0.63589 0.41318 0.0
N1240 N 0.63844 0.63304 0.44817 0.0
C1241 C 0.67959 0.63741 0.4668 0.0
C1242 C 0.67554 0.60861 0.46008 0.0
C1243 C 0.6553 0.60709 0.45077 0.0
C1244 C 0.66406 0.66465 0.4635 0.0
C1245 C 0.64376 0.66196 0.45421 0.0
N1246 N 0.57336 0.62263 0.42597 0.0
C1247 C 0.55021 0.59563 0.4087 0.0
C1248 C 0.52807 0.61718 0.40963 0.0
C1249 C 0.52861 0.64083 0.41913 0.0
C1250 C 0.55127 0.6431 0.42715 0.0
C1251 C 0.57251 0.59876 0.41692 0.0
H1252 H 0.55067 0.66186 0.43414 0.0
H1253 H 0.58907 0.58198 0.41566 0.0
H1254 H 0.65343 0.58438 0.44603 0.0
H1255 H 0.63231 0.68349 0.45237 0.0
C1256 C 0.5816 0.69682 0.44859 0.0
C1257 C 0.63377 0.66999 0.41106 0.0
C1258 C 0.56968 0.58415 0.46017 0.0
C1259 C 0.63286 0.55935 0.42625 0.0
H1260 H 0.61748 0.73773 0.4124 0.0
H1261 H 0.58982 0.75258 0.43306 0.0
H1262 H 0.55106 0.69064 0.47144 0.0
H1263 H 0.54409 0.62865 0.47754 0.0
H1264 H 0.57892 0.5155 0.45692 0.0
H1265 H 0.61351 0.50153 0.43831 0.0
H1266 H 0.6696 0.56672 0.40546 0.0
H1267 H 0.66966 0.62754 0.39709 0.0
H1268 H 0.68775 0.58713 0.46211 0.0
H1269 H 0.66676 0.68761 0.4684 0.0
H1270 H 0.55081 0.57711 0.4014 0.0
H1271 H 0.51171 0.65776 0.42032 0.0
C1272 C 0.34878 0.28966 0.17972 0.0
C1273 C 0.36737 0.26411 0.18072 0.0
C1274 C 0.38339 0.27051 0.19102 0.0
C1275 C 0.37362 0.29938 0.19573 0.0
N1276 N 0.35186 0.31145 0.18926 0.0
Co1277 Co 0.33223 0.35372 0.19242 0.0
N1278 N 0.35765 0.36494 0.20676 0.0
C1279 C 0.37853 0.3465 0.2113 0.0
C1280 C 0.39231 0.36045 0.22122 0.0
C1281 C 0.37925 0.38934 0.22329 0.0
C1282 C 0.35799 0.39126 0.21453 0.0
N1283 N 0.31315 0.39647 0.19532 0.0
C1284 C 0.31764 0.41985 0.20417 0.0
C1285 C 0.29887 0.44523 0.20305 0.0
C1286 C 0.28213 0.43778 0.19312 0.0
C1287 C 0.2914 0.40833 0.18879 0.0
N1288 N 0.30646 0.342 0.17828 0.0
C1289 C 0.28432 0.35921 0.17436 0.0
C1290 C 0.27138 0.34602 0.16405 0.0
C1291 C 0.28636 0.31901 0.16106 0.0
C1292 C 0.30763 0.31716 0.16981 0.0
N1293 N 0.30719 0.33219 0.20473 0.0
C1294 C 0.2726 0.30394 0.2231 0.0
C1295 C 0.26242 0.32687 0.21456 0.0
C1296 C 0.27988 0.34037 0.20545 0.0
C1297 C 0.30018 0.29495 0.22218 0.0
C1298 C 0.31695 0.30931 0.21305 0.0
N1299 N 0.3572 0.37502 0.18014 0.0
C1300 C 0.36415 0.40329 0.16032 0.0
C1301 C 0.3924 0.39727 0.16087 0.0
C1302 C 0.40286 0.38154 0.17155 0.0
C1303 C 0.38507 0.37078 0.181 0.0
C1304 C 0.34706 0.39232 0.17007 0.0
H1305 H 0.39428 0.35812 0.18869 0.0
H1306 H 0.32565 0.39734 0.1691 0.0
H1307 H 0.27079 0.35755 0.19919 0.0
H1308 H 0.3378 0.30174 0.21307 0.0
C1309 C 0.38514 0.31649 0.20585 0.0
C1310 C 0.32963 0.29297 0.16917 0.0
C1311 C 0.33846 0.41832 0.21415 0.0
C1312 C 0.27862 0.38993 0.17936 0.0
H1313 H 0.36957 0.24344 0.17443 0.0
H1314 H 0.40061 0.25631 0.19444 0.0
H1315 H 0.4098 0.35078 0.22633 0.0
H1316 H 0.38472 0.40694 0.23049 0.0
H1317 H 0.29689 0.46659 0.20898 0.0
H1318 H 0.26468 0.45165 0.18974 0.0
H1319 H 0.25405 0.35587 0.15888 0.0
H1320 H 0.28257 0.30338 0.15302 0.0
H1321 H 0.24104 0.33427 0.21484 0.0
H1322 H 0.30905 0.27748 0.22869 0.0
H1323 H 0.3552 0.41594 0.15232 0.0
H1324 H 0.4246 0.37615 0.17239 0.0
C1325 C 0.38872 0.58062 0.92764 0.0
C1326 C 0.37388 0.56215 0.91903 0.0
C1327 C 0.37593 0.5305 0.92291 0.0
C1328 C 0.39187 0.53144 0.93361 0.0
N1329 N 0.39983 0.56186 0.93688 0.0
Co1330 Co 0.42372 0.57445 0.95154 0.0
N1331 N 0.43205 0.52766 0.9555 0.0
C1332 C 0.42279 0.50114 0.94919 0.0
C1333 C 0.43275 0.47227 0.95382 0.0
C1334 C 0.44953 0.48084 0.96363 0.0
C1335 C 0.44866 0.51458 0.96447 0.0
N1336 N 0.44672 0.58714 0.96649 0.0
C1337 C 0.46114 0.56839 0.9747 0.0
C1338 C 0.47349 0.587 0.98409 0.0
C1339 C 0.4667 0.61864 0.98171 0.0
C1340 C 0.45058 0.61757 0.97108 0.0
N1341 N 0.41667 0.62124 0.94716 0.0
C1342 C 0.42564 0.64789 0.95347 0.0
C1343 C 0.41873 0.67675 0.94778 0.0
C1344 C 0.40513 0.66801 0.937 0.0
C1345 C 0.40457 0.63419 0.93678 0.0
N1346 N 0.39058 0.5734 0.96271 0.0
C1347 C 0.34138 0.57311 0.97686 0.0
C1348 C 0.35685 0.60149 0.9756 0.0
C1349 C 0.38136 0.60099 0.96871 0.0
C1350 C 0.35126 0.54463 0.97132 0.0
C1351 C 0.37559 0.54533 0.96429 0.0
N1352 N 0.45627 0.57565 0.94034 0.0
C1353 C 0.49637 0.60384 0.93245 0.0
C1354 C 0.49828 0.58239 0.92219 0.0
C1355 C 0.47966 0.55647 0.9216 0.0
C1356 C 0.4591 0.55347 0.93074 0.0
C1357 C 0.47541 0.59998 0.94138 0.0
H1358 H 0.44513 0.53362 0.92963 0.0
H1359 H 0.47457 0.61744 0.94888 0.0
H1360 H 0.39222 0.6234 0.96835 0.0
H1361 H 0.38147 0.52283 0.96014 0.0
C1362 C 0.40354 0.50419 0.93943 0.0
C1363 C 0.39342 0.61548 0.92626 0.0
C1364 C 0.4636 0.53303 0.97405 0.0
C1365 C 0.44075 0.64484 0.96463 0.0
H1366 H 0.36352 0.57048 0.91056 0.0
H1367 H 0.36811 0.50917 0.91807 0.0
H1368 H 0.42814 0.44789 0.95054 0.0
H1369 H 0.46095 0.46414 0.96956 0.0
H1370 H 0.48621 0.57858 0.99184 0.0
H1371 H 0.47317 0.63995 0.98696 0.0
H1372 H 0.42351 0.70118 0.95095 0.0
H1373 H 0.39699 0.68459 0.92997 0.0
H1374 H 0.35016 0.62401 0.97999 0.0
H1375 H 0.33988 0.52202 0.97209 0.0
H1376 H 0.5107 0.62385 0.93351 0.0
H1377 H 0.48014 0.53925 0.91384 0.0
C1378 C 0.15128 0.70316 0.67978 0.0
C1379 C 0.12963 0.72525 0.68015 0.0
C1380 C 0.11408 0.71747 0.69044 0.0
C1381 C 0.12678 0.69094 0.69568 0.0
N1382 N 0.14987 0.68159 0.68951 0.0
Co1383 Co 0.17193 0.64104 0.69281 0.0
N1384 N 0.14812 0.62875 0.70758 0.0
C1385 C 0.12681 0.64605 0.71234 0.0
C1386 C 0.115 0.63227 0.72282 0.0
C1387 C 0.13001 0.60483 0.72507 0.0
C1388 C 0.15026 0.60351 0.7158 0.0
N1389 N 0.19293 0.59956 0.69555 0.0
C1390 C 0.19022 0.57637 0.70462 0.0
C1391 C 0.20939 0.55159 0.70307 0.0
C1392 C 0.2247 0.55941 0.69269 0.0
C1393 C 0.21415 0.58842 0.6885 0.0
N1394 N 0.19676 0.65441 0.67858 0.0
C1395 C 0.21984 0.63898 0.67472 0.0
C1396 C 0.23317 0.6544 0.66499 0.0
C1397 C 0.21744 0.68108 0.66235 0.0
C1398 C 0.19515 0.68012 0.67057 0.0
N1399 N 0.19621 0.66451 0.70477 0.0
C1400 C 0.22914 0.69452 0.72325 0.0
C1401 C 0.24001 0.67059 0.71531 0.0
C1402 C 0.22336 0.65618 0.70612 0.0
C1403 C 0.20183 0.70391 0.72155 0.0
C1404 C 0.18586 0.68871 0.71234 0.0
N1405 N 0.14751 0.61788 0.68082 0.0
C1406 C 0.13959 0.59814 0.65957 0.0
C1407 C 0.1113 0.60196 0.6612 0.0
C1408 C 0.10136 0.60978 0.67319 0.0
C1409 C 0.11969 0.61726 0.68284 0.0
C1410 C 0.15732 0.60587 0.66956 0.0
H1411 H 0.1107 0.62418 0.69161 0.0
H1412 H 0.17887 0.60361 0.66776 0.0
H1413 H 0.23282 0.63808 0.70034 0.0
H1414 H 0.16505 0.69655 0.71172 0.0
C1415 C 0.11739 0.67409 0.70629 0.0
C1416 C 0.17197 0.70263 0.66972 0.0
C1417 C 0.17112 0.57795 0.71529 0.0
C1418 C 0.2263 0.60802 0.67927 0.0
H1419 H 0.12498 0.74457 0.67354 0.0
H1420 H 0.09534 0.72924 0.69356 0.0
H1421 H 0.09746 0.64103 0.72814 0.0
H1422 H 0.12643 0.58772 0.73269 0.0
H1423 H 0.21273 0.53061 0.70907 0.0
H1424 H 0.24233 0.54635 0.68902 0.0
H1425 H 0.25145 0.64642 0.66002 0.0
H1426 H 0.22135 0.69858 0.6549 0.0
H1427 H 0.26126 0.66296 0.71619 0.0
H1428 H 0.19248 0.72221 0.72756 0.0
H1429 H 0.14804 0.5914 0.65045 0.0
H1430 H 0.07945 0.61192 0.67491 0.0
C1431 C 0.1041 0.4247 0.42533 0.0
C1432 C 0.11658 0.44241 0.41572 0.0
C1433 C 0.11441 0.47447 0.41898 0.0
C1434 C 0.10081 0.47452 0.43034 0.0
N1435 N 0.09455 0.44439 0.43467 0.0
Co1436 Co 0.07319 0.43346 0.45037 0.0
N1437 N 0.06894 0.48074 0.45488 0.0
C1438 C 0.08011 0.50648 0.44874 0.0
C1439 C 0.07389 0.53596 0.45412 0.0
C1440 C 0.05781 0.52868 0.46432 0.0
C1441 C 0.05514 0.49501 0.46458 0.0
N1442 N 0.05065 0.42253 0.46571 0.0
C1443 C 0.03768 0.44231 0.47408 0.0
C1444 C 0.02351 0.42458 0.48319 0.0
C1445 C 0.02739 0.39249 0.48039 0.0
C1446 C 0.04364 0.39243 0.4698 0.0
N1447 N 0.07848 0.38615 0.44618 0.0
C1448 C 0.07004 0.36034 0.45313 0.0
C1449 C 0.07626 0.33081 0.44783 0.0
C1450 C 0.08937 0.33811 0.43679 0.0
C1451 C 0.09051 0.37189 0.436 0.0
N1452 N 0.10759 0.43218 0.46054 0.0
C1453 C 0.15681 0.43054 0.47467 0.0
C1454 C 0.13556 0.40851 0.47713 0.0
C1455 C 0.11131 0.40979 0.47003 0.0
C1456 C 0.153 0.45328 0.46501 0.0
C1457 C 0.12852 0.45369 0.45816 0.0
N1458 N 0.0391 0.43474 0.44013 0.0
C1459 C 0.001 0.40663 0.43032 0.0
C1460 C 0.99566 0.43345 0.42251 0.0
C1461 C 0.01113 0.46172 0.42442 0.0
C1462 C 0.03263 0.46179 0.43314 0.0
C1463 C 0.02243 0.40796 0.43912 0.0
H1464 H 0.04419 0.48375 0.43378 0.0
H1465 H 0.02571 0.38668 0.44472 0.0
H1466 H 0.09591 0.39244 0.47242 0.0
H1467 H 0.12719 0.47163 0.45096 0.0
C1468 C 0.09407 0.50235 0.43729 0.0
C1469 C 0.10174 0.38925 0.4251 0.0
C1470 C 0.03846 0.47783 0.47392 0.0
C1471 C 0.05352 0.36458 0.46379 0.0
H1472 H 0.12616 0.43309 0.40721 0.0
H1473 H 0.12176 0.49528 0.41367 0.0
H1474 H 0.07969 0.55995 0.4508 0.0
H1475 H 0.04864 0.54623 0.47069 0.0
H1476 H 0.01171 0.43387 0.49109 0.0
H1477 H 0.01947 0.37168 0.48552 0.0
H1478 H 0.07088 0.30684 0.45131 0.0
H1479 H 0.09647 0.32043 0.42994 0.0
H1480 H 0.13744 0.39061 0.48462 0.0
H1481 H 0.16901 0.47054 0.46259 0.0
H1482 H 0.98958 0.38414 0.42931 0.0
H1483 H 0.00722 0.4836 0.41898 0.0
C1484 C 0.35174 0.714 0.31797 0.0
C1485 C 0.37028 0.73954 0.31681 0.0
C1486 C 0.38563 0.73336 0.30627 0.0
C1487 C 0.37554 0.70461 0.30159 0.0
N1488 N 0.35416 0.69244 0.3083 0.0
Co1489 Co 0.33458 0.65 0.30538 0.0
N1490 N 0.35938 0.63879 0.29082 0.0
C1491 C 0.37993 0.65735 0.28604 0.0
C1492 C 0.39331 0.64339 0.276 0.0
C1493 C 0.38031 0.61438 0.27411 0.0
C1494 C 0.35949 0.6124 0.28309 0.0
N1495 N 0.31556 0.60711 0.30275 0.0
C1496 C 0.31974 0.58367 0.29388 0.0
C1497 C 0.30111 0.55822 0.29521 0.0
C1498 C 0.28477 0.5657 0.30529 0.0
C1499 C 0.29413 0.59523 0.30949 0.0
N1500 N 0.30945 0.6617 0.31978 0.0
C1501 C 0.28755 0.64443 0.32394 0.0
C1502 C 0.27522 0.65748 0.33443 0.0
C1503 C 0.29041 0.6844 0.33731 0.0
C1504 C 0.31118 0.68636 0.32831 0.0
N1505 N 0.30889 0.67125 0.29331 0.0
C1506 C 0.27338 0.69957 0.27536 0.0
C1507 C 0.26365 0.6765 0.28396 0.0
C1508 C 0.28157 0.66296 0.29286 0.0
C1509 C 0.30098 0.70859 0.27599 0.0
C1510 C 0.3182 0.69419 0.28491 0.0
N1511 N 0.36015 0.62916 0.31746 0.0
C1512 C 0.36771 0.60481 0.33798 0.0
C1513 C 0.39528 0.61417 0.33761 0.0
C1514 C 0.4056 0.62778 0.32649 0.0
C1515 C 0.38784 0.63468 0.31654 0.0
C1516 C 0.35056 0.61234 0.32777 0.0
H1517 H 0.39677 0.64601 0.30847 0.0
H1518 H 0.3294 0.60585 0.32868 0.0
H1519 H 0.27283 0.64569 0.29919 0.0
H1520 H 0.33902 0.70181 0.28466 0.0
C1521 C 0.38666 0.68747 0.29137 0.0
C1522 C 0.33335 0.71039 0.32879 0.0
C1523 C 0.34008 0.58524 0.28369 0.0
C1524 C 0.28172 0.61366 0.31902 0.0
H1525 H 0.37295 0.76001 0.32315 0.0
H1526 H 0.40271 0.74755 0.30269 0.0
H1527 H 0.41049 0.65314 0.2707 0.0
H1528 H 0.38551 0.59675 0.26687 0.0
H1529 H 0.29893 0.5368 0.28934 0.0
H1530 H 0.26751 0.55178 0.30885 0.0
H1531 H 0.25824 0.64751 0.33981 0.0
H1532 H 0.28714 0.69984 0.34546 0.0
H1533 H 0.24227 0.66905 0.28387 0.0
H1534 H 0.3095 0.72613 0.26941 0.0
H1535 H 0.35906 0.59365 0.34638 0.0
H1536 H 0.4271 0.63442 0.3257 0.0
C1537 C 0.1089 0.57336 0.07259 0.0
C1538 C 0.12084 0.55392 0.08182 0.0
C1539 C 0.11811 0.52246 0.0778 0.0
C1540 C 0.10461 0.52449 0.06643 0.0
N1541 N 0.09905 0.55541 0.0628 0.0
Co1542 Co 0.07727 0.56958 0.04762 0.0
N1543 N 0.06947 0.52323 0.0427 0.0
C1544 C 0.07914 0.496 0.04841 0.0
C1545 C 0.0705 0.46766 0.04283 0.0
C1546 C 0.05429 0.47731 0.03297 0.0
C1547 C 0.05386 0.51114 0.03316 0.0
N1548 N 0.05491 0.58391 0.03267 0.0
C1549 C 0.04022 0.5661 0.02422 0.0
C1550 C 0.02659 0.58588 0.01559 0.0
C1551 C 0.03302 0.61724 0.01863 0.0
C1552 C 0.04997 0.61491 0.02894 0.0
N1553 N 0.08545 0.61585 0.0524 0.0
C1554 C 0.07856 0.64308 0.04593 0.0
C1555 C 0.08671 0.67137 0.05171 0.0
C1556 C 0.0991 0.66166 0.06266 0.0
C1557 C 0.0976 0.62789 0.06293 0.0
N1558 N 0.11116 0.56877 0.03699 0.0
C1559 C 0.16105 0.56927 0.02321 0.0
C1560 C 0.14195 0.59455 0.02199 0.0
C1561 C 0.11727 0.59362 0.02879 0.0
C1562 C 0.15423 0.54328 0.03115 0.0
C1563 C 0.12961 0.54364 0.03792 0.0
N1564 N 0.04388 0.57045 0.05833 0.0
C1565 C 0.00785 0.601 0.06871 0.0
C1566 C 0.00236 0.57484 0.07683 0.0
C1567 C 0.01658 0.54572 0.07481 0.0
C1568 C 0.03713 0.54412 0.06565 0.0
C1569 C 0.02833 0.59815 0.05947 0.0
H1570 H 0.04788 0.52159 0.06496 0.0
H1571 H 0.03195 0.61898 0.05365 0.0
H1572 H 0.10366 0.61349 0.02731 0.0
H1573 H 0.1262 0.5233 0.04389 0.0
C1574 C 0.09499 0.49787 0.05945 0.0
C1575 C 0.10594 0.60855 0.07382 0.0
C1576 C 0.0383 0.53062 0.02408 0.0
C1577 C 0.06159 0.64138 0.03529 0.0
H1578 H 0.12988 0.56161 0.09068 0.0
H1579 H 0.12427 0.50064 0.08281 0.0
H1580 H 0.0751 0.44294 0.04569 0.0
H1581 H 0.04382 0.46124 0.02643 0.0
H1582 H 0.01324 0.57845 0.00792 0.0
H1583 H 0.02602 0.63916 0.01393 0.0
H1584 H 0.08292 0.69612 0.04863 0.0
H1585 H 0.10734 0.67762 0.06989 0.0
H1586 H 0.1461 0.61543 0.01603 0.0
H1587 H 0.16777 0.52251 0.03218 0.0
H1588 H 0.99732 0.62408 0.06978 0.0
H1589 H 0.01243 0.52433 0.0805 0.0
C1590 C 0.14408 0.28686 0.81828 0.0
C1591 C 0.12296 0.26444 0.81674 0.0
C1592 C 0.1069 0.27568 0.8071 0.0
C1593 C 0.11917 0.30406 0.80326 0.0
N1594 N 0.14247 0.3113 0.80968 0.0
Co1595 Co 0.16636 0.35074 0.80746 0.0
N1596 N 0.14118 0.36895 0.79415 0.0
C1597 C 0.11751 0.35559 0.78982 0.0
C1598 C 0.10485 0.37356 0.78058 0.0
C1599 C 0.12169 0.39967 0.77869 0.0
C1600 C 0.14385 0.39594 0.78687 0.0
N1601 N 0.1901 0.39036 0.8053 0.0
C1602 C 0.18835 0.41508 0.7968 0.0
C1603 C 0.21004 0.43684 0.7981 0.0
C1604 C 0.22607 0.42546 0.80773 0.0
C1605 C 0.21345 0.39743 0.8117 0.0
N1606 N 0.1916 0.33226 0.82072 0.0
C1607 C 0.2154 0.3455 0.82493 0.0
C1608 C 0.2273 0.32855 0.83465 0.0
C1609 C 0.20988 0.30322 0.83696 0.0
C1610 C 0.1883 0.30604 0.82841 0.0
N1611 N 0.18764 0.3282 0.79402 0.0
C1612 C 0.21764 0.2997 0.77411 0.0
C1613 C 0.23111 0.31504 0.78413 0.0
C1614 C 0.21582 0.32915 0.79388 0.0
C1615 C 0.18899 0.29819 0.77434 0.0
C1616 C 0.17454 0.31223 0.78436 0.0
N1617 N 0.14508 0.37315 0.82091 0.0
C1618 C 0.14332 0.39689 0.84184 0.0
C1619 C 0.11471 0.39498 0.84185 0.0
C1620 C 0.10143 0.3841 0.83095 0.0
C1621 C 0.1169 0.3732 0.82069 0.0
C1622 C 0.158 0.38656 0.83121 0.0
H1623 H 0.10556 0.36375 0.81292 0.0
H1624 H 0.17979 0.38864 0.83172 0.0
H1625 H 0.22729 0.34107 0.80109 0.0
H1626 H 0.15278 0.31009 0.78398 0.0
C1627 C 0.10831 0.32546 0.79428 0.0
C1628 C 0.16416 0.2848 0.82852 0.0
C1629 C 0.16752 0.41779 0.78689 0.0
C1630 C 0.22437 0.3758 0.82056 0.0
H1631 H 0.11913 0.24272 0.82228 0.0
H1632 H 0.08802 0.265 0.80359 0.0
H1633 H 0.08597 0.36796 0.77561 0.0
H1634 H 0.11835 0.41891 0.77186 0.0
H1635 H 0.2144 0.4582 0.79246 0.0
H1636 H 0.24524 0.43571 0.81109 0.0
H1637 H 0.24573 0.33478 0.83987 0.0
H1638 H 0.21243 0.28557 0.84445 0.0
H1639 H 0.25333 0.3169 0.7843 0.0
H1640 H 0.17774 0.28606 0.76685 0.0
H1641 H 0.1543 0.40562 0.8501 0.0
H1642 H 0.07921 0.38221 0.83062 0.0
C1643 C 0.38184 0.42548 0.57311 0.0
C1644 C 0.36946 0.44419 0.58245 0.0
C1645 C 0.37296 0.47598 0.579 0.0
C1646 C 0.38736 0.47483 0.56785 0.0
N1647 N 0.39273 0.44421 0.5638 0.0
Co1648 Co 0.41595 0.43121 0.5489 0.0
N1649 N 0.4239 0.47789 0.54462 0.0
C1650 C 0.41341 0.50463 0.55037 0.0
C1651 C 0.42218 0.5334 0.54518 0.0
C1652 C 0.43915 0.52457 0.53549 0.0
C1653 C 0.43975 0.49075 0.53532 0.0
N1654 N 0.44023 0.41801 0.53444 0.0
C1655 C 0.45547 0.43648 0.52644 0.0
C1656 C 0.46997 0.4174 0.51787 0.0
C1657 C 0.4638 0.38577 0.52058 0.0
C1658 C 0.44597 0.38728 0.5306 0.0
N1659 N 0.40708 0.38467 0.55284 0.0
C1660 C 0.41425 0.35805 0.54606 0.0
C1661 C 0.40491 0.32937 0.55113 0.0
C1662 C 0.39131 0.33818 0.5619 0.0
C1663 C 0.39335 0.37183 0.56279 0.0
N1664 N 0.38334 0.43281 0.53753 0.0
C1665 C 0.33539 0.4331 0.52249 0.0
C1666 C 0.35612 0.41015 0.52047 0.0
C1667 C 0.37978 0.41054 0.52798 0.0
C1668 C 0.33936 0.45633 0.53196 0.0
C1669 C 0.36324 0.45579 0.53926 0.0
N1670 N 0.44811 0.42949 0.56038 0.0
C1671 C 0.48232 0.39784 0.57152 0.0
C1672 C 0.48754 0.4238 0.57976 0.0
C1673 C 0.47412 0.45334 0.57749 0.0
C1674 C 0.45465 0.45562 0.56785 0.0
C1675 C 0.46287 0.4013 0.56186 0.0
H1676 H 0.44454 0.47852 0.56689 0.0
H1677 H 0.45939 0.38054 0.55598 0.0
H1678 H 0.39476 0.39247 0.52589 0.0
H1679 H 0.36471 0.47412 0.54631 0.0
C1680 C 0.39709 0.50192 0.56122 0.0
C1681 C 0.38417 0.39016 0.57379 0.0
C1682 C 0.45612 0.47201 0.52631 0.0
C1683 C 0.43295 0.36045 0.53609 0.0
H1684 H 0.35953 0.43578 0.59101 0.0
H1685 H 0.36652 0.49738 0.5842 0.0
H1686 H 0.41725 0.55788 0.54824 0.0
H1687 H 0.45012 0.54117 0.52933 0.0
H1688 H 0.48333 0.4255 0.5103 0.0
H1689 H 0.47106 0.36425 0.51569 0.0
H1690 H 0.40875 0.30488 0.54776 0.0
H1691 H 0.38194 0.32167 0.56863 0.0
H1692 H 0.35422 0.39201 0.51307 0.0
H1693 H 0.32382 0.47452 0.53398 0.0
H1694 H 0.49225 0.37446 0.5728 0.0
H1695 H 0.47813 0.47456 0.5833 0.0
H1696 H 0.07568 0.38965 0.40229 0.0
H1697 H 0.15909 0.23781 0.37521 0.0
H1698 H 0.14472 0.34714 0.42176 0.0
H1699 H 0.10664 0.29787 0.35187 0.0
H1700 H 0.15362 0.27678 0.39248 0.0
H1701 H 0.08598 0.35563 0.38376 0.0
C1702 C 0.09317 0.37329 0.40256 0.0
C1703 C 0.1093 0.37082 0.4135 0.0
C1704 C 0.14346 0.28152 0.38355 0.0
C1705 C 0.12103 0.33168 0.39255 0.0
C1706 C 0.14668 0.25933 0.37363 0.0
C1707 C 0.13322 0.26434 0.36202 0.0
C1708 C 0.12643 0.30884 0.38193 0.0
C1709 C 0.11699 0.29251 0.3607 0.0
C1710 C 0.09904 0.35389 0.39204 0.0
C1711 C 0.13175 0.34941 0.41348 0.0
N1712 N 0.1139 0.31352 0.37055 0.0
N1713 N 0.1368 0.33036 0.40321 0.0
H1714 H 0.00656 0.94925 0.60239 0.0
H1715 H 0.91616 0.85073 0.65273 0.0
H1716 H 0.01066 0.84551 0.60868 0.0
H1717 H 0.89691 0.94967 0.64229 0.0
H1718 H 0.95584 0.85202 0.63876 0.0
H1719 H 0.97062 0.9531 0.61874 0.0
C1720 C -5e-05 0.92737 0.60725 0.0
C1721 C 0.01132 0.89695 0.60412 0.0
C1722 C 0.94309 0.87358 0.63949 0.0
C1723 C 0.97071 0.9012 0.62276 0.0
C1724 C 0.92047 0.87284 0.64747 0.0
C1725 C 0.90312 0.89995 0.64844 0.0
C1726 C 0.94845 0.90163 0.63231 0.0
C1727 C 0.90982 0.92824 0.64168 0.0
C1728 C 0.97947 0.92957 0.61652 0.0
C1729 C 0.0021 0.86933 0.61064 0.0
N1730 N 0.93193 0.92828 0.63374 0.0
N1731 N 0.98239 0.87214 0.61963 0.0
H1732 H 0.34451 0.63122 0.91502 0.0
H1733 H 0.41676 0.74451 0.86341 0.0
H1734 H 0.43225 0.63835 0.91018 0.0
H1735 H 0.32951 0.72475 0.86332 0.0
H1736 H 0.42253 0.70534 0.88048 0.0
H1737 H 0.33806 0.6647 0.89596 0.0
C1738 C 0.36234 0.63944 0.90977 0.0
C1739 C 0.3889 0.63201 0.91399 0.0
C1740 C 0.40212 0.7094 0.87669 0.0
C1741 C 0.38189 0.67067 0.89252 0.0
C1742 C 0.39881 0.7317 0.86687 0.0
C1743 C 0.37259 0.73796 0.86185 0.0
C1744 C 0.37904 0.6933 0.88166 0.0
C1745 C 0.35005 0.72108 0.86699 0.0
C1746 C 0.35872 0.65861 0.89896 0.0
C1747 C 0.41146 0.64355 0.90709 0.0
N1748 N 0.35378 0.69961 0.87664 0.0
N1749 N 0.40746 0.6625 0.89673 0.0
H1750 H 0.48851 0.17394 0.10529 0.0
H1751 H 0.59683 0.0669 0.14428 0.0
H1752 H 0.5003 0.07123 0.09839 0.0
H1753 H 0.5676 0.16155 0.15591 0.0
H1754 H 0.5657 0.0692 0.12596 0.0
H1755 H 0.52232 0.17127 0.12229 0.0
C1756 C 0.49848 0.15089 0.10726 0.0
C1757 C 0.49159 0.12276 0.10044 0.0
C1758 C 0.5661 0.08935 0.13257 0.0
C1759 C 0.53005 0.1194 0.12002 0.0
C1760 C 0.58384 0.08807 0.14298 0.0
C1761 C 0.58448 0.11388 0.15168 0.0
C1762 C 0.54932 0.11686 0.13081 0.0
C1763 C 0.56733 0.14083 0.14957 0.0
C1764 C 0.5176 0.1493 0.11705 0.0
C1765 C 0.50484 0.09341 0.10353 0.0
N1766 N 0.55053 0.14163 0.13935 0.0
N1767 N 0.52348 0.09246 0.11312 0.0
H1768 H 0.16813 0.71868 0.13769 0.0
H1769 H 0.06533 0.63297 0.08858 0.0
H1770 H 0.08104 0.7386 0.13561 0.0
H1771 H 0.15335 0.62247 0.08672 0.0
H1772 H 0.07043 0.66668 0.10758 0.0
H1773 H 0.16303 0.67921 0.12049 0.0
C1774 C 0.14795 0.71486 0.13362 0.0
C1775 C 0.12499 0.73215 0.13813 0.0
C1776 C 0.08867 0.65677 0.10313 0.0
C1777 C 0.11897 0.68657 0.11854 0.0
C1778 C 0.0857 0.63743 0.09236 0.0
C1779 C 0.10896 0.62492 0.08625 0.0
C1780 C 0.11512 0.6638 0.10776 0.0
C1781 C 0.13498 0.63154 0.09132 0.0
C1782 C 0.14504 0.69214 0.12385 0.0
C1783 C 0.09928 0.72562 0.13261 0.0
N1784 N 0.13741 0.6507 0.10178 0.0
N1785 N 0.09701 0.70347 0.12311 0.0
H1786 H 0.45831 0.91353 0.38228 0.0
H1787 H 0.61465 0.88002 0.3634 0.0
H1788 H 0.51886 0.87545 0.40826 0.0
H1789 H 0.55492 0.9224 0.33805 0.0
H1790 H 0.58115 0.8832 0.38056 0.0
H1791 H 0.49439 0.92129 0.36654 0.0
C1792 C 0.47925 0.9071 0.38473 0.0
C1793 C 0.48553 0.89365 0.3966 0.0
C1794 C 0.57545 0.89213 0.37128 0.0
C1795 C 0.52695 0.90209 0.37853 0.0
C1796 C 0.59467 0.8906 0.36149 0.0
C1797 C 0.5875 0.90073 0.34924 0.0
C1798 C 0.54883 0.90374 0.36878 0.0
C1799 C 0.56115 0.91377 0.3473 0.0
C1800 C 0.49984 0.91142 0.37571 0.0
C1801 C 0.51299 0.88535 0.39916 0.0
N1802 N 0.54269 0.91463 0.35694 0.0
N1803 N 0.53266 0.88956 0.39017 0.0
H1804 H 0.41057 0.25578 0.6347 0.0
H1805 H 0.33618 0.37644 0.58623 0.0
H1806 H 0.32391 0.27827 0.63681 0.0
H1807 H 0.42395 0.36339 0.58836 0.0
H1808 H 0.3308 0.34161 0.60501 0.0
H1809 H 0.41557 0.29576 0.61786 0.0
C1810 C 0.3926 0.26936 0.63172 0.0
C1811 C 0.36678 0.26369 0.63725 0.0
C1812 C 0.35126 0.34667 0.60146 0.0
C1813 C 0.37232 0.3093 0.61772 0.0
C1814 C 0.35428 0.3666 0.59083 0.0
C1815 C 0.38052 0.37275 0.58593 0.0
C1816 C 0.37467 0.33263 0.60706 0.0
C1817 C 0.40341 0.35919 0.59198 0.0
C1818 C 0.39546 0.29212 0.62204 0.0
C1819 C 0.34415 0.28153 0.63274 0.0
N1820 N 0.39996 0.3396 0.6022 0.0
N1821 N 0.34743 0.30349 0.62321 0.0
H1822 H 0.97387 0.12035 0.9088 0.0
H1823 H 0.93383 0.05418 0.84001 0.0
H1824 H 0.03109 0.07544 0.88284 0.0
H1825 H 0.87961 0.11299 0.86291 0.0
H1826 H 0.967 0.05335 0.85736 0.0
H1827 H 0.93685 0.11084 0.89356 0.0
C1828 C 0.97869 0.10854 0.8999 0.0
C1829 C 0.00572 0.09887 0.89708 0.0
C1830 C 0.94771 0.06612 0.85866 0.0
C1831 C 0.96336 0.08741 0.87971 0.0
C1832 C 0.92877 0.06654 0.84877 0.0
C1833 C 0.9041 0.08399 0.84998 0.0
C1834 C 0.94202 0.08341 0.86983 0.0
C1835 C 0.89836 0.09915 0.8616 0.0
C1836 C 0.9575 0.10289 0.89126 0.0
C1837 C 0.01058 0.08303 0.88551 0.0
N1838 N 0.91736 0.09886 0.87103 0.0
N1839 N 0.98965 0.07794 0.87725 0.0
H1840 H 0.86915 0.64361 0.61817 0.0
H1841 H 0.8076 0.80437 0.6453 0.0
H1842 H 0.81992 0.70663 0.59471 0.0
H1843 H 0.80879 0.71835 0.66873 0.0
H1844 H 0.81547 0.77045 0.62669 0.0
H1845 H 0.85102 0.67137 0.63707 0.0
C1846 C 0.85431 0.66308 0.61704 0.0
C1847 C 0.84616 0.67317 0.60492 0.0
C1848 C 0.81366 0.75892 0.63588 0.0
C1849 C 0.82587 0.7052 0.62633 0.0
C1850 C 0.80914 0.77824 0.64651 0.0
C1851 C 0.8077 0.76414 0.65861 0.0
C1852 C 0.81755 0.72529 0.63733 0.0
C1853 C 0.81 0.73013 0.65957 0.0
C1854 C 0.84395 0.67879 0.62778 0.0
C1855 C 0.82691 0.69848 0.60391 0.0
N1856 N 0.81541 0.71185 0.64909 0.0
N1857 N 0.81778 0.71404 0.61446 0.0
H1858 H 0.08952 0.16067 0.35898 0.0
H1859 H 0.03137 0.03407 0.41012 0.0
H1860 H 0.09815 0.05663 0.35552 0.0
H1861 H 0.01394 0.1372 0.4107 0.0
H1862 H 0.06046 0.04232 0.39152 0.0
H1863 H 0.06619 0.15304 0.37934 0.0
C1864 C 0.0866 0.13623 0.36263 0.0
C1865 C 0.09572 0.1092 0.35573 0.0
C1866 C 0.05043 0.06317 0.39578 0.0
C1867 C 0.06908 0.10015 0.37884 0.0
C1868 C 0.03375 0.05847 0.40638 0.0
C1869 C 0.02 0.08495 0.41195 0.0
C1870 C 0.05341 0.09457 0.39069 0.0
C1871 C 0.0243 0.11611 0.40683 0.0
C1872 C 0.07332 0.13184 0.3742 0.0
C1873 C 0.0915 0.07799 0.36069 0.0
N1874 N 0.04047 0.12001 0.39645 0.0
N1875 N 0.07839 0.07427 0.37197 0.0
H1876 H 0.66798 0.2747 0.09263 0.0
H1877 H 0.67311 0.27419 0.16739 0.0
H1878 H 0.62052 0.34452 0.11389 0.0
H1879 H 0.66175 0.18469 0.14669 0.0
H1880 H 0.66576 0.30494 0.14766 0.0
H1881 H 0.67821 0.2455 0.11243 0.0
C1882 C 0.65982 0.28385 0.10148 0.0
C1883 C 0.64296 0.31156 0.10167 0.0
C1884 C 0.66494 0.27857 0.1475 0.0
C1885 C 0.65538 0.2793 0.12421 0.0
C1886 C 0.66899 0.26111 0.15869 0.0
C1887 C 0.66737 0.227 0.15865 0.0
C1888 C 0.66032 0.26166 0.13616 0.0
C1889 C 0.66287 0.21103 0.14709 0.0
C1890 C 0.66567 0.2673 0.11271 0.0
C1891 C 0.63339 0.32302 0.11339 0.0
N1892 N 0.65962 0.2285 0.13626 0.0
N1893 N 0.63982 0.30689 0.12423 0.0
H1894 H 0.45302 0.90691 0.91827 0.0
H1895 H 0.42835 0.94339 0.84478 0.0
H1896 H 0.51215 0.95595 0.89437 0.0
H1897 H 0.38856 0.86445 0.86444 0.0
H1898 H 0.45309 0.95737 0.86431 0.0
H1899 H 0.42328 0.89951 0.8998 0.0
C1900 C 0.45979 0.91621 0.9092 0.0
C1901 C 0.4853 0.932 0.90794 0.0
C1902 C 0.43884 0.9371 0.86436 0.0
C1903 C 0.45102 0.92421 0.88687 0.0
C1904 C 0.42481 0.92919 0.85327 0.0
C1905 C 0.40698 0.90244 0.85307 0.0
C1906 C 0.43457 0.91838 0.87533 0.0
C1907 C 0.40248 0.88504 0.86429 0.0
C1908 C 0.4427 0.91212 0.89869 0.0
C1909 C 0.49256 0.94413 0.89594 0.0
N1910 N 0.41633 0.89321 0.875 0.0
N1911 N 0.47555 0.93994 0.88589 0.0
H1912 H 0.88913 0.33667 0.88548 0.0
H1913 H 0.8414 0.17392 0.85189 0.0
H1914 H 0.84061 0.26515 0.9053 0.0
H1915 H 0.84221 0.26495 0.83156 0.0
H1916 H 0.84909 0.20384 0.87172 0.0
H1917 H 0.87994 0.30785 0.8655 0.0
C1918 C 0.8766 0.31484 0.88559 0.0
C1919 C 0.86586 0.30295 0.89701 0.0
C1920 C 0.84766 0.2172 0.86291 0.0
C1921 C 0.85572 0.26977 0.87439 0.0
C1922 C 0.84338 0.20021 0.85163 0.0
C1923 C 0.84157 0.21705 0.84011 0.0
C1924 C 0.85064 0.2512 0.86261 0.0
C1925 C 0.84406 0.2511 0.84024 0.0
C1926 C 0.87135 0.29851 0.87424 0.0
C1927 C 0.84961 0.27472 0.8967 0.0
N1928 N 0.84878 0.2671 0.85131 0.0
N1929 N 0.8453 0.25881 0.88558 0.0
H1930 H 0.40783 0.05541 0.64575 0.0
H1931 H 0.4921 0.13659 0.58881 0.0
H1932 H 0.41517 0.15904 0.64035 0.0
H1933 H 0.47627 0.0333 0.59149 0.0
H1934 H 0.46348 0.14533 0.60747 0.0
H1935 H 0.433 0.04656 0.62588 0.0
C1936 C 0.41469 0.07622 0.64029 0.0
C1937 C 0.4094 0.10793 0.64451 0.0
C1938 C 0.46612 0.12076 0.60393 0.0
C1939 C 0.43827 0.09825 0.62198 0.0
C1940 C 0.4823 0.11576 0.5932 0.0
C1941 C 0.48668 0.08413 0.58855 0.0
C1942 C 0.45429 0.09394 0.61014 0.0
C1943 C 0.47384 0.05806 0.59483 0.0
C1944 C 0.42901 0.07125 0.62899 0.0
C1945 C 0.41888 0.13423 0.63729 0.0
N1946 N 0.45835 0.06353 0.60533 0.0
N1947 N 0.43291 0.12883 0.62637 0.0
H1948 H 0.66227 0.81558 0.35415 0.0
H1949 H 0.61781 0.65308 0.38719 0.0
H1950 H 0.6693 0.72491 0.33381 0.0
H1951 H 0.66728 0.72291 0.40743 0.0
H1952 H 0.62885 0.68133 0.36727 0.0
H1953 H 0.65634 0.78481 0.37393 0.0
C1954 C 0.6625 0.78918 0.35388 0.0
C1955 C 0.66582 0.77264 0.34237 0.0
C1956 C 0.63731 0.69032 0.37609 0.0
C1957 C 0.6586 0.73758 0.36476 0.0
C1958 C 0.63103 0.67432 0.3874 0.0
C1959 C 0.64134 0.68609 0.39892 0.0
C1960 C 0.65347 0.71863 0.3764 0.0
C1961 C 0.65853 0.71354 0.39874 0.0
C1962 C 0.6592 0.77174 0.36512 0.0
C1963 C 0.66617 0.73846 0.34248 0.0
N1964 N 0.66368 0.72929 0.38767 0.0
N1965 N 0.66215 0.72197 0.3535 0.0
H1966 H 0.10635 0.85752 0.13435 0.0
H1967 H 0.98462 0.95738 0.10278 0.0
H1968 H 0.06593 0.93773 0.15294 0.0
H1969 H 0.04149 0.89957 0.08076 0.0
H1970 H 0.01372 0.94991 0.12125 0.0
H1971 H 0.08245 0.87153 0.11462 0.0
C1972 C 0.09249 0.8782 0.13419 0.0
C1973 C 0.08762 0.89628 0.14521 0.0
C1974 C 0.01998 0.93912 0.11235 0.0
C1975 C 0.06025 0.91233 0.12287 0.0
C1976 C 0.00345 0.94355 0.10173 0.0
C1977 C 0.01052 0.92913 0.0901 0.0
C1978 C 0.04364 0.9197 0.11147 0.0
C1979 C 0.03488 0.91072 0.08953 0.0
C1980 C 0.07893 0.88622 0.12298 0.0
C1981 C 0.06977 0.92299 0.14462 0.0
N1982 N 0.05044 0.90631 0.10009 0.0
N1983 N 0.05644 0.93002 0.13365 0.0
H1984 H 0.62359 0.80629 0.84947 0.0
H1985 H 0.65471 0.84913 0.922 0.0
H1986 H 0.66648 0.74141 0.8749 0.0
H1987 H 0.59173 0.89645 0.90001 0.0
H1988 H 0.66682 0.81585 0.90348 0.0
H1989 H 0.61897 0.84561 0.86668 0.0
C1990 C 0.63208 0.80025 0.85865 0.0
C1991 C 0.64513 0.77016 0.86074 0.0
C1992 C 0.65054 0.83373 0.90266 0.0
C1993 C 0.64033 0.81552 0.88043 0.0
C1994 C 0.64374 0.8527 0.91318 0.0
C1995 C 0.62206 0.87509 0.91246 0.0
C1996 C 0.6357 0.83754 0.89135 0.0
C1997 C 0.60848 0.8792 0.90088 0.0
C1998 C 0.62955 0.82284 0.86845 0.0
C1999 C 0.6564 0.76426 0.87277 0.0
N2000 N 0.61541 0.86043 0.89077 0.0
N2001 N 0.6536 0.78664 0.88218 0.0
H2002 H 0.53868 0.42125 0.11634 0.0
H2003 H 0.38244 0.38791 0.13563 0.0
H2004 H 0.4776 0.38419 0.09039 0.0
H2005 H 0.44429 0.42328 0.16151 0.0
H2006 H 0.41534 0.39317 0.11826 0.0
H2007 H 0.50295 0.42848 0.13226 0.0
C2008 C 0.51769 0.41502 0.11392 0.0
C2009 C 0.51119 0.4019 0.10201 0.0
C2010 C 0.42163 0.40013 0.12771 0.0
C2011 C 0.47015 0.40965 0.12033 0.0
C2012 C 0.40278 0.39739 0.13762 0.0
C2013 C 0.41074 0.40489 0.15006 0.0
C2014 C 0.44863 0.41038 0.13027 0.0
C2015 C 0.43746 0.41668 0.1521 0.0
C2016 C 0.49729 0.41899 0.12306 0.0
C2017 C 0.48365 0.39384 0.09952 0.0
N2018 N 0.45551 0.41879 0.14233 0.0
N2019 N 0.46417 0.39765 0.10862 0.0
H2020 H 0.93367 0.13414 0.40925 0.0
H2021 H 0.82695 0.22163 0.36248 0.0
H2022 H 0.84583 0.12862 0.41399 0.0
H2023 H 0.91475 0.23754 0.36179 0.0
H2024 H 0.83322 0.18288 0.37984 0.0
H2025 H 0.92697 0.16671 0.39006 0.0
C2026 C 0.91296 0.13949 0.40607 0.0
C2027 C 0.89023 0.12871 0.41303 0.0
C2028 C 0.8511 0.19476 0.37583 0.0
C2029 C 0.88229 0.16622 0.39132 0.0
C2030 C 0.84753 0.21704 0.36596 0.0
C2031 C 0.87034 0.23301 0.36065 0.0
C2032 C 0.87766 0.18833 0.38042 0.0
C2033 C 0.89656 0.22556 0.36543 0.0
C2034 C 0.9091 0.15816 0.39519 0.0
C2035 C 0.86378 0.13638 0.40872 0.0
N2036 N 0.89947 0.20388 0.37504 0.0
N2037 N 0.86049 0.15485 0.39814 0.0
H2038 H 0.07644 0.65026 0.65491 0.0
H2039 H -3e-05 0.55462 0.59973 0.0
H2040 H 0.10364 0.55527 0.64276 0.0
H2041 H 0.99295 0.65817 0.60608 0.0
H2042 H 0.03654 0.55235 0.61577 0.0
H2043 H 0.044 0.65174 0.63741 0.0
C2044 C 0.07543 0.62961 0.64853 0.0
C2045 C 0.09237 0.60242 0.65031 0.0
C2046 C 0.02713 0.57555 0.61352 0.0
C2047 C 0.05536 0.60394 0.63019 0.0
C2048 C 0.00621 0.57684 0.60445 0.0
C2049 C 0.99345 0.60664 0.60158 0.0
C2050 C 0.03493 0.6042 0.61983 0.0
C2051 C 0.00242 0.63475 0.60788 0.0
C2052 C 0.05706 0.63054 0.63849 0.0
C2053 C 0.09073 0.57658 0.64167 0.0
N2054 N 0.02244 0.63278 0.61675 0.0
N2055 N 0.07225 0.57779 0.63199 0.0
H2056 H 0.65899 0.13136 0.58316 0.0
H2057 H 0.58573 0.23807 0.63688 0.0
H2058 H 0.57131 0.13625 0.5886 0.0
H2059 H 0.67387 0.22657 0.63454 0.0
H2060 H 0.58045 0.20019 0.61934 0.0
H2061 H 0.66543 0.16524 0.60215 0.0
C2062 C 0.64119 0.13926 0.58851 0.0
C2063 C 0.61464 0.131 0.5845 0.0
C2064 C 0.60097 0.20579 0.62267 0.0
C2065 C 0.62163 0.16999 0.60592 0.0
C2066 C 0.60402 0.22734 0.63276 0.0
C2067 C 0.63031 0.23544 0.63729 0.0
C2068 C 0.62437 0.19223 0.61693 0.0
C2069 C 0.65322 0.2213 0.63131 0.0
C2070 C 0.6448 0.15865 0.59927 0.0
C2071 C 0.59209 0.14208 0.59152 0.0
N2072 N 0.64972 0.20041 0.62143 0.0
N2073 N 0.59609 0.16113 0.60186 0.0
H2074 H 0.07124 0.43624 0.84529 0.0
H2075 H 0.014 0.33946 0.90274 0.0
H2076 H 0.12129 0.36508 0.86453 0.0
H2077 H 0.99264 0.44105 0.89802 0.0
H2078 H 0.05198 0.34692 0.88804 0.0
H2079 H 0.04033 0.43776 0.86369 0.0
C2080 C 0.07593 0.42146 0.85351 0.0
C2081 C 0.09873 0.40058 0.8535 0.0
C2082 C 0.03911 0.36762 0.89037 0.0
C2083 C 0.06338 0.40147 0.87424 0.0
C2084 C 0.01742 0.36349 0.89883 0.0
C2085 C -0.00028 0.38959 0.90166 0.0
C2086 C 0.04285 0.39782 0.88442 0.0
C2087 C 0.00511 0.41991 0.89593 0.0
C2088 C 0.0584 0.42234 0.86397 0.0
C2089 C 0.10398 0.38168 0.86428 0.0
N2090 N 0.02593 0.42305 0.88743 0.0
N2091 N 0.08611 0.38209 0.87415 0.0
H2092 H 0.8395 0.87561 0.08623 0.0
H2093 H 0.91406 0.76754 0.13902 0.0
H2094 H 0.92732 0.87068 0.09113 0.0
H2095 H 0.82581 0.77792 0.13673 0.0
H2096 H 0.91902 0.80745 0.12215 0.0
H2097 H 0.83357 0.84227 0.10538 0.0
C2098 C 0.85744 0.86789 0.09152 0.0
C2099 C 0.88388 0.87584 0.08728 0.0
C2100 C 0.89855 0.80119 0.12537 0.0
C2101 C 0.87749 0.83746 0.10887 0.0
C2102 C 0.89569 0.77848 0.13508 0.0
C2103 C 0.86945 0.7693 0.13935 0.0
C2104 C 0.87502 0.81479 0.11976 0.0
C2105 C 0.84643 0.78388 0.13364 0.0
C2106 C 0.85413 0.8488 0.10237 0.0
C2107 C 0.90662 0.86504 0.09423 0.0
N2108 N 0.84975 0.80581 0.1241 0.0
N2109 N 0.90292 0.84622 0.10465 0.0
H2110 H 0.50373 0.66896 0.39803 0.0
H2111 H 0.40423 0.56299 0.35394 0.0
H2112 H 0.50135 0.5639 0.3997 0.0
H2113 H 0.42507 0.66373 0.34738 0.0
H2114 H 0.43435 0.56316 0.37269 0.0
H2115 H 0.46879 0.66782 0.38156 0.0
C2116 C 0.49558 0.64563 0.39505 0.0
C2117 C 0.5055 0.61647 0.40023 0.0
C2118 C 0.43225 0.58516 0.36712 0.0
C2119 C 0.46578 0.61496 0.38117 0.0
C2120 C 0.4151 0.58507 0.35649 0.0
C2121 C 0.41263 0.61323 0.34906 0.0
C2122 C 0.4465 0.61377 0.37036 0.0
C2123 C 0.42692 0.64133 0.35273 0.0
C2124 C 0.47579 0.64498 0.38555 0.0
C2125 C 0.49448 0.58692 0.39583 0.0
N2126 N 0.44323 0.64087 0.36311 0.0
N2127 N 0.47521 0.58689 0.3865 0.0
H2128 H 0.40297 0.19632 0.10457 0.0
H2129 H 0.29654 0.24593 0.15871 0.0
H2130 H 0.31556 0.18386 0.09991 0.0
H2131 H 0.3737 0.29567 0.15334 0.0
H2132 H 0.30494 0.21495 0.13914 0.0
H2133 H 0.39454 0.22485 0.12464 0.0
C2134 C 0.38203 0.19934 0.10789 0.0
C2135 C 0.35992 0.1875 0.10073 0.0
C2136 C 0.31996 0.23272 0.14224 0.0
C2137 C 0.35013 0.21983 0.12357 0.0
C2138 C 0.31515 0.25038 0.15334 0.0
C2139 C 0.33425 0.27369 0.15743 0.0
C2140 C 0.34437 0.23788 0.13542 0.0
C2141 C 0.3584 0.27806 0.15038 0.0
C2142 C 0.37723 0.21567 0.11926 0.0
C2143 C 0.33313 0.1922 0.10531 0.0
N2144 N 0.36284 0.26025 0.13973 0.0
N2145 N 0.32895 0.20788 0.11649 0.0
H2146 H 0.51416 0.64067 0.91182 0.0
H2147 H 0.59831 0.55977 0.85486 0.0
H2148 H 0.52781 0.53704 0.90858 0.0
H2149 H 0.59222 0.6633 0.86085 0.0
H2150 H 0.57365 0.55062 0.87485 0.0
H2151 H 0.54418 0.64937 0.89367 0.0
C2152 C 0.52377 0.61973 0.90743 0.0
C2153 C 0.51833 0.58804 0.91177 0.0
C2154 C 0.5779 0.57534 0.87187 0.0
C2155 C 0.55238 0.59784 0.89071 0.0
C2156 C 0.59199 0.58048 0.86051 0.0
C2157 C 0.59734 0.61226 0.85638 0.0
C2158 C 0.56892 0.60224 0.87901 0.0
C2159 C 0.58848 0.63844 0.86383 0.0
C2160 C 0.54078 0.62472 0.89697 0.0
C2161 C 0.53102 0.56187 0.90547 0.0
N2162 N 0.5746 0.63287 0.87478 0.0
N2163 N 0.54731 0.56734 0.89522 0.0
H2164 H 0.16546 0.68088 0.64556 0.0
H2165 H 0.12179 0.84795 0.61514 0.0
H2166 H 0.17071 0.76933 0.66741 0.0
H2167 H 0.1673 0.77698 0.59357 0.0
H2168 H 0.13311 0.81796 0.63463 0.0
H2169 H 0.15932 0.71361 0.6263 0.0
C2170 C 0.16528 0.70722 0.64626 0.0
C2171 C 0.16827 0.72253 0.65805 0.0
C2172 C 0.14071 0.80913 0.62563 0.0
C2173 C 0.16086 0.7599 0.63621 0.0
C2174 C 0.13429 0.82615 0.61456 0.0
C2175 C 0.14335 0.81456 0.60279 0.0
C2176 C 0.15578 0.78002 0.62484 0.0
C2177 C 0.15959 0.78632 0.60248 0.0
C2178 C 0.16186 0.72581 0.63532 0.0
C2179 C 0.168 0.7567 0.6585 0.0
N2180 N 0.16491 0.76965 0.61333 0.0
N2181 N 0.16395 0.77431 0.64775 0.0
H2182 H 0.94632 0.40012 0.42148 0.0
H2183 H 0.92035 0.44333 0.34852 0.0
H2184 H -0.00032 0.46137 0.39902 0.0
H2185 H 0.88277 0.36135 0.36719 0.0
H2186 H 0.94289 0.45828 0.36849 0.0
H2187 H 0.9166 0.39301 0.40298 0.0
C2188 C 0.95178 0.4122 0.41272 0.0
C2189 C 0.97572 0.43127 0.41185 0.0
C2190 C 0.92954 0.43718 0.36826 0.0
C2191 C 0.9415 0.42363 0.39074 0.0
C2192 C 0.91671 0.42877 0.35691 0.0
C2193 C 0.90019 0.40092 0.35631 0.0
C2194 C 0.92557 0.41766 0.37904 0.0
C2195 C 0.89566 0.38287 0.36737 0.0
C2196 C 0.9347 0.40825 0.40219 0.0
C2197 C 0.98131 0.44685 0.40028 0.0
N2198 N 0.90849 0.3914 0.3783 0.0
N2199 N 0.96443 0.44257 0.3902 0.0
H2200 H 0.37824 0.70735 0.34415 0.0
H2201 H 0.31744 0.82003 0.39841 0.0
H2202 H 0.30089 0.75729 0.33974 0.0
H2203 H 0.40474 0.80883 0.39292 0.0
H2204 H 0.30935 0.79206 0.37822 0.0
H2205 H 0.38709 0.73908 0.36345 0.0
C2206 C 0.36313 0.72499 0.34731 0.0
C2207 C 0.33865 0.7295 0.34052 0.0
C2208 C 0.33028 0.79615 0.38135 0.0
C2209 C 0.34844 0.76554 0.36252 0.0
C2210 C 0.3349 0.81237 0.39278 0.0
C2211 C 0.36182 0.81771 0.39706 0.0
C2212 C 0.35272 0.78425 0.37437 0.0
C2213 C 0.3837 0.8057 0.38977 0.0
C2214 C 0.36819 0.74309 0.35826 0.0
C2215 C 0.31976 0.75275 0.34488 0.0
N2216 N 0.37869 0.78935 0.37881 0.0
N2217 N 0.32491 0.7697 0.3557 0.0
H2218 H 0.95391 0.60982 0.07845 0.0
H2219 H 0.92909 0.56459 0.15136 0.0
H2220 H 0.00785 0.54829 0.10047 0.0
H2221 H 0.88838 0.64465 0.13284 0.0
H2222 H 0.95306 0.55193 0.13152 0.0
H2223 H 0.92502 0.61734 0.09722 0.0
C2224 C 0.95969 0.59783 0.08718 0.0
C2225 C 0.98342 0.57834 0.08782 0.0
C2226 C 0.93879 0.57218 0.13175 0.0
C2227 C 0.95021 0.58648 0.10926 0.0
C2228 C 0.92515 0.57928 0.14303 0.0
C2229 C 0.90721 0.60587 0.14364 0.0
C2230 C 0.93421 0.5917 0.12102 0.0
C2231 C 0.90235 0.6241 0.13266 0.0
C2232 C 0.9431 0.60201 0.09787 0.0
C2233 C 0.98955 0.56303 0.09939 0.0
N2234 N 0.91593 0.61681 0.12177 0.0
N2235 N 0.97311 0.56747 0.10962 0.0
H2236 H 0.19369 0.23188 0.83677 0.0
H2237 H 0.0889 0.18286 0.89158 0.0
H2238 H 0.12127 0.28856 0.84503 0.0
H2239 H 0.17624 0.1681 0.89546 0.0
H2240 H 0.09715 0.21192 0.87159 0.0
H2241 H 0.18438 0.19821 0.85557 0.0
C2242 C 0.17588 0.23719 0.84258 0.0
C2243 C 0.15849 0.26331 0.83957 0.0
C2244 C 0.11443 0.20181 0.87673 0.0
C2245 C 0.14724 0.22448 0.86066 0.0
C2246 C 0.10974 0.18513 0.88805 0.0
C2247 C 0.13186 0.17231 0.89494 0.0
C2248 C 0.14144 0.20541 0.87225 0.0
C2249 C 0.15856 0.17651 0.89017 0.0
C2250 C 0.17055 0.21801 0.85323 0.0
C2251 C 0.13527 0.26877 0.84715 0.0
N2252 N 0.16262 0.19257 0.87906 0.0
N2253 N 0.13025 0.24947 0.85735 0.0
H2254 H 0.48041 0.44977 0.60343 0.0
H2255 H 0.60451 0.35211 0.63518 0.0
H2256 H 0.53539 0.38807 0.58204 0.0
H2257 H 0.55939 0.42803 0.65418 0.0
H2258 H 0.57917 0.36407 0.61561 0.0
H2259 H 0.50882 0.44152 0.6221 0.0
C2260 C 0.49867 0.43482 0.60258 0.0
C2261 C 0.50552 0.41974 0.59106 0.0
C2262 C 0.57485 0.3782 0.62404 0.0
C2263 C 0.5379 0.40955 0.61263 0.0
C2264 C 0.58925 0.37136 0.63515 0.0
C2265 C 0.58361 0.38892 0.64622 0.0
C2266 C 0.55466 0.40271 0.62406 0.0
C2267 C 0.56393 0.41376 0.64581 0.0
C2268 C 0.5148 0.42994 0.61331 0.0
C2269 C 0.52908 0.39991 0.59072 0.0
N2270 N 0.54998 0.41979 0.63492 0.0
N2271 N 0.54436 0.39529 0.60136 0.0
H2272 H 0.23671 0.33601 0.2387 0.0
H2273 H 0.19366 0.17552 0.27696 0.0
H2274 H 0.26857 0.24023 0.23041 0.0
H2275 H 0.17808 0.2727 0.29059 0.0
H2276 H 0.21654 0.19848 0.2583 0.0
H2277 H 0.20997 0.31284 0.25617 0.0
C2278 C 0.23783 0.31005 0.24048 0.0
C2279 C 0.25494 0.28999 0.23315 0.0
C2280 C 0.20804 0.21483 0.26533 0.0
C2281 C 0.22463 0.26343 0.25311 0.0
C2282 C 0.19502 0.20174 0.27593 0.0
C2283 C 0.18406 0.2224 0.28518 0.0
C2284 C 0.20997 0.24882 0.264 0.0
C2285 C 0.18625 0.25614 0.28355 0.0
C2286 C 0.22275 0.2969 0.25049 0.0
C2287 C 0.25587 0.25659 0.23594 0.0
N2288 N 0.19897 0.26838 0.27312 0.0
N2289 N 0.24094 0.24436 0.2457 0.0
H2290 H 0.0922 0.9503 0.52112 0.0
H2291 H 0.94331 0.00033 0.49481 0.0
H2292 H 0.0167 0.93128 0.54112 0.0
H2293 H 0.01902 0.02789 0.47658 0.0
H2294 H 0.96981 0.97386 0.51169 0.0
H2295 H 0.06595 0.9785 0.50457 0.0
C2296 C 0.07007 0.95241 0.52202 0.0
C2297 C 0.05645 0.93875 0.53242 0.0
C2298 C 0.98069 0.98566 0.50402 0.0
C2299 C 0.0263 0.97035 0.51358 0.0
C2300 C 0.96558 0.0006 0.4944 0.0
C2301 C 0.97918 0.016 0.48439 0.0
C2302 C 0.0096 0.98616 0.50355 0.0
C2303 C 0.00797 0.01605 0.4842 0.0
C2304 C 0.0551 0.96834 0.5126 0.0
C2305 C 0.0278 0.94169 0.5332 0.0
N2306 N 0.02228 0.00129 0.49365 0.0
N2307 N 0.01363 0.95709 0.52387 0.0
H2308 H 0.26278 0.66283 0.73992 0.0
H2309 H 0.3021 0.82429 0.77837 0.0
H2310 H 0.23274 0.75856 0.73022 0.0
H2311 H 0.31996 0.72739 0.79167 0.0
H2312 H 0.27936 0.80098 0.75974 0.0
H2313 H 0.28749 0.68642 0.75788 0.0
C2314 C 0.26166 0.68887 0.7415 0.0
C2315 C 0.24568 0.7088 0.73361 0.0
C2316 C 0.28823 0.78476 0.76672 0.0
C2317 C 0.27355 0.73585 0.75418 0.0
C2318 C 0.30111 0.79806 0.7773 0.0
C2319 C 0.31282 0.77756 0.7864 0.0
C2320 C 0.2872 0.75075 0.76526 0.0
C2321 C 0.31117 0.7438 0.78474 0.0
C2322 C 0.27555 0.70227 0.7518 0.0
C2323 C 0.2446 0.74231 0.73617 0.0
N2324 N 0.29863 0.73137 0.77432 0.0
N2325 N 0.25833 0.75479 0.74624 0.0
H2326 H 0.488 0.08476 0.03772 0.0
H2327 H 0.48543 0.98356 0.9727 0.0
H2328 H 0.41368 0.06158 0.01747 0.0
H2329 H 0.55991 0.00865 0.99247 0.0
H2330 H 0.45863 0.01191 0.98903 0.0
H2331 H 0.51485 0.05681 0.0213 0.0
C2332 C 0.47746 0.07366 0.02978 0.0
C2333 C 0.44877 0.07521 0.02886 0.0
C2334 C 0.48083 0.01132 0.98981 0.0
C2335 C 0.47902 0.04339 0.01011 0.0
C2336 C 0.49602 0.99521 0.98051 0.0
C2337 C 0.52473 0.99404 0.98134 0.0
C2338 C 0.49454 0.02627 -0.0 0.0
C2339 C 0.53773 0.00926 0.99157 0.0
C2340 C 0.49268 0.05777 0.02043 0.0
C2341 C 0.43583 0.06066 0.01846 0.0
N2342 N 0.52253 0.02477 0.00053 0.0
N2343 N 0.45106 0.0453 0.00947 0.0
H2344 H 0.26884 0.76338 0.26836 0.0
H2345 H 0.1741 0.72599 0.20831 0.0
H2346 H 0.23718 0.66762 0.25991 0.0
H2347 H 0.1924 0.823 0.22139 0.0
H2348 H 0.19805 0.70366 0.22686 0.0
H2349 H 0.24168 0.78558 0.25092 0.0
C2350 C 0.25606 0.74707 0.26284 0.0
C2351 C 0.2553 0.71363 0.26552 0.0
C2352 C 0.19671 0.72983 0.22572 0.0
C2353 C 0.22426 0.73876 0.24555 0.0
C2354 C 0.18313 0.74246 0.21517 0.0
C2355 C 0.18135 0.77621 0.21349 0.0
C2356 C 0.20878 0.75122 0.2345 0.0
C2357 C 0.19344 0.79678 0.22246 0.0
C2358 C 0.2405 0.75974 0.25293 0.0
C2359 C 0.23818 0.69359 0.25819 0.0
N2360 N 0.20675 0.78396 0.23259 0.0
N2361 N 0.22349 0.70644 0.24846 0.0
H2362 H 0.49401 0.92858 0.45539 0.0
H2363 H 0.48759 0.01099 0.52433 0.0
H2364 H 0.42072 0.93347 0.47821 0.0
H2365 H 0.56256 0.00153 0.50296 0.0
H2366 H 0.46268 0.98279 0.50737 0.0
H2367 H 0.51977 0.95568 0.47248 0.0
C2368 C 0.48343 0.9356 0.464 0.0
C2369 C 0.4553 0.92938 0.46542 0.0
C2370 C 0.4846 0.98672 0.50637 0.0
C2371 C 0.4843 0.95987 0.48494 0.0
C2372 C 0.49872 0.00271 0.51604 0.0
C2373 C 0.52698 0.00828 0.51494 0.0
C2374 C 0.49891 0.97639 0.4955 0.0
C2375 C 0.54069 0.99743 0.50407 0.0
C2376 C 0.49803 0.95092 0.47374 0.0
C2377 C 0.44238 0.93837 0.47675 0.0
N2378 N 0.52651 0.98201 0.49472 0.0
N2379 N 0.45695 0.95325 0.48607 0.0
H2380 H 0.26344 0.26109 0.77504 0.0
H2381 H 0.28436 0.25611 0.70001 0.0
H2382 H 0.20747 0.307 0.74885 0.0
H2383 H 0.32271 0.18767 0.72539 0.0
H2384 H 0.2593 0.27976 0.718 0.0
H2385 H 0.28905 0.23852 0.75709 0.0
C2386 C 0.25664 0.26648 0.7655 0.0
C2387 C 0.2333 0.28581 0.76339 0.0
C2388 C 0.27316 0.25953 0.71963 0.0
C2389 C 0.26242 0.26025 0.74288 0.0
C2390 C 0.28738 0.24614 0.7094 0.0
C2391 C 0.30527 0.21989 0.71132 0.0
C2392 C 0.27727 0.24679 0.73183 0.0
C2393 C 0.30892 0.20788 0.72362 0.0
C2394 C 0.27114 0.25349 0.75528 0.0
C2395 C 0.22519 0.29189 0.75086 0.0
N2396 N 0.29505 0.22148 0.73344 0.0
N2397 N 0.23981 0.27925 0.74107 0.0
H2398 H 0.00636 0.05056 0.95239 0.0
H2399 H 0.00029 0.00817 0.02657 0.0
H2400 H 0.06721 0.08123 0.9795 0.0
H2401 H 0.93905 0.97599 -8e-05 0.0
H2402 H 0.02479 0.03575 0.00935 0.0
H2403 H 0.98082 0.02339 0.96953 0.0
C2404 C 0.01417 0.05157 0.96199 0.0
C2405 C 0.0386 0.06815 0.96468 0.0
C2406 C 0.00599 0.02271 0.00723 0.0
C2407 C 0.00998 0.03734 0.98419 0.0
C2408 C 0.99208 0.00708 0.01705 0.0
C2409 C 0.96779 0.99002 0.01455 0.0
C2410 C 0.99547 0.02118 0.99483 0.0
C2411 C 0.95781 0.98903 0.00212 0.0
C2412 C -0.00028 0.03613 0.97174 0.0
C2413 C 0.04824 0.06876 0.97716 0.0
N2414 N 0.97172 0.00442 0.99268 0.0
N2415 N 0.0339 0.0536 0.98647 0.0
H2416 H 0.7364 0.83812 0.73863 0.0
H2417 H 0.70366 0.67542 0.77724 0.0
H2418 H 0.77569 0.7461 0.73073 0.0
H2419 H 0.68585 0.77122 0.79175 0.0
H2420 H 0.72671 0.70028 0.75897 0.0
H2421 H 0.71376 0.81342 0.75699 0.0
C2422 C 0.74012 0.81267 0.74074 0.0
C2423 C 0.7579 0.79408 0.73317 0.0
C2424 C 0.71781 0.71589 0.76615 0.0
C2425 C 0.73219 0.76575 0.75411 0.0
C2426 C 0.7047 0.70173 0.77652 0.0
C2427 C 0.69287 0.72145 0.78587 0.0
C2428 C 0.71881 0.74999 0.76511 0.0
C2429 C 0.69465 0.75535 0.78463 0.0
C2430 C 0.72738 0.79867 0.75125 0.0
C2431 C 0.76229 0.76132 0.73639 0.0
N2432 N 0.70726 0.76863 0.77437 0.0
N2433 N 0.74942 0.74814 0.74658 0.0
H2434 H 0.76456 0.16332 0.23974 0.0
H2435 H 0.80798 0.32592 0.27659 0.0
H2436 H 0.7397 0.26002 0.2285 0.0
H2437 H 0.8287 0.22946 0.28948 0.0
H2438 H 0.78605 0.30225 0.25784 0.0
H2439 H 0.79197 0.18707 0.25684 0.0
C2440 C 0.76517 0.18957 0.24078 0.0
C2441 C 0.74969 0.20974 0.23277 0.0
C2442 C 0.79548 0.28618 0.26472 0.0
C2443 C 0.78065 0.23701 0.25236 0.0
C2444 C 0.80792 0.2997 0.27537 0.0
C2445 C 0.81998 0.27943 0.28444 0.0
C2446 C 0.79509 0.25216 0.2632 0.0
C2447 C 0.81954 0.24568 0.28259 0.0
C2448 C 0.78064 0.20309 0.25058 0.0
C2449 C 0.75098 0.24356 0.2346 0.0
N2450 N 0.80719 0.23301 0.27216 0.0
N2451 N 0.76608 0.25612 0.24423 0.0
H2452 H 0.73326 0.22743 0.77507 0.0
H2453 H 0.71358 0.24332 0.70036 0.0
H2454 H 0.79254 0.19044 0.74829 0.0
H2455 H 0.67459 0.30831 0.72689 0.0
H2456 H 0.7394 0.21857 0.71789 0.0
H2457 H 0.70773 0.25226 0.75754 0.0
C2458 C 0.74081 0.2245 0.76549 0.0
C2459 C 0.76503 0.207 0.76309 0.0
C2460 C 0.72527 0.23833 0.71986 0.0
C2461 C 0.736 0.23505 0.74307 0.0
C2462 C 0.71063 0.25236 0.7099 0.0
C2463 C 0.69227 0.27792 0.71228 0.0
C2464 C 0.72106 0.24962 0.73227 0.0
C2465 C 0.68873 0.28867 0.72476 0.0
C2466 C 0.72637 0.23878 0.75552 0.0
C2467 C 0.77409 0.20404 0.75053 0.0
N2468 N 0.70294 0.27436 0.73433 0.0
N2469 N 0.75948 0.21779 0.74096 0.0
H2470 H 0.75854 0.83404 0.25941 0.0
H2471 H 0.80185 0.67281 0.22158 0.0
H2472 H 0.73168 0.73732 0.26963 0.0
H2473 H 0.82239 0.76979 0.20923 0.0
H2474 H 0.77809 0.69588 0.23999 0.0
H2475 H 0.78474 0.81085 0.24182 0.0
C2476 C 0.75839 0.80789 0.25803 0.0
C2477 C 0.74286 0.78757 0.26597 0.0
C2478 C 0.7878 0.71218 0.23328 0.0
C2479 C 0.77249 0.76094 0.24579 0.0
C2480 C 0.80127 0.69902 0.22282 0.0
C2481 C 0.81394 0.7196 0.21403 0.0
C2482 C 0.78707 0.74616 0.23491 0.0
C2483 C 0.81281 0.75332 0.21591 0.0
C2484 C 0.77317 0.7947 0.24794 0.0
C2485 C 0.74309 0.75391 0.26364 0.0
N2486 N 0.79959 0.76562 0.22618 0.0
N2487 N 0.75763 0.74166 0.25375 0.0
H2488 H 0.59289 0.44406 0.01875 0.0
H2489 H 0.44416 0.50237 0.99502 0.0
H2490 H 0.51897 0.43332 0.04083 0.0
H2491 H 0.51918 0.52508 0.97525 0.0
H2492 H 0.47109 0.47519 0.01159 0.0
H2493 H 0.56637 0.47277 0.00241 0.0
C2494 C 0.57107 0.44809 0.02015 0.0
C2495 C 0.55796 0.43663 0.03108 0.0
C2496 C 0.48173 0.48607 0.00364 0.0
C2497 C 0.52749 0.4688 0.01249 0.0
C2498 C 0.46636 0.5014 0.99421 0.0
C2499 C 0.47966 0.51565 0.98386 0.0
C2500 C 0.51056 0.485 0.00265 0.0
C2501 C 0.50837 0.51414 0.98314 0.0
C2502 C 0.55594 0.46432 0.01085 0.0
C2503 C 0.52969 0.44201 0.0325 0.0
N2504 N 0.52293 0.499 0.99242 0.0
N2505 N 0.51534 0.45762 0.02328 0.0
H2506 H 0.05771 0.51054 0.49457 0.0
H2507 H 0.90721 0.55835 0.51977 0.0
H2508 H 0.98294 0.4863 0.47487 0.0
H2509 H 0.9819 0.58226 0.53959 0.0
H2510 H 0.93459 0.53306 0.50289 0.0
H2511 H 0.0305 0.53855 0.51086 0.0
C2512 C 0.03552 0.51142 0.49368 0.0
C2513 C 0.02239 0.49637 0.48345 0.0
C2514 C 0.94506 0.54384 0.51091 0.0
C2515 C 0.99115 0.52788 0.50196 0.0
C2516 C 0.92943 0.55817 0.52051 0.0
C2517 C 0.94248 0.5721 0.53101 0.0
C2518 C 0.97392 0.54353 0.51186 0.0
C2519 C 0.97124 0.57159 0.5316 0.0
C2520 C 0.02 0.52726 0.50295 0.0
C2521 C 0.99367 0.4978 0.48266 0.0
N2522 N 0.98604 0.55746 0.52216 0.0
N2523 N 0.97896 0.51323 0.49182 0.0
H2524 H 0.98941 0.4996 0.02776 0.0
H2525 H 0.97221 0.44894 0.95476 0.0
H2526 H 0.04791 0.5247 0.99875 0.0
H2527 H 0.91423 0.42276 0.98384 0.0
H2528 H -0.00069 0.47892 0.97054 0.0
H2529 H 0.96073 0.47272 0.01173 0.0
C2530 C 0.9961 0.49936 0.01797 0.0
C2531 C 0.02086 0.51422 0.01447 0.0
C2532 C 0.9806 0.46678 0.97349 0.0
C2533 C 0.98843 0.4838 0.99612 0.0
C2534 C 0.96518 0.44984 0.96449 0.0
C2535 C 0.94117 0.43353 0.96811 0.0
C2536 C 0.97189 0.46728 0.98619 0.0
C2537 C 0.93273 0.43514 0.98077 0.0
C2538 C 0.9798 0.48413 0.00883 0.0
C2539 C 0.02884 0.51344 0.00173 0.0
N2540 N 0.94815 0.45162 0.98939 0.0
N2541 N 0.01266 0.49845 0.993 0.0
H2542 H 0.58853 0.55079 0.48072 0.0
H2543 H 0.43752 0.50368 0.50536 0.0
H2544 H 0.51406 0.5772 0.46119 0.0
H2545 H 0.51186 0.47834 0.52521 0.0
H2546 H 0.46518 0.53042 0.48894 0.0
H2547 H 0.56096 0.52315 0.49696 0.0
C2548 C 0.56633 0.55046 0.47986 0.0
C2549 C 0.55337 0.56594 0.46968 0.0
C2550 C 0.4755 0.51909 0.49688 0.0
C2551 C 0.52175 0.53494 0.48814 0.0
C2552 C 0.45973 0.50397 0.50623 0.0
C2553 C 0.47261 0.48908 0.51656 0.0
C2554 C 0.50434 0.51918 0.49792 0.0
C2555 C 0.50135 0.48975 0.51733 0.0
C2556 C 0.5506 0.53487 0.48911 0.0
C2557 C 0.52463 0.5653 0.46894 0.0
N2558 N 0.51631 0.50456 0.50811 0.0
N2559 N 0.50974 0.55006 0.47807 0.0
H2560 H 0.15215 0.01118 0.28737 0.0
H2561 H 0.15493 0.98542 0.21225 0.0
H2562 H 0.14306 0.09008 0.26074 0.0
H2563 H 0.13494 0.90855 0.23853 0.0
H2564 H 0.15817 0.02363 0.23005 0.0
H2565 H 0.15345 0.97261 0.26963 0.0
C2566 C 0.15066 0.02037 0.27778 0.0
C2567 C 0.14732 0.05381 0.2755 0.0
C2568 C 0.15312 0.99838 0.23191 0.0
C2569 C 0.14886 0.00998 0.25521 0.0
C2570 C 0.15142 0.97657 0.22178 0.0
C2571 C 0.14448 0.94386 0.22393 0.0
C2572 C 0.14825 0.98728 0.24429 0.0
C2573 C 0.13999 0.93368 0.23645 0.0
C2574 C 0.15124 0.99838 0.26768 0.0
C2575 C 0.14532 0.06444 0.2629 0.0
N2576 N 0.14201 0.95529 0.24617 0.0
N2577 N 0.14617 0.04262 0.25323 0.0
H2578 H 0.17595 0.82378 0.51269 0.0
H2579 H 0.31098 0.90287 0.48521 0.0
H2580 H 0.23286 0.87899 0.53566 0.0
H2581 H 0.28322 0.80972 0.47104 0.0
H2582 H 0.27694 0.8996 0.50199 0.0
H2583 H 0.21051 0.82194 0.4958 0.0
C2584 C 0.19573 0.83517 0.51428 0.0
C2585 C 0.20129 0.85197 0.52561 0.0
C2586 C 0.27838 0.87982 0.49523 0.0
C2587 C 0.24036 0.85066 0.50619 0.0
C2588 C 0.29792 0.88154 0.48566 0.0
C2589 C 0.30051 0.85616 0.47681 0.0
C2590 C 0.26077 0.85289 0.49588 0.0
C2591 C 0.28202 0.82987 0.47763 0.0
C2592 C 0.21532 0.83423 0.50459 0.0
C2593 C 0.22723 0.86658 0.527 0.0
N2594 N 0.26285 0.8289 0.48702 0.0
N2595 N 0.24563 0.86592 0.51736 0.0
H2596 H 0.34856 0.09072 0.73749 0.0
H2597 H 0.35722 0.90642 0.76014 0.0
H2598 H 0.343 0.00985 0.71155 0.0
H2599 H 0.33582 0.98503 0.78539 0.0
H2600 H 0.35391 0.94398 0.74221 0.0
H2601 H 0.34568 0.05259 0.75525 0.0
C2602 C 0.34667 0.06489 0.73556 0.0
C2603 C 0.3462 0.05332 0.72306 0.0
C2604 C 0.34973 0.95297 0.75166 0.0
C2605 C 0.343 0.00962 0.74329 0.0
C2606 C 0.35177 0.93162 0.76188 0.0
C2607 C 0.34695 0.94276 0.77424 0.0
C2608 C 0.34323 0.98582 0.75383 0.0
C2609 C 0.33961 0.9755 0.77599 0.0
C2610 C 0.34487 0.04319 0.74568 0.0
C2611 C 0.34337 0.01971 0.72105 0.0
N2612 N 0.33826 0.99599 0.7659 0.0
N2613 N 0.34218 0.99897 0.73107 0.0
H2614 H 0.32142 0.17268 0.00908 0.0
H2615 H 0.18532 0.09019 0.98326 0.0
H2616 H 0.26828 0.11312 0.03234 0.0
H2617 H 0.21403 0.18197 0.9682 0.0
H2618 H 0.22046 0.09313 0.99959 0.0
H2619 H 0.28636 0.17224 0.99247 0.0
C2620 C 0.30236 0.15978 0.01079 0.0
C2621 C 0.29797 0.14276 0.02218 0.0
C2622 C 0.21901 0.11266 0.99272 0.0
C2623 C 0.25824 0.14148 0.00302 0.0
C2624 C 0.19885 0.11113 0.98341 0.0
C2625 C 0.19627 0.13621 0.97443 0.0
C2626 C 0.23717 0.13915 0.993 0.0
C2627 C 0.21524 0.16204 0.97488 0.0
C2628 C 0.28247 0.15941 0.00125 0.0
C2629 C 0.273 0.12597 0.02366 0.0
N2630 N 0.23494 0.16286 0.98403 0.0
N2631 N 0.25421 0.12556 0.01417 0.0
H2632 H 0.83486 0.0043 0.78504 0.0
H2633 H 0.82665 0.98378 0.70998 0.0
H2634 H 0.81936 0.08439 0.75968 0.0
H2635 H 0.81539 0.90304 0.73549 0.0
H2636 H 0.82757 0.02099 0.72811 0.0
H2637 H 0.83104 0.96638 0.76709 0.0
C2638 C 0.83042 0.01375 0.77568 0.0
C2639 C 0.8272 0.04731 0.77376 0.0
C2640 C 0.82461 0.99519 0.72977 0.0
C2641 C 0.82337 0.00451 0.75326 0.0
C2642 C 0.82397 0.97405 0.71943 0.0
C2643 C 0.82017 0.94056 0.7213 0.0
C2644 C 0.8221 0.98263 0.74209 0.0
C2645 C 0.81786 0.92886 0.73372 0.0
C2646 C 0.82828 0.99222 0.76547 0.0
C2647 C 0.82185 0.05859 0.76149 0.0
N2648 N 0.8189 0.94988 0.74368 0.0
N2649 N 0.82025 0.03726 0.75168 0.0
H2650 H 0.67988 0.02355 0.50536 0.0
H2651 H 0.82723 0.10534 0.49774 0.0
H2652 H 0.69997 0.1165 0.52201 0.0
H2653 H 0.79397 0.03827 0.47015 0.0
H2654 H 0.78278 0.10573 0.50851 0.0
H2655 H 0.72401 0.02417 0.49413 0.0
C2656 C 0.69362 0.04407 0.50663 0.0
C2657 C 0.68635 0.07005 0.51458 0.0
C2658 C 0.7853 0.09099 0.50008 0.0
C2659 C 0.73676 0.07079 0.50192 0.0
C2660 C 0.81063 0.09084 0.49388 0.0
C2661 C 0.81452 0.07174 0.48297 0.0
C2662 C 0.76375 0.07158 0.49548 0.0
C2663 C 0.79226 0.05291 0.47864 0.0
C2664 C 0.71868 0.04448 0.5002 0.0
C2665 C 0.70476 0.09616 0.51587 0.0
N2666 N 0.76791 0.0532 0.48493 0.0
N2667 N 0.72925 0.09577 0.50968 0.0
H2668 H 0.70479 0.06602 0.23096 0.0
H2669 H 0.61918 0.95757 0.27863 0.0
H2670 H 0.61946 0.04415 0.22388 0.0
H2671 H 0.70288 0.93283 0.26924 0.0
H2672 H 0.61918 0.99803 0.26144 0.0
H2673 H 0.70508 0.02504 0.24794 0.0
C2674 C 0.68616 0.05253 0.23301 0.0
C2675 C 0.66203 0.0584 0.22611 0.0
C2676 C 0.63751 0.9837 0.26318 0.0
C2677 C 0.66204 0.01244 0.24558 0.0
C2678 C 0.63752 0.96077 0.27294 0.0
C2679 C 0.66098 0.94179 0.27521 0.0
C2680 C 0.66138 0.98826 0.25593 0.0
C2681 C 0.68441 0.94704 0.26773 0.0
C2682 C 0.68634 0.02928 0.24265 0.0
C2683 C 0.63837 0.04044 0.2291 0.0
N2684 N 0.68411 0.96999 0.25845 0.0
N2685 N 0.63885 0.01847 0.23873 0.0
H2686 H 0.67138 0.89575 0.99655 0.0
H2687 H 0.81854 0.97359 0.00651 0.0
H2688 H 0.71032 0.95546 0.96799 0.0
H2689 H 0.79797 0.8801 0.02253 0.0
H2690 H 0.77586 0.97212 0.99417 0.0
H2691 H 0.71505 0.89364 0.00802 0.0
C2692 C 0.68903 0.90822 0.99261 0.0
C2693 C 0.68693 0.92605 0.98129 0.0
C2694 C 0.78077 0.95186 0.00034 0.0
C2695 C 0.73667 0.92432 0.99457 0.0
C2696 C 0.80497 0.95277 0.00739 0.0
C2697 C 0.81161 0.9269 0.01548 0.0
C2698 C 0.76288 0.92523 0.00161 0.0
C2699 C 0.79351 0.90038 0.0163 0.0
C2700 C 0.7139 0.90708 0.99921 0.0
C2701 C 0.71057 0.94212 0.97682 0.0
N2702 N 0.76974 0.90033 0.00953 0.0
N2703 N 0.73434 0.94112 0.98353 0.0
H2704 H 0.59584 0.45356 0.72475 0.0
H2705 H 0.68825 0.55213 0.77426 0.0
H2706 H 0.68402 0.44236 0.727 0.0
H2707 H 0.59984 0.54424 0.77672 0.0
H2708 H 0.68768 0.51442 0.75631 0.0
H2709 H 0.59745 0.49009 0.74291 0.0
C2710 C 0.61556 0.45863 0.72909 0.0
C2711 C 0.63981 0.44455 0.72436 0.0
C2712 C 0.66844 0.52092 0.76081 0.0
C2713 C 0.64182 0.48693 0.74515 0.0
C2714 C 0.66875 0.54229 0.77113 0.0
C2715 C 0.64403 0.55161 0.77701 0.0
C2716 C 0.64324 0.5089 0.7563 0.0
C2717 C 0.61937 0.53835 0.77236 0.0
C2718 C 0.61647 0.47963 0.73945 0.0
C2719 C 0.66482 0.45282 0.73022 0.0
N2720 N 0.61961 0.51785 0.76228 0.0
N2721 N 0.66518 0.47342 0.74032 0.0
H2722 H 0.78873 0.29884 0.97211 0.0
H2723 H 0.70327 0.40597 0.02168 0.0
H2724 H 0.7989 0.40246 0.97745 0.0
H2725 H 0.70047 0.30082 0.02134 0.0
H2726 H 0.73646 0.40462 0.0045 0.0
H2727 H 0.75467 0.29849 0.98924 0.0
C2728 C 0.78386 0.32148 0.97687 0.0
C2729 C 0.7966 0.35077 0.97325 0.0
C2730 C 0.7287 0.38178 0.00818 0.0
C2731 C 0.75756 0.35055 0.99274 0.0
C2732 C 0.70983 0.38252 0.01807 0.0
C2733 C 0.69929 0.35344 0.0231 0.0
C2734 C 0.73712 0.35174 0.00315 0.0
C2735 C 0.70799 0.32384 0.01774 0.0
C2736 C 0.76436 0.32127 0.98661 0.0
C2737 C 0.78926 0.3794 0.97969 0.0
N2738 N 0.72648 0.32373 0.00806 0.0
N2739 N 0.77028 0.37854 0.98909 0.0
H2740 H 0.89022 0.47862 0.2834 0.0
H2741 H 0.82663 0.52061 0.21569 0.0
H2742 H 0.8188 0.42959 0.26844 0.0
H2743 H 0.88316 0.58365 0.23556 0.0
H2744 H 0.82444 0.48558 0.23441 0.0
H2745 H 0.88927 0.51586 0.26536 0.0
C2746 C 0.8743 0.47577 0.27631 0.0
C2747 C 0.85461 0.45096 0.27739 0.0
C2748 C 0.83725 0.50715 0.23465 0.0
C2749 C 0.85342 0.49339 0.25668 0.0
C2750 C 0.83846 0.52725 0.22398 0.0
C2751 C 0.8553 0.55508 0.22396 0.0
C2752 C 0.85313 0.51478 0.24536 0.0
C2753 C 0.87039 0.56211 0.23498 0.0
C2754 C 0.87369 0.4971 0.26605 0.0
C2755 C 0.83425 0.44855 0.26801 0.0
N2756 N 0.86905 0.54205 0.24517 0.0
N2757 N 0.8343 0.46934 0.25798 0.0
H2758 H 0.68388 0.5938 0.48608 0.0
H2759 H 0.8162 0.67447 0.51702 0.0
H2760 H 0.71874 0.68351 0.4721 0.0
H2761 H 0.76325 0.60769 0.53717 0.0
H2762 H 0.7827 0.67634 0.49984 0.0
H2763 H 0.71546 0.59572 0.50406 0.0
C2764 C 0.69834 0.61381 0.48678 0.0
C2765 C 0.69889 0.63845 0.47759 0.0
C2766 C 0.77838 0.66148 0.50807 0.0
C2767 C 0.7349 0.6409 0.49813 0.0
C2768 C 0.7974 0.66054 0.51794 0.0
C2769 C 0.79266 0.64077 0.52859 0.0
C2770 C 0.7546 0.64223 0.50876 0.0
C2771 C 0.76811 0.62276 0.52907 0.0
C2772 C 0.71616 0.61505 0.49708 0.0
C2773 C 0.71767 0.66411 0.47903 0.0
N2774 N 0.75012 0.62373 0.51926 0.0
N2775 N 0.73512 0.66457 0.48908 0.0
H2776 H 0.35135 0.52012 0.28584 0.0
H2777 H 0.34949 0.48345 0.21189 0.0
H2778 H 0.32941 0.59364 0.25854 0.0
H2779 H 0.32906 0.40987 0.23942 0.0
H2780 H 0.34989 0.52448 0.22886 0.0
H2781 H 0.35095 0.47908 0.26887 0.0
C2782 C 0.34642 0.5275 0.27626 0.0
C2783 C 0.34018 0.56009 0.27353 0.0
C2784 C 0.34528 0.49935 0.23116 0.0
C2785 C 0.34032 0.51379 0.25415 0.0
C2786 C 0.34506 0.47606 0.22152 0.0
C2787 C 0.33901 0.44346 0.22431 0.0
C2788 C 0.34007 0.48975 0.2437 0.0
C2789 C 0.33375 0.43486 0.23693 0.0
C2790 C 0.34619 0.5042 0.26662 0.0
C2791 C 0.33427 0.56867 0.26097 0.0
N2792 N 0.33456 0.45784 0.24619 0.0
N2793 N 0.33463 0.54568 0.25171 0.0
H2794 H 0.29843 0.61522 0.97384 0.0
H2795 H 0.21102 0.54571 0.03134 0.0
H2796 H 0.3242 0.53143 0.99543 0.0
H2797 H 0.17299 0.59491 -0.00033 0.0
H2798 H 0.25469 0.54631 0.02003 0.0
H2799 H 0.25429 0.61465 0.98511 0.0
C2800 C 0.2948 0.59684 0.98101 0.0
C2801 C 0.31488 0.57333 0.98375 0.0
C2802 C 0.23672 0.55689 0.01557 0.0
C2803 C 0.26475 0.57267 0.99665 0.0
C2804 C 0.21166 0.5564 0.02198 0.0
C2805 C 0.18798 0.57004 0.01646 0.0
C2806 C 0.2384 0.57165 0.00364 0.0
C2807 C 0.1906 0.58447 0.00443 0.0
C2808 C 0.26962 0.59641 0.98736 0.0
C2809 C 0.30914 0.54985 0.99302 0.0
N2810 N 0.21536 0.585 0.99845 0.0
N2811 N 0.28464 0.55023 0.99921 0.0
H2812 H 0.17572 0.40417 0.76197 0.0
H2813 H 0.18503 0.59005 0.73983 0.0
H2814 H 0.16624 0.48449 0.78786 0.0
H2815 H 0.16135 0.51234 0.71468 0.0
H2816 H 0.18602 0.55107 0.75748 0.0
H2817 H 0.17834 0.44297 0.74431 0.0
C2818 C 0.17445 0.43006 0.7639 0.0
C2819 C 0.17095 0.44134 0.77631 0.0
C2820 C 0.18074 0.54254 0.74809 0.0
C2821 C 0.174 0.48567 0.75631 0.0
C2822 C 0.18025 0.56467 0.73806 0.0
C2823 C 0.17321 0.55418 0.72586 0.0
C2824 C 0.17445 0.50965 0.74583 0.0
C2825 C 0.16708 0.52118 0.72397 0.0
C2826 C 0.17584 0.45211 0.75386 0.0
C2827 C 0.16924 0.47499 0.7784 0.0
N2828 N 0.16793 0.5 0.73386 0.0
N2829 N 0.17088 0.49605 0.76849 0.0
H2830 H 0.18635 0.37736 0.48274 0.0
H2831 H 0.30691 0.4852 0.51296 0.0
H2832 H 0.1866 0.48253 0.48335 0.0
H2833 H 0.30503 0.38017 0.51492 0.0
H2834 H 0.26332 0.48432 0.50156 0.0
H2835 H 0.23004 0.37747 0.49425 0.0
C2836 C 0.19547 0.40046 0.48537 0.0
C2837 C 0.18282 0.42999 0.48203 0.0
C2838 C 0.27242 0.46143 0.50447 0.0
C2839 C 0.23296 0.43029 0.49504 0.0
C2840 C 0.29728 0.46193 0.51102 0.0
C2841 C 0.3096 0.43272 0.51497 0.0
C2842 C 0.25967 0.4315 0.5018 0.0
C2843 C 0.29642 0.40326 0.51196 0.0
C2844 C 0.2205 0.40051 0.49187 0.0
C2845 C 0.19579 0.45918 0.48554 0.0
N2846 N 0.27212 0.40341 0.50559 0.0
N2847 N 0.22012 0.45858 0.49183 0.0
loop_
_geom_bond_atom_site_label_1
_geom_bond_atom_site_label_2
_geom_bond_distance
_geom_bond_site_symmetry_2
_ccdc_geom_bond_type
C0 C1 1.443 . S
C0 N4 1.376 . S
C0 C38 1.389 . S
C1 C0 1.443 . S
C1 C2 1.340 . S
C1 H41 0.951 . S
C2 C1 1.340 . S
C2 C3 1.439 . S
C2 H42 0.950 . S
C3 C2 1.439 . S
C3 N4 1.374 . S
C3 C37 1.395 . S
N4 C0 1.376 . S
N4 C3 1.374 . S
N4 Co5 2.008 . S
Co5 N4 2.008 . S
Co5 N6 1.995 . S
Co5 N11 2.008 . S
Co5 N16 1.995 . S
Co5 N21 2.282 . S
Co5 N27 2.282 . S
N6 Co5 1.995 . S
N6 C7 1.376 . S
N6 C10 1.383 . S
C7 N6 1.376 . S
C7 C8 1.446 . S
C7 C37 1.391 . S
C8 C7 1.446 . S
C8 C9 1.339 . S
C8 H43 0.949 . S
C9 C8 1.339 . S
C9 C10 1.439 . S
C9 H44 0.950 . S
C10 N6 1.383 . S
C10 C9 1.439 . S
C10 C39 1.392 . S
N11 Co5 2.008 . S
N11 C12 1.376 . S
N11 C15 1.374 . S
C12 N11 1.376 . S
C12 C13 1.443 . S
C12 C39 1.389 . S
C13 C12 1.443 . S
C13 C14 1.340 . S
C13 H45 0.951 . S
C14 C13 1.340 . S
C14 C15 1.439 . S
C14 H46 0.950 . S
C15 N11 1.374 . S
C15 C14 1.439 . S
C15 C40 1.395 . S
N16 Co5 1.995 . S
N16 C17 1.376 . S
N16 C20 1.383 . S
C17 N16 1.376 . S
C17 C18 1.446 . S
C17 C40 1.391 . S
C18 C17 1.446 . S
C18 C19 1.339 . S
C18 H47 0.949 . S
C19 C18 1.339 . S
C19 C20 1.439 . S
C19 H48 0.950 . S
C20 N16 1.383 . S
C20 C19 1.439 . S
C20 C38 1.392 . S
N21 Co5 2.282 . S
N21 C24 1.332 . S
N21 C26 1.332 . S
C22 C23 1.386 . S
C22 C25 1.388 . S
C23 C22 1.386 . S
C23 C24 1.382 . S
C23 H49 0.950 . S
C24 N21 1.332 . S
C24 C23 1.382 . S
C24 H35 0.952 . S
C25 C22 1.388 . S
C25 C26 1.382 . S
C25 H50 0.950 . S
C26 N21 1.332 . S
C26 C25 1.382 . S
C26 H36 0.948 . S
N27 Co5 2.282 . S
N27 C31 1.332 . S
N27 C32 1.332 . S
C28 C29 1.388 . S
C28 C32 1.382 . S
C28 H51 0.950 . S
C29 C28 1.388 . S
C29 C30 1.386 . S
C30 C29 1.386 . S
C30 C31 1.382 . S
C30 H52 0.950 . S
C31 N27 1.332 . S
C31 C30 1.382 . S
C31 H33 0.952 . S
C32 N27 1.332 . S
C32 C28 1.382 . S
C32 H34 0.948 . S
H33 C31 0.952 . S
H34 C32 0.948 . S
H35 C24 0.952 . S
H36 C26 0.948 . S
C37 C3 1.395 . S
C37 C7 1.391 . S
C38 C0 1.389 . S
C38 C20 1.392 . S
C39 C10 1.392 . S
C39 C12 1.389 . S
C40 C15 1.395 . S
C40 C17 1.391 . S
H41 C1 0.951 . S
H42 C2 0.950 . S
H43 C8 0.949 . S
H44 C9 0.950 . S
H45 C13 0.951 . S
H46 C14 0.950 . S
H47 C18 0.949 . S
H48 C19 0.950 . S
H49 C23 0.950 . S
H50 C25 0.950 . S
H51 C28 0.950 . S
H52 C30 0.950 . S
C53 C54 1.443 . S
C53 N57 1.376 . S
C53 C91 1.389 . S
C54 C53 1.443 . S
C54 C55 1.340 . S
C54 H94 0.951 . S
C55 C54 1.340 . S
C55 C56 1.439 . S
C55 H95 0.950 . S
C56 C55 1.439 . S
C56 N57 1.374 . S
C56 C90 1.395 . S
N57 C53 1.376 . S
N57 C56 1.374 . S
N57 Co58 2.008 . S
Co58 N57 2.008 . S
Co58 N59 1.995 . S
Co58 N64 2.008 . S
Co58 N69 1.995 . S
Co58 N74 2.282 . S
Co58 N80 2.282 . S
N59 Co58 1.995 . S
N59 C60 1.376 . S
N59 C63 1.383 . S
C60 N59 1.376 . S
C60 C61 1.446 . S
C60 C90 1.391 . S
C61 C60 1.446 . S
C61 C62 1.339 . S
C61 H96 0.949 . S
C62 C61 1.339 . S
C62 C63 1.439 . S
C62 H97 0.950 . S
C63 N59 1.383 . S
C63 C62 1.439 . S
C63 C92 1.392 . S
N64 Co58 2.008 . S
N64 C65 1.376 . S
N64 C68 1.374 1_565 S
C65 N64 1.376 . S
C65 C66 1.443 1_565 S
C65 C92 1.389 . S
C66 C65 1.443 1_545 S
C66 C67 1.340 . S
C66 H98 0.951 . S
C67 C66 1.340 . S
C67 C68 1.439 . S
C67 H99 0.950 . S
C68 N64 1.374 1_545 S
C68 C67 1.439 . S
C68 C93 1.395 . S
N69 Co58 1.995 . S
N69 C70 1.376 . S
N69 C73 1.383 . S
C70 N69 1.376 . S
C70 C71 1.446 . S
C70 C93 1.391 1_565 S
C71 C70 1.446 . S
C71 C72 1.339 . S
C71 H100 0.949 . S
C72 C71 1.339 . S
C72 C73 1.439 . S
C72 H101 0.950 . S
C73 N69 1.383 . S
C73 C72 1.439 . S
C73 C91 1.392 . S
N74 Co58 2.282 . S
N74 C77 1.332 . S
N74 C79 1.332 . S
C75 C76 1.386 . S
C75 C78 1.388 . S
C76 C75 1.386 . S
C76 C77 1.382 . S
C76 H102 0.950 . S
C77 N74 1.332 . S
C77 C76 1.382 . S
C77 H88 0.952 . S
C78 C75 1.388 . S
C78 C79 1.382 . S
C78 H103 0.950 . S
C79 N74 1.332 . S
C79 C78 1.382 . S
C79 H89 0.948 . S
N80 Co58 2.282 . S
N80 C84 1.332 . S
N80 C85 1.332 . S
C81 C82 1.388 . S
C81 C85 1.382 . S
C81 H104 0.950 . S
C82 C81 1.388 . S
C82 C83 1.386 . S
C83 C82 1.386 . S
C83 C84 1.382 . S
C83 H105 0.950 . S
C84 N80 1.332 . S
C84 C83 1.382 . S
C84 H86 0.952 . S
C85 N80 1.332 . S
C85 C81 1.382 . S
C85 H87 0.948 . S
H86 C84 0.952 . S
H87 C85 0.948 . S
H88 C77 0.952 . S
H89 C79 0.948 . S
C90 C56 1.395 . S
C90 C60 1.391 . S
C91 C53 1.389 . S
C91 C73 1.392 . S
C92 C63 1.392 . S
C92 C65 1.389 . S
C93 C68 1.395 . S
C93 C70 1.391 1_545 S
H94 C54 0.951 . S
H95 C55 0.950 . S
H96 C61 0.949 . S
H97 C62 0.950 . S
H98 C66 0.951 . S
H99 C67 0.950 . S
H100 C71 0.949 . S
H101 C72 0.950 . S
H102 C76 0.950 . S
H103 C78 0.950 . S
H104 C81 0.950 . S
H105 C83 0.950 . S
C106 C107 1.443 . S
C106 N110 1.376 . S
C106 C144 1.389 . S
C107 C106 1.443 . S
C107 C108 1.340 . S
C107 H147 0.951 . S
C108 C107 1.340 . S
C108 C109 1.439 . S
C108 H148 0.950 . S
C109 C108 1.439 . S
C109 N110 1.374 . S
C109 C143 1.395 . S
N110 C106 1.376 . S
N110 C109 1.374 . S
N110 Co111 2.008 . S
Co111 N110 2.008 . S
Co111 N112 1.995 . S
Co111 N117 2.008 . S
Co111 N122 1.995 . S
Co111 N127 2.282 . S
Co111 N133 2.282 . S
N112 Co111 1.995 . S
N112 C113 1.376 . S
N112 C116 1.383 . S
C113 N112 1.376 . S
C113 C114 1.446 . S
C113 C143 1.391 . S
C114 C113 1.446 . S
C114 C115 1.339 . S
C114 H149 0.949 . S
C115 C114 1.339 . S
C115 C116 1.439 . S
C115 H150 0.950 . S
C116 N112 1.383 . S
C116 C115 1.439 . S
C116 C145 1.392 . S
N117 Co111 2.008 . S
N117 C118 1.376 . S
N117 C121 1.374 . S
C118 N117 1.376 . S
C118 C119 1.443 . S
C118 C145 1.389 . S
C119 C118 1.443 . S
C119 C120 1.340 . S
C119 H151 0.951 . S
C120 C119 1.340 . S
C120 C121 1.439 . S
C120 H152 0.950 . S
C121 N117 1.374 . S
C121 C120 1.439 . S
C121 C146 1.395 . S
N122 Co111 1.995 . S
N122 C123 1.376 . S
N122 C126 1.383 . S
C123 N122 1.376 . S
C123 C124 1.446 . S
C123 C146 1.391 . S
C124 C123 1.446 . S
C124 C125 1.339 . S
C124 H153 0.949 . S
C125 C124 1.339 . S
C125 C126 1.439 . S
C125 H154 0.950 . S
C126 N122 1.383 . S
C126 C125 1.439 . S
C126 C144 1.392 . S
N127 Co111 2.282 . S
N127 C130 1.332 . S
N127 C132 1.332 . S
C128 C129 1.386 . S
C128 C131 1.388 . S
C129 C128 1.386 . S
C129 C130 1.382 . S
C129 H155 0.950 . S
C130 N127 1.332 . S
C130 C129 1.382 . S
C130 H141 0.952 . S
C131 C128 1.388 . S
C131 C132 1.382 . S
C131 H156 0.950 . S
C132 N127 1.332 . S
C132 C131 1.382 . S
C132 H142 0.948 . S
N133 Co111 2.282 . S
N133 C137 1.332 . S
N133 C138 1.332 . S
C134 C135 1.388 . S
C134 C138 1.382 . S
C134 H157 0.950 . S
C135 C134 1.388 . S
C135 C136 1.386 . S
C136 C135 1.386 . S
C136 C137 1.382 . S
C136 H158 0.950 . S
C137 N133 1.332 . S
C137 C136 1.382 . S
C137 H139 0.952 . S
C138 N133 1.332 . S
C138 C134 1.382 . S
C138 H140 0.948 . S
H139 C137 0.952 . S
H140 C138 0.948 . S
H141 C130 0.952 . S
H142 C132 0.948 . S
C143 C109 1.395 . S
C143 C113 1.391 . S
C144 C106 1.389 . S
C144 C126 1.392 . S
C145 C116 1.392 . S
C145 C118 1.389 . S
C146 C121 1.395 . S
C146 C123 1.391 . S
H147 C107 0.951 . S
H148 C108 0.950 . S
H149 C114 0.949 . S
H150 C115 0.950 . S
H151 C119 0.951 . S
H152 C120 0.950 . S
H153 C124 0.949 . S
H154 C125 0.950 . S
H155 C129 0.950 . S
H156 C131 0.950 . S
H157 C134 0.950 . S
H158 C136 0.950 . S
C159 C160 1.443 . S
C159 N163 1.376 . S
C159 C197 1.389 . S
C160 C159 1.443 . S
C160 C161 1.340 . S
C160 H200 0.951 . S
C161 C160 1.340 . S
C161 C162 1.439 . S
C161 H201 0.950 . S
C162 C161 1.439 . S
C162 N163 1.374 . S
C162 C196 1.395 . S
N163 C159 1.376 . S
N163 C162 1.374 . S
N163 Co164 2.008 . S
Co164 N163 2.008 . S
Co164 N165 1.995 . S
Co164 N170 2.008 . S
Co164 N175 1.995 . S
Co164 N180 2.282 . S
Co164 N186 2.282 . S
N165 Co164 1.995 . S
N165 C166 1.376 . S
N165 C169 1.383 . S
C166 N165 1.376 . S
C166 C167 1.446 . S
C166 C196 1.391 . S
C167 C166 1.446 . S
C167 C168 1.339 . S
C167 H202 0.949 . S
C168 C167 1.339 . S
C168 C169 1.439 . S
C168 H203 0.950 . S
C169 N165 1.383 . S
C169 C168 1.439 . S
C169 C198 1.392 . S
N170 Co164 2.008 . S
N170 C171 1.376 . S
N170 C174 1.374 1_545 S
C171 N170 1.376 . S
C171 C172 1.443 1_545 S
C171 C198 1.389 . S
C172 C171 1.443 1_565 S
C172 C173 1.340 . S
C172 H204 0.951 . S
C173 C172 1.340 . S
C173 C174 1.439 . S
C173 H205 0.950 . S
C174 N170 1.374 1_565 S
C174 C173 1.439 . S
C174 C199 1.395 . S
N175 Co164 1.995 . S
N175 C176 1.376 . S
N175 C179 1.383 . S
C176 N175 1.376 . S
C176 C177 1.446 . S
C176 C199 1.391 1_545 S
C177 C176 1.446 . S
C177 C178 1.339 . S
C177 H206 0.949 . S
C178 C177 1.339 . S
C178 C179 1.439 . S
C178 H207 0.950 . S
C179 N175 1.383 . S
C179 C178 1.439 . S
C179 C197 1.392 . S
N180 Co164 2.282 . S
N180 C183 1.332 . S
N180 C185 1.332 . S
C181 C182 1.386 . S
C181 C184 1.388 . S
C182 C181 1.386 . S
C182 C183 1.382 . S
C182 H208 0.950 . S
C183 N180 1.332 . S
C183 C182 1.382 . S
C183 H194 0.952 . S
C184 C181 1.388 . S
C184 C185 1.382 . S
C184 H209 0.950 . S
C185 N180 1.332 . S
C185 C184 1.382 . S
C185 H195 0.948 . S
N186 Co164 2.282 . S
N186 C190 1.332 . S
N186 C191 1.332 . S
C187 C188 1.388 . S
C187 C191 1.382 . S
C187 H210 0.950 . S
C188 C187 1.388 . S
C188 C189 1.386 . S
C189 C188 1.386 . S
C189 C190 1.382 . S
C189 H211 0.950 . S
C190 N186 1.332 . S
C190 C189 1.382 . S
C190 H192 0.952 . S
C191 N186 1.332 . S
C191 C187 1.382 . S
C191 H193 0.948 . S
H192 C190 0.952 . S
H193 C191 0.948 . S
H194 C183 0.952 . S
H195 C185 0.948 . S
C196 C162 1.395 . S
C196 C166 1.391 . S
C197 C159 1.389 . S
C197 C179 1.392 . S
C198 C169 1.392 . S
C198 C171 1.389 . S
C199 C174 1.395 . S
C199 C176 1.391 1_565 S
H200 C160 0.951 . S
H201 C161 0.950 . S
H202 C167 0.949 . S
H203 C168 0.950 . S
H204 C172 0.951 . S
H205 C173 0.950 . S
H206 C177 0.949 . S
H207 C178 0.950 . S
H208 C182 0.950 . S
H209 C184 0.950 . S
H210 C187 0.950 . S
H211 C189 0.950 . S
C212 C213 1.443 . S
C212 N216 1.376 . S
C212 C250 1.389 . S
C213 C212 1.443 . S
C213 C214 1.340 . S
C213 H253 0.951 . S
C214 C213 1.340 . S
C214 C215 1.439 . S
C214 H254 0.950 . S
C215 C214 1.439 . S
C215 N216 1.374 . S
C215 C249 1.395 . S
N216 C212 1.376 . S
N216 C215 1.374 . S
N216 Co217 2.008 . S
Co217 N216 2.008 . S
Co217 N218 1.995 . S
Co217 N223 2.008 . S
Co217 N228 1.995 . S
Co217 N233 2.282 . S
Co217 N239 2.282 . S
N218 Co217 1.995 . S
N218 C219 1.376 . S
N218 C222 1.383 . S
C219 N218 1.376 . S
C219 C220 1.446 . S
C219 C249 1.391 . S
C220 C219 1.446 . S
C220 C221 1.339 . S
C220 H255 0.949 . S
C221 C220 1.339 . S
C221 C222 1.439 . S
C221 H256 0.950 . S
C222 N218 1.383 . S
C222 C221 1.439 . S
C222 C251 1.392 . S
N223 Co217 2.008 . S
N223 C224 1.376 . S
N223 C227 1.374 . S
C224 N223 1.376 . S
C224 C225 1.443 . S
C224 C251 1.389 . S
C225 C224 1.443 . S
C225 C226 1.340 . S
C225 H257 0.951 . S
C226 C225 1.340 . S
C226 C227 1.439 . S
C226 H258 0.950 . S
C227 N223 1.374 . S
C227 C226 1.439 . S
C227 C252 1.395 . S
N228 Co217 1.995 . S
N228 C229 1.376 . S
N228 C232 1.383 . S
C229 N228 1.376 . S
C229 C230 1.446 . S
C229 C252 1.391 . S
C230 C229 1.446 . S
C230 C231 1.339 . S
C230 H259 0.949 . S
C231 C230 1.339 . S
C231 C232 1.439 . S
C231 H260 0.950 . S
C232 N228 1.383 . S
C232 C231 1.439 . S
C232 C250 1.392 . S
N233 Co217 2.282 . S
N233 C236 1.332 . S
N233 C238 1.332 . S
C234 C235 1.386 . S
C234 C237 1.388 . S
C235 C234 1.386 . S
C235 C236 1.382 . S
C235 H261 0.950 . S
C236 N233 1.332 . S
C236 C235 1.382 . S
C236 H247 0.952 . S
C237 C234 1.388 . S
C237 C238 1.382 . S
C237 H262 0.950 . S
C238 N233 1.332 . S
C238 C237 1.382 . S
C238 H248 0.948 . S
N239 Co217 2.282 . S
N239 C243 1.332 . S
N239 C244 1.332 . S
C240 C241 1.388 . S
C240 C244 1.382 . S
C240 H263 0.950 . S
C241 C240 1.388 . S
C241 C242 1.386 . S
C242 C241 1.386 . S
C242 C243 1.382 . S
C242 H264 0.950 . S
C243 N239 1.332 . S
C243 C242 1.382 . S
C243 H245 0.952 . S
C244 N239 1.332 . S
C244 C240 1.382 . S
C244 H246 0.948 . S
H245 C243 0.952 . S
H246 C244 0.948 . S
H247 C236 0.952 . S
H248 C238 0.948 . S
C249 C215 1.395 . S
C249 C219 1.391 . S
C250 C212 1.389 . S
C250 C232 1.392 . S
C251 C222 1.392 . S
C251 C224 1.389 . S
C252 C227 1.395 . S
C252 C229 1.391 . S
H253 C213 0.951 . S
H254 C214 0.950 . S
H255 C220 0.949 . S
H256 C221 0.950 . S
H257 C225 0.951 . S
H258 C226 0.950 . S
H259 C230 0.949 . S
H260 C231 0.950 . S
H261 C235 0.950 . S
H262 C237 0.950 . S
H263 C240 0.950 . S
H264 C242 0.950 . S
C265 C266 1.443 . S
C265 N269 1.376 . S
C265 C303 1.389 . S
C266 C265 1.443 . S
C266 C267 1.340 . S
C266 H306 0.951 . S
C267 C266 1.340 . S
C267 C268 1.439 . S
C267 H307 0.950 . S
C268 C267 1.439 . S
C268 N269 1.374 . S
C268 C302 1.395 . S
N269 C265 1.376 . S
N269 C268 1.374 . S
N269 Co270 2.008 . S
Co270 N269 2.008 . S
Co270 N271 1.995 . S
Co270 N276 2.008 . S
Co270 N281 1.995 . S
Co270 N286 2.282 . S
Co270 N292 2.282 . S
N271 Co270 1.995 . S
N271 C272 1.376 . S
N271 C275 1.383 . S
C272 N271 1.376 . S
C272 C273 1.446 . S
C272 C302 1.391 . S
C273 C272 1.446 . S
C273 C274 1.339 . S
C273 H308 0.949 . S
C274 C273 1.339 . S
C274 C275 1.439 . S
C274 H309 0.950 . S
C275 N271 1.383 . S
C275 C274 1.439 . S
C275 C304 1.392 . S
N276 Co270 2.008 . S
N276 C277 1.376 . S
N276 C280 1.374 1_565 S
C277 N276 1.376 . S
C277 C278 1.443 1_565 S
C277 C304 1.389 . S
C278 C277 1.443 1_545 S
C278 C279 1.340 . S
C278 H310 0.951 . S
C279 C278 1.340 . S
C279 C280 1.439 . S
C279 H311 0.950 . S
C280 N276 1.374 1_545 S
C280 C279 1.439 . S
C280 C305 1.395 . S
N281 Co270 1.995 . S
N281 C282 1.376 . S
N281 C285 1.383 . S
C282 N281 1.376 . S
C282 C283 1.446 . S
C282 C305 1.391 1_565 S
C283 C282 1.446 . S
C283 C284 1.339 . S
C283 H312 0.949 . S
C284 C283 1.339 . S
C284 C285 1.439 . S
C284 H313 0.950 . S
C285 N281 1.383 . S
C285 C284 1.439 . S
C285 C303 1.392 . S
N286 Co270 2.282 . S
N286 C289 1.332 . S
N286 C291 1.332 . S
C287 C288 1.386 . S
C287 C290 1.388 . S
C288 C287 1.386 . S
C288 C289 1.382 . S
C288 H314 0.950 . S
C289 N286 1.332 . S
C289 C288 1.382 . S
C289 H300 0.952 . S
C290 C287 1.388 . S
C290 C291 1.382 . S
C290 H315 0.950 . S
C291 N286 1.332 . S
C291 C290 1.382 . S
C291 H301 0.948 . S
N292 Co270 2.282 . S
N292 C296 1.332 . S
N292 C297 1.332 . S
C293 C294 1.388 . S
C293 C297 1.382 . S
C293 H316 0.950 . S
C294 C293 1.388 . S
C294 C295 1.386 . S
C295 C294 1.386 . S
C295 C296 1.382 . S
C295 H317 0.950 . S
C296 N292 1.332 . S
C296 C295 1.382 . S
C296 H298 0.952 . S
C297 N292 1.332 . S
C297 C293 1.382 . S
C297 H299 0.948 . S
H298 C296 0.952 . S
H299 C297 0.948 . S
H300 C289 0.952 . S
H301 C291 0.948 . S
C302 C268 1.395 . S
C302 C272 1.391 . S
C303 C265 1.389 . S
C303 C285 1.392 . S
C304 C275 1.392 . S
C304 C277 1.389 . S
C305 C280 1.395 . S
C305 C282 1.391 1_545 S
H306 C266 0.951 . S
H307 C267 0.950 . S
H308 C273 0.949 . S
H309 C274 0.950 . S
H310 C278 0.951 . S
H311 C279 0.950 . S
H312 C283 0.949 . S
H313 C284 0.950 . S
H314 C288 0.950 . S
H315 C290 0.950 . S
H316 C293 0.950 . S
H317 C295 0.950 . S
C318 C319 1.443 . S
C318 N322 1.376 . S
C318 C356 1.389 . S
C319 C318 1.443 . S
C319 C320 1.340 . S
C319 H359 0.951 . S
C320 C319 1.340 . S
C320 C321 1.439 . S
C320 H360 0.950 . S
C321 C320 1.439 . S
C321 N322 1.374 . S
C321 C355 1.395 . S
N322 C318 1.376 . S
N322 C321 1.374 . S
N322 Co323 2.008 . S
Co323 N322 2.008 . S
Co323 N324 1.995 . S
Co323 N329 2.008 . S
Co323 N334 1.995 . S
Co323 N339 2.282 . S
Co323 N345 2.282 . S
N324 Co323 1.995 . S
N324 C325 1.376 . S
N324 C328 1.383 . S
C325 N324 1.376 . S
C325 C326 1.446 . S
C325 C355 1.391 . S
C326 C325 1.446 . S
C326 C327 1.339 . S
C326 H361 0.949 . S
C327 C326 1.339 . S
C327 C328 1.439 . S
C327 H362 0.950 . S
C328 N324 1.383 . S
C328 C327 1.439 . S
C328 C357 1.392 . S
N329 Co323 2.008 . S
N329 C330 1.376 . S
N329 C333 1.374 . S
C330 N329 1.376 . S
C330 C331 1.443 . S
C330 C357 1.389 . S
C331 C330 1.443 . S
C331 C332 1.340 . S
C331 H363 0.951 . S
C332 C331 1.340 . S
C332 C333 1.439 . S
C332 H364 0.950 . S
C333 N329 1.374 . S
C333 C332 1.439 . S
C333 C358 1.395 . S
N334 Co323 1.995 . S
N334 C335 1.376 . S
N334 C338 1.383 . S
C335 N334 1.376 . S
C335 C336 1.446 . S
C335 C358 1.391 . S
C336 C335 1.446 . S
C336 C337 1.339 . S
C336 H365 0.949 . S
C337 C336 1.339 . S
C337 C338 1.439 . S
C337 H366 0.950 . S
C338 N334 1.383 . S
C338 C337 1.439 . S
C338 C356 1.392 . S
N339 Co323 2.282 . S
N339 C342 1.332 . S
N339 C344 1.332 . S
C340 C341 1.386 . S
C340 C343 1.388 . S
C341 C340 1.386 . S
C341 C342 1.382 . S
C341 H367 0.950 . S
C342 N339 1.332 . S
C342 C341 1.382 . S
C342 H353 0.952 . S
C343 C340 1.388 . S
C343 C344 1.382 . S
C343 H368 0.950 . S
C344 N339 1.332 . S
C344 C343 1.382 . S
C344 H354 0.948 . S
N345 Co323 2.282 . S
N345 C349 1.332 . S
N345 C350 1.332 . S
C346 C347 1.388 . S
C346 C350 1.382 . S
C346 H369 0.950 . S
C347 C346 1.388 . S
C347 C348 1.386 . S
C348 C347 1.386 . S
C348 C349 1.382 . S
C348 H370 0.950 . S
C349 N345 1.332 . S
C349 C348 1.382 . S
C349 H351 0.952 . S
C350 N345 1.332 . S
C350 C346 1.382 . S
C350 H352 0.948 . S
H351 C349 0.952 . S
H352 C350 0.948 . S
H353 C342 0.952 . S
H354 C344 0.948 . S
C355 C321 1.395 . S
C355 C325 1.391 . S
C356 C318 1.389 . S
C356 C338 1.392 . S
C357 C328 1.392 . S
C357 C330 1.389 . S
C358 C333 1.395 . S
C358 C335 1.391 . S
H359 C319 0.951 . S
H360 C320 0.950 . S
H361 C326 0.949 . S
H362 C327 0.950 . S
H363 C331 0.951 . S
H364 C332 0.950 . S
H365 C336 0.949 . S
H366 C337 0.950 . S
H367 C341 0.950 . S
H368 C343 0.950 . S
H369 C346 0.950 . S
H370 C348 0.950 . S
C371 C372 1.443 . S
C371 N375 1.376 . S
C371 C409 1.389 . S
C372 C371 1.443 . S
C372 C373 1.340 . S
C372 H412 0.951 . S
C373 C372 1.340 . S
C373 C374 1.439 . S
C373 H413 0.950 . S
C374 C373 1.439 . S
C374 N375 1.374 . S
C374 C408 1.395 . S
N375 C371 1.376 . S
N375 C374 1.374 . S
N375 Co376 2.008 . S
Co376 N375 2.008 . S
Co376 N377 1.995 . S
Co376 N382 2.008 . S
Co376 N387 1.995 . S
Co376 N392 2.282 . S
Co376 N398 2.282 . S
N377 Co376 1.995 . S
N377 C378 1.376 . S
N377 C381 1.383 . S
C378 N377 1.376 . S
C378 C379 1.446 . S
C378 C408 1.391 . S
C379 C378 1.446 . S
C379 C380 1.339 . S
C379 H414 0.949 . S
C380 C379 1.339 . S
C380 C381 1.439 . S
C380 H415 0.950 . S
C381 N377 1.383 . S
C381 C380 1.439 . S
C381 C410 1.392 . S
N382 Co376 2.008 . S
N382 C383 1.376 . S
N382 C386 1.374 1_545 S
C383 N382 1.376 . S
C383 C384 1.443 1_545 S
C383 C410 1.389 . S
C384 C383 1.443 1_565 S
C384 C385 1.340 . S
C384 H416 0.951 . S
C385 C384 1.340 . S
C385 C386 1.439 . S
C385 H417 0.950 . S
C386 N382 1.374 1_565 S
C386 C385 1.439 . S
C386 C411 1.395 . S
N387 Co376 1.995 . S
N387 C388 1.376 . S
N387 C391 1.383 . S
C388 N387 1.376 . S
C388 C389 1.446 . S
C388 C411 1.391 1_545 S
C389 C388 1.446 . S
C389 C390 1.339 . S
C389 H418 0.949 . S
C390 C389 1.339 . S
C390 C391 1.439 . S
C390 H419 0.950 . S
C391 N387 1.383 . S
C391 C390 1.439 . S
C391 C409 1.392 . S
N392 Co376 2.282 . S
N392 C395 1.332 . S
N392 C397 1.332 . S
C393 C394 1.386 . S
C393 C396 1.388 . S
C394 C393 1.386 . S
C394 C395 1.382 . S
C394 H420 0.950 . S
C395 N392 1.332 . S
C395 C394 1.382 . S
C395 H406 0.952 . S
C396 C393 1.388 . S
C396 C397 1.382 . S
C396 H421 0.950 . S
C397 N392 1.332 . S
C397 C396 1.382 . S
C397 H407 0.948 . S
N398 Co376 2.282 . S
N398 C402 1.332 . S
N398 C403 1.332 . S
C399 C400 1.388 . S
C399 C403 1.382 . S
C399 H422 0.950 . S
C400 C399 1.388 . S
C400 C401 1.386 . S
C401 C400 1.386 . S
C401 C402 1.382 . S
C401 H423 0.950 . S
C402 N398 1.332 . S
C402 C401 1.382 . S
C402 H404 0.952 . S
C403 N398 1.332 . S
C403 C399 1.382 . S
C403 H405 0.948 . S
H404 C402 0.952 . S
H405 C403 0.948 . S
H406 C395 0.952 . S
H407 C397 0.948 . S
C408 C374 1.395 . S
C408 C378 1.391 . S
C409 C371 1.389 . S
C409 C391 1.392 . S
C410 C381 1.392 . S
C410 C383 1.389 . S
C411 C386 1.395 . S
C411 C388 1.391 1_565 S
H412 C372 0.951 . S
H413 C373 0.950 . S
H414 C379 0.949 . S
H415 C380 0.950 . S
H416 C384 0.951 . S
H417 C385 0.950 . S
H418 C389 0.949 . S
H419 C390 0.950 . S
H420 C394 0.950 . S
H421 C396 0.950 . S
H422 C399 0.950 . S
H423 C401 0.950 . S
C424 C425 1.443 . S
C424 N428 1.376 . S
C424 C462 1.389 . S
C425 C424 1.443 . S
C425 C426 1.340 . S
C425 H465 0.951 . S
C426 C425 1.340 . S
C426 C427 1.439 . S
C426 H466 0.950 . S
C427 C426 1.439 . S
C427 N428 1.374 . S
C427 C461 1.395 . S
N428 C424 1.376 . S
N428 C427 1.374 . S
N428 Co429 2.008 . S
Co429 N428 2.008 . S
Co429 N430 1.995 . S
Co429 N435 2.008 . S
Co429 N440 1.995 . S
Co429 N445 2.282 . S
Co429 N451 2.282 . S
N430 Co429 1.995 . S
N430 C431 1.376 . S
N430 C434 1.383 . S
C431 N430 1.376 . S
C431 C432 1.446 . S
C431 C461 1.391 . S
C432 C431 1.446 . S
C432 C433 1.339 . S
C432 H467 0.949 . S
C433 C432 1.339 . S
C433 C434 1.439 . S
C433 H468 0.950 . S
C434 N430 1.383 . S
C434 C433 1.439 . S
C434 C463 1.392 . S
N435 Co429 2.008 . S
N435 C436 1.376 . S
N435 C439 1.374 . S
C436 N435 1.376 . S
C436 C437 1.443 . S
C436 C463 1.389 . S
C437 C436 1.443 . S
C437 C438 1.340 . S
C437 H469 0.951 . S
C438 C437 1.340 . S
C438 C439 1.439 . S
C438 H470 0.950 . S
C439 N435 1.374 . S
C439 C438 1.439 . S
C439 C464 1.395 . S
N440 Co429 1.995 . S
N440 C441 1.376 . S
N440 C444 1.383 . S
C441 N440 1.376 . S
C441 C442 1.446 . S
C441 C464 1.391 . S
C442 C441 1.446 . S
C442 C443 1.339 . S
C442 H471 0.949 . S
C443 C442 1.339 . S
C443 C444 1.439 . S
C443 H472 0.950 . S
C444 N440 1.383 . S
C444 C443 1.439 . S
C444 C462 1.392 . S
N445 Co429 2.282 . S
N445 C448 1.332 . S
N445 C450 1.332 . S
C446 C447 1.386 . S
C446 C449 1.388 . S
C447 C446 1.386 . S
C447 C448 1.382 . S
C447 H473 0.950 . S
C448 N445 1.332 . S
C448 C447 1.382 . S
C448 H459 0.952 . S
C449 C446 1.388 . S
C449 C450 1.382 . S
C449 H474 0.950 . S
C450 N445 1.332 . S
C450 C449 1.382 . S
C450 H460 0.948 . S
N451 Co429 2.282 . S
N451 C455 1.332 . S
N451 C456 1.332 . S
C452 C453 1.388 . S
C452 C456 1.382 . S
C452 H475 0.950 . S
C453 C452 1.388 . S
C453 C454 1.386 . S
C454 C453 1.386 . S
C454 C455 1.382 . S
C454 H476 0.950 . S
C455 N451 1.332 . S
C455 C454 1.382 . S
C455 H457 0.952 . S
C456 N451 1.332 . S
C456 C452 1.382 . S
C456 H458 0.948 . S
H457 C455 0.952 . S
H458 C456 0.948 . S
H459 C448 0.952 . S
H460 C450 0.948 . S
C461 C427 1.395 . S
C461 C431 1.391 . S
C462 C424 1.389 . S
C462 C444 1.392 . S
C463 C434 1.392 . S
C463 C436 1.389 . S
C464 C439 1.395 . S
C464 C441 1.391 . S
H465 C425 0.951 . S
H466 C426 0.950 . S
H467 C432 0.949 . S
H468 C433 0.950 . S
H469 C437 0.951 . S
H470 C438 0.950 . S
H471 C442 0.949 . S
H472 C443 0.950 . S
H473 C447 0.950 . S
H474 C449 0.950 . S
H475 C452 0.950 . S
H476 C454 0.950 . S
C477 C478 1.443 . S
C477 N481 1.376 . S
C477 C515 1.389 . S
C478 C477 1.443 . S
C478 C479 1.340 1_545 S
C478 H518 0.951 . S
C479 C478 1.340 1_565 S
C479 C480 1.439 . S
C479 H519 0.950 . S
C480 C479 1.439 . S
C480 N481 1.374 1_565 S
C480 C514 1.395 . S
N481 C477 1.376 . S
N481 C480 1.374 1_545 S
N481 Co482 2.008 . S
Co482 N481 2.008 . S
Co482 N483 1.995 1_545 S
Co482 N488 2.008 . S
Co482 N493 1.995 . S
Co482 N498 2.282 . S
Co482 N504 2.282 . S
N483 Co482 1.995 1_565 S
N483 C484 1.376 . S
N483 C487 1.383 . S
C484 N483 1.376 . S
C484 C485 1.446 . S
C484 C514 1.391 . S
C485 C484 1.446 . S
C485 C486 1.339 . S
C485 H520 0.949 . S
C486 C485 1.339 . S
C486 C487 1.439 . S
C486 H521 0.950 . S
C487 N483 1.383 . S
C487 C486 1.439 . S
C487 C516 1.392 . S
N488 Co482 2.008 . S
N488 C489 1.376 . S
N488 C492 1.374 . S
C489 N488 1.376 . S
C489 C490 1.443 . S
C489 C516 1.389 1_545 S
C490 C489 1.443 . S
C490 C491 1.340 . S
C490 H522 0.951 . S
C491 C490 1.340 . S
C491 C492 1.439 . S
C491 H523 0.950 . S
C492 N488 1.374 . S
C492 C491 1.439 . S
C492 C517 1.395 . S
N493 Co482 1.995 . S
N493 C494 1.376 . S
N493 C497 1.383 . S
C494 N493 1.376 . S
C494 C495 1.446 . S
C494 C517 1.391 . S
C495 C494 1.446 . S
C495 C496 1.339 . S
C495 H524 0.949 . S
C496 C495 1.339 . S
C496 C497 1.439 . S
C496 H525 0.950 . S
C497 N493 1.383 . S
C497 C496 1.439 . S
C497 C515 1.392 . S
N498 Co482 2.282 . S
N498 C501 1.332 . S
N498 C503 1.332 1_545 S
C499 C500 1.386 . S
C499 C502 1.388 1_545 S
C500 C499 1.386 . S
C500 C501 1.382 . S
C500 H526 0.950 . S
C501 N498 1.332 . S
C501 C500 1.382 . S
C501 H512 0.952 . S
C502 C499 1.388 1_565 S
C502 C503 1.382 . S
C502 H527 0.950 . S
C503 N498 1.332 1_565 S
C503 C502 1.382 . S
C503 H513 0.948 . S
N504 Co482 2.282 . S
N504 C508 1.332 . S
N504 C509 1.332 . S
C505 C506 1.388 . S
C505 C509 1.382 . S
C505 H528 0.950 . S
C506 C505 1.388 . S
C506 C507 1.386 . S
C507 C506 1.386 . S
C507 C508 1.382 . S
C507 H529 0.950 1_545 S
C508 N504 1.332 . S
C508 C507 1.382 . S
C508 H510 0.952 1_545 S
C509 N504 1.332 . S
C509 C505 1.382 . S
C509 H511 0.948 . S
H510 C508 0.952 1_565 S
H511 C509 0.948 . S
H512 C501 0.952 . S
H513 C503 0.948 . S
C514 C480 1.395 . S
C514 C484 1.391 . S
C515 C477 1.389 . S
C515 C497 1.392 . S
C516 C487 1.392 . S
C516 C489 1.389 1_565 S
C517 C492 1.395 . S
C517 C494 1.391 . S
H518 C478 0.951 . S
H519 C479 0.950 . S
H520 C485 0.949 . S
H521 C486 0.950 . S
H522 C490 0.951 . S
H523 C491 0.950 . S
H524 C495 0.949 . S
H525 C496 0.950 . S
H526 C500 0.950 . S
H527 C502 0.950 . S
H528 C505 0.950 . S
H529 C507 0.950 1_565 S
C530 C531 1.443 . S
C530 N534 1.376 . S
C530 C568 1.389 . S
C531 C530 1.443 . S
C531 C532 1.340 . S
C531 H571 0.951 . S
C532 C531 1.340 . S
C532 C533 1.439 . S
C532 H572 0.950 . S
C533 C532 1.439 . S
C533 N534 1.374 . S
C533 C567 1.395 . S
N534 C530 1.376 . S
N534 C533 1.374 . S
N534 Co535 2.008 . S
Co535 N534 2.008 . S
Co535 N536 1.995 . S
Co535 N541 2.008 . S
Co535 N546 1.995 . S
Co535 N551 2.282 . S
Co535 N557 2.282 . S
N536 Co535 1.995 . S
N536 C537 1.376 . S
N536 C540 1.383 . S
C537 N536 1.376 . S
C537 C538 1.446 . S
C537 C567 1.391 . S
C538 C537 1.446 . S
C538 C539 1.339 . S
C538 H573 0.949 . S
C539 C538 1.339 . S
C539 C540 1.439 . S
C539 H574 0.950 . S
C540 N536 1.383 . S
C540 C539 1.439 . S
C540 C569 1.392 . S
N541 Co535 2.008 . S
N541 C542 1.376 . S
N541 C545 1.374 . S
C542 N541 1.376 . S
C542 C543 1.443 . S
C542 C569 1.389 . S
C543 C542 1.443 . S
C543 C544 1.340 . S
C543 H575 0.951 . S
C544 C543 1.340 . S
C544 C545 1.439 . S
C544 H576 0.950 . S
C545 N541 1.374 . S
C545 C544 1.439 . S
C545 C570 1.395 . S
N546 Co535 1.995 . S
N546 C547 1.376 . S
N546 C550 1.383 . S
C547 N546 1.376 . S
C547 C548 1.446 . S
C547 C570 1.391 . S
C548 C547 1.446 . S
C548 C549 1.339 . S
C548 H577 0.949 . S
C549 C548 1.339 . S
C549 C550 1.439 . S
C549 H578 0.950 . S
C550 N546 1.383 . S
C550 C549 1.439 . S
C550 C568 1.392 . S
N551 Co535 2.282 . S
N551 C554 1.332 . S
N551 C556 1.332 . S
C552 C553 1.386 . S
C552 C555 1.388 . S
C553 C552 1.386 . S
C553 C554 1.382 . S
C553 H579 0.950 . S
C554 N551 1.332 . S
C554 C553 1.382 . S
C554 H565 0.952 . S
C555 C552 1.388 . S
C555 C556 1.382 . S
C555 H580 0.950 . S
C556 N551 1.332 . S
C556 C555 1.382 . S
C556 H566 0.948 . S
N557 Co535 2.282 . S
N557 C561 1.332 . S
N557 C562 1.332 . S
C558 C559 1.388 . S
C558 C562 1.382 . S
C558 H581 0.950 . S
C559 C558 1.388 . S
C559 C560 1.386 . S
C560 C559 1.386 . S
C560 C561 1.382 . S
C560 H582 0.950 . S
C561 N557 1.332 . S
C561 C560 1.382 . S
C561 H563 0.952 . S
C562 N557 1.332 . S
C562 C558 1.382 . S
C562 H564 0.948 . S
H563 C561 0.952 . S
H564 C562 0.948 . S
H565 C554 0.952 . S
H566 C556 0.948 . S
C567 C533 1.395 . S
C567 C537 1.391 . S
C568 C530 1.389 . S
C568 C550 1.392 . S
C569 C540 1.392 . S
C569 C542 1.389 . S
C570 C545 1.395 . S
C570 C547 1.391 . S
H571 C531 0.951 . S
H572 C532 0.950 . S
H573 C538 0.949 . S
H574 C539 0.950 . S
H575 C543 0.951 . S
H576 C544 0.950 . S
H577 C548 0.949 . S
H578 C549 0.950 . S
H579 C553 0.950 . S
H580 C555 0.950 . S
H581 C558 0.950 . S
H582 C560 0.950 . S
C583 C584 1.443 . S
C583 N587 1.376 . S
C583 C621 1.389 . S
C584 C583 1.443 . S
C584 C585 1.340 1_565 S
C584 H624 0.951 . S
C585 C584 1.340 1_545 S
C585 C586 1.439 . S
C585 H625 0.950 . S
C586 C585 1.439 . S
C586 N587 1.374 1_545 S
C586 C620 1.395 . S
N587 C583 1.376 . S
N587 C586 1.374 1_565 S
N587 Co588 2.008 . S
Co588 N587 2.008 . S
Co588 N589 1.995 1_565 S
Co588 N594 2.008 . S
Co588 N599 1.995 . S
Co588 N604 2.282 . S
Co588 N610 2.282 . S
N589 Co588 1.995 1_545 S
N589 C590 1.376 . S
N589 C593 1.383 . S
C590 N589 1.376 . S
C590 C591 1.446 . S
C590 C620 1.391 . S
C591 C590 1.446 . S
C591 C592 1.339 . S
C591 H626 0.949 . S
C592 C591 1.339 . S
C592 C593 1.439 . S
C592 H627 0.950 . S
C593 N589 1.383 . S
C593 C592 1.439 . S
C593 C622 1.392 . S
N594 Co588 2.008 . S
N594 C595 1.376 . S
N594 C598 1.374 . S
C595 N594 1.376 . S
C595 C596 1.443 . S
C595 C622 1.389 1_565 S
C596 C595 1.443 . S
C596 C597 1.340 . S
C596 H628 0.951 . S
C597 C596 1.340 . S
C597 C598 1.439 . S
C597 H629 0.950 . S
C598 N594 1.374 . S
C598 C597 1.439 . S
C598 C623 1.395 . S
N599 Co588 1.995 . S
N599 C600 1.376 . S
N599 C603 1.383 . S
C600 N599 1.376 . S
C600 C601 1.446 . S
C600 C623 1.391 . S
C601 C600 1.446 . S
C601 C602 1.339 . S
C601 H630 0.949 . S
C602 C601 1.339 . S
C602 C603 1.439 . S
C602 H631 0.950 . S
C603 N599 1.383 . S
C603 C602 1.439 . S
C603 C621 1.392 . S
N604 Co588 2.282 . S
N604 C607 1.332 . S
N604 C609 1.332 1_565 S
C605 C606 1.386 . S
C605 C608 1.388 1_565 S
C606 C605 1.386 . S
C606 C607 1.382 . S
C606 H632 0.950 . S
C607 N604 1.332 . S
C607 C606 1.382 . S
C607 H618 0.952 . S
C608 C605 1.388 1_545 S
C608 C609 1.382 . S
C608 H633 0.950 . S
C609 N604 1.332 1_545 S
C609 C608 1.382 . S
C609 H619 0.948 . S
N610 Co588 2.282 . S
N610 C614 1.332 . S
N610 C615 1.332 . S
C611 C612 1.388 . S
C611 C615 1.382 . S
C611 H634 0.950 . S
C612 C611 1.388 . S
C612 C613 1.386 . S
C613 C612 1.386 . S
C613 C614 1.382 . S
C613 H635 0.950 1_565 S
C614 N610 1.332 . S
C614 C613 1.382 . S
C614 H616 0.952 1_565 S
C615 N610 1.332 . S
C615 C611 1.382 . S
C615 H617 0.948 . S
H616 C614 0.952 1_545 S
H617 C615 0.948 . S
H618 C607 0.952 . S
H619 C609 0.948 . S
C620 C586 1.395 . S
C620 C590 1.391 . S
C621 C583 1.389 . S
C621 C603 1.392 . S
C622 C593 1.392 . S
C622 C595 1.389 1_545 S
C623 C598 1.395 . S
C623 C600 1.391 . S
H624 C584 0.951 . S
H625 C585 0.950 . S
H626 C591 0.949 . S
H627 C592 0.950 . S
H628 C596 0.951 . S
H629 C597 0.950 . S
H630 C601 0.949 . S
H631 C602 0.950 . S
H632 C606 0.950 . S
H633 C608 0.950 . S
H634 C611 0.950 . S
H635 C613 0.950 1_545 S
C636 C637 1.443 . S
C636 N640 1.376 . S
C636 C674 1.389 . S
C637 C636 1.443 . S
C637 C638 1.340 . S
C637 H677 0.951 . S
C638 C637 1.340 . S
C638 C639 1.439 . S
C638 H678 0.950 . S
C639 C638 1.439 . S
C639 N640 1.374 . S
C639 C673 1.395 . S
N640 C636 1.376 . S
N640 C639 1.374 . S
N640 Co641 2.008 . S
Co641 N640 2.008 . S
Co641 N642 1.995 . S
Co641 N647 2.008 . S
Co641 N652 1.995 . S
Co641 N657 2.282 . S
Co641 N663 2.282 . S
N642 Co641 1.995 . S
N642 C643 1.376 . S
N642 C646 1.383 . S
C643 N642 1.376 . S
C643 C644 1.446 . S
C643 C673 1.391 . S
C644 C643 1.446 . S
C644 C645 1.339 . S
C644 H679 0.949 . S
C645 C644 1.339 . S
C645 C646 1.439 . S
C645 H680 0.950 . S
C646 N642 1.383 . S
C646 C645 1.439 . S
C646 C675 1.392 . S
N647 Co641 2.008 . S
N647 C648 1.376 . S
N647 C651 1.374 . S
C648 N647 1.376 . S
C648 C649 1.443 . S
C648 C675 1.389 . S
C649 C648 1.443 . S
C649 C650 1.340 . S
C649 H681 0.951 . S
C650 C649 1.340 . S
C650 C651 1.439 . S
C650 H682 0.950 . S
C651 N647 1.374 . S
C651 C650 1.439 . S
C651 C676 1.395 . S
N652 Co641 1.995 . S
N652 C653 1.376 . S
N652 C656 1.383 . S
C653 N652 1.376 . S
C653 C654 1.446 . S
C653 C676 1.391 . S
C654 C653 1.446 . S
C654 C655 1.339 . S
C654 H683 0.949 . S
C655 C654 1.339 . S
C655 C656 1.439 . S
C655 H684 0.950 . S
C656 N652 1.383 . S
C656 C655 1.439 . S
C656 C674 1.392 . S
N657 Co641 2.282 . S
N657 C660 1.332 . S
N657 C662 1.332 . S
C658 C659 1.386 . S
C658 C661 1.388 . S
C659 C658 1.386 . S
C659 C660 1.382 . S
C659 H685 0.950 . S
C660 N657 1.332 . S
C660 C659 1.382 . S
C660 H671 0.952 . S
C661 C658 1.388 . S
C661 C662 1.382 . S
C661 H686 0.950 . S
C662 N657 1.332 . S
C662 C661 1.382 . S
C662 H672 0.948 . S
N663 Co641 2.282 . S
N663 C667 1.332 . S
N663 C668 1.332 . S
C664 C665 1.388 . S
C664 C668 1.382 . S
C664 H687 0.950 . S
C665 C664 1.388 . S
C665 C666 1.386 . S
C666 C665 1.386 . S
C666 C667 1.382 . S
C666 H688 0.950 . S
C667 N663 1.332 . S
C667 C666 1.382 . S
C667 H669 0.952 . S
C668 N663 1.332 . S
C668 C664 1.382 . S
C668 H670 0.948 . S
H669 C667 0.952 . S
H670 C668 0.948 . S
H671 C660 0.952 . S
H672 C662 0.948 . S
C673 C639 1.395 . S
C673 C643 1.391 . S
C674 C636 1.389 . S
C674 C656 1.392 . S
C675 C646 1.392 . S
C675 C648 1.389 . S
C676 C651 1.395 . S
C676 C653 1.391 . S
H677 C637 0.951 . S
H678 C638 0.950 . S
H679 C644 0.949 . S
H680 C645 0.950 . S
H681 C649 0.951 . S
H682 C650 0.950 . S
H683 C654 0.949 . S
H684 C655 0.950 . S
H685 C659 0.950 . S
H686 C661 0.950 . S
H687 C664 0.950 . S
H688 C666 0.950 . S
C689 C690 1.443 . S
C689 N693 1.376 . S
C689 C727 1.389 . S
C690 C689 1.443 . S
C690 C691 1.340 1_545 S
C690 H730 0.951 . S
C691 C690 1.340 1_565 S
C691 C692 1.439 . S
C691 H731 0.950 . S
C692 C691 1.439 . S
C692 N693 1.374 1_565 S
C692 C726 1.395 . S
N693 C689 1.376 . S
N693 C692 1.374 1_545 S
N693 Co694 2.008 . S
Co694 N693 2.008 . S
Co694 N695 1.995 1_545 S
Co694 N700 2.008 . S
Co694 N705 1.995 . S
Co694 N710 2.282 . S
Co694 N716 2.282 . S
N695 Co694 1.995 1_565 S
N695 C696 1.376 . S
N695 C699 1.383 . S
C696 N695 1.376 . S
C696 C697 1.446 . S
C696 C726 1.391 . S
C697 C696 1.446 . S
C697 C698 1.339 . S
C697 H732 0.949 . S
C698 C697 1.339 . S
C698 C699 1.439 . S
C698 H733 0.950 . S
C699 N695 1.383 . S
C699 C698 1.439 . S
C699 C728 1.392 . S
N700 Co694 2.008 . S
N700 C701 1.376 . S
N700 C704 1.374 . S
C701 N700 1.376 . S
C701 C702 1.443 . S
C701 C728 1.389 1_545 S
C702 C701 1.443 . S
C702 C703 1.340 . S
C702 H734 0.951 . S
C703 C702 1.340 . S
C703 C704 1.439 . S
C703 H735 0.950 . S
C704 N700 1.374 . S
C704 C703 1.439 . S
C704 C729 1.395 . S
N705 Co694 1.995 . S
N705 C706 1.376 . S
N705 C709 1.383 . S
C706 N705 1.376 . S
C706 C707 1.446 . S
C706 C729 1.391 . S
C707 C706 1.446 . S
C707 C708 1.339 . S
C707 H736 0.949 . S
C708 C707 1.339 . S
C708 C709 1.439 . S
C708 H737 0.950 . S
C709 N705 1.383 . S
C709 C708 1.439 . S
C709 C727 1.392 . S
N710 Co694 2.282 . S
N710 C713 1.332 . S
N710 C715 1.332 1_545 S
C711 C712 1.386 . S
C711 C714 1.388 1_545 S
C712 C711 1.386 . S
C712 C713 1.382 . S
C712 H738 0.950 . S
C713 N710 1.332 . S
C713 C712 1.382 . S
C713 H724 0.952 . S
C714 C711 1.388 1_565 S
C714 C715 1.382 . S
C714 H739 0.950 . S
C715 N710 1.332 1_565 S
C715 C714 1.382 . S
C715 H725 0.948 . S
N716 Co694 2.282 . S
N716 C720 1.332 . S
N716 C721 1.332 . S
C717 C718 1.388 . S
C717 C721 1.382 . S
C717 H740 0.950 . S
C718 C717 1.388 . S
C718 C719 1.386 . S
C719 C718 1.386 . S
C719 C720 1.382 . S
C719 H741 0.950 1_545 S
C720 N716 1.332 . S
C720 C719 1.382 . S
C720 H722 0.952 1_545 S
C721 N716 1.332 . S
C721 C717 1.382 . S
C721 H723 0.948 . S
H722 C720 0.952 1_565 S
H723 C721 0.948 . S
H724 C713 0.952 . S
H725 C715 0.948 . S
C726 C692 1.395 . S
C726 C696 1.391 . S
C727 C689 1.389 . S
C727 C709 1.392 . S
C728 C699 1.392 . S
C728 C701 1.389 1_565 S
C729 C704 1.395 . S
C729 C706 1.391 . S
H730 C690 0.951 . S
H731 C691 0.950 . S
H732 C697 0.949 . S
H733 C698 0.950 . S
H734 C702 0.951 . S
H735 C703 0.950 . S
H736 C707 0.949 . S
H737 C708 0.950 . S
H738 C712 0.950 . S
H739 C714 0.950 . S
H740 C717 0.950 . S
H741 C719 0.950 1_565 S
C742 C743 1.443 . S
C742 N746 1.376 . S
C742 C780 1.389 . S
C743 C742 1.443 . S
C743 C744 1.340 . S
C743 H783 0.951 . S
C744 C743 1.340 . S
C744 C745 1.439 . S
C744 H784 0.950 . S
C745 C744 1.439 . S
C745 N746 1.374 . S
C745 C779 1.395 . S
N746 C742 1.376 . S
N746 C745 1.374 . S
N746 Co747 2.008 . S
Co747 N746 2.008 . S
Co747 N748 1.995 . S
Co747 N753 2.008 . S
Co747 N758 1.995 . S
Co747 N763 2.282 . S
Co747 N769 2.282 . S
N748 Co747 1.995 . S
N748 C749 1.376 . S
N748 C752 1.383 . S
C749 N748 1.376 . S
C749 C750 1.446 . S
C749 C779 1.391 . S
C750 C749 1.446 . S
C750 C751 1.339 . S
C750 H785 0.949 . S
C751 C750 1.339 . S
C751 C752 1.439 . S
C751 H786 0.950 . S
C752 N748 1.383 . S
C752 C751 1.439 . S
C752 C781 1.392 . S
N753 Co747 2.008 . S
N753 C754 1.376 . S
N753 C757 1.374 . S
C754 N753 1.376 . S
C754 C755 1.443 . S
C754 C781 1.389 . S
C755 C754 1.443 . S
C755 C756 1.340 . S
C755 H787 0.951 . S
C756 C755 1.340 . S
C756 C757 1.439 . S
C756 H788 0.950 . S
C757 N753 1.374 . S
C757 C756 1.439 . S
C757 C782 1.395 . S
N758 Co747 1.995 . S
N758 C759 1.376 . S
N758 C762 1.383 . S
C759 N758 1.376 . S
C759 C760 1.446 . S
C759 C782 1.391 . S
C760 C759 1.446 . S
C760 C761 1.339 . S
C760 H789 0.949 . S
C761 C760 1.339 . S
C761 C762 1.439 . S
C761 H790 0.950 . S
C762 N758 1.383 . S
C762 C761 1.439 . S
C762 C780 1.392 . S
N763 Co747 2.282 . S
N763 C766 1.332 . S
N763 C768 1.332 . S
C764 C765 1.386 . S
C764 C767 1.388 . S
C765 C764 1.386 . S
C765 C766 1.382 . S
C765 H791 0.950 . S
C766 N763 1.332 . S
C766 C765 1.382 . S
C766 H777 0.952 . S
C767 C764 1.388 . S
C767 C768 1.382 . S
C767 H792 0.950 . S
C768 N763 1.332 . S
C768 C767 1.382 . S
C768 H778 0.948 . S
N769 Co747 2.282 . S
N769 C773 1.332 . S
N769 C774 1.332 . S
C770 C771 1.388 . S
C770 C774 1.382 . S
C770 H793 0.950 . S
C771 C770 1.388 . S
C771 C772 1.386 . S
C772 C771 1.386 . S
C772 C773 1.382 . S
C772 H794 0.950 . S
C773 N769 1.332 . S
C773 C772 1.382 . S
C773 H775 0.952 . S
C774 N769 1.332 . S
C774 C770 1.382 . S
C774 H776 0.948 . S
H775 C773 0.952 . S
H776 C774 0.948 . S
H777 C766 0.952 . S
H778 C768 0.948 . S
C779 C745 1.395 . S
C779 C749 1.391 . S
C780 C742 1.389 . S
C780 C762 1.392 . S
C781 C752 1.392 . S
C781 C754 1.389 . S
C782 C757 1.395 . S
C782 C759 1.391 . S
H783 C743 0.951 . S
H784 C744 0.950 . S
H785 C750 0.949 . S
H786 C751 0.950 . S
H787 C755 0.951 . S
H788 C756 0.950 . S
H789 C760 0.949 . S
H790 C761 0.950 . S
H791 C765 0.950 . S
H792 C767 0.950 . S
H793 C770 0.950 . S
H794 C772 0.950 . S
C795 C796 1.443 . S
C795 N799 1.376 . S
C795 C833 1.389 . S
C796 C795 1.443 . S
C796 C797 1.340 1_565 S
C796 H836 0.951 . S
C797 C796 1.340 1_545 S
C797 C798 1.439 . S
C797 H837 0.950 . S
C798 C797 1.439 . S
C798 N799 1.374 1_545 S
C798 C832 1.395 . S
N799 C795 1.376 . S
N799 C798 1.374 1_565 S
N799 Co800 2.008 . S
Co800 N799 2.008 . S
Co800 N801 1.995 1_565 S
Co800 N806 2.008 . S
Co800 N811 1.995 . S
Co800 N816 2.282 . S
Co800 N822 2.282 . S
N801 Co800 1.995 1_545 S
N801 C802 1.376 . S
N801 C805 1.383 . S
C802 N801 1.376 . S
C802 C803 1.446 . S
C802 C832 1.391 . S
C803 C802 1.446 . S
C803 C804 1.339 . S
C803 H838 0.949 . S
C804 C803 1.339 . S
C804 C805 1.439 . S
C804 H839 0.950 . S
C805 N801 1.383 . S
C805 C804 1.439 . S
C805 C834 1.392 . S
N806 Co800 2.008 . S
N806 C807 1.376 . S
N806 C810 1.374 . S
C807 N806 1.376 . S
C807 C808 1.443 . S
C807 C834 1.389 1_565 S
C808 C807 1.443 . S
C808 C809 1.340 . S
C808 H840 0.951 . S
C809 C808 1.340 . S
C809 C810 1.439 . S
C809 H841 0.950 . S
C810 N806 1.374 . S
C810 C809 1.439 . S
C810 C835 1.395 . S
N811 Co800 1.995 . S
N811 C812 1.376 . S
N811 C815 1.383 . S
C812 N811 1.376 . S
C812 C813 1.446 . S
C812 C835 1.391 . S
C813 C812 1.446 . S
C813 C814 1.339 . S
C813 H842 0.949 . S
C814 C813 1.339 . S
C814 C815 1.439 . S
C814 H843 0.950 . S
C815 N811 1.383 . S
C815 C814 1.439 . S
C815 C833 1.392 . S
N816 Co800 2.282 . S
N816 C819 1.332 . S
N816 C821 1.332 1_565 S
C817 C818 1.386 . S
C817 C820 1.388 1_565 S
C818 C817 1.386 . S
C818 C819 1.382 . S
C818 H844 0.950 . S
C819 N816 1.332 . S
C819 C818 1.382 . S
C819 H830 0.952 . S
C820 C817 1.388 1_545 S
C820 C821 1.382 . S
C820 H845 0.950 . S
C821 N816 1.332 1_545 S
C821 C820 1.382 . S
C821 H831 0.948 . S
N822 Co800 2.282 . S
N822 C826 1.332 . S
N822 C827 1.332 . S
C823 C824 1.388 . S
C823 C827 1.382 . S
C823 H846 0.950 . S
C824 C823 1.388 . S
C824 C825 1.386 . S
C825 C824 1.386 . S
C825 C826 1.382 . S
C825 H847 0.950 1_565 S
C826 N822 1.332 . S
C826 C825 1.382 . S
C826 H828 0.952 1_565 S
C827 N822 1.332 . S
C827 C823 1.382 . S
C827 H829 0.948 . S
H828 C826 0.952 1_545 S
H829 C827 0.948 . S
H830 C819 0.952 . S
H831 C821 0.948 . S
C832 C798 1.395 . S
C832 C802 1.391 . S
C833 C795 1.389 . S
C833 C815 1.392 . S
C834 C805 1.392 . S
C834 C807 1.389 1_545 S
C835 C810 1.395 . S
C835 C812 1.391 . S
H836 C796 0.951 . S
H837 C797 0.950 . S
H838 C803 0.949 . S
H839 C804 0.950 . S
H840 C808 0.951 . S
H841 C809 0.950 . S
H842 C813 0.949 . S
H843 C814 0.950 . S
H844 C818 0.950 . S
H845 C820 0.950 . S
H846 C823 0.950 . S
H847 C825 0.950 1_545 S
C848 C849 1.443 . S
C848 N852 1.376 . S
C848 C886 1.389 . S
C849 C848 1.443 . S
C849 C850 1.340 . S
C849 H889 0.951 . S
C850 C849 1.340 . S
C850 C851 1.439 . S
C850 H890 0.950 . S
C851 C850 1.439 . S
C851 N852 1.374 . S
C851 C885 1.395 . S
N852 C848 1.376 . S
N852 C851 1.374 . S
N852 Co853 2.008 . S
Co853 N852 2.008 . S
Co853 N854 1.995 . S
Co853 N859 2.008 . S
Co853 N864 1.995 . S
Co853 N869 2.282 . S
Co853 N875 2.282 . S
N854 Co853 1.995 . S
N854 C855 1.376 . S
N854 C858 1.383 . S
C855 N854 1.376 . S
C855 C856 1.446 . S
C855 C885 1.391 . S
C856 C855 1.446 . S
C856 C857 1.339 . S
C856 H891 0.949 . S
C857 C856 1.339 . S
C857 C858 1.439 . S
C857 H892 0.950 . S
C858 N854 1.383 . S
C858 C857 1.439 . S
C858 C887 1.392 . S
N859 Co853 2.008 . S
N859 C860 1.376 . S
N859 C863 1.374 . S
C860 N859 1.376 . S
C860 C861 1.443 . S
C860 C887 1.389 . S
C861 C860 1.443 . S
C861 C862 1.340 . S
C861 H893 0.951 . S
C862 C861 1.340 . S
C862 C863 1.439 . S
C862 H894 0.950 . S
C863 N859 1.374 . S
C863 C862 1.439 . S
C863 C888 1.395 . S
N864 Co853 1.995 . S
N864 C865 1.376 . S
N864 C868 1.383 . S
C865 N864 1.376 . S
C865 C866 1.446 . S
C865 C888 1.391 . S
C866 C865 1.446 . S
C866 C867 1.339 . S
C866 H895 0.949 . S
C867 C866 1.339 . S
C867 C868 1.439 . S
C867 H896 0.950 . S
C868 N864 1.383 . S
C868 C867 1.439 . S
C868 C886 1.392 . S
N869 Co853 2.282 . S
N869 C872 1.332 . S
N869 C874 1.332 . S
C870 C871 1.386 . S
C870 C873 1.388 . S
C871 C870 1.386 . S
C871 C872 1.382 . S
C871 H897 0.950 . S
C872 N869 1.332 . S
C872 C871 1.382 . S
C872 H883 0.952 . S
C873 C870 1.388 . S
C873 C874 1.382 . S
C873 H898 0.950 . S
C874 N869 1.332 . S
C874 C873 1.382 . S
C874 H884 0.948 . S
N875 Co853 2.282 . S
N875 C879 1.332 . S
N875 C880 1.332 . S
C876 C877 1.388 . S
C876 C880 1.382 . S
C876 H899 0.950 . S
C877 C876 1.388 . S
C877 C878 1.386 . S
C878 C877 1.386 . S
C878 C879 1.382 . S
C878 H900 0.950 . S
C879 N875 1.332 . S
C879 C878 1.382 . S
C879 H881 0.952 . S
C880 N875 1.332 . S
C880 C876 1.382 . S
C880 H882 0.948 . S
H881 C879 0.952 . S
H882 C880 0.948 . S
H883 C872 0.952 . S
H884 C874 0.948 . S
C885 C851 1.395 . S
C885 C855 1.391 . S
C886 C848 1.389 . S
C886 C868 1.392 . S
C887 C858 1.392 . S
C887 C860 1.389 . S
C888 C863 1.395 . S
C888 C865 1.391 . S
H889 C849 0.951 . S
H890 C850 0.950 . S
H891 C856 0.949 . S
H892 C857 0.950 . S
H893 C861 0.951 . S
H894 C862 0.950 . S
H895 C866 0.949 . S
H896 C867 0.950 . S
H897 C871 0.950 . S
H898 C873 0.950 . S
H899 C876 0.950 . S
H900 C878 0.950 . S
C901 C902 1.443 . S
C901 N905 1.376 . S
C901 C939 1.389 . S
C902 C901 1.443 . S
C902 C903 1.340 . S
C902 H942 0.951 . S
C903 C902 1.340 . S
C903 C904 1.439 . S
C903 H943 0.950 . S
C904 C903 1.439 . S
C904 N905 1.374 . S
C904 C938 1.395 . S
N905 C901 1.376 . S
N905 C904 1.374 . S
N905 Co906 2.008 . S
Co906 N905 2.008 . S
Co906 N907 1.995 . S
Co906 N912 2.008 . S
Co906 N917 1.995 . S
Co906 N922 2.282 . S
Co906 N928 2.282 . S
N907 Co906 1.995 . S
N907 C908 1.376 . S
N907 C911 1.383 . S
C908 N907 1.376 . S
C908 C909 1.446 . S
C908 C938 1.391 . S
C909 C908 1.446 . S
C909 C910 1.339 . S
C909 H944 0.949 . S
C910 C909 1.339 . S
C910 C911 1.439 . S
C910 H945 0.950 . S
C911 N907 1.383 . S
C911 C910 1.439 . S
C911 C940 1.392 . S
N912 Co906 2.008 . S
N912 C913 1.376 . S
N912 C916 1.374 . S
C913 N912 1.376 . S
C913 C914 1.443 . S
C913 C940 1.389 . S
C914 C913 1.443 . S
C914 C915 1.340 . S
C914 H946 0.951 . S
C915 C914 1.340 . S
C915 C916 1.439 . S
C915 H947 0.950 . S
C916 N912 1.374 . S
C916 C915 1.439 . S
C916 C941 1.395 . S
N917 Co906 1.995 . S
N917 C918 1.376 . S
N917 C921 1.383 . S
C918 N917 1.376 . S
C918 C919 1.446 . S
C918 C941 1.391 . S
C919 C918 1.446 . S
C919 C920 1.339 . S
C919 H948 0.949 . S
C920 C919 1.339 . S
C920 C921 1.439 . S
C920 H949 0.950 . S
C921 N917 1.383 . S
C921 C920 1.439 . S
C921 C939 1.392 . S
N922 Co906 2.282 . S
N922 C925 1.332 . S
N922 C927 1.332 . S
C923 C924 1.386 . S
C923 C926 1.388 . S
C924 C923 1.386 . S
C924 C925 1.382 . S
C924 H950 0.950 . S
C925 N922 1.332 . S
C925 C924 1.382 . S
C925 H936 0.952 . S
C926 C923 1.388 . S
C926 C927 1.382 . S
C926 H951 0.950 . S
C927 N922 1.332 . S
C927 C926 1.382 . S
C927 H937 0.948 . S
N928 Co906 2.282 . S
N928 C932 1.332 . S
N928 C933 1.332 . S
C929 C930 1.388 . S
C929 C933 1.382 . S
C929 H952 0.950 . S
C930 C929 1.388 . S
C930 C931 1.386 . S
C931 C930 1.386 . S
C931 C932 1.382 . S
C931 H953 0.950 . S
C932 N928 1.332 . S
C932 C931 1.382 . S
C932 H934 0.952 . S
C933 N928 1.332 . S
C933 C929 1.382 . S
C933 H935 0.948 . S
H934 C932 0.952 . S
H935 C933 0.948 . S
H936 C925 0.952 . S
H937 C927 0.948 . S
C938 C904 1.395 . S
C938 C908 1.391 . S
C939 C901 1.389 . S
C939 C921 1.392 . S
C940 C911 1.392 . S
C940 C913 1.389 . S
C941 C916 1.395 . S
C941 C918 1.391 . S
H942 C902 0.951 . S
H943 C903 0.950 . S
H944 C909 0.949 . S
H945 C910 0.950 . S
H946 C914 0.951 . S
H947 C915 0.950 . S
H948 C919 0.949 . S
H949 C920 0.950 . S
H950 C924 0.950 . S
H951 C926 0.950 . S
H952 C929 0.950 . S
H953 C931 0.950 . S
C954 C955 1.443 . S
C954 N958 1.376 . S
C954 C992 1.389 . S
C955 C954 1.443 . S
C955 C956 1.340 . S
C955 H995 0.951 . S
C956 C955 1.340 . S
C956 C957 1.439 . S
C956 H996 0.950 . S
C957 C956 1.439 . S
C957 N958 1.374 . S
C957 C991 1.395 . S
N958 C954 1.376 . S
N958 C957 1.374 . S
N958 Co959 2.008 . S
Co959 N958 2.008 . S
Co959 N960 1.995 . S
Co959 N965 2.008 . S
Co959 N970 1.995 . S
Co959 N975 2.282 . S
Co959 N981 2.282 . S
N960 Co959 1.995 . S
N960 C961 1.376 . S
N960 C964 1.383 . S
C961 N960 1.376 . S
C961 C962 1.446 . S
C961 C991 1.391 . S
C962 C961 1.446 . S
C962 C963 1.339 . S
C962 H997 0.949 . S
C963 C962 1.339 . S
C963 C964 1.439 . S
C963 H998 0.950 . S
C964 N960 1.383 . S
C964 C963 1.439 . S
C964 C993 1.392 . S
N965 Co959 2.008 . S
N965 C966 1.376 . S
N965 C969 1.374 . S
C966 N965 1.376 . S
C966 C967 1.443 . S
C966 C993 1.389 . S
C967 C966 1.443 . S
C967 C968 1.340 . S
C967 H999 0.951 . S
C968 C967 1.340 . S
C968 C969 1.439 . S
C968 H1000 0.950 . S
C969 N965 1.374 . S
C969 C968 1.439 . S
C969 C994 1.395 . S
N970 Co959 1.995 . S
N970 C971 1.376 . S
N970 C974 1.383 . S
C971 N970 1.376 . S
C971 C972 1.446 . S
C971 C994 1.391 . S
C972 C971 1.446 . S
C972 C973 1.339 . S
C972 H1001 0.949 . S
C973 C972 1.339 . S
C973 C974 1.439 . S
C973 H1002 0.950 . S
C974 N970 1.383 . S
C974 C973 1.439 . S
C974 C992 1.392 . S
N975 Co959 2.282 . S
N975 C978 1.332 . S
N975 C980 1.332 . S
C976 C977 1.386 . S
C976 C979 1.388 . S
C977 C976 1.386 . S
C977 C978 1.382 . S
C977 H1003 0.950 . S
C978 N975 1.332 . S
C978 C977 1.382 . S
C978 H989 0.952 . S
C979 C976 1.388 . S
C979 C980 1.382 . S
C979 H1004 0.950 . S
C980 N975 1.332 . S
C980 C979 1.382 . S
C980 H990 0.948 . S
N981 Co959 2.282 . S
N981 C985 1.332 . S
N981 C986 1.332 . S
C982 C983 1.388 . S
C982 C986 1.382 . S
C982 H1005 0.950 . S
C983 C982 1.388 . S
C983 C984 1.386 . S
C984 C983 1.386 . S
C984 C985 1.382 . S
C984 H1006 0.950 . S
C985 N981 1.332 . S
C985 C984 1.382 . S
C985 H987 0.952 . S
C986 N981 1.332 . S
C986 C982 1.382 . S
C986 H988 0.948 . S
H987 C985 0.952 . S
H988 C986 0.948 . S
H989 C978 0.952 . S
H990 C980 0.948 . S
C991 C957 1.395 . S
C991 C961 1.391 . S
C992 C954 1.389 . S
C992 C974 1.392 . S
C993 C964 1.392 . S
C993 C966 1.389 . S
C994 C969 1.395 . S
C994 C971 1.391 . S
H995 C955 0.951 . S
H996 C956 0.950 . S
H997 C962 0.949 . S
H998 C963 0.950 . S
H999 C967 0.951 . S
H1000 C968 0.950 . S
H1001 C972 0.949 . S
H1002 C973 0.950 . S
H1003 C977 0.950 . S
H1004 C979 0.950 . S
H1005 C982 0.950 . S
H1006 C984 0.950 . S
C1007 C1008 1.443 . S
C1007 N1011 1.376 . S
C1007 C1045 1.389 . S
C1008 C1007 1.443 . S
C1008 C1009 1.340 . S
C1008 H1048 0.951 . S
C1009 C1008 1.340 . S
C1009 C1010 1.439 . S
C1009 H1049 0.950 . S
C1010 C1009 1.439 . S
C1010 N1011 1.374 . S
C1010 C1044 1.395 . S
N1011 C1007 1.376 . S
N1011 C1010 1.374 . S
N1011 Co1012 2.008 . S
Co1012 N1011 2.008 . S
Co1012 N1013 1.995 . S
Co1012 N1018 2.008 . S
Co1012 N1023 1.995 . S
Co1012 N1028 2.282 . S
Co1012 N1034 2.282 . S
N1013 Co1012 1.995 . S
N1013 C1014 1.376 . S
N1013 C1017 1.383 . S
C1014 N1013 1.376 . S
C1014 C1015 1.446 . S
C1014 C1044 1.391 . S
C1015 C1014 1.446 . S
C1015 C1016 1.339 . S
C1015 H1050 0.949 . S
C1016 C1015 1.339 . S
C1016 C1017 1.439 . S
C1016 H1051 0.950 . S
C1017 N1013 1.383 . S
C1017 C1016 1.439 . S
C1017 C1046 1.392 . S
N1018 Co1012 2.008 . S
N1018 C1019 1.376 . S
N1018 C1022 1.374 . S
C1019 N1018 1.376 . S
C1019 C1020 1.443 . S
C1019 C1046 1.389 . S
C1020 C1019 1.443 . S
C1020 C1021 1.340 . S
C1020 H1052 0.951 . S
C1021 C1020 1.340 . S
C1021 C1022 1.439 . S
C1021 H1053 0.950 . S
C1022 N1018 1.374 . S
C1022 C1021 1.439 . S
C1022 C1047 1.395 . S
N1023 Co1012 1.995 . S
N1023 C1024 1.376 . S
N1023 C1027 1.383 . S
C1024 N1023 1.376 . S
C1024 C1025 1.446 . S
C1024 C1047 1.391 . S
C1025 C1024 1.446 . S
C1025 C1026 1.339 . S
C1025 H1054 0.949 . S
C1026 C1025 1.339 . S
C1026 C1027 1.439 . S
C1026 H1055 0.950 . S
C1027 N1023 1.383 . S
C1027 C1026 1.439 . S
C1027 C1045 1.392 . S
N1028 Co1012 2.282 . S
N1028 C1031 1.332 . S
N1028 C1033 1.332 . S
C1029 C1030 1.386 . S
C1029 C1032 1.388 . S
C1030 C1029 1.386 . S
C1030 C1031 1.382 . S
C1030 H1056 0.950 . S
C1031 N1028 1.332 . S
C1031 C1030 1.382 . S
C1031 H1042 0.952 . S
C1032 C1029 1.388 . S
C1032 C1033 1.382 . S
C1032 H1057 0.950 . S
C1033 N1028 1.332 . S
C1033 C1032 1.382 . S
C1033 H1043 0.948 . S
N1034 Co1012 2.282 . S
N1034 C1038 1.332 . S
N1034 C1039 1.332 . S
C1035 C1036 1.388 . S
C1035 C1039 1.382 . S
C1035 H1058 0.950 . S
C1036 C1035 1.388 . S
C1036 C1037 1.386 . S
C1037 C1036 1.386 . S
C1037 C1038 1.382 . S
C1037 H1059 0.950 . S
C1038 N1034 1.332 . S
C1038 C1037 1.382 . S
C1038 H1040 0.952 . S
C1039 N1034 1.332 . S
C1039 C1035 1.382 . S
C1039 H1041 0.948 . S
H1040 C1038 0.952 . S
H1041 C1039 0.948 . S
H1042 C1031 0.952 . S
H1043 C1033 0.948 . S
C1044 C1010 1.395 . S
C1044 C1014 1.391 . S
C1045 C1007 1.389 . S
C1045 C1027 1.392 . S
C1046 C1017 1.392 . S
C1046 C1019 1.389 . S
C1047 C1022 1.395 . S
C1047 C1024 1.391 . S
H1048 C1008 0.951 . S
H1049 C1009 0.950 . S
H1050 C1015 0.949 . S
H1051 C1016 0.950 . S
H1052 C1020 0.951 . S
H1053 C1021 0.950 . S
H1054 C1025 0.949 . S
H1055 C1026 0.950 . S
H1056 C1030 0.950 . S
H1057 C1032 0.950 . S
H1058 C1035 0.950 . S
H1059 C1037 0.950 . S
C1060 C1061 1.443 . S
C1060 N1064 1.376 . S
C1060 C1098 1.389 . S
C1061 C1060 1.443 . S
C1061 C1062 1.340 . S
C1061 H1101 0.951 . S
C1062 C1061 1.340 . S
C1062 C1063 1.439 . S
C1062 H1102 0.950 . S
C1063 C1062 1.439 . S
C1063 N1064 1.374 . S
C1063 C1097 1.395 . S
N1064 C1060 1.376 . S
N1064 C1063 1.374 . S
N1064 Co1065 2.008 . S
Co1065 N1064 2.008 . S
Co1065 N1066 1.995 . S
Co1065 N1071 2.008 . S
Co1065 N1076 1.995 . S
Co1065 N1081 2.282 . S
Co1065 N1087 2.282 . S
N1066 Co1065 1.995 . S
N1066 C1067 1.376 . S
N1066 C1070 1.383 . S
C1067 N1066 1.376 . S
C1067 C1068 1.446 . S
C1067 C1097 1.391 . S
C1068 C1067 1.446 . S
C1068 C1069 1.339 . S
C1068 H1103 0.949 . S
C1069 C1068 1.339 . S
C1069 C1070 1.439 . S
C1069 H1104 0.950 . S
C1070 N1066 1.383 . S
C1070 C1069 1.439 . S
C1070 C1099 1.392 . S
N1071 Co1065 2.008 . S
N1071 C1072 1.376 . S
N1071 C1075 1.374 . S
C1072 N1071 1.376 . S
C1072 C1073 1.443 . S
C1072 C1099 1.389 . S
C1073 C1072 1.443 . S
C1073 C1074 1.340 . S
C1073 H1105 0.951 . S
C1074 C1073 1.340 . S
C1074 C1075 1.439 . S
C1074 H1106 0.950 . S
C1075 N1071 1.374 . S
C1075 C1074 1.439 . S
C1075 C1100 1.395 . S
N1076 Co1065 1.995 . S
N1076 C1077 1.376 . S
N1076 C1080 1.383 . S
C1077 N1076 1.376 . S
C1077 C1078 1.446 . S
C1077 C1100 1.391 . S
C1078 C1077 1.446 . S
C1078 C1079 1.339 . S
C1078 H1107 0.949 . S
C1079 C1078 1.339 . S
C1079 C1080 1.439 . S
C1079 H1108 0.950 . S
C1080 N1076 1.383 . S
C1080 C1079 1.439 . S
C1080 C1098 1.392 . S
N1081 Co1065 2.282 . S
N1081 C1084 1.332 . S
N1081 C1086 1.332 . S
C1082 C1083 1.386 . S
C1082 C1085 1.388 . S
C1083 C1082 1.386 . S
C1083 C1084 1.382 . S
C1083 H1109 0.950 . S
C1084 N1081 1.332 . S
C1084 C1083 1.382 . S
C1084 H1095 0.952 . S
C1085 C1082 1.388 . S
C1085 C1086 1.382 . S
C1085 H1110 0.950 . S
C1086 N1081 1.332 . S
C1086 C1085 1.382 . S
C1086 H1096 0.948 . S
N1087 Co1065 2.282 . S
N1087 C1091 1.332 . S
N1087 C1092 1.332 . S
C1088 C1089 1.388 . S
C1088 C1092 1.382 . S
C1088 H1111 0.950 . S
C1089 C1088 1.388 . S
C1089 C1090 1.386 . S
C1090 C1089 1.386 . S
C1090 C1091 1.382 . S
C1090 H1112 0.950 . S
C1091 N1087 1.332 . S
C1091 C1090 1.382 . S
C1091 H1093 0.952 . S
C1092 N1087 1.332 . S
C1092 C1088 1.382 . S
C1092 H1094 0.948 . S
H1093 C1091 0.952 . S
H1094 C1092 0.948 . S
H1095 C1084 0.952 . S
H1096 C1086 0.948 . S
C1097 C1063 1.395 . S
C1097 C1067 1.391 . S
C1098 C1060 1.389 . S
C1098 C1080 1.392 . S
C1099 C1070 1.392 . S
C1099 C1072 1.389 . S
C1100 C1075 1.395 . S
C1100 C1077 1.391 . S
H1101 C1061 0.951 . S
H1102 C1062 0.950 . S
H1103 C1068 0.949 . S
H1104 C1069 0.950 . S
H1105 C1073 0.951 . S
H1106 C1074 0.950 . S
H1107 C1078 0.949 . S
H1108 C1079 0.950 . S
H1109 C1083 0.950 . S
H1110 C1085 0.950 . S
H1111 C1088 0.950 . S
H1112 C1090 0.950 . S
C1113 C1114 1.443 . S
C1113 N1117 1.376 . S
C1113 C1151 1.389 . S
C1114 C1113 1.443 . S
C1114 C1115 1.340 . S
C1114 H1154 0.951 . S
C1115 C1114 1.340 . S
C1115 C1116 1.439 . S
C1115 H1155 0.950 . S
C1116 C1115 1.439 . S
C1116 N1117 1.374 . S
C1116 C1150 1.395 . S
N1117 C1113 1.376 . S
N1117 C1116 1.374 . S
N1117 Co1118 2.008 . S
Co1118 N1117 2.008 . S
Co1118 N1119 1.995 . S
Co1118 N1124 2.008 . S
Co1118 N1129 1.995 . S
Co1118 N1134 2.282 . S
Co1118 N1140 2.282 . S
N1119 Co1118 1.995 . S
N1119 C1120 1.376 . S
N1119 C1123 1.383 . S
C1120 N1119 1.376 . S
C1120 C1121 1.446 . S
C1120 C1150 1.391 . S
C1121 C1120 1.446 . S
C1121 C1122 1.339 . S
C1121 H1156 0.949 . S
C1122 C1121 1.339 . S
C1122 C1123 1.439 . S
C1122 H1157 0.950 . S
C1123 N1119 1.383 . S
C1123 C1122 1.439 . S
C1123 C1152 1.392 . S
N1124 Co1118 2.008 . S
N1124 C1125 1.376 . S
N1124 C1128 1.374 . S
C1125 N1124 1.376 . S
C1125 C1126 1.443 . S
C1125 C1152 1.389 . S
C1126 C1125 1.443 . S
C1126 C1127 1.340 . S
C1126 H1158 0.951 . S
C1127 C1126 1.340 . S
C1127 C1128 1.439 . S
C1127 H1159 0.950 . S
C1128 N1124 1.374 . S
C1128 C1127 1.439 . S
C1128 C1153 1.395 . S
N1129 Co1118 1.995 . S
N1129 C1130 1.376 . S
N1129 C1133 1.383 . S
C1130 N1129 1.376 . S
C1130 C1131 1.446 . S
C1130 C1153 1.391 . S
C1131 C1130 1.446 . S
C1131 C1132 1.339 . S
C1131 H1160 0.949 . S
C1132 C1131 1.339 . S
C1132 C1133 1.439 . S
C1132 H1161 0.950 . S
C1133 N1129 1.383 . S
C1133 C1132 1.439 . S
C1133 C1151 1.392 . S
N1134 Co1118 2.282 . S
N1134 C1137 1.332 . S
N1134 C1139 1.332 . S
C1135 C1136 1.386 . S
C1135 C1138 1.388 . S
C1136 C1135 1.386 . S
C1136 C1137 1.382 . S
C1136 H1162 0.950 . S
C1137 N1134 1.332 . S
C1137 C1136 1.382 . S
C1137 H1148 0.952 . S
C1138 C1135 1.388 . S
C1138 C1139 1.382 . S
C1138 H1163 0.950 . S
C1139 N1134 1.332 . S
C1139 C1138 1.382 . S
C1139 H1149 0.948 . S
N1140 Co1118 2.282 . S
N1140 C1144 1.332 . S
N1140 C1145 1.332 . S
C1141 C1142 1.388 . S
C1141 C1145 1.382 . S
C1141 H1164 0.950 . S
C1142 C1141 1.388 . S
C1142 C1143 1.386 . S
C1143 C1142 1.386 . S
C1143 C1144 1.382 . S
C1143 H1165 0.950 . S
C1144 N1140 1.332 . S
C1144 C1143 1.382 . S
C1144 H1146 0.952 . S
C1145 N1140 1.332 . S
C1145 C1141 1.382 . S
C1145 H1147 0.948 . S
H1146 C1144 0.952 . S
H1147 C1145 0.948 . S
H1148 C1137 0.952 . S
H1149 C1139 0.948 . S
C1150 C1116 1.395 . S
C1150 C1120 1.391 . S
C1151 C1113 1.389 . S
C1151 C1133 1.392 . S
C1152 C1123 1.392 . S
C1152 C1125 1.389 . S
C1153 C1128 1.395 . S
C1153 C1130 1.391 . S
H1154 C1114 0.951 . S
H1155 C1115 0.950 . S
H1156 C1121 0.949 . S
H1157 C1122 0.950 . S
H1158 C1126 0.951 . S
H1159 C1127 0.950 . S
H1160 C1131 0.949 . S
H1161 C1132 0.950 . S
H1162 C1136 0.950 . S
H1163 C1138 0.950 . S
H1164 C1141 0.950 . S
H1165 C1143 0.950 . S
C1166 C1167 1.443 . S
C1166 N1170 1.376 . S
C1166 C1204 1.389 . S
C1167 C1166 1.443 . S
C1167 C1168 1.340 . S
C1167 H1207 0.951 . S
C1168 C1167 1.340 . S
C1168 C1169 1.439 . S
C1168 H1208 0.950 . S
C1169 C1168 1.439 . S
C1169 N1170 1.374 . S
C1169 C1203 1.395 . S
N1170 C1166 1.376 . S
N1170 C1169 1.374 . S
N1170 Co1171 2.008 . S
Co1171 N1170 2.008 . S
Co1171 N1172 1.995 . S
Co1171 N1177 2.008 . S
Co1171 N1182 1.995 . S
Co1171 N1187 2.282 . S
Co1171 N1193 2.282 . S
N1172 Co1171 1.995 . S
N1172 C1173 1.376 . S
N1172 C1176 1.383 . S
C1173 N1172 1.376 . S
C1173 C1174 1.446 . S
C1173 C1203 1.391 . S
C1174 C1173 1.446 . S
C1174 C1175 1.339 . S
C1174 H1209 0.949 . S
C1175 C1174 1.339 . S
C1175 C1176 1.439 . S
C1175 H1210 0.950 . S
C1176 N1172 1.383 . S
C1176 C1175 1.439 . S
C1176 C1205 1.392 . S
N1177 Co1171 2.008 . S
N1177 C1178 1.376 . S
N1177 C1181 1.374 . S
C1178 N1177 1.376 . S
C1178 C1179 1.443 . S
C1178 C1205 1.389 . S
C1179 C1178 1.443 . S
C1179 C1180 1.340 . S
C1179 H1211 0.951 . S
C1180 C1179 1.340 . S
C1180 C1181 1.439 . S
C1180 H1212 0.950 . S
C1181 N1177 1.374 . S
C1181 C1180 1.439 . S
C1181 C1206 1.395 . S
N1182 Co1171 1.995 . S
N1182 C1183 1.376 . S
N1182 C1186 1.383 . S
C1183 N1182 1.376 . S
C1183 C1184 1.446 . S
C1183 C1206 1.391 . S
C1184 C1183 1.446 . S
C1184 C1185 1.339 . S
C1184 H1213 0.949 . S
C1185 C1184 1.339 . S
C1185 C1186 1.439 . S
C1185 H1214 0.950 . S
C1186 N1182 1.383 . S
C1186 C1185 1.439 . S
C1186 C1204 1.392 . S
N1187 Co1171 2.282 . S
N1187 C1190 1.332 . S
N1187 C1192 1.332 . S
C1188 C1189 1.386 . S
C1188 C1191 1.388 . S
C1189 C1188 1.386 . S
C1189 C1190 1.382 . S
C1189 H1215 0.950 . S
C1190 N1187 1.332 . S
C1190 C1189 1.382 . S
C1190 H1201 0.952 . S
C1191 C1188 1.388 . S
C1191 C1192 1.382 . S
C1191 H1216 0.950 . S
C1192 N1187 1.332 . S
C1192 C1191 1.382 . S
C1192 H1202 0.948 . S
N1193 Co1171 2.282 . S
N1193 C1197 1.332 . S
N1193 C1198 1.332 . S
C1194 C1195 1.388 . S
C1194 C1198 1.382 . S
C1194 H1217 0.950 . S
C1195 C1194 1.388 . S
C1195 C1196 1.386 . S
C1196 C1195 1.386 . S
C1196 C1197 1.382 . S
C1196 H1218 0.950 . S
C1197 N1193 1.332 . S
C1197 C1196 1.382 . S
C1197 H1199 0.952 . S
C1198 N1193 1.332 . S
C1198 C1194 1.382 . S
C1198 H1200 0.948 . S
H1199 C1197 0.952 . S
H1200 C1198 0.948 . S
H1201 C1190 0.952 . S
H1202 C1192 0.948 . S
C1203 C1169 1.395 . S
C1203 C1173 1.391 . S
C1204 C1166 1.389 . S
C1204 C1186 1.392 . S
C1205 C1176 1.392 . S
C1205 C1178 1.389 . S
C1206 C1181 1.395 . S
C1206 C1183 1.391 . S
H1207 C1167 0.951 . S
H1208 C1168 0.950 . S
H1209 C1174 0.949 . S
H1210 C1175 0.950 . S
H1211 C1179 0.951 . S
H1212 C1180 0.950 . S
H1213 C1184 0.949 . S
H1214 C1185 0.950 . S
H1215 C1189 0.950 . S
H1216 C1191 0.950 . S
H1217 C1194 0.950 . S
H1218 C1196 0.950 . S
C1219 C1220 1.443 . S
C1219 N1223 1.376 . S
C1219 C1257 1.389 . S
C1220 C1219 1.443 . S
C1220 C1221 1.340 . S
C1220 H1260 0.951 . S
C1221 C1220 1.340 . S
C1221 C1222 1.439 . S
C1221 H1261 0.950 . S
C1222 C1221 1.439 . S
C1222 N1223 1.374 . S
C1222 C1256 1.395 . S
N1223 C1219 1.376 . S
N1223 C1222 1.374 . S
N1223 Co1224 2.008 . S
Co1224 N1223 2.008 . S
Co1224 N1225 1.995 . S
Co1224 N1230 2.008 . S
Co1224 N1235 1.995 . S
Co1224 N1240 2.282 . S
Co1224 N1246 2.282 . S
N1225 Co1224 1.995 . S
N1225 C1226 1.376 . S
N1225 C1229 1.383 . S
C1226 N1225 1.376 . S
C1226 C1227 1.446 . S
C1226 C1256 1.391 . S
C1227 C1226 1.446 . S
C1227 C1228 1.339 . S
C1227 H1262 0.949 . S
C1228 C1227 1.339 . S
C1228 C1229 1.439 . S
C1228 H1263 0.950 . S
C1229 N1225 1.383 . S
C1229 C1228 1.439 . S
C1229 C1258 1.392 . S
N1230 Co1224 2.008 . S
N1230 C1231 1.376 . S
N1230 C1234 1.374 . S
C1231 N1230 1.376 . S
C1231 C1232 1.443 . S
C1231 C1258 1.389 . S
C1232 C1231 1.443 . S
C1232 C1233 1.340 . S
C1232 H1264 0.951 . S
C1233 C1232 1.340 . S
C1233 C1234 1.439 . S
C1233 H1265 0.950 . S
C1234 N1230 1.374 . S
C1234 C1233 1.439 . S
C1234 C1259 1.395 . S
N1235 Co1224 1.995 . S
N1235 C1236 1.376 . S
N1235 C1239 1.383 . S
C1236 N1235 1.376 . S
C1236 C1237 1.446 . S
C1236 C1259 1.391 . S
C1237 C1236 1.446 . S
C1237 C1238 1.339 . S
C1237 H1266 0.949 . S
C1238 C1237 1.339 . S
C1238 C1239 1.439 . S
C1238 H1267 0.950 . S
C1239 N1235 1.383 . S
C1239 C1238 1.439 . S
C1239 C1257 1.392 . S
N1240 Co1224 2.282 . S
N1240 C1243 1.332 . S
N1240 C1245 1.332 . S
C1241 C1242 1.386 . S
C1241 C1244 1.388 . S
C1242 C1241 1.386 . S
C1242 C1243 1.382 . S
C1242 H1268 0.950 . S
C1243 N1240 1.332 . S
C1243 C1242 1.382 . S
C1243 H1254 0.952 . S
C1244 C1241 1.388 . S
C1244 C1245 1.382 . S
C1244 H1269 0.950 . S
C1245 N1240 1.332 . S
C1245 C1244 1.382 . S
C1245 H1255 0.948 . S
N1246 Co1224 2.282 . S
N1246 C1250 1.332 . S
N1246 C1251 1.332 . S
C1247 C1248 1.388 . S
C1247 C1251 1.382 . S
C1247 H1270 0.950 . S
C1248 C1247 1.388 . S
C1248 C1249 1.386 . S
C1249 C1248 1.386 . S
C1249 C1250 1.382 . S
C1249 H1271 0.950 . S
C1250 N1246 1.332 . S
C1250 C1249 1.382 . S
C1250 H1252 0.952 . S
C1251 N1246 1.332 . S
C1251 C1247 1.382 . S
C1251 H1253 0.948 . S
H1252 C1250 0.952 . S
H1253 C1251 0.948 . S
H1254 C1243 0.952 . S
H1255 C1245 0.948 . S
C1256 C1222 1.395 . S
C1256 C1226 1.391 . S
C1257 C1219 1.389 . S
C1257 C1239 1.392 . S
C1258 C1229 1.392 . S
C1258 C1231 1.389 . S
C1259 C1234 1.395 . S
C1259 C1236 1.391 . S
H1260 C1220 0.951 . S
H1261 C1221 0.950 . S
H1262 C1227 0.949 . S
H1263 C1228 0.950 . S
H1264 C1232 0.951 . S
H1265 C1233 0.950 . S
H1266 C1237 0.949 . S
H1267 C1238 0.950 . S
H1268 C1242 0.950 . S
H1269 C1244 0.950 . S
H1270 C1247 0.950 . S
H1271 C1249 0.950 . S
C1272 C1273 1.443 . S
C1272 N1276 1.376 . S
C1272 C1310 1.389 . S
C1273 C1272 1.443 . S
C1273 C1274 1.340 . S
C1273 H1313 0.951 . S
C1274 C1273 1.340 . S
C1274 C1275 1.439 . S
C1274 H1314 0.950 . S
C1275 C1274 1.439 . S
C1275 N1276 1.374 . S
C1275 C1309 1.395 . S
N1276 C1272 1.376 . S
N1276 C1275 1.374 . S
N1276 Co1277 2.008 . S
Co1277 N1276 2.008 . S
Co1277 N1278 1.995 . S
Co1277 N1283 2.008 . S
Co1277 N1288 1.995 . S
Co1277 N1293 2.282 . S
Co1277 N1299 2.282 . S
N1278 Co1277 1.995 . S
N1278 C1279 1.376 . S
N1278 C1282 1.383 . S
C1279 N1278 1.376 . S
C1279 C1280 1.446 . S
C1279 C1309 1.391 . S
C1280 C1279 1.446 . S
C1280 C1281 1.339 . S
C1280 H1315 0.949 . S
C1281 C1280 1.339 . S
C1281 C1282 1.439 . S
C1281 H1316 0.950 . S
C1282 N1278 1.383 . S
C1282 C1281 1.439 . S
C1282 C1311 1.392 . S
N1283 Co1277 2.008 . S
N1283 C1284 1.376 . S
N1283 C1287 1.374 . S
C1284 N1283 1.376 . S
C1284 C1285 1.443 . S
C1284 C1311 1.389 . S
C1285 C1284 1.443 . S
C1285 C1286 1.340 . S
C1285 H1317 0.951 . S
C1286 C1285 1.340 . S
C1286 C1287 1.439 . S
C1286 H1318 0.950 . S
C1287 N1283 1.374 . S
C1287 C1286 1.439 . S
C1287 C1312 1.395 . S
N1288 Co1277 1.995 . S
N1288 C1289 1.376 . S
N1288 C1292 1.383 . S
C1289 N1288 1.376 . S
C1289 C1290 1.446 . S
C1289 C1312 1.391 . S
C1290 C1289 1.446 . S
C1290 C1291 1.339 . S
C1290 H1319 0.949 . S
C1291 C1290 1.339 . S
C1291 C1292 1.439 . S
C1291 H1320 0.950 . S
C1292 N1288 1.383 . S
C1292 C1291 1.439 . S
C1292 C1310 1.392 . S
N1293 Co1277 2.282 . S
N1293 C1296 1.332 . S
N1293 C1298 1.332 . S
C1294 C1295 1.386 . S
C1294 C1297 1.388 . S
C1295 C1294 1.386 . S
C1295 C1296 1.382 . S
C1295 H1321 0.950 . S
C1296 N1293 1.332 . S
C1296 C1295 1.382 . S
C1296 H1307 0.952 . S
C1297 C1294 1.388 . S
C1297 C1298 1.382 . S
C1297 H1322 0.950 . S
C1298 N1293 1.332 . S
C1298 C1297 1.382 . S
C1298 H1308 0.948 . S
N1299 Co1277 2.282 . S
N1299 C1303 1.332 . S
N1299 C1304 1.332 . S
C1300 C1301 1.388 . S
C1300 C1304 1.382 . S
C1300 H1323 0.950 . S
C1301 C1300 1.388 . S
C1301 C1302 1.386 . S
C1302 C1301 1.386 . S
C1302 C1303 1.382 . S
C1302 H1324 0.950 . S
C1303 N1299 1.332 . S
C1303 C1302 1.382 . S
C1303 H1305 0.952 . S
C1304 N1299 1.332 . S
C1304 C1300 1.382 . S
C1304 H1306 0.948 . S
H1305 C1303 0.952 . S
H1306 C1304 0.948 . S
H1307 C1296 0.952 . S
H1308 C1298 0.948 . S
C1309 C1275 1.395 . S
C1309 C1279 1.391 . S
C1310 C1272 1.389 . S
C1310 C1292 1.392 . S
C1311 C1282 1.392 . S
C1311 C1284 1.389 . S
C1312 C1287 1.395 . S
C1312 C1289 1.391 . S
H1313 C1273 0.951 . S
H1314 C1274 0.950 . S
H1315 C1280 0.949 . S
H1316 C1281 0.950 . S
H1317 C1285 0.951 . S
H1318 C1286 0.950 . S
H1319 C1290 0.949 . S
H1320 C1291 0.950 . S
H1321 C1295 0.950 . S
H1322 C1297 0.950 . S
H1323 C1300 0.950 . S
H1324 C1302 0.950 . S
C1325 C1326 1.443 . S
C1325 N1329 1.376 . S
C1325 C1363 1.389 . S
C1326 C1325 1.443 . S
C1326 C1327 1.340 . S
C1326 H1366 0.951 . S
C1327 C1326 1.340 . S
C1327 C1328 1.439 . S
C1327 H1367 0.950 . S
C1328 C1327 1.439 . S
C1328 N1329 1.374 . S
C1328 C1362 1.395 . S
N1329 C1325 1.376 . S
N1329 C1328 1.374 . S
N1329 Co1330 2.008 . S
Co1330 N1329 2.008 . S
Co1330 N1331 1.995 . S
Co1330 N1336 2.008 . S
Co1330 N1341 1.995 . S
Co1330 N1346 2.282 . S
Co1330 N1352 2.282 . S
N1331 Co1330 1.995 . S
N1331 C1332 1.376 . S
N1331 C1335 1.383 . S
C1332 N1331 1.376 . S
C1332 C1333 1.446 . S
C1332 C1362 1.391 . S
C1333 C1332 1.446 . S
C1333 C1334 1.339 . S
C1333 H1368 0.949 . S
C1334 C1333 1.339 . S
C1334 C1335 1.439 . S
C1334 H1369 0.950 . S
C1335 N1331 1.383 . S
C1335 C1334 1.439 . S
C1335 C1364 1.392 . S
N1336 Co1330 2.008 . S
N1336 C1337 1.376 . S
N1336 C1340 1.374 . S
C1337 N1336 1.376 . S
C1337 C1338 1.443 . S
C1337 C1364 1.389 . S
C1338 C1337 1.443 . S
C1338 C1339 1.340 . S
C1338 H1370 0.951 . S
C1339 C1338 1.340 . S
C1339 C1340 1.439 . S
C1339 H1371 0.950 . S
C1340 N1336 1.374 . S
C1340 C1339 1.439 . S
C1340 C1365 1.395 . S
N1341 Co1330 1.995 . S
N1341 C1342 1.376 . S
N1341 C1345 1.383 . S
C1342 N1341 1.376 . S
C1342 C1343 1.446 . S
C1342 C1365 1.391 . S
C1343 C1342 1.446 . S
C1343 C1344 1.339 . S
C1343 H1372 0.949 . S
C1344 C1343 1.339 . S
C1344 C1345 1.439 . S
C1344 H1373 0.950 . S
C1345 N1341 1.383 . S
C1345 C1344 1.439 . S
C1345 C1363 1.392 . S
N1346 Co1330 2.282 . S
N1346 C1349 1.332 . S
N1346 C1351 1.332 . S
C1347 C1348 1.386 . S
C1347 C1350 1.388 . S
C1348 C1347 1.386 . S
C1348 C1349 1.382 . S
C1348 H1374 0.950 . S
C1349 N1346 1.332 . S
C1349 C1348 1.382 . S
C1349 H1360 0.952 . S
C1350 C1347 1.388 . S
C1350 C1351 1.382 . S
C1350 H1375 0.950 . S
C1351 N1346 1.332 . S
C1351 C1350 1.382 . S
C1351 H1361 0.948 . S
N1352 Co1330 2.282 . S
N1352 C1356 1.332 . S
N1352 C1357 1.332 . S
C1353 C1354 1.388 . S
C1353 C1357 1.382 . S
C1353 H1376 0.950 . S
C1354 C1353 1.388 . S
C1354 C1355 1.386 . S
C1355 C1354 1.386 . S
C1355 C1356 1.382 . S
C1355 H1377 0.950 . S
C1356 N1352 1.332 . S
C1356 C1355 1.382 . S
C1356 H1358 0.952 . S
C1357 N1352 1.332 . S
C1357 C1353 1.382 . S
C1357 H1359 0.948 . S
H1358 C1356 0.952 . S
H1359 C1357 0.948 . S
H1360 C1349 0.952 . S
H1361 C1351 0.948 . S
C1362 C1328 1.395 . S
C1362 C1332 1.391 . S
C1363 C1325 1.389 . S
C1363 C1345 1.392 . S
C1364 C1335 1.392 . S
C1364 C1337 1.389 . S
C1365 C1340 1.395 . S
C1365 C1342 1.391 . S
H1366 C1326 0.951 . S
H1367 C1327 0.950 . S
H1368 C1333 0.949 . S
H1369 C1334 0.950 . S
H1370 C1338 0.951 . S
H1371 C1339 0.950 . S
H1372 C1343 0.949 . S
H1373 C1344 0.950 . S
H1374 C1348 0.950 . S
H1375 C1350 0.950 . S
H1376 C1353 0.950 . S
H1377 C1355 0.950 . S
C1378 C1379 1.443 . S
C1378 N1382 1.376 . S
C1378 C1416 1.389 . S
C1379 C1378 1.443 . S
C1379 C1380 1.340 . S
C1379 H1419 0.951 . S
C1380 C1379 1.340 . S
C1380 C1381 1.439 . S
C1380 H1420 0.950 . S
C1381 C1380 1.439 . S
C1381 N1382 1.374 . S
C1381 C1415 1.395 . S
N1382 C1378 1.376 . S
N1382 C1381 1.374 . S
N1382 Co1383 2.008 . S
Co1383 N1382 2.008 . S
Co1383 N1384 1.995 . S
Co1383 N1389 2.008 . S
Co1383 N1394 1.995 . S
Co1383 N1399 2.282 . S
Co1383 N1405 2.282 . S
N1384 Co1383 1.995 . S
N1384 C1385 1.376 . S
N1384 C1388 1.383 . S
C1385 N1384 1.376 . S
C1385 C1386 1.446 . S
C1385 C1415 1.391 . S
C1386 C1385 1.446 . S
C1386 C1387 1.339 . S
C1386 H1421 0.949 . S
C1387 C1386 1.339 . S
C1387 C1388 1.439 . S
C1387 H1422 0.950 . S
C1388 N1384 1.383 . S
C1388 C1387 1.439 . S
C1388 C1417 1.392 . S
N1389 Co1383 2.008 . S
N1389 C1390 1.376 . S
N1389 C1393 1.374 . S
C1390 N1389 1.376 . S
C1390 C1391 1.443 . S
C1390 C1417 1.389 . S
C1391 C1390 1.443 . S
C1391 C1392 1.340 . S
C1391 H1423 0.951 . S
C1392 C1391 1.340 . S
C1392 C1393 1.439 . S
C1392 H1424 0.950 . S
C1393 N1389 1.374 . S
C1393 C1392 1.439 . S
C1393 C1418 1.395 . S
N1394 Co1383 1.995 . S
N1394 C1395 1.376 . S
N1394 C1398 1.383 . S
C1395 N1394 1.376 . S
C1395 C1396 1.446 . S
C1395 C1418 1.391 . S
C1396 C1395 1.446 . S
C1396 C1397 1.339 . S
C1396 H1425 0.949 . S
C1397 C1396 1.339 . S
C1397 C1398 1.439 . S
C1397 H1426 0.950 . S
C1398 N1394 1.383 . S
C1398 C1397 1.439 . S
C1398 C1416 1.392 . S
N1399 Co1383 2.282 . S
N1399 C1402 1.332 . S
N1399 C1404 1.332 . S
C1400 C1401 1.386 . S
C1400 C1403 1.388 . S
C1401 C1400 1.386 . S
C1401 C1402 1.382 . S
C1401 H1427 0.950 . S
C1402 N1399 1.332 . S
C1402 C1401 1.382 . S
C1402 H1413 0.952 . S
C1403 C1400 1.388 . S
C1403 C1404 1.382 . S
C1403 H1428 0.950 . S
C1404 N1399 1.332 . S
C1404 C1403 1.382 . S
C1404 H1414 0.948 . S
N1405 Co1383 2.282 . S
N1405 C1409 1.332 . S
N1405 C1410 1.332 . S
C1406 C1407 1.388 . S
C1406 C1410 1.382 . S
C1406 H1429 0.950 . S
C1407 C1406 1.388 . S
C1407 C1408 1.386 . S
C1408 C1407 1.386 . S
C1408 C1409 1.382 . S
C1408 H1430 0.950 . S
C1409 N1405 1.332 . S
C1409 C1408 1.382 . S
C1409 H1411 0.952 . S
C1410 N1405 1.332 . S
C1410 C1406 1.382 . S
C1410 H1412 0.948 . S
H1411 C1409 0.952 . S
H1412 C1410 0.948 . S
H1413 C1402 0.952 . S
H1414 C1404 0.948 . S
C1415 C1381 1.395 . S
C1415 C1385 1.391 . S
C1416 C1378 1.389 . S
C1416 C1398 1.392 . S
C1417 C1388 1.392 . S
C1417 C1390 1.389 . S
C1418 C1393 1.395 . S
C1418 C1395 1.391 . S
H1419 C1379 0.951 . S
H1420 C1380 0.950 . S
H1421 C1386 0.949 . S
H1422 C1387 0.950 . S
H1423 C1391 0.951 . S
H1424 C1392 0.950 . S
H1425 C1396 0.949 . S
H1426 C1397 0.950 . S
H1427 C1401 0.950 . S
H1428 C1403 0.950 . S
H1429 C1406 0.950 . S
H1430 C1408 0.950 . S
C1431 C1432 1.443 . S
C1431 N1435 1.376 . S
C1431 C1469 1.389 . S
C1432 C1431 1.443 . S
C1432 C1433 1.340 . S
C1432 H1472 0.951 . S
C1433 C1432 1.340 . S
C1433 C1434 1.439 . S
C1433 H1473 0.950 . S
C1434 C1433 1.439 . S
C1434 N1435 1.374 . S
C1434 C1468 1.395 . S
N1435 C1431 1.376 . S
N1435 C1434 1.374 . S
N1435 Co1436 2.008 . S
Co1436 N1435 2.008 . S
Co1436 N1437 1.995 . S
Co1436 N1442 2.008 . S
Co1436 N1447 1.995 . S
Co1436 N1452 2.282 . S
Co1436 N1458 2.282 . S
N1437 Co1436 1.995 . S
N1437 C1438 1.376 . S
N1437 C1441 1.383 . S
C1438 N1437 1.376 . S
C1438 C1439 1.446 . S
C1438 C1468 1.391 . S
C1439 C1438 1.446 . S
C1439 C1440 1.339 . S
C1439 H1474 0.949 . S
C1440 C1439 1.339 . S
C1440 C1441 1.439 . S
C1440 H1475 0.950 . S
C1441 N1437 1.383 . S
C1441 C1440 1.439 . S
C1441 C1470 1.392 . S
N1442 Co1436 2.008 . S
N1442 C1443 1.376 . S
N1442 C1446 1.374 . S
C1443 N1442 1.376 . S
C1443 C1444 1.443 . S
C1443 C1470 1.389 . S
C1444 C1443 1.443 . S
C1444 C1445 1.340 . S
C1444 H1476 0.951 . S
C1445 C1444 1.340 . S
C1445 C1446 1.439 . S
C1445 H1477 0.950 . S
C1446 N1442 1.374 . S
C1446 C1445 1.439 . S
C1446 C1471 1.395 . S
N1447 Co1436 1.995 . S
N1447 C1448 1.376 . S
N1447 C1451 1.383 . S
C1448 N1447 1.376 . S
C1448 C1449 1.446 . S
C1448 C1471 1.391 . S
C1449 C1448 1.446 . S
C1449 C1450 1.339 . S
C1449 H1478 0.949 . S
C1450 C1449 1.339 . S
C1450 C1451 1.439 . S
C1450 H1479 0.950 . S
C1451 N1447 1.383 . S
C1451 C1450 1.439 . S
C1451 C1469 1.392 . S
N1452 Co1436 2.282 . S
N1452 C1455 1.332 . S
N1452 C1457 1.332 . S
C1453 C1454 1.386 . S
C1453 C1456 1.388 . S
C1454 C1453 1.386 . S
C1454 C1455 1.382 . S
C1454 H1480 0.950 . S
C1455 N1452 1.332 . S
C1455 C1454 1.382 . S
C1455 H1466 0.952 . S
C1456 C1453 1.388 . S
C1456 C1457 1.382 . S
C1456 H1481 0.950 . S
C1457 N1452 1.332 . S
C1457 C1456 1.382 . S
C1457 H1467 0.948 . S
N1458 Co1436 2.282 . S
N1458 C1462 1.332 . S
N1458 C1463 1.332 . S
C1459 C1460 1.388 . S
C1459 C1463 1.382 . S
C1459 H1482 0.950 . S
C1460 C1459 1.388 . S
C1460 C1461 1.386 . S
C1461 C1460 1.386 . S
C1461 C1462 1.382 . S
C1461 H1483 0.950 . S
C1462 N1458 1.332 . S
C1462 C1461 1.382 . S
C1462 H1464 0.952 . S
C1463 N1458 1.332 . S
C1463 C1459 1.382 . S
C1463 H1465 0.948 . S
H1464 C1462 0.952 . S
H1465 C1463 0.948 . S
H1466 C1455 0.952 . S
H1467 C1457 0.948 . S
C1468 C1434 1.395 . S
C1468 C1438 1.391 . S
C1469 C1431 1.389 . S
C1469 C1451 1.392 . S
C1470 C1441 1.392 . S
C1470 C1443 1.389 . S
C1471 C1446 1.395 . S
C1471 C1448 1.391 . S
H1472 C1432 0.951 . S
H1473 C1433 0.950 . S
H1474 C1439 0.949 . S
H1475 C1440 0.950 . S
H1476 C1444 0.951 . S
H1477 C1445 0.950 . S
H1478 C1449 0.949 . S
H1479 C1450 0.950 . S
H1480 C1454 0.950 . S
H1481 C1456 0.950 . S
H1482 C1459 0.950 . S
H1483 C1461 0.950 . S
C1484 C1485 1.443 . S
C1484 N1488 1.376 . S
C1484 C1522 1.389 . S
C1485 C1484 1.443 . S
C1485 C1486 1.340 . S
C1485 H1525 0.951 . S
C1486 C1485 1.340 . S
C1486 C1487 1.439 . S
C1486 H1526 0.950 . S
C1487 C1486 1.439 . S
C1487 N1488 1.374 . S
C1487 C1521 1.395 . S
N1488 C1484 1.376 . S
N1488 C1487 1.374 . S
N1488 Co1489 2.008 . S
Co1489 N1488 2.008 . S
Co1489 N1490 1.995 . S
Co1489 N1495 2.008 . S
Co1489 N1500 1.995 . S
Co1489 N1505 2.282 . S
Co1489 N1511 2.282 . S
N1490 Co1489 1.995 . S
N1490 C1491 1.376 . S
N1490 C1494 1.383 . S
C1491 N1490 1.376 . S
C1491 C1492 1.446 . S
C1491 C1521 1.391 . S
C1492 C1491 1.446 . S
C1492 C1493 1.339 . S
C1492 H1527 0.949 . S
C1493 C1492 1.339 . S
C1493 C1494 1.439 . S
C1493 H1528 0.950 . S
C1494 N1490 1.383 . S
C1494 C1493 1.439 . S
C1494 C1523 1.392 . S
N1495 Co1489 2.008 . S
N1495 C1496 1.376 . S
N1495 C1499 1.374 . S
C1496 N1495 1.376 . S
C1496 C1497 1.443 . S
C1496 C1523 1.389 . S
C1497 C1496 1.443 . S
C1497 C1498 1.340 . S
C1497 H1529 0.951 . S
C1498 C1497 1.340 . S
C1498 C1499 1.439 . S
C1498 H1530 0.950 . S
C1499 N1495 1.374 . S
C1499 C1498 1.439 . S
C1499 C1524 1.395 . S
N1500 Co1489 1.995 . S
N1500 C1501 1.376 . S
N1500 C1504 1.383 . S
C1501 N1500 1.376 . S
C1501 C1502 1.446 . S
C1501 C1524 1.391 . S
C1502 C1501 1.446 . S
C1502 C1503 1.339 . S
C1502 H1531 0.949 . S
C1503 C1502 1.339 . S
C1503 C1504 1.439 . S
C1503 H1532 0.950 . S
C1504 N1500 1.383 . S
C1504 C1503 1.439 . S
C1504 C1522 1.392 . S
N1505 Co1489 2.282 . S
N1505 C1508 1.332 . S
N1505 C1510 1.332 . S
C1506 C1507 1.386 . S
C1506 C1509 1.388 . S
C1507 C1506 1.386 . S
C1507 C1508 1.382 . S
C1507 H1533 0.950 . S
C1508 N1505 1.332 . S
C1508 C1507 1.382 . S
C1508 H1519 0.952 . S
C1509 C1506 1.388 . S
C1509 C1510 1.382 . S
C1509 H1534 0.950 . S
C1510 N1505 1.332 . S
C1510 C1509 1.382 . S
C1510 H1520 0.948 . S
N1511 Co1489 2.282 . S
N1511 C1515 1.332 . S
N1511 C1516 1.332 . S
C1512 C1513 1.388 . S
C1512 C1516 1.382 . S
C1512 H1535 0.950 . S
C1513 C1512 1.388 . S
C1513 C1514 1.386 . S
C1514 C1513 1.386 . S
C1514 C1515 1.382 . S
C1514 H1536 0.950 . S
C1515 N1511 1.332 . S
C1515 C1514 1.382 . S
C1515 H1517 0.952 . S
C1516 N1511 1.332 . S
C1516 C1512 1.382 . S
C1516 H1518 0.948 . S
H1517 C1515 0.952 . S
H1518 C1516 0.948 . S
H1519 C1508 0.952 . S
H1520 C1510 0.948 . S
C1521 C1487 1.395 . S
C1521 C1491 1.391 . S
C1522 C1484 1.389 . S
C1522 C1504 1.392 . S
C1523 C1494 1.392 . S
C1523 C1496 1.389 . S
C1524 C1499 1.395 . S
C1524 C1501 1.391 . S
H1525 C1485 0.951 . S
H1526 C1486 0.950 . S
H1527 C1492 0.949 . S
H1528 C1493 0.950 . S
H1529 C1497 0.951 . S
H1530 C1498 0.950 . S
H1531 C1502 0.949 . S
H1532 C1503 0.950 . S
H1533 C1507 0.950 . S
H1534 C1509 0.950 . S
H1535 C1512 0.950 . S
H1536 C1514 0.950 . S
C1537 C1538 1.443 . S
C1537 N1541 1.376 . S
C1537 C1575 1.389 . S
C1538 C1537 1.443 . S
C1538 C1539 1.340 . S
C1538 H1578 0.951 . S
C1539 C1538 1.340 . S
C1539 C1540 1.439 . S
C1539 H1579 0.950 . S
C1540 C1539 1.439 . S
C1540 N1541 1.374 . S
C1540 C1574 1.395 . S
N1541 C1537 1.376 . S
N1541 C1540 1.374 . S
N1541 Co1542 2.008 . S
Co1542 N1541 2.008 . S
Co1542 N1543 1.995 . S
Co1542 N1548 2.008 . S
Co1542 N1553 1.995 . S
Co1542 N1558 2.282 . S
Co1542 N1564 2.282 . S
N1543 Co1542 1.995 . S
N1543 C1544 1.376 . S
N1543 C1547 1.383 . S
C1544 N1543 1.376 . S
C1544 C1545 1.446 . S
C1544 C1574 1.391 . S
C1545 C1544 1.446 . S
C1545 C1546 1.339 . S
C1545 H1580 0.949 . S
C1546 C1545 1.339 . S
C1546 C1547 1.439 . S
C1546 H1581 0.950 . S
C1547 N1543 1.383 . S
C1547 C1546 1.439 . S
C1547 C1576 1.392 . S
N1548 Co1542 2.008 . S
N1548 C1549 1.376 . S
N1548 C1552 1.374 . S
C1549 N1548 1.376 . S
C1549 C1550 1.443 . S
C1549 C1576 1.389 . S
C1550 C1549 1.443 . S
C1550 C1551 1.340 . S
C1550 H1582 0.951 . S
C1551 C1550 1.340 . S
C1551 C1552 1.439 . S
C1551 H1583 0.950 . S
C1552 N1548 1.374 . S
C1552 C1551 1.439 . S
C1552 C1577 1.395 . S
N1553 Co1542 1.995 . S
N1553 C1554 1.376 . S
N1553 C1557 1.383 . S
C1554 N1553 1.376 . S
C1554 C1555 1.446 . S
C1554 C1577 1.391 . S
C1555 C1554 1.446 . S
C1555 C1556 1.339 . S
C1555 H1584 0.949 . S
C1556 C1555 1.339 . S
C1556 C1557 1.439 . S
C1556 H1585 0.950 . S
C1557 N1553 1.383 . S
C1557 C1556 1.439 . S
C1557 C1575 1.392 . S
N1558 Co1542 2.282 . S
N1558 C1561 1.332 . S
N1558 C1563 1.332 . S
C1559 C1560 1.386 . S
C1559 C1562 1.388 . S
C1560 C1559 1.386 . S
C1560 C1561 1.382 . S
C1560 H1586 0.950 . S
C1561 N1558 1.332 . S
C1561 C1560 1.382 . S
C1561 H1572 0.952 . S
C1562 C1559 1.388 . S
C1562 C1563 1.382 . S
C1562 H1587 0.950 . S
C1563 N1558 1.332 . S
C1563 C1562 1.382 . S
C1563 H1573 0.948 . S
N1564 Co1542 2.282 . S
N1564 C1568 1.332 . S
N1564 C1569 1.332 . S
C1565 C1566 1.388 . S
C1565 C1569 1.382 . S
C1565 H1588 0.950 . S
C1566 C1565 1.388 . S
C1566 C1567 1.386 . S
C1567 C1566 1.386 . S
C1567 C1568 1.382 . S
C1567 H1589 0.950 . S
C1568 N1564 1.332 . S
C1568 C1567 1.382 . S
C1568 H1570 0.952 . S
C1569 N1564 1.332 . S
C1569 C1565 1.382 . S
C1569 H1571 0.948 . S
H1570 C1568 0.952 . S
H1571 C1569 0.948 . S
H1572 C1561 0.952 . S
H1573 C1563 0.948 . S
C1574 C1540 1.395 . S
C1574 C1544 1.391 . S
C1575 C1537 1.389 . S
C1575 C1557 1.392 . S
C1576 C1547 1.392 . S
C1576 C1549 1.389 . S
C1577 C1552 1.395 . S
C1577 C1554 1.391 . S
H1578 C1538 0.951 . S
H1579 C1539 0.950 . S
H1580 C1545 0.949 . S
H1581 C1546 0.950 . S
H1582 C1550 0.951 . S
H1583 C1551 0.950 . S
H1584 C1555 0.949 . S
H1585 C1556 0.950 . S
H1586 C1560 0.950 . S
H1587 C1562 0.950 . S
H1588 C1565 0.950 . S
H1589 C1567 0.950 . S
C1590 C1591 1.443 . S
C1590 N1594 1.376 . S
C1590 C1628 1.389 . S
C1591 C1590 1.443 . S
C1591 C1592 1.340 . S
C1591 H1631 0.951 . S
C1592 C1591 1.340 . S
C1592 C1593 1.439 . S
C1592 H1632 0.950 . S
C1593 C1592 1.439 . S
C1593 N1594 1.374 . S
C1593 C1627 1.395 . S
N1594 C1590 1.376 . S
N1594 C1593 1.374 . S
N1594 Co1595 2.008 . S
Co1595 N1594 2.008 . S
Co1595 N1596 1.995 . S
Co1595 N1601 2.008 . S
Co1595 N1606 1.995 . S
Co1595 N1611 2.282 . S
Co1595 N1617 2.282 . S
N1596 Co1595 1.995 . S
N1596 C1597 1.376 . S
N1596 C1600 1.383 . S
C1597 N1596 1.376 . S
C1597 C1598 1.446 . S
C1597 C1627 1.391 . S
C1598 C1597 1.446 . S
C1598 C1599 1.339 . S
C1598 H1633 0.949 . S
C1599 C1598 1.339 . S
C1599 C1600 1.439 . S
C1599 H1634 0.950 . S
C1600 N1596 1.383 . S
C1600 C1599 1.439 . S
C1600 C1629 1.392 . S
N1601 Co1595 2.008 . S
N1601 C1602 1.376 . S
N1601 C1605 1.374 . S
C1602 N1601 1.376 . S
C1602 C1603 1.443 . S
C1602 C1629 1.389 . S
C1603 C1602 1.443 . S
C1603 C1604 1.340 . S
C1603 H1635 0.951 . S
C1604 C1603 1.340 . S
C1604 C1605 1.439 . S
C1604 H1636 0.950 . S
C1605 N1601 1.374 . S
C1605 C1604 1.439 . S
C1605 C1630 1.395 . S
N1606 Co1595 1.995 . S
N1606 C1607 1.376 . S
N1606 C1610 1.383 . S
C1607 N1606 1.376 . S
C1607 C1608 1.446 . S
C1607 C1630 1.391 . S
C1608 C1607 1.446 . S
C1608 C1609 1.339 . S
C1608 H1637 0.949 . S
C1609 C1608 1.339 . S
C1609 C1610 1.439 . S
C1609 H1638 0.950 . S
C1610 N1606 1.383 . S
C1610 C1609 1.439 . S
C1610 C1628 1.392 . S
N1611 Co1595 2.282 . S
N1611 C1614 1.332 . S
N1611 C1616 1.332 . S
C1612 C1613 1.386 . S
C1612 C1615 1.388 . S
C1613 C1612 1.386 . S
C1613 C1614 1.382 . S
C1613 H1639 0.950 . S
C1614 N1611 1.332 . S
C1614 C1613 1.382 . S
C1614 H1625 0.952 . S
C1615 C1612 1.388 . S
C1615 C1616 1.382 . S
C1615 H1640 0.950 . S
C1616 N1611 1.332 . S
C1616 C1615 1.382 . S
C1616 H1626 0.948 . S
N1617 Co1595 2.282 . S
N1617 C1621 1.332 . S
N1617 C1622 1.332 . S
C1618 C1619 1.388 . S
C1618 C1622 1.382 . S
C1618 H1641 0.950 . S
C1619 C1618 1.388 . S
C1619 C1620 1.386 . S
C1620 C1619 1.386 . S
C1620 C1621 1.382 . S
C1620 H1642 0.950 . S
C1621 N1617 1.332 . S
C1621 C1620 1.382 . S
C1621 H1623 0.952 . S
C1622 N1617 1.332 . S
C1622 C1618 1.382 . S
C1622 H1624 0.948 . S
H1623 C1621 0.952 . S
H1624 C1622 0.948 . S
H1625 C1614 0.952 . S
H1626 C1616 0.948 . S
C1627 C1593 1.395 . S
C1627 C1597 1.391 . S
C1628 C1590 1.389 . S
C1628 C1610 1.392 . S
C1629 C1600 1.392 . S
C1629 C1602 1.389 . S
C1630 C1605 1.395 . S
C1630 C1607 1.391 . S
H1631 C1591 0.951 . S
H1632 C1592 0.950 . S
H1633 C1598 0.949 . S
H1634 C1599 0.950 . S
H1635 C1603 0.951 . S
H1636 C1604 0.950 . S
H1637 C1608 0.949 . S
H1638 C1609 0.950 . S
H1639 C1613 0.950 . S
H1640 C1615 0.950 . S
H1641 C1618 0.950 . S
H1642 C1620 0.950 . S
C1643 C1644 1.443 . S
C1643 N1647 1.376 . S
C1643 C1681 1.389 . S
C1644 C1643 1.443 . S
C1644 C1645 1.340 . S
C1644 H1684 0.951 . S
C1645 C1644 1.340 . S
C1645 C1646 1.439 . S
C1645 H1685 0.950 . S
C1646 C1645 1.439 . S
C1646 N1647 1.374 . S
C1646 C1680 1.395 . S
N1647 C1643 1.376 . S
N1647 C1646 1.374 . S
N1647 Co1648 2.008 . S
Co1648 N1647 2.008 . S
Co1648 N1649 1.995 . S
Co1648 N1654 2.008 . S
Co1648 N1659 1.995 . S
Co1648 N1664 2.282 . S
Co1648 N1670 2.282 . S
N1649 Co1648 1.995 . S
N1649 C1650 1.376 . S
N1649 C1653 1.383 . S
C1650 N1649 1.376 . S
C1650 C1651 1.446 . S
C1650 C1680 1.391 . S
C1651 C1650 1.446 . S
C1651 C1652 1.339 . S
C1651 H1686 0.949 . S
C1652 C1651 1.339 . S
C1652 C1653 1.439 . S
C1652 H1687 0.950 . S
C1653 N1649 1.383 . S
C1653 C1652 1.439 . S
C1653 C1682 1.392 . S
N1654 Co1648 2.008 . S
N1654 C1655 1.376 . S
N1654 C1658 1.374 . S
C1655 N1654 1.376 . S
C1655 C1656 1.443 . S
C1655 C1682 1.389 . S
C1656 C1655 1.443 . S
C1656 C1657 1.340 . S
C1656 H1688 0.951 . S
C1657 C1656 1.340 . S
C1657 C1658 1.439 . S
C1657 H1689 0.950 . S
C1658 N1654 1.374 . S
C1658 C1657 1.439 . S
C1658 C1683 1.395 . S
N1659 Co1648 1.995 . S
N1659 C1660 1.376 . S
N1659 C1663 1.383 . S
C1660 N1659 1.376 . S
C1660 C1661 1.446 . S
C1660 C1683 1.391 . S
C1661 C1660 1.446 . S
C1661 C1662 1.339 . S
C1661 H1690 0.949 . S
C1662 C1661 1.339 . S
C1662 C1663 1.439 . S
C1662 H1691 0.950 . S
C1663 N1659 1.383 . S
C1663 C1662 1.439 . S
C1663 C1681 1.392 . S
N1664 Co1648 2.282 . S
N1664 C1667 1.332 . S
N1664 C1669 1.332 . S
C1665 C1666 1.386 . S
C1665 C1668 1.388 . S
C1666 C1665 1.386 . S
C1666 C1667 1.382 . S
C1666 H1692 0.950 . S
C1667 N1664 1.332 . S
C1667 C1666 1.382 . S
C1667 H1678 0.952 . S
C1668 C1665 1.388 . S
C1668 C1669 1.382 . S
C1668 H1693 0.950 . S
C1669 N1664 1.332 . S
C1669 C1668 1.382 . S
C1669 H1679 0.948 . S
N1670 Co1648 2.282 . S
N1670 C1674 1.332 . S
N1670 C1675 1.332 . S
C1671 C1672 1.388 . S
C1671 C1675 1.382 . S
C1671 H1694 0.950 . S
C1672 C1671 1.388 . S
C1672 C1673 1.386 . S
C1673 C1672 1.386 . S
C1673 C1674 1.382 . S
C1673 H1695 0.950 . S
C1674 N1670 1.332 . S
C1674 C1673 1.382 . S
C1674 H1676 0.952 . S
C1675 N1670 1.332 . S
C1675 C1671 1.382 . S
C1675 H1677 0.948 . S
H1676 C1674 0.952 . S
H1677 C1675 0.948 . S
H1678 C1667 0.952 . S
H1679 C1669 0.948 . S
C1680 C1646 1.395 . S
C1680 C1650 1.391 . S
C1681 C1643 1.389 . S
C1681 C1663 1.392 . S
C1682 C1653 1.392 . S
C1682 C1655 1.389 . S
C1683 C1658 1.395 . S
C1683 C1660 1.391 . S
H1684 C1644 0.951 . S
H1685 C1645 0.950 . S
H1686 C1651 0.949 . S
H1687 C1652 0.950 . S
H1688 C1656 0.951 . S
H1689 C1657 0.950 . S
H1690 C1661 0.949 . S
H1691 C1662 0.950 . S
H1692 C1666 0.950 . S
H1693 C1668 0.950 . S
H1694 C1671 0.950 . S
H1695 C1673 0.950 . S
H1696 C1702 0.930 . S
H1697 C1706 0.930 . S
H1698 C1711 0.929 . S
H1699 C1709 0.929 . S
H1700 C1704 0.929 . S
H1701 C1710 0.929 . S
C1702 H1696 0.930 . S
C1702 C1703 1.367 . S
C1702 C1710 1.378 . S
C1703 C1702 1.367 . S
C1703 C1711 1.433 . S
C1704 H1700 0.929 . S
C1704 C1706 1.378 . S
C1704 C1708 1.350 . S
C1705 C1708 1.463 . S
C1705 C1710 1.350 . S
C1705 N1713 1.427 . S
C1706 H1697 0.930 . S
C1706 C1704 1.378 . S
C1706 C1707 1.367 . S
C1707 C1706 1.367 . S
C1707 C1709 1.433 . S
C1708 C1704 1.350 . S
C1708 C1705 1.463 . S
C1708 N1712 1.427 . S
C1709 H1699 0.929 . S
C1709 C1707 1.433 . S
C1709 N1712 1.384 . S
C1710 H1701 0.929 . S
C1710 C1702 1.378 . S
C1710 C1705 1.350 . S
C1711 H1698 0.929 . S
C1711 C1703 1.433 . S
C1711 N1713 1.384 . S
N1712 C1708 1.427 . S
N1712 C1709 1.384 . S
N1713 C1705 1.427 . S
N1713 C1711 1.384 . S
H1714 C1720 0.930 . S
H1715 C1724 0.930 . S
H1716 C1729 0.929 . S
H1717 C1727 0.929 . S
H1718 C1722 0.929 . S
H1719 C1728 0.929 . S
C1720 H1714 0.930 . S
C1720 C1721 1.367 . S
C1720 C1728 1.378 1_455 S
C1721 C1720 1.367 . S
C1721 C1729 1.433 . S
C1722 H1718 0.929 . S
C1722 C1724 1.378 . S
C1722 C1726 1.350 . S
C1723 C1726 1.463 . S
C1723 C1728 1.350 . S
C1723 N1731 1.427 . S
C1724 H1715 0.930 . S
C1724 C1722 1.378 . S
C1724 C1725 1.367 . S
C1725 C1724 1.367 . S
C1725 C1727 1.433 . S
C1726 C1722 1.350 . S
C1726 C1723 1.463 . S
C1726 N1730 1.427 . S
C1727 H1717 0.929 . S
C1727 C1725 1.433 . S
C1727 N1730 1.384 . S
C1728 H1719 0.929 . S
C1728 C1720 1.378 1_655 S
C1728 C1723 1.350 . S
C1729 H1716 0.929 . S
C1729 C1721 1.433 . S
C1729 N1731 1.384 1_455 S
N1730 C1726 1.427 . S
N1730 C1727 1.384 . S
N1731 C1723 1.427 . S
N1731 C1729 1.384 1_655 S
H1732 C1738 0.930 . S
H1733 C1742 0.930 . S
H1734 C1747 0.929 . S
H1735 C1745 0.929 . S
H1736 C1740 0.929 . S
H1737 C1746 0.929 . S
C1738 H1732 0.930 . S
C1738 C1739 1.367 . S
C1738 C1746 1.378 . S
C1739 C1738 1.367 . S
C1739 C1747 1.433 . S
C1740 H1736 0.929 . S
C1740 C1742 1.378 . S
C1740 C1744 1.350 . S
C1741 C1744 1.463 . S
C1741 C1746 1.350 . S
C1741 N1749 1.427 . S
C1742 H1733 0.930 . S
C1742 C1740 1.378 . S
C1742 C1743 1.367 . S
C1743 C1742 1.367 . S
C1743 C1745 1.433 . S
C1744 C1740 1.350 . S
C1744 C1741 1.463 . S
C1744 N1748 1.427 . S
C1745 H1735 0.929 . S
C1745 C1743 1.433 . S
C1745 N1748 1.384 . S
C1746 H1737 0.929 . S
C1746 C1738 1.378 . S
C1746 C1741 1.350 . S
C1747 H1734 0.929 . S
C1747 C1739 1.433 . S
C1747 N1749 1.384 . S
N1748 C1744 1.427 . S
N1748 C1745 1.384 . S
N1749 C1741 1.427 . S
N1749 C1747 1.384 . S
H1750 C1756 0.930 . S
H1751 C1760 0.930 . S
H1752 C1765 0.929 . S
H1753 C1763 0.929 . S
H1754 C1758 0.929 . S
H1755 C1764 0.929 . S
C1756 H1750 0.930 . S
C1756 C1757 1.367 . S
C1756 C1764 1.378 . S
C1757 C1756 1.367 . S
C1757 C1765 1.433 . S
C1758 H1754 0.929 . S
C1758 C1760 1.378 . S
C1758 C1762 1.350 . S
C1759 C1762 1.463 . S
C1759 C1764 1.350 . S
C1759 N1767 1.427 . S
C1760 H1751 0.930 . S
C1760 C1758 1.378 . S
C1760 C1761 1.367 . S
C1761 C1760 1.367 . S
C1761 C1763 1.433 . S
C1762 C1758 1.350 . S
C1762 C1759 1.463 . S
C1762 N1766 1.427 . S
C1763 H1753 0.929 . S
C1763 C1761 1.433 . S
C1763 N1766 1.384 . S
C1764 H1755 0.929 . S
C1764 C1756 1.378 . S
C1764 C1759 1.350 . S
C1765 H1752 0.929 . S
C1765 C1757 1.433 . S
C1765 N1767 1.384 . S
N1766 C1762 1.427 . S
N1766 C1763 1.384 . S
N1767 C1759 1.427 . S
N1767 C1765 1.384 . S
H1768 C1774 0.930 . S
H1769 C1778 0.930 . S
H1770 C1783 0.929 . S
H1771 C1781 0.929 . S
H1772 C1776 0.929 . S
H1773 C1782 0.929 . S
C1774 H1768 0.930 . S
C1774 C1775 1.367 . S
C1774 C1782 1.378 . S
C1775 C1774 1.367 . S
C1775 C1783 1.433 . S
C1776 H1772 0.929 . S
C1776 C1778 1.378 . S
C1776 C1780 1.350 . S
C1777 C1780 1.463 . S
C1777 C1782 1.350 . S
C1777 N1785 1.427 . S
C1778 H1769 0.930 . S
C1778 C1776 1.378 . S
C1778 C1779 1.367 . S
C1779 C1778 1.367 . S
C1779 C1781 1.433 . S
C1780 C1776 1.350 . S
C1780 C1777 1.463 . S
C1780 N1784 1.427 . S
C1781 H1771 0.929 . S
C1781 C1779 1.433 . S
C1781 N1784 1.384 . S
C1782 H1773 0.929 . S
C1782 C1774 1.378 . S
C1782 C1777 1.350 . S
C1783 H1770 0.929 . S
C1783 C1775 1.433 . S
C1783 N1785 1.384 . S
N1784 C1780 1.427 . S
N1784 C1781 1.384 . S
N1785 C1777 1.427 . S
N1785 C1783 1.384 . S
H1786 C1792 0.930 . S
H1787 C1796 0.930 . S
H1788 C1801 0.929 . S
H1789 C1799 0.929 . S
H1790 C1794 0.929 . S
H1791 C1800 0.929 . S
C1792 H1786 0.930 . S
C1792 C1793 1.367 . S
C1792 C1800 1.378 . S
C1793 C1792 1.367 . S
C1793 C1801 1.433 . S
C1794 H1790 0.929 . S
C1794 C1796 1.378 . S
C1794 C1798 1.350 . S
C1795 C1798 1.463 . S
C1795 C1800 1.350 . S
C1795 N1803 1.427 . S
C1796 H1787 0.930 . S
C1796 C1794 1.378 . S
C1796 C1797 1.367 . S
C1797 C1796 1.367 . S
C1797 C1799 1.433 . S
C1798 C1794 1.350 . S
C1798 C1795 1.463 . S
C1798 N1802 1.427 . S
C1799 H1789 0.929 . S
C1799 C1797 1.433 . S
C1799 N1802 1.384 . S
C1800 H1791 0.929 . S
C1800 C1792 1.378 . S
C1800 C1795 1.350 . S
C1801 H1788 0.929 . S
C1801 C1793 1.433 . S
C1801 N1803 1.384 . S
N1802 C1798 1.427 . S
N1802 C1799 1.384 . S
N1803 C1795 1.427 . S
N1803 C1801 1.384 . S
H1804 C1810 0.930 . S
H1805 C1814 0.930 . S
H1806 C1819 0.929 . S
H1807 C1817 0.929 . S
H1808 C1812 0.929 . S
H1809 C1818 0.929 . S
C1810 H1804 0.930 . S
C1810 C1811 1.367 . S
C1810 C1818 1.378 . S
C1811 C1810 1.367 . S
C1811 C1819 1.433 . S
C1812 H1808 0.929 . S
C1812 C1814 1.378 . S
C1812 C1816 1.350 . S
C1813 C1816 1.463 . S
C1813 C1818 1.350 . S
C1813 N1821 1.427 . S
C1814 H1805 0.930 . S
C1814 C1812 1.378 . S
C1814 C1815 1.367 . S
C1815 C1814 1.367 . S
C1815 C1817 1.433 . S
C1816 C1812 1.350 . S
C1816 C1813 1.463 . S
C1816 N1820 1.427 . S
C1817 H1807 0.929 . S
C1817 C1815 1.433 . S
C1817 N1820 1.384 . S
C1818 H1809 0.929 . S
C1818 C1810 1.378 . S
C1818 C1813 1.350 . S
C1819 H1806 0.929 . S
C1819 C1811 1.433 . S
C1819 N1821 1.384 . S
N1820 C1816 1.427 . S
N1820 C1817 1.384 . S
N1821 C1813 1.427 . S
N1821 C1819 1.384 . S
H1822 C1828 0.930 . S
H1823 C1832 0.930 . S
H1824 C1837 0.929 . S
H1825 C1835 0.929 . S
H1826 C1830 0.929 . S
H1827 C1836 0.929 . S
C1828 H1822 0.930 . S
C1828 C1829 1.367 1_655 S
C1828 C1836 1.378 . S
C1829 C1828 1.367 1_455 S
C1829 C1837 1.433 . S
C1830 H1826 0.929 . S
C1830 C1832 1.378 . S
C1830 C1834 1.350 . S
C1831 C1834 1.463 . S
C1831 C1836 1.350 . S
C1831 N1839 1.427 . S
C1832 H1823 0.930 . S
C1832 C1830 1.378 . S
C1832 C1833 1.367 . S
C1833 C1832 1.367 . S
C1833 C1835 1.433 . S
C1834 C1830 1.350 . S
C1834 C1831 1.463 . S
C1834 N1838 1.427 . S
C1835 H1825 0.929 . S
C1835 C1833 1.433 . S
C1835 N1838 1.384 . S
C1836 H1827 0.929 . S
C1836 C1828 1.378 . S
C1836 C1831 1.350 . S
C1837 H1824 0.929 . S
C1837 C1829 1.433 . S
C1837 N1839 1.384 1_455 S
N1838 C1834 1.427 . S
N1838 C1835 1.384 . S
N1839 C1831 1.427 . S
N1839 C1837 1.384 1_655 S
H1840 C1846 0.930 . S
H1841 C1850 0.930 . S
H1842 C1855 0.929 . S
H1843 C1853 0.929 . S
H1844 C1848 0.929 . S
H1845 C1854 0.929 . S
C1846 H1840 0.930 . S
C1846 C1847 1.367 . S
C1846 C1854 1.378 . S
C1847 C1846 1.367 . S
C1847 C1855 1.433 . S
C1848 H1844 0.929 . S
C1848 C1850 1.378 . S
C1848 C1852 1.350 . S
C1849 C1852 1.463 . S
C1849 C1854 1.350 . S
C1849 N1857 1.427 . S
C1850 H1841 0.930 . S
C1850 C1848 1.378 . S
C1850 C1851 1.367 . S
C1851 C1850 1.367 . S
C1851 C1853 1.433 . S
C1852 C1848 1.350 . S
C1852 C1849 1.463 . S
C1852 N1856 1.427 . S
C1853 H1843 0.929 . S
C1853 C1851 1.433 . S
C1853 N1856 1.384 . S
C1854 H1845 0.929 . S
C1854 C1846 1.378 . S
C1854 C1849 1.350 . S
C1855 H1842 0.929 . S
C1855 C1847 1.433 . S
C1855 N1857 1.384 . S
N1856 C1852 1.427 . S
N1856 C1853 1.384 . S
N1857 C1849 1.427 . S
N1857 C1855 1.384 . S
H1858 C1864 0.930 . S
H1859 C1868 0.930 . S
H1860 C1873 0.929 . S
H1861 C1871 0.930 1_655 S
H1862 C1866 0.929 . S
H1863 C1872 0.929 . S
C1864 H1858 0.930 . S
C1864 C1865 1.367 . S
C1864 C1872 1.378 . S
C1865 C1864 1.367 . S
C1865 C1873 1.433 . S
C1866 H1862 0.929 . S
C1866 C1868 1.378 . S
C1866 C1870 1.350 . S
C1867 C1870 1.463 . S
C1867 C1872 1.350 . S
C1867 N1875 1.427 . S
C1868 H1859 0.930 . S
C1868 C1866 1.378 . S
C1868 C1869 1.367 . S
C1869 C1868 1.367 . S
C1869 C1871 1.433 . S
C1870 C1866 1.350 . S
C1870 C1867 1.463 . S
C1870 N1874 1.427 . S
C1871 H1861 0.930 1_455 S
C1871 C1869 1.433 . S
C1871 N1874 1.384 . S
C1872 H1863 0.929 . S
C1872 C1864 1.378 . S
C1872 C1867 1.350 . S
C1873 H1860 0.929 . S
C1873 C1865 1.433 . S
C1873 N1875 1.384 . S
N1874 C1870 1.427 . S
N1874 C1871 1.384 . S
N1875 C1867 1.427 . S
N1875 C1873 1.384 . S
H1876 C1882 0.930 . S
H1877 C1886 0.930 . S
H1878 C1891 0.929 . S
H1879 C1889 0.929 . S
H1880 C1884 0.929 . S
H1881 C1890 0.929 . S
C1882 H1876 0.930 . S
C1882 C1883 1.367 . S
C1882 C1890 1.378 . S
C1883 C1882 1.367 . S
C1883 C1891 1.433 . S
C1884 H1880 0.929 . S
C1884 C1886 1.378 . S
C1884 C1888 1.350 . S
C1885 C1888 1.463 . S
C1885 C1890 1.350 . S
C1885 N1893 1.427 . S
C1886 H1877 0.930 . S
C1886 C1884 1.378 . S
C1886 C1887 1.367 . S
C1887 C1886 1.367 . S
C1887 C1889 1.433 . S
C1888 C1884 1.350 . S
C1888 C1885 1.463 . S
C1888 N1892 1.427 . S
C1889 H1879 0.929 . S
C1889 C1887 1.433 . S
C1889 N1892 1.384 . S
C1890 H1881 0.929 . S
C1890 C1882 1.378 . S
C1890 C1885 1.350 . S
C1891 H1878 0.929 . S
C1891 C1883 1.433 . S
C1891 N1893 1.384 . S
N1892 C1888 1.427 . S
N1892 C1889 1.384 . S
N1893 C1885 1.427 . S
N1893 C1891 1.384 . S
H1894 C1900 0.930 . S
H1895 C1904 0.930 . S
H1896 C1909 0.929 . S
H1897 C1907 0.929 . S
H1898 C1902 0.929 . S
H1899 C1908 0.929 . S
C1900 H1894 0.930 . S
C1900 C1901 1.367 . S
C1900 C1908 1.378 . S
C1901 C1900 1.367 . S
C1901 C1909 1.433 . S
C1902 H1898 0.929 . S
C1902 C1904 1.378 . S
C1902 C1906 1.350 . S
C1903 C1906 1.463 . S
C1903 C1908 1.350 . S
C1903 N1911 1.427 . S
C1904 H1895 0.930 . S
C1904 C1902 1.378 . S
C1904 C1905 1.367 . S
C1905 C1904 1.367 . S
C1905 C1907 1.433 . S
C1906 C1902 1.350 . S
C1906 C1903 1.463 . S
C1906 N1910 1.427 . S
C1907 H1897 0.929 . S
C1907 C1905 1.433 . S
C1907 N1910 1.384 . S
C1908 H1899 0.929 . S
C1908 C1900 1.378 . S
C1908 C1903 1.350 . S
C1909 H1896 0.929 . S
C1909 C1901 1.433 . S
C1909 N1911 1.384 . S
N1910 C1906 1.427 . S
N1910 C1907 1.384 . S
N1911 C1903 1.427 . S
N1911 C1909 1.384 . S
H1912 C1918 0.930 . S
H1913 C1922 0.930 . S
H1914 C1927 0.929 . S
H1915 C1925 0.929 . S
H1916 C1920 0.929 . S
H1917 C1926 0.929 . S
C1918 H1912 0.930 . S
C1918 C1919 1.367 . S
C1918 C1926 1.378 . S
C1919 C1918 1.367 . S
C1919 C1927 1.433 . S
C1920 H1916 0.929 . S
C1920 C1922 1.378 . S
C1920 C1924 1.350 . S
C1921 C1924 1.463 . S
C1921 C1926 1.350 . S
C1921 N1929 1.427 . S
C1922 H1913 0.930 . S
C1922 C1920 1.378 . S
C1922 C1923 1.367 . S
C1923 C1922 1.367 . S
C1923 C1925 1.433 . S
C1924 C1920 1.350 . S
C1924 C1921 1.463 . S
C1924 N1928 1.427 . S
C1925 H1915 0.929 . S
C1925 C1923 1.433 . S
C1925 N1928 1.384 . S
C1926 H1917 0.929 . S
C1926 C1918 1.378 . S
C1926 C1921 1.350 . S
C1927 H1914 0.929 . S
C1927 C1919 1.433 . S
C1927 N1929 1.384 . S
N1928 C1924 1.427 . S
N1928 C1925 1.384 . S
N1929 C1921 1.427 . S
N1929 C1927 1.384 . S
H1930 C1936 0.930 . S
H1931 C1940 0.930 . S
H1932 C1945 0.929 . S
H1933 C1943 0.929 . S
H1934 C1938 0.929 . S
H1935 C1944 0.929 . S
C1936 H1930 0.930 . S
C1936 C1937 1.367 . S
C1936 C1944 1.378 . S
C1937 C1936 1.367 . S
C1937 C1945 1.433 . S
C1938 H1934 0.929 . S
C1938 C1940 1.378 . S
C1938 C1942 1.350 . S
C1939 C1942 1.463 . S
C1939 C1944 1.350 . S
C1939 N1947 1.427 . S
C1940 H1931 0.930 . S
C1940 C1938 1.378 . S
C1940 C1941 1.367 . S
C1941 C1940 1.367 . S
C1941 C1943 1.433 . S
C1942 C1938 1.350 . S
C1942 C1939 1.463 . S
C1942 N1946 1.427 . S
C1943 H1933 0.929 . S
C1943 C1941 1.433 . S
C1943 N1946 1.384 . S
C1944 H1935 0.929 . S
C1944 C1936 1.378 . S
C1944 C1939 1.350 . S
C1945 H1932 0.929 . S
C1945 C1937 1.433 . S
C1945 N1947 1.384 . S
N1946 C1942 1.427 . S
N1946 C1943 1.384 . S
N1947 C1939 1.427 . S
N1947 C1945 1.384 . S
H1948 C1954 0.930 . S
H1949 C1958 0.930 . S
H1950 C1963 0.929 . S
H1951 C1961 0.929 . S
H1952 C1956 0.929 . S
H1953 C1962 0.929 . S
C1954 H1948 0.930 . S
C1954 C1955 1.367 . S
C1954 C1962 1.378 . S
C1955 C1954 1.367 . S
C1955 C1963 1.433 . S
C1956 H1952 0.929 . S
C1956 C1958 1.378 . S
C1956 C1960 1.350 . S
C1957 C1960 1.463 . S
C1957 C1962 1.350 . S
C1957 N1965 1.427 . S
C1958 H1949 0.930 . S
C1958 C1956 1.378 . S
C1958 C1959 1.367 . S
C1959 C1958 1.367 . S
C1959 C1961 1.433 . S
C1960 C1956 1.350 . S
C1960 C1957 1.463 . S
C1960 N1964 1.427 . S
C1961 H1951 0.929 . S
C1961 C1959 1.433 . S
C1961 N1964 1.384 . S
C1962 H1953 0.929 . S
C1962 C1954 1.378 . S
C1962 C1957 1.350 . S
C1963 H1950 0.929 . S
C1963 C1955 1.433 . S
C1963 N1965 1.384 . S
N1964 C1960 1.427 . S
N1964 C1961 1.384 . S
N1965 C1957 1.427 . S
N1965 C1963 1.384 . S
H1966 C1972 0.930 . S
H1967 C1976 0.930 . S
H1968 C1981 0.929 . S
H1969 C1979 0.929 . S
H1970 C1974 0.929 . S
H1971 C1980 0.929 . S
C1972 H1966 0.930 . S
C1972 C1973 1.367 . S
C1972 C1980 1.378 . S
C1973 C1972 1.367 . S
C1973 C1981 1.433 . S
C1974 H1970 0.929 . S
C1974 C1976 1.378 . S
C1974 C1978 1.350 . S
C1975 C1978 1.463 . S
C1975 C1980 1.350 . S
C1975 N1983 1.427 . S
C1976 H1967 0.930 . S
C1976 C1974 1.378 . S
C1976 C1977 1.367 . S
C1977 C1976 1.367 . S
C1977 C1979 1.433 . S
C1978 C1974 1.350 . S
C1978 C1975 1.463 . S
C1978 N1982 1.427 . S
C1979 H1969 0.929 . S
C1979 C1977 1.433 . S
C1979 N1982 1.384 . S
C1980 H1971 0.929 . S
C1980 C1972 1.378 . S
C1980 C1975 1.350 . S
C1981 H1968 0.929 . S
C1981 C1973 1.433 . S
C1981 N1983 1.384 . S
N1982 C1978 1.427 . S
N1982 C1979 1.384 . S
N1983 C1975 1.427 . S
N1983 C1981 1.384 . S
H1984 C1990 0.930 . S
H1985 C1994 0.930 . S
H1986 C1999 0.929 . S
H1987 C1997 0.929 . S
H1988 C1992 0.929 . S
H1989 C1998 0.929 . S
C1990 H1984 0.930 . S
C1990 C1991 1.367 . S
C1990 C1998 1.378 . S
C1991 C1990 1.367 . S
C1991 C1999 1.433 . S
C1992 H1988 0.929 . S
C1992 C1994 1.378 . S
C1992 C1996 1.350 . S
C1993 C1996 1.463 . S
C1993 C1998 1.350 . S
C1993 N2001 1.427 . S
C1994 H1985 0.930 . S
C1994 C1992 1.378 . S
C1994 C1995 1.367 . S
C1995 C1994 1.367 . S
C1995 C1997 1.433 . S
C1996 C1992 1.350 . S
C1996 C1993 1.463 . S
C1996 N2000 1.427 . S
C1997 H1987 0.929 . S
C1997 C1995 1.433 . S
C1997 N2000 1.384 . S
C1998 H1989 0.929 . S
C1998 C1990 1.378 . S
C1998 C1993 1.350 . S
C1999 H1986 0.929 . S
C1999 C1991 1.433 . S
C1999 N2001 1.384 . S
N2000 C1996 1.427 . S
N2000 C1997 1.384 . S
N2001 C1993 1.427 . S
N2001 C1999 1.384 . S
H2002 C2008 0.930 . S
H2003 C2012 0.930 . S
H2004 C2017 0.929 . S
H2005 C2015 0.929 . S
H2006 C2010 0.929 . S
H2007 C2016 0.929 . S
C2008 H2002 0.930 . S
C2008 C2009 1.367 . S
C2008 C2016 1.378 . S
C2009 C2008 1.367 . S
C2009 C2017 1.433 . S
C2010 H2006 0.929 . S
C2010 C2012 1.378 . S
C2010 C2014 1.350 . S
C2011 C2014 1.463 . S
C2011 C2016 1.350 . S
C2011 N2019 1.427 . S
C2012 H2003 0.930 . S
C2012 C2010 1.378 . S
C2012 C2013 1.367 . S
C2013 C2012 1.367 . S
C2013 C2015 1.433 . S
C2014 C2010 1.350 . S
C2014 C2011 1.463 . S
C2014 N2018 1.427 . S
C2015 H2005 0.929 . S
C2015 C2013 1.433 . S
C2015 N2018 1.384 . S
C2016 H2007 0.929 . S
C2016 C2008 1.378 . S
C2016 C2011 1.350 . S
C2017 H2004 0.929 . S
C2017 C2009 1.433 . S
C2017 N2019 1.384 . S
N2018 C2014 1.427 . S
N2018 C2015 1.384 . S
N2019 C2011 1.427 . S
N2019 C2017 1.384 . S
H2020 C2026 0.930 . S
H2021 C2030 0.930 . S
H2022 C2035 0.929 . S
H2023 C2033 0.929 . S
H2024 C2028 0.929 . S
H2025 C2034 0.929 . S
C2026 H2020 0.930 . S
C2026 C2027 1.367 . S
C2026 C2034 1.378 . S
C2027 C2026 1.367 . S
C2027 C2035 1.433 . S
C2028 H2024 0.929 . S
C2028 C2030 1.378 . S
C2028 C2032 1.350 . S
C2029 C2032 1.463 . S
C2029 C2034 1.350 . S
C2029 N2037 1.427 . S
C2030 H2021 0.930 . S
C2030 C2028 1.378 . S
C2030 C2031 1.367 . S
C2031 C2030 1.367 . S
C2031 C2033 1.433 . S
C2032 C2028 1.350 . S
C2032 C2029 1.463 . S
C2032 N2036 1.427 . S
C2033 H2023 0.929 . S
C2033 C2031 1.433 . S
C2033 N2036 1.384 . S
C2034 H2025 0.929 . S
C2034 C2026 1.378 . S
C2034 C2029 1.350 . S
C2035 H2022 0.929 . S
C2035 C2027 1.433 . S
C2035 N2037 1.384 . S
N2036 C2032 1.427 . S
N2036 C2033 1.384 . S
N2037 C2029 1.427 . S
N2037 C2035 1.384 . S
H2038 C2044 0.930 . S
H2039 C2048 0.930 . S
H2040 C2053 0.929 . S
H2041 C2051 0.929 . S
H2042 C2046 0.929 . S
H2043 C2052 0.929 . S
C2044 H2038 0.930 . S
C2044 C2045 1.367 . S
C2044 C2052 1.378 . S
C2045 C2044 1.367 . S
C2045 C2053 1.433 . S
C2046 H2042 0.929 . S
C2046 C2048 1.378 . S
C2046 C2050 1.350 . S
C2047 C2050 1.463 . S
C2047 C2052 1.350 . S
C2047 N2055 1.427 . S
C2048 H2039 0.930 . S
C2048 C2046 1.378 . S
C2048 C2049 1.367 1_455 S
C2049 C2048 1.367 1_655 S
C2049 C2051 1.433 . S
C2050 C2046 1.350 . S
C2050 C2047 1.463 . S
C2050 N2054 1.427 . S
C2051 H2041 0.929 . S
C2051 C2049 1.433 . S
C2051 N2054 1.384 1_655 S
C2052 H2043 0.929 . S
C2052 C2044 1.378 . S
C2052 C2047 1.350 . S
C2053 H2040 0.929 . S
C2053 C2045 1.433 . S
C2053 N2055 1.384 . S
N2054 C2050 1.427 . S
N2054 C2051 1.384 1_455 S
N2055 C2047 1.427 . S
N2055 C2053 1.384 . S
H2056 C2062 0.930 . S
H2057 C2066 0.930 . S
H2058 C2071 0.929 . S
H2059 C2069 0.929 . S
H2060 C2064 0.929 . S
H2061 C2070 0.929 . S
C2062 H2056 0.930 . S
C2062 C2063 1.367 . S
C2062 C2070 1.378 . S
C2063 C2062 1.367 . S
C2063 C2071 1.433 . S
C2064 H2060 0.929 . S
C2064 C2066 1.378 . S
C2064 C2068 1.350 . S
C2065 C2068 1.463 . S
C2065 C2070 1.350 . S
C2065 N2073 1.427 . S
C2066 H2057 0.930 . S
C2066 C2064 1.378 . S
C2066 C2067 1.367 . S
C2067 C2066 1.367 . S
C2067 C2069 1.433 . S
C2068 C2064 1.350 . S
C2068 C2065 1.463 . S
C2068 N2072 1.427 . S
C2069 H2059 0.929 . S
C2069 C2067 1.433 . S
C2069 N2072 1.384 . S
C2070 H2061 0.929 . S
C2070 C2062 1.378 . S
C2070 C2065 1.350 . S
C2071 H2058 0.929 . S
C2071 C2063 1.433 . S
C2071 N2073 1.384 . S
N2072 C2068 1.427 . S
N2072 C2069 1.384 . S
N2073 C2065 1.427 . S
N2073 C2071 1.384 . S
H2074 C2080 0.930 . S
H2075 C2084 0.930 1_655 S
H2076 C2089 0.929 . S
H2077 C2087 0.929 . S
H2078 C2082 0.929 . S
H2079 C2088 0.929 . S
C2080 H2074 0.930 . S
C2080 C2081 1.367 . S
C2080 C2088 1.378 . S
C2081 C2080 1.367 . S
C2081 C2089 1.433 . S
C2082 H2078 0.929 . S
C2082 C2084 1.378 . S
C2082 C2086 1.350 . S
C2083 C2086 1.463 . S
C2083 C2088 1.350 . S
C2083 N2091 1.427 . S
C2084 H2075 0.930 1_455 S
C2084 C2082 1.378 . S
C2084 C2085 1.367 1_455 S
C2085 C2084 1.367 1_655 S
C2085 C2087 1.433 . S
C2086 C2082 1.350 . S
C2086 C2083 1.463 . S
C2086 N2090 1.427 . S
C2087 H2077 0.929 . S
C2087 C2085 1.433 . S
C2087 N2090 1.384 1_655 S
C2088 H2079 0.929 . S
C2088 C2080 1.378 . S
C2088 C2083 1.350 . S
C2089 H2076 0.929 . S
C2089 C2081 1.433 . S
C2089 N2091 1.384 . S
N2090 C2086 1.427 . S
N2090 C2087 1.384 1_455 S
N2091 C2083 1.427 . S
N2091 C2089 1.384 . S
H2092 C2098 0.930 . S
H2093 C2102 0.930 . S
H2094 C2107 0.929 . S
H2095 C2105 0.929 . S
H2096 C2100 0.929 . S
H2097 C2106 0.929 . S
C2098 H2092 0.930 . S
C2098 C2099 1.367 . S
C2098 C2106 1.378 . S
C2099 C2098 1.367 . S
C2099 C2107 1.433 . S
C2100 H2096 0.929 . S
C2100 C2102 1.378 . S
C2100 C2104 1.350 . S
C2101 C2104 1.463 . S
C2101 C2106 1.350 . S
C2101 N2109 1.427 . S
C2102 H2093 0.930 . S
C2102 C2100 1.378 . S
C2102 C2103 1.367 . S
C2103 C2102 1.367 . S
C2103 C2105 1.433 . S
C2104 C2100 1.350 . S
C2104 C2101 1.463 . S
C2104 N2108 1.427 . S
C2105 H2095 0.929 . S
C2105 C2103 1.433 . S
C2105 N2108 1.384 . S
C2106 H2097 0.929 . S
C2106 C2098 1.378 . S
C2106 C2101 1.350 . S
C2107 H2094 0.929 . S
C2107 C2099 1.433 . S
C2107 N2109 1.384 . S
N2108 C2104 1.427 . S
N2108 C2105 1.384 . S
N2109 C2101 1.427 . S
N2109 C2107 1.384 . S
H2110 C2116 0.930 . S
H2111 C2120 0.930 . S
H2112 C2125 0.929 . S
H2113 C2123 0.929 . S
H2114 C2118 0.929 . S
H2115 C2124 0.929 . S
C2116 H2110 0.930 . S
C2116 C2117 1.367 . S
C2116 C2124 1.378 . S
C2117 C2116 1.367 . S
C2117 C2125 1.433 . S
C2118 H2114 0.929 . S
C2118 C2120 1.378 . S
C2118 C2122 1.350 . S
C2119 C2122 1.463 . S
C2119 C2124 1.350 . S
C2119 N2127 1.427 . S
C2120 H2111 0.930 . S
C2120 C2118 1.378 . S
C2120 C2121 1.367 . S
C2121 C2120 1.367 . S
C2121 C2123 1.433 . S
C2122 C2118 1.350 . S
C2122 C2119 1.463 . S
C2122 N2126 1.427 . S
C2123 H2113 0.929 . S
C2123 C2121 1.433 . S
C2123 N2126 1.384 . S
C2124 H2115 0.929 . S
C2124 C2116 1.378 . S
C2124 C2119 1.350 . S
C2125 H2112 0.929 . S
C2125 C2117 1.433 . S
C2125 N2127 1.384 . S
N2126 C2122 1.427 . S
N2126 C2123 1.384 . S
N2127 C2119 1.427 . S
N2127 C2125 1.384 . S
H2128 C2134 0.930 . S
H2129 C2138 0.930 . S
H2130 C2143 0.929 . S
H2131 C2141 0.929 . S
H2132 C2136 0.929 . S
H2133 C2142 0.929 . S
C2134 H2128 0.930 . S
C2134 C2135 1.367 . S
C2134 C2142 1.378 . S
C2135 C2134 1.367 . S
C2135 C2143 1.433 . S
C2136 H2132 0.929 . S
C2136 C2138 1.378 . S
C2136 C2140 1.350 . S
C2137 C2140 1.463 . S
C2137 C2142 1.350 . S
C2137 N2145 1.427 . S
C2138 H2129 0.930 . S
C2138 C2136 1.378 . S
C2138 C2139 1.367 . S
C2139 C2138 1.367 . S
C2139 C2141 1.433 . S
C2140 C2136 1.350 . S
C2140 C2137 1.463 . S
C2140 N2144 1.427 . S
C2141 H2131 0.929 . S
C2141 C2139 1.433 . S
C2141 N2144 1.384 . S
C2142 H2133 0.929 . S
C2142 C2134 1.378 . S
C2142 C2137 1.350 . S
C2143 H2130 0.929 . S
C2143 C2135 1.433 . S
C2143 N2145 1.384 . S
N2144 C2140 1.427 . S
N2144 C2141 1.384 . S
N2145 C2137 1.427 . S
N2145 C2143 1.384 . S
H2146 C2152 0.930 . S
H2147 C2156 0.930 . S
H2148 C2161 0.929 . S
H2149 C2159 0.929 . S
H2150 C2154 0.929 . S
H2151 C2160 0.929 . S
C2152 H2146 0.930 . S
C2152 C2153 1.367 . S
C2152 C2160 1.378 . S
C2153 C2152 1.367 . S
C2153 C2161 1.433 . S
C2154 H2150 0.929 . S
C2154 C2156 1.378 . S
C2154 C2158 1.350 . S
C2155 C2158 1.463 . S
C2155 C2160 1.350 . S
C2155 N2163 1.427 . S
C2156 H2147 0.930 . S
C2156 C2154 1.378 . S
C2156 C2157 1.367 . S
C2157 C2156 1.367 . S
C2157 C2159 1.433 . S
C2158 C2154 1.350 . S
C2158 C2155 1.463 . S
C2158 N2162 1.427 . S
C2159 H2149 0.929 . S
C2159 C2157 1.433 . S
C2159 N2162 1.384 . S
C2160 H2151 0.929 . S
C2160 C2152 1.378 . S
C2160 C2155 1.350 . S
C2161 H2148 0.929 . S
C2161 C2153 1.433 . S
C2161 N2163 1.384 . S
N2162 C2158 1.427 . S
N2162 C2159 1.384 . S
N2163 C2155 1.427 . S
N2163 C2161 1.384 . S
H2164 C2170 0.930 . S
H2165 C2174 0.930 . S
H2166 C2179 0.929 . S
H2167 C2177 0.929 . S
H2168 C2172 0.929 . S
H2169 C2178 0.929 . S
C2170 H2164 0.930 . S
C2170 C2171 1.367 . S
C2170 C2178 1.378 . S
C2171 C2170 1.367 . S
C2171 C2179 1.433 . S
C2172 H2168 0.929 . S
C2172 C2174 1.378 . S
C2172 C2176 1.350 . S
C2173 C2176 1.463 . S
C2173 C2178 1.350 . S
C2173 N2181 1.427 . S
C2174 H2165 0.930 . S
C2174 C2172 1.378 . S
C2174 C2175 1.367 . S
C2175 C2174 1.367 . S
C2175 C2177 1.433 . S
C2176 C2172 1.350 . S
C2176 C2173 1.463 . S
C2176 N2180 1.427 . S
C2177 H2167 0.929 . S
C2177 C2175 1.433 . S
C2177 N2180 1.384 . S
C2178 H2169 0.929 . S
C2178 C2170 1.378 . S
C2178 C2173 1.350 . S
C2179 H2166 0.929 . S
C2179 C2171 1.433 . S
C2179 N2181 1.384 . S
N2180 C2176 1.427 . S
N2180 C2177 1.384 . S
N2181 C2173 1.427 . S
N2181 C2179 1.384 . S
H2182 C2188 0.930 . S
H2183 C2192 0.930 . S
H2184 C2197 0.929 1_455 S
H2185 C2195 0.929 . S
H2186 C2190 0.929 . S
H2187 C2196 0.929 . S
C2188 H2182 0.930 . S
C2188 C2189 1.367 . S
C2188 C2196 1.378 . S
C2189 C2188 1.367 . S
C2189 C2197 1.433 . S
C2190 H2186 0.929 . S
C2190 C2192 1.378 . S
C2190 C2194 1.350 . S
C2191 C2194 1.463 . S
C2191 C2196 1.350 . S
C2191 N2199 1.427 . S
C2192 H2183 0.930 . S
C2192 C2190 1.378 . S
C2192 C2193 1.367 . S
C2193 C2192 1.367 . S
C2193 C2195 1.433 . S
C2194 C2190 1.350 . S
C2194 C2191 1.463 . S
C2194 N2198 1.427 . S
C2195 H2185 0.929 . S
C2195 C2193 1.433 . S
C2195 N2198 1.384 . S
C2196 H2187 0.929 . S
C2196 C2188 1.378 . S
C2196 C2191 1.350 . S
C2197 H2184 0.929 1_655 S
C2197 C2189 1.433 . S
C2197 N2199 1.384 . S
N2198 C2194 1.427 . S
N2198 C2195 1.384 . S
N2199 C2191 1.427 . S
N2199 C2197 1.384 . S
H2200 C2206 0.930 . S
H2201 C2210 0.930 . S
H2202 C2215 0.929 . S
H2203 C2213 0.929 . S
H2204 C2208 0.929 . S
H2205 C2214 0.929 . S
C2206 H2200 0.930 . S
C2206 C2207 1.367 . S
C2206 C2214 1.378 . S
C2207 C2206 1.367 . S
C2207 C2215 1.433 . S
C2208 H2204 0.929 . S
C2208 C2210 1.378 . S
C2208 C2212 1.350 . S
C2209 C2212 1.463 . S
C2209 C2214 1.350 . S
C2209 N2217 1.427 . S
C2210 H2201 0.930 . S
C2210 C2208 1.378 . S
C2210 C2211 1.367 . S
C2211 C2210 1.367 . S
C2211 C2213 1.433 . S
C2212 C2208 1.350 . S
C2212 C2209 1.463 . S
C2212 N2216 1.427 . S
C2213 H2203 0.929 . S
C2213 C2211 1.433 . S
C2213 N2216 1.384 . S
C2214 H2205 0.929 . S
C2214 C2206 1.378 . S
C2214 C2209 1.350 . S
C2215 H2202 0.929 . S
C2215 C2207 1.433 . S
C2215 N2217 1.384 . S
N2216 C2212 1.427 . S
N2216 C2213 1.384 . S
N2217 C2209 1.427 . S
N2217 C2215 1.384 . S
H2218 C2224 0.930 . S
H2219 C2228 0.930 . S
H2220 C2233 0.929 1_455 S
H2221 C2231 0.929 . S
H2222 C2226 0.929 . S
H2223 C2232 0.929 . S
C2224 H2218 0.930 . S
C2224 C2225 1.367 . S
C2224 C2232 1.378 . S
C2225 C2224 1.367 . S
C2225 C2233 1.433 . S
C2226 H2222 0.929 . S
C2226 C2228 1.378 . S
C2226 C2230 1.350 . S
C2227 C2230 1.463 . S
C2227 C2232 1.350 . S
C2227 N2235 1.427 . S
C2228 H2219 0.930 . S
C2228 C2226 1.378 . S
C2228 C2229 1.367 . S
C2229 C2228 1.367 . S
C2229 C2231 1.433 . S
C2230 C2226 1.350 . S
C2230 C2227 1.463 . S
C2230 N2234 1.427 . S
C2231 H2221 0.929 . S
C2231 C2229 1.433 . S
C2231 N2234 1.384 . S
C2232 H2223 0.929 . S
C2232 C2224 1.378 . S
C2232 C2227 1.350 . S
C2233 H2220 0.929 1_655 S
C2233 C2225 1.433 . S
C2233 N2235 1.384 . S
N2234 C2230 1.427 . S
N2234 C2231 1.384 . S
N2235 C2227 1.427 . S
N2235 C2233 1.384 . S
H2236 C2242 0.930 . S
H2237 C2246 0.930 . S
H2238 C2251 0.929 . S
H2239 C2249 0.929 . S
H2240 C2244 0.929 . S
H2241 C2250 0.929 . S
C2242 H2236 0.930 . S
C2242 C2243 1.367 . S
C2242 C2250 1.378 . S
C2243 C2242 1.367 . S
C2243 C2251 1.433 . S
C2244 H2240 0.929 . S
C2244 C2246 1.378 . S
C2244 C2248 1.350 . S
C2245 C2248 1.463 . S
C2245 C2250 1.350 . S
C2245 N2253 1.427 . S
C2246 H2237 0.930 . S
C2246 C2244 1.378 . S
C2246 C2247 1.367 . S
C2247 C2246 1.367 . S
C2247 C2249 1.433 . S
C2248 C2244 1.350 . S
C2248 C2245 1.463 . S
C2248 N2252 1.427 . S
C2249 H2239 0.929 . S
C2249 C2247 1.433 . S
C2249 N2252 1.384 . S
C2250 H2241 0.929 . S
C2250 C2242 1.378 . S
C2250 C2245 1.350 . S
C2251 H2238 0.929 . S
C2251 C2243 1.433 . S
C2251 N2253 1.384 . S
N2252 C2248 1.427 . S
N2252 C2249 1.384 . S
N2253 C2245 1.427 . S
N2253 C2251 1.384 . S
H2254 C2260 0.930 . S
H2255 C2264 0.930 . S
H2256 C2269 0.929 . S
H2257 C2267 0.929 . S
H2258 C2262 0.929 . S
H2259 C2268 0.929 . S
C2260 H2254 0.930 . S
C2260 C2261 1.367 . S
C2260 C2268 1.378 . S
C2261 C2260 1.367 . S
C2261 C2269 1.433 . S
C2262 H2258 0.929 . S
C2262 C2264 1.378 . S
C2262 C2266 1.350 . S
C2263 C2266 1.463 . S
C2263 C2268 1.350 . S
C2263 N2271 1.427 . S
C2264 H2255 0.930 . S
C2264 C2262 1.378 . S
C2264 C2265 1.367 . S
C2265 C2264 1.367 . S
C2265 C2267 1.433 . S
C2266 C2262 1.350 . S
C2266 C2263 1.463 . S
C2266 N2270 1.427 . S
C2267 H2257 0.929 . S
C2267 C2265 1.433 . S
C2267 N2270 1.384 . S
C2268 H2259 0.929 . S
C2268 C2260 1.378 . S
C2268 C2263 1.350 . S
C2269 H2256 0.929 . S
C2269 C2261 1.433 . S
C2269 N2271 1.384 . S
N2270 C2266 1.427 . S
N2270 C2267 1.384 . S
N2271 C2263 1.427 . S
N2271 C2269 1.384 . S
H2272 C2278 0.930 . S
H2273 C2282 0.930 . S
H2274 C2287 0.929 . S
H2275 C2285 0.929 . S
H2276 C2280 0.929 . S
H2277 C2286 0.929 . S
C2278 H2272 0.930 . S
C2278 C2279 1.367 . S
C2278 C2286 1.378 . S
C2279 C2278 1.367 . S
C2279 C2287 1.433 . S
C2280 H2276 0.929 . S
C2280 C2282 1.378 . S
C2280 C2284 1.350 . S
C2281 C2284 1.463 . S
C2281 C2286 1.350 . S
C2281 N2289 1.427 . S
C2282 H2273 0.930 . S
C2282 C2280 1.378 . S
C2282 C2283 1.367 . S
C2283 C2282 1.367 . S
C2283 C2285 1.433 . S
C2284 C2280 1.350 . S
C2284 C2281 1.463 . S
C2284 N2288 1.427 . S
C2285 H2275 0.929 . S
C2285 C2283 1.433 . S
C2285 N2288 1.384 . S
C2286 H2277 0.929 . S
C2286 C2278 1.378 . S
C2286 C2281 1.350 . S
C2287 H2274 0.929 . S
C2287 C2279 1.433 . S
C2287 N2289 1.384 . S
N2288 C2284 1.427 . S
N2288 C2285 1.384 . S
N2289 C2281 1.427 . S
N2289 C2287 1.384 . S
H2290 C2296 0.955 . S
H2291 C2300 0.930 . S
H2292 C2305 0.929 . S
H2293 C2303 0.929 1_545 S
H2294 C2298 0.929 . S
H2295 C2304 0.928 . S
C2296 H2290 0.955 . S
C2296 C2297 1.344 1_545 S
C2296 C2304 1.377 . S
C2297 C2296 1.344 1_565 S
C2297 C2305 1.433 . S
C2298 H2294 0.929 . S
C2298 C2300 1.378 . S
C2298 C2302 1.345 1_655 S
C2299 C2302 1.466 . S
C2299 C2304 1.350 1_565 S
C2299 N2307 1.427 . S
C2300 H2291 0.930 . S
C2300 C2298 1.378 . S
C2300 C2301 1.367 . S
C2301 C2300 1.367 . S
C2301 C2303 1.433 . S
C2302 C2298 1.345 1_455 S
C2302 C2299 1.466 . S
C2302 N2306 1.428 . S
C2303 H2293 0.929 1_565 S
C2303 C2301 1.433 . S
C2303 N2306 1.384 1_655 S
C2304 H2295 0.928 . S
C2304 C2296 1.377 . S
C2304 C2299 1.350 1_545 S
C2305 H2292 0.929 . S
C2305 C2297 1.433 . S
C2305 N2307 1.384 . S
N2306 C2302 1.428 . S
N2306 C2303 1.384 1_455 S
N2307 C2299 1.427 . S
N2307 C2305 1.384 . S
H2308 C2314 0.930 . S
H2309 C2318 0.930 . S
H2310 C2323 0.929 . S
H2311 C2321 0.929 . S
H2312 C2316 0.929 . S
H2313 C2322 0.929 . S
C2314 H2308 0.930 . S
C2314 C2315 1.367 . S
C2314 C2322 1.378 . S
C2315 C2314 1.367 . S
C2315 C2323 1.433 . S
C2316 H2312 0.929 . S
C2316 C2318 1.378 . S
C2316 C2320 1.350 . S
C2317 C2320 1.463 . S
C2317 C2322 1.350 . S
C2317 N2325 1.427 . S
C2318 H2309 0.930 . S
C2318 C2316 1.378 . S
C2318 C2319 1.367 . S
C2319 C2318 1.367 . S
C2319 C2321 1.433 . S
C2320 C2316 1.350 . S
C2320 C2317 1.463 . S
C2320 N2324 1.427 . S
C2321 H2311 0.929 . S
C2321 C2319 1.433 . S
C2321 N2324 1.384 . S
C2322 H2313 0.929 . S
C2322 C2314 1.378 . S
C2322 C2317 1.350 . S
C2323 H2310 0.929 . S
C2323 C2315 1.433 . S
C2323 N2325 1.384 . S
N2324 C2320 1.427 . S
N2324 C2321 1.384 . S
N2325 C2317 1.427 . S
N2325 C2323 1.384 . S
H2326 C2332 0.930 . S
H2327 C2336 0.930 . S
H2328 C2341 0.929 . S
H2329 C2339 0.929 . S
H2330 C2334 0.929 . S
H2331 C2340 0.929 . S
C2332 H2326 0.930 . S
C2332 C2333 1.367 . S
C2332 C2340 1.378 . S
C2333 C2332 1.367 . S
C2333 C2341 1.433 1_545 S
C2334 H2330 0.929 . S
C2334 C2336 1.378 . S
C2334 C2338 1.350 1_565 S
C2335 C2338 1.463 1_554 S
C2335 C2340 1.350 . S
C2335 N2343 1.427 1_545 S
C2336 H2327 0.930 . S
C2336 C2334 1.378 . S
C2336 C2337 1.367 1_565 S
C2337 C2336 1.367 1_545 S
C2337 C2339 1.433 . S
C2338 C2334 1.350 1_545 S
C2338 C2335 1.463 1_556 S
C2338 N2342 1.427 . S
C2339 H2329 0.929 . S
C2339 C2337 1.433 . S
C2339 N2342 1.384 . S
C2340 H2331 0.929 . S
C2340 C2332 1.378 . S
C2340 C2335 1.350 . S
C2341 H2328 0.929 . S
C2341 C2333 1.433 1_565 S
C2341 N2343 1.384 . S
N2342 C2338 1.427 . S
N2342 C2339 1.384 . S
N2343 C2335 1.427 1_565 S
N2343 C2341 1.384 . S
H2344 C2350 0.930 . S
H2345 C2354 0.930 . S
H2346 C2359 0.929 . S
H2347 C2357 0.929 . S
H2348 C2352 0.929 . S
H2349 C2358 0.929 . S
C2350 H2344 0.930 . S
C2350 C2351 1.367 . S
C2350 C2358 1.378 . S
C2351 C2350 1.367 . S
C2351 C2359 1.433 . S
C2352 H2348 0.929 . S
C2352 C2354 1.378 . S
C2352 C2356 1.350 . S
C2353 C2356 1.463 . S
C2353 C2358 1.350 . S
C2353 N2361 1.427 . S
C2354 H2345 0.930 . S
C2354 C2352 1.378 . S
C2354 C2355 1.367 . S
C2355 C2354 1.367 . S
C2355 C2357 1.433 . S
C2356 C2352 1.350 . S
C2356 C2353 1.463 . S
C2356 N2360 1.427 . S
C2357 H2347 0.929 . S
C2357 C2355 1.433 . S
C2357 N2360 1.384 . S
C2358 H2349 0.929 . S
C2358 C2350 1.378 . S
C2358 C2353 1.350 . S
C2359 H2346 0.929 . S
C2359 C2351 1.433 . S
C2359 N2361 1.384 . S
N2360 C2356 1.427 . S
N2360 C2357 1.384 . S
N2361 C2353 1.427 . S
N2361 C2359 1.384 . S
H2362 C2368 0.930 . S
H2363 C2372 0.930 . S
H2364 C2377 0.929 . S
H2365 C2375 0.929 . S
H2366 C2370 0.929 . S
H2367 C2376 0.929 . S
C2368 H2362 0.930 . S
C2368 C2369 1.367 . S
C2368 C2376 1.378 . S
C2369 C2368 1.367 . S
C2369 C2377 1.433 1_565 S
C2370 H2366 0.929 . S
C2370 C2372 1.378 . S
C2370 C2374 1.350 1_545 S
C2371 C2374 1.463 . S
C2371 C2376 1.350 . S
C2371 N2379 1.427 1_565 S
C2372 H2363 0.930 . S
C2372 C2370 1.378 . S
C2372 C2373 1.367 1_545 S
C2373 C2372 1.367 1_565 S
C2373 C2375 1.433 . S
C2374 C2370 1.350 1_565 S
C2374 C2371 1.463 . S
C2374 N2378 1.427 . S
C2375 H2365 0.929 . S
C2375 C2373 1.433 . S
C2375 N2378 1.384 . S
C2376 H2367 0.929 . S
C2376 C2368 1.378 . S
C2376 C2371 1.350 . S
C2377 H2364 0.929 . S
C2377 C2369 1.433 1_545 S
C2377 N2379 1.384 . S
N2378 C2374 1.427 . S
N2378 C2375 1.384 . S
N2379 C2371 1.427 1_545 S
N2379 C2377 1.384 . S
H2380 C2386 0.930 . S
H2381 C2390 0.930 . S
H2382 C2395 0.929 . S
H2383 C2393 0.929 . S
H2384 C2388 0.929 . S
H2385 C2394 0.929 . S
C2386 H2380 0.930 . S
C2386 C2387 1.367 . S
C2386 C2394 1.378 . S
C2387 C2386 1.367 . S
C2387 C2395 1.433 . S
C2388 H2384 0.929 . S
C2388 C2390 1.378 . S
C2388 C2392 1.350 . S
C2389 C2392 1.463 . S
C2389 C2394 1.350 . S
C2389 N2397 1.427 . S
C2390 H2381 0.930 . S
C2390 C2388 1.378 . S
C2390 C2391 1.367 . S
C2391 C2390 1.367 . S
C2391 C2393 1.433 . S
C2392 C2388 1.350 . S
C2392 C2389 1.463 . S
C2392 N2396 1.427 . S
C2393 H2383 0.929 . S
C2393 C2391 1.433 . S
C2393 N2396 1.384 . S
C2394 H2385 0.929 . S
C2394 C2386 1.378 . S
C2394 C2389 1.350 . S
C2395 H2382 0.929 . S
C2395 C2387 1.433 . S
C2395 N2397 1.384 . S
N2396 C2392 1.427 . S
N2396 C2393 1.384 . S
N2397 C2389 1.427 . S
N2397 C2395 1.384 . S
H2398 C2404 0.930 . S
H2399 C2408 0.933 . S
H2400 C2413 0.929 . S
H2401 C2411 0.929 . S
H2402 C2406 0.929 . S
H2403 C2412 0.929 1_655 S
C2404 H2398 0.930 . S
C2404 C2405 1.367 . S
C2404 C2412 1.378 . S
C2405 C2404 1.367 . S
C2405 C2413 1.433 . S
C2406 H2402 0.929 . S
C2406 C2408 1.378 1_455 S
C2406 C2410 1.350 . S
C2407 C2410 1.463 1_556 S
C2407 C2412 1.350 . S
C2407 N2415 1.427 . S
C2408 H2399 0.933 . S
C2408 C2406 1.378 1_655 S
C2408 C2409 1.367 . S
C2409 C2408 1.367 . S
C2409 C2411 1.433 . S
C2410 C2406 1.350 . S
C2410 C2407 1.463 1_554 S
C2410 N2414 1.425 1_454 S
C2411 H2401 0.929 . S
C2411 C2409 1.433 . S
C2411 N2414 1.367 1_554 S
C2412 H2403 0.929 1_455 S
C2412 C2404 1.378 . S
C2412 C2407 1.350 . S
C2413 H2400 0.929 . S
C2413 C2405 1.433 . S
C2413 N2415 1.384 . S
N2414 C2410 1.425 1_656 S
N2414 C2411 1.367 1_556 S
N2415 C2407 1.427 . S
N2415 C2413 1.384 . S
H2416 C2422 0.930 . S
H2417 C2426 0.930 . S
H2418 C2431 0.929 . S
H2419 C2429 0.929 . S
H2420 C2424 0.929 . S
H2421 C2430 0.929 . S
C2422 H2416 0.930 . S
C2422 C2423 1.367 . S
C2422 C2430 1.378 . S
C2423 C2422 1.367 . S
C2423 C2431 1.433 . S
C2424 H2420 0.929 . S
C2424 C2426 1.378 . S
C2424 C2428 1.350 . S
C2425 C2428 1.463 . S
C2425 C2430 1.350 . S
C2425 N2433 1.427 . S
C2426 H2417 0.930 . S
C2426 C2424 1.378 . S
C2426 C2427 1.367 . S
C2427 C2426 1.367 . S
C2427 C2429 1.433 . S
C2428 C2424 1.350 . S
C2428 C2425 1.463 . S
C2428 N2432 1.427 . S
C2429 H2419 0.929 . S
C2429 C2427 1.433 . S
C2429 N2432 1.384 . S
C2430 H2421 0.929 . S
C2430 C2422 1.378 . S
C2430 C2425 1.350 . S
C2431 H2418 0.929 . S
C2431 C2423 1.433 . S
C2431 N2433 1.384 . S
N2432 C2428 1.427 . S
N2432 C2429 1.384 . S
N2433 C2425 1.427 . S
N2433 C2431 1.384 . S
H2434 C2440 0.930 . S
H2435 C2444 0.930 . S
H2436 C2449 0.929 . S
H2437 C2447 0.929 . S
H2438 C2442 0.929 . S
H2439 C2448 0.929 . S
C2440 H2434 0.930 . S
C2440 C2441 1.367 . S
C2440 C2448 1.378 . S
C2441 C2440 1.367 . S
C2441 C2449 1.433 . S
C2442 H2438 0.929 . S
C2442 C2444 1.378 . S
C2442 C2446 1.350 . S
C2443 C2446 1.463 . S
C2443 C2448 1.350 . S
C2443 N2451 1.427 . S
C2444 H2435 0.930 . S
C2444 C2442 1.378 . S
C2444 C2445 1.367 . S
C2445 C2444 1.367 . S
C2445 C2447 1.433 . S
C2446 C2442 1.350 . S
C2446 C2443 1.463 . S
C2446 N2450 1.427 . S
C2447 H2437 0.929 . S
C2447 C2445 1.433 . S
C2447 N2450 1.384 . S
C2448 H2439 0.929 . S
C2448 C2440 1.378 . S
C2448 C2443 1.350 . S
C2449 H2436 0.929 . S
C2449 C2441 1.433 . S
C2449 N2451 1.384 . S
N2450 C2446 1.427 . S
N2450 C2447 1.384 . S
N2451 C2443 1.427 . S
N2451 C2449 1.384 . S
H2452 C2458 0.930 . S
H2453 C2462 0.930 . S
H2454 C2467 0.929 . S
H2455 C2465 0.929 . S
H2456 C2460 0.929 . S
H2457 C2466 0.929 . S
C2458 H2452 0.930 . S
C2458 C2459 1.367 . S
C2458 C2466 1.378 . S
C2459 C2458 1.367 . S
C2459 C2467 1.433 . S
C2460 H2456 0.929 . S
C2460 C2462 1.378 . S
C2460 C2464 1.350 . S
C2461 C2464 1.463 . S
C2461 C2466 1.350 . S
C2461 N2469 1.427 . S
C2462 H2453 0.930 . S
C2462 C2460 1.378 . S
C2462 C2463 1.367 . S
C2463 C2462 1.367 . S
C2463 C2465 1.433 . S
C2464 C2460 1.350 . S
C2464 C2461 1.463 . S
C2464 N2468 1.427 . S
C2465 H2455 0.929 . S
C2465 C2463 1.433 . S
C2465 N2468 1.384 . S
C2466 H2457 0.929 . S
C2466 C2458 1.378 . S
C2466 C2461 1.350 . S
C2467 H2454 0.929 . S
C2467 C2459 1.433 . S
C2467 N2469 1.384 . S
N2468 C2464 1.427 . S
N2468 C2465 1.384 . S
N2469 C2461 1.427 . S
N2469 C2467 1.384 . S
H2470 C2476 0.930 . S
H2471 C2480 0.930 . S
H2472 C2485 0.929 . S
H2473 C2483 0.929 . S
H2474 C2478 0.929 . S
H2475 C2484 0.929 . S
C2476 H2470 0.930 . S
C2476 C2477 1.367 . S
C2476 C2484 1.378 . S
C2477 C2476 1.367 . S
C2477 C2485 1.433 . S
C2478 H2474 0.929 . S
C2478 C2480 1.378 . S
C2478 C2482 1.350 . S
C2479 C2482 1.463 . S
C2479 C2484 1.350 . S
C2479 N2487 1.427 . S
C2480 H2471 0.930 . S
C2480 C2478 1.378 . S
C2480 C2481 1.367 . S
C2481 C2480 1.367 . S
C2481 C2483 1.433 . S
C2482 C2478 1.350 . S
C2482 C2479 1.463 . S
C2482 N2486 1.427 . S
C2483 H2473 0.929 . S
C2483 C2481 1.433 . S
C2483 N2486 1.384 . S
C2484 H2475 0.929 . S
C2484 C2476 1.378 . S
C2484 C2479 1.350 . S
C2485 H2472 0.929 . S
C2485 C2477 1.433 . S
C2485 N2487 1.384 . S
N2486 C2482 1.427 . S
N2486 C2483 1.384 . S
N2487 C2479 1.427 . S
N2487 C2485 1.384 . S
H2488 C2494 0.930 . S
H2489 C2498 0.930 . S
H2490 C2503 0.929 . S
H2491 C2501 0.929 . S
H2492 C2496 0.947 . S
H2493 C2502 0.936 1_556 S
C2494 H2488 0.930 . S
C2494 C2495 1.367 . S
C2494 C2502 1.378 . S
C2495 C2494 1.367 . S
C2495 C2503 1.433 . S
C2496 H2492 0.947 . S
C2496 C2498 1.362 1_554 S
C2496 C2500 1.348 1_554 S
C2497 C2500 1.463 1_554 S
C2497 C2502 1.350 . S
C2497 N2505 1.427 . S
C2498 H2489 0.930 . S
C2498 C2496 1.362 1_556 S
C2498 C2499 1.367 . S
C2499 C2498 1.367 . S
C2499 C2501 1.433 . S
C2500 C2496 1.348 1_556 S
C2500 C2497 1.463 1_556 S
C2500 N2504 1.427 . S
C2501 H2491 0.929 . S
C2501 C2499 1.433 . S
C2501 N2504 1.384 . S
C2502 H2493 0.936 1_554 S
C2502 C2494 1.378 . S
C2502 C2497 1.350 . S
C2503 H2490 0.929 . S
C2503 C2495 1.433 . S
C2503 N2505 1.384 . S
N2504 C2500 1.427 . S
N2504 C2501 1.384 . S
N2505 C2497 1.427 . S
N2505 C2503 1.384 . S
H2506 C2512 0.930 . S
H2507 C2516 0.930 . S
H2508 C2521 0.929 . S
H2509 C2519 0.929 . S
H2510 C2514 0.929 . S
H2511 C2520 0.929 . S
C2512 H2506 0.930 . S
C2512 C2513 1.367 . S
C2512 C2520 1.378 . S
C2513 C2512 1.367 . S
C2513 C2521 1.433 . S
C2514 H2510 0.929 . S
C2514 C2516 1.378 . S
C2514 C2518 1.350 . S
C2515 C2518 1.476 . S
C2515 C2520 1.341 1_655 S
C2515 N2523 1.424 1_655 S
C2516 H2507 0.930 . S
C2516 C2514 1.378 . S
C2516 C2517 1.367 . S
C2517 C2516 1.367 . S
C2517 C2519 1.433 . S
C2518 C2514 1.350 . S
C2518 C2515 1.476 . S
C2518 N2522 1.427 . S
C2519 H2509 0.929 . S
C2519 C2517 1.433 . S
C2519 N2522 1.384 . S
C2520 H2511 0.929 . S
C2520 C2512 1.378 . S
C2520 C2515 1.341 1_455 S
C2521 H2508 0.929 . S
C2521 C2513 1.433 . S
C2521 N2523 1.384 . S
N2522 C2518 1.427 . S
N2522 C2519 1.384 . S
N2523 C2515 1.424 1_455 S
N2523 C2521 1.384 . S
H2524 C2530 0.930 1_655 S
H2525 C2534 0.930 . S
H2526 C2539 0.929 . S
H2527 C2537 0.929 . S
H2528 C2532 0.929 1_455 S
H2529 C2538 0.929 . S
C2530 H2524 0.930 1_455 S
C2530 C2531 1.367 . S
C2530 C2538 1.378 1_455 S
C2531 C2530 1.367 . S
C2531 C2539 1.433 . S
C2532 H2528 0.929 1_655 S
C2532 C2534 1.378 . S
C2532 C2536 1.350 . S
C2533 C2536 1.463 1_554 S
C2533 C2538 1.350 . S
C2533 N2541 1.419 1_654 S
C2534 H2525 0.930 . S
C2534 C2532 1.378 . S
C2534 C2535 1.367 . S
C2535 C2534 1.367 . S
C2535 C2537 1.433 . S
C2536 C2532 1.350 . S
C2536 C2533 1.463 1_556 S
C2536 N2540 1.427 . S
C2537 H2527 0.929 . S
C2537 C2535 1.433 . S
C2537 N2540 1.384 . S
C2538 H2529 0.929 . S
C2538 C2530 1.378 1_655 S
C2538 C2533 1.350 . S
C2539 H2526 0.929 . S
C2539 C2531 1.433 . S
C2539 N2541 1.338 1_554 S
N2540 C2536 1.427 . S
N2540 C2537 1.384 . S
N2541 C2533 1.419 1_456 S
N2541 C2539 1.338 1_556 S
H2542 C2548 0.930 . S
H2543 C2552 0.930 . S
H2544 C2557 0.929 . S
H2545 C2555 0.929 . S
H2546 C2550 0.929 . S
H2547 C2556 0.929 . S
C2548 H2542 0.930 . S
C2548 C2549 1.367 . S
C2548 C2556 1.378 . S
C2549 C2548 1.367 . S
C2549 C2557 1.433 . S
C2550 H2546 0.929 . S
C2550 C2552 1.378 . S
C2550 C2554 1.350 . S
C2551 C2554 1.463 . S
C2551 C2556 1.350 . S
C2551 N2559 1.427 . S
C2552 H2543 0.930 . S
C2552 C2550 1.378 . S
C2552 C2553 1.367 . S
C2553 C2552 1.367 . S
C2553 C2555 1.433 . S
C2554 C2550 1.350 . S
C2554 C2551 1.463 . S
C2554 N2558 1.427 . S
C2555 H2545 0.929 . S
C2555 C2553 1.433 . S
C2555 N2558 1.384 . S
C2556 H2547 0.929 . S
C2556 C2548 1.378 . S
C2556 C2551 1.350 . S
C2557 H2544 0.929 . S
C2557 C2549 1.433 . S
C2557 N2559 1.384 . S
N2558 C2554 1.427 . S
N2558 C2555 1.384 . S
N2559 C2551 1.427 . S
N2559 C2557 1.384 . S
H2560 C2566 0.930 . S
H2561 C2570 0.930 . S
H2562 C2575 0.929 . S
H2563 C2573 0.929 . S
H2564 C2568 0.929 . S
H2565 C2574 0.929 . S
C2566 H2560 0.930 . S
C2566 C2567 1.367 . S
C2566 C2574 1.378 1_545 S
C2567 C2566 1.367 . S
C2567 C2575 1.433 . S
C2568 H2564 0.929 . S
C2568 C2570 1.378 1_545 S
C2568 C2572 1.350 1_545 S
C2569 C2572 1.463 1_545 S
C2569 C2574 1.350 1_545 S
C2569 N2577 1.427 . S
C2570 H2561 0.930 . S
C2570 C2568 1.378 1_565 S
C2570 C2571 1.367 . S
C2571 C2570 1.367 . S
C2571 C2573 1.433 . S
C2572 C2568 1.350 1_565 S
C2572 C2569 1.463 1_565 S
C2572 N2576 1.427 . S
C2573 H2563 0.929 . S
C2573 C2571 1.433 . S
C2573 N2576 1.384 . S
C2574 H2565 0.929 . S
C2574 C2566 1.378 1_565 S
C2574 C2569 1.350 1_565 S
C2575 H2562 0.929 . S
C2575 C2567 1.433 . S
C2575 N2577 1.384 . S
N2576 C2572 1.427 . S
N2576 C2573 1.384 . S
N2577 C2569 1.427 . S
N2577 C2575 1.384 . S
H2578 C2584 0.930 . S
H2579 C2588 0.930 . S
H2580 C2593 0.929 . S
H2581 C2591 0.929 . S
H2582 C2586 0.929 . S
H2583 C2592 0.929 . S
C2584 H2578 0.930 . S
C2584 C2585 1.367 . S
C2584 C2592 1.378 . S
C2585 C2584 1.367 . S
C2585 C2593 1.433 . S
C2586 H2582 0.929 . S
C2586 C2588 1.378 . S
C2586 C2590 1.350 . S
C2587 C2590 1.463 . S
C2587 C2592 1.350 . S
C2587 N2595 1.427 . S
C2588 H2579 0.930 . S
C2588 C2586 1.378 . S
C2588 C2589 1.367 . S
C2589 C2588 1.367 . S
C2589 C2591 1.433 . S
C2590 C2586 1.350 . S
C2590 C2587 1.463 . S
C2590 N2594 1.427 . S
C2591 H2581 0.929 . S
C2591 C2589 1.433 . S
C2591 N2594 1.384 . S
C2592 H2583 0.929 . S
C2592 C2584 1.378 . S
C2592 C2587 1.350 . S
C2593 H2580 0.929 . S
C2593 C2585 1.433 . S
C2593 N2595 1.384 . S
N2594 C2590 1.427 . S
N2594 C2591 1.384 . S
N2595 C2587 1.427 . S
N2595 C2593 1.384 . S
H2596 C2602 0.930 . S
H2597 C2606 0.930 . S
H2598 C2611 0.929 . S
H2599 C2609 0.929 . S
H2600 C2604 0.929 . S
H2601 C2610 0.929 . S
C2602 H2596 0.930 . S
C2602 C2603 1.367 . S
C2602 C2610 1.378 . S
C2603 C2602 1.367 . S
C2603 C2611 1.433 . S
C2604 H2600 0.929 . S
C2604 C2606 1.378 . S
C2604 C2608 1.350 . S
C2605 C2608 1.463 1_545 S
C2605 C2610 1.350 . S
C2605 N2613 1.427 1_545 S
C2606 H2597 0.930 . S
C2606 C2604 1.378 . S
C2606 C2607 1.367 . S
C2607 C2606 1.367 . S
C2607 C2609 1.433 . S
C2608 C2604 1.350 . S
C2608 C2605 1.463 1_565 S
C2608 N2612 1.427 1_565 S
C2609 H2599 0.929 . S
C2609 C2607 1.433 . S
C2609 N2612 1.384 1_565 S
C2610 H2601 0.929 . S
C2610 C2602 1.378 . S
C2610 C2605 1.350 . S
C2611 H2598 0.929 . S
C2611 C2603 1.433 . S
C2611 N2613 1.384 1_545 S
N2612 C2608 1.427 1_545 S
N2612 C2609 1.384 1_545 S
N2613 C2605 1.427 1_565 S
N2613 C2611 1.384 1_565 S
H2614 C2620 0.930 . S
H2615 C2624 0.930 . S
H2616 C2629 0.929 . S
H2617 C2627 0.929 . S
H2618 C2622 0.929 1_554 S
H2619 C2628 0.929 1_556 S
C2620 H2614 0.930 . S
C2620 C2621 1.367 . S
C2620 C2628 1.378 . S
C2621 C2620 1.367 . S
C2621 C2629 1.433 . S
C2622 H2618 0.929 1_556 S
C2622 C2624 1.378 . S
C2622 C2626 1.350 . S
C2623 C2626 1.463 1_554 S
C2623 C2628 1.350 . S
C2623 N2631 1.427 . S
C2624 H2615 0.930 . S
C2624 C2622 1.378 . S
C2624 C2625 1.367 . S
C2625 C2624 1.367 . S
C2625 C2627 1.433 . S
C2626 C2622 1.350 . S
C2626 C2623 1.463 1_556 S
C2626 N2630 1.427 . S
C2627 H2617 0.929 . S
C2627 C2625 1.433 . S
C2627 N2630 1.384 . S
C2628 H2619 0.929 1_554 S
C2628 C2620 1.378 . S
C2628 C2623 1.350 . S
C2629 H2616 0.929 . S
C2629 C2621 1.433 . S
C2629 N2631 1.384 . S
N2630 C2626 1.427 . S
N2630 C2627 1.384 . S
N2631 C2623 1.427 . S
N2631 C2629 1.384 . S
H2632 C2638 0.930 . S
H2633 C2642 0.930 . S
H2634 C2647 0.929 . S
H2635 C2645 0.929 . S
H2636 C2640 0.908 1_545 S
H2637 C2646 0.908 1_565 S
C2638 H2632 0.930 . S
C2638 C2639 1.367 . S
C2638 C2646 1.392 . S
C2639 C2638 1.367 . S
C2639 C2647 1.433 . S
C2640 H2636 0.908 1_565 S
C2640 C2642 1.392 . S
C2640 C2644 1.357 . S
C2641 C2644 1.463 1_545 S
C2641 C2646 1.357 . S
C2641 N2649 1.427 . S
C2642 H2633 0.930 . S
C2642 C2640 1.392 . S
C2642 C2643 1.367 . S
C2643 C2642 1.367 . S
C2643 C2645 1.433 . S
C2644 C2640 1.357 . S
C2644 C2641 1.463 1_565 S
C2644 N2648 1.427 . S
C2645 H2635 0.929 . S
C2645 C2643 1.433 . S
C2645 N2648 1.384 . S
C2646 H2637 0.908 1_545 S
C2646 C2638 1.392 . S
C2646 C2641 1.357 . S
C2647 H2634 0.929 . S
C2647 C2639 1.433 . S
C2647 N2649 1.384 . S
N2648 C2644 1.427 . S
N2648 C2645 1.384 . S
N2649 C2641 1.427 . S
N2649 C2647 1.384 . S
H2650 C2656 0.930 . S
H2651 C2660 0.930 . S
H2652 C2665 0.929 . S
H2653 C2663 0.929 . S
H2654 C2658 0.929 . S
H2655 C2664 0.929 . S
C2656 H2650 0.930 . S
C2656 C2657 1.367 1_565 S
C2656 C2664 1.378 . S
C2657 C2656 1.367 1_545 S
C2657 C2665 1.433 . S
C2658 H2654 0.929 . S
C2658 C2660 1.378 . S
C2658 C2662 1.350 . S
C2659 C2662 1.463 . S
C2659 C2664 1.350 1_545 S
C2659 N2667 1.427 . S
C2660 H2651 0.930 . S
C2660 C2658 1.378 . S
C2660 C2661 1.367 . S
C2661 C2660 1.367 . S
C2661 C2663 1.433 1_545 S
C2662 C2658 1.350 . S
C2662 C2659 1.463 . S
C2662 N2666 1.427 1_545 S
C2663 H2653 0.929 . S
C2663 C2661 1.433 1_565 S
C2663 N2666 1.384 . S
C2664 H2655 0.929 . S
C2664 C2656 1.378 . S
C2664 C2659 1.350 1_565 S
C2665 H2652 0.929 . S
C2665 C2657 1.433 . S
C2665 N2667 1.384 . S
N2666 C2662 1.427 1_565 S
N2666 C2663 1.384 . S
N2667 C2659 1.427 . S
N2667 C2665 1.384 . S
H2668 C2674 0.930 . S
H2669 C2678 0.930 . S
H2670 C2683 0.929 . S
H2671 C2681 0.929 . S
H2672 C2676 0.929 . S
H2673 C2682 0.929 . S
C2674 H2668 0.930 . S
C2674 C2675 1.367 . S
C2674 C2682 1.378 . S
C2675 C2674 1.367 . S
C2675 C2683 1.433 . S
C2676 H2672 0.929 . S
C2676 C2678 1.378 . S
C2676 C2680 1.350 . S
C2677 C2680 1.463 1_545 S
C2677 C2682 1.350 . S
C2677 N2685 1.427 . S
C2678 H2669 0.930 . S
C2678 C2676 1.378 . S
C2678 C2679 1.367 . S
C2679 C2678 1.367 . S
C2679 C2681 1.433 . S
C2680 C2676 1.350 . S
C2680 C2677 1.463 1_565 S
C2680 N2684 1.427 . S
C2681 H2671 0.929 . S
C2681 C2679 1.433 . S
C2681 N2684 1.384 . S
C2682 H2673 0.929 . S
C2682 C2674 1.378 . S
C2682 C2677 1.350 . S
C2683 H2670 0.929 . S
C2683 C2675 1.433 . S
C2683 N2685 1.384 . S
N2684 C2680 1.427 . S
N2684 C2681 1.384 . S
N2685 C2677 1.427 . S
N2685 C2683 1.384 . S
H2686 C2692 0.930 . S
H2687 C2696 0.930 . S
H2688 C2701 0.929 . S
H2689 C2699 0.929 . S
H2690 C2694 0.936 1_556 S
H2691 C2700 0.936 1_554 S
C2692 H2686 0.930 . S
C2692 C2693 1.367 . S
C2692 C2700 1.373 . S
C2693 C2692 1.367 . S
C2693 C2701 1.433 1_565 S
C2694 H2690 0.936 1_554 S
C2694 C2696 1.373 . S
C2694 C2698 1.348 1_545 S
C2695 C2698 1.463 1_556 S
C2695 C2700 1.348 . S
C2695 N2703 1.427 1_565 S
C2696 H2687 0.930 . S
C2696 C2694 1.373 . S
C2696 C2697 1.367 1_545 S
C2697 C2696 1.367 1_565 S
C2697 C2699 1.433 . S
C2698 C2694 1.348 1_565 S
C2698 C2695 1.463 1_554 S
C2698 N2702 1.427 . S
C2699 H2689 0.929 . S
C2699 C2697 1.433 . S
C2699 N2702 1.384 . S
C2700 H2691 0.936 1_556 S
C2700 C2692 1.373 . S
C2700 C2695 1.348 . S
C2701 H2688 0.929 . S
C2701 C2693 1.433 1_545 S
C2701 N2703 1.384 . S
N2702 C2698 1.427 . S
N2702 C2699 1.384 . S
N2703 C2695 1.427 1_545 S
N2703 C2701 1.384 . S
H2704 C2710 0.930 . S
H2705 C2714 0.930 . S
H2706 C2719 0.929 . S
H2707 C2717 0.929 . S
H2708 C2712 0.929 . S
H2709 C2718 0.929 . S
C2710 H2704 0.930 . S
C2710 C2711 1.367 . S
C2710 C2718 1.378 . S
C2711 C2710 1.367 . S
C2711 C2719 1.433 . S
C2712 H2708 0.929 . S
C2712 C2714 1.378 . S
C2712 C2716 1.350 . S
C2713 C2716 1.463 . S
C2713 C2718 1.350 . S
C2713 N2721 1.427 . S
C2714 H2705 0.930 . S
C2714 C2712 1.378 . S
C2714 C2715 1.367 . S
C2715 C2714 1.367 . S
C2715 C2717 1.433 . S
C2716 C2712 1.350 . S
C2716 C2713 1.463 . S
C2716 N2720 1.427 . S
C2717 H2707 0.929 . S
C2717 C2715 1.433 . S
C2717 N2720 1.384 . S
C2718 H2709 0.929 . S
C2718 C2710 1.378 . S
C2718 C2713 1.350 . S
C2719 H2706 0.929 . S
C2719 C2711 1.433 . S
C2719 N2721 1.384 . S
N2720 C2716 1.427 . S
N2720 C2717 1.384 . S
N2721 C2713 1.427 . S
N2721 C2719 1.384 . S
H2722 C2728 0.930 . S
H2723 C2732 0.930 . S
H2724 C2737 0.929 . S
H2725 C2735 0.929 . S
H2726 C2730 0.929 . S
H2727 C2736 0.929 . S
C2728 H2722 0.930 . S
C2728 C2729 1.367 . S
C2728 C2736 1.378 . S
C2729 C2728 1.367 . S
C2729 C2737 1.433 . S
C2730 H2726 0.929 . S
C2730 C2732 1.378 . S
C2730 C2734 1.350 . S
C2731 C2734 1.463 1_556 S
C2731 C2736 1.350 . S
C2731 N2739 1.427 . S
C2732 H2723 0.930 . S
C2732 C2730 1.378 . S
C2732 C2733 1.367 . S
C2733 C2732 1.367 . S
C2733 C2735 1.433 . S
C2734 C2730 1.350 . S
C2734 C2731 1.463 1_554 S
C2734 N2738 1.427 . S
C2735 H2725 0.929 . S
C2735 C2733 1.433 . S
C2735 N2738 1.384 . S
C2736 H2727 0.929 . S
C2736 C2728 1.378 . S
C2736 C2731 1.350 . S
C2737 H2724 0.929 . S
C2737 C2729 1.433 . S
C2737 N2739 1.384 . S
N2738 C2734 1.427 . S
N2738 C2735 1.384 . S
N2739 C2731 1.427 . S
N2739 C2737 1.384 . S
H2740 C2746 0.930 . S
H2741 C2750 0.930 . S
H2742 C2755 0.929 . S
H2743 C2753 0.929 . S
H2744 C2748 0.929 . S
H2745 C2754 0.929 . S
C2746 H2740 0.930 . S
C2746 C2747 1.367 . S
C2746 C2754 1.378 . S
C2747 C2746 1.367 . S
C2747 C2755 1.433 . S
C2748 H2744 0.929 . S
C2748 C2750 1.378 . S
C2748 C2752 1.350 . S
C2749 C2752 1.463 . S
C2749 C2754 1.350 . S
C2749 N2757 1.427 . S
C2750 H2741 0.930 . S
C2750 C2748 1.378 . S
C2750 C2751 1.367 . S
C2751 C2750 1.367 . S
C2751 C2753 1.433 . S
C2752 C2748 1.350 . S
C2752 C2749 1.463 . S
C2752 N2756 1.427 . S
C2753 H2743 0.929 . S
C2753 C2751 1.433 . S
C2753 N2756 1.384 . S
C2754 H2745 0.929 . S
C2754 C2746 1.378 . S
C2754 C2749 1.350 . S
C2755 H2742 0.929 . S
C2755 C2747 1.433 . S
C2755 N2757 1.384 . S
N2756 C2752 1.427 . S
N2756 C2753 1.384 . S
N2757 C2749 1.427 . S
N2757 C2755 1.384 . S
H2758 C2764 0.930 . S
H2759 C2768 0.930 . S
H2760 C2773 0.929 . S
H2761 C2771 0.929 . S
H2762 C2766 0.929 . S
H2763 C2772 0.929 . S
C2764 H2758 0.930 . S
C2764 C2765 1.367 . S
C2764 C2772 1.378 . S
C2765 C2764 1.367 . S
C2765 C2773 1.433 . S
C2766 H2762 0.929 . S
C2766 C2768 1.378 . S
C2766 C2770 1.350 . S
C2767 C2770 1.463 . S
C2767 C2772 1.350 . S
C2767 N2775 1.427 . S
C2768 H2759 0.930 . S
C2768 C2766 1.378 . S
C2768 C2769 1.367 . S
C2769 C2768 1.367 . S
C2769 C2771 1.433 . S
C2770 C2766 1.350 . S
C2770 C2767 1.463 . S
C2770 N2774 1.427 . S
C2771 H2761 0.929 . S
C2771 C2769 1.433 . S
C2771 N2774 1.384 . S
C2772 H2763 0.929 . S
C2772 C2764 1.378 . S
C2772 C2767 1.350 . S
C2773 H2760 0.929 . S
C2773 C2765 1.433 . S
C2773 N2775 1.384 . S
N2774 C2770 1.427 . S
N2774 C2771 1.384 . S
N2775 C2767 1.427 . S
N2775 C2773 1.384 . S
H2776 C2782 0.930 . S
H2777 C2786 0.930 . S
H2778 C2791 0.929 . S
H2779 C2789 0.929 . S
H2780 C2784 0.929 . S
H2781 C2790 0.929 . S
C2782 H2776 0.930 . S
C2782 C2783 1.367 . S
C2782 C2790 1.378 . S
C2783 C2782 1.367 . S
C2783 C2791 1.433 . S
C2784 H2780 0.929 . S
C2784 C2786 1.378 . S
C2784 C2788 1.350 . S
C2785 C2788 1.463 . S
C2785 C2790 1.350 . S
C2785 N2793 1.427 . S
C2786 H2777 0.930 . S
C2786 C2784 1.378 . S
C2786 C2787 1.367 . S
C2787 C2786 1.367 . S
C2787 C2789 1.433 . S
C2788 C2784 1.350 . S
C2788 C2785 1.463 . S
C2788 N2792 1.427 . S
C2789 H2779 0.929 . S
C2789 C2787 1.433 . S
C2789 N2792 1.384 . S
C2790 H2781 0.929 . S
C2790 C2782 1.378 . S
C2790 C2785 1.350 . S
C2791 H2778 0.929 . S
C2791 C2783 1.433 . S
C2791 N2793 1.384 . S
N2792 C2788 1.427 . S
N2792 C2789 1.384 . S
N2793 C2785 1.427 . S
N2793 C2791 1.384 . S
H2794 C2800 0.930 . S
H2795 C2804 0.930 . S
H2796 C2809 0.929 . S
H2797 C2807 0.929 . S
H2798 C2802 0.929 . S
H2799 C2808 0.929 . S
C2800 H2794 0.930 . S
C2800 C2801 1.367 . S
C2800 C2808 1.378 . S
C2801 C2800 1.367 . S
C2801 C2809 1.433 . S
C2802 H2798 0.929 . S
C2802 C2804 1.378 . S
C2802 C2806 1.350 . S
C2803 C2806 1.463 1_556 S
C2803 C2808 1.350 . S
C2803 N2811 1.427 . S
C2804 H2795 0.930 . S
C2804 C2802 1.378 . S
C2804 C2805 1.367 . S
C2805 C2804 1.367 . S
C2805 C2807 1.433 . S
C2806 C2802 1.350 . S
C2806 C2803 1.463 1_554 S
C2806 N2810 1.427 . S
C2807 H2797 0.929 . S
C2807 C2805 1.433 . S
C2807 N2810 1.384 . S
C2808 H2799 0.929 . S
C2808 C2800 1.378 . S
C2808 C2803 1.350 . S
C2809 H2796 0.929 . S
C2809 C2801 1.433 . S
C2809 N2811 1.384 . S
N2810 C2806 1.427 . S
N2810 C2807 1.384 . S
N2811 C2803 1.427 . S
N2811 C2809 1.384 . S
H2812 C2818 0.930 . S
H2813 C2822 0.930 . S
H2814 C2827 0.929 . S
H2815 C2825 0.929 . S
H2816 C2820 0.929 . S
H2817 C2826 0.929 . S
C2818 H2812 0.930 . S
C2818 C2819 1.367 . S
C2818 C2826 1.378 . S
C2819 C2818 1.367 . S
C2819 C2827 1.433 . S
C2820 H2816 0.929 . S
C2820 C2822 1.378 . S
C2820 C2824 1.350 . S
C2821 C2824 1.463 . S
C2821 C2826 1.350 . S
C2821 N2829 1.427 . S
C2822 H2813 0.930 . S
C2822 C2820 1.378 . S
C2822 C2823 1.367 . S
C2823 C2822 1.367 . S
C2823 C2825 1.433 . S
C2824 C2820 1.350 . S
C2824 C2821 1.463 . S
C2824 N2828 1.427 . S
C2825 H2815 0.929 . S
C2825 C2823 1.433 . S
C2825 N2828 1.384 . S
C2826 H2817 0.929 . S
C2826 C2818 1.378 . S
C2826 C2821 1.350 . S
C2827 H2814 0.929 . S
C2827 C2819 1.433 . S
C2827 N2829 1.384 . S
N2828 C2824 1.427 . S
N2828 C2825 1.384 . S
N2829 C2821 1.427 . S
N2829 C2827 1.384 . S
H2830 C2836 0.930 . S
H2831 C2840 0.930 . S
H2832 C2845 0.929 . S
H2833 C2843 0.929 . S
H2834 C2838 0.929 . S
H2835 C2844 0.929 . S
C2836 H2830 0.930 . S
C2836 C2837 1.367 . S
C2836 C2844 1.378 . S
C2837 C2836 1.367 . S
C2837 C2845 1.433 . S
C2838 H2834 0.929 . S
C2838 C2840 1.378 . S
C2838 C2842 1.350 . S
C2839 C2842 1.463 . S
C2839 C2844 1.350 . S
C2839 N2847 1.427 . S
C2840 H2831 0.930 . S
C2840 C2838 1.378 . S
C2840 C2841 1.367 . S
C2841 C2840 1.367 . S
C2841 C2843 1.433 . S
C2842 C2838 1.350 . S
C2842 C2839 1.463 . S
C2842 N2846 1.427 . S
C2843 H2833 0.929 . S
C2843 C2841 1.433 . S
C2843 N2846 1.384 . S
C2844 H2835 0.929 . S
C2844 C2836 1.378 . S
C2844 C2839 1.350 . S
C2845 H2832 0.929 . S
C2845 C2837 1.433 . S
C2845 N2847 1.384 . S
N2846 C2842 1.427 . S
N2846 C2843 1.384 . S
N2847 C2839 1.427 . S
N2847 C2845 1.384 . S
C1703 C1469 1.622 . S
C1707 C29 1.642 . S
C1721 C82 1.250 . S
C1725 C453 1.231 . S
C1739 C1363 1.622 . S
C1743 C135 1.640 . S
C1757 C188 1.251 . S
C1761 C559 1.240 . S
C1775 C241 1.641 . S
C1779 C1575 1.617 . S
C1793 C294 1.253 . S
C1797 C771 1.236 . S
C1811 C347 1.636 . S
C1815 C1681 1.616 . S
C1829 C400 1.245 . S
C1833 C665 1.228 . S
C1847 C1045 1.970 . S
C1851 C462 1.999 . S
C1865 C38 1.405 . S
C1869 C506 1.414 1_455 S
C1883 C939 1.964 . S
C1887 C568 1.997 . S
C1901 C612 1.408 . S
C1905 C144 1.403 . S
C1919 C1151 1.970 . S
C1923 C674 1.999 . S
C1937 C356 1.408 . S
C1941 C718 1.409 . S
C1955 C780 1.999 . S
C1959 C1257 1.971 . S
C1973 C250 1.408 . S
C1977 C824 1.414 1_455 S
C1991 C877 1.635 . S
C1995 C621 1.614 . S
C2009 C930 1.253 . S
C2013 C1301 1.238 . S
C2027 C515 1.615 . S
C2031 C983 1.640 . S
C2045 C1407 1.228 . S
C2049 C1036 1.246 . S
C2063 C727 1.622 . S
C2067 C1089 1.641 . S
C2081 C1619 1.236 . S
C2085 C1142 1.248 . S
C2099 C833 1.615 . S
C2103 C1195 1.636 . S
C2117 C1248 1.252 . S
C2121 C1513 1.241 . S
C2135 C197 1.966 . S
C2139 C1310 1.999 . S
C2153 C1354 1.408 . S
C2157 C886 1.405 . S
C2171 C1416 1.999 . S
C2175 C91 1.971 . S
C2189 C1460 1.411 1_655 S
C2193 C992 1.402 . S
C2207 C1522 1.996 . S
C2211 C303 1.968 . S
C2225 C1566 1.408 1_655 S
C2229 C1204 1.403 . S
C2243 C1628 1.998 . S
C2247 C409 1.964 . S
C2261 C1672 1.414 . S
C2265 C1098 1.407 . S
C2279 C1294 1.581 . S
C2283 C39 1.599 . S
C2297 C92 2.291 . S
C2301 C516 2.266 . S
C2315 C1400 1.577 . S
C2319 C145 1.596 . S
C2333 C198 2.282 . S
C2337 C622 2.255 . S
C2351 C1506 1.572 . S
C2355 C251 1.591 . S
C2369 C304 2.281 . S
C2373 C728 2.255 . S
C2387 C1612 1.579 . S
C2391 C357 1.597 . S
C2405 C410 2.286 . S
C2409 C834 2.261 . S
C2423 C446 1.578 . S
C2427 C887 1.597 . S
C2441 C552 1.582 . S
C2445 C993 1.600 . S
C2459 C658 1.582 . S
C2463 C1099 1.600 . S
C2477 C764 1.584 . S
C2481 C1205 1.601 . S
C2495 C940 2.290 . S
C2499 C1364 2.265 . S
C2513 C1470 2.266 . S
C2517 C1046 2.291 . S
C2531 C1576 2.260 . S
C2535 C1152 2.285 . S
C2549 C1258 2.290 . S
C2553 C1682 2.265 . S
C2567 C22 1.619 . S
C2571 C234 1.621 . S
C2585 C75 1.827 . S
C2589 C287 1.828 . S
C2603 C340 1.616 . S
C2607 C128 1.615 . S
C2621 C181 1.827 . S
C2625 C393 1.829 . S
C2639 C675 2.026 . S
C2643 C463 2.025 . S
C2657 C711 1.917 . S
C2661 C499 1.914 . S
C2675 C569 2.026 . S
C2679 C781 2.024 . S
C2693 C605 1.916 . S
C2697 C817 1.917 . S
C2711 C1082 1.618 . S
C2715 C870 1.621 . S
C2729 C1135 1.829 . S
C2733 C923 1.831 . S
C2747 C976 1.619 . S
C2751 C1188 1.622 . S
C2765 C1241 1.830 . S
C2769 C1029 1.828 . S
C2783 C1523 2.026 . S
C2787 C1311 2.024 . S
C2801 C1347 1.913 . S
C2805 C1559 1.916 . S
C2819 C1629 2.024 . S
C2823 C1417 2.025 . S
C2837 C1453 1.914 . S
C2841 C1665 1.917 . S
