# Generated by pormake.
# Topology ukh, (4)-cn, num edge types: 1
# Building blocks:
#     Node 0, Type 0, BuildingBlock: CEKHIL_clean_sbu_0, # of connection points: 4
#     Node 1, Type 0, BuildingBlock: CEKHIL_clean_sbu_0, # of connection points: 4
#     Node 2, Type 0, BuildingBlock: CEKHIL_clean_sbu_0, # of connection points: 4
#     Node 3, Type 0, BuildingBlock: CEKHIL_clean_sbu_0, # of connection points: 4
#     Node 4, Type 0, BuildingBlock: CEKHIL_clean_sbu_0, # of connection points: 4
#     Node 5, Type 0, BuildingBlock: CEKHIL_clean_sbu_0, # of connection points: 4
#     Node 6, Type 0, BuildingBlock: CEKHIL_clean_sbu_0, # of connection points: 4
#     Node 7, Type 0, BuildingBlock: CEKHIL_clean_sbu_0, # of connection points: 4
#     Node 8, Type 0, BuildingBlock: CEKHIL_clean_sbu_0, # of connection points: 4
#     Node 9, Type 0, BuildingBlock: CEKHIL_clean_sbu_0, # of connection points: 4
#     Node 10, Type 0, BuildingBlock: CEKHIL_clean_sbu_0, # of connection points: 4
#     Node 11, Type 0, BuildingBlock: CEKHIL_clean_sbu_0, # of connection points: 4
#     Edge 12, Type (0, 0), BuildingBlock: UVAHIK_clean_linker_0, # of connection points: 2
#     Edge 13, Type (0, 0), BuildingBlock: UVAHIK_clean_linker_0, # of connection points: 2
#     Edge 14, Type (0, 0), BuildingBlock: UVAHIK_clean_linker_0, # of connection points: 2
#     Edge 15, Type (0, 0), BuildingBlock: UVAHIK_clean_linker_0, # of connection points: 2
#     Edge 16, Type (0, 0), BuildingBlock: UVAHIK_clean_linker_0, # of connection points: 2
#     Edge 17, Type (0, 0), BuildingBlock: UVAHIK_clean_linker_0, # of connection points: 2
#     Edge 18, Type (0, 0), BuildingBlock: UVAHIK_clean_linker_0, # of connection points: 2
#     Edge 19, Type (0, 0), BuildingBlock: UVAHIK_clean_linker_0, # of connection points: 2
#     Edge 20, Type (0, 0), BuildingBlock: UVAHIK_clean_linker_0, # of connection points: 2
#     Edge 21, Type (0, 0), BuildingBlock: UVAHIK_clean_linker_0, # of connection points: 2
#     Edge 22, Type (0, 0), BuildingBlock: UVAHIK_clean_linker_0, # of connection points: 2
#     Edge 23, Type (0, 0), BuildingBlock: UVAHIK_clean_linker_0, # of connection points: 2
#     Edge 24, Type (0, 0), BuildingBlock: UVAHIK_clean_linker_0, # of connection points: 2
#     Edge 25, Type (0, 0), BuildingBlock: UVAHIK_clean_linker_0, # of connection points: 2
#     Edge 26, Type (0, 0), BuildingBlock: UVAHIK_clean_linker_0, # of connection points: 2
#     Edge 27, Type (0, 0), BuildingBlock: UVAHIK_clean_linker_0, # of connection points: 2
#     Edge 28, Type (0, 0), BuildingBlock: UVAHIK_clean_linker_0, # of connection points: 2
#     Edge 29, Type (0, 0), BuildingBlock: UVAHIK_clean_linker_0, # of connection points: 2
#     Edge 30, Type (0, 0), BuildingBlock: UVAHIK_clean_linker_0, # of connection points: 2
#     Edge 31, Type (0, 0), BuildingBlock: UVAHIK_clean_linker_0, # of connection points: 2
#     Edge 32, Type (0, 0), BuildingBlock: UVAHIK_clean_linker_0, # of connection points: 2
#     Edge 33, Type (0, 0), BuildingBlock: UVAHIK_clean_linker_0, # of connection points: 2
#     Edge 34, Type (0, 0), BuildingBlock: UVAHIK_clean_linker_0, # of connection points: 2
#     Edge 35, Type (0, 0), BuildingBlock: UVAHIK_clean_linker_0, # of connection points: 2
# Relax obj value: 0.070
# Max RMSD: 0.090
# Mean RMSD: 0.090
data_MOF--net-ukh--node1-CEKHIL_clean_sbu_0--edge1-UVAHIK_clean_linker_0
_symmetry_space_group_name_H-M    P1
_symmetry_Int_Tables_number       1
_symmetry_cell_setting            triclinic
loop_
_symmetry_equiv_pos_as_xyz
'x, y, z'
_cell_length_a     41.760726
_cell_length_b     41.748845
_cell_length_c     78.452848
_cell_angle_alpha  90.01352
_cell_angle_beta   90.000496
_cell_angle_gamma 120.01222
loop_
_atom_site_label
_atom_site_type_symbol
_atom_site_fract_x
_atom_site_fract_y
_atom_site_fract_z
_atom_type_partial_charge
Co0 Co 0.32077 0.246 0.05326 0.0
O1 O 0.33587 0.29666 0.05767 0.0
O2 O 0.37208 0.27792 0.04626 0.0
C3 C 0.26666 0.23209 0.04086 0.0
O4 O 0.31229 0.19498 0.0464 0.0
Co5 Co 0.24978 0.18709 0.07197 0.0
O6 O 0.25711 0.15259 0.05735 0.0
C7 C 0.31926 0.22797 0.09096 0.0
C8 C 0.36767 0.30531 0.0512 0.0
C9 C 0.28581 0.1613 0.04837 0.0
O10 O 0.33694 0.24079 0.07689 0.0
O11 O 0.28394 0.20948 0.09188 0.0
O12 O 0.29706 0.24742 0.03207 0.0
O13 O 0.27063 0.22939 0.05701 0.0
Co14 Co 0.07313 0.32351 0.38099 0.0
O15 O 0.04621 0.34792 0.38691 0.0
O16 O 0.10186 0.37577 0.37507 0.0
C17 C 0.02584 0.27499 0.36784 0.0
O18 O 0.10802 0.30534 0.37289 0.0
Co19 Co 0.04672 0.24615 0.39724 0.0
O20 O 0.08215 0.24549 0.38064 0.0
C21 C 0.08733 0.31329 0.41811 0.0
C22 C 0.0738 0.37792 0.38095 0.0
C23 C 0.10695 0.27385 0.37278 0.0
O24 O 0.09529 0.33345 0.40463 0.0
O25 O 0.06533 0.27825 0.41805 0.0
O26 O 0.04569 0.30578 0.35967 0.0
O27 O 0.0327 0.27596 0.38392 0.0
Co28 Co 0.75257 0.07389 0.71699 0.0
O29 O 0.70203 0.03794 0.72146 0.0
O30 O 0.72052 0.09377 0.71113 0.0
C31 C 0.76628 0.03484 0.70333 0.0
O32 O 0.80317 0.11704 0.71015 0.0
Co33 Co 0.81264 0.06143 0.73411 0.0
O34 O 0.84657 0.10448 0.71994 0.0
C35 C 0.77186 0.08777 0.7547 0.0
C36 C 0.69327 0.06163 0.71578 0.0
C37 C 0.83706 0.12461 0.71159 0.0
O38 O 0.75846 0.09351 0.74103 0.0
O39 O 0.79073 0.07129 0.75479 0.0
O40 O 0.75055 0.05042 0.69524 0.0
O41 O 0.76952 0.04027 0.7196 0.0
Co42 Co 0.67461 0.75403 0.046 0.0
O43 O 0.66044 0.70305 0.04833 0.0
O44 O 0.62288 0.72266 0.03949 0.0
C45 C 0.7282 0.77036 0.03246 0.0
O46 O 0.68197 0.80552 0.04129 0.0
Co47 Co 0.7459 0.81126 0.06492 0.0
O48 O 0.73692 0.84748 0.05265 0.0
C49 C 0.67798 0.76594 0.08436 0.0
C50 C 0.62811 0.695 0.04278 0.0
C51 C 0.70783 0.83913 0.04408 0.0
O52 O 0.65953 0.7553 0.07036 0.0
O53 O 0.71331 0.78494 0.08488 0.0
O54 O 0.69734 0.75614 0.02402 0.0
O55 O 0.72508 0.77083 0.04882 0.0
Co56 Co 0.92834 0.67816 0.38523 0.0
O57 O 0.9606 0.65923 0.39032 0.0
O58 O 0.90639 0.62709 0.37742 0.0
C59 C 0.97209 0.73206 0.37396 0.0
O60 O 0.88873 0.69062 0.37779 0.0
Co61 Co 0.94325 0.74954 0.40463 0.0
O62 O 0.90394 0.74604 0.3893 0.0
C63 C 0.90824 0.67827 0.42251 0.0
C64 C 0.93625 0.62855 0.38334 0.0
C65 C 0.88338 0.71831 0.37988 0.0
O66 O 0.90432 0.6613 0.40832 0.0
O67 O 0.92587 0.71349 0.42404 0.0
O68 O 0.95639 0.70231 0.3647 0.0
O69 O 0.96383 0.72732 0.38996 0.0
Co70 Co 0.24682 0.93013 0.71738 0.0
O71 O 0.29817 0.9662 0.71911 0.0
O72 O 0.27688 0.90878 0.71015 0.0
C73 C 0.23025 0.96775 0.70445 0.0
O74 O 0.1947 0.88669 0.71322 0.0
Co75 Co 0.19206 0.94568 0.73763 0.0
O76 O 0.15441 0.90084 0.72551 0.0
C77 C 0.23805 0.92242 0.75585 0.0
C78 C 0.30518 0.94141 0.71325 0.0
C79 C 0.16153 0.87967 0.71654 0.0
O80 O 0.24666 0.91355 0.74158 0.0
O81 O 0.22011 0.93976 0.75696 0.0
O82 O 0.2437 0.95089 0.69562 0.0
O83 O 0.23101 0.96442 0.72078 0.0
Co84 Co 0.75116 0.67091 0.61589 0.0
O85 O 0.70048 0.65099 0.60935 0.0
O86 O 0.72193 0.61998 0.62372 0.0
C87 C 0.7593 0.72466 0.62639 0.0
O88 O 0.80221 0.68419 0.62507 0.0
Co89 Co 0.80961 0.74249 0.59728 0.0
O90 O 0.84409 0.73889 0.6135 0.0
C91 C 0.77424 0.67154 0.57922 0.0
C92 C 0.69388 0.62068 0.61684 0.0
C93 C 0.83551 0.71158 0.62344 0.0
O94 O 0.76176 0.65436 0.59343 0.0
O95 O 0.79003 0.70673 0.57776 0.0
O96 O 0.74426 0.69501 0.63573 0.0
O97 O 0.76488 0.71983 0.61066 0.0
Co98 Co 0.07859 0.75305 0.94677 0.0
O99 O 0.05159 0.70196 0.94042 0.0
O100 O 0.10434 0.72778 0.95482 0.0
C101 C 0.02975 0.75588 0.95712 0.0
O102 O 0.11286 0.80557 0.95564 0.0
Co103 Co 0.05783 0.8061 0.92796 0.0
O104 O 0.0899 0.84087 0.94589 0.0
C105 C 0.10105 0.77819 0.91021 0.0
C106 C 0.07701 0.69825 0.94802 0.0
C107 C 0.11248 0.83632 0.95514 0.0
O108 O 0.10602 0.7656 0.92433 0.0
O109 O 0.07949 0.79156 0.90869 0.0
O110 O 0.04673 0.74355 0.96659 0.0
O111 O 0.04016 0.76194 0.94141 0.0
Co112 Co 0.33015 0.0792 0.28188 0.0
O113 O 0.34979 0.0467 0.2795 0.0
O114 O 0.38229 0.10484 0.28828 0.0
C115 C 0.27826 0.03818 0.29556 0.0
O116 O 0.31686 0.11944 0.28658 0.0
Co117 Co 0.25626 0.05677 0.26306 0.0
O118 O 0.25938 0.09878 0.27621 0.0
C119 C 0.32534 0.08847 0.24353 0.0
C120 C 0.38089 0.07358 0.28493 0.0
C121 C 0.28787 0.12256 0.28437 0.0
O122 O 0.3438 0.09647 0.25754 0.0
O123 O 0.29002 0.06915 0.24294 0.0
O124 O 0.30894 0.05727 0.30393 0.0
O125 O 0.281 0.04162 0.27919 0.0
Co126 Co 0.24457 0.32738 0.61348 0.0
O127 O 0.29538 0.34433 0.60825 0.0
O128 O 0.27515 0.37896 0.62024 0.0
C129 C 0.23292 0.27398 0.62592 0.0
O130 O 0.19347 0.31752 0.62101 0.0
Co131 Co 0.1855 0.25485 0.59566 0.0
O132 O 0.15065 0.26284 0.60969 0.0
C133 C 0.22587 0.32335 0.57595 0.0
C134 C 0.30286 0.37594 0.61458 0.0
C135 C 0.15973 0.29135 0.61887 0.0
O136 O 0.23728 0.34211 0.58986 0.0
O137 O 0.20885 0.28798 0.57552 0.0
O138 O 0.24819 0.30457 0.6346 0.0
O139 O 0.22903 0.27749 0.60985 0.0
Co140 Co 0.92481 0.25021 0.94724 0.0
O141 O 0.95779 0.30084 0.94128 0.0
O142 O 0.90292 0.28036 0.95328 0.0
C143 C 0.96724 0.24055 0.96027 0.0
O144 O 0.88444 0.19933 0.95547 0.0
Co145 Co 0.93947 0.19101 0.9306 0.0
O146 O 0.89823 0.15683 0.9456 0.0
C147 C 0.90794 0.22719 0.91007 0.0
C148 C 0.93331 0.3081 0.94734 0.0
C149 C 0.8781 0.1658 0.9543 0.0
O150 O 0.90216 0.2407 0.9237 0.0
O151 O 0.92632 0.21019 0.90991 0.0
O152 O 0.95144 0.25595 0.96844 0.0
O153 O 0.96008 0.2355 0.94416 0.0
Co154 Co 0.67189 0.91518 0.27635 0.0
O155 O 0.65499 0.94701 0.26761 0.0
O156 O 0.61977 0.89531 0.2818 0.0
C157 C 0.72358 0.96108 0.28839 0.0
O158 O 0.6813 0.87634 0.28769 0.0
Co159 Co 0.74713 0.92589 0.26318 0.0
O160 O 0.73944 0.88973 0.28122 0.0
C161 C 0.67938 0.88419 0.24236 0.0
C162 C 0.62314 0.92471 0.27431 0.0
C163 C 0.70891 0.87071 0.28906 0.0
O164 O 0.65936 0.88721 0.25403 0.0
O165 O 0.71464 0.89953 0.24325 0.0
O166 O 0.69223 0.94659 0.29639 0.0
O167 O 0.72215 0.94977 0.27295 0.0
C168 C 0.56204 0.64267 0.04255 0.0
C169 C 0.59988 0.65582 0.0401 0.0
C170 C 0.53671 0.6045 0.04199 0.0
C171 C 0.53471 0.51453 0.04618 0.0
H172 H 0.4338 0.47323 0.03035 0.0
C173 C 0.43119 0.35601 0.04225 0.0
C174 C 0.39599 0.34482 0.04902 0.0
C175 C 0.45671 0.39376 0.03988 0.0
C176 C 0.46193 0.48441 0.03484 0.0
H177 H 0.64066 0.63997 0.03395 0.0
H178 H 0.59678 0.57423 0.03221 0.0
H179 H 0.47624 0.53975 0.02818 0.0
H180 H 0.36015 0.36454 0.05869 0.0
H181 H 0.40426 0.42957 0.05455 0.0
H182 H 0.5203 0.4591 0.05278 0.0
C183 C 0.58649 0.59273 0.03532 0.0
C184 C 0.48621 0.52258 0.03368 0.0
C185 C 0.61167 0.63053 0.03618 0.0
C186 C 0.38697 0.37205 0.0534 0.0
C187 C 0.41216 0.40945 0.05091 0.0
C188 C 0.51053 0.47637 0.04719 0.0
C189 C 0.54881 0.57899 0.0387 0.0
C190 C 0.52289 0.53822 0.03945 0.0
C191 C 0.44724 0.42082 0.04406 0.0
C192 C 0.47377 0.46093 0.04171 0.0
H193 H 0.55231 0.66164 0.04567 0.0
H194 H 0.50792 0.59498 0.04475 0.0
H195 H 0.56248 0.5255 0.0511 0.0
H196 H 0.43891 0.3357 0.03872 0.0
H197 H 0.4836 0.40176 0.03454 0.0
C198 C 0.05937 0.42213 0.39511 0.0
C199 C 0.07139 0.41186 0.38048 0.0
C200 C 0.04881 0.44895 0.3942 0.0
C201 C 0.00373 0.48163 0.3661 0.0
H202 H 0.0361 0.56285 0.39802 0.0
C203 C 0.94456 0.58222 0.36654 0.0
C204 C 0.94375 0.59771 0.38229 0.0
C205 C 0.96042 0.55955 0.36525 0.0
C206 C 0.02619 0.53994 0.38918 0.0
H207 H 0.08237 0.42164 0.35347 0.0
H208 H 0.06285 0.46831 0.35173 0.0
H209 H 0.06681 0.52636 0.39759 0.0
H210 H 0.9564 0.60011 0.40914 0.0
H211 H 0.98154 0.5588 0.40723 0.0
H212 H 0.96185 0.49383 0.35824 0.0
C213 C 0.06236 0.45601 0.36395 0.0
C214 C 0.04421 0.51937 0.38881 0.0
C215 C 0.07389 0.42974 0.36497 0.0
C216 C 0.95675 0.5884 0.39685 0.0
C217 C 0.97176 0.56523 0.39567 0.0
C218 C 0.98519 0.50183 0.36665 0.0
C219 C 0.04908 0.4653 0.37852 0.0
C220 C 0.03291 0.48977 0.37742 0.0
C221 C 0.97527 0.55167 0.37976 0.0
C222 C 0.99577 0.53091 0.37842 0.0
H223 H 0.05671 0.40826 0.40714 0.0
H224 H 0.03846 0.45541 0.40558 0.0
H225 H 0.99421 0.4586 0.35732 0.0
H226 H 0.93526 0.58962 0.35509 0.0
H227 H 0.96268 0.54981 0.35277 0.0
C228 C 0.35608 0.92572 0.71166 0.0
C229 C 0.34395 0.95143 0.71007 0.0
C230 C 0.39397 0.93748 0.71058 0.0
C231 C 0.48545 0.02349 0.71503 0.0
H232 H 0.52347 0.96311 0.69643 0.0
C233 C 0.64275 0.07585 0.70853 0.0
C234 C 0.65379 0.05091 0.71418 0.0
C235 C 0.60504 0.06431 0.7068 0.0
C236 C 0.51321 0.98025 0.70171 0.0
H237 H 0.36127 0.00885 0.70493 0.0
H238 H 0.42647 0.02892 0.70233 0.0
H239 H 0.45714 0.94075 0.69531 0.0
H240 H 0.63388 0.99435 0.72243 0.0
H241 H 0.56881 0.97458 0.71942 0.0
H242 H 0.54154 0.06298 0.72137 0.0
C243 C 0.40741 9e-05 0.70514 0.0
C244 C 0.47517 0.96735 0.70114 0.0
C245 C 0.36992 0.9885 0.7065 0.0
C246 C 0.62645 0.01436 0.71803 0.0
C247 C 0.58903 0.00284 0.71617 0.0
C248 C 0.52345 0.03648 0.71546 0.0
C249 C 0.42018 0.97505 0.70765 0.0
C250 C 0.46074 0.98872 0.70788 0.0
C251 C 0.57782 0.02757 0.71051 0.0
C252 C 0.53774 0.01489 0.70895 0.0
H253 H 0.33659 0.89699 0.71447 0.0
H254 H 0.40276 0.91741 0.71266 0.0
H255 H 0.47541 0.04046 0.72069 0.0
H256 H 0.66315 0.10412 0.70542 0.0
H257 H 0.59718 0.08397 0.70235 0.0
C258 C 0.64033 0.57085 0.63303 0.0
C259 C 0.65564 0.58946 0.61765 0.0
C260 C 0.60217 0.54596 0.63424 0.0
C261 C 0.52074 0.48319 0.61056 0.0
H262 H 0.46309 0.51285 0.6383 0.0
C263 C 0.36444 0.41255 0.60123 0.0
C264 C 0.34163 0.40601 0.61543 0.0
C265 C 0.40263 0.43566 0.6025 0.0
C266 C 0.47864 0.50368 0.63071 0.0
H267 H 0.64389 0.59578 0.59137 0.0
H268 H 0.57778 0.55091 0.59325 0.0
H269 H 0.53072 0.5483 0.63952 0.0
H270 H 0.34037 0.41892 0.64202 0.0
H271 H 0.40758 0.45843 0.64456 0.0
H272 H 0.46948 0.43825 0.60195 0.0
C273 C 0.59497 0.55602 0.60441 0.0
C274 C 0.51738 0.52405 0.63144 0.0
C275 C 0.63271 0.58155 0.60334 0.0
C276 C 0.35748 0.42407 0.63083 0.0
C277 C 0.39601 0.44662 0.63225 0.0
C278 C 0.48218 0.46242 0.61008 0.0
C279 C 0.57923 0.53868 0.61995 0.0
C280 C 0.53866 0.51435 0.6211 0.0
C281 C 0.41922 0.4519 0.61818 0.0
C282 C 0.46046 0.47289 0.61979 0.0
H283 H 0.65744 0.577 0.64429 0.0
H284 H 0.5905 0.53279 0.64635 0.0
H285 H 0.53665 0.47515 0.60253 0.0
H286 H 0.35275 0.39893 0.5892 0.0
H287 H 0.41917 0.44004 0.59119 0.0
C288 C 0.93396 0.36166 0.96222 0.0
C289 C 0.94126 0.3467 0.94769 0.0
C290 C 0.94771 0.39992 0.96339 0.0
C291 C 0.97842 0.48353 0.93819 0.0
H292 H 0.04809 0.53732 0.97442 0.0
C293 C 0.0667 0.64066 0.93426 0.0
C294 C 0.07278 0.6612 0.94923 0.0
C295 C 0.05273 0.60254 0.93499 0.0
C296 C 0.02833 0.5228 0.96435 0.0
H297 H 0.96703 0.35928 0.92278 0.0
H298 H 0.98939 0.42556 0.92447 0.0
H299 H 0.0149 0.46958 0.97435 0.0
H300 H 0.0701 0.65864 0.97674 0.0
H301 H 0.04458 0.59161 0.97816 0.0
H302 H 0.99071 0.536 0.92827 0.0
C303 C 0.9737 0.40803 0.93504 0.0
C304 C 0.00931 0.48401 0.96435 0.0
C305 C 0.96088 0.37017 0.93407 0.0
C306 C 0.06638 0.64337 0.96504 0.0
C307 C 0.05156 0.60492 0.9658 0.0
C308 C 0.99686 0.52213 0.93832 0.0
C309 C 0.968 0.42342 0.94984 0.0
C310 C 0.98469 0.4641 0.9511 0.0
C311 C 0.04327 0.5838 0.95073 0.0
C312 C 0.02274 0.54244 0.95118 0.0
H313 H 0.91934 0.34412 0.97297 0.0
H314 H 0.94292 0.41122 0.9749 0.0
H315 H 0.95935 0.46878 0.9279 0.0
H316 H 0.07119 0.65388 0.92191 0.0
H317 H 0.04803 0.5876 0.92312 0.0
C318 C 0.40673 0.03876 0.2991 0.0
C319 C 0.41183 0.0669 0.28777 0.0
C320 C 0.4312 0.02513 0.29917 0.0
C321 C 0.52168 0.04103 0.28264 0.0
H322 H 0.47364 0.93408 0.28586 0.0
C323 C 0.59747 0.96353 0.26381 0.0
C324 C 0.59418 0.93529 0.27468 0.0
C325 C 0.57448 0.97861 0.26574 0.0
C326 C 0.48757 0.96397 0.28513 0.0
H327 H 0.4466 0.10358 0.26787 0.0
H328 H 0.48942 0.07948 0.26771 0.0
H329 H 0.43738 0.96462 0.28951 0.0
H330 H 0.56304 0.89956 0.29568 0.0
H331 H 0.52257 0.92601 0.29911 0.0
H332 H 0.57176 0.04024 0.278 0.0
C333 C 0.46706 0.06846 0.27688 0.0
C334 C 0.46682 0.9816 0.28728 0.0
C335 C 0.44271 0.08244 0.27699 0.0
C336 C 0.56605 0.92111 0.28703 0.0
C337 C 0.54297 0.93637 0.28901 0.0
C338 C 0.54239 0.02339 0.28044 0.0
C339 C 0.46089 0.03878 0.28762 0.0
C340 C 0.48355 0.02037 0.286 0.0
C341 C 0.54762 0.96599 0.27866 0.0
C342 C 0.52555 0.98461 0.28152 0.0
H343 H 0.3828 0.02615 0.30741 0.0
H344 H 0.42605 0.00298 0.30791 0.0
H345 H 0.53563 0.07091 0.28182 0.0
H346 H 0.61866 0.97485 0.25405 0.0
H347 H 0.57818 0.00066 0.25724 0.0
C348 C 0.3773 0.14083 0.22779 0.0
C349 C 0.345 0.10591 0.22752 0.0
C350 C 0.39123 0.16095 0.21269 0.0
C351 C 0.3844 0.20407 0.18267 0.0
H352 H 0.38156 0.161 0.13851 0.0
C353 C 0.32476 0.23018 0.12261 0.0
C354 C 0.3401 0.23075 0.10662 0.0
C355 C 0.34021 0.22522 0.13743 0.0
C356 C 0.38338 0.17389 0.15073 0.0
H357 H 0.30407 0.06323 0.21116 0.0
H358 H 0.32867 0.09793 0.18486 0.0
H359 H 0.38269 0.12911 0.1644 0.0
H360 H 0.38497 0.22889 0.09362 0.0
H361 H 0.41155 0.21926 0.11965 0.0
H362 H 0.38241 0.2475 0.16902 0.0
C363 C 0.34312 0.10997 0.19668 0.0
C364 C 0.38376 0.15549 0.16554 0.0
C365 C 0.32885 0.09017 0.21176 0.0
C366 C 0.37267 0.2287 0.10581 0.0
C367 C 0.38777 0.22302 0.12066 0.0
C368 C 0.38362 0.22226 0.16787 0.0
C369 C 0.37353 0.14614 0.19706 0.0
C370 C 0.38271 0.16964 0.18165 0.0
C371 C 0.37098 0.22014 0.13655 0.0
C372 C 0.38153 0.20654 0.15178 0.0
H373 H 0.39031 0.15371 0.23976 0.0
H374 H 0.4148 0.18872 0.21332 0.0
H375 H 0.38336 0.21554 0.19491 0.0
H376 H 0.29974 0.23183 0.1236 0.0
H377 H 0.32644 0.22276 0.14947 0.0
C378 C 0.09062 0.31275 0.44987 0.0
C379 C 0.10597 0.33064 0.43435 0.0
C380 C 0.10981 0.32662 0.46512 0.0
C381 C 0.20301 0.37484 0.48121 0.0
H382 H 0.15399 0.3703 0.52388 0.0
C383 C 0.22232 0.37255 0.55928 0.0
C384 C 0.22867 0.34255 0.55977 0.0
C385 C 0.21633 0.38495 0.54366 0.0
C386 C 0.16848 0.37262 0.51208 0.0
H387 H 0.15298 0.3779 0.42271 0.0
H388 H 0.18701 0.40177 0.4495 0.0
H389 H 0.12289 0.36608 0.49694 0.0
H390 H 0.23727 0.30433 0.54445 0.0
H391 H 0.22764 0.32636 0.51728 0.0
H392 H 0.24763 0.37902 0.4964 0.0
C393 C 0.15993 0.37714 0.44977 0.0
C394 C 0.15052 0.36986 0.49667 0.0
C395 C 0.1404 0.36355 0.43448 0.0
C396 C 0.23224 0.3274 0.5444 0.0
C397 C 0.22695 0.3402 0.52884 0.0
C398 C 0.22084 0.37723 0.49664 0.0
C399 C 0.145 0.35847 0.46519 0.0
C400 C 0.16702 0.36954 0.48112 0.0
C401 C 0.21739 0.36802 0.52834 0.0
C402 C 0.20314 0.37474 0.51223 0.0
H403 H 0.06408 0.28746 0.45021 0.0
H404 H 0.0978 0.31136 0.47677 0.0
H405 H 0.21632 0.37451 0.46942 0.0
H406 H 0.21928 0.38459 0.57097 0.0
H407 H 0.20913 0.40653 0.54361 0.0
C408 C 0.76985 0.13829 0.77101 0.0
C409 C 0.76905 0.10422 0.7709 0.0
C410 C 0.77499 0.15751 0.78632 0.0
C411 C 0.82329 0.20037 0.81698 0.0
H412 H 0.78148 0.15425 0.86048 0.0
C413 C 0.90576 0.22759 0.87835 0.0
C414 C 0.88978 0.22786 0.89405 0.0
C415 C 0.88603 0.22168 0.86322 0.0
C416 C 0.79295 0.16792 0.84844 0.0
H417 H 0.76973 0.06206 0.78675 0.0
H418 H 0.77785 0.0951 0.81343 0.0
H419 H 0.75082 0.12287 0.83405 0.0
H420 H 0.84141 0.22412 0.90621 0.0
H421 H 0.80633 0.21268 0.87964 0.0
H422 H 0.86688 0.24412 0.83135 0.0
C423 C 0.77484 0.10718 0.80175 0.0
C424 C 0.77552 0.14985 0.83333 0.0
C425 C 0.77044 0.08835 0.78646 0.0
C426 C 0.85443 0.2242 0.89426 0.0
C427 C 0.83433 0.21751 0.87911 0.0
C428 C 0.84096 0.21821 0.83208 0.0
C429 C 0.77855 0.14254 0.80177 0.0
C430 C 0.79133 0.16525 0.81747 0.0
C431 C 0.84966 0.21529 0.86351 0.0
C432 C 0.82671 0.20145 0.84792 0.0
H433 H 0.76899 0.15122 0.75918 0.0
H434 H 0.77772 0.18471 0.78602 0.0
H435 H 0.83624 0.21277 0.80493 0.0
H436 H 0.93302 0.23049 0.87783 0.0
H437 H 0.89841 0.21973 0.85142 0.0
C438 C 0.6743 0.7561 0.11574 0.0
C439 C 0.65792 0.75903 0.10065 0.0
C440 C 0.65892 0.7559 0.13152 0.0
C441 C 0.6121 0.79803 0.1516 0.0
H442 H 0.61975 0.74635 0.19106 0.0
C443 C 0.62809 0.85482 0.22064 0.0
C444 C 0.66127 0.85972 0.22762 0.0
C445 C 0.61287 0.83279 0.20606 0.0
C446 C 0.61681 0.76063 0.18016 0.0
H447 H 0.61153 0.76212 0.09014 0.0
H448 H 0.585 0.76278 0.11797 0.0
H449 H 0.61863 0.72244 0.16253 0.0
H450 H 0.70333 0.84392 0.22547 0.0
H451 H 0.67682 0.80558 0.20046 0.0
H452 H 0.61322 0.83781 0.16923 0.0
C453 C 0.60954 0.76021 0.11748 0.0
C454 C 0.6162 0.74697 0.16386 0.0
C455 C 0.62463 0.75968 0.1016 0.0
C456 C 0.67799 0.84108 0.22027 0.0
C457 C 0.66252 0.81867 0.20605 0.0
C458 C 0.61276 0.81174 0.16795 0.0
C459 C 0.62709 0.75921 0.1326 0.0
C460 C 0.61601 0.76671 0.14941 0.0
C461 C 0.63011 0.8146 0.19864 0.0
C462 C 0.61732 0.7943 0.1823 0.0
H463 H 0.69989 0.75541 0.11536 0.0
H464 H 0.67338 0.75558 0.14293 0.0
H465 H 0.61204 0.81389 0.14069 0.0
H466 H 0.61463 0.86886 0.22612 0.0
H467 H 0.58795 0.83023 0.20051 0.0
C468 C 0.78806 0.62637 0.56506 0.0
C469 C 0.77413 0.65075 0.56407 0.0
C470 C 0.79598 0.61325 0.55014 0.0
C471 C 0.78096 0.5994 0.50434 0.0
H472 H 0.88755 0.64925 0.49949 0.0
C473 C 0.85155 0.6497 0.43995 0.0
C474 C 0.88768 0.65679 0.43742 0.0
C475 C 0.83368 0.63546 0.45545 0.0
C476 C 0.85773 0.634 0.50061 0.0
H477 H 0.75486 0.67835 0.54706 0.0
H478 H 0.76712 0.65407 0.52101 0.0
H479 H 0.86054 0.64622 0.52727 0.0
H480 H 0.93315 0.65304 0.44839 0.0
H481 H 0.90145 0.62649 0.47539 0.0
H482 H 0.77785 0.58741 0.47771 0.0
C483 C 0.77234 0.64549 0.53324 0.0
C484 C 0.8423 0.63244 0.5166 0.0
C485 C 0.76546 0.65945 0.54809 0.0
C486 C 0.90513 0.64756 0.45017 0.0
C487 C 0.88705 0.63274 0.46564 0.0
C488 C 0.79632 0.60016 0.4884 0.0
C489 C 0.78894 0.62346 0.53413 0.0
C490 C 0.80392 0.6165 0.51842 0.0
C491 C 0.85154 0.62773 0.46872 0.0
C492 C 0.835 0.6191 0.48615 0.0
H493 H 0.79535 0.61969 0.57727 0.0
H494 H 0.80907 0.59652 0.55107 0.0
H495 H 0.75123 0.58686 0.50551 0.0
H496 H 0.8379 0.65711 0.43026 0.0
H497 H 0.80677 0.63278 0.45729 0.0
C498 C 0.10931 0.77818 0.87885 0.0
C499 C 0.12385 0.78128 0.89528 0.0
C500 C 0.13251 0.78912 0.86467 0.0
C501 C 0.2029 0.86036 0.84944 0.0
H502 H 0.23078 0.81023 0.81608 0.0
C503 C 0.25931 0.93072 0.78598 0.0
C504 C 0.24429 0.90772 0.77174 0.0
C505 C 0.25776 0.9155 0.80202 0.0
C506 C 0.22329 0.82471 0.82526 0.0
H507 H 0.17354 0.796 0.90978 0.0
H508 H 0.21453 0.81631 0.88477 0.0
H509 H 0.20021 0.77853 0.84259 0.0
H510 H 0.21778 0.85127 0.76267 0.0
H511 H 0.21266 0.82429 0.7907 0.0
H512 H 0.22223 0.90506 0.83198 0.0
C513 C 0.18504 0.80459 0.88297 0.0
C514 C 0.20621 0.80664 0.84048 0.0
C515 C 0.16163 0.79301 0.89721 0.0
C516 C 0.22982 0.86952 0.77352 0.0
C517 C 0.2271 0.85413 0.78965 0.0
C518 C 0.21935 0.87818 0.83423 0.0
C519 C 0.17065 0.80369 0.86671 0.0
C520 C 0.19516 0.82415 0.85242 0.0
C521 C 0.23962 0.87682 0.80425 0.0
C522 C 0.22882 0.86026 0.82164 0.0
H523 H 0.08028 0.76915 0.87704 0.0
H524 H 0.12106 0.78861 0.85221 0.0
H525 H 0.19413 0.87409 0.85847 0.0
H526 H 0.27089 0.96036 0.78481 0.0
H527 H 0.26901 0.93406 0.8128 0.0
C528 C 0.13554 0.90016 0.96629 0.0
C529 C 0.13985 0.86889 0.9651 0.0
C530 C 0.16188 0.93215 0.97446 0.0
C531 C 0.23518 0.96819 0.00647 0.0
H532 H 0.2549 0.06157 0.98679 0.0
C533 C 0.26707 0.09469 0.04638 0.0
C534 C 0.28692 0.13053 0.03951 0.0
C535 C 0.26139 0.06403 0.03692 0.0
C536 C 0.2506 0.03598 0.99236 0.0
H537 H 0.17515 0.84668 0.97211 0.0
H538 H 0.22154 0.90315 0.98666 0.0
H539 H 0.22074 0.00487 0.97047 0.0
H540 H 0.31894 0.1626 0.01782 0.0
H541 H 0.30911 0.10871 0.00113 0.0
H542 H 0.26446 0.99935 0.02854 0.0
C543 C 0.19754 0.90256 0.98108 0.0
C544 C 0.2305 0.00332 0.98307 0.0
C545 C 0.17096 0.87024 0.97278 0.0
C546 C 0.30345 0.13531 0.02342 0.0
C547 C 0.29756 0.10441 0.01384 0.0
C548 C 0.25547 0.00097 0.01578 0.0
C549 C 0.1935 0.93408 0.98174 0.0
C550 C 0.22111 0.96888 0.9903 0.0
C551 C 0.27531 0.06829 0.02027 0.0
C552 C 0.26203 0.03509 0.00911 0.0
H553 H 0.11175 0.90017 0.96078 0.0
H554 H 0.15726 0.95544 0.97519 0.0
H555 H 0.2286 0.94215 0.01238 0.0
H556 H 0.25431 0.09012 0.05884 0.0
H557 H 0.24386 0.03682 0.0423 0.0
C558 C 0.13541 0.23569 0.36474 0.0
C559 C 0.1359 0.26961 0.36369 0.0
C560 C 0.16226 0.23073 0.35665 0.0
C561 C 0.22681 0.26219 0.32103 0.0
H562 H 0.26006 0.20131 0.34359 0.0
C563 C 0.26092 0.16402 0.28522 0.0
C564 C 0.28591 0.15405 0.29199 0.0
C565 C 0.25382 0.18921 0.29366 0.0
C566 C 0.2519 0.21905 0.33714 0.0
H567 H 0.16535 0.32492 0.35302 0.0
H568 H 0.21255 0.31593 0.33859 0.0
H569 H 0.22642 0.2248 0.35969 0.0
H570 H 0.325 0.16477 0.31237 0.0
H571 H 0.31261 0.20912 0.32724 0.0
H572 H 0.25155 0.25561 0.29835 0.0
C573 C 0.19112 0.29333 0.34586 0.0
C574 C 0.23216 0.23216 0.34635 0.0
C575 C 0.16412 0.29846 0.35413 0.0
C576 C 0.30553 0.17181 0.30686 0.0
C577 C 0.29823 0.19701 0.31542 0.0
C578 C 0.24667 0.24911 0.3118 0.0
C579 C 0.19057 0.25941 0.34717 0.0
C580 C 0.218 0.25251 0.33824 0.0
C581 C 0.27143 0.20515 0.30917 0.0
C582 C 0.25811 0.22607 0.31958 0.0
H583 H 0.11417 0.21262 0.37187 0.0
H584 H 0.16038 0.20394 0.35758 0.0
H585 H 0.21639 0.27789 0.31441 0.0
H586 H 0.24559 0.15117 0.27368 0.0
H587 H 0.23275 0.19435 0.28851 0.0
C588 C 0.86158 0.16743 0.68642 0.0
C589 C 0.86697 0.15708 0.70273 0.0
C590 C 0.89195 0.19324 0.67683 0.0
C591 C 0.99256 0.2629 0.67884 0.0
H592 H 0.99635 0.22146 0.63523 0.0
C593 C 0.12951 0.29757 0.64523 0.0
C594 C 0.12926 0.29302 0.62752 0.0
C595 C 0.09704 0.29042 0.65374 0.0
C596 C 0.99573 0.23423 0.64714 0.0
H597 H 0.90766 0.16776 0.72236 0.0
H598 H 0.96024 0.21286 0.70583 0.0
H599 H 0.93921 0.19314 0.65132 0.0
H600 H 0.09637 0.28077 0.60459 0.0
H601 H 0.04053 0.27043 0.61918 0.0
H602 H 0.04946 0.30356 0.67482 0.0
C603 C 0.93285 0.20112 0.70033 0.0
C604 C 0.96275 0.21782 0.6564 0.0
C605 C 0.90272 0.17505 0.70976 0.0
C606 C 0.09709 0.28419 0.6183 0.0
C607 C 0.06499 0.27786 0.62671 0.0
C608 C 0.02557 0.27962 0.66948 0.0
C609 C 0.92805 0.20953 0.68353 0.0
C610 C 0.96102 0.23131 0.67255 0.0
C611 C 0.06396 0.27914 0.64461 0.0
C612 C 0.02788 0.26491 0.65368 0.0
H613 H 0.83434 0.15392 0.68067 0.0
H614 H 0.8874 0.19939 0.66394 0.0
H615 H 0.99197 0.27411 0.69122 0.0
H616 H 0.15394 0.30398 0.65261 0.0
H617 H 0.09741 0.29148 0.66753 0.0
C618 C 0.70033 0.87123 0.01883 0.0
C619 C 0.70578 0.87029 0.03641 0.0
C620 C 0.70815 0.90448 0.01092 0.0
C621 C 0.76784 0.00515 0.01856 0.0
H622 H 0.72823 0.01266 0.97503 0.0
C623 C 0.83682 0.14095 0.98 0.0
C624 C 0.8466 0.13562 0.96355 0.0
C625 C 0.81116 0.11055 0.98962 0.0
C626 C 0.73935 0.01102 0.98727 0.0
H627 H 0.72024 0.902 0.05979 0.0
H628 H 0.73166 0.95929 0.04628 0.0
H629 H 0.69701 0.95466 0.99099 0.0
H630 H 0.83537 0.09499 0.9438 0.0
H631 H 0.79037 0.04238 0.96038 0.0
H632 H 0.81052 0.06123 0.01466 0.0
C633 C 0.72301 0.93508 0.03837 0.0
C634 C 0.72163 0.97772 0.99637 0.0
C635 C 0.71602 0.90215 0.04617 0.0
C636 C 0.82851 0.09988 0.9565 0.0
C637 C 0.8025 0.06975 0.96595 0.0
C638 C 0.78523 0.03848 0.00957 0.0
C639 C 0.72101 0.93724 0.02053 0.0
C640 C 0.73624 0.97397 0.01193 0.0
C641 C 0.79434 0.07453 0.9828 0.0
C642 C 0.77182 0.04149 0.9936 0.0
H643 H 0.69292 0.84709 0.01102 0.0
H644 H 0.70649 0.90492 0.99716 0.0
H645 H 0.78054 0.00342 0.03029 0.0
H646 H 0.85048 0.16819 0.98575 0.0
H647 H 0.80528 0.11503 0.00257 0.0
C648 C 0.70603 0.81025 0.29069 0.0
C649 C 0.70558 0.83959 0.29919 0.0
C650 C 0.71353 0.78575 0.29958 0.0
C651 C 0.72801 0.75807 0.3429 0.0
H652 H 0.80342 0.74605 0.31974 0.0
C653 C 0.83803 0.74044 0.37829 0.0
C654 C 0.85214 0.71902 0.37124 0.0
C655 C 0.81161 0.74525 0.36963 0.0
C656 C 0.7818 0.74829 0.32629 0.0
H657 H 0.71115 0.86581 0.32361 0.0
H658 H 0.72456 0.82316 0.3393 0.0
H659 H 0.77141 0.77244 0.30452 0.0
H660 H 0.84818 0.68439 0.34987 0.0
H661 H 0.80177 0.69304 0.33451 0.0
H662 H 0.73966 0.73524 0.36491 0.0
C663 C 0.71833 0.81843 0.32582 0.0
C664 C 0.76336 0.7635 0.31755 0.0
C665 C 0.71055 0.84284 0.3169 0.0
C666 C 0.83787 0.70107 0.35561 0.0
C667 C 0.81149 0.70622 0.34679 0.0
C668 C 0.74648 0.74284 0.35165 0.0
C669 C 0.72138 0.79049 0.31714 0.0
C670 C 0.7369 0.76948 0.32586 0.0
C671 C 0.79856 0.72894 0.3536 0.0
C672 C 0.77436 0.73875 0.34359 0.0
H673 H 0.70272 0.80759 0.27697 0.0
H674 H 0.71496 0.76419 0.29254 0.0
H675 H 0.70738 0.76171 0.34961 0.0
H676 H 0.84813 0.75439 0.3904 0.0
H677 H 0.80273 0.76328 0.37519 0.0
C678 C 0.09693 0.82723 0.71853 0.0
C679 C 0.12954 0.8469 0.70899 0.0
C680 C 0.06408 0.80114 0.71071 0.0
C681 C 0.02321 0.75205 0.66938 0.0
H682 H 0.93922 0.76002 0.68482 0.0
C683 C 0.90179 0.72989 0.6268 0.0
C684 C 0.86585 0.71265 0.63361 0.0
C685 C 0.93185 0.73604 0.63688 0.0
C686 C 0.96212 0.7568 0.68054 0.0
H687 H 0.15397 0.85359 0.684 0.0
H688 H 0.09633 0.80913 0.67008 0.0
H689 H 0.99648 0.79008 0.70088 0.0
H690 H 0.83293 0.68688 0.65612 0.0
H691 H 0.88597 0.69846 0.67403 0.0
H692 H 0.98899 0.72069 0.64835 0.0
C693 C 0.0961 0.8129 0.68372 0.0
C694 C 0.99513 0.77402 0.68979 0.0
C695 C 0.12924 0.83848 0.69166 0.0
C696 C 0.86033 0.7001 0.65054 0.0
C697 C 0.89064 0.70689 0.66078 0.0
C698 C 0.99025 0.73522 0.66 0.0
C699 C 0.06277 0.7948 0.69304 0.0
C700 C 0.02645 0.77255 0.68418 0.0
C701 C 0.9268 0.72561 0.65411 0.0
C702 C 0.95961 0.73806 0.66532 0.0
H703 H 0.09655 0.83303 0.73197 0.0
H704 H 0.03939 0.78699 0.71846 0.0
H705 H 0.04637 0.74963 0.66481 0.0
H706 H 0.90684 0.73968 0.61374 0.0
H707 H 0.95934 0.75082 0.63142 0.0
C708 C 0.99198 0.22785 0.9867 0.0
C709 C 0.99194 0.23 0.96886 0.0
C710 C 0.01698 0.22027 0.99502 0.0
C711 C 0.08526 0.18869 0.98799 0.0
H712 H 0.12993 0.24667 0.02874 0.0
C713 C 0.22726 0.22216 0.01528 0.0
C714 C 0.23058 0.22143 0.03307 0.0
C715 C 0.1942 0.21598 0.00793 0.0
C716 C 0.11731 0.22983 0.01753 0.0
H717 H 0.01711 0.22492 0.94564 0.0
H718 H 0.06187 0.21315 0.96014 0.0
H719 H 0.07969 0.25 0.01489 0.0
H720 H 0.20156 0.21194 0.0571 0.0
H721 H 0.14383 0.20161 0.04423 0.0
H722 H 0.12453 0.17007 0.99034 0.0
C723 C 0.04205 0.21638 0.96776 0.0
C724 C 0.08839 0.23162 0.00959 0.0
C725 C 0.01659 0.22339 0.95943 0.0
C726 C 0.1998 0.21283 0.04335 0.0
C727 C 0.16685 0.20704 0.03601 0.0
C728 C 0.11457 0.18726 0.99585 0.0
C729 C 0.04294 0.21531 0.98568 0.0
C730 C 0.07215 0.21132 0.99463 0.0
C731 C 0.16401 0.2093 0.01826 0.0
C732 C 0.13101 0.20805 0.01062 0.0
H733 H 0.97287 0.23233 0.99428 0.0
H734 H 0.01621 0.21875 0.0088 0.0
H735 H 0.07305 0.17223 0.97665 0.0
H736 H 0.25053 0.22854 0.00705 0.0
H737 H 0.19283 0.21814 0.99422 0.0
C738 C 0.78902 0.01231 0.28601 0.0
C739 C 0.75817 0.98978 0.2962 0.0
C740 C 0.82072 0.04157 0.29327 0.0
C741 C 0.87141 0.07688 0.33323 0.0
H742 H 0.90562 0.17394 0.31363 0.0
C743 C 0.97234 0.21053 0.36879 0.0
C744 C 0.99798 0.24105 0.35923 0.0
C745 C 0.94514 0.17881 0.36063 0.0
C746 C 0.89699 0.14702 0.3191 0.0
H747 H 0.73665 0.97902 0.322 0.0
H748 H 0.79242 0.02976 0.33473 0.0
H749 H 0.85524 0.11961 0.30005 0.0
H750 H 0.01613 0.2621 0.33369 0.0
H751 H 0.9695 0.20632 0.3194 0.0
H752 H 0.91329 0.10397 0.35217 0.0
C753 C 0.79194 0.02494 0.32114 0.0
C754 C 0.86803 0.11594 0.31133 0.0
C755 C 0.76003 0.99608 0.31385 0.0
C756 C 0.99646 0.23905 0.34137 0.0
C757 C 0.96958 0.20714 0.33319 0.0
C758 C 0.90073 0.10789 0.34088 0.0
C759 C 0.8223 0.0483 0.31087 0.0
C760 C 0.85471 0.08069 0.31844 0.0
C761 C 0.94333 0.17674 0.34272 0.0
C762 C 0.91357 0.14343 0.33405 0.0
H763 H 0.78827 0.00804 0.27236 0.0
H764 H 0.84391 0.05913 0.28512 0.0
H765 H 0.86176 0.04988 0.33886 0.0
H766 H 0.97281 0.21143 0.38259 0.0
H767 H 0.92504 0.15625 0.3684 0.0
C768 C 0.77859 0.79128 0.62241 0.0
C769 C 0.76937 0.76128 0.63335 0.0
C770 C 0.78583 0.82534 0.62901 0.0
C771 C 0.81128 0.88177 0.66796 0.0
H772 H 0.7522 0.92095 0.64894 0.0
C773 C 0.78314 0.98533 0.70403 0.0
C774 C 0.77697 0.01034 0.69465 0.0
C775 C 0.78901 0.95918 0.69566 0.0
C776 C 0.76963 0.91104 0.6542 0.0
H777 H 0.76193 0.74362 0.65975 0.0
H778 H 0.77494 0.80327 0.67129 0.0
H779 H 0.75077 0.86759 0.63574 0.0
H780 H 0.77457 0.02947 0.66926 0.0
H781 H 0.78616 0.98478 0.65462 0.0
H782 H 0.8301 0.92511 0.68647 0.0
C783 C 0.7765 0.80043 0.65763 0.0
C784 C 0.76865 0.88032 0.64664 0.0
C785 C 0.76879 0.76626 0.65103 0.0
C786 C 0.77877 0.01013 0.67679 0.0
C787 C 0.78519 0.98437 0.66842 0.0
C788 C 0.81264 0.91283 0.67542 0.0
C789 C 0.7845 0.83009 0.64667 0.0
C790 C 0.78889 0.86498 0.65364 0.0
C791 C 0.78935 0.95788 0.67773 0.0
C792 C 0.79123 0.9274 0.66883 0.0
H793 H 0.77932 0.78819 0.60873 0.0
H794 H 0.79212 0.84789 0.62031 0.0
H795 H 0.82743 0.87063 0.67349 0.0
H796 H 0.78184 0.98489 0.71782 0.0
H797 H 0.79165 0.93899 0.70327 0.0
C798 C 0.79382 0.78488 0.03369 0.0
C799 C 0.76359 0.78059 0.02407 0.0
C800 C 0.82559 0.78946 0.02556 0.0
C801 C 0.85381 0.76866 0.98437 0.0
H802 H 0.95181 0.82236 0.0043 0.0
C803 C 0.98123 0.77349 0.9531 0.0
C804 C 0.00206 0.76438 0.96406 0.0
C805 C 0.95434 0.78065 0.95966 0.0
C806 C 0.92455 0.80727 -0.00139 0.0
H807 H 0.74369 0.78035 -0.00147 0.0
H808 H 0.79961 0.78961 0.98433 0.0
H809 H 0.90125 0.82774 0.01694 0.0
H810 H 0.01188 0.75651 0.99047 0.0
H811 H 0.96502 0.76924 0.00194 0.0
H812 H 0.87719 0.74815 0.96609 0.0
C813 C 0.79842 0.7882 0.99812 0.0
C814 C 0.89558 0.81023 0.00586 0.0
C815 C 0.76647 0.78316 0.00624 0.0
C816 C 0.99611 0.76333 0.98172 0.0
C817 C 0.96952 0.77089 0.98829 0.0
C818 C 0.88284 0.76604 0.97704 0.0
C819 C 0.82794 0.79029 0.00766 0.0
C820 C 0.85968 0.79042 -0.00099 0.0
C821 C 0.94816 0.77927 0.97732 0.0
C822 C 0.91832 0.78479 0.98426 0.0
H823 H 0.7923 0.78296 0.04746 0.0
H824 H 0.84755 0.79056 0.03334 0.0
H825 H 0.82646 0.75243 0.97892 0.0
H826 H 0.98534 0.77461 0.93943 0.0
H827 H 0.93836 0.78726 0.95094 0.0
C828 C 0.02002 0.79871 0.37738 0.0
C829 C 0.99847 0.76843 0.3667 0.0
C830 C 0.04719 0.83226 0.37048 0.0
C831 C 0.07925 0.88643 0.33074 0.0
H832 H 0.17688 0.92528 0.35045 0.0
C833 C 0.21257 0.98694 0.29477 0.0
C834 C 0.24314 0.01303 0.30417 0.0
C835 C 0.18039 0.96097 0.30309 0.0
C836 C 0.14974 0.9154 0.34497 0.0
H837 H 0.98714 0.74986 0.34043 0.0
H838 H 0.03444 0.80848 0.32839 0.0
H839 H 0.12411 0.87325 0.36394 0.0
H840 H 0.26349 0.03387 0.32953 0.0
H841 H 0.207 0.9893 0.34406 0.0
H842 H 0.10489 0.9284 0.31167 0.0
C843 C 0.03037 0.80633 0.34207 0.0
C844 C 0.11949 0.88549 0.3527 0.0
C845 C 0.00348 0.77271 0.34897 0.0
C846 C 0.24045 0.01376 0.32198 0.0
C847 C 0.20815 0.98808 0.3303 0.0
C848 C 0.10948 0.91663 0.32307 0.0
C849 C 0.05295 0.8362 0.35277 0.0
C850 C 0.08408 0.87031 0.34551 0.0
C851 C 0.178 0.96085 0.32099 0.0
C852 C 0.14521 0.93106 0.32993 0.0
H853 H 0.01662 0.79619 0.39109 0.0
H854 H 0.06405 0.85498 0.379 0.0
H855 H 0.05214 0.87546 0.32503 0.0
H856 H 0.21393 0.98575 0.28101 0.0
H857 H 0.15795 0.94015 0.29551 0.0
C858 C 0.21498 0.01836 0.706 0.0
C859 C 0.21829 0.99185 0.69636 0.0
C860 C 0.20828 0.04429 0.69796 0.0
C861 C 0.22097 0.08865 0.65593 0.0
H862 H 0.16909 0.13355 0.67715 0.0
C863 C 0.21067 0.20644 0.62351 0.0
C864 C 0.22204 0.23788 0.63377 0.0
C865 C 0.20337 0.17293 0.63077 0.0
C866 C 0.18361 0.12118 0.6711 0.0
H867 H 0.21455 0.96977 0.67097 0.0
H868 H 0.20155 0.01411 0.65698 0.0
H869 H 0.16737 0.07974 0.69043 0.0
H870 H 0.23301 0.25862 0.6597 0.0
H871 H 0.22013 0.19993 0.6724 0.0
H872 H 0.23739 0.13018 0.63669 0.0
C873 C 0.20541 0.01584 0.67066 0.0
C874 C 0.18276 0.09048 0.67871 0.0
C875 C 0.21263 0.99028 0.67868 0.0
C876 C 0.22445 0.23484 0.65149 0.0
C877 C 0.21684 0.20122 0.65877 0.0
C878 C 0.22148 0.11901 0.64826 0.0
C879 C 0.20428 0.04388 0.68013 0.0
C880 C 0.20193 0.0742 0.67135 0.0
C881 C 0.20698 0.17016 0.64843 0.0
C882 C 0.2033 0.13593 0.65589 0.0
H883 H 0.21926 0.02017 0.71967 0.0
H884 H 0.20797 0.06566 0.70566 0.0
H885 H 0.23674 0.07744 0.65007 0.0
H886 H 0.20839 0.20794 0.60982 0.0
H887 H 0.19548 0.14929 0.62254 0.0
loop_
_geom_bond_atom_site_label_1
_geom_bond_atom_site_label_2
_geom_bond_distance
_geom_bond_site_symmetry_2
_ccdc_geom_bond_type
Co0 O1 2.216 . S
Co0 O2 2.091 . S
Co0 O4 2.004 . S
Co0 O10 2.021 . S
Co0 O12 2.137 . S
Co0 O13 2.244 . S
O1 Co0 2.216 . S
O1 C8 1.247 . S
O2 Co0 2.091 . S
O2 C8 1.261 . S
C3 O12 1.247 . S
C3 O13 1.272 . S
O4 Co0 2.004 . S
O4 C9 1.259 . S
Co5 O6 2.061 . S
Co5 O11 2.052 . S
Co5 O13 2.135 . S
O6 Co5 2.061 . S
O6 C9 1.235 . S
C7 O10 1.238 . S
C7 O11 1.241 . S
C8 O1 1.247 . S
C8 O2 1.261 . S
C9 O4 1.259 . S
C9 O6 1.235 . S
O10 Co0 2.021 . S
O10 C7 1.238 . S
O11 Co5 2.052 . S
O11 C7 1.241 . S
O12 Co0 2.137 . S
O12 C3 1.247 . S
O13 Co0 2.244 . S
O13 C3 1.272 . S
O13 Co5 2.135 . S
Co14 O15 2.216 . S
Co14 O16 2.091 . S
Co14 O18 2.004 . S
Co14 O24 2.021 . S
Co14 O26 2.137 . S
Co14 O27 2.244 . S
O15 Co14 2.216 . S
O15 C22 1.247 . S
O16 Co14 2.091 . S
O16 C22 1.261 . S
C17 O26 1.247 . S
C17 O27 1.272 . S
O18 Co14 2.004 . S
O18 C23 1.259 . S
Co19 O20 2.061 . S
Co19 O25 2.052 . S
Co19 O27 2.135 . S
O20 Co19 2.061 . S
O20 C23 1.235 . S
C21 O24 1.238 . S
C21 O25 1.241 . S
C22 O15 1.247 . S
C22 O16 1.261 . S
C23 O18 1.259 . S
C23 O20 1.235 . S
O24 Co14 2.021 . S
O24 C21 1.238 . S
O25 Co19 2.052 . S
O25 C21 1.241 . S
O26 Co14 2.137 . S
O26 C17 1.247 . S
O27 Co14 2.244 . S
O27 C17 1.272 . S
O27 Co19 2.135 . S
Co28 O29 2.216 . S
Co28 O30 2.091 . S
Co28 O32 2.004 . S
Co28 O38 2.021 . S
Co28 O40 2.137 . S
Co28 O41 2.244 . S
O29 Co28 2.216 . S
O29 C36 1.247 . S
O30 Co28 2.091 . S
O30 C36 1.261 . S
C31 O40 1.247 . S
C31 O41 1.272 . S
O32 Co28 2.004 . S
O32 C37 1.259 . S
Co33 O34 2.061 . S
Co33 O39 2.052 . S
Co33 O41 2.135 . S
O34 Co33 2.061 . S
O34 C37 1.235 . S
C35 O38 1.238 . S
C35 O39 1.241 . S
C36 O29 1.247 . S
C36 O30 1.261 . S
C37 O32 1.259 . S
C37 O34 1.235 . S
O38 Co28 2.021 . S
O38 C35 1.238 . S
O39 Co33 2.052 . S
O39 C35 1.241 . S
O40 Co28 2.137 . S
O40 C31 1.247 . S
O41 Co28 2.244 . S
O41 C31 1.272 . S
O41 Co33 2.135 . S
Co42 O43 2.216 . S
Co42 O44 2.091 . S
Co42 O46 2.004 . S
Co42 O52 2.021 . S
Co42 O54 2.137 . S
Co42 O55 2.244 . S
O43 Co42 2.216 . S
O43 C50 1.247 . S
O44 Co42 2.091 . S
O44 C50 1.261 . S
C45 O54 1.247 . S
C45 O55 1.272 . S
O46 Co42 2.004 . S
O46 C51 1.259 . S
Co47 O48 2.061 . S
Co47 O53 2.052 . S
Co47 O55 2.135 . S
O48 Co47 2.061 . S
O48 C51 1.235 . S
C49 O52 1.238 . S
C49 O53 1.241 . S
C50 O43 1.247 . S
C50 O44 1.261 . S
C51 O46 1.259 . S
C51 O48 1.235 . S
O52 Co42 2.021 . S
O52 C49 1.238 . S
O53 Co47 2.052 . S
O53 C49 1.241 . S
O54 Co42 2.137 . S
O54 C45 1.247 . S
O55 Co42 2.244 . S
O55 C45 1.272 . S
O55 Co47 2.135 . S
Co56 O57 2.216 . S
Co56 O58 2.091 . S
Co56 O60 2.004 . S
Co56 O66 2.021 . S
Co56 O68 2.137 . S
Co56 O69 2.244 . S
O57 Co56 2.216 . S
O57 C64 1.247 . S
O58 Co56 2.091 . S
O58 C64 1.261 . S
C59 O68 1.247 . S
C59 O69 1.272 . S
O60 Co56 2.004 . S
O60 C65 1.259 . S
Co61 O62 2.061 . S
Co61 O67 2.052 . S
Co61 O69 2.135 . S
O62 Co61 2.061 . S
O62 C65 1.235 . S
C63 O66 1.238 . S
C63 O67 1.241 . S
C64 O57 1.247 . S
C64 O58 1.261 . S
C65 O60 1.259 . S
C65 O62 1.235 . S
O66 Co56 2.021 . S
O66 C63 1.238 . S
O67 Co61 2.052 . S
O67 C63 1.241 . S
O68 Co56 2.137 . S
O68 C59 1.247 . S
O69 Co56 2.244 . S
O69 C59 1.272 . S
O69 Co61 2.135 . S
Co70 O71 2.216 . S
Co70 O72 2.091 . S
Co70 O74 2.004 . S
Co70 O80 2.021 . S
Co70 O82 2.137 . S
Co70 O83 2.244 . S
O71 Co70 2.216 . S
O71 C78 1.247 . S
O72 Co70 2.091 . S
O72 C78 1.261 . S
C73 O82 1.247 . S
C73 O83 1.272 . S
O74 Co70 2.004 . S
O74 C79 1.259 . S
Co75 O76 2.061 . S
Co75 O81 2.052 . S
Co75 O83 2.135 . S
O76 Co75 2.061 . S
O76 C79 1.235 . S
C77 O80 1.238 . S
C77 O81 1.241 . S
C78 O71 1.247 . S
C78 O72 1.261 . S
C79 O74 1.259 . S
C79 O76 1.235 . S
O80 Co70 2.021 . S
O80 C77 1.238 . S
O81 Co75 2.052 . S
O81 C77 1.241 . S
O82 Co70 2.137 . S
O82 C73 1.247 . S
O83 Co70 2.244 . S
O83 C73 1.272 . S
O83 Co75 2.135 . S
Co84 O85 2.216 . S
Co84 O86 2.091 . S
Co84 O88 2.004 . S
Co84 O94 2.021 . S
Co84 O96 2.137 . S
Co84 O97 2.244 . S
O85 Co84 2.216 . S
O85 C92 1.247 . S
O86 Co84 2.091 . S
O86 C92 1.261 . S
C87 O96 1.247 . S
C87 O97 1.272 . S
O88 Co84 2.004 . S
O88 C93 1.259 . S
Co89 O90 2.061 . S
Co89 O95 2.052 . S
Co89 O97 2.135 . S
O90 Co89 2.061 . S
O90 C93 1.235 . S
C91 O94 1.238 . S
C91 O95 1.241 . S
C92 O85 1.247 . S
C92 O86 1.261 . S
C93 O88 1.259 . S
C93 O90 1.235 . S
O94 Co84 2.021 . S
O94 C91 1.238 . S
O95 Co89 2.052 . S
O95 C91 1.241 . S
O96 Co84 2.137 . S
O96 C87 1.247 . S
O97 Co84 2.244 . S
O97 C87 1.272 . S
O97 Co89 2.135 . S
Co98 O99 2.216 . S
Co98 O100 2.091 . S
Co98 O102 2.004 . S
Co98 O108 2.021 . S
Co98 O110 2.137 . S
Co98 O111 2.244 . S
O99 Co98 2.216 . S
O99 C106 1.247 . S
O100 Co98 2.091 . S
O100 C106 1.261 . S
C101 O110 1.247 . S
C101 O111 1.272 . S
O102 Co98 2.004 . S
O102 C107 1.259 . S
Co103 O104 2.061 . S
Co103 O109 2.052 . S
Co103 O111 2.135 . S
O104 Co103 2.061 . S
O104 C107 1.235 . S
C105 O108 1.238 . S
C105 O109 1.241 . S
C106 O99 1.247 . S
C106 O100 1.261 . S
C107 O102 1.259 . S
C107 O104 1.235 . S
O108 Co98 2.021 . S
O108 C105 1.238 . S
O109 Co103 2.052 . S
O109 C105 1.241 . S
O110 Co98 2.137 . S
O110 C101 1.247 . S
O111 Co98 2.244 . S
O111 C101 1.272 . S
O111 Co103 2.135 . S
Co112 O113 2.216 . S
Co112 O114 2.091 . S
Co112 O116 2.004 . S
Co112 O122 2.021 . S
Co112 O124 2.137 . S
Co112 O125 2.244 . S
O113 Co112 2.216 . S
O113 C120 1.247 . S
O114 Co112 2.091 . S
O114 C120 1.261 . S
C115 O124 1.247 . S
C115 O125 1.272 . S
O116 Co112 2.004 . S
O116 C121 1.259 . S
Co117 O118 2.061 . S
Co117 O123 2.052 . S
Co117 O125 2.135 . S
O118 Co117 2.061 . S
O118 C121 1.235 . S
C119 O122 1.238 . S
C119 O123 1.241 . S
C120 O113 1.247 . S
C120 O114 1.261 . S
C121 O116 1.259 . S
C121 O118 1.235 . S
O122 Co112 2.021 . S
O122 C119 1.238 . S
O123 Co117 2.052 . S
O123 C119 1.241 . S
O124 Co112 2.137 . S
O124 C115 1.247 . S
O125 Co112 2.244 . S
O125 C115 1.272 . S
O125 Co117 2.135 . S
Co126 O127 2.216 . S
Co126 O128 2.091 . S
Co126 O130 2.004 . S
Co126 O136 2.021 . S
Co126 O138 2.137 . S
Co126 O139 2.244 . S
O127 Co126 2.216 . S
O127 C134 1.247 . S
O128 Co126 2.091 . S
O128 C134 1.261 . S
C129 O138 1.247 . S
C129 O139 1.272 . S
O130 Co126 2.004 . S
O130 C135 1.259 . S
Co131 O132 2.061 . S
Co131 O137 2.052 . S
Co131 O139 2.135 . S
O132 Co131 2.061 . S
O132 C135 1.235 . S
C133 O136 1.238 . S
C133 O137 1.241 . S
C134 O127 1.247 . S
C134 O128 1.261 . S
C135 O130 1.259 . S
C135 O132 1.235 . S
O136 Co126 2.021 . S
O136 C133 1.238 . S
O137 Co131 2.052 . S
O137 C133 1.241 . S
O138 Co126 2.137 . S
O138 C129 1.247 . S
O139 Co126 2.244 . S
O139 C129 1.272 . S
O139 Co131 2.135 . S
Co140 O141 2.216 . S
Co140 O142 2.091 . S
Co140 O144 2.004 . S
Co140 O150 2.021 . S
Co140 O152 2.137 . S
Co140 O153 2.244 . S
O141 Co140 2.216 . S
O141 C148 1.247 . S
O142 Co140 2.091 . S
O142 C148 1.261 . S
C143 O152 1.247 . S
C143 O153 1.272 . S
O144 Co140 2.004 . S
O144 C149 1.259 . S
Co145 O146 2.061 . S
Co145 O151 2.052 . S
Co145 O153 2.135 . S
O146 Co145 2.061 . S
O146 C149 1.235 . S
C147 O150 1.238 . S
C147 O151 1.241 . S
C148 O141 1.247 . S
C148 O142 1.261 . S
C149 O144 1.259 . S
C149 O146 1.235 . S
O150 Co140 2.021 . S
O150 C147 1.238 . S
O151 Co145 2.052 . S
O151 C147 1.241 . S
O152 Co140 2.137 . S
O152 C143 1.247 . S
O153 Co140 2.244 . S
O153 C143 1.272 . S
O153 Co145 2.135 . S
Co154 O155 2.216 . S
Co154 O156 2.091 . S
Co154 O158 2.004 . S
Co154 O164 2.021 . S
Co154 O166 2.137 . S
Co154 O167 2.244 . S
O155 Co154 2.216 . S
O155 C162 1.247 . S
O156 Co154 2.091 . S
O156 C162 1.261 . S
C157 O166 1.247 . S
C157 O167 1.272 . S
O158 Co154 2.004 . S
O158 C163 1.259 . S
Co159 O160 2.061 . S
Co159 O165 2.052 . S
Co159 O167 2.135 . S
O160 Co159 2.061 . S
O160 C163 1.235 . S
C161 O164 1.238 . S
C161 O165 1.241 . S
C162 O155 1.247 . S
C162 O156 1.261 . S
C163 O158 1.259 . S
C163 O160 1.235 . S
O164 Co154 2.021 . S
O164 C161 1.238 . S
O165 Co159 2.052 . S
O165 C161 1.241 . S
O166 Co154 2.137 . S
O166 C157 1.247 . S
O167 Co154 2.244 . S
O167 C157 1.272 . S
O167 Co159 2.135 . S
C168 C169 1.349 . S
C168 C170 1.327 . S
C168 H193 0.950 . S
C169 C168 1.349 . S
C169 C185 1.349 . S
C170 C168 1.327 . S
C170 C189 1.429 . S
C170 H194 0.950 . S
C171 C188 1.574 . S
C171 C190 1.368 . S
C171 H195 0.949 . S
H172 C176 0.949 . S
C173 C174 1.349 . S
C173 C175 1.327 . S
C173 H196 0.950 . S
C174 C173 1.349 . S
C174 C186 1.349 . S
C175 C173 1.327 . S
C175 C191 1.429 . S
C175 H197 0.950 . S
C176 H172 0.949 . S
C176 C184 1.574 . S
C176 C192 1.368 . S
H177 C185 0.950 . S
H178 C183 0.950 . S
H179 C184 0.949 . S
H180 C186 0.950 . S
H181 C187 0.950 . S
H182 C188 0.949 . S
C183 H178 0.950 . S
C183 C185 1.327 . S
C183 C189 1.429 . S
C184 C176 1.574 . S
C184 H179 0.949 . S
C184 C190 1.368 . S
C185 C169 1.349 . S
C185 H177 0.950 . S
C185 C183 1.327 . S
C186 C174 1.349 . S
C186 H180 0.950 . S
C186 C187 1.327 . S
C187 H181 0.950 . S
C187 C186 1.327 . S
C187 C191 1.429 . S
C188 C171 1.574 . S
C188 H182 0.949 . S
C188 C192 1.368 . S
C189 C170 1.429 . S
C189 C183 1.429 . S
C189 C190 1.523 . S
C190 C171 1.368 . S
C190 C184 1.368 . S
C190 C189 1.523 . S
C191 C175 1.429 . S
C191 C187 1.429 . S
C191 C192 1.523 . S
C192 C176 1.368 . S
C192 C188 1.368 . S
C192 C191 1.523 . S
H193 C168 0.950 . S
H194 C170 0.950 . S
H195 C171 0.949 . S
H196 C173 0.950 . S
H197 C175 0.950 . S
C198 C199 1.349 . S
C198 C200 1.327 . S
C198 H223 0.950 . S
C199 C198 1.349 . S
C199 C215 1.349 . S
C200 C198 1.327 . S
C200 C219 1.429 . S
C200 H224 0.950 . S
C201 C218 1.574 . S
C201 C220 1.368 1_655 S
C201 H225 0.949 . S
H202 C206 0.949 . S
C203 C204 1.349 . S
C203 C205 1.327 . S
C203 H226 0.950 . S
C204 C203 1.349 . S
C204 C216 1.349 . S
C205 C203 1.327 . S
C205 C221 1.429 . S
C205 H227 0.950 . S
C206 H202 0.949 . S
C206 C214 1.574 . S
C206 C222 1.368 1_455 S
H207 C215 0.950 . S
H208 C213 0.950 . S
H209 C214 0.949 . S
H210 C216 0.950 . S
H211 C217 0.950 . S
H212 C218 0.949 . S
C213 H208 0.950 . S
C213 C215 1.327 . S
C213 C219 1.429 . S
C214 C206 1.574 . S
C214 H209 0.949 . S
C214 C220 1.368 . S
C215 C199 1.349 . S
C215 H207 0.950 . S
C215 C213 1.327 . S
C216 C204 1.349 . S
C216 H210 0.950 . S
C216 C217 1.327 . S
C217 H211 0.950 . S
C217 C216 1.327 . S
C217 C221 1.429 . S
C218 C201 1.574 . S
C218 H212 0.949 . S
C218 C222 1.368 . S
C219 C200 1.429 . S
C219 C213 1.429 . S
C219 C220 1.523 . S
C220 C201 1.368 1_455 S
C220 C214 1.368 . S
C220 C219 1.523 . S
C221 C205 1.429 . S
C221 C217 1.429 . S
C221 C222 1.523 . S
C222 C206 1.368 1_655 S
C222 C218 1.368 . S
C222 C221 1.523 . S
H223 C198 0.950 . S
H224 C200 0.950 . S
H225 C201 0.949 . S
H226 C203 0.950 . S
H227 C205 0.950 . S
C228 C229 1.349 . S
C228 C230 1.327 . S
C228 H253 0.950 . S
C229 C228 1.349 . S
C229 C245 1.349 . S
C230 C228 1.327 . S
C230 C249 1.429 . S
C230 H254 0.950 . S
C231 C248 1.574 . S
C231 C250 1.368 1_545 S
C231 H255 0.949 . S
H232 C236 0.949 . S
C233 C234 1.349 . S
C233 C235 1.327 . S
C233 H256 0.950 . S
C234 C233 1.349 . S
C234 C246 1.349 . S
C235 C233 1.327 . S
C235 C251 1.429 . S
C235 H257 0.950 . S
C236 H232 0.949 . S
C236 C244 1.574 . S
C236 C252 1.368 1_565 S
H237 C245 0.950 . S
H238 C243 0.950 . S
H239 C244 0.949 . S
H240 C246 0.950 . S
H241 C247 0.950 . S
H242 C248 0.949 . S
C243 H238 0.950 . S
C243 C245 1.327 . S
C243 C249 1.429 . S
C244 C236 1.574 . S
C244 H239 0.949 . S
C244 C250 1.368 . S
C245 C229 1.349 . S
C245 H237 0.950 . S
C245 C243 1.327 . S
C246 C234 1.349 . S
C246 H240 0.950 . S
C246 C247 1.327 . S
C247 H241 0.950 . S
C247 C246 1.327 . S
C247 C251 1.429 . S
C248 C231 1.574 . S
C248 H242 0.949 . S
C248 C252 1.368 . S
C249 C230 1.429 . S
C249 C243 1.429 . S
C249 C250 1.523 . S
C250 C231 1.368 1_565 S
C250 C244 1.368 . S
C250 C249 1.523 . S
C251 C235 1.429 . S
C251 C247 1.429 . S
C251 C252 1.523 . S
C252 C236 1.368 1_545 S
C252 C248 1.368 . S
C252 C251 1.523 . S
H253 C228 0.950 . S
H254 C230 0.950 . S
H255 C231 0.949 . S
H256 C233 0.950 . S
H257 C235 0.950 . S
C258 C259 1.349 . S
C258 C260 1.327 . S
C258 H283 0.950 . S
C259 C258 1.349 . S
C259 C275 1.349 . S
C260 C258 1.327 . S
C260 C279 1.429 . S
C260 H284 0.950 . S
C261 C278 1.574 . S
C261 C280 1.368 . S
C261 H285 0.949 . S
H262 C266 0.949 . S
C263 C264 1.349 . S
C263 C265 1.327 . S
C263 H286 0.950 . S
C264 C263 1.349 . S
C264 C276 1.349 . S
C265 C263 1.327 . S
C265 C281 1.429 . S
C265 H287 0.950 . S
C266 H262 0.949 . S
C266 C274 1.574 . S
C266 C282 1.368 . S
H267 C275 0.950 . S
H268 C273 0.950 . S
H269 C274 0.949 . S
H270 C276 0.950 . S
H271 C277 0.950 . S
H272 C278 0.949 . S
C273 H268 0.950 . S
C273 C275 1.327 . S
C273 C279 1.429 . S
C274 C266 1.574 . S
C274 H269 0.949 . S
C274 C280 1.368 . S
C275 C259 1.349 . S
C275 H267 0.950 . S
C275 C273 1.327 . S
C276 C264 1.349 . S
C276 H270 0.950 . S
C276 C277 1.327 . S
C277 H271 0.950 . S
C277 C276 1.327 . S
C277 C281 1.429 . S
C278 C261 1.574 . S
C278 H272 0.949 . S
C278 C282 1.368 . S
C279 C260 1.429 . S
C279 C273 1.429 . S
C279 C280 1.523 . S
C280 C261 1.368 . S
C280 C274 1.368 . S
C280 C279 1.523 . S
C281 C265 1.429 . S
C281 C277 1.429 . S
C281 C282 1.523 . S
C282 C266 1.368 . S
C282 C278 1.368 . S
C282 C281 1.523 . S
H283 C258 0.950 . S
H284 C260 0.950 . S
H285 C261 0.949 . S
H286 C263 0.950 . S
H287 C265 0.950 . S
C288 C289 1.349 . S
C288 C290 1.327 . S
C288 H313 0.950 . S
C289 C288 1.349 . S
C289 C305 1.349 . S
C290 C288 1.327 . S
C290 C309 1.429 . S
C290 H314 0.950 . S
C291 C308 1.574 . S
C291 C310 1.368 . S
C291 H315 0.949 . S
H292 C296 0.949 . S
C293 C294 1.349 . S
C293 C295 1.327 . S
C293 H316 0.950 . S
C294 C293 1.349 . S
C294 C306 1.349 . S
C295 C293 1.327 . S
C295 C311 1.429 . S
C295 H317 0.950 . S
C296 H292 0.949 . S
C296 C304 1.574 . S
C296 C312 1.368 . S
H297 C305 0.950 . S
H298 C303 0.950 . S
H299 C304 0.949 . S
H300 C306 0.950 . S
H301 C307 0.950 . S
H302 C308 0.949 . S
C303 H298 0.950 . S
C303 C305 1.327 . S
C303 C309 1.429 . S
C304 C296 1.574 . S
C304 H299 0.949 . S
C304 C310 1.368 1_455 S
C305 C289 1.349 . S
C305 H297 0.950 . S
C305 C303 1.327 . S
C306 C294 1.349 . S
C306 H300 0.950 . S
C306 C307 1.327 . S
C307 H301 0.950 . S
C307 C306 1.327 . S
C307 C311 1.429 . S
C308 C291 1.574 . S
C308 H302 0.949 . S
C308 C312 1.368 1_655 S
C309 C290 1.429 . S
C309 C303 1.429 . S
C309 C310 1.523 . S
C310 C291 1.368 . S
C310 C304 1.368 1_655 S
C310 C309 1.523 . S
C311 C295 1.429 . S
C311 C307 1.429 . S
C311 C312 1.523 . S
C312 C296 1.368 . S
C312 C308 1.368 1_455 S
C312 C311 1.523 . S
H313 C288 0.950 . S
H314 C290 0.950 . S
H315 C291 0.949 . S
H316 C293 0.950 . S
H317 C295 0.950 . S
C318 C319 1.349 . S
C318 C320 1.327 . S
C318 H343 0.950 . S
C319 C318 1.349 . S
C319 C335 1.349 . S
C320 C318 1.327 . S
C320 C339 1.429 . S
C320 H344 0.950 . S
C321 C338 1.574 . S
C321 C340 1.368 . S
C321 H345 0.949 . S
H322 C326 0.949 . S
C323 C324 1.349 . S
C323 C325 1.327 . S
C323 H346 0.950 . S
C324 C323 1.349 . S
C324 C336 1.349 . S
C325 C323 1.327 . S
C325 C341 1.429 . S
C325 H347 0.950 . S
C326 H322 0.949 . S
C326 C334 1.574 . S
C326 C342 1.368 . S
H327 C335 0.950 . S
H328 C333 0.950 . S
H329 C334 0.949 . S
H330 C336 0.950 . S
H331 C337 0.950 . S
H332 C338 0.949 . S
C333 H328 0.950 . S
C333 C335 1.327 . S
C333 C339 1.429 . S
C334 C326 1.574 . S
C334 H329 0.949 . S
C334 C340 1.368 1_565 S
C335 C319 1.349 . S
C335 H327 0.950 . S
C335 C333 1.327 . S
C336 C324 1.349 . S
C336 H330 0.950 . S
C336 C337 1.327 . S
C337 H331 0.950 . S
C337 C336 1.327 . S
C337 C341 1.429 . S
C338 C321 1.574 . S
C338 H332 0.949 . S
C338 C342 1.368 1_545 S
C339 C320 1.429 . S
C339 C333 1.429 . S
C339 C340 1.523 . S
C340 C321 1.368 . S
C340 C334 1.368 1_545 S
C340 C339 1.523 . S
C341 C325 1.429 . S
C341 C337 1.429 . S
C341 C342 1.523 . S
C342 C326 1.368 . S
C342 C338 1.368 1_565 S
C342 C341 1.523 . S
H343 C318 0.950 . S
H344 C320 0.950 . S
H345 C321 0.949 . S
H346 C323 0.950 . S
H347 C325 0.950 . S
C348 C349 1.349 . S
C348 C350 1.327 . S
C348 H373 0.950 . S
C349 C348 1.349 . S
C349 C365 1.349 . S
C350 C348 1.327 . S
C350 C369 1.429 . S
C350 H374 0.950 . S
C351 C368 1.574 . S
C351 C370 1.368 . S
C351 H375 0.949 . S
H352 C356 0.949 . S
C353 C354 1.349 . S
C353 C355 1.327 . S
C353 H376 0.950 . S
C354 C353 1.349 . S
C354 C366 1.349 . S
C355 C353 1.327 . S
C355 C371 1.429 . S
C355 H377 0.950 . S
C356 H352 0.949 . S
C356 C364 1.574 . S
C356 C372 1.368 . S
H357 C365 0.950 . S
H358 C363 0.950 . S
H359 C364 0.949 . S
H360 C366 0.950 . S
H361 C367 0.950 . S
H362 C368 0.949 . S
C363 H358 0.950 . S
C363 C365 1.327 . S
C363 C369 1.429 . S
C364 C356 1.574 . S
C364 H359 0.949 . S
C364 C370 1.368 . S
C365 C349 1.349 . S
C365 H357 0.950 . S
C365 C363 1.327 . S
C366 C354 1.349 . S
C366 H360 0.950 . S
C366 C367 1.327 . S
C367 H361 0.950 . S
C367 C366 1.327 . S
C367 C371 1.429 . S
C368 C351 1.574 . S
C368 H362 0.949 . S
C368 C372 1.368 . S
C369 C350 1.429 . S
C369 C363 1.429 . S
C369 C370 1.523 . S
C370 C351 1.368 . S
C370 C364 1.368 . S
C370 C369 1.523 . S
C371 C355 1.429 . S
C371 C367 1.429 . S
C371 C372 1.523 . S
C372 C356 1.368 . S
C372 C368 1.368 . S
C372 C371 1.523 . S
H373 C348 0.950 . S
H374 C350 0.950 . S
H375 C351 0.949 . S
H376 C353 0.950 . S
H377 C355 0.950 . S
C378 C379 1.349 . S
C378 C380 1.327 . S
C378 H403 0.950 . S
C379 C378 1.349 . S
C379 C395 1.349 . S
C380 C378 1.327 . S
C380 C399 1.429 . S
C380 H404 0.950 . S
C381 C398 1.574 . S
C381 C400 1.368 . S
C381 H405 0.949 . S
H382 C386 0.949 . S
C383 C384 1.349 . S
C383 C385 1.327 . S
C383 H406 0.950 . S
C384 C383 1.349 . S
C384 C396 1.349 . S
C385 C383 1.327 . S
C385 C401 1.429 . S
C385 H407 0.950 . S
C386 H382 0.949 . S
C386 C394 1.574 . S
C386 C402 1.368 . S
H387 C395 0.950 . S
H388 C393 0.950 . S
H389 C394 0.949 . S
H390 C396 0.950 . S
H391 C397 0.950 . S
H392 C398 0.949 . S
C393 H388 0.950 . S
C393 C395 1.327 . S
C393 C399 1.429 . S
C394 C386 1.574 . S
C394 H389 0.949 . S
C394 C400 1.368 . S
C395 C379 1.349 . S
C395 H387 0.950 . S
C395 C393 1.327 . S
C396 C384 1.349 . S
C396 H390 0.950 . S
C396 C397 1.327 . S
C397 H391 0.950 . S
C397 C396 1.327 . S
C397 C401 1.429 . S
C398 C381 1.574 . S
C398 H392 0.949 . S
C398 C402 1.368 . S
C399 C380 1.429 . S
C399 C393 1.429 . S
C399 C400 1.523 . S
C400 C381 1.368 . S
C400 C394 1.368 . S
C400 C399 1.523 . S
C401 C385 1.429 . S
C401 C397 1.429 . S
C401 C402 1.523 . S
C402 C386 1.368 . S
C402 C398 1.368 . S
C402 C401 1.523 . S
H403 C378 0.950 . S
H404 C380 0.950 . S
H405 C381 0.949 . S
H406 C383 0.950 . S
H407 C385 0.950 . S
C408 C409 1.349 . S
C408 C410 1.327 . S
C408 H433 0.950 . S
C409 C408 1.349 . S
C409 C425 1.349 . S
C410 C408 1.327 . S
C410 C429 1.429 . S
C410 H434 0.950 . S
C411 C428 1.574 . S
C411 C430 1.368 . S
C411 H435 0.949 . S
H412 C416 0.949 . S
C413 C414 1.349 . S
C413 C415 1.327 . S
C413 H436 0.950 . S
C414 C413 1.349 . S
C414 C426 1.349 . S
C415 C413 1.327 . S
C415 C431 1.429 . S
C415 H437 0.950 . S
C416 H412 0.949 . S
C416 C424 1.574 . S
C416 C432 1.368 . S
H417 C425 0.950 . S
H418 C423 0.950 . S
H419 C424 0.949 . S
H420 C426 0.950 . S
H421 C427 0.950 . S
H422 C428 0.949 . S
C423 H418 0.950 . S
C423 C425 1.327 . S
C423 C429 1.429 . S
C424 C416 1.574 . S
C424 H419 0.949 . S
C424 C430 1.368 . S
C425 C409 1.349 . S
C425 H417 0.950 . S
C425 C423 1.327 . S
C426 C414 1.349 . S
C426 H420 0.950 . S
C426 C427 1.327 . S
C427 H421 0.950 . S
C427 C426 1.327 . S
C427 C431 1.429 . S
C428 C411 1.574 . S
C428 H422 0.949 . S
C428 C432 1.368 . S
C429 C410 1.429 . S
C429 C423 1.429 . S
C429 C430 1.523 . S
C430 C411 1.368 . S
C430 C424 1.368 . S
C430 C429 1.523 . S
C431 C415 1.429 . S
C431 C427 1.429 . S
C431 C432 1.523 . S
C432 C416 1.368 . S
C432 C428 1.368 . S
C432 C431 1.523 . S
H433 C408 0.950 . S
H434 C410 0.950 . S
H435 C411 0.949 . S
H436 C413 0.950 . S
H437 C415 0.950 . S
C438 C439 1.349 . S
C438 C440 1.327 . S
C438 H463 0.950 . S
C439 C438 1.349 . S
C439 C455 1.349 . S
C440 C438 1.327 . S
C440 C459 1.429 . S
C440 H464 0.950 . S
C441 C458 1.574 . S
C441 C460 1.368 . S
C441 H465 0.949 . S
H442 C446 0.949 . S
C443 C444 1.349 . S
C443 C445 1.327 . S
C443 H466 0.950 . S
C444 C443 1.349 . S
C444 C456 1.349 . S
C445 C443 1.327 . S
C445 C461 1.429 . S
C445 H467 0.950 . S
C446 H442 0.949 . S
C446 C454 1.574 . S
C446 C462 1.368 . S
H447 C455 0.950 . S
H448 C453 0.950 . S
H449 C454 0.949 . S
H450 C456 0.950 . S
H451 C457 0.950 . S
H452 C458 0.949 . S
C453 H448 0.950 . S
C453 C455 1.327 . S
C453 C459 1.429 . S
C454 C446 1.574 . S
C454 H449 0.949 . S
C454 C460 1.368 . S
C455 C439 1.349 . S
C455 H447 0.950 . S
C455 C453 1.327 . S
C456 C444 1.349 . S
C456 H450 0.950 . S
C456 C457 1.327 . S
C457 H451 0.950 . S
C457 C456 1.327 . S
C457 C461 1.429 . S
C458 C441 1.574 . S
C458 H452 0.949 . S
C458 C462 1.368 . S
C459 C440 1.429 . S
C459 C453 1.429 . S
C459 C460 1.523 . S
C460 C441 1.368 . S
C460 C454 1.368 . S
C460 C459 1.523 . S
C461 C445 1.429 . S
C461 C457 1.429 . S
C461 C462 1.523 . S
C462 C446 1.368 . S
C462 C458 1.368 . S
C462 C461 1.523 . S
H463 C438 0.950 . S
H464 C440 0.950 . S
H465 C441 0.949 . S
H466 C443 0.950 . S
H467 C445 0.950 . S
C468 C469 1.349 . S
C468 C470 1.327 . S
C468 H493 0.950 . S
C469 C468 1.349 . S
C469 C485 1.349 . S
C470 C468 1.327 . S
C470 C489 1.429 . S
C470 H494 0.950 . S
C471 C488 1.574 . S
C471 C490 1.368 . S
C471 H495 0.949 . S
H472 C476 0.949 . S
C473 C474 1.349 . S
C473 C475 1.327 . S
C473 H496 0.950 . S
C474 C473 1.349 . S
C474 C486 1.349 . S
C475 C473 1.327 . S
C475 C491 1.429 . S
C475 H497 0.950 . S
C476 H472 0.949 . S
C476 C484 1.574 . S
C476 C492 1.368 . S
H477 C485 0.950 . S
H478 C483 0.950 . S
H479 C484 0.949 . S
H480 C486 0.950 . S
H481 C487 0.950 . S
H482 C488 0.949 . S
C483 H478 0.950 . S
C483 C485 1.327 . S
C483 C489 1.429 . S
C484 C476 1.574 . S
C484 H479 0.949 . S
C484 C490 1.368 . S
C485 C469 1.349 . S
C485 H477 0.950 . S
C485 C483 1.327 . S
C486 C474 1.349 . S
C486 H480 0.950 . S
C486 C487 1.327 . S
C487 H481 0.950 . S
C487 C486 1.327 . S
C487 C491 1.429 . S
C488 C471 1.574 . S
C488 H482 0.949 . S
C488 C492 1.368 . S
C489 C470 1.429 . S
C489 C483 1.429 . S
C489 C490 1.523 . S
C490 C471 1.368 . S
C490 C484 1.368 . S
C490 C489 1.523 . S
C491 C475 1.429 . S
C491 C487 1.429 . S
C491 C492 1.523 . S
C492 C476 1.368 . S
C492 C488 1.368 . S
C492 C491 1.523 . S
H493 C468 0.950 . S
H494 C470 0.950 . S
H495 C471 0.949 . S
H496 C473 0.950 . S
H497 C475 0.950 . S
C498 C499 1.349 . S
C498 C500 1.327 . S
C498 H523 0.950 . S
C499 C498 1.349 . S
C499 C515 1.349 . S
C500 C498 1.327 . S
C500 C519 1.429 . S
C500 H524 0.950 . S
C501 C518 1.574 . S
C501 C520 1.368 . S
C501 H525 0.949 . S
H502 C506 0.949 . S
C503 C504 1.349 . S
C503 C505 1.327 . S
C503 H526 0.950 . S
C504 C503 1.349 . S
C504 C516 1.349 . S
C505 C503 1.327 . S
C505 C521 1.429 . S
C505 H527 0.950 . S
C506 H502 0.949 . S
C506 C514 1.574 . S
C506 C522 1.368 . S
H507 C515 0.950 . S
H508 C513 0.950 . S
H509 C514 0.949 . S
H510 C516 0.950 . S
H511 C517 0.950 . S
H512 C518 0.949 . S
C513 H508 0.950 . S
C513 C515 1.327 . S
C513 C519 1.429 . S
C514 C506 1.574 . S
C514 H509 0.949 . S
C514 C520 1.368 . S
C515 C499 1.349 . S
C515 H507 0.950 . S
C515 C513 1.327 . S
C516 C504 1.349 . S
C516 H510 0.950 . S
C516 C517 1.327 . S
C517 H511 0.950 . S
C517 C516 1.327 . S
C517 C521 1.429 . S
C518 C501 1.574 . S
C518 H512 0.949 . S
C518 C522 1.368 . S
C519 C500 1.429 . S
C519 C513 1.429 . S
C519 C520 1.523 . S
C520 C501 1.368 . S
C520 C514 1.368 . S
C520 C519 1.523 . S
C521 C505 1.429 . S
C521 C517 1.429 . S
C521 C522 1.523 . S
C522 C506 1.368 . S
C522 C518 1.368 . S
C522 C521 1.523 . S
H523 C498 0.950 . S
H524 C500 0.950 . S
H525 C501 0.949 . S
H526 C503 0.950 . S
H527 C505 0.950 . S
C528 C529 1.349 . S
C528 C530 1.327 . S
C528 H553 0.950 . S
C529 C528 1.349 . S
C529 C545 1.349 . S
C530 C528 1.327 . S
C530 C549 1.429 . S
C530 H554 0.950 . S
C531 C548 1.599 1_565 S
C531 C550 1.344 1_554 S
C531 H555 0.953 . S
H532 C536 0.949 . S
C533 C534 1.349 . S
C533 C535 1.327 . S
C533 H556 0.950 . S
C534 C533 1.349 . S
C534 C546 1.349 . S
C535 C533 1.327 . S
C535 C551 1.429 . S
C535 H557 0.950 . S
C536 H532 0.949 . S
C536 C544 1.584 1_545 S
C536 C552 1.358 1_556 S
H537 C545 0.950 . S
H538 C543 0.950 . S
H539 C544 0.949 . S
H540 C546 0.950 . S
H541 C547 0.950 . S
H542 C548 0.949 . S
C543 H538 0.950 . S
C543 C545 1.327 . S
C543 C549 1.429 . S
C544 C536 1.584 1_565 S
C544 H539 0.949 . S
C544 C550 1.368 . S
C545 C529 1.349 . S
C545 H537 0.950 . S
C545 C543 1.327 . S
C546 C534 1.349 . S
C546 H540 0.950 . S
C546 C547 1.327 . S
C547 H541 0.950 . S
C547 C546 1.327 . S
C547 C551 1.429 . S
C548 C531 1.599 1_545 S
C548 H542 0.949 . S
C548 C552 1.368 . S
C549 C530 1.429 . S
C549 C543 1.429 . S
C549 C550 1.523 . S
C550 C531 1.344 1_556 S
C550 C544 1.368 . S
C550 C549 1.523 . S
C551 C535 1.429 . S
C551 C547 1.429 . S
C551 C552 1.523 . S
C552 C536 1.358 1_554 S
C552 C548 1.368 . S
C552 C551 1.523 . S
H553 C528 0.950 . S
H554 C530 0.950 . S
H555 C531 0.953 . S
H556 C533 0.950 . S
H557 C535 0.950 . S
C558 C559 1.349 . S
C558 C560 1.327 . S
C558 H583 0.950 . S
C559 C558 1.349 . S
C559 C575 1.349 . S
C560 C558 1.327 . S
C560 C579 1.429 . S
C560 H584 0.950 . S
C561 C578 1.574 . S
C561 C580 1.368 . S
C561 H585 0.949 . S
H562 C566 0.949 . S
C563 C564 1.349 . S
C563 C565 1.327 . S
C563 H586 0.950 . S
C564 C563 1.349 . S
C564 C576 1.349 . S
C565 C563 1.327 . S
C565 C581 1.429 . S
C565 H587 0.950 . S
C566 H562 0.949 . S
C566 C574 1.574 . S
C566 C582 1.368 . S
H567 C575 0.950 . S
H568 C573 0.950 . S
H569 C574 0.949 . S
H570 C576 0.950 . S
H571 C577 0.950 . S
H572 C578 0.949 . S
C573 H568 0.950 . S
C573 C575 1.327 . S
C573 C579 1.429 . S
C574 C566 1.574 . S
C574 H569 0.949 . S
C574 C580 1.368 . S
C575 C559 1.349 . S
C575 H567 0.950 . S
C575 C573 1.327 . S
C576 C564 1.349 . S
C576 H570 0.950 . S
C576 C577 1.327 . S
C577 H571 0.950 . S
C577 C576 1.327 . S
C577 C581 1.429 . S
C578 C561 1.574 . S
C578 H572 0.949 . S
C578 C582 1.368 . S
C579 C560 1.429 . S
C579 C573 1.429 . S
C579 C580 1.523 . S
C580 C561 1.368 . S
C580 C574 1.368 . S
C580 C579 1.523 . S
C581 C565 1.429 . S
C581 C577 1.429 . S
C581 C582 1.523 . S
C582 C566 1.368 . S
C582 C578 1.368 . S
C582 C581 1.523 . S
H583 C558 0.950 . S
H584 C560 0.950 . S
H585 C561 0.949 . S
H586 C563 0.950 . S
H587 C565 0.950 . S
C588 C589 1.349 . S
C588 C590 1.327 . S
C588 H613 0.950 . S
C589 C588 1.349 . S
C589 C605 1.349 . S
C590 C588 1.327 . S
C590 C609 1.429 . S
C590 H614 0.950 . S
C591 C608 1.574 1_655 S
C591 C610 1.368 . S
C591 H615 0.949 . S
H592 C596 0.949 . S
C593 C594 1.349 . S
C593 C595 1.327 . S
C593 H616 0.950 . S
C594 C593 1.349 . S
C594 C606 1.349 . S
C595 C593 1.327 . S
C595 C611 1.429 . S
C595 H617 0.950 . S
C596 H592 0.949 . S
C596 C604 1.574 1_455 S
C596 C612 1.368 . S
H597 C605 0.950 . S
H598 C603 0.950 . S
H599 C604 0.949 . S
H600 C606 0.950 . S
H601 C607 0.950 . S
H602 C608 0.949 . S
C603 H598 0.950 . S
C603 C605 1.327 . S
C603 C609 1.429 . S
C604 C596 1.574 1_655 S
C604 H599 0.949 . S
C604 C610 1.368 . S
C605 C589 1.349 . S
C605 H597 0.950 . S
C605 C603 1.327 . S
C606 C594 1.349 . S
C606 H600 0.950 . S
C606 C607 1.327 . S
C607 H601 0.950 . S
C607 C606 1.327 . S
C607 C611 1.429 . S
C608 C591 1.574 1_455 S
C608 H602 0.949 . S
C608 C612 1.368 . S
C609 C590 1.429 . S
C609 C603 1.429 . S
C609 C610 1.523 . S
C610 C591 1.368 . S
C610 C604 1.368 . S
C610 C609 1.523 . S
C611 C595 1.429 . S
C611 C607 1.429 . S
C611 C612 1.523 . S
C612 C596 1.368 . S
C612 C608 1.368 . S
C612 C611 1.523 . S
H613 C588 0.950 . S
H614 C590 0.950 . S
H615 C591 0.949 . S
H616 C593 0.950 . S
H617 C595 0.950 . S
C618 C619 1.349 . S
C618 C620 1.327 . S
C618 H643 0.950 . S
C619 C618 1.349 . S
C619 C635 1.349 . S
C620 C618 1.327 . S
C620 C639 1.429 . S
C620 H644 0.950 1_554 S
C621 C638 1.574 1_565 S
C621 C640 1.368 . S
C621 H645 0.949 . S
H622 C626 0.949 . S
C623 C624 1.349 . S
C623 C625 1.327 . S
C623 H646 0.950 . S
C624 C623 1.349 . S
C624 C636 1.349 . S
C625 C623 1.327 . S
C625 C641 1.429 . S
C625 H647 0.950 1_556 S
C626 H622 0.949 . S
C626 C634 1.574 1_545 S
C626 C642 1.368 . S
H627 C635 0.950 . S
H628 C633 0.950 . S
H629 C634 0.949 . S
H630 C636 0.950 . S
H631 C637 0.950 . S
H632 C638 0.949 . S
C633 H628 0.950 . S
C633 C635 1.327 . S
C633 C639 1.429 . S
C634 C626 1.574 1_565 S
C634 H629 0.949 . S
C634 C640 1.368 1_556 S
C635 C619 1.349 . S
C635 H627 0.950 . S
C635 C633 1.327 . S
C636 C624 1.349 . S
C636 H630 0.950 . S
C636 C637 1.327 . S
C637 H631 0.950 . S
C637 C636 1.327 . S
C637 C641 1.429 . S
C638 C621 1.574 1_545 S
C638 H632 0.949 . S
C638 C642 1.368 1_554 S
C639 C620 1.429 . S
C639 C633 1.429 . S
C639 C640 1.523 . S
C640 C621 1.368 . S
C640 C634 1.368 1_554 S
C640 C639 1.523 . S
C641 C625 1.429 . S
C641 C637 1.429 . S
C641 C642 1.523 . S
C642 C626 1.368 . S
C642 C638 1.368 1_556 S
C642 C641 1.523 . S
H643 C618 0.950 . S
H644 C620 0.950 1_556 S
H645 C621 0.949 . S
H646 C623 0.950 . S
H647 C625 0.950 1_554 S
C648 C649 1.349 . S
C648 C650 1.327 . S
C648 H673 0.950 . S
C649 C648 1.349 . S
C649 C665 1.349 . S
C650 C648 1.327 . S
C650 C669 1.429 . S
C650 H674 0.950 . S
C651 C668 1.574 . S
C651 C670 1.368 . S
C651 H675 0.949 . S
H652 C656 0.949 . S
C653 C654 1.349 . S
C653 C655 1.327 . S
C653 H676 0.950 . S
C654 C653 1.349 . S
C654 C666 1.349 . S
C655 C653 1.327 . S
C655 C671 1.429 . S
C655 H677 0.950 . S
C656 H652 0.949 . S
C656 C664 1.574 . S
C656 C672 1.368 . S
H657 C665 0.950 . S
H658 C663 0.950 . S
H659 C664 0.949 . S
H660 C666 0.950 . S
H661 C667 0.950 . S
H662 C668 0.949 . S
C663 H658 0.950 . S
C663 C665 1.327 . S
C663 C669 1.429 . S
C664 C656 1.574 . S
C664 H659 0.949 . S
C664 C670 1.368 . S
C665 C649 1.349 . S
C665 H657 0.950 . S
C665 C663 1.327 . S
C666 C654 1.349 . S
C666 H660 0.950 . S
C666 C667 1.327 . S
C667 H661 0.950 . S
C667 C666 1.327 . S
C667 C671 1.429 . S
C668 C651 1.574 . S
C668 H662 0.949 . S
C668 C672 1.368 . S
C669 C650 1.429 . S
C669 C663 1.429 . S
C669 C670 1.523 . S
C670 C651 1.368 . S
C670 C664 1.368 . S
C670 C669 1.523 . S
C671 C655 1.429 . S
C671 C667 1.429 . S
C671 C672 1.523 . S
C672 C656 1.368 . S
C672 C668 1.368 . S
C672 C671 1.523 . S
H673 C648 0.950 . S
H674 C650 0.950 . S
H675 C651 0.949 . S
H676 C653 0.950 . S
H677 C655 0.950 . S
C678 C679 1.349 . S
C678 C680 1.327 . S
C678 H703 0.950 . S
C679 C678 1.349 . S
C679 C695 1.349 . S
C680 C678 1.327 . S
C680 C699 1.429 . S
C680 H704 0.950 . S
C681 C698 1.574 1_455 S
C681 C700 1.368 . S
C681 H705 0.949 . S
H682 C686 0.949 . S
C683 C684 1.349 . S
C683 C685 1.327 . S
C683 H706 0.950 . S
C684 C683 1.349 . S
C684 C696 1.349 . S
C685 C683 1.327 . S
C685 C701 1.429 . S
C685 H707 0.950 . S
C686 H682 0.949 . S
C686 C694 1.574 1_655 S
C686 C702 1.368 . S
H687 C695 0.950 . S
H688 C693 0.950 . S
H689 C694 0.949 . S
H690 C696 0.950 . S
H691 C697 0.950 . S
H692 C698 0.949 . S
C693 H688 0.950 . S
C693 C695 1.327 . S
C693 C699 1.429 . S
C694 C686 1.574 1_455 S
C694 H689 0.949 . S
C694 C700 1.368 . S
C695 C679 1.349 . S
C695 H687 0.950 . S
C695 C693 1.327 . S
C696 C684 1.349 . S
C696 H690 0.950 . S
C696 C697 1.327 . S
C697 H691 0.950 . S
C697 C696 1.327 . S
C697 C701 1.429 . S
C698 C681 1.574 1_655 S
C698 H692 0.949 . S
C698 C702 1.368 . S
C699 C680 1.429 . S
C699 C693 1.429 . S
C699 C700 1.523 . S
C700 C681 1.368 . S
C700 C694 1.368 . S
C700 C699 1.523 . S
C701 C685 1.429 . S
C701 C697 1.429 . S
C701 C702 1.523 . S
C702 C686 1.368 . S
C702 C698 1.368 . S
C702 C701 1.523 . S
H703 C678 0.950 . S
H704 C680 0.950 . S
H705 C681 0.949 . S
H706 C683 0.950 . S
H707 C685 0.950 . S
C708 C709 1.349 1_455 S
C708 C710 1.327 . S
C708 H733 0.950 . S
C709 C708 1.349 1_655 S
C709 C725 1.349 1_655 S
C710 C708 1.327 . S
C710 C729 1.429 . S
C710 H734 0.950 . S
C711 C728 1.574 . S
C711 C730 1.368 . S
C711 H735 0.949 . S
H712 C716 0.949 . S
C713 C714 1.349 . S
C713 C715 1.327 . S
C713 H736 0.950 . S
C714 C713 1.349 . S
C714 C726 1.349 . S
C715 C713 1.327 . S
C715 C731 1.429 . S
C715 H737 0.950 . S
C716 H712 0.949 . S
C716 C724 1.574 . S
C716 C732 1.368 . S
H717 C725 0.950 1_655 S
H718 C723 0.950 . S
H719 C724 0.949 . S
H720 C726 0.950 . S
H721 C727 0.950 . S
H722 C728 0.949 . S
C723 H718 0.950 . S
C723 C725 1.327 . S
C723 C729 1.429 . S
C724 C716 1.574 . S
C724 H719 0.949 . S
C724 C730 1.368 1_554 S
C725 C709 1.349 1_455 S
C725 H717 0.950 1_455 S
C725 C723 1.327 . S
C726 C714 1.349 . S
C726 H720 0.950 . S
C726 C727 1.327 . S
C727 H721 0.950 . S
C727 C726 1.327 . S
C727 C731 1.429 . S
C728 C711 1.574 . S
C728 H722 0.949 . S
C728 C732 1.368 1_556 S
C729 C710 1.429 . S
C729 C723 1.429 . S
C729 C730 1.523 . S
C730 C711 1.368 . S
C730 C724 1.368 1_556 S
C730 C729 1.523 . S
C731 C715 1.429 . S
C731 C727 1.429 . S
C731 C732 1.523 . S
C732 C716 1.368 . S
C732 C728 1.368 1_554 S
C732 C731 1.523 . S
H733 C708 0.950 . S
H734 C710 0.950 . S
H735 C711 0.949 . S
H736 C713 0.950 . S
H737 C715 0.950 . S
C738 C739 1.349 1_545 S
C738 C740 1.327 . S
C738 H763 0.950 . S
C739 C738 1.349 1_565 S
C739 C755 1.349 . S
C740 C738 1.327 . S
C740 C759 1.429 . S
C740 H764 0.950 . S
C741 C758 1.574 . S
C741 C760 1.368 . S
C741 H765 0.949 . S
H742 C746 0.949 . S
C743 C744 1.349 1_655 S
C743 C745 1.327 . S
C743 H766 0.950 1_655 S
C744 C743 1.349 1_455 S
C744 C756 1.349 1_455 S
C745 C743 1.327 . S
C745 C761 1.429 . S
C745 H767 0.950 . S
C746 H742 0.949 . S
C746 C754 1.574 . S
C746 C762 1.368 . S
H747 C755 0.950 . S
H748 C753 0.950 . S
H749 C754 0.949 . S
H750 C756 0.950 . S
H751 C757 0.950 . S
H752 C758 0.949 . S
C753 H748 0.950 . S
C753 C755 1.327 1_545 S
C753 C759 1.429 . S
C754 C746 1.574 . S
C754 H749 0.949 . S
C754 C760 1.368 . S
C755 C739 1.349 . S
C755 H747 0.950 . S
C755 C753 1.327 1_565 S
C756 C744 1.349 1_655 S
C756 H750 0.950 . S
C756 C757 1.327 . S
C757 H751 0.950 . S
C757 C756 1.327 . S
C757 C761 1.429 . S
C758 C741 1.574 . S
C758 H752 0.949 . S
C758 C762 1.368 . S
C759 C740 1.429 . S
C759 C753 1.429 . S
C759 C760 1.523 . S
C760 C741 1.368 . S
C760 C754 1.368 . S
C760 C759 1.523 . S
C761 C745 1.429 . S
C761 C757 1.429 . S
C761 C762 1.523 . S
C762 C746 1.368 . S
C762 C758 1.368 . S
C762 C761 1.523 . S
H763 C738 0.950 . S
H764 C740 0.950 . S
H765 C741 0.949 . S
H766 C743 0.950 1_455 S
H767 C745 0.950 . S
C768 C769 1.349 . S
C768 C770 1.327 . S
C768 H793 0.950 . S
C769 C768 1.349 . S
C769 C785 1.349 . S
C770 C768 1.327 . S
C770 C789 1.429 . S
C770 H794 0.950 . S
C771 C788 1.574 . S
C771 C790 1.368 . S
C771 H795 0.949 . S
H772 C776 0.949 . S
C773 C774 1.349 1_565 S
C773 C775 1.327 . S
C773 H796 0.950 . S
C774 C773 1.349 1_545 S
C774 C786 1.349 1_545 S
C775 C773 1.327 . S
C775 C791 1.429 . S
C775 H797 0.950 . S
C776 H772 0.949 . S
C776 C784 1.574 . S
C776 C792 1.368 . S
H777 C785 0.950 . S
H778 C783 0.950 . S
H779 C784 0.949 . S
H780 C786 0.950 1_545 S
H781 C787 0.950 . S
H782 C788 0.949 . S
C783 H778 0.950 . S
C783 C785 1.327 . S
C783 C789 1.429 . S
C784 C776 1.574 . S
C784 H779 0.949 . S
C784 C790 1.368 . S
C785 C769 1.349 . S
C785 H777 0.950 . S
C785 C783 1.327 . S
C786 C774 1.349 1_565 S
C786 H780 0.950 1_565 S
C786 C787 1.327 . S
C787 H781 0.950 . S
C787 C786 1.327 . S
C787 C791 1.429 . S
C788 C771 1.574 . S
C788 H782 0.949 . S
C788 C792 1.368 . S
C789 C770 1.429 . S
C789 C783 1.429 . S
C789 C790 1.523 . S
C790 C771 1.368 . S
C790 C784 1.368 . S
C790 C789 1.523 . S
C791 C775 1.429 . S
C791 C787 1.429 . S
C791 C792 1.523 . S
C792 C776 1.368 . S
C792 C788 1.368 . S
C792 C791 1.523 . S
H793 C768 0.950 . S
H794 C770 0.950 . S
H795 C771 0.949 . S
H796 C773 0.950 . S
H797 C775 0.950 . S
C798 C799 1.349 . S
C798 C800 1.327 . S
C798 H823 0.950 . S
C799 C798 1.349 . S
C799 C815 1.349 . S
C800 C798 1.327 . S
C800 C819 1.429 . S
C800 H824 0.950 . S
C801 C818 1.574 . S
C801 C820 1.368 1_556 S
C801 H825 0.949 . S
H802 C806 0.949 . S
C803 C804 1.349 1_655 S
C803 C805 1.327 . S
C803 H826 0.950 . S
C804 C803 1.349 1_455 S
C804 C816 1.349 . S
C805 C803 1.327 . S
C805 C821 1.429 . S
C805 H827 0.950 . S
C806 H802 0.949 . S
C806 C814 1.574 . S
C806 C822 1.368 1_554 S
H807 C815 0.950 . S
H808 C813 0.950 . S
H809 C814 0.949 . S
H810 C816 0.950 . S
H811 C817 0.950 . S
H812 C818 0.949 . S
C813 H808 0.950 . S
C813 C815 1.327 . S
C813 C819 1.429 . S
C814 C806 1.574 . S
C814 H809 0.949 . S
C814 C820 1.368 . S
C815 C799 1.349 . S
C815 H807 0.950 . S
C815 C813 1.327 . S
C816 C804 1.349 . S
C816 H810 0.950 . S
C816 C817 1.327 1_455 S
C817 H811 0.950 . S
C817 C816 1.327 1_655 S
C817 C821 1.429 . S
C818 C801 1.574 . S
C818 H812 0.949 . S
C818 C822 1.368 . S
C819 C800 1.429 . S
C819 C813 1.429 . S
C819 C820 1.523 . S
C820 C801 1.368 1_554 S
C820 C814 1.368 . S
C820 C819 1.523 . S
C821 C805 1.429 . S
C821 C817 1.429 . S
C821 C822 1.523 . S
C822 C806 1.368 1_556 S
C822 C818 1.368 . S
C822 C821 1.523 . S
H823 C798 0.950 . S
H824 C800 0.950 . S
H825 C801 0.949 . S
H826 C803 0.950 . S
H827 C805 0.950 . S
C828 C829 1.349 1_455 S
C828 C830 1.327 . S
C828 H853 0.950 . S
C829 C828 1.349 1_655 S
C829 C845 1.349 . S
C830 C828 1.327 . S
C830 C849 1.429 . S
C830 H854 0.950 . S
C831 C848 1.574 . S
C831 C850 1.368 . S
C831 H855 0.949 . S
H832 C836 0.949 . S
C833 C834 1.349 1_565 S
C833 C835 1.327 . S
C833 H856 0.950 . S
C834 C833 1.349 1_545 S
C834 C846 1.349 1_545 S
C835 C833 1.327 . S
C835 C851 1.429 . S
C835 H857 0.950 . S
C836 H832 0.949 . S
C836 C844 1.574 . S
C836 C852 1.368 . S
H837 C845 0.950 . S
H838 C843 0.950 . S
H839 C844 0.949 . S
H840 C846 0.950 1_545 S
H841 C847 0.950 . S
H842 C848 0.949 . S
C843 H838 0.950 . S
C843 C845 1.327 1_455 S
C843 C849 1.429 . S
C844 C836 1.574 . S
C844 H839 0.949 . S
C844 C850 1.368 . S
C845 C829 1.349 . S
C845 H837 0.950 . S
C845 C843 1.327 1_655 S
C846 C834 1.349 1_565 S
C846 H840 0.950 1_565 S
C846 C847 1.327 . S
C847 H841 0.950 . S
C847 C846 1.327 . S
C847 C851 1.429 . S
C848 C831 1.574 . S
C848 H842 0.949 . S
C848 C852 1.368 . S
C849 C830 1.429 . S
C849 C843 1.429 . S
C849 C850 1.523 . S
C850 C831 1.368 . S
C850 C844 1.368 . S
C850 C849 1.523 . S
C851 C835 1.429 . S
C851 C847 1.429 . S
C851 C852 1.523 . S
C852 C836 1.368 . S
C852 C848 1.368 . S
C852 C851 1.523 . S
H853 C828 0.950 . S
H854 C830 0.950 . S
H855 C831 0.949 . S
H856 C833 0.950 . S
H857 C835 0.950 . S
C858 C859 1.349 1_545 S
C858 C860 1.327 . S
C858 H883 0.950 . S
C859 C858 1.349 1_565 S
C859 C875 1.349 1_565 S
C860 C858 1.327 . S
C860 C879 1.429 . S
C860 H884 0.950 . S
C861 C878 1.574 . S
C861 C880 1.368 . S
C861 H885 0.949 . S
H862 C866 0.949 . S
C863 C864 1.349 . S
C863 C865 1.327 . S
C863 H886 0.950 . S
C864 C863 1.349 . S
C864 C876 1.349 . S
C865 C863 1.327 . S
C865 C881 1.429 . S
C865 H887 0.950 . S
C866 H862 0.949 . S
C866 C874 1.574 . S
C866 C882 1.368 . S
H867 C875 0.950 1_565 S
H868 C873 0.950 . S
H869 C874 0.949 . S
H870 C876 0.950 . S
H871 C877 0.950 . S
H872 C878 0.949 . S
C873 H868 0.950 . S
C873 C875 1.327 . S
C873 C879 1.429 . S
C874 C866 1.574 . S
C874 H869 0.949 . S
C874 C880 1.368 . S
C875 C859 1.349 1_545 S
C875 H867 0.950 1_545 S
C875 C873 1.327 . S
C876 C864 1.349 . S
C876 H870 0.950 . S
C876 C877 1.327 . S
C877 H871 0.950 . S
C877 C876 1.327 . S
C877 C881 1.429 . S
C878 C861 1.574 . S
C878 H872 0.949 . S
C878 C882 1.368 . S
C879 C860 1.429 . S
C879 C873 1.429 . S
C879 C880 1.523 . S
C880 C861 1.368 . S
C880 C874 1.368 . S
C880 C879 1.523 . S
C881 C865 1.429 . S
C881 C877 1.429 . S
C881 C882 1.523 . S
C882 C866 1.368 . S
C882 C878 1.368 . S
C882 C881 1.523 . S
H883 C858 0.950 . S
H884 C860 0.950 . S
H885 C861 0.949 . S
H886 C863 0.950 . S
H887 C865 0.950 . S
C169 C50 1.319 . S
C174 C8 1.319 . S
C199 C22 1.319 . S
C204 C64 1.319 . S
C229 C78 1.319 . S
C234 C36 1.319 . S
C259 C92 1.319 . S
C264 C134 1.319 . S
C289 C148 1.319 . S
C294 C106 1.319 . S
C319 C120 1.319 . S
C324 C162 1.319 . S
C349 C119 1.616 . S
C354 C7 1.616 . S
C379 C21 1.616 . S
C384 C133 1.616 . S
C409 C35 1.616 . S
C414 C147 1.616 . S
C439 C49 1.616 . S
C444 C161 1.616 . S
C469 C91 1.616 . S
C474 C63 1.616 . S
C499 C105 1.616 . S
C504 C77 1.616 . S
C529 C107 1.111 . S
C534 C9 1.111 . S
C559 C23 1.111 . S
C564 C121 1.111 . S
C589 C37 1.111 . S
C594 C135 1.111 . S
C619 C51 1.111 . S
C624 C149 1.111 . S
C649 C163 1.111 . S
C654 C65 1.111 . S
C679 C79 1.111 . S
C684 C93 1.111 . S
C709 C143 1.445 . S
C714 C3 1.445 . S
C739 C157 1.445 . S
C744 C17 1.445 . S
C769 C87 1.445 . S
C774 C31 1.445 . S
C799 C45 1.445 . S
C804 C101 1.445 . S
C829 C59 1.445 . S
C834 C115 1.445 . S
C859 C73 1.445 . S
C864 C129 1.445 . S
