# Generated by pormake.
# Topology whh, (6)-cn, num edge types: 1
# Building blocks:
#     Node 0, Type 0, BuildingBlock: MAKGUD_clean_sbu_1, # of connection points: 6
#     Node 1, Type 0, BuildingBlock: MAKGUD_clean_sbu_1, # of connection points: 6
#     Node 2, Type 0, BuildingBlock: MAKGUD_clean_sbu_1, # of connection points: 6
#     Node 3, Type 0, BuildingBlock: MAKGUD_clean_sbu_1, # of connection points: 6
#     Node 4, Type 0, BuildingBlock: MAKGUD_clean_sbu_1, # of connection points: 6
#     Node 5, Type 0, BuildingBlock: MAKGUD_clean_sbu_1, # of connection points: 6
#     Node 6, Type 0, BuildingBlock: MAKGUD_clean_sbu_1, # of connection points: 6
#     Node 7, Type 0, BuildingBlock: MAKGUD_clean_sbu_1, # of connection points: 6
#     Node 8, Type 0, BuildingBlock: MAKGUD_clean_sbu_1, # of connection points: 6
#     Node 9, Type 0, BuildingBlock: MAKGUD_clean_sbu_1, # of connection points: 6
#     Node 10, Type 0, BuildingBlock: MAKGUD_clean_sbu_1, # of connection points: 6
#     Node 11, Type 0, BuildingBlock: MAKGUD_clean_sbu_1, # of connection points: 6
#     Node 12, Type 0, BuildingBlock: MAKGUD_clean_sbu_1, # of connection points: 6
#     Node 13, Type 0, BuildingBlock: MAKGUD_clean_sbu_1, # of connection points: 6
#     Node 14, Type 0, BuildingBlock: MAKGUD_clean_sbu_1, # of connection points: 6
#     Node 15, Type 0, BuildingBlock: MAKGUD_clean_sbu_1, # of connection points: 6
#     Edge 16, Type (0, 0), BuildingBlock: OJICUG_clean_linker_0, # of connection points: 2
#     Edge 17, Type (0, 0), BuildingBlock: OJICUG_clean_linker_0, # of connection points: 2
#     Edge 18, Type (0, 0), BuildingBlock: OJICUG_clean_linker_0, # of connection points: 2
#     Edge 19, Type (0, 0), BuildingBlock: OJICUG_clean_linker_0, # of connection points: 2
#     Edge 20, Type (0, 0), BuildingBlock: OJICUG_clean_linker_0, # of connection points: 2
#     Edge 21, Type (0, 0), BuildingBlock: OJICUG_clean_linker_0, # of connection points: 2
#     Edge 22, Type (0, 0), BuildingBlock: OJICUG_clean_linker_0, # of connection points: 2
#     Edge 23, Type (0, 0), BuildingBlock: OJICUG_clean_linker_0, # of connection points: 2
#     Edge 24, Type (0, 0), BuildingBlock: OJICUG_clean_linker_0, # of connection points: 2
#     Edge 25, Type (0, 0), BuildingBlock: OJICUG_clean_linker_0, # of connection points: 2
#     Edge 26, Type (0, 0), BuildingBlock: OJICUG_clean_linker_0, # of connection points: 2
#     Edge 27, Type (0, 0), BuildingBlock: OJICUG_clean_linker_0, # of connection points: 2
#     Edge 28, Type (0, 0), BuildingBlock: OJICUG_clean_linker_0, # of connection points: 2
#     Edge 29, Type (0, 0), BuildingBlock: OJICUG_clean_linker_0, # of connection points: 2
#     Edge 30, Type (0, 0), BuildingBlock: OJICUG_clean_linker_0, # of connection points: 2
#     Edge 31, Type (0, 0), BuildingBlock: OJICUG_clean_linker_0, # of connection points: 2
#     Edge 32, Type (0, 0), BuildingBlock: OJICUG_clean_linker_0, # of connection points: 2
#     Edge 33, Type (0, 0), BuildingBlock: OJICUG_clean_linker_0, # of connection points: 2
#     Edge 34, Type (0, 0), BuildingBlock: OJICUG_clean_linker_0, # of connection points: 2
#     Edge 35, Type (0, 0), BuildingBlock: OJICUG_clean_linker_0, # of connection points: 2
#     Edge 36, Type (0, 0), BuildingBlock: OJICUG_clean_linker_0, # of connection points: 2
#     Edge 37, Type (0, 0), BuildingBlock: OJICUG_clean_linker_0, # of connection points: 2
#     Edge 38, Type (0, 0), BuildingBlock: OJICUG_clean_linker_0, # of connection points: 2
#     Edge 39, Type (0, 0), BuildingBlock: OJICUG_clean_linker_0, # of connection points: 2
#     Edge 40, Type (0, 0), BuildingBlock: OJICUG_clean_linker_0, # of connection points: 2
#     Edge 41, Type (0, 0), BuildingBlock: OJICUG_clean_linker_0, # of connection points: 2
#     Edge 42, Type (0, 0), BuildingBlock: OJICUG_clean_linker_0, # of connection points: 2
#     Edge 43, Type (0, 0), BuildingBlock: OJICUG_clean_linker_0, # of connection points: 2
#     Edge 44, Type (0, 0), BuildingBlock: OJICUG_clean_linker_0, # of connection points: 2
#     Edge 45, Type (0, 0), BuildingBlock: OJICUG_clean_linker_0, # of connection points: 2
#     Edge 46, Type (0, 0), BuildingBlock: OJICUG_clean_linker_0, # of connection points: 2
#     Edge 47, Type (0, 0), BuildingBlock: OJICUG_clean_linker_0, # of connection points: 2
#     Edge 48, Type (0, 0), BuildingBlock: OJICUG_clean_linker_0, # of connection points: 2
#     Edge 49, Type (0, 0), BuildingBlock: OJICUG_clean_linker_0, # of connection points: 2
#     Edge 50, Type (0, 0), BuildingBlock: OJICUG_clean_linker_0, # of connection points: 2
#     Edge 51, Type (0, 0), BuildingBlock: OJICUG_clean_linker_0, # of connection points: 2
#     Edge 52, Type (0, 0), BuildingBlock: OJICUG_clean_linker_0, # of connection points: 2
#     Edge 53, Type (0, 0), BuildingBlock: OJICUG_clean_linker_0, # of connection points: 2
#     Edge 54, Type (0, 0), BuildingBlock: OJICUG_clean_linker_0, # of connection points: 2
#     Edge 55, Type (0, 0), BuildingBlock: OJICUG_clean_linker_0, # of connection points: 2
#     Edge 56, Type (0, 0), BuildingBlock: OJICUG_clean_linker_0, # of connection points: 2
#     Edge 57, Type (0, 0), BuildingBlock: OJICUG_clean_linker_0, # of connection points: 2
#     Edge 58, Type (0, 0), BuildingBlock: OJICUG_clean_linker_0, # of connection points: 2
#     Edge 59, Type (0, 0), BuildingBlock: OJICUG_clean_linker_0, # of connection points: 2
#     Edge 60, Type (0, 0), BuildingBlock: OJICUG_clean_linker_0, # of connection points: 2
#     Edge 61, Type (0, 0), BuildingBlock: OJICUG_clean_linker_0, # of connection points: 2
#     Edge 62, Type (0, 0), BuildingBlock: OJICUG_clean_linker_0, # of connection points: 2
#     Edge 63, Type (0, 0), BuildingBlock: OJICUG_clean_linker_0, # of connection points: 2
# Relax obj value: 0.354
# Max RMSD: 0.221
# Mean RMSD: 0.221
data_MOF--net-whh--node1-MAKGUD_clean_sbu_1--edge1-OJICUG_clean_linker_0
_symmetry_space_group_name_H-M    P1
_symmetry_Int_Tables_number       1
_symmetry_cell_setting            triclinic
loop_
_symmetry_equiv_pos_as_xyz
'x, y, z'
_cell_length_a     30.520842
_cell_length_b     30.585904
_cell_length_c     22.581774
_cell_angle_alpha  89.329606
_cell_angle_beta   89.620827
_cell_angle_gamma 90.076285
loop_
_atom_site_label
_atom_site_type_symbol
_atom_site_fract_x
_atom_site_fract_y
_atom_site_fract_z
_atom_type_partial_charge
O0 O 0.17498 0.76074 0.95903 0.0
Tb1 Tb 0.13075 0.73246 0.02856 0.0
C2 C 0.09099 0.76506 0.15092 0.0
O3 O 1.04512 0.6746 1.01532 0.0
Tb4 Tb 1.03234 0.69031 0.1066 0.0
C5 C 0.06413 0.63378 0.18617 0.0
O6 O 0.11696 0.66304 1.01075 0.0
O7 O 0.96312 0.67685 0.09211 0.0
C8 C 0.95058 0.6361 0.10086 0.0
O9 O 0.97864 0.60895 0.12499 0.0
O10 O 0.12706 0.7507 0.12386 0.0
O11 O 1.05196 0.75626 0.12931 0.0
O12 O 0.08855 0.7881 1.00604 0.0
C13 C 0.07707 0.64774 1.00456 0.0
C14 C 0.21173 0.75011 0.98438 0.0
O15 O 0.07722 0.63714 0.1315 0.0
O16 O 1.0328 0.66178 0.19522 0.0
C17 C 1.0454 0.79056 1.00895 0.0
O18 O 1.02164 0.75495 1.01243 0.0
O19 O 0.20179 0.73028 0.03412 0.0
O20 O 0.84515 0.16823 0.9658 0.0
Tb21 Tb 0.8833 0.13114 0.03312 0.0
C22 C 0.84678 0.09602 0.15622 0.0
O23 O 0.93561 1.04533 1.01488 0.0
Tb24 Tb 0.91694 1.03358 0.10594 0.0
C25 C 0.97408 0.05773 0.18652 0.0
O26 O 0.95221 0.11608 1.01622 0.0
O27 O 0.93031 0.96493 0.08826 0.0
C28 C 0.97229 0.95482 0.08704 0.0
O29 O 1.00047 0.98507 0.10226 0.0
O30 O 0.86325 0.13106 0.1281 0.0
O31 O 0.85278 0.05633 0.13464 0.0
O32 O 0.84052 0.07653 1.01297 0.0
C33 C 0.96466 0.07594 1.0056 0.0
C34 C 0.86301 0.20641 0.97364 0.0
O35 O 0.96702 0.0793 0.1375 0.0
O36 O 0.94934 1.02316 0.18981 0.0
C37 C 0.79921 0.0817 0.02841 0.0
O38 O 0.78667 0.12038 0.04674 0.0
O39 O 0.89136 0.20104 1.01602 0.0
O40 O 0.56122 0.94957 0.1996 0.0
Tb41 Tb 0.58113 0.92776 0.11193 0.0
C42 C 0.53993 0.96024 0.99935 0.0
O43 O 0.4832 0.85996 0.11657 0.0
Tb44 Tb 0.48758 0.87398 0.01915 0.0
C45 C 0.41047 0.85243 0.96394 0.0
O46 O 0.55731 0.8626 0.13612 0.0
O47 O 0.53871 0.82629 0.99369 0.0
C48 C 0.57986 0.82673 1.01169 0.0
O49 O 0.59563 0.86089 0.03782 0.0
O50 O 0.56995 0.93389 1.01792 0.0
O51 O 0.5003 0.94372 0.99611 0.0
O52 O 0.65105 0.94109 0.11479 0.0
C53 C 0.51682 0.85403 0.15337 0.0
C54 C 0.54497 0.98702 0.18345 0.0
O55 O 0.41813 0.88503 0.99896 0.0
O56 O 0.44724 0.83102 0.96187 0.0
C57 C 0.67548 0.94168 0.06643 0.0
O58 O 0.66113 0.92274 0.01845 0.0
O59 O 0.54838 0.99034 0.12636 0.0
O60 O 0.76503 0.4362 0.94975 0.0
Tb61 Tb 0.73147 0.47663 1.01732 0.0
C62 C 0.75685 0.51381 0.14365 0.0
O63 O 0.67924 0.56083 1.00859 0.0
Tb64 Tb 0.68987 0.58182 0.09779 0.0
C65 C 0.63052 0.55768 0.17924 0.0
O66 O 0.66273 0.49158 0.99618 0.0
O67 O 0.68496 0.65204 0.08382 0.0
C68 C 0.68067 0.66858 0.02998 0.0
O69 O 0.68845 0.64414 0.98379 0.0
O70 O 0.74471 0.47806 0.11447 0.0
O71 O 0.75311 0.55286 0.11859 0.0
O72 O 0.79005 0.5173 1.00626 0.0
C73 C 0.64923 0.53203 0.99754 0.0
C74 C 0.75056 0.39845 0.96866 0.0
O75 O 0.62643 0.55357 0.12258 0.0
O76 O 0.66819 0.57572 0.1898 0.0
C77 C 0.79367 0.56016 1.00175 0.0
O78 O 0.75955 0.58426 0.98899 0.0
O79 O 0.72567 0.40605 1.01459 0.0
O80 O 0.17407 0.85312 0.57294 0.0
Tb81 Tb 0.1298 0.88117 0.50415 0.0
C82 C 0.08703 0.85984 0.37673 0.0
O83 O 1.05077 0.93677 0.53322 0.0
Tb84 Tb 1.02878 0.92993 0.44413 0.0
C85 C 1.04624 1.00275 0.38195 0.0
O86 O 0.12114 0.95028 0.52553 0.0
O87 O 0.95764 0.92879 0.44846 0.0
C88 C 0.93737 0.93648 0.499 0.0
O89 O 0.95848 0.92965 0.54873 0.0
O90 O 0.12317 0.86855 0.40764 0.0
O91 O 1.04719 0.87164 0.39447 0.0
O92 O 0.08632 0.82601 0.52488 0.0
C93 C 0.08219 0.96497 0.53853 0.0
C94 C 0.2103 0.85964 0.54334 0.0
O95 O 1.01178 0.99542 0.41433 0.0
O96 O 0.0714 0.96846 0.38442 0.0
C97 C 1.04368 0.82368 0.51612 0.0
O98 O 1.02072 0.85932 0.50816 0.0
O99 O 0.20021 0.87731 0.49243 0.0
O100 O 0.77694 0.17227 0.57491 0.0
Tb101 Tb 0.73359 0.13386 0.51639 0.0
C102 C 0.75758 0.09813 0.38804 0.0
O103 O 0.68188 1.04883 0.52167 0.0
Tb104 Tb 0.68736 1.03154 0.42988 0.0
C105 C 0.62985 0.06646 0.35417 0.0
O106 O 0.66552 0.11797 0.53982 0.0
O107 O 0.67521 0.96135 0.43072 0.0
C108 C 0.67383 0.93821 0.48035 0.0
O109 O 0.6916 0.95422 0.52828 0.0
O110 O 0.74812 0.13387 0.41927 0.0
O111 O 0.75213 0.05867 0.41171 0.0
O112 O 0.77448 0.07743 0.53715 0.0
C113 C 0.65227 0.07728 0.53723 0.0
C114 C 0.75611 0.20946 0.57284 0.0
O115 O 0.62438 0.06241 0.41089 0.0
O116 O 0.66828 1.05123 0.34044 0.0
C117 C 0.81391 0.07762 0.51307 0.0
O118 O 0.82705 0.11306 0.48464 0.0
O119 O 0.7235 0.20301 0.53699 0.0
O120 O 0.44275 0.77395 0.5724 0.0
Tb121 Tb 0.4802 0.73154 0.51079 0.0
C122 C 0.51248 0.76786 0.38726 0.0
O123 O 0.56694 0.67704 0.52227 0.0
Tb124 Tb 0.57755 0.69852 0.43192 0.0
C125 C 0.5515 0.64422 0.34833 0.0
O126 O 0.49553 0.66174 0.52419 0.0
O127 O 0.64714 0.68667 0.44527 0.0
C128 C 0.65771 0.64496 0.44425 0.0
O129 O 0.62703 0.61707 0.42985 0.0
O130 O 0.47763 0.75139 0.41569 0.0
O131 O 0.55203 0.76287 0.40993 0.0
O132 O 0.53675 0.77237 0.53167 0.0
C133 C 0.53603 0.6482 0.53131 0.0
C134 C 0.40549 0.75316 0.57292 0.0
O135 O 0.53549 0.64499 0.40181 0.0
O136 O 0.58241 0.67331 0.34287 0.0
C137 C 0.53312 0.81398 0.5164 0.0
O138 O 0.49489 0.82785 0.49744 0.0
O139 O 0.41183 0.72023 0.53775 0.0
O140 O 0.85001 0.44267 0.56871 0.0
Tb141 Tb 0.88094 0.48406 0.49794 0.0
C142 C 0.84758 0.51815 0.37307 0.0
O143 O 0.9405 0.56967 0.51133 0.0
Tb144 Tb 0.92113 0.57822 0.41999 0.0
C145 C 0.98101 0.55109 0.34283 0.0
O146 O 0.95061 0.49754 0.51522 0.0
O147 O 0.93279 0.64754 0.43447 0.0
C148 C 0.97452 0.65769 0.43946 0.0
O149 O 1.00327 0.62685 0.42918 0.0
O150 O 0.86248 0.48343 0.40272 0.0
O151 O 0.85613 0.558 0.3918 0.0
O152 O 0.82628 0.52783 0.51861 0.0
C153 C 0.96619 0.53699 0.52353 0.0
C154 C 0.86267 0.40513 0.54815 0.0
O155 O 0.9732 0.53257 0.39395 0.0
O156 O 0.9554 0.58472 0.33598 0.0
C157 C 0.82435 0.5708 0.51311 0.0
O158 O 0.86018 0.5939 0.5062 0.0
O159 O 0.88494 0.41319 0.49981 0.0
O160 O 0.9403 0.34531 0.07706 0.0
Tb161 Tb 0.98375 0.37894 1.01122 0.0
C162 C 1.02282 0.3561 0.88281 0.0
O163 O 0.06891 0.43434 0.01839 0.0
Tb164 Tb 0.08465 0.42975 0.92569 0.0
C165 C 1.04846 0.48844 0.85195 0.0
O166 O 0.99866 0.44677 0.03637 0.0
O167 O 0.15424 0.4455 0.92621 0.0
C168 C 0.17714 0.44584 0.97552 0.0
O169 O 0.1615 0.42589 0.02295 0.0
O170 O 0.98692 0.36595 0.91408 0.0
O171 O 0.06237 0.36423 0.90359 0.0
O172 O 1.02552 0.32229 0.02922 0.0
C173 C 1.03889 0.46179 0.03482 0.0
C174 C 0.90318 0.35897 0.05569 0.0
O175 O 1.04932 0.49082 0.90916 0.0
O176 O 0.06734 0.45216 0.83685 0.0
C177 C 0.06834 0.31912 0.02231 0.0
O178 O 0.09257 0.3543 1.01724 0.0
O179 O 0.91259 0.38331 1.00951 0.0
O180 O 0.27074 0.94521 0.06393 0.0
Tb181 Tb 0.23696 0.98552 0.99491 0.0
C182 C 0.26827 1.02064 0.86773 0.0
O183 O 0.17306 0.06559 1.00829 0.0
Tb184 Tb 0.18976 0.0755 0.91578 0.0
C185 C 0.12947 1.04887 0.84036 0.0
O186 O 0.16607 0.9934 1.01185 0.0
O187 O 0.17647 0.14414 0.93254 0.0
C188 C 0.1348 0.1534 0.94066 0.0
O189 O 0.10612 0.12219 0.93208 0.0
O190 O 0.2575 0.98557 0.90009 0.0
O191 O 0.25522 0.06004 0.88304 0.0
O192 O 0.2839 1.03571 0.02385 0.0
C193 C 0.14893 1.03197 0.02141 0.0
C194 C 0.25894 0.90727 0.04396 0.0
O195 O 0.13923 1.0284 0.88938 0.0
O196 O 0.15342 0.08388 0.83459 0.0
C197 C 0.28183 0.078 1.01155 0.0
O198 O 0.247 0.09463 0.98712 0.0
O199 O 0.23585 0.91449 0.99665 0.0
O200 O 0.67129 0.26264 0.07693 0.0
Tb201 Tb 0.62789 0.22881 1.01266 0.0
C202 C 0.59064 0.24945 0.87953 0.0
O203 O 0.55023 0.17135 0.03478 0.0
Tb204 Tb 0.52993 0.17792 0.94481 0.0
C205 C 0.5445 0.1049 0.88477 0.0
O206 O 0.62023 0.15873 0.03485 0.0
O207 O 0.45926 0.1828 0.95606 0.0
C208 C 0.44164 0.17711 1.00908 0.0
O209 O 0.46645 0.17945 0.05613 0.0
O210 O 0.62493 0.24402 0.91564 0.0
O211 O 0.55054 0.23486 0.89207 0.0
O212 O 0.58034 0.28027 0.03698 0.0
C213 C 0.58087 0.14303 0.04295 0.0
C214 C 0.70838 0.24884 0.05537 0.0
O215 O 0.57363 0.13512 0.89397 0.0
O216 O 0.50767 0.11639 0.90886 0.0
C217 C 0.53881 0.28022 0.02089 0.0
O218 O 0.5219 0.24504 0.99862 0.0
O219 O 0.69896 0.22538 1.00945 0.0
O220 O 0.34401 0.67403 0.07751 0.0
Tb221 Tb 0.38592 0.63526 1.01686 0.0
C222 C 0.36221 0.59727 0.89 0.0
O223 O 0.4355 0.55098 0.02637 0.0
Tb224 Tb 0.42819 0.52771 0.93746 0.0
C225 C 0.4889 0.55302 0.85842 0.0
O226 O 0.45387 0.6199 0.03974 0.0
O227 O 0.4329 0.45696 0.94862 0.0
C228 C 0.43812 0.43976 1.00195 0.0
O229 O 0.43025 0.46377 0.0486 0.0
O230 O 0.37261 0.63348 0.91967 0.0
O231 O 0.36551 0.55819 0.91568 0.0
O232 O 0.34132 0.58083 0.03471 0.0
C233 C 0.46629 0.57906 0.03845 0.0
C234 C 0.36394 0.71159 0.07182 0.0
O235 O 0.49421 0.55019 0.91508 0.0
O236 O 0.44901 0.54142 0.84629 0.0
C237 C 0.3018 0.58517 1.01216 0.0
O238 O 0.29126 0.62316 0.98848 0.0
O239 O 0.39525 0.70498 0.03342 0.0
O240 O 0.94493 0.26253 0.46165 0.0
Tb241 Tb 0.98739 0.23251 0.53079 0.0
C242 C 1.02377 0.26407 0.65491 0.0
O243 O 0.07331 0.17524 0.51492 0.0
Tb244 Tb 0.08316 0.19016 0.60705 0.0
C245 C 1.05188 0.13139 0.68409 0.0
O246 O 1.00152 0.16375 0.51096 0.0
O247 O 0.15238 0.17639 0.59154 0.0
C248 C 0.16314 0.13471 0.59294 0.0
O249 O 0.13319 0.10655 0.61045 0.0
O250 O 0.98844 0.24985 0.62646 0.0
O251 O 0.06351 0.25518 0.6349 0.0
O252 O 1.03007 0.28833 0.5097 0.0
C253 C 1.0413 0.14889 0.50272 0.0
C254 C 0.90762 0.2487 0.48305 0.0
O255 O 1.03623 0.13829 0.63142 0.0
O256 O 0.08525 0.15704 0.69247 0.0
C257 C 0.07302 0.29094 0.51525 0.0
O258 O 0.09661 0.25541 0.52024 0.0
O259 O 0.91639 0.22683 0.53143 0.0
O260 O 0.35456 0.93562 0.44606 0.0
Tb261 Tb 0.38583 0.97949 0.51137 0.0
C262 C 0.35982 1.01867 0.63784 0.0
O263 O 0.43912 0.06392 0.51066 0.0
Tb264 Tb 0.43271 0.08347 0.60086 0.0
C265 C 0.48636 1.04661 0.67986 0.0
O266 O 0.45441 0.9956 0.48878 0.0
O267 O 0.44058 0.15392 0.6028 0.0
C268 C 0.44249 0.17682 0.55309 0.0
O269 O 0.42718 0.15957 0.50442 0.0
O270 O 0.3711 0.98272 0.6083 0.0
O271 O 0.36674 0.058 0.61463 0.0
O272 O 0.32773 1.02017 0.49681 0.0
C273 C 0.46865 1.03549 0.49618 0.0
C274 C 0.36879 0.89878 0.46815 0.0
O275 O 0.49816 0.0624 0.62859 0.0
O276 O 0.4444 1.05178 0.68617 0.0
C277 C 0.32448 0.06318 0.49789 0.0
O278 O 0.35947 0.08771 0.49223 0.0
O279 O 0.39205 0.90866 0.5144 0.0
O280 O 0.67435 0.33834 0.46551 0.0
Tb281 Tb 0.6376 0.38006 0.5289 0.0
C282 C 0.60101 0.34218 0.64958 0.0
O283 O 0.55242 0.43595 0.51136 0.0
Tb284 Tb 0.53992 0.41317 0.60073 0.0
C285 C 0.56428 0.46753 0.68501 0.0
O286 O 0.62398 0.45019 0.515 0.0
O287 O 0.47074 0.42465 0.58488 0.0
C288 C 0.46002 0.46626 0.58535 0.0
O289 O 0.49032 0.49441 0.60028 0.0
O290 O 0.63697 0.35844 0.62357 0.0
O291 O 0.56243 0.34828 0.62471 0.0
O292 O 0.58111 0.34064 0.50474 0.0
C293 C 0.58407 0.4643 0.50446 0.0
C294 C 0.71259 0.35684 0.4697 0.0
O295 O 0.58304 0.46504 0.63334 0.0
O296 O 0.53177 0.44011 0.68839 0.0
C297 C 0.58422 0.29874 0.51822 0.0
O298 O 0.62208 0.28402 0.53736 0.0
O299 O 0.70727 0.3881 0.50785 0.0
O300 O 0.27374 0.66683 0.46525 0.0
Tb301 Tb 0.23894 0.62671 0.53401 0.0
C302 C 0.27323 0.5931 0.65884 0.0
O303 O 0.1787 0.54152 0.52207 0.0
Tb304 Tb 0.19883 0.53398 0.61324 0.0
C305 C 0.14076 0.56345 0.69089 0.0
O306 O 0.16906 0.61366 0.517 0.0
O307 O 0.18531 0.46488 0.60014 0.0
C308 C 0.14335 0.45525 0.59671 0.0
O309 O 0.11508 0.48633 0.60822 0.0
O310 O 0.25856 0.62785 0.62894 0.0
O311 O 0.26439 0.55333 0.64015 0.0
O312 O 0.29125 0.58141 0.50927 0.0
C313 C 0.15319 0.57422 0.5095 0.0
C314 C 0.25842 0.70467 0.4808 0.0
O315 O 0.14818 0.58112 0.63912 0.0
O316 O 0.16557 0.52928 0.69808 0.0
C317 C 0.2931 0.53865 0.51719 0.0
O318 O 0.25758 0.51605 0.52868 0.0
O319 O 0.23275 0.69741 0.5262 0.0
C320 C 0.84101 0.62634 0.02171 0.0
C321 C 0.83462 0.5807 0.02322 0.0
H322 H 0.88285 0.6801 0.04514 0.0
C323 C 0.86626 0.55434 0.05096 0.0
H324 H 0.81701 0.64762 1.00122 0.0
C325 C 0.90288 0.57285 0.07716 0.0
C326 C 0.90961 0.61831 0.07565 0.0
H327 H 0.86245 0.51916 0.0538 0.0
H328 H 0.92615 0.55111 0.09833 0.0
C329 C 0.87844 0.64498 0.04732 0.0
C330 C 0.97951 0.83814 0.02986 0.0
C331 C 1.02516 0.8335 0.02227 0.0
H332 H 0.92652 0.88029 0.05619 0.0
C333 C 1.0523 0.8693 0.03449 0.0
H334 H 0.95767 0.81105 0.02124 0.0
C335 C 1.03469 0.90806 0.05572 0.0
C336 C 0.98926 0.91275 0.06433 0.0
H337 H 0.08757 0.86707 0.02977 0.0
H338 H 1.05712 0.9343 0.06599 0.0
C339 C 0.96165 0.87761 0.05031 0.0
C340 C 0.74235 0.97181 1.01449 0.0
C341 C 0.71155 0.97387 0.06109 0.0
H342 H 0.79511 1.00428 0.96786 0.0
C343 C 0.71162 1.01049 0.09801 0.0
H344 H 0.74284 0.94405 0.98515 0.0
C345 C 0.74025 1.04517 0.0869 0.0
C346 C 0.77022 1.04376 0.03947 0.0
H347 H 0.68809 1.01345 0.13387 0.0
H348 H 0.73871 0.07334 0.11551 0.0
C349 C 0.77199 1.00626 1.00432 0.0
C350 C 0.60252 0.75408 0.97067 0.0
C351 C 0.60678 0.78681 1.0131 0.0
H352 H 0.62413 0.69115 0.94177 0.0
C353 C 0.63707 0.78119 0.05938 0.0
H354 H 0.5794 0.75765 0.93476 0.0
C355 C 0.66186 0.74317 0.06412 0.0
C356 C 0.65777 0.71046 0.02181 0.0
H357 H 0.64075 0.80572 0.09323 0.0
H358 H 0.68395 0.73917 0.10116 0.0
C359 C 0.62836 0.71637 0.97453 0.0
C360 C 0.8743 0.97271 0.55131 0.0
C361 C 0.89927 0.96653 0.49937 0.0
H362 H 0.82666 1.01253 0.59627 0.0
C363 C 0.89233 0.99462 0.45067 0.0
H364 H 0.87907 0.95167 0.58964 0.0
C365 C 0.86361 1.02989 0.45522 0.0
C366 C 0.8403 1.03736 0.50799 0.0
H367 H 0.91111 0.99115 0.41013 0.0
H368 H 0.86042 1.05203 0.41766 0.0
C369 C 0.8445 1.00755 0.55528 0.0
C370 C 0.64269 0.87215 0.53435 0.0
C371 C 0.64189 0.90167 0.48592 0.0
H372 H 0.6092 0.82016 0.58166 0.0
C373 C 0.6066 0.89976 0.44646 0.0
H374 H 0.66935 0.87302 0.56573 0.0
C375 C 0.57193 0.87087 0.45673 0.0
C376 C 0.57199 0.84217 0.5058 0.0
H377 H 0.60449 0.92216 0.40907 0.0
H378 H 0.54464 0.87139 0.42627 0.0
C379 C 0.6083 0.84207 0.54366 0.0
C380 C 0.7363 0.65508 0.47681 0.0
C381 C 0.70059 0.62776 0.46425 0.0
H382 H 0.80392 0.65854 0.50254 0.0
C383 C 0.70545 0.58232 0.47175 0.0
H384 H 0.73349 0.69021 0.47168 0.0
C385 C 0.74487 0.56442 0.49069 0.0
C386 C 0.78115 0.59129 0.5016 0.0
H387 H 0.67878 0.5601 0.46247 0.0
H388 H 0.74716 0.52917 0.4947 0.0
C389 C 0.77645 0.63694 0.49486 0.0
C390 C 1.05126 0.74403 0.49689 0.0
C391 C 1.02392 0.78055 0.50301 0.0
H392 H 1.05741 0.67784 0.47061 0.0
C393 C 0.97904 0.77616 0.48975 0.0
H394 H 0.08598 0.74605 0.50615 0.0
C395 C 0.96224 0.73619 0.46968 0.0
C396 C 0.99022 0.70028 0.4617 0.0
H397 H 0.95712 0.80381 0.49363 0.0
H398 H 0.92774 0.7337 0.45931 0.0
C399 C 1.03477 0.70472 0.47606 0.0
C400 C 0.21682 0.51303 0.94139 0.0
C401 C 0.21351 0.47775 0.98153 0.0
H402 H 0.24668 0.57446 0.92035 0.0
C403 C 0.24159 0.47667 0.03084 0.0
H404 H 0.19558 0.51525 0.90321 0.0
C405 C 0.27155 0.5108 0.04043 0.0
C406 C 0.27295 0.54706 1.00175 0.0
H407 H 0.2397 0.44997 0.0627 0.0
H408 H 0.29237 0.5096 0.07907 0.0
C409 C 0.24581 0.54736 0.95168 0.0
C410 C 0.05916 0.23991 1.00096 0.0
C411 C 0.0872 0.27588 1.00781 0.0
H412 H 1.05192 0.17414 0.97307 0.0
C413 C 0.13202 0.27099 0.99399 0.0
H414 H 1.02446 0.24235 1.01071 0.0
C415 C 0.14809 0.23116 0.97252 0.0
C416 C 0.11948 0.19581 0.96392 0.0
H417 H 0.15448 0.29819 0.99843 0.0
H418 H 0.18259 0.2283 0.96174 0.0
C419 C 0.07499 0.20064 0.97892 0.0
C420 C 0.35368 0.09739 0.05727 0.0
C421 C 0.32109 0.10583 1.01533 0.0
H422 H 0.41712 0.11474 0.08928 0.0
C423 C 0.32706 0.14019 0.97399 0.0
H424 H 0.34984 0.07108 0.08943 0.0
C425 C 0.36577 0.16451 0.97297 0.0
C426 C 0.39858 0.15576 1.0144 0.0
H427 H 0.30256 0.14715 0.94069 0.0
H428 H 0.37039 0.18957 0.93919 0.0
C429 C 0.3919 0.12262 0.05736 0.0
C430 C 0.51725 0.354 0.06006 0.0
C431 C 0.51249 0.3208 0.01832 0.0
H432 H 0.49608 0.41722 0.08863 0.0
C433 C 0.48201 0.32645 0.97225 0.0
H434 H 0.54048 0.35051 0.09586 0.0
C435 C 0.45742 0.36482 0.96722 0.0
C436 C 0.46174 0.39784 1.0092 0.0
H437 H 0.4779 0.30155 0.93899 0.0
H438 H 0.43506 0.36867 0.93047 0.0
C439 C 0.49157 0.39192 0.05606 0.0
C440 C 0.23818 0.14582 0.54642 0.0
C441 C 0.20502 0.11795 0.56834 0.0
H442 H 0.30218 0.15049 0.50641 0.0
C443 C 0.21099 0.07249 0.5643 0.0
H444 H 0.23448 0.18098 0.54861 0.0
C445 C 0.24881 1.05519 0.53902 0.0
C446 C 0.2824 0.08272 0.51781 0.0
H447 H 0.1863 1.04985 0.58068 0.0
H448 H 0.25202 1.01995 0.53761 0.0
C449 C 0.27672 0.12834 0.52176 0.0
C450 C 0.50938 0.27139 0.48953 0.0
C451 C 0.54486 0.27156 0.52871 0.0
H452 H 0.44859 0.24055 0.46627 0.0
C453 C 0.54354 0.24422 0.57911 0.0
H454 H 0.50961 0.2924 0.45058 0.0
C455 C 0.50835 0.21606 0.58926 0.0
C456 C 0.47407 0.21353 0.5483 0.0
H457 H 0.57019 0.24412 0.61057 0.0
H458 H 0.50942 0.19449 0.62762 0.0
C459 C 0.4745 0.24198 0.49874 0.0
C460 C 0.37287 0.54559 0.5362 0.0
C461 C 0.33648 0.51844 0.52736 0.0
H462 H 0.43913 0.55059 0.56332 0.0
C463 C 0.34124 0.47296 0.53571 0.0
H464 H 0.3705 0.58076 0.53094 0.0
C465 C 0.38155 0.45527 0.55366 0.0
C466 C 0.41728 0.48294 0.56459 0.0
H467 H 0.31365 0.4512 0.52962 0.0
H468 H 0.38441 0.42027 0.56032 0.0
C469 C 0.41243 0.52817 0.5552 0.0
C470 C 0.15497 0.37779 0.56197 0.0
C471 C 0.12696 0.41304 0.574 0.0
H472 H 0.16 0.31125 0.53329 0.0
C473 C 0.08196 0.4085 0.56253 0.0
H474 H 0.18982 0.3804 0.56998 0.0
C475 C 0.06513 0.36971 0.54036 0.0
C476 C 0.09266 0.33386 0.5299 0.0
H477 H 0.05929 0.43492 0.57105 0.0
H478 H 1.03013 0.36752 0.53335 0.0
C479 C 0.13791 0.33838 0.54048 0.0
C480 C 1.05314 0.8078 0.23085 0.0
C481 C 0.09246 0.79078 0.20758 0.0
H482 H 1.02064 0.84184 0.30024 0.0
C483 C 0.13107 0.79733 0.24046 0.0
H484 H 1.02255 0.80397 0.20743 0.0
C485 C 0.12995 0.8197 0.29519 0.0
C486 C 0.09017 0.83606 0.31852 0.0
H487 H 0.16202 0.78474 0.22437 0.0
H488 H 0.16016 0.82387 0.31936 0.0
C489 C 1.05201 0.82978 0.28489 0.0
C490 C 0.77992 0.06251 0.29281 0.0
C491 C 0.77822 0.10065 0.32713 0.0
H492 H 0.80133 1.03146 0.21368 0.0
C493 C 0.79732 0.13899 0.30279 0.0
H494 H 0.76528 1.03233 0.30895 0.0
C495 C 0.81867 0.13845 0.2467 0.0
C496 C 0.82125 0.09962 0.2135 0.0
H497 H 0.79671 0.16908 0.32758 0.0
H498 H 0.83395 0.16814 0.23004 0.0
C499 C 0.80079 0.06202 0.23743 0.0
C500 C 0.47362 0.81191 0.23485 0.0
C501 C 0.5115 0.83432 0.21464 0.0
H502 H 0.44354 0.77332 0.30524 0.0
C503 C 0.54708 0.83703 0.25388 0.0
H504 H 0.44542 0.80918 0.20628 0.0
C505 C 0.546 0.81686 0.30968 0.0
C506 C 0.50922 0.79296 0.32955 0.0
H507 H 0.57669 0.85445 0.24127 0.0
H508 H 0.57489 0.81956 0.33701 0.0
C509 C 0.47251 0.79141 0.29173 0.0
C510 C 0.78226 0.55093 0.23599 0.0
C511 C 0.77784 0.51186 0.2041 0.0
H512 H 0.80619 0.58327 0.31242 0.0
C513 C 0.79471 0.47327 0.23029 0.0
H514 H 0.76946 0.58142 0.21846 0.0
C515 C 0.81648 0.47439 0.28575 0.0
C516 C 0.82174 0.51408 0.31646 0.0
H517 H 0.79201 0.44247 0.20743 0.0
H518 H 0.82993 0.44439 0.30388 0.0
C519 C 0.80355 0.55201 0.29068 0.0
C520 C 0.05891 0.30873 0.73454 0.0
C521 C 1.02058 0.2899 0.71145 0.0
H522 H 0.08949 0.34357 0.80428 0.0
C523 C 0.98148 0.29451 0.7447 0.0
H524 H 0.08974 0.30663 0.71073 0.0
C525 C 0.98132 0.31635 0.79993 0.0
C526 C 1.02029 0.33403 0.82334 0.0
H527 H 0.95124 0.28053 0.72872 0.0
H528 H 0.95091 0.3187 0.82465 0.0
C529 C 0.05877 0.33014 0.789 0.0
C530 C 0.33289 1.05548 0.73007 0.0
C531 C 0.33853 1.01648 0.69833 0.0
H532 H 0.30789 0.08708 0.80681 0.0
C533 C 0.32305 0.97735 0.725 0.0
H534 H 0.34462 0.08638 0.71218 0.0
C535 C 0.30143 0.97777 0.78087 0.0
C536 C 0.29481 1.01734 0.81136 0.0
H537 H 0.32683 0.94659 0.70228 0.0
H538 H 0.28894 0.94737 0.79936 0.0
C539 C 0.31163 1.05589 0.78512 0.0
C540 C 0.6358 0.29183 0.80041 0.0
C541 C 0.59602 0.27277 0.82044 0.0
H542 H 0.66931 0.32846 0.73098 0.0
C543 C 0.55974 0.27565 0.78234 0.0
H544 H 0.66464 0.29028 0.82801 0.0
C545 C 0.56249 0.297 0.72739 0.0
C546 C 0.60164 0.31678 0.70731 0.0
H547 H 0.52845 0.26144 0.79481 0.0
H548 H 0.53314 0.29819 0.70073 0.0
C549 C 0.63857 0.31359 0.74452 0.0
C550 C 0.316 0.55895 0.74246 0.0
C551 C 0.29857 0.59702 0.716 0.0
H552 H 0.34905 0.52937 0.81555 0.0
C553 C 0.30395 0.63672 0.74667 0.0
H554 H 0.31317 0.52764 0.72087 0.0
C555 C 0.32518 0.63774 0.80255 0.0
C556 C 0.34144 0.59906 0.8293 0.0
H557 H 0.29102 0.66682 0.72815 0.0
H558 H 0.32803 0.6686 0.82522 0.0
C559 C 0.33678 0.55994 0.79758 0.0
C560 C 0.27315 0.78874 0.04565 0.0
C561 C 0.25402 0.77371 0.97814 0.0
H562 H 0.37041 0.84025 0.07176 0.0
C563 C 0.28431 0.78446 0.91395 0.0
H564 H 0.25233 0.78112 0.08414 0.0
C565 C 0.33592 0.81036 0.90871 0.0
C566 C 0.36706 0.83071 0.96661 0.0
H567 H 0.27017 0.77366 0.87285 0.0
H568 H 0.34976 0.81394 0.86472 0.0
C569 C 0.34886 0.8269 0.03775 0.0
C570 C 0.82201 0.27739 0.90848 0.0
C571 C 0.8382 0.2477 0.97079 0.0
H572 H 0.78623 0.34104 0.86382 0.0
C573 C 0.82719 0.26606 0.04017 0.0
H574 H 0.83037 0.26363 0.86599 0.0
C575 C 0.78577 0.33977 0.03808 0.0
C576 C 0.77618 0.35763 0.96771 0.0
H577 H 0.83823 0.24547 0.07723 0.0
H578 H 0.77411 0.36053 0.07414 0.0
C579 C 0.7938 0.32763 0.90707 0.0
C580 C 0.34903 0.78292 0.49641 0.0
C581 C 0.36341 0.7768 0.56858 0.0
H582 H 0.25637 0.83224 0.4451 0.0
C583 C 0.33001 0.79652 0.62507 0.0
H584 H 0.37188 0.76981 0.46343 0.0
C585 C 0.27947 0.82388 0.61725 0.0
C586 C 0.25279 0.83699 0.55143 0.0
H587 H 0.34137 0.79125 0.66983 0.0
H588 H 0.26329 0.83359 0.65775 0.0
C589 C 0.275 0.82327 0.48473 0.0
C590 C 0.82972 0.34028 0.48809 0.0
C591 C 0.83931 0.36287 0.55534 0.0
H592 H 0.77856 0.24274 0.46398 0.0
C593 C 0.82264 0.33639 0.62037 0.0
H594 H 0.84076 0.35887 0.44896 0.0
C595 C 0.79543 0.28562 0.62678 0.0
C596 C 0.77948 0.25171 0.56936 0.0
H597 H 0.8299 0.35279 0.66132 0.0
H598 H 0.78768 0.2744 0.67122 0.0
C599 C 0.78959 0.26585 0.49756 0.0
C600 C 0.78029 0.28911 0.11895 0.0
C601 C 0.75093 0.27207 0.05748 0.0
H602 H 0.84396 0.32531 0.16181 0.0
C603 C 0.77004 0.28196 0.98763 0.0
H604 H 0.76597 0.28168 0.16183 0.0
C605 C 0.84406 0.32353 0.98755 0.0
C606 C 0.86151 0.33405 0.05743 0.0
H607 H 0.74973 0.27063 0.951 0.0
H608 H 0.86513 0.33482 0.95096 0.0
C609 C 0.83082 0.31726 0.11894 0.0
C610 C 0.32979 0.76622 0.9962 0.0
C611 C 0.33982 0.75326 0.06812 0.0
H612 H 0.28064 0.85929 0.94547 0.0
C613 C 0.32477 0.78848 0.12469 0.0
H614 H 0.34023 0.7423 0.96318 0.0
C615 C 0.29865 0.83961 0.11716 0.0
C616 C 0.28245 0.86524 0.05164 0.0
H617 H 0.33268 0.77806 0.16928 0.0
H618 H 0.2917 0.85681 0.15771 0.0
C619 C 0.29143 0.84122 0.98493 0.0
C620 C 0.83544 0.28474 0.41505 0.0
C621 C 0.86549 0.27225 0.47828 0.0
H622 H 0.77098 0.31699 0.36804 0.0
C623 C 0.8468 0.28632 0.54662 0.0
H624 H 0.84944 0.27466 0.37328 0.0
C625 C 0.77205 0.32605 0.54162 0.0
C626 C 0.75398 0.33174 0.4709 0.0
H627 H 0.86757 0.27772 0.58441 0.0
H628 H 0.75096 0.33928 0.57656 0.0
C629 C 0.7845 0.3118 0.4117 0.0
C630 C 0.32956 0.84298 0.5394 0.0
C631 C 0.34368 0.85739 0.46876 0.0
H632 H 0.27555 0.75011 0.58203 0.0
C633 C 0.33042 0.82394 0.4096 0.0
H634 H 0.33875 0.86572 0.57439 0.0
C635 C 0.30258 0.77337 0.41295 0.0
C636 C 0.28242 0.74671 0.47604 0.0
H637 H 0.34077 0.83517 0.36613 0.0
H638 H 0.29737 0.75721 0.37124 0.0
C639 C 0.28867 0.76886 0.54422 0.0
C640 C 0.09162 0.52527 0.03265 0.0
C641 C 1.04814 0.50976 0.03048 0.0
H642 H 0.13521 0.58027 0.02516 0.0
C643 C 1.01472 0.53988 1.01748 0.0
H644 H 0.11822 0.50306 0.04243 0.0
C645 C 1.02461 0.58407 1.00632 0.0
C646 C 0.06801 0.59971 1.00918 0.0
H647 H 0.98105 0.52908 1.01404 0.0
H648 H 0.998 0.60616 0.99588 0.0
C649 C 0.10146 0.56957 0.02212 0.0
C650 C 0.08485 0.0784 0.04772 0.0
C651 C 0.10082 1.03933 0.02351 0.0
H652 H 1.03015 0.12118 0.05964 0.0
C653 C 0.07152 1.01217 0.99324 0.0
H654 H 0.10671 0.10027 0.07074 0.0
C655 C 1.02748 1.02451 0.98614 0.0
C656 C 1.01189 0.0642 1.00918 0.0
H657 H 0.08294 0.98225 0.97317 0.0
H658 H 1.0056 1.00305 0.96249 0.0
C659 C 1.04112 0.09082 0.04034 0.0
C660 C 0.52688 0.0811 0.03323 0.0
C661 C 0.57072 0.09603 0.03153 0.0
H662 H 0.48214 1.02754 0.02166 0.0
C663 C 0.6035 0.06635 1.015 0.0
H664 H 0.50069 0.10282 0.04602 0.0
C665 C 0.59272 1.02309 1.001 0.0
C666 C 0.54893 1.00811 1.0032 0.0
H667 H 0.63749 0.07649 1.01272 0.0
H668 H 0.619 1.00095 0.98955 0.0
C669 C 0.516 1.03798 0.0184 0.0
C670 C 0.58827 0.58734 1.00271 0.0
C671 C 0.60185 0.54334 1.00515 0.0
H672 H 0.53581 0.63335 1.01262 0.0
C673 C 0.57062 0.51139 0.02092 0.0
H674 H 0.61117 0.61283 0.99058 0.0
C675 C 0.52727 0.52329 0.03442 0.0
C676 C 0.51362 0.56728 0.03147 0.0
H677 H 0.57986 0.47728 0.0243 0.0
H678 H 0.5044 0.4979 0.04685 0.0
C679 C 0.54495 0.59921 1.016 0.0
C680 C 1.01859 0.07175 0.52894 0.0
C681 C 1.05008 0.101 0.50579 0.0
H682 H 1.00465 1.00662 0.55962 0.0
C683 C 0.09218 0.08492 0.49266 0.0
H684 H 0.98594 0.08296 0.54002 0.0
C685 C 0.10304 1.04113 0.50428 0.0
C686 C 0.07196 1.01218 0.52913 0.0
H687 H 0.1172 0.10657 0.4747 0.0
H688 H 0.13572 1.02996 0.4934 0.0
C689 C 1.02952 1.02804 0.54092 0.0
C690 C 0.53003 0.08939 0.50826 0.0
C691 C 0.51597 1.04555 0.50534 0.0
H692 H 0.58318 0.13392 0.52242 0.0
C693 C 0.54689 1.01232 0.5154 0.0
H694 H 0.50718 0.11584 0.50064 0.0
C695 C 0.5906 1.02276 0.52841 0.0
C696 C 0.60471 0.06663 0.531 0.0
H697 H 0.53724 0.97825 0.5141 0.0
H698 H 0.61349 0.99639 0.53588 0.0
C699 C 0.57363 0.09982 0.52141 0.0
C700 C 0.60128 0.5416 0.53639 0.0
C701 C 0.57313 0.512 0.50819 0.0
H702 H 0.61126 0.60714 0.56704 0.0
C703 C 0.53209 0.52753 0.48901 0.0
H704 H 0.63283 0.53085 0.55262 0.0
C705 C 0.51935 0.57111 0.49835 0.0
C706 C 0.54742 0.60067 0.52673 0.0
H707 H 0.50942 0.5057 0.46742 0.0
H708 H 0.48781 0.58189 0.48212 0.0
C709 C 0.58859 0.58525 0.54555 0.0
C710 C 0.08831 0.52558 0.49111 0.0
C711 C 0.10496 0.56604 0.50992 0.0
H712 H 1.03199 0.48416 0.4818 0.0
C713 C 0.07574 0.59594 0.53564 0.0
H714 H 0.10999 0.50157 0.47174 0.0
C715 C 1.03111 0.58562 0.54242 0.0
C716 C 1.01442 0.54524 0.52335 0.0
H717 H 0.08751 0.62697 0.55186 0.0
H718 H 1.00944 0.60959 0.56189 0.0
C719 C 1.0437 0.51526 0.49787 0.0
C720 C 1.01853 0.53558 0.24925 0.0
C721 C 1.02169 0.54746 0.30878 0.0
H722 H 1.03611 0.55256 0.16014 0.0
C723 C 1.05601 0.57502 0.32595 0.0
H724 H 0.99254 0.51401 0.23503 0.0
C725 C 0.07815 0.5999 0.28302 0.0
C726 C 0.06811 0.59448 0.22316 0.0
H727 H 0.06001 0.5835 0.372 0.0
H728 H 0.09782 0.62741 0.29693 0.0
C729 C 1.04318 0.55813 0.20639 0.0
C730 C 1.01428 0.06863 0.3363 0.0
C731 C 1.04606 1.03551 0.33401 0.0
H732 H 0.96569 0.10354 0.28702 0.0
C733 C 0.06519 1.02504 0.27935 0.0
H734 H 0.99959 0.07773 0.37822 0.0
C735 C 1.04603 1.04037 0.22708 0.0
C736 C 1.00815 0.06622 0.22982 0.0
H737 H 0.09007 0.99989 0.27654 0.0
H738 H 1.05656 1.02655 0.18536 0.0
C739 C 0.99501 0.08369 0.2841 0.0
C740 C 0.55656 1.04077 0.32653 0.0
C741 C 0.5936 0.06615 0.31205 0.0
H742 H 0.51058 0.99404 0.29405 0.0
C743 C 0.60192 0.07738 0.25271 0.0
H744 H 0.54944 1.03183 0.37217 0.0
C745 C 0.57811 0.05734 0.20798 0.0
C746 C 0.54752 1.02457 0.22276 0.0
H747 H 0.63027 0.09703 0.24076 0.0
H748 H 0.58896 0.06203 0.16253 0.0
C749 C 0.5341 1.0192 0.28184 0.0
C750 C 0.53963 0.6161 0.24877 0.0
C751 C 0.54921 0.60728 0.30826 0.0
H752 H 0.5574 0.60384 0.15882 0.0
C753 C 0.57424 0.57033 0.32304 0.0
H754 H 0.52056 0.64465 0.23659 0.0
C755 C 0.59759 0.54875 0.27881 0.0
C756 C 0.59339 0.56235 0.21972 0.0
H757 H 0.5815 0.56267 0.36887 0.0
H758 H 0.62241 0.52516 0.29134 0.0
C759 C 0.56101 0.59289 0.20436 0.0
C760 C 0.10649 0.58028 0.78604 0.0
C761 C 0.1012 0.56918 0.72655 0.0
H762 H 0.08944 0.56414 0.87543 0.0
C763 C 0.06444 0.54469 0.70999 0.0
H764 H 0.1347 0.59913 0.79964 0.0
C765 C 1.04005 0.5225 0.75339 0.0
C766 C 1.05108 0.52697 0.81313 0.0
H767 H 0.05943 0.53636 0.66404 0.0
H768 H 1.01723 0.49738 0.73995 0.0
C769 C 0.08055 0.55997 0.82944 0.0
C770 C 0.07085 1.05532 0.70352 0.0
C771 C 1.04569 0.09168 0.71977 0.0
H772 H 0.11986 1.01039 0.73343 0.0
C773 C 1.03385 0.09671 0.7793 0.0
H774 H 0.07949 1.0502 0.65755 0.0
C775 C 1.05467 0.07159 0.82276 0.0
C776 C 0.08922 1.04388 0.80649 0.0
H777 H 1.01411 0.12432 0.79281 0.0
H778 H 1.04985 0.08032 0.86867 0.0
C779 C 0.09368 1.03205 0.74703 0.0
C780 C 0.49777 1.02496 0.78387 0.0
C781 C 0.51556 1.04146 0.73076 0.0
H782 H 0.4952 1.03194 0.87781 0.0
C783 C 0.55468 0.06569 0.73211 0.0
H784 H 0.46807 1.0055 0.78372 0.0
C785 C 0.57015 0.08108 0.7862 0.0
C786 C 0.54643 0.07192 0.83834 0.0
H787 H 0.56933 0.07827 0.69151 0.0
H788 H 0.59617 0.10521 0.78584 0.0
C789 C 0.51332 1.0401 0.83773 0.0
C790 C 0.51868 0.56215 0.75704 0.0
C791 C 0.5248 0.54857 0.81582 0.0
H792 H 0.53214 0.54839 0.66623 0.0
C793 C 0.55827 0.51869 0.82935 0.0
H794 H 0.49316 0.58538 0.7459 0.0
C795 C 0.5787 0.49585 0.7838 0.0
C796 C 0.56712 0.50446 0.72495 0.0
H797 H 0.56358 0.50788 0.87462 0.0
H798 H 0.59868 0.46769 0.79489 0.0
C799 C 0.54095 0.54089 0.71159 0.0
loop_
_geom_bond_atom_site_label_1
_geom_bond_atom_site_label_2
_geom_bond_distance
_geom_bond_site_symmetry_2
_ccdc_geom_bond_type
O0 Tb1 2.506 . S
O0 C14 1.265 . S
Tb1 O0 2.506 . S
Tb1 O6 2.312 . S
Tb1 O10 2.271 1_556 S
Tb1 O12 2.338 . S
Tb1 O19 2.441 1_556 S
C2 O10 1.252 . S
C2 O11 1.253 . S
O3 Tb4 2.271 . S
O3 C13 1.252 . S
Tb4 O3 2.271 . S
Tb4 O7 2.338 1_455 S
Tb4 O11 2.312 . S
Tb4 O15 2.441 . S
Tb4 O16 2.506 1_455 S
C5 O15 1.248 . S
C5 O16 1.263 1_455 S
O6 Tb1 2.312 . S
O6 C13 1.253 1_556 S
O7 Tb4 2.338 1_655 S
O7 C8 1.258 . S
C8 O7 1.258 . S
C8 O9 1.251 . S
O9 C8 1.251 . S
O10 Tb1 2.271 1_554 S
O10 C2 1.252 . S
O11 C2 1.253 . S
O11 Tb4 2.312 . S
O12 Tb1 2.338 . S
O12 C17 1.266 . S
C13 O3 1.252 . S
C13 O6 1.253 1_554 S
C14 O0 1.265 . S
C14 O19 1.244 1_556 S
O15 Tb4 2.441 . S
O15 C5 1.248 . S
O16 Tb4 2.506 1_655 S
O16 C5 1.263 1_655 S
C17 O12 1.266 . S
C17 O18 1.246 1_556 S
O18 C17 1.246 1_554 S
O19 Tb1 2.441 1_554 S
O19 C14 1.244 1_554 S
O20 Tb21 2.506 . S
O20 C34 1.265 . S
Tb21 O20 2.506 . S
Tb21 O26 2.312 . S
Tb21 O30 2.271 1_556 S
Tb21 O32 2.338 . S
Tb21 O39 2.441 1_556 S
C22 O30 1.252 . S
C22 O31 1.253 . S
O23 Tb24 2.271 . S
O23 C33 1.252 . S
Tb24 O23 2.271 . S
Tb24 O27 2.338 1_545 S
Tb24 O31 2.312 . S
Tb24 O35 2.441 . S
Tb24 O36 2.506 1_545 S
C25 O35 1.248 . S
C25 O36 1.263 1_545 S
O26 Tb21 2.312 . S
O26 C33 1.253 1_556 S
O27 Tb24 2.338 1_565 S
O27 C28 1.258 . S
C28 O27 1.258 . S
C28 O29 1.251 . S
O29 C28 1.251 . S
O30 Tb21 2.271 1_554 S
O30 C22 1.252 . S
O31 C22 1.253 . S
O31 Tb24 2.312 . S
O32 Tb21 2.338 . S
O32 C37 1.265 . S
C33 O23 1.252 . S
C33 O26 1.253 1_554 S
C34 O20 1.265 . S
C34 O39 1.244 1_556 S
O35 Tb24 2.441 . S
O35 C25 1.248 . S
O36 Tb24 2.506 1_565 S
O36 C25 1.263 1_565 S
C37 O32 1.265 . S
C37 O38 1.247 1_556 S
O38 C37 1.247 1_554 S
O39 Tb21 2.441 1_554 S
O39 C34 1.244 1_554 S
O40 Tb41 2.506 . S
O40 C54 1.265 . S
Tb41 O40 2.506 . S
Tb41 O46 2.312 . S
Tb41 O50 2.271 . S
Tb41 O52 2.338 . S
Tb41 O59 2.441 . S
C42 O50 1.252 . S
C42 O51 1.253 1_554 S
O43 Tb44 2.271 1_554 S
O43 C53 1.252 . S
Tb44 O43 2.271 1_556 S
Tb44 O47 2.338 . S
Tb44 O51 2.312 . S
Tb44 O55 2.441 1_556 S
Tb44 O56 2.506 . S
C45 O55 1.244 1_556 S
C45 O56 1.265 . S
O46 Tb41 2.312 . S
O46 C53 1.253 . S
O47 Tb44 2.338 . S
O47 C48 1.265 . S
C48 O47 1.265 . S
C48 O49 1.247 1_556 S
O49 C48 1.247 1_554 S
O50 Tb41 2.271 . S
O50 C42 1.252 . S
O51 C42 1.253 1_556 S
O51 Tb44 2.312 . S
O52 Tb41 2.338 . S
O52 C57 1.258 . S
C53 O43 1.252 . S
C53 O46 1.253 . S
C54 O40 1.265 . S
C54 O59 1.244 . S
O55 Tb44 2.441 1_554 S
O55 C45 1.244 1_554 S
O56 Tb44 2.506 . S
O56 C45 1.265 . S
C57 O52 1.258 . S
C57 O58 1.251 . S
O58 C57 1.251 . S
O59 Tb41 2.441 . S
O59 C54 1.244 . S
O60 Tb61 2.506 . S
O60 C74 1.265 . S
Tb61 O60 2.506 . S
Tb61 O66 2.312 . S
Tb61 O70 2.271 1_556 S
Tb61 O72 2.338 . S
Tb61 O79 2.441 1_556 S
C62 O70 1.252 . S
C62 O71 1.253 . S
O63 Tb64 2.271 . S
O63 C73 1.252 . S
Tb64 O63 2.271 . S
Tb64 O67 2.338 . S
Tb64 O71 2.312 . S
Tb64 O75 2.441 . S
Tb64 O76 2.506 . S
C65 O75 1.244 . S
C65 O76 1.265 . S
O66 Tb61 2.312 . S
O66 C73 1.253 1_556 S
O67 Tb64 2.338 . S
O67 C68 1.258 . S
C68 O67 1.258 . S
C68 O69 1.251 . S
O69 C68 1.251 . S
O70 Tb61 2.271 1_554 S
O70 C62 1.252 . S
O71 C62 1.253 . S
O71 Tb64 2.312 . S
O72 Tb61 2.338 . S
O72 C77 1.266 . S
C73 O63 1.252 . S
C73 O66 1.253 1_554 S
C74 O60 1.265 . S
C74 O79 1.244 1_556 S
O75 Tb64 2.441 . S
O75 C65 1.244 . S
O76 Tb64 2.506 . S
O76 C65 1.265 . S
C77 O72 1.266 . S
C77 O78 1.246 1_556 S
O78 C77 1.246 1_554 S
O79 Tb61 2.441 1_554 S
O79 C74 1.244 1_554 S
O80 Tb81 2.506 . S
O80 C94 1.265 . S
Tb81 O80 2.506 . S
Tb81 O86 2.312 . S
Tb81 O90 2.271 . S
Tb81 O92 2.338 . S
Tb81 O99 2.441 . S
C82 O90 1.252 . S
C82 O91 1.253 . S
O83 Tb84 2.271 . S
O83 C93 1.252 . S
Tb84 O83 2.271 . S
Tb84 O87 2.338 1_455 S
Tb84 O91 2.312 . S
Tb84 O95 2.441 . S
Tb84 O96 2.506 1_455 S
C85 O95 1.248 . S
C85 O96 1.263 1_455 S
O86 Tb81 2.312 . S
O86 C93 1.253 . S
O87 Tb84 2.338 1_655 S
O87 C88 1.258 . S
C88 O87 1.258 . S
C88 O89 1.251 . S
O89 C88 1.251 . S
O90 Tb81 2.271 . S
O90 C82 1.252 . S
O91 C82 1.253 . S
O91 Tb84 2.312 . S
O92 Tb81 2.338 . S
O92 C97 1.258 . S
C93 O83 1.252 . S
C93 O86 1.253 . S
C94 O80 1.265 . S
C94 O99 1.244 . S
O95 Tb84 2.441 . S
O95 C85 1.248 . S
O96 Tb84 2.506 1_655 S
O96 C85 1.263 1_655 S
C97 O92 1.258 . S
C97 O98 1.251 . S
O98 C97 1.251 . S
O99 Tb81 2.441 . S
O99 C94 1.244 . S
O100 Tb101 2.506 . S
O100 C114 1.265 . S
Tb101 O100 2.506 . S
Tb101 O106 2.312 . S
Tb101 O110 2.271 . S
Tb101 O112 2.338 . S
Tb101 O119 2.441 . S
C102 O110 1.252 . S
C102 O111 1.253 . S
O103 Tb104 2.271 . S
O103 C113 1.252 . S
Tb104 O103 2.271 . S
Tb104 O107 2.338 1_545 S
Tb104 O111 2.312 . S
Tb104 O115 2.441 . S
Tb104 O116 2.506 1_545 S
C105 O115 1.248 . S
C105 O116 1.263 1_545 S
O106 Tb101 2.312 . S
O106 C113 1.253 . S
O107 Tb104 2.338 1_565 S
O107 C108 1.258 . S
C108 O107 1.258 . S
C108 O109 1.251 . S
O109 C108 1.251 . S
O110 Tb101 2.271 . S
O110 C102 1.252 . S
O111 C102 1.253 . S
O111 Tb104 2.312 . S
O112 Tb101 2.338 . S
O112 C117 1.258 . S
C113 O103 1.252 . S
C113 O106 1.253 . S
C114 O100 1.265 . S
C114 O119 1.244 . S
O115 Tb104 2.441 . S
O115 C105 1.248 . S
O116 Tb104 2.506 1_565 S
O116 C105 1.263 1_565 S
C117 O112 1.258 . S
C117 O118 1.251 . S
O118 C117 1.251 . S
O119 Tb101 2.441 . S
O119 C114 1.244 . S
O120 Tb121 2.506 . S
O120 C134 1.265 . S
Tb121 O120 2.506 . S
Tb121 O126 2.312 . S
Tb121 O130 2.271 . S
Tb121 O132 2.338 . S
Tb121 O139 2.441 . S
C122 O130 1.252 . S
C122 O131 1.253 . S
O123 Tb124 2.271 . S
O123 C133 1.252 . S
Tb124 O123 2.271 . S
Tb124 O127 2.338 . S
Tb124 O131 2.312 . S
Tb124 O135 2.441 . S
Tb124 O136 2.506 . S
C125 O135 1.244 . S
C125 O136 1.265 . S
O126 Tb121 2.312 . S
O126 C133 1.253 . S
O127 Tb124 2.338 . S
O127 C128 1.258 . S
C128 O127 1.258 . S
C128 O129 1.251 . S
O129 C128 1.251 . S
O130 Tb121 2.271 . S
O130 C122 1.252 . S
O131 C122 1.253 . S
O131 Tb124 2.312 . S
O132 Tb121 2.338 . S
O132 C137 1.258 . S
C133 O123 1.252 . S
C133 O126 1.253 . S
C134 O120 1.265 . S
C134 O139 1.244 . S
O135 Tb124 2.441 . S
O135 C125 1.244 . S
O136 Tb124 2.506 . S
O136 C125 1.265 . S
C137 O132 1.258 . S
C137 O138 1.251 . S
O138 C137 1.251 . S
O139 Tb121 2.441 . S
O139 C134 1.244 . S
O140 Tb141 2.506 . S
O140 C154 1.265 . S
Tb141 O140 2.506 . S
Tb141 O146 2.312 . S
Tb141 O150 2.271 . S
Tb141 O152 2.338 . S
Tb141 O159 2.441 . S
C142 O150 1.252 . S
C142 O151 1.253 . S
O143 Tb144 2.271 . S
O143 C153 1.252 . S
Tb144 O143 2.271 . S
Tb144 O147 2.338 . S
Tb144 O151 2.312 . S
Tb144 O155 2.441 . S
Tb144 O156 2.506 . S
C145 O155 1.244 . S
C145 O156 1.265 . S
O146 Tb141 2.312 . S
O146 C153 1.253 . S
O147 Tb144 2.338 . S
O147 C148 1.258 . S
C148 O147 1.258 . S
C148 O149 1.251 . S
O149 C148 1.251 . S
O150 Tb141 2.271 . S
O150 C142 1.252 . S
O151 C142 1.253 . S
O151 Tb144 2.312 . S
O152 Tb141 2.338 . S
O152 C157 1.258 . S
C153 O143 1.252 . S
C153 O146 1.253 . S
C154 O140 1.265 . S
C154 O159 1.244 . S
O155 Tb144 2.441 . S
O155 C145 1.244 . S
O156 Tb144 2.506 . S
O156 C145 1.265 . S
C157 O152 1.258 . S
C157 O158 1.251 . S
O158 C157 1.251 . S
O159 Tb141 2.441 . S
O159 C154 1.244 . S
O160 Tb161 2.506 . S
O160 C174 1.265 . S
Tb161 O160 2.506 . S
Tb161 O166 2.312 . S
Tb161 O170 2.271 1_554 S
Tb161 O172 2.338 . S
Tb161 O179 2.441 1_554 S
C162 O170 1.252 . S
C162 O171 1.253 . S
O163 Tb164 2.271 . S
O163 C173 1.252 . S
Tb164 O163 2.271 . S
Tb164 O167 2.338 1_655 S
Tb164 O171 2.312 . S
Tb164 O175 2.441 . S
Tb164 O176 2.506 1_655 S
C165 O175 1.248 . S
C165 O176 1.263 1_655 S
O166 Tb161 2.312 . S
O166 C173 1.253 1_554 S
O167 Tb164 2.338 1_455 S
O167 C168 1.258 . S
C168 O167 1.258 . S
C168 O169 1.251 . S
O169 C168 1.251 . S
O170 Tb161 2.271 1_556 S
O170 C162 1.252 . S
O171 C162 1.253 . S
O171 Tb164 2.312 . S
O172 Tb161 2.338 . S
O172 C177 1.266 . S
C173 O163 1.252 . S
C173 O166 1.253 1_556 S
C174 O160 1.265 . S
C174 O179 1.244 1_554 S
O175 Tb164 2.441 . S
O175 C165 1.248 . S
O176 Tb164 2.506 1_455 S
O176 C165 1.263 1_455 S
C177 O172 1.266 . S
C177 O178 1.246 1_554 S
O178 C177 1.246 1_556 S
O179 Tb161 2.441 1_556 S
O179 C174 1.244 1_556 S
O180 Tb181 2.506 . S
O180 C194 1.265 . S
Tb181 O180 2.506 . S
Tb181 O186 2.312 . S
Tb181 O190 2.271 1_554 S
Tb181 O192 2.338 . S
Tb181 O199 2.441 1_554 S
C182 O190 1.252 . S
C182 O191 1.253 . S
O183 Tb184 2.271 . S
O183 C193 1.252 . S
Tb184 O183 2.271 . S
Tb184 O187 2.338 1_565 S
Tb184 O191 2.312 . S
Tb184 O195 2.441 . S
Tb184 O196 2.506 1_565 S
C185 O195 1.248 . S
C185 O196 1.263 1_565 S
O186 Tb181 2.312 . S
O186 C193 1.253 1_554 S
O187 Tb184 2.338 1_545 S
O187 C188 1.258 . S
C188 O187 1.258 . S
C188 O189 1.251 . S
O189 C188 1.251 . S
O190 Tb181 2.271 1_556 S
O190 C182 1.252 . S
O191 C182 1.253 . S
O191 Tb184 2.312 . S
O192 Tb181 2.338 . S
O192 C197 1.265 . S
C193 O183 1.252 . S
C193 O186 1.253 1_556 S
C194 O180 1.265 . S
C194 O199 1.244 1_554 S
O195 Tb184 2.441 . S
O195 C185 1.248 . S
O196 Tb184 2.506 1_545 S
O196 C185 1.263 1_545 S
C197 O192 1.265 . S
C197 O198 1.247 1_554 S
O198 C197 1.247 1_556 S
O199 Tb181 2.441 1_556 S
O199 C194 1.244 1_556 S
O200 Tb201 2.506 . S
O200 C214 1.265 . S
Tb201 O200 2.506 . S
Tb201 O206 2.312 . S
Tb201 O210 2.271 1_554 S
Tb201 O212 2.338 . S
Tb201 O219 2.441 1_554 S
C202 O210 1.252 . S
C202 O211 1.253 . S
O203 Tb204 2.271 . S
O203 C213 1.252 . S
Tb204 O203 2.271 . S
Tb204 O207 2.338 . S
Tb204 O211 2.312 . S
Tb204 O215 2.441 . S
Tb204 O216 2.506 . S
C205 O215 1.244 . S
C205 O216 1.265 . S
O206 Tb201 2.312 . S
O206 C213 1.253 1_554 S
O207 Tb204 2.338 . S
O207 C208 1.258 . S
C208 O207 1.258 . S
C208 O209 1.251 . S
O209 C208 1.251 . S
O210 Tb201 2.271 1_556 S
O210 C202 1.252 . S
O211 C202 1.253 . S
O211 Tb204 2.312 . S
O212 Tb201 2.338 . S
O212 C217 1.265 . S
C213 O203 1.252 . S
C213 O206 1.253 1_556 S
C214 O200 1.265 . S
C214 O219 1.244 1_554 S
O215 Tb204 2.441 . S
O215 C205 1.244 . S
O216 Tb204 2.506 . S
O216 C205 1.265 . S
C217 O212 1.265 . S
C217 O218 1.247 1_554 S
O218 C217 1.247 1_556 S
O219 Tb201 2.441 1_556 S
O219 C214 1.244 1_556 S
O220 Tb221 2.506 . S
O220 C234 1.265 . S
Tb221 O220 2.506 . S
Tb221 O226 2.312 . S
Tb221 O230 2.271 1_554 S
Tb221 O232 2.338 . S
Tb221 O239 2.441 1_554 S
C222 O230 1.252 . S
C222 O231 1.253 . S
O223 Tb224 2.271 . S
O223 C233 1.252 . S
Tb224 O223 2.271 . S
Tb224 O227 2.338 . S
Tb224 O231 2.312 . S
Tb224 O235 2.441 . S
Tb224 O236 2.506 . S
C225 O235 1.244 . S
C225 O236 1.265 . S
O226 Tb221 2.312 . S
O226 C233 1.253 1_554 S
O227 Tb224 2.338 . S
O227 C228 1.258 . S
C228 O227 1.258 . S
C228 O229 1.251 . S
O229 C228 1.251 . S
O230 Tb221 2.271 1_556 S
O230 C222 1.252 . S
O231 C222 1.253 . S
O231 Tb224 2.312 . S
O232 Tb221 2.338 . S
O232 C237 1.266 . S
C233 O223 1.252 . S
C233 O226 1.253 1_556 S
C234 O220 1.265 . S
C234 O239 1.244 1_554 S
O235 Tb224 2.441 . S
O235 C225 1.244 . S
O236 Tb224 2.506 . S
O236 C225 1.265 . S
C237 O232 1.266 . S
C237 O238 1.246 1_554 S
O238 C237 1.246 1_556 S
O239 Tb221 2.441 1_556 S
O239 C234 1.244 1_556 S
O240 Tb241 2.506 . S
O240 C254 1.265 . S
Tb241 O240 2.506 . S
Tb241 O246 2.312 . S
Tb241 O250 2.271 . S
Tb241 O252 2.338 . S
Tb241 O259 2.441 . S
C242 O250 1.252 . S
C242 O251 1.253 . S
O243 Tb244 2.271 . S
O243 C253 1.252 . S
Tb244 O243 2.271 . S
Tb244 O247 2.338 1_655 S
Tb244 O251 2.312 . S
Tb244 O255 2.441 . S
Tb244 O256 2.506 1_655 S
C245 O255 1.248 . S
C245 O256 1.263 1_655 S
O246 Tb241 2.312 . S
O246 C253 1.253 . S
O247 Tb244 2.338 1_455 S
O247 C248 1.258 . S
C248 O247 1.258 . S
C248 O249 1.251 . S
O249 C248 1.251 . S
O250 Tb241 2.271 . S
O250 C242 1.252 . S
O251 C242 1.253 . S
O251 Tb244 2.312 . S
O252 Tb241 2.338 . S
O252 C257 1.258 . S
C253 O243 1.252 . S
C253 O246 1.253 . S
C254 O240 1.265 . S
C254 O259 1.244 . S
O255 Tb244 2.441 . S
O255 C245 1.248 . S
O256 Tb244 2.506 1_455 S
O256 C245 1.263 1_455 S
C257 O252 1.258 . S
C257 O258 1.251 . S
O258 C257 1.251 . S
O259 Tb241 2.441 . S
O259 C254 1.244 . S
O260 Tb261 2.506 . S
O260 C274 1.265 . S
Tb261 O260 2.506 . S
Tb261 O266 2.312 . S
Tb261 O270 2.271 . S
Tb261 O272 2.338 . S
Tb261 O279 2.441 . S
C262 O270 1.252 . S
C262 O271 1.253 . S
O263 Tb264 2.271 . S
O263 C273 1.252 . S
Tb264 O263 2.271 . S
Tb264 O267 2.338 1_565 S
Tb264 O271 2.312 . S
Tb264 O275 2.441 . S
Tb264 O276 2.506 1_565 S
C265 O275 1.248 . S
C265 O276 1.263 1_565 S
O266 Tb261 2.312 . S
O266 C273 1.253 . S
O267 Tb264 2.338 1_545 S
O267 C268 1.258 . S
C268 O267 1.258 . S
C268 O269 1.251 . S
O269 C268 1.251 . S
O270 Tb261 2.271 . S
O270 C262 1.252 . S
O271 C262 1.253 . S
O271 Tb264 2.312 . S
O272 Tb261 2.338 . S
O272 C277 1.258 . S
C273 O263 1.252 . S
C273 O266 1.253 . S
C274 O260 1.265 . S
C274 O279 1.244 . S
O275 Tb264 2.441 . S
O275 C265 1.248 . S
O276 Tb264 2.506 1_545 S
O276 C265 1.263 1_545 S
C277 O272 1.258 . S
C277 O278 1.251 . S
O278 C277 1.251 . S
O279 Tb261 2.441 . S
O279 C274 1.244 . S
O280 Tb281 2.506 . S
O280 C294 1.265 . S
Tb281 O280 2.506 . S
Tb281 O286 2.312 . S
Tb281 O290 2.271 . S
Tb281 O292 2.338 . S
Tb281 O299 2.441 . S
C282 O290 1.252 . S
C282 O291 1.253 . S
O283 Tb284 2.271 . S
O283 C293 1.252 . S
Tb284 O283 2.271 . S
Tb284 O287 2.338 . S
Tb284 O291 2.312 . S
Tb284 O295 2.441 . S
Tb284 O296 2.506 . S
C285 O295 1.244 . S
C285 O296 1.265 . S
O286 Tb281 2.312 . S
O286 C293 1.253 . S
O287 Tb284 2.338 . S
O287 C288 1.258 . S
C288 O287 1.258 . S
C288 O289 1.251 . S
O289 C288 1.251 . S
O290 Tb281 2.271 . S
O290 C282 1.252 . S
O291 C282 1.253 . S
O291 Tb284 2.312 . S
O292 Tb281 2.338 . S
O292 C297 1.258 . S
C293 O283 1.252 . S
C293 O286 1.253 . S
C294 O280 1.265 . S
C294 O299 1.244 . S
O295 Tb284 2.441 . S
O295 C285 1.244 . S
O296 Tb284 2.506 . S
O296 C285 1.265 . S
C297 O292 1.258 . S
C297 O298 1.251 . S
O298 C297 1.251 . S
O299 Tb281 2.441 . S
O299 C294 1.244 . S
O300 Tb301 2.506 . S
O300 C314 1.265 . S
Tb301 O300 2.506 . S
Tb301 O306 2.312 . S
Tb301 O310 2.271 . S
Tb301 O312 2.338 . S
Tb301 O319 2.441 . S
C302 O310 1.252 . S
C302 O311 1.253 . S
O303 Tb304 2.271 . S
O303 C313 1.252 . S
Tb304 O303 2.271 . S
Tb304 O307 2.338 . S
Tb304 O311 2.312 . S
Tb304 O315 2.441 . S
Tb304 O316 2.506 . S
C305 O315 1.244 . S
C305 O316 1.265 . S
O306 Tb301 2.312 . S
O306 C313 1.253 . S
O307 Tb304 2.338 . S
O307 C308 1.258 . S
C308 O307 1.258 . S
C308 O309 1.251 . S
O309 C308 1.251 . S
O310 Tb301 2.271 . S
O310 C302 1.252 . S
O311 C302 1.253 . S
O311 Tb304 2.312 . S
O312 Tb301 2.338 . S
O312 C317 1.258 . S
C313 O303 1.252 . S
C313 O306 1.253 . S
C314 O300 1.265 . S
C314 O319 1.244 . S
O315 Tb304 2.441 . S
O315 C305 1.244 . S
O316 Tb304 2.506 . S
O316 C305 1.265 . S
C317 O312 1.258 . S
C317 O318 1.251 . S
O318 C317 1.251 . S
O319 Tb301 2.441 . S
O319 C314 1.244 . S
C320 C321 1.387 . S
C320 H324 0.950 . S
C320 C329 1.390 . S
C321 C320 1.387 . S
C321 C323 1.387 1_554 S
H322 C329 0.950 . S
C323 C321 1.387 1_556 S
C323 C325 1.390 . S
C323 H327 0.950 . S
H324 C320 0.950 . S
C325 C323 1.390 . S
C325 C326 1.387 1_556 S
C325 H328 0.950 . S
C326 C325 1.387 1_554 S
C326 C329 1.387 . S
H327 C323 0.950 . S
H328 C325 0.950 . S
C329 C320 1.390 . S
C329 H322 0.950 . S
C329 C326 1.387 . S
C330 C331 1.387 . S
C330 H334 0.950 . S
C330 C339 1.390 . S
C331 C330 1.387 . S
C331 C333 1.387 1_554 S
H332 C339 0.950 1_655 S
C333 C331 1.387 1_556 S
C333 C335 1.390 . S
C333 H337 0.950 . S
H334 C330 0.950 . S
C335 C333 1.390 . S
C335 C336 1.387 1_456 S
C335 H338 0.950 . S
C336 C335 1.387 1_654 S
C336 C339 1.387 1_655 S
H337 C333 0.950 . S
H338 C335 0.950 . S
C339 C330 1.390 . S
C339 H332 0.950 1_455 S
C339 C336 1.387 1_455 S
C340 C341 1.387 1_556 S
C340 H344 0.950 . S
C340 C349 1.390 1_565 S
C341 C340 1.387 1_554 S
C341 C343 1.387 1_565 S
H342 C349 0.950 . S
C343 C341 1.387 1_545 S
C343 C345 1.390 . S
C343 H347 0.950 . S
H344 C340 0.950 . S
C345 C343 1.390 . S
C345 C346 1.387 . S
C345 H348 0.950 . S
C346 C345 1.387 . S
C346 C349 1.387 1_554 S
H347 C343 0.950 . S
H348 C345 0.950 . S
C349 C340 1.390 1_545 S
C349 H342 0.950 . S
C349 C346 1.387 1_556 S
C350 C351 1.387 1_556 S
C350 H354 0.950 . S
C350 C359 1.390 . S
C351 C350 1.387 1_554 S
C351 C353 1.387 . S
H352 C359 0.950 . S
C353 C351 1.387 . S
C353 C355 1.390 . S
C353 H357 0.950 . S
H354 C350 0.950 . S
C355 C353 1.390 . S
C355 C356 1.387 . S
C355 H358 0.950 . S
C356 C355 1.387 . S
C356 C359 1.387 1_554 S
H357 C353 0.950 . S
H358 C355 0.950 . S
C359 C350 1.390 . S
C359 H352 0.950 . S
C359 C356 1.387 1_556 S
C360 C361 1.387 . S
C360 H364 0.950 . S
C360 C369 1.390 1_565 S
C361 C360 1.387 . S
C361 C363 1.387 1_565 S
H362 C369 0.950 . S
C363 C361 1.387 1_545 S
C363 C365 1.390 . S
C363 H367 0.950 . S
H364 C360 0.950 . S
C365 C363 1.390 . S
C365 C366 1.387 . S
C365 H368 0.950 . S
C366 C365 1.387 . S
C366 C369 1.387 . S
H367 C363 0.950 . S
H368 C365 0.950 . S
C369 C360 1.390 1_545 S
C369 H362 0.950 . S
C369 C366 1.387 . S
C370 C371 1.387 . S
C370 H374 0.950 . S
C370 C379 1.390 . S
C371 C370 1.387 . S
C371 C373 1.387 . S
H372 C379 0.950 . S
C373 C371 1.387 . S
C373 C375 1.390 . S
C373 H377 0.950 . S
H374 C370 0.950 . S
C375 C373 1.390 . S
C375 C376 1.387 . S
C375 H378 0.950 . S
C376 C375 1.387 . S
C376 C379 1.387 . S
H377 C373 0.950 . S
H378 C375 0.950 . S
C379 C370 1.390 . S
C379 H372 0.950 . S
C379 C376 1.387 . S
C380 C381 1.387 . S
C380 H384 0.950 . S
C380 C389 1.390 . S
C381 C380 1.387 . S
C381 C383 1.387 . S
H382 C389 0.950 . S
C383 C381 1.387 . S
C383 C385 1.390 . S
C383 H387 0.950 . S
H384 C380 0.950 . S
C385 C383 1.390 . S
C385 C386 1.387 . S
C385 H388 0.950 . S
C386 C385 1.387 . S
C386 C389 1.387 . S
H387 C383 0.950 . S
H388 C385 0.950 . S
C389 C380 1.390 . S
C389 H382 0.950 . S
C389 C386 1.387 . S
C390 C391 1.387 . S
C390 H394 0.950 . S
C390 C399 1.390 . S
C391 C390 1.387 . S
C391 C393 1.387 . S
H392 C399 0.950 1_655 S
C393 C391 1.387 . S
C393 C395 1.390 . S
C393 H397 0.950 . S
H394 C390 0.950 . S
C395 C393 1.390 . S
C395 C396 1.387 1_455 S
C395 H398 0.950 . S
C396 C395 1.387 1_655 S
C396 C399 1.387 1_655 S
H397 C393 0.950 . S
H398 C395 0.950 . S
C399 C390 1.390 . S
C399 H392 0.950 1_455 S
C399 C396 1.387 1_455 S
C400 C401 1.387 . S
C400 H404 0.950 . S
C400 C409 1.390 . S
C401 C400 1.387 . S
C401 C403 1.387 1_556 S
H402 C409 0.950 . S
C403 C401 1.387 1_554 S
C403 C405 1.390 . S
C403 H407 0.950 . S
H404 C400 0.950 . S
C405 C403 1.390 . S
C405 C406 1.387 1_554 S
C405 H408 0.950 . S
C406 C405 1.387 1_556 S
C406 C409 1.387 . S
H407 C403 0.950 . S
H408 C405 0.950 . S
C409 C400 1.390 . S
C409 H402 0.950 . S
C409 C406 1.387 . S
C410 C411 1.387 1_554 S
C410 H414 0.950 . S
C410 C419 1.390 . S
C411 C410 1.387 1_556 S
C411 C413 1.387 . S
H412 C419 0.950 . S
C413 C411 1.387 . S
C413 C415 1.390 . S
C413 H417 0.950 . S
H414 C410 0.950 . S
C415 C413 1.390 . S
C415 C416 1.387 1_655 S
C415 H418 0.950 1_655 S
C416 C415 1.387 1_455 S
C416 C419 1.387 1_456 S
H417 C413 0.950 . S
H418 C415 0.950 1_455 S
C419 C410 1.390 . S
C419 H412 0.950 . S
C419 C416 1.387 1_654 S
C420 C421 1.387 1_554 S
C420 H424 0.950 . S
C420 C429 1.390 . S
C421 C420 1.387 1_556 S
C421 C423 1.387 . S
H422 C429 0.950 1_545 S
C423 C421 1.387 . S
C423 C425 1.390 . S
C423 H427 0.950 . S
H424 C420 0.950 . S
C425 C423 1.390 . S
C425 C426 1.387 1_565 S
C425 H428 0.950 1_565 S
C426 C425 1.387 1_545 S
C426 C429 1.387 1_546 S
H427 C423 0.950 . S
H428 C425 0.950 1_545 S
C429 C420 1.390 . S
C429 H422 0.950 1_565 S
C429 C426 1.387 1_564 S
C430 C431 1.387 1_554 S
C430 H434 0.950 . S
C430 C439 1.390 . S
C431 C430 1.387 1_556 S
C431 C433 1.387 . S
H432 C439 0.950 . S
C433 C431 1.387 . S
C433 C435 1.390 . S
C433 H437 0.950 . S
H434 C430 0.950 . S
C435 C433 1.390 . S
C435 C436 1.387 . S
C435 H438 0.950 . S
C436 C435 1.387 . S
C436 C439 1.387 1_556 S
H437 C433 0.950 . S
H438 C435 0.950 . S
C439 C430 1.390 . S
C439 H432 0.950 . S
C439 C436 1.387 1_554 S
C440 C441 1.387 . S
C440 H444 0.950 . S
C440 C449 1.390 1_545 S
C441 C440 1.387 . S
C441 C443 1.387 1_545 S
H442 C449 0.950 . S
C443 C441 1.387 1_565 S
C443 C445 1.390 . S
C443 H447 0.950 . S
H444 C440 0.950 . S
C445 C443 1.390 . S
C445 C446 1.387 . S
C445 H448 0.950 . S
C446 C445 1.387 . S
C446 C449 1.387 . S
H447 C443 0.950 . S
H448 C445 0.950 . S
C449 C440 1.390 1_565 S
C449 H442 0.950 . S
C449 C446 1.387 . S
C450 C451 1.387 . S
C450 H454 0.950 . S
C450 C459 1.390 . S
C451 C450 1.387 . S
C451 C453 1.387 . S
H452 C459 0.950 . S
C453 C451 1.387 . S
C453 C455 1.390 . S
C453 H457 0.950 . S
H454 C450 0.950 . S
C455 C453 1.390 . S
C455 C456 1.387 . S
C455 H458 0.950 . S
C456 C455 1.387 . S
C456 C459 1.387 . S
H457 C453 0.950 . S
H458 C455 0.950 . S
C459 C450 1.390 . S
C459 H452 0.950 . S
C459 C456 1.387 . S
C460 C461 1.387 . S
C460 H464 0.950 . S
C460 C469 1.390 . S
C461 C460 1.387 . S
C461 C463 1.387 . S
H462 C469 0.950 . S
C463 C461 1.387 . S
C463 C465 1.390 . S
C463 H467 0.950 . S
H464 C460 0.950 . S
C465 C463 1.390 . S
C465 C466 1.387 . S
C465 H468 0.950 . S
C466 C465 1.387 . S
C466 C469 1.387 . S
H467 C463 0.950 . S
H468 C465 0.950 . S
C469 C460 1.390 . S
C469 H462 0.950 . S
C469 C466 1.387 . S
C470 C471 1.387 1_655 S
C470 H474 0.950 1_655 S
C470 C479 1.390 . S
C471 C470 1.387 1_455 S
C471 C473 1.387 1_455 S
H472 C479 0.950 . S
C473 C471 1.387 1_655 S
C473 C475 1.390 . S
C473 H477 0.947 1_655 S
H474 C470 0.950 1_455 S
C475 C473 1.390 . S
C475 C476 1.387 . S
C475 H478 0.950 . S
C476 C475 1.387 . S
C476 C479 1.387 . S
H477 C473 0.947 1_455 S
H478 C475 0.950 . S
C479 C470 1.390 . S
C479 H472 0.950 . S
C479 C476 1.387 . S
C480 C481 1.387 . S
C480 H484 0.950 . S
C480 C489 1.390 . S
C481 C480 1.387 . S
C481 C483 1.387 . S
H482 C489 0.950 . S
C483 C481 1.387 . S
C483 C485 1.390 . S
C483 H487 0.950 . S
H484 C480 0.950 . S
C485 C483 1.390 . S
C485 C486 1.387 . S
C485 H488 0.950 . S
C486 C485 1.387 . S
C486 C489 1.387 . S
H487 C483 0.950 . S
H488 C485 0.950 . S
C489 C480 1.390 . S
C489 H482 0.950 . S
C489 C486 1.387 . S
C490 C491 1.387 . S
C490 H494 0.950 . S
C490 C499 1.390 . S
C491 C490 1.387 . S
C491 C493 1.387 . S
H492 C499 0.950 . S
C493 C491 1.387 . S
C493 C495 1.390 . S
C493 H497 0.950 . S
H494 C490 0.950 . S
C495 C493 1.390 . S
C495 C496 1.387 . S
C495 H498 0.950 . S
C496 C495 1.387 . S
C496 C499 1.387 . S
H497 C493 0.950 . S
H498 C495 0.950 . S
C499 C490 1.390 . S
C499 H492 0.950 . S
C499 C496 1.387 . S
C500 C501 1.387 . S
C500 H504 0.950 . S
C500 C509 1.390 . S
C501 C500 1.387 . S
C501 C503 1.387 . S
H502 C509 0.950 . S
C503 C501 1.387 . S
C503 C505 1.390 . S
C503 H507 0.950 . S
H504 C500 0.950 . S
C505 C503 1.390 . S
C505 C506 1.387 . S
C505 H508 0.950 . S
C506 C505 1.387 . S
C506 C509 1.387 . S
H507 C503 0.950 . S
H508 C505 0.950 . S
C509 C500 1.390 . S
C509 H502 0.950 . S
C509 C506 1.387 . S
C510 C511 1.387 . S
C510 H514 0.950 . S
C510 C519 1.390 . S
C511 C510 1.387 . S
C511 C513 1.387 . S
H512 C519 0.950 . S
C513 C511 1.387 . S
C513 C515 1.390 . S
C513 H517 0.950 . S
H514 C510 0.950 . S
C515 C513 1.390 . S
C515 C516 1.387 . S
C515 H518 0.950 . S
C516 C515 1.387 . S
C516 C519 1.387 . S
H517 C513 0.950 . S
H518 C515 0.950 . S
C519 C510 1.390 . S
C519 H512 0.950 . S
C519 C516 1.387 . S
C520 C521 1.387 . S
C520 H524 0.950 . S
C520 C529 1.390 . S
C521 C520 1.387 . S
C521 C523 1.387 . S
H522 C529 0.950 . S
C523 C521 1.387 . S
C523 C525 1.390 . S
C523 H527 0.950 . S
H524 C520 0.950 . S
C525 C523 1.390 . S
C525 C526 1.387 . S
C525 H528 0.950 . S
C526 C525 1.387 . S
C526 C529 1.387 . S
H527 C523 0.950 . S
H528 C525 0.950 . S
C529 C520 1.390 . S
C529 H522 0.950 . S
C529 C526 1.387 . S
C530 C531 1.387 . S
C530 H534 0.950 . S
C530 C539 1.390 . S
C531 C530 1.387 . S
C531 C533 1.387 . S
H532 C539 0.950 . S
C533 C531 1.387 . S
C533 C535 1.390 . S
C533 H537 0.950 . S
H534 C530 0.950 . S
C535 C533 1.390 . S
C535 C536 1.387 . S
C535 H538 0.950 . S
C536 C535 1.387 . S
C536 C539 1.387 . S
H537 C533 0.950 . S
H538 C535 0.950 . S
C539 C530 1.390 . S
C539 H532 0.950 . S
C539 C536 1.387 . S
C540 C541 1.387 . S
C540 H544 0.950 . S
C540 C549 1.390 . S
C541 C540 1.387 . S
C541 C543 1.387 . S
H542 C549 0.950 . S
C543 C541 1.387 . S
C543 C545 1.390 . S
C543 H547 0.950 . S
H544 C540 0.950 . S
C545 C543 1.390 . S
C545 C546 1.387 . S
C545 H548 0.950 . S
C546 C545 1.387 . S
C546 C549 1.387 . S
H547 C543 0.950 . S
H548 C545 0.950 . S
C549 C540 1.390 . S
C549 H542 0.950 . S
C549 C546 1.387 . S
C550 C551 1.387 . S
C550 H554 0.950 . S
C550 C559 1.390 . S
C551 C550 1.387 . S
C551 C553 1.387 . S
H552 C559 0.950 . S
C553 C551 1.387 . S
C553 C555 1.390 . S
C553 H557 0.950 . S
H554 C550 0.950 . S
C555 C553 1.390 . S
C555 C556 1.387 . S
C555 H558 0.950 . S
C556 C555 1.387 . S
C556 C559 1.387 . S
H557 C553 0.950 . S
H558 C555 0.950 . S
C559 C550 1.390 . S
C559 H552 0.950 . S
C559 C556 1.387 . S
C560 C561 1.387 1_554 S
C560 H564 0.950 . S
C560 C569 1.390 . S
C561 C560 1.387 1_556 S
C561 C563 1.387 . S
H562 C569 0.950 . S
C563 C561 1.387 . S
C563 C565 1.390 . S
C563 H567 0.950 . S
H564 C560 0.950 . S
C565 C563 1.390 . S
C565 C566 1.387 . S
C565 H568 0.950 . S
C566 C565 1.387 . S
C566 C569 1.387 1_556 S
H567 C563 0.950 . S
H568 C565 0.950 . S
C569 C560 1.390 . S
C569 H562 0.950 . S
C569 C566 1.387 1_554 S
C570 C571 1.387 . S
C570 H574 0.950 . S
C570 C579 1.390 . S
C571 C570 1.387 . S
C571 C573 1.387 1_556 S
H572 C579 0.950 . S
C573 C571 1.387 1_554 S
C573 C575 1.390 . S
C573 H577 0.950 . S
H574 C570 0.950 . S
C575 C573 1.390 . S
C575 C576 1.387 1_554 S
C575 H578 0.950 . S
C576 C575 1.387 1_556 S
C576 C579 1.387 . S
H577 C573 0.950 . S
H578 C575 0.950 . S
C579 C570 1.390 . S
C579 H572 0.950 . S
C579 C576 1.387 . S
C580 C581 1.387 . S
C580 H584 0.950 . S
C580 C589 1.390 . S
C581 C580 1.387 . S
C581 C583 1.387 . S
H582 C589 0.950 . S
C583 C581 1.387 . S
C583 C585 1.390 . S
C583 H587 0.950 . S
H584 C580 0.950 . S
C585 C583 1.390 . S
C585 C586 1.387 . S
C585 H588 0.950 . S
C586 C585 1.387 . S
C586 C589 1.387 . S
H587 C583 0.950 . S
H588 C585 0.950 . S
C589 C580 1.390 . S
C589 H582 0.950 . S
C589 C586 1.387 . S
C590 C591 1.387 . S
C590 H594 0.950 . S
C590 C599 1.390 . S
C591 C590 1.387 . S
C591 C593 1.387 . S
H592 C599 0.950 . S
C593 C591 1.387 . S
C593 C595 1.390 . S
C593 H597 0.950 . S
H594 C590 0.950 . S
C595 C593 1.390 . S
C595 C596 1.387 . S
C595 H598 0.950 . S
C596 C595 1.387 . S
C596 C599 1.387 . S
H597 C593 0.950 . S
H598 C595 0.950 . S
C599 C590 1.390 . S
C599 H592 0.950 . S
C599 C596 1.387 . S
C600 C601 1.387 . S
C600 H604 0.950 . S
C600 C609 1.390 . S
C601 C600 1.387 . S
C601 C603 1.387 1_554 S
H602 C609 0.950 . S
C603 C601 1.387 1_556 S
C603 C605 1.390 . S
C603 H607 0.950 . S
H604 C600 0.950 . S
C605 C603 1.390 . S
C605 C606 1.387 1_556 S
C605 H608 0.950 . S
C606 C605 1.387 1_554 S
C606 C609 1.387 . S
H607 C603 0.950 . S
H608 C605 0.950 . S
C609 C600 1.390 . S
C609 H602 0.950 . S
C609 C606 1.387 . S
C610 C611 1.387 1_556 S
C610 H614 0.950 . S
C610 C619 1.390 . S
C611 C610 1.387 1_554 S
C611 C613 1.387 . S
H612 C619 0.950 . S
C613 C611 1.387 . S
C613 C615 1.390 . S
C613 H617 0.950 . S
H614 C610 0.950 . S
C615 C613 1.390 . S
C615 C616 1.387 . S
C615 H618 0.950 . S
C616 C615 1.387 . S
C616 C619 1.387 1_554 S
H617 C613 0.950 . S
H618 C615 0.950 . S
C619 C610 1.390 . S
C619 H612 0.950 . S
C619 C616 1.387 1_556 S
C620 C621 1.387 . S
C620 H624 0.950 . S
C620 C629 1.390 . S
C621 C620 1.387 . S
C621 C623 1.387 . S
H622 C629 0.950 . S
C623 C621 1.387 . S
C623 C625 1.390 . S
C623 H627 0.950 . S
H624 C620 0.950 . S
C625 C623 1.390 . S
C625 C626 1.387 . S
C625 H628 0.950 . S
C626 C625 1.387 . S
C626 C629 1.387 . S
H627 C623 0.950 . S
H628 C625 0.950 . S
C629 C620 1.390 . S
C629 H622 0.950 . S
C629 C626 1.387 . S
C630 C631 1.387 . S
C630 H634 0.950 . S
C630 C639 1.390 . S
C631 C630 1.387 . S
C631 C633 1.387 . S
H632 C639 0.950 . S
C633 C631 1.387 . S
C633 C635 1.390 . S
C633 H637 0.950 . S
H634 C630 0.950 . S
C635 C633 1.390 . S
C635 C636 1.387 . S
C635 H638 0.950 . S
C636 C635 1.387 . S
C636 C639 1.387 . S
H637 C633 0.950 . S
H638 C635 0.950 . S
C639 C630 1.390 . S
C639 H632 0.950 . S
C639 C636 1.387 . S
C640 C641 1.387 . S
C640 H644 0.950 . S
C640 C649 1.390 1_655 S
C641 C640 1.387 . S
C641 C643 1.387 1_554 S
H642 C649 0.950 . S
C643 C641 1.387 1_556 S
C643 C645 1.390 1_655 S
C643 H647 0.950 . S
H644 C640 0.950 . S
C645 C643 1.390 1_455 S
C645 C646 1.387 . S
C645 H648 0.950 . S
C646 C645 1.387 . S
C646 C649 1.387 1_556 S
H647 C643 0.950 . S
H648 C645 0.950 . S
C649 C640 1.390 1_455 S
C649 H642 0.950 . S
C649 C646 1.387 1_554 S
C650 C651 1.387 . S
C650 H654 0.950 . S
C650 C659 1.390 1_465 S
C651 C650 1.387 . S
C651 C653 1.387 1_554 S
H652 C659 0.950 . S
C653 C651 1.387 1_556 S
C653 C655 1.390 1_465 S
C653 H657 0.950 . S
H654 C650 0.950 . S
C655 C653 1.390 1_645 S
C655 C656 1.387 . S
C655 H658 0.950 . S
C656 C655 1.387 . S
C656 C659 1.387 1_556 S
H657 C653 0.950 . S
H658 C655 0.950 . S
C659 C650 1.390 1_645 S
C659 H652 0.950 . S
C659 C656 1.387 1_554 S
C660 C661 1.387 1_556 S
C660 H664 0.950 . S
C660 C669 1.390 1_545 S
C661 C660 1.387 1_554 S
C661 C663 1.387 . S
H662 C669 0.950 . S
C663 C661 1.387 . S
C663 C665 1.390 1_545 S
C663 H667 0.950 . S
H664 C660 0.950 . S
C665 C663 1.390 1_565 S
C665 C666 1.387 1_554 S
C665 H668 0.950 . S
C666 C665 1.387 1_556 S
C666 C669 1.387 . S
H667 C663 0.950 . S
H668 C665 0.950 . S
C669 C660 1.390 1_565 S
C669 H662 0.950 . S
C669 C666 1.387 . S
C670 C671 1.387 1_554 S
C670 H674 0.950 . S
C670 C679 1.390 . S
C671 C670 1.387 1_556 S
C671 C673 1.387 . S
H672 C679 0.950 . S
C673 C671 1.387 . S
C673 C675 1.390 . S
C673 H677 0.950 . S
H674 C670 0.950 . S
C675 C673 1.390 . S
C675 C676 1.387 1_556 S
C675 H678 0.950 . S
C676 C675 1.387 1_554 S
C676 C679 1.387 . S
H677 C673 0.950 . S
H678 C675 0.950 . S
C679 C670 1.390 . S
C679 H672 0.950 . S
C679 C676 1.387 . S
C680 C681 1.387 . S
C680 H684 0.950 . S
C680 C689 1.390 1_645 S
C681 C680 1.387 . S
C681 C683 1.387 . S
H682 C689 0.950 . S
C683 C681 1.387 . S
C683 C685 1.390 1_645 S
C683 H687 0.950 . S
H684 C680 0.950 . S
C685 C683 1.390 1_465 S
C685 C686 1.387 . S
C685 H688 0.950 . S
C686 C685 1.387 . S
C686 C689 1.387 . S
H687 C683 0.950 . S
H688 C685 0.950 . S
C689 C680 1.390 1_465 S
C689 H682 0.950 . S
C689 C686 1.387 . S
C690 C691 1.387 . S
C690 H694 0.950 . S
C690 C699 1.390 1_565 S
C691 C690 1.387 . S
C691 C693 1.387 . S
H692 C699 0.950 . S
C693 C691 1.387 . S
C693 C695 1.390 1_565 S
C693 H697 0.950 . S
H694 C690 0.950 . S
C695 C693 1.390 1_545 S
C695 C696 1.387 . S
C695 H698 0.950 . S
C696 C695 1.387 . S
C696 C699 1.387 . S
H697 C693 0.950 . S
H698 C695 0.950 . S
C699 C690 1.390 1_545 S
C699 H692 0.950 . S
C699 C696 1.387 . S
C700 C701 1.387 . S
C700 H704 0.950 . S
C700 C709 1.390 . S
C701 C700 1.387 . S
C701 C703 1.387 . S
H702 C709 0.950 . S
C703 C701 1.387 . S
C703 C705 1.390 . S
C703 H707 0.950 . S
H704 C700 0.950 . S
C705 C703 1.390 . S
C705 C706 1.387 . S
C705 H708 0.950 . S
C706 C705 1.387 . S
C706 C709 1.387 . S
H707 C703 0.950 . S
H708 C705 0.950 . S
C709 C700 1.390 . S
C709 H702 0.950 . S
C709 C706 1.387 . S
C710 C711 1.387 . S
C710 H714 0.950 . S
C710 C719 1.390 1_455 S
C711 C710 1.387 . S
C711 C713 1.387 . S
H712 C719 0.950 . S
C713 C711 1.387 . S
C713 C715 1.390 1_455 S
C713 H717 0.950 . S
H714 C710 0.950 . S
C715 C713 1.390 1_655 S
C715 C716 1.387 . S
C715 H718 0.950 . S
C716 C715 1.387 . S
C716 C719 1.387 . S
H717 C713 0.950 . S
H718 C715 0.950 . S
C719 C710 1.390 1_655 S
C719 H712 0.950 . S
C719 C716 1.387 . S
C720 C721 1.387 1_655 S
C720 H724 0.950 . S
C720 C729 1.390 . S
C721 C720 1.387 1_455 S
C721 C723 1.387 . S
H722 C729 0.950 . S
C723 C721 1.387 . S
C723 C725 1.390 . S
C723 H727 0.950 . S
H724 C720 0.950 . S
C725 C723 1.390 . S
C725 C726 1.387 1_455 S
C725 H728 0.950 . S
C726 C725 1.387 1_655 S
C726 C729 1.387 . S
H727 C723 0.950 . S
H728 C725 0.950 . S
C729 C720 1.390 . S
C729 H722 0.950 . S
C729 C726 1.387 . S
C730 C731 1.387 . S
C730 H734 0.950 . S
C730 C739 1.390 . S
C731 C730 1.387 . S
C731 C733 1.387 1_645 S
H732 C739 0.950 . S
C733 C731 1.387 1_465 S
C733 C735 1.390 . S
C733 H737 0.950 . S
H734 C730 0.950 . S
C735 C733 1.390 . S
C735 C736 1.387 . S
C735 H738 0.950 . S
C736 C735 1.387 . S
C736 C739 1.387 1_465 S
H737 C733 0.950 . S
H738 C735 0.950 . S
C739 C730 1.390 . S
C739 H732 0.950 . S
C739 C736 1.387 1_645 S
C740 C741 1.387 . S
C740 H744 0.950 . S
C740 C749 1.390 . S
C741 C740 1.387 . S
C741 C743 1.387 1_565 S
H742 C749 0.950 . S
C743 C741 1.387 1_545 S
C743 C745 1.390 . S
C743 H747 0.950 . S
H744 C740 0.950 . S
C745 C743 1.390 . S
C745 C746 1.387 . S
C745 H748 0.950 . S
C746 C745 1.387 . S
C746 C749 1.387 1_545 S
H747 C743 0.950 . S
H748 C745 0.950 . S
C749 C740 1.390 . S
C749 H742 0.950 . S
C749 C746 1.387 1_565 S
C750 C751 1.387 . S
C750 H754 0.950 . S
C750 C759 1.390 . S
C751 C750 1.387 . S
C751 C753 1.387 . S
H752 C759 0.950 . S
C753 C751 1.387 . S
C753 C755 1.390 . S
C753 H757 0.950 . S
H754 C750 0.950 . S
C755 C753 1.390 . S
C755 C756 1.387 . S
C755 H758 0.950 . S
C756 C755 1.387 . S
C756 C759 1.387 . S
H757 C753 0.950 . S
H758 C755 0.950 . S
C759 C750 1.390 . S
C759 H752 0.950 . S
C759 C756 1.387 . S
C760 C761 1.387 . S
C760 H764 0.950 . S
C760 C769 1.390 1_655 S
C761 C760 1.387 . S
C761 C763 1.387 . S
H762 C769 0.950 . S
C763 C761 1.387 . S
C763 C765 1.390 1_655 S
C763 H767 0.950 . S
H764 C760 0.950 . S
C765 C763 1.390 1_455 S
C765 C766 1.387 . S
C765 H768 0.950 . S
C766 C765 1.387 . S
C766 C769 1.387 . S
H767 C763 0.950 . S
H768 C765 0.950 . S
C769 C760 1.390 1_455 S
C769 H762 0.950 . S
C769 C766 1.387 . S
C770 C771 1.387 1_545 S
C770 H774 0.950 . S
C770 C779 1.390 . S
C771 C770 1.387 1_565 S
C771 C773 1.387 1_455 S
H772 C779 0.950 . S
C773 C771 1.387 1_655 S
C773 C775 1.390 . S
C773 H777 0.950 . S
H774 C770 0.950 . S
C775 C773 1.390 . S
C775 C776 1.387 1_565 S
C775 H778 0.950 . S
C776 C775 1.387 1_545 S
C776 C779 1.387 1_655 S
H777 C773 0.950 . S
H778 C775 0.950 . S
C779 C770 1.390 . S
C779 H772 0.950 . S
C779 C776 1.387 1_455 S
C780 C781 1.387 . S
C780 H784 0.950 . S
C780 C789 1.390 . S
C781 C780 1.387 . S
C781 C783 1.387 1_545 S
H782 C789 0.950 . S
C783 C781 1.387 1_565 S
C783 C785 1.390 . S
C783 H787 0.950 . S
H784 C780 0.950 . S
C785 C783 1.390 . S
C785 C786 1.387 . S
C785 H788 0.950 . S
C786 C785 1.387 . S
C786 C789 1.387 1_565 S
H787 C783 0.950 . S
H788 C785 0.950 . S
C789 C780 1.390 . S
C789 H782 0.950 . S
C789 C786 1.387 1_545 S
C790 C791 1.387 . S
C790 H794 0.950 . S
C790 C799 1.390 . S
C791 C790 1.387 . S
C791 C793 1.387 . S
H792 C799 0.950 . S
C793 C791 1.387 . S
C793 C795 1.390 . S
C793 H797 0.950 . S
H794 C790 0.950 . S
C795 C793 1.390 . S
C795 C796 1.387 . S
C795 H798 0.950 . S
C796 C795 1.387 . S
C796 C799 1.387 . S
H797 C793 0.950 . S
H798 C795 0.950 . S
C799 C790 1.390 . S
C799 H792 0.950 . S
C799 C796 1.387 . S
C321 C77 2.646 1_554 S
C326 C8 2.825 . S
C331 C17 2.646 1_554 S
C336 C28 2.825 . S
C341 C57 2.824 . S
C346 C37 2.648 1_554 S
C351 C48 2.649 1_554 S
C356 C68 2.824 . S
C361 C88 2.824 . S
C366 C117 2.651 . S
C371 C108 2.824 . S
C376 C137 2.650 . S
C381 C128 2.825 . S
C386 C157 2.648 . S
C391 C97 2.651 . S
C396 C148 2.823 . S
C401 C168 2.824 . S
C406 C237 2.648 1_556 S
C411 C177 2.646 1_556 S
C416 C188 2.825 . S
C421 C197 2.646 1_556 S
C426 C208 2.825 . S
C431 C217 2.646 1_556 S
C436 C228 2.825 . S
C441 C248 2.824 . S
C446 C277 2.651 . S
C451 C297 2.648 . S
C456 C268 2.825 . S
C461 C317 2.648 . S
C466 C288 2.825 . S
C471 C308 2.824 . S
C476 C257 2.651 . S
C481 C2 2.447 . S
C486 C82 2.447 . S
C491 C102 2.447 . S
C496 C22 2.447 . S
C501 C53 2.446 . S
C506 C122 2.445 . S
C511 C62 2.447 . S
C516 C142 2.447 . S
C521 C242 2.446 . S
C526 C162 2.446 . S
C531 C262 2.446 . S
C536 C182 2.446 . S
C541 C202 2.447 . S
C546 C282 2.447 . S
C551 C302 2.446 . S
C556 C222 2.445 . S
C561 C14 1.378 . S
C566 C45 1.378 . S
C571 C34 1.376 . S
C576 C74 1.376 . S
C581 C134 1.378 . S
C586 C94 1.378 . S
C591 C154 1.378 . S
C596 C114 1.378 . S
C601 C214 1.378 . S
C606 C174 1.378 . S
C611 C234 1.376 . S
C616 C194 1.376 . S
C621 C254 1.378 . S
C626 C294 1.378 . S
C631 C274 1.376 . S
C636 C314 1.376 . S
C641 C173 1.986 1_554 S
C646 C13 1.986 1_556 S
C651 C193 1.986 1_554 S
C656 C33 1.986 1_556 S
C661 C213 1.984 1_554 S
C666 C42 1.984 1_556 S
C671 C73 1.986 1_556 S
C676 C233 1.986 1_554 S
C681 C253 1.985 . S
C686 C93 1.985 . S
C691 C273 1.986 . S
C696 C113 1.986 . S
C701 C293 1.984 . S
C706 C133 1.984 . S
C711 C313 1.986 . S
C716 C153 1.986 . S
C721 C145 0.760 1_455 S
C726 C5 0.753 1_655 S
C731 C85 0.752 1_645 S
C736 C25 0.757 1_465 S
C741 C105 0.748 1_565 S
C746 C54 0.754 1_545 S
C751 C125 0.753 . S
C756 C65 0.750 . S
C761 C305 0.750 1_655 S
C766 C165 0.751 1_455 S
C771 C245 0.758 1_465 S
C776 C185 0.759 1_645 S
C781 C265 0.759 1_545 S
C786 C205 0.759 1_565 S
C791 C225 0.755 . S
C796 C285 0.759 . S
