# Generated by pormake.
# Topology npo, (4)-cn, num edge types: 1
# Building blocks:
#     Node 0, Type 0, BuildingBlock: ICAMEG_clean_sbu_1, # of connection points: 4
#     Node 1, Type 0, BuildingBlock: ICAMEG_clean_sbu_1, # of connection points: 4
#     Node 2, Type 0, BuildingBlock: ICAMEG_clean_sbu_1, # of connection points: 4
#     Node 3, Type 0, BuildingBlock: ICAMEG_clean_sbu_1, # of connection points: 4
#     Node 4, Type 0, BuildingBlock: ICAMEG_clean_sbu_1, # of connection points: 4
#     Node 5, Type 0, BuildingBlock: ICAMEG_clean_sbu_1, # of connection points: 4
#     Edge 6, Type (0, 0), BuildingBlock: OJICUG_clean_linker_0, # of connection points: 2
#     Edge 7, Type (0, 0), BuildingBlock: OJICUG_clean_linker_0, # of connection points: 2
#     Edge 8, Type (0, 0), BuildingBlock: OJICUG_clean_linker_0, # of connection points: 2
#     Edge 9, Type (0, 0), BuildingBlock: OJICUG_clean_linker_0, # of connection points: 2
#     Edge 10, Type (0, 0), BuildingBlock: OJICUG_clean_linker_0, # of connection points: 2
#     Edge 11, Type (0, 0), BuildingBlock: OJICUG_clean_linker_0, # of connection points: 2
#     Edge 12, Type (0, 0), BuildingBlock: OJICUG_clean_linker_0, # of connection points: 2
#     Edge 13, Type (0, 0), BuildingBlock: OJICUG_clean_linker_0, # of connection points: 2
#     Edge 14, Type (0, 0), BuildingBlock: OJICUG_clean_linker_0, # of connection points: 2
#     Edge 15, Type (0, 0), BuildingBlock: OJICUG_clean_linker_0, # of connection points: 2
#     Edge 16, Type (0, 0), BuildingBlock: OJICUG_clean_linker_0, # of connection points: 2
#     Edge 17, Type (0, 0), BuildingBlock: OJICUG_clean_linker_0, # of connection points: 2
# Relax obj value: 0.238
# Max RMSD: 0.246
# Mean RMSD: 0.246
data_MOF--net-npo--node1-ICAMEG_clean_sbu_1--edge1-OJICUG_clean_linker_0
_symmetry_space_group_name_H-M    P1
_symmetry_Int_Tables_number       1
_symmetry_cell_setting            triclinic
loop_
_symmetry_equiv_pos_as_xyz
'x, y, z'
_cell_length_a     34.195511
_cell_length_b     34.248317
_cell_length_c     19.673428
_cell_angle_alpha  89.786165
_cell_angle_beta   90.332387
_cell_angle_gamma 120.09563
loop_
_atom_site_label
_atom_site_type_symbol
_atom_site_fract_x
_atom_site_fract_y
_atom_site_fract_z
_atom_type_partial_charge
Co0 Co 0.57219 0.13211 0.18863 0.0
Co1 Co 0.57403 0.13759 0.36273 0.0
O2 O 0.55874 0.10231 0.27818 0.0
C3 C 0.48516 0.07545 0.1131 0.0
O4 O 0.48025 0.11079 0.10455 0.0
C5 C 0.5962 0.0638 0.39282 0.0
O6 O 0.60226 0.05902 0.3283 0.0
O7 O 0.63824 0.1735 0.33287 0.0
O8 O 0.62871 0.18571 0.22359 0.0
H9 H 0.64888 0.2817 0.49708 0.0
H10 H 0.55556 0.03855 0.19873 0.0
O11 O 0.51701 0.07809 0.15052 0.0
H12 H 0.70802 0.12718 0.10089 0.0
H13 H 0.58815 0.14148 0.93288 0.0
H14 H 0.60022 0.22485 0.14294 0.0
H15 H 0.66375 0.16358 0.1292 0.0
H16 H 0.57337 0.10388 0.04432 0.0
O17 O 0.58717 0.0939 0.41174 0.0
H18 H 0.62721 0.23538 0.39313 0.0
H19 H 0.55572 0.11589 0.51087 0.0
H20 H 0.6157 0.26401 0.03267 0.0
H21 H 0.59823 1.00053 0.16971 0.0
H22 H 0.60956 0.22225 0.92648 0.0
H23 H 0.67514 0.04494 0.12065 0.0
O24 O 0.53651 0.16165 0.21288 0.0
H25 H 0.42753 0.99347 0.40206 0.0
H26 H 0.50671 0.15918 0.4223 0.0
H27 H 0.42765 0.11423 0.46008 0.0
H28 H 0.38765 0.03066 0.45081 0.0
H29 H 0.50629 0.03983 0.36355 0.0
H30 H 0.577 0.16091 0.61613 0.0
H31 H 0.62375 0.24446 0.60964 0.0
O32 O 0.56023 0.1824 0.31992 0.0
C33 C 0.65339 0.19423 0.27651 0.0
C34 C 0.62844 0.24532 0.50058 0.0
C35 C 0.58815 0.17753 0.56739 0.0
N36 N 0.59009 0.17295 0.44578 0.0
C37 C 0.61597 0.2189 0.44186 0.0
C38 C 0.57636 0.15219 0.50758 0.0
C39 C 0.61436 0.22441 0.56371 0.0
C40 C 0.58887 0.05812 0.17697 0.0
N41 N 0.60716 0.10339 0.16604 0.0
C42 C 0.61294 0.03639 0.16085 0.0
C43 C 0.65611 0.06133 0.13343 0.0
C44 C 0.6746 0.10748 0.12246 0.0
C45 C 0.64951 0.12803 0.13916 0.0
C46 C 0.59059 0.15997 0.97871 0.0
C47 C 0.59714 0.20628 0.09704 0.0
C48 C 0.58188 0.13867 0.042 0.0
N49 N 0.58485 0.16168 0.10021 0.0
C50 C 0.60611 0.22872 0.03469 0.0
C51 C 0.60268 0.20529 0.97516 0.0
C52 C 0.54085 0.1849 0.26591 0.0
C53 C 0.44462 0.02985 0.4065 0.0
C54 C 0.48939 0.12295 0.41706 0.0
C55 C 0.44466 0.09761 0.43895 0.0
C56 C 0.42225 0.05073 0.43379 0.0
N57 N 0.5113 0.10224 0.391 0.0
C58 C 0.48931 0.05631 0.38496 0.0
Co59 Co 0.42999 0.5616 0.67179 0.0
Co60 Co 0.42604 0.56287 0.84645 0.0
O61 O 0.44575 0.54745 0.76188 0.0
C62 C 0.40002 0.47564 0.59434 0.0
O63 O 0.36003 0.47129 0.58436 0.0
C64 C 0.51918 0.57679 0.88203 0.0
O65 O 0.52712 0.57013 0.8192 0.0
O66 O 0.45428 0.62698 0.81599 0.0
O67 O 0.43306 0.61765 0.70656 0.0
H68 H 0.35673 0.63809 0.97851 0.0
H69 H 0.50632 0.54402 0.68374 0.0
O70 O 0.42869 0.50658 0.63338 0.0
H71 H 0.57293 0.69738 0.58799 0.0
H72 H 0.43977 0.58101 0.41629 0.0
H73 H 0.3669 0.5917 0.62514 0.0
H74 H 0.49163 0.65337 0.61361 0.0
H75 H 0.46106 0.56463 0.52792 0.0
O76 O 0.48307 0.57699 0.89668 0.0
H77 H 0.38079 0.6155 0.87525 0.0
H78 H 0.42988 0.54562 0.99523 0.0
H79 H 0.34472 0.60888 0.51472 0.0
H80 H 0.58768 0.58652 0.65771 0.0
H81 H 0.3811 0.60339 0.40906 0.0
H82 H 0.62157 0.66386 0.60963 0.0
O83 O 0.36403 0.52677 0.69504 0.0
H84 H 0.42061 0.41455 0.88316 0.0
H85 H 0.3379 0.49695 0.90979 0.0
H86 H 0.30288 0.41806 0.94841 0.0
H87 H 0.34458 0.37643 0.93609 0.0
H88 H 0.45381 0.49302 0.84381 0.0
H89 H 0.40641 0.56758 0.09976 0.0
H90 H 0.36934 0.61397 0.09181 0.0
O91 O 0.36769 0.54896 0.80306 0.0
C92 C 0.4486 0.64202 0.75948 0.0
C93 C 0.37261 0.61766 0.98263 0.0
C94 C 0.40063 0.57821 0.05068 0.0
N95 N 0.40657 0.57908 0.92901 0.0
C96 C 0.3863 0.60472 0.9243 0.0
C97 C 0.41399 0.56601 0.99126 0.0
C98 C 0.3798 0.60421 0.04618 0.0
C99 C 0.5207 0.57758 0.66258 0.0
N100 N 0.4941 0.59619 0.65056 0.0
C101 C 0.56686 0.60152 0.64806 0.0
C102 C 0.58586 0.64492 0.62117 0.0
C103 C 0.5586 0.66376 0.60912 0.0
C104 C 0.51258 0.63879 0.62425 0.0
C105 C 0.42321 0.58295 0.46182 0.0
C106 C 0.38247 0.58856 0.57947 0.0
C107 C 0.43483 0.57315 0.52521 0.0
N108 N 0.41416 0.57543 0.58307 0.0
C109 C 0.36995 0.59864 0.51703 0.0
C110 C 0.39039 0.5956 0.45781 0.0
C111 C 0.34561 0.53131 0.74859 0.0
C112 C 0.40222 0.43243 0.88928 0.0
C113 C 0.35608 0.47904 0.90345 0.0
C114 C 0.33614 0.43435 0.92574 0.0
C115 C 0.35954 0.41102 0.91884 0.0
N116 N 0.39832 0.50015 0.87553 0.0
C117 C 0.42104 0.47712 0.86745 0.0
Co118 Co 0.87308 0.44046 0.3621 0.0
Co119 Co 0.87949 0.44274 0.18711 0.0
O120 O 0.90831 0.45972 0.27759 0.0
C121 C 0.94541 0.53768 0.38949 0.0
O122 O 0.95117 0.54741 0.32449 0.0
C123 C 0.93587 0.41222 0.11288 0.0
O124 O 0.89988 0.37277 0.1012 0.0
O125 O 0.84733 0.37704 0.21255 0.0
O126 O 0.83004 0.38121 0.32106 0.0
H127 H 0.74837 0.35777 0.02738 0.0
H128 H 0.9718 0.47428 0.36441 0.0
O129 O 0.91522 0.49868 0.4093 0.0
H130 H 0.90203 0.32272 0.46732 0.0
H131 H 0.85015 0.42294 0.61585 0.0
H132 H 0.77492 0.39183 0.39195 0.0
H133 H 0.85477 0.35362 0.42643 0.0
H134 H 0.89511 0.44722 0.51072 0.0
O135 O 0.93349 0.44042 0.15241 0.0
H136 H 0.7864 0.38045 0.13876 0.0
H137 H 0.9101 0.47154 0.04311 0.0
H138 H 0.7287 0.36652 0.49577 0.0
H139 H 0.02043 0.44519 0.40606 0.0
H140 H 0.7663 0.38207 0.60879 0.0
H141 H 0.98558 0.36881 0.45779 0.0
O142 O 0.83447 0.46544 0.32931 0.0
H143 H 0.01377 0.59938 0.16854 0.0
H144 H 0.85053 0.50398 0.12397 0.0
H145 H 0.88884 0.58466 0.09409 0.0
H146 H 0.97119 0.63295 0.11585 0.0
H147 H 0.97388 0.51872 0.19902 0.0
H148 H 0.87371 0.44973 0.93063 0.0
H149 H 0.79213 0.39234 0.92212 0.0
O150 O 0.82645 0.44648 0.21894 0.0
C151 C 0.82493 0.35899 0.26685 0.0
C152 C 0.78406 0.38241 0.0303 0.0
C153 C 0.85437 0.43398 0.97603 0.0
N154 N 0.85097 0.42619 0.09765 0.0
C155 C 0.80589 0.39519 0.09329 0.0
C156 C 0.875 0.44593 0.03995 0.0
C157 C 0.8086 0.40186 0.97129 0.0
C158 C 0.95631 0.44117 0.3873 0.0
N159 N 0.91038 0.41583 0.39331 0.0
C160 C 0.98406 0.42479 0.41056 0.0
C161 C 0.9645 0.38194 0.43956 0.0
C162 C 0.91763 0.35605 0.44483 0.0
C163 C 0.89097 0.3736 0.42117 0.0
C164 C 0.83337 0.41604 0.56691 0.0
C165 C 0.7916 0.3987 0.44088 0.0
C166 C 0.85866 0.42993 0.50716 0.0
N167 N 0.83772 0.42109 0.44511 0.0
C168 C 0.76521 0.3843 0.49953 0.0
C169 C 0.78632 0.39307 0.56291 0.0
C170 C 0.81482 0.45954 0.2716 0.0
C171 C 0.97788 0.57869 0.1587 0.0
C172 C 0.88613 0.5248 0.13469 0.0
C173 C 0.90776 0.57047 0.11715 0.0
C174 C 0.95397 0.59752 0.12925 0.0
N175 N 0.9098 0.50647 0.16337 0.0
C176 C 0.9551 0.5329 0.17562 0.0
Co177 Co 0.44126 0.87579 0.83693 0.0
Co178 Co 0.44149 0.87793 0.66239 0.0
O179 O 0.45966 0.90831 0.75048 0.0
C180 C 0.41042 0.93049 0.91579 0.0
O181 O 0.37014 0.89495 0.92393 0.0
C182 C 0.52693 0.9185 0.58298 0.0
O183 O 0.51794 0.87753 0.56744 0.0
O184 O 0.46546 0.83721 0.68897 0.0
O185 O 0.44519 0.82433 0.7988 0.0
H186 H 0.37177 0.74315 0.50744 0.0
H187 H 0.51877 0.96935 0.82941 0.0
O188 O 0.43933 0.92849 0.8775 0.0
H189 H 0.58076 0.88015 0.93205 0.0
H190 H 0.44214 0.85847 0.09227 0.0
H191 H 0.378 0.78088 0.87499 0.0
H192 H 0.50028 0.84401 0.90028 0.0
H193 H 0.46658 0.8998 0.98396 0.0
O194 O 0.50187 0.9241 0.62499 0.0
H195 H 0.39565 0.78255 0.61752 0.0
H196 H 0.44763 0.9092 0.51798 0.0
H197 H 0.35279 0.73793 0.98197 0.0
H198 H 0.59934 0.00706 0.86141 0.0
H199 H 0.38477 0.77678 0.09182 0.0
H200 H 0.63088 0.9624 0.91311 0.0
O201 O 0.3761 0.84564 0.80841 0.0
H202 H 0.44901 0.02766 0.63584 0.0
H203 H 0.3541 0.86325 0.60397 0.0
H204 H 0.32426 0.91289 0.57116 0.0
H205 H 0.37205 0.99581 0.58626 0.0
H206 H 0.47721 0.97672 0.6693 0.0
H207 H 0.42431 0.87113 0.40685 0.0
H208 H 0.38612 0.7875 0.40104 0.0
O209 O 0.38124 0.8323 0.69805 0.0
C210 C 0.45892 0.81512 0.74446 0.0
C211 C 0.38854 0.77962 0.50927 0.0
C212 C 0.41798 0.85143 0.45282 0.0
N213 N 0.42345 0.84817 0.57431 0.0
C214 C 0.40225 0.80214 0.57148 0.0
C215 C 0.43114 0.87279 0.51594 0.0
C216 C 0.39656 0.80451 0.44961 0.0
C217 C 0.53214 0.94963 0.85203 0.0
N218 N 0.50467 0.9044 0.86295 0.0
C219 C 0.57785 0.9712 0.86997 0.0
C220 C 0.59553 0.94613 0.89891 0.0
C221 C 0.56745 0.89998 0.90948 0.0
C222 C 0.5219 0.87958 0.89096 0.0
C223 C 0.42753 0.84125 0.04484 0.0
C224 C 0.39171 0.79823 0.92249 0.0
C225 C 0.44096 0.8647 0.9833 0.0
N226 N 0.42275 0.84334 0.92308 0.0
C227 C 0.37746 0.77362 0.98297 0.0
C228 C 0.39543 0.79541 0.04454 0.0
C229 C 0.35853 0.82517 0.75238 0.0
C230 C 0.42792 0.99159 0.62882 0.0
C231 C 0.37487 0.89919 0.61173 0.0
C232 C 0.35788 0.92719 0.59264 0.0
C233 C 0.38471 0.9737 0.60108 0.0
N234 N 0.41752 0.91701 0.63813 0.0
C235 C 0.44375 0.96256 0.64746 0.0
Co236 Co 0.56363 0.42534 0.15164 0.0
Co237 Co 0.56043 0.43265 0.32586 0.0
O238 O 0.54728 0.44661 0.23383 0.0
C239 C 0.57924 0.5182 0.11193 0.0
O240 O 0.57395 0.52769 0.17456 0.0
C241 C 0.47343 0.40295 0.39974 0.0
O242 O 0.46953 0.36335 0.41122 0.0
O243 O 0.5262 0.36647 0.30491 0.0
O244 O 0.54918 0.36787 0.19803 0.0
H245 H 0.60721 0.35143 0.49162 0.0
H246 H 0.49436 0.45384 0.14694 0.0
O247 O 0.57825 0.48137 0.09854 0.0
H248 H 0.41908 0.30052 0.05041 0.0
H249 H 0.5702 0.40056 0.90027 0.0
H250 H 0.61618 0.37921 0.12906 0.0
H251 H 0.49774 0.33594 0.09137 0.0
H252 H 0.5478 0.42649 1.00176 0.0
O253 O 0.50457 0.43135 0.36085 0.0
H254 H 0.59093 0.37127 0.37871 0.0
H255 H 0.56132 0.46598 0.46766 0.0
H256 H 0.6389 0.3524 0.02895 0.0
H257 H 0.41613 0.4202 0.10515 0.0
H258 H 0.61587 0.36299 0.9135 0.0
H259 H 0.37787 0.34297 0.0563 0.0
O260 O 0.62761 0.45391 0.18407 0.0
H261 H 0.58373 0.58969 0.33196 0.0
H262 H 0.65162 0.49578 0.3854 0.0
H263 H 0.69479 0.57736 0.40878 0.0
H264 H 0.66074 0.62493 0.38244 0.0
H265 H 0.54209 0.50806 0.30821 0.0
H266 H 0.57676 0.44702 0.58167 0.0
H267 H 0.59995 0.38926 0.59432 0.0
O268 O 0.61709 0.43557 0.29454 0.0
C269 C 0.53113 0.347 0.25299 0.0
C270 C 0.5966 0.37626 0.48693 0.0
C271 C 0.57947 0.42984 0.53744 0.0
N272 N 0.57345 0.41865 0.41646 0.0
C273 C 0.58702 0.38745 0.42306 0.0
C274 C 0.57021 0.44014 0.4727 0.0
C275 C 0.59258 0.39752 0.54449 0.0
C276 C 0.47835 0.4205 0.12514 0.0
N277 N 0.50115 0.39731 0.12065 0.0
C278 C 0.43382 0.40146 0.1019 0.0
C279 C 0.41234 0.3581 0.07461 0.0
C280 C 0.43544 0.33429 0.07132 0.0
C281 C 0.47998 0.35446 0.09491 0.0
C282 C 0.58041 0.39572 0.95032 0.0
C283 C 0.60583 0.3838 0.07906 0.0
C284 C 0.56799 0.4105 1.00801 0.0
N285 N 0.58052 0.40426 0.07146 0.0
C286 C 0.61889 0.3686 0.02253 0.0
C287 C 0.60601 0.37461 0.95777 0.0
C288 C 0.64202 0.44953 0.24208 0.0
C289 C 0.59895 0.56933 0.34366 0.0
C290 C 0.63683 0.51625 0.3727 0.0
C291 C 0.66132 0.56244 0.38658 0.0
C292 C 0.64217 0.58909 0.3719 0.0
N293 N 0.59441 0.49703 0.34506 0.0
C294 C 0.57549 0.52303 0.33046 0.0
Co295 Co 0.13102 0.57285 0.66218 0.0
Co296 Co 0.13467 0.57391 0.83621 0.0
O297 O 0.10097 0.56027 0.75055 0.0
C298 C 0.08942 0.61683 0.58244 0.0
O299 O 0.13033 0.6494 0.56739 0.0
C300 C 0.07968 0.48748 0.91395 0.0
O301 O 0.11457 0.48137 0.91817 0.0
O302 O 0.16236 0.53743 0.80638 0.0
O303 O 0.17751 0.55866 0.69727 0.0
H304 H 0.27364 0.61736 0.97672 0.0
H305 H 0.03245 0.50851 0.67031 0.0
O306 O 0.08411 0.5862 0.62475 0.0
H307 H 0.09718 0.42145 0.57114 0.0
H308 H 0.13737 0.56355 0.40662 0.0
H309 H 0.2262 0.62505 0.61712 0.0
H310 H 0.14636 0.50121 0.60276 0.0
H311 H 0.09947 0.54736 0.51779 0.0
O312 O 0.08185 0.51971 0.87833 0.0
H313 H 0.22925 0.6015 0.87108 0.0
H314 H 0.11354 0.57611 0.98402 0.0
H315 H 0.26544 0.64204 0.50696 0.0
H316 H 0.98193 0.42905 0.63804 0.0
H317 H 0.22096 0.61124 0.40067 0.0
H318 H 0.01425 0.38493 0.58818 0.0
O319 O 0.17071 0.63756 0.68878 0.0
H320 H 0.00594 0.60363 0.86507 0.0
H321 H 0.16907 0.66455 0.90094 0.0
H322 H 0.13485 0.70996 0.93447 0.0
H323 H 0.05255 0.67936 0.91707 0.0
H324 H 0.04183 0.55977 0.83113 0.0
H325 H 0.15637 0.59114 0.09103 0.0
H326 H 0.2372 0.61207 0.08786 0.0
O327 O 0.1867 0.62956 0.79705 0.0
C328 C 0.18278 0.54051 0.75062 0.0
C329 C 0.23838 0.608 0.97887 0.0
C330 C 0.17257 0.5932 0.04299 0.0
N331 N 0.16838 0.58686 0.92125 0.0
C332 C 0.21298 0.59884 0.91916 0.0
C333 C 0.14827 0.5843 0.98221 0.0
C334 C 0.21792 0.60502 0.04118 0.0
C335 C 0.0468 0.48966 0.64826 0.0
N336 N 0.09236 0.50969 0.63811 0.0
C337 C 0.01801 0.44461 0.63029 0.0
C338 C 0.03616 0.41986 0.60235 0.0
C339 C 0.08269 0.44031 0.59286 0.0
C340 C 0.11044 0.48546 0.6113 0.0
C341 C 0.15713 0.5772 0.45256 0.0
C342 C 0.20657 0.61159 0.57112 0.0
C343 C 0.13587 0.56815 0.51571 0.0
N344 N 0.16057 0.58542 0.57404 0.0
C345 C 0.229 0.62128 0.50887 0.0
C346 C 0.20402 0.60397 0.44926 0.0
C347 C 0.19367 0.65332 0.74356 0.0
C348 C 0.04185 0.61736 0.87287 0.0
C349 C 0.13353 0.65136 0.89204 0.0
C350 C 0.11419 0.67706 0.91167 0.0
C351 C 0.06801 0.65986 0.90198 0.0
N352 N 0.10768 0.60963 0.86372 0.0
C353 C 0.06239 0.59266 0.85381 0.0
C354 C 0.52659 0.24201 0.32337 0.0
C355 C 0.52815 0.22048 0.26327 0.0
H356 H 0.52376 0.29756 0.36772 0.0
C357 C 0.52248 0.23682 0.20071 0.0
H358 H 0.53047 0.23022 0.37265 0.0
C359 C 0.52003 0.27631 0.19796 0.0
C360 C 0.52208 0.29988 0.25776 0.0
H361 H 0.52296 0.22093 0.15348 0.0
H362 H 0.51908 0.28964 0.14847 0.0
C363 C 0.52285 0.28086 0.32067 0.0
C364 C 0.27745 0.52319 0.68589 0.0
C365 C 0.29824 0.5221 0.74703 0.0
H366 H 0.22494 0.53056 0.63895 0.0
C367 C 0.27618 0.51952 0.80866 0.0
H368 H 0.29296 0.52453 0.6375 0.0
C369 C 0.23658 0.52185 0.8096 0.0
C370 C 0.21843 0.52779 0.74897 0.0
H371 H 0.29084 0.5183 0.85689 0.0
H372 H 0.22202 0.52201 0.85827 0.0
C373 C 0.23829 0.52661 0.68688 0.0
C374 C 0.72618 0.25066 0.33219 0.0
C375 C 0.70074 0.23225 0.27276 0.0
H376 H 0.78544 0.30469 0.37672 0.0
C377 C 0.7201 0.25238 0.2098 0.0
H378 H 0.71264 0.23607 0.38147 0.0
C379 C 0.76283 0.29131 0.2068 0.0
C380 C 0.78649 0.31183 0.26681 0.0
H381 H 0.70161 0.2392 0.16276 0.0
H382 H 0.77584 0.30675 0.15785 0.0
C383 C 0.76828 0.29006 0.32928 0.0
C384 C 0.46515 0.75572 0.80996 0.0
C385 C 0.46328 0.77422 0.74664 0.0
H386 H 0.46286 0.70026 0.86377 0.0
C387 C 0.46033 0.7504 0.68727 0.0
H388 H 0.46694 0.77275 0.85699 0.0
C389 C 0.45666 0.70791 0.69146 0.0
C390 C 0.45707 0.68884 0.75504 0.0
H391 H 0.45852 0.76342 0.63783 0.0
H392 H 0.45206 0.68951 0.64475 0.0
C393 C 0.46258 0.71384 0.81407 0.0
C394 C 0.71477 0.46193 0.19229 0.0
C395 C 0.68875 0.45782 0.24951 0.0
H396 H 0.77456 0.46527 0.15435 0.0
C397 C 0.70665 0.45852 0.31464 0.0
H398 H 0.70206 0.46128 0.1415 0.0
C399 C 0.74891 0.46195 0.32227 0.0
C400 C 0.77384 0.46367 0.26494 0.0
H401 H 0.68749 0.45499 0.36008 0.0
H402 H 0.76092 0.46099 0.37297 0.0
C403 C 0.75658 0.46439 0.1999 0.0
C404 C 0.29068 0.76339 0.8111 0.0
C405 C 0.31159 0.7863 0.75103 0.0
H406 H 0.23886 0.70295 0.85575 0.0
C407 C 0.29032 0.76729 0.68836 0.0
H408 H 0.30568 0.777 0.86019 0.0
C409 C 0.25071 0.72513 0.68575 0.0
C410 C 0.23196 0.70057 0.74566 0.0
H411 H 0.30536 0.78403 0.64087 0.0
H412 H 0.23623 0.71086 0.63663 0.0
C413 C 0.25196 0.72072 0.80839 0.0
C414 C 0.40106 0.98532 0.99118 0.0
C415 C 0.42779 0.96826 0.96515 0.0
H416 H 0.39877 0.03433 0.05733 0.0
C417 C 0.47215 0.98609 0.9896 0.0
H418 H 0.36668 0.97213 0.97333 0.0
C419 C 0.48891 0.01849 0.04043 0.0
C420 C 0.46332 0.03704 0.065 0.0
H421 H 0.49411 0.97442 0.97055 0.0
H422 H 0.52274 0.0298 0.05906 0.0
C423 C 0.41923 0.02053 0.03942 0.0
C424 C 0.47739 0.46495 0.46983 0.0
C425 C 0.45183 0.42031 0.44671 0.0
H426 H 0.48352 0.51477 0.53955 0.0
C427 C 0.40819 0.39284 0.47336 0.0
H428 H 0.51071 0.48756 0.45 0.0
C429 C 0.39043 0.41044 0.52111 0.0
C430 C 0.41729 0.45464 0.54608 0.0
H431 H 0.38774 0.35821 0.45664 0.0
H432 H 0.35629 0.38933 0.53949 0.0
C433 C 0.46132 0.48101 0.52091 0.0
C434 C 0.02667 0.49261 0.99385 0.0
C435 C 0.04265 0.46608 0.96431 0.0
H436 H 0.98454 0.49794 0.06727 0.0
C437 C 0.02432 0.42102 0.98595 0.0
H438 H 0.03925 0.52715 0.9781 0.0
C439 C 0.98946 0.40276 0.03468 0.0
C440 C 0.97459 0.43016 0.06515 0.0
H441 H 0.03608 0.3998 0.96409 0.0
H442 H 0.97447 0.36757 0.04886 0.0
C443 C 0.99466 0.47554 0.04514 0.0
C444 C 0.58699 0.0367 0.5129 0.0
C445 C 0.59 0.02888 0.44346 0.0
H446 H 0.56535 0.00792 0.61178 0.0
C447 C 0.58018 0.98557 0.42306 0.0
H448 H 0.595 0.06979 0.5307 0.0
C449 C 0.56353 0.94994 0.47014 0.0
C450 C 0.55628 0.95708 0.53823 0.0
H451 H 0.58218 0.9784 0.37003 0.0
H452 H 0.55297 0.91626 0.45194 0.0
C453 C 0.57016 1.00122 0.55961 0.0
C454 C 0.56984 0.55018 0.9307 0.0
C455 C 0.54522 0.57251 0.93948 0.0
H456 H 0.60055 0.51595 0.97873 0.0
C457 C 0.53937 0.58394 1.00591 0.0
H458 H 0.57502 0.54086 0.88041 0.0
C459 C 0.55415 0.56979 0.06243 0.0
C460 C 0.57478 0.54356 0.05377 0.0
H461 H 0.52087 0.6015 0.01448 0.0
H462 H 0.54634 0.57655 0.11278 0.0
C463 C 0.5843 0.53571 0.98724 0.0
C464 C 0.00668 0.57633 0.55741 0.0
C465 C 0.05096 0.60687 0.53657 0.0
H466 H 0.9383 0.53177 0.52753 0.0
C467 C 0.05847 0.62078 0.46811 0.0
H468 H 0.99972 0.56517 0.60981 0.0
C469 C 0.02317 0.60106 0.42033 0.0
C470 C 0.97976 0.56729 0.44036 0.0
H471 H 0.09228 0.64409 0.45032 0.0
H472 H 0.03071 0.60985 0.36719 0.0
C473 C 0.97149 0.55701 0.51 0.0
loop_
_geom_bond_atom_site_label_1
_geom_bond_atom_site_label_2
_geom_bond_distance
_geom_bond_site_symmetry_2
_ccdc_geom_bond_type
Co0 O2 2.143 . S
Co0 O8 2.074 . S
Co0 O11 2.093 . S
Co0 O24 2.097 . S
Co0 N41 2.151 . S
Co0 N49 2.214 . S
Co1 O2 2.160 . S
Co1 O7 2.058 . S
Co1 O17 2.057 . S
Co1 O32 2.037 . S
Co1 N36 2.145 . S
Co1 N57 2.257 . S
O2 Co0 2.143 . S
O2 Co1 2.160 . S
C3 O4 1.278 . S
C3 O11 1.224 . S
O4 C3 1.278 . S
C5 O6 1.245 . S
C5 O17 1.232 . S
O6 C5 1.245 . S
O7 Co1 2.058 . S
O7 C33 1.269 . S
O8 Co0 2.074 . S
O8 C33 1.257 . S
H9 C34 0.930 . S
H10 C40 0.930 . S
O11 Co0 2.093 . S
O11 C3 1.224 . S
H12 C44 0.929 . S
H13 C46 0.930 . S
H14 C47 0.930 . S
H15 C45 0.929 . S
H16 C48 0.928 . S
O17 Co1 2.057 . S
O17 C5 1.232 . S
H18 C37 0.929 . S
H19 C38 0.929 . S
H20 C50 0.931 . S
H21 C42 0.929 . S
H22 C51 0.930 . S
H23 C43 0.931 . S
O24 Co0 2.097 . S
O24 C52 1.214 . S
H25 C53 0.929 . S
H26 C54 0.929 . S
H27 C55 0.930 . S
H28 C56 0.929 . S
H29 C58 0.930 . S
H30 C35 0.930 . S
H31 C39 0.930 . S
O32 Co1 2.037 . S
O32 C52 1.234 . S
C33 O7 1.269 . S
C33 O8 1.257 . S
C34 H9 0.930 . S
C34 C37 1.388 . S
C34 C39 1.418 . S
C35 H30 0.930 . S
C35 C38 1.404 . S
C35 C39 1.353 . S
N36 Co1 2.145 . S
N36 C37 1.397 . S
N36 C38 1.334 . S
C37 H18 0.929 . S
C37 C34 1.388 . S
C37 N36 1.397 . S
C38 H19 0.929 . S
C38 C35 1.404 . S
C38 N36 1.334 . S
C39 H31 0.930 . S
C39 C34 1.418 . S
C39 C35 1.353 . S
C40 H10 0.930 . S
C40 N41 1.330 . S
C40 C42 1.446 . S
N41 Co0 2.151 . S
N41 C40 1.330 . S
N41 C45 1.418 . S
C42 H21 0.929 . S
C42 C40 1.446 . S
C42 C43 1.332 . S
C43 H23 0.931 . S
C43 C42 1.332 . S
C43 C44 1.267 . S
C44 H12 0.929 . S
C44 C43 1.267 . S
C44 C45 1.251 . S
C45 H15 0.929 . S
C45 N41 1.418 . S
C45 C44 1.251 . S
C46 H13 0.930 . S
C46 C48 1.406 1_556 S
C46 C51 1.261 . S
C47 H14 0.930 . S
C47 N49 1.325 . S
C47 C50 1.357 . S
C48 H16 0.928 . S
C48 C46 1.406 1_554 S
C48 N49 1.261 . S
N49 Co0 2.214 . S
N49 C47 1.325 . S
N49 C48 1.261 . S
C50 H20 0.931 . S
C50 C47 1.357 . S
C50 C51 1.312 1_554 S
C51 H22 0.930 . S
C51 C46 1.261 . S
C51 C50 1.312 1_556 S
C52 O24 1.214 . S
C52 O32 1.234 . S
C53 H25 0.929 . S
C53 C56 1.391 . S
C53 C58 1.391 . S
C54 H26 0.929 . S
C54 C55 1.390 . S
C54 N57 1.391 . S
C55 H27 0.930 . S
C55 C54 1.390 . S
C55 C56 1.392 . S
C56 H28 0.929 . S
C56 C53 1.391 . S
C56 C55 1.392 . S
N57 Co1 2.257 . S
N57 C54 1.391 . S
N57 C58 1.388 . S
C58 H29 0.930 . S
C58 C53 1.391 . S
C58 N57 1.388 . S
Co59 O61 2.143 . S
Co59 O67 2.074 . S
Co59 O70 2.093 . S
Co59 O83 2.097 . S
Co59 N100 2.151 . S
Co59 N108 2.214 . S
Co60 O61 2.160 . S
Co60 O66 2.058 . S
Co60 O76 2.057 . S
Co60 O91 2.037 . S
Co60 N95 2.145 . S
Co60 N116 2.257 . S
O61 Co59 2.143 . S
O61 Co60 2.160 . S
C62 O63 1.278 . S
C62 O70 1.224 . S
O63 C62 1.278 . S
C64 O65 1.245 . S
C64 O76 1.232 . S
O65 C64 1.245 . S
O66 Co60 2.058 . S
O66 C92 1.269 . S
O67 Co59 2.074 . S
O67 C92 1.257 . S
H68 C93 0.930 . S
H69 C99 0.930 . S
O70 Co59 2.093 . S
O70 C62 1.224 . S
H71 C103 0.929 . S
H72 C105 0.930 . S
H73 C106 0.930 . S
H74 C104 0.929 . S
H75 C107 0.928 . S
O76 Co60 2.057 . S
O76 C64 1.232 . S
H77 C96 0.929 . S
H78 C97 0.929 . S
H79 C109 0.931 . S
H80 C101 0.929 . S
H81 C110 0.930 . S
H82 C102 0.931 . S
O83 Co59 2.097 . S
O83 C111 1.214 . S
H84 C112 0.929 . S
H85 C113 0.929 . S
H86 C114 0.930 . S
H87 C115 0.929 . S
H88 C117 0.930 . S
H89 C94 0.930 . S
H90 C98 0.930 . S
O91 Co60 2.037 . S
O91 C111 1.234 . S
C92 O66 1.269 . S
C92 O67 1.257 . S
C93 H68 0.930 . S
C93 C96 1.388 . S
C93 C98 1.418 1_556 S
C94 H89 0.930 . S
C94 C97 1.404 1_554 S
C94 C98 1.353 . S
N95 Co60 2.145 . S
N95 C96 1.397 . S
N95 C97 1.334 . S
C96 H77 0.929 . S
C96 C93 1.388 . S
C96 N95 1.397 . S
C97 H78 0.929 . S
C97 C94 1.404 1_556 S
C97 N95 1.334 . S
C98 H90 0.930 . S
C98 C93 1.418 1_554 S
C98 C94 1.353 . S
C99 H69 0.930 . S
C99 N100 1.330 . S
C99 C101 1.446 . S
N100 Co59 2.151 . S
N100 C99 1.330 . S
N100 C104 1.418 . S
C101 H80 0.929 . S
C101 C99 1.446 . S
C101 C102 1.332 . S
C102 H82 0.931 . S
C102 C101 1.332 . S
C102 C103 1.267 . S
C103 H71 0.929 . S
C103 C102 1.267 . S
C103 C104 1.251 . S
C104 H74 0.929 . S
C104 N100 1.418 . S
C104 C103 1.251 . S
C105 H72 0.930 . S
C105 C107 1.406 . S
C105 C110 1.261 . S
C106 H73 0.930 . S
C106 N108 1.325 . S
C106 C109 1.357 . S
C107 H75 0.928 . S
C107 C105 1.406 . S
C107 N108 1.261 . S
N108 Co59 2.214 . S
N108 C106 1.325 . S
N108 C107 1.261 . S
C109 H79 0.931 . S
C109 C106 1.357 . S
C109 C110 1.312 . S
C110 H81 0.930 . S
C110 C105 1.261 . S
C110 C109 1.312 . S
C111 O83 1.214 . S
C111 O91 1.234 . S
C112 H84 0.929 . S
C112 C115 1.391 . S
C112 C117 1.391 . S
C113 H85 0.929 . S
C113 C114 1.390 . S
C113 N116 1.391 . S
C114 H86 0.930 . S
C114 C113 1.390 . S
C114 C115 1.392 . S
C115 H87 0.929 . S
C115 C112 1.391 . S
C115 C114 1.392 . S
N116 Co60 2.257 . S
N116 C113 1.391 . S
N116 C117 1.388 . S
C117 H88 0.930 . S
C117 C112 1.391 . S
C117 N116 1.388 . S
Co118 O120 2.143 . S
Co118 O126 2.074 . S
Co118 O129 2.093 . S
Co118 O142 2.097 . S
Co118 N159 2.151 . S
Co118 N167 2.214 . S
Co119 O120 2.160 . S
Co119 O125 2.058 . S
Co119 O135 2.057 . S
Co119 O150 2.037 . S
Co119 N154 2.145 . S
Co119 N175 2.257 . S
O120 Co118 2.143 . S
O120 Co119 2.160 . S
C121 O122 1.278 . S
C121 O129 1.224 . S
O122 C121 1.278 . S
C123 O124 1.245 . S
C123 O135 1.232 . S
O124 C123 1.245 . S
O125 Co119 2.058 . S
O125 C151 1.269 . S
O126 Co118 2.074 . S
O126 C151 1.257 . S
H127 C152 0.930 . S
H128 C158 0.930 . S
O129 Co118 2.093 . S
O129 C121 1.224 . S
H130 C162 0.929 . S
H131 C164 0.930 . S
H132 C165 0.930 . S
H133 C163 0.929 . S
H134 C166 0.928 . S
O135 Co119 2.057 . S
O135 C123 1.232 . S
H136 C155 0.929 . S
H137 C156 0.929 . S
H138 C168 0.931 . S
H139 C160 0.929 . S
H140 C169 0.930 . S
H141 C161 0.931 . S
O142 Co118 2.097 . S
O142 C170 1.214 . S
H143 C171 0.929 . S
H144 C172 0.929 . S
H145 C173 0.930 . S
H146 C174 0.929 . S
H147 C176 0.930 . S
H148 C153 0.930 . S
H149 C157 0.930 . S
O150 Co119 2.037 . S
O150 C170 1.234 . S
C151 O125 1.269 . S
C151 O126 1.257 . S
C152 H127 0.930 . S
C152 C155 1.388 . S
C152 C157 1.418 1_554 S
C153 H148 0.930 . S
C153 C156 1.404 1_556 S
C153 C157 1.353 . S
N154 Co119 2.145 . S
N154 C155 1.397 . S
N154 C156 1.334 . S
C155 H136 0.929 . S
C155 C152 1.388 . S
C155 N154 1.397 . S
C156 H137 0.929 . S
C156 C153 1.404 1_554 S
C156 N154 1.334 . S
C157 H149 0.930 . S
C157 C152 1.418 1_556 S
C157 C153 1.353 . S
C158 H128 0.930 . S
C158 N159 1.330 . S
C158 C160 1.446 . S
N159 Co118 2.151 . S
N159 C158 1.330 . S
N159 C163 1.418 . S
C160 H139 0.929 . S
C160 C158 1.446 . S
C160 C161 1.332 . S
C161 H141 0.931 . S
C161 C160 1.332 . S
C161 C162 1.267 . S
C162 H130 0.929 . S
C162 C161 1.267 . S
C162 C163 1.251 . S
C163 H133 0.929 . S
C163 N159 1.418 . S
C163 C162 1.251 . S
C164 H131 0.930 . S
C164 C166 1.406 . S
C164 C169 1.261 . S
C165 H132 0.930 . S
C165 N167 1.325 . S
C165 C168 1.357 . S
C166 H134 0.928 . S
C166 C164 1.406 . S
C166 N167 1.261 . S
N167 Co118 2.214 . S
N167 C165 1.325 . S
N167 C166 1.261 . S
C168 H138 0.931 . S
C168 C165 1.357 . S
C168 C169 1.312 . S
C169 H140 0.930 . S
C169 C164 1.261 . S
C169 C168 1.312 . S
C170 O142 1.214 . S
C170 O150 1.234 . S
C171 H143 0.929 . S
C171 C174 1.391 . S
C171 C176 1.391 . S
C172 H144 0.929 . S
C172 C173 1.390 . S
C172 N175 1.391 . S
C173 H145 0.930 . S
C173 C172 1.390 . S
C173 C174 1.392 . S
C174 H146 0.929 . S
C174 C171 1.391 . S
C174 C173 1.392 . S
N175 Co119 2.257 . S
N175 C172 1.391 . S
N175 C176 1.388 . S
C176 H147 0.930 . S
C176 C171 1.391 . S
C176 N175 1.388 . S
Co177 O179 2.143 . S
Co177 O185 2.074 . S
Co177 O188 2.093 . S
Co177 O201 2.097 . S
Co177 N218 2.151 . S
Co177 N226 2.214 . S
Co178 O179 2.160 . S
Co178 O184 2.058 . S
Co178 O194 2.057 . S
Co178 O209 2.037 . S
Co178 N213 2.145 . S
Co178 N234 2.257 . S
O179 Co177 2.143 . S
O179 Co178 2.160 . S
C180 O181 1.278 . S
C180 O188 1.224 . S
O181 C180 1.278 . S
C182 O183 1.245 . S
C182 O194 1.232 . S
O183 C182 1.245 . S
O184 Co178 2.058 . S
O184 C210 1.269 . S
O185 Co177 2.074 . S
O185 C210 1.257 . S
H186 C211 0.930 . S
H187 C217 0.930 . S
O188 Co177 2.093 . S
O188 C180 1.224 . S
H189 C221 0.929 . S
H190 C223 0.930 . S
H191 C224 0.930 . S
H192 C222 0.929 . S
H193 C225 0.928 . S
O194 Co178 2.057 . S
O194 C182 1.232 . S
H195 C214 0.929 . S
H196 C215 0.929 . S
H197 C227 0.931 . S
H198 C219 0.929 . S
H199 C228 0.930 . S
H200 C220 0.931 . S
O201 Co177 2.097 . S
O201 C229 1.214 . S
H202 C230 0.929 . S
H203 C231 0.929 . S
H204 C232 0.930 . S
H205 C233 0.929 . S
H206 C235 0.930 . S
H207 C212 0.930 . S
H208 C216 0.930 . S
O209 Co178 2.037 . S
O209 C229 1.234 . S
C210 O184 1.269 . S
C210 O185 1.257 . S
C211 H186 0.930 . S
C211 C214 1.388 . S
C211 C216 1.418 . S
C212 H207 0.930 . S
C212 C215 1.404 . S
C212 C216 1.353 . S
N213 Co178 2.145 . S
N213 C214 1.397 . S
N213 C215 1.334 . S
C214 H195 0.929 . S
C214 C211 1.388 . S
C214 N213 1.397 . S
C215 H196 0.929 . S
C215 C212 1.404 . S
C215 N213 1.334 . S
C216 H208 0.930 . S
C216 C211 1.418 . S
C216 C212 1.353 . S
C217 H187 0.930 . S
C217 N218 1.330 . S
C217 C219 1.446 . S
N218 Co177 2.151 . S
N218 C217 1.330 . S
N218 C222 1.418 . S
C219 H198 0.929 . S
C219 C217 1.446 . S
C219 C220 1.332 . S
C220 H200 0.931 . S
C220 C219 1.332 . S
C220 C221 1.267 . S
C221 H189 0.929 . S
C221 C220 1.267 . S
C221 C222 1.251 . S
C222 H192 0.929 . S
C222 N218 1.418 . S
C222 C221 1.251 . S
C223 H190 0.930 . S
C223 C225 1.406 1_554 S
C223 C228 1.261 . S
C224 H191 0.930 . S
C224 N226 1.325 . S
C224 C227 1.357 . S
C225 H193 0.928 . S
C225 C223 1.406 1_556 S
C225 N226 1.261 . S
N226 Co177 2.214 . S
N226 C224 1.325 . S
N226 C225 1.261 . S
C227 H197 0.931 . S
C227 C224 1.357 . S
C227 C228 1.312 1_556 S
C228 H199 0.930 . S
C228 C223 1.261 . S
C228 C227 1.312 1_554 S
C229 O201 1.214 . S
C229 O209 1.234 . S
C230 H202 0.929 . S
C230 C233 1.391 . S
C230 C235 1.391 . S
C231 H203 0.929 . S
C231 C232 1.390 . S
C231 N234 1.391 . S
C232 H204 0.930 . S
C232 C231 1.390 . S
C232 C233 1.392 . S
C233 H205 0.929 . S
C233 C230 1.391 . S
C233 C232 1.392 . S
N234 Co178 2.257 . S
N234 C231 1.391 . S
N234 C235 1.388 . S
C235 H206 0.930 . S
C235 C230 1.391 . S
C235 N234 1.388 . S
Co236 O238 2.143 . S
Co236 O244 2.074 . S
Co236 O247 2.093 . S
Co236 O260 2.097 . S
Co236 N277 2.151 . S
Co236 N285 2.214 . S
Co237 O238 2.160 . S
Co237 O243 2.058 . S
Co237 O253 2.057 . S
Co237 O268 2.037 . S
Co237 N272 2.145 . S
Co237 N293 2.257 . S
O238 Co236 2.143 . S
O238 Co237 2.160 . S
C239 O240 1.278 . S
C239 O247 1.224 . S
O240 C239 1.278 . S
C241 O242 1.245 . S
C241 O253 1.232 . S
O242 C241 1.245 . S
O243 Co237 2.058 . S
O243 C269 1.269 . S
O244 Co236 2.074 . S
O244 C269 1.257 . S
H245 C270 0.930 . S
H246 C276 0.930 . S
O247 Co236 2.093 . S
O247 C239 1.224 . S
H248 C280 0.929 . S
H249 C282 0.930 . S
H250 C283 0.930 . S
H251 C281 0.929 . S
H252 C284 0.928 . S
O253 Co237 2.057 . S
O253 C241 1.232 . S
H254 C273 0.929 . S
H255 C274 0.929 . S
H256 C286 0.931 . S
H257 C278 0.929 . S
H258 C287 0.930 . S
H259 C279 0.931 . S
O260 Co236 2.097 . S
O260 C288 1.214 . S
H261 C289 0.929 . S
H262 C290 0.929 . S
H263 C291 0.930 . S
H264 C292 0.929 . S
H265 C294 0.930 . S
H266 C271 0.930 . S
H267 C275 0.930 . S
O268 Co237 2.037 . S
O268 C288 1.234 . S
C269 O243 1.269 . S
C269 O244 1.257 . S
C270 H245 0.930 . S
C270 C273 1.388 . S
C270 C275 1.418 . S
C271 H266 0.930 . S
C271 C274 1.404 . S
C271 C275 1.353 . S
N272 Co237 2.145 . S
N272 C273 1.397 . S
N272 C274 1.334 . S
C273 H254 0.929 . S
C273 C270 1.388 . S
C273 N272 1.397 . S
C274 H255 0.929 . S
C274 C271 1.404 . S
C274 N272 1.334 . S
C275 H267 0.930 . S
C275 C270 1.418 . S
C275 C271 1.353 . S
C276 H246 0.930 . S
C276 N277 1.330 . S
C276 C278 1.446 . S
N277 Co236 2.151 . S
N277 C276 1.330 . S
N277 C281 1.418 . S
C278 H257 0.929 . S
C278 C276 1.446 . S
C278 C279 1.332 . S
C279 H259 0.931 . S
C279 C278 1.332 . S
C279 C280 1.267 . S
C280 H248 0.929 . S
C280 C279 1.267 . S
C280 C281 1.251 . S
C281 H251 0.929 . S
C281 N277 1.418 . S
C281 C280 1.251 . S
C282 H249 0.930 . S
C282 C284 1.406 1_556 S
C282 C287 1.261 . S
C283 H250 0.930 . S
C283 N285 1.325 . S
C283 C286 1.357 . S
C284 H252 0.928 . S
C284 C282 1.406 1_554 S
C284 N285 1.261 . S
N285 Co236 2.214 . S
N285 C283 1.325 . S
N285 C284 1.261 . S
C286 H256 0.931 . S
C286 C283 1.357 . S
C286 C287 1.312 1_554 S
C287 H258 0.930 . S
C287 C282 1.261 . S
C287 C286 1.312 1_556 S
C288 O260 1.214 . S
C288 O268 1.234 . S
C289 H261 0.929 . S
C289 C292 1.391 . S
C289 C294 1.391 . S
C290 H262 0.929 . S
C290 C291 1.390 . S
C290 N293 1.391 . S
C291 H263 0.930 . S
C291 C290 1.390 . S
C291 C292 1.392 . S
C292 H264 0.929 . S
C292 C289 1.391 . S
C292 C291 1.392 . S
N293 Co237 2.257 . S
N293 C290 1.391 . S
N293 C294 1.388 . S
C294 H265 0.930 . S
C294 C289 1.391 . S
C294 N293 1.388 . S
Co295 O297 2.143 . S
Co295 O303 2.074 . S
Co295 O306 2.093 . S
Co295 O319 2.097 . S
Co295 N336 2.151 . S
Co295 N344 2.214 . S
Co296 O297 2.160 . S
Co296 O302 2.058 . S
Co296 O312 2.057 . S
Co296 O327 2.037 . S
Co296 N331 2.145 . S
Co296 N352 2.257 . S
O297 Co295 2.143 . S
O297 Co296 2.160 . S
C298 O299 1.278 . S
C298 O306 1.224 . S
O299 C298 1.278 . S
C300 O301 1.245 . S
C300 O312 1.232 . S
O301 C300 1.245 . S
O302 Co296 2.058 . S
O302 C328 1.269 . S
O303 Co295 2.074 . S
O303 C328 1.257 . S
H304 C329 0.930 . S
H305 C335 0.930 . S
O306 Co295 2.093 . S
O306 C298 1.224 . S
H307 C339 0.929 . S
H308 C341 0.930 . S
H309 C342 0.930 . S
H310 C340 0.929 . S
H311 C343 0.928 . S
O312 Co296 2.057 . S
O312 C300 1.232 . S
H313 C332 0.929 . S
H314 C333 0.929 . S
H315 C345 0.931 . S
H316 C337 0.929 . S
H317 C346 0.930 . S
H318 C338 0.931 . S
O319 Co295 2.097 . S
O319 C347 1.214 . S
H320 C348 0.929 . S
H321 C349 0.929 . S
H322 C350 0.930 . S
H323 C351 0.929 . S
H324 C353 0.930 . S
H325 C330 0.930 . S
H326 C334 0.930 . S
O327 Co296 2.037 . S
O327 C347 1.234 . S
C328 O302 1.269 . S
C328 O303 1.257 . S
C329 H304 0.930 . S
C329 C332 1.388 . S
C329 C334 1.418 1_556 S
C330 H325 0.930 . S
C330 C333 1.404 1_554 S
C330 C334 1.353 . S
N331 Co296 2.145 . S
N331 C332 1.397 . S
N331 C333 1.334 . S
C332 H313 0.929 . S
C332 C329 1.388 . S
C332 N331 1.397 . S
C333 H314 0.929 . S
C333 C330 1.404 1_556 S
C333 N331 1.334 . S
C334 H326 0.930 . S
C334 C329 1.418 1_554 S
C334 C330 1.353 . S
C335 H305 0.930 . S
C335 N336 1.330 . S
C335 C337 1.446 . S
N336 Co295 2.151 . S
N336 C335 1.330 . S
N336 C340 1.418 . S
C337 H316 0.929 . S
C337 C335 1.446 . S
C337 C338 1.332 . S
C338 H318 0.931 . S
C338 C337 1.332 . S
C338 C339 1.267 . S
C339 H307 0.929 . S
C339 C338 1.267 . S
C339 C340 1.251 . S
C340 H310 0.929 . S
C340 N336 1.418 . S
C340 C339 1.251 . S
C341 H308 0.930 . S
C341 C343 1.406 . S
C341 C346 1.261 . S
C342 H309 0.930 . S
C342 N344 1.325 . S
C342 C345 1.357 . S
C343 H311 0.928 . S
C343 C341 1.406 . S
C343 N344 1.261 . S
N344 Co295 2.214 . S
N344 C342 1.325 . S
N344 C343 1.261 . S
C345 H315 0.931 . S
C345 C342 1.357 . S
C345 C346 1.312 . S
C346 H317 0.930 . S
C346 C341 1.261 . S
C346 C345 1.312 . S
C347 O319 1.214 . S
C347 O327 1.234 . S
C348 H320 0.929 . S
C348 C351 1.391 . S
C348 C353 1.391 . S
C349 H321 0.929 . S
C349 C350 1.390 . S
C349 N352 1.391 . S
C350 H322 0.930 . S
C350 C349 1.390 . S
C350 C351 1.392 . S
C351 H323 0.929 . S
C351 C348 1.391 . S
C351 C350 1.392 . S
N352 Co296 2.257 . S
N352 C349 1.391 . S
N352 C353 1.388 . S
C353 H324 0.930 . S
C353 C348 1.391 . S
C353 N352 1.388 . S
C354 C355 1.387 . S
C354 H358 0.950 . S
C354 C363 1.390 . S
C355 C354 1.387 . S
C355 C357 1.387 . S
H356 C363 0.950 . S
C357 C355 1.387 . S
C357 C359 1.390 . S
C357 H361 0.950 . S
H358 C354 0.950 . S
C359 C357 1.390 . S
C359 C360 1.387 . S
C359 H362 0.950 . S
C360 C359 1.387 . S
C360 C363 1.387 . S
H361 C357 0.950 . S
H362 C359 0.950 . S
C363 C354 1.390 . S
C363 H356 0.950 . S
C363 C360 1.387 . S
C364 C365 1.387 . S
C364 H368 0.950 . S
C364 C373 1.390 . S
C365 C364 1.387 . S
C365 C367 1.387 . S
H366 C373 0.950 . S
C367 C365 1.387 . S
C367 C369 1.390 . S
C367 H371 0.950 . S
H368 C364 0.950 . S
C369 C367 1.390 . S
C369 C370 1.387 . S
C369 H372 0.950 . S
C370 C369 1.387 . S
C370 C373 1.387 . S
H371 C367 0.950 . S
H372 C369 0.950 . S
C373 C364 1.390 . S
C373 H366 0.950 . S
C373 C370 1.387 . S
C374 C375 1.387 . S
C374 H378 0.950 . S
C374 C383 1.390 . S
C375 C374 1.387 . S
C375 C377 1.387 . S
H376 C383 0.950 . S
C377 C375 1.387 . S
C377 C379 1.390 . S
C377 H381 0.950 . S
H378 C374 0.950 . S
C379 C377 1.390 . S
C379 C380 1.387 . S
C379 H382 0.950 . S
C380 C379 1.387 . S
C380 C383 1.387 . S
H381 C377 0.950 . S
H382 C379 0.950 . S
C383 C374 1.390 . S
C383 H376 0.950 . S
C383 C380 1.387 . S
C384 C385 1.387 . S
C384 H388 0.950 . S
C384 C393 1.390 . S
C385 C384 1.387 . S
C385 C387 1.387 . S
H386 C393 0.950 . S
C387 C385 1.387 . S
C387 C389 1.390 . S
C387 H391 0.950 . S
H388 C384 0.950 . S
C389 C387 1.390 . S
C389 C390 1.387 . S
C389 H392 0.950 . S
C390 C389 1.387 . S
C390 C393 1.387 . S
H391 C387 0.950 . S
H392 C389 0.950 . S
C393 C384 1.390 . S
C393 H386 0.950 . S
C393 C390 1.387 . S
C394 C395 1.387 . S
C394 H398 0.950 . S
C394 C403 1.390 . S
C395 C394 1.387 . S
C395 C397 1.387 . S
H396 C403 0.950 . S
C397 C395 1.387 . S
C397 C399 1.390 . S
C397 H401 0.950 . S
H398 C394 0.950 . S
C399 C397 1.390 . S
C399 C400 1.387 . S
C399 H402 0.950 . S
C400 C399 1.387 . S
C400 C403 1.387 . S
H401 C397 0.950 . S
H402 C399 0.950 . S
C403 C394 1.390 . S
C403 H396 0.950 . S
C403 C400 1.387 . S
C404 C405 1.387 . S
C404 H408 0.950 . S
C404 C413 1.390 . S
C405 C404 1.387 . S
C405 C407 1.387 . S
H406 C413 0.950 . S
C407 C405 1.387 . S
C407 C409 1.390 . S
C407 H411 0.950 . S
H408 C404 0.950 . S
C409 C407 1.390 . S
C409 C410 1.387 . S
C409 H412 0.950 . S
C410 C409 1.387 . S
C410 C413 1.387 . S
H411 C407 0.950 . S
H412 C409 0.950 . S
C413 C404 1.390 . S
C413 H406 0.950 . S
C413 C410 1.387 . S
C414 C415 1.387 . S
C414 H418 0.950 . S
C414 C423 1.390 1_566 S
C415 C414 1.387 . S
C415 C417 1.387 . S
H416 C423 0.950 . S
C417 C415 1.387 . S
C417 C419 1.390 1_566 S
C417 H421 0.950 . S
H418 C414 0.950 . S
C419 C417 1.390 1_544 S
C419 C420 1.387 . S
C419 H422 0.950 . S
C420 C419 1.387 . S
C420 C423 1.387 . S
H421 C417 0.950 . S
H422 C419 0.950 . S
C423 C414 1.390 1_544 S
C423 H416 0.950 . S
C423 C420 1.387 . S
C424 C425 1.387 . S
C424 H428 0.950 . S
C424 C433 1.390 . S
C425 C424 1.387 . S
C425 C427 1.387 . S
H426 C433 0.950 . S
C427 C425 1.387 . S
C427 C429 1.390 . S
C427 H431 0.950 . S
H428 C424 0.950 . S
C429 C427 1.390 . S
C429 C430 1.387 . S
C429 H432 0.950 . S
C430 C429 1.387 . S
C430 C433 1.387 . S
H431 C427 0.950 . S
H432 C429 0.950 . S
C433 C424 1.390 . S
C433 H426 0.950 . S
C433 C430 1.387 . S
C434 C435 1.387 . S
C434 H438 0.950 . S
C434 C443 1.390 1_456 S
C435 C434 1.387 . S
C435 C437 1.387 . S
H436 C443 0.950 . S
C437 C435 1.387 . S
C437 C439 1.390 1_456 S
C437 H441 0.950 . S
H438 C434 0.950 . S
C439 C437 1.390 1_654 S
C439 C440 1.387 . S
C439 H442 0.950 . S
C440 C439 1.387 . S
C440 C443 1.387 . S
H441 C437 0.950 . S
H442 C439 0.950 . S
C443 C434 1.390 1_654 S
C443 H436 0.950 . S
C443 C440 1.387 . S
C444 C445 1.387 . S
C444 H448 0.950 . S
C444 C453 1.390 1_545 S
C445 C444 1.387 . S
C445 C447 1.387 . S
H446 C453 0.950 . S
C447 C445 1.387 . S
C447 C449 1.390 1_545 S
C447 H451 0.950 . S
H448 C444 0.950 . S
C449 C447 1.390 1_565 S
C449 C450 1.387 . S
C449 H452 0.950 . S
C450 C449 1.387 . S
C450 C453 1.387 . S
H451 C447 0.950 . S
H452 C449 0.950 . S
C453 C444 1.390 1_565 S
C453 H446 0.950 . S
C453 C450 1.387 . S
C454 C455 1.387 . S
C454 H458 0.950 . S
C454 C463 1.390 . S
C455 C454 1.387 . S
C455 C457 1.387 1_556 S
H456 C463 0.950 . S
C457 C455 1.387 1_554 S
C457 C459 1.390 . S
C457 H461 0.950 . S
H458 C454 0.950 . S
C459 C457 1.390 . S
C459 C460 1.387 . S
C459 H462 0.950 . S
C460 C459 1.387 . S
C460 C463 1.387 1_554 S
H461 C457 0.950 . S
H462 C459 0.950 . S
C463 C454 1.390 . S
C463 H456 0.950 . S
C463 C460 1.387 1_556 S
C464 C465 1.387 1_655 S
C464 H468 0.950 . S
C464 C473 1.390 . S
C465 C464 1.387 1_455 S
C465 C467 1.387 . S
H466 C473 0.950 . S
C467 C465 1.387 . S
C467 C469 1.390 . S
C467 H471 0.950 . S
H468 C464 0.950 . S
C469 C467 1.390 . S
C469 C470 1.387 1_455 S
C469 H472 0.950 . S
C470 C469 1.387 1_655 S
C470 C473 1.387 . S
H471 C467 0.950 . S
H472 C469 0.950 . S
C473 C464 1.390 . S
C473 H466 0.950 . S
C473 C470 1.387 . S
C355 C52 1.466 . S
C360 C269 1.455 . S
C365 C111 1.463 . S
C370 C328 1.453 . S
C375 C33 1.454 . S
C380 C151 1.455 . S
C385 C210 1.456 . S
C390 C92 1.454 . S
C395 C288 1.466 . S
C400 C170 1.466 . S
C405 C229 1.464 . S
C410 C347 1.465 . S
C415 C180 1.505 . S
C420 C3 1.505 . S
C425 C241 1.515 . S
C430 C62 1.504 . S
C435 C300 1.515 . S
C440 C123 1.515 . S
C445 C5 1.515 . S
C450 C182 1.515 . S
C455 C64 1.515 . S
C460 C239 1.504 . S
C465 C298 1.503 . S
C470 C121 1.503 . S
