# Generated by pormake.
# Topology zfj, (5)-cn, num edge types: 1
# Building blocks:
#     Node 0, Type 0, BuildingBlock: XOMCOT_clean_sbu_1, # of connection points: 5
#     Node 1, Type 0, BuildingBlock: XOMCOT_clean_sbu_1, # of connection points: 5
#     Node 2, Type 0, BuildingBlock: XOMCOT_clean_sbu_1, # of connection points: 5
#     Node 3, Type 0, BuildingBlock: XOMCOT_clean_sbu_1, # of connection points: 5
#     Node 4, Type 0, BuildingBlock: XOMCOT_clean_sbu_1, # of connection points: 5
#     Node 5, Type 0, BuildingBlock: XOMCOT_clean_sbu_1, # of connection points: 5
#     Node 6, Type 0, BuildingBlock: XOMCOT_clean_sbu_1, # of connection points: 5
#     Node 7, Type 0, BuildingBlock: XOMCOT_clean_sbu_1, # of connection points: 5
#     Node 8, Type 0, BuildingBlock: XOMCOT_clean_sbu_1, # of connection points: 5
#     Node 9, Type 0, BuildingBlock: XOMCOT_clean_sbu_1, # of connection points: 5
#     Node 10, Type 0, BuildingBlock: XOMCOT_clean_sbu_1, # of connection points: 5
#     Node 11, Type 0, BuildingBlock: XOMCOT_clean_sbu_1, # of connection points: 5
#     Node 12, Type 0, BuildingBlock: XOMCOT_clean_sbu_1, # of connection points: 5
#     Node 13, Type 0, BuildingBlock: XOMCOT_clean_sbu_1, # of connection points: 5
#     Node 14, Type 0, BuildingBlock: XOMCOT_clean_sbu_1, # of connection points: 5
#     Node 15, Type 0, BuildingBlock: XOMCOT_clean_sbu_1, # of connection points: 5
#     Edge 16, Type (0, 0), BuildingBlock: XUDNAN_clean_linker_2, # of connection points: 2
#     Edge 17, Type (0, 0), BuildingBlock: XUDNAN_clean_linker_2, # of connection points: 2
#     Edge 18, Type (0, 0), BuildingBlock: XUDNAN_clean_linker_2, # of connection points: 2
#     Edge 19, Type (0, 0), BuildingBlock: XUDNAN_clean_linker_2, # of connection points: 2
#     Edge 20, Type (0, 0), BuildingBlock: XUDNAN_clean_linker_2, # of connection points: 2
#     Edge 21, Type (0, 0), BuildingBlock: XUDNAN_clean_linker_2, # of connection points: 2
#     Edge 22, Type (0, 0), BuildingBlock: XUDNAN_clean_linker_2, # of connection points: 2
#     Edge 23, Type (0, 0), BuildingBlock: XUDNAN_clean_linker_2, # of connection points: 2
#     Edge 24, Type (0, 0), BuildingBlock: XUDNAN_clean_linker_2, # of connection points: 2
#     Edge 25, Type (0, 0), BuildingBlock: XUDNAN_clean_linker_2, # of connection points: 2
#     Edge 26, Type (0, 0), BuildingBlock: XUDNAN_clean_linker_2, # of connection points: 2
#     Edge 27, Type (0, 0), BuildingBlock: XUDNAN_clean_linker_2, # of connection points: 2
#     Edge 28, Type (0, 0), BuildingBlock: XUDNAN_clean_linker_2, # of connection points: 2
#     Edge 29, Type (0, 0), BuildingBlock: XUDNAN_clean_linker_2, # of connection points: 2
#     Edge 30, Type (0, 0), BuildingBlock: XUDNAN_clean_linker_2, # of connection points: 2
#     Edge 31, Type (0, 0), BuildingBlock: XUDNAN_clean_linker_2, # of connection points: 2
#     Edge 32, Type (0, 0), BuildingBlock: XUDNAN_clean_linker_2, # of connection points: 2
#     Edge 33, Type (0, 0), BuildingBlock: XUDNAN_clean_linker_2, # of connection points: 2
#     Edge 34, Type (0, 0), BuildingBlock: XUDNAN_clean_linker_2, # of connection points: 2
#     Edge 35, Type (0, 0), BuildingBlock: XUDNAN_clean_linker_2, # of connection points: 2
#     Edge 36, Type (0, 0), BuildingBlock: XUDNAN_clean_linker_2, # of connection points: 2
#     Edge 37, Type (0, 0), BuildingBlock: XUDNAN_clean_linker_2, # of connection points: 2
#     Edge 38, Type (0, 0), BuildingBlock: XUDNAN_clean_linker_2, # of connection points: 2
#     Edge 39, Type (0, 0), BuildingBlock: XUDNAN_clean_linker_2, # of connection points: 2
#     Edge 40, Type (0, 0), BuildingBlock: XUDNAN_clean_linker_2, # of connection points: 2
#     Edge 41, Type (0, 0), BuildingBlock: XUDNAN_clean_linker_2, # of connection points: 2
#     Edge 42, Type (0, 0), BuildingBlock: XUDNAN_clean_linker_2, # of connection points: 2
#     Edge 43, Type (0, 0), BuildingBlock: XUDNAN_clean_linker_2, # of connection points: 2
#     Edge 44, Type (0, 0), BuildingBlock: XUDNAN_clean_linker_2, # of connection points: 2
#     Edge 45, Type (0, 0), BuildingBlock: XUDNAN_clean_linker_2, # of connection points: 2
#     Edge 46, Type (0, 0), BuildingBlock: XUDNAN_clean_linker_2, # of connection points: 2
#     Edge 47, Type (0, 0), BuildingBlock: XUDNAN_clean_linker_2, # of connection points: 2
#     Edge 48, Type (0, 0), BuildingBlock: XUDNAN_clean_linker_2, # of connection points: 2
#     Edge 49, Type (0, 0), BuildingBlock: XUDNAN_clean_linker_2, # of connection points: 2
#     Edge 50, Type (0, 0), BuildingBlock: XUDNAN_clean_linker_2, # of connection points: 2
#     Edge 51, Type (0, 0), BuildingBlock: XUDNAN_clean_linker_2, # of connection points: 2
#     Edge 52, Type (0, 0), BuildingBlock: XUDNAN_clean_linker_2, # of connection points: 2
#     Edge 53, Type (0, 0), BuildingBlock: XUDNAN_clean_linker_2, # of connection points: 2
#     Edge 54, Type (0, 0), BuildingBlock: XUDNAN_clean_linker_2, # of connection points: 2
#     Edge 55, Type (0, 0), BuildingBlock: XUDNAN_clean_linker_2, # of connection points: 2
# Relax obj value: 0.172
# Max RMSD: 0.146
# Mean RMSD: 0.146
data_MOF--net-zfj--node1-XOMCOT_clean_sbu_1--edge1-XUDNAN_clean_linker_2
_symmetry_space_group_name_H-M    P1
_symmetry_Int_Tables_number       1
_symmetry_cell_setting            triclinic
loop_
_symmetry_equiv_pos_as_xyz
'x, y, z'
_cell_length_a     35.199073
_cell_length_b     35.05065
_cell_length_c     50.295738
_cell_angle_alpha  89.908959
_cell_angle_beta   90.008502
_cell_angle_gamma 90.069325
loop_
_atom_site_label
_atom_site_type_symbol
_atom_site_fract_x
_atom_site_fract_y
_atom_site_fract_z
_atom_type_partial_charge
C0 C 0.53658 0.26408 0.17025 0.0
C1 C 0.53307 0.30208 0.17609 0.0
N2 N 0.49905 0.31447 0.16724 0.0
N3 N 0.50546 0.25205 0.15708 0.0
C4 C 0.48227 0.28292 0.15682 0.0
H5 H 0.56104 0.2466 0.17474 0.0
Co6 Co 0.49985 0.20176 0.14369 0.0
C7 C 0.47822 0.24996 0.09461 0.0
O8 O 0.49158 0.28248 0.10351 0.0
N9 N 0.49484 0.15157 0.13127 0.0
C10 C 0.50019 0.09958 0.10629 0.0
C11 C 0.5037 0.13866 0.10679 0.0
C12 C 0.48627 0.11983 0.14535 0.0
N13 N 0.48935 0.08761 0.13061 0.0
O14 O 0.44894 0.19945 0.15769 0.0
H15 H 0.5138 0.15634 0.09065 0.0
H16 H 0.4796 0.12034 0.16634 0.0
O17 O 0.48097 0.21957 0.10868 0.0
C18 C 0.44904 0.19765 0.18305 0.0
O19 O 0.48168 0.19907 0.19566 0.0
N20 N 0.55086 0.20195 0.13246 0.0
C21 C 0.63001 0.20604 0.13145 0.0
C22 C 0.60805 0.22999 0.11514 0.0
C23 C 0.56833 0.22737 0.11585 0.0
C24 C 0.57188 0.17674 0.14691 0.0
C25 C 0.61136 0.17782 0.14633 0.0
H26 H 0.55214 0.24773 0.10465 0.0
H27 H 0.55791 0.15719 0.16038 0.0
H28 H 0.45426 0.28248 0.14799 0.0
H29 H 0.55506 0.31933 0.18504 0.0
H30 H 0.50572 0.08145 0.08934 0.0
H31 H 0.62118 0.25232 0.10341 0.0
H32 H 0.62705 0.15805 0.15872 0.0
C33 C 0.25238 0.44384 0.6389 0.0
C34 C 0.21361 0.44217 0.64169 0.0
N35 N 0.20083 0.47734 0.64759 0.0
N36 N 0.26438 0.47998 0.64284 0.0
C37 C 0.23221 0.49968 0.64856 0.0
H38 H 0.27056 0.4204 0.63316 0.0
Co39 Co 0.31461 0.49657 0.6362 0.0
C40 C 0.33364 0.45519 0.58524 0.0
O41 O 0.37047 0.45354 0.58917 0.0
N42 N 0.36499 0.51305 0.62925 0.0
C43 C 0.41597 0.53853 0.60979 0.0
C44 C 0.3774 0.53257 0.60775 0.0
C45 C 0.39659 0.50806 0.64424 0.0
N46 N 0.42811 0.52305 0.63279 0.0
O47 O 0.33362 0.45166 0.65343 0.0
H48 H 0.35963 0.54145 0.59133 0.0
H49 H 0.39667 0.49311 0.66304 0.0
O50 O 0.31183 0.4709 0.60222 0.0
C51 C 0.33196 0.45555 0.67862 0.0
O52 O 0.31841 0.48767 0.68818 0.0
N53 N 0.29582 0.54156 0.62172 0.0
C54 C 0.25922 0.61016 0.61215 0.0
C55 C 0.25499 0.57976 0.59434 0.0
C56 C 0.27361 0.54524 0.59957 0.0
C57 C 0.30171 0.57157 0.63833 0.0
C58 C 0.28369 0.60623 0.63389 0.0
H59 H 0.26817 0.52103 0.58685 0.0
H60 H 0.31884 0.56775 0.65599 0.0
H61 H 0.23145 0.5302 0.65174 0.0
H62 H 0.19601 0.41715 0.63887 0.0
H63 H 0.43358 0.5534 0.5955 0.0
H64 H 0.23572 0.58191 0.57761 0.0
H65 H 0.28722 0.62917 0.6481 0.0
C66 C 0.03189 0.25498 0.17817 0.0
C67 C 0.03572 0.2165 0.18243 0.0
N68 N 0.0365 0.19897 0.15866 0.0
N69 N 0.03076 0.26194 0.15183 0.0
C70 C 0.03326 0.22707 0.14033 0.0
H71 H 0.03027 0.27666 0.19339 0.0
Co72 Co 0.02743 0.3116 0.13876 0.0
C73 C 0.03386 0.30569 0.08036 0.0
O74 O 0.00631 0.33085 0.07841 0.0
N75 N 0.02491 0.36319 0.12677 0.0
C76 C 0.04592 0.41941 0.11189 0.0
C77 C 0.05175 0.38063 0.11182 0.0
C78 C 0.00363 0.39245 0.13617 0.0
N79 N 0.01579 0.42696 0.12747 0.0
O80 O 0.07877 0.32047 0.1499 0.0
H81 H 0.07581 0.36633 0.10295 0.0
H82 H 0.98124 0.38902 0.15059 0.0
O83 O 0.0449 0.29467 0.10341 0.0
C84 C 0.07859 0.33925 0.17157 0.0
O85 O 0.04593 0.35009 0.18165 0.0
N86 N 0.97602 0.30261 0.13093 0.0
C87 C 0.89948 0.28181 0.13346 0.0
C88 C 0.92285 0.26776 0.11315 0.0
C89 C 0.96137 0.27782 0.11258 0.0
C90 C 0.95355 0.31621 0.15078 0.0
C91 C 0.91517 0.30693 0.15211 0.0
H92 H 0.9795 0.2634 0.09857 0.0
H93 H 0.96612 0.33223 0.16687 0.0
H94 H 0.03346 0.22236 0.11907 0.0
H95 H 0.03755 0.20237 0.20154 0.0
H96 H 0.06439 0.44055 0.10295 0.0
H97 H 0.91212 0.24713 0.09898 0.0
H98 H 0.89833 0.31792 0.1684 0.0
C99 C 0.2334 0.97816 0.67043 0.0
C100 C 0.27112 0.97145 0.67514 0.0
N101 N 0.29119 0.98195 0.65353 0.0
N102 N 0.22891 0.99361 0.6461 0.0
C103 C 0.26489 0.99546 0.63614 0.0
H104 H 0.21044 0.97077 0.68371 0.0
Co105 Co 0.17902 1.00285 0.63327 0.0
C106 C 0.21795 0.04869 0.59158 0.0
O107 O 0.23509 0.07071 0.60896 0.0
N108 N 0.12882 0.01142 0.62101 0.0
C109 C 0.07697 0.00934 0.59559 0.0
C110 C 0.11583 1.00488 0.59615 0.0
C111 C 0.09718 0.01993 0.63516 0.0
N112 N 0.0652 0.01874 0.62018 0.0
O113 O 0.18031 0.05325 0.64821 0.0
H114 H 0.13324 0.9956 0.57968 0.0
H115 H 0.09724 0.02493 0.65636 0.0
O116 O 0.19716 0.02103 0.59927 0.0
C117 C 0.17055 0.05268 0.67261 0.0
O118 O 0.15992 0.02028 0.6834 0.0
N119 N 0.17674 0.95272 0.62084 0.0
C120 C 0.17499 0.87373 0.61313 0.0
C121 C 0.20377 0.89635 0.60159 0.0
C122 C 0.20373 0.93597 0.60531 0.0
C123 C 0.14808 0.93157 0.63147 0.0
C124 C 0.14581 0.89253 0.62698 0.0
H125 H 0.2266 0.9528 0.59704 0.0
H126 H 0.12727 0.94486 0.64424 0.0
H127 H 0.27164 1.00447 0.61614 0.0
H128 H 0.28271 0.95914 0.69313 0.0
H129 H 0.05877 1.00539 0.57847 0.0
H130 H 0.22725 0.88377 0.5909 0.0
H131 H 0.12188 0.8773 0.63531 0.0
C132 C 0.52277 0.25083 0.8232 0.0
C133 C 0.52822 0.21243 0.81993 0.0
N134 N 0.52063 0.1947 0.8431 0.0
N135 N 0.5111 0.25787 0.84824 0.0
C136 C 0.50997 0.22288 0.85995 0.0
H137 H 0.52907 0.27225 0.80844 0.0
Co138 Co 0.5066 0.30753 0.86226 0.0
C139 C 0.45133 0.29966 0.90596 0.0
O140 O 0.4338 0.33105 0.89866 0.0
N141 N 0.50337 0.35786 0.87617 0.0
C142 C 0.50981 0.40818 0.90297 0.0
C143 C 0.513 0.3691 0.90099 0.0
C144 C 0.49443 0.39083 0.86352 0.0
N145 N 0.49805 0.42181 0.87935 0.0
O146 O 0.46009 0.31455 0.84282 0.0
H147 H 0.52208 0.3501 0.91671 0.0
H148 H 0.48634 0.39253 0.84286 0.0
O149 O 0.47954 0.28746 0.89263 0.0
C150 C 0.46651 0.32683 0.81937 0.0
O151 O 0.50145 0.33551 0.8125 0.0
N152 N 0.55305 0.30112 0.87911 0.0
C153 C 0.62778 0.29032 0.89512 0.0
C154 C 0.59788 0.27353 0.9094 0.0
C155 C 0.56047 0.27914 0.90096 0.0
C156 C 0.5816 0.31878 0.86567 0.0
C157 C 0.61921 0.31394 0.87341 0.0
H158 H 0.53792 0.26469 0.91147 0.0
H159 H 0.57503 0.33587 0.84834 0.0
H160 H 0.50377 0.21836 0.88078 0.0
H161 H 0.53825 0.19878 0.80197 0.0
H162 H 0.51535 0.42519 0.9205 0.0
H163 H 0.60344 0.25481 0.9261 0.0
H164 H 0.64148 0.32778 0.86206 0.0
C165 C 0.26668 0.53748 0.3341 0.0
C166 C 0.3054 0.5409 0.33193 0.0
N167 N 0.32156 0.51515 0.34831 0.0
N168 N 0.25849 0.50979 0.3518 0.0
C169 C 0.29245 0.49653 0.36005 0.0
H170 H 0.24572 0.55431 0.32363 0.0
Co171 Co 0.20976 0.4962 0.36138 0.0
C172 C 0.21351 0.46399 0.41532 0.0
O173 O 0.18193 0.48249 0.42049 0.0
N174 N 0.15962 0.4818 0.36997 0.0
C175 C 0.11089 0.44311 0.37837 0.0
C176 C 0.14928 0.44512 0.37414 0.0
C177 C 0.1266 0.50145 0.37128 0.0
N178 N 0.09658 0.4786 0.37649 0.0
O179 O 0.21285 0.45272 0.33841 0.0
H180 H 0.1686 0.42114 0.37409 0.0
H181 H 0.12397 0.5316 0.36758 0.0
O182 O 0.22898 0.4668 0.39231 0.0
C183 C 0.20119 0.46351 0.31561 0.0
O184 O 0.19087 0.49932 0.31279 0.0
N185 N 0.20705 0.5415 0.38125 0.0
C186 C 0.21638 0.61746 0.3967 0.0
C187 C 0.23502 0.58806 0.41038 0.0
C188 C 0.23056 0.55032 0.40203 0.0
C189 C 0.18843 0.56978 0.36802 0.0
C190 C 0.19188 0.60775 0.37579 0.0
H191 H 0.24891 0.52914 0.41075 0.0
H192 H 0.17325 0.56326 0.3499 0.0
H193 H 0.29581 0.47433 0.37481 0.0
H194 H 0.32043 0.56073 0.31919 0.0
H195 H 0.09482 0.41741 0.3824 0.0
H196 H 0.25535 0.59437 0.42594 0.0
H197 H 0.17724 0.62952 0.36445 0.0
C198 C 0.99409 0.27034 0.82451 0.0
C199 C 0.99623 0.30946 0.82273 0.0
N200 N 0.02011 0.32219 0.84171 0.0
N201 N 0.01668 0.25813 0.8444 0.0
C202 C 0.03224 0.29036 0.85446 0.0
H203 H 0.97604 0.25204 0.81268 0.0
Co204 Co 0.01844 0.20748 0.8565 0.0
C205 C 0.07493 0.21095 0.90022 0.0
O206 O 0.0945 0.18244 0.89029 0.0
N207 N 0.01932 0.15657 0.86871 0.0
C208 C 0.00972 0.10621 0.89489 0.0
C209 C 0.01062 0.14534 0.8937 0.0
C210 C 0.02396 0.12356 0.85509 0.0
N211 N 0.01815 0.09257 0.87063 0.0
O212 O 0.06442 0.19934 0.83686 0.0
H213 H 0.00406 0.16447 0.90991 0.0
H214 H 0.02976 0.12211 0.834 0.0
O215 O 0.04567 0.22321 0.88799 0.0
C216 C 0.05567 0.19192 0.8128 0.0
O217 O 0.01946 0.19074 0.80647 0.0
N218 N 0.97214 0.21495 0.87349 0.0
C219 C 0.89839 0.22628 0.89155 0.0
C220 C 0.92871 0.24674 0.9027 0.0
C221 C 0.96554 0.24084 0.89321 0.0
C222 C 0.94316 0.19437 0.8628 0.0
C223 C 0.9061 0.19927 0.87173 0.0
H224 H 0.9883 0.25817 0.90096 0.0
H225 H 0.94887 0.17456 0.84682 0.0
H226 H 0.05064 0.29068 0.87167 0.0
H227 H 0.98078 0.32708 0.80876 0.0
H228 H 1.0029 0.08902 0.91215 0.0
H229 H 0.92384 0.26836 0.91768 0.0
H230 H 0.88354 0.18266 0.86273 0.0
C231 C 0.23983 0.98437 0.31927 0.0
C232 C 0.20177 0.97669 0.31748 0.0
N233 N 0.18499 0.98713 0.34041 0.0
N234 N 0.24754 1.00005 0.34308 0.0
C235 C 0.2134 1.00157 0.35563 0.0
H236 H 0.26085 0.97767 0.30436 0.0
Co237 Co 0.29796 0.00998 0.35264 0.0
C238 C 0.29829 0.03877 0.40782 0.0
O239 O 0.33039 0.02033 0.41129 0.0
N240 N 0.34987 0.02019 0.36073 0.0
C241 C 0.40184 0.05498 0.3679 0.0
C242 C 0.36321 0.05589 0.36467 0.0
C243 C 0.38153 0.99807 0.36143 0.0
N244 N 0.41364 0.01854 0.36592 0.0
O245 O 0.29683 0.05637 0.3321 0.0
H246 H 0.34586 0.08133 0.36498 0.0
H247 H 0.38132 0.96766 0.35845 0.0
O248 O 0.28154 0.03745 0.38514 0.0
C249 C 0.30974 0.05208 0.30859 0.0
O250 O 0.32089 0.01792 0.30126 0.0
N251 N 0.29861 0.96282 0.37061 0.0
C252 C 0.29074 0.88719 0.38745 0.0
C253 C 0.27392 0.91698 0.40174 0.0
C254 C 0.2775 0.95444 0.39271 0.0
C255 C 0.31467 0.93411 0.35627 0.0
C256 C 0.31175 0.8962 0.36457 0.0
H257 H 0.26088 0.9759 0.40261 0.0
H258 H 0.32854 0.94057 0.3376 0.0
H259 H 0.20969 0.0113 0.37584 0.0
H260 H 0.18765 0.96382 0.30061 0.0
H261 H 0.41974 0.07973 0.37069 0.0
H262 H 0.256 0.91122 0.41879 0.0
H263 H 0.32478 0.87406 0.35268 0.0
C264 C 0.47812 0.7569 0.83425 0.0
C265 C 0.47206 0.71913 0.82893 0.0
N266 N 0.48497 0.69821 0.84954 0.0
N267 N 0.49567 0.76057 0.85789 0.0
C268 C 0.49954 0.72414 0.86685 0.0
H269 H 0.46847 0.78034 0.82207 0.0
Co270 Co 0.50345 0.80935 0.87259 0.0
C271 C 0.55514 0.79711 0.91849 0.0
O272 O 0.57583 0.82686 0.91188 0.0
N273 N 0.50977 0.8591 0.88667 0.0
C274 C 0.50538 0.91058 0.91256 0.0
C275 C 0.50117 0.87146 0.91141 0.0
C276 C 0.51888 0.89133 0.87323 0.0
N277 N 0.51665 0.92297 0.88848 0.0
O278 O 0.55162 0.81318 0.8543 0.0
H279 H 0.49144 0.8533 0.92743 0.0
H280 H 0.52531 0.89207 0.85227 0.0
O281 O 0.52719 0.78711 0.9039 0.0
C282 C 0.54754 0.82475 0.8304 0.0
O283 O 0.51348 0.83409 0.82204 0.0
N284 N 0.45572 0.80631 0.88838 0.0
C285 C 0.38025 0.80245 0.90477 0.0
C286 C 0.40768 0.7782 0.91596 0.0
C287 C 0.44538 0.78049 0.90742 0.0
C288 C 0.42968 0.83047 0.87761 0.0
C289 C 0.39188 0.82934 0.88572 0.0
H290 H 0.46575 0.76054 0.91543 0.0
H291 H 0.43831 0.8503 0.86225 0.0
H292 H 0.51087 0.7169 0.88619 0.0
H293 H 0.45826 0.70814 0.81131 0.0
H294 H 0.5004 0.9285 0.92972 0.0
H295 H 0.39986 0.75652 0.93031 0.0
H296 H 0.37181 0.8489 0.87675 0.0
C297 C 0.7688 0.47909 0.3441 0.0
C298 C 0.80748 0.47519 0.34384 0.0
N299 N 0.82239 0.50054 0.36106 0.0
N300 N 0.75919 0.50688 0.36128 0.0
C301 C 0.79245 0.51964 0.3713 0.0
H302 H 0.74876 0.46241 0.33268 0.0
Co303 Co 0.70915 0.51907 0.36835 0.0
C304 C 0.70606 0.5432 0.42434 0.0
O305 O 0.67445 0.52336 0.4261 0.0
N306 N 0.6581 0.53197 0.37435 0.0
C307 C 0.60784 0.56936 0.38081 0.0
C308 C 0.64673 0.56779 0.38037 0.0
C309 C 0.62533 0.51243 0.3709 0.0
N310 N 0.59448 0.53447 0.37486 0.0
O311 O 0.71409 0.56587 0.34859 0.0
H312 H 0.66567 0.59161 0.38381 0.0
H313 H 0.62357 0.48319 0.36448 0.0
O314 O 0.72374 0.54475 0.40202 0.0
C315 C 0.71483 0.56198 0.3234 0.0
O316 O 0.71611 0.52749 0.31332 0.0
N317 N 0.70449 0.47119 0.38548 0.0
C318 C 0.70756 0.3946 0.4011 0.0
C319 C 0.72632 0.4228 0.41582 0.0
C320 C 0.72532 0.4607 0.40729 0.0
C321 C 0.68694 0.44389 0.3706 0.0
C322 C 0.6874 0.40562 0.37831 0.0
H323 H 0.74366 0.48077 0.41723 0.0
H324 H 0.67465 0.45143 0.35162 0.0
H325 H 0.79461 0.54163 0.3863 0.0
H326 H 0.82337 0.45521 0.33181 0.0
H327 H 0.59074 0.59428 0.385 0.0
H328 H 0.74386 0.41532 0.43274 0.0
H329 H 0.67338 0.38465 0.36591 0.0
C330 C 0.9446 0.7671 0.85025 0.0
C331 C 0.94565 0.8057 0.84548 0.0
N332 N 0.98044 0.81845 0.8518 0.0
N333 N 0.97828 0.75532 0.86039 0.0
C334 C 0.99983 0.78757 0.86035 0.0
H335 H 0.91991 0.74924 0.84735 0.0
Co336 Co 0.9909 0.70475 0.87207 0.0
C337 C 0.93592 0.72987 0.91536 0.0
O338 O 0.91443 0.75132 0.90021 0.0
N339 N 0.00364 0.65522 0.88344 0.0
C340 C 0.02367 0.60824 0.90967 0.0
C341 C 0.01352 0.64597 0.90859 0.0
C342 C 0.00773 0.62231 0.86958 0.0
N343 N 0.02003 0.59334 0.88518 0.0
O344 O 0.94658 0.6848 0.85503 0.0
H345 H 0.0142 0.66565 0.92511 0.0
H346 H 1.00303 0.61987 0.8484 0.0
O347 O 0.96409 0.71182 0.90562 0.0
C348 C 0.95277 0.67997 0.83027 0.0
O349 O 0.98633 0.68932 0.8208 0.0
N350 N 0.03598 0.72261 0.88693 0.0
C351 C 0.1084 0.74576 0.90214 0.0
C352 C 0.07683 0.7541 0.91815 0.0
C353 C 0.04061 0.74228 0.91016 0.0
C354 C 0.0663 0.71395 0.87135 0.0
C355 C 0.10276 0.72509 0.8786 0.0
H356 H 0.01651 0.74971 0.92235 0.0
H357 H 0.06195 0.69825 0.8531 0.0
H358 H 0.02898 0.78901 0.86699 0.0
H359 H 0.92254 0.82316 0.83816 0.0
H360 H 0.03318 0.59289 0.92714 0.0
H361 H 0.07996 0.77029 0.93634 0.0
H362 H 0.12637 0.71734 0.8659 0.0
C363 C 0.73942 0.03042 0.34709 0.0
C364 C 0.70072 0.02825 0.34419 0.0
N365 N 0.68801 0.99923 0.35926 0.0
N366 N 0.75115 1.00314 0.36416 0.0
C367 C 0.71903 0.98428 0.37119 0.0
H368 H 0.7578 0.0517 0.33826 0.0
Co369 Co 0.80126 1.00146 0.37656 0.0
C370 C 0.79863 0.94827 0.42264 0.0
O371 O 0.83153 0.93298 0.41661 0.0
N372 N 0.85193 1.00106 0.38854 0.0
C373 C 0.90476 0.01035 0.41207 0.0
C374 C 0.86567 0.01282 0.41224 0.0
C375 C 0.88316 0.99174 0.37432 0.0
N376 N 0.91568 0.99694 0.3882 0.0
O377 O 0.80953 0.95404 0.35795 0.0
H378 H 0.84836 0.02284 0.42857 0.0
H379 H 0.88219 0.98226 0.35389 0.0
O380 O 0.78449 0.97463 0.40827 0.0
C381 C 0.81025 0.95723 0.33267 0.0
O382 O 0.80541 0.99098 0.32187 0.0
N383 N 0.79341 0.04864 0.39288 0.0
C384 C 0.77603 0.12336 0.40713 0.0
C385 C 0.75791 0.09253 0.41967 0.0
C386 C 0.76682 0.05524 0.41211 0.0
C387 C 0.8123 0.07814 0.38121 0.0
C388 C 0.80421 0.11575 0.38814 0.0
H389 H 0.75076 0.032 0.42068 0.0
H390 H 0.83265 0.07241 0.3656 0.0
H391 H 0.71803 0.96161 0.38581 0.0
H392 H 0.68301 0.04728 0.3326 0.0
H393 H 0.92364 0.01742 0.42833 0.0
H394 H 0.73557 0.09718 0.43411 0.0
H395 H 0.81915 0.1387 0.37816 0.0
C396 C 0.50741 0.76072 0.19133 0.0
C397 C 0.50084 0.79889 0.19476 0.0
N398 N 0.49619 0.81501 0.17069 0.0
N399 N 0.50732 0.75234 0.16518 0.0
C400 C 0.50027 0.78621 0.15298 0.0
H401 H 0.51058 0.74019 0.20718 0.0
Co402 Co 0.50997 0.70169 0.15326 0.0
C403 C 0.55679 0.73944 0.10925 0.0
O404 O 0.57508 0.76456 0.12379 0.0
N405 N 0.51235 0.65068 0.14217 0.0
C406 C 0.53611 0.59606 0.12704 0.0
C407 C 0.54113 0.63493 0.12822 0.0
C408 C 0.49017 0.62074 0.14929 0.0
N409 N 0.50401 0.58732 0.14016 0.0
O410 O 0.55868 0.69577 0.1701 0.0
H411 H 0.56537 0.65043 0.12058 0.0
H412 H 0.46562 0.62304 0.16213 0.0
O413 O 0.53319 0.71656 0.12002 0.0
C414 C 0.55563 0.67928 0.19263 0.0
O415 O 0.5217 0.66844 0.20057 0.0
N416 N 0.46144 0.70666 0.13863 0.0
C417 C 0.38544 0.71851 0.12507 0.0
C418 C 0.41461 0.72648 0.10683 0.0
C419 C 0.45246 0.72015 0.11391 0.0
C420 C 0.43359 0.69804 0.1564 0.0
C421 C 0.39544 0.70322 0.14994 0.0
H422 H 0.47414 0.72749 0.09967 0.0
H423 H 0.44123 0.68772 0.17596 0.0
H424 H 0.49642 0.78941 0.13175 0.0
H425 H 0.49895 0.81361 0.21362 0.0
H426 H 0.5552 0.57559 0.11808 0.0
H427 H 0.40854 0.73886 0.08756 0.0
H428 H 0.37409 0.69573 0.16454 0.0
C429 C 0.75473 0.47196 0.67604 0.0
C430 C 0.71666 0.47286 0.68174 0.0
N431 N 0.70039 0.50023 0.66679 0.0
N432 N 0.76292 0.49896 0.65781 0.0
C433 C 0.72901 0.51559 0.65226 0.0
H434 H 0.77525 0.45236 0.68437 0.0
Co435 Co 0.81247 0.50499 0.64476 0.0
C436 C 0.80508 0.56608 0.60466 0.0
O437 O 0.83322 0.58518 0.61551 0.0
N438 N 0.86256 0.50988 0.632 0.0
C439 C 0.91275 0.50681 0.60524 0.0
C440 C 0.87376 0.50581 0.60649 0.0
C441 C 0.89537 0.51337 0.64591 0.0
N442 N 0.92638 0.51148 0.63005 0.0
O443 O 0.81908 0.54947 0.66644 0.0
H444 H 0.85478 0.50111 0.58989 0.0
H445 H 0.89658 0.51542 0.66736 0.0
O446 O 0.79384 0.53494 0.61518 0.0
C447 C 0.82482 0.54069 0.69071 0.0
O448 O 0.82654 0.50455 0.69747 0.0
N449 N 0.80642 0.46013 0.62539 0.0
C450 C 0.79318 0.38694 0.60616 0.0
C451 C 0.77203 0.41797 0.59659 0.0
C452 C 0.77895 0.45448 0.60662 0.0
C453 C 0.8283 0.43065 0.63406 0.0
C454 C 0.82241 0.39385 0.62451 0.0
H455 H 0.7607 0.47759 0.60045 0.0
H456 H 0.84937 0.43552 0.64934 0.0
H457 H 0.72533 0.53842 0.63798 0.0
H458 H 0.70183 0.45418 0.69542 0.0
H459 H 0.9298 0.50374 0.58747 0.0
H460 H 0.74879 0.41378 0.58278 0.0
H461 H 0.83961 0.37075 0.63224 0.0
C462 C 0.01505 0.75109 0.18882 0.0
C463 C 0.01428 0.71228 0.19254 0.0
N464 N 0.99698 0.69634 0.17145 0.0
N465 N 0.99789 0.75982 0.16564 0.0
C466 C 0.98737 0.72569 0.15533 0.0
H467 H 0.02747 0.77175 0.20218 0.0
Co468 Co 0.99266 0.81028 0.15422 0.0
C469 C 0.96628 0.80771 0.09837 0.0
O470 O 0.98742 0.83788 0.09363 0.0
N471 N 0.98698 0.86241 0.14406 0.0
C472 C 0.95752 0.91716 0.13462 0.0
C473 C 0.95336 0.87833 0.13726 0.0
C474 C 0.01094 0.89265 0.14586 0.0
N475 N 0.9938 0.92628 0.14017 0.0
O476 O 0.94619 0.81436 0.17402 0.0
H477 H 0.927 0.86272 0.13518 0.0
H478 H 0.04012 0.89058 0.15202 0.0
O479 O 0.96528 0.79334 0.12185 0.0
C480 C 0.95304 0.82765 0.19714 0.0
O481 O 0.98842 0.83581 0.20329 0.0
N482 N 0.04009 0.80592 0.13736 0.0
C483 C 0.11563 0.79182 0.1231 0.0
C484 C 0.08555 0.77475 0.10914 0.0
C485 C 0.04805 0.78172 0.11681 0.0
C486 C 0.06896 0.82161 0.15166 0.0
C487 C 0.10674 0.8161 0.14437 0.0
H488 H 0.02597 0.76535 0.10733 0.0
H489 H 0.0627 0.83707 0.16971 0.0
H490 H 0.97245 0.72231 0.13672 0.0
H491 H 0.02594 0.69684 0.20932 0.0
H492 H 0.93499 0.93722 0.13032 0.0
H493 H 0.09083 0.75434 0.09344 0.0
H494 H 0.12873 0.8298 0.156 0.0
C495 C 0.73788 0.01124 0.68238 0.0
C496 C 0.77604 0.01678 0.68598 0.0
N497 N 0.7935 0.01413 0.66225 0.0
N498 N 0.73062 1.00442 0.65649 0.0
C499 C 0.76535 0.00623 0.64465 0.0
H500 H 0.71684 0.014 0.69779 0.0
Co501 Co 0.68092 1.00148 0.64225 0.0
C502 C 0.68697 0.94297 0.60066 0.0
O503 O 0.65707 0.92538 0.61042 0.0
N504 N 0.63054 0.99972 0.62808 0.0
C505 C 0.58091 0.00633 0.6007 0.0
C506 C 0.61987 0.00903 0.60305 0.0
C507 C 0.59725 0.99131 0.64042 0.0
N508 N 0.5667 0.99504 0.62426 0.0
O509 O 0.67178 0.95553 0.66266 0.0
H510 H 0.63919 0.01729 0.58736 0.0
H511 H 0.59498 0.98316 0.66103 0.0
O512 O 0.69984 0.97256 0.61228 0.0
C513 C 0.65846 0.96294 0.68569 0.0
O514 O 0.65023 0.99861 0.69133 0.0
N515 N 0.68954 0.04749 0.62463 0.0
C516 C 0.70649 0.12126 0.60794 0.0
C517 C 0.71762 0.08981 0.59263 0.0
C518 C 0.70901 0.05294 0.6014 0.0
C519 C 0.67708 0.07772 0.63908 0.0
C520 C 0.68519 0.11491 0.6311 0.0
H521 H 0.71924 0.02914 0.5899 0.0
H522 H 0.66187 0.07275 0.65745 0.0
H523 H 0.76967 1.00402 0.62341 0.0
H524 H 0.78973 0.0234 0.70468 0.0
H525 H 0.56441 0.01157 0.5829 0.0
H526 H 0.73436 0.09355 0.57475 0.0
H527 H 0.67565 0.13846 0.64331 0.0
H528 H 0.45872 0.30974 0.06244 0.0
H529 H 0.46747 0.18629 0.06341 0.0
H530 H 0.4542 0.1848 0.01521 0.0
H531 H 0.38142 0.31462 0.0118 0.0
H532 H 0.40091 0.35739 0.99723 0.0
H533 H 0.40699 0.34817 0.03224 0.0
H534 H 0.47993 0.35484 0.02689 0.0
H535 H 0.47411 0.36395 0.99195 0.0
H536 H 0.50429 0.32552 1.00292 0.0
H537 H 0.45105 0.19801 0.9658 0.0
H538 H 0.45208 0.22449 0.9201 0.0
H539 H 0.43952 0.33854 0.95192 0.0
C540 C 0.45711 0.28228 0.05267 0.0
C541 C 0.46466 0.24813 0.06671 0.0
C542 C 0.46213 0.21285 0.05313 0.0
C543 C 0.45447 0.21172 0.02571 0.0
C544 C 0.44842 0.24606 0.01231 0.0
C545 C 0.44884 0.28063 0.02548 0.0
C546 C 0.44324 0.31362 0.00639 0.0
C547 C 0.40591 0.33469 0.01227 0.0
C548 C 0.47743 0.34107 0.00709 0.0
C549 C 0.4411 0.29238 0.98026 0.0
C550 C 0.44414 0.2534 0.98405 0.0
C551 C 0.44742 0.22834 0.96264 0.0
C552 C 0.44801 0.24356 0.93679 0.0
C553 C 0.4447 0.28334 0.93259 0.0
C554 C 0.4405 0.30788 0.95459 0.0
H555 H 0.28717 0.47283 0.43198 0.0
H556 H 0.18115 0.4158 0.45032 0.0
H557 H 0.20621 0.39723 0.49423 0.0
H558 H 0.35224 0.40716 0.47276 0.0
H559 H 0.38074 0.44713 0.48331 0.0
H560 H 0.3586 0.44755 0.45096 0.0
H561 H 0.32635 0.51181 0.46233 0.0
H562 H 0.34786 0.51142 0.49473 0.0
H563 H 0.29698 0.51514 0.4916 0.0
H564 H 0.23551 0.39763 0.53848 0.0
H565 H 0.26953 0.41326 0.57996 0.0
H566 H 0.35818 0.46894 0.53441 0.0
C567 C 0.27019 0.4547 0.44477 0.0
C568 C 0.23261 0.44486 0.43768 0.0
C569 C 0.21027 0.42286 0.45532 0.0
C570 C 0.22428 0.41224 0.48029 0.0
C571 C 0.26073 0.42392 0.48737 0.0
C572 C 0.28371 0.44425 0.47006 0.0
C573 C 0.31953 0.45782 0.48403 0.0
C574 C 0.35488 0.43877 0.47205 0.0
C575 C 0.32284 0.50163 0.48312 0.0
C576 C 0.31212 0.44361 0.5121 0.0
C577 C 0.27821 0.42372 0.51343 0.0
C578 C 0.26272 0.41199 0.53761 0.0
C579 C 0.28211 0.4211 0.56107 0.0
C580 C 0.31681 0.44138 0.56021 0.0
C581 C 0.33239 0.45212 0.53541 0.0
H582 H 0.04456 0.2736 0.9244 0.0
H583 H 0.11939 0.17753 0.93883 0.0
H584 H 0.12151 0.1942 0.98663 0.0
H585 H 0.08479 0.33875 0.97439 0.0
H586 H 0.03862 0.35718 0.98299 0.0
H587 H 0.04768 0.34056 0.94971 0.0
H588 H 0.99036 0.29438 0.95337 0.0
H589 H 0.98131 0.31049 0.9867 0.0
H590 H 0.98862 0.26045 0.98031 0.0
H591 H 0.10936 0.21784 0.03399 0.0
H592 H 0.08573 0.24711 0.07565 0.0
H593 H 0.0177 0.32604 0.0292 0.0
C594 C 0.06187 0.25631 0.93747 0.0
C595 C 0.08167 0.22415 0.92783 0.0
C596 C 0.10418 0.20249 0.94568 0.0
C597 C 0.10543 0.21167 0.9729 0.0
C598 C 0.08424 0.24272 0.98188 0.0
C599 C 0.06318 0.26488 0.96456 0.0
C600 C 0.04068 0.295 0.97917 0.0
C601 C 0.05374 0.33525 0.97108 0.0
C602 C 0.99772 0.28974 0.97462 0.0
C603 C 0.05167 0.28592 0.00755 0.0
C604 C 0.07706 0.25593 0.00882 0.0
C605 C 0.08984 0.24164 0.03316 0.0
C606 C 0.07624 0.2584 0.05673 0.0
C607 C 0.04992 0.28893 0.05575 0.0
C608 C 0.0379 0.30286 0.03074 0.0
H609 H 0.33036 0.05699 0.45538 0.0
H610 H 0.22163 0.05027 0.41506 0.0
H611 H 0.18881 0.05934 0.45803 0.0
H612 H 0.30677 1.00401 0.50962 0.0
H613 H 0.33297 0.03139 0.53379 0.0
H614 H 0.34799 0.03106 0.49964 0.0
H615 H 0.34405 0.10482 0.49784 0.0
H616 H 0.32951 0.10543 0.53221 0.0
H617 H 0.30057 0.12831 0.50729 0.0
H618 H 0.16846 0.05669 0.50592 0.0
H619 H 0.16181 0.04993 0.55464 0.0
H620 H 0.28361 0.0617 0.56387 0.0
C621 C 0.29963 0.05865 0.45545 0.0
C622 C 0.27852 0.05287 0.43186 0.0
C623 C 0.23839 0.05489 0.4328 0.0
C624 C 0.21953 0.05993 0.45717 0.0
C625 C 0.24126 0.06371 0.48025 0.0
C626 C 0.28048 0.06403 0.4795 0.0
C627 C 0.2973 0.06581 0.50724 0.0
C628 C 0.32274 0.031 0.51289 0.0
C629 C 0.31914 0.10333 0.51138 0.0
C630 C 0.26145 0.06474 0.52384 0.0
C631 C 0.22941 0.06364 0.50788 0.0
C632 C 0.19325 0.05854 0.51859 0.0
C633 C 0.18976 0.05441 0.54622 0.0
C634 C 0.22216 0.05576 0.56285 0.0
C635 C 0.25836 0.06159 0.55155 0.0
H636 H 0.58573 0.82849 0.96384 0.0
H637 H 0.53304 0.72553 0.9333 0.0
H638 H 0.53355 0.69767 0.97838 0.0
H639 H 0.64524 0.78242 0.01571 0.0
H640 H 0.63727 0.82031 0.03925 0.0
H641 H 0.63726 0.83044 1.00409 0.0
H642 H 0.57019 0.86018 0.00825 0.0
H643 H 0.56991 0.85 0.04334 0.0
H644 H 0.53218 0.83231 0.02248 0.0
H645 H 0.53441 0.68311 0.0268 0.0
H646 H 0.53466 0.68272 0.07569 0.0
H647 H 0.58585 0.79551 0.07602 0.0
C648 C 0.5753 0.79967 0.96654 0.0
C649 C 0.55982 0.77893 0.94494 0.0
C650 C 0.54529 0.7418 0.94946 0.0
C651 C 0.54552 0.72572 0.97501 0.0
C652 C 0.56022 0.74716 0.99594 0.0
C653 C 0.57489 0.78332 0.99206 0.0
C654 C 0.58604 0.80143 0.01838 0.0
C655 C 0.62901 0.80909 0.01941 0.0
C656 C 0.56322 0.83814 0.0234 0.0
C657 C 0.57474 0.77004 0.03768 0.0
C658 C 0.56025 0.7389 0.0242 0.0
C659 C 0.5461 0.70713 0.03756 0.0
C660 C 0.54631 0.70725 0.0654 0.0
C661 C 0.56049 0.73898 0.07981 0.0
C662 C 0.57539 0.77058 0.06564 0.0
H663 H 0.68409 0.52704 0.47503 0.0
H664 H 0.76856 0.59029 0.4301 0.0
H665 H 0.79941 0.60965 0.47236 0.0
H666 H 0.6775 0.5906 0.53256 0.0
H667 H 0.67316 0.55134 0.55555 0.0
H668 H 0.65549 0.54666 0.52209 0.0
H669 H 0.69702 0.48634 0.51545 0.0
H670 H 0.71473 0.49087 0.54884 0.0
H671 H 0.74747 0.48916 0.52132 0.0
H672 H 0.82308 0.61843 0.52004 0.0
H673 H 0.84014 0.61169 0.56754 0.0
H674 H 0.74067 0.54072 0.58005 0.0
C675 C 0.70862 0.54565 0.47394 0.0
C676 C 0.72363 0.55758 0.4492 0.0
C677 C 0.75636 0.5811 0.44882 0.0
C678 C 0.77397 0.59229 0.47272 0.0
C679 C 0.75855 0.57958 0.49677 0.0
C680 C 0.72666 0.55659 0.49744 0.0
C681 C 0.71747 0.54372 0.52547 0.0
C682 C 0.6786 0.55901 0.53444 0.0
C683 C 0.7193 0.49994 0.5279 0.0
C684 C 0.74948 0.5626 0.54056 0.0
C685 C 0.77262 0.58365 0.52382 0.0
C686 C 0.80494 0.60228 0.5333 0.0
C687 C 0.81431 0.59843 0.56036 0.0
C688 C 0.79172 0.57569 0.57753 0.0
C689 C 0.75848 0.55836 0.56747 0.0
H690 H 0.93899 0.83874 0.0527 0.0
H691 H 0.96076 0.73026 0.09115 0.0
H692 H 0.94801 0.69689 0.04882 0.0
H693 H 0.86244 0.80295 0.0066 0.0
H694 H 0.8783 0.83408 0.98028 0.0
H695 H 0.88353 0.84844 0.01449 0.0
H696 H 0.9556 0.85884 0.00682 0.0
H697 H 0.95071 0.84414 0.97277 0.0
H698 H 0.984 0.82007 0.99424 0.0
H699 H 0.94566 0.67722 1.00043 0.0
H700 H 0.94562 0.6721 0.95127 0.0
H701 H 0.9201 0.79265 0.94508 0.0
C702 C 0.93977 0.80785 0.0524 0.0
C703 C 0.95052 0.78703 0.07525 0.0
C704 C 0.95187 0.74672 0.07406 0.0
C705 C 0.94489 0.72755 0.05001 0.0
C706 C 0.93573 0.74909 0.02754 0.0
C707 C 0.93219 0.78833 0.02873 0.0
C708 C 0.92429 0.80517 1.00153 0.0
C709 C 0.88478 0.82375 1.00068 0.0
C710 C 0.95552 0.83372 0.99338 0.0
C711 C 0.92556 0.76952 0.98461 0.0
C712 C 0.93227 0.73741 0.99993 0.0
C713 C 0.93915 0.70193 0.98834 0.0
C714 C 0.93922 0.69928 0.96046 0.0
C715 C 0.93185 0.73176 0.94454 0.0
C716 C 0.9244 0.76711 0.95685 0.0
H717 H 0.81948 0.96844 0.47282 0.0
H718 H 0.73363 0.9073 0.42827 0.0
H719 H 0.69875 0.89366 0.47008 0.0
H720 H 0.81745 0.90991 0.53377 0.0
H721 H 0.82246 0.95059 0.55539 0.0
H722 H 0.84286 0.95161 0.52253 0.0
H723 H 0.80568 0.01358 0.512 0.0
H724 H 0.78523 0.01269 0.54479 0.0
H725 H 0.75478 0.01422 0.516 0.0
H726 H 0.67218 0.88893 0.51646 0.0
H727 H 0.65238 0.89847 0.56306 0.0
H728 H 0.7538 0.96602 0.57724 0.0
C729 C 0.79378 0.95144 0.47211 0.0
C730 C 0.77949 0.93797 0.44764 0.0
C731 C 0.74516 0.91711 0.44703 0.0
C732 C 0.72529 0.90925 0.47063 0.0
C733 C 0.73998 0.92298 0.49456 0.0
C734 C 0.77327 0.94397 0.49546 0.0
C735 C 0.78102 0.95843 0.52337 0.0
C736 C 0.81815 0.94162 0.53441 0.0
C737 C 0.7817 1.00233 0.52407 0.0
C738 C 0.74673 0.94263 0.53796 0.0
C739 C 0.72376 0.92175 0.52108 0.0
C740 C 0.69004 0.90508 0.52988 0.0
C741 C 0.67909 0.91054 0.55645 0.0
C742 C 0.70149 0.93298 0.57386 0.0
C743 C 0.73605 0.94867 0.56447 0.0
H744 H 0.52148 0.86157 0.13082 0.0
H745 H 0.44915 0.85787 0.20051 0.0
H746 H 0.43759 0.92697 0.19657 0.0
H747 H 0.56542 0.94954 0.14562 0.0
H748 H 0.56734 0.96664 0.11183 0.0
H749 H 0.56743 0.91615 0.11842 0.0
H750 H 0.50859 0.90745 0.08815 0.0
H751 H 0.50843 0.95793 0.08129 0.0
H752 H 0.46644 0.93521 0.09439 0.0
H753 H 0.43782 0.99695 0.18759 0.0
H754 H 0.44748 0.06325 0.17256 0.0
H755 H 0.51938 0.02282 0.10852 0.0
C756 C 0.50256 0.87528 0.14481 0.0
C757 C 0.48628 0.85439 0.16603 0.0
C758 C 0.4622 0.8734 0.18429 0.0
C759 C 0.45534 0.91262 0.18215 0.0
C760 C 0.47264 0.93266 0.16155 0.0
C761 C 0.49551 0.91473 0.14303 0.0
C762 C 0.51197 0.94354 0.12359 0.0
C763 C 0.55563 0.94398 0.12496 0.0
C764 C 0.49801 0.93555 0.09517 0.0
C765 C 0.4952 0.98034 0.13438 0.0
C766 C 0.47254 0.97332 0.15624 0.0
C767 C 0.45519 1.00278 0.1703 0.0
C768 C 0.46097 0.04043 0.1617 0.0
C769 C 0.48378 0.04856 0.13921 0.0
C770 C 0.5011 0.01783 0.12544 0.0
H771 H 0.65519 0.51601 0.62397 0.0
H772 H 0.65501 0.50394 0.70972 0.0
H773 H 0.58534 0.5116 0.71036 0.0
H774 H 0.57659 0.58628 0.61989 0.0
H775 H 0.55705 0.56534 0.59017 0.0
H776 H 0.60736 0.56253 0.59654 0.0
H777 H 0.60438 0.48908 0.59212 0.0
H778 H 0.55406 0.49153 0.58592 0.0
H779 H 0.57187 0.46237 0.6127 0.0
H780 H 0.51566 0.51568 0.70174 0.0
H781 H 0.45018 0.51802 0.68447 0.0
H782 H 0.4941 0.5264 0.60401 0.0
C783 C 0.64045 0.51599 0.64286 0.0
C784 C 0.66047 0.50957 0.66685 0.0
C785 C 0.64016 0.50874 0.69116 0.0
C786 C 0.60062 0.51314 0.69172 0.0
C787 C 0.58153 0.51836 0.66775 0.0
C788 C 0.60067 0.52004 0.64374 0.0
C789 C 0.57282 0.52384 0.6208 0.0
C790 C 0.57882 0.56176 0.60598 0.0
C791 C 0.57598 0.48966 0.60177 0.0
C792 C 0.5352 0.52348 0.63568 0.0
C793 C 0.54099 0.52046 0.66274 0.0
C794 C 0.51075 0.5183 0.68058 0.0
C795 C 0.47355 0.51933 0.67054 0.0
C796 C 0.46667 0.52242 0.64286 0.0
C797 C 0.49817 0.52464 0.62529 0.0
H798 H 0.02276 0.49494 0.10132 0.0
H799 H 0.98373 0.44417 0.17522 0.0
H800 H 0.96912 0.50802 0.19264 0.0
H801 H 0.06938 0.57331 0.13023 0.0
H802 H 0.0566 0.60713 0.10472 0.0
H803 H 0.06039 0.55723 0.09678 0.0
H804 H 0.99151 0.55764 0.07866 0.0
H805 H 0.9875 0.60763 0.08655 0.0
H806 H 0.9534 0.57411 0.09964 0.0
H807 H 0.96527 0.57713 0.2041 0.0
H808 H 0.97046 0.64724 0.20813 0.0
H809 H 0.01038 0.65457 0.12686 0.0
C810 C 0.01072 0.49722 0.12104 0.0
C811 C 0.00415 0.46423 0.13675 0.0
C812 C 0.98836 0.46863 0.1625 0.0
C813 C 0.98013 0.50493 0.17267 0.0
C814 C 0.98749 0.53675 0.15683 0.0
C815 C 1.00213 0.53333 0.13148 0.0
C816 C 0.0091 0.57232 0.11914 0.0
C817 C 0.05138 0.57781 0.11232 0.0
C818 C 0.98387 0.57827 0.09454 0.0
C819 C 0.99701 0.59817 0.14179 0.0
C820 C 0.98451 0.57695 0.1633 0.0
C821 C 0.97438 0.59406 0.18725 0.0
C822 C 0.9775 0.6338 0.18941 0.0
C823 C 0.99034 0.65615 0.16774 0.0
C824 C 0.99962 0.63812 0.14348 0.0
H825 H 0.8402 0.98316 0.62423 0.0
H826 H 0.83724 0.06436 0.68923 0.0
H827 H 0.90588 0.0751 0.68459 0.0
H828 H 0.92923 0.94145 0.64068 0.0
H829 H 0.94544 0.93625 0.60688 0.0
H830 H 0.89532 0.93601 0.61407 0.0
H831 H 0.88501 0.99153 0.58088 0.0
H832 H 0.9351 0.99186 0.57346 0.0
H833 H 0.91211 0.03488 0.58459 0.0
H834 H 0.9754 0.07445 0.67534 0.0
H835 H 0.04132 0.06479 0.65994 0.0
H836 H 1.00091 0.98534 0.60023 0.0
C837 C 0.85397 1.00358 0.63717 0.0
C838 C 0.83321 0.02248 0.65737 0.0
C839 C 0.85245 0.04885 0.67401 0.0
C840 C 0.89152 0.0554 0.67143 0.0
C841 C 0.91133 0.03566 0.65191 0.0
C842 C 0.89331 0.01056 0.63485 0.0
C843 C 0.92186 0.99254 0.61599 0.0
C844 C 0.92302 0.94898 0.61963 0.0
C845 C 0.91298 1.00336 0.58701 0.0
C846 C 0.95858 0.01108 0.62544 0.0
C847 C 0.95173 0.03585 0.6462 0.0
C848 C 0.98111 0.05534 0.65895 0.0
C849 C 0.01852 0.04949 0.65021 0.0
C850 C 0.02643 0.02447 0.62886 0.0
C851 C 0.99584 1.00514 0.61632 0.0
H852 H 0.52685 0.64886 0.8806 0.0
H853 H 0.43146 0.65384 0.82586 0.0
H854 H 0.42534 0.58439 0.8277 0.0
H855 H 0.5675 0.56229 0.8559 0.0
H856 H 0.58031 0.54357 0.88807 0.0
H857 H 0.57765 0.59438 0.88297 0.0
H858 H 0.52982 0.60006 0.92187 0.0
H859 H 0.53248 0.54927 0.92717 0.0
H860 H 0.4871 0.57164 0.92153 0.0
H861 H 0.4307 0.5142 0.83314 0.0
H862 H 0.44461 0.44734 0.84503 0.0
H863 H 0.5341 0.48556 0.89801 0.0
C864 C 0.50448 0.63538 0.86922 0.0
C865 C 0.48025 0.65728 0.8526 0.0
C866 C 0.45129 0.63816 0.8381 0.0
C867 C 0.44727 0.59848 0.83915 0.0
C868 C 0.47201 0.57778 0.85511 0.0
C869 C 0.49977 0.59542 0.87019 0.0
C870 C 0.52233 0.56592 0.88581 0.0
C871 C 0.56444 0.56659 0.87769 0.0
C872 C 0.51764 0.5721 0.91588 0.0
C873 C 0.50305 0.52921 0.87687 0.0
C874 C 0.47423 0.53686 0.85904 0.0
C875 C 0.45302 0.50782 0.84725 0.0
C876 C 0.46128 0.46988 0.85398 0.0
C877 C 0.49033 0.46112 0.87248 0.0
C878 C 0.51139 0.49135 0.88408 0.0
H879 H 0.87626 0.44574 0.35836 0.0
H880 H 0.85844 0.56469 0.3784 0.0
H881 H 0.92743 0.57194 0.38687 0.0
H882 H 0.95052 0.42641 0.40609 0.0
H883 H 0.97604 0.39567 0.38364 0.0
H884 H 0.92516 0.39976 0.3811 0.0
H885 H 0.93161 0.41916 0.33151 0.0
H886 H 0.98245 0.41513 0.33389 0.0
H887 H 0.96134 0.45912 0.32265 0.0
H888 H 0.99959 0.56626 0.39049 0.0
H889 H 0.06747 0.54804 0.38983 0.0
H890 H 0.03591 0.43348 0.36572 0.0
C891 C 0.88672 0.4734 0.36446 0.0
C892 C 0.86199 0.50473 0.36754 0.0
C893 C 0.87686 0.54023 0.37611 0.0
C894 C 0.91598 0.54462 0.38086 0.0
C895 C 0.93962 0.51317 0.37708 0.0
C896 C 0.92539 0.47823 0.36918 0.0
C897 C 0.95649 0.44908 0.36561 0.0
C898 C 0.95176 0.41577 0.38529 0.0
C899 C 0.95806 0.43481 0.3367 0.0
C900 C 0.99071 0.47314 0.37237 0.0
C901 C 0.98058 0.50996 0.37907 0.0
C902 C 0.00778 0.53744 0.38538 0.0
C903 C 0.04627 0.5269 0.38476 0.0
C904 C 0.05711 0.48926 0.3778 0.0
C905 C 0.02873 0.46223 0.37163 0.0
H906 H 0.96517 0.0398 0.88305 0.0
H907 H 0.07148 0.05613 0.84134 0.0
H908 H 0.07418 0.9866 0.83175 0.0
H909 H 0.98587 0.95058 0.91301 0.0
H910 H 0.93879 0.93134 0.90856 0.0
H911 H 0.94544 0.98206 0.91174 0.0
H912 H 0.91081 0.9929 0.86688 0.0
H913 H 0.9038 0.9422 0.86364 0.0
H914 H 0.92728 0.96848 0.83754 0.0
H915 H 0.06709 0.9137 0.83041 0.0
H916 H 0.04671 0.84578 0.83207 0.0
H917 H 0.94256 0.87909 0.87134 0.0
C918 C 0.98888 0.02863 0.87178 0.0
C919 C 0.01831 0.053 0.86304 0.0
C920 C 0.04869 0.03773 0.84807 0.0
C921 C 0.05049 0.99836 0.8427 0.0
C922 C 0.02122 0.97492 0.85201 0.0
C923 C 0.99061 0.98971 0.86578 0.0
C924 C 0.96227 0.95889 0.87303 0.0
C925 C 0.95785 0.95553 0.90338 0.0
C926 C 0.92377 0.96605 0.85946 0.0
C927 C 0.98187 0.92422 0.86158 0.0
C928 C 0.0161 0.93383 0.84983 0.0
C929 C 0.04007 0.90603 0.83919 0.0
C930 C 0.02846 0.86761 0.84031 0.0
C931 C 0.99295 0.85754 0.85149 0.0
C932 C 0.96953 0.88627 0.86225 0.0
H933 H 0.47548 0.05755 0.38447 0.0
H934 H 0.44175 0.94936 0.34958 0.0
H935 H 0.50884 0.92922 0.34904 0.0
H936 H 0.55521 0.0711 0.34451 0.0
H937 H 0.58331 0.09327 0.37017 0.0
H938 H 0.53237 0.09672 0.37113 0.0
H939 H 0.53216 0.06771 0.41859 0.0
H940 H 0.58321 0.06401 0.41772 0.0
H941 H 0.55473 0.02232 0.4244 0.0
H942 H 0.5815 0.92279 0.34954 0.0
H943 H 0.65147 0.93323 0.34819 0.0
H944 H 0.63608 0.04677 0.37974 0.0
C945 C 0.48173 0.02953 0.37672 0.0
C946 C 0.45268 1.00526 0.36703 0.0
C947 C 0.46296 0.96859 0.35744 0.0
C948 C 0.5012 0.95683 0.35701 0.0
C949 C 0.52901 0.98193 0.36625 0.0
C950 C 0.51959 0.01759 0.37585 0.0
C951 C 0.55463 0.04064 0.38267 0.0
C952 C 0.55647 0.0776 0.36612 0.0
C953 C 0.55627 0.04916 0.41263 0.0
C954 C 0.58541 0.0129 0.37466 0.0
C955 C 0.57026 0.97878 0.36579 0.0
C956 C 0.59356 0.94929 0.35667 0.0
C957 C 0.63314 0.95527 0.35606 0.0
C958 C 0.64872 0.99061 0.36406 0.0
C959 C 0.62458 0.01941 0.3738 0.0
H960 H 0.48294 0.14868 0.87862 0.0
H961 H 0.57402 0.14977 0.82046 0.0
H962 H 0.58349 0.081 0.82695 0.0
H963 H 0.52707 0.07796 0.92321 0.0
H964 H 0.48264 0.05502 0.93118 0.0
H965 H 0.48357 0.10507 0.92291 0.0
H966 H 0.43423 0.09337 0.88561 0.0
H967 H 0.43323 0.04331 0.89371 0.0
H968 H 0.44407 0.05841 0.86028 0.0
H969 H 0.58161 0.01188 0.83754 0.0
H970 H 0.56959 0.94626 0.85317 0.0
H971 H 0.48066 0.9878 0.90522 0.0
C972 C 0.50515 0.13447 0.86756 0.0
C973 C 0.52737 0.15475 0.84874 0.0
C974 C 0.55602 0.13494 0.83452 0.0
C975 C 0.56187 0.09581 0.83821 0.0
C976 C 0.53907 0.07653 0.85638 0.0
C977 C 0.51145 0.09506 0.87101 0.0
C978 C 0.49044 0.06694 0.88879 0.0
C979 C 0.49629 0.07684 0.91828 0.0
C980 C 0.44798 0.06543 0.88166 0.0
C981 C 0.51036 0.02986 0.88158 0.0
C982 C 0.53833 0.03623 0.86283 0.0
C983 C 0.55989 0.00654 0.85232 0.0
C984 C 0.55267 0.96929 0.86114 0.0
C985 C 0.52416 0.96179 0.88029 0.0
C986 C 0.50295 0.99267 0.89078 0.0
H987 H 0.37715 0.56823 0.34286 0.0
H988 H 0.35663 0.4502 0.36484 0.0
H989 H 0.42516 0.4418 0.37369 0.0
H990 H 0.46666 0.55246 0.30937 0.0
H991 H 0.48707 0.59655 0.32103 0.0
H992 H 0.43652 0.59287 0.31608 0.0
H993 H 0.42514 0.61378 0.36487 0.0
H994 H 0.47563 0.61745 0.37 0.0
H995 H 0.4474 0.58755 0.3915 0.0
H996 H 0.49615 0.44661 0.38012 0.0
H997 H 0.56375 0.46492 0.38481 0.0
H998 H 0.53679 0.57939 0.35799 0.0
C999 C 0.38702 0.54044 0.34917 0.0
C1000 C 0.36151 0.50984 0.35307 0.0
C1001 C 0.3756 0.47416 0.36195 0.0
C1002 C 0.41448 0.46905 0.36686 0.0
C1003 C 0.4388 0.49989 0.36279 0.0
C1004 C 0.42559 0.53488 0.35415 0.0
C1005 C 0.45737 0.56372 0.35179 0.0
C1006 C 0.46218 0.57718 0.32285 0.0
C1007 C 0.45099 0.59761 0.37067 0.0
C1008 C 0.49055 0.53955 0.36062 0.0
C1009 C 0.47939 0.50276 0.36673 0.0
C1010 C 0.50524 0.47532 0.37533 0.0
C1011 C 0.54352 0.48589 0.37782 0.0
C1012 C 0.55537 0.52358 0.37188 0.0
C1013 C 0.52845 0.55056 0.36308 0.0
H1014 H 0.97808 0.38556 0.82932 0.0
H1015 H 0.08108 0.34885 0.86943 0.0
H1016 H 0.09395 0.41533 0.88244 0.0
H1017 H 0.01613 0.47617 0.80415 0.0
H1018 H 0.97204 0.50124 0.80919 0.0
H1019 H 0.9716 0.4509 0.80193 0.0
H1020 H 0.93262 0.43823 0.84472 0.0
H1021 H 0.93291 0.48846 0.85209 0.0
H1022 H 0.95053 0.4548 0.87625 0.0
H1023 H 0.09386 0.4849 0.89343 0.0
H1024 H 0.08074 0.5531 0.90162 0.0
H1025 H 0.97936 0.54593 0.85305 0.0
C1026 C 0.00375 0.39138 0.8404 0.0
C1027 C 0.02853 0.36153 0.8483 0.0
C1028 C 0.06134 0.37081 0.86334 0.0
C1029 C 0.06908 0.40864 0.87067 0.0
C1030 C 0.04396 0.43715 0.86268 0.0
C1031 C 0.01203 0.42906 0.84778 0.0
C1032 C 0.98891 0.4649 0.8426 0.0
C1033 C 0.98708 0.47382 0.81269 0.0
C1034 C 0.94888 0.46137 0.85464 0.0
C1035 C 0.01257 0.49433 0.85727 0.0
C1036 C 0.04425 0.47762 0.86864 0.0
C1037 C 0.06938 0.49835 0.88439 0.0
C1038 C 0.06167 0.537 0.88899 0.0
C1039 C 0.02924 0.55472 0.87782 0.0
C1040 C 0.00473 0.5332 0.86137 0.0
H1041 H 0.98045 0.03571 0.40116 0.0
H1042 H 0.93766 0.93986 0.3557 0.0
H1043 H 1.00274 0.92564 0.34032 0.0
H1044 H 0.04972 0.06603 0.35321 0.0
H1045 H 0.08486 0.07957 0.37751 0.0
H1046 H 0.03513 0.08149 0.38582 0.0
H1047 H 0.04718 0.03758 0.4264 0.0
H1048 H 0.09696 0.0354 0.41815 0.0
H1049 H 0.06984 0.99201 0.42156 0.0
H1050 H 0.07159 0.92171 0.32986 0.0
H1051 H 0.14004 0.93009 0.32242 0.0
H1052 H 0.13995 0.02968 0.37361 0.0
C1053 C 0.98493 0.01154 0.38816 0.0
C1054 C 0.95393 0.98888 0.37951 0.0
C1055 C 0.96084 0.95786 0.36221 0.0
C1056 C 0.99776 0.9494 0.35359 0.0
C1057 C 0.02761 0.9723 0.36239 0.0
C1058 C 0.02172 1.00288 0.37917 0.0
C1059 C 0.05882 0.02372 0.38474 0.0
C1060 C 0.05701 0.06515 0.37472 0.0
C1061 C 0.06878 0.02207 0.41448 0.0
C1062 C 0.08642 1.00013 0.36836 0.0
C1063 C 0.06765 0.97048 0.35586 0.0
C1064 C 0.08655 0.94494 0.33942 0.0
C1065 C 0.1255 0.95014 0.33518 0.0
C1066 C 0.14548 0.98089 0.34709 0.0
C1067 C 0.12562 0.00584 0.36432 0.0
H1068 H 0.53173 0.37683 0.19089 0.0
H1069 H 0.43967 0.34359 0.13814 0.0
H1070 H 0.42561 0.41136 0.12997 0.0
H1071 H 0.48911 0.46512 0.21702 0.0
H1072 H 0.53411 0.48972 0.2167 0.0
H1073 H 0.53255 0.43888 0.22206 0.0
H1074 H 0.57867 0.42897 0.18251 0.0
H1075 H 0.58031 0.47963 0.177 0.0
H1076 H 0.56656 0.4482 0.15034 0.0
H1077 H 0.42582 0.48374 0.12387 0.0
H1078 H 0.44271 0.55239 0.11917 0.0
H1079 H 0.53719 0.53671 0.17292 0.0
C1080 C 0.50828 0.38329 0.17781 0.0
C1081 C 0.48705 0.35405 0.16518 0.0
C1082 C 0.45639 0.36483 0.14841 0.0
C1083 C 0.44813 0.40352 0.14355 0.0
C1084 C 0.47068 0.43134 0.15558 0.0
C1085 C 0.50012 0.42158 0.1724 0.0
C1086 C 0.52269 0.45637 0.18081 0.0
C1087 C 0.5194 0.4629 0.21094 0.0
C1088 C 0.56452 0.45308 0.17213 0.0
C1089 C 0.50217 0.48722 0.16542 0.0
C1090 C 0.47165 0.47248 0.15144 0.0
C1091 C 0.44936 0.49555 0.13499 0.0
C1092 C 0.45897 0.53439 0.13247 0.0
C1093 C 0.49084 0.54944 0.14594 0.0
C1094 C 0.51236 0.52567 0.16279 0.0
H1095 H 0.14258 0.44994 0.61809 0.0
H1096 H 0.16995 0.5311 0.68006 0.0
H1097 H 0.10168 0.54859 0.68341 0.0
H1098 H 0.0718 0.50757 0.58587 0.0
H1099 H 0.04231 0.46734 0.57734 0.0
H1100 H 0.0929 0.46138 0.58053 0.0
H1101 H 0.08222 0.40768 0.61523 0.0
H1102 H 0.03159 0.41355 0.61222 0.0
H1103 H 0.05396 0.41722 0.64436 0.0
H1104 H 0.02843 0.55447 0.68082 0.0
H1105 H 0.95971 0.55281 0.66948 0.0
H1106 H 0.98271 0.4696 0.60799 0.0
C1107 C 0.13421 0.4712 0.63253 0.0
C1108 C 0.16147 0.48882 0.6491 0.0
C1109 C 0.14948 0.51725 0.66722 0.0
C1110 C 0.11077 0.52718 0.66931 0.0
C1111 C 0.08453 0.50879 0.65285 0.0
C1112 C 0.096 0.48175 0.63456 0.0
C1113 C 0.06281 0.46689 0.61848 0.0
C1114 C 0.06776 0.47638 0.5888 0.0
C1115 C 0.05733 0.42378 0.62285 0.0
C1116 C 0.03062 0.48948 0.63063 0.0
C1117 C 0.04343 0.51329 0.65062 0.0
C1118 C 0.01829 0.53612 0.66505 0.0
C1119 C 0.97931 0.53488 0.65861 0.0
C1120 C 0.96595 0.51139 0.63769 0.0
C1121 C 0.99212 0.48833 0.62376 0.0
H1122 H 0.96828 0.99175 0.11644 0.0
H1123 H 0.05461 0.94806 0.17014 0.0
H1124 H 0.0788 0.01314 0.17668 0.0
H1125 H 0.02627 0.06874 0.08703 0.0
H1126 H 0.98697 0.1016 0.08563 0.0
H1127 H 0.97855 0.05102 0.08283 0.0
H1128 H 0.93137 0.05412 0.12228 0.0
H1129 H 0.93958 0.10463 0.12516 0.0
H1130 H 0.94687 0.07398 0.15351 0.0
H1131 H 0.08972 0.08301 0.18127 0.0
H1132 H 0.0869 0.15341 0.18311 0.0
H1133 H 0.99441 0.15324 0.12635 0.0
C1134 C 0.99245 0.99573 0.12942 0.0
C1135 C 0.00955 0.96433 0.14261 0.0
C1136 C 0.04128 0.97113 0.15935 0.0
C1137 C 0.05521 0.0082 0.16331 0.0
C1138 C 0.03737 0.03838 0.15031 0.0
C1139 C 0.00679 0.03263 0.13359 0.0
C1140 C 0.99154 0.07036 0.1232 0.0
C1141 C 0.99611 0.07308 0.09287 0.0
C1142 C 0.94988 0.0761 0.13155 0.0
C1143 C 0.01768 0.09825 0.13729 0.0
C1144 C 0.04406 0.07904 0.15268 0.0
C1145 C 0.06961 0.09834 0.16899 0.0
C1146 C 0.06779 0.13824 0.16996 0.0
C1147 C 0.0408 0.15856 0.15464 0.0
C1148 C 0.01589 0.13832 0.13772 0.0
H1149 H 0.34014 0.02306 0.62164 0.0
H1150 H 0.33501 0.92817 0.67716 0.0
H1151 H 0.40424 0.92159 0.67506 0.0
H1152 H 0.41739 0.98275 0.58081 0.0
H1153 H 0.43965 0.02835 0.57504 0.0
H1154 H 0.38904 0.02554 0.58015 0.0
H1155 H 0.39444 0.07389 0.61881 0.0
H1156 H 0.44506 0.0767 0.61392 0.0
H1157 H 0.42622 0.06404 0.64608 0.0
H1158 H 0.47405 0.92695 0.66965 0.0
H1159 H 0.54073 0.94129 0.65836 0.0
H1160 H 0.50322 0.0307 0.60473 0.0
C1161 C 0.35357 1.00062 0.63306 0.0
C1162 C 0.33178 0.97661 0.64997 0.0
C1163 C 0.35074 0.94767 0.66462 0.0
C1164 C 0.39023 0.94344 0.66343 0.0
C1165 C 0.41089 0.96802 0.64722 0.0
C1166 C 0.39337 0.99577 0.632 0.0
C1167 C 0.42287 0.01841 0.61639 0.0
C1168 C 0.41687 0.01346 0.58631 0.0
C1169 C 0.42209 0.06077 0.62428 0.0
C1170 C 0.45946 0.99927 0.62556 0.0
C1171 C 0.45169 0.97036 0.64343 0.0
C1172 C 0.48053 0.94933 0.65552 0.0
C1173 C 0.51839 0.95786 0.64913 0.0
C1174 C 0.52737 0.98704 0.63066 0.0
C1175 C 0.49731 0.0079 0.61866 0.0
H1176 H 0.84273 0.27284 0.09593 0.0
H1177 H 0.86811 0.25705 0.17972 0.0
H1178 H 0.80293 0.23424 0.18744 0.0
H1179 H 0.7479 0.3069 0.10477 0.0
H1180 H 0.7286 0.28261 0.07623 0.0
H1181 H 0.77789 0.29643 0.07666 0.0
H1182 H 0.79767 0.2265 0.06753 0.0
H1183 H 0.7484 0.21248 0.06702 0.0
H1184 H 0.78108 0.18913 0.08931 0.0
H1185 H 0.73558 0.21602 0.18697 0.0
H1186 H 0.66836 0.2025 0.17846 0.0
H1187 H 0.68483 0.22768 0.09459 0.0
C1188 C 0.83454 0.26425 0.11582 0.0
C1189 C 0.86033 0.26713 0.1373 0.0
C1190 C 0.84861 0.2558 0.16308 0.0
C1191 C 0.81174 0.24253 0.16764 0.0
C1192 C 0.78687 0.24055 0.14621 0.0
C1193 C 0.79758 0.25095 0.12078 0.0
C1194 C 0.76456 0.2468 0.10155 0.0
C1195 C 0.75413 0.28549 0.08908 0.0
C1196 C 0.77347 0.21695 0.08008 0.0
C1197 C 0.73368 0.23285 0.12028 0.0
C1198 C 0.74745 0.22934 0.14588 0.0
C1199 C 0.72451 0.21807 0.16695 0.0
C1200 C 0.68633 0.21011 0.16181 0.0
C1201 C 0.67125 0.21319 0.13572 0.0
C1202 C 0.69542 0.22484 0.1147 0.0
H1203 H 0.26206 0.66985 0.57663 0.0
H1204 H 0.20274 0.62688 0.64598 0.0
H1205 H 0.1683 0.68781 0.65006 0.0
H1206 H 0.27832 0.75978 0.60021 0.0
H1207 H 0.27075 0.78552 0.56962 0.0
H1208 H 0.28577 0.73652 0.56869 0.0
H1209 H 0.22766 0.71899 0.53956 0.0
H1210 H 0.21267 0.76816 0.54007 0.0
H1211 H 0.18056 0.7311 0.55077 0.0
H1212 H 0.15092 0.75497 0.65227 0.0
H1213 H 0.14581 0.82402 0.65054 0.0
H1214 H 0.2109 0.82527 0.57685 0.0
C1215 C 0.24072 0.67304 0.59197 0.0
C1216 C 0.2345 0.64391 0.61088 0.0
C1217 C 0.20739 0.64902 0.63126 0.0
C1218 C 0.18774 0.68341 0.63368 0.0
C1219 C 0.19534 0.71224 0.61538 0.0
C1220 C 0.22063 0.7074 0.59461 0.0
C1221 C 0.22582 0.7444 0.57926 0.0
C1222 C 0.26764 0.7573 0.57948 0.0
C1223 C 0.21077 0.74042 0.55072 0.0
C1224 C 0.20104 0.77102 0.59552 0.0
C1225 C 0.18362 0.75162 0.61608 0.0
C1226 C 0.16303 0.77035 0.63562 0.0
C1227 C 0.16002 0.81 0.63422 0.0
C1228 C 0.17682 0.831 0.61303 0.0
C1229 C 0.19732 0.81074 0.59327 0.0
H1230 H 0.83896 0.23476 0.85759 0.0
H1231 H 0.8682 0.2391 0.94132 0.0
H1232 H 0.80139 0.25543 0.95213 0.0
H1233 H 0.77537 0.31268 0.85744 0.0
H1234 H 0.74319 0.29124 0.83391 0.0
H1235 H 0.79284 0.27908 0.83326 0.0
H1236 H 0.77584 0.20737 0.83817 0.0
H1237 H 0.7261 0.21928 0.83869 0.0
H1238 H 0.74648 0.19206 0.86556 0.0
H1239 H 0.73038 0.27137 0.95313 0.0
H1240 H 0.66287 0.2872 0.94407 0.0
H1241 H 0.68265 0.27123 0.8597 0.0
C1242 C 0.83129 0.23851 0.87827 0.0
C1243 C 0.85859 0.23525 0.89866 0.0
C1244 C 0.84762 0.24152 0.9254 0.0
C1245 C 0.80979 0.25063 0.93171 0.0
C1246 C 0.78355 0.25345 0.91101 0.0
C1247 C 0.79399 0.24759 0.88484 0.0
C1248 C 0.761 0.25297 0.86606 0.0
C1249 C 0.76857 0.28596 0.84653 0.0
C1250 C 0.75182 0.2157 0.85126 0.0
C1251 C 0.73023 0.26301 0.88568 0.0
C1252 C 0.7435 0.26302 0.91154 0.0
C1253 C 0.71975 0.27147 0.93294 0.0
C1254 C 0.68153 0.28029 0.92765 0.0
C1255 C 0.66779 0.28085 0.90118 0.0
C1256 C 0.69254 0.27179 0.8801 0.0
H1257 H 0.27375 0.82818 0.354 0.0
H1258 H 0.28861 0.85543 0.4375 0.0
H1259 H 0.27031 0.7894 0.44949 0.0
H1260 H 0.19298 0.76939 0.36141 0.0
H1261 H 0.20696 0.73596 0.33604 0.0
H1262 H 0.22241 0.78486 0.3341 0.0
H1263 H 0.2927 0.76298 0.33195 0.0
H1264 H 0.27743 0.71398 0.3335 0.0
H1265 H 0.31105 0.73188 0.35748 0.0
H1266 H 0.24889 0.72005 0.45205 0.0
H1267 H 0.22801 0.65332 0.44478 0.0
H1268 H 0.22907 0.67289 0.35954 0.0
C1269 C 0.27398 0.82016 0.3748 0.0
C1270 C 0.28287 0.84692 0.39481 0.0
C1271 C 0.28174 0.83541 0.42184 0.0
C1272 C 0.27147 0.79799 0.42883 0.0
C1273 C 0.26242 0.77248 0.40855 0.0
C1274 C 0.26383 0.7831 0.38209 0.0
C1275 C 0.25235 0.75068 0.36403 0.0
C1276 C 0.21655 0.76085 0.34796 0.0
C1277 C 0.28535 0.7392 0.34567 0.0
C1278 C 0.24412 0.72011 0.38443 0.0
C1279 C 0.25003 0.73307 0.41002 0.0
C1280 C 0.24425 0.70959 0.43208 0.0
C1281 C 0.23246 0.67178 0.42777 0.0
C1282 C 0.22649 0.65797 0.40163 0.0
C1283 C 0.23244 0.6827 0.37981 0.0
H1284 H 0.16248 0.77535 0.86916 0.0
H1285 H 0.1421 0.74457 0.95152 0.0
H1286 H 0.20881 0.76084 0.96238 0.0
H1287 H 0.25232 0.73377 0.86459 0.0
H1288 H 0.27171 0.76993 0.84296 0.0
H1289 H 0.22154 0.76022 0.84265 0.0
H1290 H 0.2076 0.83142 0.85263 0.0
H1291 H 0.25783 0.84137 0.85296 0.0
H1292 H 0.22896 0.85364 0.88128 0.0
H1293 H 0.2797 0.77526 0.96302 0.0
H1294 H 0.34769 0.78734 0.95355 0.0
H1295 H 0.32035 0.80568 0.87035 0.0
C1296 C 0.17191 0.77222 0.88954 0.0
C1297 C 0.14717 0.75858 0.90949 0.0
C1298 C 0.16051 0.75536 0.93598 0.0
C1299 C 0.19835 0.76439 0.94229 0.0
C1300 C 0.22226 0.77683 0.92192 0.0
C1301 C 0.20939 0.78091 0.89611 0.0
C1302 C 0.24099 0.79249 0.87744 0.0
C1303 C 0.24699 0.7623 0.85564 0.0
C1304 C 0.23338 0.83209 0.86538 0.0
C1305 C 0.27395 0.79355 0.89663 0.0
C1306 C 0.26268 0.78479 0.92225 0.0
C1307 C 0.28875 0.78248 0.94307 0.0
C1308 C 0.3273 0.78913 0.93747 0.0
C1309 C 0.33935 0.79777 0.91125 0.0
C1310 C 0.31208 0.80014 0.89073 0.0
H1311 H 0.76402 0.17957 0.37044 0.0
H1312 H 0.75953 0.15687 0.45521 0.0
H1313 H 0.73832 0.22328 0.46308 0.0
H1314 H 0.8007 0.27419 0.37492 0.0
H1315 H 0.77329 0.29164 0.34718 0.0
H1316 H 0.78691 0.2422 0.34858 0.0
H1317 H 0.71623 0.2223 0.34398 0.0
H1318 H 0.70237 0.27173 0.34279 0.0
H1319 H 0.68183 0.24036 0.36733 0.0
H1320 H 0.71987 0.29338 0.46143 0.0
H1321 H 0.70573 0.36079 0.45044 0.0
H1322 H 0.72291 0.33623 0.36678 0.0
C1323 C 0.75892 0.1886 0.39071 0.0
C1324 C 0.76371 0.16316 0.41225 0.0
C1325 C 0.75589 0.17589 0.43841 0.0
C1326 C 0.74391 0.21352 0.44306 0.0
C1327 C 0.73963 0.23788 0.4213 0.0
C1328 C 0.74686 0.22583 0.39565 0.0
C1329 C 0.7406 0.25749 0.37569 0.0
C1330 C 0.77758 0.26693 0.36072 0.0
C1331 C 0.70833 0.24735 0.35631 0.0
C1332 C 0.72916 0.2895 0.3941 0.0
C1333 C 0.72861 0.27772 0.42033 0.0
C1334 C 0.72 0.30283 0.44094 0.0
C1335 C 0.71211 0.34103 0.43453 0.0
C1336 C 0.71284 0.35367 0.40775 0.0
C1337 C 0.72121 0.32732 0.38737 0.0
H1338 H 0.33038 0.74405 0.1594 0.0
H1339 H 0.3488 0.71452 0.07652 0.0
H1340 H 0.28259 0.73259 0.06638 0.0
H1341 H 0.23601 0.70477 0.16309 0.0
H1342 H 0.2195 0.7412 0.18554 0.0
H1343 H 0.26875 0.72744 0.18568 0.0
H1344 H 0.2882 0.79793 0.1777 0.0
H1345 H 0.23897 0.81183 0.1772 0.0
H1346 H 0.26927 0.82318 0.1494 0.0
H1347 H 0.2139 0.7551 0.06545 0.0
H1348 H 0.14807 0.77583 0.07434 0.0
H1349 H 0.17459 0.78383 0.15855 0.0
C1350 C 0.32059 0.74068 0.13914 0.0
C1351 C 0.34513 0.72785 0.11879 0.0
C1352 C 0.33094 0.72488 0.09245 0.0
C1353 C 0.29326 0.73488 0.08649 0.0
C1354 C 0.27 0.74745 0.10711 0.0
C1355 C 0.28309 0.74991 0.13294 0.0
C1356 C 0.25226 0.76302 0.15171 0.0
C1357 C 0.24362 0.73227 0.17274 0.0
C1358 C 0.26282 0.80126 0.16476 0.0
C1359 C 0.21969 0.76764 0.13242 0.0
C1360 C 0.23045 0.75892 0.10674 0.0
C1361 C 0.20509 0.76168 0.08554 0.0
C1362 C 0.16767 0.77329 0.09083 0.0
C1363 C 0.15583 0.78159 0.11717 0.0
C1364 C 0.18251 0.77863 0.13809 0.0
H1365 H 0.73633 0.17394 0.64163 0.0
H1366 H 0.70642 0.15636 0.5589 0.0
H1367 H 0.72791 0.22213 0.5484 0.0
H1368 H 0.70535 0.27002 0.64624 0.0
H1369 H 0.74356 0.28422 0.66795 0.0
H1370 H 0.72695 0.23565 0.66822 0.0
H1371 H 0.79538 0.21203 0.65855 0.0
H1372 H 0.81217 0.26059 0.6581 0.0
H1373 H 0.8204 0.23006 0.62988 0.0
H1374 H 0.75026 0.29167 0.54795 0.0
H1375 H 0.77258 0.35743 0.5574 0.0
H1376 H 0.78715 0.32717 0.64045 0.0
C1377 C 0.73402 0.18397 0.62131 0.0
C1378 C 0.71938 0.1603 0.60111 0.0
C1379 C 0.71764 0.17414 0.57465 0.0
C1380 C 0.72969 0.21139 0.56855 0.0
C1381 C 0.74371 0.23411 0.58909 0.0
C1382 C 0.74605 0.22073 0.61491 0.0
C1383 C 0.76174 0.25055 0.63355 0.0
C1384 C 0.73266 0.26071 0.65526 0.0
C1385 C 0.79967 0.23752 0.64573 0.0
C1386 C 0.76746 0.28314 0.61432 0.0
C1387 C 0.75703 0.2733 0.58874 0.0
C1388 C 0.75877 0.29954 0.56788 0.0
C1389 C 0.77133 0.33679 0.57343 0.0
C1390 C 0.78207 0.34724 0.59958 0.0
C1391 C 0.78013 0.31985 0.62012 0.0
H1392 H 0.32011 0.04965 0.25507 0.0
H1393 H 0.31768 0.12782 0.32172 0.0
H1394 H 0.34176 0.17939 0.29254 0.0
H1395 H 0.40447 0.07646 0.22897 0.0
H1396 H 0.39028 0.07134 0.19469 0.0
H1397 H 0.36655 0.04431 0.21993 0.0
H1398 H 0.30264 0.07271 0.20289 0.0
H1399 H 0.3277 0.10076 0.17843 0.0
H1400 H 0.29652 0.12375 0.20186 0.0
H1401 H 0.37859 0.21738 0.25922 0.0
H1402 H 0.42379 0.23884 0.22472 0.0
H1403 H 0.40058 0.1372 0.1788 0.0
C1404 C 0.32351 0.07797 0.26332 0.0
C1405 C 0.31697 0.08481 0.29063 0.0
C1406 C 0.32207 0.12207 0.30079 0.0
C1407 C 0.33573 0.15152 0.28433 0.0
C1408 C 0.34332 0.1434 0.25765 0.0
C1409 C 0.33675 0.10762 0.24711 0.0
C1410 C 0.35089 0.10496 0.21869 0.0
C1411 C 0.37981 0.07237 0.21546 0.0
C1412 C 0.31743 0.10028 0.19933 0.0
C1413 C 0.36935 0.14379 0.21552 0.0
C1414 C 0.36375 0.16592 0.238 0.0
C1415 C 0.38205 0.2009 0.24121 0.0
C1416 C 0.40761 0.21294 0.2215 0.0
C1417 C 0.41452 0.19025 0.19879 0.0
C1418 C 0.39428 0.15585 0.19537 0.0
H1419 H 0.41568 0.38491 0.81666 0.0
H1420 H 0.45414 0.2833 0.77614 0.0
H1421 H 0.41714 0.3016 0.73628 0.0
H1422 H 0.31847 0.39117 0.78413 0.0
H1423 H 0.32155 0.44245 0.78243 0.0
H1424 H 0.34412 0.4171 0.80934 0.0
H1425 H 0.40803 0.44956 0.79749 0.0
H1426 H 0.38604 0.47438 0.77027 0.0
H1427 H 0.42691 0.44464 0.76435 0.0
H1428 H 0.38528 0.33642 0.6986 0.0
H1429 H 0.3578 0.38326 0.66706 0.0
H1430 H 0.34065 0.46234 0.73227 0.0
C1431 C 0.41448 0.36564 0.79986 0.0
C1432 C 0.4364 0.33207 0.79959 0.0
C1433 C 0.43633 0.30848 0.77682 0.0
C1434 C 0.41561 0.31878 0.7541 0.0
C1435 C 0.39531 0.35289 0.7545 0.0
C1436 C 0.39414 0.37573 0.77695 0.0
C1437 C 0.37394 0.41298 0.77127 0.0
C1438 C 0.33734 0.41609 0.78777 0.0
C1439 C 0.40032 0.44739 0.77612 0.0
C1440 C 0.36519 0.4081 0.74198 0.0
C1441 C 0.37737 0.37315 0.73267 0.0
C1442 C 0.37489 0.36356 0.70578 0.0
C1443 C 0.35944 0.39037 0.68798 0.0
C1444 C 0.34682 0.42632 0.69718 0.0
C1445 C 0.34952 0.43491 0.72459 0.0
H1446 H 0.17739 0.48199 0.26602 0.0
H1447 H 0.21191 0.38522 0.31409 0.0
H1448 H 0.19572 0.34187 0.27676 0.0
H1449 H 0.09724 0.44148 0.24136 0.0
H1450 H 0.10014 0.46358 0.20903 0.0
H1451 H 0.12168 0.48633 0.23718 0.0
H1452 H 0.18634 0.48765 0.21244 0.0
H1453 H 0.16489 0.46444 0.1842 0.0
H1454 H 0.20615 0.44385 0.19984 0.0
H1455 H 0.16668 0.30901 0.2363 0.0
H1456 H 0.12353 0.29038 0.19951 0.0
H1457 H 0.1072 0.40921 0.17952 0.0
C1458 C 0.18253 0.45176 0.26861 0.0
C1459 C 0.19612 0.43699 0.29295 0.0
C1460 C 0.20183 0.39719 0.29553 0.0
C1461 C 0.19285 0.37242 0.27438 0.0
C1462 C 0.17854 0.38802 0.2508 0.0
C1463 C 0.17352 0.42691 0.24793 0.0
C1464 C 0.15321 0.43667 0.22232 0.0
C1465 C 0.11587 0.45824 0.22782 0.0
C1466 C 0.17921 0.4595 0.20359 0.0
C1467 C 0.14588 0.39711 0.21163 0.0
C1468 C 0.16156 0.36931 0.22785 0.0
C1469 C 0.15517 0.33055 0.22315 0.0
C1470 C 0.13095 0.32015 0.2021 0.0
C1471 C 0.11325 0.34847 0.18637 0.0
C1472 C 0.12171 0.38717 0.19073 0.0
H1473 H 0.04263 0.18048 0.76024 0.0
H1474 H 0.13264 0.17901 0.81914 0.0
H1475 H 0.17719 0.15444 0.78503 0.0
H1476 H 0.06319 0.09467 0.73241 0.0
H1477 H 0.05089 0.10812 0.6989 0.0
H1478 H 0.02922 0.13218 0.72641 0.0
H1479 H 0.05273 0.19701 0.70756 0.0
H1480 H 0.07496 0.17273 0.68009 0.0
H1481 H 0.10262 0.20393 0.70099 0.0
H1482 H 0.20823 0.11999 0.74667 0.0
H1483 H 0.22175 0.07672 0.70899 0.0
H1484 H 0.11142 0.10135 0.67542 0.0
C1485 C 0.07196 0.17594 0.76592 0.0
C1486 C 0.08422 0.18178 0.79236 0.0
C1487 C 0.12271 0.17502 0.79895 0.0
C1488 C 0.14819 0.1612 0.77966 0.0
C1489 C 0.13478 0.1548 0.75387 0.0
C1490 C 0.0975 0.16218 0.74702 0.0
C1491 C 0.08855 0.14873 0.71912 0.0
C1492 C 0.05609 0.11916 0.71925 0.0
C1493 C 0.07917 0.18263 0.70086 0.0
C1494 C 0.12611 0.13085 0.71163 0.0
C1495 C 0.15276 0.13535 0.73167 0.0
C1496 C 0.18805 0.11736 0.73054 0.0
C1497 C 0.19565 0.09308 0.709 0.0
C1498 C 0.16817 0.08719 0.68893 0.0
C1499 C 0.13351 0.10709 0.68988 0.0
H1500 H 0.64159 0.97453 0.73771 0.0
H1501 H 0.65946 0.88434 0.68013 0.0
H1502 H 0.64348 0.83629 0.71473 0.0
H1503 H 0.67744 0.92309 0.79689 0.0
H1504 H 0.64163 0.94395 0.81796 0.0
H1505 H 0.65947 0.97014 0.78972 0.0
H1506 H 0.59083 0.97801 0.77192 0.0
H1507 H 0.57289 0.95209 0.80006 0.0
H1508 H 0.56181 0.9362 0.76689 0.0
H1509 H 0.61658 0.79928 0.75436 0.0
H1510 H 0.57972 0.77794 0.79371 0.0
H1511 H 0.58246 0.89258 0.82504 0.0
C1512 C 0.6428 0.94465 0.73236 0.0
C1513 C 0.65177 0.93317 0.70617 0.0
C1514 C 0.65282 0.89377 0.70009 0.0
C1515 C 0.64393 0.86633 0.71966 0.0
C1516 C 0.63467 0.8788 0.74526 0.0
C1517 C 0.6343 0.91715 0.75157 0.0
C1518 C 0.62023 0.92386 0.7796 0.0
C1519 C 0.65158 0.94128 0.79707 0.0
C1520 C 0.58432 0.94899 0.77959 0.0
C1521 C 0.61142 0.88337 0.78797 0.0
C1522 C 0.62034 0.85759 0.7681 0.0
C1523 C 0.6106 0.81906 0.77031 0.0
C1524 C 0.59003 0.80705 0.79282 0.0
C1525 C 0.57974 0.83341 0.81281 0.0
C1526 C 0.59157 0.87165 0.81064 0.0
H1527 H 0.55411 0.66648 0.24591 0.0
H1528 H 0.63135 0.67547 0.17904 0.0
H1529 H 0.68477 0.65644 0.20836 0.0
H1530 H 0.62237 0.70027 0.29783 0.0
H1531 H 0.60356 0.66738 0.32209 0.0
H1532 H 0.57293 0.68686 0.29676 0.0
H1533 H 0.55417 0.61848 0.28219 0.0
H1534 H 0.58444 0.59898 0.30752 0.0
H1535 H 0.59094 0.58506 0.27333 0.0
H1536 H 0.72654 0.62522 0.24294 0.0
H1537 H 0.75316 0.58671 0.2798 0.0
H1538 H 0.64987 0.60295 0.32493 0.0
C1539 C 0.58241 0.66521 0.23751 0.0
C1540 C 0.58867 0.67237 0.21019 0.0
C1541 C 0.62603 0.67034 0.19995 0.0
C1542 C 0.65648 0.65961 0.21649 0.0
C1543 C 0.64913 0.65191 0.24328 0.0
C1544 C 0.613 0.65514 0.25377 0.0
C1545 C 0.6118 0.64261 0.28261 0.0
C1546 C 0.6021 0.6763 0.3009 0.0
C1547 C 0.58371 0.60931 0.28662 0.0
C1548 C 0.65253 0.62998 0.28644 0.0
C1549 C 0.67377 0.63588 0.26361 0.0
C1550 C 0.71064 0.62173 0.2612 0.0
C1551 C 0.72564 0.60007 0.28224 0.0
C1552 C 0.70409 0.59336 0.3055 0.0
C1553 C 0.66759 0.60947 0.30791 0.0
H1554 H 0.88091 0.59418 0.69303 0.0
H1555 H 0.78465 0.54826 0.73604 0.0
H1556 H 0.80272 0.58582 0.77568 0.0
H1557 H 0.94364 0.58495 0.74435 0.0
H1558 H 0.97078 0.62759 0.73785 0.0
H1559 H 0.94603 0.60429 0.71115 0.0
H1560 H 0.91005 0.66683 0.70025 0.0
H1561 H 0.93516 0.69062 0.72672 0.0
H1562 H 0.88395 0.69088 0.7261 0.0
H1563 H 0.83608 0.62105 0.81232 0.0
H1564 H 0.88218 0.65134 0.84295 0.0
H1565 H 0.9581 0.67195 0.77645 0.0
C1566 C 0.86276 0.59364 0.71042 0.0
C1567 C 0.83079 0.56949 0.71144 0.0
C1568 C 0.80872 0.56751 0.73488 0.0
C1569 C 0.81881 0.58864 0.75745 0.0
C1570 C 0.85133 0.61127 0.75627 0.0
C1571 C 0.87291 0.61407 0.73331 0.0
C1572 C 0.90909 0.63635 0.73827 0.0
C1573 C 0.94445 0.61182 0.73258 0.0
C1574 C 0.90957 0.67337 0.72186 0.0
C1575 C 0.90501 0.6446 0.7677 0.0
C1576 C 0.87127 0.63046 0.77766 0.0
C1577 C 0.86235 0.63279 0.80467 0.0
C1578 C 0.88871 0.64992 0.82194 0.0
C1579 C 0.92368 0.66406 0.81213 0.0
C1580 C 0.93153 0.66163 0.7846 0.0
H1581 H 0.96202 0.84646 0.24925 0.0
H1582 H 0.87559 0.83014 0.18882 0.0
H1583 H 0.8266 0.85244 0.22059 0.0
H1584 H 0.90314 0.82008 0.30797 0.0
H1585 H 0.92502 0.85647 0.32815 0.0
H1586 H 0.9518 0.83379 0.30205 0.0
H1587 H 0.96661 0.89998 0.28167 0.0
H1588 H 0.93961 0.92293 0.30734 0.0
H1589 H 0.92798 0.93136 0.27297 0.0
H1590 H 0.78944 0.88636 0.2564 0.0
H1591 H 0.76731 0.92781 0.29306 0.0
H1592 H 0.87732 0.91889 0.33088 0.0
C1593 C 0.93266 0.8467 0.2428 0.0
C1594 C 0.92258 0.83645 0.21654 0.0
C1595 C 0.88391 0.83756 0.20889 0.0
C1596 C 0.85593 0.85014 0.22684 0.0
C1597 C 0.86707 0.86091 0.25243 0.0
C1598 C 0.90454 0.85891 0.26045 0.0
C1599 C 0.90993 0.87537 0.28805 0.0
C1600 C 0.92325 0.84458 0.30772 0.0
C1601 C 0.93765 0.90941 0.28745 0.0
C1602 C 0.86978 0.88807 0.29414 0.0
C1603 C 0.84538 0.87927 0.27341 0.0
C1604 C 0.80797 0.8923 0.27306 0.0
C1605 C 0.79556 0.91565 0.29398 0.0
C1606 C 0.82026 0.92525 0.31513 0.0
C1607 C 0.85747 0.91048 0.31553 0.0
loop_
_geom_bond_atom_site_label_1
_geom_bond_atom_site_label_2
_geom_bond_distance
_geom_bond_site_symmetry_2
_ccdc_geom_bond_type
C0 C1 1.351 . S
C0 N3 1.368 . S
C0 H5 0.931 . S
C1 C0 1.351 . S
C1 N2 1.373 . S
C1 H29 0.930 . S
N2 C1 1.373 . S
N2 C4 1.340 . S
N3 C0 1.368 . S
N3 C4 1.321 . S
N3 Co6 2.135 . S
C4 N2 1.340 . S
C4 N3 1.321 . S
C4 H28 0.930 . S
H5 C0 0.931 . S
Co6 N3 2.135 . S
Co6 N9 2.121 . S
Co6 O14 2.055 . S
Co6 O17 2.039 . S
Co6 N20 2.140 . S
C7 O8 1.227 . S
C7 O17 1.265 . S
O8 C7 1.227 . S
N9 Co6 2.121 . S
N9 C11 1.375 . S
N9 C12 1.313 . S
C10 C11 1.338 . S
C10 N13 1.377 . S
C10 H30 0.930 . S
C11 N9 1.375 . S
C11 C10 1.338 . S
C11 H15 0.931 . S
C12 N9 1.313 . S
C12 N13 1.344 . S
C12 H16 0.930 . S
N13 C10 1.377 . S
N13 C12 1.344 . S
O14 Co6 2.055 . S
O14 C18 1.253 . S
H15 C11 0.931 . S
H16 C12 0.930 . S
O17 Co6 2.039 . S
O17 C7 1.265 . S
C18 O14 1.253 . S
C18 O19 1.227 . S
O19 C18 1.227 . S
N20 Co6 2.140 . S
N20 C23 1.346 . S
N20 C24 1.345 . S
C21 C22 1.387 . S
C21 C25 1.391 . S
C22 C21 1.387 . S
C22 C23 1.369 . S
C22 H31 0.929 . S
C23 N20 1.346 . S
C23 C22 1.369 . S
C23 H26 0.928 . S
C24 N20 1.345 . S
C24 C25 1.371 . S
C24 H27 0.931 . S
C25 C21 1.391 . S
C25 C24 1.371 . S
C25 H32 0.930 . S
H26 C23 0.928 . S
H27 C24 0.931 . S
H28 C4 0.930 . S
H29 C1 0.930 . S
H30 C10 0.930 . S
H31 C22 0.929 . S
H32 C25 0.930 . S
C33 C34 1.351 . S
C33 N36 1.368 . S
C33 H38 0.931 . S
C34 C33 1.351 . S
C34 N35 1.373 . S
C34 H62 0.930 . S
N35 C34 1.373 . S
N35 C37 1.340 . S
N36 C33 1.368 . S
N36 C37 1.321 . S
N36 Co39 2.135 . S
C37 N35 1.340 . S
C37 N36 1.321 . S
C37 H61 0.930 . S
H38 C33 0.931 . S
Co39 N36 2.135 . S
Co39 N42 2.121 . S
Co39 O47 2.055 . S
Co39 O50 2.039 . S
Co39 N53 2.140 . S
C40 O41 1.227 . S
C40 O50 1.265 . S
O41 C40 1.227 . S
N42 Co39 2.121 . S
N42 C44 1.375 . S
N42 C45 1.313 . S
C43 C44 1.338 . S
C43 N46 1.377 . S
C43 H63 0.930 . S
C44 N42 1.375 . S
C44 C43 1.338 . S
C44 H48 0.931 . S
C45 N42 1.313 . S
C45 N46 1.344 . S
C45 H49 0.930 . S
N46 C43 1.377 . S
N46 C45 1.344 . S
O47 Co39 2.055 . S
O47 C51 1.253 . S
H48 C44 0.931 . S
H49 C45 0.930 . S
O50 Co39 2.039 . S
O50 C40 1.265 . S
C51 O47 1.253 . S
C51 O52 1.227 . S
O52 C51 1.227 . S
N53 Co39 2.140 . S
N53 C56 1.346 . S
N53 C57 1.345 . S
C54 C55 1.387 . S
C54 C58 1.391 . S
C55 C54 1.387 . S
C55 C56 1.369 . S
C55 H64 0.929 . S
C56 N53 1.346 . S
C56 C55 1.369 . S
C56 H59 0.928 . S
C57 N53 1.345 . S
C57 C58 1.371 . S
C57 H60 0.931 . S
C58 C54 1.391 . S
C58 C57 1.371 . S
C58 H65 0.930 . S
H59 C56 0.928 . S
H60 C57 0.931 . S
H61 C37 0.930 . S
H62 C34 0.930 . S
H63 C43 0.930 . S
H64 C55 0.929 . S
H65 C58 0.930 . S
C66 C67 1.351 . S
C66 N69 1.368 . S
C66 H71 0.931 . S
C67 C66 1.351 . S
C67 N68 1.373 . S
C67 H95 0.930 . S
N68 C67 1.373 . S
N68 C70 1.340 . S
N69 C66 1.368 . S
N69 C70 1.321 . S
N69 Co72 2.135 . S
C70 N68 1.340 . S
C70 N69 1.321 . S
C70 H94 0.930 . S
H71 C66 0.931 . S
Co72 N69 2.135 . S
Co72 N75 2.121 . S
Co72 O80 2.055 . S
Co72 O83 2.039 . S
Co72 N86 2.140 1_455 S
C73 O74 1.227 1_455 S
C73 O83 1.265 . S
O74 C73 1.227 1_655 S
N75 Co72 2.121 . S
N75 C77 1.375 1_455 S
N75 C78 1.313 . S
C76 C77 1.338 . S
C76 N79 1.377 1_655 S
C76 H96 0.930 . S
C77 N75 1.375 1_655 S
C77 C76 1.338 . S
C77 H81 0.931 . S
C78 N75 1.313 . S
C78 N79 1.344 . S
C78 H82 0.930 . S
N79 C76 1.377 1_455 S
N79 C78 1.344 . S
O80 Co72 2.055 . S
O80 C84 1.253 . S
H81 C77 0.931 . S
H82 C78 0.930 . S
O83 Co72 2.039 . S
O83 C73 1.265 . S
C84 O80 1.253 . S
C84 O85 1.227 . S
O85 C84 1.227 . S
N86 Co72 2.140 1_655 S
N86 C89 1.346 . S
N86 C90 1.345 . S
C87 C88 1.387 . S
C87 C91 1.391 . S
C88 C87 1.387 . S
C88 C89 1.369 . S
C88 H97 0.929 . S
C89 N86 1.346 . S
C89 C88 1.369 . S
C89 H92 0.928 . S
C90 N86 1.345 . S
C90 C91 1.371 . S
C90 H93 0.931 . S
C91 C87 1.391 . S
C91 C90 1.371 . S
C91 H98 0.930 . S
H92 C89 0.928 . S
H93 C90 0.931 . S
H94 C70 0.930 . S
H95 C67 0.930 . S
H96 C76 0.930 . S
H97 C88 0.929 . S
H98 C91 0.930 . S
C99 C100 1.351 . S
C99 N102 1.368 . S
C99 H104 0.931 . S
C100 C99 1.351 . S
C100 N101 1.373 . S
C100 H128 0.930 . S
N101 C100 1.373 . S
N101 C103 1.340 . S
N102 C99 1.368 . S
N102 C103 1.321 . S
N102 Co105 2.135 . S
C103 N101 1.340 . S
C103 N102 1.321 . S
C103 H127 0.930 . S
H104 C99 0.931 . S
Co105 N102 2.135 . S
Co105 N108 2.121 . S
Co105 O113 2.055 . S
Co105 O116 2.039 . S
Co105 N119 2.140 1_545 S
C106 O107 1.227 1_545 S
C106 O116 1.265 . S
O107 C106 1.227 1_565 S
N108 Co105 2.121 . S
N108 C110 1.375 1_545 S
N108 C111 1.313 . S
C109 C110 1.338 . S
C109 N112 1.377 1_565 S
C109 H129 0.930 . S
C110 N108 1.375 1_565 S
C110 C109 1.338 . S
C110 H114 0.931 . S
C111 N108 1.313 . S
C111 N112 1.344 . S
C111 H115 0.930 . S
N112 C109 1.377 1_545 S
N112 C111 1.344 . S
O113 Co105 2.055 . S
O113 C117 1.253 . S
H114 C110 0.931 . S
H115 C111 0.930 . S
O116 Co105 2.039 . S
O116 C106 1.265 . S
C117 O113 1.253 . S
C117 O118 1.227 . S
O118 C117 1.227 . S
N119 Co105 2.140 1_565 S
N119 C122 1.346 . S
N119 C123 1.345 . S
C120 C121 1.387 . S
C120 C124 1.391 . S
C121 C120 1.387 . S
C121 C122 1.369 . S
C121 H130 0.929 . S
C122 N119 1.346 . S
C122 C121 1.369 . S
C122 H125 0.928 . S
C123 N119 1.345 . S
C123 C124 1.371 . S
C123 H126 0.931 . S
C124 C120 1.391 . S
C124 C123 1.371 . S
C124 H131 0.930 . S
H125 C122 0.928 . S
H126 C123 0.931 . S
H127 C103 0.930 . S
H128 C100 0.930 . S
H129 C109 0.930 . S
H130 C121 0.929 . S
H131 C124 0.930 . S
C132 C133 1.351 . S
C132 N135 1.368 . S
C132 H137 0.931 . S
C133 C132 1.351 . S
C133 N134 1.373 . S
C133 H161 0.930 . S
N134 C133 1.373 . S
N134 C136 1.340 . S
N135 C132 1.368 . S
N135 C136 1.321 . S
N135 Co138 2.135 . S
C136 N134 1.340 . S
C136 N135 1.321 . S
C136 H160 0.930 . S
H137 C132 0.931 . S
Co138 N135 2.135 . S
Co138 N141 2.121 . S
Co138 O146 2.055 . S
Co138 O149 2.039 . S
Co138 N152 2.140 . S
C139 O140 1.227 . S
C139 O149 1.265 . S
O140 C139 1.227 . S
N141 Co138 2.121 . S
N141 C143 1.375 . S
N141 C144 1.313 . S
C142 C143 1.338 . S
C142 N145 1.377 . S
C142 H162 0.930 . S
C143 N141 1.375 . S
C143 C142 1.338 . S
C143 H147 0.931 . S
C144 N141 1.313 . S
C144 N145 1.344 . S
C144 H148 0.930 . S
N145 C142 1.377 . S
N145 C144 1.344 . S
O146 Co138 2.055 . S
O146 C150 1.253 . S
H147 C143 0.931 . S
H148 C144 0.930 . S
O149 Co138 2.039 . S
O149 C139 1.265 . S
C150 O146 1.253 . S
C150 O151 1.227 . S
O151 C150 1.227 . S
N152 Co138 2.140 . S
N152 C155 1.346 . S
N152 C156 1.345 . S
C153 C154 1.387 . S
C153 C157 1.391 . S
C154 C153 1.387 . S
C154 C155 1.369 . S
C154 H163 0.929 . S
C155 N152 1.346 . S
C155 C154 1.369 . S
C155 H158 0.928 . S
C156 N152 1.345 . S
C156 C157 1.371 . S
C156 H159 0.931 . S
C157 C153 1.391 . S
C157 C156 1.371 . S
C157 H164 0.930 . S
H158 C155 0.928 . S
H159 C156 0.931 . S
H160 C136 0.930 . S
H161 C133 0.930 . S
H162 C142 0.930 . S
H163 C154 0.929 . S
H164 C157 0.930 . S
C165 C166 1.351 . S
C165 N168 1.368 . S
C165 H170 0.931 . S
C166 C165 1.351 . S
C166 N167 1.373 . S
C166 H194 0.930 . S
N167 C166 1.373 . S
N167 C169 1.340 . S
N168 C165 1.368 . S
N168 C169 1.321 . S
N168 Co171 2.135 . S
C169 N167 1.340 . S
C169 N168 1.321 . S
C169 H193 0.930 . S
H170 C165 0.931 . S
Co171 N168 2.135 . S
Co171 N174 2.121 . S
Co171 O179 2.055 . S
Co171 O182 2.039 . S
Co171 N185 2.140 . S
C172 O173 1.227 . S
C172 O182 1.265 . S
O173 C172 1.227 . S
N174 Co171 2.121 . S
N174 C176 1.375 . S
N174 C177 1.313 . S
C175 C176 1.338 . S
C175 N178 1.377 . S
C175 H195 0.930 . S
C176 N174 1.375 . S
C176 C175 1.338 . S
C176 H180 0.931 . S
C177 N174 1.313 . S
C177 N178 1.344 . S
C177 H181 0.930 . S
N178 C175 1.377 . S
N178 C177 1.344 . S
O179 Co171 2.055 . S
O179 C183 1.253 . S
H180 C176 0.931 . S
H181 C177 0.930 . S
O182 Co171 2.039 . S
O182 C172 1.265 . S
C183 O179 1.253 . S
C183 O184 1.227 . S
O184 C183 1.227 . S
N185 Co171 2.140 . S
N185 C188 1.346 . S
N185 C189 1.345 . S
C186 C187 1.387 . S
C186 C190 1.391 . S
C187 C186 1.387 . S
C187 C188 1.369 . S
C187 H196 0.929 . S
C188 N185 1.346 . S
C188 C187 1.369 . S
C188 H191 0.928 . S
C189 N185 1.345 . S
C189 C190 1.371 . S
C189 H192 0.931 . S
C190 C186 1.391 . S
C190 C189 1.371 . S
C190 H197 0.930 . S
H191 C188 0.928 . S
H192 C189 0.931 . S
H193 C169 0.930 . S
H194 C166 0.930 . S
H195 C175 0.930 . S
H196 C187 0.929 . S
H197 C190 0.930 . S
C198 C199 1.351 . S
C198 N201 1.368 . S
C198 H203 0.931 . S
C199 C198 1.351 . S
C199 N200 1.373 . S
C199 H227 0.930 . S
N200 C199 1.373 . S
N200 C202 1.340 . S
N201 C198 1.368 . S
N201 C202 1.321 . S
N201 Co204 2.135 . S
C202 N200 1.340 . S
C202 N201 1.321 . S
C202 H226 0.930 . S
H203 C198 0.931 . S
Co204 N201 2.135 . S
Co204 N207 2.121 . S
Co204 O212 2.055 . S
Co204 O215 2.039 . S
Co204 N218 2.140 1_455 S
C205 O206 1.227 1_455 S
C205 O215 1.265 . S
O206 C205 1.227 1_655 S
N207 Co204 2.121 . S
N207 C209 1.375 1_455 S
N207 C210 1.313 . S
C208 C209 1.338 . S
C208 N211 1.377 1_655 S
C208 H228 0.930 . S
C209 N207 1.375 1_655 S
C209 C208 1.338 . S
C209 H213 0.931 . S
C210 N207 1.313 . S
C210 N211 1.344 . S
C210 H214 0.930 . S
N211 C208 1.377 1_455 S
N211 C210 1.344 . S
O212 Co204 2.055 . S
O212 C216 1.253 . S
H213 C209 0.931 . S
H214 C210 0.930 . S
O215 Co204 2.039 . S
O215 C205 1.265 . S
C216 O212 1.253 . S
C216 O217 1.227 . S
O217 C216 1.227 . S
N218 Co204 2.140 1_655 S
N218 C221 1.346 . S
N218 C222 1.345 . S
C219 C220 1.387 . S
C219 C223 1.391 . S
C220 C219 1.387 . S
C220 C221 1.369 . S
C220 H229 0.929 . S
C221 N218 1.346 . S
C221 C220 1.369 . S
C221 H224 0.928 . S
C222 N218 1.345 . S
C222 C223 1.371 . S
C222 H225 0.931 . S
C223 C219 1.391 . S
C223 C222 1.371 . S
C223 H230 0.930 . S
H224 C221 0.928 . S
H225 C222 0.931 . S
H226 C202 0.930 . S
H227 C199 0.930 . S
H228 C208 0.930 . S
H229 C220 0.929 . S
H230 C223 0.930 . S
C231 C232 1.351 . S
C231 N234 1.368 . S
C231 H236 0.931 . S
C232 C231 1.351 . S
C232 N233 1.373 . S
C232 H260 0.930 . S
N233 C232 1.373 . S
N233 C235 1.340 . S
N234 C231 1.368 . S
N234 C235 1.321 . S
N234 Co237 2.135 . S
C235 N233 1.340 . S
C235 N234 1.321 . S
C235 H259 0.930 . S
H236 C231 0.931 . S
Co237 N234 2.135 . S
Co237 N240 2.121 . S
Co237 O245 2.055 . S
Co237 O248 2.039 . S
Co237 N251 2.140 1_545 S
C238 O239 1.227 1_545 S
C238 O248 1.265 . S
O239 C238 1.227 1_565 S
N240 Co237 2.121 . S
N240 C242 1.375 1_545 S
N240 C243 1.313 . S
C241 C242 1.338 . S
C241 N244 1.377 1_565 S
C241 H261 0.930 . S
C242 N240 1.375 1_565 S
C242 C241 1.338 . S
C242 H246 0.931 . S
C243 N240 1.313 . S
C243 N244 1.344 . S
C243 H247 0.930 . S
N244 C241 1.377 1_545 S
N244 C243 1.344 . S
O245 Co237 2.055 . S
O245 C249 1.253 . S
H246 C242 0.931 . S
H247 C243 0.930 . S
O248 Co237 2.039 . S
O248 C238 1.265 . S
C249 O245 1.253 . S
C249 O250 1.227 . S
O250 C249 1.227 . S
N251 Co237 2.140 1_565 S
N251 C254 1.346 . S
N251 C255 1.345 . S
C252 C253 1.387 . S
C252 C256 1.391 . S
C253 C252 1.387 . S
C253 C254 1.369 . S
C253 H262 0.929 . S
C254 N251 1.346 . S
C254 C253 1.369 . S
C254 H257 0.928 . S
C255 N251 1.345 . S
C255 C256 1.371 . S
C255 H258 0.931 . S
C256 C252 1.391 . S
C256 C255 1.371 . S
C256 H263 0.930 . S
H257 C254 0.928 . S
H258 C255 0.931 . S
H259 C235 0.930 . S
H260 C232 0.930 . S
H261 C241 0.930 . S
H262 C253 0.929 . S
H263 C256 0.930 . S
C264 C265 1.351 . S
C264 N267 1.368 . S
C264 H269 0.931 . S
C265 C264 1.351 . S
C265 N266 1.373 . S
C265 H293 0.930 . S
N266 C265 1.373 . S
N266 C268 1.340 . S
N267 C264 1.368 . S
N267 C268 1.321 . S
N267 Co270 2.135 . S
C268 N266 1.340 . S
C268 N267 1.321 . S
C268 H292 0.930 . S
H269 C264 0.931 . S
Co270 N267 2.135 . S
Co270 N273 2.121 . S
Co270 O278 2.055 . S
Co270 O281 2.039 . S
Co270 N284 2.140 . S
C271 O272 1.227 . S
C271 O281 1.265 . S
O272 C271 1.227 . S
N273 Co270 2.121 . S
N273 C275 1.375 . S
N273 C276 1.313 . S
C274 C275 1.338 . S
C274 N277 1.377 . S
C274 H294 0.930 . S
C275 N273 1.375 . S
C275 C274 1.338 . S
C275 H279 0.931 . S
C276 N273 1.313 . S
C276 N277 1.344 . S
C276 H280 0.930 . S
N277 C274 1.377 . S
N277 C276 1.344 . S
O278 Co270 2.055 . S
O278 C282 1.253 . S
H279 C275 0.931 . S
H280 C276 0.930 . S
O281 Co270 2.039 . S
O281 C271 1.265 . S
C282 O278 1.253 . S
C282 O283 1.227 . S
O283 C282 1.227 . S
N284 Co270 2.140 . S
N284 C287 1.346 . S
N284 C288 1.345 . S
C285 C286 1.387 . S
C285 C289 1.391 . S
C286 C285 1.387 . S
C286 C287 1.369 . S
C286 H295 0.929 . S
C287 N284 1.346 . S
C287 C286 1.369 . S
C287 H290 0.928 . S
C288 N284 1.345 . S
C288 C289 1.371 . S
C288 H291 0.931 . S
C289 C285 1.391 . S
C289 C288 1.371 . S
C289 H296 0.930 . S
H290 C287 0.928 . S
H291 C288 0.931 . S
H292 C268 0.930 . S
H293 C265 0.930 . S
H294 C274 0.930 . S
H295 C286 0.929 . S
H296 C289 0.930 . S
C297 C298 1.351 . S
C297 N300 1.368 . S
C297 H302 0.931 . S
C298 C297 1.351 . S
C298 N299 1.373 . S
C298 H326 0.930 . S
N299 C298 1.373 . S
N299 C301 1.340 . S
N300 C297 1.368 . S
N300 C301 1.321 . S
N300 Co303 2.135 . S
C301 N299 1.340 . S
C301 N300 1.321 . S
C301 H325 0.930 . S
H302 C297 0.931 . S
Co303 N300 2.135 . S
Co303 N306 2.121 . S
Co303 O311 2.055 . S
Co303 O314 2.039 . S
Co303 N317 2.140 . S
C304 O305 1.227 . S
C304 O314 1.265 . S
O305 C304 1.227 . S
N306 Co303 2.121 . S
N306 C308 1.375 . S
N306 C309 1.313 . S
C307 C308 1.338 . S
C307 N310 1.377 . S
C307 H327 0.930 . S
C308 N306 1.375 . S
C308 C307 1.338 . S
C308 H312 0.931 . S
C309 N306 1.313 . S
C309 N310 1.344 . S
C309 H313 0.930 . S
N310 C307 1.377 . S
N310 C309 1.344 . S
O311 Co303 2.055 . S
O311 C315 1.253 . S
H312 C308 0.931 . S
H313 C309 0.930 . S
O314 Co303 2.039 . S
O314 C304 1.265 . S
C315 O311 1.253 . S
C315 O316 1.227 . S
O316 C315 1.227 . S
N317 Co303 2.140 . S
N317 C320 1.346 . S
N317 C321 1.345 . S
C318 C319 1.387 . S
C318 C322 1.391 . S
C319 C318 1.387 . S
C319 C320 1.369 . S
C319 H328 0.929 . S
C320 N317 1.346 . S
C320 C319 1.369 . S
C320 H323 0.928 . S
C321 N317 1.345 . S
C321 C322 1.371 . S
C321 H324 0.931 . S
C322 C318 1.391 . S
C322 C321 1.371 . S
C322 H329 0.930 . S
H323 C320 0.928 . S
H324 C321 0.931 . S
H325 C301 0.930 . S
H326 C298 0.930 . S
H327 C307 0.930 . S
H328 C319 0.929 . S
H329 C322 0.930 . S
C330 C331 1.351 . S
C330 N333 1.368 . S
C330 H335 0.931 . S
C331 C330 1.351 . S
C331 N332 1.373 . S
C331 H359 0.930 . S
N332 C331 1.373 . S
N332 C334 1.340 . S
N333 C330 1.368 . S
N333 C334 1.321 . S
N333 Co336 2.135 . S
C334 N332 1.340 . S
C334 N333 1.321 . S
C334 H358 0.930 . S
H335 C330 0.931 . S
Co336 N333 2.135 . S
Co336 N339 2.121 . S
Co336 O344 2.055 . S
Co336 O347 2.039 . S
Co336 N350 2.140 1_655 S
C337 O338 1.227 1_655 S
C337 O347 1.265 . S
O338 C337 1.227 1_455 S
N339 Co336 2.121 . S
N339 C341 1.375 1_655 S
N339 C342 1.313 . S
C340 C341 1.338 . S
C340 N343 1.377 1_455 S
C340 H360 0.930 . S
C341 N339 1.375 1_455 S
C341 C340 1.338 . S
C341 H345 0.931 . S
C342 N339 1.313 . S
C342 N343 1.344 . S
C342 H346 0.930 . S
N343 C340 1.377 1_655 S
N343 C342 1.344 . S
O344 Co336 2.055 . S
O344 C348 1.253 . S
H345 C341 0.931 . S
H346 C342 0.930 . S
O347 Co336 2.039 . S
O347 C337 1.265 . S
C348 O344 1.253 . S
C348 O349 1.227 . S
O349 C348 1.227 . S
N350 Co336 2.140 1_455 S
N350 C353 1.346 . S
N350 C354 1.345 . S
C351 C352 1.387 . S
C351 C355 1.391 . S
C352 C351 1.387 . S
C352 C353 1.369 . S
C352 H361 0.929 . S
C353 N350 1.346 . S
C353 C352 1.369 . S
C353 H356 0.928 . S
C354 N350 1.345 . S
C354 C355 1.371 . S
C354 H357 0.931 . S
C355 C351 1.391 . S
C355 C354 1.371 . S
C355 H362 0.930 . S
H356 C353 0.928 . S
H357 C354 0.931 . S
H358 C334 0.930 . S
H359 C331 0.930 . S
H360 C340 0.930 . S
H361 C352 0.929 . S
H362 C355 0.930 . S
C363 C364 1.351 . S
C363 N366 1.368 . S
C363 H368 0.931 . S
C364 C363 1.351 . S
C364 N365 1.373 . S
C364 H392 0.930 . S
N365 C364 1.373 . S
N365 C367 1.340 . S
N366 C363 1.368 . S
N366 C367 1.321 . S
N366 Co369 2.135 . S
C367 N365 1.340 . S
C367 N366 1.321 . S
C367 H391 0.930 . S
H368 C363 0.931 . S
Co369 N366 2.135 . S
Co369 N372 2.121 . S
Co369 O377 2.055 . S
Co369 O380 2.039 . S
Co369 N383 2.140 1_565 S
C370 O371 1.227 1_565 S
C370 O380 1.265 . S
O371 C370 1.227 1_545 S
N372 Co369 2.121 . S
N372 C374 1.375 1_565 S
N372 C375 1.313 . S
C373 C374 1.338 . S
C373 N376 1.377 1_545 S
C373 H393 0.930 . S
C374 N372 1.375 1_545 S
C374 C373 1.338 . S
C374 H378 0.931 . S
C375 N372 1.313 . S
C375 N376 1.344 . S
C375 H379 0.930 . S
N376 C373 1.377 1_565 S
N376 C375 1.344 . S
O377 Co369 2.055 . S
O377 C381 1.253 . S
H378 C374 0.931 . S
H379 C375 0.930 . S
O380 Co369 2.039 . S
O380 C370 1.265 . S
C381 O377 1.253 . S
C381 O382 1.227 . S
O382 C381 1.227 . S
N383 Co369 2.140 1_545 S
N383 C386 1.346 . S
N383 C387 1.345 . S
C384 C385 1.387 . S
C384 C388 1.391 . S
C385 C384 1.387 . S
C385 C386 1.369 . S
C385 H394 0.929 . S
C386 N383 1.346 . S
C386 C385 1.369 . S
C386 H389 0.928 . S
C387 N383 1.345 . S
C387 C388 1.371 . S
C387 H390 0.931 . S
C388 C384 1.391 . S
C388 C387 1.371 . S
C388 H395 0.930 . S
H389 C386 0.928 . S
H390 C387 0.931 . S
H391 C367 0.930 . S
H392 C364 0.930 . S
H393 C373 0.930 . S
H394 C385 0.929 . S
H395 C388 0.930 . S
C396 C397 1.351 . S
C396 N399 1.368 . S
C396 H401 0.931 . S
C397 C396 1.351 . S
C397 N398 1.373 . S
C397 H425 0.930 . S
N398 C397 1.373 . S
N398 C400 1.340 . S
N399 C396 1.368 . S
N399 C400 1.321 . S
N399 Co402 2.135 . S
C400 N398 1.340 . S
C400 N399 1.321 . S
C400 H424 0.930 . S
H401 C396 0.931 . S
Co402 N399 2.135 . S
Co402 N405 2.121 . S
Co402 O410 2.055 . S
Co402 O413 2.039 . S
Co402 N416 2.140 . S
C403 O404 1.227 . S
C403 O413 1.265 . S
O404 C403 1.227 . S
N405 Co402 2.121 . S
N405 C407 1.375 . S
N405 C408 1.313 . S
C406 C407 1.338 . S
C406 N409 1.377 . S
C406 H426 0.930 . S
C407 N405 1.375 . S
C407 C406 1.338 . S
C407 H411 0.931 . S
C408 N405 1.313 . S
C408 N409 1.344 . S
C408 H412 0.930 . S
N409 C406 1.377 . S
N409 C408 1.344 . S
O410 Co402 2.055 . S
O410 C414 1.253 . S
H411 C407 0.931 . S
H412 C408 0.930 . S
O413 Co402 2.039 . S
O413 C403 1.265 . S
C414 O410 1.253 . S
C414 O415 1.227 . S
O415 C414 1.227 . S
N416 Co402 2.140 . S
N416 C419 1.346 . S
N416 C420 1.345 . S
C417 C418 1.387 . S
C417 C421 1.391 . S
C418 C417 1.387 . S
C418 C419 1.369 . S
C418 H427 0.929 . S
C419 N416 1.346 . S
C419 C418 1.369 . S
C419 H422 0.928 . S
C420 N416 1.345 . S
C420 C421 1.371 . S
C420 H423 0.931 . S
C421 C417 1.391 . S
C421 C420 1.371 . S
C421 H428 0.930 . S
H422 C419 0.928 . S
H423 C420 0.931 . S
H424 C400 0.930 . S
H425 C397 0.930 . S
H426 C406 0.930 . S
H427 C418 0.929 . S
H428 C421 0.930 . S
C429 C430 1.351 . S
C429 N432 1.368 . S
C429 H434 0.931 . S
C430 C429 1.351 . S
C430 N431 1.373 . S
C430 H458 0.930 . S
N431 C430 1.373 . S
N431 C433 1.340 . S
N432 C429 1.368 . S
N432 C433 1.321 . S
N432 Co435 2.135 . S
C433 N431 1.340 . S
C433 N432 1.321 . S
C433 H457 0.930 . S
H434 C429 0.931 . S
Co435 N432 2.135 . S
Co435 N438 2.121 . S
Co435 O443 2.055 . S
Co435 O446 2.039 . S
Co435 N449 2.140 . S
C436 O437 1.227 . S
C436 O446 1.265 . S
O437 C436 1.227 . S
N438 Co435 2.121 . S
N438 C440 1.375 . S
N438 C441 1.313 . S
C439 C440 1.338 . S
C439 N442 1.377 . S
C439 H459 0.930 . S
C440 N438 1.375 . S
C440 C439 1.338 . S
C440 H444 0.931 . S
C441 N438 1.313 . S
C441 N442 1.344 . S
C441 H445 0.930 . S
N442 C439 1.377 . S
N442 C441 1.344 . S
O443 Co435 2.055 . S
O443 C447 1.253 . S
H444 C440 0.931 . S
H445 C441 0.930 . S
O446 Co435 2.039 . S
O446 C436 1.265 . S
C447 O443 1.253 . S
C447 O448 1.227 . S
O448 C447 1.227 . S
N449 Co435 2.140 . S
N449 C452 1.346 . S
N449 C453 1.345 . S
C450 C451 1.387 . S
C450 C454 1.391 . S
C451 C450 1.387 . S
C451 C452 1.369 . S
C451 H460 0.929 . S
C452 N449 1.346 . S
C452 C451 1.369 . S
C452 H455 0.928 . S
C453 N449 1.345 . S
C453 C454 1.371 . S
C453 H456 0.931 . S
C454 C450 1.391 . S
C454 C453 1.371 . S
C454 H461 0.930 . S
H455 C452 0.928 . S
H456 C453 0.931 . S
H457 C433 0.930 . S
H458 C430 0.930 . S
H459 C439 0.930 . S
H460 C451 0.929 . S
H461 C454 0.930 . S
C462 C463 1.351 . S
C462 N465 1.368 . S
C462 H467 0.931 . S
C463 C462 1.351 . S
C463 N464 1.373 . S
C463 H491 0.930 . S
N464 C463 1.373 . S
N464 C466 1.340 . S
N465 C462 1.368 . S
N465 C466 1.321 . S
N465 Co468 2.135 . S
C466 N464 1.340 . S
C466 N465 1.321 . S
C466 H490 0.930 . S
H467 C462 0.931 . S
Co468 N465 2.135 . S
Co468 N471 2.121 . S
Co468 O476 2.055 . S
Co468 O479 2.039 . S
Co468 N482 2.140 1_655 S
C469 O470 1.227 1_655 S
C469 O479 1.265 . S
O470 C469 1.227 1_455 S
N471 Co468 2.121 . S
N471 C473 1.375 1_655 S
N471 C474 1.313 . S
C472 C473 1.338 . S
C472 N475 1.377 1_455 S
C472 H492 0.930 . S
C473 N471 1.375 1_455 S
C473 C472 1.338 . S
C473 H477 0.931 . S
C474 N471 1.313 . S
C474 N475 1.344 . S
C474 H478 0.930 . S
N475 C472 1.377 1_655 S
N475 C474 1.344 . S
O476 Co468 2.055 . S
O476 C480 1.253 . S
H477 C473 0.931 . S
H478 C474 0.930 . S
O479 Co468 2.039 . S
O479 C469 1.265 . S
C480 O476 1.253 . S
C480 O481 1.227 . S
O481 C480 1.227 . S
N482 Co468 2.140 1_455 S
N482 C485 1.346 . S
N482 C486 1.345 . S
C483 C484 1.387 . S
C483 C487 1.391 . S
C484 C483 1.387 . S
C484 C485 1.369 . S
C484 H493 0.929 . S
C485 N482 1.346 . S
C485 C484 1.369 . S
C485 H488 0.928 . S
C486 N482 1.345 . S
C486 C487 1.371 . S
C486 H489 0.931 . S
C487 C483 1.391 . S
C487 C486 1.371 . S
C487 H494 0.930 . S
H488 C485 0.928 . S
H489 C486 0.931 . S
H490 C466 0.930 . S
H491 C463 0.930 . S
H492 C472 0.930 . S
H493 C484 0.929 . S
H494 C487 0.930 . S
C495 C496 1.351 . S
C495 N498 1.368 . S
C495 H500 0.931 . S
C496 C495 1.351 . S
C496 N497 1.373 . S
C496 H524 0.930 . S
N497 C496 1.373 . S
N497 C499 1.340 . S
N498 C495 1.368 . S
N498 C499 1.321 . S
N498 Co501 2.135 . S
C499 N497 1.340 . S
C499 N498 1.321 . S
C499 H523 0.930 . S
H500 C495 0.931 . S
Co501 N498 2.135 . S
Co501 N504 2.121 . S
Co501 O509 2.055 . S
Co501 O512 2.039 . S
Co501 N515 2.140 1_565 S
C502 O503 1.227 1_565 S
C502 O512 1.265 . S
O503 C502 1.227 1_545 S
N504 Co501 2.121 . S
N504 C506 1.375 1_565 S
N504 C507 1.313 . S
C505 C506 1.338 . S
C505 N508 1.377 1_545 S
C505 H525 0.930 . S
C506 N504 1.375 1_545 S
C506 C505 1.338 . S
C506 H510 0.931 . S
C507 N504 1.313 . S
C507 N508 1.344 . S
C507 H511 0.930 . S
N508 C505 1.377 1_565 S
N508 C507 1.344 . S
O509 Co501 2.055 . S
O509 C513 1.253 . S
H510 C506 0.931 . S
H511 C507 0.930 . S
O512 Co501 2.039 . S
O512 C502 1.265 . S
C513 O509 1.253 . S
C513 O514 1.227 . S
O514 C513 1.227 . S
N515 Co501 2.140 1_545 S
N515 C518 1.346 . S
N515 C519 1.345 . S
C516 C517 1.387 . S
C516 C520 1.391 . S
C517 C516 1.387 . S
C517 C518 1.369 . S
C517 H526 0.929 . S
C518 N515 1.346 . S
C518 C517 1.369 . S
C518 H521 0.928 . S
C519 N515 1.345 . S
C519 C520 1.371 . S
C519 H522 0.931 . S
C520 C516 1.391 . S
C520 C519 1.371 . S
C520 H527 0.930 . S
H521 C518 0.928 . S
H522 C519 0.931 . S
H523 C499 0.930 . S
H524 C496 0.930 . S
H525 C505 0.930 . S
H526 C517 0.929 . S
H527 C520 0.930 . S
H528 C540 0.930 . S
H529 C542 0.930 . S
H530 C543 0.930 . S
H531 C547 0.959 1_556 S
H532 C547 0.959 1_556 S
H533 C547 0.961 . S
H534 C548 0.960 . S
H535 C548 0.961 1_556 S
H536 C548 0.959 . S
H537 C551 0.929 . S
H538 C552 0.931 . S
H539 C554 0.930 . S
C540 H528 0.930 . S
C540 C541 1.399 . S
C540 C545 1.399 . S
C541 C540 1.399 . S
C541 C542 1.376 . S
C542 H529 0.930 . S
C542 C541 1.376 . S
C542 C543 1.388 . S
C543 H530 0.930 . S
C543 C542 1.388 . S
C543 C544 1.390 . S
C544 C543 1.390 . S
C544 C545 1.394 . S
C544 C550 1.465 1_554 S
C545 C540 1.399 . S
C545 C544 1.394 . S
C545 C546 1.516 . S
C546 C545 1.516 . S
C546 C547 1.502 . S
C546 C548 1.561 . S
C546 C549 1.526 1_554 S
C547 H531 0.959 1_554 S
C547 H532 0.959 1_554 S
C547 H533 0.961 . S
C547 C546 1.502 . S
C548 H534 0.960 . S
C548 H535 0.961 1_554 S
C548 H536 0.959 . S
C548 C546 1.561 . S
C549 C546 1.526 1_556 S
C549 C550 1.396 . S
C549 C554 1.390 . S
C550 C544 1.465 1_556 S
C550 C549 1.396 . S
C550 C551 1.399 . S
C551 H537 0.929 . S
C551 C550 1.399 . S
C551 C552 1.385 . S
C552 H538 0.931 . S
C552 C551 1.385 . S
C552 C553 1.389 . S
C553 C552 1.389 . S
C553 C554 1.387 . S
C554 H539 0.930 . S
C554 C549 1.390 . S
C554 C553 1.387 . S
H555 C567 0.930 . S
H556 C569 0.930 . S
H557 C570 0.930 . S
H558 C574 0.959 . S
H559 C574 0.959 . S
H560 C574 0.961 . S
H561 C575 0.960 . S
H562 C575 0.961 . S
H563 C575 0.959 . S
H564 C578 0.929 . S
H565 C579 0.931 . S
H566 C581 0.930 . S
C567 H555 0.930 . S
C567 C568 1.399 . S
C567 C572 1.399 . S
C568 C567 1.399 . S
C568 C569 1.376 . S
C569 H556 0.930 . S
C569 C568 1.376 . S
C569 C570 1.388 . S
C570 H557 0.930 . S
C570 C569 1.388 . S
C570 C571 1.390 . S
C571 C570 1.390 . S
C571 C572 1.394 . S
C571 C577 1.465 . S
C572 C567 1.399 . S
C572 C571 1.394 . S
C572 C573 1.516 . S
C573 C572 1.516 . S
C573 C574 1.502 . S
C573 C575 1.561 . S
C573 C576 1.526 . S
C574 H558 0.959 . S
C574 H559 0.959 . S
C574 H560 0.961 . S
C574 C573 1.502 . S
C575 H561 0.960 . S
C575 H562 0.961 . S
C575 H563 0.959 . S
C575 C573 1.561 . S
C576 C573 1.526 . S
C576 C577 1.396 . S
C576 C581 1.390 . S
C577 C571 1.465 . S
C577 C576 1.396 . S
C577 C578 1.399 . S
C578 H564 0.929 . S
C578 C577 1.399 . S
C578 C579 1.385 . S
C579 H565 0.931 . S
C579 C578 1.385 . S
C579 C580 1.389 . S
C580 C579 1.389 . S
C580 C581 1.387 . S
C581 H566 0.930 . S
C581 C576 1.390 . S
C581 C580 1.387 . S
H582 C594 0.930 . S
H583 C596 0.924 1_655 S
H584 C597 0.930 1_655 S
H585 C601 0.959 1_554 S
H586 C601 0.959 1_554 S
H587 C601 0.961 . S
H588 C602 0.960 . S
H589 C602 0.961 1_554 S
H590 C602 0.959 1_655 S
H591 C605 0.929 1_655 S
H592 C606 0.931 . S
H593 C608 0.930 . S
C594 H582 0.930 . S
C594 C595 1.399 . S
C594 C599 1.399 . S
C595 C594 1.399 . S
C595 C596 1.376 . S
C596 H583 0.924 1_455 S
C596 C595 1.376 . S
C596 C597 1.388 . S
C597 H584 0.930 1_455 S
C597 C596 1.388 . S
C597 C598 1.390 . S
C598 C597 1.390 . S
C598 C599 1.394 . S
C598 C604 1.465 1_556 S
C599 C594 1.399 . S
C599 C598 1.394 . S
C599 C600 1.516 . S
C600 C599 1.516 . S
C600 C601 1.502 . S
C600 C602 1.561 . S
C600 C603 1.526 1_556 S
C601 H585 0.959 1_556 S
C601 H586 0.959 1_556 S
C601 H587 0.961 . S
C601 C600 1.502 . S
C602 H588 0.960 . S
C602 H589 0.961 1_556 S
C602 H590 0.959 1_455 S
C602 C600 1.561 . S
C603 C600 1.526 1_554 S
C603 C604 1.396 . S
C603 C608 1.390 . S
C604 C598 1.465 1_554 S
C604 C603 1.396 . S
C604 C605 1.399 . S
C605 H591 0.929 1_455 S
C605 C604 1.399 . S
C605 C606 1.385 . S
C606 H592 0.931 . S
C606 C605 1.385 . S
C606 C607 1.389 . S
C607 C606 1.389 . S
C607 C608 1.387 . S
C608 H593 0.930 . S
C608 C603 1.390 . S
C608 C607 1.387 . S
H609 C621 0.930 . S
H610 C623 0.930 . S
H611 C624 0.930 . S
H612 C628 0.959 . S
H613 C628 0.959 . S
H614 C628 0.961 . S
H615 C629 0.960 . S
H616 C629 0.961 . S
H617 C629 0.959 . S
H618 C632 0.929 . S
H619 C633 0.931 . S
H620 C635 0.930 . S
C621 H609 0.930 . S
C621 C622 1.399 . S
C621 C626 1.399 . S
C622 C621 1.399 . S
C622 C623 1.376 1_545 S
C623 H610 0.930 . S
C623 C622 1.376 1_565 S
C623 C624 1.388 . S
C624 H611 0.930 . S
C624 C623 1.388 . S
C624 C625 1.390 1_565 S
C625 C624 1.390 1_545 S
C625 C626 1.394 . S
C625 C631 1.465 . S
C626 C621 1.399 . S
C626 C625 1.394 . S
C626 C627 1.516 . S
C627 C626 1.516 . S
C627 C628 1.502 . S
C627 C629 1.561 . S
C627 C630 1.526 . S
C628 H612 0.959 . S
C628 H613 0.959 . S
C628 H614 0.961 . S
C628 C627 1.502 . S
C629 H615 0.960 . S
C629 H616 0.961 . S
C629 H617 0.959 . S
C629 C627 1.561 . S
C630 C627 1.526 . S
C630 C631 1.396 . S
C630 C635 1.390 . S
C631 C625 1.465 . S
C631 C630 1.396 . S
C631 C632 1.399 1_545 S
C632 H618 0.929 . S
C632 C631 1.399 1_565 S
C632 C633 1.385 . S
C633 H619 0.931 . S
C633 C632 1.385 . S
C633 C634 1.389 1_565 S
C634 C633 1.389 1_545 S
C634 C635 1.387 . S
C635 H620 0.930 . S
C635 C630 1.390 . S
C635 C634 1.387 . S
H636 C648 0.930 . S
H637 C650 0.930 . S
H638 C651 0.930 . S
H639 C655 0.959 . S
H640 C655 0.984 . S
H641 C655 0.935 1_556 S
H642 C656 0.960 1_556 S
H643 C656 0.961 . S
H644 C656 0.959 . S
H645 C659 0.929 . S
H646 C660 0.931 . S
H647 C662 0.930 . S
C648 H636 0.930 . S
C648 C649 1.399 . S
C648 C653 1.399 . S
C649 C648 1.399 . S
C649 C650 1.376 . S
C650 H637 0.930 . S
C650 C649 1.376 . S
C650 C651 1.388 . S
C651 H638 0.930 . S
C651 C650 1.388 . S
C651 C652 1.390 . S
C652 C651 1.390 . S
C652 C653 1.394 . S
C652 C658 1.465 1_556 S
C653 C648 1.399 . S
C653 C652 1.394 . S
C653 C654 1.516 1_556 S
C654 C653 1.516 1_554 S
C654 C655 1.503 . S
C654 C656 1.561 . S
C654 C657 1.526 . S
C655 H639 0.959 . S
C655 H640 0.984 . S
C655 H641 0.935 1_554 S
C655 C654 1.503 . S
C656 H642 0.960 1_554 S
C656 H643 0.961 . S
C656 H644 0.959 . S
C656 C654 1.561 . S
C657 C654 1.526 . S
C657 C658 1.396 . S
C657 C662 1.390 . S
C658 C652 1.465 1_554 S
C658 C657 1.396 . S
C658 C659 1.399 . S
C659 H645 0.929 . S
C659 C658 1.399 . S
C659 C660 1.385 . S
C660 H646 0.931 . S
C660 C659 1.385 . S
C660 C661 1.389 . S
C661 C660 1.389 . S
C661 C662 1.387 . S
C662 H647 0.930 . S
C662 C657 1.390 . S
C662 C661 1.387 . S
H663 C675 0.930 . S
H664 C677 0.930 . S
H665 C678 0.930 . S
H666 C682 0.959 . S
H667 C682 0.959 . S
H668 C682 0.961 . S
H669 C683 0.960 . S
H670 C683 0.961 . S
H671 C683 0.959 . S
H672 C686 0.929 . S
H673 C687 0.931 . S
H674 C689 0.930 . S
C675 H663 0.930 . S
C675 C676 1.399 . S
C675 C680 1.399 . S
C676 C675 1.399 . S
C676 C677 1.376 . S
C677 H664 0.930 . S
C677 C676 1.376 . S
C677 C678 1.388 . S
C678 H665 0.930 . S
C678 C677 1.388 . S
C678 C679 1.390 . S
C679 C678 1.390 . S
C679 C680 1.394 . S
C679 C685 1.465 . S
C680 C675 1.399 . S
C680 C679 1.394 . S
C680 C681 1.516 . S
C681 C680 1.516 . S
C681 C682 1.502 . S
C681 C683 1.561 . S
C681 C684 1.526 . S
C682 H666 0.959 . S
C682 H667 0.959 . S
C682 H668 0.961 . S
C682 C681 1.502 . S
C683 H669 0.960 . S
C683 H670 0.961 . S
C683 H671 0.959 . S
C683 C681 1.561 . S
C684 C681 1.526 . S
C684 C685 1.396 . S
C684 C689 1.390 . S
C685 C679 1.465 . S
C685 C684 1.396 . S
C685 C686 1.399 . S
C686 H672 0.929 . S
C686 C685 1.399 . S
C686 C687 1.385 . S
C687 H673 0.931 . S
C687 C686 1.385 . S
C687 C688 1.389 . S
C688 C687 1.389 . S
C688 C689 1.387 . S
C689 H674 0.930 . S
C689 C684 1.390 . S
C689 C688 1.387 . S
H690 C702 0.930 . S
H691 C704 0.930 1_455 S
H692 C705 0.930 . S
H693 C709 0.959 . S
H694 C709 0.959 . S
H695 C709 0.961 1_554 S
H696 C710 0.960 1_554 S
H697 C710 0.961 . S
H698 C710 0.959 1_455 S
H699 C713 0.931 . S
H700 C714 0.931 1_455 S
H701 C716 0.930 . S
C702 H690 0.930 . S
C702 C703 1.399 . S
C702 C707 1.399 . S
C703 C702 1.399 . S
C703 C704 1.376 . S
C704 H691 0.930 1_655 S
C704 C703 1.376 . S
C704 C705 1.388 1_655 S
C705 H692 0.930 . S
C705 C704 1.388 1_455 S
C705 C706 1.390 1_455 S
C706 C705 1.390 1_655 S
C706 C707 1.394 . S
C706 C712 1.465 1_554 S
C707 C702 1.399 . S
C707 C706 1.394 . S
C707 C708 1.516 1_554 S
C708 C707 1.516 1_556 S
C708 C709 1.502 . S
C708 C710 1.561 . S
C708 C711 1.526 . S
C709 H693 0.959 . S
C709 H694 0.959 . S
C709 H695 0.961 1_556 S
C709 C708 1.502 . S
C710 H696 0.960 1_556 S
C710 H697 0.961 . S
C710 H698 0.959 1_655 S
C710 C708 1.561 . S
C711 C708 1.526 . S
C711 C712 1.396 . S
C711 C716 1.390 . S
C712 C706 1.465 1_556 S
C712 C711 1.396 . S
C712 C713 1.398 1_655 S
C713 H699 0.931 . S
C713 C712 1.398 1_455 S
C713 C714 1.385 1_455 S
C714 H700 0.931 1_655 S
C714 C713 1.385 1_655 S
C714 C715 1.389 . S
C715 C714 1.389 . S
C715 C716 1.387 . S
C716 H701 0.930 . S
C716 C711 1.390 . S
C716 C715 1.387 . S
H717 C729 0.930 1_545 S
H718 C731 0.930 . S
H719 C732 0.930 . S
H720 C736 0.959 . S
H721 C736 0.959 . S
H722 C736 0.961 . S
H723 C737 0.960 . S
H724 C737 0.961 . S
H725 C737 0.959 . S
H726 C740 0.929 . S
H727 C741 0.931 . S
H728 C743 0.930 1_545 S
C729 H717 0.930 1_565 S
C729 C730 1.399 . S
C729 C734 1.399 . S
C730 C729 1.399 . S
C730 C731 1.376 . S
C731 H718 0.930 . S
C731 C730 1.376 . S
C731 C732 1.388 . S
C732 H719 0.930 . S
C732 C731 1.388 . S
C732 C733 1.390 . S
C733 C732 1.390 . S
C733 C734 1.394 . S
C733 C739 1.465 . S
C734 C729 1.399 . S
C734 C733 1.394 . S
C734 C735 1.516 1_565 S
C735 C734 1.516 1_545 S
C735 C736 1.502 . S
C735 C737 1.561 . S
C735 C738 1.526 1_545 S
C736 H720 0.959 . S
C736 H721 0.959 . S
C736 H722 0.961 . S
C736 C735 1.502 . S
C737 H723 0.960 . S
C737 H724 0.961 . S
C737 H725 0.959 . S
C737 C735 1.561 . S
C738 C735 1.526 1_565 S
C738 C739 1.396 . S
C738 C743 1.390 . S
C739 C733 1.465 . S
C739 C738 1.396 . S
C739 C740 1.399 . S
C740 H726 0.929 . S
C740 C739 1.399 . S
C740 C741 1.385 . S
C741 H727 0.931 . S
C741 C740 1.385 . S
C741 C742 1.389 . S
C742 C741 1.389 . S
C742 C743 1.387 . S
C743 H728 0.930 1_565 S
C743 C738 1.390 . S
C743 C742 1.387 . S
H744 C756 0.930 . S
H745 C758 0.930 . S
H746 C759 0.930 . S
H747 C763 0.959 . S
H748 C763 0.959 . S
H749 C763 0.961 . S
H750 C764 0.960 . S
H751 C764 0.961 . S
H752 C764 0.959 . S
H753 C767 0.929 . S
H754 C768 0.931 . S
H755 C770 0.930 . S
C756 H744 0.930 . S
C756 C757 1.399 . S
C756 C761 1.399 . S
C757 C756 1.399 . S
C757 C758 1.376 . S
C758 H745 0.930 . S
C758 C757 1.376 . S
C758 C759 1.388 . S
C759 H746 0.930 . S
C759 C758 1.388 . S
C759 C760 1.390 . S
C760 C759 1.390 . S
C760 C761 1.394 . S
C760 C766 1.465 . S
C761 C756 1.399 . S
C761 C760 1.394 . S
C761 C762 1.516 . S
C762 C761 1.516 . S
C762 C763 1.502 . S
C762 C764 1.561 . S
C762 C765 1.526 1_565 S
C763 H747 0.959 . S
C763 H748 0.959 . S
C763 H749 0.961 . S
C763 C762 1.502 . S
C764 H750 0.960 . S
C764 H751 0.961 . S
C764 H752 0.959 . S
C764 C762 1.561 . S
C765 C762 1.526 1_545 S
C765 C766 1.396 1_545 S
C765 C770 1.390 . S
C766 C760 1.465 . S
C766 C765 1.396 1_565 S
C766 C767 1.399 1_565 S
C767 H753 0.929 . S
C767 C766 1.399 1_545 S
C767 C768 1.385 . S
C768 H754 0.931 . S
C768 C767 1.385 . S
C768 C769 1.389 . S
C769 C768 1.389 . S
C769 C770 1.387 . S
C770 H755 0.930 . S
C770 C765 1.390 . S
C770 C769 1.387 . S
H771 C783 0.930 . S
H772 C785 0.930 . S
H773 C786 0.930 . S
H774 C790 0.959 . S
H775 C790 0.959 . S
H776 C790 0.961 . S
H777 C791 0.960 . S
H778 C791 0.961 . S
H779 C791 0.959 . S
H780 C794 0.929 . S
H781 C795 0.931 . S
H782 C797 0.930 . S
C783 H771 0.930 . S
C783 C784 1.399 . S
C783 C788 1.399 . S
C784 C783 1.399 . S
C784 C785 1.376 . S
C785 H772 0.930 . S
C785 C784 1.376 . S
C785 C786 1.388 . S
C786 H773 0.930 . S
C786 C785 1.388 . S
C786 C787 1.390 . S
C787 C786 1.390 . S
C787 C788 1.394 . S
C787 C793 1.465 . S
C788 C783 1.399 . S
C788 C787 1.394 . S
C788 C789 1.516 . S
C789 C788 1.516 . S
C789 C790 1.502 . S
C789 C791 1.561 . S
C789 C792 1.526 . S
C790 H774 0.959 . S
C790 H775 0.959 . S
C790 H776 0.961 . S
C790 C789 1.502 . S
C791 H777 0.960 . S
C791 H778 0.961 . S
C791 H779 0.959 . S
C791 C789 1.561 . S
C792 C789 1.526 . S
C792 C793 1.396 . S
C792 C797 1.390 . S
C793 C787 1.465 . S
C793 C792 1.396 . S
C793 C794 1.399 . S
C794 H780 0.929 . S
C794 C793 1.399 . S
C794 C795 1.385 . S
C795 H781 0.931 . S
C795 C794 1.385 . S
C795 C796 1.389 . S
C796 C795 1.389 . S
C796 C797 1.387 . S
C797 H782 0.930 . S
C797 C792 1.390 . S
C797 C796 1.387 . S
H798 C810 0.930 . S
H799 C812 0.930 . S
H800 C813 0.930 . S
H801 C817 0.959 . S
H802 C817 0.959 . S
H803 C817 0.961 . S
H804 C818 0.960 . S
H805 C818 0.961 . S
H806 C818 0.959 . S
H807 C821 0.929 . S
H808 C822 0.931 . S
H809 C824 0.930 . S
C810 H798 0.930 . S
C810 C811 1.399 . S
C810 C815 1.396 1_455 S
C811 C810 1.399 . S
C811 C812 1.376 1_455 S
C812 H799 0.930 . S
C812 C811 1.376 1_655 S
C812 C813 1.388 . S
C813 H800 0.930 . S
C813 C812 1.388 . S
C813 C814 1.390 . S
C814 C813 1.390 . S
C814 C815 1.399 . S
C814 C820 1.465 . S
C815 C810 1.396 1_655 S
C815 C814 1.399 . S
C815 C816 1.515 1_655 S
C816 C815 1.515 1_455 S
C816 C817 1.502 . S
C816 C818 1.561 1_455 S
C816 C819 1.526 1_455 S
C817 H801 0.959 . S
C817 H802 0.959 . S
C817 H803 0.961 . S
C817 C816 1.502 . S
C818 H804 0.960 . S
C818 H805 0.961 . S
C818 H806 0.959 . S
C818 C816 1.561 1_655 S
C819 C816 1.526 1_655 S
C819 C820 1.396 . S
C819 C824 1.390 . S
C820 C814 1.465 . S
C820 C819 1.396 . S
C820 C821 1.399 . S
C821 H807 0.929 . S
C821 C820 1.399 . S
C821 C822 1.385 . S
C822 H808 0.931 . S
C822 C821 1.385 . S
C822 C823 1.389 . S
C823 C822 1.389 . S
C823 C824 1.387 . S
C824 H809 0.930 . S
C824 C819 1.390 . S
C824 C823 1.387 . S
H825 C837 0.930 . S
H826 C839 0.930 . S
H827 C840 0.930 . S
H828 C844 0.959 . S
H829 C844 0.959 . S
H830 C844 0.961 . S
H831 C845 0.960 . S
H832 C845 0.961 . S
H833 C845 0.959 . S
H834 C848 0.929 . S
H835 C849 0.931 . S
H836 C851 0.930 . S
C837 H825 0.930 . S
C837 C838 1.399 . S
C837 C842 1.399 . S
C838 C837 1.399 . S
C838 C839 1.376 . S
C839 H826 0.930 . S
C839 C838 1.376 . S
C839 C840 1.388 1_565 S
C840 H827 0.930 . S
C840 C839 1.388 1_545 S
C840 C841 1.390 1_545 S
C841 C840 1.390 1_565 S
C841 C842 1.394 . S
C841 C847 1.465 1_565 S
C842 C837 1.399 . S
C842 C841 1.394 . S
C842 C843 1.516 . S
C843 C842 1.516 . S
C843 C844 1.502 . S
C843 C845 1.561 1_565 S
C843 C846 1.526 1_655 S
C844 H828 0.959 . S
C844 H829 0.959 . S
C844 H830 0.961 . S
C844 C843 1.502 . S
C845 H831 0.960 . S
C845 H832 0.961 . S
C845 H833 0.959 . S
C845 C843 1.561 1_545 S
C846 C843 1.526 1_455 S
C846 C847 1.396 1_465 S
C846 C851 1.390 . S
C847 C841 1.465 1_545 S
C847 C846 1.396 1_645 S
C847 C848 1.399 1_655 S
C848 H834 0.929 . S
C848 C847 1.399 1_455 S
C848 C849 1.385 . S
C849 H835 0.931 . S
C849 C848 1.385 . S
C849 C850 1.389 . S
C850 C849 1.389 . S
C850 C851 1.387 1_545 S
C851 H836 0.930 . S
C851 C846 1.390 . S
C851 C850 1.387 1_565 S
H852 C864 0.930 . S
H853 C866 0.930 . S
H854 C867 0.930 . S
H855 C871 0.959 . S
H856 C871 0.959 . S
H857 C871 0.961 . S
H858 C872 0.960 . S
H859 C872 0.961 . S
H860 C872 0.959 . S
H861 C875 0.929 . S
H862 C876 0.931 . S
H863 C878 0.930 . S
C864 H852 0.930 . S
C864 C865 1.399 . S
C864 C869 1.399 . S
C865 C864 1.399 . S
C865 C866 1.376 . S
C866 H853 0.930 . S
C866 C865 1.376 . S
C866 C867 1.388 . S
C867 H854 0.930 . S
C867 C866 1.388 . S
C867 C868 1.390 . S
C868 C867 1.390 . S
C868 C869 1.394 . S
C868 C874 1.465 . S
C869 C864 1.399 . S
C869 C868 1.394 . S
C869 C870 1.516 . S
C870 C869 1.516 . S
C870 C871 1.502 . S
C870 C872 1.561 . S
C870 C873 1.526 . S
C871 H855 0.959 . S
C871 H856 0.959 . S
C871 H857 0.961 . S
C871 C870 1.502 . S
C872 H858 0.960 . S
C872 H859 0.961 . S
C872 H860 0.959 . S
C872 C870 1.561 . S
C873 C870 1.526 . S
C873 C874 1.396 . S
C873 C878 1.390 . S
C874 C868 1.465 . S
C874 C873 1.396 . S
C874 C875 1.399 . S
C875 H861 0.929 . S
C875 C874 1.399 . S
C875 C876 1.385 . S
C876 H862 0.931 . S
C876 C875 1.385 . S
C876 C877 1.389 . S
C877 C876 1.389 . S
C877 C878 1.387 . S
C878 H863 0.930 . S
C878 C873 1.390 . S
C878 C877 1.387 . S
H879 C891 0.930 . S
H880 C893 0.930 . S
H881 C894 0.930 . S
H882 C898 0.959 . S
H883 C898 0.959 . S
H884 C898 0.961 . S
H885 C899 0.960 . S
H886 C899 0.961 . S
H887 C899 0.959 . S
H888 C902 0.929 . S
H889 C903 0.931 . S
H890 C905 0.930 . S
C891 H879 0.930 . S
C891 C892 1.399 . S
C891 C896 1.399 . S
C892 C891 1.399 . S
C892 C893 1.376 . S
C893 H880 0.930 . S
C893 C892 1.376 . S
C893 C894 1.388 . S
C894 H881 0.930 . S
C894 C893 1.388 . S
C894 C895 1.390 . S
C895 C894 1.390 . S
C895 C896 1.394 . S
C895 C901 1.465 . S
C896 C891 1.399 . S
C896 C895 1.394 . S
C896 C897 1.516 . S
C897 C896 1.516 . S
C897 C898 1.502 . S
C897 C899 1.561 . S
C897 C900 1.526 1_655 S
C898 H882 0.959 . S
C898 H883 0.959 . S
C898 H884 0.961 . S
C898 C897 1.502 . S
C899 H885 0.960 . S
C899 H886 0.961 . S
C899 H887 0.959 . S
C899 C897 1.561 . S
C900 C897 1.526 1_455 S
C900 C901 1.396 1_455 S
C900 C905 1.390 . S
C901 C895 1.465 . S
C901 C900 1.396 1_655 S
C901 C902 1.399 1_655 S
C902 H888 0.929 . S
C902 C901 1.399 1_455 S
C902 C903 1.385 . S
C903 H889 0.931 . S
C903 C902 1.385 . S
C903 C904 1.389 . S
C904 C903 1.389 . S
C904 C905 1.387 . S
C905 H890 0.930 . S
C905 C900 1.390 . S
C905 C904 1.387 . S
H906 C918 0.930 . S
H907 C920 0.930 . S
H908 C921 0.930 1_565 S
H909 C925 0.959 . S
H910 C925 0.959 . S
H911 C925 0.961 1_545 S
H912 C926 0.960 1_545 S
H913 C926 0.961 . S
H914 C926 0.959 . S
H915 C929 0.929 . S
H916 C930 0.931 . S
H917 C932 0.930 . S
C918 H906 0.930 . S
C918 C919 1.399 1_655 S
C918 C923 1.399 . S
C919 C918 1.399 1_455 S
C919 C920 1.376 . S
C920 H907 0.930 . S
C920 C919 1.376 . S
C920 C921 1.388 . S
C921 H908 0.930 1_545 S
C921 C920 1.388 . S
C921 C922 1.390 1_545 S
C922 C921 1.390 1_565 S
C922 C923 1.394 1_465 S
C922 C928 1.465 . S
C923 C918 1.399 . S
C923 C922 1.394 1_645 S
C923 C924 1.516 1_545 S
C924 C923 1.516 1_565 S
C924 C925 1.502 . S
C924 C926 1.561 . S
C924 C927 1.526 . S
C925 H909 0.959 . S
C925 H910 0.959 . S
C925 H911 0.961 1_565 S
C925 C924 1.502 . S
C926 H912 0.960 1_565 S
C926 H913 0.961 . S
C926 H914 0.959 . S
C926 C924 1.561 . S
C927 C924 1.526 . S
C927 C928 1.396 1_655 S
C927 C932 1.390 . S
C928 C922 1.465 . S
C928 C927 1.396 1_455 S
C928 C929 1.399 . S
C929 H915 0.929 . S
C929 C928 1.399 . S
C929 C930 1.385 . S
C930 H916 0.931 . S
C930 C929 1.385 . S
C930 C931 1.389 1_455 S
C931 C930 1.389 1_655 S
C931 C932 1.387 . S
C932 H917 0.930 . S
C932 C927 1.390 . S
C932 C931 1.387 . S
H933 C945 0.930 . S
H934 C947 0.930 . S
H935 C948 0.930 . S
H936 C952 0.959 . S
H937 C952 0.959 . S
H938 C952 0.961 . S
H939 C953 0.960 . S
H940 C953 0.961 . S
H941 C953 0.959 1_565 S
H942 C956 0.929 . S
H943 C957 0.931 . S
H944 C959 0.930 1_545 S
C945 H933 0.930 . S
C945 C946 1.408 . S
C945 C950 1.399 . S
C946 C945 1.408 . S
C946 C947 1.363 1_545 S
C947 H934 0.930 . S
C947 C946 1.363 1_565 S
C947 C948 1.388 . S
C948 H935 0.930 . S
C948 C947 1.388 . S
C948 C949 1.390 . S
C949 C948 1.390 . S
C949 C950 1.394 1_565 S
C949 C955 1.465 . S
C950 C945 1.399 . S
C950 C949 1.394 1_545 S
C950 C951 1.516 . S
C951 C950 1.516 . S
C951 C952 1.502 . S
C951 C953 1.561 . S
C951 C954 1.526 1_545 S
C952 H936 0.959 . S
C952 H937 0.959 . S
C952 H938 0.961 . S
C952 C951 1.502 . S
C953 H939 0.960 . S
C953 H940 0.961 . S
C953 H941 0.959 1_545 S
C953 C951 1.561 . S
C954 C951 1.526 1_565 S
C954 C955 1.396 . S
C954 C959 1.390 . S
C955 C949 1.465 . S
C955 C954 1.396 . S
C955 C956 1.399 . S
C956 H942 0.929 . S
C956 C955 1.399 . S
C956 C957 1.385 . S
C957 H943 0.931 . S
C957 C956 1.385 . S
C957 C958 1.389 . S
C958 C957 1.389 . S
C958 C959 1.387 . S
C959 H944 0.930 1_565 S
C959 C954 1.390 . S
C959 C958 1.387 . S
H960 C972 0.930 . S
H961 C974 0.930 . S
H962 C975 0.930 . S
H963 C979 0.959 . S
H964 C979 0.959 . S
H965 C979 0.961 . S
H966 C980 0.960 . S
H967 C980 0.961 1_565 S
H968 C980 0.959 . S
H969 C983 0.929 . S
H970 C984 0.931 . S
H971 C986 0.930 . S
C972 H960 0.930 . S
C972 C973 1.399 . S
C972 C977 1.399 . S
C973 C972 1.399 . S
C973 C974 1.376 . S
C974 H961 0.930 . S
C974 C973 1.376 . S
C974 C975 1.388 . S
C975 H962 0.930 . S
C975 C974 1.388 . S
C975 C976 1.390 . S
C976 C975 1.390 . S
C976 C977 1.394 . S
C976 C982 1.465 . S
C977 C972 1.399 . S
C977 C976 1.394 . S
C977 C978 1.516 . S
C978 C977 1.516 . S
C978 C979 1.502 . S
C978 C980 1.561 . S
C978 C981 1.526 1_545 S
C979 H963 0.959 . S
C979 H964 0.959 . S
C979 H965 0.961 . S
C979 C978 1.502 . S
C980 H966 0.960 . S
C980 H967 0.961 1_545 S
C980 H968 0.959 . S
C980 C978 1.561 . S
C981 C978 1.526 1_565 S
C981 C982 1.396 1_565 S
C981 C986 1.390 . S
C982 C976 1.465 . S
C982 C981 1.396 1_545 S
C982 C983 1.399 1_545 S
C983 H969 0.929 . S
C983 C982 1.399 1_565 S
C983 C984 1.385 . S
C984 H970 0.931 . S
C984 C983 1.385 . S
C984 C985 1.389 . S
C985 C984 1.389 . S
C985 C986 1.387 . S
C986 H971 0.930 . S
C986 C981 1.390 . S
C986 C985 1.387 . S
H987 C999 0.930 . S
H988 C1001 0.930 . S
H989 C1002 0.930 . S
H990 C1006 0.959 . S
H991 C1006 0.959 . S
H992 C1006 0.961 . S
H993 C1007 0.960 . S
H994 C1007 0.961 . S
H995 C1007 0.959 . S
H996 C1010 0.929 . S
H997 C1011 0.931 . S
H998 C1013 0.930 . S
C999 H987 0.930 . S
C999 C1000 1.399 . S
C999 C1004 1.399 . S
C1000 C999 1.399 . S
C1000 C1001 1.376 . S
C1001 H988 0.930 . S
C1001 C1000 1.376 . S
C1001 C1002 1.388 . S
C1002 H989 0.930 . S
C1002 C1001 1.388 . S
C1002 C1003 1.390 . S
C1003 C1002 1.390 . S
C1003 C1004 1.394 . S
C1003 C1009 1.465 . S
C1004 C999 1.399 . S
C1004 C1003 1.394 . S
C1004 C1005 1.516 . S
C1005 C1004 1.516 . S
C1005 C1006 1.502 . S
C1005 C1007 1.561 . S
C1005 C1008 1.526 . S
C1006 H990 0.959 . S
C1006 H991 0.959 . S
C1006 H992 0.961 . S
C1006 C1005 1.502 . S
C1007 H993 0.960 . S
C1007 H994 0.961 . S
C1007 H995 0.959 . S
C1007 C1005 1.561 . S
C1008 C1005 1.526 . S
C1008 C1009 1.396 . S
C1008 C1013 1.390 . S
C1009 C1003 1.465 . S
C1009 C1008 1.396 . S
C1009 C1010 1.399 . S
C1010 H996 0.929 . S
C1010 C1009 1.399 . S
C1010 C1011 1.385 . S
C1011 H997 0.931 . S
C1011 C1010 1.385 . S
C1011 C1012 1.389 . S
C1012 C1011 1.389 . S
C1012 C1013 1.387 . S
C1013 H998 0.930 . S
C1013 C1008 1.390 . S
C1013 C1012 1.387 . S
H1014 C1026 0.930 . S
H1015 C1028 0.930 . S
H1016 C1029 0.928 1_655 S
H1017 C1033 0.959 . S
H1018 C1033 0.959 . S
H1019 C1033 0.961 . S
H1020 C1034 0.960 . S
H1021 C1034 0.961 . S
H1022 C1034 0.959 . S
H1023 C1037 0.929 . S
H1024 C1038 0.931 . S
H1025 C1040 0.930 . S
C1026 H1014 0.930 . S
C1026 C1027 1.399 . S
C1026 C1031 1.399 . S
C1027 C1026 1.399 . S
C1027 C1028 1.376 . S
C1028 H1015 0.930 . S
C1028 C1027 1.376 . S
C1028 C1029 1.390 . S
C1029 H1016 0.928 1_455 S
C1029 C1028 1.390 . S
C1029 C1030 1.391 . S
C1030 C1029 1.391 . S
C1030 C1031 1.394 . S
C1030 C1036 1.465 1_455 S
C1031 C1026 1.399 . S
C1031 C1030 1.394 . S
C1031 C1032 1.516 . S
C1032 C1031 1.516 . S
C1032 C1033 1.502 . S
C1032 C1034 1.561 1_455 S
C1032 C1035 1.526 . S
C1033 H1017 0.959 . S
C1033 H1018 0.959 . S
C1033 H1019 0.961 . S
C1033 C1032 1.502 . S
C1034 H1020 0.960 . S
C1034 H1021 0.961 . S
C1034 H1022 0.959 . S
C1034 C1032 1.561 1_655 S
C1035 C1032 1.526 . S
C1035 C1036 1.396 1_455 S
C1035 C1040 1.390 . S
C1036 C1030 1.465 1_655 S
C1036 C1035 1.396 1_655 S
C1036 C1037 1.399 . S
C1037 H1023 0.929 . S
C1037 C1036 1.399 . S
C1037 C1038 1.385 . S
C1038 H1024 0.931 . S
C1038 C1037 1.385 . S
C1038 C1039 1.389 . S
C1039 C1038 1.389 . S
C1039 C1040 1.387 1_655 S
C1040 H1025 0.930 . S
C1040 C1035 1.390 . S
C1040 C1039 1.387 1_455 S
H1041 C1053 0.930 . S
H1042 C1055 0.930 . S
H1043 C1056 0.930 . S
H1044 C1060 0.959 . S
H1045 C1060 0.959 . S
H1046 C1060 0.963 . S
H1047 C1061 0.960 . S
H1048 C1061 0.961 . S
H1049 C1061 0.959 1_565 S
H1050 C1064 0.929 . S
H1051 C1065 0.924 1_565 S
H1052 C1067 0.930 . S
C1053 H1041 0.930 . S
C1053 C1054 1.399 1_545 S
C1053 C1058 1.399 . S
C1054 C1053 1.399 1_565 S
C1054 C1055 1.376 . S
C1055 H1042 0.930 . S
C1055 C1054 1.376 . S
C1055 C1056 1.388 . S
C1056 H1043 0.930 . S
C1056 C1055 1.388 . S
C1056 C1057 1.390 1_655 S
C1057 C1056 1.390 1_455 S
C1057 C1058 1.394 1_465 S
C1057 C1063 1.462 1_565 S
C1058 C1053 1.399 . S
C1058 C1057 1.394 1_645 S
C1058 C1059 1.516 1_655 S
C1059 C1058 1.516 1_455 S
C1059 C1060 1.502 . S
C1059 C1061 1.561 . S
C1059 C1062 1.526 . S
C1060 H1044 0.959 . S
C1060 H1045 0.959 . S
C1060 H1046 0.963 . S
C1060 C1059 1.502 . S
C1061 H1047 0.960 . S
C1061 H1048 0.961 . S
C1061 H1049 0.959 1_545 S
C1061 C1059 1.561 . S
C1062 C1059 1.526 . S
C1062 C1063 1.405 . S
C1062 C1067 1.390 . S
C1063 C1057 1.462 1_545 S
C1063 C1062 1.405 . S
C1063 C1064 1.394 1_545 S
C1064 H1050 0.929 . S
C1064 C1063 1.394 1_565 S
C1064 C1065 1.378 1_565 S
C1065 H1051 0.924 1_545 S
C1065 C1064 1.378 1_545 S
C1065 C1066 1.404 . S
C1066 C1065 1.404 . S
C1066 C1067 1.387 . S
C1067 H1052 0.930 . S
C1067 C1062 1.390 . S
C1067 C1066 1.387 . S
H1068 C1080 0.930 . S
H1069 C1082 0.930 . S
H1070 C1083 0.930 . S
H1071 C1087 0.959 . S
H1072 C1087 0.959 . S
H1073 C1087 0.961 . S
H1074 C1088 0.960 . S
H1075 C1088 0.961 . S
H1076 C1088 0.959 . S
H1077 C1091 0.929 . S
H1078 C1092 0.931 . S
H1079 C1094 0.930 . S
C1080 H1068 0.930 . S
C1080 C1081 1.399 . S
C1080 C1085 1.399 . S
C1081 C1080 1.399 . S
C1081 C1082 1.376 . S
C1082 H1069 0.930 . S
C1082 C1081 1.376 . S
C1082 C1083 1.388 . S
C1083 H1070 0.930 . S
C1083 C1082 1.388 . S
C1083 C1084 1.390 . S
C1084 C1083 1.390 . S
C1084 C1085 1.394 . S
C1084 C1090 1.465 . S
C1085 C1080 1.399 . S
C1085 C1084 1.394 . S
C1085 C1086 1.516 . S
C1086 C1085 1.516 . S
C1086 C1087 1.502 . S
C1086 C1088 1.561 . S
C1086 C1089 1.526 . S
C1087 H1071 0.959 . S
C1087 H1072 0.959 . S
C1087 H1073 0.961 . S
C1087 C1086 1.502 . S
C1088 H1074 0.960 . S
C1088 H1075 0.961 . S
C1088 H1076 0.959 . S
C1088 C1086 1.561 . S
C1089 C1086 1.526 . S
C1089 C1090 1.396 . S
C1089 C1094 1.390 . S
C1090 C1084 1.465 . S
C1090 C1089 1.396 . S
C1090 C1091 1.399 . S
C1091 H1077 0.929 . S
C1091 C1090 1.399 . S
C1091 C1092 1.385 . S
C1092 H1078 0.931 . S
C1092 C1091 1.385 . S
C1092 C1093 1.389 . S
C1093 C1092 1.389 . S
C1093 C1094 1.387 . S
C1094 H1079 0.930 . S
C1094 C1089 1.390 . S
C1094 C1093 1.387 . S
H1095 C1107 0.930 . S
H1096 C1109 0.930 . S
H1097 C1110 0.930 . S
H1098 C1114 0.959 . S
H1099 C1114 0.959 . S
H1100 C1114 0.961 . S
H1101 C1115 0.960 . S
H1102 C1115 0.961 . S
H1103 C1115 0.959 . S
H1104 C1118 0.929 . S
H1105 C1119 0.931 . S
H1106 C1121 0.930 . S
C1107 H1095 0.930 . S
C1107 C1108 1.399 . S
C1107 C1112 1.399 . S
C1108 C1107 1.399 . S
C1108 C1109 1.376 . S
C1109 H1096 0.930 . S
C1109 C1108 1.376 . S
C1109 C1110 1.388 . S
C1110 H1097 0.930 . S
C1110 C1109 1.388 . S
C1110 C1111 1.390 . S
C1111 C1110 1.390 . S
C1111 C1112 1.394 . S
C1111 C1117 1.465 . S
C1112 C1107 1.399 . S
C1112 C1111 1.394 . S
C1112 C1113 1.516 . S
C1113 C1112 1.516 . S
C1113 C1114 1.502 . S
C1113 C1115 1.561 . S
C1113 C1116 1.526 1_455 S
C1114 H1098 0.959 . S
C1114 H1099 0.959 . S
C1114 H1100 0.961 . S
C1114 C1113 1.502 . S
C1115 H1101 0.960 . S
C1115 H1102 0.961 . S
C1115 H1103 0.959 . S
C1115 C1113 1.561 . S
C1116 C1113 1.526 1_655 S
C1116 C1117 1.396 1_655 S
C1116 C1121 1.390 . S
C1117 C1111 1.465 . S
C1117 C1116 1.396 1_455 S
C1117 C1118 1.399 1_455 S
C1118 H1104 0.929 . S
C1118 C1117 1.399 1_655 S
C1118 C1119 1.385 . S
C1119 H1105 0.931 . S
C1119 C1118 1.385 . S
C1119 C1120 1.389 . S
C1120 C1119 1.389 . S
C1120 C1121 1.387 . S
C1121 H1106 0.930 . S
C1121 C1116 1.390 . S
C1121 C1120 1.387 . S
H1122 C1134 0.930 . S
H1123 C1136 0.930 . S
H1124 C1137 0.930 . S
H1125 C1141 0.959 . S
H1126 C1141 0.959 . S
H1127 C1141 0.959 . S
H1128 C1142 0.960 . S
H1129 C1142 0.961 . S
H1130 C1142 0.959 1_655 S
H1131 C1145 0.929 . S
H1132 C1146 0.926 1_655 S
H1133 C1148 0.930 . S
C1134 H1122 0.930 . S
C1134 C1135 1.399 1_455 S
C1134 C1139 1.399 . S
C1135 C1134 1.399 1_655 S
C1135 C1136 1.376 . S
C1136 H1123 0.930 . S
C1136 C1135 1.376 . S
C1136 C1137 1.388 . S
C1137 H1124 0.930 . S
C1137 C1136 1.388 . S
C1137 C1138 1.390 1_565 S
C1138 C1137 1.390 1_545 S
C1138 C1139 1.394 1_645 S
C1138 C1144 1.463 1_655 S
C1139 C1134 1.399 . S
C1139 C1138 1.394 1_465 S
C1139 C1140 1.516 1_565 S
C1140 C1139 1.516 1_545 S
C1140 C1141 1.502 . S
C1140 C1142 1.561 . S
C1140 C1143 1.526 . S
C1141 H1125 0.959 . S
C1141 H1126 0.959 . S
C1141 H1127 0.959 . S
C1141 C1140 1.502 . S
C1142 H1128 0.960 . S
C1142 H1129 0.961 . S
C1142 H1130 0.959 1_455 S
C1142 C1140 1.561 . S
C1143 C1140 1.526 . S
C1143 C1144 1.403 . S
C1143 C1148 1.390 . S
C1144 C1138 1.463 1_455 S
C1144 C1143 1.403 . S
C1144 C1145 1.395 1_455 S
C1145 H1131 0.929 . S
C1145 C1144 1.395 1_655 S
C1145 C1146 1.380 1_655 S
C1146 H1132 0.926 1_455 S
C1146 C1145 1.380 1_455 S
C1146 C1147 1.399 . S
C1147 C1146 1.399 . S
C1147 C1148 1.387 . S
C1148 H1133 0.930 . S
C1148 C1143 1.390 . S
C1148 C1147 1.387 . S
H1149 C1161 0.930 . S
H1150 C1163 0.930 . S
H1151 C1164 0.930 . S
H1152 C1168 0.959 . S
H1153 C1168 0.959 . S
H1154 C1168 0.961 . S
H1155 C1169 0.960 . S
H1156 C1169 0.961 . S
H1157 C1169 0.959 . S
H1158 C1172 0.929 . S
H1159 C1173 0.931 . S
H1160 C1175 0.930 . S
C1161 H1149 0.930 . S
C1161 C1162 1.399 . S
C1161 C1166 1.399 . S
C1162 C1161 1.399 . S
C1162 C1163 1.376 1_545 S
C1163 H1150 0.930 . S
C1163 C1162 1.376 1_565 S
C1163 C1164 1.388 . S
C1164 H1151 0.930 . S
C1164 C1163 1.388 . S
C1164 C1165 1.386 1_565 S
C1165 C1164 1.386 1_545 S
C1165 C1166 1.400 . S
C1165 C1171 1.464 1_545 S
C1166 C1161 1.399 . S
C1166 C1165 1.400 . S
C1166 C1167 1.516 . S
C1167 C1166 1.516 . S
C1167 C1168 1.502 . S
C1167 C1169 1.561 . S
C1167 C1170 1.526 . S
C1168 H1152 0.959 . S
C1168 H1153 0.959 . S
C1168 H1154 0.961 . S
C1168 C1167 1.502 . S
C1169 H1155 0.960 . S
C1169 H1156 0.961 . S
C1169 H1157 0.959 . S
C1169 C1167 1.561 . S
C1170 C1167 1.526 . S
C1170 C1171 1.396 1_545 S
C1170 C1175 1.390 . S
C1171 C1165 1.464 1_565 S
C1171 C1170 1.396 1_565 S
C1171 C1172 1.399 . S
C1172 H1158 0.929 . S
C1172 C1171 1.399 . S
C1172 C1173 1.385 . S
C1173 H1159 0.931 . S
C1173 C1172 1.385 . S
C1173 C1174 1.389 . S
C1174 C1173 1.389 . S
C1174 C1175 1.387 1_565 S
C1175 H1160 0.930 . S
C1175 C1170 1.390 . S
C1175 C1174 1.387 1_545 S
H1176 C1188 0.930 . S
H1177 C1190 0.930 . S
H1178 C1191 0.930 . S
H1179 C1195 0.959 . S
H1180 C1195 0.959 . S
H1181 C1195 0.961 . S
H1182 C1196 0.960 . S
H1183 C1196 0.961 . S
H1184 C1196 0.959 . S
H1185 C1199 0.929 . S
H1186 C1200 0.931 . S
H1187 C1202 0.930 . S
C1188 H1176 0.930 . S
C1188 C1189 1.399 . S
C1188 C1193 1.399 . S
C1189 C1188 1.399 . S
C1189 C1190 1.376 . S
C1190 H1177 0.930 . S
C1190 C1189 1.376 . S
C1190 C1191 1.388 . S
C1191 H1178 0.930 . S
C1191 C1190 1.388 . S
C1191 C1192 1.390 . S
C1192 C1191 1.390 . S
C1192 C1193 1.394 . S
C1192 C1198 1.465 . S
C1193 C1188 1.399 . S
C1193 C1192 1.394 . S
C1193 C1194 1.516 . S
C1194 C1193 1.516 . S
C1194 C1195 1.502 . S
C1194 C1196 1.561 . S
C1194 C1197 1.526 . S
C1195 H1179 0.959 . S
C1195 H1180 0.959 . S
C1195 H1181 0.961 . S
C1195 C1194 1.502 . S
C1196 H1182 0.960 . S
C1196 H1183 0.961 . S
C1196 H1184 0.959 . S
C1196 C1194 1.561 . S
C1197 C1194 1.526 . S
C1197 C1198 1.396 . S
C1197 C1202 1.390 . S
C1198 C1192 1.465 . S
C1198 C1197 1.396 . S
C1198 C1199 1.399 . S
C1199 H1185 0.929 . S
C1199 C1198 1.399 . S
C1199 C1200 1.385 . S
C1200 H1186 0.931 . S
C1200 C1199 1.385 . S
C1200 C1201 1.389 . S
C1201 C1200 1.389 . S
C1201 C1202 1.387 . S
C1202 H1187 0.930 . S
C1202 C1197 1.390 . S
C1202 C1201 1.387 . S
H1203 C1215 0.930 . S
H1204 C1217 0.930 . S
H1205 C1218 0.930 . S
H1206 C1222 0.959 . S
H1207 C1222 0.959 . S
H1208 C1222 0.961 . S
H1209 C1223 0.960 . S
H1210 C1223 0.961 . S
H1211 C1223 0.959 . S
H1212 C1226 0.929 . S
H1213 C1227 0.931 . S
H1214 C1229 0.930 . S
C1215 H1203 0.930 . S
C1215 C1216 1.399 . S
C1215 C1220 1.399 . S
C1216 C1215 1.399 . S
C1216 C1217 1.376 . S
C1217 H1204 0.930 . S
C1217 C1216 1.376 . S
C1217 C1218 1.388 . S
C1218 H1205 0.930 . S
C1218 C1217 1.388 . S
C1218 C1219 1.390 . S
C1219 C1218 1.390 . S
C1219 C1220 1.394 . S
C1219 C1225 1.465 . S
C1220 C1215 1.399 . S
C1220 C1219 1.394 . S
C1220 C1221 1.516 . S
C1221 C1220 1.516 . S
C1221 C1222 1.502 . S
C1221 C1223 1.561 . S
C1221 C1224 1.526 . S
C1222 H1206 0.959 . S
C1222 H1207 0.959 . S
C1222 H1208 0.961 . S
C1222 C1221 1.502 . S
C1223 H1209 0.960 . S
C1223 H1210 0.961 . S
C1223 H1211 0.959 . S
C1223 C1221 1.561 . S
C1224 C1221 1.526 . S
C1224 C1225 1.396 . S
C1224 C1229 1.390 . S
C1225 C1219 1.465 . S
C1225 C1224 1.396 . S
C1225 C1226 1.399 . S
C1226 H1212 0.929 . S
C1226 C1225 1.399 . S
C1226 C1227 1.385 . S
C1227 H1213 0.931 . S
C1227 C1226 1.385 . S
C1227 C1228 1.389 . S
C1228 C1227 1.389 . S
C1228 C1229 1.387 . S
C1229 H1214 0.930 . S
C1229 C1224 1.390 . S
C1229 C1228 1.387 . S
H1230 C1242 0.930 . S
H1231 C1244 0.930 . S
H1232 C1245 0.930 . S
H1233 C1249 0.959 . S
H1234 C1249 0.959 . S
H1235 C1249 0.961 . S
H1236 C1250 0.960 . S
H1237 C1250 0.961 . S
H1238 C1250 0.959 . S
H1239 C1253 0.929 . S
H1240 C1254 0.931 . S
H1241 C1256 0.930 . S
C1242 H1230 0.930 . S
C1242 C1243 1.399 . S
C1242 C1247 1.399 . S
C1243 C1242 1.399 . S
C1243 C1244 1.376 . S
C1244 H1231 0.930 . S
C1244 C1243 1.376 . S
C1244 C1245 1.388 . S
C1245 H1232 0.930 . S
C1245 C1244 1.388 . S
C1245 C1246 1.390 . S
C1246 C1245 1.390 . S
C1246 C1247 1.394 . S
C1246 C1252 1.465 . S
C1247 C1242 1.399 . S
C1247 C1246 1.394 . S
C1247 C1248 1.516 . S
C1248 C1247 1.516 . S
C1248 C1249 1.502 . S
C1248 C1250 1.561 . S
C1248 C1251 1.526 . S
C1249 H1233 0.959 . S
C1249 H1234 0.959 . S
C1249 H1235 0.961 . S
C1249 C1248 1.502 . S
C1250 H1236 0.960 . S
C1250 H1237 0.961 . S
C1250 H1238 0.959 . S
C1250 C1248 1.561 . S
C1251 C1248 1.526 . S
C1251 C1252 1.396 . S
C1251 C1256 1.390 . S
C1252 C1246 1.465 . S
C1252 C1251 1.396 . S
C1252 C1253 1.399 . S
C1253 H1239 0.929 . S
C1253 C1252 1.399 . S
C1253 C1254 1.385 . S
C1254 H1240 0.931 . S
C1254 C1253 1.385 . S
C1254 C1255 1.389 . S
C1255 C1254 1.389 . S
C1255 C1256 1.387 . S
C1256 H1241 0.930 . S
C1256 C1251 1.390 . S
C1256 C1255 1.387 . S
H1257 C1269 0.930 . S
H1258 C1271 0.930 . S
H1259 C1272 0.930 . S
H1260 C1276 0.959 . S
H1261 C1276 0.959 . S
H1262 C1276 0.961 . S
H1263 C1277 0.960 . S
H1264 C1277 0.961 . S
H1265 C1277 0.959 . S
H1266 C1280 0.929 . S
H1267 C1281 0.931 . S
H1268 C1283 0.930 . S
C1269 H1257 0.930 . S
C1269 C1270 1.399 . S
C1269 C1274 1.399 . S
C1270 C1269 1.399 . S
C1270 C1271 1.376 . S
C1271 H1258 0.930 . S
C1271 C1270 1.376 . S
C1271 C1272 1.388 . S
C1272 H1259 0.930 . S
C1272 C1271 1.388 . S
C1272 C1273 1.390 . S
C1273 C1272 1.390 . S
C1273 C1274 1.394 . S
C1273 C1279 1.465 . S
C1274 C1269 1.399 . S
C1274 C1273 1.394 . S
C1274 C1275 1.516 . S
C1275 C1274 1.516 . S
C1275 C1276 1.502 . S
C1275 C1277 1.561 . S
C1275 C1278 1.526 . S
C1276 H1260 0.959 . S
C1276 H1261 0.959 . S
C1276 H1262 0.961 . S
C1276 C1275 1.502 . S
C1277 H1263 0.960 . S
C1277 H1264 0.961 . S
C1277 H1265 0.959 . S
C1277 C1275 1.561 . S
C1278 C1275 1.526 . S
C1278 C1279 1.396 . S
C1278 C1283 1.390 . S
C1279 C1273 1.465 . S
C1279 C1278 1.396 . S
C1279 C1280 1.399 . S
C1280 H1266 0.929 . S
C1280 C1279 1.399 . S
C1280 C1281 1.385 . S
C1281 H1267 0.931 . S
C1281 C1280 1.385 . S
C1281 C1282 1.389 . S
C1282 C1281 1.389 . S
C1282 C1283 1.387 . S
C1283 H1268 0.930 . S
C1283 C1278 1.390 . S
C1283 C1282 1.387 . S
H1284 C1296 0.930 . S
H1285 C1298 0.930 . S
H1286 C1299 0.930 . S
H1287 C1303 0.959 . S
H1288 C1303 0.959 . S
H1289 C1303 0.961 . S
H1290 C1304 0.960 . S
H1291 C1304 0.961 . S
H1292 C1304 0.959 . S
H1293 C1307 0.929 . S
H1294 C1308 0.931 . S
H1295 C1310 0.930 . S
C1296 H1284 0.930 . S
C1296 C1297 1.399 . S
C1296 C1301 1.399 . S
C1297 C1296 1.399 . S
C1297 C1298 1.376 . S
C1298 H1285 0.930 . S
C1298 C1297 1.376 . S
C1298 C1299 1.388 . S
C1299 H1286 0.930 . S
C1299 C1298 1.388 . S
C1299 C1300 1.390 . S
C1300 C1299 1.390 . S
C1300 C1301 1.394 . S
C1300 C1306 1.465 . S
C1301 C1296 1.399 . S
C1301 C1300 1.394 . S
C1301 C1302 1.516 . S
C1302 C1301 1.516 . S
C1302 C1303 1.502 . S
C1302 C1304 1.561 . S
C1302 C1305 1.526 . S
C1303 H1287 0.959 . S
C1303 H1288 0.959 . S
C1303 H1289 0.961 . S
C1303 C1302 1.502 . S
C1304 H1290 0.960 . S
C1304 H1291 0.961 . S
C1304 H1292 0.959 . S
C1304 C1302 1.561 . S
C1305 C1302 1.526 . S
C1305 C1306 1.396 . S
C1305 C1310 1.390 . S
C1306 C1300 1.465 . S
C1306 C1305 1.396 . S
C1306 C1307 1.399 . S
C1307 H1293 0.929 . S
C1307 C1306 1.399 . S
C1307 C1308 1.385 . S
C1308 H1294 0.931 . S
C1308 C1307 1.385 . S
C1308 C1309 1.389 . S
C1309 C1308 1.389 . S
C1309 C1310 1.387 . S
C1310 H1295 0.930 . S
C1310 C1305 1.390 . S
C1310 C1309 1.387 . S
H1311 C1323 0.930 . S
H1312 C1325 0.930 . S
H1313 C1326 0.930 . S
H1314 C1330 0.959 . S
H1315 C1330 0.959 . S
H1316 C1330 0.961 . S
H1317 C1331 0.960 . S
H1318 C1331 0.961 . S
H1319 C1331 0.959 . S
H1320 C1334 0.929 . S
H1321 C1335 0.931 . S
H1322 C1337 0.930 . S
C1323 H1311 0.930 . S
C1323 C1324 1.399 . S
C1323 C1328 1.399 . S
C1324 C1323 1.399 . S
C1324 C1325 1.376 . S
C1325 H1312 0.930 . S
C1325 C1324 1.376 . S
C1325 C1326 1.388 . S
C1326 H1313 0.930 . S
C1326 C1325 1.388 . S
C1326 C1327 1.390 . S
C1327 C1326 1.390 . S
C1327 C1328 1.394 . S
C1327 C1333 1.465 . S
C1328 C1323 1.399 . S
C1328 C1327 1.394 . S
C1328 C1329 1.516 . S
C1329 C1328 1.516 . S
C1329 C1330 1.502 . S
C1329 C1331 1.561 . S
C1329 C1332 1.526 . S
C1330 H1314 0.959 . S
C1330 H1315 0.959 . S
C1330 H1316 0.961 . S
C1330 C1329 1.502 . S
C1331 H1317 0.960 . S
C1331 H1318 0.961 . S
C1331 H1319 0.959 . S
C1331 C1329 1.561 . S
C1332 C1329 1.526 . S
C1332 C1333 1.396 . S
C1332 C1337 1.390 . S
C1333 C1327 1.465 . S
C1333 C1332 1.396 . S
C1333 C1334 1.399 . S
C1334 H1320 0.929 . S
C1334 C1333 1.399 . S
C1334 C1335 1.385 . S
C1335 H1321 0.931 . S
C1335 C1334 1.385 . S
C1335 C1336 1.389 . S
C1336 C1335 1.389 . S
C1336 C1337 1.387 . S
C1337 H1322 0.930 . S
C1337 C1332 1.390 . S
C1337 C1336 1.387 . S
H1338 C1350 0.930 . S
H1339 C1352 0.930 . S
H1340 C1353 0.930 . S
H1341 C1357 0.959 . S
H1342 C1357 0.959 . S
H1343 C1357 0.961 . S
H1344 C1358 0.960 . S
H1345 C1358 0.961 . S
H1346 C1358 0.959 . S
H1347 C1361 0.929 . S
H1348 C1362 0.931 . S
H1349 C1364 0.930 . S
C1350 H1338 0.930 . S
C1350 C1351 1.399 . S
C1350 C1355 1.399 . S
C1351 C1350 1.399 . S
C1351 C1352 1.376 . S
C1352 H1339 0.930 . S
C1352 C1351 1.376 . S
C1352 C1353 1.388 . S
C1353 H1340 0.930 . S
C1353 C1352 1.388 . S
C1353 C1354 1.390 . S
C1354 C1353 1.390 . S
C1354 C1355 1.394 . S
C1354 C1360 1.465 . S
C1355 C1350 1.399 . S
C1355 C1354 1.394 . S
C1355 C1356 1.516 . S
C1356 C1355 1.516 . S
C1356 C1357 1.502 . S
C1356 C1358 1.561 . S
C1356 C1359 1.526 . S
C1357 H1341 0.959 . S
C1357 H1342 0.959 . S
C1357 H1343 0.961 . S
C1357 C1356 1.502 . S
C1358 H1344 0.960 . S
C1358 H1345 0.961 . S
C1358 H1346 0.959 . S
C1358 C1356 1.561 . S
C1359 C1356 1.526 . S
C1359 C1360 1.396 . S
C1359 C1364 1.390 . S
C1360 C1354 1.465 . S
C1360 C1359 1.396 . S
C1360 C1361 1.399 . S
C1361 H1347 0.929 . S
C1361 C1360 1.399 . S
C1361 C1362 1.385 . S
C1362 H1348 0.931 . S
C1362 C1361 1.385 . S
C1362 C1363 1.389 . S
C1363 C1362 1.389 . S
C1363 C1364 1.387 . S
C1364 H1349 0.930 . S
C1364 C1359 1.390 . S
C1364 C1363 1.387 . S
H1365 C1377 0.930 . S
H1366 C1379 0.930 . S
H1367 C1380 0.930 . S
H1368 C1384 0.959 . S
H1369 C1384 0.959 . S
H1370 C1384 0.961 . S
H1371 C1385 0.960 . S
H1372 C1385 0.961 . S
H1373 C1385 0.959 . S
H1374 C1388 0.929 . S
H1375 C1389 0.931 . S
H1376 C1391 0.930 . S
C1377 H1365 0.930 . S
C1377 C1378 1.399 . S
C1377 C1382 1.399 . S
C1378 C1377 1.399 . S
C1378 C1379 1.376 . S
C1379 H1366 0.930 . S
C1379 C1378 1.376 . S
C1379 C1380 1.388 . S
C1380 H1367 0.930 . S
C1380 C1379 1.388 . S
C1380 C1381 1.390 . S
C1381 C1380 1.390 . S
C1381 C1382 1.394 . S
C1381 C1387 1.465 . S
C1382 C1377 1.399 . S
C1382 C1381 1.394 . S
C1382 C1383 1.516 . S
C1383 C1382 1.516 . S
C1383 C1384 1.502 . S
C1383 C1385 1.561 . S
C1383 C1386 1.526 . S
C1384 H1368 0.959 . S
C1384 H1369 0.959 . S
C1384 H1370 0.961 . S
C1384 C1383 1.502 . S
C1385 H1371 0.960 . S
C1385 H1372 0.961 . S
C1385 H1373 0.959 . S
C1385 C1383 1.561 . S
C1386 C1383 1.526 . S
C1386 C1387 1.396 . S
C1386 C1391 1.390 . S
C1387 C1381 1.465 . S
C1387 C1386 1.396 . S
C1387 C1388 1.399 . S
C1388 H1374 0.929 . S
C1388 C1387 1.399 . S
C1388 C1389 1.385 . S
C1389 H1375 0.931 . S
C1389 C1388 1.385 . S
C1389 C1390 1.389 . S
C1390 C1389 1.389 . S
C1390 C1391 1.387 . S
C1391 H1376 0.930 . S
C1391 C1386 1.390 . S
C1391 C1390 1.387 . S
H1392 C1404 0.930 . S
H1393 C1406 0.930 . S
H1394 C1407 0.930 . S
H1395 C1411 0.959 . S
H1396 C1411 0.959 . S
H1397 C1411 0.961 . S
H1398 C1412 0.960 . S
H1399 C1412 0.961 . S
H1400 C1412 0.959 . S
H1401 C1415 0.929 . S
H1402 C1416 0.931 . S
H1403 C1418 0.930 . S
C1404 H1392 0.930 . S
C1404 C1405 1.399 . S
C1404 C1409 1.399 . S
C1405 C1404 1.399 . S
C1405 C1406 1.376 . S
C1406 H1393 0.930 . S
C1406 C1405 1.376 . S
C1406 C1407 1.388 . S
C1407 H1394 0.930 . S
C1407 C1406 1.388 . S
C1407 C1408 1.390 . S
C1408 C1407 1.390 . S
C1408 C1409 1.394 . S
C1408 C1414 1.465 . S
C1409 C1404 1.399 . S
C1409 C1408 1.394 . S
C1409 C1410 1.516 . S
C1410 C1409 1.516 . S
C1410 C1411 1.502 . S
C1410 C1412 1.561 . S
C1410 C1413 1.526 . S
C1411 H1395 0.959 . S
C1411 H1396 0.959 . S
C1411 H1397 0.961 . S
C1411 C1410 1.502 . S
C1412 H1398 0.960 . S
C1412 H1399 0.961 . S
C1412 H1400 0.959 . S
C1412 C1410 1.561 . S
C1413 C1410 1.526 . S
C1413 C1414 1.396 . S
C1413 C1418 1.390 . S
C1414 C1408 1.465 . S
C1414 C1413 1.396 . S
C1414 C1415 1.399 . S
C1415 H1401 0.929 . S
C1415 C1414 1.399 . S
C1415 C1416 1.385 . S
C1416 H1402 0.931 . S
C1416 C1415 1.385 . S
C1416 C1417 1.389 . S
C1417 C1416 1.389 . S
C1417 C1418 1.387 . S
C1418 H1403 0.930 . S
C1418 C1413 1.390 . S
C1418 C1417 1.387 . S
H1419 C1431 0.930 . S
H1420 C1433 0.930 . S
H1421 C1434 0.930 . S
H1422 C1438 0.959 . S
H1423 C1438 0.959 . S
H1424 C1438 0.961 . S
H1425 C1439 0.960 . S
H1426 C1439 0.961 . S
H1427 C1439 0.959 . S
H1428 C1442 0.929 . S
H1429 C1443 0.931 . S
H1430 C1445 0.930 . S
C1431 H1419 0.930 . S
C1431 C1432 1.399 . S
C1431 C1436 1.399 . S
C1432 C1431 1.399 . S
C1432 C1433 1.376 . S
C1433 H1420 0.930 . S
C1433 C1432 1.376 . S
C1433 C1434 1.388 . S
C1434 H1421 0.930 . S
C1434 C1433 1.388 . S
C1434 C1435 1.390 . S
C1435 C1434 1.390 . S
C1435 C1436 1.394 . S
C1435 C1441 1.465 . S
C1436 C1431 1.399 . S
C1436 C1435 1.394 . S
C1436 C1437 1.516 . S
C1437 C1436 1.516 . S
C1437 C1438 1.502 . S
C1437 C1439 1.561 . S
C1437 C1440 1.526 . S
C1438 H1422 0.959 . S
C1438 H1423 0.959 . S
C1438 H1424 0.961 . S
C1438 C1437 1.502 . S
C1439 H1425 0.960 . S
C1439 H1426 0.961 . S
C1439 H1427 0.959 . S
C1439 C1437 1.561 . S
C1440 C1437 1.526 . S
C1440 C1441 1.396 . S
C1440 C1445 1.390 . S
C1441 C1435 1.465 . S
C1441 C1440 1.396 . S
C1441 C1442 1.399 . S
C1442 H1428 0.929 . S
C1442 C1441 1.399 . S
C1442 C1443 1.385 . S
C1443 H1429 0.931 . S
C1443 C1442 1.385 . S
C1443 C1444 1.389 . S
C1444 C1443 1.389 . S
C1444 C1445 1.387 . S
C1445 H1430 0.930 . S
C1445 C1440 1.390 . S
C1445 C1444 1.387 . S
H1446 C1458 0.930 . S
H1447 C1460 0.930 . S
H1448 C1461 0.930 . S
H1449 C1465 0.959 . S
H1450 C1465 0.959 . S
H1451 C1465 0.961 . S
H1452 C1466 0.960 . S
H1453 C1466 0.961 . S
H1454 C1466 0.959 . S
H1455 C1469 0.929 . S
H1456 C1470 0.931 . S
H1457 C1472 0.930 . S
C1458 H1446 0.930 . S
C1458 C1459 1.399 . S
C1458 C1463 1.399 . S
C1459 C1458 1.399 . S
C1459 C1460 1.376 . S
C1460 H1447 0.930 . S
C1460 C1459 1.376 . S
C1460 C1461 1.388 . S
C1461 H1448 0.930 . S
C1461 C1460 1.388 . S
C1461 C1462 1.390 . S
C1462 C1461 1.390 . S
C1462 C1463 1.394 . S
C1462 C1468 1.465 . S
C1463 C1458 1.399 . S
C1463 C1462 1.394 . S
C1463 C1464 1.516 . S
C1464 C1463 1.516 . S
C1464 C1465 1.502 . S
C1464 C1466 1.561 . S
C1464 C1467 1.526 . S
C1465 H1449 0.959 . S
C1465 H1450 0.959 . S
C1465 H1451 0.961 . S
C1465 C1464 1.502 . S
C1466 H1452 0.960 . S
C1466 H1453 0.961 . S
C1466 H1454 0.959 . S
C1466 C1464 1.561 . S
C1467 C1464 1.526 . S
C1467 C1468 1.396 . S
C1467 C1472 1.390 . S
C1468 C1462 1.465 . S
C1468 C1467 1.396 . S
C1468 C1469 1.399 . S
C1469 H1455 0.929 . S
C1469 C1468 1.399 . S
C1469 C1470 1.385 . S
C1470 H1456 0.931 . S
C1470 C1469 1.385 . S
C1470 C1471 1.389 . S
C1471 C1470 1.389 . S
C1471 C1472 1.387 . S
C1472 H1457 0.930 . S
C1472 C1467 1.390 . S
C1472 C1471 1.387 . S
H1473 C1485 0.930 . S
H1474 C1487 0.930 . S
H1475 C1488 0.930 . S
H1476 C1492 0.959 . S
H1477 C1492 0.959 . S
H1478 C1492 0.961 . S
H1479 C1493 0.960 . S
H1480 C1493 0.961 . S
H1481 C1493 0.959 . S
H1482 C1496 0.929 . S
H1483 C1497 0.931 . S
H1484 C1499 0.930 . S
C1485 H1473 0.930 . S
C1485 C1486 1.399 . S
C1485 C1490 1.399 . S
C1486 C1485 1.399 . S
C1486 C1487 1.376 . S
C1487 H1474 0.930 . S
C1487 C1486 1.376 . S
C1487 C1488 1.388 . S
C1488 H1475 0.930 . S
C1488 C1487 1.388 . S
C1488 C1489 1.390 . S
C1489 C1488 1.390 . S
C1489 C1490 1.394 . S
C1489 C1495 1.465 . S
C1490 C1485 1.399 . S
C1490 C1489 1.394 . S
C1490 C1491 1.516 . S
C1491 C1490 1.516 . S
C1491 C1492 1.502 . S
C1491 C1493 1.561 . S
C1491 C1494 1.526 . S
C1492 H1476 0.959 . S
C1492 H1477 0.959 . S
C1492 H1478 0.961 . S
C1492 C1491 1.502 . S
C1493 H1479 0.960 . S
C1493 H1480 0.961 . S
C1493 H1481 0.959 . S
C1493 C1491 1.561 . S
C1494 C1491 1.526 . S
C1494 C1495 1.396 . S
C1494 C1499 1.390 . S
C1495 C1489 1.465 . S
C1495 C1494 1.396 . S
C1495 C1496 1.399 . S
C1496 H1482 0.929 . S
C1496 C1495 1.399 . S
C1496 C1497 1.385 . S
C1497 H1483 0.931 . S
C1497 C1496 1.385 . S
C1497 C1498 1.389 . S
C1498 C1497 1.389 . S
C1498 C1499 1.387 . S
C1499 H1484 0.930 . S
C1499 C1494 1.390 . S
C1499 C1498 1.387 . S
H1500 C1512 0.930 . S
H1501 C1514 0.930 . S
H1502 C1515 0.930 . S
H1503 C1519 0.959 . S
H1504 C1519 0.959 . S
H1505 C1519 0.961 . S
H1506 C1520 0.960 . S
H1507 C1520 0.961 . S
H1508 C1520 0.959 . S
H1509 C1523 0.929 . S
H1510 C1524 0.931 . S
H1511 C1526 0.930 . S
C1512 H1500 0.930 . S
C1512 C1513 1.399 . S
C1512 C1517 1.399 . S
C1513 C1512 1.399 . S
C1513 C1514 1.376 . S
C1514 H1501 0.930 . S
C1514 C1513 1.376 . S
C1514 C1515 1.388 . S
C1515 H1502 0.930 . S
C1515 C1514 1.388 . S
C1515 C1516 1.390 . S
C1516 C1515 1.390 . S
C1516 C1517 1.394 . S
C1516 C1522 1.465 . S
C1517 C1512 1.399 . S
C1517 C1516 1.394 . S
C1517 C1518 1.516 . S
C1518 C1517 1.516 . S
C1518 C1519 1.502 . S
C1518 C1520 1.561 . S
C1518 C1521 1.526 . S
C1519 H1503 0.959 . S
C1519 H1504 0.959 . S
C1519 H1505 0.961 . S
C1519 C1518 1.502 . S
C1520 H1506 0.960 . S
C1520 H1507 0.961 . S
C1520 H1508 0.959 . S
C1520 C1518 1.561 . S
C1521 C1518 1.526 . S
C1521 C1522 1.396 . S
C1521 C1526 1.390 . S
C1522 C1516 1.465 . S
C1522 C1521 1.396 . S
C1522 C1523 1.399 . S
C1523 H1509 0.929 . S
C1523 C1522 1.399 . S
C1523 C1524 1.385 . S
C1524 H1510 0.931 . S
C1524 C1523 1.385 . S
C1524 C1525 1.389 . S
C1525 C1524 1.389 . S
C1525 C1526 1.387 . S
C1526 H1511 0.930 . S
C1526 C1521 1.390 . S
C1526 C1525 1.387 . S
H1527 C1539 0.930 . S
H1528 C1541 0.930 . S
H1529 C1542 0.930 . S
H1530 C1546 0.959 . S
H1531 C1546 0.959 . S
H1532 C1546 0.961 . S
H1533 C1547 0.960 . S
H1534 C1547 0.961 . S
H1535 C1547 0.959 . S
H1536 C1550 0.929 . S
H1537 C1551 0.931 . S
H1538 C1553 0.930 . S
C1539 H1527 0.930 . S
C1539 C1540 1.399 . S
C1539 C1544 1.399 . S
C1540 C1539 1.399 . S
C1540 C1541 1.376 . S
C1541 H1528 0.930 . S
C1541 C1540 1.376 . S
C1541 C1542 1.388 . S
C1542 H1529 0.930 . S
C1542 C1541 1.388 . S
C1542 C1543 1.390 . S
C1543 C1542 1.390 . S
C1543 C1544 1.394 . S
C1543 C1549 1.465 . S
C1544 C1539 1.399 . S
C1544 C1543 1.394 . S
C1544 C1545 1.516 . S
C1545 C1544 1.516 . S
C1545 C1546 1.502 . S
C1545 C1547 1.561 . S
C1545 C1548 1.526 . S
C1546 H1530 0.959 . S
C1546 H1531 0.959 . S
C1546 H1532 0.961 . S
C1546 C1545 1.502 . S
C1547 H1533 0.960 . S
C1547 H1534 0.961 . S
C1547 H1535 0.959 . S
C1547 C1545 1.561 . S
C1548 C1545 1.526 . S
C1548 C1549 1.396 . S
C1548 C1553 1.390 . S
C1549 C1543 1.465 . S
C1549 C1548 1.396 . S
C1549 C1550 1.399 . S
C1550 H1536 0.929 . S
C1550 C1549 1.399 . S
C1550 C1551 1.385 . S
C1551 H1537 0.931 . S
C1551 C1550 1.385 . S
C1551 C1552 1.389 . S
C1552 C1551 1.389 . S
C1552 C1553 1.387 . S
C1553 H1538 0.930 . S
C1553 C1548 1.390 . S
C1553 C1552 1.387 . S
H1554 C1566 0.930 . S
H1555 C1568 0.930 . S
H1556 C1569 0.930 . S
H1557 C1573 0.959 . S
H1558 C1573 0.959 . S
H1559 C1573 0.961 . S
H1560 C1574 0.960 . S
H1561 C1574 0.961 . S
H1562 C1574 0.959 . S
H1563 C1577 0.929 . S
H1564 C1578 0.931 . S
H1565 C1580 0.930 . S
C1566 H1554 0.930 . S
C1566 C1567 1.399 . S
C1566 C1571 1.399 . S
C1567 C1566 1.399 . S
C1567 C1568 1.376 . S
C1568 H1555 0.930 . S
C1568 C1567 1.376 . S
C1568 C1569 1.388 . S
C1569 H1556 0.930 . S
C1569 C1568 1.388 . S
C1569 C1570 1.390 . S
C1570 C1569 1.390 . S
C1570 C1571 1.394 . S
C1570 C1576 1.465 . S
C1571 C1566 1.399 . S
C1571 C1570 1.394 . S
C1571 C1572 1.516 . S
C1572 C1571 1.516 . S
C1572 C1573 1.502 . S
C1572 C1574 1.561 . S
C1572 C1575 1.526 . S
C1573 H1557 0.959 . S
C1573 H1558 0.959 . S
C1573 H1559 0.961 . S
C1573 C1572 1.502 . S
C1574 H1560 0.960 . S
C1574 H1561 0.961 . S
C1574 H1562 0.959 . S
C1574 C1572 1.561 . S
C1575 C1572 1.526 . S
C1575 C1576 1.396 . S
C1575 C1580 1.390 . S
C1576 C1570 1.465 . S
C1576 C1575 1.396 . S
C1576 C1577 1.399 . S
C1577 H1563 0.929 . S
C1577 C1576 1.399 . S
C1577 C1578 1.385 . S
C1578 H1564 0.931 . S
C1578 C1577 1.385 . S
C1578 C1579 1.389 . S
C1579 C1578 1.389 . S
C1579 C1580 1.387 . S
C1580 H1565 0.930 . S
C1580 C1575 1.390 . S
C1580 C1579 1.387 . S
H1581 C1593 0.930 . S
H1582 C1595 0.930 . S
H1583 C1596 0.930 . S
H1584 C1600 0.959 . S
H1585 C1600 0.959 . S
H1586 C1600 0.961 . S
H1587 C1601 0.960 . S
H1588 C1601 0.961 . S
H1589 C1601 0.959 . S
H1590 C1604 0.929 . S
H1591 C1605 0.931 . S
H1592 C1607 0.930 . S
C1593 H1581 0.930 . S
C1593 C1594 1.399 . S
C1593 C1598 1.399 . S
C1594 C1593 1.399 . S
C1594 C1595 1.376 . S
C1595 H1582 0.930 . S
C1595 C1594 1.376 . S
C1595 C1596 1.388 . S
C1596 H1583 0.930 . S
C1596 C1595 1.388 . S
C1596 C1597 1.390 . S
C1597 C1596 1.390 . S
C1597 C1598 1.394 . S
C1597 C1603 1.465 . S
C1598 C1593 1.399 . S
C1598 C1597 1.394 . S
C1598 C1599 1.516 . S
C1599 C1598 1.516 . S
C1599 C1600 1.502 . S
C1599 C1601 1.561 . S
C1599 C1602 1.526 . S
C1600 H1584 0.959 . S
C1600 H1585 0.959 . S
C1600 H1586 0.961 . S
C1600 C1599 1.502 . S
C1601 H1587 0.960 . S
C1601 H1588 0.961 . S
C1601 H1589 0.959 . S
C1601 C1599 1.561 . S
C1602 C1599 1.526 . S
C1602 C1603 1.396 . S
C1602 C1607 1.390 . S
C1603 C1597 1.465 . S
C1603 C1602 1.396 . S
C1603 C1604 1.399 . S
C1604 H1590 0.929 . S
C1604 C1603 1.399 . S
C1604 C1605 1.385 . S
C1605 H1591 0.931 . S
C1605 C1604 1.385 . S
C1605 C1606 1.389 . S
C1606 C1605 1.389 . S
C1606 C1607 1.387 . S
C1607 H1592 0.930 . S
C1607 C1602 1.390 . S
C1607 C1606 1.387 . S
C541 C7 1.430 . S
C553 C139 1.429 . S
C568 C172 1.456 . S
C580 C40 1.454 . S
C595 C205 1.430 . S
C607 C73 1.428 . S
C622 C238 1.425 . S
C634 C106 1.428 . S
C649 C271 1.420 . S
C661 C403 1.422 . S
C676 C304 1.420 . S
C688 C436 1.432 . S
C703 C469 1.421 . S
C715 C337 1.434 . S
C730 C370 1.460 . S
C742 C502 1.470 . S
C757 N398 1.255 . S
C769 N13 1.298 . S
C784 N431 1.262 . S
C796 N46 1.297 . S
C811 N79 1.268 . S
C823 N464 1.260 . S
C838 N497 1.254 . S
C850 N112 1.297 . S
C865 N266 1.255 . S
C877 N145 1.297 . S
C892 N299 1.289 . S
C904 N178 1.241 . S
C919 N211 1.293 . S
C931 N332 1.272 . S
C946 N244 1.257 . S
C958 N365 1.270 . S
C973 N134 1.251 . S
C985 N277 1.297 . S
C1000 N167 1.294 . S
C1012 N310 1.244 . S
C1027 N200 1.289 . S
C1039 N343 1.257 . S
C1054 N376 1.297 . S
C1066 N233 1.254 . S
C1081 N2 1.287 . S
C1093 N409 1.260 . S
C1108 N35 1.254 . S
C1120 N442 1.293 . S
C1135 N475 1.297 . S
C1147 N68 1.254 . S
C1162 N101 1.252 . S
C1174 N508 1.298 . S
C1189 C87 1.330 . S
C1201 C21 1.335 . S
C1216 C54 1.329 . S
C1228 C120 1.334 . S
C1243 C219 1.307 . S
C1255 C153 1.305 . S
C1270 C252 1.311 . S
C1282 C186 1.307 . S
C1297 C351 1.306 . S
C1309 C285 1.306 . S
C1324 C384 1.309 . S
C1336 C318 1.308 . S
C1351 C417 1.306 . S
C1363 C483 1.306 . S
C1378 C516 1.309 . S
C1390 C450 1.308 . S
C1405 C249 1.238 . S
C1417 C18 1.262 . S
C1432 C150 1.201 . S
C1444 C51 1.213 . S
C1459 C183 1.264 . S
C1471 C84 1.267 . S
C1486 C216 1.212 . S
C1498 C117 1.239 . S
C1513 C513 1.242 . S
C1525 C282 1.268 . S
C1540 C414 1.238 . S
C1552 C315 1.268 . S
C1567 C447 1.268 . S
C1579 C348 1.246 . S
C1594 C480 1.225 . S
C1606 C381 1.266 . S
