# Generated by pormake.
# Topology wiu, (6)-cn, num edge types: 1
# Building blocks:
#     Node 0, Type 0, BuildingBlock: PAMTOO_clean_sbu_0, # of connection points: 6
#     Node 1, Type 0, BuildingBlock: PAMTOO_clean_sbu_0, # of connection points: 6
#     Node 2, Type 0, BuildingBlock: PAMTOO_clean_sbu_0, # of connection points: 6
#     Node 3, Type 0, BuildingBlock: PAMTOO_clean_sbu_0, # of connection points: 6
#     Node 4, Type 0, BuildingBlock: PAMTOO_clean_sbu_0, # of connection points: 6
#     Node 5, Type 0, BuildingBlock: PAMTOO_clean_sbu_0, # of connection points: 6
#     Node 6, Type 0, BuildingBlock: PAMTOO_clean_sbu_0, # of connection points: 6
#     Node 7, Type 0, BuildingBlock: PAMTOO_clean_sbu_0, # of connection points: 6
#     Node 8, Type 0, BuildingBlock: PAMTOO_clean_sbu_0, # of connection points: 6
#     Node 9, Type 0, BuildingBlock: PAMTOO_clean_sbu_0, # of connection points: 6
#     Node 10, Type 0, BuildingBlock: PAMTOO_clean_sbu_0, # of connection points: 6
#     Node 11, Type 0, BuildingBlock: PAMTOO_clean_sbu_0, # of connection points: 6
#     Node 12, Type 0, BuildingBlock: PAMTOO_clean_sbu_0, # of connection points: 6
#     Node 13, Type 0, BuildingBlock: PAMTOO_clean_sbu_0, # of connection points: 6
#     Node 14, Type 0, BuildingBlock: PAMTOO_clean_sbu_0, # of connection points: 6
#     Node 15, Type 0, BuildingBlock: PAMTOO_clean_sbu_0, # of connection points: 6
#     Edge 16, Type (0, 0), BuildingBlock: ZUJKAS_clean_linker_0, # of connection points: 2
#     Edge 17, Type (0, 0), BuildingBlock: ZUJKAS_clean_linker_0, # of connection points: 2
#     Edge 18, Type (0, 0), BuildingBlock: ZUJKAS_clean_linker_0, # of connection points: 2
#     Edge 19, Type (0, 0), BuildingBlock: ZUJKAS_clean_linker_0, # of connection points: 2
#     Edge 20, Type (0, 0), BuildingBlock: ZUJKAS_clean_linker_0, # of connection points: 2
#     Edge 21, Type (0, 0), BuildingBlock: ZUJKAS_clean_linker_0, # of connection points: 2
#     Edge 22, Type (0, 0), BuildingBlock: ZUJKAS_clean_linker_0, # of connection points: 2
#     Edge 23, Type (0, 0), BuildingBlock: ZUJKAS_clean_linker_0, # of connection points: 2
#     Edge 24, Type (0, 0), BuildingBlock: ZUJKAS_clean_linker_0, # of connection points: 2
#     Edge 25, Type (0, 0), BuildingBlock: ZUJKAS_clean_linker_0, # of connection points: 2
#     Edge 26, Type (0, 0), BuildingBlock: ZUJKAS_clean_linker_0, # of connection points: 2
#     Edge 27, Type (0, 0), BuildingBlock: ZUJKAS_clean_linker_0, # of connection points: 2
#     Edge 28, Type (0, 0), BuildingBlock: ZUJKAS_clean_linker_0, # of connection points: 2
#     Edge 29, Type (0, 0), BuildingBlock: ZUJKAS_clean_linker_0, # of connection points: 2
#     Edge 30, Type (0, 0), BuildingBlock: ZUJKAS_clean_linker_0, # of connection points: 2
#     Edge 31, Type (0, 0), BuildingBlock: ZUJKAS_clean_linker_0, # of connection points: 2
#     Edge 32, Type (0, 0), BuildingBlock: ZUJKAS_clean_linker_0, # of connection points: 2
#     Edge 33, Type (0, 0), BuildingBlock: ZUJKAS_clean_linker_0, # of connection points: 2
#     Edge 34, Type (0, 0), BuildingBlock: ZUJKAS_clean_linker_0, # of connection points: 2
#     Edge 35, Type (0, 0), BuildingBlock: ZUJKAS_clean_linker_0, # of connection points: 2
#     Edge 36, Type (0, 0), BuildingBlock: ZUJKAS_clean_linker_0, # of connection points: 2
#     Edge 37, Type (0, 0), BuildingBlock: ZUJKAS_clean_linker_0, # of connection points: 2
#     Edge 38, Type (0, 0), BuildingBlock: ZUJKAS_clean_linker_0, # of connection points: 2
#     Edge 39, Type (0, 0), BuildingBlock: ZUJKAS_clean_linker_0, # of connection points: 2
#     Edge 40, Type (0, 0), BuildingBlock: ZUJKAS_clean_linker_0, # of connection points: 2
#     Edge 41, Type (0, 0), BuildingBlock: ZUJKAS_clean_linker_0, # of connection points: 2
#     Edge 42, Type (0, 0), BuildingBlock: ZUJKAS_clean_linker_0, # of connection points: 2
#     Edge 43, Type (0, 0), BuildingBlock: ZUJKAS_clean_linker_0, # of connection points: 2
#     Edge 44, Type (0, 0), BuildingBlock: ZUJKAS_clean_linker_0, # of connection points: 2
#     Edge 45, Type (0, 0), BuildingBlock: ZUJKAS_clean_linker_0, # of connection points: 2
#     Edge 46, Type (0, 0), BuildingBlock: ZUJKAS_clean_linker_0, # of connection points: 2
#     Edge 47, Type (0, 0), BuildingBlock: ZUJKAS_clean_linker_0, # of connection points: 2
#     Edge 48, Type (0, 0), BuildingBlock: ZUJKAS_clean_linker_0, # of connection points: 2
#     Edge 49, Type (0, 0), BuildingBlock: ZUJKAS_clean_linker_0, # of connection points: 2
#     Edge 50, Type (0, 0), BuildingBlock: ZUJKAS_clean_linker_0, # of connection points: 2
#     Edge 51, Type (0, 0), BuildingBlock: ZUJKAS_clean_linker_0, # of connection points: 2
#     Edge 52, Type (0, 0), BuildingBlock: ZUJKAS_clean_linker_0, # of connection points: 2
#     Edge 53, Type (0, 0), BuildingBlock: ZUJKAS_clean_linker_0, # of connection points: 2
#     Edge 54, Type (0, 0), BuildingBlock: ZUJKAS_clean_linker_0, # of connection points: 2
#     Edge 55, Type (0, 0), BuildingBlock: ZUJKAS_clean_linker_0, # of connection points: 2
#     Edge 56, Type (0, 0), BuildingBlock: ZUJKAS_clean_linker_0, # of connection points: 2
#     Edge 57, Type (0, 0), BuildingBlock: ZUJKAS_clean_linker_0, # of connection points: 2
#     Edge 58, Type (0, 0), BuildingBlock: ZUJKAS_clean_linker_0, # of connection points: 2
#     Edge 59, Type (0, 0), BuildingBlock: ZUJKAS_clean_linker_0, # of connection points: 2
#     Edge 60, Type (0, 0), BuildingBlock: ZUJKAS_clean_linker_0, # of connection points: 2
#     Edge 61, Type (0, 0), BuildingBlock: ZUJKAS_clean_linker_0, # of connection points: 2
#     Edge 62, Type (0, 0), BuildingBlock: ZUJKAS_clean_linker_0, # of connection points: 2
#     Edge 63, Type (0, 0), BuildingBlock: ZUJKAS_clean_linker_0, # of connection points: 2
# Relax obj value: 0.393
# Max RMSD: 0.291
# Mean RMSD: 0.291
data_MOF--net-wiu--node1-PAMTOO_clean_sbu_0--edge1-ZUJKAS_clean_linker_0
_symmetry_space_group_name_H-M    P1
_symmetry_Int_Tables_number       1
_symmetry_cell_setting            triclinic
loop_
_symmetry_equiv_pos_as_xyz
'x, y, z'
_cell_length_a     47.351742
_cell_length_b     47.395099
_cell_length_c     71.255071
_cell_angle_alpha  89.701847
_cell_angle_beta   89.808632
_cell_angle_gamma 89.983199
loop_
_atom_site_label
_atom_site_type_symbol
_atom_site_fract_x
_atom_site_fract_y
_atom_site_fract_z
_atom_type_partial_charge
Dy0 Dy 0.36773 0.09075 0.23061 0.0
Dy1 Dy 0.32907 0.14169 0.24666 0.0
C2 C 0.39328 0.15237 0.23487 0.0
O3 O 0.36661 0.08126 0.2613 0.0
O4 O 0.34351 0.11982 0.27339 0.0
O5 O 0.40177 0.07517 0.21346 0.0
O6 O 0.37752 0.04635 0.23103 0.0
O7 O 0.30286 0.10344 0.25141 0.0
O8 O 0.32276 0.07687 0.22814 0.0
O9 O 0.31298 0.13598 0.2171 0.0
O10 O 0.34858 0.10921 0.20426 0.0
O11 O 0.29065 0.16663 0.24794 0.0
O12 O 0.32896 0.17993 0.26292 0.0
C13 C 0.35664 0.09543 0.27563 0.0
O14 O 0.39827 0.12551 0.23799 0.0
O15 O 0.36718 0.16096 0.23284 0.0
C16 C 0.39334 0.02979 0.20199 0.0
C17 C 0.39655 1.00075 0.16795 0.0
C18 C 0.37499 0.02069 0.17091 0.0
C19 C 0.3735 0.03529 0.18786 0.0
C20 C 0.4123 0.00746 0.20006 0.0
C21 C 0.41381 0.99287 0.1832 0.0
C22 C 0.39644 0.04889 0.21783 0.0
C23 C 0.30169 0.08241 0.23956 0.0
C24 C 0.32485 0.1236 0.20252 0.0
C25 C 0.28825 0.21099 0.26522 0.0
C26 C 0.26368 0.26429 0.2715 0.0
C27 C 0.24761 0.24221 0.26386 0.0
C28 C 0.25982 0.2158 0.2607 0.0
C29 C 0.3037 0.23237 0.27408 0.0
C30 C 0.29156 0.25877 0.27717 0.0
C31 C 0.30286 0.1856 0.25837 0.0
H32 H 0.36113 0.0269 0.15955 0.0
H33 H 0.35829 0.05221 0.1894 0.0
H34 H 0.42741 1.00274 0.21103 0.0
H35 H 0.43075 0.97773 0.18154 0.0
H36 H 0.22592 0.24565 0.25966 0.0
H37 H 0.2474 0.19964 0.25391 0.0
H38 H 0.32572 0.22929 0.27764 0.0
H39 H 0.30464 0.27534 0.28291 0.0
Dy40 Dy 0.67098 0.61385 0.48067 0.0
Dy41 Dy 0.6223 0.57257 0.49822 0.0
C42 C 0.60738 0.63701 0.48684 0.0
O43 O 0.6813 0.61371 0.51125 0.0
O44 O 0.64518 0.58767 0.52417 0.0
O45 O 0.68505 0.64879 0.46373 0.0
O46 O 0.71522 0.62483 0.48042 0.0
O47 O 0.66287 0.54954 0.50164 0.0
O48 O 0.68595 0.56951 0.47681 0.0
O49 O 0.62548 0.55849 0.46787 0.0
O50 O 0.65329 0.59341 0.45477 0.0
O51 O 0.58897 0.56646 0.51844 0.0
O52 O 0.60011 0.53275 0.49931 0.0
C53 C 0.66856 0.60253 0.52587 0.0
O54 O 0.63451 0.64306 0.487 0.0
O55 O 0.59873 0.61071 0.48781 0.0
C56 C 0.73133 0.64354 0.45168 0.0
C57 C 0.76568 0.6574 0.42092 0.0
C58 C 0.73869 0.64559 0.41813 0.0
C59 C 0.72164 0.6387 0.43343 0.0
C60 C 0.75962 0.65096 0.45452 0.0
C61 C 0.77691 0.65738 0.43918 0.0
C62 C 0.71165 0.64414 0.46758 0.0
C63 C 0.6823 0.54847 0.48856 0.0
C64 C 0.63811 0.57018 0.45318 0.0
C65 C 0.55272 0.53602 0.50908 0.0
C66 C 0.49448 0.52669 0.50473 0.0
C67 C 0.51069 0.50899 0.51639 0.0
C68 C 0.53957 0.51365 0.51853 0.0
C69 C 0.53685 0.55357 0.49722 0.0
C70 C 0.50788 0.54896 0.49508 0.0
C71 C 0.58273 0.54135 0.51231 0.0
H72 H 0.72919 0.64481 0.40435 0.0
H73 H 0.7001 0.63199 0.43093 0.0
H74 H 0.76769 0.65391 0.46858 0.0
H75 H 0.79798 0.66531 0.44178 0.0
H76 H 0.50093 0.4919 0.5242 0.0
H77 H 0.55159 0.50002 0.5278 0.0
H78 H 0.5468 0.57095 0.4898 0.0
H79 H 0.49601 0.56273 0.48584 0.0
Dy80 Dy 0.14645 0.92258 0.73165 0.0
Dy81 Dy 0.18499 0.87078 0.74709 0.0
C82 C 0.12099 0.86061 0.73523 0.0
O83 O 0.14706 0.93067 0.76241 0.0
O84 O 0.17051 0.8919 0.77407 0.0
O85 O 0.11294 0.93846 0.71421 0.0
O86 O 0.13517 0.96657 0.73311 0.0
O87 O 0.21131 0.90864 0.75242 0.0
O88 O 0.19123 0.93762 0.73031 0.0
O89 O 0.20127 0.87725 0.71753 0.0
O90 O 0.16713 0.90651 0.7052 0.0
O91 O 0.2232 0.84552 0.74813 0.0
O92 O 0.18466 0.83197 0.76302 0.0
C93 C 0.15714 0.9161 0.77657 0.0
O94 O 0.11599 0.88734 0.73863 0.0
O95 O 0.14708 0.85211 0.73305 0.0
C96 C 0.11908 0.98551 0.70469 0.0
C97 C 0.11443 0.01932 0.6725 0.0
C98 C 0.1362 0.9992 0.67389 0.0
C99 C 0.13842 0.98223 0.68991 0.0
C100 C 0.09982 0.00778 0.70436 0.0
C101 C 0.09757 0.0247 0.68843 0.0
C102 C 0.11682 0.96447 0.71963 0.0
C103 C 0.21216 0.93111 0.74161 0.0
C104 C 0.19023 0.89119 0.70324 0.0
C105 C 0.22509 0.80047 0.76496 0.0
C106 C 0.2489 0.74661 0.77067 0.0
C107 C 0.26515 0.7686 0.76287 0.0
C108 C 0.25333 0.79529 0.76 0.0
C109 C 0.20949 0.77914 0.77397 0.0
C110 C 0.22126 0.75246 0.77678 0.0
C111 C 0.21074 0.82624 0.75836 0.0
H112 H 0.14976 0.99483 0.66198 0.0
H113 H 0.15387 0.96537 0.69024 0.0
H114 H 0.08506 0.01077 0.71584 0.0
H115 H 0.08043 0.03982 0.68795 0.0
H116 H 0.28668 0.76489 0.75832 0.0
H117 H 0.26586 0.81139 0.75307 0.0
H118 H 0.18762 0.7825 0.77787 0.0
H119 H 0.20805 0.73598 0.78267 0.0
Dy120 Dy 0.84341 0.39672 0.98269 0.0
Dy121 Dy 0.89223 0.4391 0.99717 0.0
C122 C 0.90759 0.37441 0.98642 0.0
O123 O 0.84781 0.38987 1.0137 0.0
O124 O 0.86065 0.43448 1.02086 0.0
O125 O 0.82641 0.3652 0.96426 0.0
O126 O 0.80293 0.37801 0.98907 0.0
O127 O 0.85666 0.46854 0.9927 0.0
O128 O 0.82054 0.43802 0.98531 0.0
O129 O 0.89408 0.443 0.96536 0.0
O130 O 0.85018 0.42567 0.95808 0.0
O131 O 0.92047 0.44993 1.01975 0.0
O132 O 0.91999 0.47486 0.99418 0.0
C133 C 0.84816 0.41078 1.02567 0.0
O134 O 0.88357 0.3724 0.97729 0.0
O135 O 0.91293 0.39633 0.99705 0.0
C136 C 0.77646 0.36742 0.9621 0.0
C137 C 0.7281 0.3632 0.93949 0.0
C138 C 0.75381 0.37314 0.93191 0.0
C139 C 0.77773 0.37525 0.94311 0.0
C140 C 0.75022 0.36084 0.9702 0.0
C141 C 0.72611 0.35911 0.95902 0.0
C142 C 0.80234 0.36429 0.97328 0.0
C143 C 0.83023 0.46358 0.98846 0.0
C144 C 0.87276 0.44042 0.95351 0.0
C145 C 0.96277 0.47206 1.01062 0.0
C146 C 0.02181 0.47782 1.01009 0.0
C147 C 1.00515 0.49482 1.02187 0.0
C148 C 0.97586 0.49197 1.02209 0.0
C149 C 0.9792 0.45442 0.99923 0.0
C150 C 0.00859 0.45727 0.99897 0.0
C151 C 0.93194 0.47068 1.0104 0.0
H152 H 0.75646 0.37651 0.91697 0.0
H153 H 0.79757 0.3812 0.93659 0.0
H154 H 0.74867 0.35543 0.98496 0.0
H155 H 0.70652 0.35209 0.96539 0.0
H156 H 0.01476 0.5105 1.03082 0.0
H157 H 0.96339 0.50561 1.03104 0.0
H158 H 0.96927 0.43887 0.99032 0.0
H159 H 0.02087 0.44403 0.98966 0.0
Dy160 Dy 0.69066 0.8679 0.98012 0.0
Dy161 Dy 0.64935 0.91674 0.9974 0.0
C162 C 0.71551 0.92773 0.9892 0.0
O163 O 0.70407 0.87129 1.01059 0.0
O164 O 0.67024 0.9003 1.02359 0.0
O165 O 0.6992 0.83698 0.95878 0.0
O166 O 0.72799 0.84177 0.98215 0.0
O167 O 0.62007 0.87952 0.99754 0.0
O168 O 0.64939 0.8455 0.98533 0.0
O169 O 0.64355 0.9199 0.96611 0.0
O170 O 0.68177 0.8955 0.95494 0.0
O171 O 0.61559 0.93386 1.01409 0.0
O172 O 0.64003 0.96122 0.99563 0.0
C173 C 0.69306 0.88453 1.02518 0.0
O174 O 0.7157 0.90718 0.97701 0.0
O175 O 0.69379 0.93211 1.00027 0.0
C176 C 0.72145 0.7959 0.97045 0.0
C177 C 0.72337 0.737 0.97564 0.0
C178 C 0.74843 0.75288 0.97486 0.0
C179 C 0.74746 0.78207 0.97223 0.0
C180 C 0.69633 0.78019 0.97155 0.0
C181 C 0.6973 0.75093 0.974 0.0
C182 C 0.72096 0.82666 0.96767 0.0
C183 C 0.62477 0.85347 0.99209 0.0
C184 C 0.66086 0.91337 0.95233 0.0
C185 C 0.62466 0.97975 1.02432 0.0
C186 C 0.62164 0.01034 1.05777 0.0
C187 C 0.64301 0.99006 1.05524 0.0
C188 C 0.6444 0.97469 1.03859 0.0
C189 C 0.60592 1.00234 1.02579 0.0
C190 C 0.6045 0.0177 1.04235 0.0
C191 C 0.62121 0.95977 1.00898 0.0
H192 H 0.76883 0.74264 0.9759 0.0
H193 H 0.76704 0.79387 0.9715 0.0
H194 H 0.67596 0.79047 0.97047 0.0
H195 H 0.67768 0.73922 0.97475 0.0
H196 H 0.65677 0.98421 1.06674 0.0
H197 H 0.65941 0.95752 1.03743 0.0
H198 H 0.59084 0.00668 1.01473 0.0
H199 H 0.58769 0.03306 1.0437 0.0
Dy200 Dy 0.38977 0.43572 0.72986 0.0
Dy201 Dy 0.33989 0.39493 0.74691 0.0
C202 C 0.33023 0.46102 0.7392 0.0
O203 O 0.38855 0.44657 0.76097 0.0
O204 O 0.35449 0.41663 0.77303 0.0
O205 O 0.41325 0.47481 0.73074 0.0
O206 O 0.4222 0.44369 0.70924 0.0
O207 O 0.37759 0.3661 0.7482 0.0
O208 O 0.41121 0.39358 0.73347 0.0
O209 O 0.33761 0.38932 0.71563 0.0
O210 O 0.36217 0.42763 0.70475 0.0
O211 O 0.32184 0.36108 0.76316 0.0
O212 O 0.29533 0.38604 0.74447 0.0
C213 C 0.37292 0.43722 0.77514 0.0
O214 O 0.35011 0.46 0.72648 0.0
O215 O 0.32551 0.4396 0.75046 0.0
C216 C 0.45963 0.47397 0.71833 0.0
C217 C 0.51744 0.48789 0.71842 0.0
C218 C 0.49679 0.50912 0.71955 0.0
C219 C 0.46817 0.5022 0.71947 0.0
C220 C 0.48014 0.45257 0.71774 0.0
C221 C 0.50885 0.4595 0.71779 0.0
C222 C 0.42933 0.4678 0.71662 0.0
C223 C 0.40325 0.3697 0.74142 0.0
C224 C 0.34428 0.40686 0.70199 0.0
C225 C 0.27456 0.36938 0.77249 0.0
C226 C 0.23496 0.35999 0.80123 0.0
C227 C 0.26259 0.36901 0.80551 0.0
C228 C 0.28221 0.37369 0.79124 0.0
C229 C 0.24618 0.36457 0.76805 0.0
C230 C 0.22635 0.36038 0.78234 0.0
C231 C 0.29614 0.36704 0.75775 0.0
H232 H 0.50275 0.53114 0.72044 0.0
H233 H 0.45265 0.51899 0.71998 0.0
H234 H 0.47405 0.43059 0.71688 0.0
H235 H 0.52429 0.4427 0.71683 0.0
H236 H 0.27025 0.36935 0.81979 0.0
H237 H 0.30386 0.3784 0.79498 0.0
H238 H 0.23973 0.36206 0.75358 0.0
H239 H 0.205 0.35459 0.77855 0.0
Dy240 Dy 0.8298 0.1388 0.481 0.0
Dy241 Dy 0.86838 0.08666 0.49653 0.0
C242 C 0.80133 0.08037 0.48878 0.0
O243 O 0.81921 0.136 0.51209 0.0
O244 O 0.84795 0.10054 0.52335 0.0
O245 O 0.79329 0.16601 0.48403 0.0
O246 O 0.82537 0.17466 0.46236 0.0
O247 O 0.89838 0.12316 0.49986 0.0
O248 O 0.87325 0.15702 0.48396 0.0
O249 O 0.87434 0.08719 0.46518 0.0
O250 O 0.83539 0.11164 0.45534 0.0
O251 O 0.90286 0.06641 0.51084 0.0
O252 O 0.87372 0.04155 0.49429 0.0
C253 C 0.82801 0.11951 0.52591 0.0
O254 O 0.80224 0.10167 0.47705 0.0
O255 O 0.82294 0.07395 0.49947 0.0
C256 C 0.78632 0.2079 0.46454 0.0
C257 C 0.76178 0.26162 0.45976 0.0
C258 C 0.74746 0.24037 0.46984 0.0
C259 C 0.75967 0.21378 0.47226 0.0
C260 C 0.79962 0.22834 0.45325 0.0
C261 C 0.78749 0.25498 0.45091 0.0
C262 C 0.80206 0.18266 0.47059 0.0
C263 C 0.89619 0.14869 0.49267 0.0
C264 C 0.85618 0.0939 0.45196 0.0
C265 C 0.89066 0.02203 0.52241 0.0
C266 C 0.89432 0.99746 0.55813 0.0
C267 C 0.87109 0.01462 0.55352 0.0
C268 C 0.86939 0.02705 0.53575 0.0
C269 C 0.91143 1.00186 0.52602 0.0
C270 C 0.91317 0.98945 0.54374 0.0
C271 C 0.89421 0.04115 0.50645 0.0
H272 H 0.72733 0.24465 0.47651 0.0
H273 H 0.7489 0.19835 0.48097 0.0
H274 H 0.82027 0.22441 0.44721 0.0
H275 H 0.79919 0.27088 0.44317 0.0
H276 H 0.85602 0.02084 0.56421 0.0
H277 H 0.85296 0.04243 0.53302 0.0
H278 H 0.92785 0.99767 0.51578 0.0
H279 H 0.93141 0.97638 0.54668 0.0
Dy280 Dy 0.12206 0.57748 0.23128 0.0
Dy281 Dy 0.17359 0.61592 0.24685 0.0
C282 C 0.18078 0.54958 0.23924 0.0
O283 O 0.12723 0.56245 0.26128 0.0
O284 O 0.15537 0.59737 0.27352 0.0
O285 O 0.09748 0.5389 0.23049 0.0
O286 O 0.08354 0.57687 0.21518 0.0
O287 O 0.1387 0.64671 0.23972 0.0
O288 O 0.10282 0.6158 0.24448 0.0
O289 O 0.18294 0.61388 0.21619 0.0
O290 O 0.14374 0.59173 0.20431 0.0
O291 O 0.18982 0.6508 0.26268 0.0
O292 O 0.21843 0.62423 0.24664 0.0
C293 C 0.14017 0.57421 0.27565 0.0
O294 O 0.16029 0.55116 0.22696 0.0
O295 O 0.18647 0.57077 0.25039 0.0
C296 C 0.05286 0.53578 0.21351 0.0
C297 C 0.99966 0.51055 0.20805 0.0
C298 C 0.0221 0.49489 0.21574 0.0
C299 C 0.04845 0.50742 0.21849 0.0
C300 C 0.03112 0.55079 0.20458 0.0
C301 C 1.00476 0.53832 0.20189 0.0
C302 C 0.07819 0.5508 0.22005 0.0
C303 C 0.11171 0.64182 0.24262 0.0
C304 C 0.16845 0.60425 0.20193 0.0
C305 C 0.23497 0.64204 0.27525 0.0
C306 C 0.26801 0.65075 0.30725 0.0
C307 C 0.24074 0.63903 0.30888 0.0
C308 C 0.22437 0.63468 0.29298 0.0
C309 C 0.26338 0.64969 0.27331 0.0
C310 C 0.28001 0.65357 0.28923 0.0
C311 C 0.21608 0.64414 0.25907 0.0
H312 H 0.01897 0.47329 0.22031 0.0
H313 H 0.06489 0.49533 0.22536 0.0
H314 H 0.0339 0.57274 0.20067 0.0
H315 H 0.98792 0.55107 0.19608 0.0
H316 H 0.23061 0.63625 0.32241 0.0
H317 H 0.20269 0.6278 0.2947 0.0
H318 H 0.27214 0.65456 0.2596 0.0
H319 H 0.30127 0.66159 0.28745 0.0
Dy320 Dy 0.86853 0.58939 0.73036 0.0
Dy321 Dy 0.83035 0.64105 0.74591 0.0
C322 C 0.89446 0.65113 0.73416 0.0
O323 O 0.86544 0.57978 0.76094 0.0
O324 O 0.84574 0.62019 0.77282 0.0
O325 O 0.9024 0.57284 0.71348 0.0
O326 O 0.87859 0.54507 0.73213 0.0
O327 O 0.80383 0.60288 0.75047 0.0
O328 O 0.82342 0.57644 0.72702 0.0
O329 O 0.81531 0.63625 0.71595 0.0
O330 O 0.84927 0.60664 0.70375 0.0
O331 O 0.79177 0.66575 0.74761 0.0
O332 O 0.83061 0.67965 0.76171 0.0
C333 C 0.85715 0.595 0.77524 0.0
O334 O 0.8992 0.62425 0.73746 0.0
O335 O 0.86848 0.65992 0.73201 0.0
C336 C 0.89602 0.52529 0.70419 0.0
C337 C 0.90768 0.48595 0.67597 0.0
C338 C 0.898 0.51324 0.67129 0.0
C339 C 0.89223 0.53278 0.68532 0.0
C340 C 0.90148 0.49709 0.70893 0.0
C341 C 0.90687 0.47738 0.69489 0.0
C342 C 0.89745 0.54686 0.71884 0.0
C343 C 0.8023 0.58226 0.73833 0.0
C344 C 0.82657 0.62254 0.70165 0.0
C345 C 0.78989 0.71051 0.76452 0.0
C346 C 0.76534 0.76361 0.77147 0.0
C347 C 0.74912 0.74159 0.7639 0.0
C348 C 0.76132 0.71528 0.76041 0.0
C349 C 0.80557 0.73186 0.77323 0.0
C350 C 0.79344 0.75816 0.77666 0.0
C351 C 0.80428 0.68502 0.75764 0.0
H352 H 0.89809 0.52077 0.65692 0.0
H353 H 0.88714 0.55428 0.68134 0.0
H354 H 0.9037 0.49078 0.7235 0.0
H355 H 0.91341 0.45631 0.69893 0.0
H356 H 0.72728 0.745 0.76004 0.0
H357 H 0.74872 0.69913 0.75374 0.0
H358 H 0.8277 0.72881 0.77649 0.0
H359 H 0.80662 0.7747 0.78233 0.0
Dy360 Dy 0.1762 0.11562 0.98068 0.0
Dy361 Dy 0.12319 0.07803 0.99682 0.0
C362 C 0.11433 0.14477 0.98512 0.0
O363 O 0.17979 0.11923 1.01191 0.0
O364 O 0.14794 0.08675 1.02327 0.0
O365 O 0.19638 0.1495 0.96565 0.0
O366 O 0.22162 0.12002 0.98195 0.0
O367 O 0.16068 0.05102 1.0017 0.0
O368 O 0.18758 0.06984 0.97812 0.0
O369 O 0.12668 0.06567 0.96609 0.0
O370 O 0.16023 0.09614 0.95412 0.0
O371 O 0.09672 0.04071 0.99529 0.0
O372 O 0.08648 0.07516 1.01473 0.0
C373 C 0.16906 0.10445 1.02585 0.0
O374 O 0.14124 0.14802 0.98093 0.0
O375 O 0.1041 0.12032 0.99058 0.0
C376 C 0.2411 0.13753 0.95382 0.0
C377 C 0.27366 0.14665 0.92147 0.0
C378 C 0.24699 0.13354 0.92025 0.0
C379 C 0.23086 0.12901 0.93634 0.0
C380 C 0.26921 0.14623 0.95548 0.0
C381 C 0.28566 0.15025 0.93937 0.0
C382 C 0.22175 0.14056 0.96974 0.0
C383 C 0.18147 0.04903 0.98965 0.0
C384 C 0.1422 0.07524 0.95196 0.0
C385 C 0.05388 0.03559 1.01423 0.0
C386 C 0.9999 0.01183 1.0195 0.0
C387 C 0.02118 0.99669 1.01009 0.0
C388 C 0.04792 0.00851 1.00743 0.0
C389 C 0.03342 0.04974 1.02493 0.0
C390 C 0.00666 0.038 1.02752 0.0
C391 C 0.07926 0.05079 1.00778 0.0
H392 H 0.23689 0.12995 0.90688 0.0
H393 H 0.20942 0.12139 0.93489 0.0
H394 H 0.27772 0.15201 0.96902 0.0
H395 H 0.30659 0.15914 0.94088 0.0
H396 H 0.01678 0.97623 1.00406 0.0
H397 H 0.06338 0.99709 0.99919 0.0
H398 H 0.03741 0.07071 1.03028 0.0
H399 H 0.99074 0.05034 1.03471 0.0
Dy400 Dy 0.64655 0.42348 0.23053 0.0
Dy401 Dy 0.68437 0.37117 0.24599 0.0
C402 C 0.61976 0.36198 0.23451 0.0
O403 O 0.64727 0.43107 0.26143 0.0
O404 O 0.67028 0.39204 0.27309 0.0
O405 O 0.61257 0.44107 0.2143 0.0
O406 O 0.63849 0.46827 0.23173 0.0
O407 O 0.71077 0.40901 0.25118 0.0
O408 O 0.69195 0.43609 0.22773 0.0
O409 O 0.7 0.37775 0.21625 0.0
O410 O 0.66469 0.40537 0.20379 0.0
O411 O 0.72264 0.34602 0.24639 0.0
O412 O 0.6847 0.3322 0.26182 0.0
C413 C 0.65707 0.41631 0.27561 0.0
O414 O 0.6152 0.38897 0.23733 0.0
O415 O 0.64569 0.35274 0.23273 0.0
C416 C 0.62063 0.48779 0.20379 0.0
C417 C 0.60982 0.52496 0.17397 0.0
C418 C 0.62105 0.4979 0.17052 0.0
C419 C 0.62642 0.47944 0.18535 0.0
C420 C 0.61362 0.51594 0.20744 0.0
C421 C 0.60866 0.53461 0.1926 0.0
C422 C 0.61886 0.46696 0.21901 0.0
C423 C 0.71278 0.42993 0.23916 0.0
C424 C 0.68814 0.39057 0.20178 0.0
C425 C 0.72541 0.30088 0.26299 0.0
C426 C 0.74958 0.24697 0.26772 0.0
C427 C 0.76541 0.26915 0.25976 0.0
C428 C 0.7534 0.29585 0.25738 0.0
C429 C 0.71033 0.27937 0.2722 0.0
C430 C 0.72228 0.25266 0.27453 0.0
C431 C 0.71062 0.3266 0.25673 0.0
H432 H 0.62254 0.48957 0.15643 0.0
H433 H 0.63275 0.45798 0.18228 0.0
H434 H 0.60989 0.52292 0.2217 0.0
H435 H 0.60094 0.55559 0.19573 0.0
H436 H 0.78668 0.26555 0.25468 0.0
H437 H 0.76554 0.31209 0.25027 0.0
H438 H 0.68866 0.28261 0.27661 0.0
H439 H 0.70941 0.23604 0.28058 0.0
Dy440 Dy 0.33932 0.8945 0.48093 0.0
Dy441 Dy 0.3925 0.93121 0.49594 0.0
C442 C 0.40057 0.86654 0.48453 0.0
O443 O 0.33128 0.89607 0.51174 0.0
O444 O 0.37131 0.91732 0.52312 0.0
O445 O 0.32112 0.86156 0.46419 0.0
O446 O 0.29463 0.88621 0.48301 0.0
O447 O 0.35507 0.95823 0.50132 0.0
O448 O 0.32738 0.94007 0.47815 0.0
O449 O 0.38702 0.94674 0.46606 0.0
O450 O 0.35655 0.9135 0.45416 0.0
O451 O 0.41795 0.96919 0.49665 0.0
O452 O 0.43137 0.93076 0.51167 0.0
C453 C 0.34648 0.9052 0.52579 0.0
O454 O 0.37345 0.86256 0.48751 0.0
O455 O 0.41035 0.89224 0.48266 0.0
C456 C 0.27408 0.87103 0.45485 0.0
C457 C 0.23448 0.86448 0.42603 0.0
C458 C 0.26235 0.87306 0.42188 0.0
C459 C 0.28199 0.87632 0.4362 0.0
C460 C 0.24556 0.86658 0.45924 0.0
C461 C 0.22574 0.86376 0.44491 0.0
C462 C 0.29541 0.8677 0.46957 0.0
C463 C 0.33408 0.96071 0.4895 0.0
C464 C 0.37277 0.93593 0.45191 0.0
C465 C 0.46282 0.97124 0.51336 0.0
C466 C 0.51609 0.99596 0.51935 0.0
C467 C 0.49375 0.01204 0.51194 0.0
C468 C 0.46736 0.99976 0.50892 0.0
C469 C 0.48451 0.95569 0.52193 0.0
C470 C 0.51091 0.96792 0.52488 0.0
C471 C 0.4371 0.95682 0.50695 0.0
H472 H 0.27009 0.87409 0.40758 0.0
H473 H 0.30378 0.88075 0.43253 0.0
H474 H 0.23895 0.86332 0.47367 0.0
H475 H 0.20427 0.85808 0.4486 0.0
H476 H 0.49696 0.03385 0.50784 0.0
H477 H 0.45094 0.01227 0.50237 0.0
H478 H 0.48161 0.93361 0.52544 0.0
H479 H 0.5277 0.95485 0.53046 0.0
Dy480 Dy 0.1858 0.3714 0.48149 0.0
Dy481 Dy 0.14592 0.42252 0.49584 0.0
C482 C 0.21289 0.43182 0.48758 0.0
O483 O 0.19222 0.37223 0.51314 0.0
O484 O 0.17077 0.41372 0.52185 0.0
O485 O 0.22207 0.34396 0.48517 0.0
O486 O 0.19097 0.33578 0.463 0.0
O487 O 0.11981 0.38385 0.50228 0.0
O488 O 0.1415 0.3546 0.48142 0.0
O489 O 0.13971 0.41903 0.46465 0.0
O490 O 0.18197 0.39998 0.45617 0.0
O491 O 0.11046 0.4407 0.51031 0.0
O492 O 0.13628 0.46675 0.49187 0.0
C493 C 0.18721 0.3921 0.52569 0.0
O494 O 0.2145 0.40798 0.47842 0.0
O495 O 0.19005 0.43951 0.49673 0.0
C496 C 0.22972 0.30234 0.46576 0.0
C497 C 0.25482 0.24888 0.46118 0.0
C498 C 0.26908 0.27038 0.47085 0.0
C499 C 0.25657 0.29683 0.4732 0.0
C500 C 0.21641 0.28166 0.4549 0.0
C501 C 0.22879 0.25515 0.45266 0.0
C502 C 0.21389 0.32759 0.47157 0.0
C503 C 0.12038 0.36019 0.49275 0.0
C504 C 0.15964 0.41532 0.45204 0.0
C505 C 0.11987 0.48703 0.51986 0.0
C506 C 0.11422 0.52242 0.55107 0.0
C507 C 0.12825 0.49628 0.55271 0.0
C508 C 0.13111 0.4788 0.5372 0.0
C509 C 0.10966 0.51452 0.51749 0.0
C510 C 0.10733 0.53236 0.53297 0.0
C511 C 0.11681 0.46629 0.50483 0.0
H512 H 0.28943 0.26643 0.47724 0.0
H513 H 0.26735 0.31249 0.48157 0.0
H514 H 0.19559 0.2853 0.4491 0.0
H515 H 0.21708 0.23907 0.44527 0.0
H516 H 0.1342 0.48768 0.56622 0.0
H517 H 0.13996 0.45792 0.53915 0.0
H518 H 0.10181 0.52153 0.50398 0.0
H519 H 0.09754 0.55282 0.53105 0.0
Dy520 Dy 0.89274 0.93186 0.23163 0.0
Dy521 Dy 0.84051 0.89489 0.24728 0.0
C522 C 0.83422 0.96101 0.23906 0.0
O523 O 0.8878 0.94734 0.26151 0.0
O524 O 0.85743 0.91413 0.27386 0.0
O525 O 0.91752 0.97021 0.22958 0.0
O526 O 0.9322 0.93098 0.21635 0.0
O527 O 0.87506 0.86388 0.23971 0.0
O528 O 0.91054 0.89401 0.24632 0.0
O529 O 0.83 0.90077 0.21708 0.0
O530 O 0.87253 0.91499 0.20492 0.0
O531 O 0.82317 0.86204 0.26486 0.0
O532 O 0.79636 0.88436 0.24501 0.0
C533 C 0.87371 0.9365 0.27587 0.0
O534 O 0.85508 0.95904 0.22698 0.0
O535 O 0.82803 0.94011 0.25052 0.0
C536 C 0.96313 0.97181 0.21353 0.0
C537 C 0.01714 0.99567 0.20855 0.0
C538 C 0.99477 0.01198 0.2157 0.0
C539 C 0.968 1.00013 0.2182 0.0
C540 C 0.98483 0.9562 0.20503 0.0
C541 C 0.0116 0.96801 0.20257 0.0
C542 C 0.93739 0.95739 0.22018 0.0
C543 C 0.90181 0.86818 0.24362 0.0
C544 C 0.84611 0.90671 0.20262 0.0
C545 C 0.77592 0.87167 0.27385 0.0
C546 C 0.73528 0.8705 0.30266 0.0
C547 C 0.76363 0.87745 0.30657 0.0
C548 C 0.78374 0.87806 0.29229 0.0
C549 C 0.74726 0.8685 0.26949 0.0
C550 C 0.72698 0.86838 0.28377 0.0
C551 C 0.79737 0.86711 0.25927 0.0
H552 H 0.99827 0.03352 0.22012 0.0
H553 H 0.95161 0.01268 0.22474 0.0
H554 H 0.9817 0.93428 0.20135 0.0
H555 H 0.02837 0.95479 0.19715 0.0
H556 H 0.77117 0.87948 0.32082 0.0
H557 H 0.80564 0.88164 0.29592 0.0
H558 H 0.74074 0.86453 0.25518 0.0
H559 H 0.70523 0.86402 0.28014 0.0
Dy560 Dy 0.3301 0.63712 0.98144 0.0
Dy561 Dy 0.3692 0.58523 0.99548 0.0
C562 C 0.30191 0.57689 0.98789 0.0
O563 O 0.3246 0.63613 1.0132 0.0
O564 O 0.34297 0.59285 1.02115 0.0
O565 O 0.29474 0.6654 0.9858 0.0
O566 O 0.32504 0.67307 0.9629 0.0
O567 O 0.39532 0.62365 1.00216 0.0
O568 O 0.37484 0.65284 0.98068 0.0
O569 O 0.37545 0.58942 0.96429 0.0
O570 O 0.33324 0.60877 0.9561 0.0
O571 O 0.40427 0.56682 1.01018 0.0
O572 O 0.37936 0.54122 0.9912 0.0
C573 C 0.32773 0.61515 1.02534 0.0
O574 O 0.3001 0.60145 0.97944 0.0
O575 O 0.32519 0.56807 0.99602 0.0
C576 C 0.28713 0.70737 0.96652 0.0
C577 C 0.26292 0.76145 0.96275 0.0
C578 C 0.24861 0.73996 0.97261 0.0
C579 C 0.26067 0.7132 0.97455 0.0
C580 C 0.30042 0.72808 0.95547 0.0
C581 C 0.28847 0.7549 0.95364 0.0
C582 C 0.30272 0.68174 0.97199 0.0
C583 C 0.39561 0.64706 0.99221 0.0
C584 C 0.35548 0.5934 0.9518 0.0
C585 C 0.3956 0.51981 1.01898 0.0
C586 C 0.40312 0.48302 1.04949 0.0
C587 C 0.38882 0.50887 1.05187 0.0
C588 C 0.38503 0.52707 1.0367 0.0
C589 C 0.40579 0.4925 1.01594 0.0
C590 C 0.40902 0.47394 1.03108 0.0
C591 C 0.39846 0.54141 1.00431 0.0
H592 H 0.2286 0.74412 0.97946 0.0
H593 H 0.24991 0.69754 0.98308 0.0
H594 H 0.32093 0.72419 0.94922 0.0
H595 H 0.30021 0.77095 0.94607 0.0
H596 H 0.3835 0.51678 1.06565 0.0
H597 H 0.37613 0.54778 1.03919 0.0
H598 H 0.41311 0.48624 1.00216 0.0
H599 H 0.4189 0.45368 1.02861 0.0
Dy600 Dy 0.62295 0.07311 0.73047 0.0
Dy601 Dy 0.67246 0.11429 0.74751 0.0
C602 C 0.68243 0.04826 0.74073 0.0
O603 O 0.62461 0.06166 0.76156 0.0
O604 O 0.65596 0.09394 0.77385 0.0
O605 O 0.59134 0.06459 0.70958 0.0
O606 O 0.59881 0.03447 0.732 0.0
O607 O 0.63469 0.14318 0.74708 0.0
O608 O 0.60024 0.11415 0.73516 0.0
O609 O 0.67901 0.11695 0.71639 0.0
O610 O 0.64902 0.08331 0.70473 0.0
O611 O 0.68826 0.15144 0.76101 0.0
O612 O 0.71757 0.12118 0.74905 0.0
C613 C 0.63879 0.07222 0.7759 0.0
O614 O 0.66295 0.04903 0.72777 0.0
O615 O 0.68652 0.06972 0.75192 0.0
C616 C 0.55273 0.03763 0.71988 0.0
C617 C 0.49377 0.03147 0.72255 0.0
C618 C 0.50988 0.01295 0.71146 0.0
C619 C 0.5391 0.01604 0.71014 0.0
C620 C 0.53694 0.05601 0.73118 0.0
C621 C 0.50762 0.0529 0.73254 0.0
C622 C 0.58325 0.04115 0.71759 0.0
C623 C 0.60852 0.13869 0.74168 0.0
C624 C 0.66962 0.10168 0.70241 0.0
C625 C 0.73125 0.14482 0.77648 0.0
C626 C 0.75573 0.16236 0.81011 0.0
C627 C 0.73132 0.14537 0.81038 0.0
C628 C 0.71919 0.13662 0.79363 0.0
C629 C 0.75773 0.15789 0.7762 0.0
C630 C 0.77019 0.16624 0.79299 0.0
C631 C 0.71459 0.14366 0.75929 0.0
H632 H 0.49989 0.99591 0.70389 0.0
H633 H 0.55107 1.00166 0.70141 0.0
H634 H 0.54725 0.07287 0.73875 0.0
H635 H 0.49575 0.06754 0.74112 0.0
H636 H 0.71958 0.14166 0.82322 0.0
H637 H 0.69899 0.1259 0.79405 0.0
H638 H 0.76762 0.16371 0.763 0.0
H639 H 0.78954 0.1784 0.7924 0.0
H640 H 0.38932 0.20992 0.23103 0.0
H641 H 0.42722 0.24487 0.22981 0.0
H642 H 0.48901 0.17858 0.23512 0.0
H643 H 0.45105 0.1433 0.23622 0.0
H644 H 0.46759 0.2577 0.25612 0.0
H645 H 0.52021 0.22312 0.19056 0.0
H646 H 0.48547 0.21101 0.1973 0.0
H647 H 0.51635 0.19574 0.20789 0.0
C648 C 0.41095 0.20259 0.2318 0.0
C649 C 0.41692 0.17354 0.23366 0.0
C650 C 0.43272 0.22276 0.23114 0.0
C651 C 0.46123 0.21461 0.23212 0.0
C652 C 0.46733 0.1856 0.23395 0.0
H653 H 0.62274 0.3042 0.23295 0.0
H654 H 0.58429 0.26993 0.23232 0.0
C655 C 0.4455 0.16536 0.2347 0.0
C656 C 0.48429 0.23658 0.23186 0.0
H657 H 0.5438 0.25813 0.20826 0.0
C658 C 0.48417 0.25782 0.24559 0.0
C659 C 0.50611 0.23698 0.21817 0.0
C660 C 0.50702 0.21568 0.20253 0.0
C661 C 0.50539 0.27879 0.24632 0.0
C662 C 0.52724 0.27926 0.23261 0.0
C663 C 0.52725 0.25806 0.21881 0.0
C664 C 0.5507 0.30089 0.23266 0.0
C665 C 0.5046 0.29963 0.26224 0.0
C666 C 0.54515 0.33014 0.23276 0.0
C667 C 0.56732 0.35001 0.2333 0.0
C668 C 0.59576 0.34123 0.23346 0.0
C669 C 0.60123 0.31198 0.23287 0.0
C670 C 0.57912 0.2922 0.23248 0.0
H671 H 0.49201 0.29153 0.27431 0.0
H672 H 0.5262 0.30462 0.26725 0.0
H673 H 0.49454 0.31946 0.25732 0.0
H674 H 0.5236 0.33773 0.23233 0.0
H675 H 0.56215 0.37226 0.23355 0.0
H676 H 0.61588 0.69457 0.48313 0.0
H677 H 0.58032 0.73223 0.48192 0.0
H678 H 0.51409 0.67023 0.4863 0.0
H679 H 0.54936 0.63261 0.48774 0.0
H680 H 0.53671 0.74359 0.45727 0.0
H681 H 0.4918 0.72354 0.52799 0.0
H682 H 0.52457 0.70791 0.5203 0.0
H683 H 0.49136 0.6932 0.51303 0.0
C684 C 0.59376 0.68888 0.48391 0.0
C685 C 0.58574 0.66032 0.48571 0.0
C686 C 0.57334 0.71054 0.48317 0.0
C687 C 0.54427 0.70439 0.48438 0.0
C688 C 0.53623 0.67586 0.48581 0.0
H689 H 0.38967 0.80913 0.48729 0.0
H690 H 0.42367 0.76996 0.48627 0.0
C691 C 0.55659 0.65422 0.48651 0.0
C692 C 0.52246 0.72767 0.484 0.0
H693 H 0.46735 0.7564 0.50883 0.0
C694 C 0.52165 0.7464 0.46861 0.0
C695 C 0.50247 0.73154 0.49866 0.0
C696 C 0.50266 0.71318 0.51602 0.0
C697 C 0.50142 0.76833 0.46736 0.0
C698 C 0.48159 0.77237 0.48211 0.0
C699 C 0.48231 0.75352 0.49744 0.0
C700 C 0.46051 0.79635 0.4822 0.0
C701 C 0.50114 0.78651 0.44992 0.0
C702 C 0.46951 0.82454 0.48046 0.0
C703 C 0.45007 0.84697 0.48097 0.0
C704 C 0.42089 0.8421 0.48343 0.0
C705 C 0.41184 0.81387 0.48529 0.0
C706 C 0.43138 0.79137 0.48475 0.0
H707 H 0.51081 0.77543 0.43778 0.0
H708 H 0.47931 0.79283 0.4461 0.0
H709 H 0.51367 0.80588 0.45247 0.0
H710 H 0.49177 0.82934 0.47902 0.0
H711 H 0.45811 0.86828 0.47965 0.0
H712 H 0.06314 0.86952 0.73653 0.0
H713 H 0.02526 0.83406 0.7355 0.0
H714 H 0.08735 0.76815 0.73004 0.0
H715 H 0.12511 0.80319 0.73113 0.0
H716 H 0.0112 0.79319 0.70785 0.0
H717 H 0.04019 0.74039 0.77468 0.0
H718 H 0.05383 0.7746 0.76806 0.0
H719 H 0.0686 0.74314 0.75802 0.0
C720 C 0.06877 0.84748 0.73512 0.0
C721 C 0.09739 0.83941 0.73403 0.0
C722 C 0.04702 0.82716 0.7345 0.0
C723 C 0.05325 0.79817 0.73302 0.0
C724 C 0.08178 0.79018 0.73159 0.0
H725 H 0.95225 0.64169 0.73473 0.0
H726 H 0.99039 0.6768 0.73341 0.0
C727 C 0.10346 0.81041 0.7321 0.0
C728 C 0.03014 0.7763 0.73289 0.0
H729 H 1.0052 0.718 0.75637 0.0
C730 C 0.00983 0.77685 0.71852 0.0
C731 C 0.02827 0.75465 0.74666 0.0
C732 C 0.04871 0.75318 0.76283 0.0
C733 C 0.98825 0.75629 0.71738 0.0
C734 C 0.98614 0.73479 0.7313 0.0
C735 C 0.00655 0.73425 0.74563 0.0
C736 C 0.96274 0.7131 0.73155 0.0
C737 C 0.96844 0.75744 0.70084 0.0
C738 C 0.93421 0.72139 0.73116 0.0
C739 C 0.91237 0.70131 0.73175 0.0
C740 C 0.91822 0.67218 0.73305 0.0
C741 C 0.94678 0.66383 0.73367 0.0
C742 C 0.96869 0.68399 0.73294 0.0
H743 H 0.97828 0.76842 0.68865 0.0
H744 H 0.962 0.73597 0.6964 0.0
H745 H 0.94923 0.76943 0.70482 0.0
H746 H 0.92868 0.74355 0.73071 0.0
H747 H 0.89076 0.70878 0.73146 0.0
H748 H 0.06285 0.1501 1.00232 0.0
H749 H 0.0295 0.18912 1.0009 0.0
H750 H 0.08549 0.23427 0.96354 0.0
H751 H 0.11988 0.19552 0.96574 0.0
H752 H 0.06407 0.27048 0.98569 0.0
H753 H 0.97333 0.20723 0.96252 0.0
H754 H 0.98606 0.19371 0.98441 0.0
H755 H 0.00839 0.19263 0.96383 0.0
C756 C 0.06818 0.16824 0.9937 0.0
C757 C 0.09419 0.16932 0.98402 0.0
C758 C 0.04876 0.19062 0.99274 0.0
C759 C 0.05414 0.21466 0.9816 0.0
C760 C 0.08036 0.21604 0.97212 0.0
H761 H 0.91266 0.33279 0.95956 0.0
H762 H 0.94876 0.29587 0.95715 0.0
C763 C 0.10014 0.19377 0.97337 0.0
C764 C 0.03285 0.23849 0.98043 0.0
H765 H 0.96216 0.2526 0.97548 0.0
C766 C 0.04184 0.26647 0.98327 0.0
C767 C 1.00369 0.23393 0.97678 0.0
C768 C 0.99239 0.20529 0.97149 0.0
C769 C 0.02275 0.28947 0.98318 0.0
C770 C 0.99328 0.2846 0.98102 0.0
C771 C 0.98445 0.25673 0.97755 0.0
C772 C 0.97136 0.30786 0.98228 0.0
C773 C 0.03475 0.31883 0.98488 0.0
C774 C 0.97126 0.32714 0.99727 0.0
C775 C 0.9509 0.34872 0.99844 0.0
C776 C 0.9293 0.3513 0.98496 0.0
C777 C 0.92887 0.33159 0.97022 0.0
C778 C 0.94963 0.31033 0.96885 0.0
H779 H 0.05674 0.3198 0.97943 0.0
H780 H 0.02186 0.33455 0.97711 0.0
H781 H 0.03537 0.32482 0.99991 0.0
H782 H 0.98677 0.3254 1.00833 0.0
H783 H 0.95184 0.36315 1.01015 0.0
H784 H 0.57556 0.85576 1.01294 0.0
H785 H 0.53808 0.82029 1.01537 0.0
H786 H 0.58264 0.76775 0.9759 0.0
H787 H 0.6207 0.80238 0.9742 0.0
H788 H 0.50156 0.8006 0.99332 0.0
H789 H 0.56641 0.70866 1.01306 0.0
H790 H 0.58074 0.74386 1.01232 0.0
H791 H 0.57854 0.7231 0.99121 0.0
C792 C 0.57753 0.83654 1.00489 0.0
C793 C 0.60146 0.83201 0.99349 0.0
C794 C 0.55595 0.81614 1.00627 0.0
C795 C 0.55746 0.79065 0.99618 0.0
C796 C 0.5811 0.78648 0.98446 0.0
H797 H 0.40863 0.69045 0.96817 0.0
H798 H 0.44723 0.72427 0.96994 0.0
C799 C 0.60289 0.80659 0.98333 0.0
C800 C 0.53387 0.76916 0.9973 0.0
H801 H 0.51997 0.69832 1.00153 0.0
C802 C 0.50573 0.77828 0.99528 0.0
C803 C 0.53869 0.73987 1.00034 0.0
C804 C 0.5677 0.72836 1.00457 0.0
C805 C 0.48276 0.75925 0.99564 0.0
C806 C 0.48777 0.72977 0.99725 0.0
C807 C 0.51581 0.7207 0.99989 0.0
C808 C 0.4644 0.70813 0.996 0.0
C809 C 0.45327 0.77127 0.99475 0.0
C810 C 0.46151 0.68639 1.00948 0.0
C811 C 0.43958 0.66632 1.00823 0.0
C812 C 0.41981 0.66749 0.9935 0.0
C813 C 0.42308 0.68895 0.97989 0.0
C814 C 0.44515 0.70865 0.98099 0.0
H815 H 0.45257 0.79304 1.00045 0.0
H816 H 0.44643 0.77241 0.97989 0.0
H817 H 0.438 0.75807 1.00274 0.0
H818 H 0.47604 0.6851 1.02116 0.0
H819 H 0.43788 0.65015 1.01897 0.0
H820 H 0.60933 0.18596 0.76416 0.0
H821 H 0.57408 0.2237 0.76626 0.0
H822 H 0.5253 0.18367 0.72288 0.0
H823 H 0.55946 0.14515 0.72165 0.0
H824 H 0.55703 0.26258 0.74562 0.0
H825 H 0.46217 0.19745 0.75674 0.0
H826 H 0.4971 0.18246 0.75721 0.0
H827 H 0.47892 0.18757 0.73521 0.0
C828 C 0.59095 0.18506 0.75518 0.0
C829 C 0.58728 0.16222 0.74284 0.0
C830 C 0.57067 0.20678 0.75637 0.0
C831 C 0.54624 0.20663 0.74507 0.0
C832 C 0.54305 0.18413 0.73238 0.0
H833 H 0.45137 0.36189 0.72042 0.0
H834 H 0.48513 0.32303 0.72174 0.0
C835 C 0.56293 0.16209 0.73152 0.0
C836 C 0.52488 0.23043 0.74601 0.0
H837 H 0.45388 0.24505 0.74647 0.0
C838 C 0.53449 0.25856 0.74599 0.0
C839 C 0.49522 0.22583 0.74701 0.0
C840 C 0.48279 0.19669 0.74927 0.0
C841 C 0.51572 0.28177 0.74642 0.0
C842 C 0.48605 0.27717 0.74589 0.0
C843 C 0.47643 0.24905 0.74646 0.0
C844 C 0.46476 0.301 0.74481 0.0
C845 C 0.52817 0.31095 0.74806 0.0
C846 C 0.44076 0.30145 0.7566 0.0
C847 C 0.42074 0.32343 0.75544 0.0
C848 C 0.42421 0.34587 0.74258 0.0
C849 C 0.44807 0.34531 0.73071 0.0
C850 C 0.46771 0.32306 0.7316 0.0
H851 H 0.54897 0.31034 0.75523 0.0
H852 H 0.5317 0.31983 0.73381 0.0
H853 H 0.51404 0.32532 0.75599 0.0
H854 H 0.43754 0.28485 0.76689 0.0
H855 H 0.4027 0.323 0.76482 0.0
H856 H 0.11011 0.31485 0.4701 0.0
H857 H 0.07245 0.27998 0.4723 0.0
H858 H 0.03996 0.32117 0.52168 0.0
H859 H 0.07717 0.35704 0.51906 0.0
H860 H 0.05951 0.24146 0.49621 0.0
H861 H 0.96818 0.3143 0.49391 0.0
H862 H 1.00377 0.32617 0.48962 0.0
H863 H 0.99118 0.32114 0.51329 0.0
C864 C 0.09486 0.31677 0.48139 0.0
C865 C 0.09674 0.33912 0.4943 0.0
C866 C 0.07323 0.29659 0.48267 0.0
C867 C 0.05272 0.29783 0.49698 0.0
C868 C 0.05479 0.31991 0.51013 0.0
H869 H 0.9428 0.1474 0.51617 0.0
H870 H 0.98042 0.18277 0.51888 0.0
C871 C 0.0763 0.34043 0.5087 0.0
C872 C 0.02977 0.27572 0.49805 0.0
H873 H 0.95803 0.26626 0.50006 0.0
C874 C 0.03732 0.24699 0.49703 0.0
C875 C 1.00059 0.28253 0.49894 0.0
C876 C 0.99038 0.31269 0.49881 0.0
C877 C 0.01691 0.22524 0.49661 0.0
C878 C 0.98775 0.23201 0.49791 0.0
C879 C 0.98022 0.26072 0.49919 0.0
C880 C 0.96465 0.21008 0.49678 0.0
C881 C 0.02695 0.1953 0.49395 0.0
C882 C 0.94237 0.21365 0.48397 0.0
C883 C 0.92052 0.19375 0.4827 0.0
C884 C 0.92019 0.16934 0.4941 0.0
C885 C 0.94244 0.16566 0.50697 0.0
C886 C 0.96417 0.1859 0.50844 0.0
H887 H 0.04844 0.1946 0.48765 0.0
H888 H 0.02796 0.18459 0.50781 0.0
H889 H 0.0124 0.18329 0.48479 0.0
H890 H 0.9419 0.2319 0.47476 0.0
H891 H 0.90388 0.19751 0.4726 0.0
H892 H 0.12103 0.69961 0.24342 0.0
H893 H 0.08573 0.73756 0.24505 0.0
H894 H 0.01905 0.67569 0.24518 0.0
H895 H 0.05396 0.63794 0.24412 0.0
H896 H 0.04523 0.754 0.22193 0.0
H897 H 0.9925 0.72212 0.28798 0.0
H898 H 0.02527 0.70646 0.28036 0.0
H899 H 0.99211 0.69427 0.27108 0.0
C900 C 0.09886 0.69406 0.24396 0.0
C901 C 0.09057 0.6655 0.24379 0.0
C902 C 0.07858 0.71586 0.24488 0.0
C903 C 0.04942 0.70979 0.24567 0.0
C904 C 0.04121 0.68127 0.24522 0.0
H905 H 0.89273 0.81051 0.24059 0.0
H906 H 0.92813 0.77247 0.24123 0.0
C907 C 0.06139 0.65954 0.24445 0.0
C908 C 0.02761 0.73309 0.24616 0.0
H909 H 0.96818 0.75622 0.26922 0.0
C910 C 0.02857 0.75451 0.2324 0.0
C911 C 1.00557 0.73412 0.25975 0.0
C912 C 1.00393 0.71318 0.27573 0.0
C913 C 0.00809 0.7762 0.23158 0.0
C914 C 0.98589 0.77698 0.245 0.0
C915 C 0.98492 0.75568 0.2588 0.0
C916 C 0.96398 0.80009 0.24515 0.0
C917 C 0.01008 0.7978 0.21601 0.0
C918 C 0.97196 0.82841 0.24753 0.0
C919 C 0.95178 0.85015 0.24725 0.0
C920 C 0.92283 0.84437 0.2446 0.0
C921 C 0.91473 0.81592 0.24258 0.0
C922 C 0.93503 0.79408 0.24296 0.0
H923 H 0.0233 0.79019 0.20416 0.0
H924 H 0.98882 0.80332 0.21058 0.0
H925 H 0.01993 0.8173 0.22154 0.0
H926 H 0.99395 0.83378 0.24965 0.0
H927 H 0.95903 0.87165 0.24896 0.0
H928 H 0.39981 0.03777 0.13871 0.0
H929 H 0.4387 0.03774 0.11677 0.0
H930 H 0.45812 0.9517 0.13184 0.0
H931 H 0.41851 0.95133 0.15388 0.0
H932 H 0.49648 0.99256 0.14526 0.0
H933 H 0.47655 0.00807 1.06925 0.0
H934 H 0.45498 0.02985 1.08405 0.0
H935 H 0.45089 0.99214 1.08487 0.0
C936 C 0.41096 0.0181 0.13655 0.0
C937 C 0.40697 0.99494 0.14872 0.0
C938 C 0.43344 0.0182 0.12392 0.0
C939 C 0.45171 0.99501 0.12313 0.0
C940 C 0.4444 0.96997 0.13253 0.0
H941 H 0.61795 0.97474 1.08777 0.0
H942 H 0.5792 0.97631 1.10979 0.0
C943 C 0.42174 0.96979 0.1451 0.0
C944 C 0.48115 0.99972 0.11714 0.0
H945 H 0.52181 0.02201 1.08055 0.0
C946 C 0.50214 0.99867 0.13104 0.0
C947 C 0.48819 0.00843 1.09878 0.0
C948 C 0.46651 0.00949 1.08333 0.0
C949 C 0.53011 0.00624 0.12705 0.0
C950 C 0.5372 0.01481 1.10867 0.0
C951 C 0.51616 0.01597 1.09478 0.0
C952 C 0.5667 0.0189 1.10258 0.0
C953 C 0.55173 1.00524 0.14254 0.0
C954 C 0.57428 0.04339 1.09263 0.0
C955 C 0.59684 0.04266 1.07999 0.0
C956 C 0.61127 0.01715 1.07687 0.0
C957 C 0.60706 0.99464 1.08954 0.0
C958 C 0.58467 0.99544 1.10223 0.0
H959 H 0.54166 0.00761 0.15656 0.0
H960 H 0.56256 0.98448 0.14229 0.0
H961 H 0.56789 0.02201 0.14071 0.0
H962 H 0.56081 0.06187 1.09298 0.0
H963 H 0.60024 0.06064 1.07081 0.0
H964 H 0.76493 0.65212 0.38233 0.0
H965 H 0.75882 0.69264 0.36155 0.0
H966 H 0.78673 0.74809 0.40552 0.0
H967 H 0.79127 0.70837 0.42663 0.0
H968 H 0.73065 0.75534 0.3963 0.0
H969 H 0.79786 0.75552 0.3324 0.0
H970 H 0.78163 0.72201 0.33716 0.0
H971 H 0.80707 0.73595 0.35333 0.0
C972 C 0.77081 0.67281 0.38738 0.0
C973 C 0.77707 0.67704 0.40645 0.0
C974 C 0.76749 0.69598 0.37541 0.0
C975 C 0.77156 0.72336 0.38226 0.0
C976 C 0.78301 0.72707 0.40015 0.0
H977 H 0.7322 0.88443 0.34034 0.0
H978 H 0.73155 0.84715 0.36398 0.0
C979 C 0.7859 0.70406 0.41217 0.0
C980 C 0.75827 0.74756 0.3727 0.0
H981 H 0.75625 0.78383 0.33147 0.0
C982 C 0.73638 0.76179 0.38216 0.0
C983 C 0.76561 0.75557 0.35426 0.0
C984 C 0.7895 0.74164 0.34374 0.0
C985 C 0.72138 0.78375 0.37351 0.0
C986 C 0.72851 0.79148 0.35501 0.0
C987 C 0.7505 0.77737 0.34561 0.0
C988 C 0.7152 0.81541 0.3452 0.0
C989 C 0.69789 0.79828 0.38403 0.0
C990 C 0.70311 0.81065 0.32761 0.0
C991 C 0.70426 0.83166 0.31392 0.0
C992 C 0.71785 0.85743 0.3178 0.0
C993 C 0.72318 0.8642 0.33668 0.0
C994 C 0.72256 0.84295 0.35031 0.0
H995 H 0.69105 0.78598 0.39656 0.0
H996 H 0.70536 0.81924 0.38879 0.0
H997 H 0.6794 0.80174 0.37474 0.0
H998 H 0.69678 0.78956 0.32359 0.0
H999 H 0.69888 0.8257 0.29974 0.0
H1000 H 0.09189 0.07064 0.66196 0.0
H1001 H 0.05196 0.07365 0.64037 0.0
H1002 H 0.07161 0.99073 0.6195 0.0
H1003 H 0.11085 0.98726 0.641 0.0
H1004 H 0.04104 0.02716 0.59369 0.0
H1005 H 0.99346 0.01758 0.66515 0.0
H1006 H 0.01497 0.04815 0.66063 0.0
H1007 H 0.03086 0.01375 0.66103 0.0
C1008 C 0.08856 0.05366 0.65209 0.0
C1009 C 0.10353 0.02812 0.6539 0.0
C1010 C 0.0657 0.05539 0.63982 0.0
C1011 C 0.05827 0.03184 0.6291 0.0
C1012 C 0.07678 0.00888 0.62802 0.0
H1013 H 0.92012 0.95269 0.57593 0.0
H1014 H 0.95791 0.95989 0.59868 0.0
C1015 C 0.09948 0.00706 0.64032 0.0
C1016 C 0.02898 0.02784 0.62279 0.0
H1017 H 0.96296 0.01226 0.63948 0.0
C1018 C 0.02388 0.02427 0.60364 0.0
C1019 C 0.00687 0.02347 0.63598 0.0
C1020 C 0.01167 0.0257 0.65687 0.0
C1021 C 0.99712 0.01638 0.59725 0.0
C1022 C 0.9752 0.01154 0.61045 0.0
C1023 C 0.98004 0.01569 0.62956 0.0
C1024 C 0.94688 1.00337 0.6041 0.0
C1025 C 0.99244 0.01304 0.57642 0.0
C1026 C 0.92665 0.02447 0.60142 0.0
C1027 C 0.90519 0.0205 0.58838 0.0
C1028 C 0.90419 0.99547 0.57781 0.0
C1029 C 0.921 0.97248 0.58344 0.0
C1030 C 0.94259 0.97655 0.59643 0.0
H1031 H 0.01032 0.02156 0.568 0.0
H1032 H 0.99006 0.99031 0.5731 0.0
H1033 H 0.97275 0.02394 0.57204 0.0
H1034 H 0.92956 0.04519 0.60748 0.0
H1035 H 0.89239 0.03861 0.58466 0.0
H1036 H 0.69958 0.31375 0.94525 0.0
H1037 H 0.69289 0.2803 0.92029 0.0
H1038 H 0.70434 0.34634 0.87923 0.0
H1039 H 0.71038 0.38065 0.90433 0.0
H1040 H 0.67162 0.26901 0.88107 0.0
H1041 H 0.78347 0.30425 0.88828 0.0
H1042 H 0.75664 0.31361 0.90512 0.0
H1043 H 0.75781 0.33091 0.88265 0.0
C1044 C 0.69879 0.32187 0.93104 0.0
C1045 C 0.70752 0.34958 0.92672 0.0
C1046 C 0.69497 0.30245 0.91668 0.0
C1047 C 0.69959 0.31075 0.89807 0.0
C1048 C 0.70147 0.33955 0.89365 0.0
H1049 H 0.77059 0.21782 0.80779 0.0
H1050 H 0.76024 0.25332 0.83105 0.0
C1051 C 0.70507 0.3591 0.90804 0.0
C1052 C 0.71151 0.28969 0.88517 0.0
H1053 H 0.77491 0.26577 0.8687 0.0
C1054 C 0.69411 0.26837 0.87817 0.0
C1055 C 0.74105 0.28872 0.88191 0.0
C1056 C 0.76097 0.31042 0.88995 0.0
C1057 C 0.7055 0.24619 0.86761 0.0
C1058 C 0.73503 0.24519 0.86447 0.0
C1059 C 0.75236 0.26657 0.87141 0.0
C1060 C 0.74792 0.22342 0.85256 0.0
C1061 C 0.68587 0.22427 0.85963 0.0
C1062 C 0.74684 0.19482 0.85764 0.0
C1063 C 0.75333 0.17417 0.8444 0.0
C1064 C 0.76053 0.18201 0.82591 0.0
C1065 C 0.76514 0.21076 0.82181 0.0
C1066 C 0.75887 0.23127 0.83505 0.0
H1067 H 0.66341 0.23098 0.86038 0.0
H1068 H 0.69131 0.21981 0.84476 0.0
H1069 H 0.68812 0.20433 0.86772 0.0
H1070 H 0.73921 0.18851 0.87138 0.0
H1071 H 0.75033 0.1522 0.84815 0.0
H1072 H 0.20381 0.31228 0.79491 0.0
H1073 H 0.2027 0.27292 0.81647 0.0
H1074 H 0.23189 0.32668 0.86098 0.0
H1075 H 0.23139 0.36699 0.8397 0.0
H1076 H 0.2581 0.26351 0.82616 0.0
H1077 H 0.19053 0.26486 0.88977 0.0
H1078 H 0.18214 0.28501 0.86892 0.0
H1079 H 0.20771 0.298 0.88537 0.0
C1080 C 0.2082 0.31651 0.80951 0.0
C1081 C 0.21942 0.34259 0.8153 0.0
C1082 C 0.20773 0.29366 0.82185 0.0
C1083 C 0.21823 0.29669 0.84007 0.0
C1084 C 0.22398 0.3238 0.84688 0.0
H1085 H 0.29895 0.19861 0.92258 0.0
H1086 H 0.29176 0.23468 0.8991 0.0
C1087 C 0.22396 0.34684 0.8346 0.0
C1088 C 0.23045 0.2719 0.84964 0.0
H1089 H 0.23273 0.23681 0.89136 0.0
C1090 C 0.25224 0.25733 0.84032 0.0
C1091 C 0.22307 0.26428 0.86815 0.0
C1092 C 0.1994 0.2787 0.87858 0.0
C1093 C 0.2674 0.23576 0.84925 0.0
C1094 C 0.2604 0.22859 0.86788 0.0
C1095 C 0.23824 0.24273 0.87708 0.0
C1096 C 0.27521 0.20617 0.87831 0.0
C1097 C 0.29126 0.22142 0.83897 0.0
C1098 C 0.27121 0.17782 0.87351 0.0
C1099 C 0.27604 0.15669 0.88686 0.0
C1100 C 0.28368 0.164 0.9053 0.0
C1101 C 0.29247 0.1919 0.90876 0.0
C1102 C 0.28809 0.21286 0.89535 0.0
H1103 H 0.29782 0.2334 0.82624 0.0
H1104 H 0.30985 0.21878 0.84828 0.0
H1105 H 0.28432 0.20012 0.83454 0.0
H1106 H 0.26154 0.17224 0.86029 0.0
H1107 H 0.27028 0.13521 0.88346 0.0
H1108 H 0.20395 0.81613 0.43141 0.0
H1109 H 0.20487 0.77809 0.40909 0.0
H1110 H 0.23172 0.83565 0.36559 0.0
H1111 H 0.23013 0.87461 0.38788 0.0
H1112 H 0.19371 0.76118 0.36913 0.0
H1113 H 0.3041 0.79143 0.38697 0.0
H1114 H 0.27394 0.80504 0.39954 0.0
H1115 H 0.28241 0.81844 0.37659 0.0
C1116 C 0.20828 0.82143 0.41689 0.0
C1117 C 0.21881 0.84817 0.41168 0.0
C1118 C 0.20892 0.79935 0.4041 0.0
C1119 C 0.21968 0.80401 0.38606 0.0
C1120 C 0.22408 0.83171 0.37971 0.0
H1121 H 0.29467 0.70185 0.30545 0.0
H1122 H 0.28904 0.7379 0.3289 0.0
C1123 C 0.2232 0.85392 0.39249 0.0
C1124 C 0.2333 0.78026 0.37641 0.0
H1125 H 0.29821 0.75144 0.36797 0.0
C1126 C 0.21651 0.75899 0.36879 0.0
C1127 C 0.2631 0.77737 0.37652 0.0
C1128 C 0.28205 0.79911 0.38545 0.0
C1129 C 0.22883 0.73513 0.36061 0.0
C1130 C 0.25865 0.73237 0.36056 0.0
C1131 C 0.2754 0.75353 0.36837 0.0
C1132 C 0.27254 0.70955 0.35009 0.0
C1133 C 0.20992 0.71349 0.35155 0.0
C1134 C 0.26834 0.68124 0.35515 0.0
C1135 C 0.27204 0.66015 0.34175 0.0
C1136 C 0.27915 0.66752 0.32315 0.0
C1137 C 0.28856 0.6952 0.31943 0.0
C1138 C 0.28514 0.71612 0.33285 0.0
H1139 H 0.18779 0.72102 0.35028 0.0
H1140 H 0.21787 0.70804 0.33734 0.0
H1141 H 0.20986 0.69393 0.36018 0.0
H1142 H 0.2594 0.67581 0.36871 0.0
H1143 H 0.26582 0.63879 0.34529 0.0
H1144 H 0.13253 0.52358 0.58801 0.0
H1145 H 0.09992 0.5172 0.61438 0.0
H1146 H 0.03037 0.5417 0.57903 0.0
H1147 H 0.06194 0.54703 0.55271 0.0
H1148 H 0.02252 0.55266 0.6184 0.0
H1149 H 0.05578 0.4426 0.60177 0.0
H1150 H 0.08272 0.4668 0.60921 0.0
H1151 H 0.06545 0.4722 0.58709 0.0
C1152 C 0.11042 0.52859 0.586 0.0
C1153 C 0.0997 0.53402 0.5679 0.0
C1154 C 0.09188 0.52498 0.60111 0.0
C1155 C 0.06274 0.52771 0.59826 0.0
C1156 C 0.05282 0.5389 0.58132 0.0
H1157 H 0.90143 0.48017 0.63767 0.0
H1158 H 0.94212 0.4828 0.61656 0.0
C1159 C 0.07119 0.54214 0.56621 0.0
C1160 C 0.0423 0.51353 0.61073 0.0
H1161 H 0.0162 0.44805 0.62129 0.0
C1162 C 0.02134 0.52983 0.6193 0.0
C1163 C 0.04068 0.48366 0.61148 0.0
C1164 C 0.0622 0.46515 0.60183 0.0
C1165 C 0.99847 0.51704 0.62846 0.0
C1166 C 0.99641 0.48724 0.62868 0.0
C1167 C 0.01779 0.47086 0.6207 0.0
C1168 C 0.97262 0.47327 0.63821 0.0
C1169 C 0.97648 0.5355 0.63769 0.0
C1170 C 0.97636 0.46383 0.65664 0.0
C1171 C 0.95326 0.46258 0.66874 0.0
C1172 C 0.92638 0.47118 0.66246 0.0
C1173 C 0.92207 0.47458 0.64305 0.0
C1174 C 0.94527 0.47604 0.63096 0.0
H1175 H 0.98364 0.55773 0.63892 0.0
H1176 H 0.95688 0.53524 0.6292 0.0
H1177 H 0.97118 0.5274 0.65192 0.0
H1178 H 0.9974 0.46117 0.66232 0.0
H1179 H 0.95752 0.45923 0.6835 0.0
H1180 H 0.55857 0.55032 0.17904 0.0
H1181 H 0.52057 0.54622 0.15672 0.0
H1182 H 0.58004 0.52372 1.11343 0.0
H1183 H 0.61887 0.52851 0.1357 0.0
H1184 H 0.50357 0.55779 0.1169 0.0
H1185 H 0.53936 0.44859 0.13359 0.0
H1186 H 0.55118 0.47891 0.14659 0.0
H1187 H 0.56551 0.47189 0.12373 0.0
C1188 C 0.56412 0.54625 0.16455 0.0
C1189 C 0.5917 0.53813 0.15939 0.0
C1190 C 0.5421 0.54374 0.15179 0.0
C1191 C 0.54756 0.53345 0.1338 0.0
C1192 C 0.57554 0.531 0.12752 0.0
H1193 H 0.45591 0.45934 1.04899 0.0
H1194 H 0.48933 0.46473 1.07409 0.0
C1195 C 0.59767 0.53373 0.14026 0.0
C1196 C 0.52468 0.519 0.12381 0.0
H1197 H 0.5002 0.45315 1.11342 0.0
C1198 C 0.50272 0.53496 0.11611 0.0
C1199 C 0.52351 0.48914 0.12334 0.0
C1200 C 0.54598 0.47101 0.13237 0.0
C1201 C 0.48001 0.52179 1.10714 0.0
C1202 C 0.47913 0.49191 1.10632 0.0
C1203 C 0.50083 0.47597 1.11439 0.0
C1204 C 0.45817 0.47746 1.09458 0.0
C1205 C 0.45771 0.53994 1.09796 0.0
C1206 C 0.42924 0.47943 1.09856 0.0
C1207 C 0.40964 0.47578 1.08417 0.0
C1208 C 0.41908 0.47111 1.06566 0.0
C1209 C 0.4476 0.46366 1.06284 0.0
C1210 C 0.46703 0.46694 1.07725 0.0
H1211 H 0.46372 0.5626 1.09763 0.0
H1212 H 0.45385 0.53291 1.08334 0.0
H1213 H 0.4376 0.5379 1.10588 0.0
H1214 H 0.42206 0.48671 1.11215 0.0
H1215 H 0.38762 0.48025 1.08705 0.0
H1216 H 0.23273 0.29052 0.2443 0.0
H1217 H 0.21928 0.34013 0.2426 0.0
H1218 H 0.25727 0.35467 0.29659 0.0
H1219 H 0.27043 0.30471 0.29865 0.0
H1220 H 0.18658 0.37444 0.26898 0.0
H1221 H 0.29781 0.41026 0.25919 0.0
H1222 H 0.2873 0.37404 0.25568 0.0
H1223 H 0.29026 0.38777 0.279 0.0
C1224 C 0.23766 0.30403 0.25605 0.0
C1225 C 0.25269 0.29362 0.27162 0.0
C1226 C 0.23014 0.33243 0.25497 0.0
C1227 C 0.23766 0.35101 0.26934 0.0
C1228 C 0.25171 0.34064 0.28523 0.0
H1229 H 0.21444 0.53442 0.26878 0.0
H1230 H 0.22935 0.48667 0.27746 0.0
C1231 C 0.25918 0.31215 0.28637 0.0
C1232 C 0.23142 0.38137 0.26721 0.0
H1233 H 0.26233 0.44495 0.25763 0.0
C1234 C 0.20311 0.38993 0.26666 0.0
C1235 C 0.25313 0.40143 0.26428 0.0
C1236 C 0.28388 0.39307 0.26443 0.0
C1237 C 0.19585 0.41805 0.26289 0.0
C1238 C 0.21749 0.43786 0.25914 0.0
C1239 C 0.24585 0.42956 0.26037 0.0
C1240 C 0.21089 0.46697 0.25311 0.0
C1241 C 0.16507 0.42633 0.26286 0.0
C1242 C 0.1966 0.47169 0.23618 0.0
C1243 C 0.18812 0.49887 0.23113 0.0
C1244 C 0.19394 0.52183 0.2429 0.0
C1245 C 0.20969 0.51721 0.25936 0.0
C1246 C 0.21812 0.48995 0.26441 0.0
H1247 H 0.15189 0.41087 0.27074 0.0
H1248 H 0.16205 0.44753 0.26912 0.0
H1249 H 0.15736 0.42709 0.24818 0.0
H1250 H 0.19137 0.45421 0.22709 0.0
H1251 H 0.1762 0.50171 0.21831 0.0
H1252 H 0.4524 0.56638 0.50452 0.0
H1253 H 0.40133 0.55817 0.50293 0.0
H1254 H 0.41601 0.46853 0.49959 0.0
H1255 H 0.46692 0.4765 0.50091 0.0
H1256 H 0.36968 0.52968 0.47461 0.0
H1257 H 0.36031 0.47734 0.5441 0.0
H1258 H 0.39055 0.49843 0.53745 0.0
H1259 H 0.38755 0.46257 0.52957 0.0
C1260 C 0.44473 0.54494 0.50326 0.0
C1261 C 0.46365 0.52205 0.50298 0.0
C1262 C 0.4156 0.54031 0.50248 0.0
C1263 C 0.40501 0.51274 0.50153 0.0
C1264 C 0.42383 0.48993 0.50079 0.0
H1265 H 0.25896 0.43047 0.46462 0.0
H1266 H 0.30331 0.45597 0.46844 0.0
C1267 C 0.45288 0.49452 0.50153 0.0
C1268 C 0.37429 0.50753 0.50089 0.0
H1269 H 0.32188 0.47043 0.52276 0.0
C1270 C 0.35905 0.51712 0.48526 0.0
C1271 C 0.36045 0.49158 0.51499 0.0
C1272 C 0.37547 0.48211 0.53258 0.0
C1273 C 0.33067 0.5096 0.48279 0.0
C1274 C 0.31746 0.4919 0.49621 0.0
C1275 C 0.33218 0.48382 0.51241 0.0
C1276 C 0.28946 0.47921 0.49286 0.0
C1277 C 0.31521 0.52008 0.46564 0.0
C1278 C 0.26703 0.48384 0.50537 0.0
C1279 C 0.24157 0.46931 0.5032 0.0
C1280 C 0.23841 0.44958 0.48867 0.0
C1281 C 0.26076 0.4455 0.47595 0.0
C1282 C 0.28604 0.46021 0.47803 0.0
H1283 H 0.32503 0.53959 0.45988 0.0
H1284 H 0.31609 0.50367 0.45461 0.0
H1285 H 0.29267 0.5244 0.4689 0.0
H1286 H 0.26945 0.49822 0.51702 0.0
H1287 H 0.2248 0.47272 0.51332 0.0
H1288 H 0.2787 0.72033 0.74297 0.0
H1289 H 0.29155 0.67058 0.74113 0.0
H1290 H 0.25489 0.65583 0.79577 0.0
H1291 H 0.2423 0.70589 0.79793 0.0
H1292 H 0.32473 0.636 0.76661 0.0
H1293 H 0.21309 0.60048 0.75976 0.0
H1294 H 0.22355 0.63672 0.75599 0.0
H1295 H 0.22134 0.62271 0.77939 0.0
C1296 C 0.27391 0.70672 0.75481 0.0
C1297 C 0.25944 0.7171 0.77061 0.0
C1298 C 0.28108 0.67824 0.75365 0.0
C1299 C 0.27377 0.65957 0.76819 0.0
C1300 C 0.26025 0.66991 0.78428 0.0
H1301 H 0.29876 0.47621 0.76988 0.0
H1302 H 0.28368 0.52399 0.7783 0.0
C1303 C 0.25311 0.69847 0.78548 0.0
C1304 C 0.27981 0.62917 0.76611 0.0
H1305 H 0.24834 0.5655 0.75828 0.0
C1306 C 0.30807 0.62053 0.76494 0.0
C1307 C 0.25794 0.60913 0.76399 0.0
C1308 C 0.22723 0.61758 0.76471 0.0
C1309 C 0.31507 0.59233 0.76139 0.0
C1310 C 0.29322 0.57248 0.75857 0.0
C1311 C 0.26496 0.58089 0.76037 0.0
C1312 C 0.2995 0.54328 0.75279 0.0
C1313 C 0.34581 0.58397 0.76056 0.0
C1314 C 0.31228 0.53833 0.73534 0.0
C1315 C 0.32078 0.51118 0.73045 0.0
C1316 C 0.31655 0.48846 0.7429 0.0
C1317 C 0.30222 0.49324 0.75993 0.0
C1318 C 0.29372 0.5205 0.76483 0.0
H1319 H 0.35951 0.59969 0.76761 0.0
H1320 H 0.34918 0.56301 0.76723 0.0
H1321 H 0.35255 0.58257 0.74566 0.0
H1322 H 0.31641 0.55565 0.72574 0.0
H1323 H 0.33158 0.50821 0.71718 0.0
H1324 H 0.04915 0.52824 1.00825 0.0
H1325 H 0.09984 0.53662 1.006 0.0
H1326 H 0.11514 0.44691 1.00652 0.0
H1327 H 0.06412 0.43825 1.00893 0.0
H1328 H 0.14317 0.51845 1.03108 0.0
H1329 H 0.15622 0.47638 0.95867 0.0
H1330 H 0.12206 0.48525 0.96829 0.0
H1331 H 0.13972 0.45367 0.97579 0.0
C1332 C 0.06327 0.51026 1.0081 0.0
C1333 C 0.05267 0.48258 1.00884 0.0
C1334 C 0.0922 0.51509 1.00674 0.0
C1335 C 0.11112 0.49239 1.006 0.0
C1336 C 0.10076 0.46468 1.00685 0.0
H1337 H 0.29264 0.53188 1.01136 0.0
H1338 H 0.24814 0.50655 1.01634 0.0
C1339 C 0.07169 0.45979 1.00819 0.0
C1340 C 0.14162 0.49822 1.00413 0.0
H1341 H 0.196 0.49708 0.9726 0.0
C1342 C 0.15494 0.5134 1.01844 0.0
C1343 C 0.15667 0.49171 0.98754 0.0
C1344 C 0.14303 0.47601 0.97159 0.0
C1345 C 0.18269 0.52322 1.01632 0.0
C1346 C 0.19747 0.51736 0.99952 0.0
C1347 C 0.18454 0.5013 0.98549 0.0
C1348 C 0.2251 0.53042 0.99545 0.0
C1349 C 0.19546 0.54107 1.03159 0.0
C1350 C 0.22692 0.55159 0.98169 0.0
C1351 C 0.25219 0.56608 0.9788 0.0
C1352 C 0.27616 0.55949 0.98955 0.0
C1353 C 0.27457 0.53742 1.00281 0.0
C1354 C 0.24917 0.52302 1.00576 0.0
H1355 H 0.17975 0.54692 1.04252 0.0
H1356 H 0.2128 0.52917 1.03847 0.0
H1357 H 0.20463 0.56069 1.02556 0.0
H1358 H 0.2085 0.55752 0.9736 0.0
H1359 H 0.25275 0.58285 0.96842 0.0
H1360 H 0.7722 0.46438 0.98534 0.0
H1361 H 0.7419 0.50618 0.9812 0.0
H1362 H 0.81548 0.55967 0.98195 0.0
H1363 H 0.84564 0.51869 0.98619 0.0
H1364 H 0.74322 0.5584 1.00727 0.0
H1365 H 0.7686 0.5796 0.93243 0.0
H1366 H 0.77151 0.54491 0.94295 0.0
H1367 H 0.79857 0.57081 0.94675 0.0
C1368 C 0.78186 0.48507 0.98463 0.0
C1369 C 0.81132 0.4882 0.98621 0.0
C1370 C 0.76455 0.50883 0.98225 0.0
C1371 C 0.7766 0.53583 0.9811 0.0
C1372 C 0.80589 0.53893 0.98263 0.0
H1373 H 0.75542 0.7064 1.00011 0.0
H1374 H 0.7609 0.65513 1.00142 0.0
C1375 C 0.82306 0.51542 0.98518 0.0
C1376 C 0.7591 0.56138 0.97898 0.0
H1377 H 0.75187 0.61887 0.95047 0.0
C1378 C 0.74438 0.57137 0.9947 0.0
C1379 C 0.76059 0.57806 0.96253 0.0
C1380 C 0.77547 0.56775 0.94512 0.0
C1381 C 0.73293 0.59869 0.99485 0.0
C1382 C 0.73656 0.61628 0.97894 0.0
C1383 C 0.74929 0.60539 0.96271 0.0
C1384 C 0.73047 0.64685 0.97952 0.0
C1385 C 0.71805 0.6089 1.01228 0.0
C1386 C 0.71167 0.65915 0.96669 0.0
C1387 C 0.70859 0.68847 0.96587 0.0
C1388 C 0.72462 0.70591 0.97767 0.0
C1389 C 0.74297 0.69346 0.99077 0.0
C1390 C 0.74586 0.66419 0.99168 0.0
H1391 H 0.70928 0.591 1.02058 0.0
H1392 H 0.7334 0.62019 1.02127 0.0
H1393 H 0.70066 0.62369 1.00872 0.0
H1394 H 0.69989 0.6461 0.95704 0.0
H1395 H 0.69451 0.69754 0.95552 0.0
H1396 H 0.54205 0.5304 0.69816 0.0
H1397 H 0.59172 0.54442 0.69795 0.0
H1398 H 0.611 0.47692 0.73669 0.0
H1399 H 0.56135 0.46275 0.73696 0.0
H1400 H 0.62201 0.56272 0.72719 0.0
H1401 H 0.67257 0.46772 0.69744 0.0
H1402 H 0.635 0.47391 0.69619 0.0
H1403 H 0.6504 0.45925 0.71715 0.0
C1404 C 0.55689 0.51851 0.70661 0.0
C1405 C 0.54779 0.49552 0.71764 0.0
C1406 C 0.58527 0.52643 0.70638 0.0
C1407 C 0.60511 0.51147 0.71709 0.0
C1408 C 0.59617 0.48832 0.72795 0.0
H1409 H 0.75891 0.57666 0.76331 0.0
H1410 H 0.71142 0.55881 0.75703 0.0
C1411 C 0.56778 0.48031 0.72815 0.0
C1412 C 0.63471 0.52135 0.71805 0.0
H1413 H 0.70312 0.49949 0.71403 0.0
C1414 C 0.63975 0.54899 0.72413 0.0
C1415 C 0.65782 0.50364 0.71363 0.0
C1416 C 0.65371 0.47459 0.70554 0.0
C1417 C 0.66729 0.55904 0.72669 0.0
C1418 C 0.69037 0.5406 0.72368 0.0
C1419 C 0.68539 0.51338 0.71676 0.0
C1420 C 0.71976 0.54916 0.72786 0.0
C1421 C 0.6713 0.58938 0.73244 0.0
C1422 C 0.74062 0.54811 0.71385 0.0
C1423 C 0.76796 0.55762 0.71755 0.0
C1424 C 0.77478 0.56851 0.73529 0.0
C1425 C 0.75415 0.56857 0.74948 0.0
C1426 C 0.72697 0.55864 0.74585 0.0
H1427 H 0.65301 0.60263 0.7282 0.0
H1428 H 0.67308 0.59047 0.74794 0.0
H1429 H 0.69075 0.59851 0.72612 0.0
H1430 H 0.73555 0.54072 0.6999 0.0
H1431 H 0.78337 0.55758 0.70627 0.0
H1432 H 0.73963 0.28978 0.48965 0.0
H1433 H 0.72667 0.33943 0.49146 0.0
H1434 H 0.74929 0.35093 0.43326 0.0
H1435 H 0.76199 0.30085 0.43118 0.0
H1436 H 0.77325 0.39123 0.45845 0.0
H1437 H 0.65771 0.37991 0.46871 0.0
H1438 H 0.67817 0.35834 0.48436 0.0
H1439 H 0.67949 0.35187 0.45952 0.0
C1440 C 0.74118 0.3026 0.47706 0.0
C1441 C 0.75159 0.29124 0.4602 0.0
C1442 C 0.73389 0.33104 0.47816 0.0
C1443 C 0.73673 0.3487 0.46244 0.0
C1444 C 0.74688 0.33753 0.44552 0.0
H1445 H 0.70878 0.53139 0.45641 0.0
H1446 H 0.7244 0.48355 0.44886 0.0
C1447 C 0.75415 0.30898 0.44438 0.0
C1448 C 0.73023 0.37909 0.46411 0.0
H1449 H 0.67771 0.42453 0.47659 0.0
C1450 C 0.75231 0.39866 0.46217 0.0
C1451 C 0.70288 0.38857 0.46892 0.0
C1452 C 0.67812 0.36862 0.47033 0.0
C1453 C 0.74801 0.42744 0.46583 0.0
C1454 C 0.72085 0.43673 0.47132 0.0
C1455 C 0.6986 0.41725 0.47259 0.0
C1456 C 0.71494 0.46638 0.47638 0.0
C1457 C 0.7727 0.44746 0.46452 0.0
C1458 C 0.70471 0.4726 0.49438 0.0
C1459 C 0.6956 0.4998 0.49871 0.0
C1460 C 0.69657 0.52129 0.48508 0.0
C1461 C 0.7081 0.51536 0.4673 0.0
C1462 C 0.71705 0.48803 0.46295 0.0
H1463 H 0.79322 0.43608 0.46418 0.0
H1464 H 0.77094 0.46011 0.45143 0.0
H1465 H 0.77273 0.46226 0.47655 0.0
H1466 H 0.70293 0.45614 0.50493 0.0
H1467 H 0.68686 0.50372 0.51252 0.0
H1468 H 0.75921 0.42652 0.26168 0.0
H1469 H 0.80716 0.44198 0.25416 0.0
H1470 H 0.77787 0.47722 0.2018 0.0
H1471 H 0.72976 0.46228 0.20931 0.0
H1472 H 0.83699 0.42315 0.22291 0.0
H1473 H 0.82785 0.54013 0.22237 0.0
H1474 H 0.80153 0.51762 0.23308 0.0
H1475 H 0.8027 0.5219 0.20803 0.0
C1476 C 0.76283 0.43809 0.24875 0.0
C1477 C 0.74066 0.4432 0.23612 0.0
C1478 C 0.79025 0.44682 0.24445 0.0
C1479 C 0.79601 0.46085 0.22748 0.0
C1480 C 0.77379 0.46688 0.21512 0.0
H1481 H 0.95851 0.51618 0.18117 0.0
H1482 H 0.90874 0.50245 0.18386 0.0
C1483 C 0.74629 0.45829 0.21946 0.0
C1484 C 0.82558 0.46715 0.22218 0.0
H1485 H 0.87153 0.52082 0.21261 0.0
C1486 C 0.84455 0.44451 0.22065 0.0
C1487 C 0.83524 0.49499 0.21899 0.0
C1488 C 0.81587 0.52012 0.22083 0.0
C1489 C 0.87309 0.44898 0.2163 0.0
C1490 C 0.88293 0.47686 0.21367 0.0
C1491 C 0.86383 0.49946 0.21463 0.0
C1492 C 0.91329 0.48317 0.21127 0.0
C1493 C 0.89247 0.42384 0.21457 0.0
C1494 C 0.93222 0.47673 0.22575 0.0
C1495 C 0.96051 0.48463 0.22431 0.0
C1496 C 0.97042 0.49925 0.20837 0.0
C1497 C 0.95149 0.50511 0.19368 0.0
C1498 C 0.92311 0.49724 0.19516 0.0
H1499 H 0.88052 0.40423 0.21151 0.0
H1500 H 0.90844 0.42721 0.20333 0.0
H1501 H 0.90377 0.42066 0.22803 0.0
H1502 H 0.9249 0.46644 0.23847 0.0
H1503 H 0.9743 0.48037 0.23609 0.0
H1504 H 0.77273 0.80333 0.79898 0.0
H1505 H 0.75899 0.8532 0.79777 0.0
H1506 H 0.71971 0.83981 0.74404 0.0
H1507 H 0.73362 0.79036 0.74495 0.0
H1508 H 0.77567 0.89186 0.76947 0.0
H1509 H 0.65922 0.88284 0.77371 0.0
H1510 H 0.68259 0.85452 0.78061 0.0
H1511 H 0.6744 0.86023 0.75625 0.0
C1512 C 0.76094 0.81099 0.787 0.0
C1513 C 0.75414 0.79283 0.77211 0.0
C1514 C 0.75306 0.83941 0.78636 0.0
C1515 C 0.73806 0.85002 0.77093 0.0
C1516 C 0.73073 0.83186 0.75627 0.0
H1517 H 0.68273 1.00105 0.71904 0.0
H1518 H 0.69893 0.954 0.72801 0.0
C1519 C 0.73862 0.80354 0.75686 0.0
C1520 C 0.73164 0.88044 0.76932 0.0
H1521 H 0.67753 0.92632 0.76127 0.0
C1522 C 0.75421 0.89957 0.76799 0.0
C1523 C 0.70363 0.8903 0.76747 0.0
C1524 C 0.67855 0.87094 0.76977 0.0
C1525 C 0.74952 0.92815 0.76379 0.0
C1526 C 0.72157 0.93768 0.76103 0.0
C1527 C 0.69897 0.91879 0.76319 0.0
C1528 C 0.71514 0.96682 0.755 0.0
C1529 C 0.77445 0.94769 0.76148 0.0
C1530 C 0.71955 0.98965 0.76707 0.0
C1531 C 0.71042 0.01666 0.76195 0.0
C1532 C 0.69653 0.02111 0.74474 0.0
C1533 C 0.69328 0.99833 0.73239 0.0
C1534 C 0.70246 0.97143 0.7375 0.0
H1535 H 0.7948 0.93604 0.76103 0.0
H1536 H 0.77236 0.96041 0.74842 0.0
H1537 H 0.77508 0.96251 0.77348 0.0
H1538 H 0.72898 0.98639 0.78074 0.0
H1539 H 0.713 0.03371 0.77186 0.0
H1540 H 0.72994 0.95793 1.02028 0.0
H1541 H 0.77642 0.97746 1.02769 0.0
H1542 H 0.80758 0.95125 0.97358 0.0
H1543 H 0.76129 0.93167 0.96602 0.0
H1544 H 0.8268 0.94323 1.02809 0.0
H1545 H 0.83543 0.03388 0.97885 0.0
H1546 H 0.80195 0.01852 0.9856 0.0
H1547 H 0.8236 1.00176 0.96814 0.0
C1548 C 0.74649 0.95694 1.00976 0.0
C1549 C 0.74197 0.94332 0.99252 0.0
C1550 C 0.77303 0.96797 1.01408 0.0
C1551 C 0.79526 0.96596 1.00111 0.0
C1552 C 0.79052 0.95336 0.98364 0.0
H1553 H 0.97212 0.9884 0.98999 0.0
H1554 H 0.92202 0.9773 0.98772 0.0
C1555 C 0.76411 0.9421 0.97938 0.0
C1556 C 0.82409 0.97474 1.00629 0.0
H1557 H 0.87849 0.01702 0.99226 0.0
C1558 C 0.83806 0.95966 1.0205 0.0
C1559 C 0.83854 0.99615 0.99632 0.0
C1560 C 0.82407 0.01372 0.98148 0.0
C1561 C 0.8667 0.96447 1.02434 0.0
C1562 C 0.88144 0.98519 1.01387 0.0
C1563 C 0.86712 1.001 1.00017 0.0
C1564 C 0.91209 0.98986 1.01612 0.0
C1565 C 0.88128 0.94648 1.03891 0.0
C1566 C 0.92315 1.00017 1.03299 0.0
C1567 C 0.95196 0.0062 1.03444 0.0
C1568 C 0.9701 1.00216 1.019 0.0
C1569 C 0.95893 0.99122 1.00228 0.0
C1570 C 0.93022 0.98516 1.00087 0.0
H1571 H 0.86845 0.92779 1.04298 0.0
H1572 H 0.90211 0.93911 1.03366 0.0
H1573 H 0.88497 0.95924 1.05168 0.0
H1574 H 0.9094 1.00426 1.04484 0.0
H1575 H 0.95994 0.0145 1.04752 0.0
H1576 H 0.80125 0.97774 0.26853 0.0
H1577 H 0.78339 0.02525 0.27471 0.0
H1578 H 0.81861 0.05434 0.22219 0.0
H1579 H 0.83651 0.00697 0.21583 0.0
H1580 H 0.81916 0.07419 0.27697 0.0
H1581 H 0.73666 0.08532 0.22227 0.0
H1582 H 0.74991 0.05145 0.22998 0.0
H1583 H 0.77004 0.07256 0.21375 0.0
C1584 C 0.80469 0.99409 0.25809 0.0
C1585 C 0.82024 0.98858 0.24164 0.0
C1586 C 0.79459 0.02123 0.26171 0.0
C1587 C 0.79952 0.04315 0.24884 0.0
C1588 C 0.81426 0.03755 0.23217 0.0
H1589 H 0.77753 0.22147 0.23889 0.0
H1590 H 0.79028 0.17182 0.23607 0.0
C1591 C 0.82455 0.0105 0.22859 0.0
C1592 C 0.79103 0.07234 0.25332 0.0
H1593 H 0.75153 0.12752 0.23731 0.0
C1594 C 0.80413 0.08584 0.26847 0.0
C1595 C 0.77146 0.08732 0.24216 0.0
C1596 C 0.75598 0.0734 0.22622 0.0
C1597 C 0.79901 0.11441 0.27229 0.0
C1598 C 0.77995 0.12959 0.26082 0.0
C1599 C 0.76629 0.11583 0.24599 0.0
C1600 C 0.7744 0.16001 0.26351 0.0
C1601 C 0.81481 0.12838 0.28807 0.0
C1602 C 0.76161 0.16988 0.28001 0.0
C1603 C 0.75459 0.1984 0.28178 0.0
C1604 C 0.76008 0.21747 0.26701 0.0
C1605 C 0.77349 0.20753 0.25068 0.0
C1606 C 0.78054 0.17909 0.24896 0.0
H1607 H 0.83319 0.11559 0.29275 0.0
H1608 H 0.82242 0.14961 0.28375 0.0
H1609 H 0.8004 0.13102 0.30024 0.0
H1610 H 0.75633 0.1554 0.29129 0.0
H1611 H 0.74439 0.20542 0.29455 0.0
H1612 H 0.78599 0.04738 0.51873 0.0
H1613 H 0.73835 0.03135 0.52678 0.0
H1614 H 0.70693 0.06641 0.47492 0.0
H1615 H 0.75432 0.08285 0.46686 0.0
H1616 H 0.67814 0.0848 0.50713 0.0
H1617 H 0.68842 0.96784 0.50604 0.0
H1618 H 0.71397 0.98635 0.51993 0.0
H1619 H 0.71387 0.99088 0.4949 0.0
C1620 C 0.76907 0.05108 0.50882 0.0
C1621 C 0.77389 0.06643 0.49215 0.0
C1622 C 0.74187 0.04189 0.51346 0.0
C1623 C 0.7192 0.04762 0.5014 0.0
C1624 C 0.7242 0.06183 0.4844 0.0
H1625 H 0.54182 0.02739 0.49211 0.0
H1626 H 0.59119 0.04163 0.49042 0.0
C1627 C 0.75129 0.07114 0.4798 0.0
C1628 C 0.68989 0.04088 0.50701 0.0
H1629 H 0.64445 0.98646 0.51561 0.0
C1630 C 0.67078 0.0633 0.50905 0.0
C1631 C 0.68052 0.01285 0.50975 0.0
C1632 C 0.70015 0.98802 0.50743 0.0
C1633 C 0.6423 0.05841 0.51333 0.0
C1634 C 0.63269 0.03036 0.51537 0.0
C1635 C 0.65198 0.00795 0.51402 0.0
C1636 C 0.60236 0.02371 0.51738 0.0
C1637 C 0.62271 0.08331 0.51552 0.0
C1638 C 0.59233 0.00884 0.53311 0.0
C1639 C 0.56398 1.00078 0.53419 0.0
C1640 C 0.5453 0.00726 0.51946 0.0
C1641 C 0.55543 0.02263 0.5039 0.0
C1642 C 0.58368 0.03071 0.50287 0.0
H1643 H 0.63449 0.10282 0.5191 0.0
H1644 H 0.61158 0.08712 0.50206 0.0
H1645 H 0.60661 0.07925 0.52657 0.0
H1646 H 0.60653 1.00318 0.54441 0.0
H1647 H 0.55677 0.9891 0.5464 0.0
H1648 H 0.25368 0.2094 0.43303 0.0
H1649 H 0.26615 0.1593 0.43548 0.0
H1650 H 0.29223 0.17155 0.49275 0.0
H1651 H 0.27922 0.22125 0.49069 0.0
H1652 H 0.33068 0.1387 0.46783 0.0
H1653 H 0.21893 0.10178 0.46885 0.0
H1654 H 0.22941 0.12596 0.45054 0.0
H1655 H 0.22852 0.13765 0.47443 0.0
C1656 C 0.26209 0.20143 0.44614 0.0
C1657 C 0.2654 0.21937 0.46167 0.0
C1658 C 0.2692 0.17286 0.44749 0.0
C1659 C 0.27977 0.16182 0.46436 0.0
C1660 C 0.28407 0.17978 0.47963 0.0
H1661 H 0.33757 0.0063 0.51262 0.0
H1662 H 0.32296 0.05465 0.50564 0.0
C1663 C 0.27684 0.20825 0.47835 0.0
C1664 C 0.2859 0.13143 0.46639 0.0
H1665 H 0.25432 0.06716 0.47189 0.0
C1666 C 0.31405 0.12299 0.46861 0.0
C1667 C 0.26408 0.11113 0.46729 0.0
C1668 C 0.23347 0.11941 0.46526 0.0
C1669 C 0.321 0.09465 0.47191 0.0
C1670 C 0.29911 0.07445 0.47354 0.0
C1671 C 0.27099 0.08278 0.47078 0.0
C1672 C 0.30511 0.04473 0.47854 0.0
C1673 C 0.35174 0.08659 0.47353 0.0
C1674 C 0.29846 0.02294 0.46608 0.0
C1675 C 0.30646 0.99517 0.47013 0.0
C1676 C 0.32125 0.98884 0.48673 0.0
C1677 C 0.32644 0.01053 0.49964 0.0
C1678 C 0.3183 0.03819 0.49562 0.0
H1679 H 0.36571 0.10252 0.46676 0.0
H1680 H 0.35754 0.08524 0.48859 0.0
H1681 H 0.35583 0.06573 0.46703 0.0
H1682 H 0.28807 0.02757 0.45289 0.0
H1683 H 0.30223 0.97897 0.45985 0.0
H1684 H 0.04186 0.02482 0.23698 0.0
H1685 H 0.09154 0.03736 0.24023 0.0
H1686 H 0.10948 1.00096 0.18614 0.0
H1687 H 0.05945 0.98911 0.18245 0.0
H1688 H 0.13589 0.99776 0.24032 0.0
H1689 H 0.14938 0.0781 0.18377 0.0
H1690 H 0.11511 0.06793 0.19271 0.0
H1691 H 0.13372 0.04526 0.17678 0.0
C1692 C 0.05616 0.02019 0.22551 0.0
C1693 C 0.04665 0.00611 0.20939 0.0
C1694 C 0.08461 0.02711 0.22749 0.0
C1695 C 0.10409 0.0202 0.2134 0.0
C1696 C 0.09467 0.00678 0.19707 0.0
H1697 H 0.28636 0.04841 0.21045 0.0
H1698 H 0.23931 0.02964 0.20395 0.0
C1699 C 0.06615 0.99985 0.19505 0.0
C1700 C 0.13446 0.02572 0.2164 0.0
H1701 H 0.19024 0.06476 0.20053 0.0
C1702 C 0.14782 0.01236 0.2316 0.0
C1703 C 0.14993 0.04457 0.20489 0.0
C1704 C 0.13635 0.06001 0.18869 0.0
C1705 C 0.17623 0.01766 0.23577 0.0
C1706 C 0.19148 0.03707 0.22457 0.0
C1707 C 0.17839 0.04985 0.20905 0.0
C1708 C 0.22048 0.04582 0.2294 0.0
C1709 C 0.18971 1.00249 0.2521 0.0
C1710 C 0.22543 0.06084 0.24597 0.0
C1711 C 0.25223 0.07165 0.24974 0.0
C1712 C 0.27453 0.06762 0.23697 0.0
C1713 C 0.2697 0.05169 0.22067 0.0
C1714 C 0.24283 0.04106 0.21686 0.0
H1715 H 0.17781 0.98314 0.25607 0.0
H1716 H 0.21186 0.99656 0.24879 0.0
H1717 H 0.18998 0.01669 0.26443 0.0
H1718 H 0.20831 0.06508 0.25568 0.0
H1719 H 0.25523 0.08389 0.26237 0.0
H1720 H 0.18087 1.00404 1.01372 0.0
H1721 H 0.19825 0.95637 1.00765 0.0
H1722 H 0.22963 0.98325 0.95358 0.0
H1723 H 0.21235 0.03111 0.9595 0.0
H1724 H 0.19247 0.93387 0.95402 0.0
H1725 H 0.28088 0.92553 1.00479 0.0
H1726 H 0.24848 0.93936 1.01423 0.0
H1727 H 0.26729 0.959 0.99657 0.0
C1728 C 0.19189 0.99996 1.00067 0.0
C1729 C 0.19529 0.02136 0.98712 0.0
C1730 C 0.20187 0.97274 0.99725 0.0
C1731 C 0.21535 0.96643 0.98023 0.0
C1732 C 0.2194 0.98784 0.96684 0.0
H1733 H 0.26378 0.80177 0.93485 0.0
H1734 H 0.25256 0.85196 0.93787 0.0
C1735 C 0.20965 0.01517 0.97031 0.0
C1736 C 0.22337 0.93701 0.976 0.0
H1737 H 0.26496 0.8828 0.99109 0.0
C1738 C 0.20853 0.9227 0.96194 0.0
C1739 C 0.24424 0.92265 0.98644 0.0
C1740 C 0.26136 0.93742 1.00126 0.0
C1741 C 0.21328 0.89394 0.95853 0.0
C1742 C 0.23382 0.8794 0.96923 0.0
C1743 C 0.24913 0.89397 0.98297 0.0
C1744 C 0.23924 0.84885 0.96689 0.0
C1745 C 0.19553 0.87913 0.94405 0.0
C1746 C 0.23569 0.83054 0.98223 0.0
C1747 C 0.24245 0.80201 0.98064 0.0
C1748 C 0.25293 0.79115 0.96365 0.0
C1749 C 0.2559 0.80947 0.94816 0.0
C1750 C 0.24924 0.8381 0.9498 0.0
H1751 H 0.17627 0.8914 0.94046 0.0
H1752 H 0.20811 0.87645 0.93102 0.0
H1753 H 0.18903 0.85789 0.94909 0.0
H1754 H 0.22813 0.83846 0.99558 0.0
H1755 H 0.24044 0.78871 0.99298 0.0
H1756 H 0.45728 0.02113 0.69383 0.0
H1757 H 0.40674 0.01108 0.696 0.0
H1758 H 0.40947 0.02389 0.75585 0.0
H1759 H 0.4601 0.03389 0.7538 0.0
H1760 H 0.38488 0.96671 0.71626 0.0
H1761 H 0.33853 0.06775 0.74035 0.0
H1762 H 0.37345 0.06539 0.73019 0.0
H1763 H 0.36771 0.05584 0.75435 0.0
C1764 C 0.44707 0.02199 0.70744 0.0
C1765 C 0.46268 0.02809 0.72368 0.0
C1766 C 0.41819 0.01644 0.70863 0.0
C1767 C 0.40433 0.01703 0.72605 0.0
C1768 C 0.41964 0.02393 0.74222 0.0
H1769 H 0.25989 0.92355 0.76246 0.0
H1770 H 0.30546 0.9468 0.75821 0.0
C1771 C 0.44858 0.02956 0.74104 0.0
C1772 C 0.37463 0.00756 0.72753 0.0
H1773 H 0.30907 0.02677 0.74302 0.0
C1774 C 0.36826 0.97995 0.72194 0.0
C1775 C 0.35296 0.02497 0.73477 0.0
C1776 C 0.35837 0.05524 0.7401 0.0
C1777 C 0.34099 0.96894 0.72398 0.0
C1778 C 0.31966 0.98587 0.73205 0.0
C1779 C 0.32567 0.01381 0.73704 0.0
C1780 C 0.29127 0.97431 0.73585 0.0
C1781 C 0.33517 0.93918 0.71761 0.0
C1782 C 0.26808 0.98281 0.72505 0.0
C1783 C 0.24192 0.96954 0.7274 0.0
C1784 C 0.23862 0.94765 0.74066 0.0
C1785 C 0.26169 0.9402 0.75205 0.0
C1786 C 0.28776 0.95342 0.74965 0.0
H1787 H 0.35202 0.93118 0.70814 0.0
H1788 H 0.33404 0.92505 0.73006 0.0
H1789 H 0.31461 0.93799 0.7102 0.0
H1790 H 0.27049 0.99897 0.71435 0.0
H1791 H 0.22459 0.97581 0.71841 0.0
H1792 H 0.34103 0.09941 0.16886 0.0
H1793 H 0.31422 0.09661 0.13954 0.0
H1794 H 0.24584 0.14267 0.16511 0.0
H1795 H 0.2727 0.14617 0.1942 0.0
H1796 H 0.2651 0.07247 0.13064 0.0
H1797 H 0.25388 0.18699 0.11759 0.0
H1798 H 0.27728 0.17307 0.13527 0.0
H1799 H 0.24009 0.17677 0.14007 0.0
C1800 C 0.32047 0.10938 0.1682 0.0
C1801 C 0.30942 0.12345 0.18402 0.0
C1802 C 0.30499 0.10759 0.15137 0.0
C1803 C 0.27797 0.11984 0.14974 0.0
C1804 C 0.26684 0.13368 0.16558 0.0
H1805 H 0.15627 0.07685 1.05936 0.0
H1806 H 0.18134 0.07992 1.08942 0.0
C1807 C 0.28232 0.13559 0.18236 0.0
C1808 C 0.26127 0.11769 0.13174 0.0
H1809 H 0.22546 0.15688 1.09892 0.0
C1810 C 0.25652 0.09099 0.12372 0.0
C1811 C 0.25018 0.14172 0.12232 0.0
C1812 C 0.25584 0.17126 0.12913 0.0
C1813 C 0.24095 0.08768 1.10692 0.0
C1814 C 0.22904 0.11165 1.09788 0.0
C1815 C 0.23407 0.13834 1.10581 0.0
C1816 C 0.21275 0.10989 1.0797 0.0
C1817 C 0.23819 0.05852 1.09875 0.0
C1818 C 0.22101 0.12639 1.06417 0.0
C1819 C 0.20643 0.12501 1.04706 0.0
C1820 C 0.18289 0.10708 1.04479 0.0
C1821 C 0.17421 0.0909 1.06044 0.0
C1822 C 0.18883 0.0924 1.07766 0.0
H1823 H 0.25471 0.04401 1.10422 0.0
H1824 H 0.21731 0.04962 1.10268 0.0
H1825 H 0.23973 0.05911 1.0832 0.0
H1826 H 0.2392 0.14017 1.06515 0.0
H1827 H 0.21402 0.13783 1.03548 0.0
H1828 H 0.61858 0.4557 0.28714 0.0
H1829 H 0.61544 0.48002 0.31711 0.0
H1830 H 0.68596 0.43169 0.33785 0.0
H1831 H 0.68849 0.40628 0.30785 0.0
H1832 H 0.64986 0.43818 0.36537 0.0
H1833 H 0.66294 0.54366 0.33357 0.0
H1834 H 0.63266 0.52633 0.32403 0.0
H1835 H 0.66741 0.51182 0.32018 0.0
C1836 C 0.63342 0.45001 0.29807 0.0
C1837 C 0.65392 0.42896 0.29486 0.0
C1838 C 0.63178 0.4643 0.31527 0.0
C1839 C 0.65102 0.45865 0.32983 0.0
C1840 C 0.67094 0.43689 0.32694 0.0
H1841 H 0.6728 0.57911 0.42263 0.0
H1842 H 0.67651 0.55166 0.39382 0.0
C1843 C 0.67234 0.42221 0.30973 0.0
C1844 C 0.6501 0.47536 0.34791 0.0
H1845 H 0.64623 0.5427 0.36526 0.0
C1846 C 0.64923 0.46105 0.36528 0.0
C1847 C 0.64996 0.50537 0.34819 0.0
C1848 C 0.65362 0.52267 0.33051 0.0
C1849 C 0.6475 0.4756 0.38259 0.0
C1850 C 0.64554 0.50556 0.38279 0.0
C1851 C 0.64713 0.51984 0.36542 0.0
C1852 C 0.64272 0.52258 0.4007 0.0
C1853 C 0.64871 0.4585 0.40048 0.0
C1854 C 0.62211 0.51623 0.41444 0.0
C1855 C 0.62015 0.53186 0.43122 0.0
C1856 C 0.63826 0.55487 0.43464 0.0
C1857 C 0.65823 0.56179 0.4206 0.0
C1858 C 0.66045 0.54592 0.40399 0.0
H1859 H 0.65953 0.43797 0.39826 0.0
H1860 H 0.65994 0.47003 0.41174 0.0
H1861 H 0.62689 0.45389 0.40532 0.0
H1862 H 0.60736 0.49914 0.41224 0.0
H1863 H 0.60443 0.52581 0.44155 0.0
H1864 H 0.23355 0.85659 0.69121 0.0
H1865 H 0.2605 0.85925 0.6619 0.0
H1866 H 0.21048 0.93052 0.64419 0.0
H1867 H 0.18266 0.92712 0.67309 0.0
H1868 H 0.21871 0.90005 0.61536 0.0
H1869 H 0.32347 0.90984 0.64836 0.0
H1870 H 0.30654 0.87767 0.6554 0.0
H1871 H 0.29125 0.91112 0.66186 0.0
C1872 C 0.22813 0.87278 0.68106 0.0
C1873 C 0.20575 0.89163 0.68472 0.0
C1874 C 0.24392 0.87454 0.66428 0.0
C1875 C 0.23837 0.89564 0.65076 0.0
C1876 C 0.21562 0.9141 0.65425 0.0
H1877 H 0.35728 0.93671 0.55773 0.0
H1878 H 0.33139 0.93555 0.58774 0.0
C1879 C 0.19955 0.91209 0.67089 0.0
C1880 C 0.25565 0.8981 0.63287 0.0
H1881 H 0.32341 0.89989 0.61548 0.0
C1882 C 0.24161 0.90015 0.61552 0.0
C1883 C 0.28569 0.899 0.63269 0.0
C1884 C 0.3026 0.89962 0.65058 0.0
C1885 C 0.25641 0.90232 0.59829 0.0
C1886 C 0.28643 0.90135 0.59804 0.0
C1887 C 0.30051 0.90011 0.6154 0.0
C1888 C 0.3034 0.90141 0.57999 0.0
C1889 C 0.23948 0.90642 0.58057 0.0
C1890 C 0.29732 0.8821 0.56563 0.0
C1891 C 0.31191 0.88295 0.54844 0.0
C1892 C 0.33366 0.90268 0.54508 0.0
C1893 C 0.34082 0.92113 0.55976 0.0
C1894 C 0.32586 0.92053 0.57696 0.0
H1895 H 0.21878 0.91651 0.58357 0.0
H1896 H 0.25098 0.91968 0.57018 0.0
H1897 H 0.23518 0.88555 0.57421 0.0
H1898 H 0.28102 0.86635 0.56761 0.0
H1899 H 0.30588 0.86814 0.53764 0.0
H1900 H 0.83163 0.61027 0.80896 0.0
H1901 H 0.83428 0.58555 0.83934 0.0
H1902 H 0.89228 0.52538 0.81548 0.0
H1903 H 0.88911 0.54928 0.78526 0.0
H1904 H 0.85532 0.49789 0.83512 0.0
H1905 H 0.89243 0.58559 0.8797 0.0
H1906 H 0.85975 0.59324 0.86806 0.0
H1907 H 0.89143 0.58823 0.85445 0.0
C1908 C 0.84524 0.59201 0.81026 0.0
C1909 C 0.86022 0.58203 0.79449 0.0
C1910 C 0.84687 0.57784 0.82775 0.0
C1911 C 0.86385 0.55355 0.83007 0.0
C1912 C 0.87899 0.54391 0.81434 0.0
H1913 H 0.91423 0.47483 0.93779 0.0
H1914 H 0.91232 0.50154 0.90814 0.0
C1915 C 0.87719 0.55781 0.79693 0.0
C1916 C 0.86529 0.53732 0.84842 0.0
H1917 H 0.87914 0.54331 0.89552 0.0
C1918 C 0.86059 0.50796 0.84828 0.0
C1919 C 0.87257 0.54997 0.86578 0.0
C1920 C 0.87962 0.58093 0.86705 0.0
C1921 C 0.86277 0.49119 0.86469 0.0
C1922 C 0.86911 0.50395 0.88217 0.0
C1923 C 0.87406 0.53328 0.88232 0.0
C1924 C 0.87055 0.4873 0.90035 0.0
C1925 C 0.85902 0.4597 0.86289 0.0
C1926 C 0.84776 0.47035 0.90627 0.0
C1927 C 0.84895 0.4548 0.92312 0.0
C1928 C 0.87285 0.45586 0.93491 0.0
C1929 C 0.89558 0.47309 0.92912 0.0
C1930 C 0.89442 0.48858 0.91213 0.0
H1931 H 0.86359 0.45247 0.84838 0.0
H1932 H 0.873 0.44803 0.87271 0.0
H1933 H 0.83678 0.45413 0.86615 0.0
H1934 H 0.82869 0.46939 0.89796 0.0
H1935 H 0.83074 0.44225 0.92704 0.0
H1936 H 0.78995 0.90209 0.19447 0.0
H1937 H 0.7669 0.89875 0.16407 0.0
H1938 H 0.84771 0.90353 0.13637 0.0
H1939 H 0.87132 0.90728 0.1671 0.0
H1940 H 0.77186 0.9395 0.1315 0.0
H1941 H 0.80596 0.82998 0.11522 0.0
H1942 H 0.80487 0.84312 0.13897 0.0
H1943 H 0.83217 0.85466 0.12324 0.0
C1944 C 0.8031 0.90239 0.182 0.0
C1945 C 0.83276 0.9048 0.18347 0.0
C1946 C 0.78969 0.90055 0.16451 0.0
C1947 C 0.80538 0.90065 0.14777 0.0
C1948 C 0.83502 0.90315 0.14903 0.0
H1949 H 0.74866 0.87051 1.03172 0.0
H1950 H 0.77573 0.87537 1.06071 0.0
C1951 C 0.84855 0.90537 0.16666 0.0
C1952 C 0.79035 0.89825 0.12923 0.0
H1953 H 0.77642 0.85246 1.09334 0.0
C1954 C 0.77298 0.92052 0.1231 0.0
C1955 C 0.79169 0.87358 0.11814 0.0
C1956 C 0.80952 0.84879 0.12414 0.0
C1957 C 0.75729 0.91895 1.10625 0.0
C1958 C 0.75788 0.89386 1.09535 0.0
C1959 C 0.77556 0.8717 1.10148 0.0
C1960 C 0.7407 0.89025 1.07758 0.0
C1961 C 0.74093 0.94471 1.10014 0.0
C1962 C 0.71151 0.89623 1.07705 0.0
C1963 C 0.69596 0.89383 1.06027 0.0
C1964 C 0.70884 0.88453 1.04354 0.0
C1965 C 0.73777 0.87746 1.04425 0.0
C1966 C 0.7534 0.88035 1.06094 0.0
H1967 H 0.7501 0.9643 1.10608 0.0
H1968 H 0.74053 0.94683 1.08462 0.0
H1969 H 0.71889 0.94302 1.10537 0.0
H1970 H 0.70058 0.90287 1.08963 0.0
H1971 H 0.67378 0.89941 1.06042 0.0
H1972 H 0.31769 0.59364 0.92215 0.0
H1973 H 0.32083 0.56748 0.89254 0.0
H1974 H 0.40196 0.53465 0.90901 0.0
H1975 H 0.39879 0.56024 0.93859 0.0
H1976 H 0.35702 0.56809 0.86294 0.0
H1977 H 0.36206 0.46249 0.89603 0.0
H1978 H 0.3532 0.49376 0.90911 0.0
H1979 H 0.38955 0.48537 0.90414 0.0
C1980 C 0.33628 0.58095 0.91947 0.0
C1981 C 0.35793 0.57918 0.93298 0.0
C1982 C 0.33805 0.56589 0.90246 0.0
C1983 C 0.3614 0.54841 0.89847 0.0
C1984 C 0.38333 0.54725 0.91174 0.0
H1985 H 0.40567 0.48286 0.78592 0.0
H1986 H 0.40332 0.50954 0.81527 0.0
C1987 C 0.38158 0.56224 0.92871 0.0
C1988 C 0.36298 0.53155 0.88051 0.0
H1989 H 0.37298 0.46471 0.8634 0.0
C1990 C 0.36044 0.54547 0.86309 0.0
C1991 C 0.36693 0.50184 0.88043 0.0
C1992 C 0.36779 0.48492 0.89842 0.0
C1993 C 0.36231 0.53083 0.84584 0.0
C1994 C 0.36754 0.50129 0.84575 0.0
C1995 C 0.36946 0.48731 0.8632 0.0
C1996 C 0.37007 0.48432 0.82785 0.0
C1997 C 0.35785 0.54721 0.82788 0.0
C1998 C 0.35321 0.46023 0.8251 0.0
C1999 C 0.35487 0.44459 0.80838 0.0
C2000 C 0.37357 0.45235 0.79375 0.0
C2001 C 0.391 0.47605 0.79671 0.0
C2002 C 0.38939 0.49165 0.81351 0.0
H2003 H 0.34586 0.567 0.83039 0.0
H2004 H 0.37868 0.55309 0.82186 0.0
H2005 H 0.34627 0.53447 0.81738 0.0
H2006 H 0.3382 0.45377 0.83579 0.0
H2007 H 0.34093 0.42665 0.8068 0.0
H2008 H 0.65634 0.07657 0.66846 0.0
H2009 H 0.68206 0.08001 0.63858 0.0
H2010 H 0.74272 0.13551 0.66415 0.0
H2011 H 0.71676 0.13293 0.6937 0.0
H2012 H 0.73147 0.15482 0.6309 0.0
H2013 H 0.75263 0.0407 0.62297 0.0
H2014 H 0.71563 0.04848 0.62436 0.0
H2015 H 0.73801 0.05527 0.64421 0.0
C2016 C 0.67508 0.08962 0.66772 0.0
C2017 C 0.68427 0.10445 0.68368 0.0
C2018 C 0.69006 0.09134 0.65059 0.0
C2019 C 0.71493 0.10758 0.64895 0.0
C2020 C 0.72378 0.12272 0.66482 0.0
H2021 H 0.84142 0.09145 0.55878 0.0
H2022 H 0.81455 0.08948 0.58817 0.0
C2023 C 0.70876 0.12121 0.68184 0.0
C2024 C 0.73159 0.10941 0.63083 0.0
H2025 H 0.76447 0.06995 0.59691 0.0
C2026 C 0.73866 0.13618 0.62353 0.0
C2027 C 0.74167 0.08527 0.62115 0.0
C2028 C 0.73688 0.05582 0.62865 0.0
C2029 C 0.75505 0.13949 0.60704 0.0
C2030 C 0.7642 0.11538 0.59694 0.0
C2031 C 0.75737 0.08858 0.60433 0.0
C2032 C 0.78115 0.11743 0.57893 0.0
C2033 C 0.7631 0.16898 0.60101 0.0
C2034 C 0.7717 0.13373 0.56358 0.0
C2035 C 0.78736 0.13527 0.54675 0.0
C2036 C 0.81283 0.12018 0.54454 0.0
C2037 C 0.82217 0.1037 0.55987 0.0
C2038 C 0.80662 0.10238 0.57676 0.0
H2039 H 0.76261 0.18384 0.61302 0.0
H2040 H 0.78455 0.16952 0.59467 0.0
H2041 H 0.74772 0.1767 0.59045 0.0
H2042 H 0.75181 0.14491 0.56442 0.0
H2043 H 0.77901 0.14773 0.53526 0.0
H2044 H 0.19821 0.41708 0.42276 0.0
H2045 H 0.19519 0.44403 0.39332 0.0
H2046 H 0.11246 0.47363 0.40913 0.0
H2047 H 0.11555 0.4473 0.43861 0.0
H2048 H 0.16089 0.44314 0.36345 0.0
H2049 H 0.14955 0.54749 0.39687 0.0
H2050 H 0.15893 0.51626 0.41 0.0
H2051 H 0.12256 0.52337 0.40436 0.0
C2052 C 0.1793 0.42922 0.41997 0.0
C2053 C 0.15718 0.4299 0.43327 0.0
C2054 C 0.1776 0.44475 0.40306 0.0
C2055 C 0.15384 0.4616 0.39895 0.0
C2056 C 0.13143 0.46161 0.41199 0.0
H2057 H 0.11049 0.52658 0.28638 0.0
H2058 H 0.11377 0.49984 0.31575 0.0
C2059 C 0.13312 0.44619 0.42888 0.0
C2060 C 0.15233 0.47889 0.38107 0.0
H2061 H 0.14001 0.54565 0.36406 0.0
C2062 C 0.1564 0.46558 0.36365 0.0
C2063 C 0.14705 0.5084 0.38104 0.0
C2064 C 0.14458 0.5248 0.39907 0.0
C2065 C 0.15472 0.48057 0.34644 0.0
C2066 C 0.14804 0.50983 0.34638 0.0
C2067 C 0.14465 0.52325 0.36383 0.0
C2068 C 0.14502 0.52696 0.32849 0.0
C2069 C 0.16089 0.46488 0.32851 0.0
C2070 C 0.16035 0.55216 0.32582 0.0
C2071 C 0.1581 0.5679 0.30905 0.0
C2072 C 0.14035 0.55904 0.29433 0.0
C2073 C 0.12446 0.53421 0.29723 0.0
C2074 C 0.1266 0.51858 0.31406 0.0
H2075 H 0.17409 0.44589 0.33115 0.0
H2076 H 0.14072 0.45769 0.32227 0.0
H2077 H 0.17195 0.47855 0.31814 0.0
H2078 H 0.17462 0.55944 0.33662 0.0
H2079 H 0.17085 0.58673 0.30747 0.0
H2080 H 0.70773 0.64194 0.53643 0.0
H2081 H 0.73333 0.64549 0.56598 0.0
H2082 H 0.68814 0.57329 0.58755 0.0
H2083 H 0.66149 0.57036 0.5581 0.0
H2084 H 0.69396 0.60919 0.61472 0.0
H2085 H 0.79918 0.60027 0.58183 0.0
H2086 H 0.78039 0.63004 0.57261 0.0
H2087 H 0.76713 0.59488 0.56877 0.0
C2088 C 0.70305 0.62683 0.54746 0.0
C2089 C 0.68246 0.60577 0.5447 0.0
C2090 C 0.71806 0.6287 0.5644 0.0
C2091 C 0.71359 0.60915 0.57906 0.0
C2092 C 0.6924 0.58858 0.57656 0.0
H2093 H 0.83574 0.58792 0.67124 0.0
H2094 H 0.80815 0.58422 0.64242 0.0
C2095 C 0.67702 0.58694 0.55965 0.0
C2096 C 0.73076 0.61041 0.59693 0.0
H2097 H 0.79843 0.61567 0.61369 0.0
C2098 C 0.71682 0.61047 0.61442 0.0
C2099 C 0.76078 0.61143 0.59691 0.0
C2100 C 0.77774 0.60883 0.57904 0.0
C2101 C 0.73171 0.61215 0.63158 0.0
C2102 C 0.76163 0.61488 0.6315 0.0
C2103 C 0.77559 0.61415 0.61402 0.0
C2104 C 0.77888 0.61776 0.64926 0.0
C2105 C 0.71509 0.61011 0.64963 0.0
C2106 C 0.77246 0.63828 0.6629 0.0
C2107 C 0.7882 0.64029 0.67961 0.0
C2108 C 0.81131 0.62226 0.6831 0.0
C2109 C 0.81831 0.60239 0.66916 0.0
C2110 C 0.80237 0.60018 0.65256 0.0
H2111 H 0.69472 0.59893 0.64755 0.0
H2112 H 0.72716 0.59883 0.6607 0.0
H2113 H 0.71015 0.63167 0.65466 0.0
H2114 H 0.7552 0.65287 0.66066 0.0
H2115 H 0.78208 0.65595 0.68987 0.0
H2116 H 0.18853 0.90606 0.80881 0.0
H2117 H 0.1864 0.9318 0.83864 0.0
H2118 H 0.1169 0.98134 0.81758 0.0
H2119 H 0.11959 0.95653 0.78779 0.0
H2120 H 0.15128 0.01514 0.83372 0.0
H2121 H 0.13604 0.92594 0.8831 0.0
H2122 H 0.16768 0.92263 0.8694 0.0
H2123 H 0.13379 0.92164 0.85802 0.0
C2124 C 0.17248 0.9221 0.81066 0.0
C2125 C 0.15415 0.92894 0.79577 0.0
C2126 C 0.17119 0.93687 0.82784 0.0
C2127 C 0.15118 0.95855 0.83076 0.0
C2128 C 0.1326 0.9649 0.81596 0.0
H2129 H 0.1061 0.03298 0.94007 0.0
H2130 H 0.10824 0.00576 0.91092 0.0
C2131 C 0.1341 0.95047 0.79881 0.0
C2132 C 0.15005 0.97558 0.84869 0.0
H2133 H 0.14518 0.9707 0.8967 0.0
C2134 C 0.14987 0.00528 0.84746 0.0
C2135 C 0.14782 0.96316 0.86683 0.0
C2136 C 0.14604 0.93161 0.86947 0.0
C2137 C 0.14759 0.02261 0.86349 0.0
C2138 C 0.14631 0.01023 0.88168 0.0
C2139 C 0.14637 0.98052 0.88294 0.0
C2140 C 0.14461 0.02759 0.89946 0.0
C2141 C 0.14562 0.05411 0.86058 0.0
C2142 C 0.16428 0.04915 0.90315 0.0
C2143 C 0.16277 0.06514 0.91973 0.0
C2144 C 0.14185 0.05985 0.93346 0.0
C2145 C 0.12233 0.03807 0.92987 0.0
C2146 C 0.12367 0.02226 0.91315 0.0
H2147 H 0.13754 0.05942 0.84636 0.0
H2148 H 0.13155 0.06404 0.87114 0.0
H2149 H 0.16699 0.06349 0.86182 0.0
H2150 H 0.18128 0.05337 0.89334 0.0
H2151 H 0.17862 0.08121 0.92198 0.0
H2152 H 0.80948 0.37048 1.03636 0.0
H2153 H 0.78182 0.36762 1.06533 0.0
H2154 H 0.82408 0.44166 1.08612 0.0
H2155 H 0.85089 0.44532 1.05673 0.0
H2156 H 0.79262 0.35861 1.09983 0.0
H2157 H 0.74616 0.46546 1.09744 0.0
H2158 H 0.76587 0.45113 1.07803 0.0
H2159 H 0.78396 0.46678 1.09761 0.0
C2160 C 0.81295 0.38622 1.04707 0.0
C2161 C 0.83253 0.4082 1.04403 0.0
C2162 C 0.79699 0.38458 1.06375 0.0
C2163 C 0.8001 0.40473 1.07807 0.0
C2164 C 0.82026 0.42628 1.07525 0.0
H2165 H 0.74202 0.37221 0.1939 0.0
H2166 H 0.76838 0.37572 0.16451 0.0
C2167 C 0.83595 0.42819 1.05842 0.0
C2168 C 0.78278 0.4026 1.09597 0.0
H2169 H 0.74067 0.44013 0.12623 0.0
C2170 C 0.7812 0.37651 1.10548 0.0
C2171 C 0.76716 0.42559 1.10347 0.0
C2172 C 0.76558 0.45371 1.0935 0.0
C2173 C 0.76513 0.37286 0.12209 0.0
C2174 C 0.75069 0.39619 0.13013 0.0
C2175 C 0.75186 0.42219 0.12046 0.0
C2176 C 0.73425 0.39406 0.14839 0.0
C2177 C 0.7632 0.34363 0.13048 0.0
C2178 C 0.70626 0.40408 0.14979 0.0
C2179 C 0.69111 0.4025 0.16687 0.0
C2180 C 0.7034 0.39074 0.18314 0.0
C2181 C 0.73143 0.38085 0.18172 0.0
C2182 C 0.74664 0.38274 0.16473 0.0
H2183 H 0.76678 0.32715 0.11969 0.0
H2184 H 0.7798 0.3411 0.14132 0.0
H2185 H 0.74228 0.33986 0.13711 0.0
H2186 H 0.696 0.41314 0.1376 0.0
H2187 H 0.66976 0.41068 0.16732 0.0
H2188 H 0.33613 0.92919 0.42229 0.0
H2189 H 0.33291 0.95689 0.39337 0.0
H2190 H 0.40525 0.00575 0.4101 0.0
H2191 H 0.40783 0.97881 0.43949 0.0
H2192 H 0.36863 0.04012 0.39577 0.0
H2193 H 0.37596 0.95128 0.34612 0.0
H2194 H 0.34654 0.94724 0.36176 0.0
H2195 H 0.382 0.94669 0.37089 0.0
C2196 C 0.35168 0.94554 0.41976 0.0
C2197 C 0.37254 0.9513 0.43331 0.0
C2198 C 0.34987 0.96143 0.40304 0.0
C2199 C 0.36921 0.98328 0.39903 0.0
C2200 C 0.39006 0.98905 0.41257 0.0
H2201 H 0.39355 0.05406 0.2865 0.0
H2202 H 0.39625 0.02897 0.31638 0.0
C2203 C 0.39165 0.97341 0.42943 0.0
C2204 C 0.36731 1.00054 0.3811 0.0
H2205 H 0.36216 0.99551 0.33321 0.0
C2206 C 0.36736 0.03025 0.38211 0.0
C2207 C 0.36596 0.98811 0.36302 0.0
C2208 C 0.36791 0.9566 0.36033 0.0
C2209 C 0.36599 0.04757 0.36587 0.0
C2210 C 0.36362 0.03511 0.34785 0.0
C2211 C 0.36367 0.00541 0.34686 0.0
C2212 C 0.36242 0.05212 0.3298 0.0
C2213 C 0.36806 0.07911 0.36825 0.0
C2214 C 0.34264 0.07405 0.32697 0.0
C2215 C 0.34139 0.08899 0.30977 0.0
C2216 C 0.35949 0.08206 0.29475 0.0
C2217 C 0.37924 0.06019 0.29765 0.0
C2218 C 0.38073 0.0456 0.31483 0.0
H2219 H 0.37833 0.0847 0.38173 0.0
H2220 H 0.38022 0.08899 0.35661 0.0
H2221 H 0.3465 0.08827 0.36838 0.0
H2222 H 0.32761 0.07923 0.33789 0.0
H2223 H 0.32557 0.10529 0.30804 0.0
H2224 H 0.30558 0.36677 0.69116 0.0
H2225 H 0.28002 0.36326 0.66151 0.0
H2226 H 0.32326 0.43714 0.64077 0.0
H2227 H 0.34933 0.44049 0.67031 0.0
H2228 H 0.24318 0.39787 0.64499 0.0
H2229 H 0.33424 0.3855 0.59684 0.0
H2230 H 0.33776 0.38281 0.62199 0.0
H2231 H 0.33627 0.41687 0.61075 0.0
C2232 C 0.31004 0.38213 0.68025 0.0
C2233 C 0.32994 0.40378 0.68326 0.0
C2234 C 0.29519 0.38015 0.66322 0.0
C2235 C 0.29978 0.39963 0.64854 0.0
C2236 C 0.31963 0.42131 0.65151 0.0
H2237 H 0.18199 0.42927 0.55512 0.0
H2238 H 0.20853 0.43065 0.5844 0.0
C2239 C 0.33454 0.42329 0.66856 0.0
C2240 C 0.28314 0.39767 0.63051 0.0
H2241 H 0.28955 0.39359 0.58259 0.0
C2242 C 0.25343 0.39686 0.63138 0.0
C2243 C 0.29616 0.39594 0.61257 0.0
C2244 C 0.32785 0.39504 0.61042 0.0
C2245 C 0.23661 0.39482 0.61506 0.0
C2246 C 0.2496 0.39404 0.59707 0.0
C2247 C 0.27932 0.3944 0.59622 0.0
C2248 C 0.23282 0.39283 0.57905 0.0
C2249 C 0.20499 0.39288 0.61738 0.0
C2250 C 0.23767 0.37147 0.56572 0.0
C2251 C 0.22244 0.37067 0.54873 0.0
C2252 C 0.20197 0.39134 0.54444 0.0
C2253 C 0.1972 0.41269 0.55783 0.0
C2254 C 0.2124 0.41347 0.57477 0.0
H2255 H 0.19907 0.385 0.63157 0.0
H2256 H 0.19565 0.4142 0.61564 0.0
H2257 H 0.19556 0.3787 0.60675 0.0
H2258 H 0.25332 0.35532 0.56845 0.0
H2259 H 0.22709 0.35405 0.53882 0.0
H2260 H 0.81982 0.09652 0.42163 0.0
H2261 H 0.82247 0.0701 0.39214 0.0
H2262 H 0.90109 0.03289 0.40986 0.0
H2263 H 0.89827 0.0586 0.4394 0.0
H2264 H 0.85813 0.06831 0.36311 0.0
H2265 H 0.85886 0.96286 0.39646 0.0
H2266 H 0.8515 0.99453 0.40951 0.0
H2267 H 0.88742 0.98435 0.4046 0.0
C2268 C 0.83777 0.08281 0.41925 0.0
C2269 C 0.85875 0.07978 0.43313 0.0
C2270 C 0.83925 0.06759 0.4023 0.0
C2271 C 0.86166 0.04876 0.39871 0.0
C2272 C 0.88307 0.04647 0.4123 0.0
H2273 H 0.90592 0.9822 0.28681 0.0
H2274 H 0.90301 0.00901 0.31603 0.0
C2275 C 0.88156 0.06154 0.42924 0.0
C2276 C 0.86281 0.03171 0.38082 0.0
H2277 H 0.87085 0.96448 0.36393 0.0
C2278 C 0.86082 0.04559 0.36335 0.0
C2279 C 0.86571 1.00187 0.38083 0.0
C2280 C 0.86568 0.98498 0.39884 0.0
C2281 C 0.86229 0.03079 0.34616 0.0
C2282 C 0.8667 1.00111 0.34616 0.0
C2283 C 0.86799 0.98718 0.36365 0.0
C2284 C 0.86935 0.98403 0.32832 0.0
C2285 C 0.85831 0.04721 0.32816 0.0
C2286 C 0.85245 0.95997 0.32547 0.0
C2287 C 0.85448 0.94417 0.30881 0.0
C2288 C 0.87355 0.95182 0.29439 0.0
C2289 C 0.89091 0.97553 0.29744 0.0
C2290 C 0.88901 0.99121 0.31417 0.0
H2291 H 0.84641 0.06708 0.33058 0.0
H2292 H 0.8793 0.053 0.32234 0.0
H2293 H 0.84685 0.03459 0.31754 0.0
H2294 H 0.83718 0.95363 0.33603 0.0
H2295 H 0.84056 0.92625 0.30711 0.0
H2296 H 0.15618 0.57522 0.1691 0.0
H2297 H 0.18239 0.5765 0.1392 0.0
H2298 H 0.23735 0.64051 0.16142 0.0
H2299 H 0.212 0.63879 0.19119 0.0
H2300 H 0.19337 0.61493 1.11253 0.0
H2301 H 0.29558 0.58575 0.14421 0.0
H2302 H 0.2629 0.58403 0.1572 0.0
H2303 H 0.28145 0.61704 0.15467 0.0
C2304 C 0.17374 0.5897 0.16758 0.0
C2305 C 0.18194 0.60671 0.18279 0.0
C2306 C 0.18886 0.59037 0.15042 0.0
C2307 C 0.21261 0.60806 0.14798 0.0
C2308 C 0.21991 0.6259 0.16291 0.0
H2309 H 0.29077 0.6554 1.03932 0.0
H2310 H 0.26305 0.65368 1.06844 0.0
C2311 C 0.20507 0.62507 0.18001 0.0
C2312 C 0.22974 0.60809 0.12999 0.0
H2313 H 0.2975 0.60387 1.11289 0.0
C2314 C 0.21613 0.61237 1.11266 0.0
C2315 C 0.25952 0.60422 0.1298 0.0
C2316 C 0.27568 0.59719 0.14744 0.0
C2317 C 0.23129 0.61363 1.09549 0.0
C2318 C 0.26122 0.61128 1.09543 0.0
C2319 C 0.27472 0.60626 1.11271 0.0
C2320 C 0.27886 0.61304 1.07766 0.0
C2321 C 0.21484 0.61673 1.07751 0.0
C2322 C 0.29818 0.59149 1.07316 0.0
C2323 C 0.31443 0.59264 1.05657 0.0
C2324 C 0.31213 0.61549 1.04387 0.0
C2325 C 0.29329 0.63742 1.04861 0.0
C2326 C 0.27705 0.63628 1.06526 0.0
H2327 H 0.19263 0.60961 1.07927 0.0
H2328 H 0.21442 0.63929 1.0733 0.0
H2329 H 0.22467 0.60443 1.06598 0.0
H2330 H 0.30037 0.57336 1.08235 0.0
H2331 H 0.32852 0.57522 1.05358 0.0
H2332 H 0.61842 0.94941 0.94105 0.0
H2333 H 0.61371 0.97497 0.91135 0.0
H2334 H 0.69102 0.93738 0.89146 0.0
H2335 H 0.69547 0.91114 0.921 0.0
H2336 H 0.64431 0.01419 0.89524 0.0
H2337 H 0.64305 0.92369 0.84659 0.0
H2338 H 0.64017 0.91923 0.87167 0.0
H2339 H 0.6742 0.92435 0.86082 0.0
C2340 C 0.6343 0.94618 0.9303 0.0
C2341 C 0.6572 0.92776 0.93356 0.0
C2342 C 0.63162 0.96103 0.91323 0.0
C2343 C 0.65169 0.95802 0.89874 0.0
C2344 C 0.67468 0.93971 0.90199 0.0
H2345 H 0.67171 0.08215 0.80698 0.0
H2346 H 0.67464 0.05506 0.83608 0.0
C2347 C 0.6773 0.92471 0.91905 0.0
C2348 C 0.64893 0.97479 0.88067 0.0
H2349 H 0.64794 0.96921 0.83264 0.0
C2350 C 0.64501 1.00422 0.88158 0.0
C2351 C 0.64938 0.96214 0.86263 0.0
C2352 C 0.65163 0.9306 0.86032 0.0
C2353 C 0.64191 0.02113 0.86528 0.0
C2354 C 0.64343 0.00864 0.84721 0.0
C2355 C 0.64698 0.97914 0.8463 0.0
C2356 C 0.64133 0.02565 0.82918 0.0
C2357 C 0.63625 0.05222 0.86776 0.0
C2358 C 0.62221 0.01811 0.81492 0.0
C2359 C 0.62069 0.03355 0.79794 0.0
C2360 C 0.63825 0.05711 0.79463 0.0
C2361 C 0.65735 0.06461 0.80895 0.0
C2362 C 0.659 0.04905 0.82581 0.0
H2363 H 0.62655 0.05665 0.88165 0.0
H2364 H 0.65653 0.0639 0.86701 0.0
H2365 H 0.62202 0.06049 0.85666 0.0
H2366 H 0.60837 1.00014 0.81689 0.0
H2367 H 0.60596 0.02673 0.7873 0.0
loop_
_geom_bond_atom_site_label_1
_geom_bond_atom_site_label_2
_geom_bond_distance
_geom_bond_site_symmetry_2
_ccdc_geom_bond_type
Dy0 O3 2.307 . S
Dy0 O5 2.395 . S
Dy0 O6 2.379 . S
Dy0 O8 2.339 . S
Dy0 O10 2.298 . S
Dy0 O14 2.275 . S
Dy0 C22 2.738 . S
Dy1 O4 2.298 . S
Dy1 O7 2.275 . S
Dy1 O9 2.307 . S
Dy1 O11 2.395 . S
Dy1 O12 2.379 . S
Dy1 O15 2.339 . S
Dy1 C31 2.738 . S
C2 O14 1.254 . S
C2 O15 1.257 . S
O3 Dy0 2.307 . S
O3 C13 1.266 . S
O4 Dy1 2.298 . S
O4 C13 1.236 . S
O5 Dy0 2.395 . S
O5 C22 1.255 . S
O6 Dy0 2.379 . S
O6 C22 1.249 . S
O7 Dy1 2.275 . S
O7 C23 1.254 . S
O8 Dy0 2.339 . S
O8 C23 1.257 . S
O9 Dy1 2.307 . S
O9 C24 1.266 . S
O10 Dy0 2.298 . S
O10 C24 1.236 . S
O11 Dy1 2.395 . S
O11 C31 1.255 . S
O12 Dy1 2.379 . S
O12 C31 1.249 . S
C13 O3 1.266 . S
C13 O4 1.236 . S
O14 Dy0 2.275 . S
O14 C2 1.254 . S
O15 Dy1 2.339 . S
O15 C2 1.257 . S
C16 C19 1.344 . S
C16 C20 1.328 . S
C16 C22 1.516 . S
C17 C18 1.304 . S
C17 C21 1.323 . S
C18 C17 1.304 . S
C18 C19 1.371 . S
C18 H32 0.930 . S
C19 C16 1.344 . S
C19 C18 1.371 . S
C19 H33 0.931 . S
C20 C16 1.328 . S
C20 C21 1.433 . S
C20 H34 0.931 . S
C21 C17 1.323 . S
C21 C20 1.433 . S
C21 H35 0.933 1_545 S
C22 Dy0 2.738 . S
C22 O5 1.255 . S
C22 O6 1.249 . S
C22 C16 1.516 . S
C23 O7 1.254 . S
C23 O8 1.257 . S
C24 O9 1.266 . S
C24 O10 1.236 . S
C25 C28 1.344 . S
C25 C29 1.328 . S
C25 C31 1.516 . S
C26 C27 1.304 . S
C26 C30 1.323 . S
C27 C26 1.304 . S
C27 C28 1.371 . S
C27 H36 0.930 . S
C28 C25 1.344 . S
C28 C27 1.371 . S
C28 H37 0.931 . S
C29 C25 1.328 . S
C29 C30 1.433 . S
C29 H38 0.931 . S
C30 C26 1.323 . S
C30 C29 1.433 . S
C30 H39 0.933 . S
C31 Dy1 2.738 . S
C31 O11 1.255 . S
C31 O12 1.249 . S
C31 C25 1.516 . S
H32 C18 0.930 . S
H33 C19 0.931 . S
H34 C20 0.931 . S
H35 C21 0.933 1_565 S
H36 C27 0.930 . S
H37 C28 0.931 . S
H38 C29 0.931 . S
H39 C30 0.933 . S
Dy40 O43 2.307 . S
Dy40 O45 2.395 . S
Dy40 O46 2.379 . S
Dy40 O48 2.339 . S
Dy40 O50 2.298 . S
Dy40 O54 2.275 . S
Dy40 C62 2.738 . S
Dy41 O44 2.298 . S
Dy41 O47 2.275 . S
Dy41 O49 2.307 . S
Dy41 O51 2.395 . S
Dy41 O52 2.379 . S
Dy41 O55 2.339 . S
Dy41 C71 2.738 . S
C42 O54 1.254 . S
C42 O55 1.257 . S
O43 Dy40 2.307 . S
O43 C53 1.266 . S
O44 Dy41 2.298 . S
O44 C53 1.236 . S
O45 Dy40 2.395 . S
O45 C62 1.255 . S
O46 Dy40 2.379 . S
O46 C62 1.249 . S
O47 Dy41 2.275 . S
O47 C63 1.254 . S
O48 Dy40 2.339 . S
O48 C63 1.257 . S
O49 Dy41 2.307 . S
O49 C64 1.266 . S
O50 Dy40 2.298 . S
O50 C64 1.236 . S
O51 Dy41 2.395 . S
O51 C71 1.255 . S
O52 Dy41 2.379 . S
O52 C71 1.249 . S
C53 O43 1.266 . S
C53 O44 1.236 . S
O54 Dy40 2.275 . S
O54 C42 1.254 . S
O55 Dy41 2.339 . S
O55 C42 1.257 . S
C56 C59 1.344 . S
C56 C60 1.328 . S
C56 C62 1.516 . S
C57 C58 1.304 . S
C57 C61 1.323 . S
C58 C57 1.304 . S
C58 C59 1.371 . S
C58 H72 0.930 . S
C59 C56 1.344 . S
C59 C58 1.371 . S
C59 H73 0.931 . S
C60 C56 1.328 . S
C60 C61 1.433 . S
C60 H74 0.931 . S
C61 C57 1.323 . S
C61 C60 1.433 . S
C61 H75 0.933 . S
C62 Dy40 2.738 . S
C62 O45 1.255 . S
C62 O46 1.249 . S
C62 C56 1.516 . S
C63 O47 1.254 . S
C63 O48 1.257 . S
C64 O49 1.266 . S
C64 O50 1.236 . S
C65 C68 1.344 . S
C65 C69 1.328 . S
C65 C71 1.516 . S
C66 C67 1.304 . S
C66 C70 1.323 . S
C67 C66 1.304 . S
C67 C68 1.371 . S
C67 H76 0.930 . S
C68 C65 1.344 . S
C68 C67 1.371 . S
C68 H77 0.931 . S
C69 C65 1.328 . S
C69 C70 1.433 . S
C69 H78 0.931 . S
C70 C66 1.323 . S
C70 C69 1.433 . S
C70 H79 0.933 . S
C71 Dy41 2.738 . S
C71 O51 1.255 . S
C71 O52 1.249 . S
C71 C65 1.516 . S
H72 C58 0.930 . S
H73 C59 0.931 . S
H74 C60 0.931 . S
H75 C61 0.933 . S
H76 C67 0.930 . S
H77 C68 0.931 . S
H78 C69 0.931 . S
H79 C70 0.933 . S
Dy80 O83 2.307 . S
Dy80 O85 2.395 . S
Dy80 O86 2.379 . S
Dy80 O88 2.339 . S
Dy80 O90 2.298 . S
Dy80 O94 2.275 . S
Dy80 C102 2.738 . S
Dy81 O84 2.298 . S
Dy81 O87 2.275 . S
Dy81 O89 2.307 . S
Dy81 O91 2.395 . S
Dy81 O92 2.379 . S
Dy81 O95 2.339 . S
Dy81 C111 2.738 . S
C82 O94 1.254 . S
C82 O95 1.257 . S
O83 Dy80 2.307 . S
O83 C93 1.266 . S
O84 Dy81 2.298 . S
O84 C93 1.236 . S
O85 Dy80 2.395 . S
O85 C102 1.255 . S
O86 Dy80 2.379 . S
O86 C102 1.249 . S
O87 Dy81 2.275 . S
O87 C103 1.254 . S
O88 Dy80 2.339 . S
O88 C103 1.257 . S
O89 Dy81 2.307 . S
O89 C104 1.266 . S
O90 Dy80 2.298 . S
O90 C104 1.236 . S
O91 Dy81 2.395 . S
O91 C111 1.255 . S
O92 Dy81 2.379 . S
O92 C111 1.249 . S
C93 O83 1.266 . S
C93 O84 1.236 . S
O94 Dy80 2.275 . S
O94 C82 1.254 . S
O95 Dy81 2.339 . S
O95 C82 1.257 . S
C96 C99 1.344 . S
C96 C100 1.328 . S
C96 C102 1.516 . S
C97 C98 1.304 . S
C97 C101 1.323 . S
C98 C97 1.304 . S
C98 C99 1.371 . S
C98 H112 0.930 . S
C99 C96 1.344 . S
C99 C98 1.371 . S
C99 H113 0.931 . S
C100 C96 1.328 . S
C100 C101 1.433 . S
C100 H114 0.931 . S
C101 C97 1.323 . S
C101 C100 1.433 . S
C101 H115 0.933 1_565 S
C102 Dy80 2.738 . S
C102 O85 1.255 . S
C102 O86 1.249 . S
C102 C96 1.516 . S
C103 O87 1.254 . S
C103 O88 1.257 . S
C104 O89 1.266 . S
C104 O90 1.236 . S
C105 C108 1.344 . S
C105 C109 1.328 . S
C105 C111 1.516 . S
C106 C107 1.304 . S
C106 C110 1.323 . S
C107 C106 1.304 . S
C107 C108 1.371 . S
C107 H116 0.930 . S
C108 C105 1.344 . S
C108 C107 1.371 . S
C108 H117 0.931 . S
C109 C105 1.328 . S
C109 C110 1.433 . S
C109 H118 0.931 . S
C110 C106 1.323 . S
C110 C109 1.433 . S
C110 H119 0.933 . S
C111 Dy81 2.738 . S
C111 O91 1.255 . S
C111 O92 1.249 . S
C111 C105 1.516 . S
H112 C98 0.930 . S
H113 C99 0.931 . S
H114 C100 0.931 . S
H115 C101 0.933 1_545 S
H116 C107 0.930 . S
H117 C108 0.931 . S
H118 C109 0.931 . S
H119 C110 0.933 . S
Dy120 O123 2.307 . S
Dy120 O125 2.395 . S
Dy120 O126 2.379 . S
Dy120 O128 2.339 . S
Dy120 O130 2.298 . S
Dy120 O134 2.275 . S
Dy120 C142 2.738 . S
Dy121 O124 2.298 . S
Dy121 O127 2.275 . S
Dy121 O129 2.307 . S
Dy121 O131 2.395 . S
Dy121 O132 2.379 . S
Dy121 O135 2.339 . S
Dy121 C151 2.738 . S
C122 O134 1.254 . S
C122 O135 1.257 . S
O123 Dy120 2.307 . S
O123 C133 1.266 . S
O124 Dy121 2.298 . S
O124 C133 1.236 . S
O125 Dy120 2.395 . S
O125 C142 1.255 . S
O126 Dy120 2.379 . S
O126 C142 1.249 . S
O127 Dy121 2.275 . S
O127 C143 1.254 . S
O128 Dy120 2.339 . S
O128 C143 1.257 . S
O129 Dy121 2.307 . S
O129 C144 1.266 . S
O130 Dy120 2.298 . S
O130 C144 1.236 . S
O131 Dy121 2.395 . S
O131 C151 1.255 . S
O132 Dy121 2.379 . S
O132 C151 1.249 . S
C133 O123 1.266 . S
C133 O124 1.236 . S
O134 Dy120 2.275 . S
O134 C122 1.254 . S
O135 Dy121 2.339 . S
O135 C122 1.257 . S
C136 C139 1.344 . S
C136 C140 1.328 . S
C136 C142 1.516 . S
C137 C138 1.304 . S
C137 C141 1.323 . S
C138 C137 1.304 . S
C138 C139 1.371 . S
C138 H152 0.930 . S
C139 C136 1.344 . S
C139 C138 1.371 . S
C139 H153 0.931 . S
C140 C136 1.328 . S
C140 C141 1.433 . S
C140 H154 0.931 . S
C141 C137 1.323 . S
C141 C140 1.433 . S
C141 H155 0.933 . S
C142 Dy120 2.738 . S
C142 O125 1.255 . S
C142 O126 1.249 . S
C142 C136 1.516 . S
C143 O127 1.254 . S
C143 O128 1.257 . S
C144 O129 1.266 . S
C144 O130 1.236 . S
C145 C148 1.344 . S
C145 C149 1.328 1_655 S
C145 C151 1.516 . S
C146 C147 1.304 1_455 S
C146 C150 1.323 . S
C147 C146 1.304 1_655 S
C147 C148 1.371 . S
C147 H156 0.930 . S
C148 C145 1.344 . S
C148 C147 1.371 . S
C148 H157 0.931 . S
C149 C145 1.328 1_455 S
C149 C150 1.433 . S
C149 H158 0.931 . S
C150 C146 1.323 . S
C150 C149 1.433 . S
C150 H159 0.933 . S
C151 Dy121 2.738 . S
C151 O131 1.255 . S
C151 O132 1.249 . S
C151 C145 1.516 . S
H152 C138 0.930 . S
H153 C139 0.931 . S
H154 C140 0.931 . S
H155 C141 0.933 . S
H156 C147 0.930 . S
H157 C148 0.931 . S
H158 C149 0.931 . S
H159 C150 0.933 . S
Dy160 O163 2.307 . S
Dy160 O165 2.395 . S
Dy160 O166 2.379 . S
Dy160 O168 2.339 . S
Dy160 O170 2.298 . S
Dy160 O174 2.275 . S
Dy160 C182 2.738 . S
Dy161 O164 2.298 . S
Dy161 O167 2.275 . S
Dy161 O169 2.307 . S
Dy161 O171 2.395 . S
Dy161 O172 2.379 . S
Dy161 O175 2.339 . S
Dy161 C191 2.738 . S
C162 O174 1.254 . S
C162 O175 1.257 . S
O163 Dy160 2.307 . S
O163 C173 1.266 . S
O164 Dy161 2.298 . S
O164 C173 1.236 . S
O165 Dy160 2.395 . S
O165 C182 1.255 . S
O166 Dy160 2.379 . S
O166 C182 1.249 . S
O167 Dy161 2.275 . S
O167 C183 1.254 . S
O168 Dy160 2.339 . S
O168 C183 1.257 . S
O169 Dy161 2.307 . S
O169 C184 1.266 . S
O170 Dy160 2.298 . S
O170 C184 1.236 . S
O171 Dy161 2.395 . S
O171 C191 1.255 . S
O172 Dy161 2.379 . S
O172 C191 1.249 . S
C173 O163 1.266 . S
C173 O164 1.236 . S
O174 Dy160 2.275 . S
O174 C162 1.254 . S
O175 Dy161 2.339 . S
O175 C162 1.257 . S
C176 C179 1.344 . S
C176 C180 1.328 . S
C176 C182 1.516 . S
C177 C178 1.304 . S
C177 C181 1.323 . S
C178 C177 1.304 . S
C178 C179 1.371 . S
C178 H192 0.930 . S
C179 C176 1.344 . S
C179 C178 1.371 . S
C179 H193 0.931 . S
C180 C176 1.328 . S
C180 C181 1.433 . S
C180 H194 0.931 . S
C181 C177 1.323 . S
C181 C180 1.433 . S
C181 H195 0.933 . S
C182 Dy160 2.738 . S
C182 O165 1.255 . S
C182 O166 1.249 . S
C182 C176 1.516 . S
C183 O167 1.254 . S
C183 O168 1.257 . S
C184 O169 1.266 . S
C184 O170 1.236 . S
C185 C188 1.344 . S
C185 C189 1.328 . S
C185 C191 1.516 . S
C186 C187 1.304 . S
C186 C190 1.323 . S
C187 C186 1.304 . S
C187 C188 1.371 . S
C187 H196 0.930 . S
C188 C185 1.344 . S
C188 C187 1.371 . S
C188 H197 0.931 . S
C189 C185 1.328 . S
C189 C190 1.433 . S
C189 H198 0.931 . S
C190 C186 1.323 . S
C190 C189 1.433 . S
C190 H199 0.933 1_565 S
C191 Dy161 2.738 . S
C191 O171 1.255 . S
C191 O172 1.249 . S
C191 C185 1.516 . S
H192 C178 0.930 . S
H193 C179 0.931 . S
H194 C180 0.931 . S
H195 C181 0.933 . S
H196 C187 0.930 . S
H197 C188 0.931 . S
H198 C189 0.931 . S
H199 C190 0.933 1_545 S
Dy200 O203 2.307 . S
Dy200 O205 2.395 . S
Dy200 O206 2.379 . S
Dy200 O208 2.339 . S
Dy200 O210 2.298 . S
Dy200 O214 2.275 . S
Dy200 C222 2.738 . S
Dy201 O204 2.298 . S
Dy201 O207 2.275 . S
Dy201 O209 2.307 . S
Dy201 O211 2.395 . S
Dy201 O212 2.379 . S
Dy201 O215 2.339 . S
Dy201 C231 2.738 . S
C202 O214 1.254 . S
C202 O215 1.257 . S
O203 Dy200 2.307 . S
O203 C213 1.266 . S
O204 Dy201 2.298 . S
O204 C213 1.236 . S
O205 Dy200 2.395 . S
O205 C222 1.255 . S
O206 Dy200 2.379 . S
O206 C222 1.249 . S
O207 Dy201 2.275 . S
O207 C223 1.254 . S
O208 Dy200 2.339 . S
O208 C223 1.257 . S
O209 Dy201 2.307 . S
O209 C224 1.266 . S
O210 Dy200 2.298 . S
O210 C224 1.236 . S
O211 Dy201 2.395 . S
O211 C231 1.255 . S
O212 Dy201 2.379 . S
O212 C231 1.249 . S
C213 O203 1.266 . S
C213 O204 1.236 . S
O214 Dy200 2.275 . S
O214 C202 1.254 . S
O215 Dy201 2.339 . S
O215 C202 1.257 . S
C216 C219 1.344 . S
C216 C220 1.328 . S
C216 C222 1.516 . S
C217 C218 1.304 . S
C217 C221 1.323 . S
C218 C217 1.304 . S
C218 C219 1.371 . S
C218 H232 0.930 . S
C219 C216 1.344 . S
C219 C218 1.371 . S
C219 H233 0.931 . S
C220 C216 1.328 . S
C220 C221 1.433 . S
C220 H234 0.931 . S
C221 C217 1.323 . S
C221 C220 1.433 . S
C221 H235 0.933 . S
C222 Dy200 2.738 . S
C222 O205 1.255 . S
C222 O206 1.249 . S
C222 C216 1.516 . S
C223 O207 1.254 . S
C223 O208 1.257 . S
C224 O209 1.266 . S
C224 O210 1.236 . S
C225 C228 1.344 . S
C225 C229 1.328 . S
C225 C231 1.516 . S
C226 C227 1.304 . S
C226 C230 1.323 . S
C227 C226 1.304 . S
C227 C228 1.371 . S
C227 H236 0.930 . S
C228 C225 1.344 . S
C228 C227 1.371 . S
C228 H237 0.931 . S
C229 C225 1.328 . S
C229 C230 1.433 . S
C229 H238 0.931 . S
C230 C226 1.323 . S
C230 C229 1.433 . S
C230 H239 0.933 . S
C231 Dy201 2.738 . S
C231 O211 1.255 . S
C231 O212 1.249 . S
C231 C225 1.516 . S
H232 C218 0.930 . S
H233 C219 0.931 . S
H234 C220 0.931 . S
H235 C221 0.933 . S
H236 C227 0.930 . S
H237 C228 0.931 . S
H238 C229 0.931 . S
H239 C230 0.933 . S
Dy240 O243 2.307 . S
Dy240 O245 2.395 . S
Dy240 O246 2.379 . S
Dy240 O248 2.339 . S
Dy240 O250 2.298 . S
Dy240 O254 2.275 . S
Dy240 C262 2.738 . S
Dy241 O244 2.298 . S
Dy241 O247 2.275 . S
Dy241 O249 2.307 . S
Dy241 O251 2.395 . S
Dy241 O252 2.379 . S
Dy241 O255 2.339 . S
Dy241 C271 2.738 . S
C242 O254 1.254 . S
C242 O255 1.257 . S
O243 Dy240 2.307 . S
O243 C253 1.266 . S
O244 Dy241 2.298 . S
O244 C253 1.236 . S
O245 Dy240 2.395 . S
O245 C262 1.255 . S
O246 Dy240 2.379 . S
O246 C262 1.249 . S
O247 Dy241 2.275 . S
O247 C263 1.254 . S
O248 Dy240 2.339 . S
O248 C263 1.257 . S
O249 Dy241 2.307 . S
O249 C264 1.266 . S
O250 Dy240 2.298 . S
O250 C264 1.236 . S
O251 Dy241 2.395 . S
O251 C271 1.255 . S
O252 Dy241 2.379 . S
O252 C271 1.249 . S
C253 O243 1.266 . S
C253 O244 1.236 . S
O254 Dy240 2.275 . S
O254 C242 1.254 . S
O255 Dy241 2.339 . S
O255 C242 1.257 . S
C256 C259 1.344 . S
C256 C260 1.328 . S
C256 C262 1.516 . S
C257 C258 1.304 . S
C257 C261 1.323 . S
C258 C257 1.304 . S
C258 C259 1.371 . S
C258 H272 0.930 . S
C259 C256 1.344 . S
C259 C258 1.371 . S
C259 H273 0.931 . S
C260 C256 1.328 . S
C260 C261 1.433 . S
C260 H274 0.931 . S
C261 C257 1.323 . S
C261 C260 1.433 . S
C261 H275 0.933 . S
C262 Dy240 2.738 . S
C262 O245 1.255 . S
C262 O246 1.249 . S
C262 C256 1.516 . S
C263 O247 1.254 . S
C263 O248 1.257 . S
C264 O249 1.266 . S
C264 O250 1.236 . S
C265 C268 1.344 . S
C265 C269 1.328 . S
C265 C271 1.516 . S
C266 C267 1.304 . S
C266 C270 1.323 . S
C267 C266 1.304 . S
C267 C268 1.371 . S
C267 H276 0.930 . S
C268 C265 1.344 . S
C268 C267 1.371 . S
C268 H277 0.931 . S
C269 C265 1.328 . S
C269 C270 1.433 . S
C269 H278 0.931 . S
C270 C266 1.323 . S
C270 C269 1.433 . S
C270 H279 0.933 1_545 S
C271 Dy241 2.738 . S
C271 O251 1.255 . S
C271 O252 1.249 . S
C271 C265 1.516 . S
H272 C258 0.930 . S
H273 C259 0.931 . S
H274 C260 0.931 . S
H275 C261 0.933 . S
H276 C267 0.930 . S
H277 C268 0.931 . S
H278 C269 0.931 . S
H279 C270 0.933 1_565 S
Dy280 O283 2.307 . S
Dy280 O285 2.395 . S
Dy280 O286 2.379 . S
Dy280 O288 2.339 . S
Dy280 O290 2.298 . S
Dy280 O294 2.275 . S
Dy280 C302 2.738 . S
Dy281 O284 2.298 . S
Dy281 O287 2.275 . S
Dy281 O289 2.307 . S
Dy281 O291 2.395 . S
Dy281 O292 2.379 . S
Dy281 O295 2.339 . S
Dy281 C311 2.738 . S
C282 O294 1.254 . S
C282 O295 1.257 . S
O283 Dy280 2.307 . S
O283 C293 1.266 . S
O284 Dy281 2.298 . S
O284 C293 1.236 . S
O285 Dy280 2.395 . S
O285 C302 1.255 . S
O286 Dy280 2.379 . S
O286 C302 1.249 . S
O287 Dy281 2.275 . S
O287 C303 1.254 . S
O288 Dy280 2.339 . S
O288 C303 1.257 . S
O289 Dy281 2.307 . S
O289 C304 1.266 . S
O290 Dy280 2.298 . S
O290 C304 1.236 . S
O291 Dy281 2.395 . S
O291 C311 1.255 . S
O292 Dy281 2.379 . S
O292 C311 1.249 . S
C293 O283 1.266 . S
C293 O284 1.236 . S
O294 Dy280 2.275 . S
O294 C282 1.254 . S
O295 Dy281 2.339 . S
O295 C282 1.257 . S
C296 C299 1.344 . S
C296 C300 1.328 1_455 S
C296 C302 1.516 . S
C297 C298 1.304 1_655 S
C297 C301 1.323 . S
C298 C297 1.304 1_455 S
C298 C299 1.371 . S
C298 H312 0.930 . S
C299 C296 1.344 . S
C299 C298 1.371 . S
C299 H313 0.931 . S
C300 C296 1.328 1_655 S
C300 C301 1.433 . S
C300 H314 0.931 . S
C301 C297 1.323 . S
C301 C300 1.433 . S
C301 H315 0.933 . S
C302 Dy280 2.738 . S
C302 O285 1.255 . S
C302 O286 1.249 . S
C302 C296 1.516 . S
C303 O287 1.254 . S
C303 O288 1.257 . S
C304 O289 1.266 . S
C304 O290 1.236 . S
C305 C308 1.344 . S
C305 C309 1.328 . S
C305 C311 1.516 . S
C306 C307 1.304 . S
C306 C310 1.323 . S
C307 C306 1.304 . S
C307 C308 1.371 . S
C307 H316 0.930 . S
C308 C305 1.344 . S
C308 C307 1.371 . S
C308 H317 0.931 . S
C309 C305 1.328 . S
C309 C310 1.433 . S
C309 H318 0.931 . S
C310 C306 1.323 . S
C310 C309 1.433 . S
C310 H319 0.933 . S
C311 Dy281 2.738 . S
C311 O291 1.255 . S
C311 O292 1.249 . S
C311 C305 1.516 . S
H312 C298 0.930 . S
H313 C299 0.931 . S
H314 C300 0.931 . S
H315 C301 0.933 . S
H316 C307 0.930 . S
H317 C308 0.931 . S
H318 C309 0.931 . S
H319 C310 0.933 . S
Dy320 O323 2.307 . S
Dy320 O325 2.395 . S
Dy320 O326 2.379 . S
Dy320 O328 2.339 . S
Dy320 O330 2.298 . S
Dy320 O334 2.275 . S
Dy320 C342 2.738 . S
Dy321 O324 2.298 . S
Dy321 O327 2.275 . S
Dy321 O329 2.307 . S
Dy321 O331 2.395 . S
Dy321 O332 2.379 . S
Dy321 O335 2.339 . S
Dy321 C351 2.738 . S
C322 O334 1.254 . S
C322 O335 1.257 . S
O323 Dy320 2.307 . S
O323 C333 1.266 . S
O324 Dy321 2.298 . S
O324 C333 1.236 . S
O325 Dy320 2.395 . S
O325 C342 1.255 . S
O326 Dy320 2.379 . S
O326 C342 1.249 . S
O327 Dy321 2.275 . S
O327 C343 1.254 . S
O328 Dy320 2.339 . S
O328 C343 1.257 . S
O329 Dy321 2.307 . S
O329 C344 1.266 . S
O330 Dy320 2.298 . S
O330 C344 1.236 . S
O331 Dy321 2.395 . S
O331 C351 1.255 . S
O332 Dy321 2.379 . S
O332 C351 1.249 . S
C333 O323 1.266 . S
C333 O324 1.236 . S
O334 Dy320 2.275 . S
O334 C322 1.254 . S
O335 Dy321 2.339 . S
O335 C322 1.257 . S
C336 C339 1.344 . S
C336 C340 1.328 . S
C336 C342 1.516 . S
C337 C338 1.304 . S
C337 C341 1.323 . S
C338 C337 1.304 . S
C338 C339 1.371 . S
C338 H352 0.930 . S
C339 C336 1.344 . S
C339 C338 1.371 . S
C339 H353 0.931 . S
C340 C336 1.328 . S
C340 C341 1.433 . S
C340 H354 0.931 . S
C341 C337 1.323 . S
C341 C340 1.433 . S
C341 H355 0.933 . S
C342 Dy320 2.738 . S
C342 O325 1.255 . S
C342 O326 1.249 . S
C342 C336 1.516 . S
C343 O327 1.254 . S
C343 O328 1.257 . S
C344 O329 1.266 . S
C344 O330 1.236 . S
C345 C348 1.344 . S
C345 C349 1.328 . S
C345 C351 1.516 . S
C346 C347 1.304 . S
C346 C350 1.323 . S
C347 C346 1.304 . S
C347 C348 1.371 . S
C347 H356 0.930 . S
C348 C345 1.344 . S
C348 C347 1.371 . S
C348 H357 0.931 . S
C349 C345 1.328 . S
C349 C350 1.433 . S
C349 H358 0.931 . S
C350 C346 1.323 . S
C350 C349 1.433 . S
C350 H359 0.933 . S
C351 Dy321 2.738 . S
C351 O331 1.255 . S
C351 O332 1.249 . S
C351 C345 1.516 . S
H352 C338 0.930 . S
H353 C339 0.931 . S
H354 C340 0.931 . S
H355 C341 0.933 . S
H356 C347 0.930 . S
H357 C348 0.931 . S
H358 C349 0.931 . S
H359 C350 0.933 . S
Dy360 O363 2.307 . S
Dy360 O365 2.395 . S
Dy360 O366 2.379 . S
Dy360 O368 2.339 . S
Dy360 O370 2.298 . S
Dy360 O374 2.275 . S
Dy360 C382 2.738 . S
Dy361 O364 2.298 . S
Dy361 O367 2.275 . S
Dy361 O369 2.307 . S
Dy361 O371 2.395 . S
Dy361 O372 2.379 . S
Dy361 O375 2.339 . S
Dy361 C391 2.738 . S
C362 O374 1.254 . S
C362 O375 1.257 . S
O363 Dy360 2.307 . S
O363 C373 1.266 . S
O364 Dy361 2.298 . S
O364 C373 1.236 . S
O365 Dy360 2.395 . S
O365 C382 1.255 . S
O366 Dy360 2.379 . S
O366 C382 1.249 . S
O367 Dy361 2.275 . S
O367 C383 1.254 . S
O368 Dy360 2.339 . S
O368 C383 1.257 . S
O369 Dy361 2.307 . S
O369 C384 1.266 . S
O370 Dy360 2.298 . S
O370 C384 1.236 . S
O371 Dy361 2.395 . S
O371 C391 1.255 . S
O372 Dy361 2.379 . S
O372 C391 1.249 . S
C373 O363 1.266 . S
C373 O364 1.236 . S
O374 Dy360 2.275 . S
O374 C362 1.254 . S
O375 Dy361 2.339 . S
O375 C362 1.257 . S
C376 C379 1.344 . S
C376 C380 1.328 . S
C376 C382 1.516 . S
C377 C378 1.304 . S
C377 C381 1.323 . S
C378 C377 1.304 . S
C378 C379 1.371 . S
C378 H392 0.930 . S
C379 C376 1.344 . S
C379 C378 1.371 . S
C379 H393 0.931 . S
C380 C376 1.328 . S
C380 C381 1.433 . S
C380 H394 0.931 . S
C381 C377 1.323 . S
C381 C380 1.433 . S
C381 H395 0.933 . S
C382 Dy360 2.738 . S
C382 O365 1.255 . S
C382 O366 1.249 . S
C382 C376 1.516 . S
C383 O367 1.254 . S
C383 O368 1.257 . S
C384 O369 1.266 . S
C384 O370 1.236 . S
C385 C388 1.322 1_545 S
C385 C389 1.336 1_455 S
C385 C391 1.530 . S
C386 C387 1.304 1_655 S
C386 C390 1.323 . S
C387 C386 1.304 1_455 S
C387 C388 1.371 . S
C387 H396 0.930 . S
C388 C385 1.322 1_565 S
C388 C387 1.371 . S
C388 H397 0.931 . S
C389 C385 1.336 1_655 S
C389 C390 1.433 1_545 S
C389 H398 0.931 . S
C390 C386 1.323 . S
C390 C389 1.433 1_565 S
C390 H399 0.933 . S
C391 Dy361 2.738 . S
C391 O371 1.255 . S
C391 O372 1.249 . S
C391 C385 1.530 . S
H392 C378 0.930 . S
H393 C379 0.931 . S
H394 C380 0.931 . S
H395 C381 0.933 . S
H396 C387 0.930 . S
H397 C388 0.931 . S
H398 C389 0.931 . S
H399 C390 0.933 . S
Dy400 O403 2.307 . S
Dy400 O405 2.395 . S
Dy400 O406 2.379 . S
Dy400 O408 2.339 . S
Dy400 O410 2.298 . S
Dy400 O414 2.275 . S
Dy400 C422 2.738 . S
Dy401 O404 2.298 . S
Dy401 O407 2.275 . S
Dy401 O409 2.307 . S
Dy401 O411 2.395 . S
Dy401 O412 2.379 . S
Dy401 O415 2.339 . S
Dy401 C431 2.738 . S
C402 O414 1.254 . S
C402 O415 1.257 . S
O403 Dy400 2.307 . S
O403 C413 1.266 . S
O404 Dy401 2.298 . S
O404 C413 1.236 . S
O405 Dy400 2.395 . S
O405 C422 1.255 . S
O406 Dy400 2.379 . S
O406 C422 1.249 . S
O407 Dy401 2.275 . S
O407 C423 1.254 . S
O408 Dy400 2.339 . S
O408 C423 1.257 . S
O409 Dy401 2.307 . S
O409 C424 1.266 . S
O410 Dy400 2.298 . S
O410 C424 1.236 . S
O411 Dy401 2.395 . S
O411 C431 1.255 . S
O412 Dy401 2.379 . S
O412 C431 1.249 . S
C413 O403 1.266 . S
C413 O404 1.236 . S
O414 Dy400 2.275 . S
O414 C402 1.254 . S
O415 Dy401 2.339 . S
O415 C402 1.257 . S
C416 C419 1.344 . S
C416 C420 1.328 . S
C416 C422 1.516 . S
C417 C418 1.304 . S
C417 C421 1.323 . S
C418 C417 1.304 . S
C418 C419 1.371 . S
C418 H432 0.930 . S
C419 C416 1.344 . S
C419 C418 1.371 . S
C419 H433 0.931 . S
C420 C416 1.328 . S
C420 C421 1.433 . S
C420 H434 0.931 . S
C421 C417 1.323 . S
C421 C420 1.433 . S
C421 H435 0.933 . S
C422 Dy400 2.738 . S
C422 O405 1.255 . S
C422 O406 1.249 . S
C422 C416 1.516 . S
C423 O407 1.254 . S
C423 O408 1.257 . S
C424 O409 1.266 . S
C424 O410 1.236 . S
C425 C428 1.344 . S
C425 C429 1.328 . S
C425 C431 1.516 . S
C426 C427 1.304 . S
C426 C430 1.323 . S
C427 C426 1.304 . S
C427 C428 1.371 . S
C427 H436 0.930 . S
C428 C425 1.344 . S
C428 C427 1.371 . S
C428 H437 0.931 . S
C429 C425 1.328 . S
C429 C430 1.433 . S
C429 H438 0.931 . S
C430 C426 1.323 . S
C430 C429 1.433 . S
C430 H439 0.933 . S
C431 Dy401 2.738 . S
C431 O411 1.255 . S
C431 O412 1.249 . S
C431 C425 1.516 . S
H432 C418 0.930 . S
H433 C419 0.931 . S
H434 C420 0.931 . S
H435 C421 0.933 . S
H436 C427 0.930 . S
H437 C428 0.931 . S
H438 C429 0.931 . S
H439 C430 0.933 . S
Dy440 O443 2.307 . S
Dy440 O445 2.395 . S
Dy440 O446 2.379 . S
Dy440 O448 2.339 . S
Dy440 O450 2.298 . S
Dy440 O454 2.275 . S
Dy440 C462 2.738 . S
Dy441 O444 2.298 . S
Dy441 O447 2.275 . S
Dy441 O449 2.307 . S
Dy441 O451 2.395 . S
Dy441 O452 2.379 . S
Dy441 O455 2.339 . S
Dy441 C471 2.738 . S
C442 O454 1.254 . S
C442 O455 1.257 . S
O443 Dy440 2.307 . S
O443 C453 1.266 . S
O444 Dy441 2.298 . S
O444 C453 1.236 . S
O445 Dy440 2.395 . S
O445 C462 1.255 . S
O446 Dy440 2.379 . S
O446 C462 1.249 . S
O447 Dy441 2.275 . S
O447 C463 1.254 . S
O448 Dy440 2.339 . S
O448 C463 1.257 . S
O449 Dy441 2.307 . S
O449 C464 1.266 . S
O450 Dy440 2.298 . S
O450 C464 1.236 . S
O451 Dy441 2.395 . S
O451 C471 1.255 . S
O452 Dy441 2.379 . S
O452 C471 1.249 . S
C453 O443 1.266 . S
C453 O444 1.236 . S
O454 Dy440 2.275 . S
O454 C442 1.254 . S
O455 Dy441 2.339 . S
O455 C442 1.257 . S
C456 C459 1.344 . S
C456 C460 1.328 . S
C456 C462 1.516 . S
C457 C458 1.304 . S
C457 C461 1.323 . S
C458 C457 1.304 . S
C458 C459 1.371 . S
C458 H472 0.930 . S
C459 C456 1.344 . S
C459 C458 1.371 . S
C459 H473 0.931 . S
C460 C456 1.328 . S
C460 C461 1.433 . S
C460 H474 0.931 . S
C461 C457 1.323 . S
C461 C460 1.433 . S
C461 H475 0.933 . S
C462 Dy440 2.738 . S
C462 O445 1.255 . S
C462 O446 1.249 . S
C462 C456 1.516 . S
C463 O447 1.254 . S
C463 O448 1.257 . S
C464 O449 1.266 . S
C464 O450 1.236 . S
C465 C468 1.322 1_565 S
C465 C469 1.336 . S
C465 C471 1.530 . S
C466 C467 1.304 . S
C466 C470 1.323 . S
C467 C466 1.304 . S
C467 C468 1.371 . S
C467 H476 0.930 . S
C468 C465 1.322 1_545 S
C468 C467 1.371 . S
C468 H477 0.931 . S
C469 C465 1.336 . S
C469 C470 1.433 1_565 S
C469 H478 0.931 . S
C470 C466 1.323 . S
C470 C469 1.433 1_545 S
C470 H479 0.933 . S
C471 Dy441 2.738 . S
C471 O451 1.255 . S
C471 O452 1.249 . S
C471 C465 1.530 . S
H472 C458 0.930 . S
H473 C459 0.931 . S
H474 C460 0.931 . S
H475 C461 0.933 . S
H476 C467 0.930 . S
H477 C468 0.931 . S
H478 C469 0.931 . S
H479 C470 0.933 . S
Dy480 O483 2.307 . S
Dy480 O485 2.395 . S
Dy480 O486 2.379 . S
Dy480 O488 2.339 . S
Dy480 O490 2.298 . S
Dy480 O494 2.275 . S
Dy480 C502 2.738 . S
Dy481 O484 2.298 . S
Dy481 O487 2.275 . S
Dy481 O489 2.307 . S
Dy481 O491 2.395 . S
Dy481 O492 2.379 . S
Dy481 O495 2.339 . S
Dy481 C511 2.738 . S
C482 O494 1.254 . S
C482 O495 1.257 . S
O483 Dy480 2.307 . S
O483 C493 1.266 . S
O484 Dy481 2.298 . S
O484 C493 1.236 . S
O485 Dy480 2.395 . S
O485 C502 1.255 . S
O486 Dy480 2.379 . S
O486 C502 1.249 . S
O487 Dy481 2.275 . S
O487 C503 1.254 . S
O488 Dy480 2.339 . S
O488 C503 1.257 . S
O489 Dy481 2.307 . S
O489 C504 1.266 . S
O490 Dy480 2.298 . S
O490 C504 1.236 . S
O491 Dy481 2.395 . S
O491 C511 1.255 . S
O492 Dy481 2.379 . S
O492 C511 1.249 . S
C493 O483 1.266 . S
C493 O484 1.236 . S
O494 Dy480 2.275 . S
O494 C482 1.254 . S
O495 Dy481 2.339 . S
O495 C482 1.257 . S
C496 C499 1.344 . S
C496 C500 1.328 . S
C496 C502 1.516 . S
C497 C498 1.304 . S
C497 C501 1.323 . S
C498 C497 1.304 . S
C498 C499 1.371 . S
C498 H512 0.930 . S
C499 C496 1.344 . S
C499 C498 1.371 . S
C499 H513 0.931 . S
C500 C496 1.328 . S
C500 C501 1.433 . S
C500 H514 0.931 . S
C501 C497 1.323 . S
C501 C500 1.433 . S
C501 H515 0.933 . S
C502 Dy480 2.738 . S
C502 O485 1.255 . S
C502 O486 1.249 . S
C502 C496 1.516 . S
C503 O487 1.254 . S
C503 O488 1.257 . S
C504 O489 1.266 . S
C504 O490 1.236 . S
C505 C508 1.344 . S
C505 C509 1.328 . S
C505 C511 1.516 . S
C506 C507 1.304 . S
C506 C510 1.323 . S
C507 C506 1.304 . S
C507 C508 1.371 . S
C507 H516 0.930 . S
C508 C505 1.344 . S
C508 C507 1.371 . S
C508 H517 0.931 . S
C509 C505 1.328 . S
C509 C510 1.433 . S
C509 H518 0.931 . S
C510 C506 1.323 . S
C510 C509 1.433 . S
C510 H519 0.933 . S
C511 Dy481 2.738 . S
C511 O491 1.255 . S
C511 O492 1.249 . S
C511 C505 1.516 . S
H512 C498 0.930 . S
H513 C499 0.931 . S
H514 C500 0.931 . S
H515 C501 0.933 . S
H516 C507 0.930 . S
H517 C508 0.931 . S
H518 C509 0.931 . S
H519 C510 0.933 . S
Dy520 O523 2.307 . S
Dy520 O525 2.395 . S
Dy520 O526 2.379 . S
Dy520 O528 2.339 . S
Dy520 O530 2.298 . S
Dy520 O534 2.275 . S
Dy520 C542 2.738 . S
Dy521 O524 2.298 . S
Dy521 O527 2.275 . S
Dy521 O529 2.307 . S
Dy521 O531 2.395 . S
Dy521 O532 2.379 . S
Dy521 O535 2.339 . S
Dy521 C551 2.738 . S
C522 O534 1.254 . S
C522 O535 1.257 . S
O523 Dy520 2.307 . S
O523 C533 1.266 . S
O524 Dy521 2.298 . S
O524 C533 1.236 . S
O525 Dy520 2.395 . S
O525 C542 1.255 . S
O526 Dy520 2.379 . S
O526 C542 1.249 . S
O527 Dy521 2.275 . S
O527 C543 1.254 . S
O528 Dy520 2.339 . S
O528 C543 1.257 . S
O529 Dy521 2.307 . S
O529 C544 1.266 . S
O530 Dy520 2.298 . S
O530 C544 1.236 . S
O531 Dy521 2.395 . S
O531 C551 1.255 . S
O532 Dy521 2.379 . S
O532 C551 1.249 . S
C533 O523 1.266 . S
C533 O524 1.236 . S
O534 Dy520 2.275 . S
O534 C522 1.254 . S
O535 Dy521 2.339 . S
O535 C522 1.257 . S
C536 C539 1.322 1_565 S
C536 C540 1.336 1_655 S
C536 C542 1.530 . S
C537 C538 1.304 1_455 S
C537 C541 1.323 . S
C538 C537 1.304 1_655 S
C538 C539 1.371 . S
C538 H552 0.930 . S
C539 C536 1.322 1_545 S
C539 C538 1.371 . S
C539 H553 0.931 . S
C540 C536 1.336 1_455 S
C540 C541 1.433 1_565 S
C540 H554 0.931 . S
C541 C537 1.323 . S
C541 C540 1.433 1_545 S
C541 H555 0.933 . S
C542 Dy520 2.738 . S
C542 O525 1.255 . S
C542 O526 1.249 . S
C542 C536 1.530 . S
C543 O527 1.254 . S
C543 O528 1.257 . S
C544 O529 1.266 . S
C544 O530 1.236 . S
C545 C548 1.344 . S
C545 C549 1.328 . S
C545 C551 1.516 . S
C546 C547 1.304 . S
C546 C550 1.323 . S
C547 C546 1.304 . S
C547 C548 1.371 . S
C547 H556 0.930 . S
C548 C545 1.344 . S
C548 C547 1.371 . S
C548 H557 0.931 . S
C549 C545 1.328 . S
C549 C550 1.433 . S
C549 H558 0.931 . S
C550 C546 1.323 . S
C550 C549 1.433 . S
C550 H559 0.933 . S
C551 Dy521 2.738 . S
C551 O531 1.255 . S
C551 O532 1.249 . S
C551 C545 1.516 . S
H552 C538 0.930 . S
H553 C539 0.931 . S
H554 C540 0.931 . S
H555 C541 0.933 . S
H556 C547 0.930 . S
H557 C548 0.931 . S
H558 C549 0.931 . S
H559 C550 0.933 . S
Dy560 O563 2.307 . S
Dy560 O565 2.395 . S
Dy560 O566 2.379 . S
Dy560 O568 2.339 . S
Dy560 O570 2.298 . S
Dy560 O574 2.275 . S
Dy560 C582 2.738 . S
Dy561 O564 2.298 . S
Dy561 O567 2.275 . S
Dy561 O569 2.307 . S
Dy561 O571 2.395 . S
Dy561 O572 2.379 . S
Dy561 O575 2.339 . S
Dy561 C591 2.738 . S
C562 O574 1.254 . S
C562 O575 1.257 . S
O563 Dy560 2.307 . S
O563 C573 1.266 . S
O564 Dy561 2.298 . S
O564 C573 1.236 . S
O565 Dy560 2.395 . S
O565 C582 1.255 . S
O566 Dy560 2.379 . S
O566 C582 1.249 . S
O567 Dy561 2.275 . S
O567 C583 1.254 . S
O568 Dy560 2.339 . S
O568 C583 1.257 . S
O569 Dy561 2.307 . S
O569 C584 1.266 . S
O570 Dy560 2.298 . S
O570 C584 1.236 . S
O571 Dy561 2.395 . S
O571 C591 1.255 . S
O572 Dy561 2.379 . S
O572 C591 1.249 . S
C573 O563 1.266 . S
C573 O564 1.236 . S
O574 Dy560 2.275 . S
O574 C562 1.254 . S
O575 Dy561 2.339 . S
O575 C562 1.257 . S
C576 C579 1.344 . S
C576 C580 1.328 . S
C576 C582 1.516 . S
C577 C578 1.304 . S
C577 C581 1.323 . S
C578 C577 1.304 . S
C578 C579 1.371 . S
C578 H592 0.930 . S
C579 C576 1.344 . S
C579 C578 1.371 . S
C579 H593 0.931 . S
C580 C576 1.328 . S
C580 C581 1.433 . S
C580 H594 0.931 . S
C581 C577 1.323 . S
C581 C580 1.433 . S
C581 H595 0.933 . S
C582 Dy560 2.738 . S
C582 O565 1.255 . S
C582 O566 1.249 . S
C582 C576 1.516 . S
C583 O567 1.254 . S
C583 O568 1.257 . S
C584 O569 1.266 . S
C584 O570 1.236 . S
C585 C588 1.344 . S
C585 C589 1.328 . S
C585 C591 1.516 . S
C586 C587 1.304 . S
C586 C590 1.323 . S
C587 C586 1.304 . S
C587 C588 1.371 . S
C587 H596 0.930 . S
C588 C585 1.344 . S
C588 C587 1.371 . S
C588 H597 0.931 . S
C589 C585 1.328 . S
C589 C590 1.433 . S
C589 H598 0.931 . S
C590 C586 1.323 . S
C590 C589 1.433 . S
C590 H599 0.933 . S
C591 Dy561 2.738 . S
C591 O571 1.255 . S
C591 O572 1.249 . S
C591 C585 1.516 . S
H592 C578 0.930 . S
H593 C579 0.931 . S
H594 C580 0.931 . S
H595 C581 0.933 . S
H596 C587 0.930 . S
H597 C588 0.931 . S
H598 C589 0.931 . S
H599 C590 0.933 . S
Dy600 O603 2.307 . S
Dy600 O605 2.395 . S
Dy600 O606 2.379 . S
Dy600 O608 2.339 . S
Dy600 O610 2.298 . S
Dy600 O614 2.275 . S
Dy600 C622 2.738 . S
Dy601 O604 2.298 . S
Dy601 O607 2.275 . S
Dy601 O609 2.307 . S
Dy601 O611 2.395 . S
Dy601 O612 2.379 . S
Dy601 O615 2.339 . S
Dy601 C631 2.738 . S
C602 O614 1.254 . S
C602 O615 1.257 . S
O603 Dy600 2.307 . S
O603 C613 1.266 . S
O604 Dy601 2.298 . S
O604 C613 1.236 . S
O605 Dy600 2.395 . S
O605 C622 1.255 . S
O606 Dy600 2.379 . S
O606 C622 1.249 . S
O607 Dy601 2.275 . S
O607 C623 1.254 . S
O608 Dy600 2.339 . S
O608 C623 1.257 . S
O609 Dy601 2.307 . S
O609 C624 1.266 . S
O610 Dy600 2.298 . S
O610 C624 1.236 . S
O611 Dy601 2.395 . S
O611 C631 1.255 . S
O612 Dy601 2.379 . S
O612 C631 1.249 . S
C613 O603 1.266 . S
C613 O604 1.236 . S
O614 Dy600 2.275 . S
O614 C602 1.254 . S
O615 Dy601 2.339 . S
O615 C602 1.257 . S
C616 C619 1.322 1_545 S
C616 C620 1.336 . S
C616 C622 1.530 . S
C617 C618 1.304 . S
C617 C621 1.323 . S
C618 C617 1.304 . S
C618 C619 1.371 . S
C618 H632 0.930 . S
C619 C616 1.322 1_565 S
C619 C618 1.371 . S
C619 H633 0.931 . S
C620 C616 1.336 . S
C620 C621 1.433 1_545 S
C620 H634 0.931 . S
C621 C617 1.323 . S
C621 C620 1.433 1_565 S
C621 H635 0.933 . S
C622 Dy600 2.738 . S
C622 O605 1.255 . S
C622 O606 1.249 . S
C622 C616 1.530 . S
C623 O607 1.254 . S
C623 O608 1.257 . S
C624 O609 1.266 . S
C624 O610 1.236 . S
C625 C628 1.344 . S
C625 C629 1.328 . S
C625 C631 1.516 . S
C626 C627 1.304 . S
C626 C630 1.323 . S
C627 C626 1.304 . S
C627 C628 1.371 . S
C627 H636 0.930 . S
C628 C625 1.344 . S
C628 C627 1.371 . S
C628 H637 0.931 . S
C629 C625 1.328 . S
C629 C630 1.433 . S
C629 H638 0.931 . S
C630 C626 1.323 . S
C630 C629 1.433 . S
C630 H639 0.933 . S
C631 Dy601 2.738 . S
C631 O611 1.255 . S
C631 O612 1.249 . S
C631 C625 1.516 . S
H632 C618 0.930 . S
H633 C619 0.931 . S
H634 C620 0.931 . S
H635 C621 0.933 . S
H636 C627 0.930 . S
H637 C628 0.931 . S
H638 C629 0.931 . S
H639 C630 0.933 . S
H640 C648 0.929 . S
H641 C650 0.930 . S
H642 C652 0.930 . S
H643 C655 0.929 . S
H644 C658 0.930 . S
H645 C660 0.960 . S
H646 C660 0.960 . S
H647 C660 0.960 . S
C648 H640 0.929 . S
C648 C649 1.377 . S
C648 C650 1.384 . S
C649 C648 1.377 . S
C649 C655 1.390 . S
C650 H641 0.930 . S
C650 C648 1.384 . S
C650 C651 1.372 . S
C651 C650 1.372 . S
C651 C652 1.400 . S
C651 C656 1.490 . S
C652 H642 0.930 . S
C652 C651 1.400 . S
C652 C655 1.386 . S
H653 C669 0.930 . S
H654 C670 0.931 . S
C655 H643 0.929 . S
C655 C649 1.390 . S
C655 C652 1.386 . S
C656 C651 1.490 . S
C656 C658 1.395 . S
C656 C659 1.403 . S
H657 C663 0.930 . S
C658 H644 0.930 . S
C658 C656 1.395 . S
C658 C661 1.403 . S
C659 C656 1.403 . S
C659 C660 1.524 . S
C659 C663 1.400 . S
C660 H645 0.960 . S
C660 H646 0.960 . S
C660 H647 0.960 . S
C660 C659 1.524 . S
C661 C658 1.403 . S
C661 C662 1.392 . S
C661 C665 1.495 . S
C662 C661 1.392 . S
C662 C663 1.385 . S
C662 C664 1.478 . S
C663 H657 0.930 . S
C663 C659 1.400 . S
C663 C662 1.385 . S
C664 C662 1.478 . S
C664 C666 1.381 . S
C664 C670 1.383 . S
C665 C661 1.495 . S
C665 H671 0.959 . S
C665 H672 0.961 . S
C665 H673 0.960 . S
C666 C664 1.381 . S
C666 C667 1.394 . S
C666 H674 0.930 . S
C667 C666 1.394 . S
C667 C668 1.383 . S
C667 H675 0.929 . S
C668 C667 1.383 . S
C668 C669 1.377 . S
C669 H653 0.930 . S
C669 C668 1.377 . S
C669 C670 1.379 . S
C670 H654 0.931 . S
C670 C664 1.383 . S
C670 C669 1.379 . S
H671 C665 0.959 . S
H672 C665 0.961 . S
H673 C665 0.960 . S
H674 C666 0.930 . S
H675 C667 0.929 . S
H676 C684 0.929 . S
H677 C686 0.930 . S
H678 C688 0.930 . S
H679 C691 0.929 . S
H680 C694 0.930 . S
H681 C696 0.960 . S
H682 C696 0.960 . S
H683 C696 0.960 . S
C684 H676 0.929 . S
C684 C685 1.377 . S
C684 C686 1.384 . S
C685 C684 1.377 . S
C685 C691 1.390 . S
C686 H677 0.930 . S
C686 C684 1.384 . S
C686 C687 1.372 . S
C687 C686 1.372 . S
C687 C688 1.400 . S
C687 C692 1.490 . S
C688 H678 0.930 . S
C688 C687 1.400 . S
C688 C691 1.386 . S
H689 C705 0.930 . S
H690 C706 0.931 . S
C691 H679 0.929 . S
C691 C685 1.390 . S
C691 C688 1.386 . S
C692 C687 1.490 . S
C692 C694 1.395 . S
C692 C695 1.403 . S
H693 C699 0.930 . S
C694 H680 0.930 . S
C694 C692 1.395 . S
C694 C697 1.403 . S
C695 C692 1.403 . S
C695 C696 1.524 . S
C695 C699 1.400 . S
C696 H681 0.960 . S
C696 H682 0.960 . S
C696 H683 0.960 . S
C696 C695 1.524 . S
C697 C694 1.403 . S
C697 C698 1.392 . S
C697 C701 1.495 . S
C698 C697 1.392 . S
C698 C699 1.385 . S
C698 C700 1.478 . S
C699 H693 0.930 . S
C699 C695 1.400 . S
C699 C698 1.385 . S
C700 C698 1.478 . S
C700 C702 1.381 . S
C700 C706 1.383 . S
C701 C697 1.495 . S
C701 H707 0.959 . S
C701 H708 0.961 . S
C701 H709 0.960 . S
C702 C700 1.381 . S
C702 C703 1.394 . S
C702 H710 0.930 . S
C703 C702 1.394 . S
C703 C704 1.383 . S
C703 H711 0.929 . S
C704 C703 1.383 . S
C704 C705 1.377 . S
C705 H689 0.930 . S
C705 C704 1.377 . S
C705 C706 1.379 . S
C706 H690 0.931 . S
C706 C700 1.383 . S
C706 C705 1.379 . S
H707 C701 0.959 . S
H708 C701 0.961 . S
H709 C701 0.960 . S
H710 C702 0.930 . S
H711 C703 0.929 . S
H712 C720 0.929 . S
H713 C722 0.930 . S
H714 C724 0.930 . S
H715 C727 0.929 . S
H716 C730 0.930 . S
H717 C732 0.960 . S
H718 C732 0.960 . S
H719 C732 0.960 . S
C720 H712 0.929 . S
C720 C721 1.377 . S
C720 C722 1.384 . S
C721 C720 1.377 . S
C721 C727 1.390 . S
C722 H713 0.930 . S
C722 C720 1.384 . S
C722 C723 1.372 . S
C723 C722 1.372 . S
C723 C724 1.400 . S
C723 C728 1.490 . S
C724 H714 0.930 . S
C724 C723 1.400 . S
C724 C727 1.386 . S
H725 C741 0.930 . S
H726 C742 0.931 . S
C727 H715 0.929 . S
C727 C721 1.390 . S
C727 C724 1.386 . S
C728 C723 1.490 . S
C728 C730 1.395 . S
C728 C731 1.403 . S
H729 C735 0.930 . S
C730 H716 0.930 . S
C730 C728 1.395 . S
C730 C733 1.403 1_455 S
C731 C728 1.403 . S
C731 C732 1.524 . S
C731 C735 1.400 1_455 S
C732 H717 0.960 . S
C732 H718 0.960 . S
C732 H719 0.960 . S
C732 C731 1.524 . S
C733 C730 1.403 1_655 S
C733 C734 1.392 . S
C733 C737 1.495 . S
C734 C733 1.392 . S
C734 C735 1.385 . S
C734 C736 1.478 . S
C735 H729 0.930 . S
C735 C731 1.400 1_655 S
C735 C734 1.385 . S
C736 C734 1.478 . S
C736 C738 1.381 . S
C736 C742 1.383 . S
C737 C733 1.495 . S
C737 H743 0.959 . S
C737 H744 0.961 . S
C737 H745 0.960 . S
C738 C736 1.381 . S
C738 C739 1.394 . S
C738 H746 0.930 . S
C739 C738 1.394 . S
C739 C740 1.383 . S
C739 H747 0.929 . S
C740 C739 1.383 . S
C740 C741 1.377 . S
C741 H725 0.930 . S
C741 C740 1.377 . S
C741 C742 1.379 . S
C742 H726 0.931 . S
C742 C736 1.383 . S
C742 C741 1.379 . S
H743 C737 0.959 . S
H744 C737 0.961 . S
H745 C737 0.960 . S
H746 C738 0.930 . S
H747 C739 0.929 . S
H748 C756 0.929 . S
H749 C758 0.930 . S
H750 C760 0.930 . S
H751 C763 0.929 . S
H752 C766 0.930 . S
H753 C768 0.960 . S
H754 C768 0.960 . S
H755 C768 0.960 . S
C756 H748 0.929 . S
C756 C757 1.377 . S
C756 C758 1.384 . S
C757 C756 1.377 . S
C757 C763 1.390 . S
C758 H749 0.930 . S
C758 C756 1.384 . S
C758 C759 1.372 . S
C759 C758 1.372 . S
C759 C760 1.400 . S
C759 C764 1.490 . S
C760 H750 0.930 . S
C760 C759 1.400 . S
C760 C763 1.386 . S
H761 C777 0.930 . S
H762 C778 0.931 . S
C763 H751 0.929 . S
C763 C757 1.390 . S
C763 C760 1.386 . S
C764 C759 1.490 . S
C764 C766 1.395 . S
C764 C767 1.403 1_455 S
H765 C771 0.930 . S
C766 H752 0.930 . S
C766 C764 1.395 . S
C766 C769 1.403 . S
C767 C764 1.403 1_655 S
C767 C768 1.524 . S
C767 C771 1.400 . S
C768 H753 0.960 . S
C768 H754 0.960 . S
C768 H755 0.960 . S
C768 C767 1.524 . S
C769 C766 1.403 . S
C769 C770 1.392 1_455 S
C769 C773 1.495 . S
C770 C769 1.392 1_655 S
C770 C771 1.385 . S
C770 C772 1.478 . S
C771 H765 0.930 . S
C771 C767 1.400 . S
C771 C770 1.385 . S
C772 C770 1.478 . S
C772 C774 1.381 . S
C772 C778 1.383 . S
C773 C769 1.495 . S
C773 H779 0.959 . S
C773 H780 0.961 . S
C773 H781 0.960 . S
C774 C772 1.381 . S
C774 C775 1.394 . S
C774 H782 0.930 . S
C775 C774 1.394 . S
C775 C776 1.383 . S
C775 H783 0.929 . S
C776 C775 1.383 . S
C776 C777 1.377 . S
C777 H761 0.930 . S
C777 C776 1.377 . S
C777 C778 1.379 . S
C778 H762 0.931 . S
C778 C772 1.383 . S
C778 C777 1.379 . S
H779 C773 0.959 . S
H780 C773 0.961 . S
H781 C773 0.960 . S
H782 C774 0.930 . S
H783 C775 0.929 . S
H784 C792 0.929 . S
H785 C794 0.930 . S
H786 C796 0.930 . S
H787 C799 0.929 . S
H788 C802 0.930 . S
H789 C804 0.960 . S
H790 C804 0.960 . S
H791 C804 0.960 . S
C792 H784 0.929 . S
C792 C793 1.377 . S
C792 C794 1.384 . S
C793 C792 1.377 . S
C793 C799 1.390 . S
C794 H785 0.930 . S
C794 C792 1.384 . S
C794 C795 1.372 . S
C795 C794 1.372 . S
C795 C796 1.400 . S
C795 C800 1.490 . S
C796 H786 0.930 . S
C796 C795 1.400 . S
C796 C799 1.386 . S
H797 C813 0.930 . S
H798 C814 0.931 . S
C799 H787 0.929 . S
C799 C793 1.390 . S
C799 C796 1.386 . S
C800 C795 1.490 . S
C800 C802 1.395 . S
C800 C803 1.403 . S
H801 C807 0.930 . S
C802 H788 0.930 . S
C802 C800 1.395 . S
C802 C805 1.403 . S
C803 C800 1.403 . S
C803 C804 1.524 . S
C803 C807 1.400 . S
C804 H789 0.960 . S
C804 H790 0.960 . S
C804 H791 0.960 . S
C804 C803 1.524 . S
C805 C802 1.403 . S
C805 C806 1.392 . S
C805 C809 1.495 . S
C806 C805 1.392 . S
C806 C807 1.385 . S
C806 C808 1.478 . S
C807 H801 0.930 . S
C807 C803 1.400 . S
C807 C806 1.385 . S
C808 C806 1.478 . S
C808 C810 1.381 . S
C808 C814 1.383 . S
C809 C805 1.495 . S
C809 H815 0.959 . S
C809 H816 0.961 . S
C809 H817 0.960 . S
C810 C808 1.381 . S
C810 C811 1.394 . S
C810 H818 0.930 . S
C811 C810 1.394 . S
C811 C812 1.383 . S
C811 H819 0.929 . S
C812 C811 1.383 . S
C812 C813 1.377 . S
C813 H797 0.930 . S
C813 C812 1.377 . S
C813 C814 1.379 . S
C814 H798 0.931 . S
C814 C808 1.383 . S
C814 C813 1.379 . S
H815 C809 0.959 . S
H816 C809 0.961 . S
H817 C809 0.960 . S
H818 C810 0.930 . S
H819 C811 0.929 . S
H820 C828 0.929 . S
H821 C830 0.930 . S
H822 C832 0.930 . S
H823 C835 0.929 . S
H824 C838 0.930 . S
H825 C840 0.960 . S
H826 C840 0.960 . S
H827 C840 0.960 . S
C828 H820 0.929 . S
C828 C829 1.377 . S
C828 C830 1.384 . S
C829 C828 1.377 . S
C829 C835 1.390 . S
C830 H821 0.930 . S
C830 C828 1.384 . S
C830 C831 1.372 . S
C831 C830 1.372 . S
C831 C832 1.400 . S
C831 C836 1.490 . S
C832 H822 0.930 . S
C832 C831 1.400 . S
C832 C835 1.386 . S
H833 C849 0.930 . S
H834 C850 0.931 . S
C835 H823 0.929 . S
C835 C829 1.390 . S
C835 C832 1.386 . S
C836 C831 1.490 . S
C836 C838 1.395 . S
C836 C839 1.403 . S
H837 C843 0.930 . S
C838 H824 0.930 . S
C838 C836 1.395 . S
C838 C841 1.403 . S
C839 C836 1.403 . S
C839 C840 1.524 . S
C839 C843 1.400 . S
C840 H825 0.960 . S
C840 H826 0.960 . S
C840 H827 0.960 . S
C840 C839 1.524 . S
C841 C838 1.403 . S
C841 C842 1.392 . S
C841 C845 1.495 . S
C842 C841 1.392 . S
C842 C843 1.385 . S
C842 C844 1.478 . S
C843 H837 0.930 . S
C843 C839 1.400 . S
C843 C842 1.385 . S
C844 C842 1.478 . S
C844 C846 1.381 . S
C844 C850 1.383 . S
C845 C841 1.495 . S
C845 H851 0.959 . S
C845 H852 0.961 . S
C845 H853 0.960 . S
C846 C844 1.381 . S
C846 C847 1.394 . S
C846 H854 0.930 . S
C847 C846 1.394 . S
C847 C848 1.383 . S
C847 H855 0.929 . S
C848 C847 1.383 . S
C848 C849 1.377 . S
C849 H833 0.930 . S
C849 C848 1.377 . S
C849 C850 1.379 . S
C850 H834 0.931 . S
C850 C844 1.383 . S
C850 C849 1.379 . S
H851 C845 0.959 . S
H852 C845 0.961 . S
H853 C845 0.960 . S
H854 C846 0.930 . S
H855 C847 0.929 . S
H856 C864 0.929 . S
H857 C866 0.930 . S
H858 C868 0.930 . S
H859 C871 0.929 . S
H860 C874 0.930 . S
H861 C876 0.957 . S
H862 C876 0.961 1_455 S
H863 C876 0.962 1_455 S
C864 H856 0.929 . S
C864 C865 1.377 . S
C864 C866 1.384 . S
C865 C864 1.377 . S
C865 C871 1.390 . S
C866 H857 0.930 . S
C866 C864 1.384 . S
C866 C867 1.372 . S
C867 C866 1.372 . S
C867 C868 1.400 . S
C867 C872 1.490 . S
C868 H858 0.930 . S
C868 C867 1.400 . S
C868 C871 1.386 . S
H869 C885 0.930 . S
H870 C886 0.931 . S
C871 H859 0.929 . S
C871 C865 1.390 . S
C871 C868 1.386 . S
C872 C867 1.490 . S
C872 C874 1.395 . S
C872 C875 1.403 . S
H873 C879 0.930 . S
C874 H860 0.930 . S
C874 C872 1.395 . S
C874 C877 1.419 . S
C875 C872 1.403 . S
C875 C876 1.524 1_455 S
C875 C879 1.400 1_455 S
C876 H861 0.957 . S
C876 H862 0.961 1_655 S
C876 H863 0.962 1_655 S
C876 C875 1.524 1_655 S
C877 C874 1.419 . S
C877 C878 1.377 1_455 S
C877 C881 1.496 . S
C878 C877 1.377 1_655 S
C878 C879 1.385 . S
C878 C880 1.478 . S
C879 H873 0.930 . S
C879 C875 1.400 1_655 S
C879 C878 1.385 . S
C880 C878 1.478 . S
C880 C882 1.381 . S
C880 C886 1.383 . S
C881 C877 1.496 . S
C881 H887 0.959 . S
C881 H888 0.961 1_455 S
C881 H889 0.960 1_455 S
C882 C880 1.381 . S
C882 C883 1.394 . S
C882 H890 0.930 . S
C883 C882 1.394 . S
C883 C884 1.383 . S
C883 H891 0.929 . S
C884 C883 1.383 . S
C884 C885 1.377 . S
C885 H869 0.930 . S
C885 C884 1.377 . S
C885 C886 1.379 . S
C886 H870 0.931 . S
C886 C880 1.383 . S
C886 C885 1.379 . S
H887 C881 0.959 . S
H888 C881 0.961 1_655 S
H889 C881 0.960 1_655 S
H890 C882 0.930 . S
H891 C883 0.929 . S
H892 C900 0.929 . S
H893 C902 0.930 . S
H894 C904 0.930 . S
H895 C907 0.929 . S
H896 C910 0.930 . S
H897 C912 0.960 . S
H898 C912 0.960 . S
H899 C912 0.960 . S
C900 H892 0.929 . S
C900 C901 1.377 . S
C900 C902 1.384 . S
C901 C900 1.377 . S
C901 C907 1.390 . S
C902 H893 0.930 . S
C902 C900 1.384 . S
C902 C903 1.372 . S
C903 C902 1.372 . S
C903 C904 1.400 . S
C903 C908 1.490 . S
C904 H894 0.930 . S
C904 C903 1.400 . S
C904 C907 1.386 . S
H905 C921 0.930 . S
H906 C922 0.931 . S
C907 H895 0.929 . S
C907 C901 1.390 . S
C907 C904 1.386 . S
C908 C903 1.490 . S
C908 C910 1.395 . S
C908 C911 1.403 1_455 S
H909 C915 0.930 . S
C910 H896 0.930 . S
C910 C908 1.395 . S
C910 C913 1.403 . S
C911 C908 1.403 1_655 S
C911 C912 1.524 . S
C911 C915 1.400 . S
C912 H897 0.960 . S
C912 H898 0.960 . S
C912 H899 0.960 . S
C912 C911 1.524 . S
C913 C910 1.403 . S
C913 C914 1.392 1_455 S
C913 C917 1.495 . S
C914 C913 1.392 1_655 S
C914 C915 1.385 . S
C914 C916 1.478 . S
C915 H909 0.930 . S
C915 C911 1.400 . S
C915 C914 1.385 . S
C916 C914 1.478 . S
C916 C918 1.381 . S
C916 C922 1.383 . S
C917 C913 1.495 . S
C917 H923 0.959 . S
C917 H924 0.961 . S
C917 H925 0.960 . S
C918 C916 1.381 . S
C918 C919 1.394 . S
C918 H926 0.930 . S
C919 C918 1.394 . S
C919 C920 1.383 . S
C919 H927 0.929 . S
C920 C919 1.383 . S
C920 C921 1.377 . S
C921 H905 0.930 . S
C921 C920 1.377 . S
C921 C922 1.379 . S
C922 H906 0.931 . S
C922 C916 1.383 . S
C922 C921 1.379 . S
H923 C917 0.959 . S
H924 C917 0.961 . S
H925 C917 0.960 . S
H926 C918 0.930 . S
H927 C919 0.929 . S
H928 C936 0.929 . S
H929 C938 0.930 . S
H930 C940 0.892 1_556 S
H931 C943 0.929 . S
H932 C946 0.930 . S
H933 C948 0.960 . S
H934 C948 0.960 . S
H935 C948 0.960 . S
C936 H928 0.929 . S
C936 C937 1.377 . S
C936 C938 1.384 . S
C937 C936 1.377 . S
C937 C943 1.390 1_545 S
C938 H929 0.930 . S
C938 C936 1.384 . S
C938 C939 1.372 . S
C939 C938 1.372 . S
C939 C940 1.400 1_545 S
C939 C944 1.490 . S
C940 H930 0.892 1_554 S
C940 C939 1.400 1_565 S
C940 C943 1.386 . S
H941 C957 0.930 . S
H942 C958 0.931 . S
C943 H931 0.929 . S
C943 C937 1.390 1_565 S
C943 C940 1.386 . S
C944 C939 1.490 . S
C944 C946 1.395 1_545 S
C944 C947 1.403 1_554 S
H945 C951 0.930 . S
C946 H932 0.930 . S
C946 C944 1.395 1_565 S
C946 C949 1.403 . S
C947 C944 1.403 1_556 S
C947 C948 1.524 . S
C947 C951 1.400 . S
C948 H933 0.960 . S
C948 H934 0.960 . S
C948 H935 0.960 . S
C948 C947 1.524 . S
C949 C946 1.403 . S
C949 C950 1.392 1_554 S
C949 C953 1.495 . S
C950 C949 1.392 1_556 S
C950 C951 1.385 1_565 S
C950 C952 1.478 . S
C951 H945 0.930 . S
C951 C947 1.400 . S
C951 C950 1.385 1_545 S
C952 C950 1.478 . S
C952 C954 1.381 1_565 S
C952 C958 1.383 . S
C953 C949 1.495 . S
C953 H959 0.959 . S
C953 H960 0.961 . S
C953 H961 0.960 1_565 S
C954 C952 1.381 1_545 S
C954 C955 1.394 . S
C954 H962 0.930 1_556 S
C955 C954 1.394 . S
C955 C956 1.383 1_545 S
C955 H963 0.929 . S
C956 C955 1.383 1_565 S
C956 C957 1.377 . S
C957 H941 0.930 . S
C957 C956 1.377 . S
C957 C958 1.379 . S
C958 H942 0.931 . S
C958 C952 1.383 . S
C958 C957 1.379 . S
H959 C953 0.959 . S
H960 C953 0.961 . S
H961 C953 0.960 1_545 S
H962 C954 0.930 1_554 S
H963 C955 0.929 . S
H964 C972 0.929 . S
H965 C974 0.930 . S
H966 C976 0.930 . S
H967 C979 0.929 . S
H968 C982 0.930 . S
H969 C984 0.960 . S
H970 C984 0.960 . S
H971 C984 0.960 . S
C972 H964 0.929 . S
C972 C973 1.377 . S
C972 C974 1.384 . S
C973 C972 1.377 . S
C973 C979 1.390 . S
C974 H965 0.930 . S
C974 C972 1.384 . S
C974 C975 1.372 . S
C975 C974 1.372 . S
C975 C976 1.400 . S
C975 C980 1.490 . S
C976 H966 0.930 . S
C976 C975 1.400 . S
C976 C979 1.386 . S
H977 C993 0.930 . S
H978 C994 0.931 . S
C979 H967 0.929 . S
C979 C973 1.390 . S
C979 C976 1.386 . S
C980 C975 1.490 . S
C980 C982 1.395 . S
C980 C983 1.403 . S
H981 C987 0.930 . S
C982 H968 0.930 . S
C982 C980 1.395 . S
C982 C985 1.403 . S
C983 C980 1.403 . S
C983 C984 1.524 . S
C983 C987 1.400 . S
C984 H969 0.960 . S
C984 H970 0.960 . S
C984 H971 0.960 . S
C984 C983 1.524 . S
C985 C982 1.403 . S
C985 C986 1.392 . S
C985 C989 1.495 . S
C986 C985 1.392 . S
C986 C987 1.385 . S
C986 C988 1.478 . S
C987 H981 0.930 . S
C987 C983 1.400 . S
C987 C986 1.385 . S
C988 C986 1.478 . S
C988 C990 1.381 . S
C988 C994 1.383 . S
C989 C985 1.495 . S
C989 H995 0.959 . S
C989 H996 0.961 . S
C989 H997 0.960 . S
C990 C988 1.381 . S
C990 C991 1.394 . S
C990 H998 0.930 . S
C991 C990 1.394 . S
C991 C992 1.383 . S
C991 H999 0.929 . S
C992 C991 1.383 . S
C992 C993 1.377 . S
C993 H977 0.930 . S
C993 C992 1.377 . S
C993 C994 1.379 . S
C994 H978 0.931 . S
C994 C988 1.383 . S
C994 C993 1.379 . S
H995 C989 0.959 . S
H996 C989 0.961 . S
H997 C989 0.960 . S
H998 C990 0.930 . S
H999 C991 0.929 . S
H1000 C1008 0.929 . S
H1001 C1010 0.930 . S
H1002 C1012 0.930 . S
H1003 C1015 0.929 . S
H1004 C1018 0.930 . S
H1005 C1020 0.960 1_655 S
H1006 C1020 0.960 . S
H1007 C1020 0.960 1_565 S
C1008 H1000 0.929 . S
C1008 C1009 1.377 1_545 S
C1008 C1010 1.384 . S
C1009 C1008 1.377 1_565 S
C1009 C1015 1.390 . S
C1010 H1001 0.930 . S
C1010 C1008 1.384 . S
C1010 C1011 1.372 1_545 S
C1011 C1010 1.372 1_565 S
C1011 C1012 1.400 . S
C1011 C1016 1.490 . S
C1012 H1002 0.930 . S
C1012 C1011 1.400 . S
C1012 C1015 1.386 . S
H1013 C1029 0.930 . S
H1014 C1030 0.931 . S
C1015 H1003 0.929 . S
C1015 C1009 1.390 . S
C1015 C1012 1.386 . S
C1016 C1011 1.490 . S
C1016 C1018 1.395 . S
C1016 C1019 1.403 1_565 S
H1017 C1023 0.930 . S
C1018 H1004 0.930 . S
C1018 C1016 1.395 . S
C1018 C1021 1.407 1_455 S
C1019 C1016 1.403 1_545 S
C1019 C1020 1.524 . S
C1019 C1023 1.400 1_455 S
C1020 H1005 0.960 1_455 S
C1020 H1006 0.960 . S
C1020 H1007 0.960 1_545 S
C1020 C1019 1.524 . S
C1021 C1018 1.407 1_655 S
C1021 C1022 1.388 1_565 S
C1021 C1025 1.498 . S
C1022 C1021 1.388 1_545 S
C1022 C1023 1.385 . S
C1022 C1024 1.478 . S
C1023 H1017 0.930 . S
C1023 C1019 1.400 1_655 S
C1023 C1022 1.385 . S
C1024 C1022 1.478 . S
C1024 C1026 1.381 . S
C1024 C1030 1.383 1_545 S
C1025 C1021 1.498 . S
C1025 H1031 0.959 1_655 S
C1025 H1032 0.961 . S
C1025 H1033 0.960 1_565 S
C1026 C1024 1.381 . S
C1026 C1027 1.394 . S
C1026 H1034 0.930 . S
C1027 C1026 1.394 . S
C1027 C1028 1.383 . S
C1027 H1035 0.929 . S
C1028 C1027 1.383 . S
C1028 C1029 1.377 1_545 S
C1029 H1013 0.930 . S
C1029 C1028 1.377 1_565 S
C1029 C1030 1.379 . S
C1030 H1014 0.931 . S
C1030 C1024 1.383 1_565 S
C1030 C1029 1.379 . S
H1031 C1025 0.959 1_455 S
H1032 C1025 0.961 . S
H1033 C1025 0.960 1_545 S
H1034 C1026 0.930 . S
H1035 C1027 0.929 . S
H1036 C1044 0.929 . S
H1037 C1046 0.930 . S
H1038 C1048 0.930 . S
H1039 C1051 0.929 . S
H1040 C1054 0.930 . S
H1041 C1056 0.960 . S
H1042 C1056 0.960 . S
H1043 C1056 0.960 . S
C1044 H1036 0.929 . S
C1044 C1045 1.377 . S
C1044 C1046 1.384 . S
C1045 C1044 1.377 . S
C1045 C1051 1.390 . S
C1046 H1037 0.930 . S
C1046 C1044 1.384 . S
C1046 C1047 1.372 . S
C1047 C1046 1.372 . S
C1047 C1048 1.400 . S
C1047 C1052 1.490 . S
C1048 H1038 0.930 . S
C1048 C1047 1.400 . S
C1048 C1051 1.386 . S
H1049 C1065 0.930 . S
H1050 C1066 0.931 . S
C1051 H1039 0.929 . S
C1051 C1045 1.390 . S
C1051 C1048 1.386 . S
C1052 C1047 1.490 . S
C1052 C1054 1.395 . S
C1052 C1055 1.403 . S
H1053 C1059 0.930 . S
C1054 H1040 0.930 . S
C1054 C1052 1.395 . S
C1054 C1057 1.403 . S
C1055 C1052 1.403 . S
C1055 C1056 1.524 . S
C1055 C1059 1.400 . S
C1056 H1041 0.960 . S
C1056 H1042 0.960 . S
C1056 H1043 0.960 . S
C1056 C1055 1.524 . S
C1057 C1054 1.403 . S
C1057 C1058 1.392 . S
C1057 C1061 1.495 . S
C1058 C1057 1.392 . S
C1058 C1059 1.385 . S
C1058 C1060 1.478 . S
C1059 H1053 0.930 . S
C1059 C1055 1.400 . S
C1059 C1058 1.385 . S
C1060 C1058 1.478 . S
C1060 C1062 1.381 . S
C1060 C1066 1.383 . S
C1061 C1057 1.495 . S
C1061 H1067 0.959 . S
C1061 H1068 0.961 . S
C1061 H1069 0.960 . S
C1062 C1060 1.381 . S
C1062 C1063 1.394 . S
C1062 H1070 0.930 . S
C1063 C1062 1.394 . S
C1063 C1064 1.383 . S
C1063 H1071 0.929 . S
C1064 C1063 1.383 . S
C1064 C1065 1.377 . S
C1065 H1049 0.930 . S
C1065 C1064 1.377 . S
C1065 C1066 1.379 . S
C1066 H1050 0.931 . S
C1066 C1060 1.383 . S
C1066 C1065 1.379 . S
H1067 C1061 0.959 . S
H1068 C1061 0.961 . S
H1069 C1061 0.960 . S
H1070 C1062 0.930 . S
H1071 C1063 0.929 . S
H1072 C1080 0.929 . S
H1073 C1082 0.930 . S
H1074 C1084 0.930 . S
H1075 C1087 0.929 . S
H1076 C1090 0.930 . S
H1077 C1092 0.960 . S
H1078 C1092 0.960 . S
H1079 C1092 0.960 . S
C1080 H1072 0.929 . S
C1080 C1081 1.377 . S
C1080 C1082 1.384 . S
C1081 C1080 1.377 . S
C1081 C1087 1.390 . S
C1082 H1073 0.930 . S
C1082 C1080 1.384 . S
C1082 C1083 1.372 . S
C1083 C1082 1.372 . S
C1083 C1084 1.400 . S
C1083 C1088 1.490 . S
C1084 H1074 0.930 . S
C1084 C1083 1.400 . S
C1084 C1087 1.386 . S
H1085 C1101 0.930 . S
H1086 C1102 0.931 . S
C1087 H1075 0.929 . S
C1087 C1081 1.390 . S
C1087 C1084 1.386 . S
C1088 C1083 1.490 . S
C1088 C1090 1.395 . S
C1088 C1091 1.403 . S
H1089 C1095 0.930 . S
C1090 H1076 0.930 . S
C1090 C1088 1.395 . S
C1090 C1093 1.403 . S
C1091 C1088 1.403 . S
C1091 C1092 1.524 . S
C1091 C1095 1.400 . S
C1092 H1077 0.960 . S
C1092 H1078 0.960 . S
C1092 H1079 0.960 . S
C1092 C1091 1.524 . S
C1093 C1090 1.403 . S
C1093 C1094 1.392 . S
C1093 C1097 1.495 . S
C1094 C1093 1.392 . S
C1094 C1095 1.385 . S
C1094 C1096 1.478 . S
C1095 H1089 0.930 . S
C1095 C1091 1.400 . S
C1095 C1094 1.385 . S
C1096 C1094 1.478 . S
C1096 C1098 1.381 . S
C1096 C1102 1.383 . S
C1097 C1093 1.495 . S
C1097 H1103 0.959 . S
C1097 H1104 0.961 . S
C1097 H1105 0.960 . S
C1098 C1096 1.381 . S
C1098 C1099 1.394 . S
C1098 H1106 0.930 . S
C1099 C1098 1.394 . S
C1099 C1100 1.383 . S
C1099 H1107 0.929 . S
C1100 C1099 1.383 . S
C1100 C1101 1.377 . S
C1101 H1085 0.930 . S
C1101 C1100 1.377 . S
C1101 C1102 1.379 . S
C1102 H1086 0.931 . S
C1102 C1096 1.383 . S
C1102 C1101 1.379 . S
H1103 C1097 0.959 . S
H1104 C1097 0.961 . S
H1105 C1097 0.960 . S
H1106 C1098 0.930 . S
H1107 C1099 0.929 . S
H1108 C1116 0.929 . S
H1109 C1118 0.930 . S
H1110 C1120 0.930 . S
H1111 C1123 0.929 . S
H1112 C1126 0.930 . S
H1113 C1128 0.960 . S
H1114 C1128 0.960 . S
H1115 C1128 0.960 . S
C1116 H1108 0.929 . S
C1116 C1117 1.377 . S
C1116 C1118 1.384 . S
C1117 C1116 1.377 . S
C1117 C1123 1.390 . S
C1118 H1109 0.930 . S
C1118 C1116 1.384 . S
C1118 C1119 1.372 . S
C1119 C1118 1.372 . S
C1119 C1120 1.400 . S
C1119 C1124 1.490 . S
C1120 H1110 0.930 . S
C1120 C1119 1.400 . S
C1120 C1123 1.386 . S
H1121 C1137 0.930 . S
H1122 C1138 0.931 . S
C1123 H1111 0.929 . S
C1123 C1117 1.390 . S
C1123 C1120 1.386 . S
C1124 C1119 1.490 . S
C1124 C1126 1.395 . S
C1124 C1127 1.403 . S
H1125 C1131 0.930 . S
C1126 H1112 0.930 . S
C1126 C1124 1.395 . S
C1126 C1129 1.403 . S
C1127 C1124 1.403 . S
C1127 C1128 1.524 . S
C1127 C1131 1.400 . S
C1128 H1113 0.960 . S
C1128 H1114 0.960 . S
C1128 H1115 0.960 . S
C1128 C1127 1.524 . S
C1129 C1126 1.403 . S
C1129 C1130 1.392 . S
C1129 C1133 1.495 . S
C1130 C1129 1.392 . S
C1130 C1131 1.385 . S
C1130 C1132 1.478 . S
C1131 H1125 0.930 . S
C1131 C1127 1.400 . S
C1131 C1130 1.385 . S
C1132 C1130 1.478 . S
C1132 C1134 1.381 . S
C1132 C1138 1.383 . S
C1133 C1129 1.495 . S
C1133 H1139 0.959 . S
C1133 H1140 0.961 . S
C1133 H1141 0.960 . S
C1134 C1132 1.381 . S
C1134 C1135 1.394 . S
C1134 H1142 0.930 . S
C1135 C1134 1.394 . S
C1135 C1136 1.383 . S
C1135 H1143 0.929 . S
C1136 C1135 1.383 . S
C1136 C1137 1.377 . S
C1137 H1121 0.930 . S
C1137 C1136 1.377 . S
C1137 C1138 1.379 . S
C1138 H1122 0.931 . S
C1138 C1132 1.383 . S
C1138 C1137 1.379 . S
H1139 C1133 0.959 . S
H1140 C1133 0.961 . S
H1141 C1133 0.960 . S
H1142 C1134 0.930 . S
H1143 C1135 0.929 . S
H1144 C1152 0.929 . S
H1145 C1154 0.930 . S
H1146 C1156 0.930 . S
H1147 C1159 0.929 . S
H1148 C1162 0.930 . S
H1149 C1164 0.960 1_655 S
H1150 C1164 0.960 . S
H1151 C1164 0.960 . S
C1152 H1144 0.929 . S
C1152 C1153 1.377 . S
C1152 C1154 1.384 . S
C1153 C1152 1.377 . S
C1153 C1159 1.390 . S
C1154 H1145 0.930 . S
C1154 C1152 1.384 . S
C1154 C1155 1.372 . S
C1155 C1154 1.372 . S
C1155 C1156 1.400 . S
C1155 C1160 1.490 . S
C1156 H1146 0.930 . S
C1156 C1155 1.400 . S
C1156 C1159 1.386 . S
H1157 C1173 0.930 . S
H1158 C1174 0.931 . S
C1159 H1147 0.929 . S
C1159 C1153 1.390 . S
C1159 C1156 1.386 . S
C1160 C1155 1.490 . S
C1160 C1162 1.395 . S
C1160 C1163 1.403 . S
H1161 C1167 0.930 . S
C1162 H1148 0.930 . S
C1162 C1160 1.395 . S
C1162 C1165 1.403 1_455 S
C1163 C1160 1.403 . S
C1163 C1164 1.524 . S
C1163 C1167 1.400 1_455 S
C1164 H1149 0.960 1_455 S
C1164 H1150 0.960 . S
C1164 H1151 0.960 . S
C1164 C1163 1.524 . S
C1165 C1162 1.403 1_655 S
C1165 C1166 1.392 . S
C1165 C1169 1.495 . S
C1166 C1165 1.392 . S
C1166 C1167 1.385 . S
C1166 C1168 1.478 . S
C1167 H1161 0.930 . S
C1167 C1163 1.400 1_655 S
C1167 C1166 1.385 . S
C1168 C1166 1.478 . S
C1168 C1170 1.381 . S
C1168 C1174 1.383 . S
C1169 C1165 1.495 . S
C1169 H1175 0.959 1_655 S
C1169 H1176 0.961 . S
C1169 H1177 0.960 . S
C1170 C1168 1.381 . S
C1170 C1171 1.394 . S
C1170 H1178 0.930 . S
C1171 C1170 1.394 . S
C1171 C1172 1.383 . S
C1171 H1179 0.929 . S
C1172 C1171 1.383 . S
C1172 C1173 1.377 . S
C1173 H1157 0.930 . S
C1173 C1172 1.377 . S
C1173 C1174 1.379 . S
C1174 H1158 0.931 . S
C1174 C1168 1.383 . S
C1174 C1173 1.379 . S
H1175 C1169 0.959 1_455 S
H1176 C1169 0.961 . S
H1177 C1169 0.960 . S
H1178 C1170 0.930 . S
H1179 C1171 0.929 . S
H1180 C1188 0.929 . S
H1181 C1190 0.930 . S
H1182 C1192 0.930 . S
H1183 C1195 0.929 . S
H1184 C1198 0.930 . S
H1185 C1200 0.960 . S
H1186 C1200 0.960 . S
H1187 C1200 0.960 . S
C1188 H1180 0.929 . S
C1188 C1189 1.377 . S
C1188 C1190 1.384 . S
C1189 C1188 1.377 . S
C1189 C1195 1.390 . S
C1190 H1181 0.930 . S
C1190 C1188 1.384 . S
C1190 C1191 1.372 . S
C1191 C1190 1.372 . S
C1191 C1192 1.400 . S
C1191 C1196 1.490 . S
C1192 H1182 0.930 . S
C1192 C1191 1.400 . S
C1192 C1195 1.386 . S
H1193 C1209 0.930 . S
H1194 C1210 0.931 . S
C1195 H1183 0.929 . S
C1195 C1189 1.390 . S
C1195 C1192 1.386 . S
C1196 C1191 1.490 . S
C1196 C1198 1.395 1_554 S
C1196 C1199 1.403 . S
H1197 C1203 0.930 . S
C1198 H1184 0.930 . S
C1198 C1196 1.395 1_556 S
C1198 C1201 1.403 . S
C1199 C1196 1.403 . S
C1199 C1200 1.524 . S
C1199 C1203 1.400 . S
C1200 H1185 0.960 . S
C1200 H1186 0.960 . S
C1200 H1187 0.960 . S
C1200 C1199 1.524 . S
C1201 C1198 1.403 . S
C1201 C1202 1.392 . S
C1201 C1205 1.495 . S
C1202 C1201 1.392 . S
C1202 C1203 1.385 1_556 S
C1202 C1204 1.478 . S
C1203 H1197 0.930 . S
C1203 C1199 1.400 . S
C1203 C1202 1.385 1_554 S
C1204 C1202 1.478 . S
C1204 C1206 1.381 . S
C1204 C1210 1.383 . S
C1205 C1201 1.495 . S
C1205 H1211 0.959 . S
C1205 H1212 0.961 . S
C1205 H1213 0.960 . S
C1206 C1204 1.381 . S
C1206 C1207 1.394 . S
C1206 H1214 0.930 . S
C1207 C1206 1.394 . S
C1207 C1208 1.383 . S
C1207 H1215 0.929 . S
C1208 C1207 1.383 . S
C1208 C1209 1.377 . S
C1209 H1193 0.930 . S
C1209 C1208 1.377 . S
C1209 C1210 1.379 . S
C1210 H1194 0.931 . S
C1210 C1204 1.383 . S
C1210 C1209 1.379 . S
H1211 C1205 0.959 . S
H1212 C1205 0.961 . S
H1213 C1205 0.960 . S
H1214 C1206 0.930 . S
H1215 C1207 0.929 . S
H1216 C1224 0.929 . S
H1217 C1226 0.930 . S
H1218 C1228 0.930 . S
H1219 C1231 0.929 . S
H1220 C1234 0.930 . S
H1221 C1236 0.960 . S
H1222 C1236 0.960 . S
H1223 C1236 0.960 . S
C1224 H1216 0.929 . S
C1224 C1225 1.377 . S
C1224 C1226 1.384 . S
C1225 C1224 1.377 . S
C1225 C1231 1.390 . S
C1226 H1217 0.930 . S
C1226 C1224 1.384 . S
C1226 C1227 1.372 . S
C1227 C1226 1.372 . S
C1227 C1228 1.400 . S
C1227 C1232 1.490 . S
C1228 H1218 0.930 . S
C1228 C1227 1.400 . S
C1228 C1231 1.386 . S
H1229 C1245 0.930 . S
H1230 C1246 0.931 . S
C1231 H1219 0.929 . S
C1231 C1225 1.390 . S
C1231 C1228 1.386 . S
C1232 C1227 1.490 . S
C1232 C1234 1.395 . S
C1232 C1235 1.403 . S
H1233 C1239 0.930 . S
C1234 H1220 0.930 . S
C1234 C1232 1.395 . S
C1234 C1237 1.403 . S
C1235 C1232 1.403 . S
C1235 C1236 1.524 . S
C1235 C1239 1.400 . S
C1236 H1221 0.960 . S
C1236 H1222 0.960 . S
C1236 H1223 0.960 . S
C1236 C1235 1.524 . S
C1237 C1234 1.403 . S
C1237 C1238 1.392 . S
C1237 C1241 1.495 . S
C1238 C1237 1.392 . S
C1238 C1239 1.385 . S
C1238 C1240 1.478 . S
C1239 H1233 0.930 . S
C1239 C1235 1.400 . S
C1239 C1238 1.385 . S
C1240 C1238 1.478 . S
C1240 C1242 1.381 . S
C1240 C1246 1.383 . S
C1241 C1237 1.495 . S
C1241 H1247 0.959 . S
C1241 H1248 0.961 . S
C1241 H1249 0.960 . S
C1242 C1240 1.381 . S
C1242 C1243 1.394 . S
C1242 H1250 0.930 . S
C1243 C1242 1.394 . S
C1243 C1244 1.383 . S
C1243 H1251 0.929 . S
C1244 C1243 1.383 . S
C1244 C1245 1.377 . S
C1245 H1229 0.930 . S
C1245 C1244 1.377 . S
C1245 C1246 1.379 . S
C1246 H1230 0.931 . S
C1246 C1240 1.383 . S
C1246 C1245 1.379 . S
H1247 C1241 0.959 . S
H1248 C1241 0.961 . S
H1249 C1241 0.960 . S
H1250 C1242 0.930 . S
H1251 C1243 0.929 . S
H1252 C1260 0.929 . S
H1253 C1262 0.930 . S
H1254 C1264 0.930 . S
H1255 C1267 0.929 . S
H1256 C1270 0.930 . S
H1257 C1272 0.960 . S
H1258 C1272 0.960 . S
H1259 C1272 0.960 . S
C1260 H1252 0.929 . S
C1260 C1261 1.377 . S
C1260 C1262 1.384 . S
C1261 C1260 1.377 . S
C1261 C1267 1.390 . S
C1262 H1253 0.930 . S
C1262 C1260 1.384 . S
C1262 C1263 1.372 . S
C1263 C1262 1.372 . S
C1263 C1264 1.400 . S
C1263 C1268 1.490 . S
C1264 H1254 0.930 . S
C1264 C1263 1.400 . S
C1264 C1267 1.386 . S
H1265 C1281 0.930 . S
H1266 C1282 0.931 . S
C1267 H1255 0.929 . S
C1267 C1261 1.390 . S
C1267 C1264 1.386 . S
C1268 C1263 1.490 . S
C1268 C1270 1.395 . S
C1268 C1271 1.403 . S
H1269 C1275 0.930 . S
C1270 H1256 0.930 . S
C1270 C1268 1.395 . S
C1270 C1273 1.403 . S
C1271 C1268 1.403 . S
C1271 C1272 1.524 . S
C1271 C1275 1.400 . S
C1272 H1257 0.960 . S
C1272 H1258 0.960 . S
C1272 H1259 0.960 . S
C1272 C1271 1.524 . S
C1273 C1270 1.403 . S
C1273 C1274 1.392 . S
C1273 C1277 1.495 . S
C1274 C1273 1.392 . S
C1274 C1275 1.385 . S
C1274 C1276 1.478 . S
C1275 H1269 0.930 . S
C1275 C1271 1.400 . S
C1275 C1274 1.385 . S
C1276 C1274 1.478 . S
C1276 C1278 1.381 . S
C1276 C1282 1.383 . S
C1277 C1273 1.495 . S
C1277 H1283 0.959 . S
C1277 H1284 0.961 . S
C1277 H1285 0.960 . S
C1278 C1276 1.381 . S
C1278 C1279 1.394 . S
C1278 H1286 0.930 . S
C1279 C1278 1.394 . S
C1279 C1280 1.383 . S
C1279 H1287 0.929 . S
C1280 C1279 1.383 . S
C1280 C1281 1.377 . S
C1281 H1265 0.930 . S
C1281 C1280 1.377 . S
C1281 C1282 1.379 . S
C1282 H1266 0.931 . S
C1282 C1276 1.383 . S
C1282 C1281 1.379 . S
H1283 C1277 0.959 . S
H1284 C1277 0.961 . S
H1285 C1277 0.960 . S
H1286 C1278 0.930 . S
H1287 C1279 0.929 . S
H1288 C1296 0.929 . S
H1289 C1298 0.930 . S
H1290 C1300 0.930 . S
H1291 C1303 0.929 . S
H1292 C1306 0.930 . S
H1293 C1308 0.960 . S
H1294 C1308 0.960 . S
H1295 C1308 0.960 . S
C1296 H1288 0.929 . S
C1296 C1297 1.377 . S
C1296 C1298 1.384 . S
C1297 C1296 1.377 . S
C1297 C1303 1.390 . S
C1298 H1289 0.930 . S
C1298 C1296 1.384 . S
C1298 C1299 1.372 . S
C1299 C1298 1.372 . S
C1299 C1300 1.400 . S
C1299 C1304 1.490 . S
C1300 H1290 0.930 . S
C1300 C1299 1.400 . S
C1300 C1303 1.386 . S
H1301 C1317 0.930 . S
H1302 C1318 0.931 . S
C1303 H1291 0.929 . S
C1303 C1297 1.390 . S
C1303 C1300 1.386 . S
C1304 C1299 1.490 . S
C1304 C1306 1.395 . S
C1304 C1307 1.403 . S
H1305 C1311 0.930 . S
C1306 H1292 0.930 . S
C1306 C1304 1.395 . S
C1306 C1309 1.403 . S
C1307 C1304 1.403 . S
C1307 C1308 1.524 . S
C1307 C1311 1.400 . S
C1308 H1293 0.960 . S
C1308 H1294 0.960 . S
C1308 H1295 0.960 . S
C1308 C1307 1.524 . S
C1309 C1306 1.403 . S
C1309 C1310 1.392 . S
C1309 C1313 1.495 . S
C1310 C1309 1.392 . S
C1310 C1311 1.385 . S
C1310 C1312 1.478 . S
C1311 H1305 0.930 . S
C1311 C1307 1.400 . S
C1311 C1310 1.385 . S
C1312 C1310 1.478 . S
C1312 C1314 1.381 . S
C1312 C1318 1.383 . S
C1313 C1309 1.495 . S
C1313 H1319 0.959 . S
C1313 H1320 0.961 . S
C1313 H1321 0.960 . S
C1314 C1312 1.381 . S
C1314 C1315 1.394 . S
C1314 H1322 0.930 . S
C1315 C1314 1.394 . S
C1315 C1316 1.383 . S
C1315 H1323 0.929 . S
C1316 C1315 1.383 . S
C1316 C1317 1.377 . S
C1317 H1301 0.930 . S
C1317 C1316 1.377 . S
C1317 C1318 1.379 . S
C1318 H1302 0.931 . S
C1318 C1312 1.383 . S
C1318 C1317 1.379 . S
H1319 C1313 0.959 . S
H1320 C1313 0.961 . S
H1321 C1313 0.960 . S
H1322 C1314 0.930 . S
H1323 C1315 0.929 . S
H1324 C1332 0.929 . S
H1325 C1334 0.930 . S
H1326 C1336 0.930 . S
H1327 C1339 0.929 . S
H1328 C1342 0.930 . S
H1329 C1344 0.960 . S
H1330 C1344 0.960 . S
H1331 C1344 0.960 . S
C1332 H1324 0.929 . S
C1332 C1333 1.377 . S
C1332 C1334 1.384 . S
C1333 C1332 1.377 . S
C1333 C1339 1.390 . S
C1334 H1325 0.930 . S
C1334 C1332 1.384 . S
C1334 C1335 1.372 . S
C1335 C1334 1.372 . S
C1335 C1336 1.400 . S
C1335 C1340 1.490 . S
C1336 H1326 0.930 . S
C1336 C1335 1.400 . S
C1336 C1339 1.386 . S
H1337 C1353 0.930 . S
H1338 C1354 0.931 . S
C1339 H1327 0.929 . S
C1339 C1333 1.390 . S
C1339 C1336 1.386 . S
C1340 C1335 1.490 . S
C1340 C1342 1.395 . S
C1340 C1343 1.403 . S
H1341 C1347 0.930 . S
C1342 H1328 0.930 . S
C1342 C1340 1.395 . S
C1342 C1345 1.403 . S
C1343 C1340 1.403 . S
C1343 C1344 1.524 . S
C1343 C1347 1.400 . S
C1344 H1329 0.960 . S
C1344 H1330 0.960 . S
C1344 H1331 0.960 . S
C1344 C1343 1.524 . S
C1345 C1342 1.403 . S
C1345 C1346 1.392 . S
C1345 C1349 1.495 . S
C1346 C1345 1.392 . S
C1346 C1347 1.385 . S
C1346 C1348 1.478 . S
C1347 H1341 0.930 . S
C1347 C1343 1.400 . S
C1347 C1346 1.385 . S
C1348 C1346 1.478 . S
C1348 C1350 1.381 . S
C1348 C1354 1.383 . S
C1349 C1345 1.495 . S
C1349 H1355 0.959 . S
C1349 H1356 0.961 . S
C1349 H1357 0.960 . S
C1350 C1348 1.381 . S
C1350 C1351 1.394 . S
C1350 H1358 0.930 . S
C1351 C1350 1.394 . S
C1351 C1352 1.383 . S
C1351 H1359 0.929 . S
C1352 C1351 1.383 . S
C1352 C1353 1.377 . S
C1353 H1337 0.930 . S
C1353 C1352 1.377 . S
C1353 C1354 1.379 . S
C1354 H1338 0.931 . S
C1354 C1348 1.383 . S
C1354 C1353 1.379 . S
H1355 C1349 0.959 . S
H1356 C1349 0.961 . S
H1357 C1349 0.960 . S
H1358 C1350 0.930 . S
H1359 C1351 0.929 . S
H1360 C1368 0.929 . S
H1361 C1370 0.930 . S
H1362 C1372 0.930 . S
H1363 C1375 0.929 . S
H1364 C1378 0.930 . S
H1365 C1380 0.960 . S
H1366 C1380 0.960 . S
H1367 C1380 0.960 . S
C1368 H1360 0.929 . S
C1368 C1369 1.377 . S
C1368 C1370 1.384 . S
C1369 C1368 1.377 . S
C1369 C1375 1.390 . S
C1370 H1361 0.930 . S
C1370 C1368 1.384 . S
C1370 C1371 1.372 . S
C1371 C1370 1.372 . S
C1371 C1372 1.400 . S
C1371 C1376 1.490 . S
C1372 H1362 0.930 . S
C1372 C1371 1.400 . S
C1372 C1375 1.386 . S
H1373 C1389 0.930 . S
H1374 C1390 0.931 . S
C1375 H1363 0.929 . S
C1375 C1369 1.390 . S
C1375 C1372 1.386 . S
C1376 C1371 1.490 . S
C1376 C1378 1.395 . S
C1376 C1379 1.403 . S
H1377 C1383 0.930 . S
C1378 H1364 0.930 . S
C1378 C1376 1.395 . S
C1378 C1381 1.403 . S
C1379 C1376 1.403 . S
C1379 C1380 1.524 . S
C1379 C1383 1.400 . S
C1380 H1365 0.960 . S
C1380 H1366 0.960 . S
C1380 H1367 0.960 . S
C1380 C1379 1.524 . S
C1381 C1378 1.403 . S
C1381 C1382 1.392 . S
C1381 C1385 1.495 . S
C1382 C1381 1.392 . S
C1382 C1383 1.385 . S
C1382 C1384 1.478 . S
C1383 H1377 0.930 . S
C1383 C1379 1.400 . S
C1383 C1382 1.385 . S
C1384 C1382 1.478 . S
C1384 C1386 1.381 . S
C1384 C1390 1.383 . S
C1385 C1381 1.495 . S
C1385 H1391 0.959 . S
C1385 H1392 0.961 . S
C1385 H1393 0.960 . S
C1386 C1384 1.381 . S
C1386 C1387 1.394 . S
C1386 H1394 0.930 . S
C1387 C1386 1.394 . S
C1387 C1388 1.383 . S
C1387 H1395 0.929 . S
C1388 C1387 1.383 . S
C1388 C1389 1.377 . S
C1389 H1373 0.930 . S
C1389 C1388 1.377 . S
C1389 C1390 1.379 . S
C1390 H1374 0.931 . S
C1390 C1384 1.383 . S
C1390 C1389 1.379 . S
H1391 C1385 0.959 . S
H1392 C1385 0.961 . S
H1393 C1385 0.960 . S
H1394 C1386 0.930 . S
H1395 C1387 0.929 . S
H1396 C1404 0.929 . S
H1397 C1406 0.930 . S
H1398 C1408 0.930 . S
H1399 C1411 0.929 . S
H1400 C1414 0.930 . S
H1401 C1416 0.960 . S
H1402 C1416 0.960 . S
H1403 C1416 0.960 . S
C1404 H1396 0.929 . S
C1404 C1405 1.377 . S
C1404 C1406 1.384 . S
C1405 C1404 1.377 . S
C1405 C1411 1.390 . S
C1406 H1397 0.930 . S
C1406 C1404 1.384 . S
C1406 C1407 1.372 . S
C1407 C1406 1.372 . S
C1407 C1408 1.400 . S
C1407 C1412 1.490 . S
C1408 H1398 0.930 . S
C1408 C1407 1.400 . S
C1408 C1411 1.386 . S
H1409 C1425 0.930 . S
H1410 C1426 0.931 . S
C1411 H1399 0.929 . S
C1411 C1405 1.390 . S
C1411 C1408 1.386 . S
C1412 C1407 1.490 . S
C1412 C1414 1.395 . S
C1412 C1415 1.403 . S
H1413 C1419 0.930 . S
C1414 H1400 0.930 . S
C1414 C1412 1.395 . S
C1414 C1417 1.403 . S
C1415 C1412 1.403 . S
C1415 C1416 1.524 . S
C1415 C1419 1.400 . S
C1416 H1401 0.960 . S
C1416 H1402 0.960 . S
C1416 H1403 0.960 . S
C1416 C1415 1.524 . S
C1417 C1414 1.403 . S
C1417 C1418 1.392 . S
C1417 C1421 1.495 . S
C1418 C1417 1.392 . S
C1418 C1419 1.385 . S
C1418 C1420 1.478 . S
C1419 H1413 0.930 . S
C1419 C1415 1.400 . S
C1419 C1418 1.385 . S
C1420 C1418 1.478 . S
C1420 C1422 1.381 . S
C1420 C1426 1.383 . S
C1421 C1417 1.495 . S
C1421 H1427 0.959 . S
C1421 H1428 0.961 . S
C1421 H1429 0.960 . S
C1422 C1420 1.381 . S
C1422 C1423 1.394 . S
C1422 H1430 0.930 . S
C1423 C1422 1.394 . S
C1423 C1424 1.383 . S
C1423 H1431 0.929 . S
C1424 C1423 1.383 . S
C1424 C1425 1.377 . S
C1425 H1409 0.930 . S
C1425 C1424 1.377 . S
C1425 C1426 1.379 . S
C1426 H1410 0.931 . S
C1426 C1420 1.383 . S
C1426 C1425 1.379 . S
H1427 C1421 0.959 . S
H1428 C1421 0.961 . S
H1429 C1421 0.960 . S
H1430 C1422 0.930 . S
H1431 C1423 0.929 . S
H1432 C1440 0.929 . S
H1433 C1442 0.930 . S
H1434 C1444 0.930 . S
H1435 C1447 0.929 . S
H1436 C1450 0.930 . S
H1437 C1452 0.960 . S
H1438 C1452 0.960 . S
H1439 C1452 0.960 . S
C1440 H1432 0.929 . S
C1440 C1441 1.377 . S
C1440 C1442 1.384 . S
C1441 C1440 1.377 . S
C1441 C1447 1.390 . S
C1442 H1433 0.930 . S
C1442 C1440 1.384 . S
C1442 C1443 1.372 . S
C1443 C1442 1.372 . S
C1443 C1444 1.400 . S
C1443 C1448 1.490 . S
C1444 H1434 0.930 . S
C1444 C1443 1.400 . S
C1444 C1447 1.386 . S
H1445 C1461 0.930 . S
H1446 C1462 0.931 . S
C1447 H1435 0.929 . S
C1447 C1441 1.390 . S
C1447 C1444 1.386 . S
C1448 C1443 1.490 . S
C1448 C1450 1.395 . S
C1448 C1451 1.403 . S
H1449 C1455 0.930 . S
C1450 H1436 0.930 . S
C1450 C1448 1.395 . S
C1450 C1453 1.403 . S
C1451 C1448 1.403 . S
C1451 C1452 1.524 . S
C1451 C1455 1.400 . S
C1452 H1437 0.960 . S
C1452 H1438 0.960 . S
C1452 H1439 0.960 . S
C1452 C1451 1.524 . S
C1453 C1450 1.403 . S
C1453 C1454 1.392 . S
C1453 C1457 1.495 . S
C1454 C1453 1.392 . S
C1454 C1455 1.385 . S
C1454 C1456 1.478 . S
C1455 H1449 0.930 . S
C1455 C1451 1.400 . S
C1455 C1454 1.385 . S
C1456 C1454 1.478 . S
C1456 C1458 1.381 . S
C1456 C1462 1.383 . S
C1457 C1453 1.495 . S
C1457 H1463 0.959 . S
C1457 H1464 0.961 . S
C1457 H1465 0.960 . S
C1458 C1456 1.381 . S
C1458 C1459 1.394 . S
C1458 H1466 0.930 . S
C1459 C1458 1.394 . S
C1459 C1460 1.383 . S
C1459 H1467 0.929 . S
C1460 C1459 1.383 . S
C1460 C1461 1.377 . S
C1461 H1445 0.930 . S
C1461 C1460 1.377 . S
C1461 C1462 1.379 . S
C1462 H1446 0.931 . S
C1462 C1456 1.383 . S
C1462 C1461 1.379 . S
H1463 C1457 0.959 . S
H1464 C1457 0.961 . S
H1465 C1457 0.960 . S
H1466 C1458 0.930 . S
H1467 C1459 0.929 . S
H1468 C1476 0.929 . S
H1469 C1478 0.930 . S
H1470 C1480 0.930 . S
H1471 C1483 0.929 . S
H1472 C1486 0.930 . S
H1473 C1488 0.960 . S
H1474 C1488 0.960 . S
H1475 C1488 0.960 . S
C1476 H1468 0.929 . S
C1476 C1477 1.377 . S
C1476 C1478 1.384 . S
C1477 C1476 1.377 . S
C1477 C1483 1.390 . S
C1478 H1469 0.930 . S
C1478 C1476 1.384 . S
C1478 C1479 1.372 . S
C1479 C1478 1.372 . S
C1479 C1480 1.400 . S
C1479 C1484 1.490 . S
C1480 H1470 0.930 . S
C1480 C1479 1.400 . S
C1480 C1483 1.386 . S
H1481 C1497 0.930 . S
H1482 C1498 0.931 . S
C1483 H1471 0.929 . S
C1483 C1477 1.390 . S
C1483 C1480 1.386 . S
C1484 C1479 1.490 . S
C1484 C1486 1.395 . S
C1484 C1487 1.403 . S
H1485 C1491 0.930 . S
C1486 H1472 0.930 . S
C1486 C1484 1.395 . S
C1486 C1489 1.403 . S
C1487 C1484 1.403 . S
C1487 C1488 1.524 . S
C1487 C1491 1.400 . S
C1488 H1473 0.960 . S
C1488 H1474 0.960 . S
C1488 H1475 0.960 . S
C1488 C1487 1.524 . S
C1489 C1486 1.403 . S
C1489 C1490 1.392 . S
C1489 C1493 1.495 . S
C1490 C1489 1.392 . S
C1490 C1491 1.385 . S
C1490 C1492 1.478 . S
C1491 H1485 0.930 . S
C1491 C1487 1.400 . S
C1491 C1490 1.385 . S
C1492 C1490 1.478 . S
C1492 C1494 1.381 . S
C1492 C1498 1.383 . S
C1493 C1489 1.495 . S
C1493 H1499 0.959 . S
C1493 H1500 0.961 . S
C1493 H1501 0.960 . S
C1494 C1492 1.381 . S
C1494 C1495 1.394 . S
C1494 H1502 0.930 . S
C1495 C1494 1.394 . S
C1495 C1496 1.383 . S
C1495 H1503 0.929 . S
C1496 C1495 1.383 . S
C1496 C1497 1.377 . S
C1497 H1481 0.930 . S
C1497 C1496 1.377 . S
C1497 C1498 1.379 . S
C1498 H1482 0.931 . S
C1498 C1492 1.383 . S
C1498 C1497 1.379 . S
H1499 C1493 0.959 . S
H1500 C1493 0.961 . S
H1501 C1493 0.960 . S
H1502 C1494 0.930 . S
H1503 C1495 0.929 . S
H1504 C1512 0.929 . S
H1505 C1514 0.930 . S
H1506 C1516 0.930 . S
H1507 C1519 0.929 . S
H1508 C1522 0.930 . S
H1509 C1524 0.960 . S
H1510 C1524 0.960 . S
H1511 C1524 0.960 . S
C1512 H1504 0.929 . S
C1512 C1513 1.377 . S
C1512 C1514 1.384 . S
C1513 C1512 1.377 . S
C1513 C1519 1.390 . S
C1514 H1505 0.930 . S
C1514 C1512 1.384 . S
C1514 C1515 1.372 . S
C1515 C1514 1.372 . S
C1515 C1516 1.400 . S
C1515 C1520 1.490 . S
C1516 H1506 0.930 . S
C1516 C1515 1.400 . S
C1516 C1519 1.386 . S
H1517 C1533 0.930 . S
H1518 C1534 0.931 . S
C1519 H1507 0.929 . S
C1519 C1513 1.390 . S
C1519 C1516 1.386 . S
C1520 C1515 1.490 . S
C1520 C1522 1.395 . S
C1520 C1523 1.403 . S
H1521 C1527 0.930 . S
C1522 H1508 0.930 . S
C1522 C1520 1.395 . S
C1522 C1525 1.403 . S
C1523 C1520 1.403 . S
C1523 C1524 1.524 . S
C1523 C1527 1.400 . S
C1524 H1509 0.960 . S
C1524 H1510 0.960 . S
C1524 H1511 0.960 . S
C1524 C1523 1.524 . S
C1525 C1522 1.403 . S
C1525 C1526 1.392 . S
C1525 C1529 1.495 . S
C1526 C1525 1.392 . S
C1526 C1527 1.385 . S
C1526 C1528 1.478 . S
C1527 H1521 0.930 . S
C1527 C1523 1.400 . S
C1527 C1526 1.385 . S
C1528 C1526 1.478 . S
C1528 C1530 1.381 . S
C1528 C1534 1.383 . S
C1529 C1525 1.495 . S
C1529 H1535 0.959 . S
C1529 H1536 0.961 . S
C1529 H1537 0.960 . S
C1530 C1528 1.381 . S
C1530 C1531 1.394 . S
C1530 H1538 0.930 . S
C1531 C1530 1.394 . S
C1531 C1532 1.383 1_565 S
C1531 H1539 0.929 1_565 S
C1532 C1531 1.383 1_545 S
C1532 C1533 1.377 1_545 S
C1533 H1517 0.930 . S
C1533 C1532 1.377 1_565 S
C1533 C1534 1.379 . S
C1534 H1518 0.931 . S
C1534 C1528 1.383 . S
C1534 C1533 1.379 . S
H1535 C1529 0.959 . S
H1536 C1529 0.961 . S
H1537 C1529 0.960 . S
H1538 C1530 0.930 . S
H1539 C1531 0.929 1_545 S
H1540 C1548 0.929 . S
H1541 C1550 0.930 . S
H1542 C1552 0.930 . S
H1543 C1555 0.929 . S
H1544 C1558 0.930 . S
H1545 C1560 0.960 . S
H1546 C1560 0.960 . S
H1547 C1560 0.960 . S
C1548 H1540 0.929 . S
C1548 C1549 1.377 . S
C1548 C1550 1.384 . S
C1549 C1548 1.377 . S
C1549 C1555 1.390 . S
C1550 H1541 0.930 . S
C1550 C1548 1.384 . S
C1550 C1551 1.372 . S
C1551 C1550 1.372 . S
C1551 C1552 1.400 . S
C1551 C1556 1.490 . S
C1552 H1542 0.930 . S
C1552 C1551 1.400 . S
C1552 C1555 1.386 . S
H1553 C1569 0.930 . S
H1554 C1570 0.931 . S
C1555 H1543 0.929 . S
C1555 C1549 1.390 . S
C1555 C1552 1.386 . S
C1556 C1551 1.490 . S
C1556 C1558 1.395 . S
C1556 C1559 1.403 . S
H1557 C1563 0.930 . S
C1558 H1544 0.930 . S
C1558 C1556 1.395 . S
C1558 C1561 1.403 . S
C1559 C1556 1.403 . S
C1559 C1560 1.524 . S
C1559 C1563 1.400 . S
C1560 H1545 0.960 . S
C1560 H1546 0.960 . S
C1560 H1547 0.960 . S
C1560 C1559 1.524 . S
C1561 C1558 1.403 . S
C1561 C1562 1.392 . S
C1561 C1565 1.495 . S
C1562 C1561 1.392 . S
C1562 C1563 1.385 . S
C1562 C1564 1.478 . S
C1563 H1557 0.930 . S
C1563 C1559 1.400 . S
C1563 C1562 1.385 . S
C1564 C1562 1.478 . S
C1564 C1566 1.381 . S
C1564 C1570 1.383 . S
C1565 C1561 1.495 . S
C1565 H1571 0.959 . S
C1565 H1572 0.961 . S
C1565 H1573 0.960 . S
C1566 C1564 1.381 . S
C1566 C1567 1.394 . S
C1566 H1574 0.930 . S
C1567 C1566 1.394 . S
C1567 C1568 1.383 . S
C1567 H1575 0.929 . S
C1568 C1567 1.383 . S
C1568 C1569 1.377 . S
C1569 H1553 0.930 . S
C1569 C1568 1.377 . S
C1569 C1570 1.379 . S
C1570 H1554 0.931 . S
C1570 C1564 1.383 . S
C1570 C1569 1.379 . S
H1571 C1565 0.959 . S
H1572 C1565 0.961 . S
H1573 C1565 0.960 . S
H1574 C1566 0.930 . S
H1575 C1567 0.929 . S
H1576 C1584 0.931 1_565 S
H1577 C1586 0.930 . S
H1578 C1588 0.930 . S
H1579 C1591 0.929 . S
H1580 C1594 0.930 . S
H1581 C1596 0.960 . S
H1582 C1596 0.960 . S
H1583 C1596 0.960 . S
C1584 H1576 0.931 1_545 S
C1584 C1585 1.372 1_545 S
C1584 C1586 1.384 . S
C1585 C1584 1.372 1_565 S
C1585 C1591 1.382 1_565 S
C1586 H1577 0.930 . S
C1586 C1584 1.384 . S
C1586 C1587 1.372 . S
C1587 C1586 1.372 . S
C1587 C1588 1.400 . S
C1587 C1592 1.490 . S
C1588 H1578 0.930 . S
C1588 C1587 1.400 . S
C1588 C1591 1.386 . S
H1589 C1605 0.930 . S
H1590 C1606 0.931 . S
C1591 H1579 0.929 . S
C1591 C1585 1.382 1_545 S
C1591 C1588 1.386 . S
C1592 C1587 1.490 . S
C1592 C1594 1.395 . S
C1592 C1595 1.403 . S
H1593 C1599 0.930 . S
C1594 H1580 0.930 . S
C1594 C1592 1.395 . S
C1594 C1597 1.403 . S
C1595 C1592 1.403 . S
C1595 C1596 1.524 . S
C1595 C1599 1.400 . S
C1596 H1581 0.960 . S
C1596 H1582 0.960 . S
C1596 H1583 0.960 . S
C1596 C1595 1.524 . S
C1597 C1594 1.403 . S
C1597 C1598 1.392 . S
C1597 C1601 1.495 . S
C1598 C1597 1.392 . S
C1598 C1599 1.385 . S
C1598 C1600 1.478 . S
C1599 H1593 0.930 . S
C1599 C1595 1.400 . S
C1599 C1598 1.385 . S
C1600 C1598 1.478 . S
C1600 C1602 1.381 . S
C1600 C1606 1.383 . S
C1601 C1597 1.495 . S
C1601 H1607 0.959 . S
C1601 H1608 0.961 . S
C1601 H1609 0.960 . S
C1602 C1600 1.381 . S
C1602 C1603 1.394 . S
C1602 H1610 0.930 . S
C1603 C1602 1.394 . S
C1603 C1604 1.383 . S
C1603 H1611 0.929 . S
C1604 C1603 1.383 . S
C1604 C1605 1.377 . S
C1605 H1589 0.930 . S
C1605 C1604 1.377 . S
C1605 C1606 1.379 . S
C1606 H1590 0.931 . S
C1606 C1600 1.383 . S
C1606 C1605 1.379 . S
H1607 C1601 0.959 . S
H1608 C1601 0.961 . S
H1609 C1601 0.960 . S
H1610 C1602 0.930 . S
H1611 C1603 0.929 . S
H1612 C1620 0.929 . S
H1613 C1622 0.930 . S
H1614 C1624 0.930 . S
H1615 C1627 0.929 . S
H1616 C1630 0.930 . S
H1617 C1632 0.960 . S
H1618 C1632 0.960 . S
H1619 C1632 0.960 . S
C1620 H1612 0.929 . S
C1620 C1621 1.377 . S
C1620 C1622 1.384 . S
C1621 C1620 1.377 . S
C1621 C1627 1.390 . S
C1622 H1613 0.930 . S
C1622 C1620 1.384 . S
C1622 C1623 1.372 . S
C1623 C1622 1.372 . S
C1623 C1624 1.400 . S
C1623 C1628 1.490 . S
C1624 H1614 0.930 . S
C1624 C1623 1.400 . S
C1624 C1627 1.386 . S
H1625 C1641 0.930 . S
H1626 C1642 0.931 . S
C1627 H1615 0.929 . S
C1627 C1621 1.390 . S
C1627 C1624 1.386 . S
C1628 C1623 1.490 . S
C1628 C1630 1.395 . S
C1628 C1631 1.403 . S
H1629 C1635 0.930 . S
C1630 H1616 0.930 . S
C1630 C1628 1.395 . S
C1630 C1633 1.403 . S
C1631 C1628 1.403 . S
C1631 C1632 1.524 . S
C1631 C1635 1.400 . S
C1632 H1617 0.960 . S
C1632 H1618 0.960 . S
C1632 H1619 0.960 . S
C1632 C1631 1.524 . S
C1633 C1630 1.403 . S
C1633 C1634 1.392 . S
C1633 C1637 1.495 . S
C1634 C1633 1.392 . S
C1634 C1635 1.385 . S
C1634 C1636 1.478 . S
C1635 H1629 0.930 . S
C1635 C1631 1.400 . S
C1635 C1634 1.385 . S
C1636 C1634 1.478 . S
C1636 C1638 1.381 . S
C1636 C1642 1.383 . S
C1637 C1633 1.495 . S
C1637 H1643 0.959 . S
C1637 H1644 0.961 . S
C1637 H1645 0.960 . S
C1638 C1636 1.381 . S
C1638 C1639 1.394 . S
C1638 H1646 0.930 . S
C1639 C1638 1.394 . S
C1639 C1640 1.383 . S
C1639 H1647 0.929 . S
C1640 C1639 1.383 . S
C1640 C1641 1.377 . S
C1641 H1625 0.930 . S
C1641 C1640 1.377 . S
C1641 C1642 1.379 . S
C1642 H1626 0.931 . S
C1642 C1636 1.383 . S
C1642 C1641 1.379 . S
H1643 C1637 0.959 . S
H1644 C1637 0.961 . S
H1645 C1637 0.960 . S
H1646 C1638 0.930 . S
H1647 C1639 0.929 . S
H1648 C1656 0.929 . S
H1649 C1658 0.930 . S
H1650 C1660 0.930 . S
H1651 C1663 0.929 . S
H1652 C1666 0.930 . S
H1653 C1668 0.960 . S
H1654 C1668 0.960 . S
H1655 C1668 0.960 . S
C1656 H1648 0.929 . S
C1656 C1657 1.377 . S
C1656 C1658 1.384 . S
C1657 C1656 1.377 . S
C1657 C1663 1.390 . S
C1658 H1649 0.930 . S
C1658 C1656 1.384 . S
C1658 C1659 1.372 . S
C1659 C1658 1.372 . S
C1659 C1660 1.400 . S
C1659 C1664 1.490 . S
C1660 H1650 0.930 . S
C1660 C1659 1.400 . S
C1660 C1663 1.386 . S
H1661 C1677 0.930 . S
H1662 C1678 0.931 . S
C1663 H1651 0.929 . S
C1663 C1657 1.390 . S
C1663 C1660 1.386 . S
C1664 C1659 1.490 . S
C1664 C1666 1.395 . S
C1664 C1667 1.403 . S
H1665 C1671 0.930 . S
C1666 H1652 0.930 . S
C1666 C1664 1.395 . S
C1666 C1669 1.403 . S
C1667 C1664 1.403 . S
C1667 C1668 1.524 . S
C1667 C1671 1.400 . S
C1668 H1653 0.960 . S
C1668 H1654 0.960 . S
C1668 H1655 0.960 . S
C1668 C1667 1.524 . S
C1669 C1666 1.403 . S
C1669 C1670 1.392 . S
C1669 C1673 1.495 . S
C1670 C1669 1.392 . S
C1670 C1671 1.385 . S
C1670 C1672 1.478 . S
C1671 H1665 0.930 . S
C1671 C1667 1.400 . S
C1671 C1670 1.385 . S
C1672 C1670 1.478 . S
C1672 C1674 1.381 . S
C1672 C1678 1.383 . S
C1673 C1669 1.495 . S
C1673 H1679 0.959 . S
C1673 H1680 0.961 . S
C1673 H1681 0.960 . S
C1674 C1672 1.381 . S
C1674 C1675 1.394 . S
C1674 H1682 0.930 . S
C1675 C1674 1.394 . S
C1675 C1676 1.390 . S
C1675 H1683 0.929 . S
C1676 C1675 1.390 . S
C1676 C1677 1.383 . S
C1677 H1661 0.930 . S
C1677 C1676 1.383 . S
C1677 C1678 1.379 . S
C1678 H1662 0.931 . S
C1678 C1672 1.383 . S
C1678 C1677 1.379 . S
H1679 C1673 0.959 . S
H1680 C1673 0.961 . S
H1681 C1673 0.960 . S
H1682 C1674 0.930 . S
H1683 C1675 0.929 . S
H1684 C1692 0.929 . S
H1685 C1694 0.930 . S
H1686 C1696 0.930 . S
H1687 C1699 0.929 . S
H1688 C1702 0.930 . S
H1689 C1704 0.960 . S
H1690 C1704 0.960 . S
H1691 C1704 0.960 . S
C1692 H1684 0.929 . S
C1692 C1693 1.377 . S
C1692 C1694 1.384 . S
C1693 C1692 1.377 . S
C1693 C1699 1.390 . S
C1694 H1685 0.930 . S
C1694 C1692 1.384 . S
C1694 C1695 1.372 . S
C1695 C1694 1.372 . S
C1695 C1696 1.400 . S
C1695 C1700 1.490 . S
C1696 H1686 0.930 . S
C1696 C1695 1.400 . S
C1696 C1699 1.386 . S
H1697 C1713 0.930 . S
H1698 C1714 0.931 . S
C1699 H1687 0.929 . S
C1699 C1693 1.390 . S
C1699 C1696 1.386 . S
C1700 C1695 1.490 . S
C1700 C1702 1.395 . S
C1700 C1703 1.403 . S
H1701 C1707 0.930 . S
C1702 H1688 0.930 . S
C1702 C1700 1.395 . S
C1702 C1705 1.403 . S
C1703 C1700 1.403 . S
C1703 C1704 1.524 . S
C1703 C1707 1.400 . S
C1704 H1689 0.960 . S
C1704 H1690 0.960 . S
C1704 H1691 0.960 . S
C1704 C1703 1.524 . S
C1705 C1702 1.403 . S
C1705 C1706 1.392 . S
C1705 C1709 1.495 . S
C1706 C1705 1.392 . S
C1706 C1707 1.385 . S
C1706 C1708 1.478 . S
C1707 H1701 0.930 . S
C1707 C1703 1.400 . S
C1707 C1706 1.385 . S
C1708 C1706 1.478 . S
C1708 C1710 1.381 . S
C1708 C1714 1.383 . S
C1709 C1705 1.495 . S
C1709 H1715 0.959 . S
C1709 H1716 0.961 . S
C1709 H1717 0.960 . S
C1710 C1708 1.381 . S
C1710 C1711 1.394 . S
C1710 H1718 0.930 . S
C1711 C1710 1.394 . S
C1711 C1712 1.383 . S
C1711 H1719 0.929 . S
C1712 C1711 1.383 . S
C1712 C1713 1.377 . S
C1713 H1697 0.930 . S
C1713 C1712 1.377 . S
C1713 C1714 1.379 . S
C1714 H1698 0.931 . S
C1714 C1708 1.383 . S
C1714 C1713 1.379 . S
H1715 C1709 0.959 . S
H1716 C1709 0.961 . S
H1717 C1709 0.960 . S
H1718 C1710 0.930 . S
H1719 C1711 0.929 . S
H1720 C1728 0.929 . S
H1721 C1730 0.930 . S
H1722 C1732 0.930 . S
H1723 C1735 0.929 1_545 S
H1724 C1738 0.930 . S
H1725 C1740 0.960 . S
H1726 C1740 0.960 . S
H1727 C1740 0.960 . S
C1728 H1720 0.929 . S
C1728 C1729 1.374 1_565 S
C1728 C1730 1.384 . S
C1729 C1728 1.374 1_545 S
C1729 C1735 1.389 1_545 S
C1730 H1721 0.930 . S
C1730 C1728 1.384 . S
C1730 C1731 1.372 . S
C1731 C1730 1.372 . S
C1731 C1732 1.400 . S
C1731 C1736 1.490 . S
C1732 H1722 0.930 . S
C1732 C1731 1.400 . S
C1732 C1735 1.386 . S
H1733 C1749 0.930 . S
H1734 C1750 0.931 . S
C1735 H1723 0.929 1_565 S
C1735 C1729 1.389 1_565 S
C1735 C1732 1.386 . S
C1736 C1731 1.490 . S
C1736 C1738 1.395 . S
C1736 C1739 1.403 . S
H1737 C1743 0.930 . S
C1738 H1724 0.930 . S
C1738 C1736 1.395 . S
C1738 C1741 1.403 . S
C1739 C1736 1.403 . S
C1739 C1740 1.524 . S
C1739 C1743 1.400 . S
C1740 H1725 0.960 . S
C1740 H1726 0.960 . S
C1740 H1727 0.960 . S
C1740 C1739 1.524 . S
C1741 C1738 1.403 . S
C1741 C1742 1.392 . S
C1741 C1745 1.495 . S
C1742 C1741 1.392 . S
C1742 C1743 1.385 . S
C1742 C1744 1.478 . S
C1743 H1737 0.930 . S
C1743 C1739 1.400 . S
C1743 C1742 1.385 . S
C1744 C1742 1.478 . S
C1744 C1746 1.381 . S
C1744 C1750 1.383 . S
C1745 C1741 1.495 . S
C1745 H1751 0.959 . S
C1745 H1752 0.961 . S
C1745 H1753 0.960 . S
C1746 C1744 1.381 . S
C1746 C1747 1.394 . S
C1746 H1754 0.930 . S
C1747 C1746 1.394 . S
C1747 C1748 1.383 . S
C1747 H1755 0.929 . S
C1748 C1747 1.383 . S
C1748 C1749 1.377 . S
C1749 H1733 0.930 . S
C1749 C1748 1.377 . S
C1749 C1750 1.379 . S
C1750 H1734 0.931 . S
C1750 C1744 1.383 . S
C1750 C1749 1.379 . S
H1751 C1745 0.959 . S
H1752 C1745 0.961 . S
H1753 C1745 0.960 . S
H1754 C1746 0.930 . S
H1755 C1747 0.929 . S
H1756 C1764 0.929 . S
H1757 C1766 0.930 . S
H1758 C1768 0.930 . S
H1759 C1771 0.929 . S
H1760 C1774 0.930 . S
H1761 C1776 0.960 . S
H1762 C1776 0.960 . S
H1763 C1776 0.960 . S
C1764 H1756 0.929 . S
C1764 C1765 1.377 . S
C1764 C1766 1.384 . S
C1765 C1764 1.377 . S
C1765 C1771 1.390 . S
C1766 H1757 0.930 . S
C1766 C1764 1.384 . S
C1766 C1767 1.372 . S
C1767 C1766 1.372 . S
C1767 C1768 1.400 . S
C1767 C1772 1.490 . S
C1768 H1758 0.930 . S
C1768 C1767 1.400 . S
C1768 C1771 1.386 . S
H1769 C1785 0.930 . S
H1770 C1786 0.931 . S
C1771 H1759 0.929 . S
C1771 C1765 1.390 . S
C1771 C1768 1.386 . S
C1772 C1767 1.490 . S
C1772 C1774 1.395 . S
C1772 C1775 1.403 . S
H1773 C1779 0.930 . S
C1774 H1760 0.930 . S
C1774 C1772 1.395 . S
C1774 C1777 1.403 . S
C1775 C1772 1.403 . S
C1775 C1776 1.524 . S
C1775 C1779 1.400 . S
C1776 H1761 0.960 . S
C1776 H1762 0.960 . S
C1776 H1763 0.960 . S
C1776 C1775 1.524 . S
C1777 C1774 1.403 . S
C1777 C1778 1.392 . S
C1777 C1781 1.495 . S
C1778 C1777 1.392 . S
C1778 C1779 1.385 . S
C1778 C1780 1.478 . S
C1779 H1773 0.930 . S
C1779 C1775 1.400 . S
C1779 C1778 1.385 . S
C1780 C1778 1.478 . S
C1780 C1782 1.381 . S
C1780 C1786 1.383 . S
C1781 C1777 1.495 . S
C1781 H1787 0.959 . S
C1781 H1788 0.961 . S
C1781 H1789 0.960 . S
C1782 C1780 1.381 . S
C1782 C1783 1.394 . S
C1782 H1790 0.930 . S
C1783 C1782 1.394 . S
C1783 C1784 1.383 . S
C1783 H1791 0.929 . S
C1784 C1783 1.383 . S
C1784 C1785 1.377 . S
C1785 H1769 0.930 . S
C1785 C1784 1.377 . S
C1785 C1786 1.379 . S
C1786 H1770 0.931 . S
C1786 C1780 1.383 . S
C1786 C1785 1.379 . S
H1787 C1781 0.959 . S
H1788 C1781 0.961 . S
H1789 C1781 0.960 . S
H1790 C1782 0.930 . S
H1791 C1783 0.929 . S
H1792 C1800 0.928 . S
H1793 C1802 0.930 . S
H1794 C1804 0.930 . S
H1795 C1807 0.929 . S
H1796 C1810 0.930 . S
H1797 C1812 0.960 . S
H1798 C1812 0.960 . S
H1799 C1812 0.960 . S
C1800 H1792 0.928 . S
C1800 C1801 1.352 1_556 S
C1800 C1802 1.411 . S
C1801 C1800 1.352 1_554 S
C1801 C1807 1.390 . S
C1802 H1793 0.930 . S
C1802 C1800 1.411 . S
C1802 C1803 1.372 . S
C1803 C1802 1.372 . S
C1803 C1804 1.400 . S
C1803 C1808 1.490 . S
C1804 H1794 0.930 . S
C1804 C1803 1.400 . S
C1804 C1807 1.386 1_556 S
H1805 C1821 0.930 . S
H1806 C1822 0.931 . S
C1807 H1795 0.929 . S
C1807 C1801 1.390 . S
C1807 C1804 1.386 1_554 S
C1808 C1803 1.490 . S
C1808 C1810 1.395 . S
C1808 C1811 1.403 . S
H1809 C1815 0.930 . S
C1810 H1796 0.930 . S
C1810 C1808 1.395 . S
C1810 C1813 1.403 . S
C1811 C1808 1.403 . S
C1811 C1812 1.524 . S
C1811 C1815 1.400 . S
C1812 H1797 0.960 . S
C1812 H1798 0.960 . S
C1812 H1799 0.960 . S
C1812 C1811 1.524 . S
C1813 C1810 1.403 . S
C1813 C1814 1.392 . S
C1813 C1817 1.495 . S
C1814 C1813 1.392 . S
C1814 C1815 1.385 . S
C1814 C1816 1.478 . S
C1815 H1809 0.930 . S
C1815 C1811 1.400 . S
C1815 C1814 1.385 . S
C1816 C1814 1.478 . S
C1816 C1818 1.381 . S
C1816 C1822 1.383 . S
C1817 C1813 1.495 . S
C1817 H1823 0.959 . S
C1817 H1824 0.961 . S
C1817 H1825 0.960 . S
C1818 C1816 1.381 . S
C1818 C1819 1.394 . S
C1818 H1826 0.930 . S
C1819 C1818 1.394 . S
C1819 C1820 1.383 . S
C1819 H1827 0.929 . S
C1820 C1819 1.383 . S
C1820 C1821 1.377 . S
C1821 H1805 0.930 . S
C1821 C1820 1.377 . S
C1821 C1822 1.379 . S
C1822 H1806 0.931 . S
C1822 C1816 1.383 . S
C1822 C1821 1.379 . S
H1823 C1817 0.959 . S
H1824 C1817 0.961 . S
H1825 C1817 0.960 . S
H1826 C1818 0.930 . S
H1827 C1819 0.929 . S
H1828 C1836 0.929 . S
H1829 C1838 0.930 . S
H1830 C1840 0.930 . S
H1831 C1843 0.929 . S
H1832 C1846 0.930 . S
H1833 C1848 0.960 . S
H1834 C1848 0.960 . S
H1835 C1848 0.960 . S
C1836 H1828 0.929 . S
C1836 C1837 1.377 . S
C1836 C1838 1.384 . S
C1837 C1836 1.377 . S
C1837 C1843 1.390 . S
C1838 H1829 0.930 . S
C1838 C1836 1.384 . S
C1838 C1839 1.372 . S
C1839 C1838 1.372 . S
C1839 C1840 1.400 . S
C1839 C1844 1.490 . S
C1840 H1830 0.930 . S
C1840 C1839 1.400 . S
C1840 C1843 1.386 . S
H1841 C1857 0.930 . S
H1842 C1858 0.931 . S
C1843 H1831 0.929 . S
C1843 C1837 1.390 . S
C1843 C1840 1.386 . S
C1844 C1839 1.490 . S
C1844 C1846 1.395 . S
C1844 C1847 1.403 . S
H1845 C1851 0.930 . S
C1846 H1832 0.930 . S
C1846 C1844 1.395 . S
C1846 C1849 1.403 . S
C1847 C1844 1.403 . S
C1847 C1848 1.524 . S
C1847 C1851 1.400 . S
C1848 H1833 0.960 . S
C1848 H1834 0.960 . S
C1848 H1835 0.960 . S
C1848 C1847 1.524 . S
C1849 C1846 1.403 . S
C1849 C1850 1.392 . S
C1849 C1853 1.495 . S
C1850 C1849 1.392 . S
C1850 C1851 1.385 . S
C1850 C1852 1.478 . S
C1851 H1845 0.930 . S
C1851 C1847 1.400 . S
C1851 C1850 1.385 . S
C1852 C1850 1.478 . S
C1852 C1854 1.381 . S
C1852 C1858 1.383 . S
C1853 C1849 1.495 . S
C1853 H1859 0.959 . S
C1853 H1860 0.961 . S
C1853 H1861 0.960 . S
C1854 C1852 1.381 . S
C1854 C1855 1.394 . S
C1854 H1862 0.930 . S
C1855 C1854 1.394 . S
C1855 C1856 1.383 . S
C1855 H1863 0.929 . S
C1856 C1855 1.383 . S
C1856 C1857 1.377 . S
C1857 H1841 0.930 . S
C1857 C1856 1.377 . S
C1857 C1858 1.379 . S
C1858 H1842 0.931 . S
C1858 C1852 1.383 . S
C1858 C1857 1.379 . S
H1859 C1853 0.959 . S
H1860 C1853 0.961 . S
H1861 C1853 0.960 . S
H1862 C1854 0.930 . S
H1863 C1855 0.929 . S
H1864 C1872 0.929 . S
H1865 C1874 0.930 . S
H1866 C1876 0.930 . S
H1867 C1879 0.929 . S
H1868 C1882 0.930 . S
H1869 C1884 0.960 . S
H1870 C1884 0.960 . S
H1871 C1884 0.960 . S
C1872 H1864 0.929 . S
C1872 C1873 1.377 . S
C1872 C1874 1.384 . S
C1873 C1872 1.377 . S
C1873 C1879 1.390 . S
C1874 H1865 0.930 . S
C1874 C1872 1.384 . S
C1874 C1875 1.372 . S
C1875 C1874 1.372 . S
C1875 C1876 1.400 . S
C1875 C1880 1.490 . S
C1876 H1866 0.930 . S
C1876 C1875 1.400 . S
C1876 C1879 1.386 . S
H1877 C1893 0.930 . S
H1878 C1894 0.931 . S
C1879 H1867 0.929 . S
C1879 C1873 1.390 . S
C1879 C1876 1.386 . S
C1880 C1875 1.490 . S
C1880 C1882 1.395 . S
C1880 C1883 1.403 . S
H1881 C1887 0.930 . S
C1882 H1868 0.930 . S
C1882 C1880 1.395 . S
C1882 C1885 1.403 . S
C1883 C1880 1.403 . S
C1883 C1884 1.524 . S
C1883 C1887 1.400 . S
C1884 H1869 0.960 . S
C1884 H1870 0.960 . S
C1884 H1871 0.960 . S
C1884 C1883 1.524 . S
C1885 C1882 1.403 . S
C1885 C1886 1.392 . S
C1885 C1889 1.495 . S
C1886 C1885 1.392 . S
C1886 C1887 1.385 . S
C1886 C1888 1.478 . S
C1887 H1881 0.930 . S
C1887 C1883 1.400 . S
C1887 C1886 1.385 . S
C1888 C1886 1.478 . S
C1888 C1890 1.381 . S
C1888 C1894 1.383 . S
C1889 C1885 1.495 . S
C1889 H1895 0.959 . S
C1889 H1896 0.961 . S
C1889 H1897 0.960 . S
C1890 C1888 1.381 . S
C1890 C1891 1.394 . S
C1890 H1898 0.930 . S
C1891 C1890 1.394 . S
C1891 C1892 1.383 . S
C1891 H1899 0.929 . S
C1892 C1891 1.383 . S
C1892 C1893 1.377 . S
C1893 H1877 0.930 . S
C1893 C1892 1.377 . S
C1893 C1894 1.379 . S
C1894 H1878 0.931 . S
C1894 C1888 1.383 . S
C1894 C1893 1.379 . S
H1895 C1889 0.959 . S
H1896 C1889 0.961 . S
H1897 C1889 0.960 . S
H1898 C1890 0.930 . S
H1899 C1891 0.929 . S
H1900 C1908 0.929 . S
H1901 C1910 0.930 . S
H1902 C1912 0.930 . S
H1903 C1915 0.929 . S
H1904 C1918 0.930 . S
H1905 C1920 0.960 . S
H1906 C1920 0.960 . S
H1907 C1920 0.960 . S
C1908 H1900 0.929 . S
C1908 C1909 1.377 . S
C1908 C1910 1.384 . S
C1909 C1908 1.377 . S
C1909 C1915 1.390 . S
C1910 H1901 0.930 . S
C1910 C1908 1.384 . S
C1910 C1911 1.372 . S
C1911 C1910 1.372 . S
C1911 C1912 1.400 . S
C1911 C1916 1.490 . S
C1912 H1902 0.930 . S
C1912 C1911 1.400 . S
C1912 C1915 1.386 . S
H1913 C1929 0.930 . S
H1914 C1930 0.931 . S
C1915 H1903 0.929 . S
C1915 C1909 1.390 . S
C1915 C1912 1.386 . S
C1916 C1911 1.490 . S
C1916 C1918 1.395 . S
C1916 C1919 1.403 . S
H1917 C1923 0.930 . S
C1918 H1904 0.930 . S
C1918 C1916 1.395 . S
C1918 C1921 1.403 . S
C1919 C1916 1.403 . S
C1919 C1920 1.524 . S
C1919 C1923 1.400 . S
C1920 H1905 0.960 . S
C1920 H1906 0.960 . S
C1920 H1907 0.960 . S
C1920 C1919 1.524 . S
C1921 C1918 1.403 . S
C1921 C1922 1.392 . S
C1921 C1925 1.495 . S
C1922 C1921 1.392 . S
C1922 C1923 1.385 . S
C1922 C1924 1.478 . S
C1923 H1917 0.930 . S
C1923 C1919 1.400 . S
C1923 C1922 1.385 . S
C1924 C1922 1.478 . S
C1924 C1926 1.381 . S
C1924 C1930 1.383 . S
C1925 C1921 1.495 . S
C1925 H1931 0.959 . S
C1925 H1932 0.961 . S
C1925 H1933 0.960 . S
C1926 C1924 1.381 . S
C1926 C1927 1.394 . S
C1926 H1934 0.930 . S
C1927 C1926 1.394 . S
C1927 C1928 1.383 . S
C1927 H1935 0.929 . S
C1928 C1927 1.383 . S
C1928 C1929 1.377 . S
C1929 H1913 0.930 . S
C1929 C1928 1.377 . S
C1929 C1930 1.379 . S
C1930 H1914 0.931 . S
C1930 C1924 1.383 . S
C1930 C1929 1.379 . S
H1931 C1925 0.959 . S
H1932 C1925 0.961 . S
H1933 C1925 0.960 . S
H1934 C1926 0.930 . S
H1935 C1927 0.929 . S
H1936 C1944 0.929 . S
H1937 C1946 0.930 . S
H1938 C1948 0.930 . S
H1939 C1951 0.929 . S
H1940 C1954 0.930 . S
H1941 C1956 0.960 . S
H1942 C1956 0.960 . S
H1943 C1956 0.960 . S
C1944 H1936 0.929 . S
C1944 C1945 1.377 . S
C1944 C1946 1.384 . S
C1945 C1944 1.377 . S
C1945 C1951 1.390 . S
C1946 H1937 0.930 . S
C1946 C1944 1.384 . S
C1946 C1947 1.372 . S
C1947 C1946 1.372 . S
C1947 C1948 1.400 . S
C1947 C1952 1.490 . S
C1948 H1938 0.930 . S
C1948 C1947 1.400 . S
C1948 C1951 1.386 . S
H1949 C1965 0.930 . S
H1950 C1966 0.931 . S
C1951 H1939 0.929 . S
C1951 C1945 1.390 . S
C1951 C1948 1.386 . S
C1952 C1947 1.490 . S
C1952 C1954 1.395 . S
C1952 C1955 1.403 . S
H1953 C1959 0.930 . S
C1954 H1940 0.930 . S
C1954 C1952 1.395 . S
C1954 C1957 1.403 . S
C1955 C1952 1.403 . S
C1955 C1956 1.524 . S
C1955 C1959 1.400 . S
C1956 H1941 0.960 . S
C1956 H1942 0.960 . S
C1956 H1943 0.960 . S
C1956 C1955 1.524 . S
C1957 C1954 1.403 . S
C1957 C1958 1.392 . S
C1957 C1961 1.495 . S
C1958 C1957 1.392 . S
C1958 C1959 1.385 . S
C1958 C1960 1.478 . S
C1959 H1953 0.930 . S
C1959 C1955 1.400 . S
C1959 C1958 1.385 . S
C1960 C1958 1.478 . S
C1960 C1962 1.381 . S
C1960 C1966 1.383 . S
C1961 C1957 1.495 . S
C1961 H1967 0.959 . S
C1961 H1968 0.961 . S
C1961 H1969 0.960 . S
C1962 C1960 1.381 . S
C1962 C1963 1.394 . S
C1962 H1970 0.930 . S
C1963 C1962 1.394 . S
C1963 C1964 1.383 1_554 S
C1963 H1971 0.929 . S
C1964 C1963 1.383 1_556 S
C1964 C1965 1.377 . S
C1965 H1949 0.930 . S
C1965 C1964 1.377 . S
C1965 C1966 1.379 1_556 S
C1966 H1950 0.931 . S
C1966 C1960 1.383 . S
C1966 C1965 1.379 1_554 S
H1967 C1961 0.959 . S
H1968 C1961 0.961 . S
H1969 C1961 0.960 . S
H1970 C1962 0.930 . S
H1971 C1963 0.929 . S
H1972 C1980 0.929 . S
H1973 C1982 0.930 . S
H1974 C1984 0.930 . S
H1975 C1987 0.929 . S
H1976 C1990 0.930 . S
H1977 C1992 0.960 . S
H1978 C1992 0.960 . S
H1979 C1992 0.960 . S
C1980 H1972 0.929 . S
C1980 C1981 1.377 . S
C1980 C1982 1.384 . S
C1981 C1980 1.377 . S
C1981 C1987 1.390 . S
C1982 H1973 0.930 . S
C1982 C1980 1.384 . S
C1982 C1983 1.372 . S
C1983 C1982 1.372 . S
C1983 C1984 1.400 . S
C1983 C1988 1.490 . S
C1984 H1974 0.930 . S
C1984 C1983 1.400 . S
C1984 C1987 1.386 . S
H1985 C2001 0.930 . S
H1986 C2002 0.931 . S
C1987 H1975 0.929 . S
C1987 C1981 1.390 . S
C1987 C1984 1.386 . S
C1988 C1983 1.490 . S
C1988 C1990 1.395 . S
C1988 C1991 1.403 . S
H1989 C1995 0.930 . S
C1990 H1976 0.930 . S
C1990 C1988 1.395 . S
C1990 C1993 1.403 . S
C1991 C1988 1.403 . S
C1991 C1992 1.524 . S
C1991 C1995 1.400 . S
C1992 H1977 0.960 . S
C1992 H1978 0.960 . S
C1992 H1979 0.960 . S
C1992 C1991 1.524 . S
C1993 C1990 1.403 . S
C1993 C1994 1.392 . S
C1993 C1997 1.495 . S
C1994 C1993 1.392 . S
C1994 C1995 1.385 . S
C1994 C1996 1.478 . S
C1995 H1989 0.930 . S
C1995 C1991 1.400 . S
C1995 C1994 1.385 . S
C1996 C1994 1.478 . S
C1996 C1998 1.381 . S
C1996 C2002 1.383 . S
C1997 C1993 1.495 . S
C1997 H2003 0.959 . S
C1997 H2004 0.961 . S
C1997 H2005 0.960 . S
C1998 C1996 1.381 . S
C1998 C1999 1.394 . S
C1998 H2006 0.930 . S
C1999 C1998 1.394 . S
C1999 C2000 1.383 . S
C1999 H2007 0.929 . S
C2000 C1999 1.383 . S
C2000 C2001 1.377 . S
C2001 H1985 0.930 . S
C2001 C2000 1.377 . S
C2001 C2002 1.379 . S
C2002 H1986 0.931 . S
C2002 C1996 1.383 . S
C2002 C2001 1.379 . S
H2003 C1997 0.959 . S
H2004 C1997 0.961 . S
H2005 C1997 0.960 . S
H2006 C1998 0.930 . S
H2007 C1999 0.929 . S
H2008 C2016 0.929 . S
H2009 C2018 0.930 . S
H2010 C2020 0.930 . S
H2011 C2023 0.929 . S
H2012 C2026 0.930 . S
H2013 C2028 0.960 . S
H2014 C2028 0.960 . S
H2015 C2028 0.960 . S
C2016 H2008 0.929 . S
C2016 C2017 1.377 . S
C2016 C2018 1.384 . S
C2017 C2016 1.377 . S
C2017 C2023 1.390 . S
C2018 H2009 0.930 . S
C2018 C2016 1.384 . S
C2018 C2019 1.372 . S
C2019 C2018 1.372 . S
C2019 C2020 1.400 . S
C2019 C2024 1.490 . S
C2020 H2010 0.930 . S
C2020 C2019 1.400 . S
C2020 C2023 1.386 . S
H2021 C2037 0.930 . S
H2022 C2038 0.931 . S
C2023 H2011 0.929 . S
C2023 C2017 1.390 . S
C2023 C2020 1.386 . S
C2024 C2019 1.490 . S
C2024 C2026 1.395 . S
C2024 C2027 1.403 . S
H2025 C2031 0.930 . S
C2026 H2012 0.930 . S
C2026 C2024 1.395 . S
C2026 C2029 1.403 . S
C2027 C2024 1.403 . S
C2027 C2028 1.524 . S
C2027 C2031 1.400 . S
C2028 H2013 0.960 . S
C2028 H2014 0.960 . S
C2028 H2015 0.960 . S
C2028 C2027 1.524 . S
C2029 C2026 1.403 . S
C2029 C2030 1.392 . S
C2029 C2033 1.495 . S
C2030 C2029 1.392 . S
C2030 C2031 1.385 . S
C2030 C2032 1.478 . S
C2031 H2025 0.930 . S
C2031 C2027 1.400 . S
C2031 C2030 1.385 . S
C2032 C2030 1.478 . S
C2032 C2034 1.381 . S
C2032 C2038 1.383 . S
C2033 C2029 1.495 . S
C2033 H2039 0.959 . S
C2033 H2040 0.961 . S
C2033 H2041 0.960 . S
C2034 C2032 1.381 . S
C2034 C2035 1.394 . S
C2034 H2042 0.930 . S
C2035 C2034 1.394 . S
C2035 C2036 1.383 . S
C2035 H2043 0.929 . S
C2036 C2035 1.383 . S
C2036 C2037 1.377 . S
C2037 H2021 0.930 . S
C2037 C2036 1.377 . S
C2037 C2038 1.379 . S
C2038 H2022 0.931 . S
C2038 C2032 1.383 . S
C2038 C2037 1.379 . S
H2039 C2033 0.959 . S
H2040 C2033 0.961 . S
H2041 C2033 0.960 . S
H2042 C2034 0.930 . S
H2043 C2035 0.929 . S
H2044 C2052 0.929 . S
H2045 C2054 0.930 . S
H2046 C2056 0.930 . S
H2047 C2059 0.929 . S
H2048 C2062 0.930 . S
H2049 C2064 0.960 . S
H2050 C2064 0.960 . S
H2051 C2064 0.960 . S
C2052 H2044 0.929 . S
C2052 C2053 1.377 . S
C2052 C2054 1.384 . S
C2053 C2052 1.377 . S
C2053 C2059 1.390 . S
C2054 H2045 0.930 . S
C2054 C2052 1.384 . S
C2054 C2055 1.372 . S
C2055 C2054 1.372 . S
C2055 C2056 1.400 . S
C2055 C2060 1.490 . S
C2056 H2046 0.930 . S
C2056 C2055 1.400 . S
C2056 C2059 1.386 . S
H2057 C2073 0.930 . S
H2058 C2074 0.931 . S
C2059 H2047 0.929 . S
C2059 C2053 1.390 . S
C2059 C2056 1.386 . S
C2060 C2055 1.490 . S
C2060 C2062 1.395 . S
C2060 C2063 1.403 . S
H2061 C2067 0.930 . S
C2062 H2048 0.930 . S
C2062 C2060 1.395 . S
C2062 C2065 1.403 . S
C2063 C2060 1.403 . S
C2063 C2064 1.524 . S
C2063 C2067 1.400 . S
C2064 H2049 0.960 . S
C2064 H2050 0.960 . S
C2064 H2051 0.960 . S
C2064 C2063 1.524 . S
C2065 C2062 1.403 . S
C2065 C2066 1.392 . S
C2065 C2069 1.495 . S
C2066 C2065 1.392 . S
C2066 C2067 1.385 . S
C2066 C2068 1.478 . S
C2067 H2061 0.930 . S
C2067 C2063 1.400 . S
C2067 C2066 1.385 . S
C2068 C2066 1.478 . S
C2068 C2070 1.381 . S
C2068 C2074 1.383 . S
C2069 C2065 1.495 . S
C2069 H2075 0.959 . S
C2069 H2076 0.961 . S
C2069 H2077 0.960 . S
C2070 C2068 1.381 . S
C2070 C2071 1.394 . S
C2070 H2078 0.930 . S
C2071 C2070 1.394 . S
C2071 C2072 1.383 . S
C2071 H2079 0.929 . S
C2072 C2071 1.383 . S
C2072 C2073 1.377 . S
C2073 H2057 0.930 . S
C2073 C2072 1.377 . S
C2073 C2074 1.379 . S
C2074 H2058 0.931 . S
C2074 C2068 1.383 . S
C2074 C2073 1.379 . S
H2075 C2069 0.959 . S
H2076 C2069 0.961 . S
H2077 C2069 0.960 . S
H2078 C2070 0.930 . S
H2079 C2071 0.929 . S
H2080 C2088 0.929 . S
H2081 C2090 0.930 . S
H2082 C2092 0.930 . S
H2083 C2095 0.929 . S
H2084 C2098 0.930 . S
H2085 C2100 0.960 . S
H2086 C2100 0.960 . S
H2087 C2100 0.960 . S
C2088 H2080 0.929 . S
C2088 C2089 1.377 . S
C2088 C2090 1.384 . S
C2089 C2088 1.377 . S
C2089 C2095 1.390 . S
C2090 H2081 0.930 . S
C2090 C2088 1.384 . S
C2090 C2091 1.372 . S
C2091 C2090 1.372 . S
C2091 C2092 1.400 . S
C2091 C2096 1.490 . S
C2092 H2082 0.930 . S
C2092 C2091 1.400 . S
C2092 C2095 1.386 . S
H2093 C2109 0.930 . S
H2094 C2110 0.931 . S
C2095 H2083 0.929 . S
C2095 C2089 1.390 . S
C2095 C2092 1.386 . S
C2096 C2091 1.490 . S
C2096 C2098 1.395 . S
C2096 C2099 1.403 . S
H2097 C2103 0.930 . S
C2098 H2084 0.930 . S
C2098 C2096 1.395 . S
C2098 C2101 1.403 . S
C2099 C2096 1.403 . S
C2099 C2100 1.524 . S
C2099 C2103 1.400 . S
C2100 H2085 0.960 . S
C2100 H2086 0.960 . S
C2100 H2087 0.960 . S
C2100 C2099 1.524 . S
C2101 C2098 1.403 . S
C2101 C2102 1.392 . S
C2101 C2105 1.495 . S
C2102 C2101 1.392 . S
C2102 C2103 1.385 . S
C2102 C2104 1.478 . S
C2103 H2097 0.930 . S
C2103 C2099 1.400 . S
C2103 C2102 1.385 . S
C2104 C2102 1.478 . S
C2104 C2106 1.381 . S
C2104 C2110 1.383 . S
C2105 C2101 1.495 . S
C2105 H2111 0.959 . S
C2105 H2112 0.961 . S
C2105 H2113 0.960 . S
C2106 C2104 1.381 . S
C2106 C2107 1.394 . S
C2106 H2114 0.930 . S
C2107 C2106 1.394 . S
C2107 C2108 1.383 . S
C2107 H2115 0.929 . S
C2108 C2107 1.383 . S
C2108 C2109 1.377 . S
C2109 H2093 0.930 . S
C2109 C2108 1.377 . S
C2109 C2110 1.379 . S
C2110 H2094 0.931 . S
C2110 C2104 1.383 . S
C2110 C2109 1.379 . S
H2111 C2105 0.959 . S
H2112 C2105 0.961 . S
H2113 C2105 0.960 . S
H2114 C2106 0.930 . S
H2115 C2107 0.929 . S
H2116 C2124 0.929 . S
H2117 C2126 0.930 . S
H2118 C2128 0.930 . S
H2119 C2131 0.929 . S
H2120 C2134 0.930 . S
H2121 C2136 0.960 . S
H2122 C2136 0.960 . S
H2123 C2136 0.960 . S
C2124 H2116 0.929 . S
C2124 C2125 1.377 . S
C2124 C2126 1.384 . S
C2125 C2124 1.377 . S
C2125 C2131 1.390 . S
C2126 H2117 0.930 . S
C2126 C2124 1.384 . S
C2126 C2127 1.372 . S
C2127 C2126 1.372 . S
C2127 C2128 1.400 . S
C2127 C2132 1.490 . S
C2128 H2118 0.930 . S
C2128 C2127 1.400 . S
C2128 C2131 1.386 . S
H2129 C2145 0.930 . S
H2130 C2146 0.931 . S
C2131 H2119 0.929 . S
C2131 C2125 1.390 . S
C2131 C2128 1.386 . S
C2132 C2127 1.490 . S
C2132 C2134 1.395 . S
C2132 C2135 1.403 . S
H2133 C2139 0.930 . S
C2134 H2120 0.930 . S
C2134 C2132 1.395 . S
C2134 C2137 1.403 . S
C2135 C2132 1.403 . S
C2135 C2136 1.524 . S
C2135 C2139 1.400 . S
C2136 H2121 0.960 . S
C2136 H2122 0.960 . S
C2136 H2123 0.960 . S
C2136 C2135 1.524 . S
C2137 C2134 1.403 . S
C2137 C2138 1.392 . S
C2137 C2141 1.495 . S
C2138 C2137 1.392 . S
C2138 C2139 1.385 . S
C2138 C2140 1.478 . S
C2139 H2133 0.930 . S
C2139 C2135 1.400 . S
C2139 C2138 1.385 . S
C2140 C2138 1.478 . S
C2140 C2142 1.381 . S
C2140 C2146 1.383 1_565 S
C2141 C2137 1.495 . S
C2141 H2147 0.959 . S
C2141 H2148 0.961 1_565 S
C2141 H2149 0.960 . S
C2142 C2140 1.381 . S
C2142 C2143 1.394 . S
C2142 H2150 0.930 . S
C2143 C2142 1.394 . S
C2143 C2144 1.383 1_565 S
C2143 H2151 0.929 . S
C2144 C2143 1.383 1_545 S
C2144 C2145 1.377 . S
C2145 H2129 0.930 . S
C2145 C2144 1.377 . S
C2145 C2146 1.379 . S
C2146 H2130 0.931 . S
C2146 C2140 1.383 1_545 S
C2146 C2145 1.379 . S
H2147 C2141 0.959 . S
H2148 C2141 0.961 1_545 S
H2149 C2141 0.960 . S
H2150 C2142 0.930 . S
H2151 C2143 0.929 . S
H2152 C2160 0.929 . S
H2153 C2162 0.930 . S
H2154 C2164 0.930 . S
H2155 C2167 0.929 . S
H2156 C2170 0.930 . S
H2157 C2172 0.960 . S
H2158 C2172 0.960 . S
H2159 C2172 0.960 . S
C2160 H2152 0.929 . S
C2160 C2161 1.377 . S
C2160 C2162 1.384 . S
C2161 C2160 1.377 . S
C2161 C2167 1.390 . S
C2162 H2153 0.930 . S
C2162 C2160 1.384 . S
C2162 C2163 1.372 . S
C2163 C2162 1.372 . S
C2163 C2164 1.400 . S
C2163 C2168 1.490 . S
C2164 H2154 0.930 . S
C2164 C2163 1.400 . S
C2164 C2167 1.386 . S
H2165 C2181 0.930 . S
H2166 C2182 0.934 . S
C2167 H2155 0.929 . S
C2167 C2161 1.390 . S
C2167 C2164 1.386 . S
C2168 C2163 1.490 . S
C2168 C2170 1.395 . S
C2168 C2171 1.403 . S
H2169 C2175 0.930 . S
C2170 H2156 0.930 . S
C2170 C2168 1.395 . S
C2170 C2173 1.403 . S
C2171 C2168 1.403 . S
C2171 C2172 1.524 . S
C2171 C2175 1.400 . S
C2172 H2157 0.960 . S
C2172 H2158 0.960 . S
C2172 H2159 0.960 . S
C2172 C2171 1.524 . S
C2173 C2170 1.403 . S
C2173 C2174 1.392 . S
C2173 C2177 1.495 . S
C2174 C2173 1.392 . S
C2174 C2175 1.385 . S
C2174 C2176 1.478 . S
C2175 H2169 0.930 . S
C2175 C2171 1.400 . S
C2175 C2174 1.385 . S
C2176 C2174 1.478 . S
C2176 C2178 1.381 . S
C2176 C2182 1.383 . S
C2177 C2173 1.495 . S
C2177 H2183 0.959 . S
C2177 H2184 0.961 . S
C2177 H2185 0.960 . S
C2178 C2176 1.381 . S
C2178 C2179 1.394 . S
C2178 H2186 0.930 . S
C2179 C2178 1.394 . S
C2179 C2180 1.383 1_556 S
C2179 H2187 0.929 . S
C2180 C2179 1.383 1_554 S
C2180 C2181 1.377 . S
C2181 H2165 0.930 . S
C2181 C2180 1.377 . S
C2181 C2182 1.379 1_554 S
C2182 H2166 0.934 . S
C2182 C2176 1.383 . S
C2182 C2181 1.379 1_556 S
H2183 C2177 0.959 . S
H2184 C2177 0.961 . S
H2185 C2177 0.960 . S
H2186 C2178 0.930 . S
H2187 C2179 0.929 . S
H2188 C2196 0.929 . S
H2189 C2198 0.930 . S
H2190 C2200 0.930 . S
H2191 C2203 0.929 . S
H2192 C2206 0.930 . S
H2193 C2208 0.960 . S
H2194 C2208 0.960 . S
H2195 C2208 0.960 . S
C2196 H2188 0.929 . S
C2196 C2197 1.377 1_545 S
C2196 C2198 1.384 . S
C2197 C2196 1.377 1_565 S
C2197 C2203 1.390 . S
C2198 H2189 0.930 . S
C2198 C2196 1.384 . S
C2198 C2199 1.372 . S
C2199 C2198 1.372 . S
C2199 C2200 1.400 . S
C2199 C2204 1.490 . S
C2200 H2190 0.930 . S
C2200 C2199 1.400 . S
C2200 C2203 1.386 1_545 S
H2201 C2217 0.930 . S
H2202 C2218 0.931 . S
C2203 H2191 0.929 . S
C2203 C2197 1.390 . S
C2203 C2200 1.386 1_565 S
C2204 C2199 1.490 . S
C2204 C2206 1.395 . S
C2204 C2207 1.403 . S
H2205 C2211 0.930 . S
C2206 H2192 0.930 . S
C2206 C2204 1.395 . S
C2206 C2209 1.403 . S
C2207 C2204 1.403 . S
C2207 C2208 1.524 1_545 S
C2207 C2211 1.400 . S
C2208 H2193 0.960 . S
C2208 H2194 0.960 . S
C2208 H2195 0.960 . S
C2208 C2207 1.524 1_565 S
C2209 C2206 1.403 . S
C2209 C2210 1.392 . S
C2209 C2213 1.495 . S
C2210 C2209 1.392 . S
C2210 C2211 1.385 . S
C2210 C2212 1.478 . S
C2211 H2205 0.930 . S
C2211 C2207 1.400 . S
C2211 C2210 1.385 . S
C2212 C2210 1.478 . S
C2212 C2214 1.381 . S
C2212 C2218 1.383 . S
C2213 C2209 1.495 . S
C2213 H2219 0.959 . S
C2213 H2220 0.961 . S
C2213 H2221 0.960 . S
C2214 C2212 1.381 . S
C2214 C2215 1.394 . S
C2214 H2222 0.930 . S
C2215 C2214 1.394 . S
C2215 C2216 1.383 . S
C2215 H2223 0.929 . S
C2216 C2215 1.383 . S
C2216 C2217 1.377 . S
C2217 H2201 0.930 . S
C2217 C2216 1.377 . S
C2217 C2218 1.379 . S
C2218 H2202 0.931 . S
C2218 C2212 1.383 . S
C2218 C2217 1.379 . S
H2219 C2213 0.959 . S
H2220 C2213 0.961 . S
H2221 C2213 0.960 . S
H2222 C2214 0.930 . S
H2223 C2215 0.929 . S
H2224 C2232 0.929 . S
H2225 C2234 0.930 . S
H2226 C2236 0.930 . S
H2227 C2239 0.929 . S
H2228 C2242 0.930 . S
H2229 C2244 0.960 . S
H2230 C2244 0.960 . S
H2231 C2244 0.960 . S
C2232 H2224 0.929 . S
C2232 C2233 1.377 . S
C2232 C2234 1.384 . S
C2233 C2232 1.377 . S
C2233 C2239 1.390 . S
C2234 H2225 0.930 . S
C2234 C2232 1.384 . S
C2234 C2235 1.372 . S
C2235 C2234 1.372 . S
C2235 C2236 1.400 . S
C2235 C2240 1.490 . S
C2236 H2226 0.930 . S
C2236 C2235 1.400 . S
C2236 C2239 1.386 . S
H2237 C2253 0.930 . S
H2238 C2254 0.931 . S
C2239 H2227 0.929 . S
C2239 C2233 1.390 . S
C2239 C2236 1.386 . S
C2240 C2235 1.490 . S
C2240 C2242 1.395 . S
C2240 C2243 1.403 . S
H2241 C2247 0.930 . S
C2242 H2228 0.930 . S
C2242 C2240 1.395 . S
C2242 C2245 1.403 . S
C2243 C2240 1.403 . S
C2243 C2244 1.524 . S
C2243 C2247 1.400 . S
C2244 H2229 0.960 . S
C2244 H2230 0.960 . S
C2244 H2231 0.960 . S
C2244 C2243 1.524 . S
C2245 C2242 1.403 . S
C2245 C2246 1.392 . S
C2245 C2249 1.495 . S
C2246 C2245 1.392 . S
C2246 C2247 1.385 . S
C2246 C2248 1.478 . S
C2247 H2241 0.930 . S
C2247 C2243 1.400 . S
C2247 C2246 1.385 . S
C2248 C2246 1.478 . S
C2248 C2250 1.381 . S
C2248 C2254 1.383 . S
C2249 C2245 1.495 . S
C2249 H2255 0.959 . S
C2249 H2256 0.961 . S
C2249 H2257 0.960 . S
C2250 C2248 1.381 . S
C2250 C2251 1.394 . S
C2250 H2258 0.930 . S
C2251 C2250 1.394 . S
C2251 C2252 1.383 . S
C2251 H2259 0.929 . S
C2252 C2251 1.383 . S
C2252 C2253 1.377 . S
C2253 H2237 0.930 . S
C2253 C2252 1.377 . S
C2253 C2254 1.379 . S
C2254 H2238 0.931 . S
C2254 C2248 1.383 . S
C2254 C2253 1.379 . S
H2255 C2249 0.959 . S
H2256 C2249 0.961 . S
H2257 C2249 0.960 . S
H2258 C2250 0.930 . S
H2259 C2251 0.929 . S
H2260 C2268 0.929 . S
H2261 C2270 0.930 . S
H2262 C2272 0.930 . S
H2263 C2275 0.929 . S
H2264 C2278 0.930 . S
H2265 C2280 0.960 1_565 S
H2266 C2280 0.960 . S
H2267 C2280 0.960 . S
C2268 H2260 0.929 . S
C2268 C2269 1.377 . S
C2268 C2270 1.384 . S
C2269 C2268 1.377 . S
C2269 C2275 1.390 . S
C2270 H2261 0.930 . S
C2270 C2268 1.384 . S
C2270 C2271 1.372 . S
C2271 C2270 1.372 . S
C2271 C2272 1.400 . S
C2271 C2276 1.490 . S
C2272 H2262 0.930 . S
C2272 C2271 1.400 . S
C2272 C2275 1.386 . S
H2273 C2289 0.930 . S
H2274 C2290 0.931 . S
C2275 H2263 0.929 . S
C2275 C2269 1.390 . S
C2275 C2272 1.386 . S
C2276 C2271 1.490 . S
C2276 C2278 1.395 . S
C2276 C2279 1.403 . S
H2277 C2283 0.930 . S
C2278 H2264 0.930 . S
C2278 C2276 1.395 . S
C2278 C2281 1.403 . S
C2279 C2276 1.403 . S
C2279 C2280 1.524 . S
C2279 C2283 1.400 . S
C2280 H2265 0.960 1_545 S
C2280 H2266 0.960 . S
C2280 H2267 0.960 . S
C2280 C2279 1.524 . S
C2281 C2278 1.403 . S
C2281 C2282 1.392 . S
C2281 C2285 1.495 . S
C2282 C2281 1.392 . S
C2282 C2283 1.385 . S
C2282 C2284 1.478 . S
C2283 H2277 0.930 . S
C2283 C2279 1.400 . S
C2283 C2282 1.385 . S
C2284 C2282 1.478 . S
C2284 C2286 1.381 . S
C2284 C2290 1.383 . S
C2285 C2281 1.495 . S
C2285 H2291 0.959 . S
C2285 H2292 0.961 . S
C2285 H2293 0.960 . S
C2286 C2284 1.381 . S
C2286 C2287 1.394 1_545 S
C2286 H2294 0.930 . S
C2287 C2286 1.394 1_565 S
C2287 C2288 1.383 . S
C2287 H2295 0.929 . S
C2288 C2287 1.383 . S
C2288 C2289 1.377 . S
C2289 H2273 0.930 . S
C2289 C2288 1.377 . S
C2289 C2290 1.379 1_565 S
C2290 H2274 0.931 . S
C2290 C2284 1.383 . S
C2290 C2289 1.379 1_545 S
H2291 C2285 0.959 . S
H2292 C2285 0.961 . S
H2293 C2285 0.960 . S
H2294 C2286 0.930 . S
H2295 C2287 0.929 . S
H2296 C2304 0.929 . S
H2297 C2306 0.930 . S
H2298 C2308 0.930 . S
H2299 C2311 0.929 . S
H2300 C2314 0.930 . S
H2301 C2316 0.960 . S
H2302 C2316 0.960 . S
H2303 C2316 0.960 . S
C2304 H2296 0.929 . S
C2304 C2305 1.377 . S
C2304 C2306 1.384 . S
C2305 C2304 1.377 . S
C2305 C2311 1.390 . S
C2306 H2297 0.930 . S
C2306 C2304 1.384 . S
C2306 C2307 1.372 . S
C2307 C2306 1.372 . S
C2307 C2308 1.400 . S
C2307 C2312 1.490 . S
C2308 H2298 0.930 . S
C2308 C2307 1.400 . S
C2308 C2311 1.386 . S
H2309 C2325 0.930 . S
H2310 C2326 0.931 . S
C2311 H2299 0.929 . S
C2311 C2305 1.390 . S
C2311 C2308 1.386 . S
C2312 C2307 1.490 . S
C2312 C2314 1.395 . S
C2312 C2315 1.403 . S
H2313 C2319 0.930 . S
C2314 H2300 0.930 . S
C2314 C2312 1.395 . S
C2314 C2317 1.403 . S
C2315 C2312 1.403 . S
C2315 C2316 1.524 . S
C2315 C2319 1.400 . S
C2316 H2301 0.960 . S
C2316 H2302 0.960 . S
C2316 H2303 0.960 . S
C2316 C2315 1.524 . S
C2317 C2314 1.403 . S
C2317 C2318 1.392 . S
C2317 C2321 1.495 . S
C2318 C2317 1.392 . S
C2318 C2319 1.385 . S
C2318 C2320 1.478 . S
C2319 H2313 0.930 . S
C2319 C2315 1.400 . S
C2319 C2318 1.385 . S
C2320 C2318 1.478 . S
C2320 C2322 1.381 . S
C2320 C2326 1.383 . S
C2321 C2317 1.495 . S
C2321 H2327 0.959 . S
C2321 H2328 0.961 . S
C2321 H2329 0.960 . S
C2322 C2320 1.381 . S
C2322 C2323 1.394 1_554 S
C2322 H2330 0.930 . S
C2323 C2322 1.394 1_556 S
C2323 C2324 1.383 . S
C2323 H2331 0.929 . S
C2324 C2323 1.383 . S
C2324 C2325 1.377 . S
C2325 H2309 0.930 . S
C2325 C2324 1.377 . S
C2325 C2326 1.379 1_556 S
C2326 H2310 0.931 . S
C2326 C2320 1.383 . S
C2326 C2325 1.379 1_554 S
H2327 C2321 0.959 . S
H2328 C2321 0.961 . S
H2329 C2321 0.960 . S
H2330 C2322 0.930 . S
H2331 C2323 0.929 . S
H2332 C2340 0.929 . S
H2333 C2342 0.930 . S
H2334 C2344 0.930 . S
H2335 C2347 0.929 . S
H2336 C2350 0.930 . S
H2337 C2352 0.960 . S
H2338 C2352 0.960 . S
H2339 C2352 0.960 . S
C2340 H2332 0.929 . S
C2340 C2341 1.377 . S
C2340 C2342 1.384 . S
C2341 C2340 1.377 . S
C2341 C2347 1.390 . S
C2342 H2333 0.930 . S
C2342 C2340 1.384 . S
C2342 C2343 1.372 . S
C2343 C2342 1.372 . S
C2343 C2344 1.400 . S
C2343 C2348 1.490 . S
C2344 H2334 0.930 . S
C2344 C2343 1.400 . S
C2344 C2347 1.386 . S
H2345 C2361 0.930 . S
H2346 C2362 0.931 . S
C2347 H2335 0.929 . S
C2347 C2341 1.390 . S
C2347 C2344 1.386 . S
C2348 C2343 1.490 . S
C2348 C2350 1.395 . S
C2348 C2351 1.403 . S
H2349 C2355 0.930 . S
C2350 H2336 0.930 . S
C2350 C2348 1.395 . S
C2350 C2353 1.403 . S
C2351 C2348 1.403 . S
C2351 C2352 1.524 . S
C2351 C2355 1.400 . S
C2352 H2337 0.960 . S
C2352 H2338 0.960 . S
C2352 H2339 0.960 . S
C2352 C2351 1.524 . S
C2353 C2350 1.403 . S
C2353 C2354 1.392 . S
C2353 C2357 1.495 1_565 S
C2354 C2353 1.392 . S
C2354 C2355 1.385 . S
C2354 C2356 1.478 . S
C2355 H2349 0.930 . S
C2355 C2351 1.400 . S
C2355 C2354 1.385 . S
C2356 C2354 1.478 . S
C2356 C2358 1.382 . S
C2356 C2362 1.383 . S
C2357 C2353 1.495 1_545 S
C2357 H2363 0.959 . S
C2357 H2364 0.961 . S
C2357 H2365 0.960 . S
C2358 C2356 1.382 . S
C2358 C2359 1.393 1_565 S
C2358 H2366 0.930 . S
C2359 C2358 1.393 1_545 S
C2359 C2360 1.383 . S
C2359 H2367 0.929 . S
C2360 C2359 1.383 . S
C2360 C2361 1.377 . S
C2361 H2345 0.930 . S
C2361 C2360 1.377 . S
C2361 C2362 1.379 1_545 S
C2362 H2346 0.931 . S
C2362 C2356 1.383 . S
C2362 C2361 1.379 1_565 S
H2363 C2357 0.959 . S
H2364 C2357 0.961 . S
H2365 C2357 0.960 . S
H2366 C2358 0.930 . S
H2367 C2359 0.929 . S
C649 C2 2.419 . S
C668 C402 2.421 . S
C685 C42 2.415 . S
C704 C442 2.413 . S
C721 C82 2.415 . S
C740 C322 2.413 . S
C757 C362 2.414 . S
C776 C122 2.399 . S
C793 C183 2.417 . S
C812 C583 2.403 . S
C829 C623 2.417 . S
C848 C223 2.405 . S
C865 C503 2.416 . S
C884 C263 2.419 . S
C901 C303 2.418 . S
C920 C543 2.400 . S
C937 C17 0.580 . S
C956 C186 0.621 . S
C973 C57 0.591 . S
C992 C546 0.669 . S
C1009 C97 0.610 . S
C1028 C266 0.577 . S
C1045 C137 0.597 . S
C1064 C626 0.514 . S
C1081 C226 0.616 . S
C1100 C377 0.641 . S
C1117 C457 0.589 . S
C1136 C306 0.498 . S
C1153 C506 0.578 . S
C1172 C337 0.513 . S
C1189 C417 0.600 . S
C1208 C586 0.523 . S
C1225 C26 0.739 . S
C1244 C282 0.750 . S
C1261 C66 0.757 . S
C1280 C482 0.737 . S
C1297 C106 0.739 . S
C1316 C202 0.773 . S
C1333 C146 0.738 . S
C1352 C562 0.752 . S
C1369 C143 0.741 . S
C1388 C177 0.701 . S
C1405 C217 0.756 . S
C1424 C343 0.772 . S
C1441 C257 0.739 . S
C1460 C63 0.721 . S
C1477 C423 0.752 . S
C1496 C297 0.774 . S
C1513 C346 0.756 . S
C1532 C602 0.748 . S
C1549 C162 0.742 . S
C1568 C386 0.786 . S
C1585 C522 0.755 . S
C1604 C426 0.791 . S
C1621 C242 0.741 . S
C1640 C466 0.758 . S
C1657 C497 0.751 . S
C1676 C463 0.743 1_545 S
C1693 C537 0.748 . S
C1712 C23 0.754 . S
C1729 C383 0.758 . S
C1748 C577 0.792 . S
C1765 C617 0.754 . S
C1784 C103 0.765 . S
C1801 C24 4.026 . S
C1820 C373 4.058 . S
C1837 C413 4.059 . S
C1856 C64 4.019 . S
C1873 C104 4.024 . S
C1892 C453 4.047 . S
C1909 C333 4.062 . S
C1928 C144 4.024 . S
C1945 C544 4.060 . S
C1964 C173 4.025 . S
C1981 C584 4.060 . S
C2000 C213 4.008 . S
C2017 C624 4.062 . S
C2036 C253 4.019 . S
C2053 C504 4.060 . S
C2072 C293 4.009 . S
C2089 C53 4.059 . S
C2108 C344 4.014 . S
C2125 C93 4.062 . S
C2144 C384 4.020 . S
C2161 C133 4.059 . S
C2180 C424 4.024 . S
C2197 C464 4.024 . S
C2216 C13 4.063 . S
C2233 C224 4.061 . S
C2252 C493 4.027 . S
C2269 C264 4.060 . S
C2288 C533 4.009 . S
C2305 C304 4.060 . S
C2324 C573 4.008 . S
C2341 C184 4.061 . S
C2360 C613 4.028 . S
