# Generated by pormake.
# Topology lcy-a, (4)-cn, num edge types: 1
# Building blocks:
#     Node 0, Type 0, BuildingBlock: ICAMEG_clean_sbu_1, # of connection points: 4
#     Node 1, Type 0, BuildingBlock: ICAMEG_clean_sbu_1, # of connection points: 4
#     Node 2, Type 0, BuildingBlock: ICAMEG_clean_sbu_1, # of connection points: 4
#     Node 3, Type 0, BuildingBlock: ICAMEG_clean_sbu_1, # of connection points: 4
#     Node 4, Type 0, BuildingBlock: ICAMEG_clean_sbu_1, # of connection points: 4
#     Node 5, Type 0, BuildingBlock: ICAMEG_clean_sbu_1, # of connection points: 4
#     Node 6, Type 0, BuildingBlock: ICAMEG_clean_sbu_1, # of connection points: 4
#     Node 7, Type 0, BuildingBlock: ICAMEG_clean_sbu_1, # of connection points: 4
#     Node 8, Type 0, BuildingBlock: ICAMEG_clean_sbu_1, # of connection points: 4
#     Node 9, Type 0, BuildingBlock: ICAMEG_clean_sbu_1, # of connection points: 4
#     Node 10, Type 0, BuildingBlock: ICAMEG_clean_sbu_1, # of connection points: 4
#     Node 11, Type 0, BuildingBlock: ICAMEG_clean_sbu_1, # of connection points: 4
#     Node 12, Type 0, BuildingBlock: ICAMEG_clean_sbu_1, # of connection points: 4
#     Node 13, Type 0, BuildingBlock: ICAMEG_clean_sbu_1, # of connection points: 4
#     Node 14, Type 0, BuildingBlock: ICAMEG_clean_sbu_1, # of connection points: 4
#     Node 15, Type 0, BuildingBlock: ICAMEG_clean_sbu_1, # of connection points: 4
#     Node 16, Type 0, BuildingBlock: ICAMEG_clean_sbu_1, # of connection points: 4
#     Node 17, Type 0, BuildingBlock: ICAMEG_clean_sbu_1, # of connection points: 4
#     Node 18, Type 0, BuildingBlock: ICAMEG_clean_sbu_1, # of connection points: 4
#     Node 19, Type 0, BuildingBlock: ICAMEG_clean_sbu_1, # of connection points: 4
#     Node 20, Type 0, BuildingBlock: ICAMEG_clean_sbu_1, # of connection points: 4
#     Node 21, Type 0, BuildingBlock: ICAMEG_clean_sbu_1, # of connection points: 4
#     Node 22, Type 0, BuildingBlock: ICAMEG_clean_sbu_1, # of connection points: 4
#     Node 23, Type 0, BuildingBlock: ICAMEG_clean_sbu_1, # of connection points: 4
#     Edge 24, Type (0, 0), BuildingBlock: UVAHIK_clean_linker_0, # of connection points: 2
#     Edge 25, Type (0, 0), BuildingBlock: UVAHIK_clean_linker_0, # of connection points: 2
#     Edge 26, Type (0, 0), BuildingBlock: UVAHIK_clean_linker_0, # of connection points: 2
#     Edge 27, Type (0, 0), BuildingBlock: UVAHIK_clean_linker_0, # of connection points: 2
#     Edge 28, Type (0, 0), BuildingBlock: UVAHIK_clean_linker_0, # of connection points: 2
#     Edge 29, Type (0, 0), BuildingBlock: UVAHIK_clean_linker_0, # of connection points: 2
#     Edge 30, Type (0, 0), BuildingBlock: UVAHIK_clean_linker_0, # of connection points: 2
#     Edge 31, Type (0, 0), BuildingBlock: UVAHIK_clean_linker_0, # of connection points: 2
#     Edge 32, Type (0, 0), BuildingBlock: UVAHIK_clean_linker_0, # of connection points: 2
#     Edge 33, Type (0, 0), BuildingBlock: UVAHIK_clean_linker_0, # of connection points: 2
#     Edge 34, Type (0, 0), BuildingBlock: UVAHIK_clean_linker_0, # of connection points: 2
#     Edge 35, Type (0, 0), BuildingBlock: UVAHIK_clean_linker_0, # of connection points: 2
#     Edge 36, Type (0, 0), BuildingBlock: UVAHIK_clean_linker_0, # of connection points: 2
#     Edge 37, Type (0, 0), BuildingBlock: UVAHIK_clean_linker_0, # of connection points: 2
#     Edge 38, Type (0, 0), BuildingBlock: UVAHIK_clean_linker_0, # of connection points: 2
#     Edge 39, Type (0, 0), BuildingBlock: UVAHIK_clean_linker_0, # of connection points: 2
#     Edge 40, Type (0, 0), BuildingBlock: UVAHIK_clean_linker_0, # of connection points: 2
#     Edge 41, Type (0, 0), BuildingBlock: UVAHIK_clean_linker_0, # of connection points: 2
#     Edge 42, Type (0, 0), BuildingBlock: UVAHIK_clean_linker_0, # of connection points: 2
#     Edge 43, Type (0, 0), BuildingBlock: UVAHIK_clean_linker_0, # of connection points: 2
#     Edge 44, Type (0, 0), BuildingBlock: UVAHIK_clean_linker_0, # of connection points: 2
#     Edge 45, Type (0, 0), BuildingBlock: UVAHIK_clean_linker_0, # of connection points: 2
#     Edge 46, Type (0, 0), BuildingBlock: UVAHIK_clean_linker_0, # of connection points: 2
#     Edge 47, Type (0, 0), BuildingBlock: UVAHIK_clean_linker_0, # of connection points: 2
#     Edge 48, Type (0, 0), BuildingBlock: UVAHIK_clean_linker_0, # of connection points: 2
#     Edge 49, Type (0, 0), BuildingBlock: UVAHIK_clean_linker_0, # of connection points: 2
#     Edge 50, Type (0, 0), BuildingBlock: UVAHIK_clean_linker_0, # of connection points: 2
#     Edge 51, Type (0, 0), BuildingBlock: UVAHIK_clean_linker_0, # of connection points: 2
#     Edge 52, Type (0, 0), BuildingBlock: UVAHIK_clean_linker_0, # of connection points: 2
#     Edge 53, Type (0, 0), BuildingBlock: UVAHIK_clean_linker_0, # of connection points: 2
#     Edge 54, Type (0, 0), BuildingBlock: UVAHIK_clean_linker_0, # of connection points: 2
#     Edge 55, Type (0, 0), BuildingBlock: UVAHIK_clean_linker_0, # of connection points: 2
#     Edge 56, Type (0, 0), BuildingBlock: UVAHIK_clean_linker_0, # of connection points: 2
#     Edge 57, Type (0, 0), BuildingBlock: UVAHIK_clean_linker_0, # of connection points: 2
#     Edge 58, Type (0, 0), BuildingBlock: UVAHIK_clean_linker_0, # of connection points: 2
#     Edge 59, Type (0, 0), BuildingBlock: UVAHIK_clean_linker_0, # of connection points: 2
#     Edge 60, Type (0, 0), BuildingBlock: UVAHIK_clean_linker_0, # of connection points: 2
#     Edge 61, Type (0, 0), BuildingBlock: UVAHIK_clean_linker_0, # of connection points: 2
#     Edge 62, Type (0, 0), BuildingBlock: UVAHIK_clean_linker_0, # of connection points: 2
#     Edge 63, Type (0, 0), BuildingBlock: UVAHIK_clean_linker_0, # of connection points: 2
#     Edge 64, Type (0, 0), BuildingBlock: UVAHIK_clean_linker_0, # of connection points: 2
#     Edge 65, Type (0, 0), BuildingBlock: UVAHIK_clean_linker_0, # of connection points: 2
#     Edge 66, Type (0, 0), BuildingBlock: UVAHIK_clean_linker_0, # of connection points: 2
#     Edge 67, Type (0, 0), BuildingBlock: UVAHIK_clean_linker_0, # of connection points: 2
#     Edge 68, Type (0, 0), BuildingBlock: UVAHIK_clean_linker_0, # of connection points: 2
#     Edge 69, Type (0, 0), BuildingBlock: UVAHIK_clean_linker_0, # of connection points: 2
#     Edge 70, Type (0, 0), BuildingBlock: UVAHIK_clean_linker_0, # of connection points: 2
#     Edge 71, Type (0, 0), BuildingBlock: UVAHIK_clean_linker_0, # of connection points: 2
# Relax obj value: 0.383
# Max RMSD: 0.165
# Mean RMSD: 0.165
data_MOF--net-lcy-a--node1-ICAMEG_clean_sbu_1--edge1-UVAHIK_clean_linker_0
_symmetry_space_group_name_H-M    P1
_symmetry_Int_Tables_number       1
_symmetry_cell_setting            triclinic
loop_
_symmetry_equiv_pos_as_xyz
'x, y, z'
_cell_length_a     76.306236
_cell_length_b     76.304397
_cell_length_c     76.305226
_cell_angle_alpha  89.991145
_cell_angle_beta   89.995854
_cell_angle_gamma 90.00144
loop_
_atom_site_label
_atom_site_type_symbol
_atom_site_fract_x
_atom_site_fract_y
_atom_site_fract_z
_atom_type_partial_charge
Co0 Co 0.21971 0.31326 0.38713 0.0
Co1 Co 0.17795 0.2994 0.38122 0.0
O2 O 0.19652 0.30784 0.39683 0.0
C3 C 0.21397 0.33904 0.41672 0.0
O4 O 0.19698 0.33646 0.41659 0.0
C5 C 0.17627 0.27469 0.41096 0.0
O6 O 0.19328 0.27265 0.40942 0.0
O7 O 0.19319 0.27931 0.37445 0.0
O8 O 0.217 0.2951 0.36835 0.0
H9 H 0.15425 0.27542 0.3247 0.0
H10 H 0.21588 0.30379 0.42476 0.0
O11 O 0.22383 0.33148 0.40558 0.0
H12 H 0.25863 0.26169 0.40078 0.0
H13 H 0.28377 0.32911 0.39001 0.0
H14 H 0.23354 0.31777 0.351 0.0
H15 H 0.24591 0.28463 0.38198 0.0
H16 H 0.25494 0.32125 0.40228 0.0
O17 O 0.1681 0.28505 0.40076 0.0
H18 H 0.1771 0.28684 0.3445 0.0
H19 H 0.13964 0.29259 0.38527 0.0
H20 H 0.26215 0.32546 0.3382 0.0
H21 H 0.22855 0.28127 0.44412 0.0
H22 H 0.28754 0.3312 0.35774 0.0
H23 H 0.25001 0.25993 0.43214 0.0
O24 O 0.2087 0.33089 0.37156 0.0
H25 H 0.14887 0.33947 0.42463 0.0
H26 H 0.15669 0.32604 0.3619 0.0
H27 H 0.13816 0.35103 0.37061 0.0
H28 H 0.13411 0.35786 0.40218 0.0
H29 H 0.16745 0.31471 0.41532 0.0
H30 H 0.11641 0.28108 0.36596 0.0
H31 H 0.12365 0.27247 0.33541 0.0
O32 O 0.18722 0.31385 0.36114 0.0
C33 C 0.20848 0.28077 0.36801 0.0
C34 C 0.15092 0.27917 0.33796 0.0
C35 C 0.12969 0.28233 0.36113 0.0
N36 N 0.15968 0.29051 0.36596 0.0
C37 C 0.16379 0.28569 0.34922 0.0
C38 C 0.1429 0.2888 0.37201 0.0
C39 C 0.13376 0.27751 0.34399 0.0
C40 C 0.22542 0.29476 0.41949 0.0
N41 N 0.23021 0.29565 0.40227 0.0
C42 C 0.23247 0.28195 0.4305 0.0
C43 C 0.24449 0.26996 0.42377 0.0
C44 C 0.24933 0.27094 0.40619 0.0
C45 C 0.24204 0.28395 0.39559 0.0
C46 C 0.2728 0.32667 0.38135 0.0
C47 C 0.24449 0.32023 0.35962 0.0
C48 C 0.25641 0.32229 0.38823 0.0
N49 N 0.2425 0.31911 0.37738 0.0
C50 C 0.26068 0.32459 0.35228 0.0
C51 C 0.27491 0.32782 0.36325 0.0
C52 C 0.19739 0.32711 0.35983 0.0
C53 C 0.15053 0.33663 0.41083 0.0
C54 C 0.15514 0.32902 0.37566 0.0
C55 C 0.14456 0.34314 0.38051 0.0
C56 C 0.14227 0.34695 0.39823 0.0
N57 N 0.16323 0.31898 0.3881 0.0
C58 C 0.16101 0.32261 0.40549 0.0
Co59 Co 0.93059 0.9656 0.64158 0.0
Co60 Co 0.94965 0.92673 0.63135 0.0
O61 O 0.93886 0.94237 0.64863 0.0
C62 C 0.90683 0.95411 0.67139 0.0
O63 O 0.91467 0.93888 0.67285 0.0
C64 C 0.97397 0.925 0.66137 0.0
O65 O 0.97397 0.9422 0.6615 0.0
O66 O 0.96775 0.94489 0.62648 0.0
O67 O 0.94952 0.96763 0.6235 0.0
H68 H 0.977 0.91199 0.5733 0.0
H69 H 0.94082 0.95832 0.67889 0.0
O70 O 0.91123 0.96494 0.65945 0.0
H71 H 0.97575 0.00957 0.66108 0.0
H72 H 0.90554 0.02595 0.65126 0.0
H73 H 0.92553 0.98315 0.60718 0.0
H74 H 0.95514 0.9959 0.6404 0.0
H75 H 0.91698 0.99715 0.66039 0.0
O76 O 0.96487 0.9167 0.65013 0.0
H77 H 0.96271 0.93118 0.59503 0.0
H78 H 0.96091 0.88929 0.63164 0.0
H79 H 0.91428 0.01181 0.5975 0.0
H80 H 0.96091 0.97183 0.70005 0.0
H81 H 0.90418 0.03347 0.61961 0.0
H82 H 0.97867 0.99763 0.69122 0.0
O83 O 0.91496 0.95442 0.6241 0.0
H84 H 0.91267 0.88899 0.67064 0.0
H85 H 0.92598 0.90461 0.60936 0.0
H86 H 0.90317 0.88258 0.61556 0.0
H87 H 0.8964 0.87461 0.64639 0.0
H88 H 0.9353 0.91105 0.66385 0.0
H89 H 0.97532 0.86968 0.61036 0.0
H90 H 0.98339 0.88099 0.58092 0.0
O91 O 0.93453 0.93629 0.61196 0.0
C92 C 0.96458 0.96061 0.62187 0.0
C93 C 0.97349 0.90689 0.58606 0.0
C94 C 0.97257 0.88315 0.60687 0.0
N95 N 0.96084 0.91132 0.61452 0.0
C96 C 0.96536 0.91768 0.5984 0.0
C97 C 0.96445 0.89433 0.61888 0.0
C98 C 0.97709 0.8895 0.59035 0.0
C99 C 0.94803 0.96978 0.67499 0.0
N100 N 0.94632 0.97651 0.65848 0.0
C101 C 0.95961 0.97729 0.68703 0.0
C102 C 0.96961 0.99172 0.68205 0.0
C103 C 0.96797 0.99843 0.66515 0.0
C104 C 0.95624 0.99061 0.65349 0.0
C105 C 0.90989 0.01662 0.6415 0.0
C106 C 0.92119 0.99248 0.6169 0.0
C107 C 0.91632 0.00025 0.64658 0.0
N108 N 0.92192 0.98843 0.63434 0.0
C109 C 0.91482 0.0087 0.61133 0.0
C110 C 0.90914 0.02084 0.62374 0.0
C111 C 0.92029 0.94509 0.61129 0.0
C112 C 0.91549 0.89236 0.65715 0.0
C113 C 0.92302 0.90133 0.62282 0.0
C114 C 0.91013 0.88879 0.62624 0.0
C115 C 0.90636 0.88431 0.64354 0.0
N116 N 0.9319 0.90919 0.63625 0.0
C117 C 0.9283 0.90483 0.65323 0.0
Co118 Co 0.28511 0.68261 0.89455 0.0
Co119 Co 0.32366 0.7014 0.88281 0.0
O120 O 0.3085 0.69103 0.90076 0.0
C121 C 0.29761 0.65921 0.92424 0.0
O122 O 0.31276 0.66724 0.92536 0.0
C123 C 0.32612 0.72629 0.91227 0.0
O124 O 0.30893 0.7265 0.91261 0.0
O125 O 0.3054 0.71942 0.87804 0.0
O126 O 0.28255 0.70116 0.87613 0.0
H127 H 0.33698 0.72748 0.82384 0.0
H128 H 0.29331 0.69342 0.93146 0.0
O129 O 0.28634 0.6636 0.91271 0.0
H130 H 0.24186 0.72836 0.91427 0.0
H131 H 0.22504 0.65784 0.90641 0.0
H132 H 0.26672 0.67664 0.86075 0.0
H133 H 0.25486 0.70723 0.89367 0.0
H134 H 0.25407 0.66948 0.91451 0.0
O135 O 0.33418 0.71695 0.90105 0.0
H136 H 0.3183 0.71373 0.84636 0.0
H137 H 0.3611 0.71259 0.88192 0.0
H138 H 0.23782 0.66518 0.85211 0.0
H139 H 0.2805 0.71406 0.95255 0.0
H140 H 0.21672 0.65569 0.87501 0.0
H141 H 0.25461 0.73183 0.94402 0.0
O142 O 0.29584 0.66662 0.87715 0.0
H143 H 0.36237 0.66515 0.92186 0.0
H144 H 0.34513 0.6772 0.86075 0.0
H145 H 0.36725 0.65445 0.86684 0.0
H146 H 0.37603 0.64831 0.89758 0.0
H147 H 0.34021 0.68771 0.91519 0.0
H148 H 0.38021 0.72647 0.85984 0.0
H149 H 0.36818 0.73394 0.83053 0.0
O150 O 0.31356 0.68589 0.86399 0.0
C151 C 0.28958 0.71613 0.8739 0.0
C152 C 0.34239 0.72424 0.83654 0.0
C153 C 0.36665 0.72369 0.85676 0.0
N154 N 0.33865 0.71221 0.86536 0.0
C155 C 0.33189 0.7164 0.84933 0.0
C156 C 0.35576 0.71586 0.86921 0.0
C157 C 0.35989 0.72787 0.84031 0.0
C158 C 0.28182 0.70066 0.92772 0.0
N159 N 0.27466 0.69868 0.91142 0.0
C160 C 0.2747 0.71253 0.9397 0.0
C161 C 0.26021 0.72253 0.93489 0.0
C162 C 0.25306 0.72059 0.91821 0.0
C163 C 0.2605 0.70857 0.9066 0.0
C164 C 0.23412 0.66194 0.89631 0.0
C165 C 0.25763 0.67258 0.87082 0.0
C166 C 0.25061 0.66849 0.90081 0.0
N167 N 0.26211 0.67377 0.88812 0.0
C168 C 0.24127 0.66608 0.86583 0.0
C169 C 0.22945 0.66074 0.87869 0.0
C170 C 0.30478 0.67162 0.86396 0.0
C171 C 0.35865 0.66769 0.90841 0.0
C172 C 0.34877 0.67452 0.87418 0.0
C173 C 0.36136 0.66166 0.87753 0.0
C174 C 0.36629 0.65824 0.89478 0.0
N175 N 0.3413 0.68372 0.88762 0.0
C176 C 0.34611 0.68046 0.90455 0.0
Co177 Co 0.56933 0.03524 0.14377 0.0
Co178 Co 0.55104 0.07428 0.13285 0.0
O179 O 0.56119 0.0586 0.1505 0.0
C180 C 0.5926 0.04659 0.17401 0.0
O181 O 0.58486 0.06188 0.17534 0.0
C182 C 0.52608 0.07636 0.16225 0.0
O183 O 0.526 0.05916 0.16242 0.0
O184 O 0.53283 0.05635 0.12767 0.0
O185 O 0.55082 0.03336 0.12522 0.0
H186 H 0.52523 0.08906 0.07411 0.0
H187 H 0.55837 0.04272 0.18082 0.0
O188 O 0.58825 0.03573 0.16209 0.0
H189 H 0.52306 0.99199 0.16229 0.0
H190 H 0.59328 0.97458 0.15429 0.0
H191 H 0.57516 0.01756 0.10957 0.0
H192 H 0.54439 0.00528 0.14209 0.0
H193 H 0.58198 0.00356 0.16304 0.0
O194 O 0.53548 0.0846 0.15121 0.0
H195 H 0.53874 0.06979 0.09628 0.0
H196 H 0.54032 0.11187 0.13267 0.0
H197 H 0.58628 0.98873 0.10028 0.0
H198 H 0.53754 0.02959 0.20152 0.0
H199 H 0.59543 0.96698 0.12271 0.0
H200 H 0.51958 0.00406 0.19232 0.0
O201 O 0.58553 0.04617 0.1267 0.0
H202 H 0.58759 0.11172 0.17282 0.0
H203 H 0.57555 0.09594 0.11132 0.0
H204 H 0.59852 0.11768 0.11795 0.0
H205 H 0.60465 0.12572 0.14889 0.0
H206 H 0.56481 0.08994 0.1656 0.0
H207 H 0.52668 0.13156 0.11096 0.0
H208 H 0.51911 0.1202 0.08141 0.0
O209 O 0.5665 0.06439 0.11387 0.0
C210 C 0.53588 0.04056 0.12324 0.0
C211 C 0.52852 0.09419 0.08692 0.0
C212 C 0.52931 0.11804 0.10761 0.0
N213 N 0.54047 0.08974 0.11567 0.0
C214 C 0.53622 0.08335 0.0995 0.0
C215 C 0.53701 0.10681 0.11985 0.0
C216 C 0.52508 0.11165 0.09103 0.0
C217 C 0.55105 0.03137 0.17677 0.0
N218 N 0.55304 0.02458 0.16032 0.0
C219 C 0.53907 0.02408 0.18854 0.0
C220 C 0.52896 0.00979 0.18336 0.0
C221 C 0.53091 0.00302 0.16652 0.0
C222 C 0.54304 0.01063 0.15513 0.0
C223 C 0.58933 0.98395 0.14439 0.0
C224 C 0.57907 0.00819 0.11943 0.0
C225 C 0.58299 0.00041 0.14926 0.0
N226 N 0.57789 0.01228 0.13683 0.0
C227 C 0.58538 0.99187 0.11408 0.0
C228 C 0.59053 0.97968 0.12667 0.0
C229 C 0.58065 0.05541 0.11366 0.0
C230 C 0.58505 0.10831 0.15928 0.0
C231 C 0.57823 0.09926 0.12483 0.0
C232 C 0.5912 0.11164 0.12849 0.0
C233 C 0.59462 0.11616 0.14585 0.0
N234 N 0.56891 0.09161 0.13808 0.0
C235 C 0.57216 0.096 0.15512 0.0
Co236 Co 0.71435 0.18053 0.60628 0.0
Co237 Co 0.67639 0.2004 0.61806 0.0
O238 O 0.69122 0.18963 0.60008 0.0
C239 C 0.70122 0.15772 0.57644 0.0
O240 O 0.68628 0.16616 0.57544 0.0
C241 C 0.67451 0.2254 0.58861 0.0
O242 O 0.69171 0.22525 0.58823 0.0
O243 O 0.69518 0.21789 0.62275 0.0
O244 O 0.71743 0.19894 0.62477 0.0
H245 H 0.66399 0.22683 0.67707 0.0
H246 H 0.70645 0.19182 0.56944 0.0
O247 O 0.7126 0.16166 0.58802 0.0
H248 H 0.759 0.22502 0.58676 0.0
H249 H 0.77367 0.15403 0.59439 0.0
H250 H 0.73254 0.17393 0.64007 0.0
H251 H 0.74537 0.20419 0.60725 0.0
H252 H 0.74501 0.16656 0.5863 0.0
O253 O 0.66627 0.21624 0.59985 0.0
H254 H 0.6822 0.21254 0.6545 0.0
H255 H 0.63929 0.21268 0.61905 0.0
H256 H 0.76108 0.16157 0.6487 0.0
H257 H 0.71988 0.21217 0.54845 0.0
H258 H 0.7819 0.15152 0.62578 0.0
H259 H 0.74633 0.22906 0.55705 0.0
O260 O 0.70315 0.16479 0.62362 0.0
H261 H 0.63654 0.1653 0.57912 0.0
H262 H 0.65427 0.17685 0.64018 0.0
H263 H 0.63147 0.15476 0.63416 0.0
H264 H 0.62244 0.14888 0.60344 0.0
H265 H 0.65939 0.18719 0.58573 0.0
H266 H 0.62066 0.22711 0.64118 0.0
H267 H 0.63298 0.2342 0.67046 0.0
O268 O 0.68608 0.18459 0.63685 0.0
C269 C 0.71091 0.21416 0.62685 0.0
C270 C 0.65846 0.22375 0.66438 0.0
C271 C 0.63414 0.22392 0.64423 0.0
N272 N 0.66177 0.21163 0.63555 0.0
C273 C 0.66869 0.21562 0.65157 0.0
C274 C 0.64477 0.21579 0.63174 0.0
C275 C 0.64106 0.2279 0.66066 0.0
C276 C 0.71817 0.19867 0.57321 0.0
N277 N 0.72528 0.19636 0.58948 0.0
C278 C 0.72564 0.21038 0.56129 0.0
C279 C 0.74045 0.21989 0.56613 0.0
C280 C 0.74756 0.21763 0.58278 0.0
C281 C 0.73976 0.20578 0.59434 0.0
C282 C 0.76472 0.15836 0.60449 0.0
C283 C 0.74151 0.16963 0.63 0.0
C284 C 0.74843 0.16542 0.6 0.0
N285 N 0.73708 0.17101 0.6127 0.0
C286 C 0.75767 0.16262 0.63498 0.0
C287 C 0.76933 0.15697 0.62211 0.0
C288 C 0.69437 0.17003 0.63683 0.0
C289 C 0.64038 0.16773 0.59256 0.0
C290 C 0.65053 0.17427 0.62677 0.0
C291 C 0.63755 0.16179 0.62344 0.0
C292 C 0.63248 0.15851 0.60621 0.0
N293 N 0.65824 0.18323 0.6133 0.0
C294 C 0.6533 0.18012 0.59638 0.0
Co295 Co 0.06895 0.46595 0.85817 0.0
Co296 Co 0.05046 0.42674 0.86818 0.0
O297 O 0.06092 0.44268 0.85096 0.0
C298 C 0.09265 0.45503 0.82812 0.0
O299 O 0.08503 0.4397 0.82662 0.0
C300 C 0.0259 0.42499 0.83835 0.0
O301 O 0.02569 0.44219 0.83837 0.0
O302 O 0.03217 0.44462 0.87336 0.0
O303 O 0.05013 0.46756 0.87642 0.0
H304 H 0.0238 0.41106 0.92631 0.0
H305 H 0.05857 0.45891 0.82087 0.0
O306 O 0.08817 0.46572 0.84015 0.0
H307 H 0.02303 0.50947 0.83943 0.0
H308 H 0.09311 0.52672 0.84887 0.0
H309 H 0.07404 0.48324 0.89269 0.0
H310 H 0.04399 0.49589 0.85982 0.0
H311 H 0.08199 0.49786 0.83955 0.0
O312 O 0.03521 0.4167 0.84943 0.0
H313 H 0.03765 0.43066 0.90464 0.0
H314 H 0.03969 0.38916 0.86762 0.0
H315 H 0.08497 0.51196 0.90255 0.0
H316 H 0.03812 0.47234 0.79998 0.0
H317 H 0.09461 0.53396 0.88057 0.0
H318 H 0.02005 0.49779 0.8092 0.0
O319 O 0.08485 0.45481 0.87543 0.0
H320 H 0.08759 0.38986 0.82822 0.0
H321 H 0.07461 0.40471 0.88976 0.0
H322 H 0.09765 0.38305 0.88316 0.0
H323 H 0.10426 0.37547 0.85219 0.0
H324 H 0.06473 0.41156 0.83541 0.0
H325 H 0.02572 0.36915 0.88882 0.0
H326 H 0.01775 0.38006 0.91844 0.0
O327 O 0.06562 0.4363 0.88753 0.0
C328 C 0.03518 0.46032 0.87811 0.0
C329 C 0.02726 0.40614 0.91346 0.0
C330 C 0.02832 0.38262 0.89242 0.0
N331 N 0.03961 0.41102 0.88495 0.0
C332 C 0.03515 0.41716 0.90116 0.0
C333 C 0.03619 0.39402 0.88045 0.0
C334 C 0.02385 0.38875 0.90903 0.0
C335 C 0.05121 0.47023 0.82493 0.0
N336 N 0.05294 0.47681 0.84149 0.0
C337 C 0.03944 0.47768 0.81305 0.0
C338 C 0.02927 0.49192 0.81825 0.0
C339 C 0.03094 0.49848 0.83519 0.0
C340 C 0.04286 0.49071 0.84669 0.0
C341 C 0.08896 0.51724 0.85857 0.0
C342 C 0.07817 0.49272 0.88302 0.0
C343 C 0.08272 0.50084 0.85338 0.0
N344 N 0.07737 0.48883 0.86556 0.0
C345 C 0.08437 0.50898 0.8887 0.0
C346 C 0.08979 0.5213 0.87636 0.0
C347 C 0.07975 0.44528 0.88818 0.0
C348 C 0.08485 0.39306 0.84176 0.0
C349 C 0.0775 0.4016 0.87624 0.0
C350 C 0.09051 0.38927 0.87259 0.0
C351 C 0.0942 0.385 0.85522 0.0
N352 N 0.0684 0.40947 0.86296 0.0
C353 C 0.07191 0.40533 0.84591 0.0
Co354 Co 0.78129 0.81706 0.10624 0.0
Co355 Co 0.82136 0.80077 0.11681 0.0
O356 O 0.80507 0.81032 0.09942 0.0
C357 C 0.79179 0.84179 0.07689 0.0
O358 O 0.80757 0.83506 0.07582 0.0
C359 C 0.82443 0.77632 0.08709 0.0
O360 O 0.80726 0.77527 0.08719 0.0
O361 O 0.80446 0.7816 0.12185 0.0
O362 O 0.78028 0.798 0.12435 0.0
H363 H 0.83791 0.77493 0.17506 0.0
H364 H 0.78943 0.80765 0.06896 0.0
O365 O 0.7809 0.83641 0.08836 0.0
H366 H 0.74081 0.76891 0.08632 0.0
H367 H 0.71951 0.83801 0.09597 0.0
H368 H 0.76328 0.82133 0.14047 0.0
H369 H 0.75281 0.79039 0.10716 0.0
H370 H 0.74904 0.82837 0.0871 0.0
O371 O 0.8323 0.78604 0.09813 0.0
H372 H 0.81779 0.78775 0.15324 0.0
H373 H 0.85944 0.79196 0.11655 0.0
H374 H 0.73389 0.8308 0.14989 0.0
H375 H 0.77758 0.78667 0.04763 0.0
H376 H 0.71174 0.83921 0.12756 0.0
H377 H 0.75312 0.767 0.05624 0.0
O378 O 0.79127 0.83342 0.12372 0.0
H379 H 0.85688 0.83956 0.07718 0.0
H380 H 0.84176 0.82614 0.13856 0.0
H381 H 0.8623 0.85024 0.13215 0.0
H382 H 0.87002 0.85707 0.10127 0.0
H383 H 0.83627 0.81566 0.08417 0.0
H384 H 0.87997 0.77904 0.13792 0.0
H385 H 0.86925 0.7705 0.16745 0.0
O386 O 0.8108 0.8154 0.13608 0.0
C387 C 0.7885 0.78358 0.12624 0.0
C388 C 0.84275 0.77866 0.16226 0.0
C389 C 0.86636 0.78094 0.14141 0.0
N390 N 0.83747 0.79076 0.13372 0.0
C391 C 0.83144 0.78597 0.14987 0.0
C392 C 0.85466 0.78822 0.12935 0.0
C393 C 0.86033 0.77616 0.15797 0.0
C394 C 0.77853 0.79954 0.07276 0.0
N395 N 0.77161 0.80065 0.08924 0.0
C396 C 0.77197 0.7875 0.06064 0.0
C397 C 0.75829 0.77643 0.06549 0.0
C398 C 0.75138 0.7775 0.08235 0.0
C399 C 0.75825 0.78972 0.09411 0.0
C400 C 0.72904 0.83436 0.10582 0.0
C401 C 0.75373 0.82491 0.13066 0.0
C402 C 0.74581 0.82894 0.10088 0.0
N403 N 0.7579 0.82424 0.11325 0.0
C404 C 0.7371 0.83029 0.13608 0.0
C405 C 0.72469 0.83503 0.12355 0.0
C406 C 0.80098 0.82896 0.13655 0.0
C407 C 0.85361 0.83673 0.09068 0.0
C408 C 0.84491 0.82912 0.12507 0.0
C409 C 0.85662 0.84274 0.12153 0.0
C410 C 0.86096 0.84655 0.10421 0.0
N411 N 0.83772 0.81957 0.11173 0.0
C412 C 0.84195 0.8232 0.09472 0.0
Co413 Co 0.43178 0.53434 0.35823 0.0
Co414 Co 0.44904 0.57446 0.3664 0.0
O415 O 0.43947 0.55731 0.34992 0.0
C416 C 0.40867 0.54317 0.32709 0.0
O417 O 0.416 0.55859 0.32507 0.0
C418 C 0.47501 0.57527 0.33765 0.0
O419 O 0.47714 0.55833 0.33975 0.0
O420 O 0.46761 0.55737 0.37308 0.0
O421 O 0.45008 0.53424 0.37706 0.0
H422 H 0.47392 0.59428 0.42404 0.0
H423 H 0.44326 0.53975 0.32102 0.0
O424 O 0.4131 0.53311 0.33968 0.0
H425 H 0.47927 0.49105 0.34329 0.0
H426 H 0.40921 0.4726 0.35175 0.0
H427 H 0.42615 0.51886 0.39354 0.0
H428 H 0.45724 0.50504 0.36223 0.0
H429 H 0.41995 0.50115 0.34111 0.0
O430 O 0.46433 0.58375 0.34726 0.0
H431 H 0.46105 0.57306 0.40331 0.0
H432 H 0.45897 0.61216 0.36375 0.0
H433 H 0.41557 0.49049 0.40471 0.0
H434 H 0.46483 0.5259 0.30157 0.0
H435 H 0.407 0.4671 0.38375 0.0
H436 H 0.48312 0.50137 0.31266 0.0
O437 O 0.41515 0.54607 0.37437 0.0
H438 H 0.41197 0.60813 0.32361 0.0
H439 H 0.42384 0.59698 0.38615 0.0
H440 H 0.40043 0.61764 0.37785 0.0
H441 H 0.39438 0.62336 0.34638 0.0
H442 H 0.43516 0.58745 0.33249 0.0
H443 H 0.47195 0.63377 0.384 0.0
H444 H 0.47944 0.62489 0.41441 0.0
O445 O 0.43368 0.5656 0.38596 0.0
C446 C 0.46483 0.54188 0.37863 0.0
C447 C 0.47065 0.59833 0.41084 0.0
C448 C 0.46957 0.62049 0.38836 0.0
N449 N 0.45911 0.59142 0.38241 0.0
C450 C 0.46332 0.58638 0.39907 0.0
C451 C 0.46226 0.60819 0.37695 0.0
C452 C 0.47376 0.61549 0.40542 0.0
C453 C 0.45075 0.52885 0.32589 0.0
N454 N 0.44853 0.52298 0.34267 0.0
C455 C 0.46313 0.52114 0.31483 0.0
C456 C 0.47343 0.50742 0.32107 0.0
C457 C 0.47126 0.50161 0.33824 0.0
C458 C 0.45872 0.5096 0.3489 0.0
C459 C 0.41288 0.4827 0.36101 0.0
C460 C 0.42248 0.50878 0.38431 0.0
C461 C 0.41891 0.49893 0.35507 0.0
N462 N 0.42366 0.51172 0.36668 0.0
C463 C 0.41648 0.49272 0.39073 0.0
C464 C 0.41166 0.47961 0.37897 0.0
C465 C 0.41975 0.55632 0.38676 0.0
C466 C 0.41446 0.60573 0.33737 0.0
C467 C 0.42119 0.59927 0.37242 0.0
C468 C 0.40797 0.61105 0.36781 0.0
C469 C 0.40459 0.61427 0.35015 0.0
N470 N 0.43079 0.59091 0.35981 0.0
C471 C 0.42759 0.59404 0.34248 0.0
Co472 Co 0.38878 0.22004 0.31153 0.0
Co473 Co 0.38368 0.1772 0.30141 0.0
O474 O 0.3991 0.19706 0.30663 0.0
C475 C 0.41851 0.21685 0.33705 0.0
O476 O 0.41466 0.20035 0.33996 0.0
C477 C 0.41068 0.17519 0.2738 0.0
O478 O 0.40801 0.19194 0.27093 0.0
O479 O 0.37388 0.19056 0.28121 0.0
O480 O 0.36816 0.21511 0.296 0.0
H481 H 0.3263 0.14906 0.28567 0.0
H482 H 0.42526 0.21767 0.29835 0.0
O483 O 0.40913 0.22606 0.3268 0.0
H484 H 0.39435 0.25567 0.25618 0.0
H485 H 0.39001 0.28512 0.32278 0.0
H486 H 0.35269 0.23251 0.31926 0.0
H487 H 0.37891 0.24374 0.28191 0.0
H488 H 0.40282 0.2564 0.31539 0.0
O489 O 0.40205 0.16722 0.28564 0.0
H490 H 0.34593 0.17365 0.29311 0.0
H491 H 0.38908 0.13872 0.29699 0.0
H492 H 0.33935 0.26094 0.32661 0.0
H493 H 0.4413 0.22955 0.27292 0.0
H494 H 0.35804 0.28754 0.3284 0.0
H495 H 0.4258 0.24861 0.25156 0.0
O496 O 0.37605 0.2096 0.3316 0.0
H497 H 0.43288 0.15412 0.33856 0.0
H498 H 0.36871 0.15694 0.3314 0.0
H499 H 0.38121 0.141 0.35658 0.0
H500 H 0.41352 0.13947 0.36026 0.0
H501 H 0.4198 0.17009 0.31367 0.0
H502 H 0.36997 0.11377 0.28943 0.0
H503 H 0.33831 0.11886 0.28379 0.0
O504 O 0.3648 0.1866 0.31735 0.0
C505 C 0.36673 0.20558 0.28238 0.0
C506 C 0.34006 0.14666 0.28816 0.0
C507 C 0.36457 0.12686 0.29025 0.0
N508 N 0.36858 0.15759 0.29564 0.0
C509 C 0.35122 0.16053 0.29242 0.0
C510 C 0.37534 0.14104 0.29449 0.0
C511 C 0.34681 0.12972 0.28709 0.0
C512 C 0.41848 0.22609 0.28921 0.0
N513 N 0.40116 0.22994 0.29161 0.0
C514 C 0.42761 0.23273 0.2748 0.0
C515 C 0.4189 0.24341 0.26281 0.0
C516 C 0.40126 0.24737 0.26539 0.0
C517 C 0.39257 0.24052 0.27996 0.0
C518 C 0.38174 0.27362 0.32208 0.0
C519 C 0.36095 0.24397 0.32004 0.0
C520 C 0.38894 0.25729 0.318 0.0
N521 N 0.37856 0.24272 0.317 0.0
C522 C 0.3533 0.26007 0.3242 0.0
C523 C 0.3638 0.27497 0.32522 0.0
C524 C 0.36442 0.19771 0.32991 0.0
C525 C 0.41878 0.15466 0.33708 0.0
C526 C 0.38278 0.15643 0.33297 0.0
C527 C 0.38978 0.14733 0.34722 0.0
C528 C 0.40791 0.14647 0.34926 0.0
N529 N 0.39353 0.16442 0.32107 0.0
C530 C 0.41131 0.16363 0.32298 0.0
Co531 Co 0.03594 0.14449 0.5684 0.0
Co532 Co 0.07393 0.13256 0.54861 0.0
O533 O 0.05917 0.15057 0.55946 0.0
C534 C 0.0492 0.17406 0.59151 0.0
O535 O 0.06416 0.17506 0.58311 0.0
C536 C 0.07604 0.16223 0.52395 0.0
O537 O 0.05885 0.16279 0.52428 0.0
O538 O 0.05518 0.12809 0.53102 0.0
O539 O 0.0328 0.12618 0.54984 0.0
H540 H 0.08603 0.07363 0.52187 0.0
H541 H 0.04415 0.1814 0.5575 0.0
O542 O 0.03776 0.16259 0.58744 0.0
H543 H 0.99168 0.16472 0.52386 0.0
H544 H 0.97659 0.15667 0.59469 0.0
H545 H 0.01745 0.11081 0.57466 0.0
H546 H 0.00507 0.14395 0.54456 0.0
H547 H 0.00538 0.16462 0.58238 0.0
O548 O 0.08423 0.15079 0.53291 0.0
H549 H 0.06792 0.09624 0.53622 0.0
H550 H 0.11107 0.13139 0.5365 0.0
H551 H 0.98877 0.10231 0.5868 0.0
H552 H 0.03095 0.20267 0.53729 0.0
H553 H 0.96808 0.12533 0.59691 0.0
H554 H 0.00454 0.1944 0.52017 0.0
O555 O 0.04693 0.12694 0.58405 0.0
H556 H 0.11386 0.17103 0.58413 0.0
H557 H 0.09579 0.11015 0.57213 0.0
H558 H 0.11852 0.11589 0.59436 0.0
H559 H 0.12772 0.14651 0.60047 0.0
H560 H 0.09108 0.1647 0.56209 0.0
H561 H 0.12961 0.10922 0.52201 0.0
H562 H 0.11712 0.08007 0.51468 0.0
O563 O 0.06404 0.11374 0.56427 0.0
C564 C 0.0394 0.12408 0.53465 0.0
C565 C 0.09164 0.08627 0.52505 0.0
C566 C 0.1161 0.10625 0.52511 0.0
N567 N 0.08847 0.11505 0.53734 0.0
C568 C 0.08146 0.0991 0.53322 0.0
C569 C 0.10552 0.11876 0.53328 0.0
C570 C 0.10908 0.08989 0.52101 0.0
C571 C 0.03244 0.17777 0.55055 0.0
N572 N 0.02522 0.16151 0.55266 0.0
C573 C 0.0251 0.18985 0.53892 0.0
C574 C 0.01032 0.18519 0.52928 0.0
C575 C 0.0031 0.16855 0.53135 0.0
C576 C 0.01077 0.15684 0.54312 0.0
C577 C 0.98548 0.14652 0.59033 0.0
C578 C 0.00854 0.12092 0.57899 0.0
C579 C 0.00184 0.15094 0.5834 0.0
N580 N 0.01312 0.13819 0.57777 0.0
C581 C 0.9923 0.11602 0.58587 0.0
C582 C 0.98072 0.12894 0.59156 0.0
C583 C 0.05564 0.1137 0.57877 0.0
C584 C 0.10996 0.15763 0.5816 0.0
C585 C 0.09961 0.12353 0.5748 0.0
C586 C 0.11255 0.12669 0.58736 0.0
C587 C 0.11772 0.14387 0.59077 0.0
N588 N 0.09204 0.1371 0.56588 0.0
C589 C 0.09707 0.15396 0.56913 0.0
Co590 Co 0.10833 0.77869 0.8105 0.0
Co591 Co 0.11436 0.8215 0.80082 0.0
O592 O 0.0985 0.80193 0.80587 0.0
C593 C 0.07881 0.78217 0.83623 0.0
O594 O 0.08323 0.79846 0.83954 0.0
C595 C 0.08732 0.82443 0.77336 0.0
O596 O 0.08962 0.80766 0.7703 0.0
O597 O 0.12377 0.80814 0.78043 0.0
O598 O 0.12904 0.78336 0.79501 0.0
H599 H 0.17231 0.84849 0.78509 0.0
H600 H 0.07192 0.782 0.79734 0.0
O601 O 0.08785 0.77293 0.8257 0.0
H602 H 0.10198 0.74365 0.75488 0.0
H603 H 0.10578 0.71352 0.82106 0.0
H604 H 0.14414 0.76542 0.81815 0.0
H605 H 0.11767 0.75503 0.78069 0.0
H606 H 0.09355 0.74258 0.81401 0.0
O607 O 0.09616 0.83208 0.78525 0.0
H608 H 0.15215 0.82427 0.79237 0.0
H609 H 0.10983 0.86013 0.79687 0.0
H610 H 0.15692 0.73664 0.82516 0.0
H611 H 0.05563 0.7707 0.77181 0.0
H612 H 0.1377 0.7104 0.82665 0.0
H613 H 0.0707 0.75146 0.75031 0.0
O614 O 0.12126 0.78866 0.83067 0.0
H615 H 0.06586 0.84516 0.8385 0.0
H616 H 0.12992 0.84109 0.83095 0.0
H617 H 0.11788 0.857 0.85638 0.0
H618 H 0.08563 0.85915 0.86025 0.0
H619 H 0.07847 0.82922 0.81336 0.0
H620 H 0.12948 0.88473 0.78949 0.0
H621 H 0.16098 0.87898 0.78361 0.0
O622 O 0.1331 0.81147 0.81658 0.0
C623 C 0.13059 0.79296 0.78145 0.0
C624 C 0.15862 0.85117 0.78769 0.0
C625 C 0.13458 0.87151 0.79013 0.0
N626 N 0.12989 0.84081 0.79521 0.0
C627 C 0.14716 0.83752 0.79187 0.0
C628 C 0.12351 0.85753 0.79427 0.0
C629 C 0.15225 0.86827 0.78684 0.0
C630 C 0.07852 0.7735 0.78813 0.0
N631 N 0.09575 0.76925 0.79049 0.0
C632 C 0.06924 0.76719 0.77367 0.0
C633 C 0.07771 0.75641 0.76159 0.0
C634 C 0.09525 0.75203 0.76414 0.0
C635 C 0.1041 0.75857 0.77876 0.0
C636 C 0.11429 0.72486 0.82049 0.0
C637 C 0.13566 0.75411 0.81879 0.0
C638 C 0.10741 0.74138 0.81659 0.0
N639 N 0.11808 0.75575 0.81575 0.0
C640 C 0.14298 0.73782 0.82276 0.0
C641 C 0.1322 0.72311 0.82361 0.0
C642 C 0.13319 0.80025 0.82906 0.0
C643 C 0.07993 0.84435 0.83694 0.0
C644 C 0.11587 0.84188 0.8326 0.0
C645 C 0.10913 0.85095 0.84699 0.0
C646 C 0.09103 0.85217 0.84915 0.0
N647 N 0.10489 0.83425 0.82067 0.0
C648 C 0.08714 0.83539 0.82269 0.0
Co649 Co 0.46502 0.85795 0.07045 0.0
Co650 Co 0.42641 0.86851 0.05114 0.0
O651 O 0.44195 0.85101 0.06172 0.0
C652 C 0.45332 0.82763 0.09342 0.0
O653 O 0.43828 0.82612 0.08521 0.0
C654 C 0.42511 0.83901 0.02622 0.0
O655 O 0.44231 0.83915 0.02624 0.0
O656 O 0.44476 0.87376 0.03336 0.0
O657 O 0.46725 0.87647 0.05192 0.0
H658 H 0.41183 0.92702 0.02469 0.0
H659 H 0.45805 0.82088 0.05924 0.0
O660 O 0.46416 0.83968 0.08939 0.0
H661 H 0.50979 0.83965 0.02556 0.0
H662 H 0.52505 0.84803 0.09618 0.0
H663 H 0.48223 0.89232 0.07669 0.0
H664 H 0.49573 0.8598 0.04644 0.0
H665 H 0.4965 0.839 0.08404 0.0
O666 O 0.41661 0.84997 0.03548 0.0
H667 H 0.43092 0.90507 0.03879 0.0
H668 H 0.3891 0.86835 0.03948 0.0
H669 H 0.51063 0.9019 0.08865 0.0
H670 H 0.47194 0.80023 0.03886 0.0
H671 H 0.5323 0.87969 0.0985 0.0
H672 H 0.49799 0.80956 0.02173 0.0
O673 O 0.4535 0.87495 0.08631 0.0
H674 H 0.38834 0.82844 0.08695 0.0
H675 H 0.40398 0.89 0.07499 0.0
H676 H 0.38172 0.88332 0.09744 0.0
H677 H 0.37374 0.85235 0.10352 0.0
H678 H 0.41064 0.83571 0.0647 0.0
H679 H 0.36959 0.88984 0.02524 0.0
H680 H 0.38092 0.91945 0.01782 0.0
O681 O 0.43578 0.88764 0.06675 0.0
C682 C 0.46045 0.87827 0.03677 0.0
C683 C 0.40672 0.91418 0.02791 0.0
C684 C 0.38302 0.89331 0.02821 0.0
N685 N 0.41108 0.88552 0.04011 0.0
C686 C 0.41746 0.90172 0.03594 0.0
C687 C 0.39414 0.88118 0.03623 0.0
C688 C 0.38938 0.90992 0.02405 0.0
C689 C 0.46961 0.82498 0.0523 0.0
N690 N 0.47626 0.84146 0.0545 0.0
C691 C 0.47733 0.81324 0.04056 0.0
C692 C 0.49191 0.8185 0.03091 0.0
C693 C 0.49854 0.83536 0.03306 0.0
C694 C 0.49049 0.84672 0.04494 0.0
C695 C 0.51572 0.85784 0.09193 0.0
C696 C 0.49157 0.88255 0.0809 0.0
C697 C 0.4995 0.85281 0.0851 0.0
N698 N 0.48767 0.86511 0.07963 0.0
C699 C 0.50764 0.88807 0.08768 0.0
C700 C 0.51978 0.8756 0.09322 0.0
C701 C 0.44431 0.88791 0.08116 0.0
C702 C 0.39172 0.84198 0.08443 0.0
C703 C 0.4007 0.87648 0.07766 0.0
C704 C 0.38802 0.87278 0.09034 0.0
C705 C 0.38354 0.8554 0.09373 0.0
N706 N 0.40868 0.86323 0.06861 0.0
C707 C 0.40433 0.84618 0.07184 0.0
Co708 Co 0.89231 0.27813 0.68937 0.0
Co709 Co 0.88565 0.3208 0.69922 0.0
O710 O 0.9018 0.30147 0.69418 0.0
C711 C 0.92179 0.28211 0.66366 0.0
O712 O 0.91697 0.29825 0.66015 0.0
C713 C 0.91249 0.32393 0.72686 0.0
O714 O 0.91036 0.30713 0.72985 0.0
O715 O 0.87626 0.30721 0.71948 0.0
O716 O 0.87145 0.28241 0.70476 0.0
H717 H 0.82728 0.347 0.7147 0.0
H718 H 0.92861 0.28184 0.70272 0.0
O719 O 0.91297 0.27276 0.67427 0.0
H720 H 0.89878 0.24301 0.74493 0.0
H721 H 0.89586 0.21307 0.67848 0.0
H722 H 0.85674 0.26439 0.68144 0.0
H723 H 0.8831 0.25425 0.71905 0.0
H724 H 0.90763 0.24226 0.68574 0.0
O725 O 0.90362 0.33152 0.71496 0.0
H726 H 0.84778 0.32306 0.70745 0.0
H727 H 0.88968 0.35947 0.70338 0.0
H728 H 0.84442 0.23546 0.6742 0.0
H729 H 0.9449 0.27066 0.72831 0.0
H730 H 0.86403 0.20951 0.67269 0.0
H731 H 0.92994 0.25118 0.74969 0.0
O732 O 0.87934 0.28802 0.66917 0.0
H733 H 0.93411 0.34518 0.66193 0.0
H734 H 0.87006 0.34038 0.6691 0.0
H735 H 0.88206 0.35654 0.64382 0.0
H736 H 0.91431 0.35907 0.64014 0.0
H737 H 0.92153 0.32898 0.68693 0.0
H738 H 0.86968 0.38378 0.71073 0.0
H739 H 0.83821 0.37761 0.71637 0.0
O740 O 0.86716 0.31062 0.6833 0.0
C741 C 0.86962 0.29195 0.71832 0.0
C742 C 0.84095 0.34986 0.7122 0.0
C743 C 0.86475 0.3705 0.71 0.0
N744 N 0.86985 0.33989 0.70482 0.0
C745 C 0.8526 0.33637 0.70804 0.0
C746 C 0.87601 0.35668 0.70587 0.0
C747 C 0.84709 0.36703 0.71316 0.0
C748 C 0.92206 0.27323 0.71187 0.0
N749 N 0.90491 0.26877 0.70941 0.0
C750 C 0.93134 0.26699 0.72637 0.0
C751 C 0.92293 0.25608 0.73837 0.0
C752 C 0.90546 0.25149 0.73572 0.0
C753 C 0.89662 0.25796 0.72106 0.0
C754 C 0.88719 0.22428 0.67906 0.0
C755 C 0.86539 0.25321 0.68079 0.0
C756 C 0.8938 0.24087 0.68309 0.0
N757 N 0.88292 0.25508 0.68395 0.0
C758 C 0.85832 0.23684 0.67669 0.0
C759 C 0.86933 0.22229 0.67584 0.0
C760 C 0.86726 0.29946 0.67078 0.0
C761 C 0.92003 0.34421 0.66341 0.0
C762 C 0.8841 0.34133 0.66754 0.0
C763 C 0.89082 0.35055 0.65322 0.0
C764 C 0.90892 0.35198 0.65118 0.0
N765 N 0.8951 0.33377 0.6795 0.0
C766 C 0.91284 0.33511 0.67757 0.0
Co767 Co 0.9642 0.64395 0.93105 0.0
Co768 Co 0.92605 0.63263 0.9509 0.0
O769 O 0.94104 0.65036 0.93993 0.0
C770 C 0.95124 0.6734 0.90761 0.0
O771 O 0.93623 0.67454 0.91591 0.0
C772 C 0.92445 0.66242 0.97541 0.0
O773 O 0.94165 0.66261 0.97514 0.0
O774 O 0.94472 0.62797 0.96852 0.0
O775 O 0.96714 0.62577 0.94978 0.0
H776 H 0.91306 0.57405 0.97803 0.0
H777 H 0.95637 0.68104 0.94155 0.0
O778 O 0.96259 0.6619 0.91186 0.0
H779 H 0.00861 0.66414 0.97546 0.0
H780 H 0.0237 0.65528 0.90471 0.0
H781 H 0.98232 0.61002 0.92507 0.0
H782 H 0.99502 0.6433 0.95496 0.0
H783 H 0.99498 0.66363 0.91694 0.0
O784 O 0.91604 0.65112 0.96648 0.0
H785 H 0.93151 0.59629 0.96352 0.0
H786 H 0.88891 0.6321 0.96305 0.0
H787 H 0.01091 0.60112 0.91303 0.0
H788 H 0.96976 0.70237 0.96157 0.0
H789 H 0.03185 0.62383 0.90275 0.0
H790 H 0.99606 0.69399 0.97882 0.0
O791 O 0.95303 0.62639 0.91555 0.0
H792 H 0.88659 0.67143 0.9152 0.0
H793 H 0.90388 0.61039 0.92751 0.0
H794 H 0.88122 0.61631 0.90526 0.0
H795 H 0.87241 0.64702 0.899 0.0
H796 H 0.9093 0.66492 0.93726 0.0
H797 H 0.87003 0.61031 0.97769 0.0
H798 H 0.88208 0.58101 0.9852 0.0
O799 O 0.93567 0.61356 0.93537 0.0
C800 C 0.96045 0.62376 0.96494 0.0
C801 C 0.90764 0.58675 0.97476 0.0
C802 C 0.8835 0.6071 0.9746 0.0
N803 N 0.91124 0.6154 0.9623 0.0
C804 C 0.91801 0.59937 0.96651 0.0
C805 C 0.89426 0.6194 0.96634 0.0
C806 C 0.89026 0.59067 0.9788 0.0
C807 C 0.96803 0.67735 0.94856 0.0
N808 N 0.97508 0.661 0.94664 0.0
C809 C 0.97548 0.68947 0.96008 0.0
C810 C 0.99019 0.68475 0.9698 0.0
C811 C 0.99724 0.66802 0.96792 0.0
C812 C 0.98946 0.65626 0.95625 0.0
C813 C 0.01469 0.64526 0.90915 0.0
C814 C 0.99134 0.62 0.92067 0.0
C815 C 0.99838 0.64991 0.91603 0.0
N816 N 0.98696 0.63733 0.92175 0.0
C817 C 0.00753 0.61487 0.91384 0.0
C818 C 0.01926 0.62762 0.90806 0.0
C819 C 0.94414 0.61331 0.92091 0.0
C820 C 0.89033 0.65799 0.9178 0.0
C821 C 0.90024 0.6238 0.92476 0.0
C822 C 0.88734 0.62707 0.9122 0.0
C823 C 0.88238 0.64429 0.9087 0.0
N824 N 0.90799 0.63732 0.93361 0.0
C825 C 0.90317 0.65423 0.93028 0.0
Co826 Co 0.6085 0.7169 0.18158 0.0
Co827 Co 0.61661 0.67708 0.19964 0.0
O828 O 0.60028 0.69389 0.18931 0.0
C829 C 0.57844 0.70711 0.15748 0.0
O830 O 0.57691 0.69153 0.16457 0.0
C831 C 0.58721 0.6764 0.22487 0.0
O832 O 0.58906 0.6934 0.22672 0.0
O833 O 0.62261 0.69451 0.21812 0.0
O834 O 0.62673 0.71753 0.20047 0.0
H835 H 0.67377 0.65821 0.22633 0.0
H836 H 0.571 0.71104 0.1917 0.0
O837 O 0.5905 0.71761 0.16233 0.0
H838 H 0.59121 0.76035 0.22812 0.0
H839 H 0.60171 0.77831 0.15822 0.0
H840 H 0.6437 0.73284 0.17678 0.0
H841 H 0.61115 0.74648 0.20691 0.0
H842 H 0.59121 0.74968 0.16891 0.0
O843 O 0.59717 0.66784 0.21458 0.0
H844 H 0.65318 0.67902 0.21259 0.0
H845 H 0.61406 0.63951 0.21013 0.0
H846 H 0.65473 0.76131 0.16629 0.0
H847 H 0.55057 0.72477 0.21245 0.0
H848 H 0.63368 0.7843 0.15692 0.0
H849 H 0.56062 0.74959 0.23094 0.0
O850 O 0.6254 0.70526 0.16563 0.0
H851 H 0.57519 0.64221 0.16213 0.0
H852 H 0.63727 0.65442 0.1753 0.0
H853 H 0.62982 0.63327 0.15205 0.0
H854 H 0.59858 0.62701 0.14535 0.0
H855 H 0.58323 0.6634 0.18516 0.0
H856 H 0.63416 0.61831 0.22397 0.0
H857 H 0.66428 0.62761 0.23209 0.0
O858 O 0.63647 0.68588 0.18467 0.0
C859 C 0.62799 0.71006 0.21535 0.0
C860 C 0.6607 0.65399 0.22279 0.0
C861 C 0.63846 0.6316 0.22149 0.0
N862 N 0.63251 0.66044 0.21042 0.0
C863 C 0.649 0.6657 0.21497 0.0
C864 C 0.62713 0.64367 0.21369 0.0
C865 C 0.65536 0.63682 0.22604 0.0
C866 C 0.57544 0.72207 0.1993 0.0
N867 N 0.59219 0.72817 0.19766 0.0
C868 C 0.56381 0.7297 0.21121 0.0
C869 C 0.56947 0.74359 0.22161 0.0
C870 C 0.58661 0.74964 0.22003 0.0
C871 C 0.59785 0.74172 0.20796 0.0
C872 C 0.61102 0.76839 0.16226 0.0
C873 C 0.63444 0.74276 0.17276 0.0
C874 C 0.60515 0.75212 0.16826 0.0
N875 N 0.61683 0.73956 0.17347 0.0
C876 C 0.64077 0.75887 0.16681 0.0
C877 C 0.62895 0.77175 0.16154 0.0
C878 C 0.63765 0.69506 0.17069 0.0
C879 C 0.58885 0.64484 0.1649 0.0
C880 C 0.62364 0.65191 0.17235 0.0
C881 C 0.6195 0.63985 0.15923 0.0
C882 C 0.60198 0.63633 0.15549 0.0
N883 N 0.61068 0.66025 0.1815 0.0
C884 C 0.59348 0.65682 0.17795 0.0
Co885 Co 0.53288 0.35591 0.43238 0.0
Co886 Co 0.57198 0.36727 0.45045 0.0
O887 O 0.55652 0.34964 0.44002 0.0
C888 C 0.54523 0.32726 0.40769 0.0
O889 O 0.56067 0.32631 0.41518 0.0
C890 C 0.57457 0.33738 0.47471 0.0
O891 O 0.55737 0.33714 0.47496 0.0
O892 O 0.55415 0.37176 0.46892 0.0
O893 O 0.53055 0.37369 0.4516 0.0
H894 H 0.58609 0.42565 0.47743 0.0
H895 H 0.54163 0.3187 0.44159 0.0
O896 O 0.53383 0.33836 0.41277 0.0
H897 H 0.49108 0.33419 0.47858 0.0
H898 H 0.47235 0.34418 0.40871 0.0
H899 H 0.51406 0.38967 0.42784 0.0
H900 H 0.50333 0.35566 0.45787 0.0
H901 H 0.50172 0.33603 0.41944 0.0
O902 O 0.58267 0.34868 0.46548 0.0
H903 H 0.56704 0.4035 0.46358 0.0
H904 H 0.60962 0.36776 0.46095 0.0
H905 H 0.48481 0.39837 0.41729 0.0
H906 H 0.52955 0.29677 0.4618 0.0
H907 H 0.46371 0.37555 0.40763 0.0
H908 H 0.50412 0.30444 0.48059 0.0
O909 O 0.543 0.37393 0.41669 0.0
H910 H 0.61004 0.32884 0.4129 0.0
H911 H 0.59295 0.38973 0.42619 0.0
H912 H 0.61465 0.38403 0.40294 0.0
H913 H 0.62336 0.3534 0.39619 0.0
H914 H 0.58827 0.33513 0.43595 0.0
H915 H 0.6291 0.38946 0.47491 0.0
H916 H 0.61736 0.41867 0.48318 0.0
O917 O 0.56164 0.38644 0.43555 0.0
C918 C 0.53818 0.37576 0.4663 0.0
C919 C 0.59137 0.41299 0.47383 0.0
C920 C 0.61551 0.39267 0.47244 0.0
N921 N 0.58726 0.38443 0.46131 0.0
C922 C 0.58066 0.40042 0.46594 0.0
C923 C 0.60441 0.38042 0.46456 0.0
C924 C 0.60891 0.40906 0.47707 0.0
C925 C 0.53032 0.32209 0.4493 0.0
N926 N 0.52301 0.3384 0.44813 0.0
C927 C 0.52363 0.30962 0.46091 0.0
C928 C 0.5094 0.31395 0.47149 0.0
C929 C 0.50208 0.33063 0.47037 0.0
C930 C 0.5091 0.34274 0.45858 0.0
C931 C 0.48143 0.35425 0.41289 0.0
C932 C 0.50495 0.37964 0.42372 0.0
C933 C 0.4981 0.34972 0.41893 0.0
N934 N 0.50961 0.36236 0.42432 0.0
C935 C 0.4884 0.38466 0.41773 0.0
C936 C 0.47658 0.37185 0.4123 0.0
C937 C 0.55229 0.3869 0.42166 0.0
C938 C 0.60634 0.34224 0.41571 0.0
C939 C 0.59654 0.37635 0.42322 0.0
C940 C 0.6089 0.37321 0.4101 0.0
C941 C 0.6138 0.35602 0.40633 0.0
N942 N 0.58925 0.36275 0.43234 0.0
C943 C 0.59403 0.34588 0.42875 0.0
Co944 Co 0.31688 0.39056 0.21579 0.0
Co945 Co 0.30032 0.38105 0.17551 0.0
O946 O 0.31049 0.39786 0.19205 0.0
C947 C 0.34272 0.41904 0.20564 0.0
O948 O 0.33607 0.4205 0.18986 0.0
C949 C 0.27693 0.41163 0.17294 0.0
O950 O 0.27626 0.41149 0.19013 0.0
O951 O 0.28097 0.37642 0.19231 0.0
O952 O 0.29713 0.37322 0.21658 0.0
H953 H 0.27258 0.32392 0.15817 0.0
H954 H 0.30902 0.4283 0.208 0.0
O955 O 0.33694 0.40764 0.2164 0.0
H956 H 0.26944 0.41203 0.2563 0.0
H957 H 0.33805 0.39951 0.27771 0.0
H958 H 0.31959 0.35605 0.2336 0.0
H959 H 0.29007 0.39044 0.24414 0.0
H960 H 0.32891 0.40897 0.2482 0.0
O961 O 0.28616 0.40034 0.16483 0.0
H962 H 0.28612 0.34502 0.17858 0.0
H963 H 0.29155 0.38212 0.13744 0.0
H964 H 0.32854 0.34605 0.26297 0.0
H965 H 0.28894 0.45035 0.22004 0.0
H966 H 0.33785 0.36784 0.28528 0.0
H967 H 0.26884 0.4423 0.24434 0.0
O968 O 0.33256 0.37247 0.20575 0.0
H969 H 0.3404 0.41986 0.14051 0.0
H970 H 0.32499 0.35876 0.15485 0.0
H971 H 0.34931 0.36464 0.1344 0.0
H972 H 0.35713 0.39538 0.12708 0.0
H973 H 0.31626 0.41338 0.16102 0.0
H974 H 0.27793 0.36148 0.11662 0.0
H975 H 0.26841 0.33211 0.12694 0.0
O976 O 0.31428 0.36116 0.18581 0.0
C977 C 0.28274 0.3718 0.20823 0.0
C978 C 0.27673 0.33665 0.1535 0.0
C979 C 0.27971 0.35774 0.13018 0.0
N980 N 0.28977 0.36471 0.15917 0.0
C981 C 0.28445 0.34864 0.16498 0.0
C982 C 0.28739 0.36939 0.14204 0.0
C983 C 0.27438 0.34126 0.13598 0.0
C984 C 0.30075 0.42472 0.21884 0.0
N985 N 0.30115 0.40813 0.22557 0.0
C986 C 0.2892 0.43726 0.2255 0.0
C987 C 0.27789 0.43273 0.23909 0.0
C988 C 0.27823 0.41576 0.24581 0.0
C989 C 0.28997 0.40357 0.23884 0.0
C990 C 0.33401 0.38988 0.2681 0.0
C991 C 0.32358 0.36564 0.24323 0.0
C992 C 0.32888 0.39515 0.25134 0.0
N993 N 0.32369 0.38308 0.23916 0.0
C994 C 0.32865 0.35988 0.25984 0.0
C995 C 0.33389 0.37212 0.27235 0.0
C996 C 0.32767 0.35996 0.19581 0.0
C997 C 0.33713 0.40641 0.14361 0.0
C998 C 0.32842 0.37218 0.15187 0.0
C999 C 0.34215 0.37542 0.14021 0.0
C1000 C 0.34652 0.39267 0.13609 0.0
N1001 N 0.31929 0.38573 0.15922 0.0
C1002 C 0.32346 0.40266 0.1552 0.0
Co1003 Co 0.81949 0.1073 0.78341 0.0
Co1004 Co 0.80123 0.11711 0.82276 0.0
O1005 O 0.81171 0.1 0.80674 0.0
C1006 C 0.84354 0.07746 0.79416 0.0
O1007 O 0.83609 0.07596 0.80958 0.0
C1008 C 0.77683 0.08714 0.82471 0.0
O1009 O 0.77626 0.08732 0.80752 0.0
O1010 O 0.78275 0.12214 0.80503 0.0
O1011 O 0.80051 0.12538 0.78196 0.0
H1012 H 0.77415 0.17497 0.83869 0.0
H1013 H 0.80946 0.06992 0.79057 0.0
O1014 O 0.83886 0.08943 0.78348 0.0
H1015 H 0.77339 0.08816 0.74027 0.0
H1016 H 0.84325 0.09822 0.72244 0.0
H1017 H 0.82414 0.14187 0.76608 0.0
H1018 H 0.7943 0.10873 0.75365 0.0
H1019 H 0.83245 0.0888 0.75139 0.0
O1020 O 0.78625 0.09818 0.83291 0.0
H1021 H 0.78806 0.15346 0.81897 0.0
H1022 H 0.79072 0.11639 0.86041 0.0
H1023 H 0.83475 0.15183 0.73727 0.0
H1024 H 0.78906 0.04887 0.77734 0.0
H1025 H 0.8444 0.12994 0.71519 0.0
H1026 H 0.77072 0.05792 0.75202 0.0
O1027 O 0.83533 0.1247 0.79442 0.0
H1028 H 0.83901 0.07749 0.85936 0.0
H1029 H 0.82534 0.13891 0.8446 0.0
H1030 H 0.84861 0.13252 0.86608 0.0
H1031 H 0.85556 0.10162 0.87362 0.0
H1032 H 0.81592 0.08447 0.83784 0.0
H1033 H 0.77669 0.13744 0.88055 0.0
H1034 H 0.76838 0.16699 0.86973 0.0
O1035 O 0.81613 0.13661 0.81309 0.0
C1036 C 0.7856 0.12691 0.7893 0.0
C1037 C 0.77776 0.16215 0.84358 0.0
C1038 C 0.77917 0.14108 0.86706 0.0
N1039 N 0.79034 0.13376 0.83857 0.0
C1040 C 0.78569 0.14994 0.83248 0.0
C1041 C 0.78708 0.1292 0.85559 0.0
C1042 C 0.77452 0.15766 0.86098 0.0
C1043 C 0.80198 0.07392 0.77931 0.0
N1044 N 0.80354 0.09048 0.77268 0.0
C1045 C 0.79024 0.06195 0.77196 0.0
C1046 C 0.77992 0.06704 0.7578 0.0
C1047 C 0.78141 0.084 0.7512 0.0
C1048 C 0.79332 0.09559 0.75885 0.0
C1049 C 0.83909 0.10789 0.73195 0.0
C1050 C 0.82828 0.13224 0.75657 0.0
C1051 C 0.83302 0.10264 0.74841 0.0
N1052 N 0.82767 0.11477 0.76047 0.0
C1053 C 0.8343 0.13797 0.74026 0.0
C1054 C 0.83972 0.12568 0.72789 0.0
C1055 C 0.83018 0.1374 0.80399 0.0
C1056 C 0.83611 0.09101 0.85618 0.0
C1057 C 0.82838 0.12542 0.84769 0.0
C1058 C 0.84152 0.12189 0.85992 0.0
C1059 C 0.8454 0.10455 0.86416 0.0
N1060 N 0.81934 0.11206 0.83989 0.0
C1061 C 0.82305 0.09504 0.84401 0.0
Co1062 Co 0.14068 0.56111 0.02875 0.0
Co1063 Co 0.13488 0.55046 0.07134 0.0
O1064 O 0.15065 0.556 0.05183 0.0
C1065 C 0.17017 0.58683 0.03263 0.0
O1066 O 0.16587 0.58974 0.04903 0.0
C1067 C 0.16213 0.52312 0.07356 0.0
O1068 O 0.15974 0.52037 0.05675 0.0
O1069 O 0.12553 0.53032 0.05757 0.0
O1070 O 0.12004 0.54545 0.03318 0.0
H1071 H 0.07713 0.53382 0.09821 0.0
H1072 H 0.17714 0.54798 0.03158 0.0
O1073 O 0.16109 0.57649 0.02322 0.0
H1074 H 0.14699 0.50626 0.9925 0.0
H1075 H 0.14283 0.57313 0.96383 0.0
H1076 H 0.10478 0.569 0.01587 0.0
H1077 H 0.1313 0.5318 0.00448 0.0
H1078 H 0.15524 0.56543 0.99264 0.0
O1079 O 0.15321 0.53477 0.0815 0.0
H1080 H 0.09715 0.54174 0.07408 0.0
H1081 H 0.13958 0.54569 0.10986 0.0
H1082 H 0.09183 0.57666 0.98733 0.0
H1083 H 0.19344 0.52273 0.01966 0.0
H1084 H 0.11089 0.57876 0.96102 0.0
H1085 H 0.17832 0.50159 6e-05 0.0
O1086 O 0.12777 0.58101 0.03925 0.0
H1087 H 0.18326 0.58788 0.09566 0.0
H1088 H 0.11923 0.58006 0.09166 0.0
H1089 H 0.13119 0.60519 0.10809 0.0
H1090 H 0.16342 0.60919 0.11021 0.0
H1091 H 0.17073 0.56303 0.0792 0.0
H1092 H 0.12007 0.53765 0.13436 0.0
H1093 H 0.08858 0.53173 0.12861 0.0
O1094 O 0.11601 0.56634 0.06173 0.0
C1095 C 0.11864 0.53164 0.04245 0.0
C1096 C 0.09081 0.53643 0.10089 0.0
C1097 C 0.11492 0.53856 0.12118 0.0
N1098 N 0.11946 0.54434 0.09059 0.0
C1099 C 0.10219 0.54097 0.08729 0.0
C1100 C 0.12591 0.54307 0.10725 0.0
C1101 C 0.09725 0.53525 0.11794 0.0
C1102 C 0.17052 0.53894 0.02292 0.0
N1103 N 0.15327 0.54135 0.0188 0.0
C1104 C 0.1798 0.52463 0.01626 0.0
C1105 C 0.1713 0.51276 0.00528 0.0
C1106 C 0.15373 0.51536 0.00103 0.0
C1107 C 0.14489 0.52983 0.00792 0.0
C1108 C 0.13439 0.57229 0.9752 0.0
C1109 C 0.1132 0.5699 0.00453 0.0
C1110 C 0.14137 0.56802 0.99158 0.0
N1111 N 0.13079 0.56684 0.00599 0.0
C1112 C 0.10577 0.57424 0.98838 0.0
C1113 C 0.11647 0.57543 0.97363 0.0
C1114 C 0.11587 0.5791 0.05082 0.0
C1115 C 0.16919 0.58625 0.09486 0.0
C1116 C 0.13327 0.58177 0.09243 0.0
C1117 C 0.13997 0.59599 0.1018 0.0
C1118 C 0.15805 0.59822 0.103 0.0
N1119 N 0.14429 0.57008 0.08449 0.0
C1120 C 0.16203 0.57218 0.08561 0.0
Co1121 Co 0.67984 0.8934 0.28583 0.0
Co1122 Co 0.69788 0.88266 0.32504 0.0
O1123 O 0.68798 0.90026 0.30915 0.0
C1124 C 0.65682 0.92396 0.29683 0.0
O1125 O 0.66451 0.92533 0.31215 0.0
C1126 C 0.72316 0.91182 0.32695 0.0
O1127 O 0.72334 0.91183 0.30975 0.0
O1128 O 0.7161 0.87708 0.30722 0.0
O1129 O 0.69815 0.87464 0.28419 0.0
H1130 H 0.72296 0.82378 0.34051 0.0
H1131 H 0.69113 0.93041 0.29298 0.0
O1132 O 0.66111 0.91192 0.28609 0.0
H1133 H 0.72652 0.911 0.24264 0.0
H1134 H 0.65622 0.90363 0.22499 0.0
H1135 H 0.67378 0.85911 0.2684 0.0
H1136 H 0.70492 0.89116 0.25602 0.0
H1137 H 0.66748 0.91251 0.25394 0.0
O1138 O 0.7136 0.90095 0.33523 0.0
H1139 H 0.70977 0.8459 0.32097 0.0
H1140 H 0.70847 0.88274 0.36266 0.0
H1141 H 0.66268 0.84967 0.2396 0.0
H1142 H 0.71223 0.95077 0.27975 0.0
H1143 H 0.65381 0.87201 0.21764 0.0
H1144 H 0.73023 0.94112 0.25442 0.0
O1145 O 0.66342 0.87659 0.29685 0.0
H1146 H 0.66166 0.92341 0.36196 0.0
H1147 H 0.67305 0.86163 0.34682 0.0
H1148 H 0.65008 0.86873 0.3684 0.0
H1149 H 0.64428 0.89981 0.37613 0.0
H1150 H 0.68443 0.91572 0.34033 0.0
H1151 H 0.72179 0.86107 0.38262 0.0
H1152 H 0.72905 0.83132 0.37159 0.0
O1153 O 0.68225 0.86376 0.31528 0.0
C1154 C 0.713 0.87247 0.29149 0.0
C1155 C 0.7198 0.83668 0.34549 0.0
C1156 C 0.71916 0.85762 0.36912 0.0
N1157 N 0.7082 0.86552 0.34071 0.0
C1158 C 0.71228 0.84924 0.3345 0.0
C1159 C 0.71166 0.86984 0.35775 0.0
C1160 C 0.72323 0.84092 0.36292 0.0
C1161 C 0.69846 0.92618 0.28172 0.0
N1162 N 0.69634 0.90968 0.27509 0.0
C1163 C 0.7106 0.93775 0.27437 0.0
C1164 C 0.72073 0.93231 0.26019 0.0
C1165 C 0.71865 0.91543 0.25358 0.0
C1166 C 0.70636 0.90424 0.26124 0.0
C1167 C 0.66004 0.89377 0.23446 0.0
C1168 C 0.66998 0.86892 0.25894 0.0
C1169 C 0.66636 0.89872 0.2509 0.0
N1170 N 0.6713 0.88634 0.2629 0.0
C1171 C 0.66369 0.86349 0.24264 0.0
C1172 C 0.6587 0.87603 0.23033 0.0
C1173 C 0.66814 0.86359 0.30623 0.0
C1174 C 0.66406 0.90982 0.35869 0.0
C1175 C 0.67052 0.8752 0.35 0.0
C1176 C 0.65754 0.87913 0.36229 0.0
C1177 C 0.6543 0.89657 0.36663 0.0
N1178 N 0.68002 0.88827 0.34225 0.0
C1179 C 0.67694 0.90539 0.34647 0.0
Co1180 Co 0.35745 0.44215 0.5302 0.0
Co1181 Co 0.36641 0.45316 0.57221 0.0
O1182 O 0.34954 0.44689 0.55405 0.0
C1183 C 0.3321 0.41272 0.53592 0.0
O1184 O 0.34122 0.40693 0.54931 0.0
C1185 C 0.33874 0.4798 0.57589 0.0
O1186 O 0.3402 0.4825 0.55897 0.0
O1187 O 0.37438 0.47336 0.55763 0.0
O1188 O 0.37761 0.45878 0.53242 0.0
H1189 H 0.42549 0.47127 0.59491 0.0
H1190 H 0.32072 0.45329 0.53654 0.0
O1191 O 0.33724 0.42591 0.52714 0.0
H1192 H 0.34495 0.49682 0.49536 0.0
H1193 H 0.34869 0.42943 0.46602 0.0
H1194 H 0.39207 0.43613 0.51342 0.0
H1195 H 0.36299 0.47206 0.50555 0.0
H1196 H 0.33917 0.43653 0.49607 0.0
O1197 O 0.34836 0.46845 0.58342 0.0
H1198 H 0.40407 0.46266 0.57228 0.0
H1199 H 0.3642 0.45839 0.61088 0.0
H1200 H 0.40215 0.42913 0.48356 0.0
H1201 H 0.30209 0.47769 0.52642 0.0
H1202 H 0.38039 0.42574 0.45959 0.0
H1203 H 0.31423 0.49974 0.50576 0.0
O1204 O 0.37265 0.42302 0.53917 0.0
H1205 H 0.32082 0.41417 0.5993 0.0
H1206 H 0.38421 0.42438 0.5919 0.0
H1207 H 0.3741 0.39892 0.60906 0.0
H1208 H 0.34219 0.3937 0.61288 0.0
H1209 H 0.33151 0.43941 0.58215 0.0
H1210 H 0.38514 0.46711 0.63391 0.0
H1211 H 0.41605 0.47354 0.62599 0.0
O1212 O 0.38486 0.43772 0.56145 0.0
C1213 C 0.38001 0.47226 0.54196 0.0
C1214 C 0.41207 0.46845 0.59854 0.0
C1215 C 0.38941 0.46614 0.62043 0.0
N1216 N 0.38295 0.45989 0.59028 0.0
C1217 C 0.39989 0.46353 0.58579 0.0
C1218 C 0.37761 0.46125 0.60732 0.0
C1219 C 0.40676 0.46974 0.61597 0.0
C1220 C 0.32602 0.4627 0.52738 0.0
N1221 N 0.34292 0.46123 0.52165 0.0
C1222 C 0.31544 0.47654 0.52175 0.0
C1223 C 0.32227 0.48892 0.51019 0.0
C1224 C 0.33949 0.4873 0.50435 0.0
C1225 C 0.34967 0.47327 0.51022 0.0
C1226 C 0.3583 0.43088 0.47635 0.0
C1227 C 0.38251 0.43472 0.50308 0.0
C1228 C 0.35298 0.43484 0.49341 0.0
N1229 N 0.36505 0.43678 0.50651 0.0
C1230 C 0.3883 0.43073 0.48619 0.0
C1231 C 0.37608 0.42882 0.47275 0.0
C1232 C 0.38497 0.42523 0.55027 0.0
C1233 C 0.33476 0.41633 0.59777 0.0
C1234 C 0.3703 0.42218 0.59347 0.0
C1235 C 0.36466 0.40776 0.60323 0.0
C1236 C 0.34676 0.40484 0.60537 0.0
N1237 N 0.35845 0.43343 0.58612 0.0
C1238 C 0.34088 0.43063 0.58812 0.0
Co1239 Co 0.17891 0.60865 0.71653 0.0
Co1240 Co 0.19795 0.61848 0.67753 0.0
O1241 O 0.1872 0.60137 0.69337 0.0
C1242 C 0.15519 0.57874 0.70529 0.0
O1243 O 0.16294 0.57729 0.69002 0.0
C1244 C 0.22242 0.58858 0.67626 0.0
O1245 O 0.22243 0.58872 0.69347 0.0
O1246 O 0.21601 0.62364 0.69563 0.0
O1247 O 0.19782 0.62679 0.71837 0.0
H1248 H 0.2251 0.67643 0.66203 0.0
H1249 H 0.18915 0.57128 0.70963 0.0
O1250 O 0.1596 0.59073 0.71607 0.0
H1251 H 0.22417 0.58963 0.76062 0.0
H1252 H 0.15394 0.59951 0.777 0.0
H1253 H 0.1738 0.6432 0.73374 0.0
H1254 H 0.2035 0.61015 0.74678 0.0
H1255 H 0.16536 0.59012 0.74828 0.0
O1256 O 0.21324 0.59962 0.66778 0.0
H1257 H 0.21086 0.65491 0.6815 0.0
H1258 H 0.20926 0.61773 0.64012 0.0
H1259 H 0.16258 0.65314 0.76232 0.0
H1260 H 0.2093 0.55027 0.7233 0.0
H1261 H 0.15255 0.63122 0.78421 0.0
H1262 H 0.22711 0.55938 0.74897 0.0
O1263 O 0.16326 0.62601 0.70519 0.0
H1264 H 0.16121 0.57859 0.64019 0.0
H1265 H 0.1742 0.6401 0.65513 0.0
H1266 H 0.15145 0.63355 0.63314 0.0
H1267 H 0.14485 0.6026 0.62552 0.0
H1268 H 0.18377 0.58573 0.66221 0.0
H1269 H 0.22363 0.63879 0.62023 0.0
H1270 H 0.23157 0.66842 0.63115 0.0
O1271 O 0.18275 0.63793 0.68682 0.0
C1272 C 0.21286 0.6284 0.71131 0.0
C1273 C 0.22165 0.66359 0.6571 0.0
C1274 C 0.22084 0.64245 0.63365 0.0
N1275 N 0.2091 0.63515 0.66191 0.0
C1276 C 0.21355 0.65136 0.66806 0.0
C1277 C 0.21275 0.63057 0.64498 0.0
C1278 C 0.22529 0.65907 0.63978 0.0
C1279 C 0.19639 0.5753 0.72103 0.0
N1280 N 0.19468 0.59187 0.7276 0.0
C1281 C 0.20799 0.56335 0.72863 0.0
C1282 C 0.21802 0.56848 0.74299 0.0
C1283 C 0.21638 0.58544 0.74953 0.0
C1284 C 0.20461 0.59701 0.74162 0.0
C1285 C 0.15826 0.60919 0.76757 0.0
C1286 C 0.1695 0.63357 0.74317 0.0
C1287 C 0.16468 0.60395 0.75125 0.0
N1288 N 0.17025 0.6161 0.73929 0.0
C1289 C 0.16314 0.63928 0.75935 0.0
C1290 C 0.1575 0.62698 0.77161 0.0
C1291 C 0.16854 0.63869 0.69565 0.0
C1292 C 0.16396 0.59213 0.64342 0.0
C1293 C 0.1713 0.62659 0.652 0.0
C1294 C 0.15846 0.62297 0.63948 0.0
C1295 C 0.15477 0.6056 0.63519 0.0
N1296 N 0.18024 0.6133 0.66003 0.0
C1297 C 0.17672 0.59625 0.65586 0.0
Co1298 Co 0.64266 0.93153 0.9638 0.0
Co1299 Co 0.63192 0.95084 0.92524 0.0
O1300 O 0.64949 0.94021 0.94068 0.0
C1301 C 0.67282 0.90843 0.95194 0.0
O1302 O 0.67435 0.91666 0.93693 0.0
C1303 C 0.66162 0.97553 0.92363 0.0
O1304 O 0.66161 0.97553 0.94083 0.0
O1305 O 0.62692 0.96869 0.9436 0.0
O1306 O 0.62422 0.95011 0.9661 0.0
H1307 H 0.57344 0.97754 0.91103 0.0
H1308 H 0.67976 0.94258 0.95664 0.0
O1309 O 0.66085 0.91252 0.96284 0.0
H1310 H 0.66131 0.97648 0.00834 0.0
H1311 H 0.65284 0.90585 0.0238 0.0
H1312 H 0.60837 0.92545 0.98123 0.0
H1313 H 0.64104 0.95562 0.99444 0.0
H1314 H 0.66175 0.91791 0.99518 0.0
O1315 O 0.65048 0.96637 0.91524 0.0
H1316 H 0.59547 0.96341 0.93 0.0
H1317 H 0.63186 0.96239 0.8879 0.0
H1318 H 0.59892 0.91357 0.00971 0.0
H1319 H 0.70052 0.96294 0.97037 0.0
H1320 H 0.62123 0.90367 0.03125 0.0
H1321 H 0.69136 0.98019 0.9964 0.0
O1322 O 0.62556 0.91571 0.95239 0.0
H1323 H 0.6715 0.91468 0.88701 0.0
H1324 H 0.61014 0.92704 0.90305 0.0
H1325 H 0.61652 0.90448 0.88083 0.0
H1326 H 0.64739 0.89819 0.87265 0.0
H1327 H 0.66453 0.93705 0.90927 0.0
H1328 H 0.61029 0.97665 0.8685 0.0
H1329 H 0.5808 0.98425 0.88003 0.0
O1330 O 0.61277 0.93535 0.93481 0.0
C1331 C 0.62242 0.96526 0.9593 0.0
C1332 C 0.58622 0.97423 0.90583 0.0
C1333 C 0.60691 0.97376 0.88197 0.0
N1334 N 0.61486 0.96192 0.91002 0.0
C1335 C 0.59873 0.96618 0.9165 0.0
C1336 C 0.61908 0.96571 0.89303 0.0
C1337 C 0.59037 0.97801 0.88845 0.0
C1338 C 0.67573 0.94957 0.96819 0.0
N1339 N 0.65927 0.94744 0.97491 0.0
C1340 C 0.68753 0.9613 0.97583 0.0
C1341 C 0.68237 0.97101 0.99039 0.0
C1342 C 0.66552 0.96893 0.9971 0.0
C1343 C 0.6541 0.95706 0.98914 0.0
C1344 C 0.643 0.91012 0.01452 0.0
C1345 C 0.61818 0.92121 0.99051 0.0
C1346 C 0.64796 0.9169 0.99826 0.0
N1347 N 0.6356 0.92241 0.9865 0.0
C1348 C 0.61274 0.91448 0.00663 0.0
C1349 C 0.62526 0.90891 0.0187 0.0
C1350 C 0.61251 0.92094 0.94336 0.0
C1351 C 0.658 0.91729 0.89047 0.0
C1352 C 0.62362 0.92429 0.89968 0.0
C1353 C 0.62714 0.91155 0.88702 0.0
C1354 C 0.64446 0.90803 0.88243 0.0
N1355 N 0.63697 0.9333 0.90753 0.0
C1356 C 0.65397 0.92995 0.90306 0.0
Co1357 Co 0.85854 0.06163 0.47151 0.0
Co1358 Co 0.8646 0.05136 0.42886 0.0
O1359 O 0.84871 0.05656 0.44836 0.0
C1360 C 0.82886 0.08712 0.46768 0.0
O1361 O 0.83343 0.09045 0.45143 0.0
C1362 C 0.83778 0.02363 0.42639 0.0
O1363 O 0.84014 0.02084 0.4432 0.0
O1364 O 0.87419 0.03126 0.44252 0.0
O1365 O 0.87939 0.04626 0.46706 0.0
H1366 H 0.92263 0.0357 0.40202 0.0
H1367 H 0.82225 0.04807 0.46847 0.0
O1368 O 0.8379 0.07669 0.47704 0.0
H1369 H 0.85279 0.00645 0.50736 0.0
H1370 H 0.85593 0.07326 0.53649 0.0
H1371 H 0.89429 0.0698 0.48463 0.0
H1372 H 0.8682 0.03227 0.49561 0.0
H1373 H 0.84374 0.06561 0.50757 0.0
O1374 O 0.84651 0.03548 0.41855 0.0
H1375 H 0.90245 0.04317 0.42616 0.0
H1376 H 0.86005 0.04682 0.39029 0.0
H1377 H 0.90701 0.07742 0.51327 0.0
H1378 H 0.80623 0.02254 0.48017 0.0
H1379 H 0.8878 0.07918 0.53949 0.0
H1380 H 0.82154 0.00145 0.49967 0.0
O1381 O 0.87126 0.08177 0.46121 0.0
H1382 H 0.81575 0.08831 0.40476 0.0
H1383 H 0.87987 0.08132 0.40877 0.0
H1384 H 0.8676 0.10641 0.39252 0.0
H1385 H 0.83531 0.11001 0.39039 0.0
H1386 H 0.82859 0.0635 0.42105 0.0
H1387 H 0.87973 0.03923 0.36579 0.0
H1388 H 0.91128 0.0337 0.37158 0.0
O1389 O 0.88321 0.06743 0.43863 0.0
C1390 C 0.88101 0.03255 0.45768 0.0
C1391 C 0.90892 0.03815 0.39932 0.0
C1392 C 0.88484 0.04011 0.37899 0.0
N1393 N 0.88015 0.0456 0.40961 0.0
C1394 C 0.89745 0.04244 0.41293 0.0
C1395 C 0.87376 0.04437 0.39292 0.0
C1396 C 0.90254 0.03701 0.38225 0.0
C1397 C 0.82895 0.03905 0.47709 0.0
N1398 N 0.84616 0.04164 0.48128 0.0
C1399 C 0.81983 0.02458 0.48362 0.0
C1400 C 0.82844 0.01274 0.49455 0.0
C1401 C 0.84596 0.01553 0.49887 0.0
C1402 C 0.85464 0.03015 0.49211 0.0
C1403 C 0.86443 0.07257 0.52516 0.0
C1404 C 0.8858 0.07055 0.49592 0.0
C1405 C 0.85759 0.06832 0.50872 0.0
N1406 N 0.86825 0.06733 0.49435 0.0
C1407 C 0.8931 0.07487 0.51214 0.0
C1408 C 0.88232 0.07587 0.52684 0.0
C1409 C 0.88321 0.08007 0.44965 0.0
C1410 C 0.82984 0.08687 0.40556 0.0
C1411 C 0.86581 0.08284 0.408 0.0
C1412 C 0.85894 0.09705 0.39872 0.0
C1413 C 0.84082 0.09905 0.39752 0.0
N1414 N 0.85494 0.07094 0.41582 0.0
C1415 C 0.83718 0.07281 0.41471 0.0
C1416 C 0.10449 0.17384 0.51264 0.0
C1417 C 0.08609 0.17479 0.51318 0.0
C1418 C 0.1141 0.18551 0.50236 0.0
C1419 C 0.11003 0.2145 0.46411 0.0
H1420 H 0.15378 0.23397 0.48119 0.0
C1421 C 0.14801 0.26674 0.42542 0.0
C1422 C 0.16624 0.26446 0.42399 0.0
C1423 C 0.13826 0.25655 0.43703 0.0
C1424 C 0.14167 0.22851 0.4762 0.0
H1425 H 0.06337 0.18888 0.50352 0.0
H1426 H 0.08021 0.20937 0.48562 0.0
H1427 H 0.13642 0.21495 0.50018 0.0
H1428 H 0.18859 0.24997 0.43393 0.0
H1429 H 0.17146 0.23203 0.45418 0.0
H1430 H 0.1153 0.22796 0.4401 0.0
C1431 C 0.08716 0.19944 0.49301 0.0
C1432 C 0.13173 0.21763 0.48706 0.0
C1433 C 0.07752 0.18775 0.50331 0.0
C1434 C 0.17456 0.25203 0.43472 0.0
C1435 C 0.16477 0.24182 0.44638 0.0
C1436 C 0.11995 0.22538 0.45326 0.0
C1437 C 0.10555 0.1984 0.49238 0.0
C1438 C 0.11583 0.21045 0.4811 0.0
C1439 C 0.14648 0.24384 0.44749 0.0
C1440 C 0.1359 0.23247 0.45917 0.0
H1441 H 0.11152 0.164 0.52007 0.0
H1442 H 0.12823 0.18419 0.50197 0.0
H1443 H 0.098 0.20893 0.45902 0.0
H1444 H 0.14119 0.2763 0.41745 0.0
H1445 H 0.12423 0.25862 0.43781 0.0
C1446 C 0.98544 0.89666 0.67307 0.0
C1447 C 0.98476 0.91505 0.674 0.0
C1448 C 0.99586 0.88713 0.68466 0.0
C1449 C 0.03419 0.89153 0.71362 0.0
H1450 H 0.01786 0.84717 0.73234 0.0
C1451 C 0.07313 0.85288 0.76546 0.0
C1452 C 0.07475 0.83471 0.7628 0.0
C1453 C 0.06164 0.86278 0.75526 0.0
C1454 C 0.02265 0.85946 0.72709 0.0
H1455 H 0.9943 0.93784 0.68805 0.0
H1456 H 0.01241 0.92114 0.70848 0.0
H1457 H 0.99855 0.86455 0.71372 0.0
H1458 H 0.06537 0.81266 0.74751 0.0
H1459 H 0.0453 0.83003 0.72961 0.0
H1460 H 0.0583 0.88641 0.72699 0.0
C1461 C 0.00504 0.91413 0.69858 0.0
C1462 C 0.0116 0.86942 0.71643 0.0
C1463 C 0.99461 0.92369 0.68693 0.0
C1464 C 0.06444 0.82663 0.74987 0.0
C1465 C 0.05288 0.83655 0.73969 0.0
C1466 C 0.04522 0.88159 0.72432 0.0
C1467 C 0.00583 0.89574 0.69752 0.0
C1468 C 0.01729 0.88552 0.70948 0.0
C1469 C 0.05146 0.85475 0.74221 0.0
C1470 C 0.0396 0.86541 0.7311 0.0
H1471 H 0.97805 0.88956 0.66324 0.0
H1472 H 0.99638 0.87301 0.68331 0.0
H1473 H 0.03908 0.90373 0.70825 0.0
H1474 H 0.08083 0.85953 0.77536 0.0
H1475 H 0.06066 0.87674 0.75766 0.0
C1476 C 0.35476 0.73629 0.92459 0.0
C1477 C 0.33635 0.73697 0.92477 0.0
C1478 C 0.36456 0.74655 0.93611 0.0
C1479 C 0.3617 0.77127 0.97755 0.0
H1480 H 0.4029 0.79505 0.95962 0.0
C1481 C 0.39697 0.82605 0.01563 0.0
C1482 C 0.41539 0.82631 0.0153 0.0
C1483 C 0.38764 0.81438 0.0051 0.0
C1484 C 0.39157 0.78831 0.96489 0.0
H1485 H 0.31377 0.74882 0.93734 0.0
H1486 H 0.33093 0.76694 0.95736 0.0
H1487 H 0.38581 0.77629 0.94024 0.0
H1488 H 0.43848 0.81431 0.00386 0.0
H1489 H 0.42214 0.79382 0.98548 0.0
H1490 H 0.36739 0.78345 0.00217 0.0
C1491 C 0.33776 0.7583 0.94841 0.0
C1492 C 0.38177 0.77757 0.95379 0.0
C1493 C 0.32794 0.748 0.93687 0.0
C1494 C 0.4243 0.81449 0.00435 0.0
C1495 C 0.41494 0.80282 0.99377 0.0
C1496 C 0.3715 0.78203 0.98866 0.0
C1497 C 0.35619 0.75775 0.94807 0.0
C1498 C 0.36669 0.76898 0.95998 0.0
C1499 C 0.39651 0.80269 0.994 0.0
C1500 C 0.38649 0.79073 0.98242 0.0
H1501 H 0.36168 0.72783 0.91552 0.0
H1502 H 0.37872 0.74561 0.93572 0.0
H1503 H 0.3503 0.76461 0.98278 0.0
H1504 H 0.38968 0.83498 0.02392 0.0
H1505 H 0.37346 0.81477 0.00541 0.0
C1506 C 0.50501 0.07772 0.18743 0.0
C1507 C 0.51501 0.08636 0.17461 0.0
C1508 C 0.49431 0.08727 0.19883 0.0
C1509 C 0.48705 0.13199 0.21632 0.0
H1510 H 0.44052 0.11434 0.22659 0.0
C1511 C 0.4335 0.1737 0.25018 0.0
C1512 C 0.4234 0.16528 0.26307 0.0
C1513 C 0.4452 0.1641 0.23984 0.0
C1514 C 0.45355 0.11935 0.22399 0.0
H1515 H 0.5217 0.11181 0.16376 0.0
H1516 H 0.50287 0.12836 0.1834 0.0
H1517 H 0.46006 0.09735 0.20791 0.0
H1518 H 0.41783 0.14021 0.27538 0.0
H1519 H 0.43821 0.12358 0.25741 0.0
H1520 H 0.4804 0.1541 0.23228 0.0
C1521 C 0.50348 0.11425 0.18486 0.0
C1522 C 0.46476 0.1096 0.21332 0.0
C1523 C 0.5142 0.10473 0.17352 0.0
C1524 C 0.42535 0.14711 0.26552 0.0
C1525 C 0.43697 0.13754 0.25516 0.0
C1526 C 0.47581 0.14177 0.22695 0.0
C1527 C 0.49336 0.10564 0.19761 0.0
C1528 C 0.48163 0.11581 0.20933 0.0
C1529 C 0.44694 0.14589 0.24214 0.0
C1530 C 0.45893 0.13555 0.23089 0.0
H1531 H 0.50543 0.06358 0.18867 0.0
H1532 H 0.48685 0.08026 0.20867 0.0
H1533 H 0.50006 0.13703 0.21371 0.0
H1534 H 0.43231 0.18767 0.24799 0.0
H1535 H 0.45262 0.17086 0.22981 0.0
C1536 C 0.67304 0.24731 0.56414 0.0
C1537 C 0.66447 0.23625 0.57611 0.0
C1538 C 0.66335 0.25776 0.55261 0.0
C1539 C 0.61941 0.27721 0.54711 0.0
H1540 H 0.63379 0.28312 0.49873 0.0
C1541 C 0.57615 0.31285 0.49647 0.0
C1542 C 0.5847 0.32486 0.48546 0.0
C1543 C 0.58583 0.30145 0.50704 0.0
C1544 C 0.6297 0.28169 0.51225 0.0
H1545 H 0.63902 0.22721 0.58513 0.0
H1546 H 0.62224 0.24522 0.56495 0.0
H1547 H 0.65102 0.26445 0.51818 0.0
H1548 H 0.61013 0.33415 0.47666 0.0
H1549 H 0.62696 0.31437 0.49517 0.0
H1550 H 0.59812 0.29445 0.54121 0.0
C1551 C 0.63641 0.24609 0.56466 0.0
C1552 C 0.63958 0.27104 0.52339 0.0
C1553 C 0.64605 0.23569 0.57617 0.0
C1554 C 0.60312 0.32505 0.48501 0.0
C1555 C 0.61279 0.31364 0.49554 0.0
C1556 C 0.60953 0.28782 0.53597 0.0
C1557 C 0.64492 0.25733 0.55283 0.0
C1558 C 0.63454 0.26868 0.54094 0.0
C1559 C 0.60425 0.30181 0.50676 0.0
C1560 C 0.61457 0.2902 0.51843 0.0
H1561 H 0.68721 0.24803 0.56377 0.0
H1562 H 0.67029 0.26641 0.54375 0.0
H1563 H 0.61534 0.2759 0.56065 0.0
H1564 H 0.56197 0.31232 0.49705 0.0
H1565 H 0.57889 0.29232 0.51541 0.0
C1566 C 0.93545 0.32625 0.75027 0.0
C1567 C 0.92495 0.3343 0.73746 0.0
C1568 C 0.94698 0.33624 0.76042 0.0
C1569 C 0.95434 0.38126 0.77599 0.0
H1570 H 0.00133 0.36465 0.78589 0.0
C1571 C 0.00498 0.42365 0.81303 0.0
C1572 C 0.01508 0.41501 0.82576 0.0
C1573 C 0.9945 0.41405 0.80144 0.0
C1574 C 0.98819 0.3694 0.78337 0.0
H1575 H 0.91848 0.35913 0.72512 0.0
H1576 H 0.93858 0.37646 0.74279 0.0
H1577 H 0.98196 0.34718 0.76741 0.0
H1578 H 0.02221 0.38952 0.83625 0.0
H1579 H 0.00381 0.37292 0.81631 0.0
H1580 H 0.96045 0.40335 0.79212 0.0
C1581 C 0.93778 0.36247 0.74511 0.0
C1582 C 0.97711 0.35938 0.77279 0.0
C1583 C 0.92632 0.35251 0.73493 0.0
C1584 C 0.01462 0.39661 0.82657 0.0
C1585 C 0.00415 0.38705 0.81504 0.0
C1586 C 0.9654 0.39124 0.78661 0.0
C1587 C 0.94817 0.35447 0.75801 0.0
C1588 C 0.96005 0.36518 0.76905 0.0
C1589 C 0.99392 0.39565 0.80238 0.0
C1590 C 0.98242 0.38539 0.7905 0.0
H1591 H 0.93471 0.31225 0.75252 0.0
H1592 H 0.95472 0.32973 0.77038 0.0
H1593 H 0.94117 0.38595 0.77352 0.0
H1594 H 0.00511 0.43781 0.81201 0.0
H1595 H 0.98693 0.42105 0.79169 0.0
C1596 C 0.8532 0.76726 0.07433 0.0
C1597 C 0.83482 0.7659 0.07451 0.0
C1598 C 0.86315 0.75703 0.06291 0.0
C1599 C 0.86048 0.73078 0.02237 0.0
H1600 H 0.9024 0.70858 0.04066 0.0
C1601 C 0.89623 0.67515 0.98607 0.0
C1602 C 0.91466 0.67526 0.98609 0.0
C1603 C 0.88685 0.68706 0.99627 0.0
C1604 C 0.89087 0.71488 0.03528 0.0
H1605 H 0.81247 0.75296 0.06263 0.0
H1606 H 0.82991 0.73494 0.0428 0.0
H1607 H 0.88519 0.72777 0.0595 0.0
H1608 H 0.93769 0.68813 0.99669 0.0
H1609 H 0.92124 0.70902 0.0145 0.0
H1610 H 0.86609 0.71772 0.99819 0.0
C1611 C 0.83658 0.74405 0.05138 0.0
C1612 C 0.881 0.72587 0.04608 0.0
C1613 C 0.8266 0.75431 0.06282 0.0
C1614 C 0.9235 0.68765 0.99644 0.0
C1615 C 0.91409 0.69957 0.0067 0.0
C1616 C 0.87035 0.71978 0.01157 0.0
C1617 C 0.85498 0.74521 0.05141 0.0
C1618 C 0.86565 0.73387 0.03977 0.0
C1619 C 0.89566 0.69935 0.00675 0.0
C1620 C 0.88559 0.71163 0.01795 0.0
H1621 H 0.85995 0.77615 0.08309 0.0
H1622 H 0.87728 0.75843 0.06305 0.0
H1623 H 0.84887 0.73697 0.01704 0.0
H1624 H 0.88899 0.66577 0.97824 0.0
H1625 H 0.87267 0.6864 0.99621 0.0
C1626 C 0.56737 0.65081 0.22905 0.0
C1627 C 0.57402 0.66682 0.2352 0.0
C1628 C 0.55559 0.64115 0.23917 0.0
C1629 C 0.52678 0.64409 0.27867 0.0
H1630 H 0.52975 0.59344 0.2762 0.0
C1631 C 0.479 0.60066 0.31751 0.0
C1632 C 0.48536 0.58487 0.32448 0.0
C1633 C 0.48907 0.61031 0.30568 0.0
C1634 C 0.52886 0.60756 0.27727 0.0
H1635 H 0.57357 0.68538 0.25666 0.0
H1636 H 0.5537 0.66817 0.27477 0.0
H1637 H 0.54893 0.61114 0.25815 0.0
H1638 H 0.50714 0.56669 0.32455 0.0
H1639 H 0.52516 0.5839 0.30459 0.0
H1640 H 0.50757 0.64053 0.29866 0.0
C1641 C 0.55703 0.66326 0.26189 0.0
C1642 C 0.53968 0.61777 0.26661 0.0
C1643 C 0.56852 0.67312 0.25156 0.0
C1644 C 0.50189 0.57877 0.31926 0.0
C1645 C 0.51216 0.58863 0.30772 0.0
C1646 C 0.51622 0.63388 0.28959 0.0
C1647 C 0.55049 0.64707 0.25588 0.0
C1648 C 0.53878 0.63619 0.26712 0.0
C1649 C 0.50593 0.6046 0.30085 0.0
C1650 C 0.51708 0.61546 0.28903 0.0
H1651 H 0.57127 0.64574 0.21637 0.0
H1652 H 0.55052 0.62902 0.23384 0.0
H1653 H 0.52546 0.6582 0.2793 0.0
H1654 H 0.46618 0.60556 0.32118 0.0
H1655 H 0.48357 0.62225 0.30035 0.0
C1656 C 0.26597 0.42353 0.14444 0.0
C1657 C 0.26642 0.42438 0.16284 0.0
C1658 C 0.25549 0.43504 0.13486 0.0
C1659 C 0.21655 0.46319 0.13934 0.0
H1660 H 0.23233 0.48251 0.09504 0.0
C1661 C 0.1767 0.51496 0.10172 0.0
C1662 C 0.17492 0.51254 0.08354 0.0
C1663 C 0.18842 0.50476 0.11134 0.0
C1664 C 0.2277 0.47709 0.10731 0.0
H1665 H 0.25657 0.4383 0.18559 0.0
H1666 H 0.23842 0.45857 0.16881 0.0
H1667 H 0.25206 0.46407 0.11218 0.0
H1668 H 0.18424 0.4977 0.06116 0.0
H1669 H 0.20472 0.47979 0.07805 0.0
H1670 H 0.19221 0.4762 0.13447 0.0
C1671 C 0.24595 0.44878 0.16183 0.0
C1672 C 0.23899 0.46653 0.11714 0.0
C1673 C 0.25642 0.43723 0.17143 0.0
C1674 C 0.1853 0.49986 0.07515 0.0
C1675 C 0.19709 0.48968 0.0848 0.0
C1676 C 0.2053 0.47378 0.12955 0.0
C1677 C 0.24525 0.44771 0.14344 0.0
C1678 C 0.23351 0.45941 0.13324 0.0
C1679 C 0.19867 0.49194 0.10302 0.0
C1680 C 0.21074 0.48081 0.11341 0.0
H1681 H 0.2735 0.41376 0.13741 0.0
H1682 H 0.25508 0.43371 0.12073 0.0
H1683 H 0.21181 0.45766 0.15152 0.0
H1684 H 0.16897 0.52467 0.1086 0.0
H1685 H 0.18953 0.50698 0.12532 0.0
C1686 C 0.67447 0.986 0.89537 0.0
C1687 C 0.67446 0.98619 0.9138 0.0
C1688 C 0.68636 0.99622 0.88597 0.0
C1689 C 0.71397 0.03546 0.88992 0.0
H1690 H 0.73649 0.01714 0.84818 0.0
C1691 C 0.76714 0.07422 0.8532 0.0
C1692 C 0.76616 0.0745 0.8348 0.0
C1693 C 0.75665 0.06283 0.8629 0.0
C1694 C 0.73017 0.02249 0.85971 0.0
H1695 H 0.68712 0.99709 0.93681 0.0
H1696 H 0.70798 0.0149 0.92033 0.0
H1697 H 0.71704 0.99832 0.86524 0.0
H1698 H 0.7536 0.06279 0.81215 0.0
H1699 H 0.73509 0.04298 0.82916 0.0
H1700 H 0.72696 0.05965 0.88434 0.0
C1701 C 0.69863 0.00697 0.91319 0.0
C1702 C 0.71905 0.01171 0.86949 0.0
C1703 C 0.68673 0.99671 0.92262 0.0
C1704 C 0.75466 0.0629 0.8263 0.0
C1705 C 0.74413 0.05149 0.83604 0.0
C1706 C 0.72507 0.04623 0.88014 0.0
C1707 C 0.69852 0.00687 0.89475 0.0
C1708 C 0.71079 0.01811 0.88467 0.0
C1709 C 0.7449 0.05145 0.85446 0.0
C1710 C 0.73327 0.03988 0.8649 0.0
H1711 H 0.66519 0.97805 0.88815 0.0
H1712 H 0.68579 0.99603 0.87178 0.0
H1713 H 0.70758 0.04086 0.90138 0.0
H1714 H 0.77595 0.08289 0.86018 0.0
H1715 H 0.75777 0.06292 0.87705 0.0
C1716 C 0.73488 0.92328 0.3553 0.0
C1717 C 0.73425 0.92419 0.3369 0.0
C1718 C 0.74555 0.93467 0.36481 0.0
C1719 C 0.78443 0.96294 0.36032 0.0
H1720 H 0.7683 0.98235 0.40445 0.0
C1721 C 0.82363 0.01518 0.39809 0.0
C1722 C 0.82524 0.01286 0.4163 0.0
C1723 C 0.81213 0.00481 0.38839 0.0
C1724 C 0.77303 0.9769 0.39223 0.0
H1725 H 0.74414 0.93795 0.31408 0.0
H1726 H 0.76266 0.95802 0.33074 0.0
H1727 H 0.74878 0.96374 0.38727 0.0
H1728 H 0.81588 0.99796 0.43864 0.0
H1729 H 0.79578 0.97977 0.42161 0.0
H1730 H 0.80868 0.97612 0.36527 0.0
C1731 C 0.75508 0.9483 0.33777 0.0
C1732 C 0.76186 0.96625 0.38238 0.0
C1733 C 0.74441 0.93686 0.32823 0.0
C1734 C 0.81494 6e-05 0.42463 0.0
C1735 C 0.80337 0.98971 0.4149 0.0
C1736 C 0.79557 0.97363 0.37013 0.0
C1737 C 0.75582 0.94728 0.35617 0.0
C1738 C 0.76747 0.95908 0.36635 0.0
C1739 C 0.80193 0.99191 0.39666 0.0
C1740 C 0.79001 0.98068 0.38621 0.0
H1741 H 0.72725 0.91364 0.3624 0.0
H1742 H 0.74601 0.93335 0.37893 0.0
H1743 H 0.78926 0.95739 0.34818 0.0
H1744 H 0.83132 0.02497 0.39126 0.0
H1745 H 0.81113 0.00697 0.37439 0.0
C1746 C 0.2337 0.57634 0.64809 0.0
C1747 C 0.23337 0.57594 0.66651 0.0
C1748 C 0.24438 0.56485 0.63873 0.0
C1749 C 0.28398 0.53782 0.64325 0.0
H1750 H 0.2678 0.51717 0.5997 0.0
C1751 C 0.3251 0.4876 0.60464 0.0
C1752 C 0.32601 0.48994 0.58638 0.0
C1753 C 0.31329 0.4973 0.61467 0.0
C1754 C 0.27254 0.52296 0.61176 0.0
H1755 H 0.24375 0.5629 0.68954 0.0
H1756 H 0.26234 0.54265 0.67313 0.0
H1757 H 0.24786 0.53515 0.61705 0.0
H1758 H 0.31511 0.50417 0.56431 0.0
H1759 H 0.29452 0.52121 0.58189 0.0
H1760 H 0.30869 0.52569 0.63792 0.0
C1761 C 0.25448 0.55206 0.66597 0.0
C1762 C 0.26113 0.53324 0.62171 0.0
C1763 C 0.24378 0.5636 0.67536 0.0
C1764 C 0.31474 0.50208 0.57835 0.0
C1765 C 0.30287 0.51175 0.5884 0.0
C1766 C 0.29538 0.5275 0.63333 0.0
C1767 C 0.25496 0.55263 0.64755 0.0
C1768 C 0.26677 0.54091 0.63749 0.0
C1769 C 0.30209 0.50952 0.60667 0.0
C1770 C 0.28982 0.52007 0.61742 0.0
H1771 H 0.22586 0.58569 0.64083 0.0
H1772 H 0.24463 0.56581 0.62457 0.0
H1773 H 0.28881 0.54375 0.65521 0.0
H1774 H 0.33355 0.4783 0.61124 0.0
H1775 H 0.31283 0.49513 0.62869 0.0
C1776 C 0.31289 0.38604 0.53309 0.0
C1777 C 0.31579 0.40398 0.53022 0.0
C1778 C 0.29856 0.37763 0.5252 0.0
C1779 C 0.27823 0.36325 0.49387 0.0
H1780 H 0.23343 0.38578 0.48525 0.0
C1781 C 0.24057 0.35178 0.43068 0.0
C1782 C 0.22254 0.34809 0.43159 0.0
C1783 C 0.24963 0.35759 0.44541 0.0
C1784 C 0.24576 0.37919 0.48772 0.0
H1785 H 0.30528 0.42746 0.51807 0.0
H1786 H 0.28053 0.41294 0.50451 0.0
H1787 H 0.25278 0.39705 0.50824 0.0
H1788 H 0.1997 0.34858 0.4485 0.0
H1789 H 0.21566 0.35917 0.47436 0.0
H1790 H 0.27153 0.34581 0.47297 0.0
C1791 C 0.28917 0.40527 0.51274 0.0
C1792 C 0.25687 0.38567 0.50081 0.0
C1793 C 0.3035 0.41356 0.52039 0.0
C1794 C 0.21358 0.35133 0.44737 0.0
C1795 C 0.2227 0.35729 0.46218 0.0
C1796 C 0.2672 0.35686 0.48076 0.0
C1797 C 0.2868 0.38712 0.51459 0.0
C1798 C 0.27348 0.37812 0.50361 0.0
C1799 C 0.24092 0.35998 0.46143 0.0
C1800 C 0.25114 0.36514 0.47713 0.0
H1801 H 0.32214 0.37836 0.54064 0.0
H1802 H 0.297 0.36363 0.52694 0.0
H1803 H 0.29096 0.35721 0.49558 0.0
H1804 H 0.24786 0.34971 0.41868 0.0
H1805 H 0.26358 0.36003 0.4443 0.0
C1806 C 0.90191 0.95827 0.70345 0.0
C1807 C 0.89651 0.9612 0.6861 0.0
C1808 C 0.89543 0.96875 0.71706 0.0
C1809 C 0.87655 0.01311 0.72243 0.0
H1810 H 0.87265 -0.00017 0.7713 0.0
C1811 C 0.86635 0.06615 0.77383 0.0
C1812 C 0.8538 0.06281 0.78684 0.0
C1813 C 0.87301 0.0525 0.76366 0.0
C1814 C 0.87357 0.00374 0.75769 0.0
H1815 H 0.87902 0.97613 0.66952 0.0
H1816 H 0.86686 0.99361 0.69328 0.0
H1817 H 0.87863 0.97743 0.74922 0.0
H1818 H 0.83904 0.0425 0.80008 0.0
H1819 H 0.85023 0.01866 0.78195 0.0
H1820 H 0.87082 0.03917 0.73056 0.0
C1821 C 0.87667 0.98385 0.6964 0.0
C1822 C 0.87716 0.9909 0.74503 0.0
C1823 C 0.88342 0.97366 0.6828 0.0
C1824 C 0.84889 0.04541 0.79027 0.0
C1825 C 0.85529 0.03174 0.77983 0.0
C1826 C 0.87281 0.02583 0.73497 0.0
C1827 C 0.88323 0.98216 0.71357 0.0
C1828 C 0.87868 0.99543 0.72721 0.0
C1829 C 0.86692 0.03522 0.76592 0.0
C1830 C 0.87138 0.02141 0.75281 0.0
H1831 H 0.9122 0.94891 0.70631 0.0
H1832 H 0.90086 0.96708 0.73006 0.0
H1833 H 0.87802 0.01727 0.70894 0.0
H1834 H 0.87038 0.07947 0.77097 0.0
H1835 H 0.8824 0.05564 0.75349 0.0
C1836 C 0.27891 0.63479 0.93489 0.0
C1837 C 0.29156 0.64765 0.93849 0.0
C1838 C 0.27029 0.62621 0.94852 0.0
C1839 C 0.25437 0.63475 0.99215 0.0
H1840 H 0.24038 0.58597 0.98982 0.0
C1841 C 0.19837 0.60411 0.03492 0.0
C1842 C 0.18645 0.59416 0.02496 0.0
C1843 C 0.2142 0.60984 0.02747 0.0
C1844 C 0.24422 0.59961 0.99072 0.0
H1845 H 0.30561 0.66119 0.95912 0.0
H1846 H 0.29021 0.64627 0.98312 0.0
H1847 H 0.26398 0.59655 0.97105 0.0
H1848 H 0.18173 0.58287 0.99923 0.0
H1849 H 0.20889 0.59283 0.98647 0.0
H1850 H 0.23387 0.63798 0.01115 0.0
C1851 C 0.28716 0.64277 0.96971 0.0
C1852 C 0.25776 0.60563 0.98002 0.0
C1853 C 0.29607 0.65115 0.956 0.0
C1854 C 0.19057 0.59037 0.00741 0.0
C1855 C 0.20629 0.59595 7e-05 0.0
C1856 C 0.24072 0.62872 0.00286 0.0
C1857 C 0.27391 0.6305 0.96606 0.0
C1858 C 0.26251 0.6234 0.98011 0.0
C1859 C 0.21841 0.60555 0.01002 0.0
C1860 C 0.23504 0.61124 0.00168 0.0
H1861 H 0.27512 0.63194 0.92151 0.0
H1862 H 0.26 0.61697 0.94528 0.0
H1863 H 0.25769 0.64855 0.99242 0.0
H1864 H 0.19559 0.60724 0.04848 0.0
H1865 H 0.22329 0.61732 0.0354 0.0
C1866 C 0.61601 0.02707 0.18545 0.0
C1867 C 0.60297 0.03959 0.18874 0.0
C1868 C 0.62285 0.01701 0.1991 0.0
C1869 C 0.62297 0.01046 0.24776 0.0
H1870 H 0.62862 0.96198 0.23372 0.0
C1871 C 0.65181 0.95606 0.29284 0.0
C1872 C 0.64656 0.9387 0.28971 0.0
C1873 C 0.64529 0.96973 0.28246 0.0
C1874 C 0.62683 0.97538 0.23801 0.0
H1875 H 0.58749 0.05213 0.20895 0.0
H1876 H 0.59902 0.03418 0.2328 0.0
H1877 H 0.62123 0.98371 0.21198 0.0
H1878 H 0.6293 0.92214 0.27449 0.0
H1879 H 0.61712 0.94597 0.25712 0.0
H1880 H 0.62793 0.00177 0.27403 0.0
C1881 C 0.60432 0.03237 0.21977 0.0
C1882 C 0.62297 0.988 0.22539 0.0
C1883 C 0.59772 0.04271 0.2061 0.0
C1884 C 0.63359 0.93542 0.27711 0.0
C1885 C 0.62683 0.94907 0.267 0.0
C1886 C 0.6267 0.99773 0.26049 0.0
C1887 C 0.61645 0.01889 0.21631 0.0
C1888 C 0.62109 0.00574 0.23002 0.0
C1889 C 0.63323 0.96628 0.26892 0.0
C1890 C 0.62864 0.97999 0.25576 0.0
H1891 H 0.62029 0.02445 0.17216 0.0
H1892 H 0.6326 0.00718 0.19599 0.0
H1893 H 0.62168 0.02399 0.25181 0.0
H1894 H 0.66198 0.95891 0.30233 0.0
H1895 H 0.65058 0.98276 0.2843 0.0
C1896 C 0.71931 0.13311 0.5652 0.0
C1897 C 0.70704 0.1464 0.56191 0.0
C1898 C 0.72788 0.12478 0.55138 0.0
C1899 C 0.74467 0.13461 0.50841 0.0
H1900 H 0.75733 0.08541 0.50885 0.0
C1901 C 0.80092 0.10484 0.46552 0.0
C1902 C 0.81237 0.09412 0.47522 0.0
C1903 C 0.78499 0.11046 0.47286 0.0
C1904 C 0.75387 0.09918 0.50848 0.0
H1905 H 0.69358 0.161 0.54159 0.0
H1906 H 0.70889 0.14654 0.51728 0.0
H1907 H 0.7337 0.09581 0.52769 0.0
H1908 H 0.81606 0.08115 0.50033 0.0
H1909 H 0.78878 0.09095 0.51291 0.0
H1910 H 0.76559 0.13812 0.48994 0.0
C1911 C 0.71168 0.14248 0.53059 0.0
C1912 C 0.74031 0.10509 0.51922 0.0
C1913 C 0.70282 0.15061 0.54447 0.0
C1914 C 0.80763 0.08932 0.49238 0.0
C1915 C 0.79182 0.09481 0.49958 0.0
C1916 C 0.75835 0.12868 0.49769 0.0
C1917 C 0.72458 0.12977 0.53396 0.0
C1918 C 0.73603 0.12297 0.51981 0.0
C1919 C 0.78021 0.10528 0.48991 0.0
C1920 C 0.76356 0.11102 0.4982 0.0
H1921 H 0.72289 0.12973 0.57853 0.0
H1922 H 0.73789 0.11518 0.55441 0.0
H1923 H 0.74171 0.14849 0.50868 0.0
H1924 H 0.80417 0.10874 0.45227 0.0
H1925 H 0.77631 0.11861 0.46513 0.0
C1926 C 0.1502 0.54664 0.70922 0.0
C1927 C 0.14495 0.56399 0.71245 0.0
C1928 C 0.14381 0.53294 0.71964 0.0
C1929 C 0.12566 0.52709 0.76424 0.0
H1930 H 0.121 0.47846 0.75035 0.0
C1931 C 0.11565 0.47509 0.81673 0.0
C1932 C 0.10286 0.46232 0.81341 0.0
C1933 C 0.12227 0.48534 0.8031 0.0
C1934 C 0.12214 0.492 0.75443 0.0
H1935 H 0.12782 0.58048 0.72789 0.0
H1936 H 0.11584 0.55658 0.7453 0.0
H1937 H 0.12686 0.5008 0.72815 0.0
H1938 H 0.0876 0.44956 0.79317 0.0
H1939 H 0.09872 0.46782 0.76938 0.0
H1940 H 0.12026 0.51865 0.79027 0.0
C1941 C 0.12546 0.55352 0.73533 0.0
C1942 C 0.12565 0.50481 0.74171 0.0
C1943 C 0.13211 0.56721 0.72518 0.0
C1944 C 0.09765 0.45918 0.79604 0.0
C1945 C 0.10401 0.4697 0.78241 0.0
C1946 C 0.12199 0.5144 0.77684 0.0
C1947 C 0.13187 0.53633 0.73331 0.0
C1948 C 0.12743 0.52255 0.74646 0.0
C1949 C 0.11588 0.4834 0.7859 0.0
C1950 C 0.12029 0.49665 0.7722 0.0
H1951 H 0.16029 0.54383 0.69964 0.0
H1952 H 0.14912 0.51993 0.71771 0.0
H1953 H 0.12733 0.5405 0.76856 0.0
H1954 H 0.11991 0.47774 0.83002 0.0
H1955 H 0.13184 0.49534 0.80623 0.0
C1956 C 0.70477 0.90372 0.95684 0.0
C1957 C 0.68744 0.89785 0.95878 0.0
C1958 C 0.7181 0.89683 0.96742 0.0
C1959 C 0.72196 0.87564 0.01083 0.0
H1960 H 0.77146 0.8736 0.99963 0.0
C1961 C 0.77119 0.86434 0.06562 0.0
C1962 C 0.78468 0.85231 0.06234 0.0
C1963 C 0.76145 0.87133 0.05181 0.0
C1964 C 0.75767 0.87399 0.00295 0.0
H1965 H 0.67064 0.8792 0.97195 0.0
H1966 H 0.69396 0.86636 0.98954 0.0
H1967 H 0.75025 0.8802 0.97656 0.0
H1968 H 0.79923 0.8388 0.04206 0.0
H1969 H 0.78185 0.85052 0.0179 0.0
H1970 H 0.72907 0.86878 0.03691 0.0
C1971 C 0.69726 0.8768 0.98052 0.0
C1972 C 0.74551 0.87792 0.98974 0.0
C1973 C 0.68392 0.88395 0.97025 0.0
C1974 C 0.78901 0.84823 0.04492 0.0
C1975 C 0.779 0.85495 0.03108 0.0
C1976 C 0.73402 0.87155 0.02391 0.0
C1977 C 0.71433 0.88379 0.97993 0.0
C1978 C 0.72747 0.87879 0.99353 0.0
C1979 C 0.76465 0.86606 0.03442 0.0
C1980 C 0.75206 0.87081 0.02024 0.0
H1981 H 0.70776 0.91463 0.94826 0.0
H1982 H 0.73103 0.90261 0.96661 0.0
H1983 H 0.70827 0.87657 0.01445 0.0
H1984 H 0.76765 0.86775 0.07895 0.0
H1985 H 0.7509 0.88031 0.05488 0.0
C1986 C 0.36578 0.42957 0.22608 0.0
C1987 C 0.35344 0.43331 0.21301 0.0
C1988 C 0.37296 0.44303 0.23617 0.0
C1989 C 0.37498 0.49188 0.24177 0.0
H1990 H 0.37996 0.47851 0.2905 0.0
C1991 C 0.40382 0.53794 0.29517 0.0
C1992 C 0.39866 0.53522 0.31262 0.0
C1993 C 0.39737 0.52714 0.2818 0.0
C1994 C 0.37835 0.48264 0.27702 0.0
H1995 H 0.33945 0.45406 0.19962 0.0
H1996 H 0.35142 0.47756 0.21764 0.0
H1997 H 0.37202 0.45665 0.26914 0.0
H1998 H 0.38169 0.52019 0.32966 0.0
H1999 H 0.36954 0.50216 0.30633 0.0
H2000 H 0.38046 0.51816 0.25001 0.0
C2001 C 0.35603 0.46433 0.21986 0.0
C2002 C 0.37419 0.46992 0.2646 0.0
C2003 C 0.34916 0.45086 0.20947 0.0
C2004 C 0.38592 0.5225 0.3163 0.0
C2005 C 0.37917 0.512 0.30293 0.0
C2006 C 0.37891 0.50473 0.2543 0.0
C2007 C 0.36752 0.46052 0.23379 0.0
C2008 C 0.37254 0.47428 0.24677 0.0
C2009 C 0.38542 0.5136 0.28563 0.0
C2010 C 0.38063 0.50027 0.27213 0.0
H2011 H 0.3693 0.41613 0.22902 0.0
H2012 H 0.38224 0.43959 0.24633 0.0
H2013 H 0.37393 0.49576 0.22816 0.0
H2014 H 0.41382 0.54751 0.29202 0.0
H2015 H 0.40259 0.52876 0.26871 0.0
C2016 C 0.52594 0.31664 0.38372 0.0
C2017 C 0.53915 0.31312 0.39602 0.0
C2018 C 0.5174 0.30296 0.37514 0.0
C2019 C 0.50301 0.25875 0.38326 0.0
H2020 H 0.48726 0.26169 0.33505 0.0
C2021 C 0.4472 0.21507 0.35357 0.0
C2022 C 0.4347 0.22488 0.34421 0.0
C2023 C 0.46298 0.22286 0.35898 0.0
C2024 C 0.49161 0.26062 0.34853 0.0
H2025 H 0.55428 0.29259 0.40854 0.0
H2026 H 0.53903 0.26851 0.39364 0.0
H2027 H 0.51072 0.28088 0.3452 0.0
H2028 H 0.42885 0.25072 0.33372 0.0
H2029 H 0.45594 0.26406 0.34312 0.0
H2030 H 0.48315 0.23914 0.3868 0.0
C2031 C 0.53547 0.2819 0.39056 0.0
C2032 C 0.50506 0.27156 0.3543 0.0
C2033 C 0.54429 0.29567 0.39894 0.0
C2034 C 0.43817 0.24265 0.34073 0.0
C2035 C 0.45383 0.25031 0.346 0.0
C2036 C 0.48945 0.2478 0.37748 0.0
C2037 C 0.52168 0.28544 0.37887 0.0
C2038 C 0.51043 0.27123 0.37188 0.0
C2039 C 0.46654 0.2405 0.35495 0.0
C2040 C 0.48313 0.24918 0.36024 0.0
H2041 H 0.52167 0.32997 0.38133 0.0
H2042 H 0.5067 0.30611 0.36635 0.0
H2043 H 0.50683 0.25829 0.39692 0.0
H2044 H 0.44493 0.20135 0.35644 0.0
H2045 H 0.47253 0.21502 0.36598 0.0
C2046 C 0.03126 0.18514 0.6163 0.0
C2047 C 0.04342 0.18853 0.60293 0.0
C2048 C 0.02271 0.1989 0.62475 0.0
C2049 C 0.00559 0.24176 0.61521 0.0
H2050 H 0.99369 0.24136 0.66459 0.0
C2051 C 0.94948 0.28436 0.64555 0.0
C2052 C 0.93829 0.27468 0.65655 0.0
C2053 C 0.96539 0.2771 0.63976 0.0
C2054 C 0.99693 0.24171 0.65077 0.0
H2055 H 0.05669 0.20893 0.5883 0.0
H2056 H 0.04139 0.23315 0.60295 0.0
H2057 H 0.01723 0.2226 0.65386 0.0
H2058 H 0.93503 0.24968 0.66986 0.0
H2059 H 0.96225 0.23724 0.65975 0.0
H2060 H 0.98453 0.2601 0.61197 0.0
C2061 C 0.03869 0.21981 0.60699 0.0
C2062 C 0.01044 0.23102 0.64467 0.0
C2063 C 0.04754 0.20599 0.59875 0.0
C2064 C 0.94327 0.25763 0.66147 0.0
C2065 C 0.95905 0.25049 0.65581 0.0
C2066 C 0.99195 0.25242 0.62132 0.0
C2067 C 0.0259 0.21635 0.61979 0.0
C2068 C 0.01447 0.23044 0.62674 0.0
C2069 C 0.9704 0.26015 0.64504 0.0
C2070 C 0.987 0.25192 0.63905 0.0
H2071 H 0.02775 0.17179 0.61965 0.0
H2072 H 0.01278 0.19581 0.63442 0.0
H2073 H 0.00836 0.24148 0.60129 0.0
H2074 H 0.94604 0.29754 0.64155 0.0
H2075 H 0.97386 0.28482 0.63138 0.0
C2076 C 0.95276 0.70521 0.89979 0.0
C2077 C 0.95715 0.68771 0.89606 0.0
C2078 C 0.96166 0.71896 0.89148 0.0
C2079 C 0.99096 0.72959 0.85434 0.0
H2080 H 0.01515 0.76009 0.88706 0.0
C2081 C 0.05819 0.75703 0.83913 0.0
C2082 C 0.06247 0.77444 0.84338 0.0
C2083 C 0.04245 0.74967 0.8446 0.0
C2084 C 0.00822 0.75198 0.87769 0.0
H2085 H 0.97336 0.67082 0.88002 0.0
H2086 H 0.98847 0.69469 0.86518 0.0
H2087 H 0.99127 0.74136 0.89744 0.0
H2088 H 0.05356 0.79768 0.85712 0.0
H2089 H 0.02583 0.78455 0.86699 0.0
H2090 H 0.0083 0.73961 0.83475 0.0
C2091 C 0.97827 0.69787 0.87453 0.0
C2092 C 0.99454 0.74127 0.88362 0.0
C2093 C 0.96965 0.68419 0.88304 0.0
C2094 C 0.05067 0.78422 0.85364 0.0
C2095 C 0.03481 0.77674 0.85925 0.0
C2096 C 0.00453 0.74031 0.84842 0.0
C2097 C 0.9748 0.71538 0.87907 0.0
C2098 C 0.98628 0.72946 0.87213 0.0
C2099 C 0.03046 0.75944 0.85454 0.0
C2100 C 0.01382 0.75105 0.86018 0.0
H2101 H 0.94333 0.70827 0.90995 0.0
H2102 H 0.95872 0.73235 0.89518 0.0
H2103 H 0.98465 0.7208 0.84516 0.0
H2104 H 0.06693 0.74899 0.83137 0.0
H2105 H 0.03974 0.73617 0.84114 0.0
C2106 C 0.54642 0.71039 0.15149 0.0
C2107 C 0.56383 0.71461 0.14728 0.0
C2108 C 0.53259 0.72061 0.14507 0.0
C2109 C 0.52552 0.76584 0.12902 0.0
H2110 H 0.47803 0.74991 0.12067 0.0
C2111 C 0.47192 0.81628 0.11757 0.0
C2112 C 0.46026 0.81291 0.10378 0.0
C2113 C 0.48224 0.80286 0.12448 0.0
C2114 C 0.49124 0.75457 0.12286 0.0
H2115 H 0.58042 0.73174 0.13191 0.0
H2116 H 0.55637 0.74889 0.11988 0.0
H2117 H 0.50105 0.72853 0.12683 0.0
H2118 H 0.44949 0.79274 0.08698 0.0
H2119 H 0.46792 0.76933 0.09858 0.0
H2120 H 0.51613 0.79168 0.12433 0.0
C2121 C 0.55331 0.73824 0.12874 0.0
C2122 C 0.50444 0.74231 0.12655 0.0
C2123 C 0.5671 0.72827 0.13542 0.0
C2124 C 0.45822 0.79563 0.0978 0.0
C2125 C 0.46884 0.78222 0.10445 0.0
C2126 C 0.51246 0.778 0.12517 0.0
C2127 C 0.53594 0.73509 0.13413 0.0
C2128 C 0.52178 0.74781 0.12963 0.0
C2129 C 0.48152 0.78584 0.11737 0.0
C2130 C 0.49511 0.7726 0.12212 0.0
H2131 H 0.54354 0.70004 0.16078 0.0
H2132 H 0.51944 0.7178 0.14958 0.0
H2133 H 0.53858 0.7707 0.13172 0.0
H2134 H 0.47371 0.82952 0.1224 0.0
H2135 H 0.4914 0.80605 0.13483 0.0
C2136 C 0.21112 0.34914 0.33959 0.0
C2137 C 0.19845 0.33611 0.34263 0.0
C2138 C 0.21459 0.35491 0.32255 0.0
C2139 C 0.21483 0.33673 0.27888 0.0
H2140 H 0.2293 0.38344 0.26502 0.0
C2141 C 0.2698 0.35182 0.23032 0.0
C2142 C 0.26754 0.36542 0.21816 0.0
C2143 C 0.25671 0.34805 0.24249 0.0
C2144 C 0.22498 0.37039 0.26857 0.0
H2145 H 0.17829 0.32022 0.33027 0.0
H2146 H 0.1845 0.33023 0.30062 0.0
H2147 H 0.21415 0.37913 0.293 0.0
H2148 H 0.24981 0.38548 0.20876 0.0
H2149 H 0.22692 0.37915 0.23052 0.0
H2150 H 0.2266 0.32785 0.25498 0.0
C2151 C 0.19188 0.33578 0.3114 0.0
C2152 C 0.21646 0.36792 0.28462 0.0
C2153 C 0.18832 0.33009 0.32843 0.0
C2154 C 0.25167 0.37472 0.21784 0.0
C2155 C 0.2387 0.37122 0.23034 0.0
C2156 C 0.22355 0.33918 0.26298 0.0
C2157 C 0.20547 0.34775 0.30823 0.0
C2158 C 0.21172 0.35099 0.29012 0.0
C2159 C 0.2413 0.35809 0.24299 0.0
C2160 C 0.22911 0.35595 0.25791 0.0
H2161 H 0.2191 0.35415 0.35021 0.0
H2162 H 0.22521 0.3641 0.32049 0.0
H2163 H 0.2115 0.32351 0.28284 0.0
H2164 H 0.28203 0.3446 0.23089 0.0
H2165 H 0.25913 0.33799 0.25222 0.0
C2166 C 0.90324 0.02027 0.47767 0.0
C2167 C 0.88918 0.01735 0.46622 0.0
C2168 C 0.90683 0.0084 0.49106 0.0
C2169 C 0.89712 0.9655 0.51098 0.0
H2170 H 0.89821 0.99287 0.55383 0.0
C2171 C 0.91919 0.93968 0.57892 0.0
C2172 C 0.91175 0.94733 0.59397 0.0
C2173 C 0.91392 0.94499 0.5622 0.0
C2174 C 0.89765 0.98497 0.54205 0.0
H2175 H 0.86897 0.99897 0.45852 0.0
H2176 H 0.87526 0.97807 0.48209 0.0
H2177 H 0.8963 0.00767 0.52579 0.0
H2178 H 0.89151 0.96507 0.60319 0.0
H2179 H 0.88221 0.97413 0.57405 0.0
H2180 H 0.89855 0.94273 0.52749 0.0
C2181 C 0.88356 0.98949 0.48063 0.0
C2182 C 0.89687 0.99348 0.52594 0.0
C2183 C 0.88006 0.00137 0.46706 0.0
C2184 C 0.89772 0.95909 0.59191 0.0
C2185 C 0.89245 0.96437 0.5752 0.0
C2186 C 0.89803 0.95691 0.52722 0.0
C2187 C 0.89629 0.99348 0.49335 0.0
C2188 C 0.89688 0.98389 0.51023 0.0
C2189 C 0.90107 0.95801 0.56019 0.0
C2190 C 0.89841 0.9666 0.54292 0.0
H2191 H 0.91043 0.03252 0.47727 0.0
H2192 H 0.91698 0.01159 0.50047 0.0
H2193 H 0.897 0.95781 0.49905 0.0
H2194 H 0.92989 0.93041 0.57998 0.0
H2195 H 0.92082 0.93982 0.55092 0.0
C2196 C 0.24372 0.62739 0.72233 0.0
C2197 C 0.227 0.6351 0.72258 0.0
C2198 C 0.25549 0.63046 0.73612 0.0
C2199 C 0.25306 0.64092 0.78278 0.0
H2200 H 0.30318 0.64886 0.78058 0.0
C2201 C 0.30787 0.67023 0.83129 0.0
C2202 C 0.30205 0.66252 0.84701 0.0
C2203 C 0.30192 0.66401 0.81513 0.0
C2204 C 0.2892 0.64659 0.78138 0.0
H2205 H 0.21003 0.65324 0.73634 0.0
H2206 H 0.23063 0.65897 0.75997 0.0
H2207 H 0.28634 0.6457 0.75336 0.0
H2208 H 0.28703 0.64098 0.85794 0.0
H2209 H 0.27701 0.62992 0.82976 0.0
H2210 H 0.25553 0.64237 0.81054 0.0
C2211 C 0.23453 0.65018 0.74952 0.0
C2212 C 0.2796 0.64471 0.76582 0.0
C2213 C 0.2228 0.64704 0.73592 0.0
C2214 C 0.29156 0.64741 0.84612 0.0
C2215 C 0.28572 0.64113 0.82995 0.0
C2216 C 0.26258 0.64274 0.79823 0.0
C2217 C 0.25064 0.64131 0.75021 0.0
C2218 C 0.26136 0.64225 0.7664 0.0
C2219 C 0.29015 0.64987 0.81433 0.0
C2220 C 0.28072 0.64585 0.79776 0.0
H2221 H 0.24716 0.61799 0.71227 0.0
H2222 H 0.26784 0.62348 0.73631 0.0
H2223 H 0.23907 0.63867 0.78367 0.0
H2224 H 0.31609 0.6818 0.83145 0.0
H2225 H 0.30558 0.67108 0.80338 0.0
C2226 C 0.58193 0.05893 0.08104 0.0
C2227 C 0.58963 0.05278 0.09663 0.0
C2228 C 0.58792 0.05306 0.06476 0.0
C2229 C 0.60488 0.04048 0.03073 0.0
H2230 H 0.6123 0.99025 0.03229 0.0
C2231 C 0.62343 0.99592 0.97086 0.0
C2232 C 0.61577 0.97918 0.97089 0.0
C2233 C 0.62045 0.00744 0.98487 0.0
C2234 C 0.61017 0.00427 0.0316 0.0
H2235 H 0.61097 0.03725 0.10723 0.0
H2236 H 0.62166 0.02738 0.07885 0.0
H2237 H 0.60886 0.00637 0.0594 0.0
H2238 H 0.59784 0.9619 0.98453 0.0
H2239 H 0.59223 0.98209 0.00855 0.0
H2240 H 0.60561 0.03801 0.00267 0.0
C2241 C 0.61061 0.03628 0.07923 0.0
C2242 C 0.60851 0.01359 0.04719 0.0
C2243 C 0.60455 0.04204 0.09551 0.0
C2244 C 0.60399 0.97471 0.98427 0.0
C2245 C 0.60092 0.98619 0.9981 0.0
C2246 C 0.60659 0.03108 0.01503 0.0
C2247 C 0.60184 0.04104 0.06372 0.0
C2248 C 0.60561 0.03178 0.04699 0.0
C2249 C 0.60974 0.00233 0.99898 0.0
C2250 C 0.60887 0.01281 0.01534 0.0
H2251 H 0.57051 0.06735 0.08137 0.0
H2252 H 0.58084 0.05699 0.05311 0.0
H2253 H 0.60277 0.0545 0.03013 0.0
H2254 H 0.63272 0.99957 0.96076 0.0
H2255 H 0.62739 0.01982 0.9852 0.0
C2256 C 0.6909 0.16851 0.66945 0.0
C2257 C 0.69678 0.1608 0.65376 0.0
C2258 C 0.69661 0.16214 0.68565 0.0
C2259 C 0.73564 0.14059 0.70272 0.0
H2260 H 0.71173 0.14375 0.74749 0.0
C2261 C 0.75467 0.12554 0.77852 0.0
C2262 C 0.77124 0.13356 0.77827 0.0
C2263 C 0.74281 0.12849 0.76479 0.0
C2264 C 0.7185 0.1427 0.73506 0.0
H2265 H 0.71159 0.13909 0.64289 0.0
H2266 H 0.72121 0.12779 0.67112 0.0
H2267 H 0.69498 0.14685 0.72018 0.0
H2268 H 0.78783 0.15211 0.7646 0.0
H2269 H 0.76707 0.15759 0.74104 0.0
H2270 H 0.75911 0.1366 0.71739 0.0
C2271 C 0.71264 0.1391 0.67088 0.0
C2272 C 0.70897 0.14454 0.71945 0.0
C2273 C 0.70703 0.14552 0.65469 0.0
C2274 C 0.77517 0.14569 0.76502 0.0
C2275 C 0.76335 0.14869 0.75146 0.0
C2276 C 0.7451 0.13883 0.71821 0.0
C2277 C 0.7082 0.14786 0.68649 0.0
C2278 C 0.71751 0.14375 0.7031 0.0
C2279 C 0.74742 0.1395 0.75075 0.0
C2280 C 0.73674 0.14026 0.73454 0.0
H2281 H 0.68284 0.18019 0.66926 0.0
H2282 H 0.69294 0.16922 0.69739 0.0
H2283 H 0.74274 0.14018 0.69043 0.0
H2284 H 0.75145 0.11598 0.78852 0.0
H2285 H 0.73059 0.12127 0.76456 0.0
C2286 C 0.11998 0.50057 0.03277 0.0
C2287 C 0.11064 0.5164 0.03383 0.0
C2288 C 0.11658 0.48879 0.01909 0.0
C2289 C 0.10294 0.49308 0.97391 0.0
H2290 H 0.10209 0.44232 0.97181 0.0
C2291 C 0.10222 0.45942 0.90756 0.0
C2292 C 0.08837 0.44746 0.90546 0.0
C2293 C 0.10752 0.4646 0.9243 0.0
C2294 C 0.10238 0.45651 0.97223 0.0
H2295 H 0.08909 0.53137 0.02306 0.0
H2296 H 0.08271 0.51058 0.99969 0.0
H2297 H 0.10357 0.45711 0.0004 0.0
H2298 H 0.07063 0.43007 0.91939 0.0
H2299 H 0.07974 0.4393 0.94849 0.0
H2300 H 0.10144 0.49275 0.94602 0.0
C2301 C 0.09297 0.50745 0.009 0.0
C2302 C 0.10324 0.46493 0.98856 0.0
C2303 C 0.09645 0.51923 0.02249 0.0
C2304 C 0.08118 0.4395 0.92048 0.0
C2305 C 0.08647 0.44471 0.93722 0.0
C2306 C 0.1022 0.48473 0.95771 0.0
C2307 C 0.10372 0.49272 0.0065 0.0
C2308 C 0.10318 0.48331 0.98951 0.0
C2309 C 0.09912 0.45792 0.93929 0.0
C2310 C 0.10174 0.46637 0.95664 0.0
H2311 H 0.13116 0.49825 0.04121 0.0
H2312 H 0.12505 0.47751 0.01746 0.0
H2313 H 0.10328 0.50727 0.97421 0.0
H2314 H 0.10825 0.46564 0.89631 0.0
H2315 H 0.11761 0.47453 0.92549 0.0
C2316 C 0.72265 0.85256 0.26784 0.0
C2317 C 0.727 0.86522 0.28043 0.0
C2318 C 0.73402 0.84899 0.25403 0.0
C2319 C 0.77824 0.85532 0.23559 0.0
H2320 H 0.75221 0.85559 0.19192 0.0
C2321 C 0.78705 0.85235 0.15492 0.0
C2322 C 0.79829 0.83781 0.15363 0.0
C2323 C 0.7815 0.85834 0.17129 0.0
C2324 C 0.75978 0.85578 0.20392 0.0
H2325 H 0.74707 0.88323 0.28925 0.0
H2326 H 0.76708 0.87706 0.26482 0.0
H2327 H 0.73676 0.85919 0.21939 0.0
H2328 H 0.81385 0.81929 0.16864 0.0
H2329 H 0.80385 0.82951 0.19711 0.0
H2330 H 0.80134 0.8519 0.21988 0.0
C2331 C 0.75494 0.86978 0.26578 0.0
C2332 C 0.75085 0.85754 0.21973 0.0
C2333 C 0.74355 0.87325 0.27979 0.0
C2334 C 0.80505 0.83042 0.16911 0.0
C2335 C 0.79939 0.83634 0.1855 0.0
C2336 C 0.78724 0.8535 0.21966 0.0
C2337 C 0.74987 0.8582 0.25236 0.0
C2338 C 0.7599 0.857 0.23575 0.0
C2339 C 0.78696 0.84987 0.18673 0.0
C2340 C 0.77805 0.85355 0.20365 0.0
H2341 H 0.70997 0.84616 0.2681 0.0
H2342 H 0.72996 0.83967 0.24412 0.0
H2343 H 0.78555 0.85496 0.24775 0.0
H2344 H 0.78178 0.85853 0.14327 0.0
H2345 H 0.77226 0.8691 0.17181 0.0
C2346 C 0.3784 0.50307 0.53168 0.0
C2347 C 0.38794 0.48741 0.53317 0.0
C2348 C 0.38188 0.51467 0.51785 0.0
C2349 C 0.39542 0.53825 0.48721 0.0
H2350 H 0.39823 0.50989 0.44509 0.0
C2351 C 0.4179 0.56287 0.4189 0.0
C2352 C 0.4109 0.55456 0.40397 0.0
C2353 C 0.41252 0.55792 0.43569 0.0
C2354 C 0.39719 0.51805 0.45666 0.0
H2355 H 0.40972 0.47243 0.52292 0.0
H2356 H 0.41626 0.49292 0.49932 0.0
H2357 H 0.39626 0.49572 0.47345 0.0
H2358 H 0.3912 0.5361 0.39501 0.0
H2359 H 0.3817 0.52766 0.42428 0.0
H2360 H 0.39645 0.56064 0.47015 0.0
C2361 C 0.40584 0.4961 0.50842 0.0
C2362 C 0.39638 0.50991 0.47296 0.0
C2363 C 0.40227 0.48449 0.52205 0.0
C2364 C 0.39709 0.54257 0.40619 0.0
C2365 C 0.3917 0.53765 0.42298 0.0
C2366 C 0.39638 0.54646 0.47078 0.0
C2367 C 0.39499 0.51069 0.50553 0.0
C2368 C 0.39573 0.51988 0.48842 0.0
C2369 C 0.39997 0.54464 0.4379 0.0
C2370 C 0.39735 0.5364 0.45534 0.0
H2371 H 0.36707 0.50539 0.53992 0.0
H2372 H 0.37332 0.52582 0.51591 0.0
H2373 H 0.39479 0.54622 0.49894 0.0
H2374 H 0.42841 0.57233 0.4177 0.0
H2375 H 0.41913 0.56357 0.44691 0.0
C2376 C 0.22919 0.26745 0.34709 0.0
C2377 C 0.21804 0.26538 0.36155 0.0
C2378 C 0.24319 0.25603 0.34456 0.0
C2379 C 0.26531 0.21534 0.35829 0.0
H2380 H 0.30675 0.24414 0.352 0.0
C2381 C 0.33289 0.19012 0.33498 0.0
C2382 C 0.34794 0.19951 0.34005 0.0
C2383 C 0.31635 0.19509 0.34107 0.0
C2384 C 0.2954 0.23587 0.35408 0.0
H2385 H 0.21168 0.24894 0.38378 0.0
H2386 H 0.23636 0.22884 0.37937 0.0
H2387 H 0.2782 0.2579 0.35368 0.0
H2388 H 0.35763 0.21993 0.35731 0.0
H2389 H 0.32883 0.22832 0.36819 0.0
H2390 H 0.28275 0.19325 0.35861 0.0
C2391 C 0.23416 0.23921 0.36993 0.0
C2392 C 0.27897 0.24375 0.3547 0.0
C2393 C 0.21996 0.2506 0.37237 0.0
C2394 C 0.34629 0.21262 0.35289 0.0
C2395 C 0.32977 0.21751 0.35904 0.0
C2396 C 0.28187 0.20737 0.35757 0.0
C2397 C 0.24644 0.24246 0.35657 0.0
C2398 C 0.26373 0.23359 0.35648 0.0
C2399 C 0.31455 0.20944 0.35246 0.0
C2400 C 0.29708 0.21758 0.35529 0.0
H2401 H 0.22797 0.27879 0.33863 0.0
H2402 H 0.25222 0.25859 0.33391 0.0
H2403 H 0.25376 0.20723 0.35982 0.0
H2404 H 0.33366 0.1798 0.32528 0.0
H2405 H 0.30492 0.18857 0.33575 0.0
C2406 C 0.97447 0.98537 0.6034 0.0
C2407 C 0.97871 0.97196 0.61525 0.0
C2408 C 0.98615 0.99904 0.60035 0.0
C2409 C 0.03115 0.01542 0.60575 0.0
H2410 H 0.00697 0.06005 0.60854 0.0
C2411 C 0.0428 0.09578 0.60313 0.0
C2412 C 0.05308 0.09674 0.58787 0.0
C2413 C 0.0371 0.07958 0.60946 0.0
C2414 C 0.01405 0.04776 0.60805 0.0
H2415 H 0.99889 0.9616 0.6323 0.0
H2416 H 0.01951 0.98574 0.62696 0.0
H2417 H 0.99062 0.0331 0.61225 0.0
H2418 H 0.06693 0.08126 0.5684 0.0
H2419 H 0.05668 0.05313 0.57922 0.0
H2420 H 0.05465 0.03029 0.60144 0.0
C2421 C 0.00715 0.98555 0.61998 0.0
C2422 C 0.0046 0.03227 0.60988 0.0
C2423 C 0.99542 0.97172 0.62296 0.0
C2424 C 0.05886 0.08105 0.58008 0.0
C2425 C 0.05306 0.06485 0.58636 0.0
C2426 C 0.04068 0.03102 0.60386 0.0
C2427 C 0.00227 0.99971 0.60922 0.0
C2428 C 0.01294 0.01593 0.60836 0.0
C2429 C 0.04148 0.06399 0.60064 0.0
C2430 C 0.03216 0.04737 0.60475 0.0
H2431 H 0.9617 0.9858 0.5972 0.0
H2432 H 0.98222 0.00954 0.59164 0.0
H2433 H 0.03792 0.00299 0.60462 0.0
H2434 H 0.0383 0.10757 0.60963 0.0
H2435 H 0.02854 0.07933 0.62078 0.0
C2436 C 0.26597 0.72578 0.85398 0.0
C2437 C 0.27811 0.73001 0.8671 0.0
C2438 C 0.25173 0.73671 0.85072 0.0
C2439 C 0.23127 0.77978 0.85951 0.0
H2440 H 0.18877 0.75216 0.85559 0.0
C2441 C 0.15049 0.78546 0.85273 0.0
C2442 C 0.14958 0.79796 0.83923 0.0
C2443 C 0.16671 0.78014 0.85934 0.0
C2444 C 0.20042 0.76015 0.85699 0.0
H2445 H 0.28563 0.74938 0.8864 0.0
H2446 H 0.26044 0.76858 0.88082 0.0
H2447 H 0.21666 0.73753 0.85918 0.0
H2448 H 0.16493 0.81602 0.82346 0.0
H2449 H 0.19312 0.80644 0.83466 0.0
H2450 H 0.21478 0.80246 0.85743 0.0
C2451 C 0.26209 0.75693 0.87289 0.0
C2452 C 0.2165 0.75172 0.85871 0.0
C2453 C 0.27655 0.74602 0.87602 0.0
C2454 C 0.16512 0.80623 0.83373 0.0
C2455 C 0.18135 0.80078 0.84023 0.0
C2456 C 0.21507 0.78828 0.8578 0.0
C2457 C 0.24914 0.75194 0.86075 0.0
C2458 C 0.23215 0.76138 0.85964 0.0
C2459 C 0.18237 0.78709 0.85251 0.0
C2460 C 0.19947 0.77853 0.85631 0.0
H2461 H 0.26694 0.71347 0.84695 0.0
H2462 H 0.24224 0.73274 0.84093 0.0
H2463 H 0.24311 0.78756 0.86029 0.0
H2464 H 0.13876 0.77901 0.85747 0.0
H2465 H 0.167 0.76991 0.86917 0.0
C2466 C 0.50489 0.0299 0.124 0.0
C2467 C 0.52172 0.02932 0.11654 0.0
C2468 C 0.49303 0.01617 0.12105 0.0
C2469 C 0.4952 0.96929 0.11177 0.0
H2470 H 0.44525 0.97165 0.1028 0.0
C2471 C 0.4409 0.92054 0.08218 0.0
C2472 C 0.44659 0.90494 0.09021 0.0
C2473 C 0.44666 0.9368 0.08833 0.0
C2474 C 0.45919 0.97081 0.10538 0.0
H2475 H 0.5388 0.01502 0.09894 0.0
H2476 H 0.51804 0.99147 0.09342 0.0
H2477 H 0.46225 0.99882 0.10565 0.0
H2478 H 0.46104 0.89432 0.11228 0.0
H2479 H 0.4707 0.92267 0.12324 0.0
H2480 H 0.49255 0.94152 0.11091 0.0
C2481 C 0.51412 0.00214 0.10192 0.0
C2482 C 0.46886 0.98634 0.10707 0.0
C2483 C 0.52594 0.0157 0.10494 0.0
C2484 C 0.45664 0.90605 0.1056 0.0
C2485 C 0.46228 0.92231 0.11182 0.0
C2486 C 0.4856 0.95387 0.11013 0.0
C2487 C 0.49788 0.0018 0.11058 0.0
C2488 C 0.48705 0.98568 0.10987 0.0
C2489 C 0.45809 0.9378 0.10273 0.0
C2490 C 0.46752 0.95439 0.10665 0.0
H2491 H 0.50142 0.04019 0.13314 0.0
H2492 H 0.48057 0.01624 0.12786 0.0
H2493 H 0.50914 0.96835 0.1143 0.0
H2494 H 0.433 0.92022 0.07039 0.0
H2495 H 0.44318 0.94844 0.081 0.0
C2496 C 0.73555 0.22328 0.6458 0.0
C2497 C 0.72286 0.22781 0.63332 0.0
C2498 C 0.74987 0.23419 0.64878 0.0
C2499 C 0.76948 0.27778 0.64047 0.0
H2500 H 0.81244 0.25077 0.64326 0.0
C2501 C 0.83526 0.30497 0.6661 0.0
C2502 C 0.85094 0.29699 0.66055 0.0
C2503 C 0.81913 0.29933 0.65955 0.0
C2504 C 0.80067 0.25861 0.64216 0.0
H2505 H 0.71451 0.24767 0.61486 0.0
H2506 H 0.73984 0.26681 0.6199 0.0
H2507 H 0.78475 0.23578 0.6397 0.0
H2508 H 0.86206 0.27839 0.64216 0.0
H2509 H 0.83397 0.26899 0.63031 0.0
H2510 H 0.78562 0.30068 0.64277 0.0
C2511 C 0.73857 0.25493 0.62756 0.0
C2512 C 0.7847 0.24996 0.64047 0.0
C2513 C 0.72404 0.24405 0.62474 0.0
C2514 C 0.85023 0.28461 0.64694 0.0
C2515 C 0.8341 0.27911 0.64025 0.0
C2516 C 0.78556 0.28651 0.64212 0.0
C2517 C 0.752 0.24971 0.63908 0.0
C2518 C 0.76888 0.25938 0.64 0.0
C2519 C 0.81832 0.28575 0.64714 0.0
C2520 C 0.80134 0.27698 0.64324 0.0
H2521 H 0.73488 0.21083 0.6526 0.0
H2522 H 0.75972 0.23004 0.65812 0.0
H2523 H 0.75751 0.2854 0.64006 0.0
H2524 H 0.83529 0.31467 0.67646 0.0
H2525 H 0.80728 0.30475 0.66518 0.0
C2526 C 0.0251 0.48472 0.89694 0.0
C2527 C 0.02096 0.47144 0.88491 0.0
C2528 C 0.01336 0.4983 0.90011 0.0
C2529 C 0.9684 0.51474 0.89468 0.0
H2530 H 0.99262 0.55936 0.89178 0.0
C2531 C 0.9568 0.59511 0.89668 0.0
C2532 C 0.94658 0.59624 0.91196 0.0
C2533 C 0.96246 0.57884 0.8905 0.0
C2534 C 0.98553 0.54707 0.89231 0.0
H2535 H 0.00087 0.46119 0.86769 0.0
H2536 H 0.98013 0.48519 0.87326 0.0
H2537 H 0.00896 0.53238 0.8882 0.0
H2538 H 0.93278 0.58099 0.93164 0.0
H2539 H 0.94295 0.55272 0.92108 0.0
H2540 H 0.94491 0.52965 0.89892 0.0
C2541 C 0.99247 0.48496 0.88028 0.0
C2542 C 0.99498 0.53157 0.89055 0.0
C2543 C 0.00426 0.47121 0.87717 0.0
C2544 C 0.9408 0.58065 0.91994 0.0
C2545 C 0.94655 0.56437 0.91382 0.0
C2546 C 0.95888 0.53036 0.89652 0.0
C2547 C 0.99728 0.49902 0.89119 0.0
C2548 C 0.98662 0.51524 0.89208 0.0
C2549 C 0.9581 0.56335 0.89951 0.0
C2550 C 0.96742 0.5467 0.89557 0.0
H2551 H 0.03787 0.48513 0.90316 0.0
H2552 H 0.01724 0.50873 0.90893 0.0
H2553 H 0.96163 0.50232 0.89582 0.0
H2554 H 0.96129 0.60683 0.89004 0.0
H2555 H 0.971 0.57846 0.87917 0.0
C2556 C 0.66955 0.68747 0.16926 0.0
C2557 C 0.65506 0.69641 0.16215 0.0
C2558 C 0.68656 0.69158 0.16393 0.0
C2559 C 0.71323 0.71551 0.1312 0.0
H2560 H 0.74108 0.72923 0.17148 0.0
C2561 C 0.7793 0.75226 0.12453 0.0
C2562 C 0.7784 0.76861 0.13294 0.0
C2563 C 0.76688 0.73928 0.12828 0.0
C2564 C 0.73358 0.7252 0.16011 0.0
H2565 H 0.64709 0.71547 0.14258 0.0
H2566 H 0.67679 0.72256 0.13325 0.0
H2567 H 0.71369 0.71331 0.17585 0.0
H2568 H 0.76465 0.78396 0.15245 0.0
H2569 H 0.74344 0.76109 0.1595 0.0
H2570 H 0.73286 0.72814 0.11553 0.0
C2571 C 0.67496 0.71243 0.14303 0.0
C2572 C 0.71796 0.71601 0.16259 0.0
C2573 C 0.65792 0.7084 0.14843 0.0
C2574 C 0.76568 0.77138 0.14592 0.0
C2575 C 0.75357 0.75831 0.14994 0.0
C2576 C 0.72901 0.72451 0.12871 0.0
C2577 C 0.68946 0.70457 0.15123 0.0
C2578 C 0.70735 0.71154 0.14819 0.0
C2579 C 0.75371 0.74235 0.14078 0.0
C2580 C 0.73903 0.72991 0.14319 0.0
H2581 H 0.66787 0.67798 0.17969 0.0
H2582 H 0.6975 0.68514 0.17029 0.0
H2583 H 0.70534 0.71216 0.11988 0.0
H2584 H 0.78883 0.74996 0.11427 0.0
H2585 H 0.76721 0.72707 0.12104 0.0
C2586 C 0.47523 0.5192 0.39928 0.0
C2587 C 0.47915 0.53132 0.38602 0.0
C2588 C 0.48664 0.50543 0.40286 0.0
C2589 C 0.53031 0.48624 0.3955 0.0
H2590 H 0.5037 0.44291 0.39622 0.0
C2591 C 0.53825 0.4055 0.3985 0.0
C2592 C 0.54963 0.40404 0.4129 0.0
C2593 C 0.53277 0.42194 0.39264 0.0
C2594 C 0.51141 0.45482 0.39577 0.0
H2595 H 0.4986 0.53943 0.36701 0.0
H2596 H 0.51871 0.51511 0.37327 0.0
H2597 H 0.48852 0.4706 0.39283 0.0
H2598 H 0.56555 0.41885 0.43129 0.0
H2599 H 0.55573 0.44746 0.42125 0.0
H2600 H 0.55327 0.47023 0.39851 0.0
C2601 C 0.50685 0.5164 0.38096 0.0
C2602 C 0.50266 0.47074 0.39412 0.0
C2603 C 0.49542 0.53036 0.37746 0.0
C2604 C 0.55662 0.41945 0.42028 0.0
C2605 C 0.55107 0.4359 0.41445 0.0
C2606 C 0.53913 0.4702 0.39725 0.0
C2607 C 0.50211 0.50336 0.3931 0.0
C2608 C 0.51195 0.48663 0.39427 0.0
C2609 C 0.5385 0.4373 0.40107 0.0
C2610 C 0.52972 0.45432 0.39754 0.0
H2611 H 0.46276 0.51971 0.40607 0.0
H2612 H 0.48285 0.4958 0.41258 0.0
H2613 H 0.53779 0.4983 0.39555 0.0
H2614 H 0.53279 0.39393 0.39234 0.0
H2615 H 0.52338 0.4226 0.38201 0.0
C2616 C 0.36761 0.21521 0.2513 0.0
C2617 C 0.35833 0.21381 0.26714 0.0
C2618 C 0.36371 0.22878 0.23955 0.0
C2619 C 0.34857 0.27347 0.24411 0.0
H2620 H 0.34885 0.27604 0.19337 0.0
C2621 C 0.34906 0.34005 0.21083 0.0
C2622 C 0.33567 0.34244 0.19841 0.0
C2623 C 0.35388 0.32322 0.21615 0.0
C2624 C 0.34879 0.27548 0.20755 0.0
H2625 H 0.33644 0.22378 0.28215 0.0
H2626 H 0.32918 0.24692 0.26139 0.0
H2627 H 0.35054 0.24733 0.20793 0.0
H2628 H 0.31813 0.32888 0.18053 0.0
H2629 H 0.32643 0.29957 0.19 0.0
H2630 H 0.34662 0.30133 0.24398 0.0
C2631 C 0.33976 0.23798 0.25823 0.0
C2632 C 0.34978 0.25909 0.21585 0.0
C2633 C 0.34374 0.22461 0.27 0.0
C2634 C 0.32837 0.32756 0.19027 0.0
C2635 C 0.33318 0.31071 0.19563 0.0
C2636 C 0.34772 0.28972 0.23589 0.0
C2637 C 0.35042 0.24092 0.24351 0.0
C2638 C 0.3494 0.25796 0.23422 0.0
C2639 C 0.34543 0.3084 0.20917 0.0
C2640 C 0.34772 0.29096 0.21753 0.0
H2641 H 0.37909 0.20719 0.24897 0.0
H2642 H 0.37213 0.23074 0.22829 0.0
H2643 H 0.34865 0.27306 0.2583 0.0
H2644 H 0.35514 0.35118 0.21721 0.0
H2645 H 0.36366 0.32183 0.22634 0.0
C2646 C 0.83141 0.16971 0.80982 0.0
C2647 C 0.83864 0.15476 0.80176 0.0
C2648 C 0.83656 0.18651 0.80464 0.0
C2649 C 0.85239 0.22164 0.79299 0.0
H2650 H 0.853 0.22403 0.74224 0.0
C2651 C 0.87056 0.2823 0.74939 0.0
C2652 C 0.86132 0.28354 0.73351 0.0
C2653 C 0.86691 0.26862 0.7611 0.0
C2654 C 0.85273 0.22361 0.75644 0.0
H2655 H 0.8584 0.14582 0.78335 0.0
H2656 H 0.8675 0.17509 0.77451 0.0
H2657 H 0.85107 0.19573 0.75655 0.0
H2658 H 0.83974 0.27311 0.71838 0.0
H2659 H 0.8329 0.24977 0.73905 0.0
H2660 H 0.85379 0.2498 0.79261 0.0
C2661 C 0.85751 0.1738 0.78451 0.0
C2662 C 0.85194 0.20735 0.76466 0.0
C2663 C 0.85235 0.157 0.78966 0.0
C2664 C 0.847 0.27241 0.73056 0.0
C2665 C 0.84326 0.25892 0.74228 0.0
C2666 C 0.85331 0.23802 0.7847 0.0
C2667 C 0.84909 0.18871 0.79134 0.0
C2668 C 0.85162 0.20613 0.78302 0.0
C2669 C 0.85391 0.2562 0.75704 0.0
C2670 C 0.85317 0.23914 0.76632 0.0
H2671 H 0.82095 0.16851 0.81935 0.0
H2672 H 0.82982 0.19771 0.81018 0.0
H2673 H 0.85221 0.22109 0.80717 0.0
H2674 H 0.88185 0.29057 0.75179 0.0
H2675 H 0.87531 0.26682 0.7724 0.0
C2676 C 0.97305 0.6255 0.9951 0.0
C2677 C 0.97222 0.61718 0.97871 0.0
C2678 C 0.98739 0.62254 0.00622 0.0
C2679 C 0.018 0.60913 0.02935 0.0
H2680 H 0.06139 0.60776 0.0029 0.0
C2681 C 0.08379 0.58316 0.05632 0.0
C2682 C 0.09946 0.58926 0.04874 0.0
C2683 C 0.06762 0.58978 0.05082 0.0
C2684 C 0.04949 0.60846 0.01059 0.0
H2685 H 0.98462 0.59818 0.96168 0.0
H2686 H 0.00914 0.59249 0.98124 0.0
H2687 H 0.03387 0.61145 0.98762 0.0
H2688 H 0.11054 0.60861 0.03111 0.0
H2689 H 0.0824 0.62053 0.02196 0.0
H2690 H 0.03385 0.60622 0.0524 0.0
C2691 C 0.99916 0.60171 0.98535 0.0
C2692 C 0.03363 0.61024 0.00177 0.0
C2693 C 0.98504 0.6048 0.97424 0.0
C2694 C 0.09871 0.60341 0.03699 0.0
C2695 C 0.08256 0.61015 0.03164 0.0
C2696 C 0.03398 0.60737 0.03825 0.0
C2697 C 0.00095 0.61116 0.00106 0.0
C2698 C 0.01767 0.6102 0.01096 0.0
C2699 C 0.06681 0.60277 0.03778 0.0
C2700 C 0.0499 0.60677 0.02893 0.0
H2701 H 0.96341 0.63528 0.9987 0.0
H2702 H 0.98841 0.63 0.01825 0.0
H2703 H 0.00591 0.60916 0.03679 0.0
H2704 H 0.08386 0.57235 0.06551 0.0
H2705 H 0.05579 0.58376 0.05584 0.0
C2706 C 0.6665 0.83104 0.31027 0.0
C2707 C 0.65909 0.84659 0.30365 0.0
C2708 C 0.66063 0.81471 0.30442 0.0
C2709 C 0.64391 0.78061 0.29152 0.0
H2710 H 0.63909 0.78178 0.24096 0.0
C2711 C 0.62617 0.72106 0.24613 0.0
C2712 C 0.63471 0.72088 0.22982 0.0
C2713 C 0.62906 0.73489 0.25789 0.0
C2714 C 0.64049 0.7812 0.25508 0.0
H2715 H 0.63832 0.85706 0.28729 0.0
H2716 H 0.62789 0.8286 0.27738 0.0
H2717 H 0.64191 0.80901 0.25701 0.0
H2718 H 0.65413 0.73382 0.21367 0.0
H2719 H 0.65957 0.75753 0.23429 0.0
H2720 H 0.64299 0.75254 0.28925 0.0
C2721 C 0.6386 0.82905 0.28668 0.0
C2722 C 0.6418 0.79686 0.26434 0.0
C2723 C 0.64452 0.84538 0.29245 0.0
C2724 C 0.64733 0.73373 0.22614 0.0
C2725 C 0.6503 0.74738 0.23786 0.0
C2726 C 0.64252 0.76484 0.28218 0.0
C2727 C 0.64716 0.81358 0.29192 0.0
C2728 C 0.64375 0.7968 0.28264 0.0
C2729 C 0.64056 0.74859 0.25344 0.0
C2730 C 0.64118 0.76501 0.26382 0.0
H2731 H 0.67763 0.83144 0.31907 0.0
H2732 H 0.66752 0.80307 0.30873 0.0
H2733 H 0.64531 0.78014 0.30563 0.0
H2734 H 0.61623 0.71139 0.24916 0.0
H2735 H 0.62141 0.73549 0.26983 0.0
C2736 C 0.40365 0.4034 0.53415 0.0
C2737 C 0.4015 0.41523 0.54811 0.0
C2738 C 0.42028 0.39686 0.53001 0.0
C2739 C 0.46504 0.41191 0.53117 0.0
H2740 H 0.47663 0.36525 0.51467 0.0
C2741 C 0.51566 0.39606 0.47788 0.0
C2742 C 0.52734 0.38218 0.48082 0.0
C2743 C 0.50268 0.39994 0.49014 0.0
C2744 C 0.47366 0.37826 0.51951 0.0
H2745 H 0.41493 0.42811 0.5697 0.0
H2746 H 0.44382 0.41686 0.56229 0.0
H2747 H 0.44837 0.37048 0.52908 0.0
H2748 H 0.53495 0.3616 0.49881 0.0
H2749 H 0.51173 0.36812 0.52019 0.0
H2750 H 0.48983 0.41991 0.52067 0.0
C2751 C 0.43268 0.41282 0.55446 0.0
C2752 C 0.45748 0.38126 0.52761 0.0
C2753 C 0.41609 0.41923 0.55869 0.0
C2754 C 0.52627 0.3726 0.49649 0.0
C2755 C 0.51294 0.3762 0.50858 0.0
C2756 C 0.48104 0.40897 0.52281 0.0
C2757 C 0.43503 0.40209 0.53972 0.0
C2758 C 0.45291 0.39819 0.53323 0.0
C2759 C 0.50086 0.3897 0.50532 0.0
C2760 C 0.48534 0.3922 0.51663 0.0
H2761 H 0.39272 0.39996 0.52578 0.0
H2762 H 0.42175 0.38864 0.51853 0.0
H2763 H 0.46177 0.42512 0.53519 0.0
H2764 H 0.51614 0.40344 0.46575 0.0
H2765 H 0.4934 0.4103 0.48725 0.0
C2766 C 0.16729 0.67094 0.68958 0.0
C2767 C 0.15999 0.65603 0.69765 0.0
C2768 C 0.1621 0.68776 0.69465 0.0
C2769 C 0.1466 0.7086 0.73453 0.0
H2770 H 0.14549 0.75115 0.70668 0.0
C2771 C 0.15292 0.77337 0.76876 0.0
C2772 C 0.13866 0.78465 0.76607 0.0
C2773 C 0.15637 0.75993 0.75691 0.0
C2774 C 0.14576 0.73934 0.71456 0.0
H2775 H 0.14002 0.64715 0.71586 0.0
H2776 H 0.13085 0.67647 0.72451 0.0
H2777 H 0.14669 0.72246 0.69205 0.0
H2778 H 0.118 0.79203 0.74809 0.0
H2779 H 0.12405 0.76838 0.72723 0.0
H2780 H 0.14575 0.72523 0.75698 0.0
C2781 C 0.14093 0.67513 0.7146 0.0
C2782 C 0.14645 0.72297 0.70623 0.0
C2783 C 0.14613 0.65831 0.70956 0.0
C2784 C 0.12924 0.78364 0.75029 0.0
C2785 C 0.1326 0.77001 0.73844 0.0
C2786 C 0.14604 0.72485 0.74279 0.0
C2787 C 0.14946 0.69001 0.70783 0.0
C2788 C 0.14699 0.70742 0.71617 0.0
C2789 C 0.1455 0.75743 0.74226 0.0
C2790 C 0.1459 0.7404 0.73294 0.0
H2791 H 0.17785 0.6697 0.68017 0.0
H2792 H 0.16892 0.69893 0.68916 0.0
H2793 H 0.14729 0.69695 0.74262 0.0
H2794 H 0.16034 0.7739 0.78086 0.0
H2795 H 0.16665 0.75063 0.75996 0.0
C2796 C 0.48599 0.89596 0.02729 0.0
C2797 C 0.47201 0.8849 0.02279 0.0
C2798 C 0.49952 0.89905 0.01545 0.0
C2799 C 0.51442 0.89526 0.9697 0.0
H2800 H 0.55968 0.8905 0.99237 0.0
C2801 C 0.57979 0.92029 0.9408 0.0
C2802 C 0.59545 0.91202 0.94593 0.0
C2803 C 0.56362 0.91418 0.94686 0.0
C2804 C 0.5472 0.89155 0.98569 0.0
H2805 H 0.46055 0.8693 0.00202 0.0
H2806 H 0.48444 0.87468 0.98116 0.0
H2807 H 0.53316 0.88677 0.00939 0.0
H2808 H 0.60622 0.8896 0.95972 0.0
H2809 H 0.57803 0.87871 0.9699 0.0
H2810 H 0.52867 0.9001 0.94593 0.0
C2811 C 0.48482 0.88102 0.99385 0.0
C2812 C 0.53196 0.88971 0.99555 0.0
C2813 C 0.47113 0.87801 0.00574 0.0
C2814 C 0.59445 0.89647 0.95575 0.0
C2815 C 0.57828 0.89028 0.96169 0.0
C2816 C 0.52977 0.89714 0.95977 0.0
C2817 C 0.49948 0.891 0.9989 0.0
C2818 C 0.51541 0.89192 0.98779 0.0
C2819 C 0.56277 0.89957 0.95805 0.0
C2820 C 0.54634 0.89554 0.96773 0.0
H2821 H 0.48692 0.90156 0.04031 0.0
H2822 H 0.51041 0.90718 0.01954 0.0
H2823 H 0.50183 0.89695 0.96337 0.0
H2824 H 0.58003 0.93223 0.93311 0.0
H2825 H 0.55197 0.92168 0.9438 0.0
C2826 C 0.9003 0.10417 0.46398 0.0
C2827 C 0.89954 0.09035 0.45185 0.0
C2828 C 0.91645 0.11091 0.46935 0.0
C2829 C 0.94982 0.10906 0.48993 0.0
H2830 H 0.99305 0.11066 0.46322 0.0
C2831 C 0.01477 0.10517 0.52542 0.0
C2832 C 0.02751 0.11763 0.52094 0.0
C2833 C 0.0005 0.10221 0.51446 0.0
C2834 C 0.98106 0.11039 0.47082 0.0
H2835 H 0.91512 0.07409 0.43442 0.0
H2836 H 0.94317 0.08548 0.44411 0.0
H2837 H 0.96495 0.10793 0.4479 0.0
H2838 H 0.036 0.13605 0.50111 0.0
H2839 H 0.01074 0.13102 0.48185 0.0
H2840 H 0.96569 0.11164 0.51277 0.0
C2841 C 0.93135 0.09124 0.44944 0.0
C2842 C 0.96498 0.10873 0.46207 0.0
C2843 C 0.91519 0.08463 0.44393 0.0
C2844 C 0.02643 0.12619 0.50469 0.0
C2845 C 0.01194 0.12338 0.49374 0.0
C2846 C 0.96577 0.11075 0.4986 0.0
C2847 C 0.9322 0.10386 0.46282 0.0
C2848 C 0.94918 0.1078 0.47157 0.0
C2849 C 0.99846 0.1119 0.49892 0.0
C2850 C 0.98161 0.11103 0.48922 0.0
H2851 H 0.88848 0.10908 0.47014 0.0
H2852 H 0.91661 0.12101 0.47931 0.0
H2853 H 0.93801 0.1081 0.49776 0.0
H2854 H 0.01537 0.09838 0.53789 0.0
H2855 H 0.9906 0.09291 0.51858 0.0
loop_
_geom_bond_atom_site_label_1
_geom_bond_atom_site_label_2
_geom_bond_distance
_geom_bond_site_symmetry_2
_ccdc_geom_bond_type
Co0 O2 2.143 . S
Co0 O8 2.074 . S
Co0 O11 2.093 . S
Co0 O24 2.097 . S
Co0 N41 2.151 . S
Co0 N49 2.214 . S
Co1 O2 2.160 . S
Co1 O7 2.058 . S
Co1 O17 2.057 . S
Co1 O32 2.037 . S
Co1 N36 2.145 . S
Co1 N57 2.257 . S
O2 Co0 2.143 . S
O2 Co1 2.160 . S
C3 O4 1.278 . S
C3 O11 1.224 . S
O4 C3 1.278 . S
C5 O6 1.245 . S
C5 O17 1.232 . S
O6 C5 1.245 . S
O7 Co1 2.058 . S
O7 C33 1.269 . S
O8 Co0 2.074 . S
O8 C33 1.257 . S
H9 C34 0.930 . S
H10 C40 0.930 . S
O11 Co0 2.093 . S
O11 C3 1.224 . S
H12 C44 0.929 . S
H13 C46 0.930 . S
H14 C47 0.930 . S
H15 C45 0.929 . S
H16 C48 0.928 . S
O17 Co1 2.057 . S
O17 C5 1.232 . S
H18 C37 0.929 . S
H19 C38 0.929 . S
H20 C50 0.931 . S
H21 C42 0.929 . S
H22 C51 0.930 . S
H23 C43 0.931 . S
O24 Co0 2.097 . S
O24 C52 1.214 . S
H25 C53 0.929 . S
H26 C54 0.929 . S
H27 C55 0.930 . S
H28 C56 0.929 . S
H29 C58 0.930 . S
H30 C35 0.930 . S
H31 C39 0.930 . S
O32 Co1 2.037 . S
O32 C52 1.234 . S
C33 O7 1.269 . S
C33 O8 1.257 . S
C34 H9 0.930 . S
C34 C37 1.388 . S
C34 C39 1.418 . S
C35 H30 0.930 . S
C35 C38 1.404 . S
C35 C39 1.353 . S
N36 Co1 2.145 . S
N36 C37 1.397 . S
N36 C38 1.334 . S
C37 H18 0.929 . S
C37 C34 1.388 . S
C37 N36 1.397 . S
C38 H19 0.929 . S
C38 C35 1.404 . S
C38 N36 1.334 . S
C39 H31 0.930 . S
C39 C34 1.418 . S
C39 C35 1.353 . S
C40 H10 0.930 . S
C40 N41 1.330 . S
C40 C42 1.446 . S
N41 Co0 2.151 . S
N41 C40 1.330 . S
N41 C45 1.418 . S
C42 H21 0.929 . S
C42 C40 1.446 . S
C42 C43 1.332 . S
C43 H23 0.931 . S
C43 C42 1.332 . S
C43 C44 1.267 . S
C44 H12 0.929 . S
C44 C43 1.267 . S
C44 C45 1.251 . S
C45 H15 0.929 . S
C45 N41 1.418 . S
C45 C44 1.251 . S
C46 H13 0.930 . S
C46 C48 1.406 . S
C46 C51 1.261 . S
C47 H14 0.930 . S
C47 N49 1.325 . S
C47 C50 1.357 . S
C48 H16 0.928 . S
C48 C46 1.406 . S
C48 N49 1.261 . S
N49 Co0 2.214 . S
N49 C47 1.325 . S
N49 C48 1.261 . S
C50 H20 0.931 . S
C50 C47 1.357 . S
C50 C51 1.312 . S
C51 H22 0.930 . S
C51 C46 1.261 . S
C51 C50 1.312 . S
C52 O24 1.214 . S
C52 O32 1.234 . S
C53 H25 0.929 . S
C53 C56 1.391 . S
C53 C58 1.391 . S
C54 H26 0.929 . S
C54 C55 1.390 . S
C54 N57 1.391 . S
C55 H27 0.930 . S
C55 C54 1.390 . S
C55 C56 1.392 . S
C56 H28 0.929 . S
C56 C53 1.391 . S
C56 C55 1.392 . S
N57 Co1 2.257 . S
N57 C54 1.391 . S
N57 C58 1.388 . S
C58 H29 0.930 . S
C58 C53 1.391 . S
C58 N57 1.388 . S
Co59 O61 2.143 . S
Co59 O67 2.074 . S
Co59 O70 2.093 . S
Co59 O83 2.097 . S
Co59 N100 2.151 . S
Co59 N108 2.214 . S
Co60 O61 2.160 . S
Co60 O66 2.058 . S
Co60 O76 2.057 . S
Co60 O91 2.037 . S
Co60 N95 2.145 . S
Co60 N116 2.257 . S
O61 Co59 2.143 . S
O61 Co60 2.160 . S
C62 O63 1.278 . S
C62 O70 1.224 . S
O63 C62 1.278 . S
C64 O65 1.245 . S
C64 O76 1.232 . S
O65 C64 1.245 . S
O66 Co60 2.058 . S
O66 C92 1.269 . S
O67 Co59 2.074 . S
O67 C92 1.257 . S
H68 C93 0.930 . S
H69 C99 0.930 . S
O70 Co59 2.093 . S
O70 C62 1.224 . S
H71 C103 0.929 . S
H72 C105 0.930 . S
H73 C106 0.930 . S
H74 C104 0.926 1_545 S
H75 C107 0.928 . S
O76 Co60 2.057 . S
O76 C64 1.232 . S
H77 C96 0.929 . S
H78 C97 0.929 . S
H79 C109 0.931 . S
H80 C101 0.929 . S
H81 C110 0.930 . S
H82 C102 0.938 . S
O83 Co59 2.097 . S
O83 C111 1.214 . S
H84 C112 0.929 . S
H85 C113 0.929 . S
H86 C114 0.930 . S
H87 C115 0.929 . S
H88 C117 0.930 . S
H89 C94 0.930 . S
H90 C98 0.930 . S
O91 Co60 2.037 . S
O91 C111 1.234 . S
C92 O66 1.269 . S
C92 O67 1.257 . S
C93 H68 0.930 . S
C93 C96 1.388 . S
C93 C98 1.418 . S
C94 H89 0.930 . S
C94 C97 1.404 . S
C94 C98 1.353 . S
N95 Co60 2.145 . S
N95 C96 1.397 . S
N95 C97 1.334 . S
C96 H77 0.929 . S
C96 C93 1.388 . S
C96 N95 1.397 . S
C97 H78 0.929 . S
C97 C94 1.404 . S
C97 N95 1.334 . S
C98 H90 0.930 . S
C98 C93 1.418 . S
C98 C94 1.353 . S
C99 H69 0.930 . S
C99 N100 1.330 . S
C99 C101 1.446 . S
N100 Co59 2.151 . S
N100 C99 1.330 . S
N100 C104 1.418 . S
C101 H80 0.929 . S
C101 C99 1.446 . S
C101 C102 1.322 1_565 S
C102 H82 0.938 . S
C102 C101 1.322 1_545 S
C102 C103 1.270 . S
C103 H71 0.929 . S
C103 C102 1.270 . S
C103 C104 1.251 1_545 S
C104 H74 0.926 1_565 S
C104 N100 1.418 . S
C104 C103 1.251 1_565 S
C105 H72 0.930 . S
C105 C107 1.406 . S
C105 C110 1.261 . S
C106 H73 0.930 . S
C106 N108 1.325 . S
C106 C109 1.357 1_565 S
C107 H75 0.928 . S
C107 C105 1.406 . S
C107 N108 1.261 1_545 S
N108 Co59 2.214 . S
N108 C106 1.325 . S
N108 C107 1.261 1_565 S
C109 H79 0.931 . S
C109 C106 1.357 1_545 S
C109 C110 1.312 . S
C110 H81 0.930 . S
C110 C105 1.261 . S
C110 C109 1.312 . S
C111 O83 1.214 . S
C111 O91 1.234 . S
C112 H84 0.929 . S
C112 C115 1.391 . S
C112 C117 1.391 . S
C113 H85 0.929 . S
C113 C114 1.390 . S
C113 N116 1.391 . S
C114 H86 0.930 . S
C114 C113 1.390 . S
C114 C115 1.392 . S
C115 H87 0.929 . S
C115 C112 1.391 . S
C115 C114 1.392 . S
N116 Co60 2.257 . S
N116 C113 1.391 . S
N116 C117 1.388 . S
C117 H88 0.930 . S
C117 C112 1.391 . S
C117 N116 1.388 . S
Co118 O120 2.143 . S
Co118 O126 2.074 . S
Co118 O129 2.093 . S
Co118 O142 2.097 . S
Co118 N159 2.151 . S
Co118 N167 2.214 . S
Co119 O120 2.160 . S
Co119 O125 2.058 . S
Co119 O135 2.057 . S
Co119 O150 2.037 . S
Co119 N154 2.145 . S
Co119 N175 2.257 . S
O120 Co118 2.143 . S
O120 Co119 2.160 . S
C121 O122 1.278 . S
C121 O129 1.224 . S
O122 C121 1.278 . S
C123 O124 1.245 . S
C123 O135 1.232 . S
O124 C123 1.245 . S
O125 Co119 2.058 . S
O125 C151 1.269 . S
O126 Co118 2.074 . S
O126 C151 1.257 . S
H127 C152 0.930 . S
H128 C158 0.930 . S
O129 Co118 2.093 . S
O129 C121 1.224 . S
H130 C162 0.929 . S
H131 C164 0.930 . S
H132 C165 0.930 . S
H133 C163 0.929 . S
H134 C166 0.928 . S
O135 Co119 2.057 . S
O135 C123 1.232 . S
H136 C155 0.929 . S
H137 C156 0.929 . S
H138 C168 0.931 . S
H139 C160 0.929 . S
H140 C169 0.930 . S
H141 C161 0.931 . S
O142 Co118 2.097 . S
O142 C170 1.214 . S
H143 C171 0.929 . S
H144 C172 0.929 . S
H145 C173 0.930 . S
H146 C174 0.929 . S
H147 C176 0.930 . S
H148 C153 0.930 . S
H149 C157 0.930 . S
O150 Co119 2.037 . S
O150 C170 1.234 . S
C151 O125 1.269 . S
C151 O126 1.257 . S
C152 H127 0.930 . S
C152 C155 1.388 . S
C152 C157 1.418 . S
C153 H148 0.930 . S
C153 C156 1.404 . S
C153 C157 1.353 . S
N154 Co119 2.145 . S
N154 C155 1.397 . S
N154 C156 1.334 . S
C155 H136 0.929 . S
C155 C152 1.388 . S
C155 N154 1.397 . S
C156 H137 0.929 . S
C156 C153 1.404 . S
C156 N154 1.334 . S
C157 H149 0.930 . S
C157 C152 1.418 . S
C157 C153 1.353 . S
C158 H128 0.930 . S
C158 N159 1.330 . S
C158 C160 1.446 . S
N159 Co118 2.151 . S
N159 C158 1.330 . S
N159 C163 1.418 . S
C160 H139 0.929 . S
C160 C158 1.446 . S
C160 C161 1.332 . S
C161 H141 0.931 . S
C161 C160 1.332 . S
C161 C162 1.267 . S
C162 H130 0.929 . S
C162 C161 1.267 . S
C162 C163 1.251 . S
C163 H133 0.929 . S
C163 N159 1.418 . S
C163 C162 1.251 . S
C164 H131 0.930 . S
C164 C166 1.406 . S
C164 C169 1.261 . S
C165 H132 0.930 . S
C165 N167 1.325 . S
C165 C168 1.357 . S
C166 H134 0.928 . S
C166 C164 1.406 . S
C166 N167 1.261 . S
N167 Co118 2.214 . S
N167 C165 1.325 . S
N167 C166 1.261 . S
C168 H138 0.931 . S
C168 C165 1.357 . S
C168 C169 1.312 . S
C169 H140 0.930 . S
C169 C164 1.261 . S
C169 C168 1.312 . S
C170 O142 1.214 . S
C170 O150 1.234 . S
C171 H143 0.929 . S
C171 C174 1.391 . S
C171 C176 1.391 . S
C172 H144 0.929 . S
C172 C173 1.390 . S
C172 N175 1.391 . S
C173 H145 0.930 . S
C173 C172 1.390 . S
C173 C174 1.392 . S
C174 H146 0.929 . S
C174 C171 1.391 . S
C174 C173 1.392 . S
N175 Co119 2.257 . S
N175 C172 1.391 . S
N175 C176 1.388 . S
C176 H147 0.930 . S
C176 C171 1.391 . S
C176 N175 1.388 . S
Co177 O179 2.143 . S
Co177 O185 2.074 . S
Co177 O188 2.093 . S
Co177 O201 2.097 . S
Co177 N218 2.151 . S
Co177 N226 2.214 . S
Co178 O179 2.160 . S
Co178 O184 2.058 . S
Co178 O194 2.057 . S
Co178 O209 2.037 . S
Co178 N213 2.145 . S
Co178 N234 2.257 . S
O179 Co177 2.143 . S
O179 Co178 2.160 . S
C180 O181 1.278 . S
C180 O188 1.224 . S
O181 C180 1.278 . S
C182 O183 1.245 . S
C182 O194 1.232 . S
O183 C182 1.245 . S
O184 Co178 2.058 . S
O184 C210 1.269 . S
O185 Co177 2.074 . S
O185 C210 1.257 . S
H186 C211 0.930 . S
H187 C217 0.930 . S
O188 Co177 2.093 . S
O188 C180 1.224 . S
H189 C221 0.929 . S
H190 C223 0.930 . S
H191 C224 0.930 . S
H192 C222 0.926 1_565 S
H193 C225 0.928 . S
O194 Co178 2.057 . S
O194 C182 1.232 . S
H195 C214 0.929 . S
H196 C215 0.929 . S
H197 C227 0.931 . S
H198 C219 0.929 . S
H199 C228 0.930 . S
H200 C220 0.938 . S
O201 Co177 2.097 . S
O201 C229 1.214 . S
H202 C230 0.929 . S
H203 C231 0.929 . S
H204 C232 0.930 . S
H205 C233 0.929 . S
H206 C235 0.930 . S
H207 C212 0.930 . S
H208 C216 0.930 . S
O209 Co178 2.037 . S
O209 C229 1.234 . S
C210 O184 1.269 . S
C210 O185 1.257 . S
C211 H186 0.930 . S
C211 C214 1.388 . S
C211 C216 1.418 . S
C212 H207 0.930 . S
C212 C215 1.404 . S
C212 C216 1.353 . S
N213 Co178 2.145 . S
N213 C214 1.397 . S
N213 C215 1.334 . S
C214 H195 0.929 . S
C214 C211 1.388 . S
C214 N213 1.397 . S
C215 H196 0.929 . S
C215 C212 1.404 . S
C215 N213 1.334 . S
C216 H208 0.930 . S
C216 C211 1.418 . S
C216 C212 1.353 . S
C217 H187 0.930 . S
C217 N218 1.330 . S
C217 C219 1.446 . S
N218 Co177 2.151 . S
N218 C217 1.330 . S
N218 C222 1.418 . S
C219 H198 0.929 . S
C219 C217 1.446 . S
C219 C220 1.322 1_545 S
C220 H200 0.938 . S
C220 C219 1.322 1_565 S
C220 C221 1.270 . S
C221 H189 0.929 . S
C221 C220 1.270 . S
C221 C222 1.251 1_565 S
C222 H192 0.926 1_545 S
C222 N218 1.418 . S
C222 C221 1.251 1_545 S
C223 H190 0.930 . S
C223 C225 1.406 . S
C223 C228 1.261 . S
C224 H191 0.930 . S
C224 N226 1.325 . S
C224 C227 1.357 1_545 S
C225 H193 0.928 . S
C225 C223 1.406 . S
C225 N226 1.261 1_565 S
N226 Co177 2.214 . S
N226 C224 1.325 . S
N226 C225 1.261 1_545 S
C227 H197 0.931 . S
C227 C224 1.357 1_565 S
C227 C228 1.312 . S
C228 H199 0.930 . S
C228 C223 1.261 . S
C228 C227 1.312 . S
C229 O201 1.214 . S
C229 O209 1.234 . S
C230 H202 0.929 . S
C230 C233 1.391 . S
C230 C235 1.391 . S
C231 H203 0.929 . S
C231 C232 1.390 . S
C231 N234 1.391 . S
C232 H204 0.930 . S
C232 C231 1.390 . S
C232 C233 1.392 . S
C233 H205 0.929 . S
C233 C230 1.391 . S
C233 C232 1.392 . S
N234 Co178 2.257 . S
N234 C231 1.391 . S
N234 C235 1.388 . S
C235 H206 0.930 . S
C235 C230 1.391 . S
C235 N234 1.388 . S
Co236 O238 2.143 . S
Co236 O244 2.074 . S
Co236 O247 2.093 . S
Co236 O260 2.097 . S
Co236 N277 2.151 . S
Co236 N285 2.214 . S
Co237 O238 2.160 . S
Co237 O243 2.058 . S
Co237 O253 2.057 . S
Co237 O268 2.037 . S
Co237 N272 2.145 . S
Co237 N293 2.257 . S
O238 Co236 2.143 . S
O238 Co237 2.160 . S
C239 O240 1.278 . S
C239 O247 1.224 . S
O240 C239 1.278 . S
C241 O242 1.245 . S
C241 O253 1.232 . S
O242 C241 1.245 . S
O243 Co237 2.058 . S
O243 C269 1.269 . S
O244 Co236 2.074 . S
O244 C269 1.257 . S
H245 C270 0.930 . S
H246 C276 0.930 . S
O247 Co236 2.093 . S
O247 C239 1.224 . S
H248 C280 0.929 . S
H249 C282 0.930 . S
H250 C283 0.930 . S
H251 C281 0.929 . S
H252 C284 0.928 . S
O253 Co237 2.057 . S
O253 C241 1.232 . S
H254 C273 0.929 . S
H255 C274 0.929 . S
H256 C286 0.931 . S
H257 C278 0.929 . S
H258 C287 0.930 . S
H259 C279 0.931 . S
O260 Co236 2.097 . S
O260 C288 1.214 . S
H261 C289 0.929 . S
H262 C290 0.929 . S
H263 C291 0.930 . S
H264 C292 0.929 . S
H265 C294 0.930 . S
H266 C271 0.930 . S
H267 C275 0.930 . S
O268 Co237 2.037 . S
O268 C288 1.234 . S
C269 O243 1.269 . S
C269 O244 1.257 . S
C270 H245 0.930 . S
C270 C273 1.388 . S
C270 C275 1.418 . S
C271 H266 0.930 . S
C271 C274 1.404 . S
C271 C275 1.353 . S
N272 Co237 2.145 . S
N272 C273 1.397 . S
N272 C274 1.334 . S
C273 H254 0.929 . S
C273 C270 1.388 . S
C273 N272 1.397 . S
C274 H255 0.929 . S
C274 C271 1.404 . S
C274 N272 1.334 . S
C275 H267 0.930 . S
C275 C270 1.418 . S
C275 C271 1.353 . S
C276 H246 0.930 . S
C276 N277 1.330 . S
C276 C278 1.446 . S
N277 Co236 2.151 . S
N277 C276 1.330 . S
N277 C281 1.418 . S
C278 H257 0.929 . S
C278 C276 1.446 . S
C278 C279 1.332 . S
C279 H259 0.931 . S
C279 C278 1.332 . S
C279 C280 1.267 . S
C280 H248 0.929 . S
C280 C279 1.267 . S
C280 C281 1.251 . S
C281 H251 0.929 . S
C281 N277 1.418 . S
C281 C280 1.251 . S
C282 H249 0.930 . S
C282 C284 1.406 . S
C282 C287 1.261 . S
C283 H250 0.930 . S
C283 N285 1.325 . S
C283 C286 1.357 . S
C284 H252 0.928 . S
C284 C282 1.406 . S
C284 N285 1.261 . S
N285 Co236 2.214 . S
N285 C283 1.325 . S
N285 C284 1.261 . S
C286 H256 0.931 . S
C286 C283 1.357 . S
C286 C287 1.312 . S
C287 H258 0.930 . S
C287 C282 1.261 . S
C287 C286 1.312 . S
C288 O260 1.214 . S
C288 O268 1.234 . S
C289 H261 0.929 . S
C289 C292 1.391 . S
C289 C294 1.391 . S
C290 H262 0.929 . S
C290 C291 1.390 . S
C290 N293 1.391 . S
C291 H263 0.930 . S
C291 C290 1.390 . S
C291 C292 1.392 . S
C292 H264 0.929 . S
C292 C289 1.391 . S
C292 C291 1.392 . S
N293 Co237 2.257 . S
N293 C290 1.391 . S
N293 C294 1.388 . S
C294 H265 0.930 . S
C294 C289 1.391 . S
C294 N293 1.388 . S
Co295 O297 2.143 . S
Co295 O303 2.074 . S
Co295 O306 2.093 . S
Co295 O319 2.097 . S
Co295 N336 2.151 . S
Co295 N344 2.214 . S
Co296 O297 2.160 . S
Co296 O302 2.058 . S
Co296 O312 2.057 . S
Co296 O327 2.037 . S
Co296 N331 2.145 . S
Co296 N352 2.257 . S
O297 Co295 2.143 . S
O297 Co296 2.160 . S
C298 O299 1.278 . S
C298 O306 1.224 . S
O299 C298 1.278 . S
C300 O301 1.245 . S
C300 O312 1.232 . S
O301 C300 1.245 . S
O302 Co296 2.058 . S
O302 C328 1.269 . S
O303 Co295 2.074 . S
O303 C328 1.257 . S
H304 C329 0.930 . S
H305 C335 0.930 . S
O306 Co295 2.093 . S
O306 C298 1.224 . S
H307 C339 0.929 . S
H308 C341 0.930 . S
H309 C342 0.930 . S
H310 C340 0.929 . S
H311 C343 0.928 . S
O312 Co296 2.057 . S
O312 C300 1.232 . S
H313 C332 0.929 . S
H314 C333 0.929 . S
H315 C345 0.931 . S
H316 C337 0.929 . S
H317 C346 0.930 . S
H318 C338 0.931 . S
O319 Co295 2.097 . S
O319 C347 1.214 . S
H320 C348 0.929 . S
H321 C349 0.929 . S
H322 C350 0.930 . S
H323 C351 0.929 . S
H324 C353 0.930 . S
H325 C330 0.930 . S
H326 C334 0.930 . S
O327 Co296 2.037 . S
O327 C347 1.234 . S
C328 O302 1.269 . S
C328 O303 1.257 . S
C329 H304 0.930 . S
C329 C332 1.388 . S
C329 C334 1.418 . S
C330 H325 0.930 . S
C330 C333 1.404 . S
C330 C334 1.353 . S
N331 Co296 2.145 . S
N331 C332 1.397 . S
N331 C333 1.334 . S
C332 H313 0.929 . S
C332 C329 1.388 . S
C332 N331 1.397 . S
C333 H314 0.929 . S
C333 C330 1.404 . S
C333 N331 1.334 . S
C334 H326 0.930 . S
C334 C329 1.418 . S
C334 C330 1.353 . S
C335 H305 0.930 . S
C335 N336 1.330 . S
C335 C337 1.446 . S
N336 Co295 2.151 . S
N336 C335 1.330 . S
N336 C340 1.418 . S
C337 H316 0.929 . S
C337 C335 1.446 . S
C337 C338 1.332 . S
C338 H318 0.931 . S
C338 C337 1.332 . S
C338 C339 1.267 . S
C339 H307 0.929 . S
C339 C338 1.267 . S
C339 C340 1.251 . S
C340 H310 0.929 . S
C340 N336 1.418 . S
C340 C339 1.251 . S
C341 H308 0.930 . S
C341 C343 1.406 . S
C341 C346 1.261 . S
C342 H309 0.930 . S
C342 N344 1.325 . S
C342 C345 1.357 . S
C343 H311 0.928 . S
C343 C341 1.406 . S
C343 N344 1.261 . S
N344 Co295 2.214 . S
N344 C342 1.325 . S
N344 C343 1.261 . S
C345 H315 0.931 . S
C345 C342 1.357 . S
C345 C346 1.312 . S
C346 H317 0.930 . S
C346 C341 1.261 . S
C346 C345 1.312 . S
C347 O319 1.214 . S
C347 O327 1.234 . S
C348 H320 0.929 . S
C348 C351 1.391 . S
C348 C353 1.391 . S
C349 H321 0.929 . S
C349 C350 1.390 . S
C349 N352 1.391 . S
C350 H322 0.930 . S
C350 C349 1.390 . S
C350 C351 1.392 . S
C351 H323 0.929 . S
C351 C348 1.391 . S
C351 C350 1.392 . S
N352 Co296 2.257 . S
N352 C349 1.391 . S
N352 C353 1.388 . S
C353 H324 0.930 . S
C353 C348 1.391 . S
C353 N352 1.388 . S
Co354 O356 2.143 . S
Co354 O362 2.074 . S
Co354 O365 2.093 . S
Co354 O378 2.097 . S
Co354 N395 2.151 . S
Co354 N403 2.214 . S
Co355 O356 2.160 . S
Co355 O361 2.058 . S
Co355 O371 2.057 . S
Co355 O386 2.037 . S
Co355 N390 2.145 . S
Co355 N411 2.257 . S
O356 Co354 2.143 . S
O356 Co355 2.160 . S
C357 O358 1.278 . S
C357 O365 1.224 . S
O358 C357 1.278 . S
C359 O360 1.245 . S
C359 O371 1.232 . S
O360 C359 1.245 . S
O361 Co355 2.058 . S
O361 C387 1.269 . S
O362 Co354 2.074 . S
O362 C387 1.257 . S
H363 C388 0.930 . S
H364 C394 0.930 . S
O365 Co354 2.093 . S
O365 C357 1.224 . S
H366 C398 0.929 . S
H367 C400 0.930 . S
H368 C401 0.930 . S
H369 C399 0.929 . S
H370 C402 0.928 . S
O371 Co355 2.057 . S
O371 C359 1.232 . S
H372 C391 0.929 . S
H373 C392 0.929 . S
H374 C404 0.931 . S
H375 C396 0.929 . S
H376 C405 0.930 . S
H377 C397 0.931 . S
O378 Co354 2.097 . S
O378 C406 1.214 . S
H379 C407 0.929 . S
H380 C408 0.929 . S
H381 C409 0.930 . S
H382 C410 0.929 . S
H383 C412 0.930 . S
H384 C389 0.930 . S
H385 C393 0.930 . S
O386 Co355 2.037 . S
O386 C406 1.234 . S
C387 O361 1.269 . S
C387 O362 1.257 . S
C388 H363 0.930 . S
C388 C391 1.388 . S
C388 C393 1.418 . S
C389 H384 0.930 . S
C389 C392 1.404 . S
C389 C393 1.353 . S
N390 Co355 2.145 . S
N390 C391 1.397 . S
N390 C392 1.334 . S
C391 H372 0.929 . S
C391 C388 1.388 . S
C391 N390 1.397 . S
C392 H373 0.929 . S
C392 C389 1.404 . S
C392 N390 1.334 . S
C393 H385 0.930 . S
C393 C388 1.418 . S
C393 C389 1.353 . S
C394 H364 0.930 . S
C394 N395 1.330 . S
C394 C396 1.446 . S
N395 Co354 2.151 . S
N395 C394 1.330 . S
N395 C399 1.418 . S
C396 H375 0.929 . S
C396 C394 1.446 . S
C396 C397 1.332 . S
C397 H377 0.931 . S
C397 C396 1.332 . S
C397 C398 1.267 . S
C398 H366 0.929 . S
C398 C397 1.267 . S
C398 C399 1.251 . S
C399 H369 0.929 . S
C399 N395 1.418 . S
C399 C398 1.251 . S
C400 H367 0.930 . S
C400 C402 1.406 . S
C400 C405 1.261 . S
C401 H368 0.930 . S
C401 N403 1.325 . S
C401 C404 1.357 . S
C402 H370 0.928 . S
C402 C400 1.406 . S
C402 N403 1.261 . S
N403 Co354 2.214 . S
N403 C401 1.325 . S
N403 C402 1.261 . S
C404 H374 0.931 . S
C404 C401 1.357 . S
C404 C405 1.312 . S
C405 H376 0.930 . S
C405 C400 1.261 . S
C405 C404 1.312 . S
C406 O378 1.214 . S
C406 O386 1.234 . S
C407 H379 0.929 . S
C407 C410 1.391 . S
C407 C412 1.391 . S
C408 H380 0.929 . S
C408 C409 1.390 . S
C408 N411 1.391 . S
C409 H381 0.930 . S
C409 C408 1.390 . S
C409 C410 1.392 . S
C410 H382 0.929 . S
C410 C407 1.391 . S
C410 C409 1.392 . S
N411 Co355 2.257 . S
N411 C408 1.391 . S
N411 C412 1.388 . S
C412 H383 0.930 . S
C412 C407 1.391 . S
C412 N411 1.388 . S
Co413 O415 2.143 . S
Co413 O421 2.074 . S
Co413 O424 2.093 . S
Co413 O437 2.097 . S
Co413 N454 2.151 . S
Co413 N462 2.214 . S
Co414 O415 2.160 . S
Co414 O420 2.058 . S
Co414 O430 2.057 . S
Co414 O445 2.037 . S
Co414 N449 2.145 . S
Co414 N470 2.257 . S
O415 Co413 2.143 . S
O415 Co414 2.160 . S
C416 O417 1.278 . S
C416 O424 1.224 . S
O417 C416 1.278 . S
C418 O419 1.245 . S
C418 O430 1.232 . S
O419 C418 1.245 . S
O420 Co414 2.058 . S
O420 C446 1.269 . S
O421 Co413 2.074 . S
O421 C446 1.257 . S
H422 C447 0.930 . S
H423 C453 0.930 . S
O424 Co413 2.093 . S
O424 C416 1.224 . S
H425 C457 0.929 . S
H426 C459 0.930 . S
H427 C460 0.930 . S
H428 C458 0.929 . S
H429 C461 0.928 . S
O430 Co414 2.057 . S
O430 C418 1.232 . S
H431 C450 0.929 . S
H432 C451 0.929 . S
H433 C463 0.931 . S
H434 C455 0.929 . S
H435 C464 0.930 . S
H436 C456 0.931 . S
O437 Co413 2.097 . S
O437 C465 1.214 . S
H438 C466 0.929 . S
H439 C467 0.929 . S
H440 C468 0.930 . S
H441 C469 0.929 . S
H442 C471 0.930 . S
H443 C448 0.930 . S
H444 C452 0.930 . S
O445 Co414 2.037 . S
O445 C465 1.234 . S
C446 O420 1.269 . S
C446 O421 1.257 . S
C447 H422 0.930 . S
C447 C450 1.388 . S
C447 C452 1.418 . S
C448 H443 0.930 . S
C448 C451 1.404 . S
C448 C452 1.353 . S
N449 Co414 2.145 . S
N449 C450 1.397 . S
N449 C451 1.334 . S
C450 H431 0.929 . S
C450 C447 1.388 . S
C450 N449 1.397 . S
C451 H432 0.929 . S
C451 C448 1.404 . S
C451 N449 1.334 . S
C452 H444 0.930 . S
C452 C447 1.418 . S
C452 C448 1.353 . S
C453 H423 0.930 . S
C453 N454 1.330 . S
C453 C455 1.446 . S
N454 Co413 2.151 . S
N454 C453 1.330 . S
N454 C458 1.418 . S
C455 H434 0.929 . S
C455 C453 1.446 . S
C455 C456 1.332 . S
C456 H436 0.931 . S
C456 C455 1.332 . S
C456 C457 1.267 . S
C457 H425 0.929 . S
C457 C456 1.267 . S
C457 C458 1.251 . S
C458 H428 0.929 . S
C458 N454 1.418 . S
C458 C457 1.251 . S
C459 H426 0.930 . S
C459 C461 1.406 . S
C459 C464 1.261 . S
C460 H427 0.930 . S
C460 N462 1.325 . S
C460 C463 1.357 . S
C461 H429 0.928 . S
C461 C459 1.406 . S
C461 N462 1.261 . S
N462 Co413 2.214 . S
N462 C460 1.325 . S
N462 C461 1.261 . S
C463 H433 0.931 . S
C463 C460 1.357 . S
C463 C464 1.312 . S
C464 H435 0.930 . S
C464 C459 1.261 . S
C464 C463 1.312 . S
C465 O437 1.214 . S
C465 O445 1.234 . S
C466 H438 0.929 . S
C466 C469 1.391 . S
C466 C471 1.391 . S
C467 H439 0.929 . S
C467 C468 1.390 . S
C467 N470 1.391 . S
C468 H440 0.930 . S
C468 C467 1.390 . S
C468 C469 1.392 . S
C469 H441 0.929 . S
C469 C466 1.391 . S
C469 C468 1.392 . S
N470 Co414 2.257 . S
N470 C467 1.391 . S
N470 C471 1.388 . S
C471 H442 0.930 . S
C471 C466 1.391 . S
C471 N470 1.388 . S
Co472 O474 2.143 . S
Co472 O480 2.074 . S
Co472 O483 2.093 . S
Co472 O496 2.097 . S
Co472 N513 2.151 . S
Co472 N521 2.214 . S
Co473 O474 2.160 . S
Co473 O479 2.058 . S
Co473 O489 2.057 . S
Co473 O504 2.037 . S
Co473 N508 2.145 . S
Co473 N529 2.257 . S
O474 Co472 2.143 . S
O474 Co473 2.160 . S
C475 O476 1.278 . S
C475 O483 1.224 . S
O476 C475 1.278 . S
C477 O478 1.245 . S
C477 O489 1.232 . S
O478 C477 1.245 . S
O479 Co473 2.058 . S
O479 C505 1.269 . S
O480 Co472 2.074 . S
O480 C505 1.257 . S
H481 C506 0.930 . S
H482 C512 0.930 . S
O483 Co472 2.093 . S
O483 C475 1.224 . S
H484 C516 0.929 . S
H485 C518 0.930 . S
H486 C519 0.930 . S
H487 C517 0.929 . S
H488 C520 0.928 . S
O489 Co473 2.057 . S
O489 C477 1.232 . S
H490 C509 0.929 . S
H491 C510 0.929 . S
H492 C522 0.931 . S
H493 C514 0.929 . S
H494 C523 0.930 . S
H495 C515 0.931 . S
O496 Co472 2.097 . S
O496 C524 1.214 . S
H497 C525 0.929 . S
H498 C526 0.929 . S
H499 C527 0.930 . S
H500 C528 0.929 . S
H501 C530 0.930 . S
H502 C507 0.930 . S
H503 C511 0.930 . S
O504 Co473 2.037 . S
O504 C524 1.234 . S
C505 O479 1.269 . S
C505 O480 1.257 . S
C506 H481 0.930 . S
C506 C509 1.388 . S
C506 C511 1.418 . S
C507 H502 0.930 . S
C507 C510 1.404 . S
C507 C511 1.353 . S
N508 Co473 2.145 . S
N508 C509 1.397 . S
N508 C510 1.334 . S
C509 H490 0.929 . S
C509 C506 1.388 . S
C509 N508 1.397 . S
C510 H491 0.929 . S
C510 C507 1.404 . S
C510 N508 1.334 . S
C511 H503 0.930 . S
C511 C506 1.418 . S
C511 C507 1.353 . S
C512 H482 0.930 . S
C512 N513 1.330 . S
C512 C514 1.446 . S
N513 Co472 2.151 . S
N513 C512 1.330 . S
N513 C517 1.418 . S
C514 H493 0.929 . S
C514 C512 1.446 . S
C514 C515 1.332 . S
C515 H495 0.931 . S
C515 C514 1.332 . S
C515 C516 1.267 . S
C516 H484 0.929 . S
C516 C515 1.267 . S
C516 C517 1.251 . S
C517 H487 0.929 . S
C517 N513 1.418 . S
C517 C516 1.251 . S
C518 H485 0.930 . S
C518 C520 1.406 . S
C518 C523 1.261 . S
C519 H486 0.930 . S
C519 N521 1.325 . S
C519 C522 1.357 . S
C520 H488 0.928 . S
C520 C518 1.406 . S
C520 N521 1.261 . S
N521 Co472 2.214 . S
N521 C519 1.325 . S
N521 C520 1.261 . S
C522 H492 0.931 . S
C522 C519 1.357 . S
C522 C523 1.312 . S
C523 H494 0.930 . S
C523 C518 1.261 . S
C523 C522 1.312 . S
C524 O496 1.214 . S
C524 O504 1.234 . S
C525 H497 0.929 . S
C525 C528 1.391 . S
C525 C530 1.391 . S
C526 H498 0.929 . S
C526 C527 1.390 . S
C526 N529 1.391 . S
C527 H499 0.930 . S
C527 C526 1.390 . S
C527 C528 1.392 . S
C528 H500 0.929 . S
C528 C525 1.391 . S
C528 C527 1.392 . S
N529 Co473 2.257 . S
N529 C526 1.391 . S
N529 C530 1.388 . S
C530 H501 0.930 . S
C530 C525 1.391 . S
C530 N529 1.388 . S
Co531 O533 2.143 . S
Co531 O539 2.074 . S
Co531 O542 2.093 . S
Co531 O555 2.097 . S
Co531 N572 2.151 . S
Co531 N580 2.214 . S
Co532 O533 2.160 . S
Co532 O538 2.058 . S
Co532 O548 2.057 . S
Co532 O563 2.037 . S
Co532 N567 2.145 . S
Co532 N588 2.257 . S
O533 Co531 2.143 . S
O533 Co532 2.160 . S
C534 O535 1.278 . S
C534 O542 1.224 . S
O535 C534 1.278 . S
C536 O537 1.245 . S
C536 O548 1.232 . S
O537 C536 1.245 . S
O538 Co532 2.058 . S
O538 C564 1.269 . S
O539 Co531 2.074 . S
O539 C564 1.257 . S
H540 C565 0.930 . S
H541 C571 0.930 . S
O542 Co531 2.093 . S
O542 C534 1.224 . S
H543 C575 0.929 . S
H544 C577 0.930 . S
H545 C578 0.930 . S
H546 C576 0.926 1_655 S
H547 C579 0.928 . S
O548 Co532 2.057 . S
O548 C536 1.232 . S
H549 C568 0.929 . S
H550 C569 0.929 . S
H551 C581 0.931 . S
H552 C573 0.929 . S
H553 C582 0.930 . S
H554 C574 0.938 . S
O555 Co531 2.097 . S
O555 C583 1.214 . S
H556 C584 0.929 . S
H557 C585 0.929 . S
H558 C586 0.930 . S
H559 C587 0.929 . S
H560 C589 0.930 . S
H561 C566 0.930 . S
H562 C570 0.930 . S
O563 Co532 2.037 . S
O563 C583 1.234 . S
C564 O538 1.269 . S
C564 O539 1.257 . S
C565 H540 0.930 . S
C565 C568 1.388 . S
C565 C570 1.418 . S
C566 H561 0.930 . S
C566 C569 1.404 . S
C566 C570 1.353 . S
N567 Co532 2.145 . S
N567 C568 1.397 . S
N567 C569 1.334 . S
C568 H549 0.929 . S
C568 C565 1.388 . S
C568 N567 1.397 . S
C569 H550 0.929 . S
C569 C566 1.404 . S
C569 N567 1.334 . S
C570 H562 0.930 . S
C570 C565 1.418 . S
C570 C566 1.353 . S
C571 H541 0.930 . S
C571 N572 1.330 . S
C571 C573 1.446 . S
N572 Co531 2.151 . S
N572 C571 1.330 . S
N572 C576 1.418 . S
C573 H552 0.929 . S
C573 C571 1.446 . S
C573 C574 1.322 1_455 S
C574 H554 0.938 . S
C574 C573 1.322 1_655 S
C574 C575 1.270 . S
C575 H543 0.929 . S
C575 C574 1.270 . S
C575 C576 1.251 1_655 S
C576 H546 0.926 1_455 S
C576 N572 1.418 . S
C576 C575 1.251 1_455 S
C577 H544 0.930 . S
C577 C579 1.406 . S
C577 C582 1.261 . S
C578 H545 0.930 . S
C578 N580 1.325 . S
C578 C581 1.357 1_455 S
C579 H547 0.928 . S
C579 C577 1.406 . S
C579 N580 1.261 1_655 S
N580 Co531 2.214 . S
N580 C578 1.325 . S
N580 C579 1.261 1_455 S
C581 H551 0.931 . S
C581 C578 1.357 1_655 S
C581 C582 1.312 . S
C582 H553 0.930 . S
C582 C577 1.261 . S
C582 C581 1.312 . S
C583 O555 1.214 . S
C583 O563 1.234 . S
C584 H556 0.929 . S
C584 C587 1.391 . S
C584 C589 1.391 . S
C585 H557 0.929 . S
C585 C586 1.390 . S
C585 N588 1.391 . S
C586 H558 0.930 . S
C586 C585 1.390 . S
C586 C587 1.392 . S
C587 H559 0.929 . S
C587 C584 1.391 . S
C587 C586 1.392 . S
N588 Co532 2.257 . S
N588 C585 1.391 . S
N588 C589 1.388 . S
C589 H560 0.930 . S
C589 C584 1.391 . S
C589 N588 1.388 . S
Co590 O592 2.143 . S
Co590 O598 2.074 . S
Co590 O601 2.093 . S
Co590 O614 2.097 . S
Co590 N631 2.151 . S
Co590 N639 2.214 . S
Co591 O592 2.160 . S
Co591 O597 2.058 . S
Co591 O607 2.057 . S
Co591 O622 2.037 . S
Co591 N626 2.145 . S
Co591 N647 2.257 . S
O592 Co590 2.143 . S
O592 Co591 2.160 . S
C593 O594 1.278 . S
C593 O601 1.224 . S
O594 C593 1.278 . S
C595 O596 1.245 . S
C595 O607 1.232 . S
O596 C595 1.245 . S
O597 Co591 2.058 . S
O597 C623 1.269 . S
O598 Co590 2.074 . S
O598 C623 1.257 . S
H599 C624 0.930 . S
H600 C630 0.930 . S
O601 Co590 2.093 . S
O601 C593 1.224 . S
H602 C634 0.929 . S
H603 C636 0.930 . S
H604 C637 0.930 . S
H605 C635 0.929 . S
H606 C638 0.928 . S
O607 Co591 2.057 . S
O607 C595 1.232 . S
H608 C627 0.929 . S
H609 C628 0.929 . S
H610 C640 0.931 . S
H611 C632 0.929 . S
H612 C641 0.930 . S
H613 C633 0.931 . S
O614 Co590 2.097 . S
O614 C642 1.214 . S
H615 C643 0.929 . S
H616 C644 0.929 . S
H617 C645 0.930 . S
H618 C646 0.929 . S
H619 C648 0.930 . S
H620 C625 0.930 . S
H621 C629 0.930 . S
O622 Co591 2.037 . S
O622 C642 1.234 . S
C623 O597 1.269 . S
C623 O598 1.257 . S
C624 H599 0.930 . S
C624 C627 1.388 . S
C624 C629 1.418 . S
C625 H620 0.930 . S
C625 C628 1.404 . S
C625 C629 1.353 . S
N626 Co591 2.145 . S
N626 C627 1.397 . S
N626 C628 1.334 . S
C627 H608 0.929 . S
C627 C624 1.388 . S
C627 N626 1.397 . S
C628 H609 0.929 . S
C628 C625 1.404 . S
C628 N626 1.334 . S
C629 H621 0.930 . S
C629 C624 1.418 . S
C629 C625 1.353 . S
C630 H600 0.930 . S
C630 N631 1.330 . S
C630 C632 1.446 . S
N631 Co590 2.151 . S
N631 C630 1.330 . S
N631 C635 1.418 . S
C632 H611 0.929 . S
C632 C630 1.446 . S
C632 C633 1.332 . S
C633 H613 0.931 . S
C633 C632 1.332 . S
C633 C634 1.267 . S
C634 H602 0.929 . S
C634 C633 1.267 . S
C634 C635 1.251 . S
C635 H605 0.929 . S
C635 N631 1.418 . S
C635 C634 1.251 . S
C636 H603 0.930 . S
C636 C638 1.406 . S
C636 C641 1.261 . S
C637 H604 0.930 . S
C637 N639 1.325 . S
C637 C640 1.357 . S
C638 H606 0.928 . S
C638 C636 1.406 . S
C638 N639 1.261 . S
N639 Co590 2.214 . S
N639 C637 1.325 . S
N639 C638 1.261 . S
C640 H610 0.931 . S
C640 C637 1.357 . S
C640 C641 1.312 . S
C641 H612 0.930 . S
C641 C636 1.261 . S
C641 C640 1.312 . S
C642 O614 1.214 . S
C642 O622 1.234 . S
C643 H615 0.929 . S
C643 C646 1.391 . S
C643 C648 1.391 . S
C644 H616 0.929 . S
C644 C645 1.390 . S
C644 N647 1.391 . S
C645 H617 0.930 . S
C645 C644 1.390 . S
C645 C646 1.392 . S
C646 H618 0.929 . S
C646 C643 1.391 . S
C646 C645 1.392 . S
N647 Co591 2.257 . S
N647 C644 1.391 . S
N647 C648 1.388 . S
C648 H619 0.930 . S
C648 C643 1.391 . S
C648 N647 1.388 . S
Co649 O651 2.143 . S
Co649 O657 2.074 . S
Co649 O660 2.093 . S
Co649 O673 2.097 . S
Co649 N690 2.151 . S
Co649 N698 2.214 . S
Co650 O651 2.160 . S
Co650 O656 2.058 . S
Co650 O666 2.057 . S
Co650 O681 2.037 . S
Co650 N685 2.145 . S
Co650 N706 2.257 . S
O651 Co649 2.143 . S
O651 Co650 2.160 . S
C652 O653 1.278 . S
C652 O660 1.224 . S
O653 C652 1.278 . S
C654 O655 1.245 . S
C654 O666 1.232 . S
O655 C654 1.245 . S
O656 Co650 2.058 . S
O656 C682 1.269 . S
O657 Co649 2.074 . S
O657 C682 1.257 . S
H658 C683 0.930 . S
H659 C689 0.930 . S
O660 Co649 2.093 . S
O660 C652 1.224 . S
H661 C693 0.929 . S
H662 C695 0.930 . S
H663 C696 0.930 . S
H664 C694 0.929 . S
H665 C697 0.928 . S
O666 Co650 2.057 . S
O666 C654 1.232 . S
H667 C686 0.929 . S
H668 C687 0.929 . S
H669 C699 0.931 . S
H670 C691 0.929 . S
H671 C700 0.930 . S
H672 C692 0.931 . S
O673 Co649 2.097 . S
O673 C701 1.214 . S
H674 C702 0.929 . S
H675 C703 0.929 . S
H676 C704 0.930 . S
H677 C705 0.929 . S
H678 C707 0.930 . S
H679 C684 0.930 . S
H680 C688 0.930 . S
O681 Co650 2.037 . S
O681 C701 1.234 . S
C682 O656 1.269 . S
C682 O657 1.257 . S
C683 H658 0.930 . S
C683 C686 1.388 . S
C683 C688 1.418 . S
C684 H679 0.930 . S
C684 C687 1.404 . S
C684 C688 1.353 . S
N685 Co650 2.145 . S
N685 C686 1.397 . S
N685 C687 1.334 . S
C686 H667 0.929 . S
C686 C683 1.388 . S
C686 N685 1.397 . S
C687 H668 0.929 . S
C687 C684 1.404 . S
C687 N685 1.334 . S
C688 H680 0.930 . S
C688 C683 1.418 . S
C688 C684 1.353 . S
C689 H659 0.930 . S
C689 N690 1.330 . S
C689 C691 1.446 . S
N690 Co649 2.151 . S
N690 C689 1.330 . S
N690 C694 1.418 . S
C691 H670 0.929 . S
C691 C689 1.446 . S
C691 C692 1.332 . S
C692 H672 0.931 . S
C692 C691 1.332 . S
C692 C693 1.267 . S
C693 H661 0.929 . S
C693 C692 1.267 . S
C693 C694 1.251 . S
C694 H664 0.929 . S
C694 N690 1.418 . S
C694 C693 1.251 . S
C695 H662 0.930 . S
C695 C697 1.406 . S
C695 C700 1.261 . S
C696 H663 0.930 . S
C696 N698 1.325 . S
C696 C699 1.357 . S
C697 H665 0.928 . S
C697 C695 1.406 . S
C697 N698 1.261 . S
N698 Co649 2.214 . S
N698 C696 1.325 . S
N698 C697 1.261 . S
C699 H669 0.931 . S
C699 C696 1.357 . S
C699 C700 1.312 . S
C700 H671 0.930 . S
C700 C695 1.261 . S
C700 C699 1.312 . S
C701 O673 1.214 . S
C701 O681 1.234 . S
C702 H674 0.929 . S
C702 C705 1.391 . S
C702 C707 1.391 . S
C703 H675 0.929 . S
C703 C704 1.390 . S
C703 N706 1.391 . S
C704 H676 0.930 . S
C704 C703 1.390 . S
C704 C705 1.392 . S
C705 H677 0.929 . S
C705 C702 1.391 . S
C705 C704 1.392 . S
N706 Co650 2.257 . S
N706 C703 1.391 . S
N706 C707 1.388 . S
C707 H678 0.930 . S
C707 C702 1.391 . S
C707 N706 1.388 . S
Co708 O710 2.143 . S
Co708 O716 2.074 . S
Co708 O719 2.093 . S
Co708 O732 2.097 . S
Co708 N749 2.151 . S
Co708 N757 2.214 . S
Co709 O710 2.160 . S
Co709 O715 2.058 . S
Co709 O725 2.057 . S
Co709 O740 2.037 . S
Co709 N744 2.145 . S
Co709 N765 2.257 . S
O710 Co708 2.143 . S
O710 Co709 2.160 . S
C711 O712 1.278 . S
C711 O719 1.224 . S
O712 C711 1.278 . S
C713 O714 1.245 . S
C713 O725 1.232 . S
O714 C713 1.245 . S
O715 Co709 2.058 . S
O715 C741 1.269 . S
O716 Co708 2.074 . S
O716 C741 1.257 . S
H717 C742 0.930 . S
H718 C748 0.930 . S
O719 Co708 2.093 . S
O719 C711 1.224 . S
H720 C752 0.929 . S
H721 C754 0.930 . S
H722 C755 0.930 . S
H723 C753 0.929 . S
H724 C756 0.928 . S
O725 Co709 2.057 . S
O725 C713 1.232 . S
H726 C745 0.929 . S
H727 C746 0.929 . S
H728 C758 0.931 . S
H729 C750 0.929 . S
H730 C759 0.930 . S
H731 C751 0.931 . S
O732 Co708 2.097 . S
O732 C760 1.214 . S
H733 C761 0.929 . S
H734 C762 0.929 . S
H735 C763 0.930 . S
H736 C764 0.929 . S
H737 C766 0.930 . S
H738 C743 0.930 . S
H739 C747 0.930 . S
O740 Co709 2.037 . S
O740 C760 1.234 . S
C741 O715 1.269 . S
C741 O716 1.257 . S
C742 H717 0.930 . S
C742 C745 1.388 . S
C742 C747 1.418 . S
C743 H738 0.930 . S
C743 C746 1.404 . S
C743 C747 1.353 . S
N744 Co709 2.145 . S
N744 C745 1.397 . S
N744 C746 1.334 . S
C745 H726 0.929 . S
C745 C742 1.388 . S
C745 N744 1.397 . S
C746 H727 0.929 . S
C746 C743 1.404 . S
C746 N744 1.334 . S
C747 H739 0.930 . S
C747 C742 1.418 . S
C747 C743 1.353 . S
C748 H718 0.930 . S
C748 N749 1.330 . S
C748 C750 1.446 . S
N749 Co708 2.151 . S
N749 C748 1.330 . S
N749 C753 1.418 . S
C750 H729 0.929 . S
C750 C748 1.446 . S
C750 C751 1.332 . S
C751 H731 0.931 . S
C751 C750 1.332 . S
C751 C752 1.267 . S
C752 H720 0.929 . S
C752 C751 1.267 . S
C752 C753 1.251 . S
C753 H723 0.929 . S
C753 N749 1.418 . S
C753 C752 1.251 . S
C754 H721 0.930 . S
C754 C756 1.406 . S
C754 C759 1.261 . S
C755 H722 0.930 . S
C755 N757 1.325 . S
C755 C758 1.357 . S
C756 H724 0.928 . S
C756 C754 1.406 . S
C756 N757 1.261 . S
N757 Co708 2.214 . S
N757 C755 1.325 . S
N757 C756 1.261 . S
C758 H728 0.931 . S
C758 C755 1.357 . S
C758 C759 1.312 . S
C759 H730 0.930 . S
C759 C754 1.261 . S
C759 C758 1.312 . S
C760 O732 1.214 . S
C760 O740 1.234 . S
C761 H733 0.929 . S
C761 C764 1.391 . S
C761 C766 1.391 . S
C762 H734 0.929 . S
C762 C763 1.390 . S
C762 N765 1.391 . S
C763 H735 0.930 . S
C763 C762 1.390 . S
C763 C764 1.392 . S
C764 H736 0.929 . S
C764 C761 1.391 . S
C764 C763 1.392 . S
N765 Co709 2.257 . S
N765 C762 1.391 . S
N765 C766 1.388 . S
C766 H737 0.930 . S
C766 C761 1.391 . S
C766 N765 1.388 . S
Co767 O769 2.143 . S
Co767 O775 2.074 . S
Co767 O778 2.093 . S
Co767 O791 2.097 . S
Co767 N808 2.151 . S
Co767 N816 2.214 . S
Co768 O769 2.160 . S
Co768 O774 2.058 . S
Co768 O784 2.057 . S
Co768 O799 2.037 . S
Co768 N803 2.145 . S
Co768 N824 2.257 . S
O769 Co767 2.143 . S
O769 Co768 2.160 . S
C770 O771 1.278 . S
C770 O778 1.224 . S
O771 C770 1.278 . S
C772 O773 1.245 . S
C772 O784 1.232 . S
O773 C772 1.245 . S
O774 Co768 2.058 . S
O774 C800 1.269 . S
O775 Co767 2.074 . S
O775 C800 1.257 . S
H776 C801 0.930 . S
H777 C807 0.930 . S
O778 Co767 2.093 . S
O778 C770 1.224 . S
H779 C811 0.929 . S
H780 C813 0.930 . S
H781 C814 0.930 . S
H782 C812 0.926 1_455 S
H783 C815 0.928 . S
O784 Co768 2.057 . S
O784 C772 1.232 . S
H785 C804 0.929 . S
H786 C805 0.929 . S
H787 C817 0.931 . S
H788 C809 0.929 . S
H789 C818 0.930 . S
H790 C810 0.938 . S
O791 Co767 2.097 . S
O791 C819 1.214 . S
H792 C820 0.929 . S
H793 C821 0.929 . S
H794 C822 0.930 . S
H795 C823 0.929 . S
H796 C825 0.930 . S
H797 C802 0.930 . S
H798 C806 0.930 . S
O799 Co768 2.037 . S
O799 C819 1.234 . S
C800 O774 1.269 . S
C800 O775 1.257 . S
C801 H776 0.930 . S
C801 C804 1.388 . S
C801 C806 1.418 . S
C802 H797 0.930 . S
C802 C805 1.404 . S
C802 C806 1.353 . S
N803 Co768 2.145 . S
N803 C804 1.397 . S
N803 C805 1.334 . S
C804 H785 0.929 . S
C804 C801 1.388 . S
C804 N803 1.397 . S
C805 H786 0.929 . S
C805 C802 1.404 . S
C805 N803 1.334 . S
C806 H798 0.930 . S
C806 C801 1.418 . S
C806 C802 1.353 . S
C807 H777 0.930 . S
C807 N808 1.330 . S
C807 C809 1.446 . S
N808 Co767 2.151 . S
N808 C807 1.330 . S
N808 C812 1.418 . S
C809 H788 0.929 . S
C809 C807 1.446 . S
C809 C810 1.322 1_655 S
C810 H790 0.938 . S
C810 C809 1.322 1_455 S
C810 C811 1.270 . S
C811 H779 0.929 . S
C811 C810 1.270 . S
C811 C812 1.251 1_455 S
C812 H782 0.926 1_655 S
C812 N808 1.418 . S
C812 C811 1.251 1_655 S
C813 H780 0.930 . S
C813 C815 1.406 . S
C813 C818 1.261 . S
C814 H781 0.930 . S
C814 N816 1.325 . S
C814 C817 1.357 1_655 S
C815 H783 0.928 . S
C815 C813 1.406 . S
C815 N816 1.261 1_455 S
N816 Co767 2.214 . S
N816 C814 1.325 . S
N816 C815 1.261 1_655 S
C817 H787 0.931 . S
C817 C814 1.357 1_455 S
C817 C818 1.312 . S
C818 H789 0.930 . S
C818 C813 1.261 . S
C818 C817 1.312 . S
C819 O791 1.214 . S
C819 O799 1.234 . S
C820 H792 0.929 . S
C820 C823 1.391 . S
C820 C825 1.391 . S
C821 H793 0.929 . S
C821 C822 1.390 . S
C821 N824 1.391 . S
C822 H794 0.930 . S
C822 C821 1.390 . S
C822 C823 1.392 . S
C823 H795 0.929 . S
C823 C820 1.391 . S
C823 C822 1.392 . S
N824 Co768 2.257 . S
N824 C821 1.391 . S
N824 C825 1.388 . S
C825 H796 0.930 . S
C825 C820 1.391 . S
C825 N824 1.388 . S
Co826 O828 2.143 . S
Co826 O834 2.074 . S
Co826 O837 2.093 . S
Co826 O850 2.097 . S
Co826 N867 2.151 . S
Co826 N875 2.214 . S
Co827 O828 2.160 . S
Co827 O833 2.058 . S
Co827 O843 2.057 . S
Co827 O858 2.037 . S
Co827 N862 2.145 . S
Co827 N883 2.257 . S
O828 Co826 2.143 . S
O828 Co827 2.160 . S
C829 O830 1.278 . S
C829 O837 1.224 . S
O830 C829 1.278 . S
C831 O832 1.245 . S
C831 O843 1.232 . S
O832 C831 1.245 . S
O833 Co827 2.058 . S
O833 C859 1.269 . S
O834 Co826 2.074 . S
O834 C859 1.257 . S
H835 C860 0.930 . S
H836 C866 0.930 . S
O837 Co826 2.093 . S
O837 C829 1.224 . S
H838 C870 0.929 . S
H839 C872 0.930 . S
H840 C873 0.930 . S
H841 C871 0.929 . S
H842 C874 0.928 . S
O843 Co827 2.057 . S
O843 C831 1.232 . S
H844 C863 0.929 . S
H845 C864 0.929 . S
H846 C876 0.931 . S
H847 C868 0.929 . S
H848 C877 0.930 . S
H849 C869 0.931 . S
O850 Co826 2.097 . S
O850 C878 1.214 . S
H851 C879 0.929 . S
H852 C880 0.929 . S
H853 C881 0.930 . S
H854 C882 0.929 . S
H855 C884 0.930 . S
H856 C861 0.930 . S
H857 C865 0.930 . S
O858 Co827 2.037 . S
O858 C878 1.234 . S
C859 O833 1.269 . S
C859 O834 1.257 . S
C860 H835 0.930 . S
C860 C863 1.388 . S
C860 C865 1.418 . S
C861 H856 0.930 . S
C861 C864 1.404 . S
C861 C865 1.353 . S
N862 Co827 2.145 . S
N862 C863 1.397 . S
N862 C864 1.334 . S
C863 H844 0.929 . S
C863 C860 1.388 . S
C863 N862 1.397 . S
C864 H845 0.929 . S
C864 C861 1.404 . S
C864 N862 1.334 . S
C865 H857 0.930 . S
C865 C860 1.418 . S
C865 C861 1.353 . S
C866 H836 0.930 . S
C866 N867 1.330 . S
C866 C868 1.446 . S
N867 Co826 2.151 . S
N867 C866 1.330 . S
N867 C871 1.418 . S
C868 H847 0.929 . S
C868 C866 1.446 . S
C868 C869 1.332 . S
C869 H849 0.931 . S
C869 C868 1.332 . S
C869 C870 1.267 . S
C870 H838 0.929 . S
C870 C869 1.267 . S
C870 C871 1.251 . S
C871 H841 0.929 . S
C871 N867 1.418 . S
C871 C870 1.251 . S
C872 H839 0.930 . S
C872 C874 1.406 . S
C872 C877 1.261 . S
C873 H840 0.930 . S
C873 N875 1.325 . S
C873 C876 1.357 . S
C874 H842 0.928 . S
C874 C872 1.406 . S
C874 N875 1.261 . S
N875 Co826 2.214 . S
N875 C873 1.325 . S
N875 C874 1.261 . S
C876 H846 0.931 . S
C876 C873 1.357 . S
C876 C877 1.312 . S
C877 H848 0.930 . S
C877 C872 1.261 . S
C877 C876 1.312 . S
C878 O850 1.214 . S
C878 O858 1.234 . S
C879 H851 0.929 . S
C879 C882 1.391 . S
C879 C884 1.391 . S
C880 H852 0.929 . S
C880 C881 1.390 . S
C880 N883 1.391 . S
C881 H853 0.930 . S
C881 C880 1.390 . S
C881 C882 1.392 . S
C882 H854 0.929 . S
C882 C879 1.391 . S
C882 C881 1.392 . S
N883 Co827 2.257 . S
N883 C880 1.391 . S
N883 C884 1.388 . S
C884 H855 0.930 . S
C884 C879 1.391 . S
C884 N883 1.388 . S
Co885 O887 2.143 . S
Co885 O893 2.074 . S
Co885 O896 2.093 . S
Co885 O909 2.097 . S
Co885 N926 2.151 . S
Co885 N934 2.214 . S
Co886 O887 2.160 . S
Co886 O892 2.058 . S
Co886 O902 2.057 . S
Co886 O917 2.037 . S
Co886 N921 2.145 . S
Co886 N942 2.257 . S
O887 Co885 2.143 . S
O887 Co886 2.160 . S
C888 O889 1.278 . S
C888 O896 1.224 . S
O889 C888 1.278 . S
C890 O891 1.245 . S
C890 O902 1.232 . S
O891 C890 1.245 . S
O892 Co886 2.058 . S
O892 C918 1.269 . S
O893 Co885 2.074 . S
O893 C918 1.257 . S
H894 C919 0.930 . S
H895 C925 0.930 . S
O896 Co885 2.093 . S
O896 C888 1.224 . S
H897 C929 0.929 . S
H898 C931 0.930 . S
H899 C932 0.930 . S
H900 C930 0.929 . S
H901 C933 0.928 . S
O902 Co886 2.057 . S
O902 C890 1.232 . S
H903 C922 0.929 . S
H904 C923 0.929 . S
H905 C935 0.931 . S
H906 C927 0.929 . S
H907 C936 0.930 . S
H908 C928 0.931 . S
O909 Co885 2.097 . S
O909 C937 1.214 . S
H910 C938 0.929 . S
H911 C939 0.929 . S
H912 C940 0.930 . S
H913 C941 0.929 . S
H914 C943 0.930 . S
H915 C920 0.930 . S
H916 C924 0.930 . S
O917 Co886 2.037 . S
O917 C937 1.234 . S
C918 O892 1.269 . S
C918 O893 1.257 . S
C919 H894 0.930 . S
C919 C922 1.388 . S
C919 C924 1.418 . S
C920 H915 0.930 . S
C920 C923 1.404 . S
C920 C924 1.353 . S
N921 Co886 2.145 . S
N921 C922 1.397 . S
N921 C923 1.334 . S
C922 H903 0.929 . S
C922 C919 1.388 . S
C922 N921 1.397 . S
C923 H904 0.929 . S
C923 C920 1.404 . S
C923 N921 1.334 . S
C924 H916 0.930 . S
C924 C919 1.418 . S
C924 C920 1.353 . S
C925 H895 0.930 . S
C925 N926 1.330 . S
C925 C927 1.446 . S
N926 Co885 2.151 . S
N926 C925 1.330 . S
N926 C930 1.418 . S
C927 H906 0.929 . S
C927 C925 1.446 . S
C927 C928 1.332 . S
C928 H908 0.931 . S
C928 C927 1.332 . S
C928 C929 1.267 . S
C929 H897 0.929 . S
C929 C928 1.267 . S
C929 C930 1.251 . S
C930 H900 0.929 . S
C930 N926 1.418 . S
C930 C929 1.251 . S
C931 H898 0.930 . S
C931 C933 1.406 . S
C931 C936 1.261 . S
C932 H899 0.930 . S
C932 N934 1.325 . S
C932 C935 1.357 . S
C933 H901 0.928 . S
C933 C931 1.406 . S
C933 N934 1.261 . S
N934 Co885 2.214 . S
N934 C932 1.325 . S
N934 C933 1.261 . S
C935 H905 0.931 . S
C935 C932 1.357 . S
C935 C936 1.312 . S
C936 H907 0.930 . S
C936 C931 1.261 . S
C936 C935 1.312 . S
C937 O909 1.214 . S
C937 O917 1.234 . S
C938 H910 0.929 . S
C938 C941 1.391 . S
C938 C943 1.391 . S
C939 H911 0.929 . S
C939 C940 1.390 . S
C939 N942 1.391 . S
C940 H912 0.930 . S
C940 C939 1.390 . S
C940 C941 1.392 . S
C941 H913 0.929 . S
C941 C938 1.391 . S
C941 C940 1.392 . S
N942 Co886 2.257 . S
N942 C939 1.391 . S
N942 C943 1.388 . S
C943 H914 0.930 . S
C943 C938 1.391 . S
C943 N942 1.388 . S
Co944 O946 2.143 . S
Co944 O952 2.074 . S
Co944 O955 2.093 . S
Co944 O968 2.097 . S
Co944 N985 2.151 . S
Co944 N993 2.214 . S
Co945 O946 2.160 . S
Co945 O951 2.058 . S
Co945 O961 2.057 . S
Co945 O976 2.037 . S
Co945 N980 2.145 . S
Co945 N1001 2.257 . S
O946 Co944 2.143 . S
O946 Co945 2.160 . S
C947 O948 1.278 . S
C947 O955 1.224 . S
O948 C947 1.278 . S
C949 O950 1.245 . S
C949 O961 1.232 . S
O950 C949 1.245 . S
O951 Co945 2.058 . S
O951 C977 1.269 . S
O952 Co944 2.074 . S
O952 C977 1.257 . S
H953 C978 0.930 . S
H954 C984 0.930 . S
O955 Co944 2.093 . S
O955 C947 1.224 . S
H956 C988 0.929 . S
H957 C990 0.930 . S
H958 C991 0.930 . S
H959 C989 0.929 . S
H960 C992 0.928 . S
O961 Co945 2.057 . S
O961 C949 1.232 . S
H962 C981 0.929 . S
H963 C982 0.929 . S
H964 C994 0.931 . S
H965 C986 0.929 . S
H966 C995 0.930 . S
H967 C987 0.931 . S
O968 Co944 2.097 . S
O968 C996 1.214 . S
H969 C997 0.929 . S
H970 C998 0.929 . S
H971 C999 0.930 . S
H972 C1000 0.929 . S
H973 C1002 0.930 . S
H974 C979 0.930 . S
H975 C983 0.930 . S
O976 Co945 2.037 . S
O976 C996 1.234 . S
C977 O951 1.269 . S
C977 O952 1.257 . S
C978 H953 0.930 . S
C978 C981 1.388 . S
C978 C983 1.418 . S
C979 H974 0.930 . S
C979 C982 1.404 . S
C979 C983 1.353 . S
N980 Co945 2.145 . S
N980 C981 1.397 . S
N980 C982 1.334 . S
C981 H962 0.929 . S
C981 C978 1.388 . S
C981 N980 1.397 . S
C982 H963 0.929 . S
C982 C979 1.404 . S
C982 N980 1.334 . S
C983 H975 0.930 . S
C983 C978 1.418 . S
C983 C979 1.353 . S
C984 H954 0.930 . S
C984 N985 1.330 . S
C984 C986 1.446 . S
N985 Co944 2.151 . S
N985 C984 1.330 . S
N985 C989 1.418 . S
C986 H965 0.929 . S
C986 C984 1.446 . S
C986 C987 1.332 . S
C987 H967 0.931 . S
C987 C986 1.332 . S
C987 C988 1.267 . S
C988 H956 0.929 . S
C988 C987 1.267 . S
C988 C989 1.251 . S
C989 H959 0.929 . S
C989 N985 1.418 . S
C989 C988 1.251 . S
C990 H957 0.930 . S
C990 C992 1.406 . S
C990 C995 1.261 . S
C991 H958 0.930 . S
C991 N993 1.325 . S
C991 C994 1.357 . S
C992 H960 0.928 . S
C992 C990 1.406 . S
C992 N993 1.261 . S
N993 Co944 2.214 . S
N993 C991 1.325 . S
N993 C992 1.261 . S
C994 H964 0.931 . S
C994 C991 1.357 . S
C994 C995 1.312 . S
C995 H966 0.930 . S
C995 C990 1.261 . S
C995 C994 1.312 . S
C996 O968 1.214 . S
C996 O976 1.234 . S
C997 H969 0.929 . S
C997 C1000 1.391 . S
C997 C1002 1.391 . S
C998 H970 0.929 . S
C998 C999 1.390 . S
C998 N1001 1.391 . S
C999 H971 0.930 . S
C999 C998 1.390 . S
C999 C1000 1.392 . S
C1000 H972 0.929 . S
C1000 C997 1.391 . S
C1000 C999 1.392 . S
N1001 Co945 2.257 . S
N1001 C998 1.391 . S
N1001 C1002 1.388 . S
C1002 H973 0.930 . S
C1002 C997 1.391 . S
C1002 N1001 1.388 . S
Co1003 O1005 2.143 . S
Co1003 O1011 2.074 . S
Co1003 O1014 2.093 . S
Co1003 O1027 2.097 . S
Co1003 N1044 2.151 . S
Co1003 N1052 2.214 . S
Co1004 O1005 2.160 . S
Co1004 O1010 2.058 . S
Co1004 O1020 2.057 . S
Co1004 O1035 2.037 . S
Co1004 N1039 2.145 . S
Co1004 N1060 2.257 . S
O1005 Co1003 2.143 . S
O1005 Co1004 2.160 . S
C1006 O1007 1.278 . S
C1006 O1014 1.224 . S
O1007 C1006 1.278 . S
C1008 O1009 1.245 . S
C1008 O1020 1.232 . S
O1009 C1008 1.245 . S
O1010 Co1004 2.058 . S
O1010 C1036 1.269 . S
O1011 Co1003 2.074 . S
O1011 C1036 1.257 . S
H1012 C1037 0.930 . S
H1013 C1043 0.930 . S
O1014 Co1003 2.093 . S
O1014 C1006 1.224 . S
H1015 C1047 0.929 . S
H1016 C1049 0.930 . S
H1017 C1050 0.930 . S
H1018 C1048 0.929 . S
H1019 C1051 0.928 . S
O1020 Co1004 2.057 . S
O1020 C1008 1.232 . S
H1021 C1040 0.929 . S
H1022 C1041 0.929 . S
H1023 C1053 0.931 . S
H1024 C1045 0.929 . S
H1025 C1054 0.930 . S
H1026 C1046 0.931 . S
O1027 Co1003 2.097 . S
O1027 C1055 1.214 . S
H1028 C1056 0.929 . S
H1029 C1057 0.929 . S
H1030 C1058 0.930 . S
H1031 C1059 0.929 . S
H1032 C1061 0.930 . S
H1033 C1038 0.930 . S
H1034 C1042 0.930 . S
O1035 Co1004 2.037 . S
O1035 C1055 1.234 . S
C1036 O1010 1.269 . S
C1036 O1011 1.257 . S
C1037 H1012 0.930 . S
C1037 C1040 1.388 . S
C1037 C1042 1.418 . S
C1038 H1033 0.930 . S
C1038 C1041 1.404 . S
C1038 C1042 1.353 . S
N1039 Co1004 2.145 . S
N1039 C1040 1.397 . S
N1039 C1041 1.334 . S
C1040 H1021 0.929 . S
C1040 C1037 1.388 . S
C1040 N1039 1.397 . S
C1041 H1022 0.929 . S
C1041 C1038 1.404 . S
C1041 N1039 1.334 . S
C1042 H1034 0.930 . S
C1042 C1037 1.418 . S
C1042 C1038 1.353 . S
C1043 H1013 0.930 . S
C1043 N1044 1.330 . S
C1043 C1045 1.446 . S
N1044 Co1003 2.151 . S
N1044 C1043 1.330 . S
N1044 C1048 1.418 . S
C1045 H1024 0.929 . S
C1045 C1043 1.446 . S
C1045 C1046 1.332 . S
C1046 H1026 0.931 . S
C1046 C1045 1.332 . S
C1046 C1047 1.267 . S
C1047 H1015 0.929 . S
C1047 C1046 1.267 . S
C1047 C1048 1.251 . S
C1048 H1018 0.929 . S
C1048 N1044 1.418 . S
C1048 C1047 1.251 . S
C1049 H1016 0.930 . S
C1049 C1051 1.406 . S
C1049 C1054 1.261 . S
C1050 H1017 0.930 . S
C1050 N1052 1.325 . S
C1050 C1053 1.357 . S
C1051 H1019 0.928 . S
C1051 C1049 1.406 . S
C1051 N1052 1.261 . S
N1052 Co1003 2.214 . S
N1052 C1050 1.325 . S
N1052 C1051 1.261 . S
C1053 H1023 0.931 . S
C1053 C1050 1.357 . S
C1053 C1054 1.312 . S
C1054 H1025 0.930 . S
C1054 C1049 1.261 . S
C1054 C1053 1.312 . S
C1055 O1027 1.214 . S
C1055 O1035 1.234 . S
C1056 H1028 0.929 . S
C1056 C1059 1.391 . S
C1056 C1061 1.391 . S
C1057 H1029 0.929 . S
C1057 C1058 1.390 . S
C1057 N1060 1.391 . S
C1058 H1030 0.930 . S
C1058 C1057 1.390 . S
C1058 C1059 1.392 . S
C1059 H1031 0.929 . S
C1059 C1056 1.391 . S
C1059 C1058 1.392 . S
N1060 Co1004 2.257 . S
N1060 C1057 1.391 . S
N1060 C1061 1.388 . S
C1061 H1032 0.930 . S
C1061 C1056 1.391 . S
C1061 N1060 1.388 . S
Co1062 O1064 2.143 . S
Co1062 O1070 2.074 . S
Co1062 O1073 2.093 . S
Co1062 O1086 2.097 . S
Co1062 N1103 2.151 . S
Co1062 N1111 2.214 . S
Co1063 O1064 2.160 . S
Co1063 O1069 2.058 . S
Co1063 O1079 2.057 . S
Co1063 O1094 2.037 . S
Co1063 N1098 2.145 . S
Co1063 N1119 2.257 . S
O1064 Co1062 2.143 . S
O1064 Co1063 2.160 . S
C1065 O1066 1.278 . S
C1065 O1073 1.224 . S
O1066 C1065 1.278 . S
C1067 O1068 1.245 . S
C1067 O1079 1.232 . S
O1068 C1067 1.245 . S
O1069 Co1063 2.058 . S
O1069 C1095 1.269 . S
O1070 Co1062 2.074 . S
O1070 C1095 1.257 . S
H1071 C1096 0.930 . S
H1072 C1102 0.930 . S
O1073 Co1062 2.093 . S
O1073 C1065 1.224 . S
H1074 C1106 0.929 . S
H1075 C1108 0.930 . S
H1076 C1109 0.930 . S
H1077 C1107 0.926 1_556 S
H1078 C1110 0.928 . S
O1079 Co1063 2.057 . S
O1079 C1067 1.232 . S
H1080 C1099 0.929 . S
H1081 C1100 0.929 . S
H1082 C1112 0.931 . S
H1083 C1104 0.929 . S
H1084 C1113 0.930 . S
H1085 C1105 0.938 . S
O1086 Co1062 2.097 . S
O1086 C1114 1.214 . S
H1087 C1115 0.929 . S
H1088 C1116 0.929 . S
H1089 C1117 0.930 . S
H1090 C1118 0.929 . S
H1091 C1120 0.930 . S
H1092 C1097 0.930 . S
H1093 C1101 0.930 . S
O1094 Co1063 2.037 . S
O1094 C1114 1.234 . S
C1095 O1069 1.269 . S
C1095 O1070 1.257 . S
C1096 H1071 0.930 . S
C1096 C1099 1.388 . S
C1096 C1101 1.418 . S
C1097 H1092 0.930 . S
C1097 C1100 1.404 . S
C1097 C1101 1.353 . S
N1098 Co1063 2.145 . S
N1098 C1099 1.397 . S
N1098 C1100 1.334 . S
C1099 H1080 0.929 . S
C1099 C1096 1.388 . S
C1099 N1098 1.397 . S
C1100 H1081 0.929 . S
C1100 C1097 1.404 . S
C1100 N1098 1.334 . S
C1101 H1093 0.930 . S
C1101 C1096 1.418 . S
C1101 C1097 1.353 . S
C1102 H1072 0.930 . S
C1102 N1103 1.330 . S
C1102 C1104 1.446 . S
N1103 Co1062 2.151 . S
N1103 C1102 1.330 . S
N1103 C1107 1.418 . S
C1104 H1083 0.929 . S
C1104 C1102 1.446 . S
C1104 C1105 1.322 1_554 S
C1105 H1085 0.938 . S
C1105 C1104 1.322 1_556 S
C1105 C1106 1.270 . S
C1106 H1074 0.929 . S
C1106 C1105 1.270 . S
C1106 C1107 1.251 1_556 S
C1107 H1077 0.926 1_554 S
C1107 N1103 1.418 . S
C1107 C1106 1.251 1_554 S
C1108 H1075 0.930 . S
C1108 C1110 1.406 . S
C1108 C1113 1.261 . S
C1109 H1076 0.930 . S
C1109 N1111 1.325 . S
C1109 C1112 1.357 1_554 S
C1110 H1078 0.928 . S
C1110 C1108 1.406 . S
C1110 N1111 1.261 1_556 S
N1111 Co1062 2.214 . S
N1111 C1109 1.325 . S
N1111 C1110 1.261 1_554 S
C1112 H1082 0.931 . S
C1112 C1109 1.357 1_556 S
C1112 C1113 1.312 . S
C1113 H1084 0.930 . S
C1113 C1108 1.261 . S
C1113 C1112 1.312 . S
C1114 O1086 1.214 . S
C1114 O1094 1.234 . S
C1115 H1087 0.929 . S
C1115 C1118 1.391 . S
C1115 C1120 1.391 . S
C1116 H1088 0.929 . S
C1116 C1117 1.390 . S
C1116 N1119 1.391 . S
C1117 H1089 0.930 . S
C1117 C1116 1.390 . S
C1117 C1118 1.392 . S
C1118 H1090 0.929 . S
C1118 C1115 1.391 . S
C1118 C1117 1.392 . S
N1119 Co1063 2.257 . S
N1119 C1116 1.391 . S
N1119 C1120 1.388 . S
C1120 H1091 0.930 . S
C1120 C1115 1.391 . S
C1120 N1119 1.388 . S
Co1121 O1123 2.143 . S
Co1121 O1129 2.074 . S
Co1121 O1132 2.093 . S
Co1121 O1145 2.097 . S
Co1121 N1162 2.151 . S
Co1121 N1170 2.214 . S
Co1122 O1123 2.160 . S
Co1122 O1128 2.058 . S
Co1122 O1138 2.057 . S
Co1122 O1153 2.037 . S
Co1122 N1157 2.145 . S
Co1122 N1178 2.257 . S
O1123 Co1121 2.143 . S
O1123 Co1122 2.160 . S
C1124 O1125 1.278 . S
C1124 O1132 1.224 . S
O1125 C1124 1.278 . S
C1126 O1127 1.245 . S
C1126 O1138 1.232 . S
O1127 C1126 1.245 . S
O1128 Co1122 2.058 . S
O1128 C1154 1.269 . S
O1129 Co1121 2.074 . S
O1129 C1154 1.257 . S
H1130 C1155 0.930 . S
H1131 C1161 0.930 . S
O1132 Co1121 2.093 . S
O1132 C1124 1.224 . S
H1133 C1165 0.929 . S
H1134 C1167 0.930 . S
H1135 C1168 0.930 . S
H1136 C1166 0.929 . S
H1137 C1169 0.928 . S
O1138 Co1122 2.057 . S
O1138 C1126 1.232 . S
H1139 C1158 0.929 . S
H1140 C1159 0.929 . S
H1141 C1171 0.931 . S
H1142 C1163 0.929 . S
H1143 C1172 0.930 . S
H1144 C1164 0.931 . S
O1145 Co1121 2.097 . S
O1145 C1173 1.214 . S
H1146 C1174 0.929 . S
H1147 C1175 0.929 . S
H1148 C1176 0.930 . S
H1149 C1177 0.929 . S
H1150 C1179 0.930 . S
H1151 C1156 0.930 . S
H1152 C1160 0.930 . S
O1153 Co1122 2.037 . S
O1153 C1173 1.234 . S
C1154 O1128 1.269 . S
C1154 O1129 1.257 . S
C1155 H1130 0.930 . S
C1155 C1158 1.388 . S
C1155 C1160 1.418 . S
C1156 H1151 0.930 . S
C1156 C1159 1.404 . S
C1156 C1160 1.353 . S
N1157 Co1122 2.145 . S
N1157 C1158 1.397 . S
N1157 C1159 1.334 . S
C1158 H1139 0.929 . S
C1158 C1155 1.388 . S
C1158 N1157 1.397 . S
C1159 H1140 0.929 . S
C1159 C1156 1.404 . S
C1159 N1157 1.334 . S
C1160 H1152 0.930 . S
C1160 C1155 1.418 . S
C1160 C1156 1.353 . S
C1161 H1131 0.930 . S
C1161 N1162 1.330 . S
C1161 C1163 1.446 . S
N1162 Co1121 2.151 . S
N1162 C1161 1.330 . S
N1162 C1166 1.418 . S
C1163 H1142 0.929 . S
C1163 C1161 1.446 . S
C1163 C1164 1.332 . S
C1164 H1144 0.931 . S
C1164 C1163 1.332 . S
C1164 C1165 1.267 . S
C1165 H1133 0.929 . S
C1165 C1164 1.267 . S
C1165 C1166 1.251 . S
C1166 H1136 0.929 . S
C1166 N1162 1.418 . S
C1166 C1165 1.251 . S
C1167 H1134 0.930 . S
C1167 C1169 1.406 . S
C1167 C1172 1.261 . S
C1168 H1135 0.930 . S
C1168 N1170 1.325 . S
C1168 C1171 1.357 . S
C1169 H1137 0.928 . S
C1169 C1167 1.406 . S
C1169 N1170 1.261 . S
N1170 Co1121 2.214 . S
N1170 C1168 1.325 . S
N1170 C1169 1.261 . S
C1171 H1141 0.931 . S
C1171 C1168 1.357 . S
C1171 C1172 1.312 . S
C1172 H1143 0.930 . S
C1172 C1167 1.261 . S
C1172 C1171 1.312 . S
C1173 O1145 1.214 . S
C1173 O1153 1.234 . S
C1174 H1146 0.929 . S
C1174 C1177 1.391 . S
C1174 C1179 1.391 . S
C1175 H1147 0.929 . S
C1175 C1176 1.390 . S
C1175 N1178 1.391 . S
C1176 H1148 0.930 . S
C1176 C1175 1.390 . S
C1176 C1177 1.392 . S
C1177 H1149 0.929 . S
C1177 C1174 1.391 . S
C1177 C1176 1.392 . S
N1178 Co1122 2.257 . S
N1178 C1175 1.391 . S
N1178 C1179 1.388 . S
C1179 H1150 0.930 . S
C1179 C1174 1.391 . S
C1179 N1178 1.388 . S
Co1180 O1182 2.143 . S
Co1180 O1188 2.074 . S
Co1180 O1191 2.093 . S
Co1180 O1204 2.097 . S
Co1180 N1221 2.151 . S
Co1180 N1229 2.214 . S
Co1181 O1182 2.160 . S
Co1181 O1187 2.058 . S
Co1181 O1197 2.057 . S
Co1181 O1212 2.037 . S
Co1181 N1216 2.145 . S
Co1181 N1237 2.257 . S
O1182 Co1180 2.143 . S
O1182 Co1181 2.160 . S
C1183 O1184 1.278 . S
C1183 O1191 1.224 . S
O1184 C1183 1.278 . S
C1185 O1186 1.245 . S
C1185 O1197 1.232 . S
O1186 C1185 1.245 . S
O1187 Co1181 2.058 . S
O1187 C1213 1.269 . S
O1188 Co1180 2.074 . S
O1188 C1213 1.257 . S
H1189 C1214 0.930 . S
H1190 C1220 0.930 . S
O1191 Co1180 2.093 . S
O1191 C1183 1.224 . S
H1192 C1224 0.929 . S
H1193 C1226 0.930 . S
H1194 C1227 0.930 . S
H1195 C1225 0.929 . S
H1196 C1228 0.928 . S
O1197 Co1181 2.057 . S
O1197 C1185 1.232 . S
H1198 C1217 0.929 . S
H1199 C1218 0.929 . S
H1200 C1230 0.931 . S
H1201 C1222 0.929 . S
H1202 C1231 0.930 . S
H1203 C1223 0.931 . S
O1204 Co1180 2.097 . S
O1204 C1232 1.214 . S
H1205 C1233 0.929 . S
H1206 C1234 0.929 . S
H1207 C1235 0.930 . S
H1208 C1236 0.929 . S
H1209 C1238 0.930 . S
H1210 C1215 0.930 . S
H1211 C1219 0.930 . S
O1212 Co1181 2.037 . S
O1212 C1232 1.234 . S
C1213 O1187 1.269 . S
C1213 O1188 1.257 . S
C1214 H1189 0.930 . S
C1214 C1217 1.388 . S
C1214 C1219 1.418 . S
C1215 H1210 0.930 . S
C1215 C1218 1.404 . S
C1215 C1219 1.353 . S
N1216 Co1181 2.145 . S
N1216 C1217 1.397 . S
N1216 C1218 1.334 . S
C1217 H1198 0.929 . S
C1217 C1214 1.388 . S
C1217 N1216 1.397 . S
C1218 H1199 0.929 . S
C1218 C1215 1.404 . S
C1218 N1216 1.334 . S
C1219 H1211 0.930 . S
C1219 C1214 1.418 . S
C1219 C1215 1.353 . S
C1220 H1190 0.930 . S
C1220 N1221 1.330 . S
C1220 C1222 1.446 . S
N1221 Co1180 2.151 . S
N1221 C1220 1.330 . S
N1221 C1225 1.418 . S
C1222 H1201 0.929 . S
C1222 C1220 1.446 . S
C1222 C1223 1.332 . S
C1223 H1203 0.931 . S
C1223 C1222 1.332 . S
C1223 C1224 1.267 . S
C1224 H1192 0.929 . S
C1224 C1223 1.267 . S
C1224 C1225 1.251 . S
C1225 H1195 0.929 . S
C1225 N1221 1.418 . S
C1225 C1224 1.251 . S
C1226 H1193 0.930 . S
C1226 C1228 1.406 . S
C1226 C1231 1.261 . S
C1227 H1194 0.930 . S
C1227 N1229 1.325 . S
C1227 C1230 1.357 . S
C1228 H1196 0.928 . S
C1228 C1226 1.406 . S
C1228 N1229 1.261 . S
N1229 Co1180 2.214 . S
N1229 C1227 1.325 . S
N1229 C1228 1.261 . S
C1230 H1200 0.931 . S
C1230 C1227 1.357 . S
C1230 C1231 1.312 . S
C1231 H1202 0.930 . S
C1231 C1226 1.261 . S
C1231 C1230 1.312 . S
C1232 O1204 1.214 . S
C1232 O1212 1.234 . S
C1233 H1205 0.929 . S
C1233 C1236 1.391 . S
C1233 C1238 1.391 . S
C1234 H1206 0.929 . S
C1234 C1235 1.390 . S
C1234 N1237 1.391 . S
C1235 H1207 0.930 . S
C1235 C1234 1.390 . S
C1235 C1236 1.392 . S
C1236 H1208 0.929 . S
C1236 C1233 1.391 . S
C1236 C1235 1.392 . S
N1237 Co1181 2.257 . S
N1237 C1234 1.391 . S
N1237 C1238 1.388 . S
C1238 H1209 0.930 . S
C1238 C1233 1.391 . S
C1238 N1237 1.388 . S
Co1239 O1241 2.143 . S
Co1239 O1247 2.074 . S
Co1239 O1250 2.093 . S
Co1239 O1263 2.097 . S
Co1239 N1280 2.151 . S
Co1239 N1288 2.214 . S
Co1240 O1241 2.160 . S
Co1240 O1246 2.058 . S
Co1240 O1256 2.057 . S
Co1240 O1271 2.037 . S
Co1240 N1275 2.145 . S
Co1240 N1296 2.257 . S
O1241 Co1239 2.143 . S
O1241 Co1240 2.160 . S
C1242 O1243 1.278 . S
C1242 O1250 1.224 . S
O1243 C1242 1.278 . S
C1244 O1245 1.245 . S
C1244 O1256 1.232 . S
O1245 C1244 1.245 . S
O1246 Co1240 2.058 . S
O1246 C1272 1.269 . S
O1247 Co1239 2.074 . S
O1247 C1272 1.257 . S
H1248 C1273 0.930 . S
H1249 C1279 0.930 . S
O1250 Co1239 2.093 . S
O1250 C1242 1.224 . S
H1251 C1283 0.929 . S
H1252 C1285 0.930 . S
H1253 C1286 0.930 . S
H1254 C1284 0.929 . S
H1255 C1287 0.928 . S
O1256 Co1240 2.057 . S
O1256 C1244 1.232 . S
H1257 C1276 0.929 . S
H1258 C1277 0.929 . S
H1259 C1289 0.931 . S
H1260 C1281 0.929 . S
H1261 C1290 0.930 . S
H1262 C1282 0.931 . S
O1263 Co1239 2.097 . S
O1263 C1291 1.214 . S
H1264 C1292 0.929 . S
H1265 C1293 0.929 . S
H1266 C1294 0.930 . S
H1267 C1295 0.929 . S
H1268 C1297 0.930 . S
H1269 C1274 0.930 . S
H1270 C1278 0.930 . S
O1271 Co1240 2.037 . S
O1271 C1291 1.234 . S
C1272 O1246 1.269 . S
C1272 O1247 1.257 . S
C1273 H1248 0.930 . S
C1273 C1276 1.388 . S
C1273 C1278 1.418 . S
C1274 H1269 0.930 . S
C1274 C1277 1.404 . S
C1274 C1278 1.353 . S
N1275 Co1240 2.145 . S
N1275 C1276 1.397 . S
N1275 C1277 1.334 . S
C1276 H1257 0.929 . S
C1276 C1273 1.388 . S
C1276 N1275 1.397 . S
C1277 H1258 0.929 . S
C1277 C1274 1.404 . S
C1277 N1275 1.334 . S
C1278 H1270 0.930 . S
C1278 C1273 1.418 . S
C1278 C1274 1.353 . S
C1279 H1249 0.930 . S
C1279 N1280 1.330 . S
C1279 C1281 1.446 . S
N1280 Co1239 2.151 . S
N1280 C1279 1.330 . S
N1280 C1284 1.418 . S
C1281 H1260 0.929 . S
C1281 C1279 1.446 . S
C1281 C1282 1.332 . S
C1282 H1262 0.931 . S
C1282 C1281 1.332 . S
C1282 C1283 1.267 . S
C1283 H1251 0.929 . S
C1283 C1282 1.267 . S
C1283 C1284 1.251 . S
C1284 H1254 0.929 . S
C1284 N1280 1.418 . S
C1284 C1283 1.251 . S
C1285 H1252 0.930 . S
C1285 C1287 1.406 . S
C1285 C1290 1.261 . S
C1286 H1253 0.930 . S
C1286 N1288 1.325 . S
C1286 C1289 1.357 . S
C1287 H1255 0.928 . S
C1287 C1285 1.406 . S
C1287 N1288 1.261 . S
N1288 Co1239 2.214 . S
N1288 C1286 1.325 . S
N1288 C1287 1.261 . S
C1289 H1259 0.931 . S
C1289 C1286 1.357 . S
C1289 C1290 1.312 . S
C1290 H1261 0.930 . S
C1290 C1285 1.261 . S
C1290 C1289 1.312 . S
C1291 O1263 1.214 . S
C1291 O1271 1.234 . S
C1292 H1264 0.929 . S
C1292 C1295 1.391 . S
C1292 C1297 1.391 . S
C1293 H1265 0.929 . S
C1293 C1294 1.390 . S
C1293 N1296 1.391 . S
C1294 H1266 0.930 . S
C1294 C1293 1.390 . S
C1294 C1295 1.392 . S
C1295 H1267 0.929 . S
C1295 C1292 1.391 . S
C1295 C1294 1.392 . S
N1296 Co1240 2.257 . S
N1296 C1293 1.391 . S
N1296 C1297 1.388 . S
C1297 H1268 0.930 . S
C1297 C1292 1.391 . S
C1297 N1296 1.388 . S
Co1298 O1300 2.143 . S
Co1298 O1306 2.074 . S
Co1298 O1309 2.093 . S
Co1298 O1322 2.097 . S
Co1298 N1339 2.151 . S
Co1298 N1347 2.214 . S
Co1299 O1300 2.160 . S
Co1299 O1305 2.058 . S
Co1299 O1315 2.057 . S
Co1299 O1330 2.037 . S
Co1299 N1334 2.145 . S
Co1299 N1355 2.257 . S
O1300 Co1298 2.143 . S
O1300 Co1299 2.160 . S
C1301 O1302 1.278 . S
C1301 O1309 1.224 . S
O1302 C1301 1.278 . S
C1303 O1304 1.245 . S
C1303 O1315 1.232 . S
O1304 C1303 1.245 . S
O1305 Co1299 2.058 . S
O1305 C1331 1.269 . S
O1306 Co1298 2.074 . S
O1306 C1331 1.257 . S
H1307 C1332 0.930 . S
H1308 C1338 0.930 . S
O1309 Co1298 2.093 . S
O1309 C1301 1.224 . S
H1310 C1342 0.929 . S
H1311 C1344 0.930 . S
H1312 C1345 0.930 . S
H1313 C1343 0.926 1_554 S
H1314 C1346 0.928 . S
O1315 Co1299 2.057 . S
O1315 C1303 1.232 . S
H1316 C1335 0.929 . S
H1317 C1336 0.929 . S
H1318 C1348 0.931 . S
H1319 C1340 0.929 . S
H1320 C1349 0.930 . S
H1321 C1341 0.938 . S
O1322 Co1298 2.097 . S
O1322 C1350 1.214 . S
H1323 C1351 0.929 . S
H1324 C1352 0.929 . S
H1325 C1353 0.930 . S
H1326 C1354 0.929 . S
H1327 C1356 0.930 . S
H1328 C1333 0.930 . S
H1329 C1337 0.930 . S
O1330 Co1299 2.037 . S
O1330 C1350 1.234 . S
C1331 O1305 1.269 . S
C1331 O1306 1.257 . S
C1332 H1307 0.930 . S
C1332 C1335 1.388 . S
C1332 C1337 1.418 . S
C1333 H1328 0.930 . S
C1333 C1336 1.404 . S
C1333 C1337 1.353 . S
N1334 Co1299 2.145 . S
N1334 C1335 1.397 . S
N1334 C1336 1.334 . S
C1335 H1316 0.929 . S
C1335 C1332 1.388 . S
C1335 N1334 1.397 . S
C1336 H1317 0.929 . S
C1336 C1333 1.404 . S
C1336 N1334 1.334 . S
C1337 H1329 0.930 . S
C1337 C1332 1.418 . S
C1337 C1333 1.353 . S
C1338 H1308 0.930 . S
C1338 N1339 1.330 . S
C1338 C1340 1.446 . S
N1339 Co1298 2.151 . S
N1339 C1338 1.330 . S
N1339 C1343 1.418 . S
C1340 H1319 0.929 . S
C1340 C1338 1.446 . S
C1340 C1341 1.322 1_556 S
C1341 H1321 0.938 . S
C1341 C1340 1.322 1_554 S
C1341 C1342 1.270 . S
C1342 H1310 0.929 . S
C1342 C1341 1.270 . S
C1342 C1343 1.251 1_554 S
C1343 H1313 0.926 1_556 S
C1343 N1339 1.418 . S
C1343 C1342 1.251 1_556 S
C1344 H1311 0.930 . S
C1344 C1346 1.406 . S
C1344 C1349 1.261 . S
C1345 H1312 0.930 . S
C1345 N1347 1.325 . S
C1345 C1348 1.357 1_556 S
C1346 H1314 0.928 . S
C1346 C1344 1.406 . S
C1346 N1347 1.261 1_554 S
N1347 Co1298 2.214 . S
N1347 C1345 1.325 . S
N1347 C1346 1.261 1_556 S
C1348 H1318 0.931 . S
C1348 C1345 1.357 1_554 S
C1348 C1349 1.312 . S
C1349 H1320 0.930 . S
C1349 C1344 1.261 . S
C1349 C1348 1.312 . S
C1350 O1322 1.214 . S
C1350 O1330 1.234 . S
C1351 H1323 0.929 . S
C1351 C1354 1.391 . S
C1351 C1356 1.391 . S
C1352 H1324 0.929 . S
C1352 C1353 1.390 . S
C1352 N1355 1.391 . S
C1353 H1325 0.930 . S
C1353 C1352 1.390 . S
C1353 C1354 1.392 . S
C1354 H1326 0.929 . S
C1354 C1351 1.391 . S
C1354 C1353 1.392 . S
N1355 Co1299 2.257 . S
N1355 C1352 1.391 . S
N1355 C1356 1.388 . S
C1356 H1327 0.930 . S
C1356 C1351 1.391 . S
C1356 N1355 1.388 . S
Co1357 O1359 2.143 . S
Co1357 O1365 2.074 . S
Co1357 O1368 2.093 . S
Co1357 O1381 2.097 . S
Co1357 N1398 2.151 . S
Co1357 N1406 2.214 . S
Co1358 O1359 2.160 . S
Co1358 O1364 2.058 . S
Co1358 O1374 2.057 . S
Co1358 O1389 2.037 . S
Co1358 N1393 2.145 . S
Co1358 N1414 2.257 . S
O1359 Co1357 2.143 . S
O1359 Co1358 2.160 . S
C1360 O1361 1.278 . S
C1360 O1368 1.224 . S
O1361 C1360 1.278 . S
C1362 O1363 1.245 . S
C1362 O1374 1.232 . S
O1363 C1362 1.245 . S
O1364 Co1358 2.058 . S
O1364 C1390 1.269 . S
O1365 Co1357 2.074 . S
O1365 C1390 1.257 . S
H1366 C1391 0.930 . S
H1367 C1397 0.930 . S
O1368 Co1357 2.093 . S
O1368 C1360 1.224 . S
H1369 C1401 0.929 . S
H1370 C1403 0.930 . S
H1371 C1404 0.930 . S
H1372 C1402 0.929 . S
H1373 C1405 0.928 . S
O1374 Co1358 2.057 . S
O1374 C1362 1.232 . S
H1375 C1394 0.929 . S
H1376 C1395 0.929 . S
H1377 C1407 0.931 . S
H1378 C1399 0.929 . S
H1379 C1408 0.930 . S
H1380 C1400 0.931 . S
O1381 Co1357 2.097 . S
O1381 C1409 1.214 . S
H1382 C1410 0.929 . S
H1383 C1411 0.929 . S
H1384 C1412 0.930 . S
H1385 C1413 0.929 . S
H1386 C1415 0.930 . S
H1387 C1392 0.930 . S
H1388 C1396 0.930 . S
O1389 Co1358 2.037 . S
O1389 C1409 1.234 . S
C1390 O1364 1.269 . S
C1390 O1365 1.257 . S
C1391 H1366 0.930 . S
C1391 C1394 1.388 . S
C1391 C1396 1.418 . S
C1392 H1387 0.930 . S
C1392 C1395 1.404 . S
C1392 C1396 1.353 . S
N1393 Co1358 2.145 . S
N1393 C1394 1.397 . S
N1393 C1395 1.334 . S
C1394 H1375 0.929 . S
C1394 C1391 1.388 . S
C1394 N1393 1.397 . S
C1395 H1376 0.929 . S
C1395 C1392 1.404 . S
C1395 N1393 1.334 . S
C1396 H1388 0.930 . S
C1396 C1391 1.418 . S
C1396 C1392 1.353 . S
C1397 H1367 0.930 . S
C1397 N1398 1.330 . S
C1397 C1399 1.446 . S
N1398 Co1357 2.151 . S
N1398 C1397 1.330 . S
N1398 C1402 1.418 . S
C1399 H1378 0.929 . S
C1399 C1397 1.446 . S
C1399 C1400 1.332 . S
C1400 H1380 0.931 . S
C1400 C1399 1.332 . S
C1400 C1401 1.267 . S
C1401 H1369 0.929 . S
C1401 C1400 1.267 . S
C1401 C1402 1.251 . S
C1402 H1372 0.929 . S
C1402 N1398 1.418 . S
C1402 C1401 1.251 . S
C1403 H1370 0.930 . S
C1403 C1405 1.406 . S
C1403 C1408 1.261 . S
C1404 H1371 0.930 . S
C1404 N1406 1.325 . S
C1404 C1407 1.357 . S
C1405 H1373 0.928 . S
C1405 C1403 1.406 . S
C1405 N1406 1.261 . S
N1406 Co1357 2.214 . S
N1406 C1404 1.325 . S
N1406 C1405 1.261 . S
C1407 H1377 0.931 . S
C1407 C1404 1.357 . S
C1407 C1408 1.312 . S
C1408 H1379 0.930 . S
C1408 C1403 1.261 . S
C1408 C1407 1.312 . S
C1409 O1381 1.214 . S
C1409 O1389 1.234 . S
C1410 H1382 0.929 . S
C1410 C1413 1.391 . S
C1410 C1415 1.391 . S
C1411 H1383 0.929 . S
C1411 C1412 1.390 . S
C1411 N1414 1.391 . S
C1412 H1384 0.930 . S
C1412 C1411 1.390 . S
C1412 C1413 1.392 . S
C1413 H1385 0.929 . S
C1413 C1410 1.391 . S
C1413 C1412 1.392 . S
N1414 Co1358 2.257 . S
N1414 C1411 1.391 . S
N1414 C1415 1.388 . S
C1415 H1386 0.930 . S
C1415 C1410 1.391 . S
C1415 N1414 1.388 . S
C1416 C1417 1.349 . S
C1416 C1418 1.327 . S
C1416 H1441 0.950 . S
C1417 C1416 1.349 . S
C1417 C1433 1.349 . S
C1418 C1416 1.327 . S
C1418 C1437 1.429 . S
C1418 H1442 0.950 . S
C1419 C1436 1.574 . S
C1419 C1438 1.368 . S
C1419 H1443 0.949 . S
H1420 C1424 0.949 . S
C1421 C1422 1.349 . S
C1421 C1423 1.327 . S
C1421 H1444 0.950 . S
C1422 C1421 1.349 . S
C1422 C1434 1.349 . S
C1423 C1421 1.327 . S
C1423 C1439 1.429 . S
C1423 H1445 0.950 . S
C1424 H1420 0.949 . S
C1424 C1432 1.574 . S
C1424 C1440 1.368 . S
H1425 C1433 0.950 . S
H1426 C1431 0.950 . S
H1427 C1432 0.949 . S
H1428 C1434 0.950 . S
H1429 C1435 0.950 . S
H1430 C1436 0.949 . S
C1431 H1426 0.950 . S
C1431 C1433 1.327 . S
C1431 C1437 1.429 . S
C1432 C1424 1.574 . S
C1432 H1427 0.949 . S
C1432 C1438 1.368 . S
C1433 C1417 1.349 . S
C1433 H1425 0.950 . S
C1433 C1431 1.327 . S
C1434 C1422 1.349 . S
C1434 H1428 0.950 . S
C1434 C1435 1.327 . S
C1435 H1429 0.950 . S
C1435 C1434 1.327 . S
C1435 C1439 1.429 . S
C1436 C1419 1.574 . S
C1436 H1430 0.949 . S
C1436 C1440 1.368 . S
C1437 C1418 1.429 . S
C1437 C1431 1.429 . S
C1437 C1438 1.523 . S
C1438 C1419 1.368 . S
C1438 C1432 1.368 . S
C1438 C1437 1.523 . S
C1439 C1423 1.429 . S
C1439 C1435 1.429 . S
C1439 C1440 1.523 . S
C1440 C1424 1.368 . S
C1440 C1436 1.368 . S
C1440 C1439 1.523 . S
H1441 C1416 0.950 . S
H1442 C1418 0.950 . S
H1443 C1419 0.949 . S
H1444 C1421 0.950 . S
H1445 C1423 0.950 . S
C1446 C1447 1.304 1_455 S
C1446 C1448 1.363 . S
C1446 H1471 0.962 . S
C1447 C1446 1.304 1_655 S
C1447 C1463 1.349 . S
C1448 C1446 1.363 . S
C1448 C1467 1.429 . S
C1448 H1472 0.950 . S
C1449 C1466 1.574 . S
C1449 C1468 1.368 . S
C1449 H1473 0.949 . S
H1450 C1454 0.949 . S
C1451 C1452 1.349 . S
C1451 C1453 1.327 . S
C1451 H1474 0.950 . S
C1452 C1451 1.349 . S
C1452 C1464 1.349 . S
C1453 C1451 1.327 . S
C1453 C1469 1.429 . S
C1453 H1475 0.950 . S
C1454 H1450 0.949 . S
C1454 C1462 1.574 . S
C1454 C1470 1.368 . S
H1455 C1463 0.950 . S
H1456 C1461 0.950 . S
H1457 C1462 0.949 . S
H1458 C1464 0.950 . S
H1459 C1465 0.950 . S
H1460 C1466 0.949 . S
C1461 H1456 0.950 . S
C1461 C1463 1.327 . S
C1461 C1467 1.429 1_655 S
C1462 C1454 1.574 . S
C1462 H1457 0.949 . S
C1462 C1468 1.368 . S
C1463 C1447 1.349 . S
C1463 H1455 0.950 . S
C1463 C1461 1.327 . S
C1464 C1452 1.349 . S
C1464 H1458 0.950 . S
C1464 C1465 1.327 . S
C1465 H1459 0.950 . S
C1465 C1464 1.327 . S
C1465 C1469 1.429 . S
C1466 C1449 1.574 . S
C1466 H1460 0.949 . S
C1466 C1470 1.368 . S
C1467 C1448 1.429 . S
C1467 C1461 1.429 1_455 S
C1467 C1468 1.523 . S
C1468 C1449 1.368 . S
C1468 C1462 1.368 . S
C1468 C1467 1.523 . S
C1469 C1453 1.429 . S
C1469 C1465 1.429 . S
C1469 C1470 1.523 . S
C1470 C1454 1.368 . S
C1470 C1466 1.368 . S
C1470 C1469 1.523 . S
H1471 C1446 0.962 . S
H1472 C1448 0.950 . S
H1473 C1449 0.949 . S
H1474 C1451 0.950 . S
H1475 C1453 0.950 . S
C1476 C1477 1.349 . S
C1476 C1478 1.327 . S
C1476 H1501 0.950 . S
C1477 C1476 1.349 . S
C1477 C1493 1.349 . S
C1478 C1476 1.327 . S
C1478 C1497 1.429 . S
C1478 H1502 0.950 . S
C1479 C1496 1.574 . S
C1479 C1498 1.368 . S
C1479 H1503 0.949 . S
H1480 C1484 0.949 . S
C1481 C1482 1.352 1_556 S
C1481 C1483 1.325 . S
C1481 H1504 0.949 . S
C1482 C1481 1.352 1_554 S
C1482 C1494 1.349 . S
C1483 C1481 1.325 . S
C1483 C1499 1.429 . S
C1483 H1505 0.950 . S
C1484 H1480 0.949 . S
C1484 C1492 1.574 . S
C1484 C1500 1.368 . S
H1485 C1493 0.950 . S
H1486 C1491 0.950 . S
H1487 C1492 0.949 . S
H1488 C1494 0.950 . S
H1489 C1495 0.950 . S
H1490 C1496 0.949 . S
C1491 H1486 0.950 . S
C1491 C1493 1.327 . S
C1491 C1497 1.429 . S
C1492 C1484 1.574 . S
C1492 H1487 0.949 . S
C1492 C1498 1.368 . S
C1493 C1477 1.349 . S
C1493 H1485 0.950 . S
C1493 C1491 1.327 . S
C1494 C1482 1.349 . S
C1494 H1488 0.950 . S
C1494 C1495 1.327 . S
C1495 H1489 0.950 . S
C1495 C1494 1.327 . S
C1495 C1499 1.429 1_554 S
C1496 C1479 1.574 . S
C1496 H1490 0.949 . S
C1496 C1500 1.368 . S
C1497 C1478 1.429 . S
C1497 C1491 1.429 . S
C1497 C1498 1.523 . S
C1498 C1479 1.368 . S
C1498 C1492 1.368 . S
C1498 C1497 1.523 . S
C1499 C1483 1.429 . S
C1499 C1495 1.429 1_556 S
C1499 C1500 1.523 . S
C1500 C1484 1.368 . S
C1500 C1496 1.368 . S
C1500 C1499 1.523 . S
H1501 C1476 0.950 . S
H1502 C1478 0.950 . S
H1503 C1479 0.949 . S
H1504 C1481 0.949 . S
H1505 C1483 0.950 . S
C1506 C1507 1.349 . S
C1506 C1508 1.327 . S
C1506 H1531 0.950 . S
C1507 C1506 1.349 . S
C1507 C1523 1.349 . S
C1508 C1506 1.327 . S
C1508 C1527 1.429 . S
C1508 H1532 0.950 . S
C1509 C1526 1.574 . S
C1509 C1528 1.368 . S
C1509 H1533 0.949 . S
H1510 C1514 0.949 . S
C1511 C1512 1.349 . S
C1511 C1513 1.327 . S
C1511 H1534 0.950 . S
C1512 C1511 1.349 . S
C1512 C1524 1.349 . S
C1513 C1511 1.327 . S
C1513 C1529 1.429 . S
C1513 H1535 0.950 . S
C1514 H1510 0.949 . S
C1514 C1522 1.574 . S
C1514 C1530 1.368 . S
H1515 C1523 0.950 . S
H1516 C1521 0.950 . S
H1517 C1522 0.949 . S
H1518 C1524 0.950 . S
H1519 C1525 0.950 . S
H1520 C1526 0.949 . S
C1521 H1516 0.950 . S
C1521 C1523 1.327 . S
C1521 C1527 1.429 . S
C1522 C1514 1.574 . S
C1522 H1517 0.949 . S
C1522 C1528 1.368 . S
C1523 C1507 1.349 . S
C1523 H1515 0.950 . S
C1523 C1521 1.327 . S
C1524 C1512 1.349 . S
C1524 H1518 0.950 . S
C1524 C1525 1.327 . S
C1525 H1519 0.950 . S
C1525 C1524 1.327 . S
C1525 C1529 1.429 . S
C1526 C1509 1.574 . S
C1526 H1520 0.949 . S
C1526 C1530 1.368 . S
C1527 C1508 1.429 . S
C1527 C1521 1.429 . S
C1527 C1528 1.523 . S
C1528 C1509 1.368 . S
C1528 C1522 1.368 . S
C1528 C1527 1.523 . S
C1529 C1513 1.429 . S
C1529 C1525 1.429 . S
C1529 C1530 1.523 . S
C1530 C1514 1.368 . S
C1530 C1526 1.368 . S
C1530 C1529 1.523 . S
H1531 C1506 0.950 . S
H1532 C1508 0.950 . S
H1533 C1509 0.949 . S
H1534 C1511 0.950 . S
H1535 C1513 0.950 . S
C1536 C1537 1.349 . S
C1536 C1538 1.327 . S
C1536 H1561 0.950 . S
C1537 C1536 1.349 . S
C1537 C1553 1.349 . S
C1538 C1536 1.327 . S
C1538 C1557 1.429 . S
C1538 H1562 0.950 . S
C1539 C1556 1.574 . S
C1539 C1558 1.368 . S
C1539 H1563 0.949 . S
H1540 C1544 0.949 . S
C1541 C1542 1.349 . S
C1541 C1543 1.327 . S
C1541 H1564 0.950 . S
C1542 C1541 1.349 . S
C1542 C1554 1.349 . S
C1543 C1541 1.327 . S
C1543 C1559 1.429 . S
C1543 H1565 0.950 . S
C1544 H1540 0.949 . S
C1544 C1552 1.574 . S
C1544 C1560 1.368 . S
H1545 C1553 0.950 . S
H1546 C1551 0.950 . S
H1547 C1552 0.949 . S
H1548 C1554 0.950 . S
H1549 C1555 0.950 . S
H1550 C1556 0.949 . S
C1551 H1546 0.950 . S
C1551 C1553 1.327 . S
C1551 C1557 1.429 . S
C1552 C1544 1.574 . S
C1552 H1547 0.949 . S
C1552 C1558 1.368 . S
C1553 C1537 1.349 . S
C1553 H1545 0.950 . S
C1553 C1551 1.327 . S
C1554 C1542 1.349 . S
C1554 H1548 0.950 . S
C1554 C1555 1.327 . S
C1555 H1549 0.950 . S
C1555 C1554 1.327 . S
C1555 C1559 1.429 . S
C1556 C1539 1.574 . S
C1556 H1550 0.949 . S
C1556 C1560 1.368 . S
C1557 C1538 1.429 . S
C1557 C1551 1.429 . S
C1557 C1558 1.523 . S
C1558 C1539 1.368 . S
C1558 C1552 1.368 . S
C1558 C1557 1.523 . S
C1559 C1543 1.429 . S
C1559 C1555 1.429 . S
C1559 C1560 1.523 . S
C1560 C1544 1.368 . S
C1560 C1556 1.368 . S
C1560 C1559 1.523 . S
H1561 C1536 0.950 . S
H1562 C1538 0.950 . S
H1563 C1539 0.949 . S
H1564 C1541 0.950 . S
H1565 C1543 0.950 . S
C1566 C1567 1.349 . S
C1566 C1568 1.327 . S
C1566 H1591 0.950 . S
C1567 C1566 1.349 . S
C1567 C1583 1.349 . S
C1568 C1566 1.327 . S
C1568 C1587 1.429 . S
C1568 H1592 0.950 . S
C1569 C1586 1.574 . S
C1569 C1588 1.368 . S
C1569 H1593 0.949 . S
H1570 C1574 0.949 . S
C1571 C1572 1.349 . S
C1571 C1573 1.327 1_455 S
C1571 H1594 0.950 . S
C1572 C1571 1.349 . S
C1572 C1584 1.349 . S
C1573 C1571 1.327 1_655 S
C1573 C1589 1.429 . S
C1573 H1595 0.950 . S
C1574 H1570 0.949 . S
C1574 C1582 1.574 . S
C1574 C1590 1.368 . S
H1575 C1583 0.950 . S
H1576 C1581 0.950 . S
H1577 C1582 0.949 . S
H1578 C1584 0.950 . S
H1579 C1585 0.950 . S
H1580 C1586 0.949 . S
C1581 H1576 0.950 . S
C1581 C1583 1.327 . S
C1581 C1587 1.429 . S
C1582 C1574 1.574 . S
C1582 H1577 0.949 . S
C1582 C1588 1.368 . S
C1583 C1567 1.349 . S
C1583 H1575 0.950 . S
C1583 C1581 1.327 . S
C1584 C1572 1.349 . S
C1584 H1578 0.950 . S
C1584 C1585 1.327 1_455 S
C1585 H1579 0.950 . S
C1585 C1584 1.327 1_655 S
C1585 C1589 1.429 . S
C1586 C1569 1.574 . S
C1586 H1580 0.949 . S
C1586 C1590 1.368 . S
C1587 C1568 1.429 . S
C1587 C1581 1.429 . S
C1587 C1588 1.523 . S
C1588 C1569 1.368 . S
C1588 C1582 1.368 . S
C1588 C1587 1.523 . S
C1589 C1573 1.429 . S
C1589 C1585 1.429 . S
C1589 C1590 1.523 . S
C1590 C1574 1.368 . S
C1590 C1586 1.368 . S
C1590 C1589 1.523 . S
H1591 C1566 0.950 . S
H1592 C1568 0.950 . S
H1593 C1569 0.949 . S
H1594 C1571 0.950 . S
H1595 C1573 0.950 . S
C1596 C1597 1.349 . S
C1596 C1598 1.327 . S
C1596 H1621 0.950 . S
C1597 C1596 1.349 . S
C1597 C1613 1.349 . S
C1598 C1596 1.327 . S
C1598 C1617 1.429 . S
C1598 H1622 0.950 . S
C1599 C1616 1.574 . S
C1599 C1618 1.368 . S
C1599 H1623 0.949 . S
H1600 C1604 0.949 . S
C1601 C1602 1.333 1_554 S
C1601 C1603 1.340 . S
C1601 H1624 0.953 . S
C1602 C1601 1.333 1_556 S
C1602 C1614 1.349 . S
C1603 C1601 1.340 . S
C1603 C1619 1.429 . S
C1603 H1625 0.950 . S
C1604 H1600 0.949 . S
C1604 C1612 1.574 . S
C1604 C1620 1.368 . S
H1605 C1613 0.950 . S
H1606 C1611 0.950 . S
H1607 C1612 0.949 . S
H1608 C1614 0.950 . S
H1609 C1615 0.950 . S
H1610 C1616 0.949 . S
C1611 H1606 0.950 . S
C1611 C1613 1.327 . S
C1611 C1617 1.429 . S
C1612 C1604 1.574 . S
C1612 H1607 0.949 . S
C1612 C1618 1.368 . S
C1613 C1597 1.349 . S
C1613 H1605 0.950 . S
C1613 C1611 1.327 . S
C1614 C1602 1.349 . S
C1614 H1608 0.950 . S
C1614 C1615 1.327 . S
C1615 H1609 0.950 . S
C1615 C1614 1.327 . S
C1615 C1619 1.429 1_556 S
C1616 C1599 1.574 . S
C1616 H1610 0.949 . S
C1616 C1620 1.368 . S
C1617 C1598 1.429 . S
C1617 C1611 1.429 . S
C1617 C1618 1.523 . S
C1618 C1599 1.368 . S
C1618 C1612 1.368 . S
C1618 C1617 1.523 . S
C1619 C1603 1.429 . S
C1619 C1615 1.429 1_554 S
C1619 C1620 1.523 . S
C1620 C1604 1.368 . S
C1620 C1616 1.368 . S
C1620 C1619 1.523 . S
H1621 C1596 0.950 . S
H1622 C1598 0.950 . S
H1623 C1599 0.949 . S
H1624 C1601 0.953 . S
H1625 C1603 0.950 . S
C1626 C1627 1.349 . S
C1626 C1628 1.327 . S
C1626 H1651 0.950 . S
C1627 C1626 1.349 . S
C1627 C1643 1.349 . S
C1628 C1626 1.327 . S
C1628 C1647 1.429 . S
C1628 H1652 0.950 . S
C1629 C1646 1.574 . S
C1629 C1648 1.368 . S
C1629 H1653 0.949 . S
H1630 C1634 0.949 . S
C1631 C1632 1.349 . S
C1631 C1633 1.327 . S
C1631 H1654 0.950 . S
C1632 C1631 1.349 . S
C1632 C1644 1.349 . S
C1633 C1631 1.327 . S
C1633 C1649 1.429 . S
C1633 H1655 0.950 . S
C1634 H1630 0.949 . S
C1634 C1642 1.574 . S
C1634 C1650 1.368 . S
H1635 C1643 0.950 . S
H1636 C1641 0.950 . S
H1637 C1642 0.949 . S
H1638 C1644 0.950 . S
H1639 C1645 0.950 . S
H1640 C1646 0.949 . S
C1641 H1636 0.950 . S
C1641 C1643 1.327 . S
C1641 C1647 1.429 . S
C1642 C1634 1.574 . S
C1642 H1637 0.949 . S
C1642 C1648 1.368 . S
C1643 C1627 1.349 . S
C1643 H1635 0.950 . S
C1643 C1641 1.327 . S
C1644 C1632 1.349 . S
C1644 H1638 0.950 . S
C1644 C1645 1.327 . S
C1645 H1639 0.950 . S
C1645 C1644 1.327 . S
C1645 C1649 1.429 . S
C1646 C1629 1.574 . S
C1646 H1640 0.949 . S
C1646 C1650 1.368 . S
C1647 C1628 1.429 . S
C1647 C1641 1.429 . S
C1647 C1648 1.523 . S
C1648 C1629 1.368 . S
C1648 C1642 1.368 . S
C1648 C1647 1.523 . S
C1649 C1633 1.429 . S
C1649 C1645 1.429 . S
C1649 C1650 1.523 . S
C1650 C1634 1.368 . S
C1650 C1646 1.368 . S
C1650 C1649 1.523 . S
H1651 C1626 0.950 . S
H1652 C1628 0.950 . S
H1653 C1629 0.949 . S
H1654 C1631 0.950 . S
H1655 C1633 0.950 . S
C1656 C1657 1.349 . S
C1656 C1658 1.327 . S
C1656 H1681 0.950 . S
C1657 C1656 1.349 . S
C1657 C1673 1.349 . S
C1658 C1656 1.327 . S
C1658 C1677 1.429 . S
C1658 H1682 0.950 . S
C1659 C1676 1.574 . S
C1659 C1678 1.368 . S
C1659 H1683 0.949 . S
H1660 C1664 0.949 . S
C1661 C1662 1.349 . S
C1661 C1663 1.327 . S
C1661 H1684 0.950 . S
C1662 C1661 1.349 . S
C1662 C1674 1.349 . S
C1663 C1661 1.327 . S
C1663 C1679 1.429 . S
C1663 H1685 0.950 . S
C1664 H1660 0.949 . S
C1664 C1672 1.574 . S
C1664 C1680 1.368 . S
H1665 C1673 0.950 . S
H1666 C1671 0.950 . S
H1667 C1672 0.949 . S
H1668 C1674 0.950 . S
H1669 C1675 0.950 . S
H1670 C1676 0.949 . S
C1671 H1666 0.950 . S
C1671 C1673 1.327 . S
C1671 C1677 1.429 . S
C1672 C1664 1.574 . S
C1672 H1667 0.949 . S
C1672 C1678 1.368 . S
C1673 C1657 1.349 . S
C1673 H1665 0.950 . S
C1673 C1671 1.327 . S
C1674 C1662 1.349 . S
C1674 H1668 0.950 . S
C1674 C1675 1.327 . S
C1675 H1669 0.950 . S
C1675 C1674 1.327 . S
C1675 C1679 1.429 . S
C1676 C1659 1.574 . S
C1676 H1670 0.949 . S
C1676 C1680 1.368 . S
C1677 C1658 1.429 . S
C1677 C1671 1.429 . S
C1677 C1678 1.523 . S
C1678 C1659 1.368 . S
C1678 C1672 1.368 . S
C1678 C1677 1.523 . S
C1679 C1663 1.429 . S
C1679 C1675 1.429 . S
C1679 C1680 1.523 . S
C1680 C1664 1.368 . S
C1680 C1676 1.368 . S
C1680 C1679 1.523 . S
H1681 C1656 0.950 . S
H1682 C1658 0.950 . S
H1683 C1659 0.949 . S
H1684 C1661 0.950 . S
H1685 C1663 0.950 . S
C1686 C1687 1.349 . S
C1686 C1688 1.327 1_565 S
C1686 H1711 0.950 . S
C1687 C1686 1.349 . S
C1687 C1703 1.349 . S
C1688 C1686 1.327 1_545 S
C1688 C1707 1.429 . S
C1688 H1712 0.950 . S
C1689 C1706 1.574 . S
C1689 C1708 1.368 . S
C1689 H1713 0.949 . S
H1690 C1694 0.949 . S
C1691 C1692 1.349 . S
C1691 C1693 1.327 . S
C1691 H1714 0.950 . S
C1692 C1691 1.349 . S
C1692 C1704 1.349 . S
C1693 C1691 1.327 . S
C1693 C1709 1.429 . S
C1693 H1715 0.950 . S
C1694 H1690 0.949 . S
C1694 C1702 1.574 . S
C1694 C1710 1.368 . S
H1695 C1703 0.950 . S
H1696 C1701 0.950 . S
H1697 C1702 0.949 . S
H1698 C1704 0.950 . S
H1699 C1705 0.950 . S
H1700 C1706 0.949 . S
C1701 H1696 0.950 . S
C1701 C1703 1.327 1_545 S
C1701 C1707 1.429 . S
C1702 C1694 1.574 . S
C1702 H1697 0.949 . S
C1702 C1708 1.368 . S
C1703 C1687 1.349 . S
C1703 H1695 0.950 . S
C1703 C1701 1.327 1_565 S
C1704 C1692 1.349 . S
C1704 H1698 0.950 . S
C1704 C1705 1.327 . S
C1705 H1699 0.950 . S
C1705 C1704 1.327 . S
C1705 C1709 1.429 . S
C1706 C1689 1.574 . S
C1706 H1700 0.949 . S
C1706 C1710 1.368 . S
C1707 C1688 1.429 . S
C1707 C1701 1.429 . S
C1707 C1708 1.523 . S
C1708 C1689 1.368 . S
C1708 C1702 1.368 . S
C1708 C1707 1.523 . S
C1709 C1693 1.429 . S
C1709 C1705 1.429 . S
C1709 C1710 1.523 . S
C1710 C1694 1.368 . S
C1710 C1706 1.368 . S
C1710 C1709 1.523 . S
H1711 C1686 0.950 . S
H1712 C1688 0.950 . S
H1713 C1689 0.949 . S
H1714 C1691 0.950 . S
H1715 C1693 0.950 . S
C1716 C1717 1.349 . S
C1716 C1718 1.327 . S
C1716 H1741 0.950 . S
C1717 C1716 1.349 . S
C1717 C1733 1.349 . S
C1718 C1716 1.327 . S
C1718 C1737 1.429 . S
C1718 H1742 0.950 . S
C1719 C1736 1.574 . S
C1719 C1738 1.368 . S
C1719 H1743 0.949 . S
H1720 C1724 0.949 . S
C1721 C1722 1.349 . S
C1721 C1723 1.327 . S
C1721 H1744 0.950 . S
C1722 C1721 1.349 . S
C1722 C1734 1.349 1_545 S
C1723 C1721 1.327 . S
C1723 C1739 1.429 1_545 S
C1723 H1745 0.950 . S
C1724 H1720 0.949 . S
C1724 C1732 1.574 . S
C1724 C1740 1.368 . S
H1725 C1733 0.950 . S
H1726 C1731 0.950 . S
H1727 C1732 0.949 . S
H1728 C1734 0.950 . S
H1729 C1735 0.950 . S
H1730 C1736 0.949 . S
C1731 H1726 0.950 . S
C1731 C1733 1.327 . S
C1731 C1737 1.429 . S
C1732 C1724 1.574 . S
C1732 H1727 0.949 . S
C1732 C1738 1.368 . S
C1733 C1717 1.349 . S
C1733 H1725 0.950 . S
C1733 C1731 1.327 . S
C1734 C1722 1.349 1_565 S
C1734 H1728 0.950 . S
C1734 C1735 1.327 . S
C1735 H1729 0.950 . S
C1735 C1734 1.327 . S
C1735 C1739 1.429 . S
C1736 C1719 1.574 . S
C1736 H1730 0.949 . S
C1736 C1740 1.368 . S
C1737 C1718 1.429 . S
C1737 C1731 1.429 . S
C1737 C1738 1.523 . S
C1738 C1719 1.368 . S
C1738 C1732 1.368 . S
C1738 C1737 1.523 . S
C1739 C1723 1.429 1_565 S
C1739 C1735 1.429 . S
C1739 C1740 1.523 . S
C1740 C1724 1.368 . S
C1740 C1736 1.368 . S
C1740 C1739 1.523 . S
H1741 C1716 0.950 . S
H1742 C1718 0.950 . S
H1743 C1719 0.949 . S
H1744 C1721 0.950 . S
H1745 C1723 0.950 . S
C1746 C1747 1.349 . S
C1746 C1748 1.327 . S
C1746 H1771 0.950 . S
C1747 C1746 1.349 . S
C1747 C1763 1.349 . S
C1748 C1746 1.327 . S
C1748 C1767 1.429 . S
C1748 H1772 0.950 . S
C1749 C1766 1.574 . S
C1749 C1768 1.368 . S
C1749 H1773 0.949 . S
H1750 C1754 0.949 . S
C1751 C1752 1.349 . S
C1751 C1753 1.327 . S
C1751 H1774 0.950 . S
C1752 C1751 1.349 . S
C1752 C1764 1.349 . S
C1753 C1751 1.327 . S
C1753 C1769 1.429 . S
C1753 H1775 0.950 . S
C1754 H1750 0.949 . S
C1754 C1762 1.574 . S
C1754 C1770 1.368 . S
H1755 C1763 0.950 . S
H1756 C1761 0.950 . S
H1757 C1762 0.949 . S
H1758 C1764 0.950 . S
H1759 C1765 0.950 . S
H1760 C1766 0.949 . S
C1761 H1756 0.950 . S
C1761 C1763 1.327 . S
C1761 C1767 1.429 . S
C1762 C1754 1.574 . S
C1762 H1757 0.949 . S
C1762 C1768 1.368 . S
C1763 C1747 1.349 . S
C1763 H1755 0.950 . S
C1763 C1761 1.327 . S
C1764 C1752 1.349 . S
C1764 H1758 0.950 . S
C1764 C1765 1.327 . S
C1765 H1759 0.950 . S
C1765 C1764 1.327 . S
C1765 C1769 1.429 . S
C1766 C1749 1.574 . S
C1766 H1760 0.949 . S
C1766 C1770 1.368 . S
C1767 C1748 1.429 . S
C1767 C1761 1.429 . S
C1767 C1768 1.523 . S
C1768 C1749 1.368 . S
C1768 C1762 1.368 . S
C1768 C1767 1.523 . S
C1769 C1753 1.429 . S
C1769 C1765 1.429 . S
C1769 C1770 1.523 . S
C1770 C1754 1.368 . S
C1770 C1766 1.368 . S
C1770 C1769 1.523 . S
H1771 C1746 0.950 . S
H1772 C1748 0.950 . S
H1773 C1749 0.949 . S
H1774 C1751 0.950 . S
H1775 C1753 0.950 . S
C1776 C1777 1.349 . S
C1776 C1778 1.327 . S
C1776 H1801 0.950 . S
C1777 C1776 1.349 . S
C1777 C1793 1.349 . S
C1778 C1776 1.327 . S
C1778 C1797 1.429 . S
C1778 H1802 0.950 . S
C1779 C1796 1.574 . S
C1779 C1798 1.368 . S
C1779 H1803 0.949 . S
H1780 C1784 0.949 . S
C1781 C1782 1.349 . S
C1781 C1783 1.327 . S
C1781 H1804 0.950 . S
C1782 C1781 1.349 . S
C1782 C1794 1.349 . S
C1783 C1781 1.327 . S
C1783 C1799 1.429 . S
C1783 H1805 0.950 . S
C1784 H1780 0.949 . S
C1784 C1792 1.574 . S
C1784 C1800 1.368 . S
H1785 C1793 0.950 . S
H1786 C1791 0.950 . S
H1787 C1792 0.949 . S
H1788 C1794 0.950 . S
H1789 C1795 0.950 . S
H1790 C1796 0.949 . S
C1791 H1786 0.950 . S
C1791 C1793 1.327 . S
C1791 C1797 1.429 . S
C1792 C1784 1.574 . S
C1792 H1787 0.949 . S
C1792 C1798 1.368 . S
C1793 C1777 1.349 . S
C1793 H1785 0.950 . S
C1793 C1791 1.327 . S
C1794 C1782 1.349 . S
C1794 H1788 0.950 . S
C1794 C1795 1.327 . S
C1795 H1789 0.950 . S
C1795 C1794 1.327 . S
C1795 C1799 1.429 . S
C1796 C1779 1.574 . S
C1796 H1790 0.949 . S
C1796 C1800 1.368 . S
C1797 C1778 1.429 . S
C1797 C1791 1.429 . S
C1797 C1798 1.523 . S
C1798 C1779 1.368 . S
C1798 C1792 1.368 . S
C1798 C1797 1.523 . S
C1799 C1783 1.429 . S
C1799 C1795 1.429 . S
C1799 C1800 1.523 . S
C1800 C1784 1.368 . S
C1800 C1796 1.368 . S
C1800 C1799 1.523 . S
H1801 C1776 0.950 . S
H1802 C1778 0.950 . S
H1803 C1779 0.949 . S
H1804 C1781 0.950 . S
H1805 C1783 0.950 . S
C1806 C1807 1.349 . S
C1806 C1808 1.327 . S
C1806 H1831 0.950 . S
C1807 C1806 1.349 . S
C1807 C1823 1.349 . S
C1808 C1806 1.327 . S
C1808 C1827 1.429 . S
C1808 H1832 0.950 . S
C1809 C1826 1.574 . S
C1809 C1828 1.368 . S
C1809 H1833 0.949 . S
H1810 C1814 0.949 . S
C1811 C1812 1.349 . S
C1811 C1813 1.327 . S
C1811 H1834 0.950 . S
C1812 C1811 1.349 . S
C1812 C1824 1.349 . S
C1813 C1811 1.327 . S
C1813 C1829 1.429 . S
C1813 H1835 0.950 . S
C1814 H1810 0.949 . S
C1814 C1822 1.574 1_545 S
C1814 C1830 1.368 . S
H1815 C1823 0.950 . S
H1816 C1821 0.950 1_545 S
H1817 C1822 0.949 . S
H1818 C1824 0.950 . S
H1819 C1825 0.950 . S
H1820 C1826 0.949 . S
C1821 H1816 0.950 1_565 S
C1821 C1823 1.327 . S
C1821 C1827 1.429 . S
C1822 C1814 1.574 1_565 S
C1822 H1817 0.949 . S
C1822 C1828 1.368 1_565 S
C1823 C1807 1.349 . S
C1823 H1815 0.950 . S
C1823 C1821 1.327 . S
C1824 C1812 1.349 . S
C1824 H1818 0.950 . S
C1824 C1825 1.327 . S
C1825 H1819 0.950 . S
C1825 C1824 1.327 . S
C1825 C1829 1.429 . S
C1826 C1809 1.574 . S
C1826 H1820 0.949 . S
C1826 C1830 1.368 . S
C1827 C1808 1.429 . S
C1827 C1821 1.429 . S
C1827 C1828 1.523 1_565 S
C1828 C1809 1.368 . S
C1828 C1822 1.368 1_545 S
C1828 C1827 1.523 1_545 S
C1829 C1813 1.429 . S
C1829 C1825 1.429 . S
C1829 C1830 1.523 . S
C1830 C1814 1.368 . S
C1830 C1826 1.368 . S
C1830 C1829 1.523 . S
H1831 C1806 0.950 . S
H1832 C1808 0.950 . S
H1833 C1809 0.949 . S
H1834 C1811 0.950 . S
H1835 C1813 0.950 . S
C1836 C1837 1.349 . S
C1836 C1838 1.327 . S
C1836 H1861 0.950 . S
C1837 C1836 1.349 . S
C1837 C1853 1.349 . S
C1838 C1836 1.327 . S
C1838 C1857 1.429 . S
C1838 H1862 0.950 . S
C1839 C1856 1.548 1_556 S
C1839 C1858 1.368 . S
C1839 H1863 0.949 . S
H1840 C1844 0.949 . S
C1841 C1842 1.349 . S
C1841 C1843 1.327 . S
C1841 H1864 0.950 . S
C1842 C1841 1.349 . S
C1842 C1854 1.349 . S
C1843 C1841 1.327 . S
C1843 C1859 1.429 . S
C1843 H1865 0.950 . S
C1844 H1840 0.949 . S
C1844 C1852 1.574 . S
C1844 C1860 1.368 . S
H1845 C1853 0.950 . S
H1846 C1851 0.950 . S
H1847 C1852 0.949 . S
H1848 C1854 0.950 . S
H1849 C1855 0.950 1_556 S
H1850 C1856 0.982 . S
C1851 H1846 0.950 . S
C1851 C1853 1.327 . S
C1851 C1857 1.429 . S
C1852 C1844 1.574 . S
C1852 H1847 0.949 . S
C1852 C1858 1.368 . S
C1853 C1837 1.349 . S
C1853 H1845 0.950 . S
C1853 C1851 1.327 . S
C1854 C1842 1.349 . S
C1854 H1848 0.950 . S
C1854 C1855 1.327 . S
C1855 H1849 0.950 1_554 S
C1855 C1854 1.327 . S
C1855 C1859 1.429 . S
C1856 C1839 1.548 1_554 S
C1856 H1850 0.982 . S
C1856 C1860 1.360 1_554 S
C1857 C1838 1.429 . S
C1857 C1851 1.429 . S
C1857 C1858 1.523 . S
C1858 C1839 1.368 . S
C1858 C1852 1.368 . S
C1858 C1857 1.523 . S
C1859 C1843 1.429 . S
C1859 C1855 1.429 . S
C1859 C1860 1.523 1_554 S
C1860 C1844 1.368 . S
C1860 C1856 1.360 1_556 S
C1860 C1859 1.523 1_556 S
H1861 C1836 0.950 . S
H1862 C1838 0.950 . S
H1863 C1839 0.949 . S
H1864 C1841 0.950 . S
H1865 C1843 0.950 . S
C1866 C1867 1.349 . S
C1866 C1868 1.327 . S
C1866 H1891 0.950 . S
C1867 C1866 1.349 . S
C1867 C1883 1.349 . S
C1868 C1866 1.327 . S
C1868 C1887 1.429 . S
C1868 H1892 0.950 1_545 S
C1869 C1886 1.574 1_545 S
C1869 C1888 1.368 1_545 S
C1869 H1893 0.949 . S
H1870 C1874 0.949 . S
C1871 C1872 1.349 . S
C1871 C1873 1.327 . S
C1871 H1894 0.950 . S
C1872 C1871 1.349 . S
C1872 C1884 1.349 . S
C1873 C1871 1.327 . S
C1873 C1889 1.429 . S
C1873 H1895 0.950 . S
C1874 H1870 0.949 . S
C1874 C1882 1.574 . S
C1874 C1890 1.368 . S
H1875 C1883 0.950 . S
H1876 C1881 0.950 . S
H1877 C1882 0.949 . S
H1878 C1884 0.950 . S
H1879 C1885 0.950 . S
H1880 C1886 0.949 . S
C1881 H1876 0.950 . S
C1881 C1883 1.327 . S
C1881 C1887 1.429 . S
C1882 C1874 1.574 . S
C1882 H1877 0.949 . S
C1882 C1888 1.368 . S
C1883 C1867 1.349 . S
C1883 H1875 0.950 . S
C1883 C1881 1.327 . S
C1884 C1872 1.349 . S
C1884 H1878 0.950 . S
C1884 C1885 1.327 . S
C1885 H1879 0.950 . S
C1885 C1884 1.327 . S
C1885 C1889 1.429 . S
C1886 C1869 1.574 1_565 S
C1886 H1880 0.949 . S
C1886 C1890 1.368 . S
C1887 C1868 1.429 . S
C1887 C1881 1.429 . S
C1887 C1888 1.523 1_545 S
C1888 C1869 1.368 1_565 S
C1888 C1882 1.368 . S
C1888 C1887 1.523 1_565 S
C1889 C1873 1.429 . S
C1889 C1885 1.429 . S
C1889 C1890 1.523 . S
C1890 C1874 1.368 . S
C1890 C1886 1.368 . S
C1890 C1889 1.523 . S
H1891 C1866 0.950 . S
H1892 C1868 0.950 1_565 S
H1893 C1869 0.949 . S
H1894 C1871 0.950 . S
H1895 C1873 0.950 . S
C1896 C1897 1.349 . S
C1896 C1898 1.327 . S
C1896 H1921 0.950 . S
C1897 C1896 1.349 . S
C1897 C1913 1.349 . S
C1898 C1896 1.327 . S
C1898 C1917 1.429 . S
C1898 H1922 0.950 . S
C1899 C1916 1.574 . S
C1899 C1918 1.368 . S
C1899 H1923 0.949 . S
H1900 C1904 0.949 . S
C1901 C1902 1.349 . S
C1901 C1903 1.327 . S
C1901 H1924 0.950 . S
C1902 C1901 1.349 . S
C1902 C1914 1.349 . S
C1903 C1901 1.327 . S
C1903 C1919 1.429 . S
C1903 H1925 0.950 . S
C1904 H1900 0.949 . S
C1904 C1912 1.574 . S
C1904 C1920 1.368 . S
H1905 C1913 0.950 . S
H1906 C1911 0.950 . S
H1907 C1912 0.949 . S
H1908 C1914 0.950 . S
H1909 C1915 0.950 . S
H1910 C1916 0.949 . S
C1911 H1906 0.950 . S
C1911 C1913 1.327 . S
C1911 C1917 1.429 . S
C1912 C1904 1.574 . S
C1912 H1907 0.949 . S
C1912 C1918 1.368 . S
C1913 C1897 1.349 . S
C1913 H1905 0.950 . S
C1913 C1911 1.327 . S
C1914 C1902 1.349 . S
C1914 H1908 0.950 . S
C1914 C1915 1.327 . S
C1915 H1909 0.950 . S
C1915 C1914 1.327 . S
C1915 C1919 1.429 . S
C1916 C1899 1.574 . S
C1916 H1910 0.949 . S
C1916 C1920 1.368 . S
C1917 C1898 1.429 . S
C1917 C1911 1.429 . S
C1917 C1918 1.523 . S
C1918 C1899 1.368 . S
C1918 C1912 1.368 . S
C1918 C1917 1.523 . S
C1919 C1903 1.429 . S
C1919 C1915 1.429 . S
C1919 C1920 1.523 . S
C1920 C1904 1.368 . S
C1920 C1916 1.368 . S
C1920 C1919 1.523 . S
H1921 C1896 0.950 . S
H1922 C1898 0.950 . S
H1923 C1899 0.949 . S
H1924 C1901 0.950 . S
H1925 C1903 0.950 . S
C1926 C1927 1.349 . S
C1926 C1928 1.327 . S
C1926 H1951 0.950 . S
C1927 C1926 1.349 . S
C1927 C1943 1.349 . S
C1928 C1926 1.327 . S
C1928 C1947 1.429 . S
C1928 H1952 0.950 . S
C1929 C1946 1.574 . S
C1929 C1948 1.368 . S
C1929 H1953 0.949 . S
H1930 C1934 0.949 . S
C1931 C1932 1.349 . S
C1931 C1933 1.327 . S
C1931 H1954 0.950 . S
C1932 C1931 1.349 . S
C1932 C1944 1.349 . S
C1933 C1931 1.327 . S
C1933 C1949 1.429 . S
C1933 H1955 0.950 . S
C1934 H1930 0.949 . S
C1934 C1942 1.574 . S
C1934 C1950 1.368 . S
H1935 C1943 0.950 . S
H1936 C1941 0.950 . S
H1937 C1942 0.949 . S
H1938 C1944 0.950 . S
H1939 C1945 0.950 . S
H1940 C1946 0.949 . S
C1941 H1936 0.950 . S
C1941 C1943 1.327 . S
C1941 C1947 1.429 . S
C1942 C1934 1.574 . S
C1942 H1937 0.949 . S
C1942 C1948 1.368 . S
C1943 C1927 1.349 . S
C1943 H1935 0.950 . S
C1943 C1941 1.327 . S
C1944 C1932 1.349 . S
C1944 H1938 0.950 . S
C1944 C1945 1.327 . S
C1945 H1939 0.950 . S
C1945 C1944 1.327 . S
C1945 C1949 1.429 . S
C1946 C1929 1.574 . S
C1946 H1940 0.949 . S
C1946 C1950 1.368 . S
C1947 C1928 1.429 . S
C1947 C1941 1.429 . S
C1947 C1948 1.523 . S
C1948 C1929 1.368 . S
C1948 C1942 1.368 . S
C1948 C1947 1.523 . S
C1949 C1933 1.429 . S
C1949 C1945 1.429 . S
C1949 C1950 1.523 . S
C1950 C1934 1.368 . S
C1950 C1946 1.368 . S
C1950 C1949 1.523 . S
H1951 C1926 0.950 . S
H1952 C1928 0.950 . S
H1953 C1929 0.949 . S
H1954 C1931 0.950 . S
H1955 C1933 0.950 . S
C1956 C1957 1.349 . S
C1956 C1958 1.327 . S
C1956 H1981 0.950 . S
C1957 C1956 1.349 . S
C1957 C1973 1.349 . S
C1958 C1956 1.327 . S
C1958 C1977 1.429 . S
C1958 H1982 0.950 . S
C1959 C1976 1.574 . S
C1959 C1978 1.368 . S
C1959 H1983 0.949 . S
H1960 C1964 0.949 . S
C1961 C1962 1.349 . S
C1961 C1963 1.327 . S
C1961 H1984 0.950 . S
C1962 C1961 1.349 . S
C1962 C1974 1.349 . S
C1963 C1961 1.327 . S
C1963 C1979 1.429 . S
C1963 H1985 0.950 . S
C1964 H1960 0.949 . S
C1964 C1972 1.574 1_554 S
C1964 C1980 1.368 . S
H1965 C1973 0.950 . S
H1966 C1971 0.950 1_554 S
H1967 C1972 0.949 . S
H1968 C1974 0.950 . S
H1969 C1975 0.950 . S
H1970 C1976 0.949 . S
C1971 H1966 0.950 1_556 S
C1971 C1973 1.327 . S
C1971 C1977 1.429 . S
C1972 C1964 1.574 1_556 S
C1972 H1967 0.949 . S
C1972 C1978 1.368 1_556 S
C1973 C1957 1.349 . S
C1973 H1965 0.950 . S
C1973 C1971 1.327 . S
C1974 C1962 1.349 . S
C1974 H1968 0.950 . S
C1974 C1975 1.327 . S
C1975 H1969 0.950 . S
C1975 C1974 1.327 . S
C1975 C1979 1.429 . S
C1976 C1959 1.574 . S
C1976 H1970 0.949 . S
C1976 C1980 1.368 . S
C1977 C1958 1.429 . S
C1977 C1971 1.429 . S
C1977 C1978 1.523 1_556 S
C1978 C1959 1.368 . S
C1978 C1972 1.368 1_554 S
C1978 C1977 1.523 1_554 S
C1979 C1963 1.429 . S
C1979 C1975 1.429 . S
C1979 C1980 1.523 . S
C1980 C1964 1.368 . S
C1980 C1976 1.368 . S
C1980 C1979 1.523 . S
H1981 C1956 0.950 . S
H1982 C1958 0.950 . S
H1983 C1959 0.949 . S
H1984 C1961 0.950 . S
H1985 C1963 0.950 . S
C1986 C1987 1.349 . S
C1986 C1988 1.327 . S
C1986 H2011 0.950 . S
C1987 C1986 1.349 . S
C1987 C2003 1.349 . S
C1988 C1986 1.327 . S
C1988 C2007 1.429 . S
C1988 H2012 0.950 . S
C1989 C2006 1.574 . S
C1989 C2008 1.368 . S
C1989 H2013 0.949 . S
H1990 C1994 0.949 . S
C1991 C1992 1.349 . S
C1991 C1993 1.327 . S
C1991 H2014 0.950 . S
C1992 C1991 1.349 . S
C1992 C2004 1.349 . S
C1993 C1991 1.327 . S
C1993 C2009 1.429 . S
C1993 H2015 0.950 . S
C1994 H1990 0.949 . S
C1994 C2002 1.574 . S
C1994 C2010 1.368 . S
H1995 C2003 0.950 . S
H1996 C2001 0.950 . S
H1997 C2002 0.949 . S
H1998 C2004 0.950 . S
H1999 C2005 0.950 . S
H2000 C2006 0.949 . S
C2001 H1996 0.950 . S
C2001 C2003 1.327 . S
C2001 C2007 1.429 . S
C2002 C1994 1.574 . S
C2002 H1997 0.949 . S
C2002 C2008 1.368 . S
C2003 C1987 1.349 . S
C2003 H1995 0.950 . S
C2003 C2001 1.327 . S
C2004 C1992 1.349 . S
C2004 H1998 0.950 . S
C2004 C2005 1.327 . S
C2005 H1999 0.950 . S
C2005 C2004 1.327 . S
C2005 C2009 1.429 . S
C2006 C1989 1.574 . S
C2006 H2000 0.949 . S
C2006 C2010 1.368 . S
C2007 C1988 1.429 . S
C2007 C2001 1.429 . S
C2007 C2008 1.523 . S
C2008 C1989 1.368 . S
C2008 C2002 1.368 . S
C2008 C2007 1.523 . S
C2009 C1993 1.429 . S
C2009 C2005 1.429 . S
C2009 C2010 1.523 . S
C2010 C1994 1.368 . S
C2010 C2006 1.368 . S
C2010 C2009 1.523 . S
H2011 C1986 0.950 . S
H2012 C1988 0.950 . S
H2013 C1989 0.949 . S
H2014 C1991 0.950 . S
H2015 C1993 0.950 . S
C2016 C2017 1.349 . S
C2016 C2018 1.327 . S
C2016 H2041 0.950 . S
C2017 C2016 1.349 . S
C2017 C2033 1.349 . S
C2018 C2016 1.327 . S
C2018 C2037 1.429 . S
C2018 H2042 0.950 . S
C2019 C2036 1.574 . S
C2019 C2038 1.368 . S
C2019 H2043 0.949 . S
H2020 C2024 0.949 . S
C2021 C2022 1.349 . S
C2021 C2023 1.327 . S
C2021 H2044 0.950 . S
C2022 C2021 1.349 . S
C2022 C2034 1.349 . S
C2023 C2021 1.327 . S
C2023 C2039 1.429 . S
C2023 H2045 0.950 . S
C2024 H2020 0.949 . S
C2024 C2032 1.574 . S
C2024 C2040 1.368 . S
H2025 C2033 0.950 . S
H2026 C2031 0.950 . S
H2027 C2032 0.949 . S
H2028 C2034 0.950 . S
H2029 C2035 0.950 . S
H2030 C2036 0.949 . S
C2031 H2026 0.950 . S
C2031 C2033 1.327 . S
C2031 C2037 1.429 . S
C2032 C2024 1.574 . S
C2032 H2027 0.949 . S
C2032 C2038 1.368 . S
C2033 C2017 1.349 . S
C2033 H2025 0.950 . S
C2033 C2031 1.327 . S
C2034 C2022 1.349 . S
C2034 H2028 0.950 . S
C2034 C2035 1.327 . S
C2035 H2029 0.950 . S
C2035 C2034 1.327 . S
C2035 C2039 1.429 . S
C2036 C2019 1.574 . S
C2036 H2030 0.949 . S
C2036 C2040 1.368 . S
C2037 C2018 1.429 . S
C2037 C2031 1.429 . S
C2037 C2038 1.523 . S
C2038 C2019 1.368 . S
C2038 C2032 1.368 . S
C2038 C2037 1.523 . S
C2039 C2023 1.429 . S
C2039 C2035 1.429 . S
C2039 C2040 1.523 . S
C2040 C2024 1.368 . S
C2040 C2036 1.368 . S
C2040 C2039 1.523 . S
H2041 C2016 0.950 . S
H2042 C2018 0.950 . S
H2043 C2019 0.949 . S
H2044 C2021 0.950 . S
H2045 C2023 0.950 . S
C2046 C2047 1.349 . S
C2046 C2048 1.327 . S
C2046 H2071 0.950 . S
C2047 C2046 1.349 . S
C2047 C2063 1.349 . S
C2048 C2046 1.327 . S
C2048 C2067 1.429 . S
C2048 H2072 0.950 . S
C2049 C2066 1.574 . S
C2049 C2068 1.368 . S
C2049 H2073 0.949 . S
H2050 C2054 0.949 . S
C2051 C2052 1.349 . S
C2051 C2053 1.327 . S
C2051 H2074 0.950 . S
C2052 C2051 1.349 . S
C2052 C2064 1.349 . S
C2053 C2051 1.327 . S
C2053 C2069 1.429 . S
C2053 H2075 0.950 . S
C2054 H2050 0.949 . S
C2054 C2062 1.574 . S
C2054 C2070 1.368 . S
H2055 C2063 0.950 . S
H2056 C2061 0.950 . S
H2057 C2062 0.925 1_455 S
H2058 C2064 0.950 . S
H2059 C2065 0.950 . S
H2060 C2066 0.949 . S
C2061 H2056 0.950 . S
C2061 C2063 1.327 . S
C2061 C2067 1.429 . S
C2062 C2054 1.574 . S
C2062 H2057 0.925 1_655 S
C2062 C2068 1.368 . S
C2063 C2047 1.349 . S
C2063 H2055 0.950 . S
C2063 C2061 1.327 . S
C2064 C2052 1.349 . S
C2064 H2058 0.950 . S
C2064 C2065 1.327 . S
C2065 H2059 0.950 . S
C2065 C2064 1.327 . S
C2065 C2069 1.429 . S
C2066 C2049 1.574 . S
C2066 H2060 0.949 . S
C2066 C2070 1.368 . S
C2067 C2048 1.429 . S
C2067 C2061 1.429 . S
C2067 C2068 1.523 1_455 S
C2068 C2049 1.368 . S
C2068 C2062 1.368 . S
C2068 C2067 1.523 1_655 S
C2069 C2053 1.429 . S
C2069 C2065 1.429 . S
C2069 C2070 1.523 . S
C2070 C2054 1.368 . S
C2070 C2066 1.368 . S
C2070 C2069 1.523 . S
H2071 C2046 0.950 . S
H2072 C2048 0.950 . S
H2073 C2049 0.949 . S
H2074 C2051 0.950 . S
H2075 C2053 0.950 . S
C2076 C2077 1.349 . S
C2076 C2078 1.327 . S
C2076 H2101 0.950 . S
C2077 C2076 1.349 . S
C2077 C2093 1.349 . S
C2078 C2076 1.327 . S
C2078 C2097 1.429 . S
C2078 H2102 0.950 . S
C2079 C2096 1.574 . S
C2079 C2098 1.368 . S
C2079 H2103 0.949 . S
H2080 C2084 0.949 . S
C2081 C2082 1.349 . S
C2081 C2083 1.327 . S
C2081 H2104 0.950 . S
C2082 C2081 1.349 . S
C2082 C2094 1.349 . S
C2083 C2081 1.327 . S
C2083 C2099 1.429 . S
C2083 H2105 0.950 . S
C2084 H2080 0.949 . S
C2084 C2092 1.574 . S
C2084 C2100 1.368 . S
H2085 C2093 0.950 . S
H2086 C2091 0.950 . S
H2087 C2092 0.949 . S
H2088 C2094 0.950 . S
H2089 C2095 0.950 . S
H2090 C2096 0.949 . S
C2091 H2086 0.950 . S
C2091 C2093 1.327 . S
C2091 C2097 1.429 . S
C2092 C2084 1.574 . S
C2092 H2087 0.949 . S
C2092 C2098 1.368 . S
C2093 C2077 1.349 . S
C2093 H2085 0.950 . S
C2093 C2091 1.327 . S
C2094 C2082 1.349 . S
C2094 H2088 0.950 . S
C2094 C2095 1.327 . S
C2095 H2089 0.950 . S
C2095 C2094 1.327 . S
C2095 C2099 1.429 . S
C2096 C2079 1.574 . S
C2096 H2090 0.949 . S
C2096 C2100 1.368 . S
C2097 C2078 1.429 . S
C2097 C2091 1.429 . S
C2097 C2098 1.523 1_655 S
C2098 C2079 1.368 . S
C2098 C2092 1.368 . S
C2098 C2097 1.523 1_455 S
C2099 C2083 1.429 . S
C2099 C2095 1.429 . S
C2099 C2100 1.523 . S
C2100 C2084 1.368 . S
C2100 C2096 1.368 . S
C2100 C2099 1.523 . S
H2101 C2076 0.950 . S
H2102 C2078 0.950 . S
H2103 C2079 0.949 . S
H2104 C2081 0.950 . S
H2105 C2083 0.950 . S
C2106 C2107 1.349 . S
C2106 C2108 1.327 . S
C2106 H2131 0.950 . S
C2107 C2106 1.349 . S
C2107 C2123 1.349 . S
C2108 C2106 1.327 . S
C2108 C2127 1.429 . S
C2108 H2132 0.950 . S
C2109 C2126 1.574 . S
C2109 C2128 1.368 . S
C2109 H2133 0.949 . S
H2110 C2114 0.949 . S
C2111 C2112 1.349 . S
C2111 C2113 1.327 . S
C2111 H2134 0.950 . S
C2112 C2111 1.349 . S
C2112 C2124 1.349 . S
C2113 C2111 1.327 . S
C2113 C2129 1.429 . S
C2113 H2135 0.950 . S
C2114 H2110 0.949 . S
C2114 C2122 1.574 . S
C2114 C2130 1.368 . S
H2115 C2123 0.950 . S
H2116 C2121 0.950 . S
H2117 C2122 0.949 . S
H2118 C2124 0.950 . S
H2119 C2125 0.950 . S
H2120 C2126 0.949 . S
C2121 H2116 0.950 . S
C2121 C2123 1.327 . S
C2121 C2127 1.429 . S
C2122 C2114 1.574 . S
C2122 H2117 0.949 . S
C2122 C2128 1.368 . S
C2123 C2107 1.349 . S
C2123 H2115 0.950 . S
C2123 C2121 1.327 . S
C2124 C2112 1.349 . S
C2124 H2118 0.950 . S
C2124 C2125 1.327 . S
C2125 H2119 0.950 . S
C2125 C2124 1.327 . S
C2125 C2129 1.429 . S
C2126 C2109 1.574 . S
C2126 H2120 0.949 . S
C2126 C2130 1.368 . S
C2127 C2108 1.429 . S
C2127 C2121 1.429 . S
C2127 C2128 1.523 . S
C2128 C2109 1.368 . S
C2128 C2122 1.368 . S
C2128 C2127 1.523 . S
C2129 C2113 1.429 . S
C2129 C2125 1.429 . S
C2129 C2130 1.523 . S
C2130 C2114 1.368 . S
C2130 C2126 1.368 . S
C2130 C2129 1.523 . S
H2131 C2106 0.950 . S
H2132 C2108 0.950 . S
H2133 C2109 0.949 . S
H2134 C2111 0.950 . S
H2135 C2113 0.950 . S
C2136 C2137 1.349 . S
C2136 C2138 1.327 . S
C2136 H2161 0.950 . S
C2137 C2136 1.349 . S
C2137 C2153 1.349 . S
C2138 C2136 1.327 . S
C2138 C2157 1.429 . S
C2138 H2162 0.950 . S
C2139 C2156 1.574 . S
C2139 C2158 1.368 . S
C2139 H2163 0.949 . S
H2140 C2144 0.949 . S
C2141 C2142 1.349 . S
C2141 C2143 1.327 . S
C2141 H2164 0.950 . S
C2142 C2141 1.349 . S
C2142 C2154 1.349 . S
C2143 C2141 1.327 . S
C2143 C2159 1.429 . S
C2143 H2165 0.950 . S
C2144 H2140 0.949 . S
C2144 C2152 1.574 . S
C2144 C2160 1.368 . S
H2145 C2153 0.950 . S
H2146 C2151 0.950 . S
H2147 C2152 0.949 . S
H2148 C2154 0.950 . S
H2149 C2155 0.950 . S
H2150 C2156 0.949 . S
C2151 H2146 0.950 . S
C2151 C2153 1.327 . S
C2151 C2157 1.429 . S
C2152 C2144 1.574 . S
C2152 H2147 0.949 . S
C2152 C2158 1.368 . S
C2153 C2137 1.349 . S
C2153 H2145 0.950 . S
C2153 C2151 1.327 . S
C2154 C2142 1.349 . S
C2154 H2148 0.950 . S
C2154 C2155 1.327 . S
C2155 H2149 0.950 . S
C2155 C2154 1.327 . S
C2155 C2159 1.429 . S
C2156 C2139 1.574 . S
C2156 H2150 0.949 . S
C2156 C2160 1.368 . S
C2157 C2138 1.429 . S
C2157 C2151 1.429 . S
C2157 C2158 1.523 . S
C2158 C2139 1.368 . S
C2158 C2152 1.368 . S
C2158 C2157 1.523 . S
C2159 C2143 1.429 . S
C2159 C2155 1.429 . S
C2159 C2160 1.523 . S
C2160 C2144 1.368 . S
C2160 C2156 1.368 . S
C2160 C2159 1.523 . S
H2161 C2136 0.950 . S
H2162 C2138 0.950 . S
H2163 C2139 0.949 . S
H2164 C2141 0.950 . S
H2165 C2143 0.950 . S
C2166 C2167 1.349 . S
C2166 C2168 1.327 . S
C2166 H2191 0.950 . S
C2167 C2166 1.349 . S
C2167 C2183 1.349 1_545 S
C2168 C2166 1.327 . S
C2168 C2187 1.429 1_545 S
C2168 H2192 0.950 . S
C2169 C2186 1.574 . S
C2169 C2188 1.368 . S
C2169 H2193 0.949 . S
H2170 C2174 0.949 . S
C2171 C2172 1.349 . S
C2171 C2173 1.327 . S
C2171 H2194 0.950 . S
C2172 C2171 1.349 . S
C2172 C2184 1.349 . S
C2173 C2171 1.327 . S
C2173 C2189 1.429 . S
C2173 H2195 0.950 . S
C2174 H2170 0.949 . S
C2174 C2182 1.574 . S
C2174 C2190 1.368 . S
H2175 C2183 0.950 . S
H2176 C2181 0.950 . S
H2177 C2182 0.949 1_545 S
H2178 C2184 0.950 . S
H2179 C2185 0.950 . S
H2180 C2186 0.949 . S
C2181 H2176 0.950 . S
C2181 C2183 1.327 . S
C2181 C2187 1.429 . S
C2182 C2174 1.574 . S
C2182 H2177 0.949 1_565 S
C2182 C2188 1.368 . S
C2183 C2167 1.349 1_565 S
C2183 H2175 0.950 . S
C2183 C2181 1.327 . S
C2184 C2172 1.349 . S
C2184 H2178 0.950 . S
C2184 C2185 1.327 . S
C2185 H2179 0.950 . S
C2185 C2184 1.327 . S
C2185 C2189 1.429 . S
C2186 C2169 1.574 . S
C2186 H2180 0.949 . S
C2186 C2190 1.368 . S
C2187 C2168 1.429 1_565 S
C2187 C2181 1.429 . S
C2187 C2188 1.523 . S
C2188 C2169 1.368 . S
C2188 C2182 1.368 . S
C2188 C2187 1.523 . S
C2189 C2173 1.429 . S
C2189 C2185 1.429 . S
C2189 C2190 1.523 . S
C2190 C2174 1.368 . S
C2190 C2186 1.368 . S
C2190 C2189 1.523 . S
H2191 C2166 0.950 . S
H2192 C2168 0.950 . S
H2193 C2169 0.949 . S
H2194 C2171 0.950 . S
H2195 C2173 0.950 . S
C2196 C2197 1.349 . S
C2196 C2198 1.327 . S
C2196 H2221 0.950 . S
C2197 C2196 1.349 . S
C2197 C2213 1.349 . S
C2198 C2196 1.327 . S
C2198 C2217 1.429 . S
C2198 H2222 0.950 . S
C2199 C2216 1.574 . S
C2199 C2218 1.368 . S
C2199 H2223 0.949 . S
H2200 C2204 0.949 . S
C2201 C2202 1.349 . S
C2201 C2203 1.327 . S
C2201 H2224 0.950 . S
C2202 C2201 1.349 . S
C2202 C2214 1.349 . S
C2203 C2201 1.327 . S
C2203 C2219 1.429 . S
C2203 H2225 0.950 . S
C2204 H2200 0.949 . S
C2204 C2212 1.574 . S
C2204 C2220 1.368 . S
H2205 C2213 0.950 . S
H2206 C2211 0.950 . S
H2207 C2212 0.949 . S
H2208 C2214 0.950 . S
H2209 C2215 0.950 . S
H2210 C2216 0.949 . S
C2211 H2206 0.950 . S
C2211 C2213 1.327 . S
C2211 C2217 1.429 . S
C2212 C2204 1.574 . S
C2212 H2207 0.949 . S
C2212 C2218 1.368 . S
C2213 C2197 1.349 . S
C2213 H2205 0.950 . S
C2213 C2211 1.327 . S
C2214 C2202 1.349 . S
C2214 H2208 0.950 . S
C2214 C2215 1.327 . S
C2215 H2209 0.950 . S
C2215 C2214 1.327 . S
C2215 C2219 1.429 . S
C2216 C2199 1.574 . S
C2216 H2210 0.949 . S
C2216 C2220 1.368 . S
C2217 C2198 1.429 . S
C2217 C2211 1.429 . S
C2217 C2218 1.523 . S
C2218 C2199 1.368 . S
C2218 C2212 1.368 . S
C2218 C2217 1.523 . S
C2219 C2203 1.429 . S
C2219 C2215 1.429 . S
C2219 C2220 1.523 . S
C2220 C2204 1.368 . S
C2220 C2216 1.368 . S
C2220 C2219 1.523 . S
H2221 C2196 0.950 . S
H2222 C2198 0.950 . S
H2223 C2199 0.949 . S
H2224 C2201 0.950 . S
H2225 C2203 0.950 . S
C2226 C2227 1.349 . S
C2226 C2228 1.327 . S
C2226 H2251 0.950 . S
C2227 C2226 1.349 . S
C2227 C2243 1.349 . S
C2228 C2226 1.327 . S
C2228 C2247 1.429 . S
C2228 H2252 0.950 . S
C2229 C2246 1.574 . S
C2229 C2248 1.368 . S
C2229 H2253 0.949 . S
H2230 C2234 0.949 1_565 S
C2231 C2232 1.349 . S
C2231 C2233 1.327 1_565 S
C2231 H2254 0.950 1_565 S
C2232 C2231 1.349 . S
C2232 C2244 1.349 . S
C2233 C2231 1.327 1_545 S
C2233 C2249 1.429 1_556 S
C2233 H2255 0.973 . S
C2234 H2230 0.949 1_545 S
C2234 C2242 1.574 . S
C2234 C2250 1.368 . S
H2235 C2243 0.950 . S
H2236 C2241 0.950 . S
H2237 C2242 0.949 . S
H2238 C2244 0.950 . S
H2239 C2245 0.950 . S
H2240 C2246 0.949 . S
C2241 H2236 0.950 . S
C2241 C2243 1.327 . S
C2241 C2247 1.429 . S
C2242 C2234 1.574 . S
C2242 H2237 0.949 . S
C2242 C2248 1.368 . S
C2243 C2227 1.349 . S
C2243 H2235 0.950 . S
C2243 C2241 1.327 . S
C2244 C2232 1.349 . S
C2244 H2238 0.950 . S
C2244 C2245 1.327 . S
C2245 H2239 0.950 . S
C2245 C2244 1.327 . S
C2245 C2249 1.429 1_566 S
C2246 C2229 1.574 . S
C2246 H2240 0.949 . S
C2246 C2250 1.368 . S
C2247 C2228 1.429 . S
C2247 C2241 1.429 . S
C2247 C2248 1.523 . S
C2248 C2229 1.368 . S
C2248 C2242 1.368 . S
C2248 C2247 1.523 . S
C2249 C2233 1.429 1_554 S
C2249 C2245 1.429 1_544 S
C2249 C2250 1.523 . S
C2250 C2234 1.368 . S
C2250 C2246 1.368 . S
C2250 C2249 1.523 . S
H2251 C2226 0.950 . S
H2252 C2228 0.950 . S
H2253 C2229 0.949 . S
H2254 C2231 0.950 1_545 S
H2255 C2233 0.973 . S
C2256 C2257 1.349 . S
C2256 C2258 1.327 . S
C2256 H2281 0.950 . S
C2257 C2256 1.349 . S
C2257 C2273 1.349 . S
C2258 C2256 1.327 . S
C2258 C2277 1.429 . S
C2258 H2282 0.950 . S
C2259 C2276 1.574 . S
C2259 C2278 1.368 . S
C2259 H2283 0.949 . S
H2260 C2264 0.949 . S
C2261 C2262 1.349 . S
C2261 C2263 1.327 . S
C2261 H2284 0.950 . S
C2262 C2261 1.349 . S
C2262 C2274 1.349 . S
C2263 C2261 1.327 . S
C2263 C2279 1.429 . S
C2263 H2285 0.950 . S
C2264 H2260 0.949 . S
C2264 C2272 1.574 . S
C2264 C2280 1.368 . S
H2265 C2273 0.950 . S
H2266 C2271 0.950 . S
H2267 C2272 0.949 . S
H2268 C2274 0.950 . S
H2269 C2275 0.950 . S
H2270 C2276 0.949 . S
C2271 H2266 0.950 . S
C2271 C2273 1.327 . S
C2271 C2277 1.429 . S
C2272 C2264 1.574 . S
C2272 H2267 0.949 . S
C2272 C2278 1.368 . S
C2273 C2257 1.349 . S
C2273 H2265 0.950 . S
C2273 C2271 1.327 . S
C2274 C2262 1.349 . S
C2274 H2268 0.950 . S
C2274 C2275 1.327 . S
C2275 H2269 0.950 . S
C2275 C2274 1.327 . S
C2275 C2279 1.429 . S
C2276 C2259 1.574 . S
C2276 H2270 0.949 . S
C2276 C2280 1.368 . S
C2277 C2258 1.429 . S
C2277 C2271 1.429 . S
C2277 C2278 1.523 . S
C2278 C2259 1.368 . S
C2278 C2272 1.368 . S
C2278 C2277 1.523 . S
C2279 C2263 1.429 . S
C2279 C2275 1.429 . S
C2279 C2280 1.523 . S
C2280 C2264 1.368 . S
C2280 C2276 1.368 . S
C2280 C2279 1.523 . S
H2281 C2256 0.950 . S
H2282 C2258 0.950 . S
H2283 C2259 0.949 . S
H2284 C2261 0.950 . S
H2285 C2263 0.950 . S
C2286 C2287 1.349 . S
C2286 C2288 1.327 . S
C2286 H2311 0.950 . S
C2287 C2286 1.349 . S
C2287 C2303 1.349 . S
C2288 C2286 1.327 . S
C2288 C2307 1.429 1_554 S
C2288 H2312 0.950 . S
C2289 C2306 1.574 . S
C2289 C2308 1.368 . S
C2289 H2313 0.949 . S
H2290 C2294 0.949 . S
C2291 C2292 1.349 . S
C2291 C2293 1.327 . S
C2291 H2314 0.950 . S
C2292 C2291 1.349 . S
C2292 C2304 1.349 . S
C2293 C2291 1.327 . S
C2293 C2309 1.429 . S
C2293 H2315 0.950 . S
C2294 H2290 0.949 . S
C2294 C2302 1.574 . S
C2294 C2310 1.368 . S
H2295 C2303 0.950 . S
H2296 C2301 0.949 . S
H2297 C2302 0.949 . S
H2298 C2304 0.950 . S
H2299 C2305 0.950 . S
H2300 C2306 0.949 . S
C2301 H2296 0.949 . S
C2301 C2303 1.327 1_556 S
C2301 C2307 1.429 . S
C2302 C2294 1.574 . S
C2302 H2297 0.949 . S
C2302 C2308 1.368 . S
C2303 C2287 1.349 . S
C2303 H2295 0.950 . S
C2303 C2301 1.327 1_554 S
C2304 C2292 1.349 . S
C2304 H2298 0.950 . S
C2304 C2305 1.327 . S
C2305 H2299 0.950 . S
C2305 C2304 1.327 . S
C2305 C2309 1.429 . S
C2306 C2289 1.574 . S
C2306 H2300 0.949 . S
C2306 C2310 1.368 . S
C2307 C2288 1.429 1_556 S
C2307 C2301 1.429 . S
C2307 C2308 1.523 . S
C2308 C2289 1.368 . S
C2308 C2302 1.368 . S
C2308 C2307 1.523 . S
C2309 C2293 1.429 . S
C2309 C2305 1.429 . S
C2309 C2310 1.523 . S
C2310 C2294 1.368 . S
C2310 C2306 1.368 . S
C2310 C2309 1.523 . S
H2311 C2286 0.950 . S
H2312 C2288 0.950 . S
H2313 C2289 0.949 . S
H2314 C2291 0.950 . S
H2315 C2293 0.950 . S
C2316 C2317 1.349 . S
C2316 C2318 1.327 . S
C2316 H2341 0.950 . S
C2317 C2316 1.349 . S
C2317 C2333 1.349 . S
C2318 C2316 1.327 . S
C2318 C2337 1.429 . S
C2318 H2342 0.950 . S
C2319 C2336 1.574 . S
C2319 C2338 1.368 . S
C2319 H2343 0.949 . S
H2320 C2324 0.949 . S
C2321 C2322 1.349 . S
C2321 C2323 1.327 . S
C2321 H2344 0.950 . S
C2322 C2321 1.349 . S
C2322 C2334 1.349 . S
C2323 C2321 1.327 . S
C2323 C2339 1.429 . S
C2323 H2345 0.950 . S
C2324 H2320 0.949 . S
C2324 C2332 1.574 . S
C2324 C2340 1.368 . S
H2325 C2333 0.950 . S
H2326 C2331 0.950 . S
H2327 C2332 0.949 . S
H2328 C2334 0.950 . S
H2329 C2335 0.950 . S
H2330 C2336 0.949 . S
C2331 H2326 0.950 . S
C2331 C2333 1.327 . S
C2331 C2337 1.429 . S
C2332 C2324 1.574 . S
C2332 H2327 0.949 . S
C2332 C2338 1.368 . S
C2333 C2317 1.349 . S
C2333 H2325 0.950 . S
C2333 C2331 1.327 . S
C2334 C2322 1.349 . S
C2334 H2328 0.950 . S
C2334 C2335 1.327 . S
C2335 H2329 0.950 . S
C2335 C2334 1.327 . S
C2335 C2339 1.429 . S
C2336 C2319 1.574 . S
C2336 H2330 0.949 . S
C2336 C2340 1.368 . S
C2337 C2318 1.429 . S
C2337 C2331 1.429 . S
C2337 C2338 1.523 . S
C2338 C2319 1.368 . S
C2338 C2332 1.368 . S
C2338 C2337 1.523 . S
C2339 C2323 1.429 . S
C2339 C2335 1.429 . S
C2339 C2340 1.523 . S
C2340 C2324 1.368 . S
C2340 C2336 1.368 . S
C2340 C2339 1.523 . S
H2341 C2316 0.950 . S
H2342 C2318 0.950 . S
H2343 C2319 0.949 . S
H2344 C2321 0.950 . S
H2345 C2323 0.950 . S
C2346 C2347 1.349 . S
C2346 C2348 1.327 . S
C2346 H2371 0.950 . S
C2347 C2346 1.349 . S
C2347 C2363 1.349 . S
C2348 C2346 1.327 . S
C2348 C2367 1.429 . S
C2348 H2372 0.950 . S
C2349 C2366 1.574 . S
C2349 C2368 1.368 . S
C2349 H2373 0.949 . S
H2350 C2354 0.949 . S
C2351 C2352 1.349 . S
C2351 C2353 1.327 . S
C2351 H2374 0.950 . S
C2352 C2351 1.349 . S
C2352 C2364 1.349 . S
C2353 C2351 1.327 . S
C2353 C2369 1.429 . S
C2353 H2375 0.950 . S
C2354 H2350 0.949 . S
C2354 C2362 1.574 . S
C2354 C2370 1.368 . S
H2355 C2363 0.950 . S
H2356 C2361 0.950 . S
H2357 C2362 0.949 . S
H2358 C2364 0.950 . S
H2359 C2365 0.950 . S
H2360 C2366 0.949 . S
C2361 H2356 0.950 . S
C2361 C2363 1.327 . S
C2361 C2367 1.429 . S
C2362 C2354 1.574 . S
C2362 H2357 0.949 . S
C2362 C2368 1.368 . S
C2363 C2347 1.349 . S
C2363 H2355 0.950 . S
C2363 C2361 1.327 . S
C2364 C2352 1.349 . S
C2364 H2358 0.950 . S
C2364 C2365 1.327 . S
C2365 H2359 0.950 . S
C2365 C2364 1.327 . S
C2365 C2369 1.429 . S
C2366 C2349 1.574 . S
C2366 H2360 0.949 . S
C2366 C2370 1.368 . S
C2367 C2348 1.429 . S
C2367 C2361 1.429 . S
C2367 C2368 1.523 . S
C2368 C2349 1.368 . S
C2368 C2362 1.368 . S
C2368 C2367 1.523 . S
C2369 C2353 1.429 . S
C2369 C2365 1.429 . S
C2369 C2370 1.523 . S
C2370 C2354 1.368 . S
C2370 C2366 1.368 . S
C2370 C2369 1.523 . S
H2371 C2346 0.950 . S
H2372 C2348 0.950 . S
H2373 C2349 0.949 . S
H2374 C2351 0.950 . S
H2375 C2353 0.950 . S
C2376 C2377 1.349 . S
C2376 C2378 1.327 . S
C2376 H2401 0.950 . S
C2377 C2376 1.349 . S
C2377 C2393 1.349 . S
C2378 C2376 1.327 . S
C2378 C2397 1.429 . S
C2378 H2402 0.950 . S
C2379 C2396 1.574 . S
C2379 C2398 1.368 . S
C2379 H2403 0.949 . S
H2380 C2384 0.949 . S
C2381 C2382 1.349 . S
C2381 C2383 1.327 . S
C2381 H2404 0.950 . S
C2382 C2381 1.349 . S
C2382 C2394 1.349 . S
C2383 C2381 1.327 . S
C2383 C2399 1.429 . S
C2383 H2405 0.950 . S
C2384 H2380 0.949 . S
C2384 C2392 1.574 . S
C2384 C2400 1.368 . S
H2385 C2393 0.950 . S
H2386 C2391 0.950 . S
H2387 C2392 0.949 . S
H2388 C2394 0.950 . S
H2389 C2395 0.950 . S
H2390 C2396 0.949 . S
C2391 H2386 0.950 . S
C2391 C2393 1.327 . S
C2391 C2397 1.429 . S
C2392 C2384 1.574 . S
C2392 H2387 0.949 . S
C2392 C2398 1.368 . S
C2393 C2377 1.349 . S
C2393 H2385 0.950 . S
C2393 C2391 1.327 . S
C2394 C2382 1.349 . S
C2394 H2388 0.950 . S
C2394 C2395 1.327 . S
C2395 H2389 0.950 . S
C2395 C2394 1.327 . S
C2395 C2399 1.429 . S
C2396 C2379 1.574 . S
C2396 H2390 0.949 . S
C2396 C2400 1.368 . S
C2397 C2378 1.429 . S
C2397 C2391 1.429 . S
C2397 C2398 1.523 . S
C2398 C2379 1.368 . S
C2398 C2392 1.368 . S
C2398 C2397 1.523 . S
C2399 C2383 1.429 . S
C2399 C2395 1.429 . S
C2399 C2400 1.523 . S
C2400 C2384 1.368 . S
C2400 C2396 1.368 . S
C2400 C2399 1.523 . S
H2401 C2376 0.950 . S
H2402 C2378 0.950 . S
H2403 C2379 0.949 . S
H2404 C2381 0.950 . S
H2405 C2383 0.950 . S
C2406 C2407 1.349 . S
C2406 C2408 1.327 . S
C2406 H2431 0.950 . S
C2407 C2406 1.349 . S
C2407 C2423 1.349 . S
C2408 C2406 1.327 . S
C2408 C2427 1.429 1_665 S
C2408 H2432 0.950 . S
C2409 C2426 1.574 . S
C2409 C2428 1.368 . S
C2409 H2433 0.949 . S
H2410 C2414 0.949 . S
C2411 C2412 1.349 . S
C2411 C2413 1.327 . S
C2411 H2434 0.950 . S
C2412 C2411 1.349 . S
C2412 C2424 1.349 . S
C2413 C2411 1.327 . S
C2413 C2429 1.429 . S
C2413 H2435 0.950 . S
C2414 H2410 0.949 . S
C2414 C2422 1.574 . S
C2414 C2430 1.368 . S
H2415 C2423 0.939 1_455 S
H2416 C2421 0.966 . S
H2417 C2422 0.949 1_655 S
H2418 C2424 0.950 . S
H2419 C2425 0.950 . S
H2420 C2426 0.949 . S
C2421 H2416 0.966 . S
C2421 C2423 1.327 1_455 S
C2421 C2427 1.429 1_565 S
C2422 C2414 1.574 . S
C2422 H2417 0.949 1_455 S
C2422 C2428 1.368 . S
C2423 C2407 1.349 . S
C2423 H2415 0.939 1_655 S
C2423 C2421 1.327 1_655 S
C2424 C2412 1.349 . S
C2424 H2418 0.950 . S
C2424 C2425 1.327 . S
C2425 H2419 0.950 . S
C2425 C2424 1.327 . S
C2425 C2429 1.429 . S
C2426 C2409 1.574 . S
C2426 H2420 0.949 . S
C2426 C2430 1.368 . S
C2427 C2408 1.429 1_445 S
C2427 C2421 1.429 1_545 S
C2427 C2428 1.523 . S
C2428 C2409 1.368 . S
C2428 C2422 1.368 . S
C2428 C2427 1.523 . S
C2429 C2413 1.429 . S
C2429 C2425 1.429 . S
C2429 C2430 1.523 . S
C2430 C2414 1.368 . S
C2430 C2426 1.368 . S
C2430 C2429 1.523 . S
H2431 C2406 0.950 . S
H2432 C2408 0.950 . S
H2433 C2409 0.949 . S
H2434 C2411 0.950 . S
H2435 C2413 0.950 . S
C2436 C2437 1.349 . S
C2436 C2438 1.327 . S
C2436 H2461 0.950 . S
C2437 C2436 1.349 . S
C2437 C2453 1.349 . S
C2438 C2436 1.327 . S
C2438 C2457 1.429 . S
C2438 H2462 0.950 . S
C2439 C2456 1.574 . S
C2439 C2458 1.368 . S
C2439 H2463 0.949 . S
H2440 C2444 0.949 . S
C2441 C2442 1.349 . S
C2441 C2443 1.327 . S
C2441 H2464 0.950 . S
C2442 C2441 1.349 . S
C2442 C2454 1.349 . S
C2443 C2441 1.327 . S
C2443 C2459 1.429 . S
C2443 H2465 0.950 . S
C2444 H2440 0.949 . S
C2444 C2452 1.574 . S
C2444 C2460 1.368 . S
H2445 C2453 0.950 . S
H2446 C2451 0.950 . S
H2447 C2452 0.949 . S
H2448 C2454 0.950 . S
H2449 C2455 0.950 . S
H2450 C2456 0.949 . S
C2451 H2446 0.950 . S
C2451 C2453 1.327 . S
C2451 C2457 1.429 . S
C2452 C2444 1.574 . S
C2452 H2447 0.949 . S
C2452 C2458 1.368 . S
C2453 C2437 1.349 . S
C2453 H2445 0.950 . S
C2453 C2451 1.327 . S
C2454 C2442 1.349 . S
C2454 H2448 0.950 . S
C2454 C2455 1.327 . S
C2455 H2449 0.950 . S
C2455 C2454 1.327 . S
C2455 C2459 1.429 . S
C2456 C2439 1.574 . S
C2456 H2450 0.949 . S
C2456 C2460 1.368 . S
C2457 C2438 1.429 . S
C2457 C2451 1.429 . S
C2457 C2458 1.523 . S
C2458 C2439 1.368 . S
C2458 C2452 1.368 . S
C2458 C2457 1.523 . S
C2459 C2443 1.429 . S
C2459 C2455 1.429 . S
C2459 C2460 1.523 . S
C2460 C2444 1.368 . S
C2460 C2456 1.368 . S
C2460 C2459 1.523 . S
H2461 C2436 0.950 . S
H2462 C2438 0.950 . S
H2463 C2439 0.949 . S
H2464 C2441 0.950 . S
H2465 C2443 0.950 . S
C2466 C2467 1.349 . S
C2466 C2468 1.327 . S
C2466 H2491 0.950 . S
C2467 C2466 1.349 . S
C2467 C2483 1.349 . S
C2468 C2466 1.327 . S
C2468 C2487 1.429 1_545 S
C2468 H2492 0.944 1_545 S
C2469 C2486 1.574 . S
C2469 C2488 1.368 . S
C2469 H2493 0.949 . S
H2470 C2474 0.949 . S
C2471 C2472 1.349 . S
C2471 C2473 1.327 . S
C2471 H2494 0.950 . S
C2472 C2471 1.349 . S
C2472 C2484 1.349 . S
C2473 C2471 1.327 . S
C2473 C2489 1.429 . S
C2473 H2495 0.950 . S
C2474 H2470 0.949 . S
C2474 C2482 1.574 . S
C2474 C2490 1.368 . S
H2475 C2483 0.950 . S
H2476 C2481 0.950 . S
H2477 C2482 0.949 . S
H2478 C2484 0.950 . S
H2479 C2485 0.950 . S
H2480 C2486 0.949 . S
C2481 H2476 0.950 . S
C2481 C2483 1.327 . S
C2481 C2487 1.429 1_545 S
C2482 C2474 1.574 . S
C2482 H2477 0.949 . S
C2482 C2488 1.368 . S
C2483 C2467 1.349 . S
C2483 H2475 0.950 . S
C2483 C2481 1.327 . S
C2484 C2472 1.349 . S
C2484 H2478 0.950 . S
C2484 C2485 1.327 . S
C2485 H2479 0.950 . S
C2485 C2484 1.327 . S
C2485 C2489 1.429 . S
C2486 C2469 1.574 . S
C2486 H2480 0.949 . S
C2486 C2490 1.368 . S
C2487 C2468 1.429 1_565 S
C2487 C2481 1.429 1_565 S
C2487 C2488 1.523 . S
C2488 C2469 1.368 . S
C2488 C2482 1.368 . S
C2488 C2487 1.523 . S
C2489 C2473 1.429 . S
C2489 C2485 1.429 . S
C2489 C2490 1.523 . S
C2490 C2474 1.368 . S
C2490 C2486 1.368 . S
C2490 C2489 1.523 . S
H2491 C2466 0.950 . S
H2492 C2468 0.944 1_565 S
H2493 C2469 0.949 . S
H2494 C2471 0.950 . S
H2495 C2473 0.950 . S
C2496 C2497 1.349 . S
C2496 C2498 1.327 . S
C2496 H2521 0.950 . S
C2497 C2496 1.349 . S
C2497 C2513 1.349 . S
C2498 C2496 1.327 . S
C2498 C2517 1.429 . S
C2498 H2522 0.950 . S
C2499 C2516 1.574 . S
C2499 C2518 1.368 . S
C2499 H2523 0.949 . S
H2500 C2504 0.949 . S
C2501 C2502 1.349 . S
C2501 C2503 1.327 . S
C2501 H2524 0.950 . S
C2502 C2501 1.349 . S
C2502 C2514 1.349 . S
C2503 C2501 1.327 . S
C2503 C2519 1.429 . S
C2503 H2525 0.950 . S
C2504 H2500 0.949 . S
C2504 C2512 1.574 . S
C2504 C2520 1.368 . S
H2505 C2513 0.950 . S
H2506 C2511 0.950 . S
H2507 C2512 0.949 . S
H2508 C2514 0.950 . S
H2509 C2515 0.950 . S
H2510 C2516 0.949 . S
C2511 H2506 0.950 . S
C2511 C2513 1.327 . S
C2511 C2517 1.429 . S
C2512 C2504 1.574 . S
C2512 H2507 0.949 . S
C2512 C2518 1.368 . S
C2513 C2497 1.349 . S
C2513 H2505 0.950 . S
C2513 C2511 1.327 . S
C2514 C2502 1.349 . S
C2514 H2508 0.950 . S
C2514 C2515 1.327 . S
C2515 H2509 0.950 . S
C2515 C2514 1.327 . S
C2515 C2519 1.429 . S
C2516 C2499 1.574 . S
C2516 H2510 0.949 . S
C2516 C2520 1.368 . S
C2517 C2498 1.429 . S
C2517 C2511 1.429 . S
C2517 C2518 1.523 . S
C2518 C2499 1.368 . S
C2518 C2512 1.368 . S
C2518 C2517 1.523 . S
C2519 C2503 1.429 . S
C2519 C2515 1.429 . S
C2519 C2520 1.523 . S
C2520 C2504 1.368 . S
C2520 C2516 1.368 . S
C2520 C2519 1.523 . S
H2521 C2496 0.950 . S
H2522 C2498 0.950 . S
H2523 C2499 0.949 . S
H2524 C2501 0.950 . S
H2525 C2503 0.950 . S
C2526 C2527 1.349 . S
C2526 C2528 1.327 . S
C2526 H2551 0.950 . S
C2527 C2526 1.349 . S
C2527 C2543 1.351 1_455 S
C2528 C2526 1.327 . S
C2528 C2547 1.429 1_455 S
C2528 H2552 0.950 . S
C2529 C2546 1.574 . S
C2529 C2548 1.368 . S
C2529 H2553 0.949 . S
H2530 C2534 0.949 . S
C2531 C2532 1.349 . S
C2531 C2533 1.327 . S
C2531 H2554 0.950 . S
C2532 C2531 1.349 . S
C2532 C2544 1.349 . S
C2533 C2531 1.327 . S
C2533 C2549 1.429 . S
C2533 H2555 0.950 . S
C2534 H2530 0.949 . S
C2534 C2542 1.574 . S
C2534 C2550 1.368 . S
H2535 C2543 0.949 . S
H2536 C2541 0.950 . S
H2537 C2542 0.949 1_455 S
H2538 C2544 0.950 . S
H2539 C2545 0.950 . S
H2540 C2546 0.949 . S
C2541 H2536 0.950 . S
C2541 C2543 1.326 . S
C2541 C2547 1.429 . S
C2542 C2534 1.574 . S
C2542 H2537 0.949 1_655 S
C2542 C2548 1.368 . S
C2543 C2527 1.351 1_655 S
C2543 H2535 0.949 . S
C2543 C2541 1.326 . S
C2544 C2532 1.349 . S
C2544 H2538 0.950 . S
C2544 C2545 1.327 . S
C2545 H2539 0.950 . S
C2545 C2544 1.327 . S
C2545 C2549 1.429 . S
C2546 C2529 1.574 . S
C2546 H2540 0.949 . S
C2546 C2550 1.368 . S
C2547 C2528 1.429 1_655 S
C2547 C2541 1.429 . S
C2547 C2548 1.523 . S
C2548 C2529 1.368 . S
C2548 C2542 1.368 . S
C2548 C2547 1.523 . S
C2549 C2533 1.429 . S
C2549 C2545 1.429 . S
C2549 C2550 1.523 . S
C2550 C2534 1.368 . S
C2550 C2546 1.368 . S
C2550 C2549 1.523 . S
H2551 C2526 0.950 . S
H2552 C2528 0.950 . S
H2553 C2529 0.949 . S
H2554 C2531 0.950 . S
H2555 C2533 0.950 . S
C2556 C2557 1.349 . S
C2556 C2558 1.327 . S
C2556 H2581 0.950 . S
C2557 C2556 1.349 . S
C2557 C2573 1.349 . S
C2558 C2556 1.327 . S
C2558 C2577 1.429 . S
C2558 H2582 0.950 . S
C2559 C2576 1.574 . S
C2559 C2578 1.368 . S
C2559 H2583 0.949 . S
H2560 C2564 0.949 . S
C2561 C2562 1.349 . S
C2561 C2563 1.327 . S
C2561 H2584 0.950 . S
C2562 C2561 1.349 . S
C2562 C2574 1.349 . S
C2563 C2561 1.327 . S
C2563 C2579 1.429 . S
C2563 H2585 0.950 . S
C2564 H2560 0.949 . S
C2564 C2572 1.574 . S
C2564 C2580 1.368 . S
H2565 C2573 0.950 . S
H2566 C2571 0.950 . S
H2567 C2572 0.949 . S
H2568 C2574 0.950 . S
H2569 C2575 0.950 . S
H2570 C2576 0.949 . S
C2571 H2566 0.950 . S
C2571 C2573 1.327 . S
C2571 C2577 1.429 . S
C2572 C2564 1.574 . S
C2572 H2567 0.949 . S
C2572 C2578 1.368 . S
C2573 C2557 1.349 . S
C2573 H2565 0.950 . S
C2573 C2571 1.327 . S
C2574 C2562 1.349 . S
C2574 H2568 0.950 . S
C2574 C2575 1.327 . S
C2575 H2569 0.950 . S
C2575 C2574 1.327 . S
C2575 C2579 1.429 . S
C2576 C2559 1.574 . S
C2576 H2570 0.949 . S
C2576 C2580 1.368 . S
C2577 C2558 1.429 . S
C2577 C2571 1.429 . S
C2577 C2578 1.523 . S
C2578 C2559 1.368 . S
C2578 C2572 1.368 . S
C2578 C2577 1.523 . S
C2579 C2563 1.429 . S
C2579 C2575 1.429 . S
C2579 C2580 1.523 . S
C2580 C2564 1.368 . S
C2580 C2576 1.368 . S
C2580 C2579 1.523 . S
H2581 C2556 0.950 . S
H2582 C2558 0.950 . S
H2583 C2559 0.949 . S
H2584 C2561 0.950 . S
H2585 C2563 0.950 . S
C2586 C2587 1.349 . S
C2586 C2588 1.327 . S
C2586 H2611 0.950 . S
C2587 C2586 1.349 . S
C2587 C2603 1.349 . S
C2588 C2586 1.327 . S
C2588 C2607 1.429 . S
C2588 H2612 0.950 . S
C2589 C2606 1.574 . S
C2589 C2608 1.368 . S
C2589 H2613 0.949 . S
H2590 C2594 0.949 . S
C2591 C2592 1.349 . S
C2591 C2593 1.327 . S
C2591 H2614 0.950 . S
C2592 C2591 1.349 . S
C2592 C2604 1.349 . S
C2593 C2591 1.327 . S
C2593 C2609 1.429 . S
C2593 H2615 0.950 . S
C2594 H2590 0.949 . S
C2594 C2602 1.574 . S
C2594 C2610 1.368 . S
H2595 C2603 0.950 . S
H2596 C2601 0.950 . S
H2597 C2602 0.949 . S
H2598 C2604 0.950 . S
H2599 C2605 0.950 . S
H2600 C2606 0.949 . S
C2601 H2596 0.950 . S
C2601 C2603 1.327 . S
C2601 C2607 1.429 . S
C2602 C2594 1.574 . S
C2602 H2597 0.949 . S
C2602 C2608 1.368 . S
C2603 C2587 1.349 . S
C2603 H2595 0.950 . S
C2603 C2601 1.327 . S
C2604 C2592 1.349 . S
C2604 H2598 0.950 . S
C2604 C2605 1.327 . S
C2605 H2599 0.950 . S
C2605 C2604 1.327 . S
C2605 C2609 1.429 . S
C2606 C2589 1.574 . S
C2606 H2600 0.949 . S
C2606 C2610 1.368 . S
C2607 C2588 1.429 . S
C2607 C2601 1.429 . S
C2607 C2608 1.523 . S
C2608 C2589 1.368 . S
C2608 C2602 1.368 . S
C2608 C2607 1.523 . S
C2609 C2593 1.429 . S
C2609 C2605 1.429 . S
C2609 C2610 1.523 . S
C2610 C2594 1.368 . S
C2610 C2606 1.368 . S
C2610 C2609 1.523 . S
H2611 C2586 0.950 . S
H2612 C2588 0.950 . S
H2613 C2589 0.949 . S
H2614 C2591 0.950 . S
H2615 C2593 0.950 . S
C2616 C2617 1.349 . S
C2616 C2618 1.327 . S
C2616 H2641 0.950 . S
C2617 C2616 1.349 . S
C2617 C2633 1.349 . S
C2618 C2616 1.327 . S
C2618 C2637 1.429 . S
C2618 H2642 0.950 . S
C2619 C2636 1.574 . S
C2619 C2638 1.368 . S
C2619 H2643 0.949 . S
H2620 C2624 0.949 . S
C2621 C2622 1.349 . S
C2621 C2623 1.327 . S
C2621 H2644 0.950 . S
C2622 C2621 1.349 . S
C2622 C2634 1.349 . S
C2623 C2621 1.327 . S
C2623 C2639 1.429 . S
C2623 H2645 0.950 . S
C2624 H2620 0.949 . S
C2624 C2632 1.574 . S
C2624 C2640 1.368 . S
H2625 C2633 0.950 . S
H2626 C2631 0.950 . S
H2627 C2632 0.949 . S
H2628 C2634 0.950 . S
H2629 C2635 0.950 . S
H2630 C2636 0.949 . S
C2631 H2626 0.950 . S
C2631 C2633 1.327 . S
C2631 C2637 1.429 . S
C2632 C2624 1.574 . S
C2632 H2627 0.949 . S
C2632 C2638 1.368 . S
C2633 C2617 1.349 . S
C2633 H2625 0.950 . S
C2633 C2631 1.327 . S
C2634 C2622 1.349 . S
C2634 H2628 0.950 . S
C2634 C2635 1.327 . S
C2635 H2629 0.950 . S
C2635 C2634 1.327 . S
C2635 C2639 1.429 . S
C2636 C2619 1.574 . S
C2636 H2630 0.949 . S
C2636 C2640 1.368 . S
C2637 C2618 1.429 . S
C2637 C2631 1.429 . S
C2637 C2638 1.523 . S
C2638 C2619 1.368 . S
C2638 C2632 1.368 . S
C2638 C2637 1.523 . S
C2639 C2623 1.429 . S
C2639 C2635 1.429 . S
C2639 C2640 1.523 . S
C2640 C2624 1.368 . S
C2640 C2636 1.368 . S
C2640 C2639 1.523 . S
H2641 C2616 0.950 . S
H2642 C2618 0.950 . S
H2643 C2619 0.949 . S
H2644 C2621 0.950 . S
H2645 C2623 0.950 . S
C2646 C2647 1.349 . S
C2646 C2648 1.327 . S
C2646 H2671 0.950 . S
C2647 C2646 1.349 . S
C2647 C2663 1.349 . S
C2648 C2646 1.327 . S
C2648 C2667 1.429 . S
C2648 H2672 0.950 . S
C2649 C2666 1.574 . S
C2649 C2668 1.368 . S
C2649 H2673 0.949 . S
H2650 C2654 0.949 . S
C2651 C2652 1.349 . S
C2651 C2653 1.327 . S
C2651 H2674 0.950 . S
C2652 C2651 1.349 . S
C2652 C2664 1.349 . S
C2653 C2651 1.327 . S
C2653 C2669 1.429 . S
C2653 H2675 0.950 . S
C2654 H2650 0.949 . S
C2654 C2662 1.574 . S
C2654 C2670 1.368 . S
H2655 C2663 0.950 . S
H2656 C2661 0.950 . S
H2657 C2662 0.949 . S
H2658 C2664 0.950 . S
H2659 C2665 0.950 . S
H2660 C2666 0.949 . S
C2661 H2656 0.950 . S
C2661 C2663 1.327 . S
C2661 C2667 1.429 . S
C2662 C2654 1.574 . S
C2662 H2657 0.949 . S
C2662 C2668 1.368 . S
C2663 C2647 1.349 . S
C2663 H2655 0.950 . S
C2663 C2661 1.327 . S
C2664 C2652 1.349 . S
C2664 H2658 0.950 . S
C2664 C2665 1.327 . S
C2665 H2659 0.950 . S
C2665 C2664 1.327 . S
C2665 C2669 1.429 . S
C2666 C2649 1.574 . S
C2666 H2660 0.949 . S
C2666 C2670 1.368 . S
C2667 C2648 1.429 . S
C2667 C2661 1.429 . S
C2667 C2668 1.523 . S
C2668 C2649 1.368 . S
C2668 C2662 1.368 . S
C2668 C2667 1.523 . S
C2669 C2653 1.429 . S
C2669 C2665 1.429 . S
C2669 C2670 1.523 . S
C2670 C2654 1.368 . S
C2670 C2666 1.368 . S
C2670 C2669 1.523 . S
H2671 C2646 0.950 . S
H2672 C2648 0.950 . S
H2673 C2649 0.949 . S
H2674 C2651 0.950 . S
H2675 C2653 0.950 . S
C2676 C2677 1.349 . S
C2676 C2678 1.358 . S
C2676 H2701 0.950 . S
C2677 C2676 1.349 . S
C2677 C2693 1.349 . S
C2678 C2676 1.358 . S
C2678 C2697 1.424 1_656 S
C2678 H2702 0.923 1_655 S
C2679 C2696 1.574 . S
C2679 C2698 1.368 . S
C2679 H2703 0.949 . S
H2680 C2684 0.949 . S
C2681 C2682 1.349 . S
C2681 C2683 1.327 . S
C2681 H2704 0.950 . S
C2682 C2681 1.349 . S
C2682 C2694 1.349 . S
C2683 C2681 1.327 . S
C2683 C2699 1.429 . S
C2683 H2705 0.950 . S
C2684 H2680 0.949 . S
C2684 C2692 1.574 . S
C2684 C2700 1.368 . S
H2685 C2693 0.950 . S
H2686 C2691 0.950 . S
H2687 C2692 0.949 . S
H2688 C2694 0.950 . S
H2689 C2695 0.950 . S
H2690 C2696 0.949 . S
C2691 H2686 0.950 . S
C2691 C2693 1.327 1_554 S
C2691 C2697 1.429 1_655 S
C2692 C2684 1.574 . S
C2692 H2687 0.949 . S
C2692 C2698 1.368 . S
C2693 C2677 1.349 . S
C2693 H2685 0.950 . S
C2693 C2691 1.327 1_556 S
C2694 C2682 1.349 . S
C2694 H2688 0.950 . S
C2694 C2695 1.327 . S
C2695 H2689 0.950 . S
C2695 C2694 1.327 . S
C2695 C2699 1.429 . S
C2696 C2679 1.574 . S
C2696 H2690 0.949 . S
C2696 C2700 1.368 . S
C2697 C2678 1.424 1_454 S
C2697 C2691 1.429 1_455 S
C2697 C2698 1.523 . S
C2698 C2679 1.368 . S
C2698 C2692 1.368 . S
C2698 C2697 1.523 . S
C2699 C2683 1.429 . S
C2699 C2695 1.429 . S
C2699 C2700 1.523 . S
C2700 C2684 1.368 . S
C2700 C2696 1.368 . S
C2700 C2699 1.523 . S
H2701 C2676 0.950 . S
H2702 C2678 0.923 1_455 S
H2703 C2679 0.949 . S
H2704 C2681 0.950 . S
H2705 C2683 0.950 . S
C2706 C2707 1.349 . S
C2706 C2708 1.327 . S
C2706 H2731 0.950 . S
C2707 C2706 1.349 . S
C2707 C2723 1.349 . S
C2708 C2706 1.327 . S
C2708 C2727 1.429 . S
C2708 H2732 0.950 . S
C2709 C2726 1.574 . S
C2709 C2728 1.368 . S
C2709 H2733 0.949 . S
H2710 C2714 0.949 . S
C2711 C2712 1.349 . S
C2711 C2713 1.327 . S
C2711 H2734 0.950 . S
C2712 C2711 1.349 . S
C2712 C2724 1.349 . S
C2713 C2711 1.327 . S
C2713 C2729 1.429 . S
C2713 H2735 0.950 . S
C2714 H2710 0.949 . S
C2714 C2722 1.574 . S
C2714 C2730 1.368 . S
H2715 C2723 0.950 . S
H2716 C2721 0.950 . S
H2717 C2722 0.949 . S
H2718 C2724 0.950 . S
H2719 C2725 0.950 . S
H2720 C2726 0.949 . S
C2721 H2716 0.950 . S
C2721 C2723 1.327 . S
C2721 C2727 1.429 . S
C2722 C2714 1.574 . S
C2722 H2717 0.949 . S
C2722 C2728 1.368 . S
C2723 C2707 1.349 . S
C2723 H2715 0.950 . S
C2723 C2721 1.327 . S
C2724 C2712 1.349 . S
C2724 H2718 0.950 . S
C2724 C2725 1.327 . S
C2725 H2719 0.950 . S
C2725 C2724 1.327 . S
C2725 C2729 1.429 . S
C2726 C2709 1.574 . S
C2726 H2720 0.949 . S
C2726 C2730 1.368 . S
C2727 C2708 1.429 . S
C2727 C2721 1.429 . S
C2727 C2728 1.523 . S
C2728 C2709 1.368 . S
C2728 C2722 1.368 . S
C2728 C2727 1.523 . S
C2729 C2713 1.429 . S
C2729 C2725 1.429 . S
C2729 C2730 1.523 . S
C2730 C2714 1.368 . S
C2730 C2726 1.368 . S
C2730 C2729 1.523 . S
H2731 C2706 0.950 . S
H2732 C2708 0.950 . S
H2733 C2709 0.949 . S
H2734 C2711 0.950 . S
H2735 C2713 0.950 . S
C2736 C2737 1.349 . S
C2736 C2738 1.327 . S
C2736 H2761 0.950 . S
C2737 C2736 1.349 . S
C2737 C2753 1.349 . S
C2738 C2736 1.327 . S
C2738 C2757 1.429 . S
C2738 H2762 0.950 . S
C2739 C2756 1.574 . S
C2739 C2758 1.368 . S
C2739 H2763 0.949 . S
H2740 C2744 0.949 . S
C2741 C2742 1.349 . S
C2741 C2743 1.327 . S
C2741 H2764 0.950 . S
C2742 C2741 1.349 . S
C2742 C2754 1.349 . S
C2743 C2741 1.327 . S
C2743 C2759 1.429 . S
C2743 H2765 0.950 . S
C2744 H2740 0.949 . S
C2744 C2752 1.574 . S
C2744 C2760 1.368 . S
H2745 C2753 0.950 . S
H2746 C2751 0.950 . S
H2747 C2752 0.949 . S
H2748 C2754 0.950 . S
H2749 C2755 0.950 . S
H2750 C2756 0.949 . S
C2751 H2746 0.950 . S
C2751 C2753 1.327 . S
C2751 C2757 1.429 . S
C2752 C2744 1.574 . S
C2752 H2747 0.949 . S
C2752 C2758 1.368 . S
C2753 C2737 1.349 . S
C2753 H2745 0.950 . S
C2753 C2751 1.327 . S
C2754 C2742 1.349 . S
C2754 H2748 0.950 . S
C2754 C2755 1.327 . S
C2755 H2749 0.950 . S
C2755 C2754 1.327 . S
C2755 C2759 1.429 . S
C2756 C2739 1.574 . S
C2756 H2750 0.949 . S
C2756 C2760 1.368 . S
C2757 C2738 1.429 . S
C2757 C2751 1.429 . S
C2757 C2758 1.523 . S
C2758 C2739 1.368 . S
C2758 C2752 1.368 . S
C2758 C2757 1.523 . S
C2759 C2743 1.429 . S
C2759 C2755 1.429 . S
C2759 C2760 1.523 . S
C2760 C2744 1.368 . S
C2760 C2756 1.368 . S
C2760 C2759 1.523 . S
H2761 C2736 0.950 . S
H2762 C2738 0.950 . S
H2763 C2739 0.949 . S
H2764 C2741 0.950 . S
H2765 C2743 0.950 . S
C2766 C2767 1.349 . S
C2766 C2768 1.327 . S
C2766 H2791 0.950 . S
C2767 C2766 1.349 . S
C2767 C2783 1.349 . S
C2768 C2766 1.327 . S
C2768 C2787 1.429 . S
C2768 H2792 0.950 . S
C2769 C2786 1.574 . S
C2769 C2788 1.368 . S
C2769 H2793 0.949 . S
H2770 C2774 0.949 . S
C2771 C2772 1.349 . S
C2771 C2773 1.327 . S
C2771 H2794 0.950 . S
C2772 C2771 1.349 . S
C2772 C2784 1.349 . S
C2773 C2771 1.327 . S
C2773 C2789 1.429 . S
C2773 H2795 0.950 . S
C2774 H2770 0.949 . S
C2774 C2782 1.574 . S
C2774 C2790 1.368 . S
H2775 C2783 0.950 . S
H2776 C2781 0.950 . S
H2777 C2782 0.949 . S
H2778 C2784 0.950 . S
H2779 C2785 0.950 . S
H2780 C2786 0.949 . S
C2781 H2776 0.950 . S
C2781 C2783 1.327 . S
C2781 C2787 1.429 . S
C2782 C2774 1.574 . S
C2782 H2777 0.949 . S
C2782 C2788 1.368 . S
C2783 C2767 1.349 . S
C2783 H2775 0.950 . S
C2783 C2781 1.327 . S
C2784 C2772 1.349 . S
C2784 H2778 0.950 . S
C2784 C2785 1.327 . S
C2785 H2779 0.950 . S
C2785 C2784 1.327 . S
C2785 C2789 1.429 . S
C2786 C2769 1.574 . S
C2786 H2780 0.949 . S
C2786 C2790 1.368 . S
C2787 C2768 1.429 . S
C2787 C2781 1.429 . S
C2787 C2788 1.523 . S
C2788 C2769 1.368 . S
C2788 C2782 1.368 . S
C2788 C2787 1.523 . S
C2789 C2773 1.429 . S
C2789 C2785 1.429 . S
C2789 C2790 1.523 . S
C2790 C2774 1.368 . S
C2790 C2786 1.368 . S
C2790 C2789 1.523 . S
H2791 C2766 0.950 . S
H2792 C2768 0.950 . S
H2793 C2769 0.949 . S
H2794 C2771 0.950 . S
H2795 C2773 0.950 . S
C2796 C2797 1.349 . S
C2796 C2798 1.327 . S
C2796 H2821 0.950 . S
C2797 C2796 1.349 . S
C2797 C2813 1.349 1_554 S
C2798 C2796 1.327 . S
C2798 C2817 1.429 1_554 S
C2798 H2822 0.950 . S
C2799 C2816 1.574 . S
C2799 C2818 1.368 . S
C2799 H2823 0.949 . S
H2800 C2804 0.949 . S
C2801 C2802 1.349 . S
C2801 C2803 1.327 . S
C2801 H2824 0.950 . S
C2802 C2801 1.349 . S
C2802 C2814 1.349 . S
C2803 C2801 1.327 . S
C2803 C2819 1.429 . S
C2803 H2825 0.950 . S
C2804 H2800 0.949 . S
C2804 C2812 1.589 . S
C2804 C2820 1.368 . S
H2805 C2813 0.950 . S
H2806 C2811 0.950 . S
H2807 C2812 0.916 1_554 S
H2808 C2814 0.950 . S
H2809 C2815 0.950 . S
H2810 C2816 0.949 . S
C2811 H2806 0.950 . S
C2811 C2813 1.327 . S
C2811 C2817 1.429 . S
C2812 C2804 1.589 . S
C2812 H2807 0.916 1_556 S
C2812 C2818 1.390 . S
C2813 C2797 1.349 1_556 S
C2813 H2805 0.950 . S
C2813 C2811 1.327 . S
C2814 C2802 1.349 . S
C2814 H2808 0.950 . S
C2814 C2815 1.327 . S
C2815 H2809 0.950 . S
C2815 C2814 1.327 . S
C2815 C2819 1.429 . S
C2816 C2799 1.574 . S
C2816 H2810 0.949 . S
C2816 C2820 1.368 . S
C2817 C2798 1.429 1_556 S
C2817 C2811 1.429 . S
C2817 C2818 1.523 . S
C2818 C2799 1.368 . S
C2818 C2812 1.390 . S
C2818 C2817 1.523 . S
C2819 C2803 1.429 . S
C2819 C2815 1.429 . S
C2819 C2820 1.523 . S
C2820 C2804 1.368 . S
C2820 C2816 1.368 . S
C2820 C2819 1.523 . S
H2821 C2796 0.950 . S
H2822 C2798 0.950 . S
H2823 C2799 0.949 . S
H2824 C2801 0.950 . S
H2825 C2803 0.950 . S
C2826 C2827 1.349 . S
C2826 C2828 1.327 . S
C2826 H2851 0.950 . S
C2827 C2826 1.349 . S
C2827 C2843 1.349 . S
C2828 C2826 1.327 . S
C2828 C2847 1.429 . S
C2828 H2852 0.950 . S
C2829 C2846 1.574 . S
C2829 C2848 1.368 . S
C2829 H2853 0.949 . S
H2830 C2834 0.949 . S
C2831 C2832 1.349 . S
C2831 C2833 1.327 . S
C2831 H2854 0.950 . S
C2832 C2831 1.349 . S
C2832 C2844 1.349 . S
C2833 C2831 1.327 . S
C2833 C2849 1.429 1_455 S
C2833 H2855 0.950 1_455 S
C2834 H2830 0.949 . S
C2834 C2842 1.574 . S
C2834 C2850 1.368 . S
H2835 C2843 0.950 . S
H2836 C2841 0.950 . S
H2837 C2842 0.949 . S
H2838 C2844 0.950 . S
H2839 C2845 0.950 . S
H2840 C2846 0.949 . S
C2841 H2836 0.950 . S
C2841 C2843 1.327 . S
C2841 C2847 1.429 . S
C2842 C2834 1.574 . S
C2842 H2837 0.949 . S
C2842 C2848 1.368 . S
C2843 C2827 1.349 . S
C2843 H2835 0.950 . S
C2843 C2841 1.327 . S
C2844 C2832 1.349 . S
C2844 H2838 0.950 . S
C2844 C2845 1.327 . S
C2845 H2839 0.950 . S
C2845 C2844 1.327 . S
C2845 C2849 1.429 1_455 S
C2846 C2829 1.574 . S
C2846 H2840 0.949 . S
C2846 C2850 1.368 . S
C2847 C2828 1.429 . S
C2847 C2841 1.429 . S
C2847 C2848 1.523 . S
C2848 C2829 1.368 . S
C2848 C2842 1.368 . S
C2848 C2847 1.523 . S
C2849 C2833 1.429 1_655 S
C2849 C2845 1.429 1_655 S
C2849 C2850 1.523 . S
C2850 C2834 1.368 . S
C2850 C2846 1.368 . S
C2850 C2849 1.523 . S
H2851 C2826 0.950 . S
H2852 C2828 0.950 . S
H2853 C2829 0.949 . S
H2854 C2831 0.950 . S
H2855 C2833 0.950 1_655 S
C1417 C536 1.052 . S
C1422 C5 1.052 . S
C1447 C64 1.052 . S
C1452 C595 1.052 . S
C1477 C123 1.052 . S
C1482 C654 1.052 . S
C1507 C182 1.052 . S
C1512 C477 1.052 . S
C1537 C241 1.052 . S
C1542 C890 1.052 . S
C1567 C713 1.052 . S
C1572 C300 1.052 . S
C1597 C359 1.052 . S
C1602 C772 1.052 . S
C1627 C831 1.052 . S
C1632 C418 1.052 . S
C1657 C949 1.052 . S
C1662 C1067 1.052 . S
C1687 C1303 1.052 . S
C1692 C1008 1.052 . S
C1717 C1126 1.052 . S
C1722 C1362 1.052 . S
C1747 C1244 1.052 . S
C1752 C1185 1.052 . S
C1777 C1183 1.993 . S
C1782 C3 1.993 . S
C1807 C62 1.993 . S
C1812 C1006 1.993 . S
C1837 C121 1.993 . S
C1842 C1065 1.993 . S
C1867 C180 1.993 . S
C1872 C1124 1.993 . S
C1897 C239 1.993 . S
C1902 C1360 1.993 . S
C1927 C1242 1.993 . S
C1932 C298 1.993 . S
C1957 C1301 1.993 . S
C1962 C357 1.993 . S
C1987 C947 1.993 . S
C1992 C416 1.993 . S
C2017 C888 1.993 . S
C2022 C475 1.993 . S
C2047 C534 1.993 . S
C2052 C711 1.993 . S
C2077 C770 1.993 . S
C2082 C593 1.993 . S
C2107 C829 1.993 . S
C2112 C652 1.993 . S
C2137 C52 1.153 . S
C2142 C977 1.137 . S
C2167 C1390 1.137 . S
C2172 C111 1.153 . S
C2197 C1272 1.137 . S
C2202 C170 1.153 . S
C2227 C229 1.153 . S
C2232 C1331 1.137 . S
C2257 C288 1.153 . S
C2262 C1036 1.137 . S
C2287 C1095 1.137 . S
C2292 C347 1.153 . S
C2317 C1154 1.137 . S
C2322 C406 1.153 . S
C2347 C1213 1.137 . S
C2352 C465 1.153 . S
C2377 C33 1.137 . S
C2382 C524 1.153 . S
C2407 C92 1.137 . S
C2412 C583 1.153 . S
C2437 C151 1.137 . S
C2442 C642 1.153 . S
C2467 C210 1.137 . S
C2472 C701 1.153 . S
C2497 C269 1.137 . S
C2502 C760 1.153 . S
C2527 C328 1.137 . S
C2532 C819 1.153 . S
C2557 C878 1.153 . S
C2562 C387 1.137 . S
C2587 C446 1.137 . S
C2592 C937 1.153 . S
C2617 C505 1.137 . S
C2622 C996 1.153 . S
C2647 C1055 1.153 . S
C2652 C741 1.137 . S
C2677 C800 1.137 . S
C2682 C1114 1.153 . S
C2707 C1173 1.153 . S
C2712 C859 1.137 . S
C2737 C1232 1.153 . S
C2742 C918 1.137 . S
C2767 C1291 1.153 . S
C2772 C623 1.137 . S
C2797 C682 1.137 . S
C2802 C1350 1.153 . S
C2827 C1409 1.153 . S
C2832 C564 1.137 . S
