# Generated by pormake.
# Topology ech, (8)-cn, num edge types: 1
# Building blocks:
#     Node 0, Type 0, BuildingBlock: VETTIZ_charged_sbu_0, # of connection points: 8
#     Node 1, Type 0, BuildingBlock: VETTIZ_charged_sbu_0, # of connection points: 8
#     Node 2, Type 0, BuildingBlock: VETTIZ_charged_sbu_0, # of connection points: 8
#     Node 3, Type 0, BuildingBlock: VETTIZ_charged_sbu_0, # of connection points: 8
#     Node 4, Type 0, BuildingBlock: VETTIZ_charged_sbu_0, # of connection points: 8
#     Node 5, Type 0, BuildingBlock: VETTIZ_charged_sbu_0, # of connection points: 8
#     Node 6, Type 0, BuildingBlock: VETTIZ_charged_sbu_0, # of connection points: 8
#     Node 7, Type 0, BuildingBlock: VETTIZ_charged_sbu_0, # of connection points: 8
#     Node 8, Type 0, BuildingBlock: VETTIZ_charged_sbu_0, # of connection points: 8
#     Node 9, Type 0, BuildingBlock: VETTIZ_charged_sbu_0, # of connection points: 8
#     Node 10, Type 0, BuildingBlock: VETTIZ_charged_sbu_0, # of connection points: 8
#     Node 11, Type 0, BuildingBlock: VETTIZ_charged_sbu_0, # of connection points: 8
#     Node 12, Type 0, BuildingBlock: VETTIZ_charged_sbu_0, # of connection points: 8
#     Node 13, Type 0, BuildingBlock: VETTIZ_charged_sbu_0, # of connection points: 8
#     Node 14, Type 0, BuildingBlock: VETTIZ_charged_sbu_0, # of connection points: 8
#     Node 15, Type 0, BuildingBlock: VETTIZ_charged_sbu_0, # of connection points: 8
#     Node 16, Type 0, BuildingBlock: VETTIZ_charged_sbu_0, # of connection points: 8
#     Node 17, Type 0, BuildingBlock: VETTIZ_charged_sbu_0, # of connection points: 8
#     Node 18, Type 0, BuildingBlock: VETTIZ_charged_sbu_0, # of connection points: 8
#     Node 19, Type 0, BuildingBlock: VETTIZ_charged_sbu_0, # of connection points: 8
#     Node 20, Type 0, BuildingBlock: VETTIZ_charged_sbu_0, # of connection points: 8
#     Node 21, Type 0, BuildingBlock: VETTIZ_charged_sbu_0, # of connection points: 8
#     Node 22, Type 0, BuildingBlock: VETTIZ_charged_sbu_0, # of connection points: 8
#     Node 23, Type 0, BuildingBlock: VETTIZ_charged_sbu_0, # of connection points: 8
#     Edge 24, Type (0, 0), BuildingBlock: UVAHIK_clean_linker_0, # of connection points: 2
#     Edge 25, Type (0, 0), BuildingBlock: UVAHIK_clean_linker_0, # of connection points: 2
#     Edge 26, Type (0, 0), BuildingBlock: UVAHIK_clean_linker_0, # of connection points: 2
#     Edge 27, Type (0, 0), BuildingBlock: UVAHIK_clean_linker_0, # of connection points: 2
#     Edge 28, Type (0, 0), BuildingBlock: UVAHIK_clean_linker_0, # of connection points: 2
#     Edge 29, Type (0, 0), BuildingBlock: UVAHIK_clean_linker_0, # of connection points: 2
#     Edge 30, Type (0, 0), BuildingBlock: UVAHIK_clean_linker_0, # of connection points: 2
#     Edge 31, Type (0, 0), BuildingBlock: UVAHIK_clean_linker_0, # of connection points: 2
#     Edge 32, Type (0, 0), BuildingBlock: UVAHIK_clean_linker_0, # of connection points: 2
#     Edge 33, Type (0, 0), BuildingBlock: UVAHIK_clean_linker_0, # of connection points: 2
#     Edge 34, Type (0, 0), BuildingBlock: UVAHIK_clean_linker_0, # of connection points: 2
#     Edge 35, Type (0, 0), BuildingBlock: UVAHIK_clean_linker_0, # of connection points: 2
#     Edge 36, Type (0, 0), BuildingBlock: UVAHIK_clean_linker_0, # of connection points: 2
#     Edge 37, Type (0, 0), BuildingBlock: UVAHIK_clean_linker_0, # of connection points: 2
#     Edge 38, Type (0, 0), BuildingBlock: UVAHIK_clean_linker_0, # of connection points: 2
#     Edge 39, Type (0, 0), BuildingBlock: UVAHIK_clean_linker_0, # of connection points: 2
#     Edge 40, Type (0, 0), BuildingBlock: UVAHIK_clean_linker_0, # of connection points: 2
#     Edge 41, Type (0, 0), BuildingBlock: UVAHIK_clean_linker_0, # of connection points: 2
#     Edge 42, Type (0, 0), BuildingBlock: UVAHIK_clean_linker_0, # of connection points: 2
#     Edge 43, Type (0, 0), BuildingBlock: UVAHIK_clean_linker_0, # of connection points: 2
#     Edge 44, Type (0, 0), BuildingBlock: UVAHIK_clean_linker_0, # of connection points: 2
#     Edge 45, Type (0, 0), BuildingBlock: UVAHIK_clean_linker_0, # of connection points: 2
#     Edge 46, Type (0, 0), BuildingBlock: UVAHIK_clean_linker_0, # of connection points: 2
#     Edge 47, Type (0, 0), BuildingBlock: UVAHIK_clean_linker_0, # of connection points: 2
#     Edge 48, Type (0, 0), BuildingBlock: UVAHIK_clean_linker_0, # of connection points: 2
#     Edge 49, Type (0, 0), BuildingBlock: UVAHIK_clean_linker_0, # of connection points: 2
#     Edge 50, Type (0, 0), BuildingBlock: UVAHIK_clean_linker_0, # of connection points: 2
#     Edge 51, Type (0, 0), BuildingBlock: UVAHIK_clean_linker_0, # of connection points: 2
#     Edge 52, Type (0, 0), BuildingBlock: UVAHIK_clean_linker_0, # of connection points: 2
#     Edge 53, Type (0, 0), BuildingBlock: UVAHIK_clean_linker_0, # of connection points: 2
#     Edge 54, Type (0, 0), BuildingBlock: UVAHIK_clean_linker_0, # of connection points: 2
#     Edge 55, Type (0, 0), BuildingBlock: UVAHIK_clean_linker_0, # of connection points: 2
#     Edge 56, Type (0, 0), BuildingBlock: UVAHIK_clean_linker_0, # of connection points: 2
#     Edge 57, Type (0, 0), BuildingBlock: UVAHIK_clean_linker_0, # of connection points: 2
#     Edge 58, Type (0, 0), BuildingBlock: UVAHIK_clean_linker_0, # of connection points: 2
#     Edge 59, Type (0, 0), BuildingBlock: UVAHIK_clean_linker_0, # of connection points: 2
#     Edge 60, Type (0, 0), BuildingBlock: UVAHIK_clean_linker_0, # of connection points: 2
#     Edge 61, Type (0, 0), BuildingBlock: UVAHIK_clean_linker_0, # of connection points: 2
#     Edge 62, Type (0, 0), BuildingBlock: UVAHIK_clean_linker_0, # of connection points: 2
#     Edge 63, Type (0, 0), BuildingBlock: UVAHIK_clean_linker_0, # of connection points: 2
#     Edge 64, Type (0, 0), BuildingBlock: UVAHIK_clean_linker_0, # of connection points: 2
#     Edge 65, Type (0, 0), BuildingBlock: UVAHIK_clean_linker_0, # of connection points: 2
#     Edge 66, Type (0, 0), BuildingBlock: UVAHIK_clean_linker_0, # of connection points: 2
#     Edge 67, Type (0, 0), BuildingBlock: UVAHIK_clean_linker_0, # of connection points: 2
#     Edge 68, Type (0, 0), BuildingBlock: UVAHIK_clean_linker_0, # of connection points: 2
#     Edge 69, Type (0, 0), BuildingBlock: UVAHIK_clean_linker_0, # of connection points: 2
#     Edge 70, Type (0, 0), BuildingBlock: UVAHIK_clean_linker_0, # of connection points: 2
#     Edge 71, Type (0, 0), BuildingBlock: UVAHIK_clean_linker_0, # of connection points: 2
#     Edge 72, Type (0, 0), BuildingBlock: UVAHIK_clean_linker_0, # of connection points: 2
#     Edge 73, Type (0, 0), BuildingBlock: UVAHIK_clean_linker_0, # of connection points: 2
#     Edge 74, Type (0, 0), BuildingBlock: UVAHIK_clean_linker_0, # of connection points: 2
#     Edge 75, Type (0, 0), BuildingBlock: UVAHIK_clean_linker_0, # of connection points: 2
#     Edge 76, Type (0, 0), BuildingBlock: UVAHIK_clean_linker_0, # of connection points: 2
#     Edge 77, Type (0, 0), BuildingBlock: UVAHIK_clean_linker_0, # of connection points: 2
#     Edge 78, Type (0, 0), BuildingBlock: UVAHIK_clean_linker_0, # of connection points: 2
#     Edge 79, Type (0, 0), BuildingBlock: UVAHIK_clean_linker_0, # of connection points: 2
#     Edge 80, Type (0, 0), BuildingBlock: UVAHIK_clean_linker_0, # of connection points: 2
#     Edge 81, Type (0, 0), BuildingBlock: UVAHIK_clean_linker_0, # of connection points: 2
#     Edge 82, Type (0, 0), BuildingBlock: UVAHIK_clean_linker_0, # of connection points: 2
#     Edge 83, Type (0, 0), BuildingBlock: UVAHIK_clean_linker_0, # of connection points: 2
#     Edge 84, Type (0, 0), BuildingBlock: UVAHIK_clean_linker_0, # of connection points: 2
#     Edge 85, Type (0, 0), BuildingBlock: UVAHIK_clean_linker_0, # of connection points: 2
#     Edge 86, Type (0, 0), BuildingBlock: UVAHIK_clean_linker_0, # of connection points: 2
#     Edge 87, Type (0, 0), BuildingBlock: UVAHIK_clean_linker_0, # of connection points: 2
#     Edge 88, Type (0, 0), BuildingBlock: UVAHIK_clean_linker_0, # of connection points: 2
#     Edge 89, Type (0, 0), BuildingBlock: UVAHIK_clean_linker_0, # of connection points: 2
#     Edge 90, Type (0, 0), BuildingBlock: UVAHIK_clean_linker_0, # of connection points: 2
#     Edge 91, Type (0, 0), BuildingBlock: UVAHIK_clean_linker_0, # of connection points: 2
#     Edge 92, Type (0, 0), BuildingBlock: UVAHIK_clean_linker_0, # of connection points: 2
#     Edge 93, Type (0, 0), BuildingBlock: UVAHIK_clean_linker_0, # of connection points: 2
#     Edge 94, Type (0, 0), BuildingBlock: UVAHIK_clean_linker_0, # of connection points: 2
#     Edge 95, Type (0, 0), BuildingBlock: UVAHIK_clean_linker_0, # of connection points: 2
#     Edge 96, Type (0, 0), BuildingBlock: UVAHIK_clean_linker_0, # of connection points: 2
#     Edge 97, Type (0, 0), BuildingBlock: UVAHIK_clean_linker_0, # of connection points: 2
#     Edge 98, Type (0, 0), BuildingBlock: UVAHIK_clean_linker_0, # of connection points: 2
#     Edge 99, Type (0, 0), BuildingBlock: UVAHIK_clean_linker_0, # of connection points: 2
#     Edge 100, Type (0, 0), BuildingBlock: UVAHIK_clean_linker_0, # of connection points: 2
#     Edge 101, Type (0, 0), BuildingBlock: UVAHIK_clean_linker_0, # of connection points: 2
#     Edge 102, Type (0, 0), BuildingBlock: UVAHIK_clean_linker_0, # of connection points: 2
#     Edge 103, Type (0, 0), BuildingBlock: UVAHIK_clean_linker_0, # of connection points: 2
#     Edge 104, Type (0, 0), BuildingBlock: UVAHIK_clean_linker_0, # of connection points: 2
#     Edge 105, Type (0, 0), BuildingBlock: UVAHIK_clean_linker_0, # of connection points: 2
#     Edge 106, Type (0, 0), BuildingBlock: UVAHIK_clean_linker_0, # of connection points: 2
#     Edge 107, Type (0, 0), BuildingBlock: UVAHIK_clean_linker_0, # of connection points: 2
#     Edge 108, Type (0, 0), BuildingBlock: UVAHIK_clean_linker_0, # of connection points: 2
#     Edge 109, Type (0, 0), BuildingBlock: UVAHIK_clean_linker_0, # of connection points: 2
#     Edge 110, Type (0, 0), BuildingBlock: UVAHIK_clean_linker_0, # of connection points: 2
#     Edge 111, Type (0, 0), BuildingBlock: UVAHIK_clean_linker_0, # of connection points: 2
#     Edge 112, Type (0, 0), BuildingBlock: UVAHIK_clean_linker_0, # of connection points: 2
#     Edge 113, Type (0, 0), BuildingBlock: UVAHIK_clean_linker_0, # of connection points: 2
#     Edge 114, Type (0, 0), BuildingBlock: UVAHIK_clean_linker_0, # of connection points: 2
#     Edge 115, Type (0, 0), BuildingBlock: UVAHIK_clean_linker_0, # of connection points: 2
#     Edge 116, Type (0, 0), BuildingBlock: UVAHIK_clean_linker_0, # of connection points: 2
#     Edge 117, Type (0, 0), BuildingBlock: UVAHIK_clean_linker_0, # of connection points: 2
#     Edge 118, Type (0, 0), BuildingBlock: UVAHIK_clean_linker_0, # of connection points: 2
#     Edge 119, Type (0, 0), BuildingBlock: UVAHIK_clean_linker_0, # of connection points: 2
# Relax obj value: 0.279
# Max RMSD: 0.287
# Mean RMSD: 0.287
data_MOF--net-ech--node1-VETTIZ_charged_sbu_0--edge1-UVAHIK_clean_linker_0
_symmetry_space_group_name_H-M    P1
_symmetry_Int_Tables_number       1
_symmetry_cell_setting            triclinic
loop_
_symmetry_equiv_pos_as_xyz
'x, y, z'
_cell_length_a     58.472073
_cell_length_b     58.387438
_cell_length_c     58.35501
_cell_angle_alpha  89.99145
_cell_angle_beta   89.762759
_cell_angle_gamma 90.014848
loop_
_atom_site_label
_atom_site_type_symbol
_atom_site_fract_x
_atom_site_fract_y
_atom_site_fract_z
_atom_type_partial_charge
Fe0 Fe 0.13155 0.32465 0.43965 0.0
O1 O 0.12142 0.3039 0.41459 0.0
Fe2 Fe 0.1795 0.29769 0.46179 0.0
Fe3 Fe 0.10358 0.31406 0.38839 0.0
O4 O 0.16213 0.30977 0.43524 0.0
O5 O 0.1627 0.30748 0.43429 0.0
O6 O 0.12182 0.30207 0.41387 0.0
Fe7 Fe 0.15123 0.28511 0.41087 0.0
C8 C 0.0792 0.32821 0.43221 0.0
O9 O 0.13978 0.35064 0.41714 0.0
O10 O 0.10933 0.34815 0.39442 0.0
O11 O 0.18365 0.27043 0.41075 0.0
O12 O 0.20511 0.29066 0.43721 0.0
O13 O 0.18399 0.33239 0.46777 0.0
O14 O 0.14652 0.34483 0.46543 0.0
O15 O 0.13066 0.31485 0.36528 0.0
O16 O 0.16243 0.30724 0.38521 0.0
C17 C 0.16775 0.34714 0.47189 0.0
O18 O 0.14063 0.2621 0.43624 0.0
O19 O 0.17199 0.26373 0.45772 0.0
O20 O 0.09758 0.33648 0.44176 0.0
O21 O 0.0786 0.3165 0.41325 0.0
C22 C 0.12587 0.35942 0.40289 0.0
C23 C 0.15234 0.31589 0.36784 0.0
C24 C 0.11425 0.2632 0.37927 0.0
O25 O 0.09968 0.27979 0.38121 0.0
O26 O 0.13527 0.26349 0.38665 0.0
C27 C 0.20296 0.27631 0.42009 0.0
O28 O 0.15224 0.30068 0.4855 0.0
O29 O 0.12223 0.29997 0.46264 0.0
C30 C 0.15362 0.25392 0.45175 0.0
C31 C 0.13073 0.29818 0.48246 0.0
Fe32 Fe 0.35242 0.74187 0.88912 0.0
O33 O 0.36458 0.71605 0.90759 0.0
Fe34 Fe 0.39842 0.70545 0.90128 0.0
Fe35 Fe 0.36647 0.71798 0.94176 0.0
O36 O 0.36615 0.71597 0.90588 0.0
O37 O 0.40064 0.70906 0.93508 0.0
O38 O 0.39916 0.70936 0.93676 0.0
Fe39 Fe 0.41507 0.68663 0.9551 0.0
C40 C 0.36345 0.76725 0.93373 0.0
O41 O 0.32271 0.72921 0.90228 0.0
O42 O 0.33082 0.72693 0.94113 0.0
O43 O 0.41377 0.66082 0.93136 0.0
O44 O 0.38868 0.67148 0.90449 0.0
O45 O 0.39147 0.70288 0.86609 0.0
O46 O 0.3558 0.71939 0.8621 0.0
O47 O 0.35681 0.68395 0.94578 0.0
O48 O 0.38533 0.67397 0.96912 0.0
C49 C 0.37272 0.70694 0.8548 0.0
O50 O 0.44453 0.69715 0.938 0.0
O51 O 0.43243 0.69514 0.90058 0.0
O52 O 0.35066 0.76513 0.91626 0.0
O53 O 0.37669 0.75125 0.93949 0.0
C54 C 0.31673 0.72744 0.92362 0.0
C55 C 0.3658 0.67023 0.96027 0.0
C56 C 0.39337 0.72043 0.9875 0.0
O57 O 0.37356 0.72017 0.97719 0.0
O58 O 0.41232 0.71221 0.97914 0.0
C59 C 0.40004 0.65611 0.91513 0.0
O60 O 0.41041 0.73826 0.89782 0.0
O61 O 0.38304 0.75609 0.87843 0.0
C62 C 0.4483 0.69514 0.91609 0.0
C63 C 0.4035 0.75482 0.88562 0.0
Fe64 Fe 0.61955 0.19322 0.58068 0.0
O65 O 0.61195 0.22216 0.59714 0.0
Fe66 Fe 0.6648 0.20772 0.5451 0.0
Fe67 Fe 0.5983 0.22195 0.62789 0.0
O68 O 0.64993 0.20766 0.57526 0.0
O69 O 0.65052 0.20973 0.57529 0.0
O70 O 0.61257 0.22425 0.59722 0.0
Fe71 Fe 0.64285 0.23903 0.59124 0.0
C72 C 0.56872 0.19336 0.59696 0.0
O73 O 0.63191 0.17879 0.60991 0.0
O74 O 0.60322 0.18726 0.63312 0.0
O75 O 0.6755 0.25043 0.58298 0.0
O76 O 0.6927 0.22091 0.56268 0.0
O77 O 0.66844 0.17336 0.55241 0.0
O78 O 0.63146 0.16415 0.56279 0.0
O79 O 0.62804 0.22834 0.64583 0.0
O80 O 0.65621 0.22468 0.62032 0.0
C81 C 0.65186 0.15878 0.55536 0.0
O82 O 0.63082 0.25406 0.5615 0.0
O83 O 0.65765 0.24096 0.53726 0.0
O84 O 0.58602 0.18217 0.5882 0.0
O85 O 0.57021 0.21175 0.60945 0.0
C86 C 0.61883 0.17361 0.62644 0.0
C87 C 0.64861 0.22323 0.64068 0.0
C88 C 0.61063 0.27213 0.61803 0.0
O89 O 0.5954 0.25682 0.62324 0.0
O90 O 0.63079 0.26803 0.60928 0.0
C91 C 0.6931 0.24018 0.57392 0.0
O92 O 0.63553 0.19824 0.52749 0.0
O93 O 0.60706 0.20708 0.55129 0.0
C94 C 0.64163 0.25477 0.54246 0.0
C95 C 0.61455 0.20295 0.5313 0.0
Fe96 Fe 0.85307 0.78145 0.09709 0.0
O97 O 0.84258 0.80518 0.07465 0.0
Fe98 Fe 0.89781 0.80888 0.12514 0.0
Fe99 Fe 0.82708 0.798 0.04579 0.0
O100 O 0.88235 0.79902 0.09676 0.0
O101 O 0.88275 0.80127 0.09622 0.0
O102 O 0.84315 0.80729 0.0739 0.0
Fe103 Fe 0.87253 0.82487 0.07368 0.0
C104 C 0.85244 0.75297 0.05413 0.0
O105 O 0.82074 0.76694 0.09507 0.0
O106 O 0.8006 0.78849 0.06857 0.0
O107 O 0.8603 0.84591 0.09904 0.0
O108 O 0.88899 0.84297 0.12389 0.0
O109 O 0.86987 0.80361 0.14647 0.0
O110 O 0.84019 0.80214 0.12301 0.0
O111 O 0.82154 0.83298 0.04326 0.0
O112 O 0.85766 0.84758 0.04977 0.0
C113 C 0.84892 0.80765 0.14217 0.0
O114 O 0.90541 0.8399 0.07638 0.0
O115 O 0.92399 0.81737 0.10315 0.0
O116 O 0.8645 0.75974 0.07106 0.0
O117 O 0.83537 0.76408 0.04674 0.0
C118 C 0.80186 0.77411 0.08577 0.0
C119 C 0.83692 0.84904 0.04163 0.0
C120 C 0.87705 0.80329 0.02776 0.0
O121 O 0.85544 0.80388 0.02414 0.0
O122 O 0.88519 0.80492 0.04783 0.0
C123 C 0.87192 0.85366 0.11568 0.0
O124 O 0.90411 0.77433 0.12719 0.0
O125 O 0.86861 0.75829 0.12054 0.0
C126 C 0.92371 0.83245 0.08679 0.0
C127 C 0.88997 0.75723 0.12707 0.0
Fe128 Fe 0.43836 0.12268 0.31496 0.0
O129 O 0.43792 0.15321 0.29975 0.0
Fe130 Fe 0.38943 0.09636 0.29427 0.0
Fe131 Fe 0.4657 0.17132 0.29367 0.0
O132 O 0.41798 0.11307 0.28941 0.0
O133 O 0.41779 0.11349 0.28712 0.0
O134 O 0.43776 0.1536 0.29748 0.0
Fe135 Fe 0.4179 0.14394 0.27153 0.0
C136 C 0.46549 0.15805 0.3439 0.0
O137 O 0.46583 0.11316 0.29555 0.0
O138 O 0.48851 0.14351 0.29927 0.0
O139 O 0.39668 0.12971 0.24614 0.0
O140 O 0.38946 0.09294 0.25906 0.0
O141 O 0.41207 0.07038 0.3022 0.0
O142 O 0.43656 0.08897 0.32712 0.0
O143 O 0.46775 0.16535 0.25923 0.0
O144 O 0.44573 0.13508 0.25117 0.0
C145 C 0.4275 0.0706 0.31826 0.0
O146 O 0.39051 0.15444 0.2908 0.0
O147 O 0.36749 0.12416 0.29035 0.0
O148 O 0.4597 0.13683 0.34006 0.0
O149 O 0.46471 0.17439 0.32881 0.0
C150 C 0.48568 0.12178 0.2971 0.0
C151 C 0.4624 0.1485 0.24658 0.0
C152 C 0.42527 0.19574 0.27013 0.0
O153 O 0.44165 0.19706 0.28531 0.0
O154 O 0.41979 0.17715 0.25924 0.0
C155 C 0.39031 0.10852 0.24321 0.0
O156 O 0.38846 0.10206 0.32909 0.0
O157 O 0.41135 0.13174 0.33571 0.0
C158 C 0.37121 0.14526 0.29464 0.0
C159 C 0.39549 0.11817 0.34192 0.0
Fe160 Fe 0.09359 0.8448 0.79103 0.0
O161 O 0.06449 0.86274 0.7929 0.0
Fe162 Fe 0.12893 0.87388 0.82967 0.0
Fe163 Fe 0.03471 0.84781 0.78698 0.0
O164 O 0.09993 0.85895 0.82162 0.0
O165 O 0.09898 0.86034 0.82309 0.0
O166 O 0.06326 0.8639 0.79474 0.0
Fe167 Fe 0.06949 0.87738 0.82564 0.0
C168 C 0.06416 0.83953 0.74594 0.0
O169 O 0.07791 0.81802 0.80722 0.0
O170 O 0.04814 0.8144 0.78501 0.0
O171 O 0.07983 0.88932 0.85747 0.0
O172 O 0.11594 0.87433 0.86293 0.0
O173 O 0.13996 0.84069 0.82885 0.0
O174 O 0.12494 0.82638 0.79501 0.0
O175 O 0.02463 0.84271 0.82038 0.0
O176 O 0.05456 0.84989 0.84272 0.0
C177 C 0.1383 0.82524 0.81301 0.0
O178 O 0.08341 0.90676 0.81092 0.0
O179 O 0.11761 0.90698 0.82783 0.0
O180 O 0.08198 0.83293 0.758 0.0
O181 O 0.04688 0.85077 0.75428 0.0
C182 C 0.06503 0.80533 0.79537 0.0
C183 C 0.03446 0.84193 0.83977 0.0
C184 C 0.02282 0.89479 0.80791 0.0
O185 O 0.02128 0.8806 0.79078 0.0
O186 O 0.03789 0.89352 0.82416 0.0
C187 C 0.09744 0.88455 0.87009 0.0
O188 O 0.14012 0.87669 0.79589 0.0
O189 O 0.10915 0.87167 0.77437 0.0
C190 C 0.10125 0.91729 0.81793 0.0
C191 C 0.12881 0.88039 0.77759 0.0
Fe192 Fe 0.95674 0.39151 0.66541 0.0
O193 O 0.94027 0.37965 0.69208 0.0
Fe194 Fe 0.94973 0.3482 0.70699 0.0
Fe195 Fe 0.90648 0.3758 0.69315 0.0
O196 O 0.94197 0.37826 0.69236 0.0
O197 O 0.91581 0.3434 0.7065 0.0
O198 O 0.91385 0.34526 0.70667 0.0
Fe199 Fe 0.89881 0.3342 0.73471 0.0
C200 C 0.91751 0.4246 0.67508 0.0
O201 O 0.9301 0.38551 0.64281 0.0
O202 O 0.90612 0.36174 0.66083 0.0
O203 O 0.91413 0.30399 0.72625 0.0
O204 O 0.95203 0.31515 0.72324 0.0
O205 O 0.95486 0.33223 0.6754 0.0
O206 O 0.97136 0.36101 0.65584 0.0
O207 O 0.8718 0.36745 0.69546 0.0
O208 O 0.87142 0.3321 0.71289 0.0
C209 C 0.96738 0.33981 0.65898 0.0
O210 O 0.92629 0.33859 0.75687 0.0
O211 O 0.94692 0.36404 0.73815 0.0
O212 O 0.93952 0.42159 0.67376 0.0
O213 O 0.9028 0.40839 0.67904 0.0
C214 C 0.91316 0.3717 0.64269 0.0
C215 C 0.86245 0.34773 0.69993 0.0
C216 C 0.8933 0.38599 0.74168 0.0
O217 O 0.90586 0.39142 0.72473 0.0
O218 O 0.88598 0.36567 0.74443 0.0
C219 C 0.93589 0.29987 0.72694 0.0
O220 O 0.9842 0.35864 0.70662 0.0
O221 O 0.98352 0.394 0.68818 0.0
C222 C 0.9427 0.3529 0.75627 0.0
C223 C 0.99304 0.37839 0.70091 0.0
Fe224 Fe 0.58657 0.6395 0.23076 0.0
O225 O 0.5661 0.65238 0.20669 0.0
Fe226 Fe 0.61161 0.59328 0.20209 0.0
Fe227 Fe 0.53925 0.67081 0.21387 0.0
O228 O 0.5845 0.61083 0.21228 0.0
O229 O 0.58422 0.61066 0.20986 0.0
O230 O 0.56554 0.65204 0.20442 0.0
Fe231 Fe 0.56284 0.62311 0.18644 0.0
C232 C 0.54366 0.64364 0.25807 0.0
O233 O 0.58697 0.67179 0.24599 0.0
O234 O 0.56476 0.69453 0.22256 0.0
O235 O 0.5893 0.63344 0.16523 0.0
O236 O 0.61117 0.60238 0.16813 0.0
O237 O 0.63507 0.61951 0.20729 0.0
O238 O 0.61359 0.65062 0.21144 0.0
O239 O 0.5377 0.67675 0.17902 0.0
O240 O 0.54007 0.64006 0.16446 0.0
C241 C 0.63211 0.64106 0.20541 0.0
O242 O 0.5629 0.59042 0.17097 0.0
O243 O 0.58756 0.56919 0.19345 0.0
O244 O 0.559 0.62973 0.2511 0.0
O245 O 0.53943 0.66238 0.24791 0.0
C246 C 0.58136 0.69152 0.23722 0.0
C247 C 0.53404 0.66153 0.16323 0.0
C248 C 0.51673 0.62268 0.20842 0.0
O249 O 0.51505 0.64461 0.20813 0.0
O250 O 0.53594 0.61264 0.20638 0.0
C251 C 0.60538 0.62067 0.15785 0.0
O252 O 0.61298 0.58643 0.23648 0.0
O253 O 0.60803 0.62162 0.25389 0.0
C254 C 0.57173 0.57112 0.17801 0.0
C255 C 0.61329 0.59987 0.25414 0.0
Fe256 Fe 0.3193 0.38044 0.1295 0.0
O257 O 0.31039 0.41039 0.14164 0.0
Fe258 Fe 0.27661 0.41527 0.1526 0.0
Fe259 Fe 0.31534 0.44003 0.12525 0.0
O260 O 0.30877 0.40934 0.14278 0.0
O261 O 0.28081 0.44462 0.13533 0.0
O262 O 0.28266 0.44585 0.13401 0.0
Fe263 Fe 0.27234 0.47408 0.14971 0.0
C264 C 0.36043 0.41275 0.12774 0.0
O265 O 0.32305 0.39189 0.0965 0.0
O266 O 0.30576 0.42594 0.0939 0.0
O267 O 0.24051 0.4616 0.14238 0.0
O268 O 0.24243 0.42612 0.15984 0.0
O269 O 0.26404 0.39983 0.12368 0.0
O270 O 0.28662 0.36913 0.12108 0.0
O271 O 0.31554 0.47218 0.10903 0.0
O272 O 0.28039 0.48809 0.11784 0.0
C273 C 0.26839 0.37998 0.11583 0.0
O274 O 0.26613 0.46006 0.18255 0.0
O275 O 0.28876 0.43023 0.18175 0.0
O276 O 0.35145 0.39381 0.13529 0.0
O277 O 0.34919 0.42996 0.11913 0.0
C278 C 0.31428 0.40795 0.0847 0.0
C279 C 0.29925 0.48715 0.10591 0.0
C280 C 0.32378 0.47498 0.16218 0.0
O281 O 0.32749 0.45468 0.15514 0.0
O282 O 0.30463 0.4848 0.15905 0.0
C283 C 0.23111 0.44358 0.15145 0.0
O284 O 0.27748 0.38387 0.17103 0.0
O285 O 0.31316 0.36918 0.16214 0.0
C286 C 0.27564 0.44334 0.1929 0.0
C287 C 0.29508 0.37062 0.17492 0.0
Fe288 Fe 0.79067 0.05681 0.8379 0.0
O289 O 0.79834 0.08546 0.8533 0.0
Fe290 Fe 0.81756 0.08466 0.88322 0.0
Fe291 Fe 0.77534 0.10866 0.86337 0.0
O292 O 0.80034 0.08485 0.85377 0.0
O293 O 0.79462 0.1079 0.89334 0.0
O294 O 0.79258 0.10859 0.89282 0.0
Fe295 Fe 0.80361 0.1369 0.90771 0.0
C296 C 0.76816 0.09693 0.81231 0.0
O297 O 0.75687 0.05829 0.84694 0.0
O298 O 0.75335 0.08345 0.87568 0.0
O299 O 0.8104 0.11507 0.93444 0.0
O300 O 0.8322 0.08742 0.91613 0.0
O301 O 0.79717 0.0592 0.89594 0.0
O302 O 0.79661 0.03537 0.86614 0.0
O303 O 0.75304 0.13313 0.87796 0.0
O304 O 0.76922 0.14138 0.91311 0.0
C305 C 0.79614 0.03906 0.88777 0.0
O306 O 0.83768 0.13343 0.90003 0.0
O307 O 0.83933 0.10924 0.87076 0.0
O308 O 0.78185 0.07929 0.81131 0.0
O309 O 0.76083 0.10649 0.83106 0.0
C310 C 0.74674 0.06572 0.86474 0.0
C311 C 0.75241 0.14142 0.89871 0.0
C312 C 0.80421 0.15203 0.85825 0.0
O313 O 0.79698 0.13324 0.85002 0.0
O314 O 0.80037 0.1575 0.87902 0.0
C315 C 0.82502 0.09826 0.93439 0.0
O316 O 0.83978 0.06058 0.86839 0.0
O317 O 0.82542 0.05441 0.83207 0.0
C318 C 0.84826 0.12466 0.88314 0.0
C319 C 0.84161 0.05339 0.84729 0.0
Fe320 Fe 0.68892 0.86694 0.37663 0.0
O321 O 0.69165 0.89784 0.36286 0.0
Fe322 Fe 0.72525 0.90752 0.35272 0.0
Fe323 Fe 0.68264 0.9265 0.37959 0.0
O324 O 0.69408 0.89683 0.36224 0.0
O325 O 0.71594 0.93625 0.36879 0.0
O326 O 0.7137 0.9372 0.36953 0.0
Fe327 Fe 0.72024 0.96648 0.35452 0.0
C328 C 0.64277 0.8906 0.38171 0.0
O329 O 0.68448 0.87849 0.40947 0.0
O330 O 0.69683 0.91454 0.4098 0.0
O331 O 0.75359 0.95907 0.36196 0.0
O332 O 0.75742 0.92372 0.34487 0.0
O333 O 0.73952 0.89548 0.38301 0.0
O334 O 0.7232 0.86115 0.38368 0.0
O335 O 0.67824 0.95795 0.39633 0.0
O336 O 0.71042 0.97893 0.38652 0.0
C337 C 0.73816 0.87519 0.39093 0.0
O338 O 0.72804 0.95333 0.32175 0.0
O339 O 0.71149 0.91942 0.32269 0.0
O340 O 0.65467 0.87416 0.3725 0.0
O341 O 0.65115 0.91043 0.38795 0.0
C342 C 0.6918 0.89597 0.42012 0.0
C343 C 0.69234 0.97503 0.39907 0.0
C344 C 0.66859 0.96062 0.34287 0.0
O345 O 0.66636 0.94028 0.35084 0.0
O346 O 0.68698 0.97203 0.34518 0.0
C347 C 0.76574 0.94336 0.35202 0.0
O348 O 0.72948 0.87559 0.33549 0.0
O349 O 0.69623 0.8558 0.34432 0.0
C350 C 0.72133 0.93521 0.31148 0.0
C351 C 0.71442 0.85932 0.33207 0.0
Fe352 Fe 0.22307 0.59983 0.65547 0.0
O353 O 0.19912 0.5783 0.66692 0.0
Fe354 Fe 0.19443 0.63122 0.61361 0.0
Fe355 Fe 0.20611 0.54882 0.68118 0.0
O356 O 0.20389 0.60177 0.62735 0.0
O357 O 0.2017 0.60152 0.62716 0.0
O358 O 0.19695 0.57788 0.66658 0.0
Fe359 Fe 0.17813 0.57929 0.63803 0.0
C360 C 0.24914 0.55555 0.65234 0.0
O361 O 0.23952 0.59582 0.68661 0.0
O362 O 0.21808 0.56975 0.70757 0.0
O363 O 0.15804 0.60474 0.65199 0.0
O364 O 0.16086 0.63063 0.62408 0.0
O365 O 0.20196 0.65097 0.64213 0.0
O366 O 0.20425 0.62582 0.67048 0.0
O367 O 0.17161 0.54795 0.68882 0.0
O368 O 0.15606 0.5553 0.65322 0.0
C369 C 0.19863 0.64546 0.66299 0.0
O370 O 0.16186 0.5834 0.60601 0.0
O371 O 0.18387 0.61061 0.58714 0.0
O372 O 0.24246 0.57332 0.64149 0.0
O373 O 0.23947 0.54855 0.67053 0.0
C374 C 0.23343 0.58586 0.7056 0.0
C375 C 0.15522 0.54675 0.67387 0.0
C376 C 0.19812 0.53301 0.63135 0.0
O377 O 0.19788 0.52868 0.65283 0.0
O378 O 0.19675 0.55332 0.62365 0.0
C379 C 0.15032 0.62197 0.64113 0.0
O380 O 0.22857 0.63233 0.60551 0.0
O381 O 0.24631 0.62242 0.63943 0.0
C382 C 0.16869 0.59435 0.58769 0.0
C383 C 0.24637 0.63016 0.61846 0.0
Fe384 Fe 0.87319 0.68954 0.60146 0.0
O385 O 0.8447 0.70778 0.59663 0.0
Fe386 Fe 0.88955 0.67256 0.54727 0.0
Fe387 Fe 0.83544 0.73317 0.61675 0.0
O388 O 0.8789 0.69609 0.5685 0.0
O389 O 0.8779 0.69727 0.56683 0.0
O390 O 0.84317 0.70827 0.5948 0.0
Fe391 Fe 0.84864 0.71423 0.56142 0.0
C392 C 0.84427 0.68934 0.64572 0.0
O393 O 0.89183 0.71778 0.60951 0.0
O394 O 0.86799 0.73859 0.6308 0.0
O395 O 0.85993 0.71916 0.52719 0.0
O396 O 0.89473 0.69989 0.52579 0.0
O397 O 0.91919 0.67505 0.56666 0.0
O398 O 0.90403 0.67173 0.60292 0.0
O399 O 0.8405 0.75986 0.59324 0.0
O400 O 0.86495 0.74426 0.56933 0.0
C401 C 0.92102 0.67137 0.58855 0.0
O402 O 0.83176 0.68439 0.5519 0.0
O403 O 0.85922 0.66873 0.53015 0.0
O404 O 0.86346 0.68446 0.63556 0.0
O405 O 0.83102 0.70626 0.63996 0.0
C406 C 0.88818 0.73324 0.62426 0.0
C407 C 0.85329 0.76148 0.57556 0.0
C408 C 0.80097 0.7333 0.57822 0.0
O409 O 0.80487 0.72964 0.59987 0.0
O410 O 0.81623 0.73142 0.56168 0.0
C411 C 0.87999 0.71471 0.51819 0.0
O412 O 0.88071 0.64555 0.56858 0.0
O413 O 0.85593 0.66003 0.59376 0.0
C414 C 0.83829 0.67125 0.53564 0.0
C415 C 0.86532 0.64299 0.58395 0.0
Fe416 Fe 0.67069 0.27892 0.11518 0.0
O417 O 0.66037 0.303 0.09402 0.0
Fe418 Fe 0.65419 0.2929 0.05985 0.0
Fe419 Fe 0.63149 0.32061 0.09907 0.0
O420 O 0.66177 0.30219 0.09203 0.0
O421 O 0.62593 0.31135 0.06502 0.0
O422 O 0.62491 0.31228 0.06662 0.0
Fe423 Fe 0.61413 0.33382 0.0434 0.0
C424 C 0.61923 0.27677 0.12409 0.0
O425 O 0.67579 0.30697 0.13656 0.0
O426 O 0.6424 0.32753 0.13268 0.0
O427 O 0.64393 0.33501 0.02454 0.0
O428 O 0.67168 0.32072 0.04649 0.0
O429 O 0.68598 0.27456 0.05966 0.0
O430 O 0.70019 0.28073 0.09619 0.0
O431 O 0.6476 0.35044 0.08933 0.0
O432 O 0.62432 0.36213 0.0614 0.0
C433 C 0.70247 0.27447 0.07491 0.0
O434 O 0.6069 0.30485 0.02526 0.0
O435 O 0.64109 0.28477 0.0267 0.0
O436 O 0.63955 0.27485 0.13153 0.0
O437 O 0.61396 0.29165 0.10913 0.0
C438 C 0.66172 0.3231 0.14282 0.0
C439 C 0.63875 0.36624 0.07715 0.0
C440 C 0.58387 0.33981 0.08562 0.0
O441 O 0.60042 0.33804 0.10031 0.0
O442 O 0.58532 0.33452 0.06404 0.0
C443 C 0.66499 0.33253 0.0294 0.0
O444 O 0.6368 0.26524 0.07234 0.0
O445 O 0.66342 0.2508 0.09429 0.0
C446 C 0.62087 0.28914 0.01808 0.0
C447 C 0.6479 0.24807 0.07927 0.0
Fe448 Fe 0.3461 0.77343 0.41546 0.0
O449 O 0.35431 0.80545 0.40671 0.0
Fe450 Fe 0.34617 0.77489 0.4746 0.0
Fe451 Fe 0.36885 0.81349 0.37759 0.0
O452 O 0.36133 0.78128 0.445 0.0
O453 O 0.362 0.7833 0.44605 0.0
O454 O 0.35497 0.80738 0.40768 0.0
Fe455 Fe 0.36989 0.81548 0.43731 0.0
C456 C 0.38438 0.76331 0.38263 0.0
O457 O 0.3298 0.77008 0.38331 0.0
O458 O 0.33727 0.80467 0.36534 0.0
O459 O 0.33938 0.82839 0.45005 0.0
O460 O 0.33524 0.80762 0.48178 0.0
O461 O 0.31432 0.76632 0.46007 0.0
O462 O 0.31576 0.78567 0.42781 0.0
O463 O 0.36193 0.84689 0.38717 0.0
O464 O 0.37629 0.8481 0.42394 0.0
C465 C 0.30446 0.77407 0.44218 0.0
O466 O 0.38482 0.81931 0.46945 0.0
O467 O 0.37719 0.78544 0.48851 0.0
O468 O 0.37638 0.76078 0.40275 0.0
O469 O 0.37874 0.78021 0.36999 0.0
C470 C 0.32587 0.78579 0.36789 0.0
C471 C 0.37018 0.85775 0.40479 0.0
C472 C 0.41183 0.81341 0.4081 0.0
O473 O 0.40084 0.81972 0.39042 0.0
O474 O 0.40171 0.80499 0.42559 0.0
C475 C 0.33185 0.82591 0.47044 0.0
O476 O 0.35533 0.74233 0.46551 0.0
O477 O 0.34005 0.74009 0.42911 0.0
C478 C 0.38846 0.80451 0.48572 0.0
C479 C 0.34825 0.7309 0.44783 0.0
Fe480 Fe 0.09674 0.19582 0.89081 0.0
O481 O 0.11546 0.20521 0.91721 0.0
Fe482 Fe 0.12766 0.1791 0.93857 0.0
Fe483 Fe 0.1441 0.22366 0.91469 0.0
O484 O 0.11532 0.20278 0.9174 0.0
O485 O 0.15704 0.19649 0.93491 0.0
O486 O 0.15727 0.19919 0.93461 0.0
Fe487 Fe 0.17576 0.20601 0.96154 0.0
C488 C 0.14429 0.19833 0.86895 0.0
O489 O 0.09088 0.23046 0.88937 0.0
O490 O 0.12634 0.24719 0.89371 0.0
O491 O 0.15006 0.19967 0.98605 0.0
O492 O 0.11824 0.19977 0.96535 0.0
O493 O 0.09447 0.1649 0.94008 0.0
O494 O 0.07325 0.18809 0.91589 0.0
O495 O 0.13467 0.24373 0.94263 0.0
O496 O 0.16709 0.23989 0.96226 0.0
C497 C 0.07524 0.17296 0.93212 0.0
O498 O 0.18171 0.17125 0.96247 0.0
O499 O 0.14496 0.15687 0.9611 0.0
O500 O 0.12264 0.20002 0.86668 0.0
O501 O 0.1545 0.20468 0.88704 0.0
C502 C 0.10465 0.24782 0.88864 0.0
C503 C 0.1486 0.25036 0.95805 0.0
C504 C 0.19613 0.23249 0.92133 0.0
O505 O 0.17615 0.2392 0.91421 0.0
O506 O 0.19953 0.21638 0.93651 0.0
C507 C 0.12832 0.20159 0.98448 0.0
O508 O 0.13587 0.15669 0.91191 0.0
O509 O 0.10418 0.16155 0.89142 0.0
C510 C 0.16654 0.15549 0.96669 0.0
C511 C 0.12107 0.14937 0.89759 0.0
Fe512 Fe 0.63114 0.91755 0.70161 0.0
O513 O 0.60428 0.89906 0.71085 0.0
Fe514 Fe 0.58302 0.88866 0.68402 0.0
Fe515 Fe 0.60637 0.8688 0.72672 0.0
O516 O 0.6038 0.89955 0.70869 0.0
O517 O 0.58505 0.85835 0.69974 0.0
O518 O 0.58548 0.8579 0.70192 0.0
Fe519 Fe 0.55758 0.84005 0.70683 0.0
C520 C 0.65099 0.86948 0.69911 0.0
O521 O 0.63439 0.92071 0.73653 0.0
O522 O 0.62838 0.88428 0.75086 0.0
O523 O 0.53456 0.86634 0.69944 0.0
O524 O 0.55543 0.89773 0.70395 0.0
O525 O 0.58283 0.92258 0.67151 0.0
O526 O 0.60675 0.94223 0.69625 0.0
O527 O 0.57943 0.87727 0.7483 0.0
O528 O 0.55525 0.84841 0.7408 0.0
C529 C 0.59049 0.94127 0.68112 0.0
O530 O 0.55841 0.83532 0.67174 0.0
O531 O 0.56166 0.87293 0.65978 0.0
O532 O 0.65433 0.89071 0.70303 0.0
O533 O 0.63301 0.85922 0.70582 0.0
C534 C 0.63518 0.90548 0.75266 0.0
C535 C 0.562 0.86501 0.75315 0.0
C536 C 0.59723 0.81663 0.73249 0.0
O537 O 0.60623 0.83567 0.7397 0.0
O538 O 0.58086 0.81492 0.71744 0.0
C539 C 0.53613 0.88792 0.70252 0.0
O540 O 0.61016 0.88007 0.66284 0.0
O541 O 0.62933 0.91252 0.66682 0.0
C542 C 0.55637 0.85145 0.65644 0.0
C543 C 0.62455 0.89465 0.65542 0.0
Fe544 Fe 0.97 0.11167 0.17907 0.0
O545 O 0.94884 0.12468 0.20144 0.0
Fe546 Fe 0.91468 0.12872 0.19209 0.0
Fe547 Fe 0.95332 0.15496 0.21668 0.0
O548 O 0.94718 0.1234 0.20066 0.0
O549 O 0.91849 0.15827 0.20892 0.0
O550 O 0.92027 0.15985 0.20928 0.0
Fe551 Fe 0.89764 0.16856 0.2334 0.0
C552 C 0.99654 0.12431 0.2217 0.0
O553 O 0.98746 0.1419 0.17448 0.0
O554 O 0.96418 0.17006 0.18602 0.0
O555 O 0.87521 0.17112 0.20596 0.0
O556 O 0.88093 0.1384 0.18468 0.0
O557 O 0.92443 0.14429 0.1621 0.0
O558 O 0.95062 0.11898 0.15054 0.0
O559 O 0.95229 0.1885 0.23196 0.0
O560 O 0.91416 0.1992 0.22871 0.0
C561 C 0.93545 0.13407 0.14626 0.0
O562 O 0.88372 0.13627 0.2404 0.0
O563 O 0.90485 0.11136 0.22081 0.0
O564 O 0.98952 0.10816 0.20807 0.0
O565 O 0.98728 0.14461 0.22381 0.0
C566 C 0.9809 0.16266 0.17388 0.0
C567 C 0.93563 0.20368 0.23234 0.0
C568 C 0.93725 0.15166 0.26338 0.0
O569 O 0.9439 0.13959 0.24672 0.0
O570 O 0.92032 0.1651 0.26074 0.0
C571 C 0.87015 0.15739 0.18919 0.0
O572 O 0.91429 0.09695 0.17605 0.0
O573 O 0.95033 0.08214 0.18163 0.0
C574 C 0.8902 0.11582 0.23619 0.0
C575 C 0.9287 0.08006 0.17694 0.0
Fe576 Fe 0.11623 0.60502 0.31556 0.0
O577 O 0.08926 0.62221 0.30492 0.0
Fe578 Fe 0.06787 0.63685 0.32986 0.0
Fe579 Fe 0.09129 0.64903 0.28379 0.0
O580 O 0.08899 0.62223 0.30727 0.0
O581 O 0.07069 0.66423 0.30935 0.0
O582 O 0.07118 0.66436 0.30689 0.0
Fe583 Fe 0.04383 0.6816 0.2984 0.0
C584 C 0.13712 0.65162 0.3087 0.0
O585 O 0.11643 0.59493 0.2819 0.0
O586 O 0.112 0.6288 0.26189 0.0
O587 O 0.01997 0.65619 0.30728 0.0
O588 O 0.04143 0.62495 0.31093 0.0
O589 O 0.06747 0.60536 0.34799 0.0
O590 O 0.09219 0.58218 0.32725 0.0
O591 O 0.06329 0.63729 0.26495 0.0
O592 O 0.04326 0.66974 0.26548 0.0
C593 C 0.07624 0.58552 0.34243 0.0
O594 O 0.0429 0.69109 0.33232 0.0
O595 O 0.04536 0.65619 0.35069 0.0
O596 O 0.13956 0.63005 0.30665 0.0
O597 O 0.11903 0.66166 0.30195 0.0
C598 C 0.11655 0.60696 0.26325 0.0
C599 C 0.0473 0.65005 0.2573 0.0
C600 C 0.08363 0.69987 0.27022 0.0
O601 O 0.09116 0.67949 0.26519 0.0
O602 O 0.06832 0.7045 0.2859 0.0
C603 C 0.02218 0.6344 0.30795 0.0
O604 O 0.09421 0.64814 0.35012 0.0
O605 O 0.11661 0.61723 0.34854 0.0
C606 C 0.03947 0.67778 0.34983 0.0
C607 C 0.10945 0.63518 0.35867 0.0
Fe608 Fe 0.46166 0.33241 0.79411 0.0
O609 O 0.43519 0.35095 0.80475 0.0
Fe610 Fe 0.41488 0.36497 0.77796 0.0
Fe611 Fe 0.43916 0.37971 0.82318 0.0
O612 O 0.43477 0.35076 0.80194 0.0
O613 O 0.41756 0.39282 0.79757 0.0
O614 O 0.41807 0.39304 0.79988 0.0
Fe615 Fe 0.39145 0.41164 0.80742 0.0
C616 C 0.4668 0.339 0.84517 0.0
O617 O 0.4864 0.35741 0.80204 0.0
O618 O 0.46621 0.38955 0.80294 0.0
O619 O 0.38986 0.41869 0.7729 0.0
O620 O 0.394 0.38376 0.75507 0.0
O621 O 0.44291 0.37559 0.75881 0.0
O622 O 0.46258 0.34304 0.76066 0.0
O623 O 0.44089 0.41277 0.83813 0.0
O624 O 0.41663 0.43466 0.81559 0.0
C625 C 0.45934 0.36283 0.75229 0.0
O626 O 0.3672 0.38601 0.80262 0.0
O627 O 0.38717 0.35401 0.79646 0.0
O628 O 0.46249 0.32477 0.82857 0.0
O629 O 0.46147 0.36083 0.84492 0.0
C630 C 0.48532 0.3793 0.80176 0.0
C631 C 0.43305 0.4323 0.83038 0.0
C632 C 0.3983 0.38606 0.85325 0.0
O633 O 0.41239 0.37122 0.84542 0.0
O634 O 0.39213 0.40329 0.84149 0.0
C635 C 0.38883 0.40549 0.75511 0.0
O636 O 0.41415 0.33333 0.76101 0.0
O637 O 0.4365 0.30918 0.78279 0.0
C638 C 0.36918 0.36422 0.80323 0.0
C639 C 0.42084 0.31298 0.7673 0.0
Fe640 Fe 0.6847 0.53791 0.90533 0.0
O641 O 0.70918 0.5552 0.89022 0.0
Fe642 Fe 0.70366 0.59026 0.88472 0.0
Fe643 Fe 0.72213 0.5472 0.85942 0.0
O644 O 0.70866 0.55715 0.89155 0.0
O645 O 0.71809 0.58266 0.85467 0.0
O646 O 0.71805 0.58073 0.85311 0.0
Fe647 Fe 0.7431 0.60027 0.84097 0.0
C648 C 0.72316 0.50523 0.89251 0.0
O649 O 0.67634 0.51959 0.87638 0.0
O650 O 0.68979 0.53931 0.8464 0.0
O651 O 0.71834 0.62531 0.83861 0.0
O652 O 0.69943 0.62416 0.87332 0.0
O653 O 0.67242 0.58318 0.87085 0.0
O654 O 0.65838 0.56062 0.89822 0.0
O655 O 0.73566 0.54463 0.82529 0.0
O656 O 0.7347 0.58217 0.81216 0.0
C657 C 0.65561 0.57506 0.88204 0.0
O658 O 0.75318 0.61563 0.87137 0.0
O659 O 0.73451 0.598 0.89966 0.0
O660 O 0.71099 0.51466 0.90868 0.0
O661 O 0.7257 0.51315 0.87164 0.0
C662 C 0.67603 0.52465 0.8552 0.0
C663 C 0.73677 0.56023 0.80906 0.0
C664 C 0.77076 0.55928 0.85896 0.0
O665 O 0.7544 0.55312 0.87192 0.0
O666 O 0.76819 0.57567 0.84485 0.0
C667 C 0.70423 0.6336 0.85366 0.0
O668 O 0.68907 0.59427 0.91726 0.0
O669 O 0.69114 0.55847 0.93364 0.0
C670 C 0.75057 0.61087 0.89255 0.0
C671 C 0.68848 0.58056 0.93481 0.0
Fe672 Fe 0.1833 0.94314 0.13165 0.0
O673 O 0.2015 0.93555 0.15949 0.0
Fe674 Fe 0.19606 0.89825 0.09455 0.0
Fe675 Fe 0.21293 0.95934 0.18068 0.0
O676 O 0.205 0.92235 0.11554 0.0
O677 O 0.20737 0.92224 0.1154 0.0
O678 O 0.20389 0.93495 0.15957 0.0
Fe679 Fe 0.22708 0.91623 0.14254 0.0
C680 C 0.20849 0.98697 0.13624 0.0
O681 O 0.16332 0.96489 0.15209 0.0
O682 O 0.17842 0.96199 0.18843 0.0
O683 O 0.20832 0.888 0.15059 0.0
O684 O 0.20208 0.87125 0.1169 0.0
O685 O 0.1626 0.8981 0.10539 0.0
O686 O 0.16036 0.91726 0.13851 0.0
O687 O 0.22169 0.93096 0.20046 0.0
O688 O 0.24363 0.91135 0.17388 0.0
C689 C 0.1521 0.90347 0.12378 0.0
O690 O 0.24901 0.89719 0.1207 0.0
O691 O 0.23012 0.89723 0.08598 0.0
O692 O 0.20496 0.96929 0.12417 0.0
O693 O 0.20721 0.98666 0.15811 0.0
C694 C 0.16276 0.96859 0.17411 0.0
C695 C 0.23573 0.91453 0.1946 0.0
C696 C 0.25413 0.95885 0.15002 0.0
O697 O 0.24654 0.9588 0.17043 0.0
O698 O 0.24668 0.94487 0.13506 0.0
C699 C 0.20183 0.87102 0.13876 0.0
O700 O 0.18691 0.92585 0.07439 0.0
O701 O 0.1672 0.94872 0.10012 0.0
C702 C 0.24826 0.89467 0.09846 0.0
C703 C 0.17268 0.94222 0.07947 0.0
Fe704 Fe 0.29442 0.11614 0.5989 0.0
O705 O 0.28738 0.0873 0.61518 0.0
Fe706 Fe 0.31513 0.06563 0.62261 0.0
Fe707 Fe 0.27252 0.08668 0.64605 0.0
O708 O 0.28951 0.08675 0.61447 0.0
O709 O 0.30028 0.06506 0.65348 0.0
O710 O 0.29831 0.06574 0.65428 0.0
Fe711 Fe 0.29477 0.03677 0.67073 0.0
C712 C 0.29613 0.13319 0.64803 0.0
O713 O 0.25946 0.11667 0.59582 0.0
O714 O 0.24712 0.10913 0.63278 0.0
O715 O 0.2997 0.01533 0.64216 0.0
O716 O 0.29591 0.03841 0.61197 0.0
O717 O 0.32718 0.06926 0.58847 0.0
O718 O 0.30177 0.09468 0.57188 0.0
O719 O 0.25146 0.05937 0.63679 0.0
O720 O 0.2604 0.03509 0.66516 0.0
C721 C 0.31788 0.07938 0.57082 0.0
O722 O 0.33015 0.03724 0.67323 0.0
O723 O 0.34038 0.04322 0.63542 0.0
O724 O 0.29047 0.13719 0.62735 0.0
O725 O 0.29274 0.11364 0.65706 0.0
C726 C 0.24396 0.11623 0.61176 0.0
C727 C 0.2472 0.04187 0.64932 0.0
C728 C 0.26943 0.07418 0.69774 0.0
O729 O 0.26072 0.08355 0.67953 0.0
O730 O 0.28584 0.05895 0.69783 0.0
C731 C 0.29643 0.01845 0.62067 0.0
O732 O 0.3354 0.09211 0.63306 0.0
O733 O 0.32915 0.11661 0.60456 0.0
C734 C 0.34462 0.03625 0.65624 0.0
C735 C 0.34147 0.10896 0.62075 0.0
Fe736 Fe 0.77854 0.40118 0.34379 0.0
O737 O 0.78424 0.41198 0.3744 0.0
Fe738 Fe 0.80009 0.45629 0.35448 0.0
Fe739 Fe 0.81167 0.40459 0.38978 0.0
O740 O 0.80367 0.42479 0.33919 0.0
O741 O 0.81638 0.4412 0.38175 0.0
O742 O 0.81978 0.43756 0.38216 0.0
Fe743 Fe 0.83833 0.45674 0.40239 0.0
C744 C 0.77601 0.36594 0.38319 0.0
O745 O 0.80521 0.37957 0.33709 0.0
O746 O 0.83035 0.39302 0.36168 0.0
O747 O 0.85337 0.47162 0.37363 0.0
O748 O 0.83142 0.46648 0.34179 0.0
O749 O 0.78251 0.46626 0.32441 0.0
O750 O 0.79188 0.4303 0.32558 0.0
O751 O 0.84131 0.39768 0.40744 0.0
O752 O 0.86167 0.4302 0.40181 0.0
C753 C 0.78027 0.44653 0.31513 0.0
O754 O 0.81501 0.48304 0.40418 0.0
O755 O 0.79681 0.488 0.37036 0.0
O756 O 0.76699 0.3751 0.36485 0.0
O757 O 0.79524 0.37257 0.39277 0.0
C758 C 0.82541 0.38051 0.34463 0.0
C759 C 0.86 0.40919 0.40815 0.0
C760 C 0.80759 0.42701 0.43564 0.0
O761 O 0.79732 0.41519 0.42024 0.0
O762 O 0.82336 0.44167 0.43104 0.0
C763 C 0.84959 0.47351 0.35197 0.0
O764 O 0.76811 0.44947 0.36864 0.0
O765 O 0.75044 0.42268 0.34798 0.0
C766 C 0.80171 0.49414 0.39086 0.0
C767 C 0.75012 0.44159 0.35914 0.0
C768 C 0.06317 0.54555 0.34387 0.0
C769 C 0.07049 0.56504 0.3558 0.0
C770 C 0.06764 0.52374 0.3525 0.0
C771 C 0.08862 0.48883 0.40051 0.0
H772 H 0.1216 0.45727 0.35207 0.0
C773 C 0.13179 0.40031 0.41485 0.0
C774 C 0.12649 0.38417 0.39782 0.0
C775 C 0.12711 0.42362 0.41133 0.0
C776 C 0.11234 0.46573 0.36578 0.0
H777 H 0.08618 0.5773 0.387 0.0
H778 H 0.09373 0.53897 0.40238 0.0
H779 H 0.10473 0.49453 0.34458 0.0
H780 H 0.11369 0.37979 0.36331 0.0
H781 H 0.10574 0.42003 0.3571 0.0
H782 H 0.09581 0.45957 0.42155 0.0
C783 C 0.08447 0.54056 0.38642 0.0
C784 C 0.10259 0.48705 0.36145 0.0
C785 C 0.07992 0.56248 0.37776 0.0
C786 C 0.11795 0.39186 0.37674 0.0
C787 C 0.11345 0.415 0.37317 0.0
C788 C 0.09822 0.46723 0.40481 0.0
C789 C 0.07967 0.52107 0.37313 0.0
C790 C 0.09022 0.49863 0.37858 0.0
C791 C 0.11735 0.43112 0.39061 0.0
C792 C 0.10981 0.45525 0.38731 0.0
H793 H 0.05616 0.54715 0.32678 0.0
H794 H 0.06339 0.50897 0.34212 0.0
H795 H 0.07937 0.49753 0.41407 0.0
H796 H 0.13821 0.39478 0.43132 0.0
H797 H 0.13057 0.43566 0.425 0.0
C798 C 0.39721 0.62661 0.88403 0.0
C799 C 0.39985 0.63208 0.90725 0.0
C800 C 0.40205 0.60446 0.87618 0.0
C801 C 0.43495 0.55274 0.89388 0.0
H802 H 0.40478 0.52522 0.84173 0.0
C803 C 0.43984 0.45716 0.86434 0.0
C804 C 0.44088 0.45392 0.84053 0.0
C805 C 0.43871 0.47938 0.87335 0.0
C806 C 0.4135 0.53284 0.85621 0.0
H807 H 0.40785 0.61827 0.94077 0.0
H808 H 0.41472 0.57956 0.9275 0.0
H809 H 0.39178 0.56225 0.85582 0.0
H810 H 0.44421 0.47087 0.80768 0.0
H811 H 0.44251 0.50953 0.82339 0.0
H812 H 0.4561 0.52267 0.89458 0.0
C813 C 0.41006 0.59246 0.91503 0.0
C814 C 0.40608 0.55408 0.86426 0.0
C815 C 0.40572 0.61462 0.92272 0.0
C816 C 0.44336 0.47302 0.82611 0.0
C817 C 0.44217 0.49508 0.83505 0.0
C818 C 0.44211 0.53128 0.88602 0.0
C819 C 0.40919 0.58727 0.89155 0.0
C820 C 0.41673 0.56438 0.88318 0.0
C821 C 0.43857 0.49842 0.85858 0.0
C822 C 0.43155 0.52125 0.86701 0.0
H823 H 0.39282 0.63973 0.87178 0.0
H824 H 0.40125 0.60119 0.85795 0.0
H825 H 0.44395 0.56031 0.90818 0.0
H826 H 0.43758 0.44267 0.87573 0.0
H827 H 0.43597 0.48158 0.89159 0.0
C828 C 0.57769 0.98099 0.68816 0.0
C829 C 0.5826 0.96342 0.67251 0.0
C830 C 0.57659 1.00365 0.68078 0.0
C831 C 0.57126 0.05075 0.6575 0.0
H832 H 0.63113 0.06413 0.63193 0.0
C833 C 0.60495 0.14308 0.65307 0.0
C834 C 0.61738 0.14939 0.63343 0.0
C835 C 0.59981 0.1201 0.65725 0.0
C836 C 0.61416 0.06078 0.63863 0.0
H837 H 0.5886 0.95515 0.63684 0.0
H838 H 0.58725 0.9951 0.6239 0.0
H839 H 0.61942 0.02456 0.63738 0.0
H840 H 0.635 0.13647 0.60325 0.0
H841 H 0.62546 0.09675 0.61006 0.0
H842 H 0.56579 0.08692 0.65855 0.0
C843 C 0.58393 0.99126 0.64177 0.0
C844 C 0.60746 0.03808 0.64169 0.0
C845 C 0.58454 0.96849 0.64911 0.0
C846 C 0.62553 0.1322 0.61866 0.0
C847 C 0.62004 0.10932 0.62259 0.0
C848 C 0.57777 0.07351 0.65403 0.0
C849 C 0.58089 0.00902 0.65773 0.0
C850 C 0.58611 0.0329 0.65143 0.0
C851 C 0.60669 0.10301 0.64167 0.0
C852 C 0.59948 0.07881 0.64489 0.0
H853 H 0.57625 0.97733 0.70632 0.0
H854 H 0.57437 0.01708 0.6934 0.0
H855 H 0.55474 0.04708 0.66514 0.0
H856 H 0.59857 0.15598 0.66481 0.0
H857 H 0.59007 0.11581 0.67248 0.0
C858 C 0.87469 0.88357 0.14587 0.0
C859 C 0.86793 0.87723 0.1237 0.0
C860 C 0.87548 0.90658 0.15215 0.0
C861 C 0.88938 0.96024 0.12598 0.0
H862 H 0.87281 0.98662 0.18477 0.0
C863 C 0.9341 0.03948 0.16397 0.0
C864 C 0.9196 0.05706 0.17168 0.0
C865 C 0.92508 0.01816 0.15794 0.0
C866 C 0.8774 0.97948 0.16824 0.0
H867 H 0.85529 0.88978 0.09115 0.0
H868 H 0.8572 0.93024 0.10203 0.0
H869 H 0.85888 0.94837 0.17452 0.0
H870 H 0.88437 0.06589 0.1797 0.0
H871 H 0.86882 0.02847 0.16971 0.0
H872 H 0.90859 0.99093 0.12004 0.0
C873 C 0.86171 0.91731 0.11454 0.0
C874 C 0.86946 0.95769 0.1624 0.0
C875 C 0.86049 0.89421 0.10839 0.0
C876 C 0.896 0.05272 0.17374 0.0
C877 C 0.88707 0.03131 0.16811 0.0
C878 C 0.8976 0.98185 0.13196 0.0
C879 C 0.86991 0.92368 0.13623 0.0
C880 C 0.87559 0.9478 0.14132 0.0
C881 C 0.90149 0.01395 0.15992 0.0
C882 C 0.89192 0.99152 0.15325 0.0
H883 H 0.88047 0.8708 0.158 0.0
H884 H 0.88198 0.91104 0.16893 0.0
H885 H 0.89461 0.95286 0.10976 0.0
H886 H 0.95232 0.04232 0.16213 0.0
H887 H 0.93654 0.00491 0.15183 0.0
C888 C 0.35132 0.07943 0.54411 0.0
C889 C 0.32784 0.07597 0.54783 0.0
C890 C 0.35971 0.08304 0.52185 0.0
C891 C 0.33822 0.10379 0.46583 0.0
H892 H 0.39844 0.08705 0.44347 0.0
C893 C 0.36513 0.11035 0.37096 0.0
C894 C 0.38716 0.11853 0.36586 0.0
C895 C 0.35836 0.10675 0.39365 0.0
C896 C 0.38167 0.09207 0.44963 0.0
H897 H 0.29505 0.07157 0.53138 0.0
H898 H 0.30974 0.07649 0.49258 0.0
H899 H 0.38614 0.07457 0.48161 0.0
H900 H 0.4192 0.12997 0.3805 0.0
H901 H 0.40736 0.12346 0.42035 0.0
H902 H 0.33358 0.12084 0.4337 0.0
C903 C 0.32163 0.07743 0.50672 0.0
C904 C 0.37459 0.08489 0.47146 0.0
C905 C 0.31323 0.07423 0.52891 0.0
C906 C 0.40202 0.12388 0.38396 0.0
C907 C 0.39536 0.1199 0.40671 0.0
C908 C 0.3452 0.11075 0.444 0.0
C909 C 0.34477 0.083 0.50296 0.0
C910 C 0.35265 0.09046 0.47976 0.0
C911 C 0.37359 0.11091 0.41174 0.0
C912 C 0.36693 0.10486 0.43559 0.0
H913 H 0.36284 0.08123 0.55849 0.0
H914 H 0.37761 0.08731 0.51967 0.0
H915 H 0.32148 0.10906 0.47182 0.0
H916 H 0.35335 0.10605 0.35733 0.0
H917 H 0.34152 0.09972 0.39696 0.0
C918 C 0.13508 0.95134 0.06227 0.0
C919 C 0.15902 0.95095 0.06033 0.0
C920 C 0.12159 0.9518 0.04257 0.0
C921 C 0.1215 0.95761 0.97963 0.0
H922 H 0.09288 0.89759 0.98001 0.0
C923 C 0.08516 0.91391 0.89854 0.0
C924 C 0.09725 0.89364 0.89364 0.0
C925 C 0.08687 0.92421 0.92003 0.0
C926 C 0.10042 0.91455 0.97979 0.0
H927 H 0.18771 0.95359 0.03692 0.0
H928 H 0.16418 0.95516 1.00254 0.0
H929 H 0.10584 0.91452 0.01599 0.0
H930 H 0.11975 0.86771 0.90758 0.0
H931 H 0.12221 0.88545 0.94553 0.0
H932 H 0.11694 0.95706 0.9432 0.0
C933 C 0.15579 0.95485 0.01913 0.0
C934 C 0.10763 0.92433 1.00032 0.0
C935 C 0.16926 0.95387 0.03876 0.0
C936 C 0.11029 0.88332 0.91092 0.0
C937 C 0.11159 0.89337 0.93259 0.0
C938 C 0.11386 0.948 0.95912 0.0
C939 C 0.13195 0.95241 0.02082 0.0
C940 C 0.11903 0.94553 1.00029 0.0
C941 C 0.10027 0.91412 0.93711 0.0
C942 C 0.1041 0.92602 0.95901 0.0
H943 H 0.12682 0.94888 0.07875 0.0
H944 H 0.10323 0.9499 0.04423 0.0
H945 H 0.13038 0.97389 0.97922 0.0
H946 H 0.07513 0.92239 0.88547 0.0
H947 H 0.07809 0.94024 0.92321 0.0
C948 C 0.81221 0.43438 0.4776 0.0
C949 C 0.80608 0.41934 0.45983 0.0
C950 C 0.81815 0.42591 0.49922 0.0
C951 C 0.84778 0.37719 0.52201 0.0
H952 H 0.83295 0.40215 0.58183 0.0
C953 C 0.90842 0.37665 0.60024 0.0
C954 C 0.89917 0.37017 0.62155 0.0
C955 C 0.8944 0.3787 0.58097 0.0
C956 C 0.83708 0.39484 0.56526 0.0
H957 H 0.79979 0.38371 0.45138 0.0
H958 H 0.81053 0.36896 0.48902 0.0
H959 H 0.81077 0.414 0.54823 0.0
H960 H 0.86807 0.35988 0.63903 0.0
H961 H 0.84342 0.36414 0.60547 0.0
H962 H 0.8749 0.35906 0.53878 0.0
C963 C 0.81059 0.38731 0.48621 0.0
C964 C 0.82446 0.40168 0.54607 0.0
C965 C 0.80418 0.39581 0.46473 0.0
C966 C 0.87571 0.3649 0.6229 0.0
C967 C 0.86158 0.36745 0.60373 0.0
C968 C 0.86069 0.37074 0.54109 0.0
C969 C 0.81848 0.4022 0.50336 0.0
C970 C 0.82983 0.39309 0.52421 0.0
C971 C 0.87074 0.37474 0.58267 0.0
C972 C 0.85564 0.3797 0.56286 0.0
H973 H 0.81397 0.45256 0.47432 0.0
H974 H 0.82422 0.43778 0.5121 0.0
H975 H 0.85251 0.37052 0.50533 0.0
H976 H 0.92641 0.3808 0.5986 0.0
H977 H 0.9019 0.38441 0.56495 0.0
C978 C 0.68951 0.57973 0.97777 0.0
C979 C 0.68288 0.59067 0.95741 0.0
C980 C 0.68319 0.58878 0.99906 0.0
C981 C 0.6382 0.6209 0.02686 0.0
H982 H 0.68127 0.6271 0.07679 0.0
C983 C 0.60676 0.63963 0.11898 0.0
C984 C 0.61685 0.62563 0.13571 0.0
C985 C 0.6165 0.64124 0.09701 0.0
C986 C 0.66896 0.62537 0.06309 0.0
H987 H 0.66449 0.61976 0.94343 0.0
H988 H 0.65297 0.63517 0.9807 0.0
H989 H 0.69515 0.61744 0.0385 0.0
H990 H 0.64597 0.60381 0.14306 0.0
H991 H 0.6624 0.60611 0.10516 0.0
H992 H 0.61183 0.62731 0.05154 0.0
C993 C 0.6633 0.61978 0.9801 0.0
C994 C 0.67696 0.61992 0.04116 0.0
C995 C 0.66999 0.61099 0.95881 0.0
C996 C 0.63754 0.61451 0.13049 0.0
C997 C 0.64718 0.61607 0.1087 0.0
C998 C 0.63012 0.62597 0.04889 0.0
C999 C 0.66976 0.60871 1.00041 0.0
C1000 C 0.66161 0.61712 0.02297 0.0
C1001 C 0.63653 0.62896 0.09144 0.0
C1002 C 0.64534 0.62763 0.06744 0.0
H1003 H 0.69948 0.56411 0.97726 0.0
H1004 H 0.68823 0.57982 0.01449 0.0
H1005 H 0.62599 0.61874 0.01311 0.0
H1006 H 0.59088 0.64853 0.12253 0.0
H1007 H 0.60802 0.65164 0.08424 0.0
C1008 C 0.39691 0.40613 0.14801 0.0
C1009 C 0.38541 0.4142 0.12859 0.0
C1010 C 0.42061 0.40386 0.14774 0.0
C1011 C 0.47308 0.4144 0.11248 0.0
H1012 H 0.49062 0.35523 0.1371 0.0
C1013 C 0.5475 0.36062 0.07775 0.0
C1014 C 0.56238 0.3504 0.0936 0.0
C1015 C 0.52792 0.372 0.08524 0.0
C1016 C 0.4861 0.37197 0.13051 0.0
H1017 H 0.38932 0.42765 0.09426 0.0
H1018 H 0.43074 0.42262 0.09321 0.0
H1019 H 0.45267 0.37014 0.14494 0.0
H1020 H 0.56835 0.34399 0.12973 0.0
H1021 H 0.5336 0.36345 0.14276 0.0
H1022 H 0.50629 0.41525 0.09681 0.0
C1023 C 0.42169 0.41862 0.10892 0.0
C1024 C 0.46437 0.38064 0.13507 0.0
C1025 C 0.39796 0.4214 0.10941 0.0
C1026 C 0.55717 0.35165 0.11711 0.0
C1027 C 0.53738 0.3628 0.12458 0.0
C1028 C 0.49475 0.40554 0.10767 0.0
C1029 C 0.43317 0.40901 0.12781 0.0
C1030 C 0.45739 0.40172 0.12569 0.0
C1031 C 0.52269 0.37317 0.10869 0.0
C1032 C 0.50119 0.38403 0.11623 0.0
H1033 H 0.38748 0.40088 0.16314 0.0
H1034 H 0.42896 0.39708 0.16282 0.0
H1035 H 0.46841 0.43085 0.10534 0.0
H1036 H 0.55113 0.36018 0.05954 0.0
H1037 H 0.51665 0.37957 0.07265 0.0
C1038 C 0.0493 0.13966 0.93167 0.0
C1039 C 0.05367 0.16217 0.93885 0.0
C1040 C 0.0268 0.1326 0.92765 0.0
C1041 C 0.97661 0.16098 0.90622 0.0
H1042 H 0.94441 0.10364 0.91518 0.0
C1043 C 0.88127 0.15049 0.88886 0.0
C1044 C 0.87289 0.12928 0.88139 0.0
C1045 C 0.90446 0.15332 0.89331 0.0
C1046 C 0.95343 0.11957 0.91218 0.0
H1047 H 0.03846 0.19388 0.95047 0.0
H1048 H 0.99917 0.18132 0.94435 0.0
H1049 H 0.9819 0.10934 0.93299 0.0
H1050 H 0.88221 0.09484 0.87108 0.0
H1051 H 0.92307 0.09988 0.87868 0.0
H1052 H 0.94853 0.17127 0.88533 0.0
C1053 C 0.01297 0.16932 0.94121 0.0
C1054 C 0.97472 0.12288 0.92257 0.0
C1055 C 0.03537 0.17641 0.94503 0.0
C1056 C 0.88832 0.11143 0.87669 0.0
C1057 C 0.9116 0.1142 0.88135 0.0
C1058 C 0.95554 0.15763 0.89574 0.0
C1059 C 0.00863 0.14802 0.93093 0.0
C1060 C 0.98621 0.14384 0.92009 0.0
C1061 C 0.91974 0.13494 0.89047 0.0
C1062 C 0.94348 0.1371 0.89897 0.0
H1063 H 0.06325 0.12856 0.92651 0.0
H1064 H 0.02388 0.11605 0.91981 0.0
H1065 H 0.98546 0.17704 0.90339 0.0
H1066 H 0.86968 0.16449 0.89259 0.0
H1067 H 0.91012 0.16947 0.90043 0.0
C1068 C 0.61033 0.86262 0.38331 0.0
C1069 C 0.61841 0.88507 0.38699 0.0
C1070 C 0.5882 0.85633 0.38961 0.0
C1071 C 0.53075 0.87808 0.39865 0.0
H1072 H 0.52098 0.81878 0.42725 0.0
C1073 C 0.44706 0.82867 0.38925 0.0
C1074 C 0.43656 0.81935 0.40892 0.0
C1075 C 0.46909 0.8377 0.39017 0.0
C1076 C 0.52342 0.83549 0.41957 0.0
H1077 H 0.60897 0.91861 0.39992 0.0
H1078 H 0.56976 0.90758 0.4105 0.0
H1079 H 0.55989 0.83362 0.42262 0.0
H1080 H 0.44165 0.81144 0.44486 0.0
H1081 H 0.48085 0.82668 0.44621 0.0
H1082 H 0.49434 0.87954 0.3948 0.0
C1083 C 0.58096 0.89489 0.40289 0.0
C1084 C 0.54567 0.84394 0.41677 0.0
C1085 C 0.60339 0.90121 0.39679 0.0
C1086 C 0.44923 0.81835 0.42937 0.0
C1087 C 0.47159 0.8272 0.43018 0.0
C1088 C 0.50852 0.86951 0.40123 0.0
C1089 C 0.57328 0.87226 0.39963 0.0
C1090 C 0.54961 0.86505 0.40573 0.0
C1091 C 0.48147 0.83747 0.41068 0.0
C1092 C 0.50468 0.84787 0.41116 0.0
H1093 H 0.6212 0.84959 0.3758 0.0
H1094 H 0.58268 0.83891 0.38639 0.0
H1095 H 0.53321 0.89434 0.39005 0.0
H1096 H 0.43803 0.82965 0.37311 0.0
H1097 H 0.47644 0.84499 0.37473 0.0
C1098 C 0.94614 0.65343 0.61812 0.0
C1099 C 0.9439 0.66662 0.59807 0.0
C1100 C 0.96766 0.64956 0.6277 0.0
C1101 C 0.02471 0.67354 0.63249 0.0
H1102 H 0.04599 0.61112 0.64003 0.0
C1103 C 0.11955 0.65089 0.63554 0.0
C1104 C 0.12694 0.6305 0.64594 0.0
C1105 C 0.09649 0.65686 0.63559 0.0
C1106 C 0.04021 0.62868 0.63869 0.0
H1107 H 0.96236 0.68637 0.57255 0.0
H1108 H 1.00001 0.67997 0.58964 0.0
H1109 H 0.00678 0.61821 0.62791 0.0
H1110 H 0.11616 0.6015 0.66654 0.0
H1111 H 0.07578 0.61231 0.66726 0.0
H1112 H 0.05789 0.68419 0.64337 0.0
C1113 C 0.98506 0.6725 0.59775 0.0
C1114 C 0.01778 0.63269 0.63153 0.0
C1115 C 0.96359 0.67597 0.58787 0.0
C1116 C 0.11099 0.61724 0.65819 0.0
C1117 C 0.0878 0.62332 0.65838 0.0
C1118 C 0.04699 0.66958 0.64006 0.0
C1119 C 0.98726 0.65923 0.61771 0.0
C1120 C 0.01009 0.65512 0.62772 0.0
C1121 C 0.08015 0.64274 0.64628 0.0
C1122 C 0.05532 0.64707 0.64251 0.0
H1123 H 0.93125 0.64598 0.62634 0.0
H1124 H 0.96896 0.63927 0.64309 0.0
H1125 H 0.01898 0.69101 0.63003 0.0
H1126 H 0.13142 0.6617 0.62619 0.0
H1127 H 0.09142 0.67183 0.62591 0.0
C1128 C 0.88484 0.4506 0.66537 0.0
C1129 C 0.90827 0.44773 0.67004 0.0
C1130 C 0.87632 0.47184 0.65845 0.0
C1131 C 0.88823 0.53369 0.6573 0.0
H1132 H 0.8525 0.53342 0.6014 0.0
C1133 C 0.86869 0.60041 0.58125 0.0
C1134 C 0.86187 0.61985 0.5937 0.0
C1135 C 0.86967 0.57898 0.59183 0.0
C1136 C 0.86229 0.53373 0.61712 0.0
H1137 H 0.9409 0.46533 0.67204 0.0
H1138 H 0.92589 0.50251 0.66015 0.0
H1139 H 0.86419 0.49714 0.61869 0.0
H1140 H 0.84945 0.63182 0.62669 0.0
H1141 H 0.85151 0.59436 0.64527 0.0
H1142 H 0.88678 0.57031 0.65541 0.0
C1143 C 0.91419 0.48821 0.66181 0.0
C1144 C 0.86888 0.513 0.62708 0.0
C1145 C 0.9228 0.46688 0.6685 0.0
C1146 C 0.85476 0.61717 0.61662 0.0
C1147 C 0.8561 0.59577 0.62732 0.0
C1148 C 0.88138 0.55443 0.64751 0.0
C1149 C 0.89095 0.49078 0.65629 0.0
C1150 C 0.88229 0.51277 0.64702 0.0
C1151 C 0.86413 0.5766 0.61516 0.0
C1152 C 0.86873 0.55465 0.62707 0.0
H1153 H 0.87309 0.43629 0.66636 0.0
H1154 H 0.8583 0.47339 0.65451 0.0
H1155 H 0.89842 0.534 0.67276 0.0
H1156 H 0.87419 0.60192 0.56356 0.0
H1157 H 0.87602 0.56452 0.58207 0.0
C1158 C 0.56724 0.5503 0.14111 0.0
C1159 C 0.56705 0.54998 0.16516 0.0
C1160 C 0.57171 0.53017 0.12888 0.0
C1161 C 0.58137 0.46714 0.13555 0.0
H1162 H 0.63 0.47774 0.09133 0.0
C1163 C 0.64073 0.39464 0.10881 0.0
C1164 C 0.6399 0.39014 0.0852 0.0
C1165 C 0.633 0.41561 0.11734 0.0
C1166 C 0.61641 0.47459 0.10361 0.0
H1167 H 0.56837 0.52825 0.19519 0.0
H1168 H 0.57609 0.49336 0.17412 0.0
H1169 H 0.60875 0.51022 0.10695 0.0
H1170 H 0.63341 0.40499 0.05179 0.0
H1171 H 0.62061 0.44189 0.06669 0.0
H1172 H 0.58967 0.43156 0.13276 0.0
C1173 C 0.57295 0.50887 0.16447 0.0
C1174 C 0.604 0.49312 0.11234 0.0
C1175 C 0.56853 0.52892 0.17663 0.0
C1176 C 0.6341 0.40798 0.0701 0.0
C1177 C 0.62669 0.42906 0.07861 0.0
C1178 C 0.59397 0.4487 0.12706 0.0
C1179 C 0.57593 0.5095 0.14056 0.0
C1180 C 0.58655 0.48964 0.12869 0.0
C1181 C 0.62481 0.43251 0.10232 0.0
C1182 C 0.61183 0.4523 0.11131 0.0
H1183 H 0.56624 0.56636 0.13187 0.0
H1184 H 0.57335 0.53109 0.11041 0.0
H1185 H 0.56782 0.4638 0.14781 0.0
H1186 H 0.64513 0.38124 0.12083 0.0
H1187 H 0.6321 0.41809 0.13572 0.0
C1188 C 0.42811 0.02798 0.31736 0.0
C1189 C 0.43286 0.04842 0.32904 0.0
C1190 C 0.42852 0.00713 0.32891 0.0
C1191 C 0.41618 0.98569 0.3858 0.0
H1192 H 0.42813 0.92749 0.35611 0.0
C1193 C 0.37377 0.89206 0.37954 0.0
C1194 C 0.37658 0.88202 0.40125 0.0
C1195 C 0.38427 0.9128 0.37434 0.0
C1196 C 0.42492 0.94364 0.36469 0.0
H1197 H 0.44369 0.06291 0.36151 0.0
H1198 H 0.44435 0.02628 0.38174 0.0
H1199 H 0.4444 0.96249 0.34003 0.0
H1200 H 0.39093 0.8871 0.43519 0.0
H1201 H 0.40884 0.92391 0.42602 0.0
H1202 H 0.39603 0.96666 0.41004 0.0
C1203 C 0.44011 0.0265 0.36369 0.0
C1204 C 0.43421 0.96361 0.35553 0.0
C1205 C 0.43987 0.04742 0.35205 0.0
C1206 C 0.38855 0.89424 0.41824 0.0
C1207 C 0.39887 0.91524 0.41304 0.0
C1208 C 0.40705 0.9656 0.39511 0.0
C1209 C 0.43363 0.00628 0.35241 0.0
C1210 C 0.42904 0.98495 0.36535 0.0
C1211 C 0.39752 0.92412 0.39078 0.0
C1212 C 0.41054 0.94462 0.38398 0.0
H1213 H 0.42289 0.02819 0.29957 0.0
H1214 H 0.42324 0.9919 0.31974 0.0
H1215 H 0.41176 1.0019 0.39367 0.0
H1216 H 0.3645 0.88336 0.36607 0.0
H1217 H 0.38261 0.91969 0.35718 0.0
C1218 C 0.1411 0.11232 0.8861 0.0
C1219 C 0.12104 0.1252 0.88942 0.0
C1220 C 0.13989 0.08999 0.87692 0.0
C1221 C 0.09927 0.04161 0.86919 0.0
H1222 H 0.13852 0.023 0.81891 0.0
C1223 C 0.08299 0.95614 0.8223 0.0
C1224 C 0.10247 0.94271 0.81801 0.0
C1225 C 0.08529 0.97928 0.82857 0.0
C1226 C 0.1275 0.02781 0.83307 0.0
H1227 H 0.08402 0.12438 0.88629 0.0
H1228 H 0.08204 0.08607 0.8708 0.0
H1229 H 0.14406 0.06047 0.83681 0.0
H1230 H 0.13944 0.94349 0.81512 0.0
H1231 H 0.14343 0.98341 0.82598 0.0
H1232 H 0.08285 0.00906 0.86582 0.0
C1233 C 0.09869 0.09295 0.87511 0.0
C1234 C 0.13079 0.04929 0.84339 0.0
C1235 C 0.09989 0.11509 0.88389 0.0
C1236 C 0.12407 0.95336 0.81837 0.0
C1237 C 0.12637 0.97637 0.82457 0.0
C1238 C 0.09606 0.02016 0.85899 0.0
C1239 C 0.11859 0.08006 0.87137 0.0
C1240 C 0.11658 0.05654 0.86147 0.0
C1241 C 0.10711 0.98948 0.83061 0.0
C1242 C 0.11002 0.01294 0.84067 0.0
H1243 H 0.15763 0.11964 0.89008 0.0
H1244 H 0.15556 0.08044 0.8743 0.0
H1245 H 0.08819 0.04649 0.88329 0.0
H1246 H 0.06614 0.94843 0.82236 0.0
H1247 H 0.07 0.98895 0.8326 0.0
C1248 C 0.69034 0.87329 0.45634 0.0
C1249 C 0.69219 0.89475 0.4455 0.0
C1250 C 0.68691 0.87174 0.47995 0.0
C1251 C 0.68988 0.90281 0.53473 0.0
H1252 H 0.63828 0.86444 0.55158 0.0
C1253 C 0.64458 0.91158 0.62166 0.0
C1254 C 0.63488 0.89225 0.63231 0.0
C1255 C 0.65416 0.91008 0.59982 0.0
C1256 C 0.65302 0.87486 0.54734 0.0
H1257 H 0.69347 0.93141 0.45128 0.0
H1258 H 0.68758 0.92868 0.49281 0.0
H1259 H 0.65121 0.86566 0.5119 0.0
H1260 H 0.62826 0.85595 0.62856 0.0
H1261 H 0.6455 0.85313 0.5903 0.0
H1262 H 0.69176 0.91201 0.57015 0.0
C1263 C 0.68871 0.91306 0.48286 0.0
C1264 C 0.66038 0.87564 0.52453 0.0
C1265 C 0.69208 0.91463 0.45909 0.0
C1266 C 0.63535 0.87119 0.62068 0.0
C1267 C 0.6452 0.86962 0.59876 0.0
C1268 C 0.68268 0.90185 0.55761 0.0
C1269 C 0.68537 0.8916 0.49338 0.0
C1270 C 0.67867 0.88987 0.51792 0.0
C1271 C 0.65459 0.88913 0.58799 0.0
C1272 C 0.66386 0.8882 0.56415 0.0
H1273 H 0.69076 0.85758 0.44647 0.0
H1274 H 0.68489 0.85497 0.48763 0.0
H1275 H 0.70421 0.91369 0.53019 0.0
H1276 H 0.6444 0.92815 0.63001 0.0
H1277 H 0.66069 0.92558 0.59199 0.0
C1278 C 0.90413 0.14182 0.11838 0.0
C1279 C 0.92693 0.13551 0.12254 0.0
C1280 C 0.89421 0.13738 0.09712 0.0
C1281 C 0.8751 0.10615 0.06038 0.0
H1282 H 0.9018 0.1183 1.00069 0.0
C1283 C 0.82483 0.09934 0.97691 0.0
C1284 C 0.83628 0.09374 0.95647 0.0
C1285 C 0.83675 0.1008 0.99745 0.0
C1286 C 0.89438 0.11433 0.01725 0.0
H1287 H 0.95788 0.12189 0.10709 0.0
H1288 H 0.94059 0.11448 0.06986 0.0
H1289 H 0.92121 0.13173 0.03516 0.0
H1290 H 0.86875 0.08335 0.94175 0.0
H1291 H 0.88965 0.08549 0.97794 0.0
H1292 H 0.84838 0.08864 0.04268 0.0
C1293 C 0.93034 0.12252 0.0831 0.0
C1294 C 0.90538 0.12224 0.03694 0.0
C1295 C 0.9402 0.12674 0.10442 0.0
C1296 C 0.8595 0.08768 0.95728 0.0
C1297 C 0.8715 0.0892 0.97792 0.0
C1298 C 0.86423 0.09807 0.04076 0.0
C1299 C 0.90701 0.12686 0.07962 0.0
C1300 C 0.89561 0.11856 0.05864 0.0
C1301 C 0.8604 0.09664 0.99802 0.0
C1302 C 0.87352 0.10241 0.01894 0.0
H1303 H 0.89345 0.14865 0.13197 0.0
H1304 H 0.87627 0.14127 0.09469 0.0
H1305 H 0.86752 0.10256 0.07697 0.0
H1306 H 0.80688 0.10394 0.9768 0.0
H1307 H 0.82765 0.10669 0.01253 0.0
C1308 C 0.13443 0.59536 0.56271 0.0
C1309 C 0.15754 0.58974 0.56574 0.0
C1310 C 0.12564 0.59808 0.54059 0.0
C1311 C 0.1382 0.58856 0.47894 0.0
H1312 H 0.11052 0.64834 0.4703 0.0
C1313 C 0.13665 0.62888 0.39051 0.0
C1314 C 0.11557 0.63751 0.38301 0.0
C1315 C 0.14014 0.62411 0.41362 0.0
C1316 C 0.11798 0.6315 0.47246 0.0
H1317 H 0.18921 0.581 0.5486 0.0
H1318 H 0.17385 0.58503 0.51008 0.0
H1319 H 0.11721 0.63401 0.50909 0.0
H1320 H 0.08226 0.64971 0.39396 0.0
H1321 H 0.08841 0.64138 0.43457 0.0
H1322 H 0.13943 0.58616 0.44244 0.0
C1323 C 0.16242 0.5874 0.52454 0.0
C1324 C 0.12167 0.62322 0.49465 0.0
C1325 C 0.17123 0.58503 0.54656 0.0
C1326 C 0.09877 0.64328 0.39932 0.0
C1327 C 0.10223 0.63833 0.42254 0.0
C1328 C 0.13452 0.59681 0.45684 0.0
C1329 C 0.13982 0.59491 0.52131 0.0
C1330 C 0.13232 0.60189 0.49809 0.0
C1331 C 0.12255 0.62768 0.42971 0.0
C1332 C 0.12495 0.61862 0.45334 0.0
H1333 H 0.12373 0.59948 0.57735 0.0
H1334 H 0.10811 0.6037 0.53856 0.0
H1335 H 0.14615 0.57194 0.48107 0.0
H1336 H 0.14991 0.6244 0.37829 0.0
H1337 H 0.15626 0.61657 0.41874 0.0
C1338 C 0.31786 0.38363 0.04971 0.0
C1339 C 0.31643 0.40567 0.05939 0.0
C1340 C 0.3245 0.38054 0.02689 0.0
C1341 C 0.33338 0.41018 0.97115 0.0
H1342 H 0.37747 0.36157 0.9606 0.0
C1343 C 0.38627 0.40689 0.88839 0.0
C1344 C 0.39033 0.38575 0.87751 0.0
C1345 C 0.37665 0.40794 0.91024 0.0
C1346 C 0.36493 0.37499 0.96312 0.0
H1347 H 0.31978 0.44189 0.05217 0.0
H1348 H 0.3314 0.43657 0.01207 0.0
H1349 H 0.36077 0.36671 0.99865 0.0
H1350 H 0.38818 0.34898 0.88161 0.0
H1351 H 0.37102 0.35075 0.92026 0.0
H1352 H 0.33764 0.41858 0.93571 0.0
C1353 C 0.32726 0.4216 0.02223 0.0
C1354 C 0.35532 0.37799 0.985 0.0
C1355 C 0.3205 0.42471 0.0452 0.0
C1356 C 0.38529 0.36551 0.88955 0.0
C1357 C 0.37543 0.36657 0.91164 0.0
C1358 C 0.34295 0.40716 0.9493 0.0
C1359 C 0.33001 0.39941 0.01298 0.0
C1360 C 0.33956 0.39577 0.98939 0.0
C1361 C 0.37056 0.3879 0.92206 0.0
C1362 C 0.35912 0.38974 0.94502 0.0
H1363 H 0.3146 0.36858 0.0601 0.0
H1364 H 0.32578 0.36326 0.02028 0.0
H1365 H 0.32104 0.42378 0.97372 0.0
H1366 H 0.39038 0.42287 0.87986 0.0
H1367 H 0.37394 0.42464 0.91787 0.0
C1368 C 0.63062 0.60518 0.86476 0.0
C1369 C 0.63293 0.58582 0.87894 0.0
C1370 C 0.61058 0.61815 0.86521 0.0
C1371 C 0.55002 0.61782 0.879 0.0
H1372 H 0.5584 0.68088 0.89847 0.0
C1373 C 0.49004 0.68826 0.92387 0.0
C1374 C 0.47165 0.68885 0.9084 0.0
C1375 C 0.51085 0.67826 0.91747 0.0
C1376 C 0.5559 0.66336 0.89288 0.0
H1377 H 0.61517 0.56367 0.90302 0.0
H1378 H 0.57981 0.58593 0.90308 0.0
H1379 H 0.59191 0.65661 0.89107 0.0
H1380 H 0.46141 0.68077 0.87349 0.0
H1381 H 0.49746 0.66305 0.86274 0.0
H1382 H 0.51405 0.62451 0.88083 0.0
C1383 C 0.59381 0.5913 0.89211 0.0
C1384 C 0.57496 0.64957 0.88855 0.0
C1385 C 0.61404 0.57859 0.89206 0.0
C1386 C 0.47507 0.68055 0.88597 0.0
C1387 C 0.49568 0.67029 0.87975 0.0
C1388 C 0.53099 0.63173 0.88287 0.0
C1389 C 0.59224 0.61159 0.87929 0.0
C1390 C 0.57213 0.62661 0.88188 0.0
C1391 C 0.51348 0.66848 0.89563 0.0
C1392 C 0.53379 0.65451 0.89012 0.0
H1393 H 0.64466 0.61095 0.85408 0.0
H1394 H 0.60959 0.63359 0.85495 0.0
H1395 H 0.54748 0.60016 0.8739 0.0
H1396 H 0.48806 0.69458 0.94121 0.0
H1397 H 0.52442 0.67702 0.92999 0.0
C1398 C 0.96481 0.82917 0.07759 0.0
C1399 C 0.94592 0.84325 0.08212 0.0
C1400 C 0.98697 0.83732 0.08091 0.0
C1401 C 0.02238 0.88861 0.09399 0.0
H1402 H 0.05903 0.84371 0.12634 0.0
C1403 C 0.11086 0.91078 0.13262 0.0
C1404 C 0.12825 0.89559 0.12589 0.0
C1405 C 0.08785 0.905 0.12923 0.0
C1406 C 0.04905 0.85643 0.11728 0.0
H1407 H 0.93513 0.8772 0.0923 0.0
H1408 H 0.974 0.89157 0.09833 0.0
H1409 H 0.02095 0.83346 0.11327 0.0
H1410 H 0.1354 0.86203 0.11179 0.0
H1411 H 0.09543 0.85172 0.10639 0.0
H1412 H 0.05071 0.91157 0.09817 0.0
C1413 C 0.97177 0.87433 0.09187 0.0
C1414 C 0.02727 0.85051 0.10959 0.0
C1415 C 0.94952 0.8662 0.08825 0.0
C1416 C 0.12228 0.874 0.11719 0.0
C1417 C 0.09939 0.86812 0.11411 0.0
C1418 C 0.04423 0.89456 0.10178 0.0
C1419 C 0.99067 0.85959 0.08931 0.0
C1420 C 0.01379 0.86638 0.09752 0.0
C1421 C 0.08193 0.88381 0.11941 0.0
C1422 C 0.0579 0.87841 0.11324 0.0
H1423 H 0.96237 0.81134 0.07301 0.0
H1424 H 1.00117 0.82572 0.07812 0.0
H1425 H 0.01245 0.90123 0.08476 0.0
H1426 H 0.11505 0.92765 0.13909 0.0
H1427 H 0.07473 0.91733 0.13369 0.0
C1428 C 0.36959 0.1406 0.61625 0.0
C1429 C 0.36476 0.11807 0.6231 0.0
C1430 C 0.39212 0.1483 0.6152 0.0
C1431 C 0.44899 0.1273 0.6037 0.0
H1432 H 0.46878 0.18631 0.6267 0.0
C1433 C 0.54256 0.15967 0.59747 0.0
C1434 C 0.54579 0.18336 0.59498 0.0
C1435 C 0.52053 0.15079 0.60032 0.0
C1436 C 0.46343 0.16994 0.61984 0.0
H1437 H 0.37946 0.08614 0.63509 0.0
H1438 H 0.41906 0.0996 0.63286 0.0
H1439 H 0.43026 0.17282 0.63523 0.0
H1440 H 0.52882 0.21613 0.59155 0.0
H1441 H 0.49036 0.20061 0.59538 0.0
H1442 H 0.48186 0.12467 0.58766 0.0
C1443 C 0.40535 0.11124 0.6284 0.0
C1444 C 0.44146 0.16217 0.62493 0.0
C1445 C 0.38275 0.10364 0.62984 0.0
C1446 C 0.5267 0.19782 0.59371 0.0
C1447 C 0.50473 0.18894 0.59615 0.0
C1448 C 0.47092 0.13519 0.59835 0.0
C1449 C 0.4102 0.13348 0.62064 0.0
C1450 C 0.43402 0.14088 0.61678 0.0
C1451 C 0.50143 0.16547 0.60039 0.0
C1452 C 0.4783 0.15672 0.60617 0.0
H1453 H 0.35597 0.15206 0.6111 0.0
H1454 H 0.39548 0.16552 0.60911 0.0
H1455 H 0.44347 0.11092 0.59699 0.0
H1456 H 0.55709 0.14823 0.59873 0.0
H1457 H 0.51861 0.13265 0.60363 0.0
C1458 C 0.88116 0.37439 0.4219 0.0
C1459 C 0.88072 0.39804 0.41737 0.0
C1460 C 0.90082 0.36415 0.43081 0.0
C1461 C 0.95572 0.37691 0.45967 0.0
H1462 H 0.97818 0.32477 0.42527 0.0
C1463 C 0.05078 0.35572 0.44816 0.0
C1464 C 0.05694 0.33319 0.44272 0.0
C1465 C 0.02791 0.36107 0.45275 0.0
C1466 C 0.97202 0.33892 0.43559 0.0
H1467 H 0.90045 0.42954 0.41923 0.0
H1468 H 0.93462 0.41164 0.43442 0.0
H1469 H 0.93987 0.33884 0.41833 0.0
H1470 H 0.04511 0.29814 0.44042 0.0
H1471 H 0.00539 0.30722 0.44945 0.0
H1472 H 0.98828 0.37745 0.47635 0.0
C1473 C 0.91972 0.40106 0.43135 0.0
C1474 C 0.95 0.34702 0.43151 0.0
C1475 C 0.9002 0.41125 0.42233 0.0
C1476 C 0.04055 0.31572 0.44424 0.0
C1477 C 0.01784 0.32096 0.44927 0.0
C1478 C 0.97776 0.36871 0.46386 0.0
C1479 C 0.92031 0.3774 0.43553 0.0
C1480 C 0.94192 0.36655 0.44294 0.0
C1481 C 0.01103 0.34385 0.45228 0.0
C1482 C 0.98642 0.35006 0.45132 0.0
H1483 H 0.86642 0.36374 0.41839 0.0
H1484 H 0.90083 0.34586 0.43391 0.0
H1485 H 0.94974 0.39182 0.46897 0.0
H1486 H 0.06324 0.36943 0.44701 0.0
H1487 H 0.02329 0.3789 0.45489 0.0
C1488 C 0.27649 0.41584 0.22616 0.0
C1489 C 0.26606 0.43452 0.2151 0.0
C1490 C 0.26552 0.40431 0.24422 0.0
C1491 C 0.2145 0.40695 0.28434 0.0
H1492 H 0.22507 0.3415 0.28818 0.0
C1493 C 0.15548 0.34531 0.3363 0.0
C1494 C 0.16608 0.32886 0.35039 0.0
C1495 C 0.16829 0.35861 0.32084 0.0
C1496 C 0.22205 0.35979 0.2875 0.0
H1497 H 0.2364 0.45669 0.21582 0.0
H1498 H 0.21681 0.43622 0.24653 0.0
H1499 H 0.24598 0.36417 0.26007 0.0
H1500 H 0.19872 0.31356 0.35892 0.0
H1501 H 0.22099 0.3363 0.33141 0.0
H1502 H 0.1898 0.40211 0.31128 0.0
C1503 C 0.23368 0.43045 0.24154 0.0
C1504 C 0.2342 0.37297 0.27139 0.0
C1505 C 0.24491 0.44225 0.22369 0.0
C1506 C 0.18992 0.32594 0.34832 0.0
C1507 C 0.20269 0.33897 0.3325 0.0
C1508 C 0.20208 0.39367 0.3002 0.0
C1509 C 0.24352 0.41085 0.25176 0.0
C1510 C 0.23072 0.39685 0.26948 0.0
C1511 C 0.19209 0.35565 0.31867 0.0
C1512 C 0.20566 0.36989 0.30202 0.0
H1513 H 0.29295 0.40963 0.22035 0.0
H1514 H 0.27429 0.38996 0.25197 0.0
H1515 H 0.21145 0.42521 0.28396 0.0
H1516 H 0.13723 0.34829 0.33751 0.0
H1517 H 0.15949 0.37112 0.31039 0.0
C1518 C 0.35235 0.70281 0.81774 0.0
C1519 C 0.36846 0.69426 0.83334 0.0
C1520 C 0.34275 0.68852 0.80128 0.0
C1521 C 0.32593 0.62924 0.79623 0.0
H1522 H 0.30439 0.64945 0.73685 0.0
C1523 C 0.26202 0.57971 0.73646 0.0
C1524 C 0.24577 0.59383 0.72587 0.0
C1525 C 0.27914 0.5894 0.75015 0.0
C1526 C 0.31024 0.64359 0.75344 0.0
H1527 H 0.38926 0.66491 0.84205 0.0
H1528 H 0.37194 0.6395 0.8135 0.0
H1529 H 0.33412 0.67118 0.7563 0.0
H1530 H 0.23339 0.62856 0.72233 0.0
H1531 H 0.26268 0.64537 0.74671 0.0
H1532 H 0.3014 0.60199 0.79353 0.0
C1533 C 0.3666 0.65725 0.81429 0.0
C1534 C 0.32735 0.65593 0.76448 0.0
C1535 C 0.37656 0.67177 0.83055 0.0
C1536 C 0.24567 0.61736 0.73056 0.0
C1537 C 0.26262 0.62699 0.74419 0.0
C1538 C 0.30877 0.6168 0.7851 0.0
C1539 C 0.34893 0.66529 0.80015 0.0
C1540 C 0.33481 0.64939 0.78634 0.0
C1541 C 0.28016 0.61328 0.75319 0.0
C1542 C 0.30019 0.6244 0.76399 0.0
H1543 H 0.34596 0.72016 0.81929 0.0
H1544 H 0.32917 0.69527 0.79067 0.0
H1545 H 0.33121 0.6239 0.81317 0.0
H1546 H 0.26264 0.56157 0.7326 0.0
H1547 H 0.29244 0.57847 0.75698 0.0
C1548 C 0.68694 0.20938 0.654 0.0
C1549 C 0.66345 0.2126 0.65828 0.0
C1550 C 0.70032 0.19639 0.66896 0.0
C1551 C 0.69559 0.15046 0.71203 0.0
H1552 H 0.75586 0.17051 0.73089 0.0
C1553 C 0.76007 0.13234 0.79043 0.0
C1554 C 0.76093 0.1083 0.79093 0.0
C1555 C 0.75089 0.14382 0.77168 0.0
C1556 C 0.73911 0.16461 0.72565 0.0
H1557 H 0.63578 0.205 0.68199 0.0
H1558 H 0.65921 0.18251 0.70816 0.0
H1559 H 0.73377 0.19396 0.70429 0.0
H1560 H 0.75359 0.07736 0.77193 0.0
H1561 H 0.73696 0.0976 0.7389 0.0
H1562 H 0.70071 0.12139 0.73387 0.0
C1563 C 0.66719 0.1899 0.69309 0.0
C1564 C 0.7265 0.178 0.71036 0.0
C1565 C 0.65384 0.20307 0.67825 0.0
C1566 C 0.75316 0.0959 0.77188 0.0
C1567 C 0.74355 0.10747 0.75313 0.0
C1568 C 0.70828 0.13697 0.72719 0.0
C1569 C 0.6905 0.18612 0.68844 0.0
C1570 C 0.70442 0.17129 0.70372 0.0
C1571 C 0.74206 0.13156 0.75302 0.0
C1572 C 0.73 0.14413 0.73451 0.0
H1573 H 0.69489 0.21639 0.63873 0.0
H1574 H 0.71821 0.19374 0.66485 0.0
H1575 H 0.67876 0.14465 0.70694 0.0
H1576 H 0.76609 0.14233 0.80485 0.0
H1577 H 0.74982 0.16234 0.77227 0.0
C1578 C 0.84559 0.83442 0.17588 0.0
C1579 C 0.8349 0.82071 0.15925 0.0
C1580 C 0.83274 0.84844 0.19062 0.0
C1581 C 0.77332 0.87287 0.19922 0.0
H1582 H 0.79748 0.88808 0.25906 0.0
C1583 C 0.72043 0.91215 0.27512 0.0
C1584 C 0.73113 0.9289 0.28866 0.0
C1585 C 0.73227 0.90126 0.25717 0.0
C1586 C 0.79057 0.88421 0.2423 0.0
H1587 H 0.80199 0.81075 0.14558 0.0
H1588 H 0.77949 0.83393 0.1721 0.0
H1589 H 0.81926 0.86325 0.23367 0.0
H1590 H 0.76165 0.94955 0.29186 0.0
H1591 H 0.78272 0.9301 0.26109 0.0
H1592 H 0.74401 0.89308 0.20871 0.0
C1593 C 0.79793 0.83469 0.17329 0.0
C1594 C 0.80316 0.86995 0.22755 0.0
C1595 C 0.81086 0.82105 0.15815 0.0
C1596 C 0.75318 0.93618 0.28228 0.0
C1597 C 0.76526 0.92499 0.26467 0.0
C1598 C 0.76051 0.88676 0.21422 0.0
C1599 C 0.80862 0.84887 0.18969 0.0
C1600 C 0.79486 0.86403 0.20563 0.0
C1601 C 0.75522 0.90682 0.2524 0.0
C1602 C 0.76903 0.89272 0.23592 0.0
H1603 H 0.86407 0.83492 0.17706 0.0
H1604 H 0.84195 0.85934 0.2024 0.0
H1605 H 0.7663 0.86931 0.18247 0.0
H1606 H 0.70315 0.90678 0.27912 0.0
H1607 H 0.72388 0.88756 0.24793 0.0
C1608 C 0.35699 0.18312 0.30943 0.0
C1609 C 0.35323 0.15954 0.30584 0.0
C1610 C 0.34138 0.19635 0.32193 0.0
C1611 C 0.2815 0.19758 0.34285 0.0
H1612 H 0.30462 0.24151 0.38696 0.0
C1613 C 0.22087 0.2401 0.40711 0.0
C1614 C 0.22316 0.26368 0.41133 0.0
C1615 C 0.23779 0.22801 0.39535 0.0
C1616 C 0.29786 0.22953 0.37454 0.0
H1617 H 0.32974 0.13158 0.31255 0.0
H1618 H 0.30243 0.15469 0.33433 0.0
H1619 H 0.33139 0.21926 0.3636 0.0
H1620 H 0.2455 0.29296 0.40736 0.0
H1621 H 0.27537 0.27176 0.38638 0.0
H1622 H 0.24805 0.20782 0.35357 0.0
C1623 C 0.31744 0.16297 0.32724 0.0
C1624 C 0.31322 0.21674 0.36113 0.0
C1625 C 0.33311 0.14969 0.31472 0.0
C1626 C 0.24339 0.27476 0.40449 0.0
C1627 C 0.26042 0.26259 0.39243 0.0
C1628 C 0.2662 0.21038 0.35617 0.0
C1629 C 0.3215 0.18643 0.33123 0.0
C1630 C 0.30522 0.20045 0.34522 0.0
C1631 C 0.25748 0.23917 0.38714 0.0
C1632 C 0.27413 0.22635 0.37241 0.0
H1633 H 0.37227 0.19139 0.30289 0.0
H1634 H 0.3449 0.2144 0.32429 0.0
H1635 H 0.27469 0.18558 0.33048 0.0
H1636 H 0.20554 0.23105 0.41242 0.0
H1637 H 0.23518 0.2099 0.39231 0.0
C1638 C 0.174 0.8019 0.8117 0.0
C1639 C 0.15102 0.80413 0.81841 0.0
C1640 C 0.18897 0.78791 0.82428 0.0
C1641 C 0.19654 0.7707 0.88387 0.0
H1642 H 0.24516 0.73174 0.86105 0.0
C1643 C 0.28208 0.75048 0.9305 0.0
C1644 C 0.29177 0.72878 0.92675 0.0
C1645 C 0.26094 0.75617 0.92067 0.0
C1646 C 0.23149 0.74235 0.86775 0.0
H1647 H 0.12558 0.79297 0.84303 0.0
H1648 H 0.15135 0.76826 0.86449 0.0
H1649 H 0.21677 0.74705 0.8344 0.0
H1650 H 0.28583 0.69529 0.91212 0.0
H1651 H 0.24884 0.70496 0.89548 0.0
H1652 H 0.2118 0.76678 0.91707 0.0
C1653 C 0.15787 0.77715 0.84954 0.0
C1654 C 0.21537 0.75126 0.85243 0.0
C1655 C 0.14299 0.79093 0.83692 0.0
C1656 C 0.27858 0.71201 0.91566 0.0
C1657 C 0.25762 0.71772 0.90567 0.0
C1658 C 0.21289 0.76212 0.89913 0.0
C1659 C 0.18125 0.77629 0.84403 0.0
C1660 C 0.19774 0.7656 0.86028 0.0
C1661 C 0.24927 0.74025 0.90686 0.0
C1662 C 0.23062 0.7479 0.89125 0.0
H1663 H 0.18084 0.81252 0.79807 0.0
H1664 H 0.20693 0.78769 0.81967 0.0
H1665 H 0.18333 0.78195 0.89044 0.0
H1666 H 0.29211 0.76392 0.9384 0.0
H1667 H 0.25495 0.77367 0.92196 0.0
C1668 C 0.71589 0.2756 0.5716 0.0
C1669 C 0.71487 0.25211 0.57648 0.0
C1670 C 0.73453 0.28855 0.5787 0.0
C1671 C 0.7914 0.28508 0.607 0.0
H1672 H 0.76938 0.33879 0.63955 0.0
C1673 C 0.83486 0.31812 0.6868 0.0
C1674 C 0.84213 0.34108 0.68653 0.0
C1675 C 0.81981 0.31011 0.67028 0.0
C1676 C 0.77582 0.32409 0.63022 0.0
H1677 H 0.73278 0.22318 0.59096 0.0
H1678 H 0.7652 0.24587 0.60423 0.0
H1679 H 0.74407 0.31883 0.61319 0.0
H1680 H 0.8373 0.37417 0.67019 0.0
H1681 H 0.8104 0.35999 0.64145 0.0
H1682 H 0.82268 0.28966 0.62535 0.0
C1683 C 0.75197 0.25433 0.59444 0.0
C1684 C 0.76144 0.31269 0.615 0.0
C1685 C 0.73343 0.24129 0.58694 0.0
C1686 C 0.83223 0.35633 0.67073 0.0
C1687 C 0.81695 0.34827 0.65423 0.0
C1688 C 0.80565 0.29633 0.6224 0.0
C1689 C 0.7522 0.27827 0.59125 0.0
C1690 C 0.76885 0.29263 0.60378 0.0
C1691 C 0.81147 0.3249 0.65338 0.0
C1692 C 0.79767 0.31544 0.63464 0.0
H1693 H 0.7017 0.28414 0.56329 0.0
H1694 H 0.73449 0.30682 0.57549 0.0
H1695 H 0.79774 0.26997 0.59828 0.0
H1696 H 0.84181 0.3059 0.69886 0.0
H1697 H 0.81524 0.29212 0.67026 0.0
C1698 C 0.66731 0.64599 0.18071 0.0
C1699 C 0.64982 0.65561 0.19423 0.0
C1700 C 0.68222 0.66008 0.1681 0.0
C1701 C 0.70351 0.72004 0.16467 0.0
H1702 H 0.72363 0.7021 0.10387 0.0
C1703 C 0.78063 0.76177 0.12051 0.0
C1704 C 0.78073 0.76517 0.09666 0.0
C1705 C 0.76264 0.75035 0.13129 0.0
C1706 C 0.71791 0.70753 0.12069 0.0
H1707 H 0.63457 0.68771 0.20528 0.0
H1708 H 0.66028 0.71201 0.18343 0.0
H1709 H 0.69693 0.67768 0.12507 0.0
H1710 H 0.76159 0.75988 0.06545 0.0
H1711 H 0.72969 0.73972 0.08445 0.0
H1712 H 0.72422 0.74993 0.1603 0.0
C1713 C 0.66275 0.69364 0.18264 0.0
C1714 C 0.70288 0.69333 0.13301 0.0
C1715 C 0.6479 0.67963 0.19516 0.0
C1716 C 0.76187 0.75763 0.08387 0.0
C1717 C 0.74379 0.74589 0.09472 0.0
C1718 C 0.71844 0.73419 0.15238 0.0
C1719 C 0.68003 0.68411 0.16878 0.0
C1720 C 0.69568 0.69929 0.15529 0.0
C1721 C 0.74415 0.74185 0.11857 0.0
C1722 C 0.72615 0.72798 0.13037 0.0
H1723 H 0.66913 0.62758 0.17937 0.0
H1724 H 0.69549 0.65211 0.15785 0.0
H1725 H 0.69854 0.72518 0.18181 0.0
H1726 H 0.7949 0.76742 0.13087 0.0
H1727 H 0.76375 0.74737 0.14957 0.0
C1728 C 0.41604 0.23848 0.27029 0.0
C1729 C 0.40991 0.21563 0.26573 0.0
C1730 C 0.40081 0.25648 0.26506 0.0
C1731 C 0.35204 0.26815 0.22661 0.0
H1732 H 0.33993 0.32105 0.26484 0.0
C1733 C 0.28793 0.33414 0.1955 0.0
C1734 C 0.29634 0.35661 0.19583 0.0
C1735 C 0.29792 0.31728 0.20936 0.0
C1736 C 0.34313 0.30636 0.25397 0.0
H1737 H 0.38212 0.19388 0.25382 0.0
H1738 H 0.35623 0.22464 0.24512 0.0
H1739 H 0.36715 0.29178 0.27772 0.0
H1740 H 0.32047 0.37949 0.21199 0.0
H1741 H 0.33762 0.35047 0.23624 0.0
H1742 H 0.32874 0.28259 0.20262 0.0
C1743 C 0.37291 0.22894 0.25189 0.0
C1744 C 0.35884 0.28969 0.2613 0.0
C1745 C 0.38795 0.21122 0.25689 0.0
C1746 C 0.31317 0.36244 0.21193 0.0
C1747 C 0.32321 0.34565 0.22569 0.0
C1748 C 0.33648 0.28469 0.21931 0.0
C1749 C 0.37923 0.25183 0.25535 0.0
C1750 C 0.36339 0.27033 0.2477 0.0
C1751 C 0.31671 0.32258 0.22352 0.0
C1752 C 0.33171 0.30405 0.23284 0.0
H1753 H 0.43266 0.24246 0.27736 0.0
H1754 H 0.40616 0.27399 0.26799 0.0
H1755 H 0.35545 0.25371 0.21545 0.0
H1756 H 0.27535 0.32909 0.18289 0.0
H1757 H 0.29208 0.29976 0.20765 0.0
C1758 C 0.82315 0.16161 0.82057 0.0
C1759 C 0.8197 0.16657 0.84394 0.0
C1760 C 0.83968 0.17341 0.8077 0.0
C1761 C 0.8926 0.20862 0.81354 0.0
H1762 H 0.87884 0.22641 0.75117 0.0
C1763 C 0.94251 0.27788 0.7621 0.0
C1764 C 0.94074 0.27774 0.73808 0.0
C1765 C 0.93251 0.26035 0.77525 0.0
C1766 C 0.88332 0.22117 0.76837 0.0
H1767 H 0.83113 0.18809 0.87195 0.0
H1768 H 0.85964 0.20887 0.84944 0.0
H1769 H 0.85065 0.20538 0.77334 0.0
H1770 H 0.93032 0.25742 0.70899 0.0
H1771 H 0.91447 0.22611 0.73166 0.0
H1772 H 0.92521 0.22485 0.8086 0.0
C1773 C 0.84969 0.19566 0.8411 0.0
C1774 C 0.86697 0.20914 0.78119 0.0
C1775 C 0.83306 0.18394 0.85396 0.0
C1776 C 0.93221 0.25792 0.72745 0.0
C1777 C 0.92248 0.24027 0.74053 0.0
C1778 C 0.90904 0.22066 0.80066 0.0
C1779 C 0.85337 0.19047 0.81781 0.0
C1780 C 0.87124 0.20283 0.80404 0.0
C1781 C 0.9209 0.24211 0.76457 0.0
C1782 C 0.9046 0.22726 0.77789 0.0
H1783 H 0.8134 0.14822 0.81226 0.0
H1784 H 0.84211 0.16871 0.78991 0.0
H1785 H 0.8967 0.20375 0.83096 0.0
H1786 H 0.94856 0.29309 0.77082 0.0
H1787 H 0.93187 0.26244 0.79367 0.0
C1788 C 0.59654 0.73158 0.23052 0.0
C1789 C 0.59644 0.71114 0.24332 0.0
C1790 C 0.61308 0.74855 0.23465 0.0
C1791 C 0.67064 0.75598 0.26036 0.0
H1792 H 0.6535 0.8197 0.26696 0.0
C1793 C 0.71861 0.82027 0.31669 0.0
C1794 C 0.71638 0.8438 0.31231 0.0
C1795 C 0.70906 0.80416 0.30177 0.0
C1796 C 0.65882 0.80209 0.26462 0.0
H1797 H 0.61326 0.6931 0.27115 0.0
H1798 H 0.64157 0.72247 0.27831 0.0
H1799 H 0.62517 0.79194 0.25424 0.0
H1800 H 0.70406 0.86872 0.28812 0.0
H1801 H 0.68847 0.84082 0.26137 0.0
H1802 H 0.70408 0.76597 0.27143 0.0
C1803 C 0.62927 0.72526 0.26476 0.0
C1804 C 0.64247 0.78614 0.25741 0.0
C1805 C 0.6128 0.70847 0.26076 0.0
C1806 C 0.70679 0.85078 0.29147 0.0
C1807 C 0.69727 0.83471 0.27648 0.0
C1808 C 0.68701 0.77193 0.2675 0.0
C1809 C 0.62991 0.74533 0.25154 0.0
C1810 C 0.64798 0.76279 0.25592 0.0
C1811 C 0.69697 0.81131 0.28221 0.0
C1812 C 0.68114 0.7951 0.2704 0.0
H1813 H 0.58435 0.73418 0.21684 0.0
H1814 H 0.61308 0.76387 0.2242 0.0
H1815 H 0.67558 0.73817 0.25888 0.0
H1816 H 0.72536 0.81444 0.33295 0.0
H1817 H 0.70914 0.78633 0.30689 0.0
C1818 C 0.09681 0.77646 0.79361 0.0
C1819 C 0.07492 0.7834 0.78645 0.0
C1820 C 0.10911 0.75981 0.78153 0.0
C1821 C 0.13629 0.74084 0.74101 0.0
H1822 H 0.11364 0.6818 0.7209 0.0
C1823 C 0.18282 0.68459 0.67273 0.0
C1824 C 0.18568 0.66132 0.67835 0.0
C1825 C 0.16903 0.69889 0.68633 0.0
C1826 C 0.1202 0.69824 0.72642 0.0
H1827 H 0.04777 0.77596 0.76237 0.0
H1828 H 0.06904 0.74623 0.74162 0.0
H1829 H 0.08923 0.70659 0.74463 0.0
H1830 H 0.17589 0.63492 0.70267 0.0
H1831 H 0.15166 0.65978 0.72607 0.0
H1832 H 0.16707 0.73275 0.72257 0.0
C1833 C 0.0769 0.75428 0.75634 0.0
C1834 C 0.10618 0.71247 0.7399 0.0
C1835 C 0.06466 0.7713 0.76831 0.0
C1836 C 0.17436 0.65279 0.69793 0.0
C1837 C 0.16025 0.66698 0.71124 0.0
C1838 C 0.15011 0.72684 0.72721 0.0
C1839 C 0.09966 0.7491 0.76222 0.0
C1840 C 0.11415 0.73386 0.74756 0.0
C1841 C 0.15736 0.6902 0.70561 0.0
C1842 C 0.14233 0.70529 0.71987 0.0
H1843 H 0.10502 0.78486 0.80784 0.0
H1844 H 0.12636 0.75581 0.78693 0.0
H1845 H 0.14287 0.75732 0.74638 0.0
H1846 H 0.1911 0.69172 0.6577 0.0
H1847 H 0.16709 0.71669 0.68146 0.0
C1848 C 0.73468 0.5645 0.76723 0.0
C1849 C 0.74575 0.5546 0.78611 0.0
C1850 C 0.74725 0.57204 0.74825 0.0
C1851 C 0.80558 0.5943 0.73834 0.0
H1852 H 0.78002 0.61035 0.67931 0.0
C1853 C 0.84984 0.65541 0.67198 0.0
C1854 C 0.83554 0.67261 0.66299 0.0
C1855 C 0.84078 0.63768 0.68549 0.0
C1856 C 0.78739 0.60599 0.69574 0.0
H1857 H 0.77805 0.5416 0.79839 0.0
H1858 H 0.79999 0.5537 0.76478 0.0
H1859 H 0.76125 0.58131 0.70285 0.0
H1860 H 0.80045 0.68469 0.66174 0.0
H1861 H 0.78481 0.65386 0.68518 0.0
H1862 H 0.83171 0.61912 0.73105 0.0
C1863 C 0.7817 0.55657 0.76497 0.0
C1864 C 0.77663 0.58933 0.70929 0.0
C1865 C 0.76903 0.54906 0.78404 0.0
C1866 C 0.81208 0.67192 0.66844 0.0
C1867 C 0.80302 0.65406 0.68165 0.0
C1868 C 0.81653 0.61071 0.7246 0.0
C1869 C 0.77122 0.56965 0.7476 0.0
C1870 C 0.78511 0.58375 0.73116 0.0
C1871 C 0.81718 0.63656 0.69006 0.0
C1872 C 0.80715 0.61727 0.70348 0.0
H1873 H 0.7168 0.56925 0.76849 0.0
H1874 H 0.73836 0.58192 0.73537 0.0
H1875 H 0.81256 0.59088 0.75514 0.0
H1876 H 0.86796 0.65525 0.66806 0.0
H1877 H 0.85213 0.62444 0.69175 0.0
C1878 C 0.68797 0.33207 0.17566 0.0
C1879 C 0.66871 0.33787 0.1625 0.0
C1880 C 0.69547 0.34633 0.19333 0.0
C1881 C 0.69606 0.40584 0.21351 0.0
H1882 H 0.71782 0.37746 0.26937 0.0
C1883 C 0.74386 0.45161 0.29155 0.0
C1884 C 0.76441 0.44007 0.29642 0.0
C1885 C 0.72819 0.44213 0.27578 0.0
C1886 C 0.71162 0.38572 0.25397 0.0
H1887 H 0.64204 0.36336 0.15819 0.0
H1888 H 0.65556 0.38855 0.18887 0.0
H1889 H 0.69755 0.35444 0.24119 0.0
H1890 H 0.78522 0.41056 0.28758 0.0
H1891 H 0.75841 0.39449 0.26062 0.0
H1892 H 0.71118 0.43702 0.2262 0.0
C1893 C 0.66478 0.37285 0.18535 0.0
C1894 C 0.70012 0.37249 0.23776 0.0
C1895 C 0.65702 0.35834 0.16779 0.0
C1896 C 0.76942 0.41976 0.2845 0.0
C1897 C 0.754 0.41043 0.26906 0.0
C1898 C 0.7077 0.41917 0.22985 0.0
C1899 C 0.68411 0.36697 0.19835 0.0
C1900 C 0.69292 0.38214 0.21695 0.0
C1901 C 0.73295 0.42106 0.26491 0.0
C1902 C 0.71631 0.40899 0.24987 0.0
H1903 H 0.69747 0.31651 0.17223 0.0
H1904 H 0.71059 0.34139 0.2028 0.0
H1905 H 0.69072 0.4138 0.19765 0.0
H1906 H 0.73951 0.46723 0.30057 0.0
H1907 H 0.71207 0.45073 0.27278 0.0
C1908 C 0.25567 0.87822 0.2057 0.0
C1909 C 0.24232 0.89727 0.2121 0.0
C1910 C 0.26072 0.86101 0.22145 0.0
C1911 C 0.24309 0.83629 0.27734 0.0
H1912 H 0.30548 0.81392 0.27799 0.0
C1913 C 0.28754 0.79716 0.3554 0.0
C1914 C 0.30677 0.78322 0.35192 0.0
C1915 C 0.27451 0.80454 0.33681 0.0
C1916 C 0.2878 0.81941 0.27774 0.0
H1917 H 0.22376 0.9129 0.24032 0.0
H1918 H 0.23312 0.883 0.26805 0.0
H1919 H 0.29403 0.84135 0.24912 0.0
H1920 H 0.3262 0.76409 0.32685 0.0
H1921 H 0.30296 0.77621 0.29429 0.0
H1922 H 0.23719 0.81479 0.30659 0.0
C1923 C 0.23934 0.88131 0.25063 0.0
C1924 C 0.28126 0.83534 0.2612 0.0
C1925 C 0.2342 0.8986 0.23479 0.0
C1926 C 0.31117 0.7745 0.32998 0.0
C1927 C 0.2981 0.78181 0.31132 0.0
C1928 C 0.24965 0.82027 0.29395 0.0
C1929 C 0.25268 0.86232 0.24412 0.0
C1930 C 0.25896 0.84429 0.26101 0.0
C1931 C 0.28067 0.79822 0.31436 0.0
C1932 C 0.27223 0.81194 0.2946 0.0
H1933 H 0.26202 0.87632 0.18834 0.0
H1934 H 0.27076 0.84648 0.21575 0.0
H1935 H 0.22566 0.84256 0.27741 0.0
H1936 H 0.28425 0.80463 0.37207 0.0
H1937 H 0.26132 0.81719 0.33988 0.0
C1938 C 0.18213 0.18616 0.85249 0.0
C1939 C 0.1581 0.18674 0.85088 0.0
C1940 C 0.19518 0.17287 0.83738 0.0
C1941 C 0.1904 0.12276 0.79875 0.0
H1942 H 0.24847 0.14422 0.77462 0.0
C1943 C 0.23454 0.08238 0.72047 0.0
C1944 C 0.25852 0.08116 0.71952 0.0
C1945 C 0.22349 0.09282 0.73893 0.0
C1946 C 0.2325 0.13778 0.78154 0.0
H1947 H 0.1291 0.1741 0.83159 0.0
H1948 H 0.1519 0.15126 0.80495 0.0
H1949 H 0.22651 0.16856 0.80062 0.0
H1950 H 0.2898 0.08922 0.73745 0.0
H1951 H 0.27038 0.10774 0.77007 0.0
H1952 H 0.19619 0.09218 0.77931 0.0
C1953 C 0.16062 0.16084 0.81819 0.0
C1954 C 0.21983 0.15179 0.79639 0.0
C1955 C 0.14754 0.17419 0.83329 0.0
C1956 C 0.27129 0.08973 0.73794 0.0
C1957 C 0.26017 0.10053 0.75642 0.0
C1958 C 0.20303 0.1088 0.78388 0.0
C1959 C 0.18459 0.15973 0.82026 0.0
C1960 C 0.19845 0.1446 0.80493 0.0
C1961 C 0.23613 0.10259 0.75686 0.0
C1962 C 0.22409 0.11625 0.77482 0.0
H1963 H 0.19091 0.19553 0.86585 0.0
H1964 H 0.21354 0.17232 0.83965 0.0
H1965 H 0.17429 0.1164 0.80542 0.0
H1966 H 0.22431 0.07597 0.70641 0.0
H1967 H 0.20503 0.09428 0.73851 0.0
C1968 C 0.77877 0.76726 0.56553 0.0
C1969 C 0.77885 0.74479 0.57408 0.0
C1970 C 0.76151 0.78264 0.57217 0.0
C1971 C 0.70604 0.78765 0.60424 0.0
H1972 H 0.73517 0.8399 0.63295 0.0
C1973 C 0.66529 0.83288 0.68173 0.0
C1974 C 0.66684 0.85685 0.6836 0.0
C1975 C 0.67746 0.82108 0.66477 0.0
C1976 C 0.72659 0.82567 0.62476 0.0
H1977 H 0.75928 0.71977 0.59321 0.0
H1978 H 0.72882 0.74598 0.60389 0.0
H1979 H 0.75685 0.81614 0.6063 0.0
H1980 H 0.68268 0.88714 0.66899 0.0
H1981 H 0.70397 0.86651 0.63937 0.0
H1982 H 0.67597 0.7968 0.62319 0.0
C1983 C 0.7422 0.75216 0.59258 0.0
C1984 C 0.73903 0.81206 0.60934 0.0
C1985 C 0.7596 0.73699 0.58629 0.0
C1986 C 0.68139 0.86864 0.66837 0.0
C1987 C 0.69352 0.85681 0.65127 0.0
C1988 C 0.69359 0.80129 0.61959 0.0
C1989 C 0.74374 0.77553 0.58694 0.0
C1990 C 0.72912 0.79247 0.59939 0.0
C1991 C 0.69145 0.83288 0.64903 0.0
C1992 C 0.70391 0.82006 0.63063 0.0
H1993 H 0.79327 0.77362 0.55592 0.0
H1994 H 0.76294 0.80043 0.56707 0.0
H1995 H 0.69777 0.77288 0.59668 0.0
H1996 H 0.65425 0.8232 0.69313 0.0
H1997 H 0.67584 0.80262 0.66399 0.0
C1998 C 0.74434 0.27189 0.07981 0.0
C1999 C 0.7244 0.26279 0.07007 0.0
C2000 C 0.76296 0.2578 0.08473 0.0
C2001 C 0.7725 0.19764 0.10086 0.0
H2002 H 0.83376 0.22051 0.11165 0.0
C2003 C 0.84477 0.15148 0.15453 0.0
C2004 C 0.85253 0.16546 0.17261 0.0
C2005 C 0.83027 0.16039 0.13755 0.0
C2006 C 0.81678 0.21378 0.10856 0.0
H2007 H 0.70941 0.23244 0.05517 0.0
H2008 H 0.74217 0.20763 0.06343 0.0
H2009 H 0.80824 0.24148 0.08621 0.0
H2010 H 0.85059 0.19979 0.18694 0.0
H2011 H 0.82585 0.2151 0.15735 0.0
H2012 H 0.78125 0.17004 0.12361 0.0
C2013 C 0.7432 0.22561 0.06782 0.0
C2014 C 0.80208 0.22584 0.09406 0.0
C2015 C 0.72454 0.23988 0.06274 0.0
C2016 C 0.845 0.18836 0.17346 0.0
C2017 C 0.83094 0.19728 0.15636 0.0
C2018 C 0.7874 0.18536 0.11511 0.0
C2019 C 0.76215 0.23416 0.08004 0.0
C2020 C 0.77937 0.21853 0.09078 0.0
C2021 C 0.82365 0.18353 0.13809 0.0
C2022 C 0.80935 0.19383 0.11979 0.0
H2023 H 0.74466 0.28947 0.08576 0.0
H2024 H 0.77704 0.26517 0.09419 0.0
H2025 H 0.75513 0.1915 0.099 0.0
H2026 H 0.85027 0.13382 0.1532 0.0
H2027 H 0.8248 0.14942 0.12364 0.0
C2028 C 0.15555 0.68891 0.32073 0.0
C2029 C 0.15474 0.66485 0.32159 0.0
C2030 C 0.17075 0.70122 0.33468 0.0
C2031 C 0.22204 0.69355 0.37305 0.0
H2032 H 0.2049 0.75402 0.39448 0.0
C2033 C 0.27525 0.74226 0.44117 0.0
C2034 C 0.2824 0.76417 0.43411 0.0
C2035 C 0.25801 0.73058 0.42919 0.0
C2036 C 0.20992 0.73714 0.38864 0.0
H2037 H 0.16922 0.63498 0.33818 0.0
H2038 H 0.19478 0.65619 0.36292 0.0
H2039 H 0.17902 0.73278 0.3696 0.0
H2040 H 0.27535 0.79184 0.41045 0.0
H2041 H 0.2449 0.77184 0.39008 0.0
H2042 H 0.25271 0.69786 0.39266 0.0
C2043 C 0.18444 0.66575 0.35093 0.0
C2044 C 0.19516 0.72496 0.37413 0.0
C2045 C 0.16961 0.65347 0.33668 0.0
C2046 C 0.27045 0.77489 0.41616 0.0
C2047 C 0.25295 0.76343 0.40449 0.0
C2048 C 0.23656 0.70556 0.38787 0.0
C2049 C 0.18528 0.68987 0.35027 0.0
C2050 C 0.20101 0.70298 0.36593 0.0
C2051 C 0.24708 0.74081 0.41031 0.0
C2052 C 0.23077 0.72756 0.39575 0.0
H2053 H 0.14431 0.69826 0.30937 0.0
H2054 H 0.17105 0.71969 0.33317 0.0
H2055 H 0.22763 0.677 0.36686 0.0
H2056 H 0.28387 0.73361 0.45507 0.0
H2057 H 0.25363 0.7133 0.43432 0.0
C2058 C 0.23676 0.23476 0.90651 0.0
C2059 C 0.21587 0.24538 0.9119 0.0
C2060 C 0.25403 0.24704 0.895 0.0
C2061 C 0.2611 0.29907 0.8585 0.0
H2062 H 0.32576 0.29078 0.87011 0.0
C2063 C 0.33055 0.3602 0.82227 0.0
C2064 C 0.35063 0.35009 0.81359 0.0
C2065 C 0.31419 0.34693 0.83384 0.0
C2066 C 0.30775 0.29314 0.86654 0.0
H2067 H 0.19729 0.27751 0.91095 0.0
H2068 H 0.22732 0.29889 0.89182 0.0
H2069 H 0.29777 0.26843 0.89188 0.0
H2070 H 0.36892 0.31785 0.81008 0.0
H2071 H 0.34046 0.29495 0.83016 0.0
H2072 H 0.27106 0.324 0.83344 0.0
C2073 C 0.23025 0.28095 0.89548 0.0
C2074 C 0.2917 0.28028 0.87899 0.0
C2075 C 0.21304 0.2687 0.90664 0.0
C2076 C 0.3537 0.32632 0.81647 0.0
C2077 C 0.33746 0.31315 0.82818 0.0
C2078 C 0.27711 0.31202 0.84623 0.0
C2079 C 0.25075 0.27021 0.88891 0.0
C2080 C 0.26813 0.2832 0.87526 0.0
C2081 C 0.3176 0.3233 0.83718 0.0
C2082 C 0.30062 0.30929 0.85014 0.0
H2083 H 0.23936 0.21679 0.91031 0.0
H2084 H 0.26958 0.23817 0.89019 0.0
H2085 H 0.24315 0.30143 0.85469 0.0
H2086 H 0.32765 0.37843 0.82053 0.0
H2087 H 0.29912 0.3553 0.84071 0.0
C2088 C 0.62995 0.79385 0.74694 0.0
C2089 C 0.60635 0.79562 0.74312 0.0
C2090 C 0.63874 0.77618 0.76035 0.0
C2091 C 0.62486 0.72031 0.78808 0.0
H2092 H 0.67717 0.73685 0.82529 0.0
C2093 C 0.66921 0.65868 0.85332 0.0
C2094 C 0.69211 0.65481 0.84693 0.0
C2095 C 0.65678 0.67665 0.84338 0.0
C2096 C 0.66246 0.73206 0.81512 0.0
H2097 H 0.57341 0.78 0.74969 0.0
H2098 H 0.58868 0.74924 0.77379 0.0
H2099 H 0.6589 0.76579 0.80158 0.0
H2100 H 0.7204 0.66773 0.82655 0.0
H2101 H 0.69909 0.69955 0.81013 0.0
H2102 H 0.62856 0.68648 0.8021 0.0
C2103 C 0.6005 0.76126 0.76604 0.0
C2104 C 0.65212 0.74854 0.80128 0.0
C2105 C 0.59172 0.77881 0.75219 0.0
C2106 C 0.70275 0.67016 0.8317 0.0
C2107 C 0.69057 0.68839 0.82231 0.0
C2108 C 0.63504 0.70386 0.80227 0.0
C2109 C 0.6241 0.76009 0.77079 0.0
C2110 C 0.63361 0.74276 0.78701 0.0
C2111 C 0.66734 0.69146 0.82756 0.0
C2112 C 0.65428 0.70949 0.81547 0.0
H2113 H 0.64161 0.80651 0.73996 0.0
H2114 H 0.65706 0.77544 0.76286 0.0
H2115 H 0.61072 0.71516 0.77732 0.0
H2116 H 0.66065 0.64725 0.86517 0.0
H2117 H 0.6389 0.67881 0.8478 0.0
C2118 C 0.19162 0.85137 0.1754 0.0
C2119 C 0.19189 0.85127 0.15126 0.0
C2120 C 0.17958 0.83474 0.18758 0.0
C2121 C 0.1565 0.77718 0.18548 0.0
H2122 H 0.11316 0.79928 0.23092 0.0
C2123 C 0.09712 0.71482 0.23276 0.0
C2124 C 0.09279 0.71869 0.25611 0.0
C2125 C 0.10784 0.73146 0.21941 0.0
C2126 C 0.12539 0.79277 0.21855 0.0
H2127 H 0.18051 0.83287 0.12109 0.0
H2128 H 0.15984 0.80328 0.14262 0.0
H2129 H 0.13571 0.82658 0.20864 0.0
H2130 H 0.09571 0.74312 0.28381 0.0
H2131 H 0.11534 0.77213 0.2607 0.0
H2132 H 0.14701 0.74342 0.19581 0.0
C2133 C 0.16885 0.81653 0.15192 0.0
C2134 C 0.1382 0.80842 0.20572 0.0
C2135 C 0.18072 0.83341 0.13963 0.0
C2136 C 0.09876 0.73983 0.26579 0.0
C2137 C 0.10994 0.75642 0.25249 0.0
C2138 C 0.14396 0.76151 0.19854 0.0
C2139 C 0.16776 0.81742 0.17597 0.0
C2140 C 0.15387 0.80076 0.1891 0.0
C2141 C 0.11496 0.75226 0.22919 0.0
C2142 C 0.12819 0.76908 0.21523 0.0
H2143 H 0.20015 0.86473 0.18501 0.0
H2144 H 0.1793 0.83555 0.20613 0.0
H2145 H 0.16867 0.77087 0.17294 0.0
H2146 H 0.09236 0.69874 0.22481 0.0
H2147 H 0.11072 0.72788 0.20142 0.0
C2148 C 0.31757 0.14661 0.68316 0.0
C2149 C 0.30804 0.15144 0.66155 0.0
C2150 C 0.33025 0.16322 0.69506 0.0
C2151 C 0.36156 0.21863 0.68589 0.0
H2152 H 0.35972 0.22231 0.75221 0.0
C2153 C 0.39732 0.2967 0.73512 0.0
C2154 C 0.40964 0.29312 0.75552 0.0
C2155 C 0.38603 0.27866 0.72412 0.0
C2156 C 0.36066 0.22136 0.7337 0.0
H2157 H 0.30424 0.17798 0.63586 0.0
H2158 H 0.32562 0.20697 0.65673 0.0
H2159 H 0.33736 0.19301 0.73249 0.0
H2160 H 0.41953 0.26727 0.78023 0.0
H2161 H 0.39957 0.23565 0.76103 0.0
H2162 H 0.38449 0.24725 0.68709 0.0
C2163 C 0.32382 0.19016 0.66436 0.0
C2164 C 0.3478 0.20449 0.72231 0.0
C2165 C 0.31127 0.17352 0.65241 0.0
C2166 C 0.41033 0.27074 0.76454 0.0
C2167 C 0.39874 0.25263 0.7536 0.0
C2168 C 0.37423 0.23556 0.69724 0.0
C2169 C 0.33376 0.18526 0.68579 0.0
C2170 C 0.34787 0.20295 0.69817 0.0
C2171 C 0.38644 0.25635 0.73319 0.0
C2172 C 0.37385 0.23734 0.72131 0.0
H2173 H 0.31568 0.12978 0.69073 0.0
H2174 H 0.33777 0.15853 0.71132 0.0
H2175 H 0.36269 0.21778 0.66739 0.0
H2176 H 0.39631 0.31359 0.72751 0.0
H2177 H 0.37655 0.28234 0.70864 0.0
C2178 C 0.84074 0.35946 0.31029 0.0
C2179 C 0.84361 0.36688 0.33303 0.0
C2180 C 0.85716 0.34555 0.29967 0.0
C2181 C 0.89987 0.30191 0.3118 0.0
H2182 H 0.91941 0.31283 0.2492 0.0
C2183 C 0.94855 0.23151 0.2623 0.0
C2184 C 0.93963 0.22741 0.24036 0.0
C2185 C 0.94352 0.25206 0.27386 0.0
C2186 C 0.91408 0.30937 0.26664 0.0
H2187 H 0.8662 0.36551 0.36239 0.0
H2188 H 0.89463 0.3406 0.34394 0.0
H2189 H 0.89632 0.34144 0.26908 0.0
H2190 H 0.92057 0.24244 0.21247 0.0
H2191 H 0.91202 0.27789 0.23212 0.0
H2192 H 0.91627 0.26926 0.30904 0.0
C2193 C 0.87973 0.34585 0.33431 0.0
C2194 C 0.90089 0.32587 0.27806 0.0
C2195 C 0.8635 0.3602 0.34482 0.0
C2196 C 0.92786 0.2452 0.22929 0.0
C2197 C 0.92288 0.26562 0.24072 0.0
C2198 C 0.91277 0.2852 0.30025 0.0
C2199 C 0.8767 0.33831 0.31162 0.0
C2200 C 0.89315 0.32211 0.30058 0.0
C2201 C 0.92957 0.26894 0.26364 0.0
C2202 C 0.91955 0.28838 0.27725 0.0
H2203 H 0.82568 0.3643 0.30069 0.0
H2204 H 0.8542 0.33987 0.28226 0.0
H2205 H 0.89408 0.29844 0.32911 0.0
H2206 H 0.95755 0.21808 0.27131 0.0
H2207 H 0.9495 0.25415 0.29127 0.0
C2208 C 0.19089 0.36567 0.50287 0.0
C2209 C 0.17332 0.36708 0.48657 0.0
C2210 C 0.19477 0.38366 0.51821 0.0
C2211 C 0.16619 0.43592 0.54193 0.0
H2212 H 0.22656 0.44822 0.56634 0.0
C2213 C 0.18881 0.5176 0.59253 0.0
C2214 C 0.19764 0.51391 0.61463 0.0
C2215 C 0.18683 0.49952 0.57702 0.0
C2216 C 0.20961 0.44483 0.55971 0.0
H2217 H 0.14664 0.38887 0.47299 0.0
H2218 H 0.15419 0.42074 0.49869 0.0
H2219 H 0.22156 0.41783 0.53801 0.0
H2220 H 0.21192 0.48842 0.63749 0.0
H2221 H 0.20911 0.4568 0.60986 0.0
H2222 H 0.15458 0.46367 0.56302 0.0
C2223 C 0.16443 0.4054 0.50042 0.0
C2224 C 0.20665 0.42735 0.54355 0.0
C2225 C 0.16022 0.3872 0.48544 0.0
C2226 C 0.20501 0.49178 0.62062 0.0
C2227 C 0.20349 0.47374 0.60484 0.0
C2228 C 0.16926 0.45366 0.55768 0.0
C2229 C 0.18146 0.40375 0.51736 0.0
C2230 C 0.18486 0.4226 0.5344 0.0
C2231 C 0.19404 0.47743 0.58305 0.0
C2232 C 0.19097 0.45826 0.56673 0.0
H2233 H 0.20111 0.35028 0.50438 0.0
H2234 H 0.20778 0.38144 0.53116 0.0
H2235 H 0.14904 0.43253 0.5359 0.0
H2236 H 0.18284 0.53438 0.58736 0.0
H2237 H 0.17959 0.50278 0.56027 0.0
C2238 C 0.32279 0.50555 0.07463 0.0
C2239 C 0.30243 0.50462 0.08753 0.0
C2240 C 0.32586 0.52223 0.05766 0.0
C2241 C 0.30488 0.57932 0.03936 0.0
H2242 H 0.33997 0.56537 0.98462 0.0
C2243 C 0.32989 0.649 0.97212 0.0
C2244 C 0.35364 0.64946 0.96832 0.0
C2245 C 0.31974 0.63016 0.98328 0.0
C2246 C 0.33001 0.56951 0.99975 0.0
H2247 H 0.26914 0.52053 0.09216 0.0
H2248 H 0.27444 0.54932 0.06247 0.0
H2249 H 0.33001 0.53469 0.01121 0.0
H2250 H 0.38509 0.63025 0.97227 0.0
H2251 H 0.36752 0.5975 0.99071 0.0
H2252 H 0.30538 0.61428 0.02799 0.0
C2253 C 0.2882 0.53736 0.06573 0.0
C2254 C 0.32445 0.55196 0.01511 0.0
C2255 C 0.28513 0.52071 0.08275 0.0
C2256 C 0.36673 0.63034 0.97474 0.0
C2257 C 0.35663 0.6115 0.98532 0.0
C2258 C 0.31036 0.59688 0.0239 0.0
C2259 C 0.30864 0.53843 0.05301 0.0
C2260 C 0.31237 0.55671 0.03546 0.0
C2261 C 0.33314 0.61133 0.99024 0.0
C2262 C 0.32356 0.59227 0.00426 0.0
H2263 H 0.33654 0.49353 0.07776 0.0
H2264 H 0.342 0.52272 0.0485 0.0
H2265 H 0.2957 0.5837 0.0549 0.0
H2266 H 0.31942 0.66359 0.96754 0.0
H2267 H 0.30155 0.63047 0.98686 0.0
C2268 C 0.67811 0.12828 0.54066 0.0
C2269 C 0.65583 0.13526 0.54656 0.0
C2270 C 0.68171 0.1084 0.52792 0.0
C2271 C 0.65638 0.05485 0.50608 0.0
H2272 H 0.69489 0.06768 0.45335 0.0
C2273 C 0.66604 0.99258 0.42856 0.0
C2274 C 0.6877 0.99136 0.41802 0.0
C2275 C 0.66173 0.00866 0.44589 0.0
C2276 C 0.6844 0.06359 0.46813 0.0
H2277 H 0.62001 0.12555 0.54542 0.0
H2278 H 0.62641 0.09067 0.52308 0.0
H2279 H 0.68858 0.0972 0.4819 0.0
H2280 H 0.72208 0.00538 0.41828 0.0
H2281 H 0.71477 0.0328 0.44861 0.0
H2282 H 0.65236 0.02106 0.49222 0.0
C2283 C 0.64104 0.10076 0.52829 0.0
C2284 C 0.68075 0.08058 0.48451 0.0
C2285 C 0.63739 0.12077 0.54108 0.0
C2286 C 0.70508 0.00608 0.42568 0.0
C2287 C 0.70085 0.02192 0.44307 0.0
C2288 C 0.66021 0.03767 0.4897 0.0
C2289 C 0.66316 0.09494 0.52078 0.0
C2290 C 0.66685 0.0764 0.50375 0.0
C2291 C 0.67904 0.02373 0.45315 0.0
C2292 C 0.67441 0.04182 0.47059 0.0
H2293 H 0.69278 0.13876 0.54491 0.0
H2294 H 0.69902 0.10403 0.52283 0.0
H2295 H 0.64557 0.05117 0.52074 0.0
H2296 H 0.65226 0.98148 0.4231 0.0
H2297 H 0.64469 0.00967 0.45314 0.0
C2298 C 0.81414 0.86762 0.01042 0.0
C2299 C 0.8309 0.86944 0.02758 0.0
C2300 C 0.80947 0.88601 0.99581 0.0
C2301 C 0.81114 0.94808 0.99054 0.0
H2302 H 0.81391 0.93742 0.925 0.0
C2303 C 0.8064 0.02312 0.92621 0.0
C2304 C 0.79743 0.01956 0.90416 0.0
C2305 C 0.80946 0.00485 0.94137 0.0
C2306 C 0.81256 0.94073 0.9432 0.0
H2307 H 0.85551 0.89241 0.04312 0.0
H2308 H 0.84672 0.92494 0.01795 0.0
H2309 H 0.82106 0.90594 0.95145 0.0
H2310 H 0.78403 0.99391 0.88105 0.0
H2311 H 0.78824 0.96206 0.90789 0.0
H2312 H 0.80177 0.98253 0.98261 0.0
C2313 C 0.83745 0.90904 0.01574 0.0
C2314 C 0.81688 0.92264 0.95837 0.0
C2315 C 0.8425 0.89041 0.0301 0.0
C2316 C 0.79107 0.99723 0.89786 0.0
C2317 C 0.79371 0.97892 0.91326 0.0
C2318 C 0.80634 0.96608 0.9754 0.0
C2319 C 0.82111 0.90689 0.99822 0.0
C2320 C 0.8164 0.92616 0.9822 0.0
C2321 C 0.80322 0.98239 0.93521 0.0
C2322 C 0.80721 0.9628 0.95143 0.0
H2323 H 0.80499 0.8517 0.0078 0.0
H2324 H 0.7967 0.88391 0.98257 0.0
H2325 H 0.81034 0.95121 0.00882 0.0
H2326 H 0.81183 0.04001 0.93161 0.0
H2327 H 0.81735 0.0084 0.95773 0.0
C2328 C 0.57428 0.20254 0.51724 0.0
C2329 C 0.59786 0.20131 0.51247 0.0
C2330 C 0.55834 0.19922 0.49989 0.0
C2331 C 0.55105 0.20033 0.43762 0.0
H2332 H 0.50052 0.15883 0.44964 0.0
C2333 C 0.48047 0.18681 0.37171 0.0
C2334 C 0.47567 0.16383 0.36629 0.0
C2335 C 0.49307 0.19226 0.39115 0.0
C2336 C 0.51455 0.17043 0.44608 0.0
H2337 H 0.62317 0.1964 0.48562 0.0
H2338 H 0.59518 0.19063 0.45524 0.0
H2339 H 0.5281 0.16705 0.47993 0.0
H2340 H 0.47899 0.12868 0.37798 0.0
H2341 H 0.50115 0.1383 0.41198 0.0
H2342 H 0.53785 0.20338 0.40368 0.0
C2343 C 0.58914 0.19418 0.47245 0.0
C2344 C 0.5302 0.17528 0.46342 0.0
C2345 C 0.60514 0.19738 0.48984 0.0
C2346 C 0.48249 0.14654 0.38158 0.0
C2347 C 0.49512 0.15203 0.40109 0.0
C2348 C 0.53536 0.19559 0.42035 0.0
C2349 C 0.56561 0.19475 0.47741 0.0
C2350 C 0.54866 0.19016 0.45927 0.0
C2351 C 0.5011 0.17489 0.40563 0.0
C2352 C 0.51702 0.18053 0.42439 0.0
H2353 H 0.56806 0.20559 0.53448 0.0
H2354 H 0.54029 0.20007 0.50409 0.0
H2355 H 0.56504 0.21198 0.43404 0.0
H2356 H 0.47516 0.20063 0.36055 0.0
H2357 H 0.49703 0.21006 0.39454 0.0
C2358 C 0.88654 0.80183 0.98527 0.0
C2359 C 0.8937 0.80311 0.00823 0.0
C2360 C 0.90249 0.80365 0.96722 0.0
C2361 C 0.95984 0.8275 0.95437 0.0
H2362 H 0.95784 0.78868 0.90061 0.0
C2363 C 0.02846 0.83535 0.88238 0.0
C2364 C 0.02073 0.83333 0.85967 0.0
C2365 C 0.01405 0.8296 0.9009 0.0
C2366 C 0.95856 0.7999 0.91535 0.0
H2367 H 0.92361 0.80675 0.02998 0.0
H2368 H 0.95097 0.80994 0.9988 0.0
H2369 H 0.92996 0.78311 0.93134 0.0
H2370 H 0.9918 0.8229 0.83886 0.0
H2371 H 0.96693 0.81353 0.87068 0.0
H2372 H 0.98796 0.84474 0.93829 0.0
C2373 C 0.93307 0.80774 0.99466 0.0
C2374 C 0.94251 0.79664 0.93302 0.0
C2375 C 0.91726 0.80572 0.0126 0.0
C2376 C 0.99852 0.82472 0.85603 0.0
C2377 C 0.98416 0.81914 0.87443 0.0
C2378 C 0.97573 0.83092 0.93662 0.0
C2379 C 0.92593 0.80703 0.97172 0.0
C2380 C 0.94292 0.81042 0.95276 0.0
C2381 C 0.99151 0.82176 0.8972 0.0
C2382 C 0.97532 0.81724 0.91676 0.0
H2383 H 0.86859 0.79986 0.98121 0.0
H2384 H 0.89638 0.8031 0.94974 0.0
H2385 H 0.9605 0.83864 0.96919 0.0
H2386 H 0.04541 0.84192 0.88591 0.0
H2387 H 0.02056 0.83152 0.91813 0.0
C2388 C 0.12151 0.29812 0.5251 0.0
C2389 C 0.11445 0.29582 0.50218 0.0
C2390 C 0.10531 0.29855 0.54306 0.0
C2391 C 0.04427 0.31263 0.55306 0.0
H2392 H 0.0522 0.28319 0.61199 0.0
C2393 C 0.97354 0.32019 0.62154 0.0
C2394 C 0.98063 0.32413 0.64413 0.0
C2395 C 0.98915 0.3125 0.60489 0.0
C2396 C 0.04973 0.2917 0.59571 0.0
H2397 H 0.08467 0.29101 0.48051 0.0
H2398 H 0.05692 0.29171 0.51145 0.0
H2399 H 0.08146 0.27868 0.58222 0.0
H2400 H 0.0095 0.32289 0.66712 0.0
H2401 H 0.03677 0.30964 0.6383 0.0
H2402 H 0.01309 0.32629 0.56644 0.0
C2403 C 0.07485 0.29357 0.51565 0.0
C2404 C 0.06658 0.28909 0.57861 0.0
C2405 C 0.09091 0.29303 0.49785 0.0
C2406 C 0.00338 0.31919 0.65 0.0
C2407 C 0.01908 0.31174 0.63334 0.0
C2408 C 0.02758 0.31539 0.57012 0.0
C2409 C 0.0817 0.29683 0.53848 0.0
C2410 C 0.06403 0.29948 0.55701 0.0
C2411 C 0.01243 0.3091 0.61029 0.0
C2412 C 0.02995 0.30496 0.59176 0.0
H2413 H 0.13943 0.30034 0.52913 0.0
H2414 H 0.11122 0.30113 0.56043 0.0
H2415 H 0.04187 0.32129 0.53682 0.0
H2416 H 0.95627 0.32449 0.61641 0.0
H2417 H 0.98313 0.3102 0.58753 0.0
C2418 C 0.50137 0.6534 0.13731 0.0
C2419 C 0.51852 0.66848 0.14467 0.0
C2420 C 0.48366 0.66122 0.12336 0.0
C2421 C 0.45568 0.71553 0.10417 0.0
H2422 H 0.42845 0.67542 0.05898 0.0
C2423 C 0.4119 0.74004 0.01983 0.0
C2424 C 0.39437 0.72565 0.012 0.0
C2425 C 0.42114 0.73682 0.04161 0.0
C2426 C 0.43551 0.68668 0.0719 0.0
H2427 H 0.53136 0.70318 0.14235 0.0
H2428 H 0.50139 0.71654 0.11672 0.0
H2429 H 0.45878 0.66102 0.08321 0.0
H2430 H 0.3707 0.69876 0.02147 0.0
H2431 H 0.387 0.69293 0.05954 0.0
H2432 H 0.43331 0.74168 0.0913 0.0
C2433 C 0.5009 0.69893 0.1225 0.0
C2434 C 0.453 0.67844 0.08581 0.0
C2435 C 0.51832 0.69121 0.13688 0.0
C2436 C 0.38403 0.71025 0.0273 0.0
C2437 C 0.39353 0.70673 0.04895 0.0
C2438 C 0.43845 0.72391 0.08987 0.0
C2439 C 0.48297 0.68421 0.11606 0.0
C2440 C 0.46358 0.69281 0.10194 0.0
C2441 C 0.41317 0.7189 0.05556 0.0
C2442 C 0.42837 0.70959 0.07348 0.0
H2443 H 0.50082 0.6359 0.14348 0.0
H2444 H 0.47007 0.64939 0.1191 0.0
H2445 H 0.46297 0.72698 0.11676 0.0
H2446 H 0.42023 0.75187 0.00816 0.0
H2447 H 0.43628 0.74642 0.04628 0.0
C2448 C 0.47368 0.61706 0.20675 0.0
C2449 C 0.49586 0.60787 0.20868 0.0
C2450 C 0.45459 0.60256 0.20435 0.0
C2451 C 0.43982 0.54422 0.18416 0.0
H2452 H 0.3818 0.55435 0.21477 0.0
C2453 C 0.36515 0.47972 0.17398 0.0
C2454 C 0.34294 0.48876 0.17203 0.0
C2455 C 0.38353 0.49371 0.18062 0.0
C2456 C 0.39778 0.55135 0.20584 0.0
H2457 H 0.51494 0.57598 0.21059 0.0
H2458 H 0.482 0.55112 0.20647 0.0
H2459 H 0.41374 0.58035 0.22187 0.0
H2460 H 0.32278 0.51972 0.17626 0.0
H2461 H 0.35457 0.54393 0.18728 0.0
H2462 H 0.42395 0.51566 0.16769 0.0
C2463 C 0.4793 0.56947 0.20645 0.0
C2464 C 0.41614 0.56631 0.20997 0.0
C2465 C 0.49825 0.58385 0.20897 0.0
C2466 C 0.33956 0.512 0.17762 0.0
C2467 C 0.3579 0.52597 0.1841 0.0
C2468 C 0.42147 0.52941 0.17989 0.0
C2469 C 0.45725 0.57856 0.20365 0.0
C2470 C 0.43744 0.56291 0.19923 0.0
C2471 C 0.38028 0.51719 0.18537 0.0
C2472 C 0.40012 0.53268 0.19065 0.0
H2473 H 0.47113 0.63542 0.2064 0.0
H2474 H 0.43785 0.61016 0.20219 0.0
H2475 H 0.45584 0.54126 0.17526 0.0
H2476 H 0.3685 0.46194 0.16984 0.0
H2477 H 0.40037 0.4861 0.18181 0.0
C2478 C 0.8653 0.03243 0.81828 0.0
C2479 C 0.86306 0.04176 0.8404 0.0
C2480 C 0.88441 0.0194 0.8124 0.0
C2481 C 0.9432 0.0044 0.82924 0.0
H2482 H 0.92853 0.94589 0.80142 0.0
C2483 C 0.00571 0.92832 0.8285 0.0
C2484 C 0.0061 0.91379 0.80927 0.0
C2485 C 0.98963 0.94587 0.8302 0.0
C2486 C 0.93302 0.96231 0.80878 0.0
H2487 H 0.87993 0.04579 0.87326 0.0
H2488 H 0.91325 0.02284 0.86296 0.0
H2489 H 0.89834 0.97376 0.80803 0.0
H2490 H 0.99027 0.90687 0.77639 0.0
H2491 H 0.96239 0.93772 0.77928 0.0
H2492 H 0.9779 0.99279 0.83021 0.0
C2493 C 0.90015 0.0257 0.8502 0.0
C2494 C 0.9157 0.97827 0.8126 0.0
C2495 C 0.88098 0.03872 0.85613 0.0
C2496 C 0.99033 0.91757 0.79155 0.0
C2497 C 0.9743 0.93522 0.79323 0.0
C2498 C 0.96059 0.98845 0.8253 0.0
C2499 C 0.90175 0.01545 0.82846 0.0
C2500 C 0.92057 0.99936 0.82309 0.0
C2501 C 0.97362 0.94941 0.81269 0.0
C2502 C 0.95562 0.96711 0.81529 0.0
H2503 H 0.85202 0.03461 0.80559 0.0
H2504 H 0.8854 0.01202 0.7954 0.0
H2505 H 0.94745 0.02063 0.83714 0.0
H2506 H 0.01758 0.92598 0.8425 0.0
H2507 H 0.98937 0.95626 0.84558 0.0
C2508 C 0.52828 0.11197 0.29767 0.0
C2509 C 0.50519 0.10523 0.29906 0.0
C2510 C 0.54598 0.09578 0.30055 0.0
C2511 C 0.55779 0.03948 0.32754 0.0
H2512 H 0.60891 0.03543 0.28539 0.0
C2513 C 0.62595 0.96733 0.33723 0.0
C2514 C 0.64882 0.97332 0.33266 0.0
C2515 C 0.60794 0.98223 0.33121 0.0
C2516 C 0.59498 0.0364 0.29762 0.0
H2517 H 0.48296 0.07584 0.30476 0.0
H2518 H 0.5134 0.0483 0.31 0.0
H2519 H 0.57992 0.06494 0.27991 0.0
H2520 H 0.67032 0.99933 0.31694 0.0
H2521 H 0.63961 0.02504 0.30718 0.0
H2522 H 0.57296 0.01154 0.34572 0.0
C2523 C 0.51795 0.06598 0.30663 0.0
C2524 C 0.57829 0.05342 0.29438 0.0
C2525 C 0.50042 0.08191 0.3034 0.0
C2526 C 0.65299 0.994 0.32087 0.0
C2527 C 0.63517 0.00885 0.31506 0.0
C2528 C 0.57463 0.0227 0.331 0.0
C2529 C 0.54098 0.0726 0.30536 0.0
C2530 C 0.55942 0.05516 0.30926 0.0
C2531 C 0.61231 1.00356 0.32053 0.0
C2532 C 0.59358 0.02081 0.31611 0.0
H2533 H 0.53266 0.1297 0.29441 0.0
H2534 H 0.56358 0.10148 0.29952 0.0
H2535 H 0.54358 0.04041 0.33948 0.0
H2536 H 0.62201 0.95166 0.34637 0.0
H2537 H 0.59061 0.97715 0.33535 0.0
C2538 C 0.12683 0.5176 0.66166 0.0
C2539 C 0.13645 0.53077 0.67927 0.0
C2540 C 0.11285 0.49896 0.66684 0.0
C2541 C 0.09901 0.45909 0.71476 0.0
H2542 H 0.0514 0.4399 0.67293 0.0
C2543 C 0.01914 0.39979 0.72596 0.0
C2544 C 0.01625 0.38392 0.70816 0.0
C2545 C 0.03862 0.41359 0.72657 0.0
C2546 C 0.06489 0.44495 0.68457 0.0
H2547 H 0.13781 0.53577 0.71603 0.0
H2548 H 0.11219 0.50402 0.7251 0.0
H2549 H 0.07222 0.47507 0.66536 0.0
H2550 H 0.0319 0.36836 0.67836 0.0
H2551 H 0.06585 0.39285 0.67914 0.0
H2552 H 0.0902 0.42932 0.73468 0.0
C2553 C 0.11624 0.50744 0.70731 0.0
C2554 C 0.07686 0.46509 0.68026 0.0
C2555 C 0.13065 0.52584 0.70213 0.0
C2556 C 0.0341 0.38017 0.69251 0.0
C2557 C 0.0534 0.39423 0.69288 0.0
C2558 C 0.08656 0.43911 0.71936 0.0
C2559 C 0.10772 0.49333 0.68975 0.0
C2560 C 0.09424 0.47238 0.69515 0.0
C2561 C 0.05503 0.41192 0.70906 0.0
C2562 C 0.06963 0.43184 0.70411 0.0
H2563 H 0.13132 0.5207 0.6439 0.0
H2564 H 0.10701 0.48837 0.65282 0.0
H2565 H 0.1125 0.46393 0.72645 0.0
H2566 H 0.00524 0.40343 0.73773 0.0
H2567 H 0.03946 0.42735 0.73899 0.0
C2568 C 0.77885 0.5133 0.42098 0.0
C2569 C 0.79165 0.51508 0.40067 0.0
C2570 C 0.77461 0.53262 0.43445 0.0
C2571 C 0.7811 0.59629 0.43772 0.0
H2572 H 0.7965 0.58315 0.50096 0.0
C2573 C 0.82466 0.66074 0.49704 0.0
C2574 C 0.8216 0.65945 0.52088 0.0
C2575 C 0.81319 0.64576 0.48246 0.0
C2576 C 0.79156 0.5872 0.48356 0.0
H2577 H 0.80907 0.53843 0.37776 0.0
H2578 H 0.80199 0.57236 0.40143 0.0
H2579 H 0.79064 0.55184 0.47435 0.0
H2580 H 0.80319 0.64245 0.54822 0.0
H2581 H 0.7828 0.61602 0.52261 0.0
H2582 H 0.78304 0.63178 0.44689 0.0
C2583 C 0.79476 0.55614 0.40681 0.0
C2584 C 0.78822 0.56916 0.46818 0.0
C2585 C 0.7988 0.53675 0.39317 0.0
C2586 C 0.80563 0.6439 0.52986 0.0
C2587 C 0.7942 0.62865 0.5152 0.0
C2588 C 0.78442 0.61437 0.45315 0.0
C2589 C 0.78347 0.55412 0.42813 0.0
C2590 C 0.78356 0.57343 0.44491 0.0
C2591 C 0.79848 0.62889 0.49137 0.0
C2592 C 0.79039 0.61006 0.47612 0.0
H2593 H 0.77329 0.49668 0.42713 0.0
H2594 H 0.76541 0.53047 0.45046 0.0
H2595 H 0.77718 0.60022 0.42003 0.0
H2596 H 0.83699 0.67255 0.48973 0.0
H2597 H 0.81719 0.64638 0.46433 0.0
C2598 C 0.72196 0.46288 0.89062 0.0
C2599 C 0.73274 0.48279 0.89852 0.0
C2600 C 0.72449 0.44223 0.90255 0.0
C2601 C 0.73393 0.42539 0.96241 0.0
H2602 H 0.7216 0.36475 0.9385 0.0
C2603 C 0.70229 0.35282 0.0217 0.0
C2604 C 0.68175 0.34332 0.01371 0.0
C2605 C 0.71612 0.3659 0.00693 0.0
C2606 C 0.72524 0.38155 0.94546 0.0
H2607 H 0.75625 0.49656 0.92347 0.0
H2608 H 0.7617 0.46033 0.94363 0.0
H2609 H 0.7336 0.39522 0.91238 0.0
H2610 H 0.66044 0.3385 0.98377 0.0
H2611 H 0.6844 0.36095 0.95822 0.0
H2612 H 0.72464 0.41201 0.99528 0.0
C2613 C 0.75074 0.46062 0.92872 0.0
C2614 C 0.73205 0.39904 0.93048 0.0
C2615 C 0.74793 0.4813 0.91699 0.0
C2616 C 0.67608 0.34582 0.99047 0.0
C2617 C 0.68996 0.35851 0.97574 0.0
C2618 C 0.72726 0.40789 0.97736 0.0
C2619 C 0.73795 0.44117 0.92252 0.0
C2620 C 0.73562 0.42143 0.93864 0.0
C2621 C 0.70981 0.36927 0.98389 0.0
C2622 C 0.72194 0.38602 0.96894 0.0
H2623 H 0.70978 0.46379 0.87669 0.0
H2624 H 0.71423 0.42774 0.89728 0.0
H2625 H 0.73617 0.44241 0.96941 0.0
H2626 H 0.70705 0.35114 0.03954 0.0
H2627 H 0.73138 0.37392 0.01368 0.0
C2628 C 0.29652 1.0022 0.5808 0.0
C2629 C 0.2956 0.99852 0.60466 0.0
C2630 C 0.29764 0.9838 0.56549 0.0
C2631 C 0.28659 0.92184 0.55913 0.0
H2632 H 0.33197 0.92572 0.51064 0.0
C2633 C 0.31373 0.84296 0.50559 0.0
C2634 C 0.32168 0.8458 0.48294 0.0
C2635 C 0.30786 0.86184 0.51913 0.0
C2636 C 0.31886 0.92443 0.52373 0.0
H2637 H 0.29442 0.97228 0.63093 0.0
H2638 H 0.29611 0.94004 0.60406 0.0
H2639 H 0.32705 0.95763 0.53702 0.0
H2640 H 0.32843 0.87102 0.4565 0.0
H2641 H 0.31744 0.90399 0.47988 0.0
H2642 H 0.2782 0.88876 0.54578 0.0
C2643 C 0.29603 0.95731 0.5973 0.0
C2644 C 0.31613 0.94276 0.539 0.0
C2645 C 0.29513 0.9758 0.61271 0.0
C2646 C 0.32238 0.8681 0.47382 0.0
C2647 C 0.31634 0.88707 0.48739 0.0
C2648 C 0.28914 0.90358 0.5437 0.0
C2649 C 0.29767 0.96111 0.5735 0.0
C2650 C 0.3001 0.94165 0.55702 0.0
C2651 C 0.30954 0.88426 0.51046 0.0
C2652 C 0.30549 0.90447 0.52588 0.0
H2653 H 0.2969 0.01939 0.57382 0.0
H2654 H 0.29856 0.98738 0.5473 0.0
H2655 H 0.27386 0.92055 0.57261 0.0
H2656 H 0.31292 0.82611 0.51331 0.0
H2657 H 0.30299 0.85879 0.53678 0.0
C2658 C 0.2231 0.00759 0.10224 0.0
C2659 C 0.212 0.00849 0.12359 0.0
C2660 C 0.22161 0.02585 0.08702 0.0
C2661 C 0.18189 0.07227 0.07298 0.0
H2662 H 0.22743 0.08511 0.02625 0.0
C2663 C 0.19624 0.13639 0.9908 0.0
C2664 C 0.17387 0.13655 0.98195 0.0
C2665 C 0.20229 0.12135 0.0083 0.0
C2666 C 0.21455 0.08198 0.03926 0.0
H2667 H 0.19227 0.0298 0.14668 0.0
H2668 H 0.19006 0.06229 0.12012 0.0
H2669 H 0.23752 0.06147 0.05891 0.0
H2670 H 0.14078 0.11979 0.98367 0.0
H2671 H 0.15166 0.09284 0.01364 0.0
H2672 H 0.15911 0.09333 0.05365 0.0
C2673 C 0.19952 0.04719 0.11499 0.0
C2674 C 0.2203 0.06823 0.05793 0.0
C2675 C 0.20104 0.02878 0.13033 0.0
C2676 C 0.15812 0.12026 0.99013 0.0
C2677 C 0.16428 0.105 0.00754 0.0
C2678 C 0.17621 0.08627 0.05443 0.0
C2679 C 0.20902 0.04553 0.0928 0.0
C2680 C 0.20393 0.06283 0.07481 0.0
C2681 C 0.18627 0.10578 0.01727 0.0
C2682 C 0.19237 0.09103 0.03714 0.0
H2683 H 0.23178 0.99213 0.09673 0.0
H2684 H 0.22901 0.02379 0.07011 0.0
H2685 H 0.16873 0.06825 0.08545 0.0
H2686 H 0.20893 0.14862 0.985 0.0
H2687 H 0.2193 0.12266 0.01542 0.0
C2688 C 0.54122 0.86216 0.61771 0.0
C2689 C 0.54467 0.84549 0.63476 0.0
C2690 C 0.5273 0.8575 0.59887 0.0
C2691 C 0.49757 0.81068 0.56759 0.0
H2692 H 0.45358 0.8584 0.55383 0.0
C2693 C 0.41383 0.79353 0.51858 0.0
C2694 C 0.40738 0.80955 0.5018 0.0
C2695 C 0.43225 0.79797 0.53308 0.0
C2696 C 0.46593 0.84502 0.55725 0.0
H2697 H 0.53722 0.81034 0.64452 0.0
H2698 H 0.51278 0.80244 0.61199 0.0
H2699 H 0.48394 0.86585 0.58125 0.0
H2700 H 0.41542 0.84289 0.48722 0.0
H2701 H 0.4474 0.85055 0.51261 0.0
H2702 H 0.47904 0.78967 0.54399 0.0
C2703 C 0.52097 0.81905 0.61303 0.0
C2704 C 0.4834 0.8493 0.5729 0.0
C2705 C 0.53493 0.82366 0.63181 0.0
C2706 C 0.41976 0.83016 0.49999 0.0
C2707 C 0.43809 0.83462 0.51457 0.0
C2708 C 0.48 0.80636 0.55201 0.0
C2709 C 0.51649 0.83611 0.59667 0.0
C2710 C 0.49928 0.8321 0.57845 0.0
C2711 C 0.44457 0.81855 0.53122 0.0
C2712 C 0.46386 0.82341 0.54688 0.0
H2713 H 0.54863 0.87909 0.61925 0.0
H2714 H 0.52457 0.87087 0.5863 0.0
H2715 H 0.50971 0.79718 0.57124 0.0
H2716 H 0.40477 0.77745 0.52046 0.0
H2717 H 0.43668 0.78539 0.54597 0.0
C2718 C 0.01826 0.17791 0.16074 0.0
C2719 C 0.99432 0.17791 0.1587 0.0
C2720 C 0.03217 0.18615 0.14302 0.0
C2721 C 0.03104 0.19186 0.08023 0.0
H2722 H 0.09074 0.21947 0.08874 0.0
C2723 C 0.09033 0.20952 1.00302 0.0
C2724 C 0.11373 0.20434 0.00536 0.0
C2725 C 0.07576 0.21 0.02208 0.0
C2726 C 0.0742 0.21159 0.08605 0.0
H2727 H 0.9661 0.18725 0.13681 0.0
H2728 H 0.99039 0.20213 0.10575 0.0
H2729 H 0.0648 0.2154 0.12142 0.0
H2730 H 0.1402 0.1964 0.02999 0.0
H2731 H 0.11467 0.19696 0.06336 0.0
H2732 H 0.04054 0.1875 0.04508 0.0
C2733 C 0.99845 0.19569 0.12113 0.0
C2734 C 0.05925 0.20932 0.10482 0.0
C2735 C 0.98448 0.18756 0.13905 0.0
C2736 C 0.12231 0.20048 0.02751 0.0
C2737 C 0.10764 0.20088 0.04668 0.0
C2738 C 0.04597 0.1941 0.06152 0.0
C2739 C 0.02252 0.19436 0.12256 0.0
C2740 C 0.03753 0.19918 0.10223 0.0
C2741 C 0.08404 0.20522 0.04416 0.0
C2742 C 0.06787 0.2038 0.06415 0.0
H2743 H 0.02628 0.17013 0.17553 0.0
H2744 H 0.05053 0.18456 0.14477 0.0
H2745 H 0.01473 0.18352 0.07757 0.0
H2746 H 0.08306 0.21287 0.98631 0.0
H2747 H 0.05788 0.21396 0.01942 0.0
C2748 C 0.01929 0.6744 0.388 0.0
C2749 C 0.02524 0.68747 0.36862 0.0
C2750 C 0.00321 0.6827 0.40383 0.0
C2751 C 0.95313 0.71961 0.40655 0.0
H2752 H 0.96144 0.71753 0.47236 0.0
C2753 C 0.88243 0.71577 0.47615 0.0
C2754 C 0.88732 0.72626 0.49718 0.0
C2755 C 0.89785 0.71767 0.45784 0.0
C2756 C 0.95899 0.71855 0.45399 0.0
H2757 H 0.0196 0.72012 0.35147 0.0
H2758 H 0.99158 0.73413 0.3788 0.0
H2759 H 0.99276 0.70596 0.44705 0.0
H2760 H 0.91037 0.74906 0.51495 0.0
H2761 H 0.93711 0.75274 0.48291 0.0
H2762 H 0.919 0.73133 0.41357 0.0
C2763 C 0.99924 0.71747 0.38163 0.0
C2764 C 0.97681 0.71166 0.43957 0.0
C2765 C 0.01546 0.7094 0.36605 0.0
C2766 C 0.90611 0.74111 0.49873 0.0
C2767 C 0.92158 0.74291 0.48054 0.0
C2768 C 0.93513 0.72614 0.421 0.0
C2769 C 0.99262 0.70405 0.40039 0.0
C2770 C 0.97401 0.712 0.41573 0.0
C2771 C 0.91836 0.72994 0.46055 0.0
C2772 C 0.93788 0.72561 0.44487 0.0
H2773 H 0.02647 0.6575 0.39057 0.0
H2774 H 0.99836 0.67203 0.41824 0.0
H2775 H 0.95051 0.71988 0.38818 0.0
H2776 H 0.8683 0.70383 0.47478 0.0
H2777 H 0.89496 0.70748 0.44261 0.0
C2778 C 0.48789 0.34349 0.88281 0.0
C2779 C 0.4813 0.32985 0.86407 0.0
C2780 C 0.50367 0.3352 0.89893 0.0
C2781 C 0.55152 0.29484 0.90417 0.0
H2782 H 0.54123 0.29911 0.96966 0.0
C2783 C 0.62028 0.28788 0.97599 0.0
C2784 C 0.6131 0.27818 0.99684 0.0
C2785 C 0.60521 0.28906 0.95738 0.0
C2786 C 0.54426 0.29758 0.95139 0.0
H2787 H 0.48594 0.29639 0.84822 0.0
H2788 H 0.51334 0.28243 0.87592 0.0
H2789 H 0.51222 0.31349 0.94324 0.0
H2790 H 0.58588 0.2595 0.01366 0.0
H2791 H 0.55982 0.26102 0.98113 0.0
H2792 H 0.58387 0.27947 0.91239 0.0
C2793 C 0.5064 0.29951 0.87811 0.0
C2794 C 0.52776 0.30607 0.93631 0.0
C2795 C 0.49048 0.30756 0.86229 0.0
C2796 C 0.59196 0.26678 0.99767 0.0
C2797 C 0.57685 0.26809 0.97921 0.0
C2798 C 0.56823 0.2867 0.91929 0.0
C2799 C 0.51343 0.31329 0.89642 0.0
C2800 C 0.53116 0.30475 0.91253 0.0
C2801 C 0.58276 0.28059 0.95947 0.0
C2802 C 0.56472 0.28786 0.94308 0.0
H2803 H 0.48128 0.3607 0.88476 0.0
H2804 H 0.50879 0.34621 0.91294 0.0
H2805 H 0.55467 0.29372 0.8859 0.0
H2806 H 0.63626 0.29725 0.97506 0.0
H2807 H 0.61029 0.29872 0.94236 0.0
C2808 C 0.5051 0.41768 0.80108 0.0
C2809 C 0.50662 0.39359 0.80189 0.0
C2810 C 0.52462 0.43146 0.80318 0.0
C2811 C 0.58384 0.43049 0.82604 0.0
H2812 H 0.58967 0.48812 0.79349 0.0
C2813 C 0.66354 0.48742 0.83879 0.0
C2814 C 0.66011 0.51114 0.84083 0.0
C2815 C 0.64612 0.47306 0.83073 0.0
C2816 C 0.58829 0.47219 0.80289 0.0
H2817 H 0.53037 0.36528 0.80495 0.0
H2818 H 0.5645 0.38932 0.80843 0.0
H2819 H 0.55726 0.46296 0.78568 0.0
H2820 H 0.63572 0.53848 0.83594 0.0
H2821 H 0.60511 0.51352 0.8218 0.0
H2822 H 0.61453 0.4398 0.84357 0.0
C2823 C 0.54804 0.39756 0.80645 0.0
C2824 C 0.56963 0.45768 0.79839 0.0
C2825 C 0.52845 0.38372 0.80427 0.0
C2826 C 0.63907 0.52035 0.83386 0.0
C2827 C 0.62149 0.50594 0.8259 0.0
C2828 C 0.60245 0.44498 0.83056 0.0
C2829 C 0.5464 0.42169 0.80621 0.0
C2830 C 0.56701 0.43665 0.81 0.0
C2831 C 0.62451 0.48195 0.82485 0.0
C2832 C 0.60497 0.46614 0.81916 0.0
H2833 H 0.48867 0.42604 0.79932 0.0
H2834 H 0.52247 0.44988 0.80318 0.0
H2835 H 0.58232 0.41472 0.83569 0.0
H2836 H 0.67945 0.47981 0.84448 0.0
H2837 H 0.64942 0.45485 0.82976 0.0
C2838 C 0.03828 0.12806 0.22113 0.0
C2839 C 0.01873 0.11959 0.23223 0.0
C2840 C 0.05845 0.11521 0.22109 0.0
C2841 C 0.09079 0.06553 0.23952 0.0
H2842 H 0.08442 0.0445 0.17682 0.0
C2843 C 0.13849 0.98495 0.20577 0.0
C2844 C 0.14553 0.98501 0.18272 0.0
C2845 C 0.12432 1.00238 0.21424 0.0
C2846 C 0.08698 0.05039 0.19421 0.0
H2847 H 0.00561 0.09323 0.25476 0.0
H2848 H 0.04115 0.07122 0.25544 0.0
H2849 H 0.06152 0.07633 0.19033 0.0
H2850 H 0.14372 1.00364 0.15063 0.0
H2851 H 0.12014 0.03425 0.16538 0.0
H2852 H 0.1167 0.03989 0.24331 0.0
C2853 C 0.04092 0.08755 0.24663 0.0
C2854 C 0.07375 0.06865 0.20194 0.0
C2855 C 0.02063 0.10021 0.24635 0.0
C2856 C 0.1381 1.00274 0.16833 0.0
C2857 C 0.12448 0.02038 0.17687 0.0
C2858 C 0.10458 0.0475 0.2316 0.0
C2859 C 0.05928 0.09406 0.23254 0.0
C2860 C 0.07548 0.07635 0.22461 0.0
C2861 C 0.11734 0.02053 0.19995 0.0
C2862 C 0.10278 0.03962 0.2088 0.0
H2863 H 0.03706 0.14274 0.20984 0.0
H2864 H 0.07243 0.12046 0.21003 0.0
H2865 H 0.0921 0.07104 0.25719 0.0
H2866 H 0.14409 0.97154 0.21728 0.0
H2867 H 0.1189 1.00161 0.23198 0.0
C2868 C 0.51459 0.92406 0.71129 0.0
C2869 C 0.51548 0.90251 0.70055 0.0
C2870 C 0.49616 0.93889 0.70745 0.0
C2871 C 0.4573 0.95725 0.66448 0.0
H2872 H 0.41537 0.97645 0.71232 0.0
C2873 C 0.37601 0.00985 0.64363 0.0
C2874 C 0.36644 0.02407 0.66053 0.0
C2875 C 0.39483 0.99588 0.64861 0.0
C2876 C 0.42714 0.97177 0.69875 0.0
H2877 H 0.49775 0.87963 0.67737 0.0
H2878 H 0.46589 0.90594 0.67013 0.0
H2879 H 0.44664 0.95042 0.72145 0.0
H2880 H 0.36981 0.03569 0.69557 0.0
H2881 H 0.40344 0.01262 0.7039 0.0
H2882 H 0.43882 0.97918 0.64189 0.0
C2883 C 0.47929 0.91107 0.68183 0.0
C2884 C 0.44494 0.95662 0.70404 0.0
C2885 C 0.49741 0.89599 0.68612 0.0
C2886 C 0.37672 0.02478 0.68223 0.0
C2887 C 0.3959 0.01126 0.68706 0.0
C2888 C 0.43988 0.97284 0.65927 0.0
C2889 C 0.4786 0.93269 0.69233 0.0
C2890 C 0.46 0.94905 0.6869 0.0
C2891 C 0.40496 0.99613 0.67051 0.0
C2892 C 0.42431 0.98022 0.67626 0.0
H2893 H 0.52832 0.92957 0.72243 0.0
H2894 H 0.49599 0.95551 0.7157 0.0
H2895 H 0.46892 0.95181 0.65102 0.0
H2896 H 0.36826 0.00866 0.62684 0.0
H2897 H 0.40081 0.9843 0.63542 0.0
C2898 C 0.00529 0.59525 0.30889 0.0
C2899 C 1.00208 0.61898 0.30612 0.0
C2900 C 0.98695 0.58018 0.30774 0.0
C2901 C 0.92439 0.57719 0.31413 0.0
H2902 H 0.93556 0.5148 0.294 0.0
C2903 C 0.85824 0.50311 0.32234 0.0
C2904 C 0.86611 0.48716 0.33856 0.0
C2905 C 0.87324 0.5192 0.3128 0.0
C2906 C 0.93214 0.53222 0.29941 0.0
H2907 H 0.97683 0.64535 0.29968 0.0
H2908 H 0.94448 0.61868 0.29716 0.0
H2909 H 0.96415 0.54434 0.28654 0.0
H2910 H 0.89593 0.47461 0.35653 0.0
H2911 H 0.92238 0.5021 0.339 0.0
H2912 H 0.89225 0.56474 0.32697 0.0
C2913 C 0.96137 0.61192 0.30055 0.0
C2914 C 0.94854 0.54913 0.29535 0.0
C2915 C 0.97988 0.6272 0.30194 0.0
C2916 C 0.88947 0.48667 0.34401 0.0
C2917 C 0.90455 0.50234 0.334 0.0
C2918 C 0.90776 0.56032 0.31775 0.0
C2919 C 0.96473 0.58818 0.30348 0.0
C2920 C 0.94534 0.57161 0.30358 0.0
C2921 C 0.89642 0.51912 0.31885 0.0
C2922 C 0.9119 0.53757 0.31114 0.0
H2923 H 0.02203 0.58814 0.31236 0.0
H2924 H 0.99024 0.56219 0.31083 0.0
H2925 H 0.92135 0.59421 0.32083 0.0
H2926 H 0.84024 0.50405 0.31808 0.0
H2927 H 0.86666 0.53206 0.30118 0.0
C2928 C 0.21732 0.1492 0.6094 0.0
C2929 C 0.22184 0.12605 0.60482 0.0
C2930 C 0.20193 0.16147 0.59572 0.0
C2931 C 0.1589 0.15753 0.5486 0.0
H2932 H 0.19085 0.21086 0.52512 0.0
C2933 C 0.13349 0.23258 0.48265 0.0
C2934 C 0.14854 0.23233 0.4638 0.0
C2935 C 0.13617 0.21676 0.5006 0.0
C2936 C 0.18161 0.19615 0.53169 0.0
H2937 H 0.21283 0.09718 0.58348 0.0
H2938 H 0.18551 0.11833 0.56002 0.0
H2939 H 0.20633 0.19023 0.55789 0.0
H2940 H 0.17691 0.21442 0.44806 0.0
H2941 H 0.18133 0.18669 0.47909 0.0
H2942 H 0.13445 0.16349 0.52167 0.0
C2943 C 0.19365 0.12707 0.57417 0.0
C2944 C 0.19034 0.18443 0.55059 0.0
C2945 C 0.2092 0.11489 0.58771 0.0
C2946 C 0.16472 0.21462 0.4621 0.0
C2947 C 0.16742 0.19892 0.47996 0.0
C2948 C 0.14995 0.16954 0.52976 0.0
C2949 C 0.19077 0.15079 0.57721 0.0
C2950 C 0.17935 0.16474 0.55911 0.0
C2951 C 0.15394 0.20057 0.49984 0.0
C2952 C 0.16153 0.18869 0.52093 0.0
H2953 H 0.22727 0.15832 0.62209 0.0
H2954 H 0.19993 0.17968 0.59865 0.0
H2955 H 0.15005 0.14241 0.55473 0.0
H2956 H 0.12132 0.24642 0.48468 0.0
H2957 H 0.12576 0.21851 0.5159 0.0
C2958 C 0.28558 0.87318 0.09465 0.0
C2959 C 0.26909 0.88807 0.08557 0.0
C2960 C 0.30262 0.86389 0.08035 0.0
C2961 C 0.32695 0.86776 0.02046 0.0
H2962 H 0.33452 0.80222 0.02756 0.0
C2963 C 0.34347 0.80333 0.94649 0.0
C2964 C 0.35989 0.78619 0.95033 0.0
C2965 C 0.33775 0.81884 0.96393 0.0
C2966 C 0.33282 0.82058 0.02551 0.0
H2967 H 0.25876 0.90655 0.05504 0.0
H2968 H 0.28756 0.89023 0.03039 0.0
H2969 H 0.3158 0.82411 0.05778 0.0
H2970 H 0.3841 0.77284 0.97523 0.0
H2971 H 0.37365 0.79946 0.00553 0.0
H2972 H 0.3426 0.8637 0.98736 0.0
C2973 C 0.28783 0.88562 0.04836 0.0
C2974 C 0.32224 0.83321 0.04293 0.0
C2975 C 0.27102 0.89483 0.06252 0.0
C2976 C 0.37125 0.78569 0.9716 0.0
C2977 C 0.36528 0.80089 0.98906 0.0
C2978 C 0.33711 0.85503 1.00286 0.0
C2979 C 0.30346 0.86946 0.0568 0.0
C2980 C 0.31856 0.85689 0.04038 0.0
C2981 C 0.34813 0.81727 0.98558 0.0
C2982 C 0.33969 0.83127 0.00503 0.0
H2983 H 0.28455 0.86773 0.11237 0.0
H2984 H 0.31462 0.85178 0.08756 0.0
H2985 H 0.32499 0.88604 0.01809 0.0
H2986 H 0.33438 0.8042 0.93037 0.0
H2987 H 0.32437 0.83128 0.96088 0.0
C2988 C 0.64729 0.29527 0.53189 0.0
C2989 C 0.63858 0.27365 0.52625 0.0
C2990 C 0.65674 0.30922 0.51475 0.0
C2991 C 0.69516 0.32142 0.48263 0.0
H2992 H 0.68511 0.31228 0.41778 0.0
C2993 C 0.7671 0.34177 0.41794 0.0
C2994 C 0.76071 0.35044 0.39643 0.0
C2995 C 0.75065 0.3323 0.43272 0.0
C2996 C 0.68822 0.31549 0.43575 0.0
H2997 H 0.62972 0.25096 0.49844 0.0
H2998 H 0.64632 0.27448 0.46887 0.0
H2999 H 0.65519 0.30275 0.44459 0.0
H3000 H 0.73204 0.35426 0.37308 0.0
H3001 H 0.70376 0.33942 0.39882 0.0
H3002 H 0.7275 0.3358 0.47368 0.0
C3003 C 0.64603 0.2813 0.48609 0.0
C3004 C 0.671 0.30958 0.45132 0.0
C3005 C 0.63624 0.2677 0.50312 0.0
C3006 C 0.73781 0.3479 0.3895 0.0
C3007 C 0.72136 0.33913 0.40442 0.0
C3008 C 0.71207 0.3281 0.467 0.0
C3009 C 0.65796 0.30145 0.49186 0.0
C3010 C 0.6744 0.31181 0.47508 0.0
C3011 C 0.72732 0.33178 0.42655 0.0
C3012 C 0.70912 0.32478 0.4433 0.0
H3013 H 0.64942 0.30014 0.54968 0.0
H3014 H 0.66481 0.32511 0.51981 0.0
H3015 H 0.69887 0.32314 0.5007 0.0
H3016 H 0.78458 0.34326 0.42385 0.0
H3017 H 0.75622 0.32605 0.44923 0.0
C3018 C 0.76263 0.61856 0.93332 0.0
C3019 C 0.76634 0.62141 0.90963 0.0
C3020 C 0.77681 0.62937 0.94935 0.0
C3021 C 0.81636 0.67872 0.95475 0.0
H3022 H 0.83158 0.65081 0.01302 0.0
C3023 C 0.8661 0.73069 0.02088 0.0
C3024 C 0.85627 0.73075 0.04286 0.0
C3025 C 0.86047 0.71356 0.00505 0.0
C3026 C 0.82748 0.65889 0.99685 0.0
H3027 H 0.78851 0.63745 0.8844 0.0
H3028 H 0.81328 0.656 0.91225 0.0
H3029 H 0.81055 0.62878 0.98439 0.0
H3030 H 0.83398 0.71227 0.06599 0.0
H3031 H 0.8243 0.68226 0.03867 0.0
H3032 H 0.83262 0.70897 0.96727 0.0
C3033 C 0.79914 0.64572 0.91848 0.0
C3034 C 0.81533 0.64626 0.98042 0.0
C3035 C 0.78495 0.63496 0.90245 0.0
C3036 C 0.8424 0.71222 0.04941 0.0
C3037 C 0.83665 0.69513 0.03357 0.0
C3038 C 0.82846 0.69131 0.97112 0.0
C3039 C 0.79514 0.64332 0.94217 0.0
C3040 C 0.80935 0.6561 0.95923 0.0
C3041 C 0.84459 0.69629 0.01077 0.0
C3042 C 0.834 0.68171 0.99253 0.0
H3043 H 0.74847 0.60832 0.93957 0.0
H3044 H 0.77297 0.6273 0.9674 0.0
H3045 H 0.81176 0.68709 0.93886 0.0
H3046 H 0.87634 0.7451 0.01519 0.0
H3047 H 0.86735 0.71477 0.98783 0.0
C3048 C 0.4655 0.15782 0.20537 0.0
C3049 C 0.47492 0.14723 0.22474 0.0
C3050 C 0.4798 0.16706 0.18838 0.0
C3051 C 0.54097 0.17324 0.16965 0.0
H3052 H 0.52356 0.23653 0.15963 0.0
C3053 C 0.60723 0.24327 0.14836 0.0
C3054 C 0.60143 0.26066 0.13273 0.0
C3055 C 0.59089 0.22737 0.15576 0.0
C3056 C 0.52859 0.21882 0.16186 0.0
H3057 H 0.50635 0.13623 0.2407 0.0
H3058 H 0.53126 0.15171 0.21102 0.0
H3059 H 0.49642 0.21017 0.17713 0.0
H3060 H 0.57367 0.27483 0.11265 0.0
H3061 H 0.54515 0.24708 0.1256 0.0
H3062 H 0.57344 0.18217 0.15505 0.0
C3063 C 0.51294 0.15292 0.20864 0.0
C3064 C 0.51294 0.20361 0.17184 0.0
C3065 C 0.49866 0.14381 0.22562 0.0
C3066 C 0.57876 0.26177 0.12479 0.0
C3067 C 0.56237 0.24586 0.13224 0.0
C3068 C 0.55663 0.18847 0.15968 0.0
C3069 C 0.50377 0.16586 0.19052 0.0
C3070 C 0.51908 0.18074 0.17636 0.0
C3071 C 0.56825 0.22838 0.14776 0.0
C3072 C 0.55083 0.21161 0.15616 0.0
H3073 H 0.44729 0.16116 0.2046 0.0
H3074 H 0.47214 0.17656 0.17445 0.0
H3075 H 0.54621 0.1557 0.1726 0.0
H3076 H 0.62448 0.24179 0.15487 0.0
H3077 H 0.59597 0.21445 0.16804 0.0
C3078 C 0.90855 0.76693 0.64245 0.0
C3079 C 0.90868 0.74414 0.63468 0.0
C3080 C 0.92868 0.777 0.65096 0.0
C3081 C 0.98289 0.76375 0.67899 0.0
H3082 H 0.00504 0.821 0.65375 0.0
C3083 C 0.06201 0.80625 0.71889 0.0
C3084 C 0.05936 0.8298 0.72292 0.0
C3085 C 0.04758 0.79489 0.70334 0.0
C3086 C 0.99908 0.80515 0.66129 0.0
H3087 H 0.92992 0.7139 0.63043 0.0
H3088 H 0.96449 0.7312 0.64594 0.0
H3089 H 0.97005 0.80396 0.63884 0.0
H3090 H 0.04255 0.86051 0.71082 0.0
H3091 H 0.01774 0.84124 0.68419 0.0
H3092 H 0.01091 0.7653 0.70231 0.0
C3093 C 0.94903 0.74139 0.64511 0.0
C3094 C 0.97896 0.79538 0.65263 0.0
C3095 C 0.92919 0.73154 0.63616 0.0
C3096 C 0.04481 0.84225 0.70836 0.0
C3097 C 0.03038 0.83102 0.69301 0.0
C3098 C 1.00271 0.77375 0.68803 0.0
C3099 C 0.94911 0.76428 0.65242 0.0
C3100 C 0.97053 0.77468 0.66152 0.0
C3101 C 0.03042 0.80696 0.69134 0.0
C3102 C 0.01104 0.7948 0.67954 0.0
H3103 H 0.8931 0.77709 0.64145 0.0
H3104 H 0.92823 0.79466 0.65661 0.0
H3105 H 0.97679 0.74776 0.68619 0.0
H3106 H 0.07355 0.7963 0.72932 0.0
H3107 H 0.049 0.77646 0.70183 0.0
C3108 C 0.98197 0.36226 0.77048 0.0
C3109 C 0.9603 0.35253 0.77455 0.0
C3110 C 1.00005 0.35845 0.78558 0.0
C3111 C 0.01547 0.33927 0.84357 0.0
H3112 H 0.06743 0.3104 0.81383 0.0
C3113 C 0.07149 0.27406 0.88889 0.0
C3114 C 0.0939 0.26954 0.88144 0.0
C3115 C 0.05845 0.29108 0.87856 0.0
C3116 C 0.05346 0.31901 0.82251 0.0
H3117 H 0.94032 0.33239 0.79859 0.0
H3118 H 0.97186 0.32611 0.82527 0.0
H3119 H 0.03745 0.32758 0.79069 0.0
H3120 H 0.12098 0.2805 0.85858 0.0
H3121 H 0.09821 0.31088 0.84052 0.0
H3122 H 0.03125 0.33055 0.87539 0.0
C3123 C 0.97482 0.3366 0.81023 0.0
C3124 C 0.03617 0.32874 0.80918 0.0
C3125 C 0.95676 0.34015 0.79492 0.0
C3126 C 0.10374 0.2837 0.86466 0.0
C3127 C 0.09058 0.30088 0.85418 0.0
C3128 C 0.03294 0.32988 0.85692 0.0
C3129 C 0.9968 0.34513 0.80533 0.0
C3130 C 0.01663 0.33824 0.81957 0.0
C3131 C 0.06745 0.30417 0.86043 0.0
C3132 C 0.05173 0.31876 0.84657 0.0
H3133 H 0.98535 0.37184 0.75497 0.0
H3134 H 0.01677 0.36537 0.78146 0.0
H3135 H 1.00075 0.3468 0.85201 0.0
H3136 H 0.06351 0.26345 0.90191 0.0
H3137 H 0.04075 0.29274 0.8838 0.0
C3138 C 0.50875 0.6307 0.27801 0.0
C3139 C 0.53087 0.63988 0.27943 0.0
C3140 C 0.49199 0.63692 0.29405 0.0
C3141 C 0.45869 0.67202 0.31219 0.0
H3142 H 0.46776 0.69217 0.37479 0.0
C3143 C 0.40797 0.7471 0.35042 0.0
C3144 C 0.40019 0.74566 0.37321 0.0
C3145 C 0.42267 0.73049 0.34139 0.0
C3146 C 0.46481 0.68642 0.35741 0.0
H3147 H 0.55341 0.66109 0.29959 0.0
H3148 H 0.52446 0.6718 0.32768 0.0
H3149 H 0.49565 0.66651 0.35687 0.0
H3150 H 0.40205 0.72549 0.40441 0.0
H3151 H 0.42778 0.69649 0.38856 0.0
H3152 H 0.42814 0.69216 0.31253 0.0
C3153 C 0.51988 0.6596 0.3145 0.0
C3154 C 0.48087 0.67182 0.34708 0.0
C3155 C 0.53662 0.6533 0.2985 0.0
C3156 C 0.40766 0.72718 0.38678 0.0
C3157 C 0.4225 0.71058 0.37774 0.0
C3158 C 0.44273 0.68661 0.32247 0.0
C3159 C 0.49702 0.65266 0.31163 0.0
C3160 C 0.47828 0.66483 0.32415 0.0
C3161 C 0.43008 0.71197 0.35488 0.0
C3162 C 0.44586 0.69448 0.34499 0.0
H3163 H 0.50377 0.62074 0.26317 0.0
H3164 H 0.47467 0.63085 0.29159 0.0
H3165 H 0.45619 0.66736 0.29442 0.0
H3166 H 0.40271 0.76109 0.33945 0.0
H3167 H 0.42849 0.73235 0.32384 0.0
C3168 C 0.14225 0.59321 0.23197 0.0
C3169 C 0.12058 0.59361 0.2423 0.0
C3170 C 0.14824 0.57526 0.21716 0.0
C3171 C 0.13476 0.51446 0.20952 0.0
H3172 H 0.17494 0.51946 0.15686 0.0
C3173 C 0.19935 0.44575 0.17965 0.0
C3174 C 0.20662 0.44671 0.15673 0.0
C3175 C 0.18182 0.46027 0.18734 0.0
C3176 C 0.16336 0.51766 0.17127 0.0
H3177 H 0.08779 0.57657 0.24458 0.0
H3178 H 0.09799 0.54554 0.21839 0.0
H3179 H 0.15887 0.554 0.17384 0.0
H3180 H 0.19833 0.45967 0.12302 0.0
H3181 H 0.16708 0.48398 0.1361 0.0
H3182 H 0.13988 0.47813 0.20738 0.0
C3183 C 0.11045 0.55884 0.22177 0.0
C3184 C 0.15438 0.53754 0.18116 0.0
C3185 C 0.10451 0.57675 0.23648 0.0
C3186 C 0.19326 0.45888 0.14089 0.0
C3187 C 0.17562 0.47314 0.14845 0.0
C3188 C 0.14389 0.49455 0.19973 0.0
C3189 C 0.13268 0.55737 0.21268 0.0
C3190 C 0.14028 0.53622 0.20062 0.0
C3191 C 0.17105 0.47543 0.17199 0.0
C3192 C 0.15857 0.49593 0.18067 0.0
H3193 H 0.15507 0.60572 0.23672 0.0
H3194 H 0.16556 0.57454 0.21055 0.0
H3195 H 0.12414 0.51285 0.22469 0.0
H3196 H 0.20905 0.43614 0.19211 0.0
H3197 H 0.17849 0.46131 0.20558 0.0
C3198 C 0.63142 0.9161 0.7941 0.0
C3199 C 0.64503 0.9138 0.77431 0.0
C3200 C 0.6382 0.93097 0.81178 0.0
C3201 C 0.66797 0.96048 0.84836 0.0
H3202 H 0.67666 0.01971 0.81945 0.0
C3203 C 0.72947 0.03021 0.87927 0.0
C3204 C 0.72629 0.05278 0.87163 0.0
C3205 C 0.71289 0.01348 0.87509 0.0
C3206 C 0.67378 1.00355 0.8281 0.0
H3207 H 0.67695 0.92356 0.75816 0.0
H3208 H 0.68884 0.94909 0.78894 0.0
H3209 H 0.66248 0.98778 0.79708 0.0
H3210 H 0.70238 0.07626 0.85612 0.0
H3211 H 0.67288 0.04732 0.8496 0.0
H3212 H 0.6804 0.97613 0.87924 0.0
C3213 C 0.67299 0.93964 0.79084 0.0
C3214 C 0.66591 0.98515 0.81513 0.0
C3215 C 0.66628 0.92491 0.77334 0.0
C3216 C 0.70506 0.05905 0.86251 0.0
C3217 C 0.68837 0.04233 0.85842 0.0
C3218 C 0.67611 0.97898 0.86143 0.0
C3219 C 0.65856 0.94365 0.80969 0.0
C3220 C 0.66358 0.96332 0.8249 0.0
C3221 C 0.69285 0.01906 0.86308 0.0
C3222 C 0.6797 1.00062 0.85126 0.0
H3223 H 0.61476 0.90803 0.79499 0.0
H3224 H 0.62678 0.93388 0.82615 0.0
H3225 H 0.66623 0.94378 0.85626 0.0
H3226 H 0.74588 0.0249 0.88599 0.0
H3227 H 0.71704 0.99582 0.87894 0.0
C3228 C 0.79842 0.97043 0.35582 0.0
C3229 C 0.78872 0.95157 0.34438 0.0
C3230 C 0.81406 0.98482 0.34481 0.0
C3231 C 0.82902 1.00249 0.28536 0.0
H3232 H 0.86882 0.0448 0.31739 0.0
C3233 C 0.8815 0.07382 0.23951 0.0
C3234 C 0.88013 0.09602 0.24893 0.0
C3235 C 0.87243 0.05488 0.25111 0.0
C3236 C 0.85766 0.03319 0.30824 0.0
H3237 H 0.79118 0.93077 0.3138 0.0
H3238 H 0.81905 0.95562 0.29453 0.0
H3239 H 0.85294 0.0119 0.3377 0.0
H3240 H 0.86823 0.11546 0.27826 0.0
H3241 H 0.8528 0.08211 0.29888 0.0
H3242 H 0.8343 0.02372 0.25576 0.0
C3243 C 0.81355 0.96002 0.31171 0.0
C3244 C 0.84847 0.01425 0.31987 0.0
C3245 C 0.79776 0.94552 0.32287 0.0
C3246 C 0.86951 0.09868 0.27045 0.0
C3247 C 0.86081 0.07956 0.28231 0.0
C3248 C 0.83856 0.02121 0.27364 0.0
C3249 C 0.82093 0.98062 0.32206 0.0
C3250 C 0.83354 0.99883 0.3088 0.0
C3251 C 0.86209 0.05743 0.27271 0.0
C3252 C 0.85264 0.03705 0.28504 0.0
H3253 H 0.79223 0.97543 0.37263 0.0
H3254 H 0.81918 1.00027 0.35365 0.0
H3255 H 0.81736 0.99144 0.27618 0.0
H3256 H 0.88953 0.07102 0.223 0.0
H3257 H 0.87384 0.03811 0.24329 0.0
C3258 C 0.26612 0.52033 0.63638 0.0
C3259 C 0.26943 0.54244 0.64522 0.0
C3260 C 0.28289 0.50344 0.63906 0.0
C3261 C 0.34224 0.49206 0.66003 0.0
H3262 H 0.3139 0.43907 0.68846 0.0
C3263 C 0.38588 0.4401 0.73045 0.0
C3264 C 0.38081 0.4168 0.73381 0.0
C3265 C 0.3755 0.45259 0.71298 0.0
C3266 C 0.32224 0.45338 0.68009 0.0
H3267 H 0.29335 0.56469 0.66245 0.0
H3268 H 0.3229 0.5355 0.66678 0.0
H3269 H 0.2903 0.46691 0.66858 0.0
H3270 H 0.36179 0.38795 0.72051 0.0
H3271 H 0.34347 0.40986 0.68962 0.0
H3272 H 0.37411 0.47889 0.67229 0.0
C3273 C 0.30751 0.53111 0.65752 0.0
C3274 C 0.30865 0.46945 0.66864 0.0
C3275 C 0.29067 0.54798 0.65484 0.0
C3276 C 0.36607 0.40586 0.71831 0.0
C3277 C 0.35544 0.41849 0.70078 0.0
C3278 C 0.35585 0.47592 0.67138 0.0
C3279 C 0.3033 0.50831 0.6508 0.0
C3280 C 0.31836 0.48939 0.6591 0.0
C3281 C 0.3596 0.44219 0.69829 0.0
C3282 C 0.34594 0.45677 0.68229 0.0
H3283 H 0.2497 0.51551 0.62935 0.0
H3284 H 0.27921 0.48619 0.63334 0.0
H3285 H 0.35034 0.50701 0.65259 0.0
H3286 H 0.3973 0.44902 0.742 0.0
H3287 H 0.37901 0.47077 0.71192 0.0
C3288 C 0.85467 0.7767 0.53513 0.0
C3289 C 0.84793 0.77957 0.55813 0.0
C3290 C 0.8453 0.79022 0.51767 0.0
C3291 C 0.79498 0.82907 0.50639 0.0
H3292 H 0.82416 0.83447 0.44686 0.0
C3293 C 0.75871 0.88151 0.42828 0.0
C3294 C 0.75395 0.86743 0.40933 0.0
C3295 C 0.7715 0.87312 0.44686 0.0
C3296 C 0.81584 0.83316 0.46343 0.0
H3297 H 0.82777 0.80094 0.58087 0.0
H3298 H 0.81267 0.82554 0.55078 0.0
H3299 H 0.8451 0.81753 0.47865 0.0
H3300 H 0.75925 0.8337 0.39483 0.0
H3301 H 0.7826 0.81952 0.42665 0.0
H3302 H 0.76598 0.84558 0.49092 0.0
C3303 C 0.8242 0.81188 0.5459 0.0
C3304 C 0.82775 0.82319 0.48175 0.0
C3305 C 0.83322 0.79795 0.56336 0.0
C3306 C 0.76277 0.84501 0.4091 0.0
C3307 C 0.77612 0.83689 0.42731 0.0
C3308 C 0.78331 0.83958 0.48818 0.0
C3309 C 0.82936 0.8077 0.52259 0.0
C3310 C 0.81741 0.82047 0.50352 0.0
C3311 C 0.78036 0.85071 0.44655 0.0
C3312 C 0.79346 0.84137 0.4664 0.0
H3313 H 0.86629 0.76313 0.53033 0.0
H3314 H 0.84989 0.78604 0.50019 0.0
H3315 H 0.78597 0.82707 0.5225 0.0
H3316 H 0.75182 0.89871 0.42913 0.0
H3317 H 0.77446 0.88412 0.46149 0.0
C3318 C 0.66665 0.21173 0.06612 0.0
C3319 C 0.64905 0.22793 0.06378 0.0
C3320 C 0.6725 0.19746 0.04776 0.0
C3321 C 0.69423 0.19231 1.00117 0.0
H3322 H 0.65616 0.1633 0.95523 0.0
C3323 C 0.73145 0.17471 0.91374 0.0
C3324 C 0.73122 0.1515 0.90765 0.0
C3325 C 0.71645 0.18295 0.93045 0.0
C3326 C 0.66692 0.17136 0.96796 0.0
H3327 H 0.62146 0.23924 0.04165 0.0
H3328 H 0.63181 0.21454 0.00973 0.0
H3329 H 0.6391 0.17592 0.99175 0.0
H3330 H 0.71416 0.11901 0.91272 0.0
H3331 H 0.68757 0.1335 0.94196 0.0
H3332 H 0.7219 0.18823 0.97756 0.0
C3333 C 0.64131 0.21304 0.02556 0.0
C3334 C 0.65722 0.17853 0.98881 0.0
C3335 C 0.63545 0.2273 0.0439 0.0
C3336 C 0.71425 0.13711 0.91682 0.0
C3337 C 0.69919 0.14536 0.93366 0.0
C3338 C 0.70378 0.18547 0.98038 0.0
C3339 C 0.66074 0.19899 0.02683 0.0
C3340 C 0.67082 0.18913 0.00561 0.0
C3341 C 0.70112 0.16803 0.94155 0.0
C3342 C 0.69024 0.17517 0.96343 0.0
H3343 H 0.67724 0.21143 0.0813 0.0
H3344 H 0.68727 0.18639 0.0494 0.0
H3345 H 0.70512 0.20079 0.01353 0.0
H3346 H 0.74465 0.18599 0.90714 0.0
H3347 H 0.71806 0.20059 0.93598 0.0
C3348 C 0.27445 0.65655 0.60073 0.0
C3349 C 0.26824 0.63417 0.60678 0.0
C3350 C 0.29004 0.66035 0.58289 0.0
C3351 C 0.30358 0.63607 0.52811 0.0
H3352 H 0.35081 0.68257 0.52618 0.0
C3353 C 0.32383 0.69664 0.45295 0.0
C3354 C 0.34583 0.70619 0.45223 0.0
C3355 C 0.31876 0.67929 0.46879 0.0
C3356 C 0.33801 0.66915 0.52639 0.0
H3357 H 0.27375 0.59821 0.59972 0.0
H3358 H 0.30086 0.60485 0.56823 0.0
H3359 H 0.33531 0.67033 0.56302 0.0
H3360 H 0.38072 0.70221 0.46378 0.0
H3361 H 0.37215 0.67144 0.49067 0.0
H3362 H 0.30523 0.63605 0.49132 0.0
C3363 C 0.29404 0.6194 0.57753 0.0
C3364 C 0.32905 0.66231 0.54752 0.0
C3365 C 0.27882 0.61561 0.5957 0.0
C3366 C 0.36354 0.69525 0.46421 0.0
C3367 C 0.35856 0.67785 0.47986 0.0
C3368 C 0.31231 0.6432 0.50688 0.0
C3369 C 0.29914 0.64182 0.57045 0.0
C3370 C 0.31139 0.64611 0.54857 0.0
C3371 C 0.33581 0.67114 0.4837 0.0
C3372 C 0.32929 0.66019 0.50578 0.0
H3373 H 0.26596 0.67106 0.6086 0.0
H3374 H 0.29352 0.67781 0.57764 0.0
H3375 H 0.28978 0.6237 0.52845 0.0
H3376 H 0.30996 0.70459 0.44367 0.0
H3377 H 0.30107 0.67428 0.47114 0.0
C3378 C 0.23196 0.38117 0.09294 0.0
C3379 C 0.25146 0.36906 0.10025 0.0
C3380 C 0.21615 0.37106 0.07807 0.0
C3381 C 0.19611 0.31465 0.05729 0.0
H3382 H 0.1725 0.3489 0.00558 0.0
C3383 C 0.15827 0.2908 0.96466 0.0
C3384 C 0.14523 0.27163 0.97106 0.0
C3385 C 0.16556 0.30656 0.98118 0.0
C3386 C 0.17882 0.33914 0.02001 0.0
H3387 H 0.26947 0.33669 0.09743 0.0
H3388 H 0.24194 0.31912 0.07157 0.0
H3389 H 0.19804 0.36763 0.03288 0.0
H3390 H 0.12787 0.25496 0.99925 0.0
H3391 H 0.13974 0.28289 0.02801 0.0
H3392 H 0.17771 0.28594 0.04409 0.0
C3393 C 0.23877 0.33639 0.07754 0.0
C3394 C 0.19337 0.34991 0.03574 0.0
C3395 C 0.25466 0.34654 0.0923 0.0
C3396 C 0.13746 0.26988 0.99377 0.0
C3397 C 0.14471 0.28563 0.01032 0.0
C3398 C 0.1815 0.30394 0.04167 0.0
C3399 C 0.21931 0.34852 0.07022 0.0
C3400 C 0.20254 0.33765 0.05434 0.0
C3401 C 0.16003 0.30334 0.00446 0.0
C3402 C 0.17293 0.3159 0.0226 0.0
H3403 H 0.22889 0.39855 0.09865 0.0
H3404 H 0.20128 0.38082 0.07294 0.0
H3405 H 0.20258 0.30477 0.07157 0.0
H3406 H 0.16506 0.29214 0.9474 0.0
H3407 H 0.17738 0.31988 0.97599 0.0
C3408 C 0.52547 0.87224 0.77303 0.0
C3409 C 0.54912 0.8685 0.77452 0.0
C3410 C 0.5111 0.86679 0.79141 0.0
C3411 C 0.50978 0.8234 0.83601 0.0
H3412 H 0.45018 0.84941 0.84927 0.0
C3413 C 0.44265 0.77249 0.88752 0.0
C3414 C 0.42031 0.77265 0.87863 0.0
C3415 C 0.45903 0.78815 0.87971 0.0
C3416 C 0.46674 0.84189 0.84571 0.0
H3417 H 0.57661 0.85785 0.79674 0.0
H3418 H 0.55152 0.84856 0.8292 0.0
H3419 H 0.47841 0.8719 0.82799 0.0
H3420 H 0.39757 0.79003 0.85505 0.0
H3421 H 0.42621 0.81697 0.84111 0.0
H3422 H 0.49792 0.79304 0.85267 0.0
C3423 C 0.54403 0.85562 0.8138 0.0
C3424 C 0.48296 0.85483 0.83362 0.0
C3425 C 0.55846 0.86127 0.79539 0.0
C3426 C 0.41458 0.78938 0.8623 0.0
C3427 C 0.43101 0.80498 0.85441 0.0
C3428 C 0.49358 0.81046 0.84802 0.0
C3429 C 0.52009 0.85718 0.81155 0.0
C3430 C 0.50448 0.84552 0.8281 0.0
C3431 C 0.45357 0.80432 0.86273 0.0
C3432 C 0.47163 0.81929 0.85252 0.0
H3433 H 0.51789 0.87742 0.75692 0.0
H3434 H 0.4928 0.86808 0.78894 0.0
H3435 H 0.52598 0.81547 0.83172 0.0
H3436 H 0.44766 0.76001 0.90029 0.0
H3437 H 0.4761 0.78737 0.88681 0.0
C3438 C 0.97444 0.14354 0.28315 0.0
C3439 C 0.95393 0.15617 0.28204 0.0
C3440 C 0.99276 0.15121 0.29648 0.0
C3441 C 0.01605 0.20567 0.31625 0.0
H3442 H 0.05953 0.16872 0.35007 0.0
C3443 C 0.09497 0.2253 0.38004 0.0
C3444 C 0.10533 0.24293 0.36734 0.0
C3445 C 0.07882 0.21083 0.36976 0.0
C3446 C 0.04752 0.17921 0.34066 0.0
H3447 H 0.93594 0.18554 0.296 0.0
H3448 H 0.96781 0.19879 0.31934 0.0
H3449 H 0.02477 0.15095 0.33458 0.0
H3450 H 0.1081 0.25851 0.33384 0.0
H3451 H 0.08049 0.23296 0.3157 0.0
H3452 H 0.03856 0.23386 0.32215 0.0
C3453 C 0.96985 0.18319 0.3095 0.0
C3454 C 0.02767 0.16906 0.33176 0.0
C3455 C 0.95149 0.17546 0.29626 0.0
C3456 C 0.10069 0.24472 0.34385 0.0
C3457 C 0.0846 0.23034 0.33359 0.0
C3458 C 0.03591 0.2157 0.32486 0.0
C3459 C 0.991 0.17167 0.30902 0.0
C3460 C 0.01166 0.18223 0.31952 0.0
C3461 C 0.07263 0.214 0.34669 0.0
C3462 C 0.05195 0.20263 0.33709 0.0
H3463 H 0.9769 0.12847 0.2726 0.0
H3464 H 0.00878 0.14191 0.29573 0.0
H3465 H 0.0043 0.21625 0.30661 0.0
H3466 H 0.09782 0.22403 0.39833 0.0
H3467 H 0.06985 0.19848 0.38034 0.0
C3468 C 0.03886 0.64827 0.21564 0.0
C3469 C 0.03232 0.64319 0.23823 0.0
C3470 C 0.02222 0.65243 0.19885 0.0
C3471 C 0.95814 0.65523 0.18903 0.0
H3472 H 0.97515 0.70899 0.154 0.0
C3473 C 0.89449 0.72448 0.15466 0.0
C3474 C 0.90017 0.73509 0.1338 0.0
C3475 C 0.90892 0.70758 0.16395 0.0
C3476 C 0.9701 0.69376 0.16333 0.0
H3477 H 0.00345 0.63692 0.26048 0.0
H3478 H 0.97461 0.64414 0.23179 0.0
H3479 H 0.00409 0.68859 0.17532 0.0
H3480 H 0.92431 0.73548 0.10562 0.0
H3481 H 0.94902 0.70581 0.12139 0.0
H3482 H 0.92371 0.66154 0.17781 0.0
C3483 C 0.99237 0.64456 0.22651 0.0
C3484 C 0.98685 0.68185 0.17554 0.0
C3485 C 0.00899 0.64019 0.24311 0.0
C3486 C 0.91948 0.72742 0.12166 0.0
C3487 C 0.93377 0.71061 0.13083 0.0
C3488 C 0.94128 0.66737 0.17698 0.0
C3489 C 0.99869 0.65206 0.20445 0.0
C3490 C 0.98116 0.66256 0.18889 0.0
C3491 C 0.92926 0.70118 0.15254 0.0
C3492 C 0.94704 0.68695 0.16416 0.0
H3493 H 0.0567 0.65123 0.2115 0.0
H3494 H 0.02787 0.65749 0.1819 0.0
H3495 H 0.95301 0.6403 0.19878 0.0
H3496 H 0.87995 0.73043 0.16456 0.0
H3497 H 0.90498 0.70074 0.18076 0.0
C3498 C 0.46886 0.37464 0.71203 0.0
C3499 C 0.47575 0.37033 0.73461 0.0
C3500 C 0.48518 0.37518 0.69429 0.0
C3501 C 0.54846 0.37286 0.68239 0.0
H3502 H 0.53062 0.32895 0.63606 0.0
C3503 C 0.60856 0.3052 0.64454 0.0
C3504 C 0.60374 0.2958 0.623 0.0
C3505 C 0.59536 0.32331 0.6531 0.0
C3506 C 0.53592 0.34171 0.6484 0.0
H3507 H 0.50486 0.36497 0.75674 0.0
H3508 H 0.53309 0.36625 0.72631 0.0
H3509 H 0.50168 0.34578 0.66063 0.0
H3510 H 0.5827 0.29876 0.59277 0.0
H3511 H 0.5601 0.33088 0.6073 0.0
H3512 H 0.58297 0.36757 0.67098 0.0
C3513 C 0.51538 0.36936 0.72195 0.0
C3514 C 0.51921 0.35144 0.66255 0.0
C3515 C 0.49916 0.36856 0.73948 0.0
C3516 C 0.58694 0.30603 0.60931 0.0
C3517 C 0.57381 0.3242 0.61778 0.0
C3518 C 0.56523 0.36307 0.66825 0.0
C3519 C 0.50857 0.3716 0.69899 0.0
C3520 C 0.52536 0.36635 0.6804 0.0
C3521 C 0.57702 0.33222 0.64028 0.0
C3522 C 0.55925 0.34664 0.6517 0.0
H3523 H 0.45086 0.3758 0.70787 0.0
H3524 H 0.47938 0.37714 0.67679 0.0
H3525 H 0.55376 0.38462 0.6957 0.0
H3526 H 0.62106 0.29717 0.6556 0.0
H3527 H 0.59823 0.32884 0.67057 0.0
C3528 C 0.79008 0.52131 0.86496 0.0
C3529 C 0.79026 0.54336 0.85524 0.0
C3530 C 0.80515 0.50443 0.85702 0.0
C3531 C 0.85622 0.49381 0.8197 0.0
H3532 H 0.82499 0.4367 0.80682 0.0
C3533 C 0.88912 0.42737 0.75325 0.0
C3534 C 0.8856 0.404 0.75797 0.0
C3535 C 0.88023 0.44423 0.76788 0.0
C3536 C 0.83417 0.45236 0.8106 0.0
H3537 H 0.80794 0.56545 0.83104 0.0
H3538 H 0.83391 0.53609 0.81714 0.0
H3539 H 0.80553 0.46627 0.82867 0.0
H3540 H 0.87087 0.38011 0.78242 0.0
H3541 H 0.85571 0.40937 0.80792 0.0
H3542 H 0.88469 0.47994 0.80102 0.0
C3543 C 0.82221 0.53176 0.8309 0.0
C3544 C 0.823 0.46935 0.82323 0.0
C3545 C 0.8072 0.54864 0.83887 0.0
C3546 C 0.8737 0.39792 0.77807 0.0
C3547 C 0.86489 0.41473 0.79268 0.0
C3548 C 0.86743 0.47676 0.80702 0.0
C3549 C 0.82076 0.5092 0.83922 0.0
C3550 C 0.83375 0.49041 0.82776 0.0
C3551 C 0.86766 0.43811 0.78758 0.0
C3552 C 0.85645 0.45589 0.80212 0.0
H3553 H 0.77741 0.51663 0.87772 0.0
H3554 H 0.80392 0.48736 0.86419 0.0
H3555 H 0.86511 0.50972 0.82306 0.0
H3556 H 0.89819 0.43269 0.73792 0.0
H3557 H 0.88252 0.46206 0.7633 0.0
C3558 C 0.26641 0.99925 0.15105 0.0
C3559 C 0.27093 0.9767 0.1441 0.0
C3560 C 0.2833 0.01597 0.14986 0.0
C3561 C 0.34321 0.01973 0.15966 0.0
H3562 H 0.33208 0.08458 0.15049 0.0
C3563 C 0.39657 0.08446 0.20886 0.0
C3564 C 0.38334 0.10093 0.22031 0.0
C3565 C 0.38754 0.07237 0.19033 0.0
C3566 C 0.33556 0.06655 0.15309 0.0
H3567 H 0.29635 0.954 0.12954 0.0
H3568 H 0.32669 0.98334 0.12836 0.0
H3569 H 0.30677 0.0564 0.13284 0.0
H3570 H 0.35093 0.11866 0.22099 0.0
H3571 H 0.33472 0.0972 0.18905 0.0
H3572 H 0.37069 0.02958 0.18141 0.0
C3573 C 0.30973 0.98809 0.13418 0.0
C3574 C 0.32117 0.05042 0.14281 0.0
C3575 C 0.29244 0.97136 0.13479 0.0
C3576 C 0.36153 0.10627 0.21209 0.0
C3577 C 0.35232 0.09393 0.19374 0.0
C3578 C 0.35748 0.03582 0.17008 0.0
C3579 C 0.30542 0.01042 0.14232 0.0
C3580 C 0.32421 0.02688 0.1469 0.0
C3581 C 0.36486 0.07612 0.18326 0.0
C3582 C 0.3532 0.05947 0.16781 0.0
H3583 H 0.25007 1.00376 0.15857 0.0
H3584 H 0.27947 0.03283 0.15662 0.0
H3585 H 0.34586 1.00175 0.16336 0.0
H3586 H 0.41343 0.08003 0.2151 0.0
H3587 H 0.39789 0.05917 0.18239 0.0
C3588 C 0.22679 0.00641 0.63954 0.0
C3589 C 0.22565 0.02899 0.64771 0.0
C3590 C 0.21197 0.98961 0.64814 0.0
C3591 C 0.16196 0.97853 0.6869 0.0
H3592 H 0.19879 0.92691 0.70649 0.0
C3593 C 0.16113 0.90406 0.76137 0.0
C3594 C 0.13864 0.8957 0.75961 0.0
C3595 C 0.16993 0.91931 0.74502 0.0
C3596 C 0.18824 0.94119 0.70118 0.0
H3597 H 0.20697 0.05213 0.66981 0.0
H3598 H 0.18077 0.02305 0.68451 0.0
H3599 H 0.21518 0.95544 0.68084 0.0
H3600 H 0.10779 0.89703 0.73905 0.0
H3601 H 0.12317 0.92363 0.71063 0.0
H3602 H 0.13523 0.96448 0.70797 0.0
C3603 C 0.19293 0.0182 0.67134 0.0
C3604 C 0.19753 0.95743 0.68616 0.0
C3605 C 0.20777 0.035 0.66268 0.0
C3606 C 0.12523 0.90298 0.74096 0.0
C3607 C 0.13397 0.91839 0.72472 0.0
C3608 C 0.15258 0.96213 0.70183 0.0
C3609 C 0.1958 0.99503 0.66524 0.0
C3610 C 0.18465 0.9765 0.67903 0.0
C3611 C 0.15643 0.92678 0.72654 0.0
C3612 C 0.16575 0.94345 0.70947 0.0
H3613 H 0.24078 1.00119 0.62846 0.0
H3614 H 0.21436 0.97204 0.64268 0.0
H3615 H 0.15153 0.99295 0.68176 0.0
H3616 H 0.17194 0.89898 0.77551 0.0
H3617 H 0.18721 0.92563 0.74712 0.0
C3618 C 0.61278 0.56588 0.2793 0.0
C3619 C 0.62001 0.58854 0.27572 0.0
C3620 C 0.62286 0.5523 0.29604 0.0
C3621 C 0.67805 0.5475 0.32578 0.0
H3622 H 0.64958 0.49223 0.34942 0.0
C3623 C 0.73024 0.47765 0.37081 0.0
C3624 C 0.72963 0.4566 0.35897 0.0
C3625 C 0.71391 0.49453 0.36665 0.0
C3626 C 0.65769 0.50766 0.34303 0.0
H3627 H 0.642 0.61552 0.28825 0.0
H3628 H 0.65941 0.59189 0.31833 0.0
H3629 H 0.62578 0.52266 0.33351 0.0
H3630 H 0.71015 0.43625 0.33486 0.0
H3631 H 0.68114 0.46572 0.32807 0.0
H3632 H 0.70995 0.53239 0.33551 0.0
C3633 C 0.64628 0.58441 0.30766 0.0
C3634 C 0.64412 0.5251 0.33381 0.0
C3635 C 0.63614 0.59809 0.29067 0.0
C3636 C 0.7111 0.45216 0.34435 0.0
C3637 C 0.69452 0.46905 0.34041 0.0
C3638 C 0.69153 0.53029 0.33546 0.0
C3639 C 0.64042 0.56102 0.3099 0.0
C3640 C 0.65418 0.5449 0.32422 0.0
C3641 C 0.69632 0.49068 0.35088 0.0
C3642 C 0.68155 0.50992 0.34351 0.0
H3643 H 0.60021 0.55812 0.26812 0.0
H3644 H 0.6179 0.53446 0.29684 0.0
H3645 H 0.68658 0.56221 0.31835 0.0
H3646 H 0.74414 0.4817 0.38235 0.0
H3647 H 0.71554 0.51098 0.37509 0.0
loop_
_geom_bond_atom_site_label_1
_geom_bond_atom_site_label_2
_geom_bond_distance
_geom_bond_site_symmetry_2
_ccdc_geom_bond_type
Fe0 O1 1.886 . S
Fe0 O4 1.715 . S
Fe0 O9 2.077 . S
Fe0 O14 1.935 . S
Fe0 O20 2.077 . S
Fe0 O29 1.935 . S
O1 Fe0 1.886 . S
O1 Fe3 1.715 . S
Fe2 O4 1.886 . S
Fe2 O5 1.715 . S
Fe2 O12 1.935 . S
Fe2 O13 2.077 . S
Fe2 O19 1.935 . S
Fe2 O28 2.077 . S
Fe3 O1 1.715 . S
Fe3 O6 1.886 . S
Fe3 O10 1.935 . S
Fe3 O15 2.077 . S
Fe3 O21 1.935 . S
Fe3 O25 2.077 . S
O4 Fe0 1.715 . S
O4 Fe2 1.886 . S
O5 Fe2 1.715 . S
O5 Fe7 1.886 . S
O6 Fe3 1.886 . S
O6 Fe7 1.715 . S
Fe7 O5 1.886 . S
Fe7 O6 1.715 . S
Fe7 O11 2.077 . S
Fe7 O16 1.935 . S
Fe7 O18 2.077 . S
Fe7 O26 1.935 . S
C8 O20 1.381 . S
C8 O21 1.421 . S
O9 Fe0 2.077 . S
O9 C22 1.381 . S
O10 Fe3 1.935 . S
O10 C22 1.421 . S
O11 Fe7 2.077 . S
O11 C27 1.381 . S
O12 Fe2 1.935 . S
O12 C27 1.421 . S
O13 Fe2 2.077 . S
O13 C17 1.381 . S
O14 Fe0 1.935 . S
O14 C17 1.421 . S
O15 Fe3 2.077 . S
O15 C23 1.381 . S
O16 Fe7 1.935 . S
O16 C23 1.421 . S
C17 O13 1.381 . S
C17 O14 1.421 . S
O18 Fe7 2.077 . S
O18 C30 1.381 . S
O19 Fe2 1.935 . S
O19 C30 1.421 . S
O20 Fe0 2.077 . S
O20 C8 1.381 . S
O21 Fe3 1.935 . S
O21 C8 1.421 . S
C22 O9 1.381 . S
C22 O10 1.421 . S
C23 O15 1.381 . S
C23 O16 1.421 . S
C24 O25 1.381 . S
C24 O26 1.421 . S
O25 Fe3 2.077 . S
O25 C24 1.381 . S
O26 Fe7 1.935 . S
O26 C24 1.421 . S
C27 O11 1.381 . S
C27 O12 1.421 . S
O28 Fe2 2.077 . S
O28 C31 1.381 . S
O29 Fe0 1.935 . S
O29 C31 1.421 . S
C30 O18 1.381 . S
C30 O19 1.421 . S
C31 O28 1.381 . S
C31 O29 1.421 . S
Fe32 O33 1.886 . S
Fe32 O36 1.715 . S
Fe32 O41 2.077 . S
Fe32 O46 1.935 . S
Fe32 O52 2.077 . S
Fe32 O61 1.935 . S
O33 Fe32 1.886 . S
O33 Fe35 1.715 . S
Fe34 O36 1.886 . S
Fe34 O37 1.715 . S
Fe34 O44 1.935 . S
Fe34 O45 2.077 . S
Fe34 O51 1.935 . S
Fe34 O60 2.077 . S
Fe35 O33 1.715 . S
Fe35 O38 1.886 . S
Fe35 O42 1.935 . S
Fe35 O47 2.077 . S
Fe35 O53 1.935 . S
Fe35 O57 2.077 . S
O36 Fe32 1.715 . S
O36 Fe34 1.886 . S
O37 Fe34 1.715 . S
O37 Fe39 1.886 . S
O38 Fe35 1.886 . S
O38 Fe39 1.715 . S
Fe39 O37 1.886 . S
Fe39 O38 1.715 . S
Fe39 O43 2.077 . S
Fe39 O48 1.935 . S
Fe39 O50 2.077 . S
Fe39 O58 1.935 . S
C40 O52 1.381 . S
C40 O53 1.421 . S
O41 Fe32 2.077 . S
O41 C54 1.381 . S
O42 Fe35 1.935 . S
O42 C54 1.421 . S
O43 Fe39 2.077 . S
O43 C59 1.381 . S
O44 Fe34 1.935 . S
O44 C59 1.421 . S
O45 Fe34 2.077 . S
O45 C49 1.381 . S
O46 Fe32 1.935 . S
O46 C49 1.421 . S
O47 Fe35 2.077 . S
O47 C55 1.381 . S
O48 Fe39 1.935 . S
O48 C55 1.421 . S
C49 O45 1.381 . S
C49 O46 1.421 . S
O50 Fe39 2.077 . S
O50 C62 1.381 . S
O51 Fe34 1.935 . S
O51 C62 1.421 . S
O52 Fe32 2.077 . S
O52 C40 1.381 . S
O53 Fe35 1.935 . S
O53 C40 1.421 . S
C54 O41 1.381 . S
C54 O42 1.421 . S
C55 O47 1.381 . S
C55 O48 1.421 . S
C56 O57 1.381 . S
C56 O58 1.421 . S
O57 Fe35 2.077 . S
O57 C56 1.381 . S
O58 Fe39 1.935 . S
O58 C56 1.421 . S
C59 O43 1.381 . S
C59 O44 1.421 . S
O60 Fe34 2.077 . S
O60 C63 1.381 . S
O61 Fe32 1.935 . S
O61 C63 1.421 . S
C62 O50 1.381 . S
C62 O51 1.421 . S
C63 O60 1.381 . S
C63 O61 1.421 . S
Fe64 O65 1.886 . S
Fe64 O68 1.715 . S
Fe64 O73 2.077 . S
Fe64 O78 1.935 . S
Fe64 O84 2.077 . S
Fe64 O93 1.935 . S
O65 Fe64 1.886 . S
O65 Fe67 1.715 . S
Fe66 O68 1.886 . S
Fe66 O69 1.715 . S
Fe66 O76 1.935 . S
Fe66 O77 2.077 . S
Fe66 O83 1.935 . S
Fe66 O92 2.077 . S
Fe67 O65 1.715 . S
Fe67 O70 1.886 . S
Fe67 O74 1.935 . S
Fe67 O79 2.077 . S
Fe67 O85 1.935 . S
Fe67 O89 2.077 . S
O68 Fe64 1.715 . S
O68 Fe66 1.886 . S
O69 Fe66 1.715 . S
O69 Fe71 1.886 . S
O70 Fe67 1.886 . S
O70 Fe71 1.715 . S
Fe71 O69 1.886 . S
Fe71 O70 1.715 . S
Fe71 O75 2.077 . S
Fe71 O80 1.935 . S
Fe71 O82 2.077 . S
Fe71 O90 1.935 . S
C72 O84 1.381 . S
C72 O85 1.421 . S
O73 Fe64 2.077 . S
O73 C86 1.381 . S
O74 Fe67 1.935 . S
O74 C86 1.421 . S
O75 Fe71 2.077 . S
O75 C91 1.381 . S
O76 Fe66 1.935 . S
O76 C91 1.421 . S
O77 Fe66 2.077 . S
O77 C81 1.381 . S
O78 Fe64 1.935 . S
O78 C81 1.421 . S
O79 Fe67 2.077 . S
O79 C87 1.381 . S
O80 Fe71 1.935 . S
O80 C87 1.421 . S
C81 O77 1.381 . S
C81 O78 1.421 . S
O82 Fe71 2.077 . S
O82 C94 1.381 . S
O83 Fe66 1.935 . S
O83 C94 1.421 . S
O84 Fe64 2.077 . S
O84 C72 1.381 . S
O85 Fe67 1.935 . S
O85 C72 1.421 . S
C86 O73 1.381 . S
C86 O74 1.421 . S
C87 O79 1.381 . S
C87 O80 1.421 . S
C88 O89 1.381 . S
C88 O90 1.421 . S
O89 Fe67 2.077 . S
O89 C88 1.381 . S
O90 Fe71 1.935 . S
O90 C88 1.421 . S
C91 O75 1.381 . S
C91 O76 1.421 . S
O92 Fe66 2.077 . S
O92 C95 1.381 . S
O93 Fe64 1.935 . S
O93 C95 1.421 . S
C94 O82 1.381 . S
C94 O83 1.421 . S
C95 O92 1.381 . S
C95 O93 1.421 . S
Fe96 O97 1.886 . S
Fe96 O100 1.715 . S
Fe96 O105 2.077 . S
Fe96 O110 1.935 . S
Fe96 O116 2.077 . S
Fe96 O125 1.935 . S
O97 Fe96 1.886 . S
O97 Fe99 1.715 . S
Fe98 O100 1.886 . S
Fe98 O101 1.715 . S
Fe98 O108 1.935 . S
Fe98 O109 2.077 . S
Fe98 O115 1.935 . S
Fe98 O124 2.077 . S
Fe99 O97 1.715 . S
Fe99 O102 1.886 . S
Fe99 O106 1.935 . S
Fe99 O111 2.077 . S
Fe99 O117 1.935 . S
Fe99 O121 2.077 . S
O100 Fe96 1.715 . S
O100 Fe98 1.886 . S
O101 Fe98 1.715 . S
O101 Fe103 1.886 . S
O102 Fe99 1.886 . S
O102 Fe103 1.715 . S
Fe103 O101 1.886 . S
Fe103 O102 1.715 . S
Fe103 O107 2.077 . S
Fe103 O112 1.935 . S
Fe103 O114 2.077 . S
Fe103 O122 1.935 . S
C104 O116 1.381 . S
C104 O117 1.421 . S
O105 Fe96 2.077 . S
O105 C118 1.381 . S
O106 Fe99 1.935 . S
O106 C118 1.421 . S
O107 Fe103 2.077 . S
O107 C123 1.381 . S
O108 Fe98 1.935 . S
O108 C123 1.421 . S
O109 Fe98 2.077 . S
O109 C113 1.381 . S
O110 Fe96 1.935 . S
O110 C113 1.421 . S
O111 Fe99 2.077 . S
O111 C119 1.381 . S
O112 Fe103 1.935 . S
O112 C119 1.421 . S
C113 O109 1.381 . S
C113 O110 1.421 . S
O114 Fe103 2.077 . S
O114 C126 1.381 . S
O115 Fe98 1.935 . S
O115 C126 1.421 . S
O116 Fe96 2.077 . S
O116 C104 1.381 . S
O117 Fe99 1.935 . S
O117 C104 1.421 . S
C118 O105 1.381 . S
C118 O106 1.421 . S
C119 O111 1.381 . S
C119 O112 1.421 . S
C120 O121 1.381 . S
C120 O122 1.421 . S
O121 Fe99 2.077 . S
O121 C120 1.381 . S
O122 Fe103 1.935 . S
O122 C120 1.421 . S
C123 O107 1.381 . S
C123 O108 1.421 . S
O124 Fe98 2.077 . S
O124 C127 1.381 . S
O125 Fe96 1.935 . S
O125 C127 1.421 . S
C126 O114 1.381 . S
C126 O115 1.421 . S
C127 O124 1.381 . S
C127 O125 1.421 . S
Fe128 O129 1.886 . S
Fe128 O132 1.715 . S
Fe128 O137 2.077 . S
Fe128 O142 1.935 . S
Fe128 O148 2.077 . S
Fe128 O157 1.935 . S
O129 Fe128 1.886 . S
O129 Fe131 1.715 . S
Fe130 O132 1.886 . S
Fe130 O133 1.715 . S
Fe130 O140 1.935 . S
Fe130 O141 2.077 . S
Fe130 O147 1.935 . S
Fe130 O156 2.077 . S
Fe131 O129 1.715 . S
Fe131 O134 1.886 . S
Fe131 O138 1.935 . S
Fe131 O143 2.077 . S
Fe131 O149 1.935 . S
Fe131 O153 2.077 . S
O132 Fe128 1.715 . S
O132 Fe130 1.886 . S
O133 Fe130 1.715 . S
O133 Fe135 1.886 . S
O134 Fe131 1.886 . S
O134 Fe135 1.715 . S
Fe135 O133 1.886 . S
Fe135 O134 1.715 . S
Fe135 O139 2.077 . S
Fe135 O144 1.935 . S
Fe135 O146 2.077 . S
Fe135 O154 1.935 . S
C136 O148 1.381 . S
C136 O149 1.421 . S
O137 Fe128 2.077 . S
O137 C150 1.381 . S
O138 Fe131 1.935 . S
O138 C150 1.421 . S
O139 Fe135 2.077 . S
O139 C155 1.381 . S
O140 Fe130 1.935 . S
O140 C155 1.421 . S
O141 Fe130 2.077 . S
O141 C145 1.381 . S
O142 Fe128 1.935 . S
O142 C145 1.421 . S
O143 Fe131 2.077 . S
O143 C151 1.381 . S
O144 Fe135 1.935 . S
O144 C151 1.421 . S
C145 O141 1.381 . S
C145 O142 1.421 . S
O146 Fe135 2.077 . S
O146 C158 1.381 . S
O147 Fe130 1.935 . S
O147 C158 1.421 . S
O148 Fe128 2.077 . S
O148 C136 1.381 . S
O149 Fe131 1.935 . S
O149 C136 1.421 . S
C150 O137 1.381 . S
C150 O138 1.421 . S
C151 O143 1.381 . S
C151 O144 1.421 . S
C152 O153 1.381 . S
C152 O154 1.421 . S
O153 Fe131 2.077 . S
O153 C152 1.381 . S
O154 Fe135 1.935 . S
O154 C152 1.421 . S
C155 O139 1.381 . S
C155 O140 1.421 . S
O156 Fe130 2.077 . S
O156 C159 1.381 . S
O157 Fe128 1.935 . S
O157 C159 1.421 . S
C158 O146 1.381 . S
C158 O147 1.421 . S
C159 O156 1.381 . S
C159 O157 1.421 . S
Fe160 O161 1.886 . S
Fe160 O164 1.715 . S
Fe160 O169 2.077 . S
Fe160 O174 1.935 . S
Fe160 O180 2.077 . S
Fe160 O189 1.935 . S
O161 Fe160 1.886 . S
O161 Fe163 1.715 . S
Fe162 O164 1.886 . S
Fe162 O165 1.715 . S
Fe162 O172 1.935 . S
Fe162 O173 2.077 . S
Fe162 O179 1.935 . S
Fe162 O188 2.077 . S
Fe163 O161 1.715 . S
Fe163 O166 1.886 . S
Fe163 O170 1.935 . S
Fe163 O175 2.077 . S
Fe163 O181 1.935 . S
Fe163 O185 2.077 . S
O164 Fe160 1.715 . S
O164 Fe162 1.886 . S
O165 Fe162 1.715 . S
O165 Fe167 1.886 . S
O166 Fe163 1.886 . S
O166 Fe167 1.715 . S
Fe167 O165 1.886 . S
Fe167 O166 1.715 . S
Fe167 O171 2.077 . S
Fe167 O176 1.935 . S
Fe167 O178 2.077 . S
Fe167 O186 1.935 . S
C168 O180 1.381 . S
C168 O181 1.421 . S
O169 Fe160 2.077 . S
O169 C182 1.381 . S
O170 Fe163 1.935 . S
O170 C182 1.421 . S
O171 Fe167 2.077 . S
O171 C187 1.381 . S
O172 Fe162 1.935 . S
O172 C187 1.421 . S
O173 Fe162 2.077 . S
O173 C177 1.381 . S
O174 Fe160 1.935 . S
O174 C177 1.421 . S
O175 Fe163 2.077 . S
O175 C183 1.381 . S
O176 Fe167 1.935 . S
O176 C183 1.421 . S
C177 O173 1.381 . S
C177 O174 1.421 . S
O178 Fe167 2.077 . S
O178 C190 1.381 . S
O179 Fe162 1.935 . S
O179 C190 1.421 . S
O180 Fe160 2.077 . S
O180 C168 1.381 . S
O181 Fe163 1.935 . S
O181 C168 1.421 . S
C182 O169 1.381 . S
C182 O170 1.421 . S
C183 O175 1.381 . S
C183 O176 1.421 . S
C184 O185 1.381 . S
C184 O186 1.421 . S
O185 Fe163 2.077 . S
O185 C184 1.381 . S
O186 Fe167 1.935 . S
O186 C184 1.421 . S
C187 O171 1.381 . S
C187 O172 1.421 . S
O188 Fe162 2.077 . S
O188 C191 1.381 . S
O189 Fe160 1.935 . S
O189 C191 1.421 . S
C190 O178 1.381 . S
C190 O179 1.421 . S
C191 O188 1.381 . S
C191 O189 1.421 . S
Fe192 O193 1.886 . S
Fe192 O196 1.715 . S
Fe192 O201 2.077 . S
Fe192 O206 1.935 . S
Fe192 O212 2.077 . S
Fe192 O221 1.935 . S
O193 Fe192 1.886 . S
O193 Fe195 1.715 . S
Fe194 O196 1.886 . S
Fe194 O197 1.715 . S
Fe194 O204 1.935 . S
Fe194 O205 2.077 . S
Fe194 O211 1.935 . S
Fe194 O220 2.077 . S
Fe195 O193 1.715 . S
Fe195 O198 1.886 . S
Fe195 O202 1.935 . S
Fe195 O207 2.077 . S
Fe195 O213 1.935 . S
Fe195 O217 2.077 . S
O196 Fe192 1.715 . S
O196 Fe194 1.886 . S
O197 Fe194 1.715 . S
O197 Fe199 1.886 . S
O198 Fe195 1.886 . S
O198 Fe199 1.715 . S
Fe199 O197 1.886 . S
Fe199 O198 1.715 . S
Fe199 O203 2.077 . S
Fe199 O208 1.935 . S
Fe199 O210 2.077 . S
Fe199 O218 1.935 . S
C200 O212 1.381 . S
C200 O213 1.421 . S
O201 Fe192 2.077 . S
O201 C214 1.381 . S
O202 Fe195 1.935 . S
O202 C214 1.421 . S
O203 Fe199 2.077 . S
O203 C219 1.381 . S
O204 Fe194 1.935 . S
O204 C219 1.421 . S
O205 Fe194 2.077 . S
O205 C209 1.381 . S
O206 Fe192 1.935 . S
O206 C209 1.421 . S
O207 Fe195 2.077 . S
O207 C215 1.381 . S
O208 Fe199 1.935 . S
O208 C215 1.421 . S
C209 O205 1.381 . S
C209 O206 1.421 . S
O210 Fe199 2.077 . S
O210 C222 1.381 . S
O211 Fe194 1.935 . S
O211 C222 1.421 . S
O212 Fe192 2.077 . S
O212 C200 1.381 . S
O213 Fe195 1.935 . S
O213 C200 1.421 . S
C214 O201 1.381 . S
C214 O202 1.421 . S
C215 O207 1.381 . S
C215 O208 1.421 . S
C216 O217 1.381 . S
C216 O218 1.421 . S
O217 Fe195 2.077 . S
O217 C216 1.381 . S
O218 Fe199 1.935 . S
O218 C216 1.421 . S
C219 O203 1.381 . S
C219 O204 1.421 . S
O220 Fe194 2.077 . S
O220 C223 1.381 . S
O221 Fe192 1.935 . S
O221 C223 1.421 . S
C222 O210 1.381 . S
C222 O211 1.421 . S
C223 O220 1.381 . S
C223 O221 1.421 . S
Fe224 O225 1.886 . S
Fe224 O228 1.715 . S
Fe224 O233 2.077 . S
Fe224 O238 1.935 . S
Fe224 O244 2.077 . S
Fe224 O253 1.935 . S
O225 Fe224 1.886 . S
O225 Fe227 1.715 . S
Fe226 O228 1.886 . S
Fe226 O229 1.715 . S
Fe226 O236 1.935 . S
Fe226 O237 2.077 . S
Fe226 O243 1.935 . S
Fe226 O252 2.077 . S
Fe227 O225 1.715 . S
Fe227 O230 1.886 . S
Fe227 O234 1.935 . S
Fe227 O239 2.077 . S
Fe227 O245 1.935 . S
Fe227 O249 2.077 . S
O228 Fe224 1.715 . S
O228 Fe226 1.886 . S
O229 Fe226 1.715 . S
O229 Fe231 1.886 . S
O230 Fe227 1.886 . S
O230 Fe231 1.715 . S
Fe231 O229 1.886 . S
Fe231 O230 1.715 . S
Fe231 O235 2.077 . S
Fe231 O240 1.935 . S
Fe231 O242 2.077 . S
Fe231 O250 1.935 . S
C232 O244 1.381 . S
C232 O245 1.421 . S
O233 Fe224 2.077 . S
O233 C246 1.381 . S
O234 Fe227 1.935 . S
O234 C246 1.421 . S
O235 Fe231 2.077 . S
O235 C251 1.381 . S
O236 Fe226 1.935 . S
O236 C251 1.421 . S
O237 Fe226 2.077 . S
O237 C241 1.381 . S
O238 Fe224 1.935 . S
O238 C241 1.421 . S
O239 Fe227 2.077 . S
O239 C247 1.381 . S
O240 Fe231 1.935 . S
O240 C247 1.421 . S
C241 O237 1.381 . S
C241 O238 1.421 . S
O242 Fe231 2.077 . S
O242 C254 1.381 . S
O243 Fe226 1.935 . S
O243 C254 1.421 . S
O244 Fe224 2.077 . S
O244 C232 1.381 . S
O245 Fe227 1.935 . S
O245 C232 1.421 . S
C246 O233 1.381 . S
C246 O234 1.421 . S
C247 O239 1.381 . S
C247 O240 1.421 . S
C248 O249 1.381 . S
C248 O250 1.421 . S
O249 Fe227 2.077 . S
O249 C248 1.381 . S
O250 Fe231 1.935 . S
O250 C248 1.421 . S
C251 O235 1.381 . S
C251 O236 1.421 . S
O252 Fe226 2.077 . S
O252 C255 1.381 . S
O253 Fe224 1.935 . S
O253 C255 1.421 . S
C254 O242 1.381 . S
C254 O243 1.421 . S
C255 O252 1.381 . S
C255 O253 1.421 . S
Fe256 O257 1.886 . S
Fe256 O260 1.715 . S
Fe256 O265 2.077 . S
Fe256 O270 1.935 . S
Fe256 O276 2.077 . S
Fe256 O285 1.935 . S
O257 Fe256 1.886 . S
O257 Fe259 1.715 . S
Fe258 O260 1.886 . S
Fe258 O261 1.715 . S
Fe258 O268 1.935 . S
Fe258 O269 2.077 . S
Fe258 O275 1.935 . S
Fe258 O284 2.077 . S
Fe259 O257 1.715 . S
Fe259 O262 1.886 . S
Fe259 O266 1.935 . S
Fe259 O271 2.077 . S
Fe259 O277 1.935 . S
Fe259 O281 2.077 . S
O260 Fe256 1.715 . S
O260 Fe258 1.886 . S
O261 Fe258 1.715 . S
O261 Fe263 1.886 . S
O262 Fe259 1.886 . S
O262 Fe263 1.715 . S
Fe263 O261 1.886 . S
Fe263 O262 1.715 . S
Fe263 O267 2.077 . S
Fe263 O272 1.935 . S
Fe263 O274 2.077 . S
Fe263 O282 1.935 . S
C264 O276 1.381 . S
C264 O277 1.421 . S
O265 Fe256 2.077 . S
O265 C278 1.381 . S
O266 Fe259 1.935 . S
O266 C278 1.421 . S
O267 Fe263 2.077 . S
O267 C283 1.381 . S
O268 Fe258 1.935 . S
O268 C283 1.421 . S
O269 Fe258 2.077 . S
O269 C273 1.381 . S
O270 Fe256 1.935 . S
O270 C273 1.421 . S
O271 Fe259 2.077 . S
O271 C279 1.381 . S
O272 Fe263 1.935 . S
O272 C279 1.421 . S
C273 O269 1.381 . S
C273 O270 1.421 . S
O274 Fe263 2.077 . S
O274 C286 1.381 . S
O275 Fe258 1.935 . S
O275 C286 1.421 . S
O276 Fe256 2.077 . S
O276 C264 1.381 . S
O277 Fe259 1.935 . S
O277 C264 1.421 . S
C278 O265 1.381 . S
C278 O266 1.421 . S
C279 O271 1.381 . S
C279 O272 1.421 . S
C280 O281 1.381 . S
C280 O282 1.421 . S
O281 Fe259 2.077 . S
O281 C280 1.381 . S
O282 Fe263 1.935 . S
O282 C280 1.421 . S
C283 O267 1.381 . S
C283 O268 1.421 . S
O284 Fe258 2.077 . S
O284 C287 1.381 . S
O285 Fe256 1.935 . S
O285 C287 1.421 . S
C286 O274 1.381 . S
C286 O275 1.421 . S
C287 O284 1.381 . S
C287 O285 1.421 . S
Fe288 O289 1.886 . S
Fe288 O292 1.715 . S
Fe288 O297 2.077 . S
Fe288 O302 1.935 . S
Fe288 O308 2.077 . S
Fe288 O317 1.935 . S
O289 Fe288 1.886 . S
O289 Fe291 1.715 . S
Fe290 O292 1.886 . S
Fe290 O293 1.715 . S
Fe290 O300 1.935 . S
Fe290 O301 2.077 . S
Fe290 O307 1.935 . S
Fe290 O316 2.077 . S
Fe291 O289 1.715 . S
Fe291 O294 1.886 . S
Fe291 O298 1.935 . S
Fe291 O303 2.077 . S
Fe291 O309 1.935 . S
Fe291 O313 2.077 . S
O292 Fe288 1.715 . S
O292 Fe290 1.886 . S
O293 Fe290 1.715 . S
O293 Fe295 1.886 . S
O294 Fe291 1.886 . S
O294 Fe295 1.715 . S
Fe295 O293 1.886 . S
Fe295 O294 1.715 . S
Fe295 O299 2.077 . S
Fe295 O304 1.935 . S
Fe295 O306 2.077 . S
Fe295 O314 1.935 . S
C296 O308 1.381 . S
C296 O309 1.421 . S
O297 Fe288 2.077 . S
O297 C310 1.381 . S
O298 Fe291 1.935 . S
O298 C310 1.421 . S
O299 Fe295 2.077 . S
O299 C315 1.381 . S
O300 Fe290 1.935 . S
O300 C315 1.421 . S
O301 Fe290 2.077 . S
O301 C305 1.381 . S
O302 Fe288 1.935 . S
O302 C305 1.421 . S
O303 Fe291 2.077 . S
O303 C311 1.381 . S
O304 Fe295 1.935 . S
O304 C311 1.421 . S
C305 O301 1.381 . S
C305 O302 1.421 . S
O306 Fe295 2.077 . S
O306 C318 1.381 . S
O307 Fe290 1.935 . S
O307 C318 1.421 . S
O308 Fe288 2.077 . S
O308 C296 1.381 . S
O309 Fe291 1.935 . S
O309 C296 1.421 . S
C310 O297 1.381 . S
C310 O298 1.421 . S
C311 O303 1.381 . S
C311 O304 1.421 . S
C312 O313 1.381 . S
C312 O314 1.421 . S
O313 Fe291 2.077 . S
O313 C312 1.381 . S
O314 Fe295 1.935 . S
O314 C312 1.421 . S
C315 O299 1.381 . S
C315 O300 1.421 . S
O316 Fe290 2.077 . S
O316 C319 1.381 . S
O317 Fe288 1.935 . S
O317 C319 1.421 . S
C318 O306 1.381 . S
C318 O307 1.421 . S
C319 O316 1.381 . S
C319 O317 1.421 . S
Fe320 O321 1.886 . S
Fe320 O324 1.715 . S
Fe320 O329 2.077 . S
Fe320 O334 1.935 . S
Fe320 O340 2.077 . S
Fe320 O349 1.935 . S
O321 Fe320 1.886 . S
O321 Fe323 1.715 . S
Fe322 O324 1.886 . S
Fe322 O325 1.715 . S
Fe322 O332 1.935 . S
Fe322 O333 2.077 . S
Fe322 O339 1.935 . S
Fe322 O348 2.077 . S
Fe323 O321 1.715 . S
Fe323 O326 1.886 . S
Fe323 O330 1.935 . S
Fe323 O335 2.077 . S
Fe323 O341 1.935 . S
Fe323 O345 2.077 . S
O324 Fe320 1.715 . S
O324 Fe322 1.886 . S
O325 Fe322 1.715 . S
O325 Fe327 1.886 . S
O326 Fe323 1.886 . S
O326 Fe327 1.715 . S
Fe327 O325 1.886 . S
Fe327 O326 1.715 . S
Fe327 O331 2.077 . S
Fe327 O336 1.935 . S
Fe327 O338 2.077 . S
Fe327 O346 1.935 . S
C328 O340 1.381 . S
C328 O341 1.421 . S
O329 Fe320 2.077 . S
O329 C342 1.381 . S
O330 Fe323 1.935 . S
O330 C342 1.421 . S
O331 Fe327 2.077 . S
O331 C347 1.381 . S
O332 Fe322 1.935 . S
O332 C347 1.421 . S
O333 Fe322 2.077 . S
O333 C337 1.381 . S
O334 Fe320 1.935 . S
O334 C337 1.421 . S
O335 Fe323 2.077 . S
O335 C343 1.381 . S
O336 Fe327 1.935 . S
O336 C343 1.421 . S
C337 O333 1.381 . S
C337 O334 1.421 . S
O338 Fe327 2.077 . S
O338 C350 1.381 . S
O339 Fe322 1.935 . S
O339 C350 1.421 . S
O340 Fe320 2.077 . S
O340 C328 1.381 . S
O341 Fe323 1.935 . S
O341 C328 1.421 . S
C342 O329 1.381 . S
C342 O330 1.421 . S
C343 O335 1.381 . S
C343 O336 1.421 . S
C344 O345 1.381 . S
C344 O346 1.421 . S
O345 Fe323 2.077 . S
O345 C344 1.381 . S
O346 Fe327 1.935 . S
O346 C344 1.421 . S
C347 O331 1.381 . S
C347 O332 1.421 . S
O348 Fe322 2.077 . S
O348 C351 1.381 . S
O349 Fe320 1.935 . S
O349 C351 1.421 . S
C350 O338 1.381 . S
C350 O339 1.421 . S
C351 O348 1.381 . S
C351 O349 1.421 . S
Fe352 O353 1.886 . S
Fe352 O356 1.715 . S
Fe352 O361 2.077 . S
Fe352 O366 1.935 . S
Fe352 O372 2.077 . S
Fe352 O381 1.935 . S
O353 Fe352 1.886 . S
O353 Fe355 1.715 . S
Fe354 O356 1.886 . S
Fe354 O357 1.715 . S
Fe354 O364 1.935 . S
Fe354 O365 2.077 . S
Fe354 O371 1.935 . S
Fe354 O380 2.077 . S
Fe355 O353 1.715 . S
Fe355 O358 1.886 . S
Fe355 O362 1.935 . S
Fe355 O367 2.077 . S
Fe355 O373 1.935 . S
Fe355 O377 2.077 . S
O356 Fe352 1.715 . S
O356 Fe354 1.886 . S
O357 Fe354 1.715 . S
O357 Fe359 1.886 . S
O358 Fe355 1.886 . S
O358 Fe359 1.715 . S
Fe359 O357 1.886 . S
Fe359 O358 1.715 . S
Fe359 O363 2.077 . S
Fe359 O368 1.935 . S
Fe359 O370 2.077 . S
Fe359 O378 1.935 . S
C360 O372 1.381 . S
C360 O373 1.421 . S
O361 Fe352 2.077 . S
O361 C374 1.381 . S
O362 Fe355 1.935 . S
O362 C374 1.421 . S
O363 Fe359 2.077 . S
O363 C379 1.381 . S
O364 Fe354 1.935 . S
O364 C379 1.421 . S
O365 Fe354 2.077 . S
O365 C369 1.381 . S
O366 Fe352 1.935 . S
O366 C369 1.421 . S
O367 Fe355 2.077 . S
O367 C375 1.381 . S
O368 Fe359 1.935 . S
O368 C375 1.421 . S
C369 O365 1.381 . S
C369 O366 1.421 . S
O370 Fe359 2.077 . S
O370 C382 1.381 . S
O371 Fe354 1.935 . S
O371 C382 1.421 . S
O372 Fe352 2.077 . S
O372 C360 1.381 . S
O373 Fe355 1.935 . S
O373 C360 1.421 . S
C374 O361 1.381 . S
C374 O362 1.421 . S
C375 O367 1.381 . S
C375 O368 1.421 . S
C376 O377 1.381 . S
C376 O378 1.421 . S
O377 Fe355 2.077 . S
O377 C376 1.381 . S
O378 Fe359 1.935 . S
O378 C376 1.421 . S
C379 O363 1.381 . S
C379 O364 1.421 . S
O380 Fe354 2.077 . S
O380 C383 1.381 . S
O381 Fe352 1.935 . S
O381 C383 1.421 . S
C382 O370 1.381 . S
C382 O371 1.421 . S
C383 O380 1.381 . S
C383 O381 1.421 . S
Fe384 O385 1.886 . S
Fe384 O388 1.715 . S
Fe384 O393 2.077 . S
Fe384 O398 1.935 . S
Fe384 O404 2.077 . S
Fe384 O413 1.935 . S
O385 Fe384 1.886 . S
O385 Fe387 1.715 . S
Fe386 O388 1.886 . S
Fe386 O389 1.715 . S
Fe386 O396 1.935 . S
Fe386 O397 2.077 . S
Fe386 O403 1.935 . S
Fe386 O412 2.077 . S
Fe387 O385 1.715 . S
Fe387 O390 1.886 . S
Fe387 O394 1.935 . S
Fe387 O399 2.077 . S
Fe387 O405 1.935 . S
Fe387 O409 2.077 . S
O388 Fe384 1.715 . S
O388 Fe386 1.886 . S
O389 Fe386 1.715 . S
O389 Fe391 1.886 . S
O390 Fe387 1.886 . S
O390 Fe391 1.715 . S
Fe391 O389 1.886 . S
Fe391 O390 1.715 . S
Fe391 O395 2.077 . S
Fe391 O400 1.935 . S
Fe391 O402 2.077 . S
Fe391 O410 1.935 . S
C392 O404 1.381 . S
C392 O405 1.421 . S
O393 Fe384 2.077 . S
O393 C406 1.381 . S
O394 Fe387 1.935 . S
O394 C406 1.421 . S
O395 Fe391 2.077 . S
O395 C411 1.381 . S
O396 Fe386 1.935 . S
O396 C411 1.421 . S
O397 Fe386 2.077 . S
O397 C401 1.381 . S
O398 Fe384 1.935 . S
O398 C401 1.421 . S
O399 Fe387 2.077 . S
O399 C407 1.381 . S
O400 Fe391 1.935 . S
O400 C407 1.421 . S
C401 O397 1.381 . S
C401 O398 1.421 . S
O402 Fe391 2.077 . S
O402 C414 1.381 . S
O403 Fe386 1.935 . S
O403 C414 1.421 . S
O404 Fe384 2.077 . S
O404 C392 1.381 . S
O405 Fe387 1.935 . S
O405 C392 1.421 . S
C406 O393 1.381 . S
C406 O394 1.421 . S
C407 O399 1.381 . S
C407 O400 1.421 . S
C408 O409 1.381 . S
C408 O410 1.421 . S
O409 Fe387 2.077 . S
O409 C408 1.381 . S
O410 Fe391 1.935 . S
O410 C408 1.421 . S
C411 O395 1.381 . S
C411 O396 1.421 . S
O412 Fe386 2.077 . S
O412 C415 1.381 . S
O413 Fe384 1.935 . S
O413 C415 1.421 . S
C414 O402 1.381 . S
C414 O403 1.421 . S
C415 O412 1.381 . S
C415 O413 1.421 . S
Fe416 O417 1.886 . S
Fe416 O420 1.715 . S
Fe416 O425 2.077 . S
Fe416 O430 1.935 . S
Fe416 O436 2.077 . S
Fe416 O445 1.935 . S
O417 Fe416 1.886 . S
O417 Fe419 1.715 . S
Fe418 O420 1.886 . S
Fe418 O421 1.715 . S
Fe418 O428 1.935 . S
Fe418 O429 2.077 . S
Fe418 O435 1.935 . S
Fe418 O444 2.077 . S
Fe419 O417 1.715 . S
Fe419 O422 1.886 . S
Fe419 O426 1.935 . S
Fe419 O431 2.077 . S
Fe419 O437 1.935 . S
Fe419 O441 2.077 . S
O420 Fe416 1.715 . S
O420 Fe418 1.886 . S
O421 Fe418 1.715 . S
O421 Fe423 1.886 . S
O422 Fe419 1.886 . S
O422 Fe423 1.715 . S
Fe423 O421 1.886 . S
Fe423 O422 1.715 . S
Fe423 O427 2.077 . S
Fe423 O432 1.935 . S
Fe423 O434 2.077 . S
Fe423 O442 1.935 . S
C424 O436 1.381 . S
C424 O437 1.421 . S
O425 Fe416 2.077 . S
O425 C438 1.381 . S
O426 Fe419 1.935 . S
O426 C438 1.421 . S
O427 Fe423 2.077 . S
O427 C443 1.381 . S
O428 Fe418 1.935 . S
O428 C443 1.421 . S
O429 Fe418 2.077 . S
O429 C433 1.381 . S
O430 Fe416 1.935 . S
O430 C433 1.421 . S
O431 Fe419 2.077 . S
O431 C439 1.381 . S
O432 Fe423 1.935 . S
O432 C439 1.421 . S
C433 O429 1.381 . S
C433 O430 1.421 . S
O434 Fe423 2.077 . S
O434 C446 1.381 . S
O435 Fe418 1.935 . S
O435 C446 1.421 . S
O436 Fe416 2.077 . S
O436 C424 1.381 . S
O437 Fe419 1.935 . S
O437 C424 1.421 . S
C438 O425 1.381 . S
C438 O426 1.421 . S
C439 O431 1.381 . S
C439 O432 1.421 . S
C440 O441 1.381 . S
C440 O442 1.421 . S
O441 Fe419 2.077 . S
O441 C440 1.381 . S
O442 Fe423 1.935 . S
O442 C440 1.421 . S
C443 O427 1.381 . S
C443 O428 1.421 . S
O444 Fe418 2.077 . S
O444 C447 1.381 . S
O445 Fe416 1.935 . S
O445 C447 1.421 . S
C446 O434 1.381 . S
C446 O435 1.421 . S
C447 O444 1.381 . S
C447 O445 1.421 . S
Fe448 O449 1.886 . S
Fe448 O452 1.715 . S
Fe448 O457 2.077 . S
Fe448 O462 1.935 . S
Fe448 O468 2.077 . S
Fe448 O477 1.935 . S
O449 Fe448 1.886 . S
O449 Fe451 1.715 . S
Fe450 O452 1.886 . S
Fe450 O453 1.715 . S
Fe450 O460 1.935 . S
Fe450 O461 2.077 . S
Fe450 O467 1.935 . S
Fe450 O476 2.077 . S
Fe451 O449 1.715 . S
Fe451 O454 1.886 . S
Fe451 O458 1.935 . S
Fe451 O463 2.077 . S
Fe451 O469 1.935 . S
Fe451 O473 2.077 . S
O452 Fe448 1.715 . S
O452 Fe450 1.886 . S
O453 Fe450 1.715 . S
O453 Fe455 1.886 . S
O454 Fe451 1.886 . S
O454 Fe455 1.715 . S
Fe455 O453 1.886 . S
Fe455 O454 1.715 . S
Fe455 O459 2.077 . S
Fe455 O464 1.935 . S
Fe455 O466 2.077 . S
Fe455 O474 1.935 . S
C456 O468 1.381 . S
C456 O469 1.421 . S
O457 Fe448 2.077 . S
O457 C470 1.381 . S
O458 Fe451 1.935 . S
O458 C470 1.421 . S
O459 Fe455 2.077 . S
O459 C475 1.381 . S
O460 Fe450 1.935 . S
O460 C475 1.421 . S
O461 Fe450 2.077 . S
O461 C465 1.381 . S
O462 Fe448 1.935 . S
O462 C465 1.421 . S
O463 Fe451 2.077 . S
O463 C471 1.381 . S
O464 Fe455 1.935 . S
O464 C471 1.421 . S
C465 O461 1.381 . S
C465 O462 1.421 . S
O466 Fe455 2.077 . S
O466 C478 1.381 . S
O467 Fe450 1.935 . S
O467 C478 1.421 . S
O468 Fe448 2.077 . S
O468 C456 1.381 . S
O469 Fe451 1.935 . S
O469 C456 1.421 . S
C470 O457 1.381 . S
C470 O458 1.421 . S
C471 O463 1.381 . S
C471 O464 1.421 . S
C472 O473 1.381 . S
C472 O474 1.421 . S
O473 Fe451 2.077 . S
O473 C472 1.381 . S
O474 Fe455 1.935 . S
O474 C472 1.421 . S
C475 O459 1.381 . S
C475 O460 1.421 . S
O476 Fe450 2.077 . S
O476 C479 1.381 . S
O477 Fe448 1.935 . S
O477 C479 1.421 . S
C478 O466 1.381 . S
C478 O467 1.421 . S
C479 O476 1.381 . S
C479 O477 1.421 . S
Fe480 O481 1.886 . S
Fe480 O484 1.715 . S
Fe480 O489 2.077 . S
Fe480 O494 1.935 . S
Fe480 O500 2.077 . S
Fe480 O509 1.935 . S
O481 Fe480 1.886 . S
O481 Fe483 1.715 . S
Fe482 O484 1.886 . S
Fe482 O485 1.715 . S
Fe482 O492 1.935 . S
Fe482 O493 2.077 . S
Fe482 O499 1.935 . S
Fe482 O508 2.077 . S
Fe483 O481 1.715 . S
Fe483 O486 1.886 . S
Fe483 O490 1.935 . S
Fe483 O495 2.077 . S
Fe483 O501 1.935 . S
Fe483 O505 2.077 . S
O484 Fe480 1.715 . S
O484 Fe482 1.886 . S
O485 Fe482 1.715 . S
O485 Fe487 1.886 . S
O486 Fe483 1.886 . S
O486 Fe487 1.715 . S
Fe487 O485 1.886 . S
Fe487 O486 1.715 . S
Fe487 O491 2.077 . S
Fe487 O496 1.935 . S
Fe487 O498 2.077 . S
Fe487 O506 1.935 . S
C488 O500 1.381 . S
C488 O501 1.421 . S
O489 Fe480 2.077 . S
O489 C502 1.381 . S
O490 Fe483 1.935 . S
O490 C502 1.421 . S
O491 Fe487 2.077 . S
O491 C507 1.381 . S
O492 Fe482 1.935 . S
O492 C507 1.421 . S
O493 Fe482 2.077 . S
O493 C497 1.381 . S
O494 Fe480 1.935 . S
O494 C497 1.421 . S
O495 Fe483 2.077 . S
O495 C503 1.381 . S
O496 Fe487 1.935 . S
O496 C503 1.421 . S
C497 O493 1.381 . S
C497 O494 1.421 . S
O498 Fe487 2.077 . S
O498 C510 1.381 . S
O499 Fe482 1.935 . S
O499 C510 1.421 . S
O500 Fe480 2.077 . S
O500 C488 1.381 . S
O501 Fe483 1.935 . S
O501 C488 1.421 . S
C502 O489 1.381 . S
C502 O490 1.421 . S
C503 O495 1.381 . S
C503 O496 1.421 . S
C504 O505 1.381 . S
C504 O506 1.421 . S
O505 Fe483 2.077 . S
O505 C504 1.381 . S
O506 Fe487 1.935 . S
O506 C504 1.421 . S
C507 O491 1.381 . S
C507 O492 1.421 . S
O508 Fe482 2.077 . S
O508 C511 1.381 . S
O509 Fe480 1.935 . S
O509 C511 1.421 . S
C510 O498 1.381 . S
C510 O499 1.421 . S
C511 O508 1.381 . S
C511 O509 1.421 . S
Fe512 O513 1.886 . S
Fe512 O516 1.715 . S
Fe512 O521 2.077 . S
Fe512 O526 1.935 . S
Fe512 O532 2.077 . S
Fe512 O541 1.935 . S
O513 Fe512 1.886 . S
O513 Fe515 1.715 . S
Fe514 O516 1.886 . S
Fe514 O517 1.715 . S
Fe514 O524 1.935 . S
Fe514 O525 2.077 . S
Fe514 O531 1.935 . S
Fe514 O540 2.077 . S
Fe515 O513 1.715 . S
Fe515 O518 1.886 . S
Fe515 O522 1.935 . S
Fe515 O527 2.077 . S
Fe515 O533 1.935 . S
Fe515 O537 2.077 . S
O516 Fe512 1.715 . S
O516 Fe514 1.886 . S
O517 Fe514 1.715 . S
O517 Fe519 1.886 . S
O518 Fe515 1.886 . S
O518 Fe519 1.715 . S
Fe519 O517 1.886 . S
Fe519 O518 1.715 . S
Fe519 O523 2.077 . S
Fe519 O528 1.935 . S
Fe519 O530 2.077 . S
Fe519 O538 1.935 . S
C520 O532 1.381 . S
C520 O533 1.421 . S
O521 Fe512 2.077 . S
O521 C534 1.381 . S
O522 Fe515 1.935 . S
O522 C534 1.421 . S
O523 Fe519 2.077 . S
O523 C539 1.381 . S
O524 Fe514 1.935 . S
O524 C539 1.421 . S
O525 Fe514 2.077 . S
O525 C529 1.381 . S
O526 Fe512 1.935 . S
O526 C529 1.421 . S
O527 Fe515 2.077 . S
O527 C535 1.381 . S
O528 Fe519 1.935 . S
O528 C535 1.421 . S
C529 O525 1.381 . S
C529 O526 1.421 . S
O530 Fe519 2.077 . S
O530 C542 1.381 . S
O531 Fe514 1.935 . S
O531 C542 1.421 . S
O532 Fe512 2.077 . S
O532 C520 1.381 . S
O533 Fe515 1.935 . S
O533 C520 1.421 . S
C534 O521 1.381 . S
C534 O522 1.421 . S
C535 O527 1.381 . S
C535 O528 1.421 . S
C536 O537 1.381 . S
C536 O538 1.421 . S
O537 Fe515 2.077 . S
O537 C536 1.381 . S
O538 Fe519 1.935 . S
O538 C536 1.421 . S
C539 O523 1.381 . S
C539 O524 1.421 . S
O540 Fe514 2.077 . S
O540 C543 1.381 . S
O541 Fe512 1.935 . S
O541 C543 1.421 . S
C542 O530 1.381 . S
C542 O531 1.421 . S
C543 O540 1.381 . S
C543 O541 1.421 . S
Fe544 O545 1.886 . S
Fe544 O548 1.715 . S
Fe544 O553 2.077 . S
Fe544 O558 1.935 . S
Fe544 O564 2.077 . S
Fe544 O573 1.935 . S
O545 Fe544 1.886 . S
O545 Fe547 1.715 . S
Fe546 O548 1.886 . S
Fe546 O549 1.715 . S
Fe546 O556 1.935 . S
Fe546 O557 2.077 . S
Fe546 O563 1.935 . S
Fe546 O572 2.077 . S
Fe547 O545 1.715 . S
Fe547 O550 1.886 . S
Fe547 O554 1.935 . S
Fe547 O559 2.077 . S
Fe547 O565 1.935 . S
Fe547 O569 2.077 . S
O548 Fe544 1.715 . S
O548 Fe546 1.886 . S
O549 Fe546 1.715 . S
O549 Fe551 1.886 . S
O550 Fe547 1.886 . S
O550 Fe551 1.715 . S
Fe551 O549 1.886 . S
Fe551 O550 1.715 . S
Fe551 O555 2.077 . S
Fe551 O560 1.935 . S
Fe551 O562 2.077 . S
Fe551 O570 1.935 . S
C552 O564 1.381 . S
C552 O565 1.421 . S
O553 Fe544 2.077 . S
O553 C566 1.381 . S
O554 Fe547 1.935 . S
O554 C566 1.421 . S
O555 Fe551 2.077 . S
O555 C571 1.381 . S
O556 Fe546 1.935 . S
O556 C571 1.421 . S
O557 Fe546 2.077 . S
O557 C561 1.381 . S
O558 Fe544 1.935 . S
O558 C561 1.421 . S
O559 Fe547 2.077 . S
O559 C567 1.381 . S
O560 Fe551 1.935 . S
O560 C567 1.421 . S
C561 O557 1.381 . S
C561 O558 1.421 . S
O562 Fe551 2.077 . S
O562 C574 1.381 . S
O563 Fe546 1.935 . S
O563 C574 1.421 . S
O564 Fe544 2.077 . S
O564 C552 1.381 . S
O565 Fe547 1.935 . S
O565 C552 1.421 . S
C566 O553 1.381 . S
C566 O554 1.421 . S
C567 O559 1.381 . S
C567 O560 1.421 . S
C568 O569 1.381 . S
C568 O570 1.421 . S
O569 Fe547 2.077 . S
O569 C568 1.381 . S
O570 Fe551 1.935 . S
O570 C568 1.421 . S
C571 O555 1.381 . S
C571 O556 1.421 . S
O572 Fe546 2.077 . S
O572 C575 1.381 . S
O573 Fe544 1.935 . S
O573 C575 1.421 . S
C574 O562 1.381 . S
C574 O563 1.421 . S
C575 O572 1.381 . S
C575 O573 1.421 . S
Fe576 O577 1.886 . S
Fe576 O580 1.715 . S
Fe576 O585 2.077 . S
Fe576 O590 1.935 . S
Fe576 O596 2.077 . S
Fe576 O605 1.935 . S
O577 Fe576 1.886 . S
O577 Fe579 1.715 . S
Fe578 O580 1.886 . S
Fe578 O581 1.715 . S
Fe578 O588 1.935 . S
Fe578 O589 2.077 . S
Fe578 O595 1.935 . S
Fe578 O604 2.077 . S
Fe579 O577 1.715 . S
Fe579 O582 1.886 . S
Fe579 O586 1.935 . S
Fe579 O591 2.077 . S
Fe579 O597 1.935 . S
Fe579 O601 2.077 . S
O580 Fe576 1.715 . S
O580 Fe578 1.886 . S
O581 Fe578 1.715 . S
O581 Fe583 1.886 . S
O582 Fe579 1.886 . S
O582 Fe583 1.715 . S
Fe583 O581 1.886 . S
Fe583 O582 1.715 . S
Fe583 O587 2.077 . S
Fe583 O592 1.935 . S
Fe583 O594 2.077 . S
Fe583 O602 1.935 . S
C584 O596 1.381 . S
C584 O597 1.421 . S
O585 Fe576 2.077 . S
O585 C598 1.381 . S
O586 Fe579 1.935 . S
O586 C598 1.421 . S
O587 Fe583 2.077 . S
O587 C603 1.381 . S
O588 Fe578 1.935 . S
O588 C603 1.421 . S
O589 Fe578 2.077 . S
O589 C593 1.381 . S
O590 Fe576 1.935 . S
O590 C593 1.421 . S
O591 Fe579 2.077 . S
O591 C599 1.381 . S
O592 Fe583 1.935 . S
O592 C599 1.421 . S
C593 O589 1.381 . S
C593 O590 1.421 . S
O594 Fe583 2.077 . S
O594 C606 1.381 . S
O595 Fe578 1.935 . S
O595 C606 1.421 . S
O596 Fe576 2.077 . S
O596 C584 1.381 . S
O597 Fe579 1.935 . S
O597 C584 1.421 . S
C598 O585 1.381 . S
C598 O586 1.421 . S
C599 O591 1.381 . S
C599 O592 1.421 . S
C600 O601 1.381 . S
C600 O602 1.421 . S
O601 Fe579 2.077 . S
O601 C600 1.381 . S
O602 Fe583 1.935 . S
O602 C600 1.421 . S
C603 O587 1.381 . S
C603 O588 1.421 . S
O604 Fe578 2.077 . S
O604 C607 1.381 . S
O605 Fe576 1.935 . S
O605 C607 1.421 . S
C606 O594 1.381 . S
C606 O595 1.421 . S
C607 O604 1.381 . S
C607 O605 1.421 . S
Fe608 O609 1.886 . S
Fe608 O612 1.715 . S
Fe608 O617 2.077 . S
Fe608 O622 1.935 . S
Fe608 O628 2.077 . S
Fe608 O637 1.935 . S
O609 Fe608 1.886 . S
O609 Fe611 1.715 . S
Fe610 O612 1.886 . S
Fe610 O613 1.715 . S
Fe610 O620 1.935 . S
Fe610 O621 2.077 . S
Fe610 O627 1.935 . S
Fe610 O636 2.077 . S
Fe611 O609 1.715 . S
Fe611 O614 1.886 . S
Fe611 O618 1.935 . S
Fe611 O623 2.077 . S
Fe611 O629 1.935 . S
Fe611 O633 2.077 . S
O612 Fe608 1.715 . S
O612 Fe610 1.886 . S
O613 Fe610 1.715 . S
O613 Fe615 1.886 . S
O614 Fe611 1.886 . S
O614 Fe615 1.715 . S
Fe615 O613 1.886 . S
Fe615 O614 1.715 . S
Fe615 O619 2.077 . S
Fe615 O624 1.935 . S
Fe615 O626 2.077 . S
Fe615 O634 1.935 . S
C616 O628 1.381 . S
C616 O629 1.421 . S
O617 Fe608 2.077 . S
O617 C630 1.381 . S
O618 Fe611 1.935 . S
O618 C630 1.421 . S
O619 Fe615 2.077 . S
O619 C635 1.381 . S
O620 Fe610 1.935 . S
O620 C635 1.421 . S
O621 Fe610 2.077 . S
O621 C625 1.381 . S
O622 Fe608 1.935 . S
O622 C625 1.421 . S
O623 Fe611 2.077 . S
O623 C631 1.381 . S
O624 Fe615 1.935 . S
O624 C631 1.421 . S
C625 O621 1.381 . S
C625 O622 1.421 . S
O626 Fe615 2.077 . S
O626 C638 1.381 . S
O627 Fe610 1.935 . S
O627 C638 1.421 . S
O628 Fe608 2.077 . S
O628 C616 1.381 . S
O629 Fe611 1.935 . S
O629 C616 1.421 . S
C630 O617 1.381 . S
C630 O618 1.421 . S
C631 O623 1.381 . S
C631 O624 1.421 . S
C632 O633 1.381 . S
C632 O634 1.421 . S
O633 Fe611 2.077 . S
O633 C632 1.381 . S
O634 Fe615 1.935 . S
O634 C632 1.421 . S
C635 O619 1.381 . S
C635 O620 1.421 . S
O636 Fe610 2.077 . S
O636 C639 1.381 . S
O637 Fe608 1.935 . S
O637 C639 1.421 . S
C638 O626 1.381 . S
C638 O627 1.421 . S
C639 O636 1.381 . S
C639 O637 1.421 . S
Fe640 O641 1.886 . S
Fe640 O644 1.715 . S
Fe640 O649 2.077 . S
Fe640 O654 1.935 . S
Fe640 O660 2.077 . S
Fe640 O669 1.935 . S
O641 Fe640 1.886 . S
O641 Fe643 1.715 . S
Fe642 O644 1.886 . S
Fe642 O645 1.715 . S
Fe642 O652 1.935 . S
Fe642 O653 2.077 . S
Fe642 O659 1.935 . S
Fe642 O668 2.077 . S
Fe643 O641 1.715 . S
Fe643 O646 1.886 . S
Fe643 O650 1.935 . S
Fe643 O655 2.077 . S
Fe643 O661 1.935 . S
Fe643 O665 2.077 . S
O644 Fe640 1.715 . S
O644 Fe642 1.886 . S
O645 Fe642 1.715 . S
O645 Fe647 1.886 . S
O646 Fe643 1.886 . S
O646 Fe647 1.715 . S
Fe647 O645 1.886 . S
Fe647 O646 1.715 . S
Fe647 O651 2.077 . S
Fe647 O656 1.935 . S
Fe647 O658 2.077 . S
Fe647 O666 1.935 . S
C648 O660 1.381 . S
C648 O661 1.421 . S
O649 Fe640 2.077 . S
O649 C662 1.381 . S
O650 Fe643 1.935 . S
O650 C662 1.421 . S
O651 Fe647 2.077 . S
O651 C667 1.381 . S
O652 Fe642 1.935 . S
O652 C667 1.421 . S
O653 Fe642 2.077 . S
O653 C657 1.381 . S
O654 Fe640 1.935 . S
O654 C657 1.421 . S
O655 Fe643 2.077 . S
O655 C663 1.381 . S
O656 Fe647 1.935 . S
O656 C663 1.421 . S
C657 O653 1.381 . S
C657 O654 1.421 . S
O658 Fe647 2.077 . S
O658 C670 1.381 . S
O659 Fe642 1.935 . S
O659 C670 1.421 . S
O660 Fe640 2.077 . S
O660 C648 1.381 . S
O661 Fe643 1.935 . S
O661 C648 1.421 . S
C662 O649 1.381 . S
C662 O650 1.421 . S
C663 O655 1.381 . S
C663 O656 1.421 . S
C664 O665 1.381 . S
C664 O666 1.421 . S
O665 Fe643 2.077 . S
O665 C664 1.381 . S
O666 Fe647 1.935 . S
O666 C664 1.421 . S
C667 O651 1.381 . S
C667 O652 1.421 . S
O668 Fe642 2.077 . S
O668 C671 1.381 . S
O669 Fe640 1.935 . S
O669 C671 1.421 . S
C670 O658 1.381 . S
C670 O659 1.421 . S
C671 O668 1.381 . S
C671 O669 1.421 . S
Fe672 O673 1.886 . S
Fe672 O676 1.715 . S
Fe672 O681 2.077 . S
Fe672 O686 1.935 . S
Fe672 O692 2.077 . S
Fe672 O701 1.935 . S
O673 Fe672 1.886 . S
O673 Fe675 1.715 . S
Fe674 O676 1.886 . S
Fe674 O677 1.715 . S
Fe674 O684 1.935 . S
Fe674 O685 2.077 . S
Fe674 O691 1.935 . S
Fe674 O700 2.077 . S
Fe675 O673 1.715 . S
Fe675 O678 1.886 . S
Fe675 O682 1.935 . S
Fe675 O687 2.077 . S
Fe675 O693 1.935 . S
Fe675 O697 2.077 . S
O676 Fe672 1.715 . S
O676 Fe674 1.886 . S
O677 Fe674 1.715 . S
O677 Fe679 1.886 . S
O678 Fe675 1.886 . S
O678 Fe679 1.715 . S
Fe679 O677 1.886 . S
Fe679 O678 1.715 . S
Fe679 O683 2.077 . S
Fe679 O688 1.935 . S
Fe679 O690 2.077 . S
Fe679 O698 1.935 . S
C680 O692 1.381 . S
C680 O693 1.421 . S
O681 Fe672 2.077 . S
O681 C694 1.381 . S
O682 Fe675 1.935 . S
O682 C694 1.421 . S
O683 Fe679 2.077 . S
O683 C699 1.381 . S
O684 Fe674 1.935 . S
O684 C699 1.421 . S
O685 Fe674 2.077 . S
O685 C689 1.381 . S
O686 Fe672 1.935 . S
O686 C689 1.421 . S
O687 Fe675 2.077 . S
O687 C695 1.381 . S
O688 Fe679 1.935 . S
O688 C695 1.421 . S
C689 O685 1.381 . S
C689 O686 1.421 . S
O690 Fe679 2.077 . S
O690 C702 1.381 . S
O691 Fe674 1.935 . S
O691 C702 1.421 . S
O692 Fe672 2.077 . S
O692 C680 1.381 . S
O693 Fe675 1.935 . S
O693 C680 1.421 . S
C694 O681 1.381 . S
C694 O682 1.421 . S
C695 O687 1.381 . S
C695 O688 1.421 . S
C696 O697 1.381 . S
C696 O698 1.421 . S
O697 Fe675 2.077 . S
O697 C696 1.381 . S
O698 Fe679 1.935 . S
O698 C696 1.421 . S
C699 O683 1.381 . S
C699 O684 1.421 . S
O700 Fe674 2.077 . S
O700 C703 1.381 . S
O701 Fe672 1.935 . S
O701 C703 1.421 . S
C702 O690 1.381 . S
C702 O691 1.421 . S
C703 O700 1.381 . S
C703 O701 1.421 . S
Fe704 O705 1.886 . S
Fe704 O708 1.715 . S
Fe704 O713 2.077 . S
Fe704 O718 1.935 . S
Fe704 O724 2.077 . S
Fe704 O733 1.935 . S
O705 Fe704 1.886 . S
O705 Fe707 1.715 . S
Fe706 O708 1.886 . S
Fe706 O709 1.715 . S
Fe706 O716 1.935 . S
Fe706 O717 2.077 . S
Fe706 O723 1.935 . S
Fe706 O732 2.077 . S
Fe707 O705 1.715 . S
Fe707 O710 1.886 . S
Fe707 O714 1.935 . S
Fe707 O719 2.077 . S
Fe707 O725 1.935 . S
Fe707 O729 2.077 . S
O708 Fe704 1.715 . S
O708 Fe706 1.886 . S
O709 Fe706 1.715 . S
O709 Fe711 1.886 . S
O710 Fe707 1.886 . S
O710 Fe711 1.715 . S
Fe711 O709 1.886 . S
Fe711 O710 1.715 . S
Fe711 O715 2.077 . S
Fe711 O720 1.935 . S
Fe711 O722 2.077 . S
Fe711 O730 1.935 . S
C712 O724 1.381 . S
C712 O725 1.421 . S
O713 Fe704 2.077 . S
O713 C726 1.381 . S
O714 Fe707 1.935 . S
O714 C726 1.421 . S
O715 Fe711 2.077 . S
O715 C731 1.381 . S
O716 Fe706 1.935 . S
O716 C731 1.421 . S
O717 Fe706 2.077 . S
O717 C721 1.381 . S
O718 Fe704 1.935 . S
O718 C721 1.421 . S
O719 Fe707 2.077 . S
O719 C727 1.381 . S
O720 Fe711 1.935 . S
O720 C727 1.421 . S
C721 O717 1.381 . S
C721 O718 1.421 . S
O722 Fe711 2.077 . S
O722 C734 1.381 . S
O723 Fe706 1.935 . S
O723 C734 1.421 . S
O724 Fe704 2.077 . S
O724 C712 1.381 . S
O725 Fe707 1.935 . S
O725 C712 1.421 . S
C726 O713 1.381 . S
C726 O714 1.421 . S
C727 O719 1.381 . S
C727 O720 1.421 . S
C728 O729 1.381 . S
C728 O730 1.421 . S
O729 Fe707 2.077 . S
O729 C728 1.381 . S
O730 Fe711 1.935 . S
O730 C728 1.421 . S
C731 O715 1.381 . S
C731 O716 1.421 . S
O732 Fe706 2.077 . S
O732 C735 1.381 . S
O733 Fe704 1.935 . S
O733 C735 1.421 . S
C734 O722 1.381 . S
C734 O723 1.421 . S
C735 O732 1.381 . S
C735 O733 1.421 . S
Fe736 O737 1.886 . S
Fe736 O740 1.715 . S
Fe736 O745 2.077 . S
Fe736 O750 1.935 . S
Fe736 O756 2.077 . S
Fe736 O765 1.935 . S
O737 Fe736 1.886 . S
O737 Fe739 1.715 . S
Fe738 O740 1.886 . S
Fe738 O741 1.715 . S
Fe738 O748 1.935 . S
Fe738 O749 2.077 . S
Fe738 O755 1.935 . S
Fe738 O764 2.077 . S
Fe739 O737 1.715 . S
Fe739 O742 1.886 . S
Fe739 O746 1.935 . S
Fe739 O751 2.077 . S
Fe739 O757 1.935 . S
Fe739 O761 2.077 . S
O740 Fe736 1.715 . S
O740 Fe738 1.886 . S
O741 Fe738 1.715 . S
O741 Fe743 1.886 . S
O742 Fe739 1.886 . S
O742 Fe743 1.715 . S
Fe743 O741 1.886 . S
Fe743 O742 1.715 . S
Fe743 O747 2.077 . S
Fe743 O752 1.935 . S
Fe743 O754 2.077 . S
Fe743 O762 1.935 . S
C744 O756 1.381 . S
C744 O757 1.421 . S
O745 Fe736 2.077 . S
O745 C758 1.381 . S
O746 Fe739 1.935 . S
O746 C758 1.421 . S
O747 Fe743 2.077 . S
O747 C763 1.381 . S
O748 Fe738 1.935 . S
O748 C763 1.421 . S
O749 Fe738 2.077 . S
O749 C753 1.381 . S
O750 Fe736 1.935 . S
O750 C753 1.421 . S
O751 Fe739 2.077 . S
O751 C759 1.381 . S
O752 Fe743 1.935 . S
O752 C759 1.421 . S
C753 O749 1.381 . S
C753 O750 1.421 . S
O754 Fe743 2.077 . S
O754 C766 1.381 . S
O755 Fe738 1.935 . S
O755 C766 1.421 . S
O756 Fe736 2.077 . S
O756 C744 1.381 . S
O757 Fe739 1.935 . S
O757 C744 1.421 . S
C758 O745 1.381 . S
C758 O746 1.421 . S
C759 O751 1.381 . S
C759 O752 1.421 . S
C760 O761 1.381 . S
C760 O762 1.421 . S
O761 Fe739 2.077 . S
O761 C760 1.381 . S
O762 Fe743 1.935 . S
O762 C760 1.421 . S
C763 O747 1.381 . S
C763 O748 1.421 . S
O764 Fe738 2.077 . S
O764 C767 1.381 . S
O765 Fe736 1.935 . S
O765 C767 1.421 . S
C766 O754 1.381 . S
C766 O755 1.421 . S
C767 O764 1.381 . S
C767 O765 1.421 . S
C768 C769 1.349 . S
C768 C770 1.327 . S
C768 H793 0.950 . S
C769 C768 1.349 . S
C769 C785 1.349 . S
C770 C768 1.327 . S
C770 C789 1.429 . S
C770 H794 0.950 . S
C771 C788 1.574 . S
C771 C790 1.368 . S
C771 H795 0.949 . S
H772 C776 0.949 . S
C773 C774 1.349 . S
C773 C775 1.327 . S
C773 H796 0.950 . S
C774 C773 1.349 . S
C774 C786 1.349 . S
C775 C773 1.327 . S
C775 C791 1.429 . S
C775 H797 0.950 . S
C776 H772 0.949 . S
C776 C784 1.574 . S
C776 C792 1.368 . S
H777 C785 0.950 . S
H778 C783 0.950 . S
H779 C784 0.949 . S
H780 C786 0.950 . S
H781 C787 0.950 . S
H782 C788 0.949 . S
C783 H778 0.950 . S
C783 C785 1.327 . S
C783 C789 1.429 . S
C784 C776 1.574 . S
C784 H779 0.949 . S
C784 C790 1.368 . S
C785 C769 1.349 . S
C785 H777 0.950 . S
C785 C783 1.327 . S
C786 C774 1.349 . S
C786 H780 0.950 . S
C786 C787 1.327 . S
C787 H781 0.950 . S
C787 C786 1.327 . S
C787 C791 1.429 . S
C788 C771 1.574 . S
C788 H782 0.949 . S
C788 C792 1.368 . S
C789 C770 1.429 . S
C789 C783 1.429 . S
C789 C790 1.523 . S
C790 C771 1.368 . S
C790 C784 1.368 . S
C790 C789 1.523 . S
C791 C775 1.429 . S
C791 C787 1.429 . S
C791 C792 1.523 . S
C792 C776 1.368 . S
C792 C788 1.368 . S
C792 C791 1.523 . S
H793 C768 0.950 . S
H794 C770 0.950 . S
H795 C771 0.949 . S
H796 C773 0.950 . S
H797 C775 0.950 . S
C798 C799 1.349 . S
C798 C800 1.327 . S
C798 H823 0.950 . S
C799 C798 1.349 . S
C799 C815 1.349 . S
C800 C798 1.327 . S
C800 C819 1.429 . S
C800 H824 0.950 . S
C801 C818 1.574 . S
C801 C820 1.368 . S
C801 H825 0.949 . S
H802 C806 0.949 . S
C803 C804 1.349 . S
C803 C805 1.327 . S
C803 H826 0.950 . S
C804 C803 1.349 . S
C804 C816 1.349 . S
C805 C803 1.327 . S
C805 C821 1.429 . S
C805 H827 0.950 . S
C806 H802 0.949 . S
C806 C814 1.574 . S
C806 C822 1.368 . S
H807 C815 0.950 . S
H808 C813 0.950 . S
H809 C814 0.949 . S
H810 C816 0.950 . S
H811 C817 0.950 . S
H812 C818 0.949 . S
C813 H808 0.950 . S
C813 C815 1.327 . S
C813 C819 1.429 . S
C814 C806 1.574 . S
C814 H809 0.949 . S
C814 C820 1.368 . S
C815 C799 1.349 . S
C815 H807 0.950 . S
C815 C813 1.327 . S
C816 C804 1.349 . S
C816 H810 0.950 . S
C816 C817 1.327 . S
C817 H811 0.950 . S
C817 C816 1.327 . S
C817 C821 1.429 . S
C818 C801 1.574 . S
C818 H812 0.949 . S
C818 C822 1.368 . S
C819 C800 1.429 . S
C819 C813 1.429 . S
C819 C820 1.523 . S
C820 C801 1.368 . S
C820 C814 1.368 . S
C820 C819 1.523 . S
C821 C805 1.429 . S
C821 C817 1.429 . S
C821 C822 1.523 . S
C822 C806 1.368 . S
C822 C818 1.368 . S
C822 C821 1.523 . S
H823 C798 0.950 . S
H824 C800 0.950 . S
H825 C801 0.949 . S
H826 C803 0.950 . S
H827 C805 0.950 . S
C828 C829 1.349 . S
C828 C830 1.327 . S
C828 H853 0.950 . S
C829 C828 1.349 . S
C829 C845 1.349 . S
C830 C828 1.327 . S
C830 C849 1.429 . S
C830 H854 0.950 . S
C831 C848 1.574 . S
C831 C850 1.368 . S
C831 H855 0.949 . S
H832 C836 0.949 . S
C833 C834 1.349 . S
C833 C835 1.327 . S
C833 H856 0.950 . S
C834 C833 1.349 . S
C834 C846 1.349 . S
C835 C833 1.327 . S
C835 C851 1.429 . S
C835 H857 0.950 . S
C836 H832 0.949 . S
C836 C844 1.574 . S
C836 C852 1.368 . S
H837 C845 0.950 . S
H838 C843 0.950 . S
H839 C844 0.949 . S
H840 C846 0.950 . S
H841 C847 0.950 . S
H842 C848 0.949 . S
C843 H838 0.950 . S
C843 C845 1.327 . S
C843 C849 1.429 . S
C844 C836 1.574 . S
C844 H839 0.949 . S
C844 C850 1.368 . S
C845 C829 1.349 . S
C845 H837 0.950 . S
C845 C843 1.327 . S
C846 C834 1.349 . S
C846 H840 0.950 . S
C846 C847 1.327 . S
C847 H841 0.950 . S
C847 C846 1.327 . S
C847 C851 1.429 . S
C848 C831 1.574 . S
C848 H842 0.949 . S
C848 C852 1.368 . S
C849 C830 1.429 . S
C849 C843 1.429 . S
C849 C850 1.523 1_565 S
C850 C831 1.368 . S
C850 C844 1.368 . S
C850 C849 1.523 1_545 S
C851 C835 1.429 . S
C851 C847 1.429 . S
C851 C852 1.523 . S
C852 C836 1.368 . S
C852 C848 1.368 . S
C852 C851 1.523 . S
H853 C828 0.950 . S
H854 C830 0.950 . S
H855 C831 0.949 . S
H856 C833 0.950 . S
H857 C835 0.950 . S
C858 C859 1.349 . S
C858 C860 1.327 . S
C858 H883 0.950 . S
C859 C858 1.349 . S
C859 C875 1.349 . S
C860 C858 1.327 . S
C860 C879 1.429 . S
C860 H884 0.950 . S
C861 C878 1.574 . S
C861 C880 1.368 . S
C861 H885 0.949 . S
H862 C866 0.949 . S
C863 C864 1.349 . S
C863 C865 1.327 . S
C863 H886 0.950 . S
C864 C863 1.349 . S
C864 C876 1.349 . S
C865 C863 1.327 . S
C865 C881 1.429 . S
C865 H887 0.950 . S
C866 H862 0.949 . S
C866 C874 1.574 . S
C866 C882 1.368 . S
H867 C875 0.950 . S
H868 C873 0.950 . S
H869 C874 0.949 . S
H870 C876 0.950 . S
H871 C877 0.950 . S
H872 C878 0.949 . S
C873 H868 0.950 . S
C873 C875 1.327 . S
C873 C879 1.429 . S
C874 C866 1.574 . S
C874 H869 0.949 . S
C874 C880 1.368 . S
C875 C859 1.349 . S
C875 H867 0.950 . S
C875 C873 1.327 . S
C876 C864 1.349 . S
C876 H870 0.950 . S
C876 C877 1.327 . S
C877 H871 0.950 . S
C877 C876 1.327 . S
C877 C881 1.429 . S
C878 C861 1.574 . S
C878 H872 0.949 . S
C878 C882 1.368 . S
C879 C860 1.429 . S
C879 C873 1.429 . S
C879 C880 1.523 . S
C880 C861 1.368 . S
C880 C874 1.368 . S
C880 C879 1.523 . S
C881 C865 1.429 . S
C881 C877 1.429 . S
C881 C882 1.523 1_545 S
C882 C866 1.368 . S
C882 C878 1.368 . S
C882 C881 1.523 1_565 S
H883 C858 0.950 . S
H884 C860 0.950 . S
H885 C861 0.949 . S
H886 C863 0.950 . S
H887 C865 0.950 . S
C888 C889 1.349 . S
C888 C890 1.327 . S
C888 H913 0.950 . S
C889 C888 1.349 . S
C889 C905 1.349 . S
C890 C888 1.327 . S
C890 C909 1.429 . S
C890 H914 0.950 . S
C891 C908 1.574 . S
C891 C910 1.368 . S
C891 H915 0.949 . S
H892 C896 0.949 . S
C893 C894 1.349 . S
C893 C895 1.327 . S
C893 H916 0.950 . S
C894 C893 1.349 . S
C894 C906 1.349 . S
C895 C893 1.327 . S
C895 C911 1.429 . S
C895 H917 0.950 . S
C896 H892 0.949 . S
C896 C904 1.574 . S
C896 C912 1.368 . S
H897 C905 0.950 . S
H898 C903 0.950 . S
H899 C904 0.949 . S
H900 C906 0.950 . S
H901 C907 0.950 . S
H902 C908 0.949 . S
C903 H898 0.950 . S
C903 C905 1.327 . S
C903 C909 1.429 . S
C904 C896 1.574 . S
C904 H899 0.949 . S
C904 C910 1.368 . S
C905 C889 1.349 . S
C905 H897 0.950 . S
C905 C903 1.327 . S
C906 C894 1.349 . S
C906 H900 0.950 . S
C906 C907 1.327 . S
C907 H901 0.950 . S
C907 C906 1.327 . S
C907 C911 1.429 . S
C908 C891 1.574 . S
C908 H902 0.949 . S
C908 C912 1.368 . S
C909 C890 1.429 . S
C909 C903 1.429 . S
C909 C910 1.523 . S
C910 C891 1.368 . S
C910 C904 1.368 . S
C910 C909 1.523 . S
C911 C895 1.429 . S
C911 C907 1.429 . S
C911 C912 1.523 . S
C912 C896 1.368 . S
C912 C908 1.368 . S
C912 C911 1.523 . S
H913 C888 0.950 . S
H914 C890 0.950 . S
H915 C891 0.949 . S
H916 C893 0.950 . S
H917 C895 0.950 . S
C918 C919 1.349 . S
C918 C920 1.327 . S
C918 H943 0.950 . S
C919 C918 1.349 . S
C919 C935 1.349 . S
C920 C918 1.327 . S
C920 C939 1.429 . S
C920 H944 0.950 . S
C921 C938 1.574 . S
C921 C940 1.368 . S
C921 H945 0.949 . S
H922 C926 0.949 . S
C923 C924 1.349 . S
C923 C925 1.327 . S
C923 H946 0.950 . S
C924 C923 1.349 . S
C924 C936 1.349 . S
C925 C923 1.327 . S
C925 C941 1.429 . S
C925 H947 0.950 . S
C926 H922 0.949 . S
C926 C934 1.574 . S
C926 C942 1.368 . S
H927 C935 0.950 . S
H928 C933 0.950 . S
H929 C934 0.949 . S
H930 C936 0.950 . S
H931 C937 0.950 . S
H932 C938 0.949 . S
C933 H928 0.950 . S
C933 C935 1.327 . S
C933 C939 1.429 . S
C934 C926 1.574 . S
C934 H929 0.949 . S
C934 C940 1.368 . S
C935 C919 1.349 . S
C935 H927 0.950 . S
C935 C933 1.327 . S
C936 C924 1.349 . S
C936 H930 0.950 . S
C936 C937 1.327 . S
C937 H931 0.950 . S
C937 C936 1.327 . S
C937 C941 1.429 . S
C938 C921 1.574 . S
C938 H932 0.949 . S
C938 C942 1.368 . S
C939 C920 1.429 . S
C939 C933 1.429 . S
C939 C940 1.523 1_554 S
C940 C921 1.368 . S
C940 C934 1.368 . S
C940 C939 1.523 1_556 S
C941 C925 1.429 . S
C941 C937 1.429 . S
C941 C942 1.523 . S
C942 C926 1.368 . S
C942 C938 1.368 . S
C942 C941 1.523 . S
H943 C918 0.950 . S
H944 C920 0.950 . S
H945 C921 0.949 . S
H946 C923 0.950 . S
H947 C925 0.950 . S
C948 C949 1.349 . S
C948 C950 1.327 . S
C948 H973 0.950 . S
C949 C948 1.349 . S
C949 C965 1.349 . S
C950 C948 1.327 . S
C950 C969 1.429 . S
C950 H974 0.950 . S
C951 C968 1.574 . S
C951 C970 1.368 . S
C951 H975 0.949 . S
H952 C956 0.949 . S
C953 C954 1.349 . S
C953 C955 1.327 . S
C953 H976 0.950 . S
C954 C953 1.349 . S
C954 C966 1.349 . S
C955 C953 1.327 . S
C955 C971 1.429 . S
C955 H977 0.950 . S
C956 H952 0.949 . S
C956 C964 1.574 . S
C956 C972 1.368 . S
H957 C965 0.950 . S
H958 C963 0.950 . S
H959 C964 0.949 . S
H960 C966 0.950 . S
H961 C967 0.950 . S
H962 C968 0.949 . S
C963 H958 0.950 . S
C963 C965 1.327 . S
C963 C969 1.429 . S
C964 C956 1.574 . S
C964 H959 0.949 . S
C964 C970 1.368 . S
C965 C949 1.349 . S
C965 H957 0.950 . S
C965 C963 1.327 . S
C966 C954 1.349 . S
C966 H960 0.950 . S
C966 C967 1.327 . S
C967 H961 0.950 . S
C967 C966 1.327 . S
C967 C971 1.429 . S
C968 C951 1.574 . S
C968 H962 0.949 . S
C968 C972 1.368 . S
C969 C950 1.429 . S
C969 C963 1.429 . S
C969 C970 1.523 . S
C970 C951 1.368 . S
C970 C964 1.368 . S
C970 C969 1.523 . S
C971 C955 1.429 . S
C971 C967 1.429 . S
C971 C972 1.523 . S
C972 C956 1.368 . S
C972 C968 1.368 . S
C972 C971 1.523 . S
H973 C948 0.950 . S
H974 C950 0.950 . S
H975 C951 0.949 . S
H976 C953 0.950 . S
H977 C955 0.950 . S
C978 C979 1.349 . S
C978 C980 1.327 . S
C978 H1003 0.950 . S
C979 C978 1.349 . S
C979 C995 1.349 . S
C980 C978 1.327 . S
C980 C999 1.429 . S
C980 H1004 0.950 1_556 S
C981 C998 1.574 . S
C981 C1000 1.368 . S
C981 H1005 0.949 . S
H982 C986 0.949 . S
C983 C984 1.349 . S
C983 C985 1.327 . S
C983 H1006 0.950 . S
C984 C983 1.349 . S
C984 C996 1.349 . S
C985 C983 1.327 . S
C985 C1001 1.429 . S
C985 H1007 0.950 . S
C986 H982 0.949 . S
C986 C994 1.574 . S
C986 C1002 1.368 . S
H987 C995 0.950 . S
H988 C993 0.950 . S
H989 C994 0.949 . S
H990 C996 0.950 . S
H991 C997 0.950 . S
H992 C998 0.949 . S
C993 H988 0.950 . S
C993 C995 1.327 . S
C993 C999 1.429 . S
C994 C986 1.574 . S
C994 H989 0.949 . S
C994 C1000 1.368 . S
C995 C979 1.349 . S
C995 H987 0.950 . S
C995 C993 1.327 . S
C996 C984 1.349 . S
C996 H990 0.950 . S
C996 C997 1.327 . S
C997 H991 0.950 . S
C997 C996 1.327 . S
C997 C1001 1.429 . S
C998 C981 1.574 . S
C998 H992 0.949 . S
C998 C1002 1.368 . S
C999 C980 1.429 . S
C999 C993 1.429 . S
C999 C1000 1.523 1_556 S
C1000 C981 1.368 . S
C1000 C994 1.368 . S
C1000 C999 1.523 1_554 S
C1001 C985 1.429 . S
C1001 C997 1.429 . S
C1001 C1002 1.523 . S
C1002 C986 1.368 . S
C1002 C998 1.368 . S
C1002 C1001 1.523 . S
H1003 C978 0.950 . S
H1004 C980 0.950 1_554 S
H1005 C981 0.949 . S
H1006 C983 0.950 . S
H1007 C985 0.950 . S
C1008 C1009 1.349 . S
C1008 C1010 1.327 . S
C1008 H1033 0.950 . S
C1009 C1008 1.349 . S
C1009 C1025 1.349 . S
C1010 C1008 1.327 . S
C1010 C1029 1.429 . S
C1010 H1034 0.950 . S
C1011 C1028 1.574 . S
C1011 C1030 1.368 . S
C1011 H1035 0.949 . S
H1012 C1016 0.949 . S
C1013 C1014 1.349 . S
C1013 C1015 1.327 . S
C1013 H1036 0.950 . S
C1014 C1013 1.349 . S
C1014 C1026 1.349 . S
C1015 C1013 1.327 . S
C1015 C1031 1.429 . S
C1015 H1037 0.950 . S
C1016 H1012 0.949 . S
C1016 C1024 1.574 . S
C1016 C1032 1.368 . S
H1017 C1025 0.950 . S
H1018 C1023 0.950 . S
H1019 C1024 0.949 . S
H1020 C1026 0.950 . S
H1021 C1027 0.950 . S
H1022 C1028 0.949 . S
C1023 H1018 0.950 . S
C1023 C1025 1.327 . S
C1023 C1029 1.429 . S
C1024 C1016 1.574 . S
C1024 H1019 0.949 . S
C1024 C1030 1.368 . S
C1025 C1009 1.349 . S
C1025 H1017 0.950 . S
C1025 C1023 1.327 . S
C1026 C1014 1.349 . S
C1026 H1020 0.950 . S
C1026 C1027 1.327 . S
C1027 H1021 0.950 . S
C1027 C1026 1.327 . S
C1027 C1031 1.429 . S
C1028 C1011 1.574 . S
C1028 H1022 0.949 . S
C1028 C1032 1.368 . S
C1029 C1010 1.429 . S
C1029 C1023 1.429 . S
C1029 C1030 1.523 . S
C1030 C1011 1.368 . S
C1030 C1024 1.368 . S
C1030 C1029 1.523 . S
C1031 C1015 1.429 . S
C1031 C1027 1.429 . S
C1031 C1032 1.523 . S
C1032 C1016 1.368 . S
C1032 C1028 1.368 . S
C1032 C1031 1.523 . S
H1033 C1008 0.950 . S
H1034 C1010 0.950 . S
H1035 C1011 0.949 . S
H1036 C1013 0.950 . S
H1037 C1015 0.950 . S
C1038 C1039 1.349 . S
C1038 C1040 1.327 . S
C1038 H1063 0.950 . S
C1039 C1038 1.349 . S
C1039 C1055 1.349 . S
C1040 C1038 1.327 . S
C1040 C1059 1.429 . S
C1040 H1064 0.950 . S
C1041 C1058 1.574 . S
C1041 C1060 1.368 . S
C1041 H1065 0.949 . S
H1042 C1046 0.949 . S
C1043 C1044 1.349 . S
C1043 C1045 1.327 . S
C1043 H1066 0.950 . S
C1044 C1043 1.349 . S
C1044 C1056 1.349 . S
C1045 C1043 1.327 . S
C1045 C1061 1.429 . S
C1045 H1067 0.950 . S
C1046 H1042 0.949 . S
C1046 C1054 1.574 . S
C1046 C1062 1.368 . S
H1047 C1055 0.950 . S
H1048 C1053 0.950 . S
H1049 C1054 0.949 . S
H1050 C1056 0.950 . S
H1051 C1057 0.950 . S
H1052 C1058 0.949 . S
C1053 H1048 0.950 . S
C1053 C1055 1.327 . S
C1053 C1059 1.429 . S
C1054 C1046 1.574 . S
C1054 H1049 0.949 . S
C1054 C1060 1.368 . S
C1055 C1039 1.349 . S
C1055 H1047 0.950 . S
C1055 C1053 1.327 . S
C1056 C1044 1.349 . S
C1056 H1050 0.950 . S
C1056 C1057 1.327 . S
C1057 H1051 0.950 . S
C1057 C1056 1.327 . S
C1057 C1061 1.429 . S
C1058 C1041 1.574 . S
C1058 H1052 0.949 . S
C1058 C1062 1.368 . S
C1059 C1040 1.429 . S
C1059 C1053 1.429 . S
C1059 C1060 1.523 1_455 S
C1060 C1041 1.368 . S
C1060 C1054 1.368 . S
C1060 C1059 1.523 1_655 S
C1061 C1045 1.429 . S
C1061 C1057 1.429 . S
C1061 C1062 1.523 . S
C1062 C1046 1.368 . S
C1062 C1058 1.368 . S
C1062 C1061 1.523 . S
H1063 C1038 0.950 . S
H1064 C1040 0.950 . S
H1065 C1041 0.949 . S
H1066 C1043 0.950 . S
H1067 C1045 0.950 . S
C1068 C1069 1.349 . S
C1068 C1070 1.327 . S
C1068 H1093 0.950 . S
C1069 C1068 1.349 . S
C1069 C1085 1.349 . S
C1070 C1068 1.327 . S
C1070 C1089 1.429 . S
C1070 H1094 0.950 . S
C1071 C1088 1.574 . S
C1071 C1090 1.368 . S
C1071 H1095 0.949 . S
H1072 C1076 0.949 . S
C1073 C1074 1.349 . S
C1073 C1075 1.327 . S
C1073 H1096 0.950 . S
C1074 C1073 1.349 . S
C1074 C1086 1.349 . S
C1075 C1073 1.327 . S
C1075 C1091 1.429 . S
C1075 H1097 0.950 . S
C1076 H1072 0.949 . S
C1076 C1084 1.574 . S
C1076 C1092 1.368 . S
H1077 C1085 0.950 . S
H1078 C1083 0.950 . S
H1079 C1084 0.949 . S
H1080 C1086 0.950 . S
H1081 C1087 0.950 . S
H1082 C1088 0.949 . S
C1083 H1078 0.950 . S
C1083 C1085 1.327 . S
C1083 C1089 1.429 . S
C1084 C1076 1.574 . S
C1084 H1079 0.949 . S
C1084 C1090 1.368 . S
C1085 C1069 1.349 . S
C1085 H1077 0.950 . S
C1085 C1083 1.327 . S
C1086 C1074 1.349 . S
C1086 H1080 0.950 . S
C1086 C1087 1.327 . S
C1087 H1081 0.950 . S
C1087 C1086 1.327 . S
C1087 C1091 1.429 . S
C1088 C1071 1.574 . S
C1088 H1082 0.949 . S
C1088 C1092 1.368 . S
C1089 C1070 1.429 . S
C1089 C1083 1.429 . S
C1089 C1090 1.523 . S
C1090 C1071 1.368 . S
C1090 C1084 1.368 . S
C1090 C1089 1.523 . S
C1091 C1075 1.429 . S
C1091 C1087 1.429 . S
C1091 C1092 1.523 . S
C1092 C1076 1.368 . S
C1092 C1088 1.368 . S
C1092 C1091 1.523 . S
H1093 C1068 0.950 . S
H1094 C1070 0.950 . S
H1095 C1071 0.949 . S
H1096 C1073 0.950 . S
H1097 C1075 0.950 . S
C1098 C1099 1.349 . S
C1098 C1100 1.327 . S
C1098 H1123 0.950 . S
C1099 C1098 1.349 . S
C1099 C1115 1.349 . S
C1100 C1098 1.327 . S
C1100 C1119 1.429 . S
C1100 H1124 0.950 . S
C1101 C1118 1.574 . S
C1101 C1120 1.368 . S
C1101 H1125 0.949 . S
H1102 C1106 0.949 . S
C1103 C1104 1.349 . S
C1103 C1105 1.327 . S
C1103 H1126 0.950 . S
C1104 C1103 1.349 . S
C1104 C1116 1.349 . S
C1105 C1103 1.327 . S
C1105 C1121 1.429 . S
C1105 H1127 0.950 . S
C1106 H1102 0.949 . S
C1106 C1114 1.574 . S
C1106 C1122 1.368 . S
H1107 C1115 0.950 . S
H1108 C1113 0.950 . S
H1109 C1114 0.949 . S
H1110 C1116 0.950 . S
H1111 C1117 0.950 . S
H1112 C1118 0.949 . S
C1113 H1108 0.950 . S
C1113 C1115 1.327 . S
C1113 C1119 1.429 . S
C1114 C1106 1.574 . S
C1114 H1109 0.949 . S
C1114 C1120 1.368 . S
C1115 C1099 1.349 . S
C1115 H1107 0.950 . S
C1115 C1113 1.327 . S
C1116 C1104 1.349 . S
C1116 H1110 0.950 . S
C1116 C1117 1.327 . S
C1117 H1111 0.950 . S
C1117 C1116 1.327 . S
C1117 C1121 1.429 . S
C1118 C1101 1.574 . S
C1118 H1112 0.949 . S
C1118 C1122 1.368 . S
C1119 C1100 1.429 . S
C1119 C1113 1.429 . S
C1119 C1120 1.523 1_655 S
C1120 C1101 1.368 . S
C1120 C1114 1.368 . S
C1120 C1119 1.523 1_455 S
C1121 C1105 1.429 . S
C1121 C1117 1.429 . S
C1121 C1122 1.523 . S
C1122 C1106 1.368 . S
C1122 C1118 1.368 . S
C1122 C1121 1.523 . S
H1123 C1098 0.950 . S
H1124 C1100 0.950 . S
H1125 C1101 0.949 . S
H1126 C1103 0.950 . S
H1127 C1105 0.950 . S
C1128 C1129 1.349 . S
C1128 C1130 1.327 . S
C1128 H1153 0.950 . S
C1129 C1128 1.349 . S
C1129 C1145 1.349 . S
C1130 C1128 1.327 . S
C1130 C1149 1.429 . S
C1130 H1154 0.950 . S
C1131 C1148 1.574 . S
C1131 C1150 1.368 . S
C1131 H1155 0.949 . S
H1132 C1136 0.949 . S
C1133 C1134 1.349 . S
C1133 C1135 1.327 . S
C1133 H1156 0.950 . S
C1134 C1133 1.349 . S
C1134 C1146 1.349 . S
C1135 C1133 1.327 . S
C1135 C1151 1.429 . S
C1135 H1157 0.950 . S
C1136 H1132 0.949 . S
C1136 C1144 1.574 . S
C1136 C1152 1.368 . S
H1137 C1145 0.950 . S
H1138 C1143 0.950 . S
H1139 C1144 0.949 . S
H1140 C1146 0.950 . S
H1141 C1147 0.950 . S
H1142 C1148 0.949 . S
C1143 H1138 0.950 . S
C1143 C1145 1.327 . S
C1143 C1149 1.429 . S
C1144 C1136 1.574 . S
C1144 H1139 0.949 . S
C1144 C1150 1.368 . S
C1145 C1129 1.349 . S
C1145 H1137 0.950 . S
C1145 C1143 1.327 . S
C1146 C1134 1.349 . S
C1146 H1140 0.950 . S
C1146 C1147 1.327 . S
C1147 H1141 0.950 . S
C1147 C1146 1.327 . S
C1147 C1151 1.429 . S
C1148 C1131 1.574 . S
C1148 H1142 0.949 . S
C1148 C1152 1.368 . S
C1149 C1130 1.429 . S
C1149 C1143 1.429 . S
C1149 C1150 1.523 . S
C1150 C1131 1.368 . S
C1150 C1144 1.368 . S
C1150 C1149 1.523 . S
C1151 C1135 1.429 . S
C1151 C1147 1.429 . S
C1151 C1152 1.523 . S
C1152 C1136 1.368 . S
C1152 C1148 1.368 . S
C1152 C1151 1.523 . S
H1153 C1128 0.950 . S
H1154 C1130 0.950 . S
H1155 C1131 0.949 . S
H1156 C1133 0.950 . S
H1157 C1135 0.950 . S
C1158 C1159 1.349 . S
C1158 C1160 1.327 . S
C1158 H1183 0.950 . S
C1159 C1158 1.349 . S
C1159 C1175 1.349 . S
C1160 C1158 1.327 . S
C1160 C1179 1.429 . S
C1160 H1184 0.950 . S
C1161 C1178 1.574 . S
C1161 C1180 1.368 . S
C1161 H1185 0.949 . S
H1162 C1166 0.949 . S
C1163 C1164 1.349 . S
C1163 C1165 1.327 . S
C1163 H1186 0.950 . S
C1164 C1163 1.349 . S
C1164 C1176 1.349 . S
C1165 C1163 1.327 . S
C1165 C1181 1.429 . S
C1165 H1187 0.950 . S
C1166 H1162 0.949 . S
C1166 C1174 1.574 . S
C1166 C1182 1.368 . S
H1167 C1175 0.950 . S
H1168 C1173 0.950 . S
H1169 C1174 0.949 . S
H1170 C1176 0.950 . S
H1171 C1177 0.950 . S
H1172 C1178 0.949 . S
C1173 H1168 0.950 . S
C1173 C1175 1.327 . S
C1173 C1179 1.429 . S
C1174 C1166 1.574 . S
C1174 H1169 0.949 . S
C1174 C1180 1.368 . S
C1175 C1159 1.349 . S
C1175 H1167 0.950 . S
C1175 C1173 1.327 . S
C1176 C1164 1.349 . S
C1176 H1170 0.950 . S
C1176 C1177 1.327 . S
C1177 H1171 0.950 . S
C1177 C1176 1.327 . S
C1177 C1181 1.429 . S
C1178 C1161 1.574 . S
C1178 H1172 0.949 . S
C1178 C1182 1.368 . S
C1179 C1160 1.429 . S
C1179 C1173 1.429 . S
C1179 C1180 1.523 . S
C1180 C1161 1.368 . S
C1180 C1174 1.368 . S
C1180 C1179 1.523 . S
C1181 C1165 1.429 . S
C1181 C1177 1.429 . S
C1181 C1182 1.523 . S
C1182 C1166 1.368 . S
C1182 C1178 1.368 . S
C1182 C1181 1.523 . S
H1183 C1158 0.950 . S
H1184 C1160 0.950 . S
H1185 C1161 0.949 . S
H1186 C1163 0.950 . S
H1187 C1165 0.950 . S
C1188 C1189 1.349 . S
C1188 C1190 1.327 . S
C1188 H1213 0.950 . S
C1189 C1188 1.349 . S
C1189 C1205 1.349 . S
C1190 C1188 1.327 . S
C1190 C1209 1.429 . S
C1190 H1214 0.950 . S
C1191 C1208 1.574 . S
C1191 C1210 1.368 . S
C1191 H1215 0.949 . S
H1192 C1196 0.949 . S
C1193 C1194 1.349 . S
C1193 C1195 1.327 . S
C1193 H1216 0.950 . S
C1194 C1193 1.349 . S
C1194 C1206 1.349 . S
C1195 C1193 1.327 . S
C1195 C1211 1.429 . S
C1195 H1217 0.950 . S
C1196 H1192 0.949 . S
C1196 C1204 1.574 . S
C1196 C1212 1.368 . S
H1197 C1205 0.950 . S
H1198 C1203 0.950 . S
H1199 C1204 0.949 . S
H1200 C1206 0.950 . S
H1201 C1207 0.950 . S
H1202 C1208 0.949 . S
C1203 H1198 0.950 . S
C1203 C1205 1.327 . S
C1203 C1209 1.429 . S
C1204 C1196 1.574 . S
C1204 H1199 0.949 . S
C1204 C1210 1.368 . S
C1205 C1189 1.349 . S
C1205 H1197 0.950 . S
C1205 C1203 1.327 . S
C1206 C1194 1.349 . S
C1206 H1200 0.950 . S
C1206 C1207 1.327 . S
C1207 H1201 0.950 . S
C1207 C1206 1.327 . S
C1207 C1211 1.429 . S
C1208 C1191 1.574 . S
C1208 H1202 0.949 . S
C1208 C1212 1.368 . S
C1209 C1190 1.429 . S
C1209 C1203 1.429 . S
C1209 C1210 1.523 1_545 S
C1210 C1191 1.368 . S
C1210 C1204 1.368 . S
C1210 C1209 1.523 1_565 S
C1211 C1195 1.429 . S
C1211 C1207 1.429 . S
C1211 C1212 1.523 . S
C1212 C1196 1.368 . S
C1212 C1208 1.368 . S
C1212 C1211 1.523 . S
H1213 C1188 0.950 . S
H1214 C1190 0.950 . S
H1215 C1191 0.949 . S
H1216 C1193 0.950 . S
H1217 C1195 0.950 . S
C1218 C1219 1.349 . S
C1218 C1220 1.327 . S
C1218 H1243 0.950 . S
C1219 C1218 1.349 . S
C1219 C1235 1.349 . S
C1220 C1218 1.327 . S
C1220 C1239 1.429 . S
C1220 H1244 0.950 . S
C1221 C1238 1.574 . S
C1221 C1240 1.368 . S
C1221 H1245 0.949 . S
H1222 C1226 0.949 . S
C1223 C1224 1.349 . S
C1223 C1225 1.327 . S
C1223 H1246 0.950 . S
C1224 C1223 1.349 . S
C1224 C1236 1.349 . S
C1225 C1223 1.327 . S
C1225 C1241 1.429 . S
C1225 H1247 0.950 . S
C1226 H1222 0.949 . S
C1226 C1234 1.574 . S
C1226 C1242 1.368 . S
H1227 C1235 0.950 . S
H1228 C1233 0.950 . S
H1229 C1234 0.949 . S
H1230 C1236 0.950 . S
H1231 C1237 0.950 . S
H1232 C1238 0.949 . S
C1233 H1228 0.950 . S
C1233 C1235 1.327 . S
C1233 C1239 1.429 . S
C1234 C1226 1.574 . S
C1234 H1229 0.949 . S
C1234 C1240 1.368 . S
C1235 C1219 1.349 . S
C1235 H1227 0.950 . S
C1235 C1233 1.327 . S
C1236 C1224 1.349 . S
C1236 H1230 0.950 . S
C1236 C1237 1.327 . S
C1237 H1231 0.950 . S
C1237 C1236 1.327 . S
C1237 C1241 1.429 . S
C1238 C1221 1.574 . S
C1238 H1232 0.949 . S
C1238 C1242 1.368 . S
C1239 C1220 1.429 . S
C1239 C1233 1.429 . S
C1239 C1240 1.523 . S
C1240 C1221 1.368 . S
C1240 C1234 1.368 . S
C1240 C1239 1.523 . S
C1241 C1225 1.429 . S
C1241 C1237 1.429 . S
C1241 C1242 1.523 1_565 S
C1242 C1226 1.368 . S
C1242 C1238 1.368 . S
C1242 C1241 1.523 1_545 S
H1243 C1218 0.950 . S
H1244 C1220 0.950 . S
H1245 C1221 0.949 . S
H1246 C1223 0.950 . S
H1247 C1225 0.950 . S
C1248 C1249 1.349 . S
C1248 C1250 1.327 . S
C1248 H1273 0.950 . S
C1249 C1248 1.349 . S
C1249 C1265 1.349 . S
C1250 C1248 1.327 . S
C1250 C1269 1.429 . S
C1250 H1274 0.950 . S
C1251 C1268 1.574 . S
C1251 C1270 1.368 . S
C1251 H1275 0.949 . S
H1252 C1256 0.949 . S
C1253 C1254 1.349 . S
C1253 C1255 1.327 . S
C1253 H1276 0.950 . S
C1254 C1253 1.349 . S
C1254 C1266 1.349 . S
C1255 C1253 1.327 . S
C1255 C1271 1.429 . S
C1255 H1277 0.950 . S
C1256 H1252 0.949 . S
C1256 C1264 1.574 . S
C1256 C1272 1.368 . S
H1257 C1265 0.950 . S
H1258 C1263 0.950 . S
H1259 C1264 0.949 . S
H1260 C1266 0.950 . S
H1261 C1267 0.950 . S
H1262 C1268 0.949 . S
C1263 H1258 0.950 . S
C1263 C1265 1.327 . S
C1263 C1269 1.429 . S
C1264 C1256 1.574 . S
C1264 H1259 0.949 . S
C1264 C1270 1.368 . S
C1265 C1249 1.349 . S
C1265 H1257 0.950 . S
C1265 C1263 1.327 . S
C1266 C1254 1.349 . S
C1266 H1260 0.950 . S
C1266 C1267 1.327 . S
C1267 H1261 0.950 . S
C1267 C1266 1.327 . S
C1267 C1271 1.429 . S
C1268 C1251 1.574 . S
C1268 H1262 0.949 . S
C1268 C1272 1.368 . S
C1269 C1250 1.429 . S
C1269 C1263 1.429 . S
C1269 C1270 1.523 . S
C1270 C1251 1.368 . S
C1270 C1264 1.368 . S
C1270 C1269 1.523 . S
C1271 C1255 1.429 . S
C1271 C1267 1.429 . S
C1271 C1272 1.523 . S
C1272 C1256 1.368 . S
C1272 C1268 1.368 . S
C1272 C1271 1.523 . S
H1273 C1248 0.950 . S
H1274 C1250 0.950 . S
H1275 C1251 0.949 . S
H1276 C1253 0.950 . S
H1277 C1255 0.950 . S
C1278 C1279 1.349 . S
C1278 C1280 1.327 . S
C1278 H1303 0.950 . S
C1279 C1278 1.349 . S
C1279 C1295 1.349 . S
C1280 C1278 1.327 . S
C1280 C1299 1.429 . S
C1280 H1304 0.950 . S
C1281 C1298 1.574 . S
C1281 C1300 1.368 . S
C1281 H1305 0.949 . S
H1282 C1286 0.949 . S
C1283 C1284 1.349 . S
C1283 C1285 1.327 . S
C1283 H1306 0.950 . S
C1284 C1283 1.349 . S
C1284 C1296 1.349 . S
C1285 C1283 1.327 . S
C1285 C1301 1.429 . S
C1285 H1307 0.950 . S
C1286 H1282 0.949 . S
C1286 C1294 1.574 . S
C1286 C1302 1.368 . S
H1287 C1295 0.950 . S
H1288 C1293 0.950 . S
H1289 C1294 0.949 . S
H1290 C1296 0.950 . S
H1291 C1297 0.950 . S
H1292 C1298 0.949 . S
C1293 H1288 0.950 . S
C1293 C1295 1.327 . S
C1293 C1299 1.429 . S
C1294 C1286 1.574 . S
C1294 H1289 0.949 . S
C1294 C1300 1.368 . S
C1295 C1279 1.349 . S
C1295 H1287 0.950 . S
C1295 C1293 1.327 . S
C1296 C1284 1.349 . S
C1296 H1290 0.950 . S
C1296 C1297 1.327 . S
C1297 H1291 0.950 . S
C1297 C1296 1.327 . S
C1297 C1301 1.429 . S
C1298 C1281 1.574 . S
C1298 H1292 0.949 . S
C1298 C1302 1.368 . S
C1299 C1280 1.429 . S
C1299 C1293 1.429 . S
C1299 C1300 1.523 . S
C1300 C1281 1.368 . S
C1300 C1294 1.368 . S
C1300 C1299 1.523 . S
C1301 C1285 1.429 . S
C1301 C1297 1.429 . S
C1301 C1302 1.523 1_556 S
C1302 C1286 1.368 . S
C1302 C1298 1.368 . S
C1302 C1301 1.523 1_554 S
H1303 C1278 0.950 . S
H1304 C1280 0.950 . S
H1305 C1281 0.949 . S
H1306 C1283 0.950 . S
H1307 C1285 0.950 . S
C1308 C1309 1.349 . S
C1308 C1310 1.327 . S
C1308 H1333 0.950 . S
C1309 C1308 1.349 . S
C1309 C1325 1.349 . S
C1310 C1308 1.327 . S
C1310 C1329 1.429 . S
C1310 H1334 0.950 . S
C1311 C1328 1.574 . S
C1311 C1330 1.368 . S
C1311 H1335 0.949 . S
H1312 C1316 0.949 . S
C1313 C1314 1.349 . S
C1313 C1315 1.327 . S
C1313 H1336 0.950 . S
C1314 C1313 1.349 . S
C1314 C1326 1.349 . S
C1315 C1313 1.327 . S
C1315 C1331 1.429 . S
C1315 H1337 0.950 . S
C1316 H1312 0.949 . S
C1316 C1324 1.574 . S
C1316 C1332 1.368 . S
H1317 C1325 0.950 . S
H1318 C1323 0.950 . S
H1319 C1324 0.949 . S
H1320 C1326 0.950 . S
H1321 C1327 0.950 . S
H1322 C1328 0.949 . S
C1323 H1318 0.950 . S
C1323 C1325 1.327 . S
C1323 C1329 1.429 . S
C1324 C1316 1.574 . S
C1324 H1319 0.949 . S
C1324 C1330 1.368 . S
C1325 C1309 1.349 . S
C1325 H1317 0.950 . S
C1325 C1323 1.327 . S
C1326 C1314 1.349 . S
C1326 H1320 0.950 . S
C1326 C1327 1.327 . S
C1327 H1321 0.950 . S
C1327 C1326 1.327 . S
C1327 C1331 1.429 . S
C1328 C1311 1.574 . S
C1328 H1322 0.949 . S
C1328 C1332 1.368 . S
C1329 C1310 1.429 . S
C1329 C1323 1.429 . S
C1329 C1330 1.523 . S
C1330 C1311 1.368 . S
C1330 C1324 1.368 . S
C1330 C1329 1.523 . S
C1331 C1315 1.429 . S
C1331 C1327 1.429 . S
C1331 C1332 1.523 . S
C1332 C1316 1.368 . S
C1332 C1328 1.368 . S
C1332 C1331 1.523 . S
H1333 C1308 0.950 . S
H1334 C1310 0.950 . S
H1335 C1311 0.949 . S
H1336 C1313 0.950 . S
H1337 C1315 0.950 . S
C1338 C1339 1.349 . S
C1338 C1340 1.327 . S
C1338 H1363 0.950 . S
C1339 C1338 1.349 . S
C1339 C1355 1.349 . S
C1340 C1338 1.327 . S
C1340 C1359 1.429 . S
C1340 H1364 0.950 . S
C1341 C1358 1.574 . S
C1341 C1360 1.368 . S
C1341 H1365 0.949 . S
H1342 C1346 0.949 . S
C1343 C1344 1.349 . S
C1343 C1345 1.327 . S
C1343 H1366 0.950 . S
C1344 C1343 1.349 . S
C1344 C1356 1.349 . S
C1345 C1343 1.327 . S
C1345 C1361 1.429 . S
C1345 H1367 0.950 . S
C1346 H1342 0.949 . S
C1346 C1354 1.574 . S
C1346 C1362 1.368 . S
H1347 C1355 0.950 . S
H1348 C1353 0.950 . S
H1349 C1354 0.949 . S
H1350 C1356 0.950 . S
H1351 C1357 0.950 . S
H1352 C1358 0.949 . S
C1353 H1348 0.950 . S
C1353 C1355 1.327 . S
C1353 C1359 1.429 . S
C1354 C1346 1.574 . S
C1354 H1349 0.949 . S
C1354 C1360 1.368 . S
C1355 C1339 1.349 . S
C1355 H1347 0.950 . S
C1355 C1353 1.327 . S
C1356 C1344 1.349 . S
C1356 H1350 0.950 . S
C1356 C1357 1.327 . S
C1357 H1351 0.950 . S
C1357 C1356 1.327 . S
C1357 C1361 1.429 . S
C1358 C1341 1.574 . S
C1358 H1352 0.949 . S
C1358 C1362 1.368 . S
C1359 C1340 1.429 . S
C1359 C1353 1.429 . S
C1359 C1360 1.523 1_554 S
C1360 C1341 1.368 . S
C1360 C1354 1.368 . S
C1360 C1359 1.523 1_556 S
C1361 C1345 1.429 . S
C1361 C1357 1.429 . S
C1361 C1362 1.523 . S
C1362 C1346 1.368 . S
C1362 C1358 1.368 . S
C1362 C1361 1.523 . S
H1363 C1338 0.950 . S
H1364 C1340 0.950 . S
H1365 C1341 0.949 . S
H1366 C1343 0.950 . S
H1367 C1345 0.950 . S
C1368 C1369 1.349 . S
C1368 C1370 1.327 . S
C1368 H1393 0.950 . S
C1369 C1368 1.349 . S
C1369 C1385 1.349 . S
C1370 C1368 1.327 . S
C1370 C1389 1.429 . S
C1370 H1394 0.950 . S
C1371 C1388 1.574 . S
C1371 C1390 1.368 . S
C1371 H1395 0.949 . S
H1372 C1376 0.949 . S
C1373 C1374 1.349 . S
C1373 C1375 1.327 . S
C1373 H1396 0.950 . S
C1374 C1373 1.349 . S
C1374 C1386 1.349 . S
C1375 C1373 1.327 . S
C1375 C1391 1.429 . S
C1375 H1397 0.950 . S
C1376 H1372 0.949 . S
C1376 C1384 1.574 . S
C1376 C1392 1.368 . S
H1377 C1385 0.950 . S
H1378 C1383 0.950 . S
H1379 C1384 0.949 . S
H1380 C1386 0.950 . S
H1381 C1387 0.950 . S
H1382 C1388 0.949 . S
C1383 H1378 0.950 . S
C1383 C1385 1.327 . S
C1383 C1389 1.429 . S
C1384 C1376 1.574 . S
C1384 H1379 0.949 . S
C1384 C1390 1.368 . S
C1385 C1369 1.349 . S
C1385 H1377 0.950 . S
C1385 C1383 1.327 . S
C1386 C1374 1.349 . S
C1386 H1380 0.950 . S
C1386 C1387 1.327 . S
C1387 H1381 0.950 . S
C1387 C1386 1.327 . S
C1387 C1391 1.429 . S
C1388 C1371 1.574 . S
C1388 H1382 0.949 . S
C1388 C1392 1.368 . S
C1389 C1370 1.429 . S
C1389 C1383 1.429 . S
C1389 C1390 1.523 . S
C1390 C1371 1.368 . S
C1390 C1384 1.368 . S
C1390 C1389 1.523 . S
C1391 C1375 1.429 . S
C1391 C1387 1.429 . S
C1391 C1392 1.523 . S
C1392 C1376 1.368 . S
C1392 C1388 1.368 . S
C1392 C1391 1.523 . S
H1393 C1368 0.950 . S
H1394 C1370 0.950 . S
H1395 C1371 0.949 . S
H1396 C1373 0.950 . S
H1397 C1375 0.950 . S
C1398 C1399 1.349 . S
C1398 C1400 1.327 . S
C1398 H1423 0.950 . S
C1399 C1398 1.349 . S
C1399 C1415 1.349 . S
C1400 C1398 1.327 . S
C1400 C1419 1.429 . S
C1400 H1424 0.950 . S
C1401 C1418 1.574 . S
C1401 C1420 1.368 . S
C1401 H1425 0.949 . S
H1402 C1406 0.949 . S
C1403 C1404 1.349 . S
C1403 C1405 1.327 . S
C1403 H1426 0.950 . S
C1404 C1403 1.349 . S
C1404 C1416 1.349 . S
C1405 C1403 1.327 . S
C1405 C1421 1.429 . S
C1405 H1427 0.950 . S
C1406 H1402 0.949 . S
C1406 C1414 1.574 . S
C1406 C1422 1.368 . S
H1407 C1415 0.950 . S
H1408 C1413 0.950 . S
H1409 C1414 0.949 . S
H1410 C1416 0.950 . S
H1411 C1417 0.950 . S
H1412 C1418 0.949 . S
C1413 H1408 0.950 . S
C1413 C1415 1.327 . S
C1413 C1419 1.429 . S
C1414 C1406 1.574 . S
C1414 H1409 0.949 . S
C1414 C1420 1.368 . S
C1415 C1399 1.349 . S
C1415 H1407 0.950 . S
C1415 C1413 1.327 . S
C1416 C1404 1.349 . S
C1416 H1410 0.950 . S
C1416 C1417 1.327 . S
C1417 H1411 0.950 . S
C1417 C1416 1.327 . S
C1417 C1421 1.429 . S
C1418 C1401 1.574 . S
C1418 H1412 0.949 . S
C1418 C1422 1.368 . S
C1419 C1400 1.429 . S
C1419 C1413 1.429 . S
C1419 C1420 1.523 1_655 S
C1420 C1401 1.368 . S
C1420 C1414 1.368 . S
C1420 C1419 1.523 1_455 S
C1421 C1405 1.429 . S
C1421 C1417 1.429 . S
C1421 C1422 1.523 . S
C1422 C1406 1.368 . S
C1422 C1418 1.368 . S
C1422 C1421 1.523 . S
H1423 C1398 0.950 . S
H1424 C1400 0.950 . S
H1425 C1401 0.949 . S
H1426 C1403 0.950 . S
H1427 C1405 0.950 . S
C1428 C1429 1.349 . S
C1428 C1430 1.327 . S
C1428 H1453 0.950 . S
C1429 C1428 1.349 . S
C1429 C1445 1.349 . S
C1430 C1428 1.327 . S
C1430 C1449 1.429 . S
C1430 H1454 0.950 . S
C1431 C1448 1.574 . S
C1431 C1450 1.368 . S
C1431 H1455 0.949 . S
H1432 C1436 0.949 . S
C1433 C1434 1.349 . S
C1433 C1435 1.327 . S
C1433 H1456 0.950 . S
C1434 C1433 1.349 . S
C1434 C1446 1.349 . S
C1435 C1433 1.327 . S
C1435 C1451 1.429 . S
C1435 H1457 0.950 . S
C1436 H1432 0.949 . S
C1436 C1444 1.574 . S
C1436 C1452 1.368 . S
H1437 C1445 0.950 . S
H1438 C1443 0.950 . S
H1439 C1444 0.949 . S
H1440 C1446 0.950 . S
H1441 C1447 0.950 . S
H1442 C1448 0.949 . S
C1443 H1438 0.950 . S
C1443 C1445 1.327 . S
C1443 C1449 1.429 . S
C1444 C1436 1.574 . S
C1444 H1439 0.949 . S
C1444 C1450 1.368 . S
C1445 C1429 1.349 . S
C1445 H1437 0.950 . S
C1445 C1443 1.327 . S
C1446 C1434 1.349 . S
C1446 H1440 0.950 . S
C1446 C1447 1.327 . S
C1447 H1441 0.950 . S
C1447 C1446 1.327 . S
C1447 C1451 1.429 . S
C1448 C1431 1.574 . S
C1448 H1442 0.949 . S
C1448 C1452 1.368 . S
C1449 C1430 1.429 . S
C1449 C1443 1.429 . S
C1449 C1450 1.523 . S
C1450 C1431 1.368 . S
C1450 C1444 1.368 . S
C1450 C1449 1.523 . S
C1451 C1435 1.429 . S
C1451 C1447 1.429 . S
C1451 C1452 1.523 . S
C1452 C1436 1.368 . S
C1452 C1448 1.368 . S
C1452 C1451 1.523 . S
H1453 C1428 0.950 . S
H1454 C1430 0.950 . S
H1455 C1431 0.949 . S
H1456 C1433 0.950 . S
H1457 C1435 0.950 . S
C1458 C1459 1.349 . S
C1458 C1460 1.327 . S
C1458 H1483 0.950 . S
C1459 C1458 1.349 . S
C1459 C1475 1.349 . S
C1460 C1458 1.327 . S
C1460 C1479 1.429 . S
C1460 H1484 0.950 . S
C1461 C1478 1.574 . S
C1461 C1480 1.368 . S
C1461 H1485 0.949 . S
H1462 C1466 0.949 . S
C1463 C1464 1.349 . S
C1463 C1465 1.327 . S
C1463 H1486 0.950 . S
C1464 C1463 1.349 . S
C1464 C1476 1.349 . S
C1465 C1463 1.327 . S
C1465 C1481 1.429 . S
C1465 H1487 0.950 . S
C1466 H1462 0.949 . S
C1466 C1474 1.574 . S
C1466 C1482 1.368 . S
H1467 C1475 0.950 . S
H1468 C1473 0.950 . S
H1469 C1474 0.949 . S
H1470 C1476 0.950 . S
H1471 C1477 0.950 . S
H1472 C1478 0.949 . S
C1473 H1468 0.950 . S
C1473 C1475 1.327 . S
C1473 C1479 1.429 . S
C1474 C1466 1.574 . S
C1474 H1469 0.949 . S
C1474 C1480 1.368 . S
C1475 C1459 1.349 . S
C1475 H1467 0.950 . S
C1475 C1473 1.327 . S
C1476 C1464 1.349 . S
C1476 H1470 0.950 . S
C1476 C1477 1.327 . S
C1477 H1471 0.950 . S
C1477 C1476 1.327 . S
C1477 C1481 1.429 . S
C1478 C1461 1.574 . S
C1478 H1472 0.949 . S
C1478 C1482 1.368 . S
C1479 C1460 1.429 . S
C1479 C1473 1.429 . S
C1479 C1480 1.523 . S
C1480 C1461 1.368 . S
C1480 C1474 1.368 . S
C1480 C1479 1.523 . S
C1481 C1465 1.429 . S
C1481 C1477 1.429 . S
C1481 C1482 1.523 1_455 S
C1482 C1466 1.368 . S
C1482 C1478 1.368 . S
C1482 C1481 1.523 1_655 S
H1483 C1458 0.950 . S
H1484 C1460 0.950 . S
H1485 C1461 0.949 . S
H1486 C1463 0.950 . S
H1487 C1465 0.950 . S
C1488 C1489 1.349 . S
C1488 C1490 1.327 . S
C1488 H1513 0.950 . S
C1489 C1488 1.349 . S
C1489 C1505 1.349 . S
C1490 C1488 1.327 . S
C1490 C1509 1.429 . S
C1490 H1514 0.950 . S
C1491 C1508 1.574 . S
C1491 C1510 1.368 . S
C1491 H1515 0.949 . S
H1492 C1496 0.949 . S
C1493 C1494 1.349 . S
C1493 C1495 1.327 . S
C1493 H1516 0.950 . S
C1494 C1493 1.349 . S
C1494 C1506 1.349 . S
C1495 C1493 1.327 . S
C1495 C1511 1.429 . S
C1495 H1517 0.950 . S
C1496 H1492 0.949 . S
C1496 C1504 1.574 . S
C1496 C1512 1.368 . S
H1497 C1505 0.950 . S
H1498 C1503 0.950 . S
H1499 C1504 0.949 . S
H1500 C1506 0.950 . S
H1501 C1507 0.950 . S
H1502 C1508 0.949 . S
C1503 H1498 0.950 . S
C1503 C1505 1.327 . S
C1503 C1509 1.429 . S
C1504 C1496 1.574 . S
C1504 H1499 0.949 . S
C1504 C1510 1.368 . S
C1505 C1489 1.349 . S
C1505 H1497 0.950 . S
C1505 C1503 1.327 . S
C1506 C1494 1.349 . S
C1506 H1500 0.950 . S
C1506 C1507 1.327 . S
C1507 H1501 0.950 . S
C1507 C1506 1.327 . S
C1507 C1511 1.429 . S
C1508 C1491 1.574 . S
C1508 H1502 0.949 . S
C1508 C1512 1.368 . S
C1509 C1490 1.429 . S
C1509 C1503 1.429 . S
C1509 C1510 1.523 . S
C1510 C1491 1.368 . S
C1510 C1504 1.368 . S
C1510 C1509 1.523 . S
C1511 C1495 1.429 . S
C1511 C1507 1.429 . S
C1511 C1512 1.523 . S
C1512 C1496 1.368 . S
C1512 C1508 1.368 . S
C1512 C1511 1.523 . S
H1513 C1488 0.950 . S
H1514 C1490 0.950 . S
H1515 C1491 0.949 . S
H1516 C1493 0.950 . S
H1517 C1495 0.950 . S
C1518 C1519 1.349 . S
C1518 C1520 1.327 . S
C1518 H1543 0.950 . S
C1519 C1518 1.349 . S
C1519 C1535 1.349 . S
C1520 C1518 1.327 . S
C1520 C1539 1.429 . S
C1520 H1544 0.950 . S
C1521 C1538 1.574 . S
C1521 C1540 1.368 . S
C1521 H1545 0.949 . S
H1522 C1526 0.949 . S
C1523 C1524 1.349 . S
C1523 C1525 1.327 . S
C1523 H1546 0.950 . S
C1524 C1523 1.349 . S
C1524 C1536 1.349 . S
C1525 C1523 1.327 . S
C1525 C1541 1.429 . S
C1525 H1547 0.950 . S
C1526 H1522 0.949 . S
C1526 C1534 1.574 . S
C1526 C1542 1.368 . S
H1527 C1535 0.950 . S
H1528 C1533 0.950 . S
H1529 C1534 0.949 . S
H1530 C1536 0.950 . S
H1531 C1537 0.950 . S
H1532 C1538 0.949 . S
C1533 H1528 0.950 . S
C1533 C1535 1.327 . S
C1533 C1539 1.429 . S
C1534 C1526 1.574 . S
C1534 H1529 0.949 . S
C1534 C1540 1.368 . S
C1535 C1519 1.349 . S
C1535 H1527 0.950 . S
C1535 C1533 1.327 . S
C1536 C1524 1.349 . S
C1536 H1530 0.950 . S
C1536 C1537 1.327 . S
C1537 H1531 0.950 . S
C1537 C1536 1.327 . S
C1537 C1541 1.429 . S
C1538 C1521 1.574 . S
C1538 H1532 0.949 . S
C1538 C1542 1.368 . S
C1539 C1520 1.429 . S
C1539 C1533 1.429 . S
C1539 C1540 1.523 . S
C1540 C1521 1.368 . S
C1540 C1534 1.368 . S
C1540 C1539 1.523 . S
C1541 C1525 1.429 . S
C1541 C1537 1.429 . S
C1541 C1542 1.523 . S
C1542 C1526 1.368 . S
C1542 C1538 1.368 . S
C1542 C1541 1.523 . S
H1543 C1518 0.950 . S
H1544 C1520 0.950 . S
H1545 C1521 0.949 . S
H1546 C1523 0.950 . S
H1547 C1525 0.950 . S
C1548 C1549 1.349 . S
C1548 C1550 1.327 . S
C1548 H1573 0.950 . S
C1549 C1548 1.349 . S
C1549 C1565 1.349 . S
C1550 C1548 1.327 . S
C1550 C1569 1.429 . S
C1550 H1574 0.950 . S
C1551 C1568 1.574 . S
C1551 C1570 1.368 . S
C1551 H1575 0.949 . S
H1552 C1556 0.949 . S
C1553 C1554 1.349 . S
C1553 C1555 1.327 . S
C1553 H1576 0.950 . S
C1554 C1553 1.349 . S
C1554 C1566 1.349 . S
C1555 C1553 1.327 . S
C1555 C1571 1.429 . S
C1555 H1577 0.950 . S
C1556 H1552 0.949 . S
C1556 C1564 1.574 . S
C1556 C1572 1.368 . S
H1557 C1565 0.950 . S
H1558 C1563 0.950 . S
H1559 C1564 0.949 . S
H1560 C1566 0.950 . S
H1561 C1567 0.950 . S
H1562 C1568 0.949 . S
C1563 H1558 0.950 . S
C1563 C1565 1.327 . S
C1563 C1569 1.429 . S
C1564 C1556 1.574 . S
C1564 H1559 0.949 . S
C1564 C1570 1.368 . S
C1565 C1549 1.349 . S
C1565 H1557 0.950 . S
C1565 C1563 1.327 . S
C1566 C1554 1.349 . S
C1566 H1560 0.950 . S
C1566 C1567 1.327 . S
C1567 H1561 0.950 . S
C1567 C1566 1.327 . S
C1567 C1571 1.429 . S
C1568 C1551 1.574 . S
C1568 H1562 0.949 . S
C1568 C1572 1.368 . S
C1569 C1550 1.429 . S
C1569 C1563 1.429 . S
C1569 C1570 1.523 . S
C1570 C1551 1.368 . S
C1570 C1564 1.368 . S
C1570 C1569 1.523 . S
C1571 C1555 1.429 . S
C1571 C1567 1.429 . S
C1571 C1572 1.523 . S
C1572 C1556 1.368 . S
C1572 C1568 1.368 . S
C1572 C1571 1.523 . S
H1573 C1548 0.950 . S
H1574 C1550 0.950 . S
H1575 C1551 0.949 . S
H1576 C1553 0.950 . S
H1577 C1555 0.950 . S
C1578 C1579 1.349 . S
C1578 C1580 1.327 . S
C1578 H1603 0.950 . S
C1579 C1578 1.349 . S
C1579 C1595 1.349 . S
C1580 C1578 1.327 . S
C1580 C1599 1.429 . S
C1580 H1604 0.950 . S
C1581 C1598 1.574 . S
C1581 C1600 1.368 . S
C1581 H1605 0.949 . S
H1582 C1586 0.949 . S
C1583 C1584 1.349 . S
C1583 C1585 1.327 . S
C1583 H1606 0.950 . S
C1584 C1583 1.349 . S
C1584 C1596 1.349 . S
C1585 C1583 1.327 . S
C1585 C1601 1.429 . S
C1585 H1607 0.950 . S
C1586 H1582 0.949 . S
C1586 C1594 1.574 . S
C1586 C1602 1.368 . S
H1587 C1595 0.950 . S
H1588 C1593 0.950 . S
H1589 C1594 0.949 . S
H1590 C1596 0.950 . S
H1591 C1597 0.950 . S
H1592 C1598 0.949 . S
C1593 H1588 0.950 . S
C1593 C1595 1.327 . S
C1593 C1599 1.429 . S
C1594 C1586 1.574 . S
C1594 H1589 0.949 . S
C1594 C1600 1.368 . S
C1595 C1579 1.349 . S
C1595 H1587 0.950 . S
C1595 C1593 1.327 . S
C1596 C1584 1.349 . S
C1596 H1590 0.950 . S
C1596 C1597 1.327 . S
C1597 H1591 0.950 . S
C1597 C1596 1.327 . S
C1597 C1601 1.429 . S
C1598 C1581 1.574 . S
C1598 H1592 0.949 . S
C1598 C1602 1.368 . S
C1599 C1580 1.429 . S
C1599 C1593 1.429 . S
C1599 C1600 1.523 . S
C1600 C1581 1.368 . S
C1600 C1594 1.368 . S
C1600 C1599 1.523 . S
C1601 C1585 1.429 . S
C1601 C1597 1.429 . S
C1601 C1602 1.523 . S
C1602 C1586 1.368 . S
C1602 C1598 1.368 . S
C1602 C1601 1.523 . S
H1603 C1578 0.950 . S
H1604 C1580 0.950 . S
H1605 C1581 0.949 . S
H1606 C1583 0.950 . S
H1607 C1585 0.950 . S
C1608 C1609 1.349 . S
C1608 C1610 1.327 . S
C1608 H1633 0.950 . S
C1609 C1608 1.349 . S
C1609 C1625 1.349 . S
C1610 C1608 1.327 . S
C1610 C1629 1.429 . S
C1610 H1634 0.950 . S
C1611 C1628 1.574 . S
C1611 C1630 1.368 . S
C1611 H1635 0.949 . S
H1612 C1616 0.949 . S
C1613 C1614 1.349 . S
C1613 C1615 1.327 . S
C1613 H1636 0.950 . S
C1614 C1613 1.349 . S
C1614 C1626 1.349 . S
C1615 C1613 1.327 . S
C1615 C1631 1.429 . S
C1615 H1637 0.950 . S
C1616 H1612 0.949 . S
C1616 C1624 1.574 . S
C1616 C1632 1.368 . S
H1617 C1625 0.950 . S
H1618 C1623 0.950 . S
H1619 C1624 0.949 . S
H1620 C1626 0.950 . S
H1621 C1627 0.950 . S
H1622 C1628 0.949 . S
C1623 H1618 0.950 . S
C1623 C1625 1.327 . S
C1623 C1629 1.429 . S
C1624 C1616 1.574 . S
C1624 H1619 0.949 . S
C1624 C1630 1.368 . S
C1625 C1609 1.349 . S
C1625 H1617 0.950 . S
C1625 C1623 1.327 . S
C1626 C1614 1.349 . S
C1626 H1620 0.950 . S
C1626 C1627 1.327 . S
C1627 H1621 0.950 . S
C1627 C1626 1.327 . S
C1627 C1631 1.429 . S
C1628 C1611 1.574 . S
C1628 H1622 0.949 . S
C1628 C1632 1.368 . S
C1629 C1610 1.429 . S
C1629 C1623 1.429 . S
C1629 C1630 1.523 . S
C1630 C1611 1.368 . S
C1630 C1624 1.368 . S
C1630 C1629 1.523 . S
C1631 C1615 1.429 . S
C1631 C1627 1.429 . S
C1631 C1632 1.523 . S
C1632 C1616 1.368 . S
C1632 C1628 1.368 . S
C1632 C1631 1.523 . S
H1633 C1608 0.950 . S
H1634 C1610 0.950 . S
H1635 C1611 0.949 . S
H1636 C1613 0.950 . S
H1637 C1615 0.950 . S
C1638 C1639 1.349 . S
C1638 C1640 1.327 . S
C1638 H1663 0.950 . S
C1639 C1638 1.349 . S
C1639 C1655 1.349 . S
C1640 C1638 1.327 . S
C1640 C1659 1.429 . S
C1640 H1664 0.950 . S
C1641 C1658 1.574 . S
C1641 C1660 1.368 . S
C1641 H1665 0.949 . S
H1642 C1646 0.949 . S
C1643 C1644 1.349 . S
C1643 C1645 1.327 . S
C1643 H1666 0.950 . S
C1644 C1643 1.349 . S
C1644 C1656 1.349 . S
C1645 C1643 1.327 . S
C1645 C1661 1.429 . S
C1645 H1667 0.950 . S
C1646 H1642 0.949 . S
C1646 C1654 1.574 . S
C1646 C1662 1.368 . S
H1647 C1655 0.950 . S
H1648 C1653 0.950 . S
H1649 C1654 0.949 . S
H1650 C1656 0.950 . S
H1651 C1657 0.950 . S
H1652 C1658 0.949 . S
C1653 H1648 0.950 . S
C1653 C1655 1.327 . S
C1653 C1659 1.429 . S
C1654 C1646 1.574 . S
C1654 H1649 0.949 . S
C1654 C1660 1.368 . S
C1655 C1639 1.349 . S
C1655 H1647 0.950 . S
C1655 C1653 1.327 . S
C1656 C1644 1.349 . S
C1656 H1650 0.950 . S
C1656 C1657 1.327 . S
C1657 H1651 0.950 . S
C1657 C1656 1.327 . S
C1657 C1661 1.429 . S
C1658 C1641 1.574 . S
C1658 H1652 0.949 . S
C1658 C1662 1.368 . S
C1659 C1640 1.429 . S
C1659 C1653 1.429 . S
C1659 C1660 1.523 . S
C1660 C1641 1.368 . S
C1660 C1654 1.368 . S
C1660 C1659 1.523 . S
C1661 C1645 1.429 . S
C1661 C1657 1.429 . S
C1661 C1662 1.523 . S
C1662 C1646 1.368 . S
C1662 C1658 1.368 . S
C1662 C1661 1.523 . S
H1663 C1638 0.950 . S
H1664 C1640 0.950 . S
H1665 C1641 0.949 . S
H1666 C1643 0.950 . S
H1667 C1645 0.950 . S
C1668 C1669 1.349 . S
C1668 C1670 1.327 . S
C1668 H1693 0.950 . S
C1669 C1668 1.349 . S
C1669 C1685 1.349 . S
C1670 C1668 1.327 . S
C1670 C1689 1.429 . S
C1670 H1694 0.950 . S
C1671 C1688 1.574 . S
C1671 C1690 1.368 . S
C1671 H1695 0.949 . S
H1672 C1676 0.949 . S
C1673 C1674 1.349 . S
C1673 C1675 1.327 . S
C1673 H1696 0.950 . S
C1674 C1673 1.349 . S
C1674 C1686 1.349 . S
C1675 C1673 1.327 . S
C1675 C1691 1.429 . S
C1675 H1697 0.950 . S
C1676 H1672 0.949 . S
C1676 C1684 1.574 . S
C1676 C1692 1.368 . S
H1677 C1685 0.950 . S
H1678 C1683 0.950 . S
H1679 C1684 0.949 . S
H1680 C1686 0.950 . S
H1681 C1687 0.950 . S
H1682 C1688 0.949 . S
C1683 H1678 0.950 . S
C1683 C1685 1.327 . S
C1683 C1689 1.429 . S
C1684 C1676 1.574 . S
C1684 H1679 0.949 . S
C1684 C1690 1.368 . S
C1685 C1669 1.349 . S
C1685 H1677 0.950 . S
C1685 C1683 1.327 . S
C1686 C1674 1.349 . S
C1686 H1680 0.950 . S
C1686 C1687 1.327 . S
C1687 H1681 0.950 . S
C1687 C1686 1.327 . S
C1687 C1691 1.429 . S
C1688 C1671 1.574 . S
C1688 H1682 0.949 . S
C1688 C1692 1.368 . S
C1689 C1670 1.429 . S
C1689 C1683 1.429 . S
C1689 C1690 1.523 . S
C1690 C1671 1.368 . S
C1690 C1684 1.368 . S
C1690 C1689 1.523 . S
C1691 C1675 1.429 . S
C1691 C1687 1.429 . S
C1691 C1692 1.523 . S
C1692 C1676 1.368 . S
C1692 C1688 1.368 . S
C1692 C1691 1.523 . S
H1693 C1668 0.950 . S
H1694 C1670 0.950 . S
H1695 C1671 0.949 . S
H1696 C1673 0.950 . S
H1697 C1675 0.950 . S
C1698 C1699 1.349 . S
C1698 C1700 1.327 . S
C1698 H1723 0.950 . S
C1699 C1698 1.349 . S
C1699 C1715 1.349 . S
C1700 C1698 1.327 . S
C1700 C1719 1.429 . S
C1700 H1724 0.950 . S
C1701 C1718 1.574 . S
C1701 C1720 1.368 . S
C1701 H1725 0.949 . S
H1702 C1706 0.949 . S
C1703 C1704 1.349 . S
C1703 C1705 1.327 . S
C1703 H1726 0.950 . S
C1704 C1703 1.349 . S
C1704 C1716 1.349 . S
C1705 C1703 1.327 . S
C1705 C1721 1.429 . S
C1705 H1727 0.950 . S
C1706 H1702 0.949 . S
C1706 C1714 1.574 . S
C1706 C1722 1.368 . S
H1707 C1715 0.950 . S
H1708 C1713 0.950 . S
H1709 C1714 0.949 . S
H1710 C1716 0.950 . S
H1711 C1717 0.950 . S
H1712 C1718 0.949 . S
C1713 H1708 0.950 . S
C1713 C1715 1.327 . S
C1713 C1719 1.429 . S
C1714 C1706 1.574 . S
C1714 H1709 0.949 . S
C1714 C1720 1.368 . S
C1715 C1699 1.349 . S
C1715 H1707 0.950 . S
C1715 C1713 1.327 . S
C1716 C1704 1.349 . S
C1716 H1710 0.950 . S
C1716 C1717 1.327 . S
C1717 H1711 0.950 . S
C1717 C1716 1.327 . S
C1717 C1721 1.429 . S
C1718 C1701 1.574 . S
C1718 H1712 0.949 . S
C1718 C1722 1.368 . S
C1719 C1700 1.429 . S
C1719 C1713 1.429 . S
C1719 C1720 1.523 . S
C1720 C1701 1.368 . S
C1720 C1714 1.368 . S
C1720 C1719 1.523 . S
C1721 C1705 1.429 . S
C1721 C1717 1.429 . S
C1721 C1722 1.523 . S
C1722 C1706 1.368 . S
C1722 C1718 1.368 . S
C1722 C1721 1.523 . S
H1723 C1698 0.950 . S
H1724 C1700 0.950 . S
H1725 C1701 0.949 . S
H1726 C1703 0.950 . S
H1727 C1705 0.950 . S
C1728 C1729 1.349 . S
C1728 C1730 1.327 . S
C1728 H1753 0.950 . S
C1729 C1728 1.349 . S
C1729 C1745 1.349 . S
C1730 C1728 1.327 . S
C1730 C1749 1.429 . S
C1730 H1754 0.950 . S
C1731 C1748 1.574 . S
C1731 C1750 1.368 . S
C1731 H1755 0.949 . S
H1732 C1736 0.949 . S
C1733 C1734 1.349 . S
C1733 C1735 1.327 . S
C1733 H1756 0.950 . S
C1734 C1733 1.349 . S
C1734 C1746 1.349 . S
C1735 C1733 1.327 . S
C1735 C1751 1.429 . S
C1735 H1757 0.950 . S
C1736 H1732 0.949 . S
C1736 C1744 1.574 . S
C1736 C1752 1.368 . S
H1737 C1745 0.950 . S
H1738 C1743 0.950 . S
H1739 C1744 0.949 . S
H1740 C1746 0.950 . S
H1741 C1747 0.950 . S
H1742 C1748 0.949 . S
C1743 H1738 0.950 . S
C1743 C1745 1.327 . S
C1743 C1749 1.429 . S
C1744 C1736 1.574 . S
C1744 H1739 0.949 . S
C1744 C1750 1.368 . S
C1745 C1729 1.349 . S
C1745 H1737 0.950 . S
C1745 C1743 1.327 . S
C1746 C1734 1.349 . S
C1746 H1740 0.950 . S
C1746 C1747 1.327 . S
C1747 H1741 0.950 . S
C1747 C1746 1.327 . S
C1747 C1751 1.429 . S
C1748 C1731 1.574 . S
C1748 H1742 0.949 . S
C1748 C1752 1.368 . S
C1749 C1730 1.429 . S
C1749 C1743 1.429 . S
C1749 C1750 1.523 . S
C1750 C1731 1.368 . S
C1750 C1744 1.368 . S
C1750 C1749 1.523 . S
C1751 C1735 1.429 . S
C1751 C1747 1.429 . S
C1751 C1752 1.523 . S
C1752 C1736 1.368 . S
C1752 C1748 1.368 . S
C1752 C1751 1.523 . S
H1753 C1728 0.950 . S
H1754 C1730 0.950 . S
H1755 C1731 0.949 . S
H1756 C1733 0.950 . S
H1757 C1735 0.950 . S
C1758 C1759 1.349 . S
C1758 C1760 1.327 . S
C1758 H1783 0.950 . S
C1759 C1758 1.349 . S
C1759 C1775 1.349 . S
C1760 C1758 1.327 . S
C1760 C1779 1.429 . S
C1760 H1784 0.950 . S
C1761 C1778 1.574 . S
C1761 C1780 1.368 . S
C1761 H1785 0.949 . S
H1762 C1766 0.949 . S
C1763 C1764 1.349 . S
C1763 C1765 1.327 . S
C1763 H1786 0.950 . S
C1764 C1763 1.349 . S
C1764 C1776 1.349 . S
C1765 C1763 1.327 . S
C1765 C1781 1.429 . S
C1765 H1787 0.950 . S
C1766 H1762 0.949 . S
C1766 C1774 1.574 . S
C1766 C1782 1.368 . S
H1767 C1775 0.950 . S
H1768 C1773 0.950 . S
H1769 C1774 0.949 . S
H1770 C1776 0.950 . S
H1771 C1777 0.950 . S
H1772 C1778 0.949 . S
C1773 H1768 0.950 . S
C1773 C1775 1.327 . S
C1773 C1779 1.429 . S
C1774 C1766 1.574 . S
C1774 H1769 0.949 . S
C1774 C1780 1.368 . S
C1775 C1759 1.349 . S
C1775 H1767 0.950 . S
C1775 C1773 1.327 . S
C1776 C1764 1.349 . S
C1776 H1770 0.950 . S
C1776 C1777 1.327 . S
C1777 H1771 0.950 . S
C1777 C1776 1.327 . S
C1777 C1781 1.429 . S
C1778 C1761 1.574 . S
C1778 H1772 0.949 . S
C1778 C1782 1.368 . S
C1779 C1760 1.429 . S
C1779 C1773 1.429 . S
C1779 C1780 1.523 . S
C1780 C1761 1.368 . S
C1780 C1774 1.368 . S
C1780 C1779 1.523 . S
C1781 C1765 1.429 . S
C1781 C1777 1.429 . S
C1781 C1782 1.523 . S
C1782 C1766 1.368 . S
C1782 C1778 1.368 . S
C1782 C1781 1.523 . S
H1783 C1758 0.950 . S
H1784 C1760 0.950 . S
H1785 C1761 0.949 . S
H1786 C1763 0.950 . S
H1787 C1765 0.950 . S
C1788 C1789 1.349 . S
C1788 C1790 1.327 . S
C1788 H1813 0.950 . S
C1789 C1788 1.349 . S
C1789 C1805 1.349 . S
C1790 C1788 1.327 . S
C1790 C1809 1.429 . S
C1790 H1814 0.950 . S
C1791 C1808 1.574 . S
C1791 C1810 1.368 . S
C1791 H1815 0.949 . S
H1792 C1796 0.949 . S
C1793 C1794 1.349 . S
C1793 C1795 1.327 . S
C1793 H1816 0.950 . S
C1794 C1793 1.349 . S
C1794 C1806 1.349 . S
C1795 C1793 1.327 . S
C1795 C1811 1.429 . S
C1795 H1817 0.950 . S
C1796 H1792 0.949 . S
C1796 C1804 1.574 . S
C1796 C1812 1.368 . S
H1797 C1805 0.950 . S
H1798 C1803 0.950 . S
H1799 C1804 0.949 . S
H1800 C1806 0.950 . S
H1801 C1807 0.950 . S
H1802 C1808 0.949 . S
C1803 H1798 0.950 . S
C1803 C1805 1.327 . S
C1803 C1809 1.429 . S
C1804 C1796 1.574 . S
C1804 H1799 0.949 . S
C1804 C1810 1.368 . S
C1805 C1789 1.349 . S
C1805 H1797 0.950 . S
C1805 C1803 1.327 . S
C1806 C1794 1.349 . S
C1806 H1800 0.950 . S
C1806 C1807 1.327 . S
C1807 H1801 0.950 . S
C1807 C1806 1.327 . S
C1807 C1811 1.429 . S
C1808 C1791 1.574 . S
C1808 H1802 0.949 . S
C1808 C1812 1.368 . S
C1809 C1790 1.429 . S
C1809 C1803 1.429 . S
C1809 C1810 1.523 . S
C1810 C1791 1.368 . S
C1810 C1804 1.368 . S
C1810 C1809 1.523 . S
C1811 C1795 1.429 . S
C1811 C1807 1.429 . S
C1811 C1812 1.523 . S
C1812 C1796 1.368 . S
C1812 C1808 1.368 . S
C1812 C1811 1.523 . S
H1813 C1788 0.950 . S
H1814 C1790 0.950 . S
H1815 C1791 0.949 . S
H1816 C1793 0.950 . S
H1817 C1795 0.950 . S
C1818 C1819 1.349 . S
C1818 C1820 1.327 . S
C1818 H1843 0.950 . S
C1819 C1818 1.349 . S
C1819 C1835 1.349 . S
C1820 C1818 1.327 . S
C1820 C1839 1.429 . S
C1820 H1844 0.950 . S
C1821 C1838 1.574 . S
C1821 C1840 1.368 . S
C1821 H1845 0.949 . S
H1822 C1826 0.949 . S
C1823 C1824 1.349 . S
C1823 C1825 1.327 . S
C1823 H1846 0.950 . S
C1824 C1823 1.349 . S
C1824 C1836 1.349 . S
C1825 C1823 1.327 . S
C1825 C1841 1.429 . S
C1825 H1847 0.950 . S
C1826 H1822 0.949 . S
C1826 C1834 1.574 . S
C1826 C1842 1.368 . S
H1827 C1835 0.950 . S
H1828 C1833 0.950 . S
H1829 C1834 0.949 . S
H1830 C1836 0.950 . S
H1831 C1837 0.950 . S
H1832 C1838 0.949 . S
C1833 H1828 0.950 . S
C1833 C1835 1.327 . S
C1833 C1839 1.429 . S
C1834 C1826 1.574 . S
C1834 H1829 0.949 . S
C1834 C1840 1.368 . S
C1835 C1819 1.349 . S
C1835 H1827 0.950 . S
C1835 C1833 1.327 . S
C1836 C1824 1.349 . S
C1836 H1830 0.950 . S
C1836 C1837 1.327 . S
C1837 H1831 0.950 . S
C1837 C1836 1.327 . S
C1837 C1841 1.429 . S
C1838 C1821 1.574 . S
C1838 H1832 0.949 . S
C1838 C1842 1.368 . S
C1839 C1820 1.429 . S
C1839 C1833 1.429 . S
C1839 C1840 1.523 . S
C1840 C1821 1.368 . S
C1840 C1834 1.368 . S
C1840 C1839 1.523 . S
C1841 C1825 1.429 . S
C1841 C1837 1.429 . S
C1841 C1842 1.523 . S
C1842 C1826 1.368 . S
C1842 C1838 1.368 . S
C1842 C1841 1.523 . S
H1843 C1818 0.950 . S
H1844 C1820 0.950 . S
H1845 C1821 0.949 . S
H1846 C1823 0.950 . S
H1847 C1825 0.950 . S
C1848 C1849 1.349 . S
C1848 C1850 1.327 . S
C1848 H1873 0.950 . S
C1849 C1848 1.349 . S
C1849 C1865 1.349 . S
C1850 C1848 1.327 . S
C1850 C1869 1.429 . S
C1850 H1874 0.950 . S
C1851 C1868 1.574 . S
C1851 C1870 1.368 . S
C1851 H1875 0.949 . S
H1852 C1856 0.949 . S
C1853 C1854 1.349 . S
C1853 C1855 1.327 . S
C1853 H1876 0.950 . S
C1854 C1853 1.349 . S
C1854 C1866 1.349 . S
C1855 C1853 1.327 . S
C1855 C1871 1.429 . S
C1855 H1877 0.950 . S
C1856 H1852 0.949 . S
C1856 C1864 1.574 . S
C1856 C1872 1.368 . S
H1857 C1865 0.950 . S
H1858 C1863 0.950 . S
H1859 C1864 0.949 . S
H1860 C1866 0.950 . S
H1861 C1867 0.950 . S
H1862 C1868 0.949 . S
C1863 H1858 0.950 . S
C1863 C1865 1.327 . S
C1863 C1869 1.429 . S
C1864 C1856 1.574 . S
C1864 H1859 0.949 . S
C1864 C1870 1.368 . S
C1865 C1849 1.349 . S
C1865 H1857 0.950 . S
C1865 C1863 1.327 . S
C1866 C1854 1.349 . S
C1866 H1860 0.950 . S
C1866 C1867 1.327 . S
C1867 H1861 0.950 . S
C1867 C1866 1.327 . S
C1867 C1871 1.429 . S
C1868 C1851 1.574 . S
C1868 H1862 0.949 . S
C1868 C1872 1.368 . S
C1869 C1850 1.429 . S
C1869 C1863 1.429 . S
C1869 C1870 1.523 . S
C1870 C1851 1.368 . S
C1870 C1864 1.368 . S
C1870 C1869 1.523 . S
C1871 C1855 1.429 . S
C1871 C1867 1.429 . S
C1871 C1872 1.523 . S
C1872 C1856 1.368 . S
C1872 C1868 1.368 . S
C1872 C1871 1.523 . S
H1873 C1848 0.950 . S
H1874 C1850 0.950 . S
H1875 C1851 0.949 . S
H1876 C1853 0.950 . S
H1877 C1855 0.950 . S
C1878 C1879 1.349 . S
C1878 C1880 1.327 . S
C1878 H1903 0.950 . S
C1879 C1878 1.349 . S
C1879 C1895 1.349 . S
C1880 C1878 1.327 . S
C1880 C1899 1.429 . S
C1880 H1904 0.950 . S
C1881 C1898 1.574 . S
C1881 C1900 1.368 . S
C1881 H1905 0.949 . S
H1882 C1886 0.949 . S
C1883 C1884 1.349 . S
C1883 C1885 1.327 . S
C1883 H1906 0.950 . S
C1884 C1883 1.349 . S
C1884 C1896 1.349 . S
C1885 C1883 1.327 . S
C1885 C1901 1.429 . S
C1885 H1907 0.950 . S
C1886 H1882 0.949 . S
C1886 C1894 1.574 . S
C1886 C1902 1.368 . S
H1887 C1895 0.950 . S
H1888 C1893 0.950 . S
H1889 C1894 0.949 . S
H1890 C1896 0.950 . S
H1891 C1897 0.950 . S
H1892 C1898 0.949 . S
C1893 H1888 0.950 . S
C1893 C1895 1.327 . S
C1893 C1899 1.429 . S
C1894 C1886 1.574 . S
C1894 H1889 0.949 . S
C1894 C1900 1.368 . S
C1895 C1879 1.349 . S
C1895 H1887 0.950 . S
C1895 C1893 1.327 . S
C1896 C1884 1.349 . S
C1896 H1890 0.950 . S
C1896 C1897 1.327 . S
C1897 H1891 0.950 . S
C1897 C1896 1.327 . S
C1897 C1901 1.429 . S
C1898 C1881 1.574 . S
C1898 H1892 0.949 . S
C1898 C1902 1.368 . S
C1899 C1880 1.429 . S
C1899 C1893 1.429 . S
C1899 C1900 1.523 . S
C1900 C1881 1.368 . S
C1900 C1894 1.368 . S
C1900 C1899 1.523 . S
C1901 C1885 1.429 . S
C1901 C1897 1.429 . S
C1901 C1902 1.523 . S
C1902 C1886 1.368 . S
C1902 C1898 1.368 . S
C1902 C1901 1.523 . S
H1903 C1878 0.950 . S
H1904 C1880 0.950 . S
H1905 C1881 0.949 . S
H1906 C1883 0.950 . S
H1907 C1885 0.950 . S
C1908 C1909 1.349 . S
C1908 C1910 1.327 . S
C1908 H1933 0.950 . S
C1909 C1908 1.349 . S
C1909 C1925 1.349 . S
C1910 C1908 1.327 . S
C1910 C1929 1.429 . S
C1910 H1934 0.950 . S
C1911 C1928 1.574 . S
C1911 C1930 1.368 . S
C1911 H1935 0.949 . S
H1912 C1916 0.949 . S
C1913 C1914 1.349 . S
C1913 C1915 1.327 . S
C1913 H1936 0.950 . S
C1914 C1913 1.349 . S
C1914 C1926 1.349 . S
C1915 C1913 1.327 . S
C1915 C1931 1.429 . S
C1915 H1937 0.950 . S
C1916 H1912 0.949 . S
C1916 C1924 1.574 . S
C1916 C1932 1.368 . S
H1917 C1925 0.950 . S
H1918 C1923 0.950 . S
H1919 C1924 0.949 . S
H1920 C1926 0.950 . S
H1921 C1927 0.950 . S
H1922 C1928 0.949 . S
C1923 H1918 0.950 . S
C1923 C1925 1.327 . S
C1923 C1929 1.429 . S
C1924 C1916 1.574 . S
C1924 H1919 0.949 . S
C1924 C1930 1.368 . S
C1925 C1909 1.349 . S
C1925 H1917 0.950 . S
C1925 C1923 1.327 . S
C1926 C1914 1.349 . S
C1926 H1920 0.950 . S
C1926 C1927 1.327 . S
C1927 H1921 0.950 . S
C1927 C1926 1.327 . S
C1927 C1931 1.429 . S
C1928 C1911 1.574 . S
C1928 H1922 0.949 . S
C1928 C1932 1.368 . S
C1929 C1910 1.429 . S
C1929 C1923 1.429 . S
C1929 C1930 1.523 . S
C1930 C1911 1.368 . S
C1930 C1924 1.368 . S
C1930 C1929 1.523 . S
C1931 C1915 1.429 . S
C1931 C1927 1.429 . S
C1931 C1932 1.523 . S
C1932 C1916 1.368 . S
C1932 C1928 1.368 . S
C1932 C1931 1.523 . S
H1933 C1908 0.950 . S
H1934 C1910 0.950 . S
H1935 C1911 0.949 . S
H1936 C1913 0.950 . S
H1937 C1915 0.950 . S
C1938 C1939 1.349 . S
C1938 C1940 1.327 . S
C1938 H1963 0.950 . S
C1939 C1938 1.349 . S
C1939 C1955 1.349 . S
C1940 C1938 1.327 . S
C1940 C1959 1.429 . S
C1940 H1964 0.950 . S
C1941 C1958 1.574 . S
C1941 C1960 1.368 . S
C1941 H1965 0.949 . S
H1942 C1946 0.949 . S
C1943 C1944 1.349 . S
C1943 C1945 1.327 . S
C1943 H1966 0.950 . S
C1944 C1943 1.349 . S
C1944 C1956 1.349 . S
C1945 C1943 1.327 . S
C1945 C1961 1.429 . S
C1945 H1967 0.950 . S
C1946 H1942 0.949 . S
C1946 C1954 1.574 . S
C1946 C1962 1.368 . S
H1947 C1955 0.950 . S
H1948 C1953 0.950 . S
H1949 C1954 0.949 . S
H1950 C1956 0.950 . S
H1951 C1957 0.950 . S
H1952 C1958 0.949 . S
C1953 H1948 0.950 . S
C1953 C1955 1.327 . S
C1953 C1959 1.429 . S
C1954 C1946 1.574 . S
C1954 H1949 0.949 . S
C1954 C1960 1.368 . S
C1955 C1939 1.349 . S
C1955 H1947 0.950 . S
C1955 C1953 1.327 . S
C1956 C1944 1.349 . S
C1956 H1950 0.950 . S
C1956 C1957 1.327 . S
C1957 H1951 0.950 . S
C1957 C1956 1.327 . S
C1957 C1961 1.429 . S
C1958 C1941 1.574 . S
C1958 H1952 0.949 . S
C1958 C1962 1.368 . S
C1959 C1940 1.429 . S
C1959 C1953 1.429 . S
C1959 C1960 1.523 . S
C1960 C1941 1.368 . S
C1960 C1954 1.368 . S
C1960 C1959 1.523 . S
C1961 C1945 1.429 . S
C1961 C1957 1.429 . S
C1961 C1962 1.523 . S
C1962 C1946 1.368 . S
C1962 C1958 1.368 . S
C1962 C1961 1.523 . S
H1963 C1938 0.950 . S
H1964 C1940 0.950 . S
H1965 C1941 0.949 . S
H1966 C1943 0.950 . S
H1967 C1945 0.950 . S
C1968 C1969 1.349 . S
C1968 C1970 1.327 . S
C1968 H1993 0.950 . S
C1969 C1968 1.349 . S
C1969 C1985 1.349 . S
C1970 C1968 1.327 . S
C1970 C1989 1.429 . S
C1970 H1994 0.950 . S
C1971 C1988 1.574 . S
C1971 C1990 1.368 . S
C1971 H1995 0.949 . S
H1972 C1976 0.949 . S
C1973 C1974 1.349 . S
C1973 C1975 1.327 . S
C1973 H1996 0.950 . S
C1974 C1973 1.349 . S
C1974 C1986 1.349 . S
C1975 C1973 1.327 . S
C1975 C1991 1.429 . S
C1975 H1997 0.950 . S
C1976 H1972 0.949 . S
C1976 C1984 1.574 . S
C1976 C1992 1.368 . S
H1977 C1985 0.950 . S
H1978 C1983 0.950 . S
H1979 C1984 0.949 . S
H1980 C1986 0.950 . S
H1981 C1987 0.950 . S
H1982 C1988 0.949 . S
C1983 H1978 0.950 . S
C1983 C1985 1.327 . S
C1983 C1989 1.429 . S
C1984 C1976 1.574 . S
C1984 H1979 0.949 . S
C1984 C1990 1.368 . S
C1985 C1969 1.349 . S
C1985 H1977 0.950 . S
C1985 C1983 1.327 . S
C1986 C1974 1.349 . S
C1986 H1980 0.950 . S
C1986 C1987 1.327 . S
C1987 H1981 0.950 . S
C1987 C1986 1.327 . S
C1987 C1991 1.429 . S
C1988 C1971 1.574 . S
C1988 H1982 0.949 . S
C1988 C1992 1.368 . S
C1989 C1970 1.429 . S
C1989 C1983 1.429 . S
C1989 C1990 1.523 . S
C1990 C1971 1.368 . S
C1990 C1984 1.368 . S
C1990 C1989 1.523 . S
C1991 C1975 1.429 . S
C1991 C1987 1.429 . S
C1991 C1992 1.523 . S
C1992 C1976 1.368 . S
C1992 C1988 1.368 . S
C1992 C1991 1.523 . S
H1993 C1968 0.950 . S
H1994 C1970 0.950 . S
H1995 C1971 0.949 . S
H1996 C1973 0.950 . S
H1997 C1975 0.950 . S
C1998 C1999 1.349 . S
C1998 C2000 1.327 . S
C1998 H2023 0.950 . S
C1999 C1998 1.349 . S
C1999 C2015 1.349 . S
C2000 C1998 1.327 . S
C2000 C2019 1.429 . S
C2000 H2024 0.950 . S
C2001 C2018 1.574 . S
C2001 C2020 1.368 . S
C2001 H2025 0.949 . S
H2002 C2006 0.949 . S
C2003 C2004 1.349 . S
C2003 C2005 1.327 . S
C2003 H2026 0.950 . S
C2004 C2003 1.349 . S
C2004 C2016 1.349 . S
C2005 C2003 1.327 . S
C2005 C2021 1.429 . S
C2005 H2027 0.950 . S
C2006 H2002 0.949 . S
C2006 C2014 1.574 . S
C2006 C2022 1.368 . S
H2007 C2015 0.950 . S
H2008 C2013 0.950 . S
H2009 C2014 0.949 . S
H2010 C2016 0.950 . S
H2011 C2017 0.950 . S
H2012 C2018 0.949 . S
C2013 H2008 0.950 . S
C2013 C2015 1.327 . S
C2013 C2019 1.429 . S
C2014 C2006 1.574 . S
C2014 H2009 0.949 . S
C2014 C2020 1.368 . S
C2015 C1999 1.349 . S
C2015 H2007 0.950 . S
C2015 C2013 1.327 . S
C2016 C2004 1.349 . S
C2016 H2010 0.950 . S
C2016 C2017 1.327 . S
C2017 H2011 0.950 . S
C2017 C2016 1.327 . S
C2017 C2021 1.429 . S
C2018 C2001 1.574 . S
C2018 H2012 0.949 . S
C2018 C2022 1.368 . S
C2019 C2000 1.429 . S
C2019 C2013 1.429 . S
C2019 C2020 1.523 . S
C2020 C2001 1.368 . S
C2020 C2014 1.368 . S
C2020 C2019 1.523 . S
C2021 C2005 1.429 . S
C2021 C2017 1.429 . S
C2021 C2022 1.523 . S
C2022 C2006 1.368 . S
C2022 C2018 1.368 . S
C2022 C2021 1.523 . S
H2023 C1998 0.950 . S
H2024 C2000 0.950 . S
H2025 C2001 0.949 . S
H2026 C2003 0.950 . S
H2027 C2005 0.950 . S
C2028 C2029 1.349 . S
C2028 C2030 1.327 . S
C2028 H2053 0.950 . S
C2029 C2028 1.349 . S
C2029 C2045 1.349 . S
C2030 C2028 1.327 . S
C2030 C2049 1.429 . S
C2030 H2054 0.950 . S
C2031 C2048 1.574 . S
C2031 C2050 1.368 . S
C2031 H2055 0.949 . S
H2032 C2036 0.949 . S
C2033 C2034 1.349 . S
C2033 C2035 1.327 . S
C2033 H2056 0.950 . S
C2034 C2033 1.349 . S
C2034 C2046 1.349 . S
C2035 C2033 1.327 . S
C2035 C2051 1.429 . S
C2035 H2057 0.950 . S
C2036 H2032 0.949 . S
C2036 C2044 1.574 . S
C2036 C2052 1.368 . S
H2037 C2045 0.950 . S
H2038 C2043 0.950 . S
H2039 C2044 0.949 . S
H2040 C2046 0.950 . S
H2041 C2047 0.950 . S
H2042 C2048 0.949 . S
C2043 H2038 0.950 . S
C2043 C2045 1.327 . S
C2043 C2049 1.429 . S
C2044 C2036 1.574 . S
C2044 H2039 0.949 . S
C2044 C2050 1.368 . S
C2045 C2029 1.349 . S
C2045 H2037 0.950 . S
C2045 C2043 1.327 . S
C2046 C2034 1.349 . S
C2046 H2040 0.950 . S
C2046 C2047 1.327 . S
C2047 H2041 0.950 . S
C2047 C2046 1.327 . S
C2047 C2051 1.429 . S
C2048 C2031 1.574 . S
C2048 H2042 0.949 . S
C2048 C2052 1.368 . S
C2049 C2030 1.429 . S
C2049 C2043 1.429 . S
C2049 C2050 1.523 . S
C2050 C2031 1.368 . S
C2050 C2044 1.368 . S
C2050 C2049 1.523 . S
C2051 C2035 1.429 . S
C2051 C2047 1.429 . S
C2051 C2052 1.523 . S
C2052 C2036 1.368 . S
C2052 C2048 1.368 . S
C2052 C2051 1.523 . S
H2053 C2028 0.950 . S
H2054 C2030 0.950 . S
H2055 C2031 0.949 . S
H2056 C2033 0.950 . S
H2057 C2035 0.950 . S
C2058 C2059 1.349 . S
C2058 C2060 1.327 . S
C2058 H2083 0.950 . S
C2059 C2058 1.349 . S
C2059 C2075 1.349 . S
C2060 C2058 1.327 . S
C2060 C2079 1.429 . S
C2060 H2084 0.950 . S
C2061 C2078 1.574 . S
C2061 C2080 1.368 . S
C2061 H2085 0.949 . S
H2062 C2066 0.949 . S
C2063 C2064 1.349 . S
C2063 C2065 1.327 . S
C2063 H2086 0.950 . S
C2064 C2063 1.349 . S
C2064 C2076 1.349 . S
C2065 C2063 1.327 . S
C2065 C2081 1.429 . S
C2065 H2087 0.950 . S
C2066 H2062 0.949 . S
C2066 C2074 1.574 . S
C2066 C2082 1.368 . S
H2067 C2075 0.950 . S
H2068 C2073 0.950 . S
H2069 C2074 0.949 . S
H2070 C2076 0.950 . S
H2071 C2077 0.950 . S
H2072 C2078 0.949 . S
C2073 H2068 0.950 . S
C2073 C2075 1.327 . S
C2073 C2079 1.429 . S
C2074 C2066 1.574 . S
C2074 H2069 0.949 . S
C2074 C2080 1.368 . S
C2075 C2059 1.349 . S
C2075 H2067 0.950 . S
C2075 C2073 1.327 . S
C2076 C2064 1.349 . S
C2076 H2070 0.950 . S
C2076 C2077 1.327 . S
C2077 H2071 0.950 . S
C2077 C2076 1.327 . S
C2077 C2081 1.429 . S
C2078 C2061 1.574 . S
C2078 H2072 0.949 . S
C2078 C2082 1.368 . S
C2079 C2060 1.429 . S
C2079 C2073 1.429 . S
C2079 C2080 1.523 . S
C2080 C2061 1.368 . S
C2080 C2074 1.368 . S
C2080 C2079 1.523 . S
C2081 C2065 1.429 . S
C2081 C2077 1.429 . S
C2081 C2082 1.523 . S
C2082 C2066 1.368 . S
C2082 C2078 1.368 . S
C2082 C2081 1.523 . S
H2083 C2058 0.950 . S
H2084 C2060 0.950 . S
H2085 C2061 0.949 . S
H2086 C2063 0.950 . S
H2087 C2065 0.950 . S
C2088 C2089 1.349 . S
C2088 C2090 1.327 . S
C2088 H2113 0.950 . S
C2089 C2088 1.349 . S
C2089 C2105 1.349 . S
C2090 C2088 1.327 . S
C2090 C2109 1.429 . S
C2090 H2114 0.950 . S
C2091 C2108 1.574 . S
C2091 C2110 1.368 . S
C2091 H2115 0.949 . S
H2092 C2096 0.949 . S
C2093 C2094 1.349 . S
C2093 C2095 1.327 . S
C2093 H2116 0.950 . S
C2094 C2093 1.349 . S
C2094 C2106 1.349 . S
C2095 C2093 1.327 . S
C2095 C2111 1.429 . S
C2095 H2117 0.950 . S
C2096 H2092 0.949 . S
C2096 C2104 1.574 . S
C2096 C2112 1.368 . S
H2097 C2105 0.950 . S
H2098 C2103 0.950 . S
H2099 C2104 0.949 . S
H2100 C2106 0.950 . S
H2101 C2107 0.950 . S
H2102 C2108 0.949 . S
C2103 H2098 0.950 . S
C2103 C2105 1.327 . S
C2103 C2109 1.429 . S
C2104 C2096 1.574 . S
C2104 H2099 0.949 . S
C2104 C2110 1.368 . S
C2105 C2089 1.349 . S
C2105 H2097 0.950 . S
C2105 C2103 1.327 . S
C2106 C2094 1.349 . S
C2106 H2100 0.950 . S
C2106 C2107 1.327 . S
C2107 H2101 0.950 . S
C2107 C2106 1.327 . S
C2107 C2111 1.429 . S
C2108 C2091 1.574 . S
C2108 H2102 0.949 . S
C2108 C2112 1.368 . S
C2109 C2090 1.429 . S
C2109 C2103 1.429 . S
C2109 C2110 1.523 . S
C2110 C2091 1.368 . S
C2110 C2104 1.368 . S
C2110 C2109 1.523 . S
C2111 C2095 1.429 . S
C2111 C2107 1.429 . S
C2111 C2112 1.523 . S
C2112 C2096 1.368 . S
C2112 C2108 1.368 . S
C2112 C2111 1.523 . S
H2113 C2088 0.950 . S
H2114 C2090 0.950 . S
H2115 C2091 0.949 . S
H2116 C2093 0.950 . S
H2117 C2095 0.950 . S
C2118 C2119 1.349 . S
C2118 C2120 1.327 . S
C2118 H2143 0.950 . S
C2119 C2118 1.349 . S
C2119 C2135 1.349 . S
C2120 C2118 1.327 . S
C2120 C2139 1.429 . S
C2120 H2144 0.950 . S
C2121 C2138 1.574 . S
C2121 C2140 1.368 . S
C2121 H2145 0.949 . S
H2122 C2126 0.949 . S
C2123 C2124 1.349 . S
C2123 C2125 1.327 . S
C2123 H2146 0.950 . S
C2124 C2123 1.349 . S
C2124 C2136 1.349 . S
C2125 C2123 1.327 . S
C2125 C2141 1.429 . S
C2125 H2147 0.950 . S
C2126 H2122 0.949 . S
C2126 C2134 1.574 . S
C2126 C2142 1.368 . S
H2127 C2135 0.950 . S
H2128 C2133 0.950 . S
H2129 C2134 0.949 . S
H2130 C2136 0.950 . S
H2131 C2137 0.950 . S
H2132 C2138 0.949 . S
C2133 H2128 0.950 . S
C2133 C2135 1.327 . S
C2133 C2139 1.429 . S
C2134 C2126 1.574 . S
C2134 H2129 0.949 . S
C2134 C2140 1.368 . S
C2135 C2119 1.349 . S
C2135 H2127 0.950 . S
C2135 C2133 1.327 . S
C2136 C2124 1.349 . S
C2136 H2130 0.950 . S
C2136 C2137 1.327 . S
C2137 H2131 0.950 . S
C2137 C2136 1.327 . S
C2137 C2141 1.429 . S
C2138 C2121 1.574 . S
C2138 H2132 0.949 . S
C2138 C2142 1.368 . S
C2139 C2120 1.429 . S
C2139 C2133 1.429 . S
C2139 C2140 1.523 . S
C2140 C2121 1.368 . S
C2140 C2134 1.368 . S
C2140 C2139 1.523 . S
C2141 C2125 1.429 . S
C2141 C2137 1.429 . S
C2141 C2142 1.523 . S
C2142 C2126 1.368 . S
C2142 C2138 1.368 . S
C2142 C2141 1.523 . S
H2143 C2118 0.950 . S
H2144 C2120 0.950 . S
H2145 C2121 0.949 . S
H2146 C2123 0.950 . S
H2147 C2125 0.950 . S
C2148 C2149 1.349 . S
C2148 C2150 1.327 . S
C2148 H2173 0.950 . S
C2149 C2148 1.349 . S
C2149 C2165 1.349 . S
C2150 C2148 1.327 . S
C2150 C2169 1.429 . S
C2150 H2174 0.950 . S
C2151 C2168 1.574 . S
C2151 C2170 1.368 . S
C2151 H2175 0.949 . S
H2152 C2156 0.949 . S
C2153 C2154 1.349 . S
C2153 C2155 1.327 . S
C2153 H2176 0.950 . S
C2154 C2153 1.349 . S
C2154 C2166 1.349 . S
C2155 C2153 1.327 . S
C2155 C2171 1.429 . S
C2155 H2177 0.950 . S
C2156 H2152 0.949 . S
C2156 C2164 1.574 . S
C2156 C2172 1.368 . S
H2157 C2165 0.950 . S
H2158 C2163 0.950 . S
H2159 C2164 0.949 . S
H2160 C2166 0.950 . S
H2161 C2167 0.950 . S
H2162 C2168 0.949 . S
C2163 H2158 0.950 . S
C2163 C2165 1.327 . S
C2163 C2169 1.429 . S
C2164 C2156 1.574 . S
C2164 H2159 0.949 . S
C2164 C2170 1.368 . S
C2165 C2149 1.349 . S
C2165 H2157 0.950 . S
C2165 C2163 1.327 . S
C2166 C2154 1.349 . S
C2166 H2160 0.950 . S
C2166 C2167 1.327 . S
C2167 H2161 0.950 . S
C2167 C2166 1.327 . S
C2167 C2171 1.429 . S
C2168 C2151 1.574 . S
C2168 H2162 0.949 . S
C2168 C2172 1.368 . S
C2169 C2150 1.429 . S
C2169 C2163 1.429 . S
C2169 C2170 1.523 . S
C2170 C2151 1.368 . S
C2170 C2164 1.368 . S
C2170 C2169 1.523 . S
C2171 C2155 1.429 . S
C2171 C2167 1.429 . S
C2171 C2172 1.523 . S
C2172 C2156 1.368 . S
C2172 C2168 1.368 . S
C2172 C2171 1.523 . S
H2173 C2148 0.950 . S
H2174 C2150 0.950 . S
H2175 C2151 0.949 . S
H2176 C2153 0.950 . S
H2177 C2155 0.950 . S
C2178 C2179 1.349 . S
C2178 C2180 1.327 . S
C2178 H2203 0.950 . S
C2179 C2178 1.349 . S
C2179 C2195 1.349 . S
C2180 C2178 1.327 . S
C2180 C2199 1.429 . S
C2180 H2204 0.950 . S
C2181 C2198 1.574 . S
C2181 C2200 1.368 . S
C2181 H2205 0.949 . S
H2182 C2186 0.949 . S
C2183 C2184 1.349 . S
C2183 C2185 1.327 . S
C2183 H2206 0.950 . S
C2184 C2183 1.349 . S
C2184 C2196 1.349 . S
C2185 C2183 1.327 . S
C2185 C2201 1.429 . S
C2185 H2207 0.950 . S
C2186 H2182 0.949 . S
C2186 C2194 1.574 . S
C2186 C2202 1.368 . S
H2187 C2195 0.950 . S
H2188 C2193 0.950 . S
H2189 C2194 0.949 . S
H2190 C2196 0.950 . S
H2191 C2197 0.950 . S
H2192 C2198 0.949 . S
C2193 H2188 0.950 . S
C2193 C2195 1.327 . S
C2193 C2199 1.429 . S
C2194 C2186 1.574 . S
C2194 H2189 0.949 . S
C2194 C2200 1.368 . S
C2195 C2179 1.349 . S
C2195 H2187 0.950 . S
C2195 C2193 1.327 . S
C2196 C2184 1.349 . S
C2196 H2190 0.950 . S
C2196 C2197 1.327 . S
C2197 H2191 0.950 . S
C2197 C2196 1.327 . S
C2197 C2201 1.429 . S
C2198 C2181 1.574 . S
C2198 H2192 0.949 . S
C2198 C2202 1.368 . S
C2199 C2180 1.429 . S
C2199 C2193 1.429 . S
C2199 C2200 1.523 . S
C2200 C2181 1.368 . S
C2200 C2194 1.368 . S
C2200 C2199 1.523 . S
C2201 C2185 1.429 . S
C2201 C2197 1.429 . S
C2201 C2202 1.523 . S
C2202 C2186 1.368 . S
C2202 C2198 1.368 . S
C2202 C2201 1.523 . S
H2203 C2178 0.950 . S
H2204 C2180 0.950 . S
H2205 C2181 0.949 . S
H2206 C2183 0.950 . S
H2207 C2185 0.950 . S
C2208 C2209 1.349 . S
C2208 C2210 1.327 . S
C2208 H2233 0.950 . S
C2209 C2208 1.349 . S
C2209 C2225 1.349 . S
C2210 C2208 1.327 . S
C2210 C2229 1.429 . S
C2210 H2234 0.950 . S
C2211 C2228 1.574 . S
C2211 C2230 1.368 . S
C2211 H2235 0.949 . S
H2212 C2216 0.949 . S
C2213 C2214 1.349 . S
C2213 C2215 1.327 . S
C2213 H2236 0.950 . S
C2214 C2213 1.349 . S
C2214 C2226 1.349 . S
C2215 C2213 1.327 . S
C2215 C2231 1.429 . S
C2215 H2237 0.950 . S
C2216 H2212 0.949 . S
C2216 C2224 1.574 . S
C2216 C2232 1.368 . S
H2217 C2225 0.950 . S
H2218 C2223 0.950 . S
H2219 C2224 0.949 . S
H2220 C2226 0.950 . S
H2221 C2227 0.950 . S
H2222 C2228 0.949 . S
C2223 H2218 0.950 . S
C2223 C2225 1.327 . S
C2223 C2229 1.429 . S
C2224 C2216 1.574 . S
C2224 H2219 0.949 . S
C2224 C2230 1.368 . S
C2225 C2209 1.349 . S
C2225 H2217 0.950 . S
C2225 C2223 1.327 . S
C2226 C2214 1.349 . S
C2226 H2220 0.950 . S
C2226 C2227 1.327 . S
C2227 H2221 0.950 . S
C2227 C2226 1.327 . S
C2227 C2231 1.429 . S
C2228 C2211 1.574 . S
C2228 H2222 0.949 . S
C2228 C2232 1.368 . S
C2229 C2210 1.429 . S
C2229 C2223 1.429 . S
C2229 C2230 1.523 . S
C2230 C2211 1.368 . S
C2230 C2224 1.368 . S
C2230 C2229 1.523 . S
C2231 C2215 1.429 . S
C2231 C2227 1.429 . S
C2231 C2232 1.523 . S
C2232 C2216 1.368 . S
C2232 C2228 1.368 . S
C2232 C2231 1.523 . S
H2233 C2208 0.950 . S
H2234 C2210 0.950 . S
H2235 C2211 0.949 . S
H2236 C2213 0.950 . S
H2237 C2215 0.950 . S
C2238 C2239 1.349 . S
C2238 C2240 1.327 . S
C2238 H2263 0.950 . S
C2239 C2238 1.349 . S
C2239 C2255 1.349 . S
C2240 C2238 1.327 . S
C2240 C2259 1.429 . S
C2240 H2264 0.950 . S
C2241 C2258 1.574 . S
C2241 C2260 1.368 . S
C2241 H2265 0.949 . S
H2242 C2246 0.949 1_556 S
C2243 C2244 1.349 . S
C2243 C2245 1.327 1_556 S
C2243 H2266 0.950 . S
C2244 C2243 1.349 . S
C2244 C2256 1.349 . S
C2245 C2243 1.327 1_554 S
C2245 C2261 1.430 . S
C2245 H2267 0.950 . S
C2246 H2242 0.949 1_554 S
C2246 C2254 1.574 . S
C2246 C2262 1.368 . S
H2247 C2255 0.950 . S
H2248 C2253 0.950 . S
H2249 C2254 0.949 . S
H2250 C2256 0.950 . S
H2251 C2257 0.950 . S
H2252 C2258 0.949 . S
C2253 H2248 0.950 . S
C2253 C2255 1.327 . S
C2253 C2259 1.429 . S
C2254 C2246 1.574 . S
C2254 H2249 0.949 . S
C2254 C2260 1.368 . S
C2255 C2239 1.349 . S
C2255 H2247 0.950 . S
C2255 C2253 1.327 . S
C2256 C2244 1.349 . S
C2256 H2250 0.950 . S
C2256 C2257 1.327 . S
C2257 H2251 0.950 . S
C2257 C2256 1.327 . S
C2257 C2261 1.423 1_556 S
C2258 C2241 1.574 . S
C2258 H2252 0.949 . S
C2258 C2262 1.368 . S
C2259 C2240 1.429 . S
C2259 C2253 1.429 . S
C2259 C2260 1.523 . S
C2260 C2241 1.368 . S
C2260 C2254 1.368 . S
C2260 C2259 1.523 . S
C2261 C2245 1.430 . S
C2261 C2257 1.423 1_554 S
C2261 C2262 1.526 . S
C2262 C2246 1.368 . S
C2262 C2258 1.368 . S
C2262 C2261 1.526 . S
H2263 C2238 0.950 . S
H2264 C2240 0.950 . S
H2265 C2241 0.949 . S
H2266 C2243 0.950 . S
H2267 C2245 0.950 . S
C2268 C2269 1.349 . S
C2268 C2270 1.327 . S
C2268 H2293 0.950 . S
C2269 C2268 1.349 . S
C2269 C2285 1.349 . S
C2270 C2268 1.327 . S
C2270 C2289 1.429 . S
C2270 H2294 0.950 . S
C2271 C2288 1.574 . S
C2271 C2290 1.368 . S
C2271 H2295 0.949 . S
H2272 C2276 0.949 . S
C2273 C2274 1.349 . S
C2273 C2275 1.327 1_565 S
C2273 H2296 0.950 . S
C2274 C2273 1.349 . S
C2274 C2286 1.349 1_565 S
C2275 C2273 1.327 1_545 S
C2275 C2291 1.429 . S
C2275 H2297 0.950 . S
C2276 H2272 0.949 . S
C2276 C2284 1.574 . S
C2276 C2292 1.368 . S
H2277 C2285 0.950 . S
H2278 C2283 0.950 . S
H2279 C2284 0.949 . S
H2280 C2286 0.950 . S
H2281 C2287 0.950 . S
H2282 C2288 0.949 . S
C2283 H2278 0.950 . S
C2283 C2285 1.327 . S
C2283 C2289 1.429 . S
C2284 C2276 1.574 . S
C2284 H2279 0.949 . S
C2284 C2290 1.368 . S
C2285 C2269 1.349 . S
C2285 H2277 0.950 . S
C2285 C2283 1.327 . S
C2286 C2274 1.349 1_545 S
C2286 H2280 0.950 . S
C2286 C2287 1.327 . S
C2287 H2281 0.950 . S
C2287 C2286 1.327 . S
C2287 C2291 1.429 . S
C2288 C2271 1.574 . S
C2288 H2282 0.949 . S
C2288 C2292 1.368 . S
C2289 C2270 1.429 . S
C2289 C2283 1.429 . S
C2289 C2290 1.523 . S
C2290 C2271 1.368 . S
C2290 C2284 1.368 . S
C2290 C2289 1.523 . S
C2291 C2275 1.429 . S
C2291 C2287 1.429 . S
C2291 C2292 1.523 . S
C2292 C2276 1.368 . S
C2292 C2288 1.368 . S
C2292 C2291 1.523 . S
H2293 C2268 0.950 . S
H2294 C2270 0.950 . S
H2295 C2271 0.949 . S
H2296 C2273 0.950 . S
H2297 C2275 0.950 . S
C2298 C2299 1.349 . S
C2298 C2300 1.327 1_554 S
C2298 H2323 0.950 . S
C2299 C2298 1.349 . S
C2299 C2315 1.349 . S
C2300 C2298 1.327 1_556 S
C2300 C2319 1.430 . S
C2300 H2324 0.950 . S
C2301 C2318 1.574 . S
C2301 C2320 1.368 . S
C2301 H2325 0.949 1_556 S
H2302 C2306 0.949 . S
C2303 C2304 1.349 . S
C2303 C2305 1.327 1_545 S
C2303 H2326 0.950 . S
C2304 C2303 1.349 . S
C2304 C2316 1.349 1_545 S
C2305 C2303 1.327 1_565 S
C2305 C2321 1.429 . S
C2305 H2327 0.950 . S
C2306 H2302 0.949 . S
C2306 C2314 1.574 . S
C2306 C2322 1.368 . S
H2307 C2315 0.950 . S
H2308 C2313 0.950 . S
H2309 C2314 0.949 . S
H2310 C2316 0.950 . S
H2311 C2317 0.950 . S
H2312 C2318 0.949 . S
C2313 H2308 0.950 . S
C2313 C2315 1.327 . S
C2313 C2319 1.423 1_554 S
C2314 C2306 1.574 . S
C2314 H2309 0.949 . S
C2314 C2320 1.368 . S
C2315 C2299 1.349 . S
C2315 H2307 0.950 . S
C2315 C2313 1.327 . S
C2316 C2304 1.349 1_565 S
C2316 H2310 0.950 . S
C2316 C2317 1.327 . S
C2317 H2311 0.950 . S
C2317 C2316 1.327 . S
C2317 C2321 1.429 . S
C2318 C2301 1.574 . S
C2318 H2312 0.949 . S
C2318 C2322 1.368 . S
C2319 C2300 1.430 . S
C2319 C2313 1.423 1_556 S
C2319 C2320 1.526 . S
C2320 C2301 1.368 . S
C2320 C2314 1.368 . S
C2320 C2319 1.526 . S
C2321 C2305 1.429 . S
C2321 C2317 1.429 . S
C2321 C2322 1.523 . S
C2322 C2306 1.368 . S
C2322 C2318 1.368 . S
C2322 C2321 1.523 . S
H2323 C2298 0.950 . S
H2324 C2300 0.950 . S
H2325 C2301 0.949 1_554 S
H2326 C2303 0.950 . S
H2327 C2305 0.950 . S
C2328 C2329 1.349 . S
C2328 C2330 1.327 . S
C2328 H2353 0.950 . S
C2329 C2328 1.349 . S
C2329 C2345 1.349 . S
C2330 C2328 1.327 . S
C2330 C2349 1.429 . S
C2330 H2354 0.950 . S
C2331 C2348 1.574 . S
C2331 C2350 1.368 . S
C2331 H2355 0.949 . S
H2332 C2336 0.949 . S
C2333 C2334 1.349 . S
C2333 C2335 1.327 . S
C2333 H2356 0.950 . S
C2334 C2333 1.349 . S
C2334 C2346 1.349 . S
C2335 C2333 1.327 . S
C2335 C2351 1.429 . S
C2335 H2357 0.950 . S
C2336 H2332 0.949 . S
C2336 C2344 1.574 . S
C2336 C2352 1.368 . S
H2337 C2345 0.950 . S
H2338 C2343 0.950 . S
H2339 C2344 0.949 . S
H2340 C2346 0.950 . S
H2341 C2347 0.950 . S
H2342 C2348 0.949 . S
C2343 H2338 0.950 . S
C2343 C2345 1.327 . S
C2343 C2349 1.429 . S
C2344 C2336 1.574 . S
C2344 H2339 0.949 . S
C2344 C2350 1.368 . S
C2345 C2329 1.349 . S
C2345 H2337 0.950 . S
C2345 C2343 1.327 . S
C2346 C2334 1.349 . S
C2346 H2340 0.950 . S
C2346 C2347 1.327 . S
C2347 H2341 0.950 . S
C2347 C2346 1.327 . S
C2347 C2351 1.429 . S
C2348 C2331 1.574 . S
C2348 H2342 0.949 . S
C2348 C2352 1.368 . S
C2349 C2330 1.429 . S
C2349 C2343 1.429 . S
C2349 C2350 1.523 . S
C2350 C2331 1.368 . S
C2350 C2344 1.368 . S
C2350 C2349 1.523 . S
C2351 C2335 1.429 . S
C2351 C2347 1.429 . S
C2351 C2352 1.523 . S
C2352 C2336 1.368 . S
C2352 C2348 1.368 . S
C2352 C2351 1.523 . S
H2353 C2328 0.950 . S
H2354 C2330 0.950 . S
H2355 C2331 0.949 . S
H2356 C2333 0.950 . S
H2357 C2335 0.950 . S
C2358 C2359 1.349 1_556 S
C2358 C2360 1.327 . S
C2358 H2383 0.950 . S
C2359 C2358 1.349 1_554 S
C2359 C2375 1.349 . S
C2360 C2358 1.327 . S
C2360 C2379 1.429 . S
C2360 H2384 0.950 . S
C2361 C2378 1.574 . S
C2361 C2380 1.368 . S
C2361 H2385 0.949 . S
H2362 C2366 0.949 . S
C2363 C2364 1.349 . S
C2363 C2365 1.327 . S
C2363 H2386 0.950 . S
C2364 C2363 1.349 . S
C2364 C2376 1.349 . S
C2365 C2363 1.327 . S
C2365 C2381 1.425 1_455 S
C2365 H2387 0.950 . S
C2366 H2362 0.949 . S
C2366 C2374 1.574 . S
C2366 C2382 1.368 . S
H2367 C2375 0.950 . S
H2368 C2373 0.950 . S
H2369 C2374 0.949 . S
H2370 C2376 0.950 . S
H2371 C2377 0.950 1_655 S
H2372 C2378 0.949 . S
C2373 H2368 0.950 . S
C2373 C2375 1.327 1_556 S
C2373 C2379 1.429 . S
C2374 C2366 1.574 . S
C2374 H2369 0.949 . S
C2374 C2380 1.368 . S
C2375 C2359 1.349 . S
C2375 H2367 0.950 . S
C2375 C2373 1.327 1_554 S
C2376 C2364 1.349 . S
C2376 H2370 0.950 . S
C2376 C2377 1.327 . S
C2377 H2371 0.950 1_455 S
C2377 C2376 1.327 . S
C2377 C2381 1.428 1_455 S
C2378 C2361 1.574 . S
C2378 H2372 0.949 . S
C2378 C2382 1.368 . S
C2379 C2360 1.429 . S
C2379 C2373 1.429 . S
C2379 C2380 1.523 . S
C2380 C2361 1.368 . S
C2380 C2374 1.368 . S
C2380 C2379 1.523 . S
C2381 C2365 1.425 1_655 S
C2381 C2377 1.428 1_655 S
C2381 C2382 1.526 . S
C2382 C2366 1.368 . S
C2382 C2378 1.368 . S
C2382 C2381 1.526 . S
H2383 C2358 0.950 . S
H2384 C2360 0.950 . S
H2385 C2361 0.949 . S
H2386 C2363 0.950 . S
H2387 C2365 0.950 . S
C2388 C2389 1.349 . S
C2388 C2390 1.327 . S
C2388 H2413 0.950 . S
C2389 C2388 1.349 . S
C2389 C2405 1.349 . S
C2390 C2388 1.327 . S
C2390 C2409 1.429 . S
C2390 H2414 0.950 . S
C2391 C2408 1.574 . S
C2391 C2410 1.368 . S
C2391 H2415 0.949 . S
H2392 C2396 0.949 . S
C2393 C2394 1.349 . S
C2393 C2395 1.327 . S
C2393 H2416 0.950 . S
C2394 C2393 1.349 . S
C2394 C2406 1.349 . S
C2395 C2393 1.327 . S
C2395 C2411 1.424 1_655 S
C2395 H2417 0.950 . S
C2396 H2392 0.949 . S
C2396 C2404 1.574 . S
C2396 C2412 1.368 . S
H2397 C2405 0.950 . S
H2398 C2403 0.950 . S
H2399 C2404 0.949 . S
H2400 C2406 0.950 . S
H2401 C2407 0.950 . S
H2402 C2408 0.949 1_655 S
C2403 H2398 0.950 . S
C2403 C2405 1.327 . S
C2403 C2409 1.429 . S
C2404 C2396 1.574 . S
C2404 H2399 0.949 . S
C2404 C2410 1.368 . S
C2405 C2389 1.349 . S
C2405 H2397 0.950 . S
C2405 C2403 1.327 . S
C2406 C2394 1.349 . S
C2406 H2400 0.950 . S
C2406 C2407 1.327 1_655 S
C2407 H2401 0.950 . S
C2407 C2406 1.327 1_455 S
C2407 C2411 1.429 . S
C2408 C2391 1.574 . S
C2408 H2402 0.949 1_455 S
C2408 C2412 1.368 . S
C2409 C2390 1.429 . S
C2409 C2403 1.429 . S
C2409 C2410 1.523 . S
C2410 C2391 1.368 . S
C2410 C2404 1.368 . S
C2410 C2409 1.523 . S
C2411 C2395 1.424 1_455 S
C2411 C2407 1.429 . S
C2411 C2412 1.526 . S
C2412 C2396 1.368 . S
C2412 C2408 1.368 . S
C2412 C2411 1.526 . S
H2413 C2388 0.950 . S
H2414 C2390 0.950 . S
H2415 C2391 0.949 . S
H2416 C2393 0.950 . S
H2417 C2395 0.950 . S
C2418 C2419 1.349 . S
C2418 C2420 1.327 . S
C2418 H2443 0.950 . S
C2419 C2418 1.349 . S
C2419 C2435 1.349 . S
C2420 C2418 1.327 . S
C2420 C2439 1.429 . S
C2420 H2444 0.950 . S
C2421 C2438 1.574 . S
C2421 C2440 1.368 . S
C2421 H2445 0.949 . S
H2422 C2426 0.949 . S
C2423 C2424 1.349 . S
C2423 C2425 1.327 1_556 S
C2423 H2446 0.950 . S
C2424 C2423 1.349 . S
C2424 C2436 1.349 1_556 S
C2425 C2423 1.327 1_554 S
C2425 C2441 1.429 . S
C2425 H2447 0.950 . S
C2426 H2422 0.949 . S
C2426 C2434 1.574 . S
C2426 C2442 1.368 . S
H2427 C2435 0.950 . S
H2428 C2433 0.950 . S
H2429 C2434 0.949 . S
H2430 C2436 0.950 . S
H2431 C2437 0.950 . S
H2432 C2438 0.949 . S
C2433 H2428 0.950 . S
C2433 C2435 1.327 . S
C2433 C2439 1.429 . S
C2434 C2426 1.574 . S
C2434 H2429 0.949 . S
C2434 C2440 1.368 . S
C2435 C2419 1.349 . S
C2435 H2427 0.950 . S
C2435 C2433 1.327 . S
C2436 C2424 1.349 1_554 S
C2436 H2430 0.950 . S
C2436 C2437 1.327 . S
C2437 H2431 0.950 . S
C2437 C2436 1.327 . S
C2437 C2441 1.429 . S
C2438 C2421 1.574 . S
C2438 H2432 0.949 . S
C2438 C2442 1.368 . S
C2439 C2420 1.429 . S
C2439 C2433 1.429 . S
C2439 C2440 1.523 . S
C2440 C2421 1.368 . S
C2440 C2434 1.368 . S
C2440 C2439 1.523 . S
C2441 C2425 1.429 . S
C2441 C2437 1.429 . S
C2441 C2442 1.523 . S
C2442 C2426 1.368 . S
C2442 C2438 1.368 . S
C2442 C2441 1.523 . S
H2443 C2418 0.950 . S
H2444 C2420 0.950 . S
H2445 C2421 0.949 . S
H2446 C2423 0.950 . S
H2447 C2425 0.950 . S
C2448 C2449 1.349 . S
C2448 C2450 1.327 . S
C2448 H2473 0.950 . S
C2449 C2448 1.349 . S
C2449 C2465 1.349 . S
C2450 C2448 1.327 . S
C2450 C2469 1.429 . S
C2450 H2474 0.950 . S
C2451 C2468 1.574 . S
C2451 C2470 1.368 . S
C2451 H2475 0.949 . S
H2452 C2456 0.949 . S
C2453 C2454 1.349 . S
C2453 C2455 1.327 . S
C2453 H2476 0.950 . S
C2454 C2453 1.349 . S
C2454 C2466 1.349 . S
C2455 C2453 1.327 . S
C2455 C2471 1.429 . S
C2455 H2477 0.950 . S
C2456 H2452 0.949 . S
C2456 C2464 1.574 . S
C2456 C2472 1.368 . S
H2457 C2465 0.950 . S
H2458 C2463 0.950 . S
H2459 C2464 0.949 . S
H2460 C2466 0.950 . S
H2461 C2467 0.950 . S
H2462 C2468 0.949 . S
C2463 H2458 0.950 . S
C2463 C2465 1.327 . S
C2463 C2469 1.429 . S
C2464 C2456 1.574 . S
C2464 H2459 0.949 . S
C2464 C2470 1.368 . S
C2465 C2449 1.349 . S
C2465 H2457 0.950 . S
C2465 C2463 1.327 . S
C2466 C2454 1.349 . S
C2466 H2460 0.950 . S
C2466 C2467 1.327 . S
C2467 H2461 0.950 . S
C2467 C2466 1.327 . S
C2467 C2471 1.429 . S
C2468 C2451 1.574 . S
C2468 H2462 0.949 . S
C2468 C2472 1.368 . S
C2469 C2450 1.429 . S
C2469 C2463 1.429 . S
C2469 C2470 1.523 . S
C2470 C2451 1.368 . S
C2470 C2464 1.368 . S
C2470 C2469 1.523 . S
C2471 C2455 1.429 . S
C2471 C2467 1.429 . S
C2471 C2472 1.523 . S
C2472 C2456 1.368 . S
C2472 C2468 1.368 . S
C2472 C2471 1.523 . S
H2473 C2448 0.950 . S
H2474 C2450 0.950 . S
H2475 C2451 0.949 . S
H2476 C2453 0.950 . S
H2477 C2455 0.950 . S
C2478 C2479 1.349 . S
C2478 C2480 1.327 1_545 S
C2478 H2503 0.950 . S
C2479 C2478 1.349 . S
C2479 C2495 1.349 . S
C2480 C2478 1.327 1_565 S
C2480 C2499 1.430 . S
C2480 H2504 0.950 . S
C2481 C2498 1.574 . S
C2481 C2500 1.368 . S
C2481 H2505 0.949 1_565 S
H2482 C2486 0.949 . S
C2483 C2484 1.349 . S
C2483 C2485 1.327 1_455 S
C2483 H2506 0.950 . S
C2484 C2483 1.349 . S
C2484 C2496 1.349 1_455 S
C2485 C2483 1.327 1_655 S
C2485 C2501 1.429 . S
C2485 H2507 0.950 . S
C2486 H2482 0.949 . S
C2486 C2494 1.574 . S
C2486 C2502 1.368 . S
H2487 C2495 0.950 . S
H2488 C2493 0.950 . S
H2489 C2494 0.949 . S
H2490 C2496 0.950 . S
H2491 C2497 0.950 . S
H2492 C2498 0.949 . S
C2493 H2488 0.950 . S
C2493 C2495 1.327 . S
C2493 C2499 1.423 1_545 S
C2494 C2486 1.574 . S
C2494 H2489 0.949 . S
C2494 C2500 1.368 . S
C2495 C2479 1.349 . S
C2495 H2487 0.950 . S
C2495 C2493 1.327 . S
C2496 C2484 1.349 1_655 S
C2496 H2490 0.950 . S
C2496 C2497 1.327 . S
C2497 H2491 0.950 . S
C2497 C2496 1.327 . S
C2497 C2501 1.429 . S
C2498 C2481 1.574 . S
C2498 H2492 0.949 . S
C2498 C2502 1.368 . S
C2499 C2480 1.430 . S
C2499 C2493 1.423 1_565 S
C2499 C2500 1.526 . S
C2500 C2481 1.368 . S
C2500 C2494 1.368 . S
C2500 C2499 1.526 . S
C2501 C2485 1.429 . S
C2501 C2497 1.429 . S
C2501 C2502 1.523 . S
C2502 C2486 1.368 . S
C2502 C2498 1.368 . S
C2502 C2501 1.523 . S
H2503 C2478 0.950 . S
H2504 C2480 0.950 . S
H2505 C2481 0.949 1_545 S
H2506 C2483 0.950 . S
H2507 C2485 0.950 . S
C2508 C2509 1.349 . S
C2508 C2510 1.327 . S
C2508 H2533 0.950 . S
C2509 C2508 1.349 . S
C2509 C2525 1.349 . S
C2510 C2508 1.327 . S
C2510 C2529 1.429 . S
C2510 H2534 0.950 . S
C2511 C2528 1.574 . S
C2511 C2530 1.368 . S
C2511 H2535 0.949 . S
H2512 C2516 0.949 . S
C2513 C2514 1.349 . S
C2513 C2515 1.327 . S
C2513 H2536 0.950 . S
C2514 C2513 1.349 . S
C2514 C2526 1.349 . S
C2515 C2513 1.327 . S
C2515 C2531 1.426 1_565 S
C2515 H2537 0.950 . S
C2516 H2512 0.949 . S
C2516 C2524 1.574 . S
C2516 C2532 1.368 . S
H2517 C2525 0.950 . S
H2518 C2523 0.950 . S
H2519 C2524 0.949 . S
H2520 C2526 0.950 . S
H2521 C2527 0.950 . S
H2522 C2528 0.949 . S
C2523 H2518 0.950 . S
C2523 C2525 1.327 . S
C2523 C2529 1.429 . S
C2524 C2516 1.574 . S
C2524 H2519 0.949 . S
C2524 C2530 1.368 . S
C2525 C2509 1.349 . S
C2525 H2517 0.950 . S
C2525 C2523 1.327 . S
C2526 C2514 1.349 . S
C2526 H2520 0.950 . S
C2526 C2527 1.327 . S
C2527 H2521 0.950 . S
C2527 C2526 1.327 . S
C2527 C2531 1.427 1_565 S
C2528 C2511 1.574 . S
C2528 H2522 0.949 . S
C2528 C2532 1.368 . S
C2529 C2510 1.429 . S
C2529 C2523 1.429 . S
C2529 C2530 1.523 . S
C2530 C2511 1.368 . S
C2530 C2524 1.368 . S
C2530 C2529 1.523 . S
C2531 C2515 1.426 1_545 S
C2531 C2527 1.427 1_545 S
C2531 C2532 1.526 . S
C2532 C2516 1.368 . S
C2532 C2528 1.368 . S
C2532 C2531 1.526 . S
H2533 C2508 0.950 . S
H2534 C2510 0.950 . S
H2535 C2511 0.949 . S
H2536 C2513 0.950 . S
H2537 C2515 0.950 . S
C2538 C2539 1.349 . S
C2538 C2540 1.327 . S
C2538 H2563 0.950 . S
C2539 C2538 1.349 . S
C2539 C2555 1.349 . S
C2540 C2538 1.327 . S
C2540 C2559 1.429 . S
C2540 H2564 0.950 . S
C2541 C2558 1.574 . S
C2541 C2560 1.368 . S
C2541 H2565 0.949 . S
H2542 C2546 0.949 . S
C2543 C2544 1.349 . S
C2543 C2545 1.327 1_655 S
C2543 H2566 0.950 . S
C2544 C2543 1.349 . S
C2544 C2556 1.349 1_655 S
C2545 C2543 1.327 1_455 S
C2545 C2561 1.429 . S
C2545 H2567 0.950 . S
C2546 H2542 0.949 . S
C2546 C2554 1.574 . S
C2546 C2562 1.368 . S
H2547 C2555 0.950 . S
H2548 C2553 0.950 . S
H2549 C2554 0.949 . S
H2550 C2556 0.950 . S
H2551 C2557 0.950 . S
H2552 C2558 0.949 . S
C2553 H2548 0.950 . S
C2553 C2555 1.327 . S
C2553 C2559 1.429 . S
C2554 C2546 1.574 . S
C2554 H2549 0.949 . S
C2554 C2560 1.368 . S
C2555 C2539 1.349 . S
C2555 H2547 0.950 . S
C2555 C2553 1.327 . S
C2556 C2544 1.349 1_455 S
C2556 H2550 0.950 . S
C2556 C2557 1.327 . S
C2557 H2551 0.950 . S
C2557 C2556 1.327 . S
C2557 C2561 1.429 . S
C2558 C2541 1.574 . S
C2558 H2552 0.949 . S
C2558 C2562 1.368 . S
C2559 C2540 1.429 . S
C2559 C2553 1.429 . S
C2559 C2560 1.523 . S
C2560 C2541 1.368 . S
C2560 C2554 1.368 . S
C2560 C2559 1.523 . S
C2561 C2545 1.429 . S
C2561 C2557 1.429 . S
C2561 C2562 1.523 . S
C2562 C2546 1.368 . S
C2562 C2558 1.368 . S
C2562 C2561 1.523 . S
H2563 C2538 0.950 . S
H2564 C2540 0.950 . S
H2565 C2541 0.949 . S
H2566 C2543 0.950 . S
H2567 C2545 0.950 . S
C2568 C2569 1.349 . S
C2568 C2570 1.327 . S
C2568 H2593 0.950 . S
C2569 C2568 1.349 . S
C2569 C2585 1.349 . S
C2570 C2568 1.327 . S
C2570 C2589 1.429 . S
C2570 H2594 0.950 . S
C2571 C2588 1.574 . S
C2571 C2590 1.368 . S
C2571 H2595 0.949 . S
H2572 C2576 0.949 . S
C2573 C2574 1.349 . S
C2573 C2575 1.327 . S
C2573 H2596 0.950 . S
C2574 C2573 1.349 . S
C2574 C2586 1.349 . S
C2575 C2573 1.327 . S
C2575 C2591 1.429 . S
C2575 H2597 0.950 . S
C2576 H2572 0.949 . S
C2576 C2584 1.574 . S
C2576 C2592 1.368 . S
H2577 C2585 0.950 . S
H2578 C2583 0.950 . S
H2579 C2584 0.949 . S
H2580 C2586 0.950 . S
H2581 C2587 0.950 . S
H2582 C2588 0.949 . S
C2583 H2578 0.950 . S
C2583 C2585 1.327 . S
C2583 C2589 1.429 . S
C2584 C2576 1.574 . S
C2584 H2579 0.949 . S
C2584 C2590 1.368 . S
C2585 C2569 1.349 . S
C2585 H2577 0.950 . S
C2585 C2583 1.327 . S
C2586 C2574 1.349 . S
C2586 H2580 0.950 . S
C2586 C2587 1.327 . S
C2587 H2581 0.950 . S
C2587 C2586 1.327 . S
C2587 C2591 1.429 . S
C2588 C2571 1.574 . S
C2588 H2582 0.949 . S
C2588 C2592 1.368 . S
C2589 C2570 1.429 . S
C2589 C2583 1.429 . S
C2589 C2590 1.523 . S
C2590 C2571 1.368 . S
C2590 C2584 1.368 . S
C2590 C2589 1.523 . S
C2591 C2575 1.429 . S
C2591 C2587 1.429 . S
C2591 C2592 1.523 . S
C2592 C2576 1.368 . S
C2592 C2588 1.368 . S
C2592 C2591 1.523 . S
H2593 C2568 0.950 . S
H2594 C2570 0.950 . S
H2595 C2571 0.949 . S
H2596 C2573 0.950 . S
H2597 C2575 0.950 . S
C2598 C2599 1.349 . S
C2598 C2600 1.327 . S
C2598 H2623 0.950 . S
C2599 C2598 1.349 . S
C2599 C2615 1.349 . S
C2600 C2598 1.327 . S
C2600 C2619 1.429 . S
C2600 H2624 0.950 . S
C2601 C2618 1.574 . S
C2601 C2620 1.368 . S
C2601 H2625 0.949 . S
H2602 C2606 0.949 . S
C2603 C2604 1.349 . S
C2603 C2605 1.327 . S
C2603 H2626 0.950 . S
C2604 C2603 1.349 . S
C2604 C2616 1.349 . S
C2605 C2603 1.327 . S
C2605 C2621 1.423 1_554 S
C2605 H2627 0.950 . S
C2606 H2602 0.949 . S
C2606 C2614 1.574 . S
C2606 C2622 1.368 . S
H2607 C2615 0.950 . S
H2608 C2613 0.950 . S
H2609 C2614 0.949 . S
H2610 C2616 0.950 . S
H2611 C2617 0.950 . S
H2612 C2618 0.949 1_554 S
C2613 H2608 0.950 . S
C2613 C2615 1.327 . S
C2613 C2619 1.429 . S
C2614 C2606 1.574 . S
C2614 H2609 0.949 . S
C2614 C2620 1.368 . S
C2615 C2599 1.349 . S
C2615 H2607 0.950 . S
C2615 C2613 1.327 . S
C2616 C2604 1.349 . S
C2616 H2610 0.950 . S
C2616 C2617 1.327 1_554 S
C2617 H2611 0.950 . S
C2617 C2616 1.327 1_556 S
C2617 C2621 1.430 . S
C2618 C2601 1.574 . S
C2618 H2612 0.949 1_556 S
C2618 C2622 1.368 . S
C2619 C2600 1.429 . S
C2619 C2613 1.429 . S
C2619 C2620 1.523 . S
C2620 C2601 1.368 . S
C2620 C2614 1.368 . S
C2620 C2619 1.523 . S
C2621 C2605 1.423 1_556 S
C2621 C2617 1.430 . S
C2621 C2622 1.526 . S
C2622 C2606 1.368 . S
C2622 C2618 1.368 . S
C2622 C2621 1.526 . S
H2623 C2598 0.950 . S
H2624 C2600 0.950 . S
H2625 C2601 0.949 . S
H2626 C2603 0.950 . S
H2627 C2605 0.950 . S
C2628 C2629 1.349 . S
C2628 C2630 1.327 1_545 S
C2628 H2653 0.950 . S
C2629 C2628 1.349 . S
C2629 C2645 1.349 1_545 S
C2630 C2628 1.327 1_565 S
C2630 C2649 1.429 . S
C2630 H2654 0.950 . S
C2631 C2648 1.574 . S
C2631 C2650 1.368 . S
C2631 H2655 0.949 . S
H2632 C2636 0.949 . S
C2633 C2634 1.349 . S
C2633 C2635 1.327 . S
C2633 H2656 0.950 . S
C2634 C2633 1.349 . S
C2634 C2646 1.349 . S
C2635 C2633 1.327 . S
C2635 C2651 1.429 . S
C2635 H2657 0.950 . S
C2636 H2632 0.949 . S
C2636 C2644 1.574 . S
C2636 C2652 1.368 . S
H2637 C2645 0.950 . S
H2638 C2643 0.950 . S
H2639 C2644 0.949 . S
H2640 C2646 0.950 . S
H2641 C2647 0.950 . S
H2642 C2648 0.949 . S
C2643 H2638 0.950 . S
C2643 C2645 1.327 . S
C2643 C2649 1.429 . S
C2644 C2636 1.574 . S
C2644 H2639 0.949 . S
C2644 C2650 1.368 . S
C2645 C2629 1.349 1_565 S
C2645 H2637 0.950 . S
C2645 C2643 1.327 . S
C2646 C2634 1.349 . S
C2646 H2640 0.950 . S
C2646 C2647 1.327 . S
C2647 H2641 0.950 . S
C2647 C2646 1.327 . S
C2647 C2651 1.429 . S
C2648 C2631 1.574 . S
C2648 H2642 0.949 . S
C2648 C2652 1.368 . S
C2649 C2630 1.429 . S
C2649 C2643 1.429 . S
C2649 C2650 1.523 . S
C2650 C2631 1.368 . S
C2650 C2644 1.368 . S
C2650 C2649 1.523 . S
C2651 C2635 1.429 . S
C2651 C2647 1.429 . S
C2651 C2652 1.523 . S
C2652 C2636 1.368 . S
C2652 C2648 1.368 . S
C2652 C2651 1.523 . S
H2653 C2628 0.950 . S
H2654 C2630 0.950 . S
H2655 C2631 0.949 . S
H2656 C2633 0.950 . S
H2657 C2635 0.950 . S
C2658 C2659 1.349 . S
C2658 C2660 1.327 1_565 S
C2658 H2683 0.950 . S
C2659 C2658 1.349 . S
C2659 C2675 1.349 1_565 S
C2660 C2658 1.327 1_545 S
C2660 C2679 1.429 . S
C2660 H2684 0.950 . S
C2661 C2678 1.574 . S
C2661 C2680 1.368 . S
C2661 H2685 0.949 . S
H2662 C2666 0.949 1_556 S
C2663 C2664 1.349 . S
C2663 C2665 1.327 1_556 S
C2663 H2686 0.950 . S
C2664 C2663 1.349 . S
C2664 C2676 1.349 . S
C2665 C2663 1.327 1_554 S
C2665 C2681 1.430 . S
C2665 H2687 0.950 . S
C2666 H2662 0.949 1_554 S
C2666 C2674 1.574 . S
C2666 C2682 1.368 . S
H2667 C2675 0.950 . S
H2668 C2673 0.950 . S
H2669 C2674 0.949 . S
H2670 C2676 0.950 . S
H2671 C2677 0.950 . S
H2672 C2678 0.949 . S
C2673 H2668 0.950 . S
C2673 C2675 1.327 . S
C2673 C2679 1.429 . S
C2674 C2666 1.574 . S
C2674 H2669 0.949 . S
C2674 C2680 1.368 . S
C2675 C2659 1.349 1_545 S
C2675 H2667 0.950 . S
C2675 C2673 1.327 . S
C2676 C2664 1.349 . S
C2676 H2670 0.950 . S
C2676 C2677 1.327 . S
C2677 H2671 0.950 . S
C2677 C2676 1.327 . S
C2677 C2681 1.423 1_556 S
C2678 C2661 1.574 . S
C2678 H2672 0.949 . S
C2678 C2682 1.368 . S
C2679 C2660 1.429 . S
C2679 C2673 1.429 . S
C2679 C2680 1.523 . S
C2680 C2661 1.368 . S
C2680 C2674 1.368 . S
C2680 C2679 1.523 . S
C2681 C2665 1.430 . S
C2681 C2677 1.423 1_554 S
C2681 C2682 1.526 . S
C2682 C2666 1.368 . S
C2682 C2678 1.368 . S
C2682 C2681 1.526 . S
H2683 C2658 0.950 . S
H2684 C2660 0.950 . S
H2685 C2661 0.949 . S
H2686 C2663 0.950 . S
H2687 C2665 0.950 . S
C2688 C2689 1.349 . S
C2688 C2690 1.327 . S
C2688 H2713 0.950 . S
C2689 C2688 1.349 . S
C2689 C2705 1.349 . S
C2690 C2688 1.327 . S
C2690 C2709 1.429 . S
C2690 H2714 0.950 . S
C2691 C2708 1.574 . S
C2691 C2710 1.368 . S
C2691 H2715 0.949 . S
H2692 C2696 0.949 . S
C2693 C2694 1.349 . S
C2693 C2695 1.327 . S
C2693 H2716 0.950 . S
C2694 C2693 1.349 . S
C2694 C2706 1.349 . S
C2695 C2693 1.327 . S
C2695 C2711 1.429 . S
C2695 H2717 0.950 . S
C2696 H2692 0.949 . S
C2696 C2704 1.574 . S
C2696 C2712 1.368 . S
H2697 C2705 0.950 . S
H2698 C2703 0.950 . S
H2699 C2704 0.949 . S
H2700 C2706 0.950 . S
H2701 C2707 0.950 . S
H2702 C2708 0.949 . S
C2703 H2698 0.950 . S
C2703 C2705 1.327 . S
C2703 C2709 1.429 . S
C2704 C2696 1.574 . S
C2704 H2699 0.949 . S
C2704 C2710 1.368 . S
C2705 C2689 1.349 . S
C2705 H2697 0.950 . S
C2705 C2703 1.327 . S
C2706 C2694 1.349 . S
C2706 H2700 0.950 . S
C2706 C2707 1.327 . S
C2707 H2701 0.950 . S
C2707 C2706 1.327 . S
C2707 C2711 1.429 . S
C2708 C2691 1.574 . S
C2708 H2702 0.949 . S
C2708 C2712 1.368 . S
C2709 C2690 1.429 . S
C2709 C2703 1.429 . S
C2709 C2710 1.523 . S
C2710 C2691 1.368 . S
C2710 C2704 1.368 . S
C2710 C2709 1.523 . S
C2711 C2695 1.429 . S
C2711 C2707 1.429 . S
C2711 C2712 1.523 . S
C2712 C2696 1.368 . S
C2712 C2708 1.368 . S
C2712 C2711 1.523 . S
H2713 C2688 0.950 . S
H2714 C2690 0.950 . S
H2715 C2691 0.949 . S
H2716 C2693 0.950 . S
H2717 C2695 0.950 . S
C2718 C2719 1.349 . S
C2718 C2720 1.325 1_655 S
C2718 H2743 0.950 . S
C2719 C2718 1.349 . S
C2719 C2735 1.349 . S
C2720 C2718 1.325 1_455 S
C2720 C2739 1.429 . S
C2720 H2744 0.951 . S
C2721 C2738 1.574 . S
C2721 C2740 1.368 . S
C2721 H2745 0.949 . S
H2722 C2726 0.949 . S
C2723 C2724 1.349 . S
C2723 C2725 1.327 1_556 S
C2723 H2746 0.950 . S
C2724 C2723 1.349 . S
C2724 C2736 1.349 1_556 S
C2725 C2723 1.327 1_554 S
C2725 C2741 1.429 . S
C2725 H2747 0.950 . S
C2726 H2722 0.949 . S
C2726 C2734 1.574 . S
C2726 C2742 1.368 . S
H2727 C2735 0.950 . S
H2728 C2733 0.950 . S
H2729 C2734 0.949 . S
H2730 C2736 0.950 . S
H2731 C2737 0.950 . S
H2732 C2738 0.949 . S
C2733 H2728 0.950 . S
C2733 C2735 1.327 . S
C2733 C2739 1.425 1_655 S
C2734 C2726 1.574 . S
C2734 H2729 0.949 . S
C2734 C2740 1.368 . S
C2735 C2719 1.349 . S
C2735 H2727 0.950 . S
C2735 C2733 1.327 . S
C2736 C2724 1.349 1_554 S
C2736 H2730 0.950 . S
C2736 C2737 1.327 . S
C2737 H2731 0.950 . S
C2737 C2736 1.327 . S
C2737 C2741 1.429 . S
C2738 C2721 1.574 . S
C2738 H2732 0.949 . S
C2738 C2742 1.368 . S
C2739 C2720 1.429 . S
C2739 C2733 1.425 1_455 S
C2739 C2740 1.526 . S
C2740 C2721 1.368 . S
C2740 C2734 1.368 . S
C2740 C2739 1.526 . S
C2741 C2725 1.429 . S
C2741 C2737 1.429 . S
C2741 C2742 1.523 . S
C2742 C2726 1.368 . S
C2742 C2738 1.368 . S
C2742 C2741 1.523 . S
H2743 C2718 0.950 . S
H2744 C2720 0.951 . S
H2745 C2721 0.949 . S
H2746 C2723 0.950 . S
H2747 C2725 0.950 . S
C2748 C2749 1.349 . S
C2748 C2750 1.327 . S
C2748 H2773 0.950 . S
C2749 C2748 1.349 . S
C2749 C2765 1.349 . S
C2750 C2748 1.327 . S
C2750 C2769 1.423 1_455 S
C2750 H2774 0.950 . S
C2751 C2768 1.574 . S
C2751 C2770 1.368 . S
C2751 H2775 0.949 . S
H2752 C2756 0.949 . S
C2753 C2754 1.349 . S
C2753 C2755 1.327 . S
C2753 H2776 0.950 . S
C2754 C2753 1.349 . S
C2754 C2766 1.349 . S
C2755 C2753 1.327 . S
C2755 C2771 1.429 . S
C2755 H2777 0.950 . S
C2756 H2752 0.949 . S
C2756 C2764 1.574 . S
C2756 C2772 1.368 . S
H2757 C2765 0.950 . S
H2758 C2763 0.950 . S
H2759 C2764 0.949 1_455 S
H2760 C2766 0.950 . S
H2761 C2767 0.950 . S
H2762 C2768 0.949 . S
C2763 H2758 0.950 . S
C2763 C2765 1.327 1_655 S
C2763 C2769 1.430 . S
C2764 C2756 1.574 . S
C2764 H2759 0.949 1_655 S
C2764 C2770 1.368 . S
C2765 C2749 1.349 . S
C2765 H2757 0.950 . S
C2765 C2763 1.327 1_455 S
C2766 C2754 1.349 . S
C2766 H2760 0.950 . S
C2766 C2767 1.327 . S
C2767 H2761 0.950 . S
C2767 C2766 1.327 . S
C2767 C2771 1.429 . S
C2768 C2751 1.574 . S
C2768 H2762 0.949 . S
C2768 C2772 1.368 . S
C2769 C2750 1.423 1_655 S
C2769 C2763 1.430 . S
C2769 C2770 1.526 . S
C2770 C2751 1.368 . S
C2770 C2764 1.368 . S
C2770 C2769 1.526 . S
C2771 C2755 1.429 . S
C2771 C2767 1.429 . S
C2771 C2772 1.523 . S
C2772 C2756 1.368 . S
C2772 C2768 1.368 . S
C2772 C2771 1.523 . S
H2773 C2748 0.950 . S
H2774 C2750 0.950 . S
H2775 C2751 0.949 . S
H2776 C2753 0.950 . S
H2777 C2755 0.950 . S
C2778 C2779 1.349 . S
C2778 C2780 1.327 . S
C2778 H2803 0.950 . S
C2779 C2778 1.349 . S
C2779 C2795 1.349 . S
C2780 C2778 1.327 . S
C2780 C2799 1.429 . S
C2780 H2804 0.950 . S
C2781 C2798 1.574 . S
C2781 C2800 1.368 . S
C2781 H2805 0.949 . S
H2782 C2786 0.949 . S
C2783 C2784 1.349 1_556 S
C2783 C2785 1.327 . S
C2783 H2806 0.950 . S
C2784 C2783 1.349 1_554 S
C2784 C2796 1.349 . S
C2785 C2783 1.327 . S
C2785 C2801 1.429 . S
C2785 H2807 0.950 . S
C2786 H2782 0.949 . S
C2786 C2794 1.574 . S
C2786 C2802 1.368 . S
H2787 C2795 0.950 . S
H2788 C2793 0.950 . S
H2789 C2794 0.949 . S
H2790 C2796 0.950 . S
H2791 C2797 0.950 . S
H2792 C2798 0.949 . S
C2793 H2788 0.950 . S
C2793 C2795 1.327 . S
C2793 C2799 1.429 . S
C2794 C2786 1.574 . S
C2794 H2789 0.949 . S
C2794 C2800 1.368 . S
C2795 C2779 1.349 . S
C2795 H2787 0.950 . S
C2795 C2793 1.327 . S
C2796 C2784 1.349 . S
C2796 H2790 0.950 . S
C2796 C2797 1.327 1_554 S
C2797 H2791 0.950 . S
C2797 C2796 1.327 1_556 S
C2797 C2801 1.429 . S
C2798 C2781 1.574 . S
C2798 H2792 0.949 . S
C2798 C2802 1.368 . S
C2799 C2780 1.429 . S
C2799 C2793 1.429 . S
C2799 C2800 1.523 . S
C2800 C2781 1.368 . S
C2800 C2794 1.368 . S
C2800 C2799 1.523 . S
C2801 C2785 1.429 . S
C2801 C2797 1.429 . S
C2801 C2802 1.523 . S
C2802 C2786 1.368 . S
C2802 C2798 1.368 . S
C2802 C2801 1.523 . S
H2803 C2778 0.950 . S
H2804 C2780 0.950 . S
H2805 C2781 0.949 . S
H2806 C2783 0.950 . S
H2807 C2785 0.950 . S
C2808 C2809 1.349 . S
C2808 C2810 1.327 . S
C2808 H2833 0.950 . S
C2809 C2808 1.349 . S
C2809 C2825 1.349 . S
C2810 C2808 1.327 . S
C2810 C2829 1.429 . S
C2810 H2834 0.950 . S
C2811 C2828 1.574 . S
C2811 C2830 1.368 . S
C2811 H2835 0.949 . S
H2812 C2816 0.949 . S
C2813 C2814 1.349 . S
C2813 C2815 1.327 . S
C2813 H2836 0.950 . S
C2814 C2813 1.349 . S
C2814 C2826 1.349 . S
C2815 C2813 1.327 . S
C2815 C2831 1.429 . S
C2815 H2837 0.950 . S
C2816 H2812 0.949 . S
C2816 C2824 1.574 . S
C2816 C2832 1.368 . S
H2817 C2825 0.950 . S
H2818 C2823 0.950 . S
H2819 C2824 0.949 . S
H2820 C2826 0.950 . S
H2821 C2827 0.950 . S
H2822 C2828 0.949 . S
C2823 H2818 0.950 . S
C2823 C2825 1.327 . S
C2823 C2829 1.429 . S
C2824 C2816 1.574 . S
C2824 H2819 0.949 . S
C2824 C2830 1.368 . S
C2825 C2809 1.349 . S
C2825 H2817 0.950 . S
C2825 C2823 1.327 . S
C2826 C2814 1.349 . S
C2826 H2820 0.950 . S
C2826 C2827 1.327 . S
C2827 H2821 0.950 . S
C2827 C2826 1.327 . S
C2827 C2831 1.429 . S
C2828 C2811 1.574 . S
C2828 H2822 0.949 . S
C2828 C2832 1.368 . S
C2829 C2810 1.429 . S
C2829 C2823 1.429 . S
C2829 C2830 1.523 . S
C2830 C2811 1.368 . S
C2830 C2824 1.368 . S
C2830 C2829 1.523 . S
C2831 C2815 1.429 . S
C2831 C2827 1.429 . S
C2831 C2832 1.523 . S
C2832 C2816 1.368 . S
C2832 C2828 1.368 . S
C2832 C2831 1.523 . S
H2833 C2808 0.950 . S
H2834 C2810 0.950 . S
H2835 C2811 0.949 . S
H2836 C2813 0.950 . S
H2837 C2815 0.950 . S
C2838 C2839 1.349 1_455 S
C2838 C2840 1.327 . S
C2838 H2863 0.950 . S
C2839 C2838 1.349 1_655 S
C2839 C2855 1.349 . S
C2840 C2838 1.327 . S
C2840 C2859 1.429 . S
C2840 H2864 0.950 . S
C2841 C2858 1.574 . S
C2841 C2860 1.368 . S
C2841 H2865 0.949 . S
H2842 C2846 0.949 . S
C2843 C2844 1.349 . S
C2843 C2845 1.327 . S
C2843 H2866 0.950 . S
C2844 C2843 1.349 . S
C2844 C2856 1.349 . S
C2845 C2843 1.327 . S
C2845 C2861 1.424 1_565 S
C2845 H2867 0.950 . S
C2846 H2842 0.949 . S
C2846 C2854 1.574 . S
C2846 C2862 1.368 . S
H2847 C2855 0.950 . S
H2848 C2853 0.950 . S
H2849 C2854 0.949 . S
H2850 C2856 0.950 . S
H2851 C2857 0.950 . S
H2852 C2858 0.949 1_565 S
C2853 H2848 0.950 . S
C2853 C2855 1.327 1_455 S
C2853 C2859 1.429 . S
C2854 C2846 1.574 . S
C2854 H2849 0.949 . S
C2854 C2860 1.368 . S
C2855 C2839 1.349 . S
C2855 H2847 0.950 . S
C2855 C2853 1.327 1_655 S
C2856 C2844 1.349 . S
C2856 H2850 0.950 . S
C2856 C2857 1.327 1_565 S
C2857 H2851 0.950 . S
C2857 C2856 1.327 1_545 S
C2857 C2861 1.430 . S
C2858 C2841 1.574 . S
C2858 H2852 0.949 1_545 S
C2858 C2862 1.368 . S
C2859 C2840 1.429 . S
C2859 C2853 1.429 . S
C2859 C2860 1.523 . S
C2860 C2841 1.368 . S
C2860 C2854 1.368 . S
C2860 C2859 1.523 . S
C2861 C2845 1.424 1_545 S
C2861 C2857 1.430 . S
C2861 C2862 1.526 . S
C2862 C2846 1.368 . S
C2862 C2858 1.368 . S
C2862 C2861 1.526 . S
H2863 C2838 0.950 . S
H2864 C2840 0.950 . S
H2865 C2841 0.949 . S
H2866 C2843 0.950 . S
H2867 C2845 0.950 . S
C2868 C2869 1.349 . S
C2868 C2870 1.327 . S
C2868 H2893 0.950 . S
C2869 C2868 1.349 . S
C2869 C2885 1.349 . S
C2870 C2868 1.327 . S
C2870 C2889 1.429 . S
C2870 H2894 0.950 . S
C2871 C2888 1.574 . S
C2871 C2890 1.368 . S
C2871 H2895 0.949 . S
H2872 C2876 0.949 1_545 S
C2873 C2874 1.349 . S
C2873 C2875 1.327 1_545 S
C2873 H2896 0.950 . S
C2874 C2873 1.349 . S
C2874 C2886 1.349 . S
C2875 C2873 1.327 1_565 S
C2875 C2891 1.429 . S
C2875 H2897 0.950 . S
C2876 H2872 0.949 1_565 S
C2876 C2884 1.574 . S
C2876 C2892 1.368 . S
H2877 C2885 0.950 . S
H2878 C2883 0.950 . S
H2879 C2884 0.949 . S
H2880 C2886 0.950 . S
H2881 C2887 0.950 . S
H2882 C2888 0.949 . S
C2883 H2878 0.950 . S
C2883 C2885 1.327 . S
C2883 C2889 1.429 . S
C2884 C2876 1.574 . S
C2884 H2879 0.949 . S
C2884 C2890 1.368 . S
C2885 C2869 1.349 . S
C2885 H2877 0.950 . S
C2885 C2883 1.327 . S
C2886 C2874 1.349 . S
C2886 H2880 0.950 . S
C2886 C2887 1.327 . S
C2887 H2881 0.950 . S
C2887 C2886 1.327 . S
C2887 C2891 1.424 1_545 S
C2888 C2871 1.574 . S
C2888 H2882 0.949 . S
C2888 C2892 1.368 . S
C2889 C2870 1.429 . S
C2889 C2883 1.429 . S
C2889 C2890 1.523 . S
C2890 C2871 1.368 . S
C2890 C2884 1.368 . S
C2890 C2889 1.523 . S
C2891 C2875 1.429 . S
C2891 C2887 1.424 1_565 S
C2891 C2892 1.526 . S
C2892 C2876 1.368 . S
C2892 C2888 1.368 . S
C2892 C2891 1.526 . S
H2893 C2868 0.950 . S
H2894 C2870 0.950 . S
H2895 C2871 0.949 . S
H2896 C2873 0.950 . S
H2897 C2875 0.950 . S
C2898 C2899 1.357 . S
C2898 C2900 1.296 1_455 S
C2898 H2923 0.974 . S
C2899 C2898 1.357 . S
C2899 C2915 1.349 1_455 S
C2900 C2898 1.296 1_655 S
C2900 C2919 1.429 . S
C2900 H2924 0.950 . S
C2901 C2918 1.574 . S
C2901 C2920 1.368 . S
C2901 H2925 0.949 . S
H2902 C2906 0.949 . S
C2903 C2904 1.349 . S
C2903 C2905 1.327 . S
C2903 H2926 0.950 . S
C2904 C2903 1.349 . S
C2904 C2916 1.349 . S
C2905 C2903 1.327 . S
C2905 C2921 1.429 . S
C2905 H2927 0.950 . S
C2906 H2902 0.949 . S
C2906 C2914 1.574 . S
C2906 C2922 1.368 . S
H2907 C2915 0.950 . S
H2908 C2913 0.950 . S
H2909 C2914 0.949 . S
H2910 C2916 0.950 . S
H2911 C2917 0.950 . S
H2912 C2918 0.949 . S
C2913 H2908 0.950 . S
C2913 C2915 1.327 . S
C2913 C2919 1.429 . S
C2914 C2906 1.574 . S
C2914 H2909 0.949 . S
C2914 C2920 1.368 . S
C2915 C2899 1.349 1_655 S
C2915 H2907 0.950 . S
C2915 C2913 1.327 . S
C2916 C2904 1.349 . S
C2916 H2910 0.950 . S
C2916 C2917 1.327 . S
C2917 H2911 0.950 . S
C2917 C2916 1.327 . S
C2917 C2921 1.429 . S
C2918 C2901 1.574 . S
C2918 H2912 0.949 . S
C2918 C2922 1.368 . S
C2919 C2900 1.429 . S
C2919 C2913 1.429 . S
C2919 C2920 1.523 . S
C2920 C2901 1.368 . S
C2920 C2914 1.368 . S
C2920 C2919 1.523 . S
C2921 C2905 1.429 . S
C2921 C2917 1.429 . S
C2921 C2922 1.523 . S
C2922 C2906 1.368 . S
C2922 C2918 1.368 . S
C2922 C2921 1.523 . S
H2923 C2898 0.974 . S
H2924 C2900 0.950 . S
H2925 C2901 0.949 . S
H2926 C2903 0.950 . S
H2927 C2905 0.950 . S
C2928 C2929 1.349 . S
C2928 C2930 1.327 . S
C2928 H2953 0.950 . S
C2929 C2928 1.349 . S
C2929 C2945 1.349 . S
C2930 C2928 1.327 . S
C2930 C2949 1.429 . S
C2930 H2954 0.950 . S
C2931 C2948 1.574 . S
C2931 C2950 1.368 . S
C2931 H2955 0.949 . S
H2932 C2936 0.949 . S
C2933 C2934 1.349 . S
C2933 C2935 1.327 . S
C2933 H2956 0.950 . S
C2934 C2933 1.349 . S
C2934 C2946 1.349 . S
C2935 C2933 1.327 . S
C2935 C2951 1.429 . S
C2935 H2957 0.950 . S
C2936 H2932 0.949 . S
C2936 C2944 1.574 . S
C2936 C2952 1.368 . S
H2937 C2945 0.950 . S
H2938 C2943 0.950 . S
H2939 C2944 0.949 . S
H2940 C2946 0.950 . S
H2941 C2947 0.950 . S
H2942 C2948 0.949 . S
C2943 H2938 0.950 . S
C2943 C2945 1.327 . S
C2943 C2949 1.429 . S
C2944 C2936 1.574 . S
C2944 H2939 0.949 . S
C2944 C2950 1.368 . S
C2945 C2929 1.349 . S
C2945 H2937 0.950 . S
C2945 C2943 1.327 . S
C2946 C2934 1.349 . S
C2946 H2940 0.950 . S
C2946 C2947 1.327 . S
C2947 H2941 0.950 . S
C2947 C2946 1.327 . S
C2947 C2951 1.429 . S
C2948 C2931 1.574 . S
C2948 H2942 0.949 . S
C2948 C2952 1.368 . S
C2949 C2930 1.429 . S
C2949 C2943 1.429 . S
C2949 C2950 1.523 . S
C2950 C2931 1.368 . S
C2950 C2944 1.368 . S
C2950 C2949 1.523 . S
C2951 C2935 1.429 . S
C2951 C2947 1.429 . S
C2951 C2952 1.523 . S
C2952 C2936 1.368 . S
C2952 C2948 1.368 . S
C2952 C2951 1.523 . S
H2953 C2928 0.950 . S
H2954 C2930 0.950 . S
H2955 C2931 0.949 . S
H2956 C2933 0.950 . S
H2957 C2935 0.950 . S
C2958 C2959 1.349 . S
C2958 C2960 1.327 . S
C2958 H2983 0.950 . S
C2959 C2958 1.349 . S
C2959 C2975 1.349 . S
C2960 C2958 1.327 . S
C2960 C2979 1.429 . S
C2960 H2984 0.950 . S
C2961 C2978 1.574 . S
C2961 C2980 1.368 . S
C2961 H2985 0.949 . S
H2962 C2966 0.949 . S
C2963 C2964 1.349 . S
C2963 C2965 1.327 . S
C2963 H2986 0.950 . S
C2964 C2963 1.349 . S
C2964 C2976 1.349 . S
C2965 C2963 1.327 . S
C2965 C2981 1.429 . S
C2965 H2987 0.950 . S
C2966 H2962 0.949 . S
C2966 C2974 1.574 . S
C2966 C2982 1.368 . S
H2967 C2975 0.950 . S
H2968 C2973 0.950 . S
H2969 C2974 0.949 . S
H2970 C2976 0.950 . S
H2971 C2977 0.950 . S
H2972 C2978 0.949 1_556 S
C2973 H2968 0.950 . S
C2973 C2975 1.327 . S
C2973 C2979 1.429 . S
C2974 C2966 1.574 . S
C2974 H2969 0.949 . S
C2974 C2980 1.368 . S
C2975 C2959 1.349 . S
C2975 H2967 0.950 . S
C2975 C2973 1.327 . S
C2976 C2964 1.349 . S
C2976 H2970 0.950 . S
C2976 C2977 1.327 . S
C2977 H2971 0.950 . S
C2977 C2976 1.327 . S
C2977 C2981 1.429 . S
C2978 C2961 1.574 . S
C2978 H2972 0.949 1_554 S
C2978 C2982 1.368 . S
C2979 C2960 1.429 . S
C2979 C2973 1.429 . S
C2979 C2980 1.523 . S
C2980 C2961 1.368 . S
C2980 C2974 1.368 . S
C2980 C2979 1.523 . S
C2981 C2965 1.429 . S
C2981 C2977 1.429 . S
C2981 C2982 1.523 1_556 S
C2982 C2966 1.368 . S
C2982 C2978 1.368 . S
C2982 C2981 1.523 1_554 S
H2983 C2958 0.950 . S
H2984 C2960 0.950 . S
H2985 C2961 0.949 . S
H2986 C2963 0.950 . S
H2987 C2965 0.950 . S
C2988 C2989 1.349 . S
C2988 C2990 1.327 . S
C2988 H3013 0.950 . S
C2989 C2988 1.349 . S
C2989 C3005 1.349 . S
C2990 C2988 1.327 . S
C2990 C3009 1.429 . S
C2990 H3014 0.950 . S
C2991 C3008 1.574 . S
C2991 C3010 1.368 . S
C2991 H3015 0.949 . S
H2992 C2996 0.949 . S
C2993 C2994 1.349 . S
C2993 C2995 1.327 . S
C2993 H3016 0.950 . S
C2994 C2993 1.349 . S
C2994 C3006 1.349 . S
C2995 C2993 1.327 . S
C2995 C3011 1.429 . S
C2995 H3017 0.950 . S
C2996 H2992 0.949 . S
C2996 C3004 1.574 . S
C2996 C3012 1.368 . S
H2997 C3005 0.950 . S
H2998 C3003 0.950 . S
H2999 C3004 0.949 . S
H3000 C3006 0.950 . S
H3001 C3007 0.950 . S
H3002 C3008 0.949 . S
C3003 H2998 0.950 . S
C3003 C3005 1.327 . S
C3003 C3009 1.429 . S
C3004 C2996 1.574 . S
C3004 H2999 0.949 . S
C3004 C3010 1.368 . S
C3005 C2989 1.349 . S
C3005 H2997 0.950 . S
C3005 C3003 1.327 . S
C3006 C2994 1.349 . S
C3006 H3000 0.950 . S
C3006 C3007 1.327 . S
C3007 H3001 0.950 . S
C3007 C3006 1.327 . S
C3007 C3011 1.429 . S
C3008 C2991 1.574 . S
C3008 H3002 0.949 . S
C3008 C3012 1.368 . S
C3009 C2990 1.429 . S
C3009 C3003 1.429 . S
C3009 C3010 1.523 . S
C3010 C2991 1.368 . S
C3010 C3004 1.368 . S
C3010 C3009 1.523 . S
C3011 C2995 1.429 . S
C3011 C3007 1.429 . S
C3011 C3012 1.523 . S
C3012 C2996 1.368 . S
C3012 C3008 1.368 . S
C3012 C3011 1.523 . S
H3013 C2988 0.950 . S
H3014 C2990 0.950 . S
H3015 C2991 0.949 . S
H3016 C2993 0.950 . S
H3017 C2995 0.950 . S
C3018 C3019 1.349 . S
C3018 C3020 1.327 . S
C3018 H3043 0.950 . S
C3019 C3018 1.349 . S
C3019 C3035 1.349 . S
C3020 C3018 1.327 . S
C3020 C3039 1.429 . S
C3020 H3044 0.950 . S
C3021 C3038 1.574 . S
C3021 C3040 1.368 . S
C3021 H3045 0.949 . S
H3022 C3026 0.949 . S
C3023 C3024 1.349 . S
C3023 C3025 1.327 . S
C3023 H3046 0.950 . S
C3024 C3023 1.349 . S
C3024 C3036 1.349 . S
C3025 C3023 1.327 . S
C3025 C3041 1.429 . S
C3025 H3047 0.950 1_554 S
C3026 H3022 0.949 . S
C3026 C3034 1.574 1_554 S
C3026 C3042 1.368 1_554 S
H3027 C3035 0.950 . S
H3028 C3033 0.950 . S
H3029 C3034 0.949 . S
H3030 C3036 0.950 . S
H3031 C3037 0.950 . S
H3032 C3038 0.949 . S
C3033 H3028 0.950 . S
C3033 C3035 1.327 . S
C3033 C3039 1.429 . S
C3034 C3026 1.574 1_556 S
C3034 H3029 0.949 . S
C3034 C3040 1.368 . S
C3035 C3019 1.349 . S
C3035 H3027 0.950 . S
C3035 C3033 1.327 . S
C3036 C3024 1.349 . S
C3036 H3030 0.950 . S
C3036 C3037 1.327 . S
C3037 H3031 0.950 . S
C3037 C3036 1.327 . S
C3037 C3041 1.429 . S
C3038 C3021 1.574 . S
C3038 H3032 0.949 . S
C3038 C3042 1.368 . S
C3039 C3020 1.429 . S
C3039 C3033 1.429 . S
C3039 C3040 1.523 . S
C3040 C3021 1.368 . S
C3040 C3034 1.368 . S
C3040 C3039 1.523 . S
C3041 C3025 1.429 . S
C3041 C3037 1.429 . S
C3041 C3042 1.523 1_554 S
C3042 C3026 1.368 1_556 S
C3042 C3038 1.368 . S
C3042 C3041 1.523 1_556 S
H3043 C3018 0.950 . S
H3044 C3020 0.950 . S
H3045 C3021 0.949 . S
H3046 C3023 0.950 . S
H3047 C3025 0.950 1_556 S
C3048 C3049 1.349 . S
C3048 C3050 1.327 . S
C3048 H3073 0.950 . S
C3049 C3048 1.349 . S
C3049 C3065 1.349 . S
C3050 C3048 1.327 . S
C3050 C3069 1.429 . S
C3050 H3074 0.950 . S
C3051 C3068 1.574 . S
C3051 C3070 1.368 . S
C3051 H3075 0.949 . S
H3052 C3056 0.949 . S
C3053 C3054 1.349 . S
C3053 C3055 1.327 . S
C3053 H3076 0.950 . S
C3054 C3053 1.349 . S
C3054 C3066 1.349 . S
C3055 C3053 1.327 . S
C3055 C3071 1.429 . S
C3055 H3077 0.950 . S
C3056 H3052 0.949 . S
C3056 C3064 1.574 . S
C3056 C3072 1.368 . S
H3057 C3065 0.950 . S
H3058 C3063 0.950 . S
H3059 C3064 0.949 . S
H3060 C3066 0.950 . S
H3061 C3067 0.950 . S
H3062 C3068 0.949 . S
C3063 H3058 0.950 . S
C3063 C3065 1.327 . S
C3063 C3069 1.429 . S
C3064 C3056 1.574 . S
C3064 H3059 0.949 . S
C3064 C3070 1.368 . S
C3065 C3049 1.349 . S
C3065 H3057 0.950 . S
C3065 C3063 1.327 . S
C3066 C3054 1.349 . S
C3066 H3060 0.950 . S
C3066 C3067 1.327 . S
C3067 H3061 0.950 . S
C3067 C3066 1.327 . S
C3067 C3071 1.429 . S
C3068 C3051 1.574 . S
C3068 H3062 0.949 . S
C3068 C3072 1.368 . S
C3069 C3050 1.429 . S
C3069 C3063 1.429 . S
C3069 C3070 1.523 . S
C3070 C3051 1.368 . S
C3070 C3064 1.368 . S
C3070 C3069 1.523 . S
C3071 C3055 1.429 . S
C3071 C3067 1.429 . S
C3071 C3072 1.523 . S
C3072 C3056 1.368 . S
C3072 C3068 1.368 . S
C3072 C3071 1.523 . S
H3073 C3048 0.950 . S
H3074 C3050 0.950 . S
H3075 C3051 0.949 . S
H3076 C3053 0.950 . S
H3077 C3055 0.950 . S
C3078 C3079 1.349 . S
C3078 C3080 1.327 . S
C3078 H3103 0.950 . S
C3079 C3078 1.349 . S
C3079 C3095 1.349 . S
C3080 C3078 1.327 . S
C3080 C3099 1.429 . S
C3080 H3104 0.950 . S
C3081 C3098 1.574 1_655 S
C3081 C3100 1.368 . S
C3081 H3105 0.949 . S
H3082 C3086 0.949 . S
C3083 C3084 1.349 . S
C3083 C3085 1.327 . S
C3083 H3106 0.950 . S
C3084 C3083 1.349 . S
C3084 C3096 1.349 . S
C3085 C3083 1.327 . S
C3085 C3101 1.429 . S
C3085 H3107 0.950 . S
C3086 H3082 0.949 . S
C3086 C3094 1.574 . S
C3086 C3102 1.368 . S
H3087 C3095 0.950 . S
H3088 C3093 0.950 . S
H3089 C3094 0.949 . S
H3090 C3096 0.950 . S
H3091 C3097 0.950 1_655 S
H3092 C3098 0.949 . S
C3093 H3088 0.950 . S
C3093 C3095 1.327 . S
C3093 C3099 1.429 . S
C3094 C3086 1.574 . S
C3094 H3089 0.949 . S
C3094 C3100 1.368 . S
C3095 C3079 1.349 . S
C3095 H3087 0.950 . S
C3095 C3093 1.327 . S
C3096 C3084 1.349 . S
C3096 H3090 0.950 . S
C3096 C3097 1.327 . S
C3097 H3091 0.950 1_455 S
C3097 C3096 1.327 . S
C3097 C3101 1.429 . S
C3098 C3081 1.574 1_455 S
C3098 H3092 0.949 . S
C3098 C3102 1.368 1_455 S
C3099 C3080 1.429 . S
C3099 C3093 1.429 . S
C3099 C3100 1.523 . S
C3100 C3081 1.368 . S
C3100 C3094 1.368 . S
C3100 C3099 1.523 . S
C3101 C3085 1.429 . S
C3101 C3097 1.429 . S
C3101 C3102 1.523 1_455 S
C3102 C3086 1.368 . S
C3102 C3098 1.368 1_655 S
C3102 C3101 1.523 1_655 S
H3103 C3078 0.950 . S
H3104 C3080 0.950 . S
H3105 C3081 0.949 . S
H3106 C3083 0.950 . S
H3107 C3085 0.950 . S
C3108 C3109 1.349 . S
C3108 C3110 1.327 . S
C3108 H3133 0.950 . S
C3109 C3108 1.349 . S
C3109 C3125 1.349 . S
C3110 C3108 1.327 . S
C3110 C3129 1.429 . S
C3110 H3134 0.950 1_655 S
C3111 C3128 1.568 1_655 S
C3111 C3130 1.366 1_655 S
C3111 H3135 0.957 . S
H3112 C3116 0.949 . S
C3113 C3114 1.349 . S
C3113 C3115 1.327 . S
C3113 H3136 0.950 . S
C3114 C3113 1.349 . S
C3114 C3126 1.349 . S
C3115 C3113 1.327 . S
C3115 C3131 1.429 . S
C3115 H3137 0.950 . S
C3116 H3112 0.949 . S
C3116 C3124 1.574 . S
C3116 C3132 1.368 . S
H3117 C3125 0.950 . S
H3118 C3123 0.950 . S
H3119 C3124 0.949 . S
H3120 C3126 0.950 . S
H3121 C3127 0.950 . S
H3122 C3128 0.949 . S
C3123 H3118 0.950 . S
C3123 C3125 1.327 . S
C3123 C3129 1.429 . S
C3124 C3116 1.574 . S
C3124 H3119 0.949 . S
C3124 C3130 1.368 . S
C3125 C3109 1.349 . S
C3125 H3117 0.950 . S
C3125 C3123 1.327 . S
C3126 C3114 1.349 . S
C3126 H3120 0.950 . S
C3126 C3127 1.327 . S
C3127 H3121 0.950 . S
C3127 C3126 1.327 . S
C3127 C3131 1.429 . S
C3128 C3111 1.568 1_455 S
C3128 H3122 0.949 . S
C3128 C3132 1.368 . S
C3129 C3110 1.429 . S
C3129 C3123 1.429 . S
C3129 C3130 1.523 1_655 S
C3130 C3111 1.366 1_455 S
C3130 C3124 1.368 . S
C3130 C3129 1.523 1_455 S
C3131 C3115 1.429 . S
C3131 C3127 1.429 . S
C3131 C3132 1.523 . S
C3132 C3116 1.368 . S
C3132 C3128 1.368 . S
C3132 C3131 1.523 . S
H3133 C3108 0.950 . S
H3134 C3110 0.950 1_455 S
H3135 C3111 0.957 . S
H3136 C3113 0.950 . S
H3137 C3115 0.950 . S
C3138 C3139 1.349 . S
C3138 C3140 1.327 . S
C3138 H3163 0.950 . S
C3139 C3138 1.349 . S
C3139 C3155 1.349 . S
C3140 C3138 1.327 . S
C3140 C3159 1.429 . S
C3140 H3164 0.950 . S
C3141 C3158 1.574 . S
C3141 C3160 1.368 . S
C3141 H3165 0.949 . S
H3142 C3146 0.949 . S
C3143 C3144 1.349 . S
C3143 C3145 1.327 . S
C3143 H3166 0.950 . S
C3144 C3143 1.349 . S
C3144 C3156 1.349 . S
C3145 C3143 1.327 . S
C3145 C3161 1.429 . S
C3145 H3167 0.950 . S
C3146 H3142 0.949 . S
C3146 C3154 1.574 . S
C3146 C3162 1.368 . S
H3147 C3155 0.950 . S
H3148 C3153 0.950 . S
H3149 C3154 0.949 . S
H3150 C3156 0.950 . S
H3151 C3157 0.950 . S
H3152 C3158 0.949 . S
C3153 H3148 0.950 . S
C3153 C3155 1.327 . S
C3153 C3159 1.429 . S
C3154 C3146 1.574 . S
C3154 H3149 0.949 . S
C3154 C3160 1.368 . S
C3155 C3139 1.349 . S
C3155 H3147 0.950 . S
C3155 C3153 1.327 . S
C3156 C3144 1.349 . S
C3156 H3150 0.950 . S
C3156 C3157 1.327 . S
C3157 H3151 0.950 . S
C3157 C3156 1.327 . S
C3157 C3161 1.429 . S
C3158 C3141 1.574 . S
C3158 H3152 0.949 . S
C3158 C3162 1.368 . S
C3159 C3140 1.429 . S
C3159 C3153 1.429 . S
C3159 C3160 1.523 . S
C3160 C3141 1.368 . S
C3160 C3154 1.368 . S
C3160 C3159 1.523 . S
C3161 C3145 1.429 . S
C3161 C3157 1.429 . S
C3161 C3162 1.523 . S
C3162 C3146 1.368 . S
C3162 C3158 1.368 . S
C3162 C3161 1.523 . S
H3163 C3138 0.950 . S
H3164 C3140 0.950 . S
H3165 C3141 0.949 . S
H3166 C3143 0.950 . S
H3167 C3145 0.950 . S
C3168 C3169 1.349 . S
C3168 C3170 1.327 . S
C3168 H3193 0.950 . S
C3169 C3168 1.349 . S
C3169 C3185 1.349 . S
C3170 C3168 1.327 . S
C3170 C3189 1.429 . S
C3170 H3194 0.950 . S
C3171 C3188 1.574 . S
C3171 C3190 1.368 . S
C3171 H3195 0.949 . S
H3172 C3176 0.949 . S
C3173 C3174 1.349 . S
C3173 C3175 1.327 . S
C3173 H3196 0.950 . S
C3174 C3173 1.349 . S
C3174 C3186 1.349 . S
C3175 C3173 1.327 . S
C3175 C3191 1.429 . S
C3175 H3197 0.950 . S
C3176 H3172 0.949 . S
C3176 C3184 1.574 . S
C3176 C3192 1.368 . S
H3177 C3185 0.950 . S
H3178 C3183 0.950 . S
H3179 C3184 0.949 . S
H3180 C3186 0.950 . S
H3181 C3187 0.950 . S
H3182 C3188 0.949 . S
C3183 H3178 0.950 . S
C3183 C3185 1.327 . S
C3183 C3189 1.429 . S
C3184 C3176 1.574 . S
C3184 H3179 0.949 . S
C3184 C3190 1.368 . S
C3185 C3169 1.349 . S
C3185 H3177 0.950 . S
C3185 C3183 1.327 . S
C3186 C3174 1.349 . S
C3186 H3180 0.950 . S
C3186 C3187 1.327 . S
C3187 H3181 0.950 . S
C3187 C3186 1.327 . S
C3187 C3191 1.429 . S
C3188 C3171 1.574 . S
C3188 H3182 0.949 . S
C3188 C3192 1.368 . S
C3189 C3170 1.429 . S
C3189 C3183 1.429 . S
C3189 C3190 1.523 . S
C3190 C3171 1.368 . S
C3190 C3184 1.368 . S
C3190 C3189 1.523 . S
C3191 C3175 1.429 . S
C3191 C3187 1.429 . S
C3191 C3192 1.523 . S
C3192 C3176 1.368 . S
C3192 C3188 1.368 . S
C3192 C3191 1.523 . S
H3193 C3168 0.950 . S
H3194 C3170 0.950 . S
H3195 C3171 0.949 . S
H3196 C3173 0.950 . S
H3197 C3175 0.950 . S
C3198 C3199 1.349 . S
C3198 C3200 1.327 . S
C3198 H3223 0.950 . S
C3199 C3198 1.349 . S
C3199 C3215 1.349 . S
C3200 C3198 1.327 . S
C3200 C3219 1.429 . S
C3200 H3224 0.950 . S
C3201 C3218 1.574 . S
C3201 C3220 1.368 . S
C3201 H3225 0.949 . S
H3202 C3206 0.982 . S
C3203 C3204 1.349 . S
C3203 C3205 1.327 . S
C3203 H3226 0.950 . S
C3204 C3203 1.349 . S
C3204 C3216 1.349 . S
C3205 C3203 1.327 . S
C3205 C3221 1.429 . S
C3205 H3227 0.950 1_545 S
C3206 H3202 0.982 . S
C3206 C3214 1.549 1_545 S
C3206 C3222 1.357 1_545 S
H3207 C3215 0.950 . S
H3208 C3213 0.950 . S
H3209 C3214 0.949 . S
H3210 C3216 0.950 . S
H3211 C3217 0.950 . S
H3212 C3218 0.949 . S
C3213 H3208 0.950 . S
C3213 C3215 1.327 . S
C3213 C3219 1.429 . S
C3214 C3206 1.549 1_565 S
C3214 H3209 0.949 . S
C3214 C3220 1.368 . S
C3215 C3199 1.349 . S
C3215 H3207 0.950 . S
C3215 C3213 1.327 . S
C3216 C3204 1.349 . S
C3216 H3210 0.950 . S
C3216 C3217 1.327 . S
C3217 H3211 0.950 . S
C3217 C3216 1.327 . S
C3217 C3221 1.429 . S
C3218 C3201 1.574 . S
C3218 H3212 0.949 . S
C3218 C3222 1.368 . S
C3219 C3200 1.429 . S
C3219 C3213 1.429 . S
C3219 C3220 1.523 . S
C3220 C3201 1.368 . S
C3220 C3214 1.368 . S
C3220 C3219 1.523 . S
C3221 C3205 1.429 . S
C3221 C3217 1.429 . S
C3221 C3222 1.523 1_545 S
C3222 C3206 1.357 1_565 S
C3222 C3218 1.368 . S
C3222 C3221 1.523 1_565 S
H3223 C3198 0.950 . S
H3224 C3200 0.950 . S
H3225 C3201 0.949 . S
H3226 C3203 0.950 . S
H3227 C3205 0.950 1_565 S
C3228 C3229 1.349 . S
C3228 C3230 1.327 . S
C3228 H3253 0.950 . S
C3229 C3228 1.349 . S
C3229 C3245 1.349 . S
C3230 C3228 1.327 . S
C3230 C3249 1.429 . S
C3230 H3254 0.950 . S
C3231 C3248 1.574 . S
C3231 C3250 1.368 . S
C3231 H3255 0.949 1_545 S
H3232 C3236 0.949 . S
C3233 C3234 1.349 . S
C3233 C3235 1.327 . S
C3233 H3256 0.950 . S
C3234 C3233 1.349 . S
C3234 C3246 1.349 . S
C3235 C3233 1.327 . S
C3235 C3251 1.429 . S
C3235 H3257 0.950 . S
C3236 H3232 0.949 . S
C3236 C3244 1.574 . S
C3236 C3252 1.368 . S
H3237 C3245 0.950 . S
H3238 C3243 0.950 . S
H3239 C3244 0.949 . S
H3240 C3246 0.950 . S
H3241 C3247 0.950 . S
H3242 C3248 0.949 . S
C3243 H3238 0.950 . S
C3243 C3245 1.327 . S
C3243 C3249 1.429 . S
C3244 C3236 1.574 . S
C3244 H3239 0.949 . S
C3244 C3250 1.368 . S
C3245 C3229 1.349 . S
C3245 H3237 0.950 . S
C3245 C3243 1.327 . S
C3246 C3234 1.349 . S
C3246 H3240 0.950 . S
C3246 C3247 1.327 . S
C3247 H3241 0.950 . S
C3247 C3246 1.327 . S
C3247 C3251 1.429 . S
C3248 C3231 1.574 . S
C3248 H3242 0.949 . S
C3248 C3252 1.368 . S
C3249 C3230 1.429 . S
C3249 C3243 1.429 . S
C3249 C3250 1.523 1_565 S
C3250 C3231 1.368 . S
C3250 C3244 1.368 . S
C3250 C3249 1.523 1_545 S
C3251 C3235 1.429 . S
C3251 C3247 1.429 . S
C3251 C3252 1.523 . S
C3252 C3236 1.368 . S
C3252 C3248 1.368 . S
C3252 C3251 1.523 . S
H3253 C3228 0.950 . S
H3254 C3230 0.950 . S
H3255 C3231 0.949 1_565 S
H3256 C3233 0.950 . S
H3257 C3235 0.950 . S
C3258 C3259 1.349 . S
C3258 C3260 1.327 . S
C3258 H3283 0.950 . S
C3259 C3258 1.349 . S
C3259 C3275 1.349 . S
C3260 C3258 1.327 . S
C3260 C3279 1.429 . S
C3260 H3284 0.950 . S
C3261 C3278 1.574 . S
C3261 C3280 1.368 . S
C3261 H3285 0.949 . S
H3262 C3266 0.949 . S
C3263 C3264 1.349 . S
C3263 C3265 1.327 . S
C3263 H3286 0.950 . S
C3264 C3263 1.349 . S
C3264 C3276 1.349 . S
C3265 C3263 1.327 . S
C3265 C3281 1.429 . S
C3265 H3287 0.950 . S
C3266 H3262 0.949 . S
C3266 C3274 1.574 . S
C3266 C3282 1.368 . S
H3267 C3275 0.950 . S
H3268 C3273 0.950 . S
H3269 C3274 0.949 . S
H3270 C3276 0.950 . S
H3271 C3277 0.950 . S
H3272 C3278 0.949 . S
C3273 H3268 0.950 . S
C3273 C3275 1.327 . S
C3273 C3279 1.429 . S
C3274 C3266 1.574 . S
C3274 H3269 0.949 . S
C3274 C3280 1.368 . S
C3275 C3259 1.349 . S
C3275 H3267 0.950 . S
C3275 C3273 1.327 . S
C3276 C3264 1.349 . S
C3276 H3270 0.950 . S
C3276 C3277 1.327 . S
C3277 H3271 0.950 . S
C3277 C3276 1.327 . S
C3277 C3281 1.429 . S
C3278 C3261 1.574 . S
C3278 H3272 0.949 . S
C3278 C3282 1.368 . S
C3279 C3260 1.429 . S
C3279 C3273 1.429 . S
C3279 C3280 1.523 . S
C3280 C3261 1.368 . S
C3280 C3274 1.368 . S
C3280 C3279 1.523 . S
C3281 C3265 1.429 . S
C3281 C3277 1.429 . S
C3281 C3282 1.523 . S
C3282 C3266 1.368 . S
C3282 C3278 1.368 . S
C3282 C3281 1.523 . S
H3283 C3258 0.950 . S
H3284 C3260 0.950 . S
H3285 C3261 0.949 . S
H3286 C3263 0.950 . S
H3287 C3265 0.950 . S
C3288 C3289 1.349 . S
C3288 C3290 1.327 . S
C3288 H3313 0.950 . S
C3289 C3288 1.349 . S
C3289 C3305 1.349 . S
C3290 C3288 1.327 . S
C3290 C3309 1.429 . S
C3290 H3314 0.950 . S
C3291 C3308 1.574 . S
C3291 C3310 1.368 . S
C3291 H3315 0.949 . S
H3292 C3296 0.949 . S
C3293 C3294 1.349 . S
C3293 C3295 1.327 . S
C3293 H3316 0.950 . S
C3294 C3293 1.349 . S
C3294 C3306 1.349 . S
C3295 C3293 1.327 . S
C3295 C3311 1.429 . S
C3295 H3317 0.950 . S
C3296 H3292 0.949 . S
C3296 C3304 1.574 . S
C3296 C3312 1.368 . S
H3297 C3305 0.950 . S
H3298 C3303 0.950 . S
H3299 C3304 0.949 . S
H3300 C3306 0.950 . S
H3301 C3307 0.950 . S
H3302 C3308 0.949 . S
C3303 H3298 0.950 . S
C3303 C3305 1.327 . S
C3303 C3309 1.429 . S
C3304 C3296 1.574 . S
C3304 H3299 0.949 . S
C3304 C3310 1.368 . S
C3305 C3289 1.349 . S
C3305 H3297 0.950 . S
C3305 C3303 1.327 . S
C3306 C3294 1.349 . S
C3306 H3300 0.950 . S
C3306 C3307 1.327 . S
C3307 H3301 0.950 . S
C3307 C3306 1.327 . S
C3307 C3311 1.429 . S
C3308 C3291 1.574 . S
C3308 H3302 0.949 . S
C3308 C3312 1.368 . S
C3309 C3290 1.429 . S
C3309 C3303 1.429 . S
C3309 C3310 1.523 . S
C3310 C3291 1.368 . S
C3310 C3304 1.368 . S
C3310 C3309 1.523 . S
C3311 C3295 1.429 . S
C3311 C3307 1.429 . S
C3311 C3312 1.523 . S
C3312 C3296 1.368 . S
C3312 C3308 1.368 . S
C3312 C3311 1.523 . S
H3313 C3288 0.950 . S
H3314 C3290 0.950 . S
H3315 C3291 0.949 . S
H3316 C3293 0.950 . S
H3317 C3295 0.950 . S
C3318 C3319 1.349 . S
C3318 C3320 1.327 . S
C3318 H3343 0.950 . S
C3319 C3318 1.349 . S
C3319 C3335 1.349 . S
C3320 C3318 1.327 . S
C3320 C3339 1.429 . S
C3320 H3344 0.950 . S
C3321 C3338 1.574 . S
C3321 C3340 1.368 . S
C3321 H3345 0.949 . S
H3322 C3326 0.949 . S
C3323 C3324 1.349 . S
C3323 C3325 1.327 . S
C3323 H3346 0.950 . S
C3324 C3323 1.349 . S
C3324 C3336 1.349 . S
C3325 C3323 1.327 . S
C3325 C3341 1.429 . S
C3325 H3347 0.950 . S
C3326 H3322 0.949 . S
C3326 C3334 1.574 . S
C3326 C3342 1.368 . S
H3327 C3335 0.950 . S
H3328 C3333 0.950 . S
H3329 C3334 0.949 . S
H3330 C3336 0.950 . S
H3331 C3337 0.950 . S
H3332 C3338 0.949 . S
C3333 H3328 0.950 . S
C3333 C3335 1.327 . S
C3333 C3339 1.429 . S
C3334 C3326 1.574 . S
C3334 H3329 0.949 . S
C3334 C3340 1.368 . S
C3335 C3319 1.349 . S
C3335 H3327 0.950 . S
C3335 C3333 1.327 . S
C3336 C3324 1.349 . S
C3336 H3330 0.950 . S
C3336 C3337 1.327 . S
C3337 H3331 0.950 . S
C3337 C3336 1.327 . S
C3337 C3341 1.429 . S
C3338 C3321 1.574 . S
C3338 H3332 0.949 . S
C3338 C3342 1.368 . S
C3339 C3320 1.429 . S
C3339 C3333 1.429 . S
C3339 C3340 1.523 1_554 S
C3340 C3321 1.368 . S
C3340 C3334 1.368 . S
C3340 C3339 1.523 1_556 S
C3341 C3325 1.429 . S
C3341 C3337 1.429 . S
C3341 C3342 1.523 . S
C3342 C3326 1.368 . S
C3342 C3338 1.368 . S
C3342 C3341 1.523 . S
H3343 C3318 0.950 . S
H3344 C3320 0.950 . S
H3345 C3321 0.949 . S
H3346 C3323 0.950 . S
H3347 C3325 0.950 . S
C3348 C3349 1.349 . S
C3348 C3350 1.327 . S
C3348 H3373 0.950 . S
C3349 C3348 1.349 . S
C3349 C3365 1.349 . S
C3350 C3348 1.327 . S
C3350 C3369 1.429 . S
C3350 H3374 0.950 . S
C3351 C3368 1.574 . S
C3351 C3370 1.368 . S
C3351 H3375 0.949 . S
H3352 C3356 0.949 . S
C3353 C3354 1.349 . S
C3353 C3355 1.327 . S
C3353 H3376 0.950 . S
C3354 C3353 1.349 . S
C3354 C3366 1.349 . S
C3355 C3353 1.327 . S
C3355 C3371 1.429 . S
C3355 H3377 0.950 . S
C3356 H3352 0.949 . S
C3356 C3364 1.574 . S
C3356 C3372 1.368 . S
H3357 C3365 0.950 . S
H3358 C3363 0.950 . S
H3359 C3364 0.949 . S
H3360 C3366 0.950 . S
H3361 C3367 0.950 . S
H3362 C3368 0.949 . S
C3363 H3358 0.950 . S
C3363 C3365 1.327 . S
C3363 C3369 1.429 . S
C3364 C3356 1.574 . S
C3364 H3359 0.949 . S
C3364 C3370 1.368 . S
C3365 C3349 1.349 . S
C3365 H3357 0.950 . S
C3365 C3363 1.327 . S
C3366 C3354 1.349 . S
C3366 H3360 0.950 . S
C3366 C3367 1.327 . S
C3367 H3361 0.950 . S
C3367 C3366 1.327 . S
C3367 C3371 1.429 . S
C3368 C3351 1.574 . S
C3368 H3362 0.949 . S
C3368 C3372 1.368 . S
C3369 C3350 1.429 . S
C3369 C3363 1.429 . S
C3369 C3370 1.523 . S
C3370 C3351 1.368 . S
C3370 C3364 1.368 . S
C3370 C3369 1.523 . S
C3371 C3355 1.429 . S
C3371 C3367 1.429 . S
C3371 C3372 1.523 . S
C3372 C3356 1.368 . S
C3372 C3368 1.368 . S
C3372 C3371 1.523 . S
H3373 C3348 0.950 . S
H3374 C3350 0.950 . S
H3375 C3351 0.949 . S
H3376 C3353 0.950 . S
H3377 C3355 0.950 . S
C3378 C3379 1.349 . S
C3378 C3380 1.327 . S
C3378 H3403 0.950 . S
C3379 C3378 1.349 . S
C3379 C3395 1.349 . S
C3380 C3378 1.327 . S
C3380 C3399 1.429 . S
C3380 H3404 0.950 . S
C3381 C3398 1.574 . S
C3381 C3400 1.368 . S
C3381 H3405 0.949 . S
H3382 C3386 0.949 . S
C3383 C3384 1.349 . S
C3383 C3385 1.327 . S
C3383 H3406 0.950 . S
C3384 C3383 1.349 . S
C3384 C3396 1.349 . S
C3385 C3383 1.327 . S
C3385 C3401 1.429 . S
C3385 H3407 0.950 . S
C3386 H3382 0.949 . S
C3386 C3394 1.574 . S
C3386 C3402 1.368 . S
H3387 C3395 0.950 . S
H3388 C3393 0.950 . S
H3389 C3394 0.949 . S
H3390 C3396 0.950 . S
H3391 C3397 0.950 . S
H3392 C3398 0.949 1_556 S
C3393 H3388 0.950 . S
C3393 C3395 1.327 . S
C3393 C3399 1.429 . S
C3394 C3386 1.574 . S
C3394 H3389 0.949 . S
C3394 C3400 1.368 . S
C3395 C3379 1.349 . S
C3395 H3387 0.950 . S
C3395 C3393 1.327 . S
C3396 C3384 1.349 . S
C3396 H3390 0.950 . S
C3396 C3397 1.327 . S
C3397 H3391 0.950 . S
C3397 C3396 1.327 . S
C3397 C3401 1.429 . S
C3398 C3381 1.574 . S
C3398 H3392 0.949 1_554 S
C3398 C3402 1.368 . S
C3399 C3380 1.429 . S
C3399 C3393 1.429 . S
C3399 C3400 1.523 . S
C3400 C3381 1.368 . S
C3400 C3394 1.368 . S
C3400 C3399 1.523 . S
C3401 C3385 1.429 . S
C3401 C3397 1.429 . S
C3401 C3402 1.523 1_556 S
C3402 C3386 1.368 . S
C3402 C3398 1.368 . S
C3402 C3401 1.523 1_554 S
H3403 C3378 0.950 . S
H3404 C3380 0.950 . S
H3405 C3381 0.949 . S
H3406 C3383 0.950 . S
H3407 C3385 0.950 . S
C3408 C3409 1.349 . S
C3408 C3410 1.327 . S
C3408 H3433 0.950 . S
C3409 C3408 1.349 . S
C3409 C3425 1.349 . S
C3410 C3408 1.327 . S
C3410 C3429 1.429 . S
C3410 H3434 0.950 . S
C3411 C3428 1.574 . S
C3411 C3430 1.368 . S
C3411 H3435 0.949 . S
H3412 C3416 0.949 . S
C3413 C3414 1.349 . S
C3413 C3415 1.327 . S
C3413 H3436 0.950 . S
C3414 C3413 1.349 . S
C3414 C3426 1.349 . S
C3415 C3413 1.327 . S
C3415 C3431 1.429 . S
C3415 H3437 0.950 . S
C3416 H3412 0.949 . S
C3416 C3424 1.574 . S
C3416 C3432 1.368 . S
H3417 C3425 0.950 . S
H3418 C3423 0.950 . S
H3419 C3424 0.949 . S
H3420 C3426 0.950 . S
H3421 C3427 0.950 . S
H3422 C3428 0.949 . S
C3423 H3418 0.950 . S
C3423 C3425 1.327 . S
C3423 C3429 1.429 . S
C3424 C3416 1.574 . S
C3424 H3419 0.949 . S
C3424 C3430 1.368 . S
C3425 C3409 1.349 . S
C3425 H3417 0.950 . S
C3425 C3423 1.327 . S
C3426 C3414 1.349 . S
C3426 H3420 0.950 . S
C3426 C3427 1.327 . S
C3427 H3421 0.950 . S
C3427 C3426 1.327 . S
C3427 C3431 1.429 . S
C3428 C3411 1.574 . S
C3428 H3422 0.949 . S
C3428 C3432 1.368 . S
C3429 C3410 1.429 . S
C3429 C3423 1.429 . S
C3429 C3430 1.523 . S
C3430 C3411 1.368 . S
C3430 C3424 1.368 . S
C3430 C3429 1.523 . S
C3431 C3415 1.429 . S
C3431 C3427 1.429 . S
C3431 C3432 1.523 . S
C3432 C3416 1.368 . S
C3432 C3428 1.368 . S
C3432 C3431 1.523 . S
H3433 C3408 0.950 . S
H3434 C3410 0.950 . S
H3435 C3411 0.949 . S
H3436 C3413 0.950 . S
H3437 C3415 0.950 . S
C3438 C3439 1.349 . S
C3438 C3440 1.327 . S
C3438 H3463 0.950 . S
C3439 C3438 1.349 . S
C3439 C3455 1.349 . S
C3440 C3438 1.327 . S
C3440 C3459 1.429 . S
C3440 H3464 0.950 . S
C3441 C3458 1.574 . S
C3441 C3460 1.368 . S
C3441 H3465 0.949 1_455 S
H3442 C3446 0.949 . S
C3443 C3444 1.349 . S
C3443 C3445 1.327 . S
C3443 H3466 0.950 . S
C3444 C3443 1.349 . S
C3444 C3456 1.349 . S
C3445 C3443 1.327 . S
C3445 C3461 1.429 . S
C3445 H3467 0.950 . S
C3446 H3442 0.949 . S
C3446 C3454 1.574 . S
C3446 C3462 1.368 . S
H3447 C3455 0.950 . S
H3448 C3453 0.950 . S
H3449 C3454 0.949 . S
H3450 C3456 0.950 . S
H3451 C3457 0.950 . S
H3452 C3458 0.949 . S
C3453 H3448 0.950 . S
C3453 C3455 1.327 . S
C3453 C3459 1.429 . S
C3454 C3446 1.574 . S
C3454 H3449 0.949 . S
C3454 C3460 1.368 . S
C3455 C3439 1.349 . S
C3455 H3447 0.950 . S
C3455 C3453 1.327 . S
C3456 C3444 1.349 . S
C3456 H3450 0.950 . S
C3456 C3457 1.327 . S
C3457 H3451 0.950 . S
C3457 C3456 1.327 . S
C3457 C3461 1.429 . S
C3458 C3441 1.574 . S
C3458 H3452 0.949 . S
C3458 C3462 1.368 . S
C3459 C3440 1.429 . S
C3459 C3453 1.429 . S
C3459 C3460 1.523 1_655 S
C3460 C3441 1.368 . S
C3460 C3454 1.368 . S
C3460 C3459 1.523 1_455 S
C3461 C3445 1.429 . S
C3461 C3457 1.429 . S
C3461 C3462 1.523 . S
C3462 C3446 1.368 . S
C3462 C3458 1.368 . S
C3462 C3461 1.523 . S
H3463 C3438 0.950 . S
H3464 C3440 0.950 . S
H3465 C3441 0.949 1_655 S
H3466 C3443 0.950 . S
H3467 C3445 0.950 . S
C3468 C3469 1.349 . S
C3468 C3470 1.327 . S
C3468 H3493 0.950 . S
C3469 C3468 1.349 . S
C3469 C3485 1.349 . S
C3470 C3468 1.327 . S
C3470 C3489 1.429 . S
C3470 H3494 0.950 . S
C3471 C3488 1.574 . S
C3471 C3490 1.368 . S
C3471 H3495 0.949 . S
H3472 C3476 0.949 . S
C3473 C3474 1.349 . S
C3473 C3475 1.327 . S
C3473 H3496 0.950 . S
C3474 C3473 1.349 . S
C3474 C3486 1.349 . S
C3475 C3473 1.327 . S
C3475 C3491 1.429 . S
C3475 H3497 0.950 . S
C3476 H3472 0.949 . S
C3476 C3484 1.574 . S
C3476 C3492 1.368 . S
H3477 C3485 0.950 . S
H3478 C3483 0.950 . S
H3479 C3484 0.949 1_455 S
H3480 C3486 0.950 . S
H3481 C3487 0.950 . S
H3482 C3488 0.949 . S
C3483 H3478 0.950 . S
C3483 C3485 1.327 . S
C3483 C3489 1.429 . S
C3484 C3476 1.574 . S
C3484 H3479 0.949 1_655 S
C3484 C3490 1.368 . S
C3485 C3469 1.349 . S
C3485 H3477 0.950 . S
C3485 C3483 1.327 . S
C3486 C3474 1.349 . S
C3486 H3480 0.950 . S
C3486 C3487 1.327 . S
C3487 H3481 0.950 . S
C3487 C3486 1.327 . S
C3487 C3491 1.429 . S
C3488 C3471 1.574 . S
C3488 H3482 0.949 . S
C3488 C3492 1.368 . S
C3489 C3470 1.429 . S
C3489 C3483 1.429 . S
C3489 C3490 1.523 1_455 S
C3490 C3471 1.368 . S
C3490 C3484 1.368 . S
C3490 C3489 1.523 1_655 S
C3491 C3475 1.429 . S
C3491 C3487 1.429 . S
C3491 C3492 1.523 . S
C3492 C3476 1.368 . S
C3492 C3488 1.368 . S
C3492 C3491 1.523 . S
H3493 C3468 0.950 . S
H3494 C3470 0.950 . S
H3495 C3471 0.949 . S
H3496 C3473 0.950 . S
H3497 C3475 0.950 . S
C3498 C3499 1.349 . S
C3498 C3500 1.327 . S
C3498 H3523 0.950 . S
C3499 C3498 1.349 . S
C3499 C3515 1.349 . S
C3500 C3498 1.327 . S
C3500 C3519 1.429 . S
C3500 H3524 0.950 . S
C3501 C3518 1.574 . S
C3501 C3520 1.368 . S
C3501 H3525 0.949 . S
H3502 C3506 0.949 . S
C3503 C3504 1.349 . S
C3503 C3505 1.327 . S
C3503 H3526 0.950 . S
C3504 C3503 1.349 . S
C3504 C3516 1.349 . S
C3505 C3503 1.327 . S
C3505 C3521 1.429 . S
C3505 H3527 0.950 . S
C3506 H3502 0.949 . S
C3506 C3514 1.574 . S
C3506 C3522 1.368 . S
H3507 C3515 0.950 . S
H3508 C3513 0.950 . S
H3509 C3514 0.949 . S
H3510 C3516 0.950 . S
H3511 C3517 0.950 . S
H3512 C3518 0.949 . S
C3513 H3508 0.950 . S
C3513 C3515 1.327 . S
C3513 C3519 1.429 . S
C3514 C3506 1.574 . S
C3514 H3509 0.949 . S
C3514 C3520 1.368 . S
C3515 C3499 1.349 . S
C3515 H3507 0.950 . S
C3515 C3513 1.327 . S
C3516 C3504 1.349 . S
C3516 H3510 0.950 . S
C3516 C3517 1.327 . S
C3517 H3511 0.950 . S
C3517 C3516 1.327 . S
C3517 C3521 1.429 . S
C3518 C3501 1.574 . S
C3518 H3512 0.949 . S
C3518 C3522 1.368 . S
C3519 C3500 1.429 . S
C3519 C3513 1.429 . S
C3519 C3520 1.523 . S
C3520 C3501 1.368 . S
C3520 C3514 1.368 . S
C3520 C3519 1.523 . S
C3521 C3505 1.429 . S
C3521 C3517 1.429 . S
C3521 C3522 1.523 . S
C3522 C3506 1.368 . S
C3522 C3518 1.368 . S
C3522 C3521 1.523 . S
H3523 C3498 0.950 . S
H3524 C3500 0.950 . S
H3525 C3501 0.949 . S
H3526 C3503 0.950 . S
H3527 C3505 0.950 . S
C3528 C3529 1.349 . S
C3528 C3530 1.327 . S
C3528 H3553 0.950 . S
C3529 C3528 1.349 . S
C3529 C3545 1.349 . S
C3530 C3528 1.327 . S
C3530 C3549 1.429 . S
C3530 H3554 0.950 . S
C3531 C3548 1.574 . S
C3531 C3550 1.368 . S
C3531 H3555 0.949 . S
H3532 C3536 0.949 . S
C3533 C3534 1.349 . S
C3533 C3535 1.327 . S
C3533 H3556 0.950 . S
C3534 C3533 1.349 . S
C3534 C3546 1.349 . S
C3535 C3533 1.327 . S
C3535 C3551 1.429 . S
C3535 H3557 0.950 . S
C3536 H3532 0.949 . S
C3536 C3544 1.574 . S
C3536 C3552 1.368 . S
H3537 C3545 0.950 . S
H3538 C3543 0.950 . S
H3539 C3544 0.949 . S
H3540 C3546 0.950 . S
H3541 C3547 0.950 . S
H3542 C3548 0.949 . S
C3543 H3538 0.950 . S
C3543 C3545 1.327 . S
C3543 C3549 1.429 . S
C3544 C3536 1.574 . S
C3544 H3539 0.949 . S
C3544 C3550 1.368 . S
C3545 C3529 1.349 . S
C3545 H3537 0.950 . S
C3545 C3543 1.327 . S
C3546 C3534 1.349 . S
C3546 H3540 0.950 . S
C3546 C3547 1.327 . S
C3547 H3541 0.950 . S
C3547 C3546 1.327 . S
C3547 C3551 1.429 . S
C3548 C3531 1.574 . S
C3548 H3542 0.949 . S
C3548 C3552 1.368 . S
C3549 C3530 1.429 . S
C3549 C3543 1.429 . S
C3549 C3550 1.523 . S
C3550 C3531 1.368 . S
C3550 C3544 1.368 . S
C3550 C3549 1.523 . S
C3551 C3535 1.429 . S
C3551 C3547 1.429 . S
C3551 C3552 1.523 . S
C3552 C3536 1.368 . S
C3552 C3548 1.368 . S
C3552 C3551 1.523 . S
H3553 C3528 0.950 . S
H3554 C3530 0.950 . S
H3555 C3531 0.949 . S
H3556 C3533 0.950 . S
H3557 C3535 0.950 . S
C3558 C3559 1.349 . S
C3558 C3560 1.327 . S
C3558 H3583 0.950 . S
C3559 C3558 1.349 . S
C3559 C3575 1.349 . S
C3560 C3558 1.327 . S
C3560 C3579 1.429 . S
C3560 H3584 0.950 1_565 S
C3561 C3578 1.574 1_565 S
C3561 C3580 1.368 1_565 S
C3561 H3585 0.949 . S
H3562 C3566 0.949 . S
C3563 C3564 1.349 . S
C3563 C3565 1.327 . S
C3563 H3586 0.950 . S
C3564 C3563 1.349 . S
C3564 C3576 1.349 . S
C3565 C3563 1.327 . S
C3565 C3581 1.429 . S
C3565 H3587 0.950 . S
C3566 H3562 0.949 . S
C3566 C3574 1.574 . S
C3566 C3582 1.368 . S
H3567 C3575 0.950 . S
H3568 C3573 0.950 . S
H3569 C3574 0.949 . S
H3570 C3576 0.950 . S
H3571 C3577 0.950 . S
H3572 C3578 0.949 . S
C3573 H3568 0.950 . S
C3573 C3575 1.327 . S
C3573 C3579 1.429 . S
C3574 C3566 1.574 . S
C3574 H3569 0.949 . S
C3574 C3580 1.368 . S
C3575 C3559 1.349 . S
C3575 H3567 0.950 . S
C3575 C3573 1.327 . S
C3576 C3564 1.349 . S
C3576 H3570 0.950 . S
C3576 C3577 1.327 . S
C3577 H3571 0.950 . S
C3577 C3576 1.327 . S
C3577 C3581 1.429 . S
C3578 C3561 1.574 1_545 S
C3578 H3572 0.949 . S
C3578 C3582 1.368 . S
C3579 C3560 1.429 . S
C3579 C3573 1.429 . S
C3579 C3580 1.523 1_565 S
C3580 C3561 1.368 1_545 S
C3580 C3574 1.368 . S
C3580 C3579 1.523 1_545 S
C3581 C3565 1.429 . S
C3581 C3577 1.429 . S
C3581 C3582 1.523 . S
C3582 C3566 1.368 . S
C3582 C3578 1.368 . S
C3582 C3581 1.523 . S
H3583 C3558 0.950 . S
H3584 C3560 0.950 1_545 S
H3585 C3561 0.949 . S
H3586 C3563 0.950 . S
H3587 C3565 0.950 . S
C3588 C3589 1.349 . S
C3588 C3590 1.327 . S
C3588 H3613 0.950 . S
C3589 C3588 1.349 . S
C3589 C3605 1.349 . S
C3590 C3588 1.327 . S
C3590 C3609 1.429 . S
C3590 H3614 0.950 1_545 S
C3591 C3608 1.574 1_545 S
C3591 C3610 1.368 1_545 S
C3591 H3615 0.949 . S
H3592 C3596 0.949 . S
C3593 C3594 1.349 . S
C3593 C3595 1.327 . S
C3593 H3616 0.950 . S
C3594 C3593 1.349 . S
C3594 C3606 1.349 . S
C3595 C3593 1.327 . S
C3595 C3611 1.429 . S
C3595 H3617 0.950 . S
C3596 H3592 0.949 . S
C3596 C3604 1.574 . S
C3596 C3612 1.368 . S
H3597 C3605 0.950 . S
H3598 C3603 0.950 . S
H3599 C3604 0.949 . S
H3600 C3606 0.950 . S
H3601 C3607 0.950 . S
H3602 C3608 0.949 . S
C3603 H3598 0.950 . S
C3603 C3605 1.327 . S
C3603 C3609 1.429 . S
C3604 C3596 1.574 . S
C3604 H3599 0.949 . S
C3604 C3610 1.368 . S
C3605 C3589 1.349 . S
C3605 H3597 0.950 . S
C3605 C3603 1.327 . S
C3606 C3594 1.349 . S
C3606 H3600 0.950 . S
C3606 C3607 1.327 . S
C3607 H3601 0.950 . S
C3607 C3606 1.327 . S
C3607 C3611 1.429 . S
C3608 C3591 1.574 1_565 S
C3608 H3602 0.949 . S
C3608 C3612 1.368 . S
C3609 C3590 1.429 . S
C3609 C3603 1.429 . S
C3609 C3610 1.523 1_545 S
C3610 C3591 1.368 1_565 S
C3610 C3604 1.368 . S
C3610 C3609 1.523 1_565 S
C3611 C3595 1.429 . S
C3611 C3607 1.429 . S
C3611 C3612 1.523 . S
C3612 C3596 1.368 . S
C3612 C3608 1.368 . S
C3612 C3611 1.523 . S
H3613 C3588 0.950 . S
H3614 C3590 0.950 1_565 S
H3615 C3591 0.949 . S
H3616 C3593 0.950 . S
H3617 C3595 0.950 . S
C3618 C3619 1.349 . S
C3618 C3620 1.327 . S
C3618 H3643 0.950 . S
C3619 C3618 1.349 . S
C3619 C3635 1.349 . S
C3620 C3618 1.327 . S
C3620 C3639 1.429 . S
C3620 H3644 0.950 . S
C3621 C3638 1.574 . S
C3621 C3640 1.368 . S
C3621 H3645 0.949 . S
H3622 C3626 0.949 . S
C3623 C3624 1.349 . S
C3623 C3625 1.327 . S
C3623 H3646 0.950 . S
C3624 C3623 1.349 . S
C3624 C3636 1.349 . S
C3625 C3623 1.327 . S
C3625 C3641 1.429 . S
C3625 H3647 0.950 . S
C3626 H3622 0.949 . S
C3626 C3634 1.574 . S
C3626 C3642 1.368 . S
H3627 C3635 0.950 . S
H3628 C3633 0.950 . S
H3629 C3634 0.949 . S
H3630 C3636 0.950 . S
H3631 C3637 0.950 . S
H3632 C3638 0.949 . S
C3633 H3628 0.950 . S
C3633 C3635 1.327 . S
C3633 C3639 1.429 . S
C3634 C3626 1.574 . S
C3634 H3629 0.949 . S
C3634 C3640 1.368 . S
C3635 C3619 1.349 . S
C3635 H3627 0.950 . S
C3635 C3633 1.327 . S
C3636 C3624 1.349 . S
C3636 H3630 0.950 . S
C3636 C3637 1.327 . S
C3637 H3631 0.950 . S
C3637 C3636 1.327 . S
C3637 C3641 1.429 . S
C3638 C3621 1.574 . S
C3638 H3632 0.949 . S
C3638 C3642 1.368 . S
C3639 C3620 1.429 . S
C3639 C3633 1.429 . S
C3639 C3640 1.523 . S
C3640 C3621 1.368 . S
C3640 C3634 1.368 . S
C3640 C3639 1.523 . S
C3641 C3625 1.429 . S
C3641 C3637 1.429 . S
C3641 C3642 1.523 . S
C3642 C3626 1.368 . S
C3642 C3638 1.368 . S
C3642 C3641 1.523 . S
H3643 C3618 0.950 . S
H3644 C3620 0.950 . S
H3645 C3621 0.949 . S
H3646 C3623 0.950 . S
H3647 C3625 0.950 . S
C769 C593 0.719 . S
C774 C22 0.715 . S
C799 C59 0.715 . S
C804 C631 0.719 . S
C829 C529 0.719 . S
C834 C86 0.715 . S
C859 C123 0.715 . S
C864 C575 0.719 . S
C889 C721 0.719 . S
C894 C159 0.715 . S
C919 C703 0.719 . S
C924 C187 0.715 . S
C949 C760 0.719 . S
C954 C214 0.715 . S
C979 C671 0.719 . S
C984 C251 0.715 . S
C1009 C264 0.715 . S
C1014 C440 0.719 . S
C1039 C497 0.719 . S
C1044 C318 0.715 . S
C1069 C328 0.715 . S
C1074 C472 0.719 . S
C1099 C401 0.719 . S
C1104 C379 0.715 . S
C1129 C200 0.719 . S
C1134 C415 0.715 . S
C1159 C254 0.719 . S
C1164 C439 0.715 . S
C1189 C145 0.719 . S
C1194 C471 0.715 . S
C1219 C511 0.715 . S
C1224 C190 0.719 . S
C1249 C342 0.719 . S
C1254 C543 0.715 . S
C1279 C561 0.715 . S
C1284 C315 0.719 . S
C1309 C382 0.719 . S
C1314 C607 0.715 . S
C1339 C278 0.719 . S
C1344 C632 0.715 . S
C1369 C657 0.715 . S
C1374 C62 0.719 . S
C1399 C126 0.719 . S
C1404 C689 0.715 . S
C1429 C735 0.715 . S
C1434 C72 0.719 . S
C1459 C759 0.715 . S
C1464 C8 0.719 . S
C1489 C286 1.706 . S
C1494 C23 1.969 . S
C1519 C49 1.969 . S
C1524 C374 1.774 . S
C1549 C87 1.969 . S
C1554 C296 1.706 . S
C1579 C113 1.969 . S
C1584 C350 1.706 . S
C1609 C158 1.956 . S
C1614 C27 1.774 . S
C1639 C177 1.969 . S
C1644 C54 1.774 . S
C1669 C91 1.774 . S
C1674 C215 1.969 . S
C1699 C241 1.969 . S
C1704 C118 1.774 . S
C1729 C152 1.706 . S
C1734 C287 1.956 . S
C1759 C312 1.956 . S
C1764 C219 1.774 . S
C1789 C246 1.774 . S
C1794 C351 1.956 . S
C1819 C182 1.774 . S
C1824 C369 1.969 . S
C1849 C663 1.706 . S
C1854 C392 1.969 . S
C1879 C438 1.956 . S
C1884 C753 1.706 . S
C1909 C695 1.706 . S
C1914 C470 1.956 . S
C1939 C488 1.969 . S
C1944 C728 1.774 . S
C1969 C408 1.774 . S
C1974 C520 1.969 . S
C1999 C433 1.706 . S
C2004 C571 1.956 . S
C2029 C584 1.969 . S
C2034 C465 1.706 . S
C2059 C504 1.774 . S
C2064 C638 1.969 . S
C2089 C536 1.774 . S
C2094 C667 1.956 . S
C2119 C699 1.956 . S
C2124 C600 1.774 . S
C2149 C712 1.969 . S
C2154 C639 1.774 . S
C2179 C758 1.956 . S
C2184 C567 1.706 . S
C2209 C17 0.995 . S
C2214 C376 1.004 . S
C2239 C279 1.018 . S
C2244 C55 0.995 . S
C2269 C81 0.995 . S
C2274 C343 1.018 . S
C2299 C119 0.995 . S
C2304 C305 1.018 . S
C2329 C95 1.004 . S
C2334 C136 1.004 . S
C2359 C120 1.004 . S
C2364 C183 0.995 . S
C2389 C31 1.004 . S
C2394 C209 0.995 . S
C2419 C247 0.995 . S
C2424 C56 1.004 . S
C2449 C248 1.004 . S
C2454 C280 1.004 . S
C2479 C319 1.004 . S
C2484 C184 1.004 . S
C2509 C150 1.018 . S
C2514 C344 1.004 . S
C2539 C375 0.995 . S
C2544 C223 1.004 . S
C2569 C766 1.018 . S
C2574 C414 0.995 . S
C2599 C648 1.018 . S
C2604 C443 1.004 . S
C2629 C731 1.004 . S
C2634 C475 1.004 . S
C2659 C680 1.018 . S
C2664 C510 0.995 . S
C2689 C542 0.995 . S
C2694 C478 1.018 . S
C2719 C566 1.004 . S
C2724 C507 1.004 . S
C2749 C606 0.995 . S
C2754 C411 1.004 . S
C2779 C616 0.995 . S
C2784 C446 1.018 . S
C2809 C630 1.004 . S
C2814 C662 1.004 . S
C2839 C552 1.018 . S
C2844 C694 1.004 . S
C2869 C539 1.004 . S
C2874 C734 0.995 . S
C2899 C603 1.004 . S
C2904 C763 1.004 . S
C2929 C726 1.420 . S
C2934 C30 1.219 . S
C2959 C702 1.405 . S
C2964 C40 1.219 . S
C2989 C94 1.219 . S
C2994 C744 1.405 . S
C3019 C670 1.405 . S
C3024 C104 1.219 . S
C3049 C151 1.252 . S
C3054 C424 1.405 . S
C3079 C406 1.420 . S
C3084 C168 1.219 . S
C3109 C222 1.219 . S
C3114 C502 1.420 . S
C3139 C232 1.219 . S
C3144 C456 1.405 . S
C3169 C598 1.420 . S
C3174 C283 1.252 . S
C3199 C534 1.420 . S
C3204 C310 1.252 . S
C3229 C347 1.252 . S
C3234 C574 1.405 . S
C3259 C360 1.219 . S
C3264 C635 1.420 . S
C3289 C407 1.219 . S
C3294 C337 1.405 . S
C3319 C447 1.252 . S
C3324 C311 1.405 . S
C3349 C383 1.420 . S
C3354 C479 1.252 . S
C3379 C273 1.405 . S
C3384 C503 1.219 . S
C3409 C535 1.219 . S
C3414 C63 1.420 . S
C3439 C568 1.252 . S
C3444 C24 1.420 . S
C3469 C599 1.219 . S
C3474 C127 1.420 . S
C3499 C625 1.219 . S
C3504 C88 1.420 . S
C3529 C664 1.252 . S
C3534 C216 1.420 . S
C3559 C696 1.252 . S
C3564 C155 1.405 . S
C3589 C727 1.219 . S
C3594 C191 1.420 . S
C3619 C255 1.420 . S
C3624 C767 1.252 . S
