# Generated by pormake.
# Topology atn, (4)-cn, num edge types: 1
# Building blocks:
#     Node 0, Type 0, BuildingBlock: UXUYUI_clean_sbu_0, # of connection points: 4
#     Node 1, Type 0, BuildingBlock: UXUYUI_clean_sbu_0, # of connection points: 4
#     Node 2, Type 0, BuildingBlock: UXUYUI_clean_sbu_0, # of connection points: 4
#     Node 3, Type 0, BuildingBlock: UXUYUI_clean_sbu_0, # of connection points: 4
#     Node 4, Type 0, BuildingBlock: UXUYUI_clean_sbu_0, # of connection points: 4
#     Node 5, Type 0, BuildingBlock: UXUYUI_clean_sbu_0, # of connection points: 4
#     Node 6, Type 0, BuildingBlock: UXUYUI_clean_sbu_0, # of connection points: 4
#     Node 7, Type 0, BuildingBlock: UXUYUI_clean_sbu_0, # of connection points: 4
#     Node 8, Type 0, BuildingBlock: UXUYUI_clean_sbu_0, # of connection points: 4
#     Node 9, Type 0, BuildingBlock: UXUYUI_clean_sbu_0, # of connection points: 4
#     Node 10, Type 0, BuildingBlock: UXUYUI_clean_sbu_0, # of connection points: 4
#     Node 11, Type 0, BuildingBlock: UXUYUI_clean_sbu_0, # of connection points: 4
#     Node 12, Type 0, BuildingBlock: UXUYUI_clean_sbu_0, # of connection points: 4
#     Node 13, Type 0, BuildingBlock: UXUYUI_clean_sbu_0, # of connection points: 4
#     Node 14, Type 0, BuildingBlock: UXUYUI_clean_sbu_0, # of connection points: 4
#     Node 15, Type 0, BuildingBlock: UXUYUI_clean_sbu_0, # of connection points: 4
#     Edge 16, Type (0, 0), BuildingBlock: UVAHIK_clean_linker_0, # of connection points: 2
#     Edge 17, Type (0, 0), BuildingBlock: UVAHIK_clean_linker_0, # of connection points: 2
#     Edge 18, Type (0, 0), BuildingBlock: UVAHIK_clean_linker_0, # of connection points: 2
#     Edge 19, Type (0, 0), BuildingBlock: UVAHIK_clean_linker_0, # of connection points: 2
#     Edge 20, Type (0, 0), BuildingBlock: UVAHIK_clean_linker_0, # of connection points: 2
#     Edge 21, Type (0, 0), BuildingBlock: UVAHIK_clean_linker_0, # of connection points: 2
#     Edge 22, Type (0, 0), BuildingBlock: UVAHIK_clean_linker_0, # of connection points: 2
#     Edge 23, Type (0, 0), BuildingBlock: UVAHIK_clean_linker_0, # of connection points: 2
#     Edge 24, Type (0, 0), BuildingBlock: UVAHIK_clean_linker_0, # of connection points: 2
#     Edge 25, Type (0, 0), BuildingBlock: UVAHIK_clean_linker_0, # of connection points: 2
#     Edge 26, Type (0, 0), BuildingBlock: UVAHIK_clean_linker_0, # of connection points: 2
#     Edge 27, Type (0, 0), BuildingBlock: UVAHIK_clean_linker_0, # of connection points: 2
#     Edge 28, Type (0, 0), BuildingBlock: UVAHIK_clean_linker_0, # of connection points: 2
#     Edge 29, Type (0, 0), BuildingBlock: UVAHIK_clean_linker_0, # of connection points: 2
#     Edge 30, Type (0, 0), BuildingBlock: UVAHIK_clean_linker_0, # of connection points: 2
#     Edge 31, Type (0, 0), BuildingBlock: UVAHIK_clean_linker_0, # of connection points: 2
#     Edge 32, Type (0, 0), BuildingBlock: UVAHIK_clean_linker_0, # of connection points: 2
#     Edge 33, Type (0, 0), BuildingBlock: UVAHIK_clean_linker_0, # of connection points: 2
#     Edge 34, Type (0, 0), BuildingBlock: UVAHIK_clean_linker_0, # of connection points: 2
#     Edge 35, Type (0, 0), BuildingBlock: UVAHIK_clean_linker_0, # of connection points: 2
#     Edge 36, Type (0, 0), BuildingBlock: UVAHIK_clean_linker_0, # of connection points: 2
#     Edge 37, Type (0, 0), BuildingBlock: UVAHIK_clean_linker_0, # of connection points: 2
#     Edge 38, Type (0, 0), BuildingBlock: UVAHIK_clean_linker_0, # of connection points: 2
#     Edge 39, Type (0, 0), BuildingBlock: UVAHIK_clean_linker_0, # of connection points: 2
#     Edge 40, Type (0, 0), BuildingBlock: UVAHIK_clean_linker_0, # of connection points: 2
#     Edge 41, Type (0, 0), BuildingBlock: UVAHIK_clean_linker_0, # of connection points: 2
#     Edge 42, Type (0, 0), BuildingBlock: UVAHIK_clean_linker_0, # of connection points: 2
#     Edge 43, Type (0, 0), BuildingBlock: UVAHIK_clean_linker_0, # of connection points: 2
#     Edge 44, Type (0, 0), BuildingBlock: UVAHIK_clean_linker_0, # of connection points: 2
#     Edge 45, Type (0, 0), BuildingBlock: UVAHIK_clean_linker_0, # of connection points: 2
#     Edge 46, Type (0, 0), BuildingBlock: UVAHIK_clean_linker_0, # of connection points: 2
#     Edge 47, Type (0, 0), BuildingBlock: UVAHIK_clean_linker_0, # of connection points: 2
# Relax obj value: 0.164
# Max RMSD: 0.140
# Mean RMSD: 0.140
data_MOF--net-atn--node1-UXUYUI_clean_sbu_0--edge1-UVAHIK_clean_linker_0
_symmetry_space_group_name_H-M    P1
_symmetry_Int_Tables_number       1
_symmetry_cell_setting            triclinic
loop_
_symmetry_equiv_pos_as_xyz
'x, y, z'
_cell_length_a     109.26616
_cell_length_b     109.213
_cell_length_c     44.793199
_cell_angle_alpha  89.990475
_cell_angle_beta   90.017882
_cell_angle_gamma 90.007558
loop_
_atom_site_label
_atom_site_type_symbol
_atom_site_fract_x
_atom_site_fract_y
_atom_site_fract_z
_atom_type_partial_charge
Li0 Li 0.20949 0.39037 0.99182 0.0
Li1 Li 0.20188 0.37283 0.02 0.0
Li2 Li 0.22025 0.37124 0.98899 0.0
Li3 Li 0.19991 0.373 0.96693 0.0
C4 C 0.22234 0.39036 0.04231 0.0
N5 N 0.23119 0.40928 0.07714 0.0
C6 C 0.21656 0.39335 0.06919 0.0
C7 C 0.23266 0.39694 0.03326 0.0
C8 C 0.22118 0.40295 0.08647 0.0
C9 C 0.23698 0.4065 0.05113 0.0
C10 C 0.1821 0.38765 0.98067 0.0
C11 C 0.16166 0.38296 0.96383 0.0
N12 N 0.16169 0.39331 0.94695 0.0
C13 C 0.18192 0.39825 0.96318 0.0
C14 C 0.17188 0.37995 0.98108 0.0
C15 C 0.17151 0.40095 0.9463 0.0
C16 C 0.21709 0.41348 0.9701 0.0
N17 N 0.21123 0.40758 0.99261 0.0
C18 C 0.20838 0.42632 0.01903 0.0
C19 C 0.20661 0.41373 0.01641 0.0
C20 C 0.21463 0.43271 0.99643 0.0
C21 C 0.21885 0.42612 0.97148 0.0
H22 H 0.22038 0.40838 0.95106 0.0
H23 H 0.20174 0.4088 0.03364 0.0
C24 C 0.20232 0.36279 0.07768 0.0
N25 N 0.1949 0.36798 0.05688 0.0
C26 C 0.19754 0.35897 0.10501 0.0
C27 C 0.17759 0.36598 0.08899 0.0
C28 C 0.18278 0.36974 0.06205 0.0
C29 C 0.18501 0.36051 0.11085 0.0
H30 H 0.21195 0.36159 0.07293 0.0
H31 H 0.17714 0.37406 0.04528 0.0
C32 C 0.2243 0.38057 0.93561 0.0
N33 N 0.24351 0.37702 0.89644 0.0
C34 C 0.22293 0.37274 0.91115 0.0
C35 C 0.23541 0.38664 0.94007 0.0
C36 C 0.23276 0.37107 0.8916 0.0
C37 C 0.24502 0.3847 0.92006 0.0
C38 C 0.20459 0.3495 0.00914 0.0
C39 C 0.2146 0.34338 0.02163 0.0
C40 C 0.19272 0.34558 0.0158 0.0
C41 C 0.21255 0.33346 0.04068 0.0
C42 C 0.19105 0.33564 0.03502 0.0
N43 N 0.20092 0.32984 0.04695 0.0
C44 C 0.24449 0.36665 0.00683 0.0
C45 C 0.23827 0.35569 0.96372 0.0
C46 C 0.25599 0.36115 0.00594 0.0
N47 N 0.23594 0.36388 0.98587 0.0
C48 C 0.24972 0.35008 0.96174 0.0
C49 C 0.25869 0.35273 0.98321 0.0
H50 H 0.24232 0.37295 0.0246 0.0
H51 H 0.23117 0.35338 0.94789 0.0
C52 C 0.18969 0.37591 0.90968 0.0
N53 N 0.18991 0.36851 0.93404 0.0
C54 C 0.18244 0.3729 0.88509 0.0
C55 C 0.1755 0.35491 0.9116 0.0
C56 C 0.18303 0.35817 0.93544 0.0
C57 C 0.17521 0.36224 0.88578 0.0
H58 H 0.19524 0.38411 0.90928 0.0
H59 H 0.18334 0.35249 0.95513 0.0
O60 O 0.21786 0.38109 0.02487 0.0
O61 O 0.19234 0.38466 0.99668 0.0
O62 O 0.21483 0.38222 0.95521 0.0
O63 O 0.2064 0.35939 0.99086 0.0
H64 H 0.20852 0.38843 0.07648 0.0
H65 H 0.23723 0.39479 0.0125 0.0
H66 H 0.21676 0.4054 0.10723 0.0
H67 H 0.24491 0.41172 0.04428 0.0
H68 H 0.15373 0.37702 0.96373 0.0
H69 H 0.18977 0.40427 0.96237 0.0
H70 H 0.17194 0.37158 0.99403 0.0
H71 H 0.17127 0.4091 0.93258 0.0
H72 H 0.20506 0.43091 0.03885 0.0
H73 H 0.22341 0.43065 0.95309 0.0
H74 H 0.20354 0.3547 0.1212 0.0
H75 H 0.16792 0.36748 0.09283 0.0
H76 H 0.21446 0.36785 0.9075 0.0
H77 H 0.23665 0.39269 0.95893 0.0
H78 H 0.23185 0.36499 0.87266 0.0
H79 H 0.2537 0.38929 0.92334 0.0
H80 H 0.22385 0.3463 0.01688 0.0
H81 H 0.18485 0.35035 0.00686 0.0
H82 H 0.22021 0.32867 0.05056 0.0
H83 H 0.18192 0.33259 0.04059 0.0
H84 H 0.26268 0.36338 0.02294 0.0
H85 H 0.2514 0.34346 0.94423 0.0
H86 H 0.18271 0.37875 0.8656 0.0
H87 H 0.16992 0.34676 0.91352 0.0
Li88 Li 0.6053 0.20691 0.99264 0.0
Li89 Li 0.62201 0.19793 0.01995 0.0
Li90 Li 0.62445 0.21767 0.99315 0.0
Li91 Li 0.62188 0.19795 0.96591 0.0
C92 C 0.60967 0.22198 0.04742 0.0
N93 N 0.60129 0.23881 0.08869 0.0
C94 C 0.60734 0.21837 0.0768 0.0
C95 C 0.60785 0.23419 0.03909 0.0
C96 C 0.60307 0.227 0.09731 0.0
C97 C 0.60358 0.24255 0.06026 0.0
C98 C 0.60236 0.18245 0.0091 0.0
C99 C 0.59131 0.16361 0.01705 0.0
N100 N 0.58621 0.16845 0.0421 0.0
C101 C 0.59699 0.18724 0.03491 0.0
C102 C 0.59949 0.17055 5e-05 0.0
C103 C 0.58886 0.18002 0.05128 0.0
C104 C 0.58198 0.20066 0.97325 0.0
N105 N 0.58798 0.20879 0.99098 0.0
C106 C 0.56922 0.21888 0.00286 0.0
C107 C 0.58189 0.21779 0.00572 0.0
C108 C 0.5628 0.21061 0.98467 0.0
C109 C 0.56934 0.2014 0.96973 0.0
H110 H 0.58708 0.19367 0.96153 0.0
H111 H 0.5868 0.22418 0.01954 0.0
C112 C 0.6341 0.1968 0.07402 0.0
N113 N 0.62742 0.18983 0.05493 0.0
C114 C 0.63869 0.19175 0.10033 0.0
C115 C 0.62939 0.17244 0.0869 0.0
C116 C 0.62514 0.17782 0.0606 0.0
C117 C 0.63628 0.17942 0.10725 0.0
H118 H 0.63592 0.20628 0.06862 0.0
H119 H 0.62005 0.17238 0.04476 0.0
C120 C 0.60465 0.21807 0.94109 0.0
N121 N 0.58462 0.22581 0.90848 0.0
C122 C 0.60008 0.21083 0.9179 0.0
C123 C 0.59912 0.22931 0.94749 0.0
C124 C 0.58993 0.2149 0.90171 0.0
C125 C 0.58897 0.23304 0.93082 0.0
C126 C 0.64461 0.1944 0.9935 0.0
C127 C 0.65685 0.19798 0.99571 0.0
C128 C 0.64166 0.18196 0.99208 0.0
C129 C 0.66597 0.18902 0.99641 0.0
C130 C 0.65104 0.17329 0.99285 0.0
N131 N 0.66291 0.17697 0.99498 0.0
C132 C 0.63923 0.23567 0.0188 0.0
C133 C 0.6309 0.24108 0.9717 0.0
C134 C 0.64503 0.24701 0.02104 0.0
N135 N 0.63236 0.23297 0.99442 0.0
C136 C 0.6365 0.25255 0.97305 0.0
C137 C 0.6437 0.25563 -0.00204 0.0
H138 H 0.64017 0.22899 0.03649 0.0
H139 H 0.62535 0.23865 0.95261 0.0
C140 C 0.61923 0.18011 0.92125 0.0
N141 N 0.62651 0.18929 0.93137 0.0
C142 C 0.62217 0.17396 0.8949 0.0
C143 C 0.64017 0.18673 0.89033 0.0
C144 C 0.63685 0.19265 0.91671 0.0
C145 C 0.63272 0.17733 0.87893 0.0
H146 H 0.61099 0.17775 0.93333 0.0
H147 H 0.64245 0.2 0.9254 0.0
O148 O 0.61409 0.21367 0.02728 0.0
O149 O 0.61033 0.18932 0.99249 0.0
O150 O 0.61437 0.21409 0.9577 0.0
O151 O 0.63559 0.20309 0.99301 0.0
H152 H 0.60882 0.20898 0.08371 0.0
H153 H 0.6096 0.23716 0.01649 0.0
H154 H 0.6012 0.22432 0.12011 0.0
H155 H 0.60208 0.252 0.05409 0.0
H156 H 0.58902 0.15438 0.01032 0.0
H157 H 0.59903 0.19642 0.04223 0.0
H158 H 0.60357 0.1667 0.98014 0.0
H159 H 0.58464 0.18362 0.07129 0.0
H160 H 0.5645 0.22603 0.01502 0.0
H161 H 0.56477 0.19495 0.95516 0.0
H162 H 0.64421 0.19745 0.11484 0.0
H163 H 0.62718 0.16295 0.09129 0.0
H164 H 0.60424 0.20211 0.91266 0.0
H165 H 0.60252 0.23502 0.96539 0.0
H166 H 0.58625 0.20935 0.88383 0.0
H167 H 0.58454 0.24167 0.9357 0.0
H168 H 0.65926 0.20758 0.99692 0.0
H169 H 0.63224 0.17901 0.99046 0.0
H170 H 0.67549 0.19166 -0.00188 0.0
H171 H 0.6489 0.16363 0.99179 0.0
H172 H 0.65064 0.24891 0.04042 0.0
H173 H 0.63512 0.25895 0.95491 0.0
H174 H 0.61609 0.16689 0.88672 0.0
H175 H 0.64847 0.1895 0.87897 0.0
Li176 Li 0.79294 0.62189 0.02738 0.0
Li177 Li 0.78356 0.60447 0.00156 0.0
Li178 Li 0.79061 0.62315 0.97419 0.0
Li179 Li 0.77206 0.62387 0.00433 0.0
C180 C 0.81166 0.60829 0.00854 0.0
N181 N 0.83419 0.60292 0.03332 0.0
C182 C 0.81401 0.59658 0.01977 0.0
C183 C 0.82081 0.61722 0.00959 0.0
C184 C 0.82545 0.59406 0.03228 0.0
C185 C 0.83212 0.61435 0.02232 0.0
C186 C 0.77043 0.60735 0.05793 0.0
C187 C 0.75108 0.59849 0.07237 0.0
N188 N 0.75585 0.59566 0.09957 0.0
C189 C 0.77508 0.60449 0.08617 0.0
C190 C 0.75829 0.60443 0.05108 0.0
C191 C 0.76759 0.59853 0.10684 0.0
C192 C 0.80339 0.63848 0.0679 0.0
N193 N 0.80238 0.6264 0.06116 0.0
C194 C 0.81388 0.62091 0.10449 0.0
C195 C 0.80743 0.61763 0.07883 0.0
C196 C 0.81496 0.63333 0.1123 0.0
C197 C 0.80965 0.64217 0.09348 0.0
H198 H 0.79908 0.64524 0.05375 0.0
H199 H 0.80629 0.60808 0.07325 0.0
C200 C 0.78207 0.5814 0.97401 0.0
N201 N 0.78227 0.5872 0.00084 0.0
C202 C 0.78115 0.56866 0.97271 0.0
C203 C 0.78072 0.56816 0.02667 0.0
C204 C 0.78177 0.58087 0.0269 0.0
C205 C 0.78042 0.56187 -0.00068 0.0
H206 H 0.78266 0.58669 0.95364 0.0
H207 H 0.78229 0.58564 0.04791 0.0
C208 C 0.7885 0.64643 0.99031 0.0
N209 N 0.79385 0.66791 0.96049 0.0
C210 C 0.77909 0.65343 0.97783 0.0
C211 C 0.80061 0.65043 0.98799 0.0
C212 C 0.78199 0.66425 0.96276 0.0
C213 C 0.80313 0.66129 0.9727 0.0
C214 C 0.7651 0.60966 0.95365 0.0
C215 C 0.7623 0.61441 0.92547 0.0
C216 C 0.75755 0.60069 0.96614 0.0
C217 C 0.75184 0.6103 0.91058 0.0
C218 C 0.74717 0.59681 0.95054 0.0
N219 N 0.74455 0.60167 0.92333 0.0
C220 C 0.80957 0.6264 0.93184 0.0
C221 C 0.7909 0.6364 0.9203 0.0
C222 C 0.81506 0.63126 0.90631 0.0
N223 N 0.79774 0.62913 0.93842 0.0
C224 C 0.79603 0.64151 0.89467 0.0
C225 C 0.80829 0.63902 0.88751 0.0
H226 H 0.81477 0.62053 0.94654 0.0
H227 H 0.78149 0.63836 0.92601 0.0
C228 C 0.75367 0.63453 0.03826 0.0
N229 N 0.75651 0.6312 0.00987 0.0
C230 C 0.74274 0.64063 0.04426 0.0
C231 C 0.73786 0.63979 0.99165 0.0
C232 C 0.74889 0.63367 0.98668 0.0
C233 C 0.73474 0.64347 0.02073 0.0
H234 H 0.76001 0.6326 0.0562 0.0
H235 H 0.75151 0.63127 0.96421 0.0
O236 O 0.80048 0.61095 0.99639 0.0
O237 O 0.77767 0.61322 0.03747 0.0
O238 O 0.78586 0.6357 0.00469 0.0
O239 O 0.77534 0.61358 0.96845 0.0
H240 H 0.80707 0.58953 0.01896 0.0
H241 H 0.81916 0.62631 0.00091 0.0
H242 H 0.82738 0.58505 0.04118 0.0
H243 H 0.83925 0.6212 0.02348 0.0
H244 H 0.74168 0.59618 0.06733 0.0
H245 H 0.7844 0.60678 0.09202 0.0
H246 H 0.75438 0.6069 0.02978 0.0
H247 H 0.77111 0.59619 0.12869 0.0
H248 H 0.81791 0.61378 0.11812 0.0
H249 H 0.81001 0.65183 0.09888 0.0
H250 H 0.78118 0.5642 0.95113 0.0
H251 H 0.78007 0.56335 0.04775 0.0
H252 H 0.76967 0.65048 0.9795 0.0
H253 H 0.80798 0.64516 -0.00232 0.0
H254 H 0.77481 0.66972 0.95282 0.0
H255 H 0.81248 0.66445 0.97052 0.0
H256 H 0.76811 0.62123 0.91524 0.0
H257 H 0.75973 0.59663 0.98746 0.0
H258 H 0.74952 0.61397 0.88886 0.0
H259 H 0.74125 0.58989 0.96001 0.0
H260 H 0.82456 0.62917 0.90168 0.0
H261 H 0.79044 0.6473 0.88055 0.0
H262 H 0.74066 0.64321 0.06704 0.0
H263 H 0.73207 0.64203 0.97278 0.0
Li264 Li 0.37509 0.79353 0.02654 0.0
Li265 Li 0.39263 0.78569 -0.00177 0.0
Li266 Li 0.37525 0.79379 0.97342 0.0
Li267 Li 0.37351 0.7747 -0.00208 0.0
C268 C 0.38475 0.81448 0.99111 0.0
N269 N 0.38071 0.8379 0.96992 0.0
C270 C 0.39329 0.82004 0.97224 0.0
C271 C 0.37417 0.82085 -0.00074 0.0
C272 C 0.39107 0.83188 0.96174 0.0
C273 C 0.37229 0.83268 0.98832 0.0
C274 C 0.39042 0.77851 0.05902 0.0
C275 C 0.39566 0.77009 0.10712 0.0
N276 N 0.40295 0.77995 0.11248 0.0
C277 C 0.39794 0.78857 0.06502 0.0
C278 C 0.38924 0.7692 0.08023 0.0
C279 C 0.40421 0.78912 0.09217 0.0
C280 C 0.36043 0.79595 0.07692 0.0
N281 N 0.3701 0.80102 0.06244 0.0
C282 C 0.37267 0.81587 0.10102 0.0
C283 C 0.37625 0.81078 0.07381 0.0
C284 C 0.36274 0.81079 0.11662 0.0
C285 C 0.35657 0.80071 0.10421 0.0
H286 H 0.3558 0.78813 0.06729 0.0
H287 H 0.384 0.81452 0.06189 0.0
C288 C 0.41548 0.79012 0.97365 0.0
N289 N 0.40982 0.7838 0.9958 0.0
C290 C 0.42806 0.78894 0.96933 0.0
C291 C 0.42869 0.77447 0.01016 0.0
C292 C 0.41609 0.77592 0.01367 0.0
C293 C 0.43483 0.78108 0.98783 0.0
H294 H 0.41016 0.79589 0.95899 0.0
H295 H 0.41132 0.77063 0.03038 0.0
C296 C 0.35147 0.78546 0.98369 0.0
N297 N 0.33077 0.77919 0.95169 0.0
C298 C 0.35256 0.78017 0.95538 0.0
C299 C 0.33986 0.78755 0.99571 0.0
C300 C 0.34199 0.77707 0.93956 0.0
C301 C 0.32951 0.78432 0.97918 0.0
C302 C 0.39036 0.76841 0.95431 0.0
C303 C 0.3928 0.76653 0.92404 0.0
C304 C 0.39438 0.75981 0.97529 0.0
C305 C 0.39921 0.75607 0.91522 0.0
C306 C 0.40077 0.74948 0.96559 0.0
N307 N 0.40304 0.74784 0.93601 0.0
C308 C 0.37768 0.80196 0.91461 0.0
C309 C 0.36003 0.80958 0.93918 0.0
C310 C 0.37431 0.80784 0.88823 0.0
N311 N 0.37046 0.80281 0.9392 0.0
C312 C 0.35633 0.81565 0.9133 0.0
C313 C 0.36342 0.81466 0.88726 0.0
H314 H 0.38598 0.79658 0.91546 0.0
H315 H 0.35449 0.81011 0.95914 0.0
C316 C 0.36101 0.75537 0.02453 0.0
N317 N 0.36582 0.75917 -0.00184 0.0
C318 C 0.35459 0.74435 0.02616 0.0
C319 C 0.35845 0.74124 0.97354 0.0
C320 C 0.36466 0.75239 0.97287 0.0
C321 C 0.35317 0.73714 0.00038 0.0
H322 H 0.36194 0.76107 0.04415 0.0
H323 H 0.36839 0.7557 0.95205 0.0
O324 O 0.38658 0.80277 0.00106 0.0
O325 O 0.38401 0.77783 0.03284 0.0
O326 O 0.36165 0.78854 -0.00017 0.0
O327 O 0.38418 0.7787 0.9631 0.0
H328 H 0.40152 0.81527 0.96568 0.0
H329 H 0.36735 0.81662 0.0134 0.0
H330 H 0.39759 0.83627 0.94705 0.0
H331 H 0.36411 0.83768 0.9943 0.0
H332 H 0.39484 0.76295 0.12374 0.0
H333 H 0.39896 0.79587 0.0489 0.0
H334 H 0.38341 0.76138 0.07595 0.0
H335 H 0.41007 0.79685 0.0971 0.0
H336 H 0.37775 0.82355 0.11 0.0
H337 H 0.34879 0.79661 0.11535 0.0
H338 H 0.43239 0.79398 0.95138 0.0
H339 H 0.43357 0.76832 0.02493 0.0
H340 H 0.36144 0.77848 0.94565 0.0
H341 H 0.33887 0.79162 0.01762 0.0
H342 H 0.3427 0.77298 0.91764 0.0
H343 H 0.32046 0.78589 0.98822 0.0
H344 H 0.38976 0.77309 0.90751 0.0
H345 H 0.39258 0.76105 -0.00119 0.0
H346 H 0.40116 0.75451 0.89185 0.0
H347 H 0.40393 0.74277 0.98158 0.0
H348 H 0.38011 0.80698 0.86874 0.0
H349 H 0.34781 0.82072 0.91342 0.0
H350 H 0.35049 0.74171 0.0472 0.0
H351 H 0.35772 0.73595 0.95318 0.0
Li352 Li 0.2026 0.62297 0.02543 0.0
Li353 Li 0.2227 0.62522 0.00175 0.0
Li354 Li 0.20393 0.6216 0.97054 0.0
Li355 Li 0.21326 0.60533 0.00032 0.0
C356 C 0.20219 0.64674 -0.00069 0.0
N357 N 0.19032 0.66898 0.00464 0.0
C358 C 0.20857 0.65708 0.00913 0.0
C359 C 0.18981 0.64776 0.99183 0.0
C360 C 0.2024 0.66822 0.01179 0.0
C361 C 0.18397 0.65906 0.99477 0.0
C362 C 0.22734 0.6165 0.05657 0.0
C363 C 0.24804 0.61298 0.07322 0.0
N364 N 0.24603 0.62047 0.09698 0.0
C365 C 0.22544 0.62406 0.0813 0.0
C366 C 0.23869 0.61081 0.05261 0.0
C367 C 0.23502 0.62599 0.10143 0.0
C368 C 0.18498 0.61893 0.0699 0.0
N369 N 0.19251 0.62755 0.058 0.0
C370 C 0.18557 0.64242 0.09318 0.0
C371 C 0.19306 0.63908 0.06936 0.0
C372 C 0.17763 0.63374 0.10577 0.0
C373 C 0.17743 0.62183 0.09402 0.0
H374 H 0.18487 0.60978 0.06065 0.0
H375 H 0.19944 0.64563 0.06031 0.0
C376 C 0.24608 0.63202 0.98148 0.0
N377 N 0.23778 0.63376 0.00366 0.0
C378 C 0.25722 0.63825 0.98191 0.0
C379 C 0.25107 0.64795 0.02807 0.0
C380 C 0.24001 0.6416 0.0266 0.0
C381 C 0.2598 0.64634 0.00542 0.0
H382 H 0.24401 0.62589 0.96325 0.0
H383 H 0.23313 0.64303 0.04357 0.0
C384 C 0.18409 0.60702 0.99119 0.0
N385 N 0.1604 0.60058 0.97635 0.0
C386 C 0.18167 0.59561 0.97831 0.0
C387 C 0.17443 0.61504 0.99706 0.0
C388 C 0.16964 0.59256 0.9708 0.0
C389 C 0.16252 0.61165 0.98926 0.0
C390 C 0.22653 0.60606 0.94927 0.0
C391 C 0.22198 0.6029 0.92115 0.0
C392 C 0.23722 0.60052 0.95983 0.0
C393 C 0.2281 0.59406 0.90424 0.0
C394 C 0.24306 0.59172 0.94227 0.0
N395 N 0.23841 0.58869 0.91508 0.0
C396 C 0.19709 0.63707 0.92345 0.0
C397 C 0.18938 0.61686 0.91919 0.0
C398 C 0.19117 0.64049 0.89717 0.0
N399 N 0.19591 0.62549 0.93418 0.0
C400 C 0.18335 0.61986 0.89271 0.0
C401 C 0.18413 0.63185 0.88155 0.0
H402 H 0.20265 0.64365 0.93531 0.0
H403 H 0.18893 0.60761 0.92761 0.0
C404 C 0.21975 0.58337 0.0288 0.0
N405 N 0.21605 0.58826 0.00238 0.0
C406 C 0.2218 0.5708 0.03123 0.0
C407 C 0.21636 0.56861 0.97914 0.0
C408 C 0.21417 0.58116 0.97789 0.0
C409 C 0.22017 0.56333 0.0061 0.0
H410 H 0.221 0.58922 0.04802 0.0
H411 H 0.21088 0.58523 0.95742 0.0
O412 O 0.2081 0.63574 0.99678 0.0
O413 O 0.21811 0.6146 0.03647 0.0
O414 O 0.19582 0.61012 -0.00121 0.0
O415 O 0.22061 0.61463 0.96622 0.0
H416 H 0.21818 0.65649 0.01476 0.0
H417 H 0.18482 0.63994 0.9835 0.0
H418 H 0.20721 0.67628 0.01952 0.0
H419 H 0.17439 0.65997 0.98908 0.0
H420 H 0.25689 0.60871 0.07033 0.0
H421 H 0.2167 0.62847 0.08481 0.0
H422 H 0.24026 0.60482 0.03381 0.0
H423 H 0.23371 0.63188 0.12057 0.0
H424 H 0.18618 0.65162 0.10211 0.0
H425 H 0.17143 0.61489 0.10321 0.0
H426 H 0.26373 0.63676 0.96405 0.0
H427 H 0.25264 0.65428 0.04628 0.0
H428 H 0.18901 0.58923 0.97394 0.0
H429 H 0.17605 0.62373 0.00784 0.0
H430 H 0.16765 0.5838 0.96059 0.0
H431 H 0.15496 0.61779 0.99359 0.0
H432 H 0.21378 0.60717 0.91252 0.0
H433 H 0.24092 0.60294 0.9814 0.0
H434 H 0.22464 0.59147 0.88251 0.0
H435 H 0.25129 0.58729 0.95025 0.0
H436 H 0.19224 0.64976 0.88895 0.0
H437 H 0.17803 0.61292 0.8813 0.0
H438 H 0.22468 0.56696 0.05241 0.0
H439 H 0.21481 0.56304 0.95949 0.0
Li440 Li 0.3711 0.225 0.00202 0.0
Li441 Li 0.37207 0.20578 0.03083 0.0
Li442 Li 0.38935 0.21283 -0.00029 0.0
Li443 Li 0.37145 0.2045 0.97551 0.0
C444 C 0.38305 0.23025 0.05493 0.0
N445 N 0.38433 0.24976 0.09405 0.0
C446 C 0.37827 0.22917 0.08376 0.0
C447 C 0.38852 0.24123 0.04603 0.0
C448 C 0.379 0.23915 0.1032 0.0
C449 C 0.38906 0.251 0.06612 0.0
C450 C 0.34675 0.21014 0.00635 0.0
C451 C 0.32807 0.1988 -0.00162 0.0
N452 N 0.32166 0.20781 0.01233 0.0
C453 C 0.33995 0.21932 0.02045 0.0
C454 C 0.34074 0.19982 0.99509 0.0
C455 C 0.32729 0.21796 0.02333 0.0
C456 C 0.36204 0.24585 0.97309 0.0
N457 N 0.36397 0.24088 0.00049 0.0
C458 C 0.3546 0.2581 0.02406 0.0
C459 C 0.36033 0.24673 0.02574 0.0
C460 C 0.35213 0.26336 0.99604 0.0
C461 C 0.35605 0.25709 0.9703 0.0
H462 H 0.36486 0.24091 0.95333 0.0
H463 H 0.36155 0.24245 0.04724 0.0
C464 C 0.37539 0.19062 0.08119 0.0
N465 N 0.36724 0.19796 0.06681 0.0
C466 C 0.37198 0.18452 0.10732 0.0
C467 C 0.35193 0.19374 0.10334 0.0
C468 C 0.35576 0.19973 0.07755 0.0
C469 C 0.36006 0.18597 0.11846 0.0
H470 H 0.3845 0.18944 0.0722 0.0
H471 H 0.34955 0.20582 0.06621 0.0
C472 C 0.38936 0.22352 0.94738 0.0
N473 N 0.40878 0.23037 0.91165 0.0
C474 C 0.39341 0.21575 0.92466 0.0
C475 C 0.39506 0.23483 0.95172 0.0
C476 C 0.40327 0.21937 0.90687 0.0
C477 C 0.40491 0.23811 0.93349 0.0
C478 C 0.38068 0.1836 0.00513 0.0
C479 C 0.39033 0.17535 0.00124 0.0
C480 C 0.36892 0.17918 0.01093 0.0
C481 C 0.38802 0.16279 0.00297 0.0
C482 C 0.36698 0.16656 0.01254 0.0
N483 N 0.37648 0.15869 0.00852 0.0
C484 C 0.41335 0.22179 0.01045 0.0
C485 C 0.41182 0.20479 0.97775 0.0
C486 C 0.426 0.22222 0.00646 0.0
N487 N 0.40657 0.21322 0.99598 0.0
C488 C 0.42443 0.20487 0.9731 0.0
C489 C 0.43168 0.21369 0.98751 0.0
H490 H 0.40896 0.22829 0.02507 0.0
H491 H 0.40615 0.1981 0.9665 0.0
C492 C 0.35572 0.20079 0.92728 0.0
N493 N 0.36543 0.19589 0.94194 0.0
C494 C 0.35091 0.19496 0.90217 0.0
C495 C 0.36635 0.17924 0.90746 0.0
C496 C 0.37088 0.18542 0.93239 0.0
C497 C 0.35621 0.184 0.892 0.0
H498 H 0.35173 0.20927 0.9351 0.0
H499 H 0.3788 0.18188 0.94392 0.0
O500 O 0.38242 0.22055 0.03566 0.0
O501 O 0.35915 0.2114 0.00307 0.0
O502 O 0.37994 0.22001 0.96551 0.0
O503 O 0.38283 0.19592 0.00339 0.0
H504 H 0.37404 0.22073 0.09105 0.0
H505 H 0.39214 0.24227 0.02371 0.0
H506 H 0.37533 0.23846 0.12555 0.0
H507 H 0.3932 0.25957 0.05948 0.0
H508 H 0.32332 0.19085 0.98979 0.0
H509 H 0.3444 0.22732 0.02947 0.0
H510 H 0.34576 0.19267 0.98377 0.0
H511 H 0.32195 0.22496 0.03435 0.0
H512 H 0.35198 0.26259 0.04462 0.0
H513 H 0.35417 0.26059 0.94816 0.0
H514 H 0.3785 0.17858 0.11839 0.0
H515 H 0.34274 0.19528 0.11158 0.0
H516 H 0.38908 0.20696 0.92106 0.0
H517 H 0.39197 0.24097 0.96911 0.0
H518 H 0.40657 0.21341 0.88934 0.0
H519 H 0.40947 0.24679 0.93671 0.0
H520 H 0.3995 0.17863 0.99684 0.0
H521 H 0.36142 0.18543 0.01447 0.0
H522 H 0.39539 0.1563 -9e-05 0.0
H523 H 0.35792 0.16302 0.01704 0.0
H524 H 0.43128 0.22903 0.0184 0.0
H525 H 0.42844 0.19821 0.95809 0.0
H526 H 0.34326 0.1991 0.89061 0.0
H527 H 0.37069 0.17079 0.90054 0.0
Li528 Li 0.79045 0.3692 0.0204 0.0
Li529 Li 0.7702 0.36912 0.99675 0.0
Li530 Li 0.78915 0.37101 0.96542 0.0
Li531 Li 0.78157 0.38787 0.99566 0.0
C532 C 0.7886 0.34569 0.99103 0.0
N533 N 0.79842 0.32237 0.99039 0.0
C534 C 0.78136 0.33561 -0.00132 0.0
C535 C 0.80078 0.34387 0.98266 0.0
C536 C 0.78651 0.3239 -0.00165 0.0
C537 C 0.80559 0.33202 0.98256 0.0
C538 C 0.76651 0.37762 0.05177 0.0
C539 C 0.74604 0.38224 0.06849 0.0
N540 N 0.74756 0.37445 0.09189 0.0
C541 C 0.76791 0.36974 0.07613 0.0
C542 C 0.75553 0.38401 0.04805 0.0
C543 C 0.75821 0.36823 0.09611 0.0
C544 C 0.80715 0.37124 0.06801 0.0
N545 N 0.79973 0.3633 0.05323 0.0
C546 C 0.80493 0.34721 0.08697 0.0
C547 C 0.79847 0.3515 0.06229 0.0
C548 C 0.81258 0.35521 0.103 0.0
C549 C 0.8137 0.36738 0.09309 0.0
H550 H 0.80783 0.38064 0.06051 0.0
H551 H 0.79228 0.34544 0.05078 0.0
C552 C 0.7457 0.3648 0.97895 0.0
N553 N 0.75447 0.36187 -0.00076 0.0
C554 C 0.73422 0.3592 0.98024 0.0
C555 C 0.74102 0.34781 0.02348 0.0
C556 C 0.75237 0.35355 0.02121 0.0
C557 C 0.7318 0.35054 0.00267 0.0
H558 H 0.74767 0.37134 0.9615 0.0
H559 H 0.75959 0.35124 0.03671 0.0
C560 C 0.81072 0.3828 0.98799 0.0
N561 N 0.83541 0.38579 0.97665 0.0
C562 C 0.81503 0.39368 0.97538 0.0
C563 C 0.81902 0.37355 0.99545 0.0
C564 C 0.82753 0.39499 0.96962 0.0
C565 C 0.83145 0.3752 0.98939 0.0
C566 C 0.76838 0.38902 0.94527 0.0
C567 C 0.77344 0.39216 0.91767 0.0
C568 C 0.75835 0.39559 0.9562 0.0
C569 C 0.76852 0.40198 0.90167 0.0
C570 C 0.75371 0.40536 0.93956 0.0
N571 N 0.75885 0.40833 0.91288 0.0
C572 C 0.79371 0.35566 0.91638 0.0
C573 C 0.80421 0.37463 0.91452 0.0
C574 C 0.79897 0.35205 0.88943 0.0
N575 N 0.79656 0.36669 0.92858 0.0
C576 C 0.80962 0.37144 0.8874 0.0
C577 C 0.80707 0.35998 0.87456 0.0
H578 H 0.78736 0.34964 0.92763 0.0
H579 H 0.80593 0.38354 0.92405 0.0
C580 C 0.77577 0.41061 0.02196 0.0
N581 N 0.7805 0.40514 0.99729 0.0
C582 C 0.77464 0.42333 0.0231 0.0
C583 C 0.78325 0.42447 0.97342 0.0
C584 C 0.78437 0.41177 0.97343 0.0
C585 C 0.77832 0.43038 -0.00152 0.0
H586 H 0.77287 0.4051 0.04071 0.0
H587 H 0.78825 0.40717 0.95428 0.0
O588 O 0.78368 0.35722 0.9914 0.0
O589 O 0.77585 0.37909 0.03175 0.0
O590 O 0.7985 0.38143 0.99398 0.0
O591 O 0.77318 0.37953 0.96142 0.0
H592 H 0.77188 0.33681 0.00492 0.0
H593 H 0.80641 0.35149 0.97579 0.0
H594 H 0.78103 0.31603 0.00439 0.0
H595 H 0.81501 0.3305 0.97612 0.0
H596 H 0.73747 0.38706 0.06576 0.0
H597 H 0.77636 0.36477 0.07946 0.0
H598 H 0.75433 0.39022 0.02949 0.0
H599 H 0.75915 0.36211 0.11495 0.0
H600 H 0.80388 0.33772 0.09346 0.0
H601 H 0.81931 0.37393 0.10497 0.0
H602 H 0.72734 0.36157 0.96381 0.0
H603 H 0.7396 0.34101 0.04075 0.0
H604 H 0.80879 0.40102 0.96989 0.0
H605 H 0.81595 0.36524 0.00616 0.0
H606 H 0.83096 0.40332 0.95961 0.0
H607 H 0.83795 0.3681 0.99495 0.0
H608 H 0.78113 0.38712 0.90876 0.0
H609 H 0.75427 0.39323 0.9774 0.0
H610 H 0.7724 0.40456 0.88036 0.0
H611 H 0.74602 0.41058 0.94787 0.0
H612 H 0.7968 0.34309 0.88054 0.0
H613 H 0.81557 0.37796 0.87639 0.0
H614 H 0.77077 0.42759 0.04279 0.0
H615 H 0.78635 0.42963 0.95421 0.0
Li616 Li 0.62324 0.79649 0.03067 0.0
Li617 Li 0.62652 0.77573 0.01417 0.0
Li618 Li 0.62536 0.7923 0.97664 0.0
Li619 Li 0.60755 0.78505 0.00311 0.0
C620 C 0.6483 0.78803 0.02487 0.0
N621 N 0.66953 0.78368 0.05676 0.0
C622 C 0.64793 0.78692 0.05592 0.0
C623 C 0.6595 0.78693 0.01003 0.0
C624 C 0.65874 0.78472 0.07165 0.0
C625 C 0.67013 0.78474 0.02654 0.0
C626 C 0.61398 0.77344 0.06612 0.0
C627 C 0.60995 0.75309 0.08469 0.0
N628 N 0.61385 0.7566 0.11223 0.0
C629 C 0.61786 0.77686 0.09468 0.0
C630 C 0.60991 0.76147 0.06114 0.0
C631 C 0.61775 0.76821 0.11766 0.0
C632 C 0.6164 0.81067 0.07985 0.0
N633 N 0.62573 0.80855 0.0605 0.0
C634 C 0.63835 0.82318 0.0854 0.0
C635 C 0.63646 0.81479 0.06238 0.0
C636 C 0.62903 0.82526 0.10646 0.0
C637 C 0.61786 0.81902 0.10314 0.0
H638 H 0.6079 0.80569 0.07744 0.0
H639 H 0.64365 0.81308 0.04634 0.0
C640 C 0.63598 0.75291 -0.00136 0.0
N641 N 0.63466 0.76061 0.02224 0.0
C642 C 0.64189 0.74169 0.00214 0.0
C643 C 0.64507 0.74652 0.05421 0.0
C644 C 0.63913 0.75767 0.04966 0.0
C645 C 0.64654 0.73836 0.03023 0.0
H646 H 0.63255 0.75554 0.97694 0.0
H647 H 0.63808 0.76392 0.06812 0.0
C648 C 0.61462 0.81454 0.99279 0.0
N649 N 0.61843 0.83933 0.98475 0.0
C650 C 0.60466 0.82252 0.99087 0.0
C651 C 0.62652 0.81916 0.99063 0.0
C652 C 0.60677 0.83503 0.98679 0.0
C653 C 0.62825 0.83172 0.98657 0.0
C654 C 0.60948 0.76993 0.95851 0.0
C655 C 0.60511 0.77526 0.93223 0.0
C656 C 0.60475 0.75869 0.96795 0.0
C657 C 0.59591 0.76935 0.91607 0.0
C658 C 0.59555 0.75306 0.95119 0.0
N659 N 0.59134 0.75847 0.92583 0.0
C660 C 0.64224 0.79506 0.92948 0.0
C661 C 0.62342 0.8055 0.92285 0.0
C662 C 0.64648 0.79934 0.902 0.0
N663 N 0.63095 0.79828 0.93938 0.0
C664 C 0.62725 0.80996 0.89521 0.0
C665 C 0.63894 0.80691 0.88451 0.0
H666 H 0.6479 0.78908 0.94281 0.0
H667 H 0.61439 0.80776 0.93109 0.0
C668 C 0.58403 0.77516 0.01547 0.0
N669 N 0.59053 0.78297 -0.002 0.0
C670 C 0.57149 0.77368 0.01092 0.0
C671 C 0.5726 0.78837 0.97058 0.0
C672 C 0.5851 0.78958 0.97597 0.0
C673 C 0.56562 0.78035 0.98824 0.0
H674 H 0.58854 0.77014 0.03305 0.0
H675 H 0.59055 0.79572 0.96246 0.0
O676 O 0.63779 0.79015 0.00901 0.0
O677 O 0.61399 0.78181 0.04336 0.0
O678 O 0.61265 0.80229 0.9969 0.0
O679 O 0.61826 0.77574 0.97506 0.0
H680 H 0.63936 0.78767 0.06777 0.0
H681 H 0.66001 0.78778 0.98603 0.0
H682 H 0.65855 0.78382 0.0957 0.0
H683 H 0.67885 0.78387 0.01533 0.0
H684 H 0.60692 0.74378 0.08106 0.0
H685 H 0.62095 0.78609 0.0991 0.0
H686 H 0.60692 0.75863 0.03923 0.0
H687 H 0.62078 0.77073 0.13982 0.0
H688 H 0.64715 0.82768 0.0872 0.0
H689 H 0.61036 0.82049 0.11852 0.0
H690 H 0.64305 0.73582 0.98287 0.0
H691 H 0.64844 0.74429 0.0763 0.0
H692 H 0.59539 0.81908 0.99252 0.0
H693 H 0.63435 0.81313 0.99203 0.0
H694 H 0.59915 0.84132 0.98526 0.0
H695 H 0.63741 0.83542 0.98486 0.0
H696 H 0.60867 0.78394 0.92458 0.0
H697 H 0.60812 0.75436 0.98803 0.0
H698 H 0.59236 0.77342 0.89582 0.0
H699 H 0.59175 0.7444 0.95834 0.0
H700 H 0.65547 0.79662 0.89432 0.0
H701 H 0.62119 0.81583 0.88253 0.0
H702 H 0.56642 0.76756 0.02537 0.0
H703 H 0.56846 0.79359 0.95267 0.0
Li704 Li 0.70878 0.88876 0.49641 0.0
Li705 Li 0.69987 0.87 0.51667 0.0
Li706 Li 0.71815 0.86893 0.48671 0.0
Li707 Li 0.69809 0.87417 0.46558 0.0
C708 C 0.71653 0.88193 0.55386 0.0
N709 N 0.71689 0.89143 0.61106 0.0
C710 C 0.70634 0.8882 0.56502 0.0
C711 C 0.72689 0.8805 0.57185 0.0
C712 C 0.70671 0.89292 0.59398 0.0
C713 C 0.7269 0.88538 0.60068 0.0
C714 C 0.68006 0.88735 0.48779 0.0
C715 C 0.65985 0.88178 0.4708 0.0
N716 N 0.65759 0.8937 0.464 0.0
C717 C 0.67747 0.89957 0.48105 0.0
C718 C 0.67112 0.87841 0.48303 0.0
C719 C 0.66608 0.90259 0.4689 0.0
C720 C 0.70872 0.91274 0.47669 0.0
N721 N 0.7127 0.90568 0.4997 0.0
C722 C 0.72313 0.92273 0.52136 0.0
C723 C 0.71994 0.91036 0.52161 0.0
C724 C 0.719 0.93028 0.49809 0.0
C725 C 0.71171 0.92514 0.47551 0.0
H726 H 0.70336 0.90867 0.45898 0.0
H727 H 0.72353 0.90452 0.53891 0.0
C728 C 0.6998 0.8561 0.569 0.0
N729 N 0.69252 0.86304 0.55115 0.0
C730 C 0.6952 0.85113 0.59535 0.0
C731 C 0.67568 0.86061 0.58459 0.0
C732 C 0.68068 0.86538 0.55835 0.0
C733 C 0.68301 0.85345 0.60358 0.0
H734 H 0.70924 0.85453 0.56285 0.0
H735 H 0.67517 0.87113 0.54405 0.0
C736 C 0.72445 0.8879 0.44823 0.0
N737 N 0.74532 0.89986 0.42922 0.0
C738 C 0.72548 0.89177 0.41861 0.0
C739 C 0.73402 0.89015 0.46823 0.0
C740 C 0.73611 0.89779 0.40942 0.0
C741 C 0.7445 0.8962 0.45817 0.0
C742 C 0.7005 0.84752 0.49624 0.0
C743 C 0.70972 0.84003 0.5078 0.0
C744 C 0.68828 0.84382 0.49846 0.0
C745 C 0.70656 0.82906 0.52188 0.0
C746 C 0.68549 0.8328 0.51274 0.0
N747 N 0.69461 0.82571 0.52409 0.0
C748 C 0.73996 0.85798 0.505 0.0
C749 C 0.73768 0.85924 0.45244 0.0
C750 C 0.75143 0.85258 0.50185 0.0
N751 N 0.73338 0.86117 0.48051 0.0
C752 C 0.74917 0.8539 0.44822 0.0
C753 C 0.75621 0.85051 0.47316 0.0
H754 H 0.73622 0.85953 0.527 0.0
H755 H 0.73223 0.86194 0.43338 0.0
C756 C 0.68631 0.88319 0.41429 0.0
N757 N 0.68844 0.87293 0.43067 0.0
C758 C 0.67936 0.88253 0.38818 0.0
C759 C 0.67704 0.86075 0.39633 0.0
C760 C 0.68399 0.86185 0.4223 0.0
C761 C 0.67467 0.87117 0.37882 0.0
H762 H 0.69003 0.89187 0.42153 0.0
H763 H 0.68597 0.85383 0.4356 0.0
O764 O 0.71636 0.87701 0.52574 0.0
O765 O 0.69124 0.88418 0.4993 0.0
O766 O 0.71402 0.88212 0.45755 0.0
O767 O 0.70341 0.85842 0.48288 0.0
H768 H 0.69823 0.88943 0.55159 0.0
H769 H 0.73487 0.87572 0.56361 0.0
H770 H 0.69889 0.89778 0.60288 0.0
H771 H 0.73486 0.88435 0.6148 0.0
H772 H 0.65292 0.87492 0.46669 0.0
H773 H 0.68411 0.90667 0.48533 0.0
H774 H 0.67292 0.86894 0.48836 0.0
H775 H 0.66398 0.91201 0.46344 0.0
H776 H 0.729 0.92627 0.53883 0.0
H777 H 0.70829 0.93064 0.45721 0.0
H778 H 0.70113 0.84555 0.60914 0.0
H779 H 0.6663 0.86278 0.59031 0.0
H780 H 0.71812 0.89014 0.40291 0.0
H781 H 0.73337 0.88729 0.4913 0.0
H782 H 0.73704 0.90083 0.38654 0.0
H783 H 0.75198 0.89799 0.4734 0.0
H784 H 0.71922 0.84268 0.50615 0.0
H785 H 0.68102 0.84941 0.48944 0.0
H786 H 0.71361 0.82322 0.5311 0.0
H787 H 0.67607 0.82988 0.51482 0.0
H788 H 0.75641 0.84987 0.52169 0.0
H789 H 0.75254 0.85257 0.42572 0.0
H790 H 0.67767 0.8908 0.37552 0.0
H791 H 0.67382 0.85178 0.38968 0.0
Li792 Li 0.10412 0.70775 0.49633 0.0
Li793 Li 0.12166 0.69841 0.52109 0.0
Li794 Li 0.12422 0.71732 0.49409 0.0
Li795 Li 0.12026 0.69776 0.46899 0.0
C796 C 0.10781 0.71434 0.55632 0.0
N797 N 0.09535 0.71356 0.60998 0.0
C798 C 0.10102 0.70396 0.56412 0.0
C799 C 0.10826 0.72431 0.57586 0.0
C800 C 0.09479 0.70375 0.59134 0.0
C801 C 0.10189 0.72374 0.60286 0.0
C802 C 0.10627 0.67924 0.48427 0.0
C803 C 0.11307 0.65959 0.46605 0.0
N804 N 0.10162 0.65731 0.45557 0.0
C805 C 0.09452 0.67661 0.47374 0.0
C806 C 0.11558 0.67058 0.48081 0.0
C807 C 0.09237 0.66551 0.45915 0.0
C808 C 0.08142 0.70739 0.46953 0.0
N809 N 0.08712 0.71131 0.49472 0.0
C810 C 0.06855 0.72016 0.5127 0.0
C811 C 0.08104 0.71787 0.51585 0.0
C812 C 0.06233 0.71575 0.48746 0.0
C813 C 0.06895 0.70942 0.46552 0.0
H814 H 0.08662 0.70266 0.45251 0.0
H815 H 0.08582 0.7214 0.53506 0.0
C816 C 0.13262 0.69678 0.57749 0.0
N817 N 0.12673 0.69013 0.55627 0.0
C818 C 0.13645 0.69122 0.6039 0.0
C819 C 0.12789 0.67212 0.58633 0.0
C820 C 0.12423 0.67805 0.56021 0.0
C821 C 0.13408 0.67872 0.6086 0.0
H822 H 0.13435 0.70641 0.57384 0.0
H823 H 0.11931 0.67305 0.54326 0.0
C824 C 0.10733 0.72443 0.45095 0.0
N825 N 0.0964 0.74572 0.43098 0.0
C826 C 0.10514 0.72614 0.42051 0.0
C827 C 0.10393 0.73354 0.47127 0.0
C828 C 0.09961 0.73697 0.41084 0.0
C829 C 0.09843 0.74424 0.46073 0.0
C830 C 0.14501 0.6996 0.50838 0.0
C831 C 0.15158 0.70869 0.52342 0.0
C832 C 0.14876 0.6874 0.51057 0.0
C833 C 0.16168 0.70538 0.54079 0.0
C834 C 0.15889 0.68446 0.52821 0.0
N835 N 0.16508 0.69344 0.54286 0.0
C836 C 0.1343 0.73919 0.51661 0.0
C837 C 0.13548 0.73689 0.46406 0.0
C838 C 0.14009 0.75055 0.51496 0.0
N839 N 0.13219 0.73263 0.49138 0.0
C840 C 0.14115 0.74828 0.46131 0.0
C841 C 0.14361 0.75525 0.48701 0.0
H842 H 0.13163 0.7355 0.53803 0.0
H843 H 0.13361 0.73146 0.44438 0.0
C844 C 0.11412 0.68865 0.4127 0.0
N845 N 0.12324 0.68904 0.43332 0.0
C846 C 0.11597 0.68272 0.3855 0.0
C847 C 0.13647 0.67755 0.4016 0.0
C848 C 0.13425 0.68365 0.42841 0.0
C849 C 0.12729 0.67714 0.37963 0.0
H850 H 0.10546 0.69306 0.41735 0.0
H851 H 0.14135 0.68422 0.44515 0.0
O852 O 0.11417 0.71475 0.53001 0.0
O853 O 0.10861 0.69015 0.49827 0.0
O854 O 0.11266 0.71382 0.46067 0.0
O855 O 0.13493 0.70265 0.49175 0.0
H856 H 0.10053 0.69614 0.54941 0.0
H857 H 0.11347 0.73241 0.5702 0.0
H858 H 0.08951 0.69578 0.59764 0.0
H859 H 0.10215 0.7314 0.61816 0.0
H860 H 0.12024 0.65289 0.46291 0.0
H861 H 0.0871 0.68299 0.47704 0.0
H862 H 0.12468 0.67238 0.48906 0.0
H863 H 0.08332 0.6634 0.45078 0.0
H864 H 0.06376 0.72513 0.53007 0.0
H865 H 0.06454 0.70612 0.44541 0.0
H866 H 0.14131 0.69663 0.62033 0.0
H867 H 0.1257 0.66252 0.58926 0.0
H868 H 0.10768 0.71915 0.40452 0.0
H869 H 0.1055 0.73237 0.49494 0.0
H870 H 0.09786 0.73842 0.38733 0.0
H871 H 0.09576 0.75136 0.47619 0.0
H872 H 0.14889 0.71817 0.52193 0.0
H873 H 0.14387 0.68023 0.49902 0.0
H874 H 0.16679 0.71232 0.55269 0.0
H875 H 0.16182 0.67503 0.53029 0.0
H876 H 0.142 0.75546 0.53543 0.0
H877 H 0.14351 0.75159 0.43926 0.0
H878 H 0.10865 0.68253 0.36921 0.0
H879 H 0.14538 0.67351 0.39774 0.0
Li880 Li 0.29231 0.11923 0.52972 0.0
Li881 Li 0.28415 0.10287 0.49988 0.0
Li882 Li 0.29241 0.12145 0.47687 0.0
Li883 Li 0.27291 0.12227 0.50256 0.0
C884 C 0.31255 0.10678 0.51194 0.0
N885 N 0.33542 0.10254 0.53621 0.0
C886 C 0.31614 0.09487 0.51934 0.0
C887 C 0.32064 0.1165 0.51658 0.0
C888 C 0.32773 0.09292 0.53166 0.0
C889 C 0.33215 0.11418 0.52896 0.0
C890 C 0.27682 0.1036 0.56097 0.0
C891 C 0.26873 0.09841 0.60946 0.0
N892 N 0.27777 0.08996 0.61291 0.0
C893 C 0.28599 0.09485 0.56499 0.0
C894 C 0.26809 0.10539 0.58336 0.0
C895 C 0.28633 0.08805 0.59138 0.0
C896 C 0.29708 0.13496 0.57655 0.0
N897 N 0.29996 0.12359 0.56643 0.0
C898 C 0.31205 0.11974 0.60993 0.0
C899 C 0.30723 0.11593 0.58258 0.0
C900 C 0.30916 0.13142 0.62091 0.0
C901 C 0.30159 0.13908 0.60384 0.0
H902 H 0.29113 0.14079 0.56351 0.0
H903 H 0.30919 0.10683 0.57452 0.0
C904 C 0.28998 0.08032 0.47485 0.0
N905 N 0.28224 0.08586 0.49432 0.0
C906 C 0.28899 0.0678 0.46935 0.0
C907 C 0.27192 0.06699 0.5037 0.0
C908 C 0.27324 0.07954 0.50849 0.0
C909 C 0.2799 0.06096 0.484 0.0
H910 H 0.29692 0.08566 0.46359 0.0
H911 H 0.26709 0.08423 0.52353 0.0
C912 C 0.2904 0.14437 0.49396 0.0
N913 N 0.29783 0.16585 0.46688 0.0
C914 C 0.28253 0.15055 0.47452 0.0
C915 C 0.30198 0.14921 0.49999 0.0
C916 C 0.28647 0.16137 0.46095 0.0
C917 C 0.30558 0.16006 0.48598 0.0
C918 C 0.26704 0.1068 0.45511 0.0
C919 C 0.26602 0.10489 0.42438 0.0
C920 C 0.25784 0.10255 0.47418 0.0
C921 C 0.25579 0.09872 0.41319 0.0
C922 C 0.24777 0.09642 0.46213 0.0
N923 N 0.24696 0.09465 0.43214 0.0
C924 C 0.31283 0.12662 0.43925 0.0
C925 C 0.29335 0.13253 0.42097 0.0
C926 C 0.31845 0.13088 0.41325 0.0
N927 N 0.30051 0.12756 0.44259 0.0
C928 C 0.29857 0.13696 0.39473 0.0
C929 C 0.31129 0.13611 0.39051 0.0
H930 H 0.31829 0.1224 0.45647 0.0
H931 H 0.28354 0.13301 0.42414 0.0
C932 C 0.25286 0.13274 0.53126 0.0
N933 N 0.25745 0.12996 0.50394 0.0
C934 C 0.24183 0.13906 0.53376 0.0
C935 C 0.24044 0.13948 0.47987 0.0
C936 C 0.25148 0.13309 0.47844 0.0
C937 C 0.23554 0.14268 0.50783 0.0
H938 H 0.25792 0.13026 0.55109 0.0
H939 H 0.25547 0.13092 0.45698 0.0
O940 O 0.30122 0.10885 0.49986 0.0
O941 O 0.27636 0.11044 0.53537 0.0
O942 O 0.28679 0.13364 0.507 0.0
O943 O 0.27705 0.11276 0.46631 0.0
H944 H 0.31006 0.08721 0.51566 0.0
H945 H 0.31803 0.12575 0.51091 0.0
H946 H 0.33061 0.08377 0.53761 0.0
H947 H 0.33846 0.12164 0.53285 0.0
H948 H 0.26204 0.09971 0.62697 0.0
H949 H 0.2928 0.09334 0.54793 0.0
H950 H 0.26088 0.11208 0.58063 0.0
H951 H 0.29341 0.08127 0.59476 0.0
H952 H 0.31775 0.11352 0.62266 0.0
H953 H 0.29922 0.14819 0.61146 0.0
H954 H 0.2952 0.06354 0.45364 0.0
H955 H 0.26487 0.06205 0.51567 0.0
H956 H 0.27353 0.14694 0.46965 0.0
H957 H 0.3081 0.14467 0.51538 0.0
H958 H 0.28051 0.16619 0.44565 0.0
H959 H 0.31454 0.16388 0.49034 0.0
H960 H 0.27307 0.10812 0.40935 0.0
H961 H 0.25847 0.10395 0.49803 0.0
H962 H 0.25489 0.09717 0.38944 0.0
H963 H 0.24059 0.09307 0.47662 0.0
H964 H 0.32825 0.12984 0.41075 0.0
H965 H 0.2927 0.14106 0.378 0.0
H966 H 0.23833 0.14122 0.55576 0.0
H967 H 0.23602 0.14226 0.45931 0.0
Li968 Li 0.87628 0.29311 0.52196 0.0
Li969 Li 0.89133 0.28293 0.49362 0.0
Li970 Li 0.87451 0.2931 0.46882 0.0
Li971 Li 0.8712 0.27431 0.49811 0.0
C972 C 0.89681 0.307 0.50713 0.0
N973 N 0.91553 0.31942 0.53552 0.0
C974 C 0.90093 0.30314 0.53515 0.0
C975 C 0.90221 0.31718 0.49357 0.0
C976 C 0.9104 0.30954 0.54913 0.0
C977 C 0.91166 0.32334 0.50828 0.0
C978 C 0.88796 0.26572 0.53838 0.0
C979 C 0.89603 0.24586 0.52542 0.0
N980 N 0.89741 0.24325 0.55492 0.0
C981 C 0.88944 0.26283 0.56855 0.0
C982 C 0.89127 0.25717 0.5166 0.0
C983 C 0.89424 0.25143 0.57647 0.0
C984 C 0.86697 0.29495 0.57868 0.0
N985 N 0.87245 0.30185 0.5573 0.0
C986 C 0.86934 0.32005 0.58587 0.0
C987 C 0.87384 0.31416 0.56043 0.0
C988 C 0.86324 0.31318 0.60778 0.0
C989 C 0.86224 0.30045 0.60419 0.0
H990 H 0.86591 0.2852 0.57531 0.0
H991 H 0.87803 0.31945 0.54277 0.0
C992 C 0.91277 0.27862 0.46156 0.0
N993 N 0.90811 0.27914 0.48962 0.0
C994 C 0.92509 0.27581 0.45717 0.0
C995 C 0.92752 0.27413 0.5107 0.0
C996 C 0.91517 0.277 0.51404 0.0
C997 C 0.93263 0.27353 0.48196 0.0
H998 H 0.9069 0.28041 0.44261 0.0
H999 H 0.91124 0.27755 0.53614 0.0
C1000 C 0.85332 0.29786 0.50887 0.0
N1001 N 0.83757 0.31493 0.53333 0.0
C1002 C 0.84359 0.29407 0.52689 0.0
C1003 C 0.85498 0.31034 0.50311 0.0
C1004 C 0.83575 0.30284 0.53911 0.0
C1005 C 0.84693 0.31882 0.5157 0.0
C1006 C 0.87539 0.27149 0.4365 0.0
C1007 C 0.86266 0.2722 0.43367 0.0
C1008 C 0.88227 0.26592 0.414 0.0
C1009 C 0.85704 0.26731 0.40833 0.0
C1010 C 0.8763 0.26113 0.38901 0.0
N1011 N 0.86392 0.26192 0.38671 0.0
C1012 C 0.87856 0.30461 0.41365 0.0
C1013 C 0.85771 0.30315 0.42783 0.0
C1014 C 0.87528 0.30966 0.38614 0.0
N1015 N 0.86978 0.3014 0.43364 0.0
C1016 C 0.85402 0.30825 0.40077 0.0
C1017 C 0.86284 0.3114 0.37926 0.0
H1018 H 0.88809 0.30291 0.41879 0.0
H1019 H 0.8509 0.3003 0.4439 0.0
C1020 C 0.85467 0.2595 0.52741 0.0
N1021 N 0.86208 0.2597 0.50311 0.0
C1022 C 0.8474 0.2493 0.5333 0.0
C1023 C 0.85596 0.23943 0.48972 0.0
C1024 C 0.86308 0.24985 0.48469 0.0
C1025 C 0.84786 0.23916 0.51407 0.0
H1026 H 0.85447 0.26728 0.5423 0.0
H1027 H 0.86937 0.25004 0.46611 0.0
O1028 O 0.88761 0.30088 0.49274 0.0
O1029 O 0.88321 0.27686 0.53052 0.0
O1030 O 0.86137 0.28947 0.49753 0.0
O1031 O 0.88119 0.27637 0.46084 0.0
H1032 H 0.89688 0.29531 0.54607 0.0
H1033 H 0.89913 0.32027 0.47186 0.0
H1034 H 0.91368 0.30665 0.5708 0.0
H1035 H 0.91592 0.33123 0.49803 0.0
H1036 H 0.89864 0.23917 0.50881 0.0
H1037 H 0.8869 0.26935 0.58567 0.0
H1038 H 0.89021 0.25919 0.49314 0.0
H1039 H 0.89544 0.24908 0.59975 0.0
H1040 H 0.87018 0.3299 0.58781 0.0
H1041 H 0.85769 0.29484 0.62077 0.0
H1042 H 0.92866 0.27536 0.43464 0.0
H1043 H 0.93306 0.27264 0.53042 0.0
H1044 H 0.84211 0.28447 0.53149 0.0
H1045 H 0.86255 0.31344 0.4895 0.0
H1046 H 0.82822 0.30004 0.55323 0.0
H1047 H 0.84817 0.3285 0.51161 0.0
H1048 H 0.85716 0.27643 0.45082 0.0
H1049 H 0.89213 0.26531 0.41583 0.0
H1050 H 0.8472 0.2678 0.40585 0.0
H1051 H 0.88152 0.25679 0.37143 0.0
H1052 H 0.88238 0.3118 0.37009 0.0
H1053 H 0.84435 0.30957 0.39664 0.0
H1054 H 0.84151 0.24935 0.55274 0.0
H1055 H 0.85659 0.2318 0.47436 0.0
Li1056 Li 0.72115 0.12241 0.50301 0.0
Li1057 Li 0.70076 0.11777 0.52193 0.0
Li1058 Li 0.71338 0.10206 0.49893 0.0
Li1059 Li 0.70413 0.11823 0.4691 0.0
C1060 C 0.7251 0.11408 0.55696 0.0
N1061 N 0.74255 0.12102 0.59831 0.0
C1062 C 0.72184 0.12144 0.58122 0.0
C1063 C 0.73724 0.11023 0.55378 0.0
C1064 C 0.7308 0.12484 0.60189 0.0
C1065 C 0.74593 0.11385 0.57488 0.0
C1066 C 0.70267 0.14186 0.48135 0.0
C1067 C 0.68741 0.15358 0.45485 0.0
N1068 N 0.69627 0.16144 0.44546 0.0
C1069 C 0.71161 0.15007 0.47147 0.0
C1070 C 0.69045 0.14365 0.47306 0.0
C1071 C 0.70819 0.15991 0.45336 0.0
C1072 C 0.74539 0.13044 0.4924 0.0
N1073 N 0.7352 0.13221 0.5092 0.0
C1074 C 0.74479 0.14853 0.53577 0.0
C1075 C 0.73468 0.14107 0.53044 0.0
C1076 C 0.75547 0.147 0.51868 0.0
C1077 C 0.7557 0.13777 0.49679 0.0
H1078 H 0.74546 0.12346 0.47534 0.0
H1079 H 0.72637 0.14235 0.54316 0.0
C1080 C 0.68926 0.11368 0.57752 0.0
N1081 N 0.68964 0.12121 0.55337 0.0
C1082 C 0.68214 0.11678 0.60229 0.0
C1083 C 0.67551 0.13498 0.57616 0.0
C1084 C 0.68284 0.1316 0.5521 0.0
C1085 C 0.67533 0.1277 0.60204 0.0
H1086 H 0.69486 0.10552 0.57797 0.0
H1087 H 0.68337 0.13745 0.53275 0.0
C1088 C 0.72677 0.10338 0.4504 0.0
N1089 N 0.7376 0.08485 0.41775 0.0
C1090 C 0.72137 0.09929 0.42392 0.0
C1091 C 0.73772 0.0981 0.46016 0.0
C1092 C 0.72699 0.08991 0.40774 0.0
C1093 C 0.74303 0.08872 0.44339 0.0
C1094 C 0.68536 0.10124 0.50524 0.0
C1095 C 0.68572 0.0908 0.52325 0.0
C1096 C 0.67443 0.10778 0.50222 0.0
C1097 C 0.6751 0.08708 0.53806 0.0
C1098 C 0.66402 0.10377 0.51745 0.0
N1099 N 0.66457 0.09359 0.5349 0.0
C1100 C 0.72462 0.08041 0.52061 0.0
C1101 C 0.71264 0.07817 0.4768 0.0
C1102 C 0.7276 0.06799 0.52017 0.0
N1103 N 0.71735 0.08522 0.49898 0.0
C1104 C 0.71542 0.06573 0.4754 0.0
C1105 C 0.723 0.0605 0.49729 0.0
H1106 H 0.72807 0.08619 0.53825 0.0
H1107 H 0.7067 0.08224 0.46021 0.0
C1108 C 0.70392 0.13006 0.4137 0.0
N1109 N 0.69745 0.12228 0.43134 0.0
C1110 C 0.69899 0.13417 0.38682 0.0
C1111 C 0.68121 0.12146 0.3957 0.0
C1112 C 0.6864 0.11778 0.42275 0.0
C1113 C 0.68745 0.12994 0.37774 0.0
H1114 H 0.71279 0.13329 0.42092 0.0
H1115 H 0.68154 0.11147 0.43708 0.0
O1116 O 0.7165 0.1108 0.53622 0.0
O1117 O 0.70587 0.13206 0.49876 0.0
O1118 O 0.72129 0.11238 0.46689 0.0
O1119 O 0.69573 0.10522 0.49119 0.0
H1120 H 0.71255 0.12464 0.58389 0.0
H1121 H 0.73997 0.10468 0.53494 0.0
H1122 H 0.72842 0.13058 0.6207 0.0
H1123 H 0.75536 0.11101 0.57257 0.0
H1124 H 0.67802 0.155 0.44804 0.0
H1125 H 0.72111 0.14882 0.47747 0.0
H1126 H 0.68343 0.13728 0.48003 0.0
H1127 H 0.71503 0.1663 0.44547 0.0
H1128 H 0.74424 0.15542 0.55309 0.0
H1129 H 0.76363 0.13642 0.4827 0.0
H1130 H 0.68242 0.11096 0.62184 0.0
H1131 H 0.67024 0.14336 0.57472 0.0
H1132 H 0.71288 0.10322 0.41608 0.0
H1133 H 0.74199 0.10109 0.48069 0.0
H1134 H 0.72288 0.08661 0.38729 0.0
H1135 H 0.75145 0.08449 0.4508 0.0
H1136 H 0.69412 0.08569 0.52602 0.0
H1137 H 0.67404 0.11596 0.48862 0.0
H1138 H 0.67524 0.07904 0.55218 0.0
H1139 H 0.65552 0.10878 0.51548 0.0
H1140 H 0.73349 0.06431 0.53743 0.0
H1141 H 0.71149 0.06023 0.45772 0.0
H1142 H 0.7041 0.14061 0.37329 0.0
H1143 H 0.67229 0.11802 0.3893 0.0
Li1144 Li 0.87026 0.7257 0.49474 0.0
Li1145 Li 0.871 0.70782 0.52764 0.0
Li1146 Li 0.889 0.71436 0.49715 0.0
Li1147 Li 0.87158 0.70448 0.47304 0.0
C1148 C 0.88023 0.73394 0.54545 0.0
N1149 N 0.87858 0.75603 0.57526 0.0
C1150 C 0.87383 0.73471 0.57239 0.0
C1151 C 0.88593 0.74437 0.53386 0.0
C1152 C 0.87307 0.74597 0.58708 0.0
C1153 C 0.88495 0.75546 0.5492 0.0
C1154 C 0.84674 0.70781 0.50067 0.0
C1155 C 0.83189 0.69151 0.49759 0.0
N1156 N 0.82301 0.69938 0.5067 0.0
C1157 C 0.83742 0.71579 0.50958 0.0
C1158 C 0.84393 0.6956 0.49427 0.0
C1159 C 0.8255 0.71134 0.51268 0.0
C1160 C 0.86437 0.7472 0.463 0.0
N1161 N 0.86295 0.74127 0.48945 0.0
C1162 C 0.85041 0.7574 0.50825 0.0
C1163 C 0.85607 0.74607 0.51184 0.0
C1164 C 0.85163 0.7637 0.48111 0.0
C1165 C 0.8587 0.75849 0.45825 0.0
H1166 H 0.86975 0.74308 0.44543 0.0
H1167 H 0.85484 0.741 0.53235 0.0
C1168 C 0.87328 0.69383 0.58029 0.0
N1169 N 0.8657 0.70139 0.56482 0.0
C1170 C 0.86957 0.68889 0.60758 0.0
C1171 C 0.85047 0.69991 0.60286 0.0
C1172 C 0.85455 0.70461 0.5757 0.0
C1173 C 0.85799 0.69189 0.61915 0.0
H1174 H 0.88221 0.69162 0.57138 0.0
H1175 H 0.84886 0.71092 0.56343 0.0
C1176 C 0.88916 0.7225 0.44097 0.0
N1177 N 0.90788 0.72787 0.40167 0.0
C1178 C 0.89214 0.71429 0.41818 0.0
C1179 C 0.89559 0.73351 0.44355 0.0
C1180 C 0.90166 0.71716 0.39858 0.0
C1181 C 0.90506 0.73604 0.42354 0.0
C1182 C 0.88325 0.68509 0.50602 0.0
C1183 C 0.89408 0.67899 0.49868 0.0
C1184 C 0.87312 0.67838 0.51575 0.0
C1185 C 0.89453 0.66623 0.50078 0.0
C1186 C 0.87394 0.66563 0.51759 0.0
N1187 N 0.88453 0.65987 0.51009 0.0
C1188 C 0.9123 0.72327 0.51409 0.0
C1189 C 0.91224 0.70857 0.47515 0.0
C1190 C 0.92498 0.72445 0.51202 0.0
N1191 N 0.90623 0.71549 0.49562 0.0
C1192 C 0.92488 0.70955 0.47209 0.0
C1193 C 0.93144 0.71758 0.49067 0.0
H1194 H 0.90729 0.72854 0.53043 0.0
H1195 H 0.90716 0.70242 0.46089 0.0
C1196 C 0.85855 0.70057 0.42122 0.0
N1197 N 0.86637 0.69485 0.44022 0.0
C1198 C 0.85472 0.69477 0.39512 0.0
C1199 C 0.86685 0.67714 0.40895 0.0
C1200 C 0.87056 0.68334 0.43464 0.0
C1201 C 0.85895 0.68292 0.38867 0.0
H1202 H 0.85546 0.70976 0.42619 0.0
H1203 H 0.87696 0.67905 0.44964 0.0
O1204 O 0.88098 0.72302 0.53062 0.0
O1205 O 0.85844 0.71207 0.49732 0.0
O1206 O 0.87998 0.71978 0.46063 0.0
O1207 O 0.88268 0.69758 0.50403 0.0
H1208 H 0.86944 0.72671 0.58178 0.0
H1209 H 0.89096 0.74393 0.51312 0.0
H1210 H 0.86809 0.74671 0.60786 0.0
H1211 H 0.88923 0.76363 0.54037 0.0
H1212 H 0.82961 0.68207 0.4928 0.0
H1213 H 0.83939 0.7253 0.51428 0.0
H1214 H 0.8509 0.68937 0.48649 0.0
H1215 H 0.81823 0.71739 0.5198 0.0
H1216 H 0.84483 0.76103 0.52617 0.0
H1217 H 0.8598 0.76309 0.43699 0.0
H1218 H 0.87574 0.68292 0.61964 0.0
H1219 H 0.84146 0.70241 0.61082 0.0
H1220 H 0.88725 0.70573 0.41583 0.0
H1221 H 0.89334 0.74 0.46093 0.0
H1222 H 0.90412 0.71085 0.38095 0.0
H1223 H 0.91018 0.74448 0.4254 0.0
H1224 H 0.90205 0.68404 0.49136 0.0
H1225 H 0.86475 0.68294 0.52214 0.0
H1226 H 0.90284 0.66139 0.49504 0.0
H1227 H 0.86616 0.66033 0.52508 0.0
H1228 H 0.92968 0.73058 0.52718 0.0
H1229 H 0.92943 0.70418 0.45507 0.0
H1230 H 0.84854 0.69949 0.38012 0.0
H1231 H 0.87042 0.66806 0.40453 0.0
Li1232 Li 0.26967 0.86915 0.49891 0.0
Li1233 Li 0.28838 0.87052 0.529 0.0
Li1234 Li 0.28113 0.88778 0.49745 0.0
Li1235 Li 0.29039 0.87002 0.474 0.0
C1236 C 0.26303 0.87995 0.55054 0.0
N1237 N 0.24236 0.87868 0.58593 0.0
C1238 C 0.26353 0.87417 0.57836 0.0
C1239 C 0.25205 0.88519 0.54085 0.0
C1240 C 0.25297 0.8736 0.59589 0.0
C1241 C 0.24169 0.88441 0.55902 0.0
C1242 C 0.28668 0.84541 0.50556 0.0
C1243 C 0.30138 0.82897 0.50233 0.0
N1244 N 0.29305 0.82118 0.51448 0.0
C1245 C 0.27822 0.83719 0.51763 0.0
C1246 C 0.29832 0.84123 0.49752 0.0
C1247 C 0.28163 0.825 0.52213 0.0
C1248 C 0.24791 0.86235 0.46985 0.0
N1249 N 0.25391 0.86187 0.49641 0.0
C1250 C 0.23766 0.85032 0.51824 0.0
C1251 C 0.24905 0.856 0.52039 0.0
C1252 C 0.23132 0.85052 0.49098 0.0
C1253 C 0.23654 0.85667 0.46659 0.0
H1254 H 0.25205 0.86696 0.45104 0.0
H1255 H 0.25412 0.85551 0.54106 0.0
C1256 C 0.30365 0.87418 0.57886 0.0
N1257 N 0.29601 0.86602 0.56548 0.0
C1258 C 0.30985 0.871 0.60501 0.0
C1259 C 0.29992 0.85122 0.60349 0.0
C1260 C 0.29388 0.85481 0.57753 0.0
C1261 C 0.30812 0.85931 0.61738 0.0
H1262 H 0.30506 0.8831 0.56895 0.0
H1263 H 0.28747 0.84865 0.56711 0.0
C1264 C 0.2714 0.88734 0.44375 0.0
N1265 N 0.26476 0.90627 0.40617 0.0
C1266 C 0.27903 0.89071 0.4201 0.0
C1267 C 0.26033 0.89349 0.44807 0.0
C1268 C 0.27552 0.90033 0.40138 0.0
C1269 C 0.25715 0.90307 0.42891 0.0
C1270 C 0.3106 0.88126 0.50336 0.0
C1271 C 0.31741 0.8917 0.49622 0.0
C1272 C 0.31665 0.87053 0.51174 0.0
C1273 C 0.33018 0.89115 0.49711 0.0
C1274 C 0.32943 0.87035 0.51242 0.0
N1275 N 0.33588 0.88057 0.5051 0.0
C1276 C 0.27186 0.91148 0.50974 0.0
C1277 C 0.28779 0.91046 0.47391 0.0
C1278 C 0.27091 0.92412 0.50581 0.0
N1279 N 0.28016 0.90497 0.49373 0.0
C1280 C 0.28717 0.92305 0.46926 0.0
C1281 C 0.27863 0.93004 0.4853 0.0
H1282 H 0.26597 0.90688 0.52552 0.0
H1283 H 0.29425 0.90499 0.46137 0.0
C1284 C 0.29615 0.85385 0.42763 0.0
N1285 N 0.2997 0.8644 0.44112 0.0
C1286 C 0.30243 0.84952 0.40267 0.0
C1287 C 0.31582 0.8671 0.40574 0.0
C1288 C 0.30927 0.87109 0.43063 0.0
C1289 C 0.3124 0.85619 0.39136 0.0
H1290 H 0.28833 0.84886 0.43614 0.0
H1291 H 0.3117 0.87963 0.44123 0.0
O1292 O 0.27327 0.88056 0.53305 0.0
O1293 O 0.28342 0.85738 0.50081 0.0
O1294 O 0.27481 0.87814 0.46272 0.0
O1295 O 0.29808 0.88167 0.50249 0.0
H1296 H 0.27196 0.87014 0.58631 0.0
H1297 H 0.2515 0.88969 0.51939 0.0
H1298 H 0.25321 0.86911 0.61742 0.0
H1299 H 0.23312 0.88835 0.5517 0.0
H1300 H 0.31036 0.82564 0.49627 0.0
H1301 H 0.26914 0.84018 0.52374 0.0
H1302 H 0.30489 0.84731 0.48731 0.0
H1303 H 0.27519 0.81857 0.53168 0.0
H1304 H 0.23404 0.84547 0.5374 0.0
H1305 H 0.23192 0.85701 0.4452 0.0
H1306 H 0.31611 0.87749 0.61505 0.0
H1307 H 0.29814 0.84222 0.61273 0.0
H1308 H 0.28763 0.88604 0.41641 0.0
H1309 H 0.25429 0.89095 0.46618 0.0
H1310 H 0.28137 0.90309 0.38311 0.0
H1311 H 0.24865 0.90797 0.43213 0.0
H1312 H 0.31289 0.90013 0.48997 0.0
H1313 H 0.31155 0.8625 0.51812 0.0
H1314 H 0.33556 0.89914 0.49149 0.0
H1315 H 0.33422 0.8621 0.51889 0.0
H1316 H 0.26432 0.92921 0.51894 0.0
H1317 H 0.29319 0.92724 0.45299 0.0
H1318 H 0.29932 0.84119 0.39194 0.0
H1319 H 0.32348 0.87251 0.39786 0.0
Li1320 Li 0.11974 0.29374 0.52562 0.0
Li1321 Li 0.12458 0.27447 0.50037 0.0
Li1322 Li 0.12182 0.29426 0.47203 0.0
Li1323 Li 0.10416 0.28349 0.49274 0.0
C1324 C 0.14418 0.29442 0.51726 0.0
N1325 N 0.1634 0.30406 0.54976 0.0
C1326 C 0.15198 0.28668 0.53324 0.0
C1327 C 0.14628 0.30705 0.5174 0.0
C1328 C 0.16161 0.29173 0.54964 0.0
C1329 C 0.156 0.31175 0.53409 0.0
C1330 C 0.10875 0.26757 0.54748 0.0
C1331 C 0.09948 0.24762 0.55243 0.0
N1332 N 0.10288 0.24731 0.58162 0.0
C1333 C 0.112 0.26712 0.57765 0.0
C1334 C 0.10231 0.2578 0.53486 0.0
C1335 C 0.10902 0.25677 0.59448 0.0
C1336 C 0.11635 0.31313 0.56712 0.0
N1337 N 0.1222 0.30236 0.56184 0.0
C1338 C 0.13198 0.30322 0.60942 0.0
C1339 C 0.12982 0.29731 0.58238 0.0
C1340 C 0.12606 0.31436 0.61568 0.0
C1341 C 0.11815 0.31932 0.59406 0.0
H1342 H 0.11019 0.31684 0.55054 0.0
H1343 H 0.13421 0.28866 0.57776 0.0
C1344 C 0.13722 0.2541 0.47739 0.0
N1345 N 0.13349 0.25963 0.50298 0.0
C1346 C 0.14373 0.24312 0.47855 0.0
C1347 C 0.14269 0.2439 0.53244 0.0
C1348 C 0.13621 0.25485 0.5302 0.0
C1349 C 0.14653 0.23787 0.50637 0.0
H1350 H 0.13519 0.25826 0.45604 0.0
H1351 H 0.13348 0.25963 0.55022 0.0
C1352 C 0.1051 0.31198 0.48318 0.0
N1353 N 0.09891 0.33375 0.4556 0.0
C1354 C 0.09421 0.3129 0.46695 0.0
C1355 C 0.11274 0.32218 0.48578 0.0
C1356 C 0.09127 0.32397 0.45308 0.0
C1357 C 0.10948 0.33309 0.47155 0.0
C1358 C 0.11099 0.26984 0.44127 0.0
C1359 C 0.10877 0.27401 0.41225 0.0
C1360 C 0.10844 0.25766 0.44856 0.0
C1361 C 0.10374 0.266 0.39124 0.0
C1362 C 0.10344 0.24993 0.42692 0.0
N1363 N 0.10119 0.25423 0.39896 0.0
C1364 C 0.13959 0.30517 0.4351 0.0
C1365 C 0.1192 0.30728 0.41782 0.0
C1366 C 0.14404 0.31109 0.40971 0.0
N1367 N 0.12738 0.30334 0.43857 0.0
C1368 C 0.12323 0.31332 0.39222 0.0
C1369 C 0.13582 0.31515 0.38768 0.0
H1370 H 0.14591 0.30175 0.45169 0.0
H1371 H 0.10956 0.30548 0.42079 0.0
C1372 C 0.08046 0.27763 0.51215 0.0
N1373 N 0.08735 0.27984 0.48749 0.0
C1374 C 0.06808 0.27476 0.50931 0.0
C1375 C 0.07004 0.27684 0.45577 0.0
C1376 C 0.08239 0.27966 0.45967 0.0
C1377 C 0.06274 0.27431 0.48081 0.0
H1378 H 0.08458 0.27815 0.53406 0.0
H1379 H 0.08795 0.28186 0.44053 0.0
O1380 O 0.13461 0.28965 0.50137 0.0
O1381 O 0.11166 0.27763 0.53064 0.0
O1382 O 0.10817 0.30119 0.49677 0.0
O1383 O 0.11593 0.27759 0.46211 0.0
H1384 H 0.15055 0.27688 0.53317 0.0
H1385 H 0.14045 0.31314 0.5048 0.0
H1386 H 0.16766 0.28586 0.56228 0.0
H1387 H 0.15768 0.32151 0.53455 0.0
H1388 H 0.09452 0.23999 0.54289 0.0
H1389 H 0.11683 0.27465 0.58795 0.0
H1390 H 0.09936 0.25814 0.51188 0.0
H1391 H 0.11157 0.25628 0.61779 0.0
H1392 H 0.13831 0.29913 0.62511 0.0
H1393 H 0.11327 0.32779 0.59807 0.0
H1394 H 0.14674 0.23891 0.45793 0.0
H1395 H 0.14464 0.24018 0.55434 0.0
H1396 H 0.08813 0.30513 0.46496 0.0
H1397 H 0.1211 0.32169 0.4986 0.0
H1398 H 0.08291 0.32479 0.44029 0.0
H1399 H 0.11535 0.34104 0.47322 0.0
H1400 H 0.11083 0.28334 0.40604 0.0
H1401 H 0.11047 0.25414 0.47052 0.0
H1402 H 0.10189 0.26914 0.36878 0.0
H1403 H 0.1014 0.2405 0.43232 0.0
H1404 H 0.15383 0.3121 0.40694 0.0
H1405 H 0.11654 0.3164 0.37603 0.0
H1406 H 0.06271 0.27315 0.52924 0.0
H1407 H 0.06628 0.27661 0.43341 0.0
C1408 C 0.22966 0.54394 0.98792 0.0
C1409 C 0.22195 0.54998 0.00813 0.0
C1410 C 0.23071 0.53121 0.98861 0.0
C1411 C 0.2227 0.50369 0.03435 0.0
H1412 H 0.22471 0.48721 0.95778 0.0
C1413 C 0.20799 0.4537 0.01277 0.0
C1414 C 0.21672 0.44612 -0.00109 0.0
C1415 C 0.21001 0.46627 0.0154 0.0
C1416 C 0.22428 0.49172 0.9793 0.0
H1417 H 0.20936 0.54766 0.04496 0.0
H1418 H 0.2107 0.52541 0.04543 0.0
H1419 H 0.22575 0.50947 0.95978 0.0
H1420 H 0.23454 0.44594 0.97731 0.0
H1421 H 0.2377 0.46802 0.98066 0.0
H1422 H 0.2205 0.48581 0.05344 0.0
C1423 C 0.2163 0.53041 0.02969 0.0
C1424 C 0.22495 0.50447 0.98055 0.0
C1425 C 0.21545 0.54316 0.02936 0.0
C1426 C 0.22749 0.45148 0.98757 0.0
C1427 C 0.22938 0.4641 0.98969 0.0
C1428 C 0.22178 0.49095 0.03298 0.0
C1429 C 0.22385 0.52425 0.00911 0.0
C1430 C 0.22405 0.51064 0.00807 0.0
C1431 C 0.22067 0.47155 0.00373 0.0
C1432 C 0.22246 0.4849 0.00543 0.0
H1433 H 0.23483 0.54909 0.97153 0.0
H1434 H 0.23683 0.52683 0.97288 0.0
H1435 H 0.22225 0.50807 0.05599 0.0
H1436 H 0.19948 0.45 0.02119 0.0
H1437 H 0.2031 0.47191 0.02595 0.0
C1438 C 0.45136 0.22508 0.97993 0.0
C1439 C 0.44512 0.21391 0.9832 0.0
C1440 C 0.46408 0.22528 0.97687 0.0
C1441 C 0.49063 0.20583 0.95793 0.0
H1442 H 0.50879 0.22928 0.00554 0.0
C1443 C 0.5421 0.20085 0.98174 0.0
C1444 C 0.54933 0.21149 0.9815 0.0
C1445 C 0.5294 0.20165 0.97925 0.0
C1446 C 0.50385 0.2228 0.99176 0.0
H1447 H 0.4473 0.1942 0.98576 0.0
H1448 H 0.46948 0.19455 0.98047 0.0
H1449 H 0.4865 0.22978 0.00577 0.0
H1450 H 0.54896 0.23129 0.97774 0.0
H1451 H 0.52672 0.23269 0.97351 0.0
H1452 H 0.508 0.19872 0.94431 0.0
C1453 C 0.46453 0.20314 0.97981 0.0
C1454 C 0.49108 0.22309 0.99188 0.0
C1455 C 0.45183 0.20294 0.98288 0.0
C1456 C 0.5436 0.22294 0.97847 0.0
C1457 C 0.53089 0.22375 0.976 0.0
C1458 C 0.5034 0.20554 0.95782 0.0
C1459 C 0.4708 0.21432 0.97699 0.0
C1460 C 0.48434 0.21451 0.97526 0.0
C1461 C 0.52366 0.21311 0.97648 0.0
C1462 C 0.51014 0.21392 0.97502 0.0
H1463 H 0.44641 0.23367 0.97961 0.0
H1464 H 0.46864 0.23402 0.97431 0.0
H1465 H 0.48567 0.19924 0.94451 0.0
H1466 H 0.54623 0.19191 0.98449 0.0
H1467 H 0.52406 0.19331 0.9802 0.0
C1468 C 0.77219 0.45011 0.97446 0.0
C1469 C 0.77719 0.44386 -0.00102 0.0
C1470 C 0.77148 0.46287 0.9745 0.0
C1471 C 0.77335 0.48993 0.02465 0.0
H1472 H 0.78073 0.50716 0.95109 0.0
C1473 C 0.7855 0.54118 0.02034 0.0
C1474 C 0.77946 0.5483 -0.0013 0.0
C1475 C 0.78443 0.52846 0.02021 0.0
C1476 C 0.77853 0.50245 0.97169 0.0
H1477 H 0.7854 0.44596 0.0427 0.0
H1478 H 0.7845 0.46825 0.04254 0.0
H1479 H 0.7803 0.48484 0.95141 0.0
H1480 H 0.76754 0.54756 0.95994 0.0
H1481 H 0.76599 0.52525 0.95929 0.0
H1482 H 0.772 0.50761 0.04504 0.0
C1483 C 0.78081 0.46334 0.02357 0.0
C1484 C 0.77823 0.48967 0.9719 0.0
C1485 C 0.78137 0.45057 0.02366 0.0
C1486 C 0.77246 0.54236 0.97667 0.0
C1487 C 0.77152 0.5296 0.97635 0.0
C1488 C 0.77379 0.5027 0.0245 0.0
C1489 C 0.77591 0.46965 -0.00107 0.0
C1490 C 0.77571 0.48325 -0.00157 0.0
C1491 C 0.77743 0.52256 -0.00177 0.0
C1492 C 0.77646 0.50906 -0.00194 0.0
H1493 H 0.76875 0.44512 0.95532 0.0
H1494 H 0.76744 0.46741 0.9554 0.0
H1495 H 0.77113 0.4853 0.04534 0.0
H1496 H 0.79118 0.54541 0.03724 0.0
H1497 H 0.78924 0.5232 0.03705 0.0
C1498 C 0.54513 0.78971 0.97807 0.0
C1499 C 0.55224 0.77923 0.98364 0.0
C1500 C 0.53248 0.78877 0.97489 0.0
C1501 C 0.5066 0.7694 0.99625 0.0
H1502 H 0.48908 0.78908 0.9382 0.0
C1503 C 0.45393 0.76835 0.98613 0.0
C1504 C 0.44824 0.77985 0.98394 0.0
C1505 C 0.46661 0.76728 0.98311 0.0
C1506 C 0.49385 0.78357 0.95461 0.0
H1507 H 0.55169 0.75952 0.98937 0.0
H1508 H 0.5295 0.75791 0.98398 0.0
H1509 H 0.51141 0.78892 0.93796 0.0
H1510 H 0.45136 0.79926 0.977 0.0
H1511 H 0.47345 0.79741 0.97175 0.0
H1512 H 0.48906 0.76425 0.01331 0.0
C1513 C 0.53375 0.76685 0.98241 0.0
C1514 C 0.50662 0.78348 0.95446 0.0
C1515 C 0.54643 0.76778 0.98553 0.0
C1516 C 0.45546 0.79024 0.97834 0.0
C1517 C 0.46811 0.78918 0.9753 0.0
C1518 C 0.49383 0.76949 0.99641 0.0
C1519 C 0.52664 0.77735 0.97726 0.0
C1520 C 0.51312 0.77656 0.97561 0.0
C1521 C 0.47383 0.7777 0.97779 0.0
C1522 C 0.48733 0.77675 0.97592 0.0
H1523 H 0.54931 0.79869 0.97697 0.0
H1524 H 0.52722 0.79706 0.97146 0.0
H1525 H 0.51137 0.76408 0.01305 0.0
H1526 H 0.44859 0.76014 0.98997 0.0
H1527 H 0.47076 0.7583 0.98479 0.0
C1528 C 0.72837 0.0413 0.46967 0.0
C1529 C 0.7257 0.04722 0.49673 0.0
C1530 C 0.73003 0.02863 0.46884 0.0
C1531 C 0.73546 0.00136 0.51635 0.0
H1532 H 0.71782 0.9844 0.45362 0.0
C1533 C 0.72182 0.9505 0.52355 0.0
C1534 C 0.72222 0.94345 0.49734 0.0
C1535 C 0.72422 0.96305 0.52259 0.0
C1536 C 0.72298 0.98898 0.47098 0.0
H1537 H 0.72293 0.04458 0.54423 0.0
H1538 H 0.72574 0.02246 0.54277 0.0
H1539 H 0.71864 0.00665 0.45346 0.0
H1540 H 0.72602 0.94389 0.44983 0.0
H1541 H 0.73017 0.96583 0.44813 0.0
H1542 H 0.7395 0.98363 0.53427 0.0
C1543 C 0.72675 0.02761 0.52226 0.0
C1544 C 0.72346 0.00174 0.47088 0.0
C1545 C 0.72511 0.04028 0.52309 0.0
C1546 C 0.72541 0.94914 0.47029 0.0
C1547 C 0.72781 0.96168 0.46933 0.0
C1548 C 0.73497 0.98858 0.51647 0.0
C1549 C 0.72903 0.02163 0.49505 0.0
C1550 C 0.72954 0.00808 0.49381 0.0
C1551 C 0.72708 0.9688 0.4954 0.0
C1552 C 0.72856 0.98227 0.49402 0.0
H1553 H 0.72909 0.04646 0.44908 0.0
H1554 H 0.73198 0.0243 0.44761 0.0
H1555 H 0.74037 0.00598 0.53408 0.0
H1556 H 0.71927 0.9464 0.54467 0.0
H1557 H 0.72341 0.96831 0.54298 0.0
C1558 C 0.95075 0.7301 0.49115 0.0
C1559 C 0.94493 0.71868 0.4879 0.0
C1560 C 0.96345 0.73107 0.48865 0.0
C1561 C 0.9903 0.71556 0.4573 0.0
H1562 H 0.00847 0.73209 0.51982 0.0
C1563 C 0.04159 0.70759 0.47516 0.0
C1564 C 0.04895 0.71742 0.48439 0.0
C1565 C 0.02894 0.70893 0.47316 0.0
C1566 C 0.00354 0.72764 0.50187 0.0
H1567 H 0.94797 0.69931 0.47991 0.0
H1568 H 0.97007 0.70107 0.47501 0.0
H1569 H 0.98614 0.73237 0.52064 0.0
H1570 H 0.0489 0.73645 0.49808 0.0
H1571 H 0.02672 0.73886 0.49428 0.0
H1572 H 0.00763 0.71076 0.43853 0.0
C1573 C 0.96477 0.70927 0.47919 0.0
C1574 C 0.99076 0.72778 0.50241 0.0
C1575 C 0.9521 0.70828 0.48195 0.0
C1576 C 0.04342 0.72868 0.49123 0.0
C1577 C 0.03073 0.73005 0.48907 0.0
C1578 C 0.00306 0.71549 0.45662 0.0
C1579 C 0.97057 0.72066 0.48257 0.0
C1580 C 0.98404 0.72152 0.48046 0.0
C1581 C 0.02335 0.72016 0.48018 0.0
C1582 C 0.00983 0.7213 0.47925 0.0
H1583 H 0.94548 0.73832 0.49527 0.0
H1584 H 0.96771 0.73997 0.49114 0.0
H1585 H 0.98532 0.71084 0.43984 0.0
H1586 H 0.04559 0.69874 0.47021 0.0
H1587 H 0.02351 0.70104 0.46685 0.0
C1588 C 0.28953 0.04032 0.47765 0.0
C1589 C 0.27892 0.04756 0.47927 0.0
C1590 C 0.28866 0.02765 0.47435 0.0
C1591 C 0.26793 0.00207 0.48909 0.0
H1592 H 0.29046 0.98409 0.43856 0.0
C1593 C 0.26651 0.9494 0.47949 0.0
C1594 C 0.27791 0.94347 0.48096 0.0
C1595 C 0.26588 0.96209 0.47602 0.0
C1596 C 0.28415 0.98899 0.45288 0.0
H1597 H 0.25908 0.04723 0.47777 0.0
H1598 H 0.25756 0.02504 0.47225 0.0
H1599 H 0.29069 0.00643 0.43806 0.0
H1600 H 0.29757 0.94617 0.48007 0.0
H1601 H 0.29648 0.9683 0.47415 0.0
H1602 H 0.26158 0.98465 0.50444 0.0
C1603 C 0.26654 0.02919 0.47385 0.0
C1604 C 0.28427 0.00176 0.45257 0.0
C1605 C 0.26742 0.04187 0.47707 0.0
C1606 C 0.28865 0.95046 0.47857 0.0
C1607 C 0.28802 0.96313 0.47512 0.0
C1608 C 0.26782 0.98929 0.48944 0.0
C1609 C 0.27715 0.02194 0.47267 0.0
C1610 C 0.2763 0.00843 0.47102 0.0
C1611 C 0.27664 0.9691 0.47395 0.0
C1612 C 0.27606 0.98262 0.4717 0.0
H1613 H 0.29853 0.0444 0.47974 0.0
H1614 H 0.29699 0.02229 0.47401 0.0
H1615 H 0.26178 0.00696 0.50381 0.0
H1616 H 0.25807 0.94422 0.48082 0.0
H1617 H 0.25697 0.96642 0.47482 0.0
C1618 C 0.04235 0.27843 0.4573 0.0
C1619 C 0.04952 0.27162 0.47737 0.0
C1620 C 0.02977 0.27639 0.45527 0.0
C1621 C 0.00411 0.26512 0.49987 0.0
H1622 H 0.98648 0.26707 0.42485 0.0
C1623 C 0.95162 0.26191 0.49549 0.0
C1624 C 0.94583 0.2709 0.47805 0.0
C1625 C 0.96422 0.26002 0.49321 0.0
C1626 C 0.99129 0.26654 0.44597 0.0
H1627 H 0.04923 0.25698 0.51009 0.0
H1628 H 0.02721 0.25346 0.5066 0.0
H1629 H 0.00883 0.26726 0.42477 0.0
H1630 H 0.94865 0.2848 0.44416 0.0
H1631 H 0.97064 0.28155 0.44027 0.0
H1632 H 0.98662 0.26473 0.52115 0.0
C1633 C 0.03131 0.26048 0.49276 0.0
C1634 C 0.00406 0.26665 0.44592 0.0
C1635 C 0.0439 0.26252 0.49479 0.0
C1636 C 0.95283 0.2777 0.45764 0.0
C1637 C 0.96542 0.27582 0.45538 0.0
C1638 C 0.99135 0.26502 0.49992 0.0
C1639 C 0.02409 0.26751 0.47325 0.0
C1640 C 0.0106 0.26616 0.47292 0.0
C1641 C 0.97128 0.26708 0.47346 0.0
C1642 C 0.9848 0.26594 0.47301 0.0
H1643 H 0.04638 0.28562 0.44387 0.0
H1644 H 0.02443 0.28209 0.44037 0.0
H1645 H 0.00888 0.2649 0.52106 0.0
H1646 H 0.94642 0.25638 0.51105 0.0
H1647 H 0.96845 0.25309 0.50711 0.0
C1648 C 0.27491 0.34076 0.00932 0.0
C1649 C 0.27054 0.34619 0.98302 0.0
C1650 C 0.2857 0.33396 0.00909 0.0
C1651 C 0.30578 0.31677 0.95766 0.0
H1652 H 0.32575 0.31406 0.02897 0.0
C1653 C 0.34693 0.28327 0.97026 0.0
C1654 C 0.34494 0.27491 0.99374 0.0
C1655 C 0.33964 0.29374 0.96744 0.0
C1656 C 0.32031 0.31484 0.00882 0.0
H1657 H 0.27418 0.34916 0.93606 0.0
H1658 H 0.29329 0.33752 0.9357 0.0
H1659 H 0.30986 0.32972 0.02631 0.0
H1660 H 0.33356 0.27115 0.03254 0.0
H1661 H 0.32138 0.28963 0.0283 0.0
H1662 H 0.31632 0.3018 0.94039 0.0
C1663 C 0.28823 0.33826 0.9564 0.0
C1664 C 0.31115 0.32371 0.00734 0.0
C1665 C 0.27732 0.34495 0.95657 0.0
C1666 C 0.33566 0.27747 0.01464 0.0
C1667 C 0.32859 0.28803 0.01216 0.0
C1668 C 0.3151 0.30803 0.95897 0.0
C1669 C 0.29248 0.33255 0.98259 0.0
C1670 C 0.30346 0.3245 0.98218 0.0
C1671 C 0.33043 0.29618 0.98841 0.0
C1672 C 0.32216 0.30675 0.98494 0.0
H1673 H 0.26976 0.34143 0.02992 0.0
H1674 H 0.28848 0.32946 0.02954 0.0
H1675 H 0.29999 0.31699 0.93805 0.0
H1676 H 0.3541 0.28175 0.95401 0.0
H1677 H 0.34119 0.29994 0.94895 0.0
C1678 C 0.71508 0.33897 0.97698 0.0
C1679 C 0.72003 0.34381 0.00339 0.0
C1680 C 0.70472 0.33151 0.97793 0.0
C1681 C 0.68875 0.3108 0.02939 0.0
H1682 H 0.66493 0.30926 0.96529 0.0
C1683 C 0.65106 0.27395 0.02677 0.0
C1684 C 0.65008 0.26762 -0.00047 0.0
C1685 C 0.65776 0.28482 0.02858 0.0
C1686 C 0.67152 0.30959 0.98334 0.0
H1687 H 0.71762 0.34528 0.05128 0.0
H1688 H 0.6994 0.33234 0.05295 0.0
H1689 H 0.67986 0.3259 0.96633 0.0
H1690 H 0.65518 0.26791 0.95271 0.0
H1691 H 0.66677 0.2869 0.95587 0.0
H1692 H 0.68059 0.29437 0.04605 0.0
C1693 C 0.70369 0.33409 0.03157 0.0
C1694 C 0.68008 0.3191 0.98393 0.0
C1695 C 0.7141 0.3415 0.03063 0.0
C1696 C 0.65561 0.27263 0.97396 0.0
C1697 C 0.66225 0.28352 0.97575 0.0
C1698 C 0.68017 0.30134 0.02887 0.0
C1699 C 0.69904 0.32877 0.00531 0.0
C1700 C 0.68897 0.31965 0.0066 0.0
C1701 C 0.66355 0.28963 0.00316 0.0
C1702 C 0.67164 0.30048 0.00549 0.0
H1703 H 0.71954 0.34048 0.9557 0.0
H1704 H 0.70151 0.32743 0.95733 0.0
H1705 H 0.69558 0.31082 0.04692 0.0
H1706 H 0.64671 0.27047 0.04676 0.0
H1707 H 0.65849 0.28942 0.04993 0.0
C1708 C 0.72412 0.66104 0.0455 0.0
C1709 C 0.72361 0.65091 0.0262 0.0
C1710 C 0.71396 0.66861 0.0492 0.0
C1711 C 0.6864 0.67858 0.00963 0.0
H1712 H 0.67915 0.69442 0.08508 0.0
C1713 C 0.64943 0.71598 0.01936 0.0
C1714 C 0.6533 0.72668 0.03408 0.0
C1715 C 0.65633 0.70524 0.02122 0.0
C1716 C 0.68107 0.69006 0.06387 0.0
H1717 H 0.71187 0.6405 0.99655 0.0
H1718 H 0.69406 0.65378 0.00301 0.0
H1719 H 0.69426 0.67797 0.08332 0.0
H1720 H 0.66734 0.73439 0.06275 0.0
H1721 H 0.6793 0.71566 0.06612 0.0
H1722 H 0.67345 0.69087 0.99004 0.0
C1723 C 0.7024 0.65593 0.01498 0.0
C1724 C 0.68972 0.68066 0.06285 0.0
C1725 C 0.71259 0.64834 0.01126 0.0
C1726 C 0.664 0.72628 0.05149 0.0
C1727 C 0.67086 0.71553 0.05343 0.0
C1728 C 0.67773 0.68795 0.01067 0.0
C1729 C 0.70303 0.66624 0.03369 0.0
C1730 C 0.6927 0.67503 0.03558 0.0
C1731 C 0.6672 0.70496 0.03795 0.0
C1732 C 0.6752 0.69399 0.03767 0.0
H1733 H 0.73253 0.66341 0.05694 0.0
H1734 H 0.71484 0.67661 0.06333 0.0
H1735 H 0.68859 0.67454 0.98821 0.0
H1736 H 0.64112 0.71593 0.00621 0.0
H1737 H 0.65321 0.69718 0.00936 0.0
C1738 C 0.27813 0.65484 0.032 0.0
C1739 C 0.27131 0.65349 0.00562 0.0
C1740 C 0.28868 0.66207 0.03235 0.0
C1741 C 0.3111 0.67759 0.9824 0.0
H1742 H 0.31521 0.69948 0.04984 0.0
C1743 C 0.33812 0.72267 0.97699 0.0
C1744 C 0.34576 0.72573 0.00116 0.0
C1745 C 0.33065 0.71234 0.97823 0.0
C1746 C 0.3143 0.69328 0.03108 0.0
H1747 H 0.27016 0.6586 0.95895 0.0
H1748 H 0.28837 0.6714 0.95962 0.0
H1749 H 0.29905 0.68411 0.05086 0.0
H1750 H 0.35178 0.72002 0.04521 0.0
H1751 H 0.3384 0.70212 0.04762 0.0
H1752 H 0.32603 0.68722 0.96213 0.0
C1753 C 0.28581 0.66664 0.9799 0.0
C1754 C 0.30506 0.68445 0.03166 0.0
C1755 C 0.27534 0.65935 0.97951 0.0
C1756 C 0.34586 0.71806 0.02641 0.0
C1757 C 0.33826 0.70778 0.02777 0.0
C1758 C 0.32026 0.68651 0.98171 0.0
C1759 C 0.29256 0.66818 0.00637 0.0
C1760 C 0.3032 0.67666 0.00707 0.0
C1761 C 0.33053 0.70489 0.00376 0.0
C1762 C 0.32179 0.69457 0.00582 0.0
H1763 H 0.2753 0.6503 0.05236 0.0
H1764 H 0.29377 0.66291 0.053 0.0
H1765 H 0.3101 0.67157 0.96336 0.0
H1766 H 0.3376 0.72848 0.95743 0.0
H1767 H 0.32462 0.71042 0.9596 0.0
C1768 C 0.83751 0.77678 0.45099 0.0
C1769 C 0.84494 0.77529 0.4763 0.0
C1770 C 0.82999 0.78705 0.44821 0.0
C1771 C 0.81476 0.8099 0.49592 0.0
H1772 H 0.80482 0.82373 0.41993 0.0
C1773 C 0.77796 0.84721 0.48923 0.0
C1774 C 0.76831 0.84451 0.46952 0.0
C1775 C 0.78893 0.84069 0.48782 0.0
C1776 C 0.80754 0.81996 0.44129 0.0
H1777 H 0.85101 0.78367 0.51753 0.0
H1778 H 0.83816 0.80182 0.51233 0.0
H1779 H 0.82162 0.80896 0.42164 0.0
H1780 H 0.76283 0.83316 0.43206 0.0
H1781 H 0.78204 0.82186 0.42945 0.0
H1782 H 0.80063 0.82078 0.51549 0.0
C1783 C 0.83783 0.7949 0.49505 0.0
C1784 C 0.81712 0.81148 0.44229 0.0
C1785 C 0.84522 0.78455 0.498 0.0
C1786 C 0.77011 0.83556 0.4474 0.0
C1787 C 0.78111 0.82908 0.44588 0.0
C1788 C 0.8053 0.81845 0.49493 0.0
C1789 C 0.82985 0.79611 0.47055 0.0
C1790 C 0.82068 0.80616 0.46957 0.0
C1791 C 0.79051 0.83139 0.46654 0.0
C1792 C 0.80144 0.82339 0.46757 0.0
H1793 H 0.83706 0.7697 0.43407 0.0
H1794 H 0.82386 0.78756 0.42925 0.0
H1795 H 0.81705 0.80585 0.51726 0.0
H1796 H 0.77698 0.85425 0.50609 0.0
H1797 H 0.7961 0.84276 0.50375 0.0
C1798 C 0.21062 0.84431 0.50963 0.0
C1799 C 0.21974 0.84363 0.48763 0.0
C1800 C 0.20023 0.83689 0.50783 0.0
C1801 C 0.18324 0.81573 0.45705 0.0
H1802 H 0.1739 0.80003 0.53129 0.0
C1803 C 0.15964 0.76874 0.46393 0.0
C1804 C 0.15015 0.76716 0.4848 0.0
C1805 C 0.16623 0.77968 0.46282 0.0
C1806 C 0.17625 0.80448 0.51045 0.0
H1807 H 0.22508 0.8349 0.44621 0.0
H1808 H 0.20717 0.82174 0.44337 0.0
H1809 H 0.18889 0.81649 0.53197 0.0
H1810 H 0.13986 0.7761 0.52006 0.0
H1811 H 0.15166 0.79508 0.51865 0.0
H1812 H 0.17101 0.80319 0.43549 0.0
C1813 C 0.2078 0.8282 0.46165 0.0
C1814 C 0.18483 0.81396 0.51081 0.0
C1815 C 0.21811 0.83571 0.4633 0.0
C1816 C 0.14726 0.7769 0.50412 0.0
C1817 C 0.15395 0.7878 0.50322 0.0
C1818 C 0.17476 0.80616 0.45668 0.0
C1819 C 0.19883 0.82853 0.48417 0.0
C1820 C 0.18862 0.81953 0.48404 0.0
C1821 C 0.16356 0.78924 0.48273 0.0
C1822 C 0.17138 0.8003 0.48332 0.0
H1823 H 0.2116 0.85047 0.52843 0.0
H1824 H 0.19339 0.83755 0.52525 0.0
H1825 H 0.18576 0.81999 0.43609 0.0
H1826 H 0.16229 0.76139 0.44906 0.0
H1827 H 0.17372 0.78048 0.44711 0.0
C1828 C 0.21452 0.14864 0.49013 0.0
C1829 C 0.22437 0.15036 0.50991 0.0
C1830 C 0.20439 0.15644 0.49099 0.0
C1831 C 0.1887 0.17944 0.53815 0.0
H1832 H 0.17811 0.19315 0.46257 0.0
C1833 C 0.16303 0.22514 0.52969 0.0
C1834 C 0.15374 0.22639 0.50821 0.0
C1835 C 0.17013 0.21454 0.53084 0.0
C1836 C 0.18079 0.18926 0.48383 0.0
H1837 H 0.23124 0.16161 0.54618 0.0
H1838 H 0.21359 0.1751 0.54778 0.0
H1839 H 0.19318 0.1767 0.46308 0.0
H1840 H 0.14438 0.21734 0.47164 0.0
H1841 H 0.15686 0.1988 0.47358 0.0
H1842 H 0.17654 0.19221 0.55893 0.0
C1843 C 0.2136 0.16762 0.53192 0.0
C1844 C 0.18942 0.17983 0.48412 0.0
C1845 C 0.22373 0.15987 0.53099 0.0
C1846 C 0.1516 0.21672 0.48816 0.0
C1847 C 0.15872 0.20611 0.4893 0.0
C1848 C 0.18007 0.18886 0.53786 0.0
C1849 C 0.20388 0.16609 0.51172 0.0
C1850 C 0.19366 0.17501 0.51131 0.0
C1851 C 0.16812 0.20494 0.51053 0.0
C1852 C 0.17622 0.19405 0.51073 0.0
H1853 H 0.21467 0.14129 0.4739 0.0
H1854 H 0.19697 0.15496 0.47536 0.0
H1855 H 0.19164 0.17576 0.55943 0.0
H1856 H 0.16505 0.2325 0.54513 0.0
H1857 H 0.17746 0.21403 0.5471 0.0
C1858 C 0.82738 0.23046 0.52702 0.0
C1859 C 0.83965 0.22854 0.51896 0.0
C1860 C 0.81946 0.22058 0.53083 0.0
C1861 C 0.81502 0.1886 0.5083 0.0
H1862 H 0.78993 0.18951 0.56952 0.0
C1863 C 0.77817 0.15082 0.52068 0.0
C1864 C 0.76612 0.15527 0.52289 0.0
C1865 C 0.78813 0.15878 0.52353 0.0
C1866 C 0.79689 0.18914 0.55232 0.0
H1867 H 0.85332 0.21472 0.50916 0.0
H1868 H 0.83943 0.19738 0.51584 0.0
H1869 H 0.8058 0.20521 0.56876 0.0
H1870 H 0.75513 0.1716 0.52967 0.0
H1871 H 0.77246 0.18536 0.53508 0.0
H1872 H 0.80594 0.17263 0.4916 0.0
C1873 C 0.83593 0.20657 0.51889 0.0
C1874 C 0.80596 0.19813 0.55184 0.0
C1875 C 0.84387 0.21649 0.51504 0.0
C1876 C 0.76427 0.1678 0.52845 0.0
C1877 C 0.7742 0.17571 0.53151 0.0
C1878 C 0.80597 0.17957 0.50888 0.0
C1879 C 0.82362 0.20852 0.52671 0.0
C1880 C 0.81494 0.19814 0.52937 0.0
C1881 C 0.78623 0.1713 0.52889 0.0
C1882 C 0.79665 0.17993 0.53046 0.0
H1883 H 0.82378 0.23964 0.52966 0.0
H1884 H 0.80998 0.22242 0.53622 0.0
H1885 H 0.82174 0.18842 0.49054 0.0
H1886 H 0.77991 0.14119 0.51684 0.0
H1887 H 0.79731 0.15513 0.52163 0.0
C1888 C 0.13482 0.31782 0.33211 0.0
C1889 C 0.14038 0.32071 0.35953 0.0
C1890 C 0.13937 0.32262 0.30546 0.0
C1891 C 0.15923 0.34706 0.27471 0.0
H1892 H 0.16049 0.32555 0.20587 0.0
C1893 C 0.1857 0.35883 0.16663 0.0
C1894 C 0.17969 0.35638 0.13954 0.0
C1895 C 0.18072 0.35484 0.19365 0.0
C1896 C 0.16009 0.3317 0.22483 0.0
H1897 H 0.15495 0.33116 0.3804 0.0
H1898 H 0.16312 0.33923 0.33377 0.0
H1899 H 0.15218 0.31798 0.2528 0.0
H1900 H 0.16382 0.34779 0.11943 0.0
H1901 H 0.15509 0.34084 0.16666 0.0
H1902 H 0.16735 0.36071 0.24665 0.0
C1903 C 0.15512 0.33339 0.33294 0.0
C1904 C 0.1553 0.32738 0.25171 0.0
C1905 C 0.15053 0.32863 0.35966 0.0
C1906 C 0.1686 0.34989 0.14 0.0
C1907 C 0.16366 0.34582 0.16698 0.0
C1908 C 0.1641 0.35136 0.24784 0.0
C1909 C 0.14965 0.33035 0.3055 0.0
C1910 C 0.15477 0.33501 0.27696 0.0
C1911 C 0.16968 0.34824 0.19407 0.0
C1912 C 0.16454 0.34372 0.22262 0.0
H1913 H 0.12709 0.31163 0.3311 0.0
H1914 H 0.13482 0.32024 0.28478 0.0
H1915 H 0.1588 0.35323 0.2936 0.0
H1916 H 0.19422 0.3639 0.16695 0.0
H1917 H 0.1856 0.35675 0.21418 0.0
C1918 C 0.68087 0.14733 0.34551 0.0
C1919 C 0.68184 0.13467 0.35007 0.0
C1920 C 0.67563 0.1519 0.31939 0.0
C1921 C 0.65643 0.1428 0.25426 0.0
H1922 H 0.66935 0.17294 0.22103 0.0
C1923 C 0.64487 0.16159 0.13619 0.0
C1924 C 0.64103 0.1739 0.13536 0.0
C1925 C 0.64951 0.15651 0.16249 0.0
C1926 C 0.66563 0.16455 0.23019 0.0
H1927 H 0.67819 0.11681 0.33117 0.0
H1928 H 0.66946 0.12474 0.28483 0.0
H1929 H 0.67839 0.1645 0.26625 0.0
H1930 H 0.63879 0.19035 0.1621 0.0
H1931 H 0.64737 0.18157 0.20751 0.0
H1932 H 0.64395 0.14275 0.21727 0.0
C1933 C 0.6724 0.13119 0.30171 0.0
C1934 C 0.67074 0.15972 0.25621 0.0
C1935 C 0.67746 0.12662 0.32813 0.0
C1936 C 0.64191 0.18095 0.16159 0.0
C1937 C 0.64674 0.17592 0.18769 0.0
C1938 C 0.65147 0.14752 0.2279 0.0
C1939 C 0.67143 0.1439 0.29697 0.0
C1940 C 0.66614 0.14884 0.26879 0.0
C1941 C 0.6506 0.16368 0.18834 0.0
C1942 C 0.65597 0.15849 0.21583 0.0
H1943 H 0.68404 0.1537 0.36237 0.0
H1944 H 0.67477 0.16173 0.31697 0.0
H1945 H 0.6525 0.13452 0.26348 0.0
H1946 H 0.64455 0.15592 0.11638 0.0
H1947 H 0.65253 0.14706 0.16245 0.0
C1948 C 0.85595 0.6832 0.33335 0.0
C1949 C 0.8554 0.6768 0.36052 0.0
C1950 C 0.85261 0.67748 0.30672 0.0
C1951 C 0.8334 0.65306 0.27729 0.0
H1952 H 0.85326 0.65656 0.20605 0.0
C1953 C 0.81964 0.63006 0.16663 0.0
C1954 C 0.82109 0.63705 0.1405 0.0
C1955 C 0.82481 0.63392 0.19355 0.0
C1956 C 0.84755 0.65559 0.22566 0.0
H1957 H 0.85091 0.65944 0.38123 0.0
H1958 H 0.84492 0.64944 0.33453 0.0
H1959 H 0.86034 0.6653 0.25312 0.0
H1960 H 0.82952 0.65337 0.12205 0.0
H1961 H 0.8381 0.66035 0.16914 0.0
H1962 H 0.8204 0.64374 0.24985 0.0
C1963 C 0.84798 0.65887 0.33393 0.0
C1964 C 0.85163 0.66056 0.2526 0.0
C1965 C 0.85147 0.66455 0.36056 0.0
C1966 C 0.82806 0.64786 0.14183 0.0
C1967 C 0.83314 0.65177 0.16879 0.0
C1968 C 0.82926 0.64819 0.2503 0.0
C1969 C 0.84852 0.66529 0.30677 0.0
C1970 C 0.84454 0.65943 0.2786 0.0
C1971 C 0.83147 0.64492 0.19506 0.0
C1972 C 0.83623 0.64949 0.22408 0.0
H1973 H 0.85907 0.69261 0.33267 0.0
H1974 H 0.85301 0.68267 0.28613 0.0
H1975 H 0.82769 0.65219 0.29695 0.0
H1976 H 0.81423 0.62175 0.16656 0.0
H1977 H 0.82349 0.62832 0.21323 0.0
C1978 C 0.32141 0.83948 0.35984 0.0
C1979 C 0.31894 0.85198 0.36422 0.0
C1980 C 0.32715 0.83547 0.33377 0.0
C1981 C 0.33257 0.84461 0.25576 0.0
H1982 H 0.35652 0.81841 0.25748 0.0
C1983 C 0.35808 0.82864 0.14995 0.0
C1984 C 0.35883 0.81591 0.14573 0.0
C1985 C 0.35406 0.83344 0.17713 0.0
C1986 C 0.34978 0.82569 0.25666 0.0
H1987 H 0.32065 0.87008 0.34469 0.0
H1988 H 0.33093 0.86311 0.29953 0.0
H1989 H 0.34803 0.82613 0.30423 0.0
H1990 H 0.35628 0.79824 0.16694 0.0
H1991 H 0.34911 0.80661 0.21426 0.0
H1992 H 0.33426 0.84411 0.2082 0.0
C1993 C 0.32829 0.85639 0.31611 0.0
C1994 C 0.34492 0.83009 0.2834 0.0
C1995 C 0.32253 0.8604 0.34215 0.0
C1996 C 0.35566 0.80809 0.16941 0.0
C1997 C 0.35169 0.81288 0.19662 0.0
C1998 C 0.33746 0.84023 0.22904 0.0
C1999 C 0.33057 0.84387 0.31151 0.0
C2000 C 0.33618 0.83954 0.28324 0.0
C2001 C 0.35076 0.82561 0.2007 0.0
C2002 C 0.34604 0.83065 0.22918 0.0
H2003 H 0.31889 0.83277 0.37657 0.0
H2004 H 0.32868 0.82574 0.3308 0.0
H2005 H 0.32571 0.85176 0.25483 0.0
H2006 H 0.36038 0.83489 0.13204 0.0
H2007 H 0.35354 0.84329 0.17972 0.0
C2008 C 0.14314 0.66086 0.63608 0.0
C2009 C 0.13802 0.67266 0.63663 0.0
C2010 C 0.14715 0.65531 0.66244 0.0
C2011 C 0.14434 0.65703 0.74471 0.0
H2012 H 0.17587 0.64073 0.74405 0.0
C2013 C 0.17153 0.64661 0.85179 0.0
C2014 C 0.17772 0.63536 0.85367 0.0
C2015 C 0.16581 0.65013 0.82529 0.0
C2016 C 0.16697 0.64508 0.74451 0.0
H2017 H 0.13277 0.68775 0.66538 0.0
H2018 H 0.14001 0.67821 0.71121 0.0
H2019 H 0.16744 0.64876 0.69762 0.0
H2020 H 0.1827 0.61894 0.82934 0.0
H2021 H 0.1726 0.62506 0.78301 0.0
H2022 H 0.14401 0.65357 0.79174 0.0
C2023 C 0.14083 0.67318 0.69047 0.0
C2024 C 0.16213 0.64968 0.71791 0.0
C2025 C 0.13682 0.67872 0.66415 0.0
C2026 C 0.17792 0.62762 0.82861 0.0
C2027 C 0.17224 0.63117 0.80203 0.0
C2028 C 0.14919 0.65246 0.77131 0.0
C2029 C 0.1461 0.66145 0.6899 0.0
C2030 C 0.15084 0.65584 0.71779 0.0
C2031 C 0.16618 0.64249 0.80006 0.0
C2032 C 0.16063 0.64657 0.77155 0.0
H2033 H 0.14428 0.65599 0.6152 0.0
H2034 H 0.15107 0.64622 0.6613 0.0
H2035 H 0.13552 0.66153 0.74526 0.0
H2036 H 0.1711 0.6527 0.87084 0.0
H2037 H 0.16132 0.65896 0.82438 0.0
C2038 C 0.306 0.14147 0.67043 0.0
C2039 C 0.31386 0.13563 0.65015 0.0
C2040 C 0.31046 0.14594 0.69749 0.0
C2041 C 0.33677 0.14402 0.74965 0.0
H2042 H 0.32461 0.17554 0.77627 0.0
C2043 C 0.35922 0.17219 0.84442 0.0
C2044 C 0.35128 0.17767 0.86522 0.0
C2045 C 0.35458 0.16647 0.81892 0.0
C2046 C 0.328 0.16667 0.76928 0.0
H2047 H 0.33251 0.12973 0.64233 0.0
H2048 H 0.34042 0.13774 0.68944 0.0
H2049 H 0.31672 0.16662 0.73034 0.0
H2050 H 0.33221 0.1811 0.87589 0.0
H2051 H 0.32415 0.1713 0.83112 0.0
H2052 H 0.34825 0.14426 0.78847 0.0
C2053 C 0.33075 0.13869 0.6847 0.0
C2054 C 0.32346 0.16154 0.743 0.0
C2055 C 0.32624 0.13412 0.6577 0.0
C2056 C 0.3386 0.17719 0.86005 0.0
C2057 C 0.33397 0.17154 0.83447 0.0
C2058 C 0.34138 0.14921 0.77587 0.0
C2059 C 0.32293 0.14476 0.70479 0.0
C2060 C 0.32776 0.15013 0.73289 0.0
C2061 C 0.34192 0.16618 0.81358 0.0
C2062 C 0.33701 0.16058 0.78595 0.0
H2063 H 0.29636 0.14256 0.66539 0.0
H2064 H 0.30413 0.15031 0.71272 0.0
H2065 H 0.34017 0.13515 0.74273 0.0
H2066 H 0.36904 0.17255 0.84746 0.0
H2067 H 0.36092 0.16254 0.803 0.0
C2068 C 0.82508 0.35921 0.83967 0.0
C2069 C 0.8128 0.35628 0.84587 0.0
C2070 C 0.83056 0.35533 0.81312 0.0
C2071 C 0.8281 0.33142 0.7564 0.0
H2072 H 0.84815 0.35288 0.70775 0.0
C2073 C 0.84538 0.31615 0.64165 0.0
C2074 C 0.85743 0.31919 0.63374 0.0
C2075 C 0.83996 0.32133 0.66681 0.0
C2076 C 0.8427 0.34673 0.72129 0.0
H2077 H 0.79653 0.34741 0.82839 0.0
H2078 H 0.80617 0.34046 0.78239 0.0
H2079 H 0.83868 0.36076 0.75331 0.0
H2080 H 0.8732 0.3302 0.64543 0.0
H2081 H 0.86381 0.33912 0.68999 0.0
H2082 H 0.83223 0.31733 0.72498 0.0
C2083 C 0.81158 0.34564 0.79826 0.0
C2084 C 0.83726 0.35126 0.7473 0.0
C2085 C 0.80607 0.34959 0.82466 0.0
C2086 C 0.86388 0.32775 0.65105 0.0
C2087 C 0.85848 0.33287 0.67647 0.0
C2088 C 0.8336 0.32687 0.7306 0.0
C2089 C 0.8239 0.34838 0.79235 0.0
C2090 C 0.82983 0.34366 0.76496 0.0
C2091 C 0.8465 0.3296 0.68483 0.0
C2092 C 0.84088 0.33449 0.71258 0.0
H2093 H 0.83056 0.36422 0.85567 0.0
H2094 H 0.84011 0.35747 0.80923 0.0
H2095 H 0.8226 0.32529 0.7699 0.0
H2096 H 0.84013 0.30976 0.6283 0.0
H2097 H 0.83062 0.31885 0.67213 0.0
C2098 C 0.63536 0.81176 0.83047 0.0
C2099 C 0.64323 0.81161 0.85528 0.0
C2100 C 0.63938 0.8163 0.80302 0.0
C2101 C 0.66249 0.83664 0.76979 0.0
H2102 H 0.65508 0.81919 0.69657 0.0
C2103 C 0.68538 0.84889 0.6581 0.0
C2104 C 0.67811 0.8487 0.63222 0.0
C2105 C 0.68083 0.84445 0.68512 0.0
C2106 C 0.65709 0.82426 0.71678 0.0
H2107 H 0.66147 0.81617 0.87084 0.0
H2108 H 0.66853 0.82398 0.82281 0.0
H2109 H 0.64768 0.81123 0.74418 0.0
H2110 H 0.66036 0.84363 0.6144 0.0
H2111 H 0.6523 0.8361 0.6618 0.0
H2112 H 0.67186 0.84968 0.74249 0.0
C2113 C 0.65922 0.82066 0.82465 0.0
C2114 C 0.65286 0.81969 0.74403 0.0
C2115 C 0.65522 0.81607 0.85205 0.0
C2116 C 0.66615 0.844 0.634 0.0
C2117 C 0.66159 0.83956 0.66107 0.0
C2118 C 0.66668 0.84122 0.74256 0.0
C2119 C 0.65134 0.82084 0.79986 0.0
C2120 C 0.65559 0.82579 0.77084 0.0
C2121 C 0.66888 0.83975 0.68694 0.0
C2122 C 0.6641 0.83505 0.71576 0.0
H2123 H 0.6261 0.80827 0.8322 0.0
H2124 H 0.63307 0.8164 0.78436 0.0
H2125 H 0.66456 0.84166 0.79003 0.0
H2126 H 0.69457 0.85259 0.6576 0.0
H2127 H 0.68673 0.8446 0.70454 0.0
C2128 C 0.85599 0.67431 0.65498 0.0
C2129 C 0.85373 0.68665 0.64791 0.0
C2130 C 0.85158 0.66929 0.68158 0.0
C2131 C 0.82766 0.67378 0.73818 0.0
H2132 H 0.84752 0.6519 0.78615 0.0
C2133 C 0.81184 0.65692 0.85363 0.0
C2134 C 0.81399 0.64457 0.86068 0.0
C2135 C 0.81706 0.66214 0.82818 0.0
C2136 C 0.84182 0.65789 0.77283 0.0
H2137 H 0.84544 0.70349 0.66375 0.0
H2138 H 0.83769 0.6947 0.71005 0.0
H2139 H 0.85606 0.66088 0.74079 0.0
H2140 H 0.82325 0.62799 0.84658 0.0
H2141 H 0.83228 0.63708 0.80197 0.0
H2142 H 0.81338 0.67074 0.76993 0.0
C2143 C 0.84271 0.68887 0.69479 0.0
C2144 C 0.84671 0.66304 0.74688 0.0
C2145 C 0.84713 0.6939 0.66826 0.0
C2146 C 0.82154 0.63757 0.84189 0.0
C2147 C 0.82673 0.64279 0.81637 0.0
C2148 C 0.82276 0.66862 0.76404 0.0
C2149 C 0.8448 0.67649 0.70164 0.0
C2150 C 0.83969 0.67105 0.72931 0.0
C2151 C 0.8245 0.65512 0.80916 0.0
C2152 C 0.82978 0.66062 0.7817 0.0
H2153 H 0.8609 0.66844 0.63962 0.0
H2154 H 0.85322 0.65968 0.68608 0.0
H2155 H 0.82195 0.67976 0.72483 0.0
H2156 H 0.80624 0.66259 0.86797 0.0
H2157 H 0.81534 0.67172 0.82358 0.0
C2158 C 0.31586 0.8633 0.66923 0.0
C2159 C 0.31487 0.85547 0.64447 0.0
C2160 C 0.32182 0.8594 0.69517 0.0
C2161 C 0.33095 0.83105 0.7342 0.0
H2162 H 0.35136 0.85281 0.78116 0.0
C2163 C 0.35978 0.81341 0.83222 0.0
C2164 C 0.35914 0.82016 0.85887 0.0
C2165 C 0.35503 0.81819 0.80576 0.0
C2166 C 0.34562 0.84667 0.76835 0.0
H2167 H 0.3198 0.83765 0.62689 0.0
H2168 H 0.33033 0.8309 0.67188 0.0
H2169 H 0.34188 0.86031 0.73522 0.0
H2170 H 0.35341 0.83738 0.8785 0.0
H2171 H 0.34501 0.84571 0.83213 0.0
H2172 H 0.33471 0.81741 0.76717 0.0
C2173 C 0.32623 0.83993 0.67165 0.0
C2174 C 0.34017 0.85096 0.74209 0.0
C2175 C 0.32022 0.84379 0.64585 0.0
C2176 C 0.35392 0.83193 0.85834 0.0
C2177 C 0.34923 0.83674 0.83178 0.0
C2178 C 0.33643 0.82676 0.76029 0.0
C2179 C 0.32697 0.84761 0.69676 0.0
C2180 C 0.3328 0.84317 0.72469 0.0
C2181 C 0.34957 0.82983 0.80533 0.0
C2182 C 0.34384 0.8345 0.7776 0.0
H2183 H 0.31174 0.87232 0.66883 0.0
H2184 H 0.3221 0.8655 0.71422 0.0
H2185 H 0.32511 0.82489 0.72171 0.0
H2186 H 0.36363 0.80428 0.83196 0.0
H2187 H 0.35555 0.81272 0.78563 0.0
C2188 C 0.12922 0.3335 0.64601 0.0
C2189 C 0.12822 0.32068 0.6446 0.0
C2190 C 0.132 0.33931 0.673 0.0
C2191 C 0.13414 0.33382 0.75518 0.0
H2192 H 0.15815 0.35994 0.75199 0.0
C2193 C 0.16632 0.34614 0.85209 0.0
C2194 C 0.16773 0.35859 0.85946 0.0
C2195 C 0.1596 0.34266 0.82699 0.0
C2196 C 0.1513 0.35278 0.75318 0.0
H2197 H 0.12875 0.30398 0.67085 0.0
H2198 H 0.13414 0.31398 0.71729 0.0
H2199 H 0.14972 0.35177 0.7057 0.0
H2200 H 0.16285 0.37711 0.8463 0.0
H2201 H 0.15155 0.37096 0.80168 0.0
H2202 H 0.13632 0.33443 0.8027 0.0
C2203 C 0.13258 0.31963 0.69779 0.0
C2204 C 0.14642 0.34811 0.72669 0.0
C2205 C 0.12969 0.31385 0.67095 0.0
C2206 C 0.16217 0.36746 0.84107 0.0
C2207 C 0.15562 0.36396 0.81564 0.0
C2208 C 0.13916 0.33837 0.78161 0.0
C2209 C 0.13391 0.33243 0.69914 0.0
C2210 C 0.13797 0.33838 0.72733 0.0
C2211 C 0.1543 0.35153 0.8084 0.0
C2212 C 0.14795 0.34773 0.78079 0.0
H2213 H 0.12821 0.33905 0.62613 0.0
H2214 H 0.13278 0.3492 0.67327 0.0
H2215 H 0.12744 0.32654 0.75659 0.0
H2216 H 0.17066 0.33904 0.86522 0.0
H2217 H 0.15888 0.33302 0.82159 0.0
C2218 C 0.64005 0.1784 0.82602 0.0
C2219 C 0.63572 0.17137 0.85008 0.0
C2220 C 0.64281 0.17289 0.79876 0.0
C2221 C 0.65085 0.14325 0.76499 0.0
H2222 H 0.64334 0.16034 0.69131 0.0
C2223 C 0.66284 0.12364 0.64831 0.0
C2224 C 0.66882 0.13196 0.62925 0.0
C2225 C 0.65732 0.12771 0.67469 0.0
C2226 C 0.6455 0.15547 0.71171 0.0
H2227 H 0.63095 0.153 0.86439 0.0
H2228 H 0.6356 0.14338 0.81649 0.0
H2229 H 0.63645 0.1688 0.73876 0.0
H2230 H 0.67376 0.15107 0.6233 0.0
H2231 H 0.66399 0.15812 0.66879 0.0
H2232 H 0.66006 0.13 0.73781 0.0
C2233 C 0.63694 0.15316 0.81887 0.0
C2234 C 0.64159 0.16033 0.73888 0.0
C2235 C 0.63418 0.15869 0.8462 0.0
C2236 C 0.66899 0.14444 0.637 0.0
C2237 C 0.66341 0.14849 0.66316 0.0
C2238 C 0.65473 0.13837 0.73774 0.0
C2239 C 0.64128 0.16021 0.79484 0.0
C2240 C 0.64445 0.15442 0.76588 0.0
C2241 C 0.6576 0.14018 0.68239 0.0
C2242 C 0.65231 0.14457 0.7109 0.0
H2243 H 0.64119 0.18821 0.82812 0.0
H2244 H 0.6463 0.17856 0.78085 0.0
H2245 H 0.65328 0.13853 0.7854 0.0
H2246 H 0.66242 0.11399 0.64285 0.0
H2247 H 0.65281 0.12112 0.68903 0.0
C2248 C 0.84867 0.311 0.33531 0.0
C2249 C 0.85901 0.31598 0.34945 0.0
C2250 C 0.84494 0.31526 0.30741 0.0
C2251 C 0.84769 0.34165 0.25629 0.0
H2252 H 0.83352 0.31874 0.19983 0.0
C2253 C 0.83089 0.35506 0.13729 0.0
C2254 C 0.81903 0.35091 0.13031 0.0
C2255 C 0.83688 0.3509 0.16298 0.0
C2256 C 0.83745 0.32523 0.21541 0.0
H2257 H 0.8736 0.32934 0.34517 0.0
H2258 H 0.86728 0.33655 0.29592 0.0
H2259 H 0.84228 0.31114 0.24629 0.0
H2260 H 0.80406 0.33941 0.14559 0.0
H2261 H 0.81464 0.33194 0.18971 0.0
H2262 H 0.84283 0.35573 0.22506 0.0
C2263 C 0.86194 0.32947 0.30672 0.0
C2264 C 0.84242 0.3209 0.24207 0.0
C2265 C 0.86564 0.32525 0.3348 0.0
C2266 C 0.8133 0.34257 0.14974 0.0
C2267 C 0.81933 0.33831 0.17512 0.0
C2268 C 0.84281 0.34597 0.2294 0.0
C2269 C 0.85153 0.32452 0.29272 0.0
C2270 C 0.84734 0.32908 0.26316 0.0
C2271 C 0.83117 0.34241 0.18195 0.0
C2272 C 0.83742 0.33782 0.20905 0.0
H2273 H 0.84346 0.30371 0.34567 0.0
H2274 H 0.83677 0.31136 0.29755 0.0
H2275 H 0.85131 0.34821 0.27212 0.0
H2276 H 0.83564 0.36137 0.12268 0.0
H2277 H 0.84604 0.35415 0.16773 0.0
C2278 C 0.63824 0.84406 0.12987 0.0
C2279 C 0.63125 0.8333 0.13264 0.0
C2280 C 0.64131 0.85094 0.15509 0.0
C2281 C 0.63388 0.85572 0.23495 0.0
H2282 H 0.6685 0.86286 0.24249 0.0
C2283 C 0.65774 0.86204 0.34819 0.0
C2284 C 0.66778 0.87004 0.35037 0.0
C2285 C 0.652 0.86006 0.32078 0.0
C2286 C 0.65876 0.8612 0.24059 0.0
H2287 H 0.62176 0.82154 0.16411 0.0
H2288 H 0.627 0.83359 0.2079 0.0
H2289 H 0.66057 0.85502 0.19552 0.0
H2290 H 0.67934 0.8826 0.3256 0.0
H2291 H 0.66912 0.87937 0.27791 0.0
H2292 H 0.63213 0.86164 0.2803 0.0
C2293 C 0.63 0.83678 0.18621 0.0
C2294 C 0.65422 0.85669 0.21363 0.0
C2295 C 0.62699 0.82987 0.16105 0.0
C2296 C 0.67159 0.87643 0.32476 0.0
C2297 C 0.66582 0.87447 0.29734 0.0
C2298 C 0.63841 0.8603 0.2619 0.0
C2299 C 0.63739 0.84725 0.18358 0.0
C2300 C 0.64179 0.85362 0.21076 0.0
C2301 C 0.65613 0.86606 0.2949 0.0
C2302 C 0.65097 0.8628 0.26526 0.0
H2303 H 0.64148 0.84709 0.10824 0.0
H2304 H 0.64689 0.85906 0.15237 0.0
H2305 H 0.62422 0.8536 0.23321 0.0
H2306 H 0.65445 0.85713 0.3676 0.0
H2307 H 0.64464 0.85343 0.3197 0.0
C2308 C 0.13606 0.66029 0.3482 0.0
C2309 C 0.12979 0.6715 0.3502 0.0
C2310 C 0.13924 0.65548 0.32037 0.0
C2311 C 0.1465 0.6656 0.24502 0.0
H2312 H 0.14398 0.6312 0.2245 0.0
C2313 C 0.16326 0.64808 0.13148 0.0
C2314 C 0.16991 0.63708 0.13161 0.0
C2315 C 0.15668 0.65171 0.15667 0.0
C2316 C 0.14483 0.64081 0.22999 0.0
H2317 H 0.12173 0.68632 0.32469 0.0
H2318 H 0.12728 0.6779 0.27608 0.0
H2319 H 0.1355 0.63852 0.27173 0.0
H2320 H 0.17472 0.62113 0.15783 0.0
H2321 H 0.16349 0.62758 0.20217 0.0
H2322 H 0.15621 0.66792 0.20408 0.0
C2323 C 0.12974 0.67286 0.29604 0.0
C2324 C 0.13995 0.645 0.25697 0.0
C2325 C 0.12647 0.67762 0.32383 0.0
C2326 C 0.16958 0.6296 0.15709 0.0
C2327 C 0.16311 0.6333 0.18243 0.0
C2328 C 0.15147 0.66142 0.21823 0.0
C2329 C 0.13631 0.66184 0.29406 0.0
C2330 C 0.14081 0.65742 0.2648 0.0
C2331 C 0.15674 0.64449 0.18268 0.0
C2332 C 0.15078 0.64896 0.21045 0.0
H2333 H 0.13863 0.65532 0.36818 0.0
H2334 H 0.14438 0.64701 0.3195 0.0
H2335 H 0.14748 0.67519 0.2507 0.0
H2336 H 0.16322 0.65392 0.11192 0.0
H2337 H 0.15166 0.66025 0.15583 0.0
C2338 C 0.31106 0.13861 0.33485 0.0
C2339 C 0.31698 0.14046 0.36235 0.0
C2340 C 0.31622 0.14294 0.30841 0.0
C2341 C 0.34513 0.15261 0.27397 0.0
H2342 H 0.3239 0.17019 0.21943 0.0
C2343 C 0.36326 0.17954 0.17162 0.0
C2344 C 0.35601 0.17949 0.14573 0.0
C2345 C 0.35895 0.17417 0.19794 0.0
C2346 C 0.32993 0.16515 0.23415 0.0
H2347 H 0.33306 0.14827 0.3835 0.0
H2348 H 0.34216 0.1557 0.33712 0.0
H2349 H 0.31554 0.16193 0.26554 0.0
H2350 H 0.33891 0.17327 0.12648 0.0
H2351 H 0.3315 0.16368 0.1721 0.0
H2352 H 0.35951 0.15574 0.24241 0.0
C2353 C 0.33353 0.15083 0.33615 0.0
C2354 C 0.32514 0.16045 0.26062 0.0
C2355 C 0.32833 0.14656 0.36268 0.0
C2356 C 0.34459 0.17361 0.1463 0.0
C2357 C 0.34033 0.16817 0.17247 0.0
C2358 C 0.34993 0.15725 0.24732 0.0
C2359 C 0.32747 0.14915 0.3088 0.0
C2360 C 0.33267 0.15412 0.28078 0.0
C2361 C 0.34735 0.16857 0.19876 0.0
C2362 C 0.34236 0.16355 0.22707 0.0
H2363 H 0.30245 0.13371 0.33369 0.0
H2364 H 0.31144 0.14135 0.28757 0.0
H2365 H 0.35112 0.14767 0.28902 0.0
H2366 H 0.37207 0.18408 0.1718 0.0
H2367 H 0.36454 0.17475 0.21786 0.0
loop_
_geom_bond_atom_site_label_1
_geom_bond_atom_site_label_2
_geom_bond_distance
_geom_bond_site_symmetry_2
_ccdc_geom_bond_type
Li0 N17 1.991 . S
Li0 O60 1.983 . S
Li0 O61 1.969 1_554 S
Li0 O62 1.933 1_554 S
Li1 N25 1.990 . S
Li1 O60 1.970 . S
Li1 O61 1.936 1_554 S
Li1 O63 1.986 . S
Li2 N47 1.991 . S
Li2 O60 1.939 1_556 S
Li2 O62 1.977 . S
Li2 O63 1.969 1_556 S
Li3 N53 1.990 . S
Li3 O61 1.980 . S
Li3 O62 1.970 . S
Li3 O63 1.930 1_556 S
C4 C6 1.348 . S
C4 C7 1.356 . S
C4 O60 1.325 . S
N5 C8 1.314 . S
N5 C9 1.279 . S
C6 C4 1.348 . S
C6 C8 1.353 . S
C6 H64 0.929 . S
C7 C4 1.356 . S
C7 C9 1.358 . S
C7 H65 0.930 . S
C8 N5 1.314 . S
C8 C6 1.353 . S
C8 H66 0.930 . S
C9 N5 1.279 . S
C9 C7 1.358 . S
C9 H67 0.930 . S
C10 C13 1.346 . S
C10 C14 1.357 1_554 S
C10 O61 1.324 1_554 S
C11 N12 1.279 1_556 S
C11 C14 1.358 . S
C11 H68 0.930 . S
N12 C11 1.279 1_554 S
N12 C15 1.314 . S
C13 C10 1.346 . S
C13 C15 1.353 . S
C13 H69 0.929 . S
C14 C10 1.357 1_556 S
C14 C11 1.358 . S
C14 H70 0.930 . S
C15 N12 1.314 . S
C15 C13 1.353 . S
C15 H71 0.930 . S
C16 N17 1.314 1_556 S
C16 C21 1.353 . S
C16 H22 0.930 . S
N17 Li0 1.991 . S
N17 C16 1.314 1_554 S
N17 C19 1.279 . S
C18 C19 1.358 . S
C18 C20 1.359 . S
C18 H72 0.930 . S
C19 N17 1.279 . S
C19 C18 1.358 . S
C19 H23 0.930 . S
C20 C18 1.359 . S
C20 C21 1.345 1_554 S
C21 C16 1.353 . S
C21 C20 1.345 1_556 S
C21 H73 0.929 . S
H22 C16 0.930 . S
H23 C19 0.930 . S
C24 N25 1.314 . S
C24 C26 1.353 . S
C24 H30 0.930 . S
N25 Li1 1.990 . S
N25 C24 1.314 . S
N25 C28 1.279 . S
C26 C24 1.353 . S
C26 C29 1.348 . S
C26 H74 0.929 . S
C27 C28 1.358 . S
C27 C29 1.356 . S
C27 H75 0.930 . S
C28 N25 1.279 . S
C28 C27 1.358 . S
C28 H31 0.930 . S
C29 C26 1.348 . S
C29 C27 1.356 . S
H30 C24 0.930 . S
H31 C28 0.930 . S
C32 C34 1.348 . S
C32 C35 1.356 . S
C32 O62 1.325 . S
N33 C36 1.314 . S
N33 C37 1.279 . S
C34 C32 1.348 . S
C34 C36 1.353 . S
C34 H76 0.929 . S
C35 C32 1.356 . S
C35 C37 1.358 . S
C35 H77 0.930 . S
C36 N33 1.314 . S
C36 C34 1.353 . S
C36 H78 0.930 . S
C37 N33 1.279 . S
C37 C35 1.358 . S
C37 H79 0.930 . S
C38 C39 1.347 1_554 S
C38 C40 1.357 . S
C38 O63 1.324 . S
C39 C38 1.347 1_556 S
C39 C41 1.353 . S
C39 H80 0.929 . S
C40 C38 1.357 . S
C40 C42 1.358 . S
C40 H81 0.930 . S
C41 C39 1.353 . S
C41 N43 1.314 . S
C41 H82 0.930 . S
C42 C40 1.358 . S
C42 N43 1.279 1_554 S
C42 H83 0.930 . S
N43 C41 1.314 . S
N43 C42 1.279 1_556 S
C44 C46 1.353 . S
C44 N47 1.314 1_554 S
C44 H50 0.930 . S
C45 N47 1.279 . S
C45 C48 1.358 . S
C45 H51 0.930 . S
C46 C44 1.353 . S
C46 C49 1.345 . S
C46 H84 0.929 . S
N47 Li2 1.991 . S
N47 C44 1.314 1_556 S
N47 C45 1.279 . S
C48 C45 1.358 . S
C48 C49 1.359 1_556 S
C48 H85 0.930 . S
C49 C46 1.345 . S
C49 C48 1.359 1_554 S
H50 C44 0.930 . S
H51 C45 0.930 . S
C52 N53 1.314 . S
C52 C54 1.353 . S
C52 H58 0.930 . S
N53 Li3 1.990 . S
N53 C52 1.314 . S
N53 C56 1.279 . S
C54 C52 1.353 . S
C54 C57 1.348 . S
C54 H86 0.929 . S
C55 C56 1.358 . S
C55 C57 1.356 . S
C55 H87 0.930 . S
C56 N53 1.279 . S
C56 C55 1.358 . S
C56 H59 0.930 . S
C57 C54 1.348 . S
C57 C55 1.356 . S
H58 C52 0.930 . S
H59 C56 0.930 . S
O60 Li0 1.983 . S
O60 Li1 1.970 . S
O60 Li2 1.939 1_554 S
O60 C4 1.325 . S
O61 Li0 1.969 1_556 S
O61 Li1 1.936 1_556 S
O61 Li3 1.980 . S
O61 C10 1.324 1_556 S
O62 Li0 1.933 1_556 S
O62 Li2 1.977 . S
O62 Li3 1.970 . S
O62 C32 1.325 . S
O63 Li1 1.986 . S
O63 Li2 1.969 1_554 S
O63 Li3 1.930 1_554 S
O63 C38 1.324 . S
H64 C6 0.929 . S
H65 C7 0.930 . S
H66 C8 0.930 . S
H67 C9 0.930 . S
H68 C11 0.930 . S
H69 C13 0.929 . S
H70 C14 0.930 . S
H71 C15 0.930 . S
H72 C18 0.930 . S
H73 C21 0.929 . S
H74 C26 0.929 . S
H75 C27 0.930 . S
H76 C34 0.929 . S
H77 C35 0.930 . S
H78 C36 0.930 . S
H79 C37 0.930 . S
H80 C39 0.929 . S
H81 C40 0.930 . S
H82 C41 0.930 . S
H83 C42 0.930 . S
H84 C46 0.929 . S
H85 C48 0.930 . S
H86 C54 0.929 . S
H87 C55 0.930 . S
Li88 N105 1.991 . S
Li88 O148 1.983 . S
Li88 O149 1.969 1_554 S
Li88 O150 1.933 1_554 S
Li89 N113 1.990 . S
Li89 O148 1.970 . S
Li89 O149 1.936 1_554 S
Li89 O151 1.986 . S
Li90 N135 1.991 . S
Li90 O148 1.939 1_556 S
Li90 O150 1.977 . S
Li90 O151 1.969 1_556 S
Li91 N141 1.990 . S
Li91 O149 1.980 . S
Li91 O150 1.970 . S
Li91 O151 1.930 1_556 S
C92 C94 1.348 . S
C92 C95 1.356 . S
C92 O148 1.325 . S
N93 C96 1.314 . S
N93 C97 1.279 . S
C94 C92 1.348 . S
C94 C96 1.353 . S
C94 H152 0.929 . S
C95 C92 1.356 . S
C95 C97 1.358 . S
C95 H153 0.930 . S
C96 N93 1.314 . S
C96 C94 1.353 . S
C96 H154 0.930 . S
C97 N93 1.279 . S
C97 C95 1.358 . S
C97 H155 0.930 . S
C98 C101 1.346 . S
C98 C102 1.357 1_554 S
C98 O149 1.324 1_554 S
C99 N100 1.279 1_556 S
C99 C102 1.358 . S
C99 H156 0.930 . S
N100 C99 1.279 1_554 S
N100 C103 1.314 . S
C101 C98 1.346 . S
C101 C103 1.353 . S
C101 H157 0.929 . S
C102 C98 1.357 1_556 S
C102 C99 1.358 . S
C102 H158 0.930 . S
C103 N100 1.314 . S
C103 C101 1.353 . S
C103 H159 0.930 . S
C104 N105 1.314 1_556 S
C104 C109 1.353 . S
C104 H110 0.930 . S
N105 Li88 1.991 . S
N105 C104 1.314 1_554 S
N105 C107 1.279 . S
C106 C107 1.358 . S
C106 C108 1.359 . S
C106 H160 0.930 . S
C107 N105 1.279 . S
C107 C106 1.358 . S
C107 H111 0.930 . S
C108 C106 1.359 . S
C108 C109 1.345 1_554 S
C109 C104 1.353 . S
C109 C108 1.345 1_556 S
C109 H161 0.929 . S
H110 C104 0.930 . S
H111 C107 0.930 . S
C112 N113 1.314 . S
C112 C114 1.353 . S
C112 H118 0.930 . S
N113 Li89 1.990 . S
N113 C112 1.314 . S
N113 C116 1.279 . S
C114 C112 1.353 . S
C114 C117 1.348 . S
C114 H162 0.929 . S
C115 C116 1.358 . S
C115 C117 1.356 . S
C115 H163 0.930 . S
C116 N113 1.279 . S
C116 C115 1.358 . S
C116 H119 0.930 . S
C117 C114 1.348 . S
C117 C115 1.356 . S
H118 C112 0.930 . S
H119 C116 0.930 . S
C120 C122 1.348 . S
C120 C123 1.356 . S
C120 O150 1.325 . S
N121 C124 1.314 . S
N121 C125 1.279 . S
C122 C120 1.348 . S
C122 C124 1.353 . S
C122 H164 0.929 . S
C123 C120 1.356 . S
C123 C125 1.358 . S
C123 H165 0.930 . S
C124 N121 1.314 . S
C124 C122 1.353 . S
C124 H166 0.930 . S
C125 N121 1.279 . S
C125 C123 1.358 . S
C125 H167 0.930 . S
C126 C127 1.347 1_554 S
C126 C128 1.357 . S
C126 O151 1.324 . S
C127 C126 1.347 1_556 S
C127 C129 1.353 . S
C127 H168 0.929 . S
C128 C126 1.357 . S
C128 C130 1.358 . S
C128 H169 0.930 . S
C129 C127 1.353 . S
C129 N131 1.314 . S
C129 H170 0.930 . S
C130 C128 1.358 . S
C130 N131 1.279 1_554 S
C130 H171 0.930 . S
N131 C129 1.314 . S
N131 C130 1.279 1_556 S
C132 C134 1.353 . S
C132 N135 1.314 1_554 S
C132 H138 0.930 . S
C133 N135 1.279 . S
C133 C136 1.358 . S
C133 H139 0.930 . S
C134 C132 1.353 . S
C134 C137 1.345 . S
C134 H172 0.929 . S
N135 Li90 1.991 . S
N135 C132 1.314 1_556 S
N135 C133 1.279 . S
C136 C133 1.358 . S
C136 C137 1.359 1_556 S
C136 H173 0.930 . S
C137 C134 1.345 . S
C137 C136 1.359 1_554 S
H138 C132 0.930 . S
H139 C133 0.930 . S
C140 N141 1.314 . S
C140 C142 1.353 . S
C140 H146 0.930 . S
N141 Li91 1.990 . S
N141 C140 1.314 . S
N141 C144 1.279 . S
C142 C140 1.353 . S
C142 C145 1.348 . S
C142 H174 0.929 . S
C143 C144 1.358 . S
C143 C145 1.356 . S
C143 H175 0.930 . S
C144 N141 1.279 . S
C144 C143 1.358 . S
C144 H147 0.930 . S
C145 C142 1.348 . S
C145 C143 1.356 . S
H146 C140 0.930 . S
H147 C144 0.930 . S
O148 Li88 1.983 . S
O148 Li89 1.970 . S
O148 Li90 1.939 1_554 S
O148 C92 1.325 . S
O149 Li88 1.969 1_556 S
O149 Li89 1.936 1_556 S
O149 Li91 1.980 . S
O149 C98 1.324 1_556 S
O150 Li88 1.933 1_556 S
O150 Li90 1.977 . S
O150 Li91 1.970 . S
O150 C120 1.325 . S
O151 Li89 1.986 . S
O151 Li90 1.969 1_554 S
O151 Li91 1.930 1_554 S
O151 C126 1.324 . S
H152 C94 0.929 . S
H153 C95 0.930 . S
H154 C96 0.930 . S
H155 C97 0.930 . S
H156 C99 0.930 . S
H157 C101 0.929 . S
H158 C102 0.930 . S
H159 C103 0.930 . S
H160 C106 0.930 . S
H161 C109 0.929 . S
H162 C114 0.929 . S
H163 C115 0.930 . S
H164 C122 0.929 . S
H165 C123 0.930 . S
H166 C124 0.930 . S
H167 C125 0.930 . S
H168 C127 0.929 . S
H169 C128 0.930 . S
H170 C129 0.930 . S
H171 C130 0.930 . S
H172 C134 0.929 . S
H173 C136 0.930 . S
H174 C142 0.929 . S
H175 C143 0.930 . S
Li176 N193 1.990 . S
Li176 O236 1.936 1_554 S
Li176 O237 1.970 . S
Li176 O238 1.986 . S
Li177 N201 1.991 . S
Li177 O236 1.969 1_554 S
Li177 O237 1.983 . S
Li177 O239 1.933 1_554 S
Li178 N223 1.990 . S
Li178 O236 1.980 . S
Li178 O238 1.930 1_556 S
Li178 O239 1.970 . S
Li179 N229 1.991 . S
Li179 O237 1.939 1_556 S
Li179 O238 1.969 1_556 S
Li179 O239 1.977 . S
C180 C182 1.346 . S
C180 C183 1.357 1_554 S
C180 O236 1.324 1_554 S
N181 C184 1.314 . S
N181 C185 1.279 1_554 S
C182 C180 1.346 . S
C182 C184 1.353 . S
C182 H240 0.929 . S
C183 C180 1.357 1_556 S
C183 C185 1.358 . S
C183 H241 0.930 . S
C184 N181 1.314 . S
C184 C182 1.353 . S
C184 H242 0.930 . S
C185 N181 1.279 1_556 S
C185 C183 1.358 . S
C185 H243 0.930 . S
C186 C189 1.348 . S
C186 C190 1.356 . S
C186 O237 1.325 . S
C187 N188 1.279 . S
C187 C190 1.358 . S
C187 H244 0.930 . S
N188 C187 1.279 . S
N188 C191 1.314 . S
C189 C186 1.348 . S
C189 C191 1.353 . S
C189 H245 0.929 . S
C190 C186 1.356 . S
C190 C187 1.358 . S
C190 H246 0.930 . S
C191 N188 1.314 . S
C191 C189 1.353 . S
C191 H247 0.930 . S
C192 N193 1.314 . S
C192 C197 1.353 . S
C192 H198 0.930 . S
N193 Li176 1.990 . S
N193 C192 1.314 . S
N193 C195 1.279 . S
C194 C195 1.358 . S
C194 C196 1.356 . S
C194 H248 0.930 . S
C195 N193 1.279 . S
C195 C194 1.358 . S
C195 H199 0.930 . S
C196 C194 1.356 . S
C196 C197 1.348 . S
C197 C192 1.353 . S
C197 C196 1.348 . S
C197 H249 0.929 . S
H198 C192 0.930 . S
H199 C195 0.930 . S
C200 N201 1.314 1_556 S
C200 C202 1.353 . S
C200 H206 0.930 . S
N201 Li177 1.991 . S
N201 C200 1.314 1_554 S
N201 C204 1.279 . S
C202 C200 1.353 . S
C202 C205 1.345 1_556 S
C202 H250 0.929 . S
C203 C204 1.358 . S
C203 C205 1.359 . S
C203 H251 0.930 . S
C204 N201 1.279 . S
C204 C203 1.358 . S
C204 H207 0.930 . S
C205 C202 1.345 1_554 S
C205 C203 1.359 . S
H206 C200 0.930 . S
H207 C204 0.930 . S
C208 C210 1.347 1_554 S
C208 C211 1.357 . S
C208 O238 1.324 . S
N209 C212 1.314 . S
N209 C213 1.279 1_556 S
C210 C208 1.347 1_556 S
C210 C212 1.353 . S
C210 H252 0.929 . S
C211 C208 1.357 . S
C211 C213 1.358 . S
C211 H253 0.930 . S
C212 N209 1.314 . S
C212 C210 1.353 . S
C212 H254 0.930 . S
C213 N209 1.279 1_554 S
C213 C211 1.358 . S
C213 H255 0.930 . S
C214 C215 1.348 . S
C214 C216 1.356 . S
C214 O239 1.325 . S
C215 C214 1.348 . S
C215 C217 1.353 . S
C215 H256 0.929 . S
C216 C214 1.356 . S
C216 C218 1.358 . S
C216 H257 0.930 . S
C217 C215 1.353 . S
C217 N219 1.314 . S
C217 H258 0.930 . S
C218 C216 1.358 . S
C218 N219 1.279 . S
C218 H259 0.930 . S
N219 C217 1.314 . S
N219 C218 1.279 . S
C220 C222 1.353 . S
C220 N223 1.314 . S
C220 H226 0.930 . S
C221 N223 1.279 . S
C221 C224 1.358 . S
C221 H227 0.930 . S
C222 C220 1.353 . S
C222 C225 1.348 . S
C222 H260 0.929 . S
N223 Li178 1.990 . S
N223 C220 1.314 . S
N223 C221 1.279 . S
C224 C221 1.358 . S
C224 C225 1.356 . S
C224 H261 0.930 . S
C225 C222 1.348 . S
C225 C224 1.356 . S
H226 C220 0.930 . S
H227 C221 0.930 . S
C228 N229 1.314 1_554 S
C228 C230 1.353 . S
C228 H234 0.930 . S
N229 Li179 1.991 . S
N229 C228 1.314 1_556 S
N229 C232 1.279 . S
C230 C228 1.353 . S
C230 C233 1.345 . S
C230 H262 0.929 . S
C231 C232 1.358 . S
C231 C233 1.359 1_556 S
C231 H263 0.930 . S
C232 N229 1.279 . S
C232 C231 1.358 . S
C232 H235 0.930 . S
C233 C230 1.345 . S
C233 C231 1.359 1_554 S
H234 C228 0.930 . S
H235 C232 0.930 . S
O236 Li176 1.936 1_556 S
O236 Li177 1.969 1_556 S
O236 Li178 1.980 . S
O236 C180 1.324 1_556 S
O237 Li176 1.970 . S
O237 Li177 1.983 . S
O237 Li179 1.939 1_554 S
O237 C186 1.325 . S
O238 Li176 1.986 . S
O238 Li178 1.930 1_554 S
O238 Li179 1.969 1_554 S
O238 C208 1.324 . S
O239 Li177 1.933 1_556 S
O239 Li178 1.970 . S
O239 Li179 1.977 . S
O239 C214 1.325 . S
H240 C182 0.929 . S
H241 C183 0.930 . S
H242 C184 0.930 . S
H243 C185 0.930 . S
H244 C187 0.930 . S
H245 C189 0.929 . S
H246 C190 0.930 . S
H247 C191 0.930 . S
H248 C194 0.930 . S
H249 C197 0.929 . S
H250 C202 0.929 . S
H251 C203 0.930 . S
H252 C210 0.929 . S
H253 C211 0.930 . S
H254 C212 0.930 . S
H255 C213 0.930 . S
H256 C215 0.929 . S
H257 C216 0.930 . S
H258 C217 0.930 . S
H259 C218 0.930 . S
H260 C222 0.929 . S
H261 C224 0.930 . S
H262 C230 0.929 . S
H263 C231 0.930 . S
Li264 N281 1.990 . S
Li264 O324 1.936 1_554 S
Li264 O325 1.970 . S
Li264 O326 1.986 . S
Li265 N289 1.991 . S
Li265 O324 1.969 1_554 S
Li265 O325 1.983 . S
Li265 O327 1.933 1_554 S
Li266 N311 1.990 . S
Li266 O324 1.980 . S
Li266 O326 1.930 1_556 S
Li266 O327 1.970 . S
Li267 N317 1.991 . S
Li267 O325 1.939 1_556 S
Li267 O326 1.969 1_556 S
Li267 O327 1.977 . S
C268 C270 1.346 . S
C268 C271 1.357 1_554 S
C268 O324 1.324 1_554 S
N269 C272 1.314 . S
N269 C273 1.279 1_554 S
C270 C268 1.346 . S
C270 C272 1.353 . S
C270 H328 0.929 . S
C271 C268 1.357 1_556 S
C271 C273 1.358 . S
C271 H329 0.930 . S
C272 N269 1.314 . S
C272 C270 1.353 . S
C272 H330 0.930 . S
C273 N269 1.279 1_556 S
C273 C271 1.358 . S
C273 H331 0.930 . S
C274 C277 1.348 . S
C274 C278 1.356 . S
C274 O325 1.325 . S
C275 N276 1.279 . S
C275 C278 1.358 . S
C275 H332 0.930 . S
N276 C275 1.279 . S
N276 C279 1.314 . S
C277 C274 1.348 . S
C277 C279 1.353 . S
C277 H333 0.929 . S
C278 C274 1.356 . S
C278 C275 1.358 . S
C278 H334 0.930 . S
C279 N276 1.314 . S
C279 C277 1.353 . S
C279 H335 0.930 . S
C280 N281 1.314 . S
C280 C285 1.353 . S
C280 H286 0.930 . S
N281 Li264 1.990 . S
N281 C280 1.314 . S
N281 C283 1.279 . S
C282 C283 1.358 . S
C282 C284 1.356 . S
C282 H336 0.930 . S
C283 N281 1.279 . S
C283 C282 1.358 . S
C283 H287 0.930 . S
C284 C282 1.356 . S
C284 C285 1.348 . S
C285 C280 1.353 . S
C285 C284 1.348 . S
C285 H337 0.929 . S
H286 C280 0.930 . S
H287 C283 0.930 . S
C288 N289 1.314 1_556 S
C288 C290 1.353 . S
C288 H294 0.930 . S
N289 Li265 1.991 . S
N289 C288 1.314 1_554 S
N289 C292 1.279 . S
C290 C288 1.353 . S
C290 C293 1.345 1_556 S
C290 H338 0.929 . S
C291 C292 1.358 . S
C291 C293 1.359 . S
C291 H339 0.930 . S
C292 N289 1.279 . S
C292 C291 1.358 . S
C292 H295 0.930 . S
C293 C290 1.345 1_554 S
C293 C291 1.359 . S
H294 C288 0.930 . S
H295 C292 0.930 . S
C296 C298 1.347 1_554 S
C296 C299 1.357 . S
C296 O326 1.324 . S
N297 C300 1.314 . S
N297 C301 1.279 1_556 S
C298 C296 1.347 1_556 S
C298 C300 1.353 . S
C298 H340 0.929 . S
C299 C296 1.357 . S
C299 C301 1.358 . S
C299 H341 0.930 . S
C300 N297 1.314 . S
C300 C298 1.353 . S
C300 H342 0.930 . S
C301 N297 1.279 1_554 S
C301 C299 1.358 . S
C301 H343 0.930 . S
C302 C303 1.348 . S
C302 C304 1.356 . S
C302 O327 1.325 . S
C303 C302 1.348 . S
C303 C305 1.353 . S
C303 H344 0.929 . S
C304 C302 1.356 . S
C304 C306 1.358 . S
C304 H345 0.930 . S
C305 C303 1.353 . S
C305 N307 1.314 . S
C305 H346 0.930 . S
C306 C304 1.358 . S
C306 N307 1.279 . S
C306 H347 0.930 . S
N307 C305 1.314 . S
N307 C306 1.279 . S
C308 C310 1.353 . S
C308 N311 1.314 . S
C308 H314 0.930 . S
C309 N311 1.279 . S
C309 C312 1.358 . S
C309 H315 0.930 . S
C310 C308 1.353 . S
C310 C313 1.348 . S
C310 H348 0.929 . S
N311 Li266 1.990 . S
N311 C308 1.314 . S
N311 C309 1.279 . S
C312 C309 1.358 . S
C312 C313 1.356 . S
C312 H349 0.930 . S
C313 C310 1.348 . S
C313 C312 1.356 . S
H314 C308 0.930 . S
H315 C309 0.930 . S
C316 N317 1.314 1_554 S
C316 C318 1.353 . S
C316 H322 0.930 . S
N317 Li267 1.991 . S
N317 C316 1.314 1_556 S
N317 C320 1.279 . S
C318 C316 1.353 . S
C318 C321 1.345 . S
C318 H350 0.929 . S
C319 C320 1.358 . S
C319 C321 1.359 1_556 S
C319 H351 0.930 . S
C320 N317 1.279 . S
C320 C319 1.358 . S
C320 H323 0.930 . S
C321 C318 1.345 . S
C321 C319 1.359 1_554 S
H322 C316 0.930 . S
H323 C320 0.930 . S
O324 Li264 1.936 1_556 S
O324 Li265 1.969 1_556 S
O324 Li266 1.980 . S
O324 C268 1.324 1_556 S
O325 Li264 1.970 . S
O325 Li265 1.983 . S
O325 Li267 1.939 1_554 S
O325 C274 1.325 . S
O326 Li264 1.986 . S
O326 Li266 1.930 1_554 S
O326 Li267 1.969 1_554 S
O326 C296 1.324 . S
O327 Li265 1.933 1_556 S
O327 Li266 1.970 . S
O327 Li267 1.977 . S
O327 C302 1.325 . S
H328 C270 0.929 . S
H329 C271 0.930 . S
H330 C272 0.930 . S
H331 C273 0.930 . S
H332 C275 0.930 . S
H333 C277 0.929 . S
H334 C278 0.930 . S
H335 C279 0.930 . S
H336 C282 0.930 . S
H337 C285 0.929 . S
H338 C290 0.929 . S
H339 C291 0.930 . S
H340 C298 0.929 . S
H341 C299 0.930 . S
H342 C300 0.930 . S
H343 C301 0.930 . S
H344 C303 0.929 . S
H345 C304 0.930 . S
H346 C305 0.930 . S
H347 C306 0.930 . S
H348 C310 0.929 . S
H349 C312 0.930 . S
H350 C318 0.929 . S
H351 C319 0.930 . S
Li352 N369 1.990 . S
Li352 O412 1.936 1_554 S
Li352 O413 1.970 . S
Li352 O414 1.986 . S
Li353 N377 1.991 . S
Li353 O412 1.969 1_554 S
Li353 O413 1.983 . S
Li353 O415 1.933 1_554 S
Li354 N399 1.990 . S
Li354 O412 1.980 . S
Li354 O414 1.930 1_556 S
Li354 O415 1.970 . S
Li355 N405 1.991 . S
Li355 O413 1.939 1_556 S
Li355 O414 1.969 1_556 S
Li355 O415 1.977 . S
C356 C358 1.347 . S
C356 C359 1.357 1_554 S
C356 O412 1.324 1_554 S
N357 C360 1.314 . S
N357 C361 1.279 1_554 S
C358 C356 1.347 . S
C358 C360 1.353 . S
C358 H416 0.929 . S
C359 C356 1.357 1_556 S
C359 C361 1.358 . S
C359 H417 0.930 . S
C360 N357 1.314 . S
C360 C358 1.353 . S
C360 H418 0.930 . S
C361 N357 1.279 1_556 S
C361 C359 1.358 . S
C361 H419 0.930 . S
C362 C365 1.348 . S
C362 C366 1.356 . S
C362 O413 1.325 . S
C363 N364 1.279 . S
C363 C366 1.358 . S
C363 H420 0.930 . S
N364 C363 1.279 . S
N364 C367 1.314 . S
C365 C362 1.348 . S
C365 C367 1.353 . S
C365 H421 0.929 . S
C366 C362 1.356 . S
C366 C363 1.358 . S
C366 H422 0.930 . S
C367 N364 1.314 . S
C367 C365 1.353 . S
C367 H423 0.930 . S
C368 N369 1.314 . S
C368 C373 1.353 . S
C368 H374 0.930 . S
N369 Li352 1.990 . S
N369 C368 1.314 . S
N369 C371 1.279 . S
C370 C371 1.358 . S
C370 C372 1.356 . S
C370 H424 0.930 . S
C371 N369 1.279 . S
C371 C370 1.358 . S
C371 H375 0.930 . S
C372 C370 1.356 . S
C372 C373 1.348 . S
C373 C368 1.353 . S
C373 C372 1.348 . S
C373 H425 0.929 . S
H374 C368 0.930 . S
H375 C371 0.930 . S
C376 N377 1.314 1_556 S
C376 C378 1.353 . S
C376 H382 0.930 . S
N377 Li353 1.991 . S
N377 C376 1.314 1_554 S
N377 C380 1.279 . S
C378 C376 1.353 . S
C378 C381 1.345 1_556 S
C378 H426 0.929 . S
C379 C380 1.358 . S
C379 C381 1.359 . S
C379 H427 0.930 . S
C380 N377 1.279 . S
C380 C379 1.358 . S
C380 H383 0.930 . S
C381 C378 1.345 1_554 S
C381 C379 1.359 . S
H382 C376 0.930 . S
H383 C380 0.930 . S
C384 C386 1.346 1_554 S
C384 C387 1.357 . S
C384 O414 1.324 . S
N385 C388 1.314 . S
N385 C389 1.279 1_556 S
C386 C384 1.346 1_556 S
C386 C388 1.353 . S
C386 H428 0.929 . S
C387 C384 1.357 . S
C387 C389 1.358 . S
C387 H429 0.930 . S
C388 N385 1.314 . S
C388 C386 1.353 . S
C388 H430 0.930 . S
C389 N385 1.279 1_554 S
C389 C387 1.358 . S
C389 H431 0.930 . S
C390 C391 1.348 . S
C390 C392 1.356 . S
C390 O415 1.325 . S
C391 C390 1.348 . S
C391 C393 1.353 . S
C391 H432 0.929 . S
C392 C390 1.356 . S
C392 C394 1.358 . S
C392 H433 0.930 . S
C393 C391 1.353 . S
C393 N395 1.314 . S
C393 H434 0.930 . S
C394 C392 1.358 . S
C394 N395 1.279 . S
C394 H435 0.930 . S
N395 C393 1.314 . S
N395 C394 1.279 . S
C396 C398 1.353 . S
C396 N399 1.314 . S
C396 H402 0.930 . S
C397 N399 1.279 . S
C397 C400 1.358 . S
C397 H403 0.930 . S
C398 C396 1.353 . S
C398 C401 1.348 . S
C398 H436 0.929 . S
N399 Li354 1.990 . S
N399 C396 1.314 . S
N399 C397 1.279 . S
C400 C397 1.358 . S
C400 C401 1.356 . S
C400 H437 0.930 . S
C401 C398 1.348 . S
C401 C400 1.356 . S
H402 C396 0.930 . S
H403 C397 0.930 . S
C404 N405 1.314 1_554 S
C404 C406 1.353 . S
C404 H410 0.930 . S
N405 Li355 1.991 . S
N405 C404 1.314 1_556 S
N405 C408 1.279 . S
C406 C404 1.353 . S
C406 C409 1.345 . S
C406 H438 0.929 . S
C407 C408 1.358 . S
C407 C409 1.359 1_556 S
C407 H439 0.930 . S
C408 N405 1.279 . S
C408 C407 1.358 . S
C408 H411 0.930 . S
C409 C406 1.345 . S
C409 C407 1.359 1_554 S
H410 C404 0.930 . S
H411 C408 0.930 . S
O412 Li352 1.936 1_556 S
O412 Li353 1.969 1_556 S
O412 Li354 1.980 . S
O412 C356 1.324 1_556 S
O413 Li352 1.970 . S
O413 Li353 1.983 . S
O413 Li355 1.939 1_554 S
O413 C362 1.325 . S
O414 Li352 1.986 . S
O414 Li354 1.930 1_554 S
O414 Li355 1.969 1_554 S
O414 C384 1.324 . S
O415 Li353 1.933 1_556 S
O415 Li354 1.970 . S
O415 Li355 1.977 . S
O415 C390 1.325 . S
H416 C358 0.929 . S
H417 C359 0.930 . S
H418 C360 0.930 . S
H419 C361 0.930 . S
H420 C363 0.930 . S
H421 C365 0.929 . S
H422 C366 0.930 . S
H423 C367 0.930 . S
H424 C370 0.930 . S
H425 C373 0.929 . S
H426 C378 0.929 . S
H427 C379 0.930 . S
H428 C386 0.929 . S
H429 C387 0.930 . S
H430 C388 0.930 . S
H431 C389 0.930 . S
H432 C391 0.929 . S
H433 C392 0.930 . S
H434 C393 0.930 . S
H435 C394 0.930 . S
H436 C398 0.929 . S
H437 C400 0.930 . S
H438 C406 0.929 . S
H439 C407 0.930 . S
Li440 N457 1.991 . S
Li440 O500 1.983 . S
Li440 O501 1.969 1_554 S
Li440 O502 1.933 1_554 S
Li441 N465 1.990 . S
Li441 O500 1.970 . S
Li441 O501 1.936 1_554 S
Li441 O503 1.986 . S
Li442 N487 1.991 . S
Li442 O500 1.939 1_556 S
Li442 O502 1.977 . S
Li442 O503 1.969 1_556 S
Li443 N493 1.990 . S
Li443 O501 1.980 . S
Li443 O502 1.970 . S
Li443 O503 1.930 1_556 S
C444 C446 1.348 . S
C444 C447 1.356 . S
C444 O500 1.325 . S
N445 C448 1.314 . S
N445 C449 1.279 . S
C446 C444 1.348 . S
C446 C448 1.353 . S
C446 H504 0.929 . S
C447 C444 1.356 . S
C447 C449 1.358 . S
C447 H505 0.930 . S
C448 N445 1.314 . S
C448 C446 1.353 . S
C448 H506 0.930 . S
C449 N445 1.279 . S
C449 C447 1.358 . S
C449 H507 0.930 . S
C450 C453 1.347 . S
C450 C454 1.357 1_554 S
C450 O501 1.324 1_554 S
C451 N452 1.279 1_556 S
C451 C454 1.358 . S
C451 H508 0.930 . S
N452 C451 1.279 1_554 S
N452 C455 1.314 . S
C453 C450 1.347 . S
C453 C455 1.353 . S
C453 H509 0.929 . S
C454 C450 1.357 1_556 S
C454 C451 1.358 . S
C454 H510 0.930 . S
C455 N452 1.314 . S
C455 C453 1.353 . S
C455 H511 0.930 . S
C456 N457 1.314 1_556 S
C456 C461 1.353 . S
C456 H462 0.930 . S
N457 Li440 1.991 . S
N457 C456 1.314 1_554 S
N457 C459 1.279 . S
C458 C459 1.358 . S
C458 C460 1.359 . S
C458 H512 0.930 . S
C459 N457 1.279 . S
C459 C458 1.358 . S
C459 H463 0.930 . S
C460 C458 1.359 . S
C460 C461 1.345 1_554 S
C461 C456 1.353 . S
C461 C460 1.345 1_556 S
C461 H513 0.929 . S
H462 C456 0.930 . S
H463 C459 0.930 . S
C464 N465 1.314 . S
C464 C466 1.353 . S
C464 H470 0.930 . S
N465 Li441 1.990 . S
N465 C464 1.314 . S
N465 C468 1.279 . S
C466 C464 1.353 . S
C466 C469 1.348 . S
C466 H514 0.929 . S
C467 C468 1.358 . S
C467 C469 1.356 . S
C467 H515 0.930 . S
C468 N465 1.279 . S
C468 C467 1.358 . S
C468 H471 0.930 . S
C469 C466 1.348 . S
C469 C467 1.356 . S
H470 C464 0.930 . S
H471 C468 0.930 . S
C472 C474 1.348 . S
C472 C475 1.356 . S
C472 O502 1.325 . S
N473 C476 1.314 . S
N473 C477 1.279 . S
C474 C472 1.348 . S
C474 C476 1.353 . S
C474 H516 0.929 . S
C475 C472 1.356 . S
C475 C477 1.358 . S
C475 H517 0.930 . S
C476 N473 1.314 . S
C476 C474 1.353 . S
C476 H518 0.930 . S
C477 N473 1.279 . S
C477 C475 1.358 . S
C477 H519 0.930 . S
C478 C479 1.346 1_554 S
C478 C480 1.357 . S
C478 O503 1.324 . S
C479 C478 1.346 1_556 S
C479 C481 1.353 . S
C479 H520 0.929 . S
C480 C478 1.357 . S
C480 C482 1.358 . S
C480 H521 0.930 . S
C481 C479 1.353 . S
C481 N483 1.314 . S
C481 H522 0.930 . S
C482 C480 1.358 . S
C482 N483 1.279 1_554 S
C482 H523 0.930 . S
N483 C481 1.314 . S
N483 C482 1.279 1_556 S
C484 C486 1.353 . S
C484 N487 1.314 1_554 S
C484 H490 0.930 . S
C485 N487 1.279 . S
C485 C488 1.358 . S
C485 H491 0.930 . S
C486 C484 1.353 . S
C486 C489 1.345 . S
C486 H524 0.929 . S
N487 Li442 1.991 . S
N487 C484 1.314 1_556 S
N487 C485 1.279 . S
C488 C485 1.358 . S
C488 C489 1.359 1_556 S
C488 H525 0.930 . S
C489 C486 1.345 . S
C489 C488 1.359 1_554 S
H490 C484 0.930 . S
H491 C485 0.930 . S
C492 N493 1.314 . S
C492 C494 1.353 . S
C492 H498 0.930 . S
N493 Li443 1.990 . S
N493 C492 1.314 . S
N493 C496 1.279 . S
C494 C492 1.353 . S
C494 C497 1.348 . S
C494 H526 0.929 . S
C495 C496 1.358 . S
C495 C497 1.356 . S
C495 H527 0.930 . S
C496 N493 1.279 . S
C496 C495 1.358 . S
C496 H499 0.930 . S
C497 C494 1.348 . S
C497 C495 1.356 . S
H498 C492 0.930 . S
H499 C496 0.930 . S
O500 Li440 1.983 . S
O500 Li441 1.970 . S
O500 Li442 1.939 1_554 S
O500 C444 1.325 . S
O501 Li440 1.969 1_556 S
O501 Li441 1.936 1_556 S
O501 Li443 1.980 . S
O501 C450 1.324 1_556 S
O502 Li440 1.933 1_556 S
O502 Li442 1.977 . S
O502 Li443 1.970 . S
O502 C472 1.325 . S
O503 Li441 1.986 . S
O503 Li442 1.969 1_554 S
O503 Li443 1.930 1_554 S
O503 C478 1.324 . S
H504 C446 0.929 . S
H505 C447 0.930 . S
H506 C448 0.930 . S
H507 C449 0.930 . S
H508 C451 0.930 . S
H509 C453 0.929 . S
H510 C454 0.930 . S
H511 C455 0.930 . S
H512 C458 0.930 . S
H513 C461 0.929 . S
H514 C466 0.929 . S
H515 C467 0.930 . S
H516 C474 0.929 . S
H517 C475 0.930 . S
H518 C476 0.930 . S
H519 C477 0.930 . S
H520 C479 0.929 . S
H521 C480 0.930 . S
H522 C481 0.930 . S
H523 C482 0.930 . S
H524 C486 0.929 . S
H525 C488 0.930 . S
H526 C494 0.929 . S
H527 C495 0.930 . S
Li528 N545 1.990 . S
Li528 O588 1.936 1_554 S
Li528 O589 1.970 . S
Li528 O590 1.986 . S
Li529 N553 1.991 . S
Li529 O588 1.969 1_554 S
Li529 O589 1.983 . S
Li529 O591 1.933 1_554 S
Li530 N575 1.990 . S
Li530 O588 1.980 . S
Li530 O590 1.930 1_556 S
Li530 O591 1.970 . S
Li531 N581 1.991 . S
Li531 O589 1.939 1_556 S
Li531 O590 1.969 1_556 S
Li531 O591 1.977 . S
C532 C534 1.347 . S
C532 C535 1.357 1_554 S
C532 O588 1.324 1_554 S
N533 C536 1.314 . S
N533 C537 1.279 1_554 S
C534 C532 1.347 . S
C534 C536 1.353 . S
C534 H592 0.929 . S
C535 C532 1.357 1_556 S
C535 C537 1.358 . S
C535 H593 0.930 . S
C536 N533 1.314 . S
C536 C534 1.353 . S
C536 H594 0.930 . S
C537 N533 1.279 1_556 S
C537 C535 1.358 . S
C537 H595 0.930 . S
C538 C541 1.348 . S
C538 C542 1.356 . S
C538 O589 1.325 . S
C539 N540 1.279 . S
C539 C542 1.358 . S
C539 H596 0.930 . S
N540 C539 1.279 . S
N540 C543 1.314 . S
C541 C538 1.348 . S
C541 C543 1.353 . S
C541 H597 0.929 . S
C542 C538 1.356 . S
C542 C539 1.358 . S
C542 H598 0.930 . S
C543 N540 1.314 . S
C543 C541 1.353 . S
C543 H599 0.930 . S
C544 N545 1.314 . S
C544 C549 1.353 . S
C544 H550 0.930 . S
N545 Li528 1.990 . S
N545 C544 1.314 . S
N545 C547 1.279 . S
C546 C547 1.358 . S
C546 C548 1.356 . S
C546 H600 0.930 . S
C547 N545 1.279 . S
C547 C546 1.358 . S
C547 H551 0.930 . S
C548 C546 1.356 . S
C548 C549 1.348 . S
C549 C544 1.353 . S
C549 C548 1.348 . S
C549 H601 0.929 . S
H550 C544 0.930 . S
H551 C547 0.930 . S
C552 N553 1.314 1_556 S
C552 C554 1.353 . S
C552 H558 0.930 . S
N553 Li529 1.991 . S
N553 C552 1.314 1_554 S
N553 C556 1.279 . S
C554 C552 1.353 . S
C554 C557 1.345 1_556 S
C554 H602 0.929 . S
C555 C556 1.358 . S
C555 C557 1.359 . S
C555 H603 0.930 . S
C556 N553 1.279 . S
C556 C555 1.358 . S
C556 H559 0.930 . S
C557 C554 1.345 1_554 S
C557 C555 1.359 . S
H558 C552 0.930 . S
H559 C556 0.930 . S
C560 C562 1.346 1_554 S
C560 C563 1.357 . S
C560 O590 1.324 . S
N561 C564 1.314 . S
N561 C565 1.279 1_556 S
C562 C560 1.346 1_556 S
C562 C564 1.353 . S
C562 H604 0.929 . S
C563 C560 1.357 . S
C563 C565 1.358 . S
C563 H605 0.930 . S
C564 N561 1.314 . S
C564 C562 1.353 . S
C564 H606 0.930 . S
C565 N561 1.279 1_554 S
C565 C563 1.358 . S
C565 H607 0.930 . S
C566 C567 1.348 . S
C566 C568 1.356 . S
C566 O591 1.325 . S
C567 C566 1.348 . S
C567 C569 1.353 . S
C567 H608 0.929 . S
C568 C566 1.356 . S
C568 C570 1.358 . S
C568 H609 0.930 . S
C569 C567 1.353 . S
C569 N571 1.314 . S
C569 H610 0.930 . S
C570 C568 1.358 . S
C570 N571 1.279 . S
C570 H611 0.930 . S
N571 C569 1.314 . S
N571 C570 1.279 . S
C572 C574 1.353 . S
C572 N575 1.314 . S
C572 H578 0.930 . S
C573 N575 1.279 . S
C573 C576 1.358 . S
C573 H579 0.930 . S
C574 C572 1.353 . S
C574 C577 1.348 . S
C574 H612 0.929 . S
N575 Li530 1.990 . S
N575 C572 1.314 . S
N575 C573 1.279 . S
C576 C573 1.358 . S
C576 C577 1.356 . S
C576 H613 0.930 . S
C577 C574 1.348 . S
C577 C576 1.356 . S
H578 C572 0.930 . S
H579 C573 0.930 . S
C580 N581 1.314 1_554 S
C580 C582 1.353 . S
C580 H586 0.930 . S
N581 Li531 1.991 . S
N581 C580 1.314 1_556 S
N581 C584 1.279 . S
C582 C580 1.353 . S
C582 C585 1.345 . S
C582 H614 0.929 . S
C583 C584 1.358 . S
C583 C585 1.359 1_556 S
C583 H615 0.930 . S
C584 N581 1.279 . S
C584 C583 1.358 . S
C584 H587 0.930 . S
C585 C582 1.345 . S
C585 C583 1.359 1_554 S
H586 C580 0.930 . S
H587 C584 0.930 . S
O588 Li528 1.936 1_556 S
O588 Li529 1.969 1_556 S
O588 Li530 1.980 . S
O588 C532 1.324 1_556 S
O589 Li528 1.970 . S
O589 Li529 1.983 . S
O589 Li531 1.939 1_554 S
O589 C538 1.325 . S
O590 Li528 1.986 . S
O590 Li530 1.930 1_554 S
O590 Li531 1.969 1_554 S
O590 C560 1.324 . S
O591 Li529 1.933 1_556 S
O591 Li530 1.970 . S
O591 Li531 1.977 . S
O591 C566 1.325 . S
H592 C534 0.929 . S
H593 C535 0.930 . S
H594 C536 0.930 . S
H595 C537 0.930 . S
H596 C539 0.930 . S
H597 C541 0.929 . S
H598 C542 0.930 . S
H599 C543 0.930 . S
H600 C546 0.930 . S
H601 C549 0.929 . S
H602 C554 0.929 . S
H603 C555 0.930 . S
H604 C562 0.929 . S
H605 C563 0.930 . S
H606 C564 0.930 . S
H607 C565 0.930 . S
H608 C567 0.929 . S
H609 C568 0.930 . S
H610 C569 0.930 . S
H611 C570 0.930 . S
H612 C574 0.929 . S
H613 C576 0.930 . S
H614 C582 0.929 . S
H615 C583 0.930 . S
Li616 N633 1.990 . S
Li616 O676 1.936 1_554 S
Li616 O677 1.970 . S
Li616 O678 1.986 . S
Li617 N641 1.991 . S
Li617 O676 1.969 1_554 S
Li617 O677 1.983 . S
Li617 O679 1.933 1_554 S
Li618 N663 1.990 . S
Li618 O676 1.980 . S
Li618 O678 1.930 1_556 S
Li618 O679 1.970 . S
Li619 N669 1.991 . S
Li619 O677 1.939 1_556 S
Li619 O678 1.969 1_556 S
Li619 O679 1.977 . S
C620 C622 1.347 . S
C620 C623 1.357 1_554 S
C620 O676 1.324 1_554 S
N621 C624 1.314 . S
N621 C625 1.279 1_554 S
C622 C620 1.347 . S
C622 C624 1.353 . S
C622 H680 0.929 . S
C623 C620 1.357 1_556 S
C623 C625 1.358 . S
C623 H681 0.930 . S
C624 N621 1.314 . S
C624 C622 1.353 . S
C624 H682 0.930 . S
C625 N621 1.279 1_556 S
C625 C623 1.358 . S
C625 H683 0.930 . S
C626 C629 1.348 . S
C626 C630 1.356 . S
C626 O677 1.325 . S
C627 N628 1.279 . S
C627 C630 1.358 . S
C627 H684 0.930 . S
N628 C627 1.279 . S
N628 C631 1.314 . S
C629 C626 1.348 . S
C629 C631 1.353 . S
C629 H685 0.929 . S
C630 C626 1.356 . S
C630 C627 1.358 . S
C630 H686 0.930 . S
C631 N628 1.314 . S
C631 C629 1.353 . S
C631 H687 0.930 . S
C632 N633 1.314 . S
C632 C637 1.353 . S
C632 H638 0.930 . S
N633 Li616 1.990 . S
N633 C632 1.314 . S
N633 C635 1.279 . S
C634 C635 1.358 . S
C634 C636 1.356 . S
C634 H688 0.930 . S
C635 N633 1.279 . S
C635 C634 1.358 . S
C635 H639 0.930 . S
C636 C634 1.356 . S
C636 C637 1.348 . S
C637 C632 1.353 . S
C637 C636 1.348 . S
C637 H689 0.929 . S
H638 C632 0.930 . S
H639 C635 0.930 . S
C640 N641 1.314 1_556 S
C640 C642 1.353 . S
C640 H646 0.930 . S
N641 Li617 1.991 . S
N641 C640 1.314 1_554 S
N641 C644 1.279 . S
C642 C640 1.353 . S
C642 C645 1.345 1_556 S
C642 H690 0.929 . S
C643 C644 1.358 . S
C643 C645 1.359 . S
C643 H691 0.930 . S
C644 N641 1.279 . S
C644 C643 1.358 . S
C644 H647 0.930 . S
C645 C642 1.345 1_554 S
C645 C643 1.359 . S
H646 C640 0.930 . S
H647 C644 0.930 . S
C648 C650 1.346 1_554 S
C648 C651 1.357 . S
C648 O678 1.324 . S
N649 C652 1.314 . S
N649 C653 1.279 1_556 S
C650 C648 1.346 1_556 S
C650 C652 1.353 . S
C650 H692 0.929 . S
C651 C648 1.357 . S
C651 C653 1.358 . S
C651 H693 0.930 . S
C652 N649 1.314 . S
C652 C650 1.353 . S
C652 H694 0.930 . S
C653 N649 1.279 1_554 S
C653 C651 1.358 . S
C653 H695 0.930 . S
C654 C655 1.348 . S
C654 C656 1.356 . S
C654 O679 1.325 . S
C655 C654 1.348 . S
C655 C657 1.353 . S
C655 H696 0.929 . S
C656 C654 1.356 . S
C656 C658 1.358 . S
C656 H697 0.930 . S
C657 C655 1.353 . S
C657 N659 1.314 . S
C657 H698 0.930 . S
C658 C656 1.358 . S
C658 N659 1.279 . S
C658 H699 0.930 . S
N659 C657 1.314 . S
N659 C658 1.279 . S
C660 C662 1.353 . S
C660 N663 1.314 . S
C660 H666 0.930 . S
C661 N663 1.279 . S
C661 C664 1.358 . S
C661 H667 0.930 . S
C662 C660 1.353 . S
C662 C665 1.348 . S
C662 H700 0.929 . S
N663 Li618 1.990 . S
N663 C660 1.314 . S
N663 C661 1.279 . S
C664 C661 1.358 . S
C664 C665 1.356 . S
C664 H701 0.930 . S
C665 C662 1.348 . S
C665 C664 1.356 . S
H666 C660 0.930 . S
H667 C661 0.930 . S
C668 N669 1.314 1_554 S
C668 C670 1.353 . S
C668 H674 0.930 . S
N669 Li619 1.991 . S
N669 C668 1.314 1_556 S
N669 C672 1.279 . S
C670 C668 1.353 . S
C670 C673 1.345 . S
C670 H702 0.929 . S
C671 C672 1.358 . S
C671 C673 1.359 1_556 S
C671 H703 0.930 . S
C672 N669 1.279 . S
C672 C671 1.358 . S
C672 H675 0.930 . S
C673 C670 1.345 . S
C673 C671 1.359 1_554 S
H674 C668 0.930 . S
H675 C672 0.930 . S
O676 Li616 1.936 1_556 S
O676 Li617 1.969 1_556 S
O676 Li618 1.980 . S
O676 C620 1.324 1_556 S
O677 Li616 1.970 . S
O677 Li617 1.983 . S
O677 Li619 1.939 1_554 S
O677 C626 1.325 . S
O678 Li616 1.986 . S
O678 Li618 1.930 1_554 S
O678 Li619 1.969 1_554 S
O678 C648 1.324 . S
O679 Li617 1.933 1_556 S
O679 Li618 1.970 . S
O679 Li619 1.977 . S
O679 C654 1.325 . S
H680 C622 0.929 . S
H681 C623 0.930 . S
H682 C624 0.930 . S
H683 C625 0.930 . S
H684 C627 0.930 . S
H685 C629 0.929 . S
H686 C630 0.930 . S
H687 C631 0.930 . S
H688 C634 0.930 . S
H689 C637 0.929 . S
H690 C642 0.929 . S
H691 C643 0.930 . S
H692 C650 0.929 . S
H693 C651 0.930 . S
H694 C652 0.930 . S
H695 C653 0.930 . S
H696 C655 0.929 . S
H697 C656 0.930 . S
H698 C657 0.930 . S
H699 C658 0.930 . S
H700 C662 0.929 . S
H701 C664 0.930 . S
H702 C670 0.929 . S
H703 C671 0.930 . S
Li704 N721 1.990 . S
Li704 O764 1.956 . S
Li704 O765 1.970 . S
Li704 O766 1.961 . S
Li705 N729 1.990 . S
Li705 O764 1.970 . S
Li705 O765 1.956 . S
Li705 O767 1.961 . S
Li706 N751 1.990 . S
Li706 O764 1.961 . S
Li706 O766 1.956 . S
Li706 O767 1.970 . S
Li707 N757 1.990 . S
Li707 O765 1.961 . S
Li707 O766 1.970 . S
Li707 O767 1.956 . S
C708 C710 1.348 . S
C708 C711 1.356 . S
C708 O764 1.325 . S
N709 C712 1.314 . S
N709 C713 1.279 . S
C710 C708 1.348 . S
C710 C712 1.353 . S
C710 H768 0.929 . S
C711 C708 1.356 . S
C711 C713 1.358 . S
C711 H769 0.930 . S
C712 N709 1.314 . S
C712 C710 1.353 . S
C712 H770 0.930 . S
C713 N709 1.279 . S
C713 C711 1.358 . S
C713 H771 0.930 . S
C714 C717 1.348 . S
C714 C718 1.356 . S
C714 O765 1.325 . S
C715 N716 1.279 . S
C715 C718 1.358 . S
C715 H772 0.930 . S
N716 C715 1.279 . S
N716 C719 1.314 . S
C717 C714 1.348 . S
C717 C719 1.353 . S
C717 H773 0.929 . S
C718 C714 1.356 . S
C718 C715 1.358 . S
C718 H774 0.930 . S
C719 N716 1.314 . S
C719 C717 1.353 . S
C719 H775 0.930 . S
C720 N721 1.314 . S
C720 C725 1.353 . S
C720 H726 0.930 . S
N721 Li704 1.990 . S
N721 C720 1.314 . S
N721 C723 1.279 . S
C722 C723 1.358 . S
C722 C724 1.356 . S
C722 H776 0.930 . S
C723 N721 1.279 . S
C723 C722 1.358 . S
C723 H727 0.930 . S
C724 C722 1.356 . S
C724 C725 1.348 . S
C725 C720 1.353 . S
C725 C724 1.348 . S
C725 H777 0.929 . S
H726 C720 0.930 . S
H727 C723 0.930 . S
C728 N729 1.314 . S
C728 C730 1.353 . S
C728 H734 0.930 . S
N729 Li705 1.990 . S
N729 C728 1.314 . S
N729 C732 1.279 . S
C730 C728 1.353 . S
C730 C733 1.348 . S
C730 H778 0.929 . S
C731 C732 1.358 . S
C731 C733 1.356 . S
C731 H779 0.930 . S
C732 N729 1.279 . S
C732 C731 1.358 . S
C732 H735 0.930 . S
C733 C730 1.348 . S
C733 C731 1.356 . S
H734 C728 0.930 . S
H735 C732 0.930 . S
C736 C738 1.348 . S
C736 C739 1.356 . S
C736 O766 1.325 . S
N737 C740 1.314 . S
N737 C741 1.279 . S
C738 C736 1.348 . S
C738 C740 1.353 . S
C738 H780 0.929 . S
C739 C736 1.356 . S
C739 C741 1.358 . S
C739 H781 0.930 . S
C740 N737 1.314 . S
C740 C738 1.353 . S
C740 H782 0.930 . S
C741 N737 1.279 . S
C741 C739 1.358 . S
C741 H783 0.930 . S
C742 C743 1.348 . S
C742 C744 1.356 . S
C742 O767 1.325 . S
C743 C742 1.348 . S
C743 C745 1.353 . S
C743 H784 0.929 . S
C744 C742 1.356 . S
C744 C746 1.358 . S
C744 H785 0.930 . S
C745 C743 1.353 . S
C745 N747 1.314 . S
C745 H786 0.930 . S
C746 C744 1.358 . S
C746 N747 1.279 . S
C746 H787 0.930 . S
N747 C745 1.314 . S
N747 C746 1.279 . S
C748 C750 1.353 . S
C748 N751 1.314 . S
C748 H754 0.930 . S
C749 N751 1.279 . S
C749 C752 1.358 . S
C749 H755 0.930 . S
C750 C748 1.353 . S
C750 C753 1.348 . S
C750 H788 0.929 . S
N751 Li706 1.990 . S
N751 C748 1.314 . S
N751 C749 1.279 . S
C752 C749 1.358 . S
C752 C753 1.356 . S
C752 H789 0.930 . S
C753 C750 1.348 . S
C753 C752 1.356 . S
H754 C748 0.930 . S
H755 C749 0.930 . S
C756 N757 1.314 . S
C756 C758 1.353 . S
C756 H762 0.930 . S
N757 Li707 1.990 . S
N757 C756 1.314 . S
N757 C760 1.279 . S
C758 C756 1.353 . S
C758 C761 1.348 . S
C758 H790 0.929 . S
C759 C760 1.358 . S
C759 C761 1.356 . S
C759 H791 0.930 . S
C760 N757 1.279 . S
C760 C759 1.358 . S
C760 H763 0.930 . S
C761 C758 1.348 . S
C761 C759 1.356 . S
H762 C756 0.930 . S
H763 C760 0.930 . S
O764 Li704 1.956 . S
O764 Li705 1.970 . S
O764 Li706 1.961 . S
O764 C708 1.325 . S
O765 Li704 1.970 . S
O765 Li705 1.956 . S
O765 Li707 1.961 . S
O765 C714 1.325 . S
O766 Li704 1.961 . S
O766 Li706 1.956 . S
O766 Li707 1.970 . S
O766 C736 1.325 . S
O767 Li705 1.961 . S
O767 Li706 1.970 . S
O767 Li707 1.956 . S
O767 C742 1.325 . S
H768 C710 0.929 . S
H769 C711 0.930 . S
H770 C712 0.930 . S
H771 C713 0.930 . S
H772 C715 0.930 . S
H773 C717 0.929 . S
H774 C718 0.930 . S
H775 C719 0.930 . S
H776 C722 0.930 . S
H777 C725 0.929 . S
H778 C730 0.929 . S
H779 C731 0.930 . S
H780 C738 0.929 . S
H781 C739 0.930 . S
H782 C740 0.930 . S
H783 C741 0.930 . S
H784 C743 0.929 . S
H785 C744 0.930 . S
H786 C745 0.930 . S
H787 C746 0.930 . S
H788 C750 0.929 . S
H789 C752 0.930 . S
H790 C758 0.929 . S
H791 C759 0.930 . S
Li792 N809 1.990 . S
Li792 O852 1.956 . S
Li792 O853 1.970 . S
Li792 O854 1.961 . S
Li793 N817 1.990 . S
Li793 O852 1.970 . S
Li793 O853 1.956 . S
Li793 O855 1.961 . S
Li794 N839 1.990 . S
Li794 O852 1.961 . S
Li794 O854 1.956 . S
Li794 O855 1.970 . S
Li795 N845 1.990 . S
Li795 O853 1.961 . S
Li795 O854 1.970 . S
Li795 O855 1.956 . S
C796 C798 1.348 . S
C796 C799 1.356 . S
C796 O852 1.325 . S
N797 C800 1.314 . S
N797 C801 1.279 . S
C798 C796 1.348 . S
C798 C800 1.353 . S
C798 H856 0.929 . S
C799 C796 1.356 . S
C799 C801 1.358 . S
C799 H857 0.930 . S
C800 N797 1.314 . S
C800 C798 1.353 . S
C800 H858 0.930 . S
C801 N797 1.279 . S
C801 C799 1.358 . S
C801 H859 0.930 . S
C802 C805 1.348 . S
C802 C806 1.356 . S
C802 O853 1.325 . S
C803 N804 1.279 . S
C803 C806 1.358 . S
C803 H860 0.930 . S
N804 C803 1.279 . S
N804 C807 1.314 . S
C805 C802 1.348 . S
C805 C807 1.353 . S
C805 H861 0.929 . S
C806 C802 1.356 . S
C806 C803 1.358 . S
C806 H862 0.930 . S
C807 N804 1.314 . S
C807 C805 1.353 . S
C807 H863 0.930 . S
C808 N809 1.314 . S
C808 C813 1.353 . S
C808 H814 0.930 . S
N809 Li792 1.990 . S
N809 C808 1.314 . S
N809 C811 1.279 . S
C810 C811 1.358 . S
C810 C812 1.356 . S
C810 H864 0.930 . S
C811 N809 1.279 . S
C811 C810 1.358 . S
C811 H815 0.930 . S
C812 C810 1.356 . S
C812 C813 1.348 . S
C813 C808 1.353 . S
C813 C812 1.348 . S
C813 H865 0.929 . S
H814 C808 0.930 . S
H815 C811 0.930 . S
C816 N817 1.314 . S
C816 C818 1.353 . S
C816 H822 0.930 . S
N817 Li793 1.990 . S
N817 C816 1.314 . S
N817 C820 1.279 . S
C818 C816 1.353 . S
C818 C821 1.348 . S
C818 H866 0.929 . S
C819 C820 1.358 . S
C819 C821 1.356 . S
C819 H867 0.930 . S
C820 N817 1.279 . S
C820 C819 1.358 . S
C820 H823 0.930 . S
C821 C818 1.348 . S
C821 C819 1.356 . S
H822 C816 0.930 . S
H823 C820 0.930 . S
C824 C826 1.348 . S
C824 C827 1.356 . S
C824 O854 1.325 . S
N825 C828 1.314 . S
N825 C829 1.279 . S
C826 C824 1.348 . S
C826 C828 1.353 . S
C826 H868 0.929 . S
C827 C824 1.356 . S
C827 C829 1.358 . S
C827 H869 0.930 . S
C828 N825 1.314 . S
C828 C826 1.353 . S
C828 H870 0.930 . S
C829 N825 1.279 . S
C829 C827 1.358 . S
C829 H871 0.930 . S
C830 C831 1.348 . S
C830 C832 1.356 . S
C830 O855 1.325 . S
C831 C830 1.348 . S
C831 C833 1.353 . S
C831 H872 0.929 . S
C832 C830 1.356 . S
C832 C834 1.358 . S
C832 H873 0.930 . S
C833 C831 1.353 . S
C833 N835 1.314 . S
C833 H874 0.930 . S
C834 C832 1.358 . S
C834 N835 1.279 . S
C834 H875 0.930 . S
N835 C833 1.314 . S
N835 C834 1.279 . S
C836 C838 1.353 . S
C836 N839 1.314 . S
C836 H842 0.930 . S
C837 N839 1.279 . S
C837 C840 1.358 . S
C837 H843 0.930 . S
C838 C836 1.353 . S
C838 C841 1.348 . S
C838 H876 0.929 . S
N839 Li794 1.990 . S
N839 C836 1.314 . S
N839 C837 1.279 . S
C840 C837 1.358 . S
C840 C841 1.356 . S
C840 H877 0.930 . S
C841 C838 1.348 . S
C841 C840 1.356 . S
H842 C836 0.930 . S
H843 C837 0.930 . S
C844 N845 1.314 . S
C844 C846 1.353 . S
C844 H850 0.930 . S
N845 Li795 1.990 . S
N845 C844 1.314 . S
N845 C848 1.279 . S
C846 C844 1.353 . S
C846 C849 1.348 . S
C846 H878 0.929 . S
C847 C848 1.358 . S
C847 C849 1.356 . S
C847 H879 0.930 . S
C848 N845 1.279 . S
C848 C847 1.358 . S
C848 H851 0.930 . S
C849 C846 1.348 . S
C849 C847 1.356 . S
H850 C844 0.930 . S
H851 C848 0.930 . S
O852 Li792 1.956 . S
O852 Li793 1.970 . S
O852 Li794 1.961 . S
O852 C796 1.325 . S
O853 Li792 1.970 . S
O853 Li793 1.956 . S
O853 Li795 1.961 . S
O853 C802 1.325 . S
O854 Li792 1.961 . S
O854 Li794 1.956 . S
O854 Li795 1.970 . S
O854 C824 1.325 . S
O855 Li793 1.961 . S
O855 Li794 1.970 . S
O855 Li795 1.956 . S
O855 C830 1.325 . S
H856 C798 0.929 . S
H857 C799 0.930 . S
H858 C800 0.930 . S
H859 C801 0.930 . S
H860 C803 0.930 . S
H861 C805 0.929 . S
H862 C806 0.930 . S
H863 C807 0.930 . S
H864 C810 0.930 . S
H865 C813 0.929 . S
H866 C818 0.929 . S
H867 C819 0.930 . S
H868 C826 0.929 . S
H869 C827 0.930 . S
H870 C828 0.930 . S
H871 C829 0.930 . S
H872 C831 0.929 . S
H873 C832 0.930 . S
H874 C833 0.930 . S
H875 C834 0.930 . S
H876 C838 0.929 . S
H877 C840 0.930 . S
H878 C846 0.929 . S
H879 C847 0.930 . S
Li880 N897 1.990 . S
Li880 O940 1.956 . S
Li880 O941 1.970 . S
Li880 O942 1.961 . S
Li881 N905 1.990 . S
Li881 O940 1.970 . S
Li881 O941 1.956 . S
Li881 O943 1.961 . S
Li882 N927 1.990 . S
Li882 O940 1.961 . S
Li882 O942 1.956 . S
Li882 O943 1.970 . S
Li883 N933 1.990 . S
Li883 O941 1.961 . S
Li883 O942 1.970 . S
Li883 O943 1.956 . S
C884 C886 1.348 . S
C884 C887 1.356 . S
C884 O940 1.325 . S
N885 C888 1.314 . S
N885 C889 1.279 . S
C886 C884 1.348 . S
C886 C888 1.353 . S
C886 H944 0.929 . S
C887 C884 1.356 . S
C887 C889 1.358 . S
C887 H945 0.930 . S
C888 N885 1.314 . S
C888 C886 1.353 . S
C888 H946 0.930 . S
C889 N885 1.279 . S
C889 C887 1.358 . S
C889 H947 0.930 . S
C890 C893 1.348 . S
C890 C894 1.356 . S
C890 O941 1.325 . S
C891 N892 1.279 . S
C891 C894 1.358 . S
C891 H948 0.930 . S
N892 C891 1.279 . S
N892 C895 1.314 . S
C893 C890 1.348 . S
C893 C895 1.353 . S
C893 H949 0.929 . S
C894 C890 1.356 . S
C894 C891 1.358 . S
C894 H950 0.930 . S
C895 N892 1.314 . S
C895 C893 1.353 . S
C895 H951 0.930 . S
C896 N897 1.314 . S
C896 C901 1.353 . S
C896 H902 0.930 . S
N897 Li880 1.990 . S
N897 C896 1.314 . S
N897 C899 1.279 . S
C898 C899 1.358 . S
C898 C900 1.356 . S
C898 H952 0.930 . S
C899 N897 1.279 . S
C899 C898 1.358 . S
C899 H903 0.930 . S
C900 C898 1.356 . S
C900 C901 1.348 . S
C901 C896 1.353 . S
C901 C900 1.348 . S
C901 H953 0.929 . S
H902 C896 0.930 . S
H903 C899 0.930 . S
C904 N905 1.314 . S
C904 C906 1.353 . S
C904 H910 0.930 . S
N905 Li881 1.990 . S
N905 C904 1.314 . S
N905 C908 1.279 . S
C906 C904 1.353 . S
C906 C909 1.348 . S
C906 H954 0.929 . S
C907 C908 1.358 . S
C907 C909 1.356 . S
C907 H955 0.930 . S
C908 N905 1.279 . S
C908 C907 1.358 . S
C908 H911 0.930 . S
C909 C906 1.348 . S
C909 C907 1.356 . S
H910 C904 0.930 . S
H911 C908 0.930 . S
C912 C914 1.348 . S
C912 C915 1.356 . S
C912 O942 1.325 . S
N913 C916 1.314 . S
N913 C917 1.279 . S
C914 C912 1.348 . S
C914 C916 1.353 . S
C914 H956 0.929 . S
C915 C912 1.356 . S
C915 C917 1.358 . S
C915 H957 0.930 . S
C916 N913 1.314 . S
C916 C914 1.353 . S
C916 H958 0.930 . S
C917 N913 1.279 . S
C917 C915 1.358 . S
C917 H959 0.930 . S
C918 C919 1.348 . S
C918 C920 1.356 . S
C918 O943 1.325 . S
C919 C918 1.348 . S
C919 C921 1.353 . S
C919 H960 0.929 . S
C920 C918 1.356 . S
C920 C922 1.358 . S
C920 H961 0.930 . S
C921 C919 1.353 . S
C921 N923 1.314 . S
C921 H962 0.930 . S
C922 C920 1.358 . S
C922 N923 1.279 . S
C922 H963 0.930 . S
N923 C921 1.314 . S
N923 C922 1.279 . S
C924 C926 1.353 . S
C924 N927 1.314 . S
C924 H930 0.930 . S
C925 N927 1.279 . S
C925 C928 1.358 . S
C925 H931 0.930 . S
C926 C924 1.353 . S
C926 C929 1.348 . S
C926 H964 0.929 . S
N927 Li882 1.990 . S
N927 C924 1.314 . S
N927 C925 1.279 . S
C928 C925 1.358 . S
C928 C929 1.356 . S
C928 H965 0.930 . S
C929 C926 1.348 . S
C929 C928 1.356 . S
H930 C924 0.930 . S
H931 C925 0.930 . S
C932 N933 1.314 . S
C932 C934 1.353 . S
C932 H938 0.930 . S
N933 Li883 1.990 . S
N933 C932 1.314 . S
N933 C936 1.279 . S
C934 C932 1.353 . S
C934 C937 1.348 . S
C934 H966 0.929 . S
C935 C936 1.358 . S
C935 C937 1.356 . S
C935 H967 0.930 . S
C936 N933 1.279 . S
C936 C935 1.358 . S
C936 H939 0.930 . S
C937 C934 1.348 . S
C937 C935 1.356 . S
H938 C932 0.930 . S
H939 C936 0.930 . S
O940 Li880 1.956 . S
O940 Li881 1.970 . S
O940 Li882 1.961 . S
O940 C884 1.325 . S
O941 Li880 1.970 . S
O941 Li881 1.956 . S
O941 Li883 1.961 . S
O941 C890 1.325 . S
O942 Li880 1.961 . S
O942 Li882 1.956 . S
O942 Li883 1.970 . S
O942 C912 1.325 . S
O943 Li881 1.961 . S
O943 Li882 1.970 . S
O943 Li883 1.956 . S
O943 C918 1.325 . S
H944 C886 0.929 . S
H945 C887 0.930 . S
H946 C888 0.930 . S
H947 C889 0.930 . S
H948 C891 0.930 . S
H949 C893 0.929 . S
H950 C894 0.930 . S
H951 C895 0.930 . S
H952 C898 0.930 . S
H953 C901 0.929 . S
H954 C906 0.929 . S
H955 C907 0.930 . S
H956 C914 0.929 . S
H957 C915 0.930 . S
H958 C916 0.930 . S
H959 C917 0.930 . S
H960 C919 0.929 . S
H961 C920 0.930 . S
H962 C921 0.930 . S
H963 C922 0.930 . S
H964 C926 0.929 . S
H965 C928 0.930 . S
H966 C934 0.929 . S
H967 C935 0.930 . S
Li968 N985 1.990 . S
Li968 O1028 1.956 . S
Li968 O1029 1.970 . S
Li968 O1030 1.961 . S
Li969 N993 1.990 . S
Li969 O1028 1.970 . S
Li969 O1029 1.956 . S
Li969 O1031 1.961 . S
Li970 N1015 1.990 . S
Li970 O1028 1.961 . S
Li970 O1030 1.956 . S
Li970 O1031 1.970 . S
Li971 N1021 1.990 . S
Li971 O1029 1.961 . S
Li971 O1030 1.970 . S
Li971 O1031 1.956 . S
C972 C974 1.348 . S
C972 C975 1.356 . S
C972 O1028 1.325 . S
N973 C976 1.314 . S
N973 C977 1.279 . S
C974 C972 1.348 . S
C974 C976 1.353 . S
C974 H1032 0.929 . S
C975 C972 1.356 . S
C975 C977 1.358 . S
C975 H1033 0.930 . S
C976 N973 1.314 . S
C976 C974 1.353 . S
C976 H1034 0.930 . S
C977 N973 1.279 . S
C977 C975 1.358 . S
C977 H1035 0.930 . S
C978 C981 1.348 . S
C978 C982 1.356 . S
C978 O1029 1.325 . S
C979 N980 1.279 . S
C979 C982 1.358 . S
C979 H1036 0.930 . S
N980 C979 1.279 . S
N980 C983 1.314 . S
C981 C978 1.348 . S
C981 C983 1.353 . S
C981 H1037 0.929 . S
C982 C978 1.356 . S
C982 C979 1.358 . S
C982 H1038 0.930 . S
C983 N980 1.314 . S
C983 C981 1.353 . S
C983 H1039 0.930 . S
C984 N985 1.314 . S
C984 C989 1.353 . S
C984 H990 0.930 . S
N985 Li968 1.990 . S
N985 C984 1.314 . S
N985 C987 1.279 . S
C986 C987 1.358 . S
C986 C988 1.356 . S
C986 H1040 0.930 . S
C987 N985 1.279 . S
C987 C986 1.358 . S
C987 H991 0.930 . S
C988 C986 1.356 . S
C988 C989 1.348 . S
C989 C984 1.353 . S
C989 C988 1.348 . S
C989 H1041 0.929 . S
H990 C984 0.930 . S
H991 C987 0.930 . S
C992 N993 1.314 . S
C992 C994 1.353 . S
C992 H998 0.930 . S
N993 Li969 1.990 . S
N993 C992 1.314 . S
N993 C996 1.279 . S
C994 C992 1.353 . S
C994 C997 1.348 . S
C994 H1042 0.929 . S
C995 C996 1.358 . S
C995 C997 1.356 . S
C995 H1043 0.930 . S
C996 N993 1.279 . S
C996 C995 1.358 . S
C996 H999 0.930 . S
C997 C994 1.348 . S
C997 C995 1.356 . S
H998 C992 0.930 . S
H999 C996 0.930 . S
C1000 C1002 1.348 . S
C1000 C1003 1.356 . S
C1000 O1030 1.325 . S
N1001 C1004 1.314 . S
N1001 C1005 1.279 . S
C1002 C1000 1.348 . S
C1002 C1004 1.353 . S
C1002 H1044 0.929 . S
C1003 C1000 1.356 . S
C1003 C1005 1.358 . S
C1003 H1045 0.930 . S
C1004 N1001 1.314 . S
C1004 C1002 1.353 . S
C1004 H1046 0.930 . S
C1005 N1001 1.279 . S
C1005 C1003 1.358 . S
C1005 H1047 0.930 . S
C1006 C1007 1.348 . S
C1006 C1008 1.356 . S
C1006 O1031 1.325 . S
C1007 C1006 1.348 . S
C1007 C1009 1.353 . S
C1007 H1048 0.929 . S
C1008 C1006 1.356 . S
C1008 C1010 1.358 . S
C1008 H1049 0.930 . S
C1009 C1007 1.353 . S
C1009 N1011 1.314 . S
C1009 H1050 0.930 . S
C1010 C1008 1.358 . S
C1010 N1011 1.279 . S
C1010 H1051 0.930 . S
N1011 C1009 1.314 . S
N1011 C1010 1.279 . S
C1012 C1014 1.353 . S
C1012 N1015 1.314 . S
C1012 H1018 0.930 . S
C1013 N1015 1.279 . S
C1013 C1016 1.358 . S
C1013 H1019 0.930 . S
C1014 C1012 1.353 . S
C1014 C1017 1.348 . S
C1014 H1052 0.929 . S
N1015 Li970 1.990 . S
N1015 C1012 1.314 . S
N1015 C1013 1.279 . S
C1016 C1013 1.358 . S
C1016 C1017 1.356 . S
C1016 H1053 0.930 . S
C1017 C1014 1.348 . S
C1017 C1016 1.356 . S
H1018 C1012 0.930 . S
H1019 C1013 0.930 . S
C1020 N1021 1.314 . S
C1020 C1022 1.353 . S
C1020 H1026 0.930 . S
N1021 Li971 1.990 . S
N1021 C1020 1.314 . S
N1021 C1024 1.279 . S
C1022 C1020 1.353 . S
C1022 C1025 1.348 . S
C1022 H1054 0.929 . S
C1023 C1024 1.358 . S
C1023 C1025 1.356 . S
C1023 H1055 0.930 . S
C1024 N1021 1.279 . S
C1024 C1023 1.358 . S
C1024 H1027 0.930 . S
C1025 C1022 1.348 . S
C1025 C1023 1.356 . S
H1026 C1020 0.930 . S
H1027 C1024 0.930 . S
O1028 Li968 1.956 . S
O1028 Li969 1.970 . S
O1028 Li970 1.961 . S
O1028 C972 1.325 . S
O1029 Li968 1.970 . S
O1029 Li969 1.956 . S
O1029 Li971 1.961 . S
O1029 C978 1.325 . S
O1030 Li968 1.961 . S
O1030 Li970 1.956 . S
O1030 Li971 1.970 . S
O1030 C1000 1.325 . S
O1031 Li969 1.961 . S
O1031 Li970 1.970 . S
O1031 Li971 1.956 . S
O1031 C1006 1.325 . S
H1032 C974 0.929 . S
H1033 C975 0.930 . S
H1034 C976 0.930 . S
H1035 C977 0.930 . S
H1036 C979 0.930 . S
H1037 C981 0.929 . S
H1038 C982 0.930 . S
H1039 C983 0.930 . S
H1040 C986 0.930 . S
H1041 C989 0.929 . S
H1042 C994 0.929 . S
H1043 C995 0.930 . S
H1044 C1002 0.929 . S
H1045 C1003 0.930 . S
H1046 C1004 0.930 . S
H1047 C1005 0.930 . S
H1048 C1007 0.929 . S
H1049 C1008 0.930 . S
H1050 C1009 0.930 . S
H1051 C1010 0.930 . S
H1052 C1014 0.929 . S
H1053 C1016 0.930 . S
H1054 C1022 0.929 . S
H1055 C1023 0.930 . S
Li1056 N1073 1.990 . S
Li1056 O1116 1.956 . S
Li1056 O1117 1.970 . S
Li1056 O1118 1.961 . S
Li1057 N1081 1.990 . S
Li1057 O1116 1.970 . S
Li1057 O1117 1.956 . S
Li1057 O1119 1.961 . S
Li1058 N1103 1.990 . S
Li1058 O1116 1.961 . S
Li1058 O1118 1.956 . S
Li1058 O1119 1.970 . S
Li1059 N1109 1.990 . S
Li1059 O1117 1.961 . S
Li1059 O1118 1.970 . S
Li1059 O1119 1.956 . S
C1060 C1062 1.348 . S
C1060 C1063 1.356 . S
C1060 O1116 1.325 . S
N1061 C1064 1.314 . S
N1061 C1065 1.279 . S
C1062 C1060 1.348 . S
C1062 C1064 1.353 . S
C1062 H1120 0.929 . S
C1063 C1060 1.356 . S
C1063 C1065 1.358 . S
C1063 H1121 0.930 . S
C1064 N1061 1.314 . S
C1064 C1062 1.353 . S
C1064 H1122 0.930 . S
C1065 N1061 1.279 . S
C1065 C1063 1.358 . S
C1065 H1123 0.930 . S
C1066 C1069 1.348 . S
C1066 C1070 1.356 . S
C1066 O1117 1.325 . S
C1067 N1068 1.279 . S
C1067 C1070 1.358 . S
C1067 H1124 0.930 . S
N1068 C1067 1.279 . S
N1068 C1071 1.314 . S
C1069 C1066 1.348 . S
C1069 C1071 1.353 . S
C1069 H1125 0.929 . S
C1070 C1066 1.356 . S
C1070 C1067 1.358 . S
C1070 H1126 0.930 . S
C1071 N1068 1.314 . S
C1071 C1069 1.353 . S
C1071 H1127 0.930 . S
C1072 N1073 1.314 . S
C1072 C1077 1.353 . S
C1072 H1078 0.930 . S
N1073 Li1056 1.990 . S
N1073 C1072 1.314 . S
N1073 C1075 1.279 . S
C1074 C1075 1.358 . S
C1074 C1076 1.356 . S
C1074 H1128 0.930 . S
C1075 N1073 1.279 . S
C1075 C1074 1.358 . S
C1075 H1079 0.930 . S
C1076 C1074 1.356 . S
C1076 C1077 1.348 . S
C1077 C1072 1.353 . S
C1077 C1076 1.348 . S
C1077 H1129 0.929 . S
H1078 C1072 0.930 . S
H1079 C1075 0.930 . S
C1080 N1081 1.314 . S
C1080 C1082 1.353 . S
C1080 H1086 0.930 . S
N1081 Li1057 1.990 . S
N1081 C1080 1.314 . S
N1081 C1084 1.279 . S
C1082 C1080 1.353 . S
C1082 C1085 1.348 . S
C1082 H1130 0.929 . S
C1083 C1084 1.358 . S
C1083 C1085 1.356 . S
C1083 H1131 0.930 . S
C1084 N1081 1.279 . S
C1084 C1083 1.358 . S
C1084 H1087 0.930 . S
C1085 C1082 1.348 . S
C1085 C1083 1.356 . S
H1086 C1080 0.930 . S
H1087 C1084 0.930 . S
C1088 C1090 1.348 . S
C1088 C1091 1.356 . S
C1088 O1118 1.325 . S
N1089 C1092 1.314 . S
N1089 C1093 1.279 . S
C1090 C1088 1.348 . S
C1090 C1092 1.353 . S
C1090 H1132 0.929 . S
C1091 C1088 1.356 . S
C1091 C1093 1.358 . S
C1091 H1133 0.930 . S
C1092 N1089 1.314 . S
C1092 C1090 1.353 . S
C1092 H1134 0.930 . S
C1093 N1089 1.279 . S
C1093 C1091 1.358 . S
C1093 H1135 0.930 . S
C1094 C1095 1.348 . S
C1094 C1096 1.356 . S
C1094 O1119 1.325 . S
C1095 C1094 1.348 . S
C1095 C1097 1.353 . S
C1095 H1136 0.929 . S
C1096 C1094 1.356 . S
C1096 C1098 1.358 . S
C1096 H1137 0.930 . S
C1097 C1095 1.353 . S
C1097 N1099 1.314 . S
C1097 H1138 0.930 . S
C1098 C1096 1.358 . S
C1098 N1099 1.279 . S
C1098 H1139 0.930 . S
N1099 C1097 1.314 . S
N1099 C1098 1.279 . S
C1100 C1102 1.353 . S
C1100 N1103 1.314 . S
C1100 H1106 0.930 . S
C1101 N1103 1.279 . S
C1101 C1104 1.358 . S
C1101 H1107 0.930 . S
C1102 C1100 1.353 . S
C1102 C1105 1.348 . S
C1102 H1140 0.929 . S
N1103 Li1058 1.990 . S
N1103 C1100 1.314 . S
N1103 C1101 1.279 . S
C1104 C1101 1.358 . S
C1104 C1105 1.356 . S
C1104 H1141 0.930 . S
C1105 C1102 1.348 . S
C1105 C1104 1.356 . S
H1106 C1100 0.930 . S
H1107 C1101 0.930 . S
C1108 N1109 1.314 . S
C1108 C1110 1.353 . S
C1108 H1114 0.930 . S
N1109 Li1059 1.990 . S
N1109 C1108 1.314 . S
N1109 C1112 1.279 . S
C1110 C1108 1.353 . S
C1110 C1113 1.348 . S
C1110 H1142 0.929 . S
C1111 C1112 1.358 . S
C1111 C1113 1.356 . S
C1111 H1143 0.930 . S
C1112 N1109 1.279 . S
C1112 C1111 1.358 . S
C1112 H1115 0.930 . S
C1113 C1110 1.348 . S
C1113 C1111 1.356 . S
H1114 C1108 0.930 . S
H1115 C1112 0.930 . S
O1116 Li1056 1.956 . S
O1116 Li1057 1.970 . S
O1116 Li1058 1.961 . S
O1116 C1060 1.325 . S
O1117 Li1056 1.970 . S
O1117 Li1057 1.956 . S
O1117 Li1059 1.961 . S
O1117 C1066 1.325 . S
O1118 Li1056 1.961 . S
O1118 Li1058 1.956 . S
O1118 Li1059 1.970 . S
O1118 C1088 1.325 . S
O1119 Li1057 1.961 . S
O1119 Li1058 1.970 . S
O1119 Li1059 1.956 . S
O1119 C1094 1.325 . S
H1120 C1062 0.929 . S
H1121 C1063 0.930 . S
H1122 C1064 0.930 . S
H1123 C1065 0.930 . S
H1124 C1067 0.930 . S
H1125 C1069 0.929 . S
H1126 C1070 0.930 . S
H1127 C1071 0.930 . S
H1128 C1074 0.930 . S
H1129 C1077 0.929 . S
H1130 C1082 0.929 . S
H1131 C1083 0.930 . S
H1132 C1090 0.929 . S
H1133 C1091 0.930 . S
H1134 C1092 0.930 . S
H1135 C1093 0.930 . S
H1136 C1095 0.929 . S
H1137 C1096 0.930 . S
H1138 C1097 0.930 . S
H1139 C1098 0.930 . S
H1140 C1102 0.929 . S
H1141 C1104 0.930 . S
H1142 C1110 0.929 . S
H1143 C1111 0.930 . S
Li1144 N1161 1.990 . S
Li1144 O1204 1.956 . S
Li1144 O1205 1.970 . S
Li1144 O1206 1.961 . S
Li1145 N1169 1.990 . S
Li1145 O1204 1.970 . S
Li1145 O1205 1.956 . S
Li1145 O1207 1.961 . S
Li1146 N1191 1.990 . S
Li1146 O1204 1.961 . S
Li1146 O1206 1.956 . S
Li1146 O1207 1.970 . S
Li1147 N1197 1.990 . S
Li1147 O1205 1.961 . S
Li1147 O1206 1.970 . S
Li1147 O1207 1.956 . S
C1148 C1150 1.348 . S
C1148 C1151 1.356 . S
C1148 O1204 1.325 . S
N1149 C1152 1.314 . S
N1149 C1153 1.279 . S
C1150 C1148 1.348 . S
C1150 C1152 1.353 . S
C1150 H1208 0.929 . S
C1151 C1148 1.356 . S
C1151 C1153 1.358 . S
C1151 H1209 0.930 . S
C1152 N1149 1.314 . S
C1152 C1150 1.353 . S
C1152 H1210 0.930 . S
C1153 N1149 1.279 . S
C1153 C1151 1.358 . S
C1153 H1211 0.930 . S
C1154 C1157 1.348 . S
C1154 C1158 1.356 . S
C1154 O1205 1.325 . S
C1155 N1156 1.279 . S
C1155 C1158 1.358 . S
C1155 H1212 0.930 . S
N1156 C1155 1.279 . S
N1156 C1159 1.314 . S
C1157 C1154 1.348 . S
C1157 C1159 1.353 . S
C1157 H1213 0.929 . S
C1158 C1154 1.356 . S
C1158 C1155 1.358 . S
C1158 H1214 0.930 . S
C1159 N1156 1.314 . S
C1159 C1157 1.353 . S
C1159 H1215 0.930 . S
C1160 N1161 1.314 . S
C1160 C1165 1.353 . S
C1160 H1166 0.930 . S
N1161 Li1144 1.990 . S
N1161 C1160 1.314 . S
N1161 C1163 1.279 . S
C1162 C1163 1.358 . S
C1162 C1164 1.356 . S
C1162 H1216 0.930 . S
C1163 N1161 1.279 . S
C1163 C1162 1.358 . S
C1163 H1167 0.930 . S
C1164 C1162 1.356 . S
C1164 C1165 1.348 . S
C1165 C1160 1.353 . S
C1165 C1164 1.348 . S
C1165 H1217 0.929 . S
H1166 C1160 0.930 . S
H1167 C1163 0.930 . S
C1168 N1169 1.314 . S
C1168 C1170 1.353 . S
C1168 H1174 0.930 . S
N1169 Li1145 1.990 . S
N1169 C1168 1.314 . S
N1169 C1172 1.279 . S
C1170 C1168 1.353 . S
C1170 C1173 1.348 . S
C1170 H1218 0.929 . S
C1171 C1172 1.358 . S
C1171 C1173 1.356 . S
C1171 H1219 0.930 . S
C1172 N1169 1.279 . S
C1172 C1171 1.358 . S
C1172 H1175 0.930 . S
C1173 C1170 1.348 . S
C1173 C1171 1.356 . S
H1174 C1168 0.930 . S
H1175 C1172 0.930 . S
C1176 C1178 1.348 . S
C1176 C1179 1.356 . S
C1176 O1206 1.325 . S
N1177 C1180 1.314 . S
N1177 C1181 1.279 . S
C1178 C1176 1.348 . S
C1178 C1180 1.353 . S
C1178 H1220 0.929 . S
C1179 C1176 1.356 . S
C1179 C1181 1.358 . S
C1179 H1221 0.930 . S
C1180 N1177 1.314 . S
C1180 C1178 1.353 . S
C1180 H1222 0.930 . S
C1181 N1177 1.279 . S
C1181 C1179 1.358 . S
C1181 H1223 0.930 . S
C1182 C1183 1.348 . S
C1182 C1184 1.356 . S
C1182 O1207 1.325 . S
C1183 C1182 1.348 . S
C1183 C1185 1.353 . S
C1183 H1224 0.929 . S
C1184 C1182 1.356 . S
C1184 C1186 1.358 . S
C1184 H1225 0.930 . S
C1185 C1183 1.353 . S
C1185 N1187 1.314 . S
C1185 H1226 0.930 . S
C1186 C1184 1.358 . S
C1186 N1187 1.279 . S
C1186 H1227 0.930 . S
N1187 C1185 1.314 . S
N1187 C1186 1.279 . S
C1188 C1190 1.353 . S
C1188 N1191 1.314 . S
C1188 H1194 0.930 . S
C1189 N1191 1.279 . S
C1189 C1192 1.358 . S
C1189 H1195 0.930 . S
C1190 C1188 1.353 . S
C1190 C1193 1.348 . S
C1190 H1228 0.929 . S
N1191 Li1146 1.990 . S
N1191 C1188 1.314 . S
N1191 C1189 1.279 . S
C1192 C1189 1.358 . S
C1192 C1193 1.356 . S
C1192 H1229 0.930 . S
C1193 C1190 1.348 . S
C1193 C1192 1.356 . S
H1194 C1188 0.930 . S
H1195 C1189 0.930 . S
C1196 N1197 1.314 . S
C1196 C1198 1.353 . S
C1196 H1202 0.930 . S
N1197 Li1147 1.990 . S
N1197 C1196 1.314 . S
N1197 C1200 1.279 . S
C1198 C1196 1.353 . S
C1198 C1201 1.348 . S
C1198 H1230 0.929 . S
C1199 C1200 1.358 . S
C1199 C1201 1.356 . S
C1199 H1231 0.930 . S
C1200 N1197 1.279 . S
C1200 C1199 1.358 . S
C1200 H1203 0.930 . S
C1201 C1198 1.348 . S
C1201 C1199 1.356 . S
H1202 C1196 0.930 . S
H1203 C1200 0.930 . S
O1204 Li1144 1.956 . S
O1204 Li1145 1.970 . S
O1204 Li1146 1.961 . S
O1204 C1148 1.325 . S
O1205 Li1144 1.970 . S
O1205 Li1145 1.956 . S
O1205 Li1147 1.961 . S
O1205 C1154 1.325 . S
O1206 Li1144 1.961 . S
O1206 Li1146 1.956 . S
O1206 Li1147 1.970 . S
O1206 C1176 1.325 . S
O1207 Li1145 1.961 . S
O1207 Li1146 1.970 . S
O1207 Li1147 1.956 . S
O1207 C1182 1.325 . S
H1208 C1150 0.929 . S
H1209 C1151 0.930 . S
H1210 C1152 0.930 . S
H1211 C1153 0.930 . S
H1212 C1155 0.930 . S
H1213 C1157 0.929 . S
H1214 C1158 0.930 . S
H1215 C1159 0.930 . S
H1216 C1162 0.930 . S
H1217 C1165 0.929 . S
H1218 C1170 0.929 . S
H1219 C1171 0.930 . S
H1220 C1178 0.929 . S
H1221 C1179 0.930 . S
H1222 C1180 0.930 . S
H1223 C1181 0.930 . S
H1224 C1183 0.929 . S
H1225 C1184 0.930 . S
H1226 C1185 0.930 . S
H1227 C1186 0.930 . S
H1228 C1190 0.929 . S
H1229 C1192 0.930 . S
H1230 C1198 0.929 . S
H1231 C1199 0.930 . S
Li1232 N1249 1.990 . S
Li1232 O1292 1.956 . S
Li1232 O1293 1.970 . S
Li1232 O1294 1.961 . S
Li1233 N1257 1.990 . S
Li1233 O1292 1.970 . S
Li1233 O1293 1.956 . S
Li1233 O1295 1.961 . S
Li1234 N1279 1.990 . S
Li1234 O1292 1.961 . S
Li1234 O1294 1.956 . S
Li1234 O1295 1.970 . S
Li1235 N1285 1.990 . S
Li1235 O1293 1.961 . S
Li1235 O1294 1.970 . S
Li1235 O1295 1.956 . S
C1236 C1238 1.348 . S
C1236 C1239 1.356 . S
C1236 O1292 1.325 . S
N1237 C1240 1.314 . S
N1237 C1241 1.279 . S
C1238 C1236 1.348 . S
C1238 C1240 1.353 . S
C1238 H1296 0.929 . S
C1239 C1236 1.356 . S
C1239 C1241 1.358 . S
C1239 H1297 0.930 . S
C1240 N1237 1.314 . S
C1240 C1238 1.353 . S
C1240 H1298 0.930 . S
C1241 N1237 1.279 . S
C1241 C1239 1.358 . S
C1241 H1299 0.930 . S
C1242 C1245 1.348 . S
C1242 C1246 1.356 . S
C1242 O1293 1.325 . S
C1243 N1244 1.279 . S
C1243 C1246 1.358 . S
C1243 H1300 0.930 . S
N1244 C1243 1.279 . S
N1244 C1247 1.314 . S
C1245 C1242 1.348 . S
C1245 C1247 1.353 . S
C1245 H1301 0.929 . S
C1246 C1242 1.356 . S
C1246 C1243 1.358 . S
C1246 H1302 0.930 . S
C1247 N1244 1.314 . S
C1247 C1245 1.353 . S
C1247 H1303 0.930 . S
C1248 N1249 1.314 . S
C1248 C1253 1.353 . S
C1248 H1254 0.930 . S
N1249 Li1232 1.990 . S
N1249 C1248 1.314 . S
N1249 C1251 1.279 . S
C1250 C1251 1.358 . S
C1250 C1252 1.356 . S
C1250 H1304 0.930 . S
C1251 N1249 1.279 . S
C1251 C1250 1.358 . S
C1251 H1255 0.930 . S
C1252 C1250 1.356 . S
C1252 C1253 1.348 . S
C1253 C1248 1.353 . S
C1253 C1252 1.348 . S
C1253 H1305 0.929 . S
H1254 C1248 0.930 . S
H1255 C1251 0.930 . S
C1256 N1257 1.314 . S
C1256 C1258 1.353 . S
C1256 H1262 0.930 . S
N1257 Li1233 1.990 . S
N1257 C1256 1.314 . S
N1257 C1260 1.279 . S
C1258 C1256 1.353 . S
C1258 C1261 1.348 . S
C1258 H1306 0.929 . S
C1259 C1260 1.358 . S
C1259 C1261 1.356 . S
C1259 H1307 0.930 . S
C1260 N1257 1.279 . S
C1260 C1259 1.358 . S
C1260 H1263 0.930 . S
C1261 C1258 1.348 . S
C1261 C1259 1.356 . S
H1262 C1256 0.930 . S
H1263 C1260 0.930 . S
C1264 C1266 1.348 . S
C1264 C1267 1.356 . S
C1264 O1294 1.325 . S
N1265 C1268 1.314 . S
N1265 C1269 1.279 . S
C1266 C1264 1.348 . S
C1266 C1268 1.353 . S
C1266 H1308 0.929 . S
C1267 C1264 1.356 . S
C1267 C1269 1.358 . S
C1267 H1309 0.930 . S
C1268 N1265 1.314 . S
C1268 C1266 1.353 . S
C1268 H1310 0.930 . S
C1269 N1265 1.279 . S
C1269 C1267 1.358 . S
C1269 H1311 0.930 . S
C1270 C1271 1.348 . S
C1270 C1272 1.356 . S
C1270 O1295 1.325 . S
C1271 C1270 1.348 . S
C1271 C1273 1.353 . S
C1271 H1312 0.929 . S
C1272 C1270 1.356 . S
C1272 C1274 1.358 . S
C1272 H1313 0.930 . S
C1273 C1271 1.353 . S
C1273 N1275 1.314 . S
C1273 H1314 0.930 . S
C1274 C1272 1.358 . S
C1274 N1275 1.279 . S
C1274 H1315 0.930 . S
N1275 C1273 1.314 . S
N1275 C1274 1.279 . S
C1276 C1278 1.353 . S
C1276 N1279 1.314 . S
C1276 H1282 0.930 . S
C1277 N1279 1.279 . S
C1277 C1280 1.358 . S
C1277 H1283 0.930 . S
C1278 C1276 1.353 . S
C1278 C1281 1.348 . S
C1278 H1316 0.929 . S
N1279 Li1234 1.990 . S
N1279 C1276 1.314 . S
N1279 C1277 1.279 . S
C1280 C1277 1.358 . S
C1280 C1281 1.356 . S
C1280 H1317 0.930 . S
C1281 C1278 1.348 . S
C1281 C1280 1.356 . S
H1282 C1276 0.930 . S
H1283 C1277 0.930 . S
C1284 N1285 1.314 . S
C1284 C1286 1.353 . S
C1284 H1290 0.930 . S
N1285 Li1235 1.990 . S
N1285 C1284 1.314 . S
N1285 C1288 1.279 . S
C1286 C1284 1.353 . S
C1286 C1289 1.348 . S
C1286 H1318 0.929 . S
C1287 C1288 1.358 . S
C1287 C1289 1.356 . S
C1287 H1319 0.930 . S
C1288 N1285 1.279 . S
C1288 C1287 1.358 . S
C1288 H1291 0.930 . S
C1289 C1286 1.348 . S
C1289 C1287 1.356 . S
H1290 C1284 0.930 . S
H1291 C1288 0.930 . S
O1292 Li1232 1.956 . S
O1292 Li1233 1.970 . S
O1292 Li1234 1.961 . S
O1292 C1236 1.325 . S
O1293 Li1232 1.970 . S
O1293 Li1233 1.956 . S
O1293 Li1235 1.961 . S
O1293 C1242 1.325 . S
O1294 Li1232 1.961 . S
O1294 Li1234 1.956 . S
O1294 Li1235 1.970 . S
O1294 C1264 1.325 . S
O1295 Li1233 1.961 . S
O1295 Li1234 1.970 . S
O1295 Li1235 1.956 . S
O1295 C1270 1.325 . S
H1296 C1238 0.929 . S
H1297 C1239 0.930 . S
H1298 C1240 0.930 . S
H1299 C1241 0.930 . S
H1300 C1243 0.930 . S
H1301 C1245 0.929 . S
H1302 C1246 0.930 . S
H1303 C1247 0.930 . S
H1304 C1250 0.930 . S
H1305 C1253 0.929 . S
H1306 C1258 0.929 . S
H1307 C1259 0.930 . S
H1308 C1266 0.929 . S
H1309 C1267 0.930 . S
H1310 C1268 0.930 . S
H1311 C1269 0.930 . S
H1312 C1271 0.929 . S
H1313 C1272 0.930 . S
H1314 C1273 0.930 . S
H1315 C1274 0.930 . S
H1316 C1278 0.929 . S
H1317 C1280 0.930 . S
H1318 C1286 0.929 . S
H1319 C1287 0.930 . S
Li1320 N1337 1.990 . S
Li1320 O1380 1.956 . S
Li1320 O1381 1.970 . S
Li1320 O1382 1.961 . S
Li1321 N1345 1.990 . S
Li1321 O1380 1.970 . S
Li1321 O1381 1.956 . S
Li1321 O1383 1.961 . S
Li1322 N1367 1.990 . S
Li1322 O1380 1.961 . S
Li1322 O1382 1.956 . S
Li1322 O1383 1.970 . S
Li1323 N1373 1.990 . S
Li1323 O1381 1.961 . S
Li1323 O1382 1.970 . S
Li1323 O1383 1.956 . S
C1324 C1326 1.348 . S
C1324 C1327 1.356 . S
C1324 O1380 1.325 . S
N1325 C1328 1.314 . S
N1325 C1329 1.279 . S
C1326 C1324 1.348 . S
C1326 C1328 1.353 . S
C1326 H1384 0.929 . S
C1327 C1324 1.356 . S
C1327 C1329 1.358 . S
C1327 H1385 0.930 . S
C1328 N1325 1.314 . S
C1328 C1326 1.353 . S
C1328 H1386 0.930 . S
C1329 N1325 1.279 . S
C1329 C1327 1.358 . S
C1329 H1387 0.930 . S
C1330 C1333 1.348 . S
C1330 C1334 1.356 . S
C1330 O1381 1.325 . S
C1331 N1332 1.279 . S
C1331 C1334 1.358 . S
C1331 H1388 0.930 . S
N1332 C1331 1.279 . S
N1332 C1335 1.314 . S
C1333 C1330 1.348 . S
C1333 C1335 1.353 . S
C1333 H1389 0.929 . S
C1334 C1330 1.356 . S
C1334 C1331 1.358 . S
C1334 H1390 0.930 . S
C1335 N1332 1.314 . S
C1335 C1333 1.353 . S
C1335 H1391 0.930 . S
C1336 N1337 1.314 . S
C1336 C1341 1.353 . S
C1336 H1342 0.930 . S
N1337 Li1320 1.990 . S
N1337 C1336 1.314 . S
N1337 C1339 1.279 . S
C1338 C1339 1.358 . S
C1338 C1340 1.356 . S
C1338 H1392 0.930 . S
C1339 N1337 1.279 . S
C1339 C1338 1.358 . S
C1339 H1343 0.930 . S
C1340 C1338 1.356 . S
C1340 C1341 1.348 . S
C1341 C1336 1.353 . S
C1341 C1340 1.348 . S
C1341 H1393 0.929 . S
H1342 C1336 0.930 . S
H1343 C1339 0.930 . S
C1344 N1345 1.314 . S
C1344 C1346 1.353 . S
C1344 H1350 0.930 . S
N1345 Li1321 1.990 . S
N1345 C1344 1.314 . S
N1345 C1348 1.279 . S
C1346 C1344 1.353 . S
C1346 C1349 1.348 . S
C1346 H1394 0.929 . S
C1347 C1348 1.358 . S
C1347 C1349 1.356 . S
C1347 H1395 0.930 . S
C1348 N1345 1.279 . S
C1348 C1347 1.358 . S
C1348 H1351 0.930 . S
C1349 C1346 1.348 . S
C1349 C1347 1.356 . S
H1350 C1344 0.930 . S
H1351 C1348 0.930 . S
C1352 C1354 1.348 . S
C1352 C1355 1.356 . S
C1352 O1382 1.325 . S
N1353 C1356 1.314 . S
N1353 C1357 1.279 . S
C1354 C1352 1.348 . S
C1354 C1356 1.353 . S
C1354 H1396 0.929 . S
C1355 C1352 1.356 . S
C1355 C1357 1.358 . S
C1355 H1397 0.930 . S
C1356 N1353 1.314 . S
C1356 C1354 1.353 . S
C1356 H1398 0.930 . S
C1357 N1353 1.279 . S
C1357 C1355 1.358 . S
C1357 H1399 0.930 . S
C1358 C1359 1.348 . S
C1358 C1360 1.356 . S
C1358 O1383 1.325 . S
C1359 C1358 1.348 . S
C1359 C1361 1.353 . S
C1359 H1400 0.929 . S
C1360 C1358 1.356 . S
C1360 C1362 1.358 . S
C1360 H1401 0.930 . S
C1361 C1359 1.353 . S
C1361 N1363 1.314 . S
C1361 H1402 0.930 . S
C1362 C1360 1.358 . S
C1362 N1363 1.279 . S
C1362 H1403 0.930 . S
N1363 C1361 1.314 . S
N1363 C1362 1.279 . S
C1364 C1366 1.353 . S
C1364 N1367 1.314 . S
C1364 H1370 0.930 . S
C1365 N1367 1.279 . S
C1365 C1368 1.358 . S
C1365 H1371 0.930 . S
C1366 C1364 1.353 . S
C1366 C1369 1.348 . S
C1366 H1404 0.929 . S
N1367 Li1322 1.990 . S
N1367 C1364 1.314 . S
N1367 C1365 1.279 . S
C1368 C1365 1.358 . S
C1368 C1369 1.356 . S
C1368 H1405 0.930 . S
C1369 C1366 1.348 . S
C1369 C1368 1.356 . S
H1370 C1364 0.930 . S
H1371 C1365 0.930 . S
C1372 N1373 1.314 . S
C1372 C1374 1.353 . S
C1372 H1378 0.930 . S
N1373 Li1323 1.990 . S
N1373 C1372 1.314 . S
N1373 C1376 1.279 . S
C1374 C1372 1.353 . S
C1374 C1377 1.348 . S
C1374 H1406 0.929 . S
C1375 C1376 1.358 . S
C1375 C1377 1.356 . S
C1375 H1407 0.930 . S
C1376 N1373 1.279 . S
C1376 C1375 1.358 . S
C1376 H1379 0.930 . S
C1377 C1374 1.348 . S
C1377 C1375 1.356 . S
H1378 C1372 0.930 . S
H1379 C1376 0.930 . S
O1380 Li1320 1.956 . S
O1380 Li1321 1.970 . S
O1380 Li1322 1.961 . S
O1380 C1324 1.325 . S
O1381 Li1320 1.970 . S
O1381 Li1321 1.956 . S
O1381 Li1323 1.961 . S
O1381 C1330 1.325 . S
O1382 Li1320 1.961 . S
O1382 Li1322 1.956 . S
O1382 Li1323 1.970 . S
O1382 C1352 1.325 . S
O1383 Li1321 1.961 . S
O1383 Li1322 1.970 . S
O1383 Li1323 1.956 . S
O1383 C1358 1.325 . S
H1384 C1326 0.929 . S
H1385 C1327 0.930 . S
H1386 C1328 0.930 . S
H1387 C1329 0.930 . S
H1388 C1331 0.930 . S
H1389 C1333 0.929 . S
H1390 C1334 0.930 . S
H1391 C1335 0.930 . S
H1392 C1338 0.930 . S
H1393 C1341 0.929 . S
H1394 C1346 0.929 . S
H1395 C1347 0.930 . S
H1396 C1354 0.929 . S
H1397 C1355 0.930 . S
H1398 C1356 0.930 . S
H1399 C1357 0.930 . S
H1400 C1359 0.929 . S
H1401 C1360 0.930 . S
H1402 C1361 0.930 . S
H1403 C1362 0.930 . S
H1404 C1366 0.929 . S
H1405 C1368 0.930 . S
H1406 C1374 0.929 . S
H1407 C1375 0.930 . S
C1408 C1409 1.344 1_556 S
C1408 C1410 1.327 . S
C1408 H1433 0.950 . S
C1409 C1408 1.344 1_554 S
C1409 C1425 1.354 . S
C1410 C1408 1.327 . S
C1410 C1429 1.426 1_556 S
C1410 H1434 0.950 . S
C1411 C1428 1.574 . S
C1411 C1430 1.370 . S
C1411 H1435 0.949 . S
H1412 C1416 0.949 . S
C1413 C1414 1.350 1_554 S
C1413 C1415 1.327 . S
C1413 H1436 0.950 . S
C1414 C1413 1.350 1_556 S
C1414 C1426 1.348 . S
C1415 C1413 1.327 . S
C1415 C1431 1.426 . S
C1415 H1437 0.950 . S
C1416 H1412 0.949 . S
C1416 C1424 1.574 . S
C1416 C1432 1.370 1_556 S
H1417 C1425 0.950 . S
H1418 C1423 0.950 . S
H1419 C1424 0.949 . S
H1420 C1426 0.950 . S
H1421 C1427 0.950 . S
H1422 C1428 0.949 . S
C1423 H1418 0.950 . S
C1423 C1425 1.327 . S
C1423 C1429 1.431 . S
C1424 C1416 1.574 . S
C1424 H1419 0.949 . S
C1424 C1430 1.367 1_556 S
C1425 C1409 1.354 . S
C1425 H1417 0.950 . S
C1425 C1423 1.327 . S
C1426 C1414 1.348 . S
C1426 H1420 0.950 . S
C1426 C1427 1.327 . S
C1427 H1421 0.950 . S
C1427 C1426 1.327 . S
C1427 C1431 1.431 1_556 S
C1428 C1411 1.574 . S
C1428 H1422 0.949 . S
C1428 C1432 1.367 . S
C1429 C1410 1.426 1_554 S
C1429 C1423 1.431 . S
C1429 C1430 1.523 . S
C1430 C1411 1.370 . S
C1430 C1424 1.367 1_554 S
C1430 C1429 1.523 . S
C1431 C1415 1.426 . S
C1431 C1427 1.431 1_554 S
C1431 C1432 1.523 . S
C1432 C1416 1.370 1_554 S
C1432 C1428 1.367 . S
C1432 C1431 1.523 . S
H1433 C1408 0.950 . S
H1434 C1410 0.950 . S
H1435 C1411 0.949 . S
H1436 C1413 0.950 . S
H1437 C1415 0.950 . S
C1438 C1439 1.353 . S
C1438 C1440 1.327 . S
C1438 H1463 0.950 . S
C1439 C1438 1.353 . S
C1439 C1455 1.345 1_554 S
C1440 C1438 1.327 . S
C1440 C1459 1.430 . S
C1440 H1464 0.950 . S
C1441 C1458 1.574 . S
C1441 C1460 1.367 1_556 S
C1441 H1465 0.949 . S
H1442 C1446 0.949 . S
C1443 C1444 1.348 . S
C1443 C1445 1.327 . S
C1443 H1466 0.950 . S
C1444 C1443 1.348 . S
C1444 C1456 1.350 1_556 S
C1445 C1443 1.327 . S
C1445 C1461 1.430 1_556 S
C1445 H1467 0.950 . S
C1446 H1442 0.949 . S
C1446 C1454 1.574 . S
C1446 C1462 1.367 . S
H1447 C1455 0.950 . S
H1448 C1453 0.950 . S
H1449 C1454 0.949 . S
H1450 C1456 0.950 . S
H1451 C1457 0.950 . S
H1452 C1458 0.949 . S
C1453 H1448 0.950 . S
C1453 C1455 1.327 . S
C1453 C1459 1.427 1_556 S
C1454 C1446 1.574 . S
C1454 H1449 0.949 . S
C1454 C1460 1.369 . S
C1455 C1439 1.345 1_556 S
C1455 H1447 0.950 . S
C1455 C1453 1.327 . S
C1456 C1444 1.350 1_554 S
C1456 H1450 0.950 . S
C1456 C1457 1.327 . S
C1457 H1451 0.950 . S
C1457 C1456 1.327 . S
C1457 C1461 1.427 . S
C1458 C1441 1.574 . S
C1458 H1452 0.949 . S
C1458 C1462 1.369 1_556 S
C1459 C1440 1.430 . S
C1459 C1453 1.427 1_554 S
C1459 C1460 1.523 . S
C1460 C1441 1.367 1_554 S
C1460 C1454 1.369 . S
C1460 C1459 1.523 . S
C1461 C1445 1.430 1_554 S
C1461 C1457 1.427 . S
C1461 C1462 1.523 . S
C1462 C1446 1.367 . S
C1462 C1458 1.369 1_554 S
C1462 C1461 1.523 . S
H1463 C1438 0.950 . S
H1464 C1440 0.950 . S
H1465 C1441 0.949 . S
H1466 C1443 0.950 . S
H1467 C1445 0.950 . S
C1468 C1469 1.344 1_556 S
C1468 C1470 1.327 . S
C1468 H1493 0.950 . S
C1469 C1468 1.344 1_554 S
C1469 C1485 1.354 . S
C1470 C1468 1.327 . S
C1470 C1489 1.426 1_556 S
C1470 H1494 0.950 . S
C1471 C1488 1.574 . S
C1471 C1490 1.370 . S
C1471 H1495 0.949 . S
H1472 C1476 0.949 . S
C1473 C1474 1.350 1_554 S
C1473 C1475 1.327 . S
C1473 H1496 0.950 . S
C1474 C1473 1.350 1_556 S
C1474 C1486 1.348 . S
C1475 C1473 1.327 . S
C1475 C1491 1.426 . S
C1475 H1497 0.950 . S
C1476 H1472 0.949 . S
C1476 C1484 1.574 . S
C1476 C1492 1.370 1_556 S
H1477 C1485 0.950 . S
H1478 C1483 0.950 . S
H1479 C1484 0.949 . S
H1480 C1486 0.950 . S
H1481 C1487 0.950 . S
H1482 C1488 0.949 . S
C1483 H1478 0.950 . S
C1483 C1485 1.327 . S
C1483 C1489 1.431 . S
C1484 C1476 1.574 . S
C1484 H1479 0.949 . S
C1484 C1490 1.367 1_556 S
C1485 C1469 1.354 . S
C1485 H1477 0.950 . S
C1485 C1483 1.327 . S
C1486 C1474 1.348 . S
C1486 H1480 0.950 . S
C1486 C1487 1.327 . S
C1487 H1481 0.950 . S
C1487 C1486 1.327 . S
C1487 C1491 1.431 1_556 S
C1488 C1471 1.574 . S
C1488 H1482 0.949 . S
C1488 C1492 1.367 . S
C1489 C1470 1.426 1_554 S
C1489 C1483 1.431 . S
C1489 C1490 1.523 . S
C1490 C1471 1.370 . S
C1490 C1484 1.367 1_554 S
C1490 C1489 1.523 . S
C1491 C1475 1.426 . S
C1491 C1487 1.431 1_554 S
C1491 C1492 1.523 . S
C1492 C1476 1.370 1_554 S
C1492 C1488 1.367 . S
C1492 C1491 1.523 . S
H1493 C1468 0.950 . S
H1494 C1470 0.950 . S
H1495 C1471 0.949 . S
H1496 C1473 0.950 . S
H1497 C1475 0.950 . S
C1498 C1499 1.345 1_556 S
C1498 C1500 1.327 . S
C1498 H1523 0.950 . S
C1499 C1498 1.345 1_554 S
C1499 C1515 1.353 . S
C1500 C1498 1.327 . S
C1500 C1519 1.427 1_556 S
C1500 H1524 0.950 . S
C1501 C1518 1.574 . S
C1501 C1520 1.369 . S
C1501 H1525 0.949 . S
H1502 C1506 0.949 . S
C1503 C1504 1.350 1_554 S
C1503 C1505 1.327 . S
C1503 H1526 0.950 . S
C1504 C1503 1.350 1_556 S
C1504 C1516 1.348 . S
C1505 C1503 1.327 . S
C1505 C1521 1.427 . S
C1505 H1527 0.950 . S
C1506 H1502 0.949 . S
C1506 C1514 1.574 . S
C1506 C1522 1.369 1_556 S
H1507 C1515 0.950 . S
H1508 C1513 0.950 . S
H1509 C1514 0.949 . S
H1510 C1516 0.950 . S
H1511 C1517 0.950 . S
H1512 C1518 0.949 . S
C1513 H1508 0.950 . S
C1513 C1515 1.327 . S
C1513 C1519 1.430 . S
C1514 C1506 1.574 . S
C1514 H1509 0.949 . S
C1514 C1520 1.367 1_556 S
C1515 C1499 1.353 . S
C1515 H1507 0.950 . S
C1515 C1513 1.327 . S
C1516 C1504 1.348 . S
C1516 H1510 0.950 . S
C1516 C1517 1.327 . S
C1517 H1511 0.950 . S
C1517 C1516 1.327 . S
C1517 C1521 1.430 1_556 S
C1518 C1501 1.574 . S
C1518 H1512 0.949 . S
C1518 C1522 1.367 . S
C1519 C1500 1.427 1_554 S
C1519 C1513 1.430 . S
C1519 C1520 1.523 . S
C1520 C1501 1.369 . S
C1520 C1514 1.367 1_554 S
C1520 C1519 1.523 . S
C1521 C1505 1.427 . S
C1521 C1517 1.430 1_554 S
C1521 C1522 1.523 . S
C1522 C1506 1.369 1_554 S
C1522 C1518 1.367 . S
C1522 C1521 1.523 . S
H1523 C1498 0.950 . S
H1524 C1500 0.950 . S
H1525 C1501 0.949 . S
H1526 C1503 0.950 . S
H1527 C1505 0.950 . S
C1528 C1529 1.349 . S
C1528 C1530 1.327 . S
C1528 H1553 0.950 . S
C1529 C1528 1.349 . S
C1529 C1545 1.349 . S
C1530 C1528 1.327 . S
C1530 C1549 1.429 . S
C1530 H1554 0.950 . S
C1531 C1548 1.574 1_545 S
C1531 C1550 1.368 . S
C1531 H1555 0.949 . S
H1532 C1536 0.949 . S
C1533 C1534 1.349 . S
C1533 C1535 1.327 . S
C1533 H1556 0.950 . S
C1534 C1533 1.349 . S
C1534 C1546 1.349 . S
C1535 C1533 1.327 . S
C1535 C1551 1.429 . S
C1535 H1557 0.950 . S
C1536 H1532 0.949 . S
C1536 C1544 1.574 1_565 S
C1536 C1552 1.368 . S
H1537 C1545 0.950 . S
H1538 C1543 0.950 . S
H1539 C1544 0.949 . S
H1540 C1546 0.950 . S
H1541 C1547 0.950 . S
H1542 C1548 0.949 . S
C1543 H1538 0.950 . S
C1543 C1545 1.327 . S
C1543 C1549 1.429 . S
C1544 C1536 1.574 1_545 S
C1544 H1539 0.949 . S
C1544 C1550 1.368 . S
C1545 C1529 1.349 . S
C1545 H1537 0.950 . S
C1545 C1543 1.327 . S
C1546 C1534 1.349 . S
C1546 H1540 0.950 . S
C1546 C1547 1.327 . S
C1547 H1541 0.950 . S
C1547 C1546 1.327 . S
C1547 C1551 1.429 . S
C1548 C1531 1.574 1_565 S
C1548 H1542 0.949 . S
C1548 C1552 1.368 . S
C1549 C1530 1.429 . S
C1549 C1543 1.429 . S
C1549 C1550 1.523 . S
C1550 C1531 1.368 . S
C1550 C1544 1.368 . S
C1550 C1549 1.523 . S
C1551 C1535 1.429 . S
C1551 C1547 1.429 . S
C1551 C1552 1.523 . S
C1552 C1536 1.368 . S
C1552 C1548 1.368 . S
C1552 C1551 1.523 . S
H1553 C1528 0.950 . S
H1554 C1530 0.950 . S
H1555 C1531 0.949 . S
H1556 C1533 0.950 . S
H1557 C1535 0.950 . S
C1558 C1559 1.349 . S
C1558 C1560 1.327 . S
C1558 H1583 0.950 . S
C1559 C1558 1.349 . S
C1559 C1575 1.349 . S
C1560 C1558 1.327 . S
C1560 C1579 1.429 . S
C1560 H1584 0.950 . S
C1561 C1578 1.574 1_655 S
C1561 C1580 1.368 . S
C1561 H1585 0.949 . S
H1562 C1566 0.949 . S
C1563 C1564 1.349 . S
C1563 C1565 1.327 . S
C1563 H1586 0.950 . S
C1564 C1563 1.349 . S
C1564 C1576 1.349 . S
C1565 C1563 1.327 . S
C1565 C1581 1.429 . S
C1565 H1587 0.950 . S
C1566 H1562 0.949 . S
C1566 C1574 1.574 1_455 S
C1566 C1582 1.368 . S
H1567 C1575 0.950 . S
H1568 C1573 0.950 . S
H1569 C1574 0.949 . S
H1570 C1576 0.950 . S
H1571 C1577 0.950 . S
H1572 C1578 0.949 . S
C1573 H1568 0.950 . S
C1573 C1575 1.327 . S
C1573 C1579 1.429 . S
C1574 C1566 1.574 1_655 S
C1574 H1569 0.949 . S
C1574 C1580 1.368 . S
C1575 C1559 1.349 . S
C1575 H1567 0.950 . S
C1575 C1573 1.327 . S
C1576 C1564 1.349 . S
C1576 H1570 0.950 . S
C1576 C1577 1.327 . S
C1577 H1571 0.950 . S
C1577 C1576 1.327 . S
C1577 C1581 1.429 . S
C1578 C1561 1.574 1_455 S
C1578 H1572 0.949 . S
C1578 C1582 1.368 . S
C1579 C1560 1.429 . S
C1579 C1573 1.429 . S
C1579 C1580 1.523 . S
C1580 C1561 1.368 . S
C1580 C1574 1.368 . S
C1580 C1579 1.523 . S
C1581 C1565 1.429 . S
C1581 C1577 1.429 . S
C1581 C1582 1.523 . S
C1582 C1566 1.368 . S
C1582 C1578 1.368 . S
C1582 C1581 1.523 . S
H1583 C1558 0.950 . S
H1584 C1560 0.950 . S
H1585 C1561 0.949 . S
H1586 C1563 0.950 . S
H1587 C1565 0.950 . S
C1588 C1589 1.349 . S
C1588 C1590 1.327 . S
C1588 H1613 0.950 . S
C1589 C1588 1.349 . S
C1589 C1605 1.349 . S
C1590 C1588 1.327 . S
C1590 C1609 1.429 . S
C1590 H1614 0.950 . S
C1591 C1608 1.574 1_545 S
C1591 C1610 1.368 . S
C1591 H1615 0.949 . S
H1592 C1596 0.949 . S
C1593 C1594 1.349 . S
C1593 C1595 1.327 . S
C1593 H1616 0.950 . S
C1594 C1593 1.349 . S
C1594 C1606 1.349 . S
C1595 C1593 1.327 . S
C1595 C1611 1.429 . S
C1595 H1617 0.950 . S
C1596 H1592 0.949 . S
C1596 C1604 1.574 1_565 S
C1596 C1612 1.368 . S
H1597 C1605 0.950 . S
H1598 C1603 0.950 . S
H1599 C1604 0.949 . S
H1600 C1606 0.950 . S
H1601 C1607 0.950 . S
H1602 C1608 0.949 . S
C1603 H1598 0.950 . S
C1603 C1605 1.327 . S
C1603 C1609 1.429 . S
C1604 C1596 1.574 1_545 S
C1604 H1599 0.949 . S
C1604 C1610 1.368 . S
C1605 C1589 1.349 . S
C1605 H1597 0.950 . S
C1605 C1603 1.327 . S
C1606 C1594 1.349 . S
C1606 H1600 0.950 . S
C1606 C1607 1.327 . S
C1607 H1601 0.950 . S
C1607 C1606 1.327 . S
C1607 C1611 1.429 . S
C1608 C1591 1.574 1_565 S
C1608 H1602 0.949 . S
C1608 C1612 1.368 . S
C1609 C1590 1.429 . S
C1609 C1603 1.429 . S
C1609 C1610 1.523 . S
C1610 C1591 1.368 . S
C1610 C1604 1.368 . S
C1610 C1609 1.523 . S
C1611 C1595 1.429 . S
C1611 C1607 1.429 . S
C1611 C1612 1.523 . S
C1612 C1596 1.368 . S
C1612 C1608 1.368 . S
C1612 C1611 1.523 . S
H1613 C1588 0.950 . S
H1614 C1590 0.950 . S
H1615 C1591 0.949 . S
H1616 C1593 0.950 . S
H1617 C1595 0.950 . S
C1618 C1619 1.349 . S
C1618 C1620 1.327 . S
C1618 H1643 0.950 . S
C1619 C1618 1.349 . S
C1619 C1635 1.349 . S
C1620 C1618 1.327 . S
C1620 C1639 1.429 . S
C1620 H1644 0.950 . S
C1621 C1638 1.574 1_455 S
C1621 C1640 1.368 . S
C1621 H1645 0.949 . S
H1622 C1626 0.949 . S
C1623 C1624 1.349 . S
C1623 C1625 1.327 . S
C1623 H1646 0.950 . S
C1624 C1623 1.349 . S
C1624 C1636 1.349 . S
C1625 C1623 1.327 . S
C1625 C1641 1.429 . S
C1625 H1647 0.950 . S
C1626 H1622 0.949 . S
C1626 C1634 1.574 1_655 S
C1626 C1642 1.368 . S
H1627 C1635 0.950 . S
H1628 C1633 0.950 . S
H1629 C1634 0.949 . S
H1630 C1636 0.950 . S
H1631 C1637 0.950 . S
H1632 C1638 0.949 . S
C1633 H1628 0.950 . S
C1633 C1635 1.327 . S
C1633 C1639 1.429 . S
C1634 C1626 1.574 1_455 S
C1634 H1629 0.949 . S
C1634 C1640 1.368 . S
C1635 C1619 1.349 . S
C1635 H1627 0.950 . S
C1635 C1633 1.327 . S
C1636 C1624 1.349 . S
C1636 H1630 0.950 . S
C1636 C1637 1.327 . S
C1637 H1631 0.950 . S
C1637 C1636 1.327 . S
C1637 C1641 1.429 . S
C1638 C1621 1.574 1_655 S
C1638 H1632 0.949 . S
C1638 C1642 1.368 . S
C1639 C1620 1.429 . S
C1639 C1633 1.429 . S
C1639 C1640 1.523 . S
C1640 C1621 1.368 . S
C1640 C1634 1.368 . S
C1640 C1639 1.523 . S
C1641 C1625 1.429 . S
C1641 C1637 1.429 . S
C1641 C1642 1.523 . S
C1642 C1626 1.368 . S
C1642 C1638 1.368 . S
C1642 C1641 1.523 . S
H1643 C1618 0.950 . S
H1644 C1620 0.950 . S
H1645 C1621 0.949 . S
H1646 C1623 0.950 . S
H1647 C1625 0.950 . S
C1648 C1649 1.354 . S
C1648 C1650 1.327 . S
C1648 H1673 0.950 . S
C1649 C1648 1.354 . S
C1649 C1665 1.344 1_554 S
C1650 C1648 1.327 . S
C1650 C1669 1.431 . S
C1650 H1674 0.950 . S
C1651 C1668 1.574 . S
C1651 C1670 1.367 1_556 S
C1651 H1675 0.949 . S
H1652 C1656 0.949 . S
C1653 C1654 1.348 . S
C1653 C1655 1.327 . S
C1653 H1676 0.950 . S
C1654 C1653 1.348 . S
C1654 C1666 1.350 1_556 S
C1655 C1653 1.327 . S
C1655 C1671 1.431 1_556 S
C1655 H1677 0.950 . S
C1656 H1652 0.949 . S
C1656 C1664 1.574 . S
C1656 C1672 1.367 . S
H1657 C1665 0.950 . S
H1658 C1663 0.950 . S
H1659 C1664 0.949 . S
H1660 C1666 0.950 . S
H1661 C1667 0.950 . S
H1662 C1668 0.949 . S
C1663 H1658 0.950 . S
C1663 C1665 1.327 . S
C1663 C1669 1.426 1_556 S
C1664 C1656 1.574 . S
C1664 H1659 0.949 . S
C1664 C1670 1.370 . S
C1665 C1649 1.344 1_556 S
C1665 H1657 0.950 . S
C1665 C1663 1.327 . S
C1666 C1654 1.350 1_554 S
C1666 H1660 0.950 . S
C1666 C1667 1.327 . S
C1667 H1661 0.950 . S
C1667 C1666 1.327 . S
C1667 C1671 1.426 . S
C1668 C1651 1.574 . S
C1668 H1662 0.949 . S
C1668 C1672 1.370 1_556 S
C1669 C1650 1.431 . S
C1669 C1663 1.426 1_554 S
C1669 C1670 1.523 . S
C1670 C1651 1.367 1_554 S
C1670 C1664 1.370 . S
C1670 C1669 1.523 . S
C1671 C1655 1.431 1_554 S
C1671 C1667 1.426 . S
C1671 C1672 1.523 . S
C1672 C1656 1.367 . S
C1672 C1668 1.370 1_554 S
C1672 C1671 1.523 . S
H1673 C1648 0.950 . S
H1674 C1650 0.950 . S
H1675 C1651 0.949 . S
H1676 C1653 0.950 . S
H1677 C1655 0.950 . S
C1678 C1679 1.348 . S
C1678 C1680 1.327 . S
C1678 H1703 0.950 . S
C1679 C1678 1.348 . S
C1679 C1695 1.350 1_556 S
C1680 C1678 1.327 . S
C1680 C1699 1.431 1_556 S
C1680 H1704 0.950 . S
C1681 C1698 1.574 . S
C1681 C1700 1.367 . S
C1681 H1705 0.949 . S
H1682 C1686 0.949 . S
C1683 C1684 1.354 . S
C1683 C1685 1.327 . S
C1683 H1706 0.950 . S
C1684 C1683 1.354 . S
C1684 C1696 1.344 1_554 S
C1685 C1683 1.327 . S
C1685 C1701 1.431 . S
C1685 H1707 0.950 . S
C1686 H1682 0.949 . S
C1686 C1694 1.574 . S
C1686 C1702 1.367 1_556 S
H1687 C1695 0.950 . S
H1688 C1693 0.950 . S
H1689 C1694 0.949 . S
H1690 C1696 0.950 . S
H1691 C1697 0.950 . S
H1692 C1698 0.949 . S
C1693 H1688 0.950 . S
C1693 C1695 1.327 . S
C1693 C1699 1.426 . S
C1694 C1686 1.574 . S
C1694 H1689 0.949 . S
C1694 C1700 1.370 1_556 S
C1695 C1679 1.350 1_554 S
C1695 H1687 0.950 . S
C1695 C1693 1.327 . S
C1696 C1684 1.344 1_556 S
C1696 H1690 0.950 . S
C1696 C1697 1.327 . S
C1697 H1691 0.950 . S
C1697 C1696 1.327 . S
C1697 C1701 1.426 1_556 S
C1698 C1681 1.574 . S
C1698 H1692 0.949 . S
C1698 C1702 1.370 . S
C1699 C1680 1.431 1_554 S
C1699 C1693 1.426 . S
C1699 C1700 1.523 . S
C1700 C1681 1.367 . S
C1700 C1694 1.370 1_554 S
C1700 C1699 1.523 . S
C1701 C1685 1.431 . S
C1701 C1697 1.426 1_554 S
C1701 C1702 1.523 . S
C1702 C1686 1.367 1_554 S
C1702 C1698 1.370 . S
C1702 C1701 1.523 . S
H1703 C1678 0.950 . S
H1704 C1680 0.950 . S
H1705 C1681 0.949 . S
H1706 C1683 0.950 . S
H1707 C1685 0.950 . S
C1708 C1709 1.354 . S
C1708 C1710 1.327 . S
C1708 H1733 0.950 . S
C1709 C1708 1.354 . S
C1709 C1725 1.344 1_554 S
C1710 C1708 1.327 . S
C1710 C1729 1.431 . S
C1710 H1734 0.950 . S
C1711 C1728 1.574 . S
C1711 C1730 1.367 1_556 S
C1711 H1735 0.949 . S
H1712 C1716 0.949 . S
C1713 C1714 1.348 . S
C1713 C1715 1.327 . S
C1713 H1736 0.950 . S
C1714 C1713 1.348 . S
C1714 C1726 1.350 1_556 S
C1715 C1713 1.327 . S
C1715 C1731 1.431 1_556 S
C1715 H1737 0.950 . S
C1716 H1712 0.949 . S
C1716 C1724 1.574 . S
C1716 C1732 1.367 . S
H1717 C1725 0.950 . S
H1718 C1723 0.950 . S
H1719 C1724 0.949 . S
H1720 C1726 0.950 . S
H1721 C1727 0.950 . S
H1722 C1728 0.949 . S
C1723 H1718 0.950 . S
C1723 C1725 1.327 . S
C1723 C1729 1.426 1_556 S
C1724 C1716 1.574 . S
C1724 H1719 0.949 . S
C1724 C1730 1.370 . S
C1725 C1709 1.344 1_556 S
C1725 H1717 0.950 . S
C1725 C1723 1.327 . S
C1726 C1714 1.350 1_554 S
C1726 H1720 0.950 . S
C1726 C1727 1.327 . S
C1727 H1721 0.950 . S
C1727 C1726 1.327 . S
C1727 C1731 1.426 . S
C1728 C1711 1.574 . S
C1728 H1722 0.949 . S
C1728 C1732 1.370 1_556 S
C1729 C1710 1.431 . S
C1729 C1723 1.426 1_554 S
C1729 C1730 1.523 . S
C1730 C1711 1.367 1_554 S
C1730 C1724 1.370 . S
C1730 C1729 1.523 . S
C1731 C1715 1.431 1_554 S
C1731 C1727 1.426 . S
C1731 C1732 1.523 . S
C1732 C1716 1.367 . S
C1732 C1728 1.370 1_554 S
C1732 C1731 1.523 . S
H1733 C1708 0.950 . S
H1734 C1710 0.950 . S
H1735 C1711 0.949 . S
H1736 C1713 0.950 . S
H1737 C1715 0.950 . S
C1738 C1739 1.350 1_554 S
C1738 C1740 1.327 . S
C1738 H1763 0.950 . S
C1739 C1738 1.350 1_556 S
C1739 C1755 1.348 . S
C1740 C1738 1.327 . S
C1740 C1759 1.426 . S
C1740 H1764 0.950 . S
C1741 C1758 1.574 . S
C1741 C1760 1.370 1_556 S
C1741 H1765 0.949 . S
H1742 C1746 0.949 . S
C1743 C1744 1.344 1_556 S
C1743 C1745 1.327 . S
C1743 H1766 0.950 . S
C1744 C1743 1.344 1_554 S
C1744 C1756 1.354 . S
C1745 C1743 1.327 . S
C1745 C1761 1.426 1_556 S
C1745 H1767 0.950 . S
C1746 H1742 0.949 . S
C1746 C1754 1.574 . S
C1746 C1762 1.370 . S
H1747 C1755 0.950 . S
H1748 C1753 0.950 . S
H1749 C1754 0.949 . S
H1750 C1756 0.950 . S
H1751 C1757 0.950 . S
H1752 C1758 0.949 . S
C1753 H1748 0.950 . S
C1753 C1755 1.327 . S
C1753 C1759 1.431 1_556 S
C1754 C1746 1.574 . S
C1754 H1749 0.949 . S
C1754 C1760 1.367 . S
C1755 C1739 1.348 . S
C1755 H1747 0.950 . S
C1755 C1753 1.327 . S
C1756 C1744 1.354 . S
C1756 H1750 0.950 . S
C1756 C1757 1.327 . S
C1757 H1751 0.950 . S
C1757 C1756 1.327 . S
C1757 C1761 1.431 . S
C1758 C1741 1.574 . S
C1758 H1752 0.949 . S
C1758 C1762 1.367 1_556 S
C1759 C1740 1.426 . S
C1759 C1753 1.431 1_554 S
C1759 C1760 1.523 . S
C1760 C1741 1.370 1_554 S
C1760 C1754 1.367 . S
C1760 C1759 1.523 . S
C1761 C1745 1.426 1_554 S
C1761 C1757 1.431 . S
C1761 C1762 1.523 . S
C1762 C1746 1.370 . S
C1762 C1758 1.367 1_554 S
C1762 C1761 1.523 . S
H1763 C1738 0.950 . S
H1764 C1740 0.950 . S
H1765 C1741 0.949 . S
H1766 C1743 0.950 . S
H1767 C1745 0.950 . S
C1768 C1769 1.349 . S
C1768 C1770 1.327 . S
C1768 H1793 0.950 . S
C1769 C1768 1.349 . S
C1769 C1785 1.349 . S
C1770 C1768 1.327 . S
C1770 C1789 1.429 . S
C1770 H1794 0.950 . S
C1771 C1788 1.574 . S
C1771 C1790 1.368 . S
C1771 H1795 0.949 . S
H1772 C1776 0.949 . S
C1773 C1774 1.349 . S
C1773 C1775 1.327 . S
C1773 H1796 0.950 . S
C1774 C1773 1.349 . S
C1774 C1786 1.349 . S
C1775 C1773 1.327 . S
C1775 C1791 1.429 . S
C1775 H1797 0.950 . S
C1776 H1772 0.949 . S
C1776 C1784 1.574 . S
C1776 C1792 1.368 . S
H1777 C1785 0.950 . S
H1778 C1783 0.950 . S
H1779 C1784 0.949 . S
H1780 C1786 0.950 . S
H1781 C1787 0.950 . S
H1782 C1788 0.949 . S
C1783 H1778 0.950 . S
C1783 C1785 1.327 . S
C1783 C1789 1.429 . S
C1784 C1776 1.574 . S
C1784 H1779 0.949 . S
C1784 C1790 1.368 . S
C1785 C1769 1.349 . S
C1785 H1777 0.950 . S
C1785 C1783 1.327 . S
C1786 C1774 1.349 . S
C1786 H1780 0.950 . S
C1786 C1787 1.327 . S
C1787 H1781 0.950 . S
C1787 C1786 1.327 . S
C1787 C1791 1.429 . S
C1788 C1771 1.574 . S
C1788 H1782 0.949 . S
C1788 C1792 1.368 . S
C1789 C1770 1.429 . S
C1789 C1783 1.429 . S
C1789 C1790 1.523 . S
C1790 C1771 1.368 . S
C1790 C1784 1.368 . S
C1790 C1789 1.523 . S
C1791 C1775 1.429 . S
C1791 C1787 1.429 . S
C1791 C1792 1.523 . S
C1792 C1776 1.368 . S
C1792 C1788 1.368 . S
C1792 C1791 1.523 . S
H1793 C1768 0.950 . S
H1794 C1770 0.950 . S
H1795 C1771 0.949 . S
H1796 C1773 0.950 . S
H1797 C1775 0.950 . S
C1798 C1799 1.349 . S
C1798 C1800 1.327 . S
C1798 H1823 0.950 . S
C1799 C1798 1.349 . S
C1799 C1815 1.349 . S
C1800 C1798 1.327 . S
C1800 C1819 1.429 . S
C1800 H1824 0.950 . S
C1801 C1818 1.574 . S
C1801 C1820 1.368 . S
C1801 H1825 0.949 . S
H1802 C1806 0.949 . S
C1803 C1804 1.349 . S
C1803 C1805 1.327 . S
C1803 H1826 0.950 . S
C1804 C1803 1.349 . S
C1804 C1816 1.349 . S
C1805 C1803 1.327 . S
C1805 C1821 1.429 . S
C1805 H1827 0.950 . S
C1806 H1802 0.949 . S
C1806 C1814 1.574 . S
C1806 C1822 1.368 . S
H1807 C1815 0.950 . S
H1808 C1813 0.950 . S
H1809 C1814 0.949 . S
H1810 C1816 0.950 . S
H1811 C1817 0.950 . S
H1812 C1818 0.949 . S
C1813 H1808 0.950 . S
C1813 C1815 1.327 . S
C1813 C1819 1.429 . S
C1814 C1806 1.574 . S
C1814 H1809 0.949 . S
C1814 C1820 1.368 . S
C1815 C1799 1.349 . S
C1815 H1807 0.950 . S
C1815 C1813 1.327 . S
C1816 C1804 1.349 . S
C1816 H1810 0.950 . S
C1816 C1817 1.327 . S
C1817 H1811 0.950 . S
C1817 C1816 1.327 . S
C1817 C1821 1.429 . S
C1818 C1801 1.574 . S
C1818 H1812 0.949 . S
C1818 C1822 1.368 . S
C1819 C1800 1.429 . S
C1819 C1813 1.429 . S
C1819 C1820 1.523 . S
C1820 C1801 1.368 . S
C1820 C1814 1.368 . S
C1820 C1819 1.523 . S
C1821 C1805 1.429 . S
C1821 C1817 1.429 . S
C1821 C1822 1.523 . S
C1822 C1806 1.368 . S
C1822 C1818 1.368 . S
C1822 C1821 1.523 . S
H1823 C1798 0.950 . S
H1824 C1800 0.950 . S
H1825 C1801 0.949 . S
H1826 C1803 0.950 . S
H1827 C1805 0.950 . S
C1828 C1829 1.349 . S
C1828 C1830 1.327 . S
C1828 H1853 0.950 . S
C1829 C1828 1.349 . S
C1829 C1845 1.349 . S
C1830 C1828 1.327 . S
C1830 C1849 1.429 . S
C1830 H1854 0.950 . S
C1831 C1848 1.574 . S
C1831 C1850 1.368 . S
C1831 H1855 0.949 . S
H1832 C1836 0.949 . S
C1833 C1834 1.349 . S
C1833 C1835 1.327 . S
C1833 H1856 0.950 . S
C1834 C1833 1.349 . S
C1834 C1846 1.349 . S
C1835 C1833 1.327 . S
C1835 C1851 1.429 . S
C1835 H1857 0.950 . S
C1836 H1832 0.949 . S
C1836 C1844 1.574 . S
C1836 C1852 1.368 . S
H1837 C1845 0.950 . S
H1838 C1843 0.950 . S
H1839 C1844 0.949 . S
H1840 C1846 0.950 . S
H1841 C1847 0.950 . S
H1842 C1848 0.949 . S
C1843 H1838 0.950 . S
C1843 C1845 1.327 . S
C1843 C1849 1.429 . S
C1844 C1836 1.574 . S
C1844 H1839 0.949 . S
C1844 C1850 1.368 . S
C1845 C1829 1.349 . S
C1845 H1837 0.950 . S
C1845 C1843 1.327 . S
C1846 C1834 1.349 . S
C1846 H1840 0.950 . S
C1846 C1847 1.327 . S
C1847 H1841 0.950 . S
C1847 C1846 1.327 . S
C1847 C1851 1.429 . S
C1848 C1831 1.574 . S
C1848 H1842 0.949 . S
C1848 C1852 1.368 . S
C1849 C1830 1.429 . S
C1849 C1843 1.429 . S
C1849 C1850 1.523 . S
C1850 C1831 1.368 . S
C1850 C1844 1.368 . S
C1850 C1849 1.523 . S
C1851 C1835 1.429 . S
C1851 C1847 1.429 . S
C1851 C1852 1.523 . S
C1852 C1836 1.368 . S
C1852 C1848 1.368 . S
C1852 C1851 1.523 . S
H1853 C1828 0.950 . S
H1854 C1830 0.950 . S
H1855 C1831 0.949 . S
H1856 C1833 0.950 . S
H1857 C1835 0.950 . S
C1858 C1859 1.349 . S
C1858 C1860 1.327 . S
C1858 H1883 0.950 . S
C1859 C1858 1.349 . S
C1859 C1875 1.349 . S
C1860 C1858 1.327 . S
C1860 C1879 1.429 . S
C1860 H1884 0.950 . S
C1861 C1878 1.574 . S
C1861 C1880 1.368 . S
C1861 H1885 0.949 . S
H1862 C1866 0.949 . S
C1863 C1864 1.349 . S
C1863 C1865 1.327 . S
C1863 H1886 0.950 . S
C1864 C1863 1.349 . S
C1864 C1876 1.349 . S
C1865 C1863 1.327 . S
C1865 C1881 1.429 . S
C1865 H1887 0.950 . S
C1866 H1862 0.949 . S
C1866 C1874 1.574 . S
C1866 C1882 1.368 . S
H1867 C1875 0.950 . S
H1868 C1873 0.950 . S
H1869 C1874 0.949 . S
H1870 C1876 0.950 . S
H1871 C1877 0.950 . S
H1872 C1878 0.949 . S
C1873 H1868 0.950 . S
C1873 C1875 1.327 . S
C1873 C1879 1.429 . S
C1874 C1866 1.574 . S
C1874 H1869 0.949 . S
C1874 C1880 1.368 . S
C1875 C1859 1.349 . S
C1875 H1867 0.950 . S
C1875 C1873 1.327 . S
C1876 C1864 1.349 . S
C1876 H1870 0.950 . S
C1876 C1877 1.327 . S
C1877 H1871 0.950 . S
C1877 C1876 1.327 . S
C1877 C1881 1.429 . S
C1878 C1861 1.574 . S
C1878 H1872 0.949 . S
C1878 C1882 1.368 . S
C1879 C1860 1.429 . S
C1879 C1873 1.429 . S
C1879 C1880 1.523 . S
C1880 C1861 1.368 . S
C1880 C1874 1.368 . S
C1880 C1879 1.523 . S
C1881 C1865 1.429 . S
C1881 C1877 1.429 . S
C1881 C1882 1.523 . S
C1882 C1866 1.368 . S
C1882 C1878 1.368 . S
C1882 C1881 1.523 . S
H1883 C1858 0.950 . S
H1884 C1860 0.950 . S
H1885 C1861 0.949 . S
H1886 C1863 0.950 . S
H1887 C1865 0.950 . S
C1888 C1889 1.349 . S
C1888 C1890 1.327 . S
C1888 H1913 0.950 . S
C1889 C1888 1.349 . S
C1889 C1905 1.349 . S
C1890 C1888 1.327 . S
C1890 C1909 1.429 . S
C1890 H1914 0.950 . S
C1891 C1908 1.574 . S
C1891 C1910 1.368 . S
C1891 H1915 0.949 . S
H1892 C1896 0.949 . S
C1893 C1894 1.349 . S
C1893 C1895 1.327 . S
C1893 H1916 0.950 . S
C1894 C1893 1.349 . S
C1894 C1906 1.349 . S
C1895 C1893 1.327 . S
C1895 C1911 1.429 . S
C1895 H1917 0.950 . S
C1896 H1892 0.949 . S
C1896 C1904 1.574 . S
C1896 C1912 1.368 . S
H1897 C1905 0.950 . S
H1898 C1903 0.950 . S
H1899 C1904 0.949 . S
H1900 C1906 0.950 . S
H1901 C1907 0.950 . S
H1902 C1908 0.949 . S
C1903 H1898 0.950 . S
C1903 C1905 1.327 . S
C1903 C1909 1.429 . S
C1904 C1896 1.574 . S
C1904 H1899 0.949 . S
C1904 C1910 1.368 . S
C1905 C1889 1.349 . S
C1905 H1897 0.950 . S
C1905 C1903 1.327 . S
C1906 C1894 1.349 . S
C1906 H1900 0.950 . S
C1906 C1907 1.327 . S
C1907 H1901 0.950 . S
C1907 C1906 1.327 . S
C1907 C1911 1.429 . S
C1908 C1891 1.574 . S
C1908 H1902 0.949 . S
C1908 C1912 1.368 . S
C1909 C1890 1.429 . S
C1909 C1903 1.429 . S
C1909 C1910 1.523 . S
C1910 C1891 1.368 . S
C1910 C1904 1.368 . S
C1910 C1909 1.523 . S
C1911 C1895 1.429 . S
C1911 C1907 1.429 . S
C1911 C1912 1.523 . S
C1912 C1896 1.368 . S
C1912 C1908 1.368 . S
C1912 C1911 1.523 . S
H1913 C1888 0.950 . S
H1914 C1890 0.950 . S
H1915 C1891 0.949 . S
H1916 C1893 0.950 . S
H1917 C1895 0.950 . S
C1918 C1919 1.349 . S
C1918 C1920 1.327 . S
C1918 H1943 0.950 . S
C1919 C1918 1.349 . S
C1919 C1935 1.349 . S
C1920 C1918 1.327 . S
C1920 C1939 1.429 . S
C1920 H1944 0.950 . S
C1921 C1938 1.574 . S
C1921 C1940 1.368 . S
C1921 H1945 0.949 . S
H1922 C1926 0.949 . S
C1923 C1924 1.349 . S
C1923 C1925 1.327 . S
C1923 H1946 0.950 . S
C1924 C1923 1.349 . S
C1924 C1936 1.349 . S
C1925 C1923 1.327 . S
C1925 C1941 1.429 . S
C1925 H1947 0.950 . S
C1926 H1922 0.949 . S
C1926 C1934 1.574 . S
C1926 C1942 1.368 . S
H1927 C1935 0.950 . S
H1928 C1933 0.950 . S
H1929 C1934 0.949 . S
H1930 C1936 0.950 . S
H1931 C1937 0.950 . S
H1932 C1938 0.949 . S
C1933 H1928 0.950 . S
C1933 C1935 1.327 . S
C1933 C1939 1.429 . S
C1934 C1926 1.574 . S
C1934 H1929 0.949 . S
C1934 C1940 1.368 . S
C1935 C1919 1.349 . S
C1935 H1927 0.950 . S
C1935 C1933 1.327 . S
C1936 C1924 1.349 . S
C1936 H1930 0.950 . S
C1936 C1937 1.327 . S
C1937 H1931 0.950 . S
C1937 C1936 1.327 . S
C1937 C1941 1.429 . S
C1938 C1921 1.574 . S
C1938 H1932 0.949 . S
C1938 C1942 1.368 . S
C1939 C1920 1.429 . S
C1939 C1933 1.429 . S
C1939 C1940 1.523 . S
C1940 C1921 1.368 . S
C1940 C1934 1.368 . S
C1940 C1939 1.523 . S
C1941 C1925 1.429 . S
C1941 C1937 1.429 . S
C1941 C1942 1.523 . S
C1942 C1926 1.368 . S
C1942 C1938 1.368 . S
C1942 C1941 1.523 . S
H1943 C1918 0.950 . S
H1944 C1920 0.950 . S
H1945 C1921 0.949 . S
H1946 C1923 0.950 . S
H1947 C1925 0.950 . S
C1948 C1949 1.349 . S
C1948 C1950 1.327 . S
C1948 H1973 0.950 . S
C1949 C1948 1.349 . S
C1949 C1965 1.349 . S
C1950 C1948 1.327 . S
C1950 C1969 1.429 . S
C1950 H1974 0.950 . S
C1951 C1968 1.574 . S
C1951 C1970 1.368 . S
C1951 H1975 0.949 . S
H1952 C1956 0.949 . S
C1953 C1954 1.349 . S
C1953 C1955 1.327 . S
C1953 H1976 0.950 . S
C1954 C1953 1.349 . S
C1954 C1966 1.349 . S
C1955 C1953 1.327 . S
C1955 C1971 1.429 . S
C1955 H1977 0.950 . S
C1956 H1952 0.949 . S
C1956 C1964 1.574 . S
C1956 C1972 1.368 . S
H1957 C1965 0.950 . S
H1958 C1963 0.950 . S
H1959 C1964 0.949 . S
H1960 C1966 0.950 . S
H1961 C1967 0.950 . S
H1962 C1968 0.949 . S
C1963 H1958 0.950 . S
C1963 C1965 1.327 . S
C1963 C1969 1.429 . S
C1964 C1956 1.574 . S
C1964 H1959 0.949 . S
C1964 C1970 1.368 . S
C1965 C1949 1.349 . S
C1965 H1957 0.950 . S
C1965 C1963 1.327 . S
C1966 C1954 1.349 . S
C1966 H1960 0.950 . S
C1966 C1967 1.327 . S
C1967 H1961 0.950 . S
C1967 C1966 1.327 . S
C1967 C1971 1.429 . S
C1968 C1951 1.574 . S
C1968 H1962 0.949 . S
C1968 C1972 1.368 . S
C1969 C1950 1.429 . S
C1969 C1963 1.429 . S
C1969 C1970 1.523 . S
C1970 C1951 1.368 . S
C1970 C1964 1.368 . S
C1970 C1969 1.523 . S
C1971 C1955 1.429 . S
C1971 C1967 1.429 . S
C1971 C1972 1.523 . S
C1972 C1956 1.368 . S
C1972 C1968 1.368 . S
C1972 C1971 1.523 . S
H1973 C1948 0.950 . S
H1974 C1950 0.950 . S
H1975 C1951 0.949 . S
H1976 C1953 0.950 . S
H1977 C1955 0.950 . S
C1978 C1979 1.349 . S
C1978 C1980 1.327 . S
C1978 H2003 0.950 . S
C1979 C1978 1.349 . S
C1979 C1995 1.349 . S
C1980 C1978 1.327 . S
C1980 C1999 1.429 . S
C1980 H2004 0.950 . S
C1981 C1998 1.574 . S
C1981 C2000 1.368 . S
C1981 H2005 0.949 . S
H1982 C1986 0.949 . S
C1983 C1984 1.349 . S
C1983 C1985 1.327 . S
C1983 H2006 0.950 . S
C1984 C1983 1.349 . S
C1984 C1996 1.349 . S
C1985 C1983 1.327 . S
C1985 C2001 1.429 . S
C1985 H2007 0.950 . S
C1986 H1982 0.949 . S
C1986 C1994 1.574 . S
C1986 C2002 1.368 . S
H1987 C1995 0.950 . S
H1988 C1993 0.950 . S
H1989 C1994 0.949 . S
H1990 C1996 0.950 . S
H1991 C1997 0.950 . S
H1992 C1998 0.949 . S
C1993 H1988 0.950 . S
C1993 C1995 1.327 . S
C1993 C1999 1.429 . S
C1994 C1986 1.574 . S
C1994 H1989 0.949 . S
C1994 C2000 1.368 . S
C1995 C1979 1.349 . S
C1995 H1987 0.950 . S
C1995 C1993 1.327 . S
C1996 C1984 1.349 . S
C1996 H1990 0.950 . S
C1996 C1997 1.327 . S
C1997 H1991 0.950 . S
C1997 C1996 1.327 . S
C1997 C2001 1.429 . S
C1998 C1981 1.574 . S
C1998 H1992 0.949 . S
C1998 C2002 1.368 . S
C1999 C1980 1.429 . S
C1999 C1993 1.429 . S
C1999 C2000 1.523 . S
C2000 C1981 1.368 . S
C2000 C1994 1.368 . S
C2000 C1999 1.523 . S
C2001 C1985 1.429 . S
C2001 C1997 1.429 . S
C2001 C2002 1.523 . S
C2002 C1986 1.368 . S
C2002 C1998 1.368 . S
C2002 C2001 1.523 . S
H2003 C1978 0.950 . S
H2004 C1980 0.950 . S
H2005 C1981 0.949 . S
H2006 C1983 0.950 . S
H2007 C1985 0.950 . S
C2008 C2009 1.349 . S
C2008 C2010 1.327 . S
C2008 H2033 0.950 . S
C2009 C2008 1.349 . S
C2009 C2025 1.349 . S
C2010 C2008 1.327 . S
C2010 C2029 1.429 . S
C2010 H2034 0.950 . S
C2011 C2028 1.574 . S
C2011 C2030 1.368 . S
C2011 H2035 0.949 . S
H2012 C2016 0.949 . S
C2013 C2014 1.349 . S
C2013 C2015 1.327 . S
C2013 H2036 0.950 . S
C2014 C2013 1.349 . S
C2014 C2026 1.349 . S
C2015 C2013 1.327 . S
C2015 C2031 1.429 . S
C2015 H2037 0.950 . S
C2016 H2012 0.949 . S
C2016 C2024 1.574 . S
C2016 C2032 1.368 . S
H2017 C2025 0.950 . S
H2018 C2023 0.950 . S
H2019 C2024 0.949 . S
H2020 C2026 0.950 . S
H2021 C2027 0.950 . S
H2022 C2028 0.949 . S
C2023 H2018 0.950 . S
C2023 C2025 1.327 . S
C2023 C2029 1.429 . S
C2024 C2016 1.574 . S
C2024 H2019 0.949 . S
C2024 C2030 1.368 . S
C2025 C2009 1.349 . S
C2025 H2017 0.950 . S
C2025 C2023 1.327 . S
C2026 C2014 1.349 . S
C2026 H2020 0.950 . S
C2026 C2027 1.327 . S
C2027 H2021 0.950 . S
C2027 C2026 1.327 . S
C2027 C2031 1.429 . S
C2028 C2011 1.574 . S
C2028 H2022 0.949 . S
C2028 C2032 1.368 . S
C2029 C2010 1.429 . S
C2029 C2023 1.429 . S
C2029 C2030 1.523 . S
C2030 C2011 1.368 . S
C2030 C2024 1.368 . S
C2030 C2029 1.523 . S
C2031 C2015 1.429 . S
C2031 C2027 1.429 . S
C2031 C2032 1.523 . S
C2032 C2016 1.368 . S
C2032 C2028 1.368 . S
C2032 C2031 1.523 . S
H2033 C2008 0.950 . S
H2034 C2010 0.950 . S
H2035 C2011 0.949 . S
H2036 C2013 0.950 . S
H2037 C2015 0.950 . S
C2038 C2039 1.349 . S
C2038 C2040 1.327 . S
C2038 H2063 0.950 . S
C2039 C2038 1.349 . S
C2039 C2055 1.349 . S
C2040 C2038 1.327 . S
C2040 C2059 1.429 . S
C2040 H2064 0.950 . S
C2041 C2058 1.574 . S
C2041 C2060 1.368 . S
C2041 H2065 0.949 . S
H2042 C2046 0.949 . S
C2043 C2044 1.349 . S
C2043 C2045 1.327 . S
C2043 H2066 0.950 . S
C2044 C2043 1.349 . S
C2044 C2056 1.349 . S
C2045 C2043 1.327 . S
C2045 C2061 1.429 . S
C2045 H2067 0.950 . S
C2046 H2042 0.949 . S
C2046 C2054 1.574 . S
C2046 C2062 1.368 . S
H2047 C2055 0.950 . S
H2048 C2053 0.950 . S
H2049 C2054 0.949 . S
H2050 C2056 0.950 . S
H2051 C2057 0.950 . S
H2052 C2058 0.949 . S
C2053 H2048 0.950 . S
C2053 C2055 1.327 . S
C2053 C2059 1.429 . S
C2054 C2046 1.574 . S
C2054 H2049 0.949 . S
C2054 C2060 1.368 . S
C2055 C2039 1.349 . S
C2055 H2047 0.950 . S
C2055 C2053 1.327 . S
C2056 C2044 1.349 . S
C2056 H2050 0.950 . S
C2056 C2057 1.327 . S
C2057 H2051 0.950 . S
C2057 C2056 1.327 . S
C2057 C2061 1.429 . S
C2058 C2041 1.574 . S
C2058 H2052 0.949 . S
C2058 C2062 1.368 . S
C2059 C2040 1.429 . S
C2059 C2053 1.429 . S
C2059 C2060 1.523 . S
C2060 C2041 1.368 . S
C2060 C2054 1.368 . S
C2060 C2059 1.523 . S
C2061 C2045 1.429 . S
C2061 C2057 1.429 . S
C2061 C2062 1.523 . S
C2062 C2046 1.368 . S
C2062 C2058 1.368 . S
C2062 C2061 1.523 . S
H2063 C2038 0.950 . S
H2064 C2040 0.950 . S
H2065 C2041 0.949 . S
H2066 C2043 0.950 . S
H2067 C2045 0.950 . S
C2068 C2069 1.349 . S
C2068 C2070 1.327 . S
C2068 H2093 0.950 . S
C2069 C2068 1.349 . S
C2069 C2085 1.349 . S
C2070 C2068 1.327 . S
C2070 C2089 1.429 . S
C2070 H2094 0.950 . S
C2071 C2088 1.574 . S
C2071 C2090 1.368 . S
C2071 H2095 0.949 . S
H2072 C2076 0.949 . S
C2073 C2074 1.349 . S
C2073 C2075 1.327 . S
C2073 H2096 0.950 . S
C2074 C2073 1.349 . S
C2074 C2086 1.349 . S
C2075 C2073 1.327 . S
C2075 C2091 1.429 . S
C2075 H2097 0.950 . S
C2076 H2072 0.949 . S
C2076 C2084 1.574 . S
C2076 C2092 1.368 . S
H2077 C2085 0.950 . S
H2078 C2083 0.950 . S
H2079 C2084 0.949 . S
H2080 C2086 0.950 . S
H2081 C2087 0.950 . S
H2082 C2088 0.949 . S
C2083 H2078 0.950 . S
C2083 C2085 1.327 . S
C2083 C2089 1.429 . S
C2084 C2076 1.574 . S
C2084 H2079 0.949 . S
C2084 C2090 1.368 . S
C2085 C2069 1.349 . S
C2085 H2077 0.950 . S
C2085 C2083 1.327 . S
C2086 C2074 1.349 . S
C2086 H2080 0.950 . S
C2086 C2087 1.327 . S
C2087 H2081 0.950 . S
C2087 C2086 1.327 . S
C2087 C2091 1.429 . S
C2088 C2071 1.574 . S
C2088 H2082 0.949 . S
C2088 C2092 1.368 . S
C2089 C2070 1.429 . S
C2089 C2083 1.429 . S
C2089 C2090 1.523 . S
C2090 C2071 1.368 . S
C2090 C2084 1.368 . S
C2090 C2089 1.523 . S
C2091 C2075 1.429 . S
C2091 C2087 1.429 . S
C2091 C2092 1.523 . S
C2092 C2076 1.368 . S
C2092 C2088 1.368 . S
C2092 C2091 1.523 . S
H2093 C2068 0.950 . S
H2094 C2070 0.950 . S
H2095 C2071 0.949 . S
H2096 C2073 0.950 . S
H2097 C2075 0.950 . S
C2098 C2099 1.349 . S
C2098 C2100 1.327 . S
C2098 H2123 0.950 . S
C2099 C2098 1.349 . S
C2099 C2115 1.349 . S
C2100 C2098 1.327 . S
C2100 C2119 1.429 . S
C2100 H2124 0.950 . S
C2101 C2118 1.574 . S
C2101 C2120 1.368 . S
C2101 H2125 0.949 . S
H2102 C2106 0.949 . S
C2103 C2104 1.349 . S
C2103 C2105 1.327 . S
C2103 H2126 0.950 . S
C2104 C2103 1.349 . S
C2104 C2116 1.349 . S
C2105 C2103 1.327 . S
C2105 C2121 1.429 . S
C2105 H2127 0.950 . S
C2106 H2102 0.949 . S
C2106 C2114 1.574 . S
C2106 C2122 1.368 . S
H2107 C2115 0.950 . S
H2108 C2113 0.950 . S
H2109 C2114 0.949 . S
H2110 C2116 0.950 . S
H2111 C2117 0.950 . S
H2112 C2118 0.949 . S
C2113 H2108 0.950 . S
C2113 C2115 1.327 . S
C2113 C2119 1.429 . S
C2114 C2106 1.574 . S
C2114 H2109 0.949 . S
C2114 C2120 1.368 . S
C2115 C2099 1.349 . S
C2115 H2107 0.950 . S
C2115 C2113 1.327 . S
C2116 C2104 1.349 . S
C2116 H2110 0.950 . S
C2116 C2117 1.327 . S
C2117 H2111 0.950 . S
C2117 C2116 1.327 . S
C2117 C2121 1.429 . S
C2118 C2101 1.574 . S
C2118 H2112 0.949 . S
C2118 C2122 1.368 . S
C2119 C2100 1.429 . S
C2119 C2113 1.429 . S
C2119 C2120 1.523 . S
C2120 C2101 1.368 . S
C2120 C2114 1.368 . S
C2120 C2119 1.523 . S
C2121 C2105 1.429 . S
C2121 C2117 1.429 . S
C2121 C2122 1.523 . S
C2122 C2106 1.368 . S
C2122 C2118 1.368 . S
C2122 C2121 1.523 . S
H2123 C2098 0.950 . S
H2124 C2100 0.950 . S
H2125 C2101 0.949 . S
H2126 C2103 0.950 . S
H2127 C2105 0.950 . S
C2128 C2129 1.349 . S
C2128 C2130 1.327 . S
C2128 H2153 0.950 . S
C2129 C2128 1.349 . S
C2129 C2145 1.349 . S
C2130 C2128 1.327 . S
C2130 C2149 1.429 . S
C2130 H2154 0.950 . S
C2131 C2148 1.574 . S
C2131 C2150 1.368 . S
C2131 H2155 0.949 . S
H2132 C2136 0.949 . S
C2133 C2134 1.349 . S
C2133 C2135 1.327 . S
C2133 H2156 0.950 . S
C2134 C2133 1.349 . S
C2134 C2146 1.349 . S
C2135 C2133 1.327 . S
C2135 C2151 1.429 . S
C2135 H2157 0.950 . S
C2136 H2132 0.949 . S
C2136 C2144 1.574 . S
C2136 C2152 1.368 . S
H2137 C2145 0.950 . S
H2138 C2143 0.950 . S
H2139 C2144 0.949 . S
H2140 C2146 0.950 . S
H2141 C2147 0.950 . S
H2142 C2148 0.949 . S
C2143 H2138 0.950 . S
C2143 C2145 1.327 . S
C2143 C2149 1.429 . S
C2144 C2136 1.574 . S
C2144 H2139 0.949 . S
C2144 C2150 1.368 . S
C2145 C2129 1.349 . S
C2145 H2137 0.950 . S
C2145 C2143 1.327 . S
C2146 C2134 1.349 . S
C2146 H2140 0.950 . S
C2146 C2147 1.327 . S
C2147 H2141 0.950 . S
C2147 C2146 1.327 . S
C2147 C2151 1.429 . S
C2148 C2131 1.574 . S
C2148 H2142 0.949 . S
C2148 C2152 1.368 . S
C2149 C2130 1.429 . S
C2149 C2143 1.429 . S
C2149 C2150 1.523 . S
C2150 C2131 1.368 . S
C2150 C2144 1.368 . S
C2150 C2149 1.523 . S
C2151 C2135 1.429 . S
C2151 C2147 1.429 . S
C2151 C2152 1.523 . S
C2152 C2136 1.368 . S
C2152 C2148 1.368 . S
C2152 C2151 1.523 . S
H2153 C2128 0.950 . S
H2154 C2130 0.950 . S
H2155 C2131 0.949 . S
H2156 C2133 0.950 . S
H2157 C2135 0.950 . S
C2158 C2159 1.349 . S
C2158 C2160 1.327 . S
C2158 H2183 0.950 . S
C2159 C2158 1.349 . S
C2159 C2175 1.349 . S
C2160 C2158 1.327 . S
C2160 C2179 1.429 . S
C2160 H2184 0.950 . S
C2161 C2178 1.574 . S
C2161 C2180 1.368 . S
C2161 H2185 0.949 . S
H2162 C2166 0.949 . S
C2163 C2164 1.349 . S
C2163 C2165 1.327 . S
C2163 H2186 0.950 . S
C2164 C2163 1.349 . S
C2164 C2176 1.349 . S
C2165 C2163 1.327 . S
C2165 C2181 1.429 . S
C2165 H2187 0.950 . S
C2166 H2162 0.949 . S
C2166 C2174 1.574 . S
C2166 C2182 1.368 . S
H2167 C2175 0.950 . S
H2168 C2173 0.950 . S
H2169 C2174 0.949 . S
H2170 C2176 0.950 . S
H2171 C2177 0.950 . S
H2172 C2178 0.949 . S
C2173 H2168 0.950 . S
C2173 C2175 1.327 . S
C2173 C2179 1.429 . S
C2174 C2166 1.574 . S
C2174 H2169 0.949 . S
C2174 C2180 1.368 . S
C2175 C2159 1.349 . S
C2175 H2167 0.950 . S
C2175 C2173 1.327 . S
C2176 C2164 1.349 . S
C2176 H2170 0.950 . S
C2176 C2177 1.327 . S
C2177 H2171 0.950 . S
C2177 C2176 1.327 . S
C2177 C2181 1.429 . S
C2178 C2161 1.574 . S
C2178 H2172 0.949 . S
C2178 C2182 1.368 . S
C2179 C2160 1.429 . S
C2179 C2173 1.429 . S
C2179 C2180 1.523 . S
C2180 C2161 1.368 . S
C2180 C2174 1.368 . S
C2180 C2179 1.523 . S
C2181 C2165 1.429 . S
C2181 C2177 1.429 . S
C2181 C2182 1.523 . S
C2182 C2166 1.368 . S
C2182 C2178 1.368 . S
C2182 C2181 1.523 . S
H2183 C2158 0.950 . S
H2184 C2160 0.950 . S
H2185 C2161 0.949 . S
H2186 C2163 0.950 . S
H2187 C2165 0.950 . S
C2188 C2189 1.349 . S
C2188 C2190 1.327 . S
C2188 H2213 0.950 . S
C2189 C2188 1.349 . S
C2189 C2205 1.349 . S
C2190 C2188 1.327 . S
C2190 C2209 1.429 . S
C2190 H2214 0.950 . S
C2191 C2208 1.574 . S
C2191 C2210 1.368 . S
C2191 H2215 0.949 . S
H2192 C2196 0.949 . S
C2193 C2194 1.349 . S
C2193 C2195 1.327 . S
C2193 H2216 0.950 . S
C2194 C2193 1.349 . S
C2194 C2206 1.349 . S
C2195 C2193 1.327 . S
C2195 C2211 1.429 . S
C2195 H2217 0.950 . S
C2196 H2192 0.949 . S
C2196 C2204 1.574 . S
C2196 C2212 1.368 . S
H2197 C2205 0.950 . S
H2198 C2203 0.950 . S
H2199 C2204 0.949 . S
H2200 C2206 0.950 . S
H2201 C2207 0.950 . S
H2202 C2208 0.949 . S
C2203 H2198 0.950 . S
C2203 C2205 1.327 . S
C2203 C2209 1.429 . S
C2204 C2196 1.574 . S
C2204 H2199 0.949 . S
C2204 C2210 1.368 . S
C2205 C2189 1.349 . S
C2205 H2197 0.950 . S
C2205 C2203 1.327 . S
C2206 C2194 1.349 . S
C2206 H2200 0.950 . S
C2206 C2207 1.327 . S
C2207 H2201 0.950 . S
C2207 C2206 1.327 . S
C2207 C2211 1.429 . S
C2208 C2191 1.574 . S
C2208 H2202 0.949 . S
C2208 C2212 1.368 . S
C2209 C2190 1.429 . S
C2209 C2203 1.429 . S
C2209 C2210 1.523 . S
C2210 C2191 1.368 . S
C2210 C2204 1.368 . S
C2210 C2209 1.523 . S
C2211 C2195 1.429 . S
C2211 C2207 1.429 . S
C2211 C2212 1.523 . S
C2212 C2196 1.368 . S
C2212 C2208 1.368 . S
C2212 C2211 1.523 . S
H2213 C2188 0.950 . S
H2214 C2190 0.950 . S
H2215 C2191 0.949 . S
H2216 C2193 0.950 . S
H2217 C2195 0.950 . S
C2218 C2219 1.349 . S
C2218 C2220 1.327 . S
C2218 H2243 0.950 . S
C2219 C2218 1.349 . S
C2219 C2235 1.349 . S
C2220 C2218 1.327 . S
C2220 C2239 1.429 . S
C2220 H2244 0.950 . S
C2221 C2238 1.574 . S
C2221 C2240 1.368 . S
C2221 H2245 0.949 . S
H2222 C2226 0.949 . S
C2223 C2224 1.349 . S
C2223 C2225 1.327 . S
C2223 H2246 0.950 . S
C2224 C2223 1.349 . S
C2224 C2236 1.349 . S
C2225 C2223 1.327 . S
C2225 C2241 1.429 . S
C2225 H2247 0.950 . S
C2226 H2222 0.949 . S
C2226 C2234 1.574 . S
C2226 C2242 1.368 . S
H2227 C2235 0.950 . S
H2228 C2233 0.950 . S
H2229 C2234 0.949 . S
H2230 C2236 0.950 . S
H2231 C2237 0.950 . S
H2232 C2238 0.949 . S
C2233 H2228 0.950 . S
C2233 C2235 1.327 . S
C2233 C2239 1.429 . S
C2234 C2226 1.574 . S
C2234 H2229 0.949 . S
C2234 C2240 1.368 . S
C2235 C2219 1.349 . S
C2235 H2227 0.950 . S
C2235 C2233 1.327 . S
C2236 C2224 1.349 . S
C2236 H2230 0.950 . S
C2236 C2237 1.327 . S
C2237 H2231 0.950 . S
C2237 C2236 1.327 . S
C2237 C2241 1.429 . S
C2238 C2221 1.574 . S
C2238 H2232 0.949 . S
C2238 C2242 1.368 . S
C2239 C2220 1.429 . S
C2239 C2233 1.429 . S
C2239 C2240 1.523 . S
C2240 C2221 1.368 . S
C2240 C2234 1.368 . S
C2240 C2239 1.523 . S
C2241 C2225 1.429 . S
C2241 C2237 1.429 . S
C2241 C2242 1.523 . S
C2242 C2226 1.368 . S
C2242 C2238 1.368 . S
C2242 C2241 1.523 . S
H2243 C2218 0.950 . S
H2244 C2220 0.950 . S
H2245 C2221 0.949 . S
H2246 C2223 0.950 . S
H2247 C2225 0.950 . S
C2248 C2249 1.349 . S
C2248 C2250 1.327 . S
C2248 H2273 0.950 . S
C2249 C2248 1.349 . S
C2249 C2265 1.349 . S
C2250 C2248 1.327 . S
C2250 C2269 1.429 . S
C2250 H2274 0.950 . S
C2251 C2268 1.574 . S
C2251 C2270 1.368 . S
C2251 H2275 0.949 . S
H2252 C2256 0.949 . S
C2253 C2254 1.349 . S
C2253 C2255 1.327 . S
C2253 H2276 0.950 . S
C2254 C2253 1.349 . S
C2254 C2266 1.349 . S
C2255 C2253 1.327 . S
C2255 C2271 1.429 . S
C2255 H2277 0.950 . S
C2256 H2252 0.949 . S
C2256 C2264 1.574 . S
C2256 C2272 1.368 . S
H2257 C2265 0.950 . S
H2258 C2263 0.950 . S
H2259 C2264 0.949 . S
H2260 C2266 0.950 . S
H2261 C2267 0.950 . S
H2262 C2268 0.949 . S
C2263 H2258 0.950 . S
C2263 C2265 1.327 . S
C2263 C2269 1.429 . S
C2264 C2256 1.574 . S
C2264 H2259 0.949 . S
C2264 C2270 1.368 . S
C2265 C2249 1.349 . S
C2265 H2257 0.950 . S
C2265 C2263 1.327 . S
C2266 C2254 1.349 . S
C2266 H2260 0.950 . S
C2266 C2267 1.327 . S
C2267 H2261 0.950 . S
C2267 C2266 1.327 . S
C2267 C2271 1.429 . S
C2268 C2251 1.574 . S
C2268 H2262 0.949 . S
C2268 C2272 1.368 . S
C2269 C2250 1.429 . S
C2269 C2263 1.429 . S
C2269 C2270 1.523 . S
C2270 C2251 1.368 . S
C2270 C2264 1.368 . S
C2270 C2269 1.523 . S
C2271 C2255 1.429 . S
C2271 C2267 1.429 . S
C2271 C2272 1.523 . S
C2272 C2256 1.368 . S
C2272 C2268 1.368 . S
C2272 C2271 1.523 . S
H2273 C2248 0.950 . S
H2274 C2250 0.950 . S
H2275 C2251 0.949 . S
H2276 C2253 0.950 . S
H2277 C2255 0.950 . S
C2278 C2279 1.349 . S
C2278 C2280 1.327 . S
C2278 H2303 0.950 . S
C2279 C2278 1.349 . S
C2279 C2295 1.349 . S
C2280 C2278 1.327 . S
C2280 C2299 1.429 . S
C2280 H2304 0.950 . S
C2281 C2298 1.574 . S
C2281 C2300 1.368 . S
C2281 H2305 0.949 . S
H2282 C2286 0.949 . S
C2283 C2284 1.349 . S
C2283 C2285 1.327 . S
C2283 H2306 0.950 . S
C2284 C2283 1.349 . S
C2284 C2296 1.349 . S
C2285 C2283 1.327 . S
C2285 C2301 1.429 . S
C2285 H2307 0.950 . S
C2286 H2282 0.949 . S
C2286 C2294 1.574 . S
C2286 C2302 1.368 . S
H2287 C2295 0.950 . S
H2288 C2293 0.950 . S
H2289 C2294 0.949 . S
H2290 C2296 0.950 . S
H2291 C2297 0.950 . S
H2292 C2298 0.949 . S
C2293 H2288 0.950 . S
C2293 C2295 1.327 . S
C2293 C2299 1.429 . S
C2294 C2286 1.574 . S
C2294 H2289 0.949 . S
C2294 C2300 1.368 . S
C2295 C2279 1.349 . S
C2295 H2287 0.950 . S
C2295 C2293 1.327 . S
C2296 C2284 1.349 . S
C2296 H2290 0.950 . S
C2296 C2297 1.327 . S
C2297 H2291 0.950 . S
C2297 C2296 1.327 . S
C2297 C2301 1.429 . S
C2298 C2281 1.574 . S
C2298 H2292 0.949 . S
C2298 C2302 1.368 . S
C2299 C2280 1.429 . S
C2299 C2293 1.429 . S
C2299 C2300 1.523 . S
C2300 C2281 1.368 . S
C2300 C2294 1.368 . S
C2300 C2299 1.523 . S
C2301 C2285 1.429 . S
C2301 C2297 1.429 . S
C2301 C2302 1.523 . S
C2302 C2286 1.368 . S
C2302 C2298 1.368 . S
C2302 C2301 1.523 . S
H2303 C2278 0.950 . S
H2304 C2280 0.950 . S
H2305 C2281 0.949 . S
H2306 C2283 0.950 . S
H2307 C2285 0.950 . S
C2308 C2309 1.349 . S
C2308 C2310 1.327 . S
C2308 H2333 0.950 . S
C2309 C2308 1.349 . S
C2309 C2325 1.349 . S
C2310 C2308 1.327 . S
C2310 C2329 1.429 . S
C2310 H2334 0.950 . S
C2311 C2328 1.574 . S
C2311 C2330 1.368 . S
C2311 H2335 0.949 . S
H2312 C2316 0.949 . S
C2313 C2314 1.349 . S
C2313 C2315 1.327 . S
C2313 H2336 0.950 . S
C2314 C2313 1.349 . S
C2314 C2326 1.349 . S
C2315 C2313 1.327 . S
C2315 C2331 1.429 . S
C2315 H2337 0.950 . S
C2316 H2312 0.949 . S
C2316 C2324 1.574 . S
C2316 C2332 1.368 . S
H2317 C2325 0.950 . S
H2318 C2323 0.950 . S
H2319 C2324 0.949 . S
H2320 C2326 0.950 . S
H2321 C2327 0.950 . S
H2322 C2328 0.949 . S
C2323 H2318 0.950 . S
C2323 C2325 1.327 . S
C2323 C2329 1.429 . S
C2324 C2316 1.574 . S
C2324 H2319 0.949 . S
C2324 C2330 1.368 . S
C2325 C2309 1.349 . S
C2325 H2317 0.950 . S
C2325 C2323 1.327 . S
C2326 C2314 1.349 . S
C2326 H2320 0.950 . S
C2326 C2327 1.327 . S
C2327 H2321 0.950 . S
C2327 C2326 1.327 . S
C2327 C2331 1.429 . S
C2328 C2311 1.574 . S
C2328 H2322 0.949 . S
C2328 C2332 1.368 . S
C2329 C2310 1.429 . S
C2329 C2323 1.429 . S
C2329 C2330 1.523 . S
C2330 C2311 1.368 . S
C2330 C2324 1.368 . S
C2330 C2329 1.523 . S
C2331 C2315 1.429 . S
C2331 C2327 1.429 . S
C2331 C2332 1.523 . S
C2332 C2316 1.368 . S
C2332 C2328 1.368 . S
C2332 C2331 1.523 . S
H2333 C2308 0.950 . S
H2334 C2310 0.950 . S
H2335 C2311 0.949 . S
H2336 C2313 0.950 . S
H2337 C2315 0.950 . S
C2338 C2339 1.349 . S
C2338 C2340 1.327 . S
C2338 H2363 0.950 . S
C2339 C2338 1.349 . S
C2339 C2355 1.349 . S
C2340 C2338 1.327 . S
C2340 C2359 1.429 . S
C2340 H2364 0.950 . S
C2341 C2358 1.574 . S
C2341 C2360 1.368 . S
C2341 H2365 0.949 . S
H2342 C2346 0.949 . S
C2343 C2344 1.349 . S
C2343 C2345 1.327 . S
C2343 H2366 0.950 . S
C2344 C2343 1.349 . S
C2344 C2356 1.349 . S
C2345 C2343 1.327 . S
C2345 C2361 1.429 . S
C2345 H2367 0.950 . S
C2346 H2342 0.949 . S
C2346 C2354 1.574 . S
C2346 C2362 1.368 . S
H2347 C2355 0.950 . S
H2348 C2353 0.950 . S
H2349 C2354 0.949 . S
H2350 C2356 0.950 . S
H2351 C2357 0.950 . S
H2352 C2358 0.949 . S
C2353 H2348 0.950 . S
C2353 C2355 1.327 . S
C2353 C2359 1.429 . S
C2354 C2346 1.574 . S
C2354 H2349 0.949 . S
C2354 C2360 1.368 . S
C2355 C2339 1.349 . S
C2355 H2347 0.950 . S
C2355 C2353 1.327 . S
C2356 C2344 1.349 . S
C2356 H2350 0.950 . S
C2356 C2357 1.327 . S
C2357 H2351 0.950 . S
C2357 C2356 1.327 . S
C2357 C2361 1.429 . S
C2358 C2341 1.574 . S
C2358 H2352 0.949 . S
C2358 C2362 1.368 . S
C2359 C2340 1.429 . S
C2359 C2353 1.429 . S
C2359 C2360 1.523 . S
C2360 C2341 1.368 . S
C2360 C2354 1.368 . S
C2360 C2359 1.523 . S
C2361 C2345 1.429 . S
C2361 C2357 1.429 . S
C2361 C2362 1.523 . S
C2362 C2346 1.368 . S
C2362 C2358 1.368 . S
C2362 C2361 1.523 . S
H2363 C2338 0.950 . S
H2364 C2340 0.950 . S
H2365 C2341 0.949 . S
H2366 C2343 0.950 . S
H2367 C2345 0.950 . S
C1409 C409 0.721 . S
C1414 C20 0.721 1_556 S
C1439 C489 0.721 . S
C1444 C108 0.721 1_556 S
C1469 C585 0.721 . S
C1474 C205 0.721 1_556 S
C1499 C673 0.721 . S
C1504 C293 0.721 1_556 S
C1529 C1105 0.721 . S
C1534 C724 0.721 . S
C1559 C1193 0.721 . S
C1564 C812 0.721 . S
C1589 C909 0.721 . S
C1594 C1281 0.721 . S
C1619 C1377 0.721 . S
C1624 C997 0.721 . S
C1649 C49 1.130 . S
C1654 C460 1.130 1_556 S
C1679 C557 1.130 1_556 S
C1684 C137 1.130 . S
C1709 C233 1.130 . S
C1714 C645 1.130 1_556 S
C1739 C381 1.130 1_556 S
C1744 C321 1.130 . S
C1769 C1164 1.130 . S
C1774 C753 1.130 . S
C1799 C1252 1.130 . S
C1804 C841 1.130 . S
C1829 C937 1.130 . S
C1834 C1349 1.130 . S
C1859 C1025 1.130 . S
C1864 C1076 1.130 . S
C1889 C1369 1.518 . S
C1894 C29 1.514 . S
C1919 C1113 1.518 . S
C1924 C117 1.514 . S
C1949 C1201 1.518 . S
C1954 C196 1.514 . S
C1979 C1289 1.518 . S
C1984 C284 1.514 . S
C2009 C821 1.518 . S
C2014 C401 1.522 . S
C2039 C900 1.518 . S
C2044 C497 1.522 . S
C2069 C577 1.518 . S
C2074 C988 1.522 . S
C2099 C665 1.518 . S
C2104 C733 1.522 . S
C2129 C1173 1.519 . S
C2134 C225 1.522 . S
C2159 C1261 1.519 . S
C2164 C313 1.522 . S
C2189 C1340 1.519 . S
C2194 C57 1.522 . S
C2219 C145 1.519 . S
C2224 C1085 1.522 . S
C2249 C1017 1.519 . S
C2254 C548 1.515 . S
C2279 C636 1.519 . S
C2284 C761 1.515 . S
C2309 C849 1.519 . S
C2314 C372 1.515 . S
C2339 C929 1.519 . S
C2344 C469 1.515 . S
