# Generated by pormake.
# Topology cha, (4)-cn, num edge types: 1
# Building blocks:
#     Node 0, Type 0, BuildingBlock: KUFVIS_clean_sbu_0, # of connection points: 4
#     Node 1, Type 0, BuildingBlock: KUFVIS_clean_sbu_0, # of connection points: 4
#     Node 2, Type 0, BuildingBlock: KUFVIS_clean_sbu_0, # of connection points: 4
#     Node 3, Type 0, BuildingBlock: KUFVIS_clean_sbu_0, # of connection points: 4
#     Node 4, Type 0, BuildingBlock: KUFVIS_clean_sbu_0, # of connection points: 4
#     Node 5, Type 0, BuildingBlock: KUFVIS_clean_sbu_0, # of connection points: 4
#     Node 6, Type 0, BuildingBlock: KUFVIS_clean_sbu_0, # of connection points: 4
#     Node 7, Type 0, BuildingBlock: KUFVIS_clean_sbu_0, # of connection points: 4
#     Node 8, Type 0, BuildingBlock: KUFVIS_clean_sbu_0, # of connection points: 4
#     Node 9, Type 0, BuildingBlock: KUFVIS_clean_sbu_0, # of connection points: 4
#     Node 10, Type 0, BuildingBlock: KUFVIS_clean_sbu_0, # of connection points: 4
#     Node 11, Type 0, BuildingBlock: KUFVIS_clean_sbu_0, # of connection points: 4
#     Node 12, Type 0, BuildingBlock: KUFVIS_clean_sbu_0, # of connection points: 4
#     Node 13, Type 0, BuildingBlock: KUFVIS_clean_sbu_0, # of connection points: 4
#     Node 14, Type 0, BuildingBlock: KUFVIS_clean_sbu_0, # of connection points: 4
#     Node 15, Type 0, BuildingBlock: KUFVIS_clean_sbu_0, # of connection points: 4
#     Node 16, Type 0, BuildingBlock: KUFVIS_clean_sbu_0, # of connection points: 4
#     Node 17, Type 0, BuildingBlock: KUFVIS_clean_sbu_0, # of connection points: 4
#     Node 18, Type 0, BuildingBlock: KUFVIS_clean_sbu_0, # of connection points: 4
#     Node 19, Type 0, BuildingBlock: KUFVIS_clean_sbu_0, # of connection points: 4
#     Node 20, Type 0, BuildingBlock: KUFVIS_clean_sbu_0, # of connection points: 4
#     Node 21, Type 0, BuildingBlock: KUFVIS_clean_sbu_0, # of connection points: 4
#     Node 22, Type 0, BuildingBlock: KUFVIS_clean_sbu_0, # of connection points: 4
#     Node 23, Type 0, BuildingBlock: KUFVIS_clean_sbu_0, # of connection points: 4
#     Node 24, Type 0, BuildingBlock: KUFVIS_clean_sbu_0, # of connection points: 4
#     Node 25, Type 0, BuildingBlock: KUFVIS_clean_sbu_0, # of connection points: 4
#     Node 26, Type 0, BuildingBlock: KUFVIS_clean_sbu_0, # of connection points: 4
#     Node 27, Type 0, BuildingBlock: KUFVIS_clean_sbu_0, # of connection points: 4
#     Node 28, Type 0, BuildingBlock: KUFVIS_clean_sbu_0, # of connection points: 4
#     Node 29, Type 0, BuildingBlock: KUFVIS_clean_sbu_0, # of connection points: 4
#     Node 30, Type 0, BuildingBlock: KUFVIS_clean_sbu_0, # of connection points: 4
#     Node 31, Type 0, BuildingBlock: KUFVIS_clean_sbu_0, # of connection points: 4
#     Node 32, Type 0, BuildingBlock: KUFVIS_clean_sbu_0, # of connection points: 4
#     Node 33, Type 0, BuildingBlock: KUFVIS_clean_sbu_0, # of connection points: 4
#     Node 34, Type 0, BuildingBlock: KUFVIS_clean_sbu_0, # of connection points: 4
#     Node 35, Type 0, BuildingBlock: KUFVIS_clean_sbu_0, # of connection points: 4
#     Edge 36, Type (0, 0), BuildingBlock: CIFDUS_clean_linker_0, # of connection points: 2
#     Edge 37, Type (0, 0), BuildingBlock: CIFDUS_clean_linker_0, # of connection points: 2
#     Edge 38, Type (0, 0), BuildingBlock: CIFDUS_clean_linker_0, # of connection points: 2
#     Edge 39, Type (0, 0), BuildingBlock: CIFDUS_clean_linker_0, # of connection points: 2
#     Edge 40, Type (0, 0), BuildingBlock: CIFDUS_clean_linker_0, # of connection points: 2
#     Edge 41, Type (0, 0), BuildingBlock: CIFDUS_clean_linker_0, # of connection points: 2
#     Edge 42, Type (0, 0), BuildingBlock: CIFDUS_clean_linker_0, # of connection points: 2
#     Edge 43, Type (0, 0), BuildingBlock: CIFDUS_clean_linker_0, # of connection points: 2
#     Edge 44, Type (0, 0), BuildingBlock: CIFDUS_clean_linker_0, # of connection points: 2
#     Edge 45, Type (0, 0), BuildingBlock: CIFDUS_clean_linker_0, # of connection points: 2
#     Edge 46, Type (0, 0), BuildingBlock: CIFDUS_clean_linker_0, # of connection points: 2
#     Edge 47, Type (0, 0), BuildingBlock: CIFDUS_clean_linker_0, # of connection points: 2
#     Edge 48, Type (0, 0), BuildingBlock: CIFDUS_clean_linker_0, # of connection points: 2
#     Edge 49, Type (0, 0), BuildingBlock: CIFDUS_clean_linker_0, # of connection points: 2
#     Edge 50, Type (0, 0), BuildingBlock: CIFDUS_clean_linker_0, # of connection points: 2
#     Edge 51, Type (0, 0), BuildingBlock: CIFDUS_clean_linker_0, # of connection points: 2
#     Edge 52, Type (0, 0), BuildingBlock: CIFDUS_clean_linker_0, # of connection points: 2
#     Edge 53, Type (0, 0), BuildingBlock: CIFDUS_clean_linker_0, # of connection points: 2
#     Edge 54, Type (0, 0), BuildingBlock: CIFDUS_clean_linker_0, # of connection points: 2
#     Edge 55, Type (0, 0), BuildingBlock: CIFDUS_clean_linker_0, # of connection points: 2
#     Edge 56, Type (0, 0), BuildingBlock: CIFDUS_clean_linker_0, # of connection points: 2
#     Edge 57, Type (0, 0), BuildingBlock: CIFDUS_clean_linker_0, # of connection points: 2
#     Edge 58, Type (0, 0), BuildingBlock: CIFDUS_clean_linker_0, # of connection points: 2
#     Edge 59, Type (0, 0), BuildingBlock: CIFDUS_clean_linker_0, # of connection points: 2
#     Edge 60, Type (0, 0), BuildingBlock: CIFDUS_clean_linker_0, # of connection points: 2
#     Edge 61, Type (0, 0), BuildingBlock: CIFDUS_clean_linker_0, # of connection points: 2
#     Edge 62, Type (0, 0), BuildingBlock: CIFDUS_clean_linker_0, # of connection points: 2
#     Edge 63, Type (0, 0), BuildingBlock: CIFDUS_clean_linker_0, # of connection points: 2
#     Edge 64, Type (0, 0), BuildingBlock: CIFDUS_clean_linker_0, # of connection points: 2
#     Edge 65, Type (0, 0), BuildingBlock: CIFDUS_clean_linker_0, # of connection points: 2
#     Edge 66, Type (0, 0), BuildingBlock: CIFDUS_clean_linker_0, # of connection points: 2
#     Edge 67, Type (0, 0), BuildingBlock: CIFDUS_clean_linker_0, # of connection points: 2
#     Edge 68, Type (0, 0), BuildingBlock: CIFDUS_clean_linker_0, # of connection points: 2
#     Edge 69, Type (0, 0), BuildingBlock: CIFDUS_clean_linker_0, # of connection points: 2
#     Edge 70, Type (0, 0), BuildingBlock: CIFDUS_clean_linker_0, # of connection points: 2
#     Edge 71, Type (0, 0), BuildingBlock: CIFDUS_clean_linker_0, # of connection points: 2
#     Edge 72, Type (0, 0), BuildingBlock: CIFDUS_clean_linker_0, # of connection points: 2
#     Edge 73, Type (0, 0), BuildingBlock: CIFDUS_clean_linker_0, # of connection points: 2
#     Edge 74, Type (0, 0), BuildingBlock: CIFDUS_clean_linker_0, # of connection points: 2
#     Edge 75, Type (0, 0), BuildingBlock: CIFDUS_clean_linker_0, # of connection points: 2
#     Edge 76, Type (0, 0), BuildingBlock: CIFDUS_clean_linker_0, # of connection points: 2
#     Edge 77, Type (0, 0), BuildingBlock: CIFDUS_clean_linker_0, # of connection points: 2
#     Edge 78, Type (0, 0), BuildingBlock: CIFDUS_clean_linker_0, # of connection points: 2
#     Edge 79, Type (0, 0), BuildingBlock: CIFDUS_clean_linker_0, # of connection points: 2
#     Edge 80, Type (0, 0), BuildingBlock: CIFDUS_clean_linker_0, # of connection points: 2
#     Edge 81, Type (0, 0), BuildingBlock: CIFDUS_clean_linker_0, # of connection points: 2
#     Edge 82, Type (0, 0), BuildingBlock: CIFDUS_clean_linker_0, # of connection points: 2
#     Edge 83, Type (0, 0), BuildingBlock: CIFDUS_clean_linker_0, # of connection points: 2
#     Edge 84, Type (0, 0), BuildingBlock: CIFDUS_clean_linker_0, # of connection points: 2
#     Edge 85, Type (0, 0), BuildingBlock: CIFDUS_clean_linker_0, # of connection points: 2
#     Edge 86, Type (0, 0), BuildingBlock: CIFDUS_clean_linker_0, # of connection points: 2
#     Edge 87, Type (0, 0), BuildingBlock: CIFDUS_clean_linker_0, # of connection points: 2
#     Edge 88, Type (0, 0), BuildingBlock: CIFDUS_clean_linker_0, # of connection points: 2
#     Edge 89, Type (0, 0), BuildingBlock: CIFDUS_clean_linker_0, # of connection points: 2
#     Edge 90, Type (0, 0), BuildingBlock: CIFDUS_clean_linker_0, # of connection points: 2
#     Edge 91, Type (0, 0), BuildingBlock: CIFDUS_clean_linker_0, # of connection points: 2
#     Edge 92, Type (0, 0), BuildingBlock: CIFDUS_clean_linker_0, # of connection points: 2
#     Edge 93, Type (0, 0), BuildingBlock: CIFDUS_clean_linker_0, # of connection points: 2
#     Edge 94, Type (0, 0), BuildingBlock: CIFDUS_clean_linker_0, # of connection points: 2
#     Edge 95, Type (0, 0), BuildingBlock: CIFDUS_clean_linker_0, # of connection points: 2
#     Edge 96, Type (0, 0), BuildingBlock: CIFDUS_clean_linker_0, # of connection points: 2
#     Edge 97, Type (0, 0), BuildingBlock: CIFDUS_clean_linker_0, # of connection points: 2
#     Edge 98, Type (0, 0), BuildingBlock: CIFDUS_clean_linker_0, # of connection points: 2
#     Edge 99, Type (0, 0), BuildingBlock: CIFDUS_clean_linker_0, # of connection points: 2
#     Edge 100, Type (0, 0), BuildingBlock: CIFDUS_clean_linker_0, # of connection points: 2
#     Edge 101, Type (0, 0), BuildingBlock: CIFDUS_clean_linker_0, # of connection points: 2
#     Edge 102, Type (0, 0), BuildingBlock: CIFDUS_clean_linker_0, # of connection points: 2
#     Edge 103, Type (0, 0), BuildingBlock: CIFDUS_clean_linker_0, # of connection points: 2
#     Edge 104, Type (0, 0), BuildingBlock: CIFDUS_clean_linker_0, # of connection points: 2
#     Edge 105, Type (0, 0), BuildingBlock: CIFDUS_clean_linker_0, # of connection points: 2
#     Edge 106, Type (0, 0), BuildingBlock: CIFDUS_clean_linker_0, # of connection points: 2
#     Edge 107, Type (0, 0), BuildingBlock: CIFDUS_clean_linker_0, # of connection points: 2
# Relax obj value: 0.089
# Max RMSD: 0.120
# Mean RMSD: 0.120
data_MOF--net-cha--node1-KUFVIS_clean_sbu_0--edge1-CIFDUS_clean_linker_0
_symmetry_space_group_name_H-M    P1
_symmetry_Int_Tables_number       1
_symmetry_cell_setting            triclinic
loop_
_symmetry_equiv_pos_as_xyz
'x, y, z'
_cell_length_a     48.53107
_cell_length_b     48.56712
_cell_length_c     73.935848
_cell_angle_alpha  90.0177
_cell_angle_beta   90.064023
_cell_angle_gamma 120.01918
loop_
_atom_site_label
_atom_site_type_symbol
_atom_site_fract_x
_atom_site_fract_y
_atom_site_fract_z
_atom_type_partial_charge
Mn0 Mn 0.02043 0.28752 0.09938 0.0
Mn1 Mn 0.05276 0.24344 0.08624 0.0
C2 C 0.98774 0.23265 0.09511 0.0
C3 C 0.00865 0.31027 0.12431 0.0
C4 C 0.03725 0.28227 0.05983 0.0
O5 O 0.06806 0.3185 0.10289 0.0
O6 O 0.08546 0.28496 0.0957 0.0
C7 C 0.07225 0.23424 0.12267 0.0
N8 N 0.05714 0.22195 0.10666 0.0
C9 C 0.04916 0.1703 0.11402 0.0
C10 C 0.06433 0.18223 0.13069 0.0
C11 C 0.07574 0.21431 0.13508 0.0
C12 C 0.04513 0.19096 0.10259 0.0
H13 H 0.08169 0.25907 0.12585 0.0
C14 C 0.09011 0.31179 0.1012 0.0
O15 O 0.01024 0.32098 0.10798 0.0
O16 O 0.01377 0.28674 0.12598 0.0
N17 N 0.02536 0.20208 0.07662 0.0
C18 C 0.01046 0.19427 0.06027 0.0
C19 C 1.00039 0.16406 0.05299 0.0
C20 C 0.00556 0.14218 0.06267 0.0
C21 C 0.01905 0.14997 0.08001 0.0
C22 C 0.02916 0.18066 0.08639 0.0
H23 H 0.00699 0.21123 0.05269 0.0
O24 O 0.97604 0.25144 0.09599 0.0
O25 O 0.01825 0.24616 0.09792 0.0
O26 O 0.0256 0.29374 0.07124 0.0
O27 O 0.04836 0.26433 0.06453 0.0
C28 C 0.02411 0.12906 0.09092 0.0
C29 C 0.03848 0.13898 0.10809 0.0
H30 H 0.06756 0.16707 0.14016 0.0
H31 H 0.0877 0.22377 0.14785 0.0
H32 H 0.98948 0.15798 0.03972 0.0
H33 H 0.99945 0.11965 0.05649 0.0
H34 H 0.0171 0.10531 0.08626 0.0
H35 H 0.04187 0.12259 0.11644 0.0
Mn36 Mn 0.77782 0.76517 0.10241 0.0
Mn37 Mn 0.82358 0.83251 0.07865 0.0
C38 C 0.8281 0.77669 0.09299 0.0
C39 C 0.75996 0.74081 0.13077 0.0
C40 C 0.77241 0.77238 0.06117 0.0
O41 O 0.75476 0.79008 0.1062 0.0
O42 O 0.78636 0.83277 0.08932 0.0
C43 C 0.84473 0.87572 0.11031 0.0
N44 N 0.85185 0.86371 0.09552 0.0
C45 C 0.90795 0.89747 0.10063 0.0
C46 C 0.90125 0.91031 0.11586 0.0
C47 C 0.86947 0.89937 0.12072 0.0
C48 C 0.88229 0.87404 0.09074 0.0
H49 H 0.82037 0.86738 0.11415 0.0
C50 C 0.76207 0.81685 0.09934 0.0
O51 O 0.74355 0.72803 0.11615 0.0
O52 O 0.78646 0.76732 0.12885 0.0
N53 N 0.86091 0.8369 0.0674 0.0
C54 C 0.8633 0.8227 0.05205 0.0
C55 C 0.89353 0.83106 0.04534 0.0
C56 C 0.92084 0.85439 0.05426 0.0
C57 C 0.91777 0.86942 0.06968 0.0
C58 C 0.88707 0.86019 0.07569 0.0
H59 H 0.8423 0.80489 0.04511 0.0
O60 O 0.80694 0.74825 0.09794 0.0
O61 O 0.81993 0.79846 0.09462 0.0
O62 O 0.76217 0.75549 0.07562 0.0
O63 O 0.79541 0.80107 0.06079 0.0
C64 C 0.94392 0.89282 0.07949 0.0
C65 C 0.93908 0.90686 0.09494 0.0
H66 H 0.92031 0.92853 0.12393 0.0
H67 H 0.86407 0.90915 0.13245 0.0
H68 H 0.89578 0.81955 0.03335 0.0
H69 H 0.944 0.86062 0.04914 0.0
H70 H 0.96786 0.89994 0.07544 0.0
H71 H 0.95945 0.92475 0.10236 0.0
Mn72 Mn 0.30018 0.04807 0.09814 0.0
Mn73 Mn 0.22982 0.02496 0.07725 0.0
C74 C 0.28513 0.0857 0.09157 0.0
C75 C 0.3286 0.05437 0.12496 0.0
C76 C 0.28885 0.03561 0.05733 0.0
O77 O 0.27739 0.99968 0.10049 0.0
O78 O 0.23062 0.98798 0.08777 0.0
C79 C 0.18879 0.00367 0.10976 0.0
N80 N 0.19985 0.02246 0.0948 0.0
C81 C 0.1656 0.04406 0.10027 0.0
C82 C 0.15373 0.02489 0.11571 0.0
C83 C 0.16543 0.00464 0.12049 0.0
C84 C 0.18888 0.04209 0.09013 0.0
H85 H 0.19764 0.98799 0.11344 0.0
C86 C 0.24893 0.98005 0.09575 0.0
O87 O 0.33957 0.05206 0.10936 0.0
O88 O 0.30109 0.0527 0.12499 0.0
N89 N 0.22492 0.05774 0.06628 0.0
C90 C 0.23845 0.07423 0.0508 0.0
C91 C 0.22953 0.09572 0.04421 0.0
C92 C 0.20625 0.09938 0.05335 0.0
C93 C 0.19196 0.0814 0.06893 0.0
C94 C 0.20189 0.06048 0.0749 0.0
H95 H 0.25603 0.07115 0.04361 0.0
O96 O 0.31445 0.09412 0.09518 0.0
O97 O 0.26484 0.05529 0.0927 0.0
O98 O 0.30787 0.04449 0.07087 0.0
O99 O 0.25952 0.02758 0.05835 0.0
C100 C 0.16838 0.08349 0.07883 0.0
C101 C 0.15526 0.06502 0.09452 0.0
H102 H 0.13566 0.02554 0.12398 0.0
H103 H 0.15639 0.98974 0.13237 0.0
H104 H 0.24047 0.10931 0.0321 0.0
H105 H 0.1995 0.11597 0.04819 0.0
H106 H 0.16023 0.09922 0.07445 0.0
H107 H 0.13722 0.0671 0.10202 0.0
Mn108 Mn 0.28379 0.01983 0.91406 0.0
Mn109 Mn 0.23049 0.03948 0.9292 0.0
C110 C 0.23181 0.97983 0.91985 0.0
C111 C 0.30915 0.01344 0.88887 0.0
C112 C 0.28277 0.04073 0.95269 0.0
O113 O 0.30557 0.06784 0.90964 0.0
O114 O 0.26457 0.07582 0.91582 0.0
C115 C 0.2045 0.04593 0.89426 0.0
N116 N 0.19987 0.03192 0.91079 0.0
C117 C 0.14403 0.99802 0.90488 0.0
C118 C 0.14811 0.01222 0.88784 0.0
C119 C 0.17848 0.03635 0.88253 0.0
C120 C 0.17072 0.00901 0.91614 0.0
H121 H 0.22788 0.06415 0.89001 0.0
C122 C 0.29266 0.08516 0.90996 0.0
O123 O 0.32197 0.01845 0.90487 0.0
O124 O 0.28195 0.01219 0.8876 0.0
N125 N 0.19605 0.00614 0.94225 0.0
C126 C 0.1964 0.99418 0.95887 0.0
C127 C 0.16802 0.96941 0.96603 0.0
C128 C 0.13973 0.95719 0.95599 0.0
C129 C 0.13988 0.97031 0.93908 0.0
C130 C 0.16867 0.99549 0.93285 0.0
H131 H 0.2182 0.00317 0.9665 0.0
O132 O 0.25448 0.97319 0.91846 0.0
O133 O 0.2402 0.00949 0.91724 0.0
O134 O 0.29287 0.02781 0.94141 0.0
O135 O 0.26098 0.0474 0.94904 0.0
C136 C 0.11292 0.9585 0.92781 0.0
C137 C 0.11482 0.97257 0.91085 0.0
H138 H 0.12819 0.00452 0.87865 0.0
H139 H 0.18189 0.0473 0.86936 0.0
H140 H 0.16805 0.95934 0.97908 0.0
H141 H 0.11822 0.93742 0.96126 0.0
H142 H 0.09102 0.93777 0.93171 0.0
H143 H 0.0939 0.96299 0.90229 0.0
Mn144 Mn 0.0407 0.29405 0.91278 0.0
Mn145 Mn 0.02639 0.21975 0.92091 0.0
C146 C 0.08352 0.28541 0.91498 0.0
C147 C 0.0439 0.32835 0.88924 0.0
C148 C 0.03057 0.26486 0.95109 0.0
O149 O 0.99251 0.26778 0.91 0.0
O150 O 0.98679 0.21963 0.91452 0.0
C151 C 0.0093 0.19826 0.88298 0.0
N152 N 0.02711 0.20187 0.89799 0.0
C153 C 0.05438 0.1785 0.88293 0.0
C154 C 0.03598 0.17407 0.86741 0.0
C155 C 0.01341 0.18412 0.86742 0.0
C156 C 0.04912 0.19267 0.89804 0.0
H157 H 0.9922 0.20626 0.88283 0.0
C158 C 0.97558 0.23773 0.91086 0.0
O159 O 0.04011 0.33432 0.90595 0.0
O160 O 0.04526 0.3029 0.88649 0.0
N161 N 0.06139 0.21398 0.92712 0.0
C162 C 0.07724 0.21991 0.94315 0.0
C163 C 0.10135 0.21225 0.94512 0.0
C164 C 0.10831 0.19791 0.93073 0.0
C165 C 0.09047 0.19019 0.9148 0.0
C166 C 0.06688 0.1986 0.91356 0.0
H167 H 0.07267 0.23187 0.95398 0.0
O168 O 0.08762 0.31381 0.9152 0.0
O169 O 0.05441 0.26262 0.91183 0.0
O170 O 0.03575 0.28895 0.94116 0.0
O171 O 0.02656 0.23856 0.94453 0.0
C172 C 0.09606 0.17564 0.89986 0.0
C173 C 0.078 0.16979 0.88392 0.0
H174 H 0.03918 0.16326 0.85537 0.0
H175 H 0.9993 0.18107 0.85545 0.0
H176 H 0.11527 0.2185 0.95743 0.0
H177 H 0.12854 0.19456 0.93149 0.0
H178 H 0.11442 0.16917 0.90044 0.0
H179 H 0.08265 0.15882 0.87246 0.0
Mn180 Mn 0.76999 0.77186 0.91799 0.0
Mn181 Mn 0.84335 0.81408 0.93624 0.0
C182 C 0.78985 0.82527 0.92569 0.0
C183 C 0.73842 0.7521 0.89177 0.0
C184 C 0.78513 0.76673 0.95756 0.0
O185 O 0.78926 0.74325 0.91357 0.0
O186 O 0.83911 0.77698 0.92304 0.0
C187 C 0.88173 0.83605 0.9028 0.0
N188 N 0.87318 0.84267 0.91905 0.0
C189 C 0.91742 0.89608 0.91868 0.0
C190 C 0.92668 0.89 0.90187 0.0
C191 C 0.90852 0.85995 0.8938 0.0
C192 C 0.88971 0.8718 0.9266 0.0
H193 H 0.86853 0.81257 0.89694 0.0
C194 C 0.81833 0.75105 0.91572 0.0
O195 O 0.72826 0.73881 0.90746 0.0
O196 O 0.76681 0.7767 0.89132 0.0
N197 N 0.8521 0.8511 0.94966 0.0
C198 C 0.84004 0.85278 0.96599 0.0
C199 C 0.85586 0.88088 0.97617 0.0
C200 C 0.88446 0.90646 0.96974 0.0
C201 C 0.89624 0.9043 0.95278 0.0
C202 C 0.87888 0.87609 0.943 0.0
H203 H 0.81905 0.83251 0.97143 0.0
O204 O 0.75972 0.80617 0.92293 0.0
O205 O 0.80802 0.81307 0.92285 0.0
O206 O 0.76423 0.75986 0.94518 0.0
O207 O 0.81486 0.7856 0.95521 0.0
C208 C 0.92503 0.92861 0.94543 0.0
C209 C 0.93523 0.92479 0.92823 0.0
H210 H 0.9479 0.90807 0.89517 0.0
H211 H 0.91567 0.85495 0.88091 0.0
H212 H 0.84664 0.88243 0.98922 0.0
H213 H 0.89721 0.92762 0.97799 0.0
H214 H 0.93947 0.95047 0.95285 0.0
H215 H 0.95716 0.94382 0.92265 0.0
Mn216 Mn 0.03564 0.76786 0.91891 0.0
Mn217 Mn 0.0079 0.80864 0.94243 0.0
C218 C 0.07122 0.81786 0.93041 0.0
C219 C 0.0479 0.75272 0.89138 0.0
C220 C 0.01436 0.75463 0.95835 0.0
O221 O 0.98817 0.74408 0.91272 0.0
O222 O 0.97379 0.77575 0.92718 0.0
C223 C 0.99312 0.84011 0.91279 0.0
N224 N 0.00885 0.84214 0.92844 0.0
C225 C 0.02146 0.89621 0.93315 0.0
C226 C 0.00559 0.89482 0.91702 0.0
C227 C 0.99169 0.86676 0.90668 0.0
C228 C 0.02335 0.86939 0.93812 0.0
H229 H 0.9812 0.81813 0.90524 0.0
C230 C 0.96773 0.7521 0.91702 0.0
O231 O 0.04206 0.73557 0.90586 0.0
O232 O 0.04623 0.77848 0.89279 0.0
N233 N 0.03783 0.84155 0.95794 0.0
C234 C 0.05138 0.83862 0.97343 0.0
C235 C 0.06675 0.8647 0.9852 0.0
C236 C 0.06689 0.89306 0.98129 0.0
C237 C 0.05239 0.89537 0.96538 0.0
C238 C 0.03861 0.86904 0.9538 0.0
H239 H 0.05004 0.8164 0.97693 0.0
O240 O 0.08041 0.79794 0.92583 0.0
O241 O 0.04138 0.80872 0.92734 0.0
O242 O 0.02709 0.7493 0.94472 0.0
O243 O 0.00564 0.77537 0.95849 0.0
C244 C 0.05018 0.92241 0.96086 0.0
C245 C 0.03464 0.92279 0.94479 0.0
H246 H 0.00361 0.915 0.91254 0.0
H247 H 0.97914 0.86539 0.89429 0.0
H248 H 0.07764 0.86263 0.99752 0.0
H249 H 0.078 0.91284 0.99065 0.0
H250 H 0.06039 0.94304 0.96964 0.0
H251 H 0.03318 0.94374 0.94143 0.0
Mn252 Mn 0.29368 0.29336 0.92102 0.0
Mn253 Mn 0.24754 0.22298 0.94167 0.0
C254 C 0.24061 0.27667 0.92715 0.0
C255 C 0.31447 0.32271 0.89445 0.0
C256 C 0.29603 0.28235 0.96148 0.0
O257 O 0.31974 0.27105 0.91804 0.0
O258 O 0.2846 0.22372 0.93021 0.0
C259 C 0.22525 0.18061 0.90967 0.0
N260 N 0.21874 0.19176 0.92502 0.0
C261 C 0.16383 0.15046 0.92426 0.0
C262 C 0.16982 0.13858 0.90836 0.0
C263 C 0.20061 0.15393 0.90093 0.0
C264 C 0.18902 0.1779 0.93191 0.0
H265 H 0.24912 0.19174 0.90431 0.0
C266 C 0.31079 0.24232 0.92225 0.0
O267 O 0.32813 0.33351 0.91001 0.0
O268 O 0.28944 0.29461 0.89428 0.0
N269 N 0.21039 0.21813 0.9535 0.0
C270 C 0.20846 0.23329 0.96853 0.0
C271 C 0.17933 0.22095 0.97771 0.0
C272 C 0.15286 0.19257 0.97171 0.0
C273 C 0.15547 0.17733 0.95624 0.0
C274 C 0.18474 0.19147 0.94723 0.0
H275 H 0.22913 0.25425 0.97369 0.0
O276 O 0.26115 0.30639 0.92439 0.0
O277 O 0.25149 0.25713 0.92585 0.0
O278 O 0.30507 0.30145 0.9481 0.0
O279 O 0.27557 0.25286 0.96028 0.0
C280 C 0.13012 0.14879 0.94928 0.0
C281 C 0.13412 0.13574 0.93309 0.0
H282 H 0.15106 0.11753 0.90184 0.0
H283 H 0.20548 0.14478 0.88874 0.0
H284 H 0.17752 0.23283 0.98966 0.0
H285 H 0.1306 0.18276 0.97904 0.0
H286 H 0.10719 0.13726 0.95596 0.0
H287 H 0.11426 0.11424 0.92764 0.0
Mn288 Mn 0.76689 0.01936 0.91755 0.0
Mn289 Mn 0.8377 0.04189 0.93723 0.0
C290 C 0.77867 0.98064 0.92715 0.0
C291 C 0.73719 0.00994 0.89106 0.0
C292 C 0.78303 0.04293 0.95644 0.0
O293 O 0.79316 0.06685 0.91154 0.0
O294 O 0.84082 0.07689 0.9222 0.0
C295 C 0.87548 0.04778 0.90459 0.0
N296 N 0.86444 0.03502 0.92123 0.0
C297 C 0.89445 0.00794 0.92084 0.0
C298 C 0.90632 0.02087 0.90373 0.0
C299 C 0.89664 0.04075 0.89553 0.0
C300 C 0.87321 0.01555 0.92913 0.0
H301 H 0.86826 0.06327 0.89833 0.0
C302 C 0.82299 0.08507 0.91388 0.0
O303 O 0.72819 0.01653 0.9062 0.0
O304 O 0.76337 0.00888 0.8913 0.0
N305 N 0.83843 0.01041 0.95228 0.0
C306 C 0.82356 0.99866 0.9684 0.0
C307 C 0.82988 0.9776 0.97813 0.0
C308 C 0.85187 0.96945 0.97134 0.0
C309 C 0.86711 0.98225 0.95483 0.0
C310 C 0.85963 0.00276 0.94565 0.0
H311 H 0.80699 0.00524 0.97379 0.0
O312 O 0.74958 0.97361 0.92393 0.0
O313 O 0.80029 0.01005 0.92397 0.0
O314 O 0.76202 0.02957 0.94407 0.0
O315 O 0.81188 0.04959 0.95478 0.0
C316 C 0.88948 0.97551 0.94712 0.0
C317 C 0.90288 0.98789 0.93005 0.0
H318 H 0.92277 0.01562 0.89676 0.0
H319 H 0.90562 0.05078 0.88231 0.0
H320 H 0.81803 0.96788 0.99087 0.0
H321 H 0.85682 0.95329 0.9789 0.0
H322 H 0.89664 0.9611 0.95438 0.0
H323 H 0.91972 0.98197 0.9242 0.0
Mn324 Mn 0.77485 0.03297 0.10053 0.0
Mn325 Mn 0.821 0.01389 0.07554 0.0
C326 C 0.82608 0.07213 0.09282 0.0
C327 C 0.75586 0.03721 0.12876 0.0
C328 C 0.77214 0.02701 0.05894 0.0
O329 O 0.75047 0.98455 0.10212 0.0
O330 O 0.78196 0.97562 0.08377 0.0
C331 C 0.83732 0.98463 0.10578 0.0
N332 N 0.84666 0.00661 0.09229 0.0
C333 C 0.90179 0.0247 0.09823 0.0
C334 C 0.89281 0.00225 0.11217 0.0
C335 C 0.86041 0.9822 0.116 0.0
C336 C 0.87773 0.0264 0.08872 0.0
H337 H 0.81245 0.96892 0.10868 0.0
C338 C 0.7572 0.966 0.09355 0.0
O339 O 0.74036 0.03531 0.11403 0.0
O340 O 0.78187 0.03613 0.12708 0.0
N341 N 0.85998 0.04764 0.06634 0.0
C342 C 0.86445 0.06595 0.05146 0.0
C343 C 0.89546 0.08665 0.04539 0.0
C344 C 0.92139 0.08741 0.05428 0.0
C345 C 0.91616 0.06766 0.06925 0.0
C346 C 0.88477 0.04782 0.07481 0.0
H347 H 0.84448 0.06471 0.04427 0.0
O348 O 0.805 0.07935 0.09801 0.0
O349 O 0.81717 0.04193 0.09312 0.0
O350 O 0.76067 0.03068 0.07378 0.0
O351 O 0.79541 0.02177 0.05797 0.0
C352 C 0.94068 0.06598 0.07849 0.0
C353 C 0.93361 0.04491 0.09311 0.0
H354 H 0.91058 1.00003 0.1199 0.0
H355 H 0.85324 0.96472 0.12669 0.0
H356 H 0.89934 0.10153 0.03368 0.0
H357 H 0.94505 0.10262 0.04912 0.0
H358 H 0.96501 0.08018 0.07427 0.0
H359 H 0.95278 0.04394 0.10004 0.0
Mn360 Mn 0.03127 0.77641 0.09806 0.0
Mn361 Mn 0.05773 0.83987 0.07042 0.0
C362 C 0.99576 0.79107 0.08656 0.0
C363 C 0.02217 0.75536 0.12731 0.0
C364 C 0.04727 0.77575 0.05822 0.0
O365 O 0.07941 0.79962 0.10221 0.0
O366 O 0.09328 0.84289 0.08499 0.0
C367 C 0.07718 0.89167 0.09719 0.0
N368 N 0.05944 0.87538 0.08255 0.0
C369 C 0.04481 0.91509 0.07676 0.0
C370 C 0.06279 0.93228 0.09183 0.0
C371 C 0.07879 0.92035 0.1022 0.0
C372 C 0.04314 0.88611 0.07284 0.0
H373 H 0.09037 0.88309 0.1048 0.0
C374 C 0.09989 0.82678 0.09603 0.0
O375 O 0.02502 0.74013 0.11367 0.0
O376 O 0.02478 0.78278 0.12399 0.0
N377 N 0.02598 0.84047 0.05542 0.0
C378 C 0.00973 0.82095 0.04132 0.0
C379 C 0.99244 0.8294 0.02957 0.0
C380 C 0.99278 0.85821 0.03216 0.0
C381 C 0.0096 0.87786 0.04682 0.0
C382 C 0.02564 0.86775 0.05836 0.0
H383 H 0.01047 0.79944 0.03884 0.0
O384 O 0.98597 0.76257 0.0926 0.0
O385 O 0.02623 0.81069 0.08785 0.0
O386 O 0.03574 0.76058 0.07292 0.0
O387 O 0.05686 0.80522 0.05627 0.0
C388 C 0.01177 0.90745 0.05016 0.0
C389 C 0.02922 0.92597 0.06518 0.0
H390 H 0.06472 0.95479 0.09547 0.0
H391 H 0.09292 0.93359 0.11376 0.0
H392 H 0.97956 0.81415 0.01828 0.0
H393 H 0.98006 0.86504 0.0228 0.0
H394 H 0.99985 0.91606 0.04136 0.0
H395 H 0.03043 0.94852 0.0677 0.0
Mn396 Mn 0.28269 0.28753 0.10367 0.0
Mn397 Mn 0.21057 0.24604 0.08382 0.0
C398 C 0.26397 0.23504 0.09488 0.0
C399 C 0.31364 0.3061 0.1299 0.0
C400 C 0.26982 0.29289 0.06354 0.0
O401 O 0.26288 0.31519 0.10905 0.0
O402 O 0.21539 0.28444 0.09591 0.0
C403 C 0.17246 0.22688 0.11747 0.0
N404 N 0.18029 0.21901 0.10136 0.0
C405 C 0.13703 0.16526 0.10357 0.0
C406 C 0.12859 0.17261 0.12026 0.0
C407 C 0.14657 0.20352 0.12732 0.0
C408 C 0.16394 0.18913 0.0948 0.0
H409 H 0.18573 0.25083 0.12268 0.0
C410 C 0.23505 0.30916 0.10468 0.0
O411 O 0.32393 0.32033 0.11446 0.0
O412 O 0.28542 0.28119 0.13012 0.0
N413 N 0.20092 0.20781 0.07137 0.0
C414 C 0.21236 0.20466 0.05515 0.0
C415 C 0.19637 0.17555 0.04589 0.0
C416 C 0.16831 0.15035 0.05315 0.0
C417 C 0.15711 0.15407 0.06992 0.0
C418 C 0.17441 0.18338 0.07869 0.0
H419 H 0.23302 0.22447 0.04911 0.0
O420 O 0.29392 0.25439 0.09799 0.0
O421 O 0.24507 0.2464 0.09795 0.0
O422 O 0.28926 0.30102 0.07682 0.0
O423 O 0.24012 0.27286 0.06476 0.0
C424 C 0.12899 0.13012 0.07807 0.0
C425 C 0.11937 0.13545 0.09508 0.0
H426 H 0.10828 0.15476 0.12769 0.0
H427 H 0.14012 0.20945 0.14015 0.0
H428 H 0.20514 0.17281 0.03296 0.0
H429 H 0.15554 0.12822 0.04572 0.0
H430 H 0.11477 0.10735 0.07146 0.0
H431 H 0.09805 0.11668 0.10134 0.0
Mn432 Mn 0.69825 0.62815 0.43285 0.0
Mn433 Mn 0.72562 0.58895 0.40777 0.0
C434 C 0.66331 0.57609 0.42357 0.0
C435 C 0.69059 0.64286 0.46196 0.0
C436 C 0.71316 0.63999 0.39269 0.0
O437 O 0.74667 0.65566 0.43539 0.0
O438 O 0.76075 0.62291 0.42188 0.0
C439 C 0.74463 0.55909 0.43634 0.0
N440 N 0.72763 0.55641 0.42113 0.0
C441 C 0.71674 0.50302 0.41591 0.0
C442 C 0.73379 0.50499 0.43166 0.0
C443 C 0.74747 0.53303 0.44204 0.0
C444 C 0.71326 0.52913 0.41148 0.0
H445 H 0.75633 0.58114 0.44386 0.0
C446 C 0.76723 0.64788 0.43089 0.0
O447 O 0.69146 0.659 0.44773 0.0
O448 O 0.69438 0.61863 0.45925 0.0
N449 N 0.69465 0.55521 0.39311 0.0
C450 C 0.67881 0.55721 0.3784 0.0
C451 C 0.66413 0.5314 0.3664 0.0
C452 C 0.66681 0.50427 0.36932 0.0
C453 C 0.68305 0.50265 0.38463 0.0
C454 C 0.69621 0.52867 0.39645 0.0
H455 H 0.67812 0.57865 0.37557 0.0
O456 O 0.65295 0.59467 0.42899 0.0
O457 O 0.69396 0.58806 0.42447 0.0
O458 O 0.70026 0.64425 0.40668 0.0
O459 O 0.72452 0.62135 0.39233 0.0
C460 C 0.6875 0.47665 0.38835 0.0
C461 C 0.70395 0.47665 0.40412 0.0
H462 H 0.73677 0.48525 0.4358 0.0
H463 H 0.76088 0.53483 0.45412 0.0
H464 H 0.65166 0.53283 0.35461 0.0
H465 H 0.65627 0.48478 0.35974 0.0
H466 H 0.67785 0.45631 0.37936 0.0
H467 H 0.70674 0.45631 0.40702 0.0
Mn468 Mn 0.43902 0.09837 0.43266 0.0
Mn469 Mn 0.47874 0.16255 0.4056 0.0
C470 C 0.48795 0.11009 0.42054 0.0
C471 C 0.42638 0.07658 0.46182 0.0
C472 C 0.42287 0.10015 0.3929 0.0
O473 O 0.41596 0.12335 0.43716 0.0
O474 O 0.44743 0.16674 0.42055 0.0
C475 C 0.51312 0.21231 0.4332 0.0
N476 N 0.51351 0.19674 0.41798 0.0
C477 C 0.56716 0.23713 0.4112 0.0
C478 C 0.56752 0.25356 0.42688 0.0
C479 C 0.5405 0.24087 0.43806 0.0
C480 C 0.53979 0.20799 0.40757 0.0
H481 H 0.49189 0.20328 0.44136 0.0
C482 C 0.42426 0.15113 0.43136 0.0
O483 O 0.40779 0.06246 0.44813 0.0
O484 O 0.45204 0.1034 0.45862 0.0
N485 N 0.51017 0.16278 0.38998 0.0
C486 C 0.50581 0.144 0.37533 0.0
C487 C 0.53065 0.15306 0.36284 0.0
C488 C 0.55917 0.18199 0.36514 0.0
C489 C 0.56292 0.20117 0.38019 0.0
C490 C 0.53789 0.19019 0.3926 0.0
H491 H 0.48336 0.12258 0.37301 0.0
O492 O 0.46827 0.08208 0.42683 0.0
O493 O 0.47935 0.13142 0.42232 0.0
O494 O 0.4183 0.08418 0.40741 0.0
O495 O 0.444 0.12933 0.39124 0.0
C496 C 0.59036 0.23096 0.38324 0.0
C497 C 0.59249 0.24891 0.39874 0.0
H498 H 0.58826 0.27608 0.43037 0.0
H499 H 0.54048 0.25352 0.45011 0.0
H500 H 0.52746 0.13824 0.35119 0.0
H501 H 0.578 0.1893 0.35525 0.0
H502 H 0.61008 0.24016 0.37383 0.0
H503 H 0.61382 0.27161 0.40102 0.0
Mn504 Mn 0.96214 0.37459 0.43379 0.0
Mn505 Mn 0.89643 0.36049 0.41036 0.0
C506 C 0.95391 0.41669 0.42696 0.0
C507 C 0.98536 0.37654 0.46219 0.0
C508 C 0.95557 0.36925 0.39195 0.0
O509 O 0.93521 0.32615 0.43496 0.0
O510 O 0.89456 0.32051 0.41779 0.0
C511 C 0.85348 0.3342 0.44193 0.0
N512 N 0.86591 0.35572 0.42821 0.0
C513 C 0.83599 0.38054 0.4374 0.0
C514 C 0.82272 0.35856 0.45157 0.0
C515 C 0.83149 0.33525 0.45383 0.0
C516 C 0.8576 0.37816 0.4259 0.0
H517 H 0.86033 0.31641 0.44385 0.0
C518 C 0.90892 0.3091 0.42683 0.0
O519 O 0.99805 0.37386 0.44728 0.0
O520 O 0.95935 0.37753 0.46054 0.0
N521 N 0.89356 0.39603 0.40195 0.0
C522 C 0.90729 0.41433 0.38706 0.0
C523 C 0.90079 0.43864 0.38276 0.0
C524 C 0.87973 0.44327 0.3936 0.0
C525 C 0.86459 0.42305 0.40828 0.0
C526 C 0.8718 0.39911 0.4118 0.0
H527 H 0.92354 0.41078 0.37875 0.0
O528 O 0.98163 0.42154 0.43176 0.0
O529 O 0.93091 0.38705 0.42721 0.0
O530 O 0.97161 0.37171 0.40638 0.0
O531 O 0.92777 0.36607 0.39188 0.0
C532 C 0.8434 0.42628 0.41989 0.0
C533 C 0.82899 0.405 0.43439 0.0
H534 H 0.8059 0.35945 0.46083 0.0
H535 H 0.82143 0.31823 0.46475 0.0
H536 H 0.91228 0.45402 0.37131 0.0
H537 H 0.87571 0.46265 0.3907 0.0
H538 H 0.8386 0.44546 0.41806 0.0
H539 H 0.81276 0.40783 0.44321 0.0
Mn540 Mn 0.94819 0.3646 0.24813 0.0
Mn541 Mn 0.90416 0.39347 0.26658 0.0
C542 C 0.89482 0.33001 0.25535 0.0
C543 C 0.96852 0.35406 0.22171 0.0
C544 C 0.95201 0.38345 0.28805 0.0
O545 O 0.97596 0.41262 0.24413 0.0
O546 O 0.94169 0.42755 0.25426 0.0
C547 C 0.8833 0.41074 0.23298 0.0
N548 N 0.87608 0.3947 0.24897 0.0
C549 C 0.82134 0.38112 0.24667 0.0
C550 C 0.82809 0.39745 0.23016 0.0
C551 C 0.85917 0.41206 0.2232 0.0
C552 C 0.84613 0.37974 0.2555 0.0
H553 H 0.90736 0.42275 0.22787 0.0
C554 C 0.96782 0.43346 0.24689 0.0
O555 O 0.98188 0.35714 0.23741 0.0
O556 O 0.94355 0.35719 0.22138 0.0
N557 N 0.86664 0.36371 0.27913 0.0
C558 C 0.86433 0.34925 0.29529 0.0
C559 C 0.83506 0.33421 0.30437 0.0
C560 C 0.80879 0.33499 0.297 0.0
C561 C 0.81157 0.34961 0.2802 0.0
C562 C 0.8412 0.3637 0.27163 0.0
H563 H 0.88488 0.34993 0.3014 0.0
O564 O 0.91437 0.31955 0.25265 0.0
O565 O 0.90664 0.36038 0.25289 0.0
O566 O 0.96001 0.37067 0.27546 0.0
O567 O 0.93214 0.39314 0.28581 0.0
C568 C 0.7866 0.35194 0.27192 0.0
C569 C 0.79127 0.36705 0.25501 0.0
H570 H 0.80968 0.39915 0.22281 0.0
H571 H 0.86463 0.42485 0.21052 0.0
H572 H 0.83302 0.32297 0.31733 0.0
H573 H 0.78688 0.32487 0.30461 0.0
H574 H 0.76381 0.34276 0.2785 0.0
H575 H 0.77178 0.36838 0.24874 0.0
Mn576 Mn 0.69596 0.61704 0.25149 0.0
Mn577 Mn 0.66958 0.55139 0.27742 0.0
C578 C 0.73168 0.602 0.26231 0.0
C579 C 0.70512 0.64002 0.22256 0.0
C580 C 0.68125 0.6145 0.29212 0.0
O581 O 0.6479 0.59434 0.24714 0.0
O582 O 0.63399 0.55155 0.26463 0.0
C583 C 0.64734 0.50369 0.24799 0.0
N584 N 0.66556 0.51699 0.26299 0.0
C585 C 0.67779 0.4749 0.26517 0.0
C586 C 0.65923 0.46073 0.24971 0.0
C587 C 0.64419 0.47537 0.24097 0.0
C588 C 0.68099 0.50372 0.27112 0.0
H589 H 0.63496 0.51437 0.24158 0.0
C590 C 0.62722 0.56784 0.25388 0.0
O591 O 0.70219 0.65435 0.23665 0.0
O592 O 0.70281 0.6126 0.2253 0.0
N593 N 0.70068 0.54687 0.29086 0.0
C594 C 0.71729 0.56343 0.30574 0.0
C595 C 0.73316 0.55165 0.3163 0.0
C596 C 0.7309 0.5225 0.31178 0.0
C597 C 0.71371 0.5059 0.29635 0.0
C598 C 0.69917 0.51927 0.28608 0.0
H599 H 0.71778 0.58507 0.30974 0.0
O600 O 0.74127 0.63079 0.25688 0.0
O601 O 0.70129 0.58213 0.26063 0.0
O602 O 0.69069 0.63038 0.27738 0.0
O603 O 0.67302 0.5852 0.29345 0.0
C604 C 0.70964 0.47617 0.29105 0.0
C605 C 0.69233 0.46105 0.27526 0.0
H606 H 0.65609 0.43846 0.24454 0.0
H607 H 0.62964 0.46449 0.22912 0.0
H608 H 0.74631 0.56452 0.3282 0.0
H609 H 0.74232 0.51301 0.32031 0.0
H610 H 0.71981 0.4647 0.29899 0.0
H611 H 0.68979 0.43845 0.27121 0.0
Mn612 Mn 0.42983 0.09921 0.25218 0.0
Mn613 Mn 0.49915 0.14008 0.27488 0.0
C614 C 0.44759 0.15161 0.26115 0.0
C615 C 0.40228 0.0821 0.22465 0.0
C616 C 0.43781 0.08926 0.29206 0.0
O617 O 0.45096 0.0721 0.24834 0.0
O618 O 0.49861 0.1053 0.26096 0.0
C619 C 0.54433 0.16772 0.24442 0.0
N620 N 0.53185 0.17158 0.26006 0.0
C621 C 0.57402 0.22581 0.26289 0.0
C622 C 0.58728 0.22257 0.24674 0.0
C623 C 0.57216 0.19348 0.23736 0.0
C624 C 0.54554 0.19973 0.26884 0.0
H625 H 0.5334 0.145 0.23759 0.0
C626 C 0.47964 0.08014 0.25225 0.0
O627 O 0.39018 0.06697 0.23966 0.0
O628 O 0.43058 0.10684 0.22556 0.0
N629 N 0.50368 0.17473 0.28925 0.0
C630 C 0.48791 0.17368 0.3047 0.0
C631 C 0.50024 0.20055 0.31594 0.0
C632 C 0.52913 0.22781 0.31146 0.0
C633 C 0.54483 0.22838 0.29541 0.0
C634 C 0.53091 0.20123 0.28449 0.0
H635 H 0.46654 0.15224 0.30865 0.0
O636 O 0.41803 0.13247 0.25697 0.0
O637 O 0.46644 0.13998 0.25928 0.0
O638 O 0.41936 0.08405 0.27861 0.0
O639 O 0.46769 0.10863 0.29166 0.0
C640 C 0.57399 0.25468 0.28996 0.0
C641 C 0.58841 0.2535 0.27362 0.0
H642 H 0.60924 0.24211 0.24153 0.0
H643 H 0.58237 0.19069 0.22497 0.0
H644 H 0.488 0.19994 0.32829 0.0
H645 H 0.53895 0.24825 0.32038 0.0
H646 H 0.58537 0.27603 0.29815 0.0
H647 H 0.61067 0.27395 0.26951 0.0
Mn648 Mn 0.70433 0.11334 0.24697 0.0
Mn649 Mn 0.67802 0.15373 0.2719 0.0
C650 C 0.74027 0.16464 0.25642 0.0
C651 C 0.71063 0.09631 0.21855 0.0
C652 C 0.69124 0.10388 0.28759 0.0
O653 O 0.65606 0.08687 0.2441 0.0
O654 O 0.64211 0.1186 0.25875 0.0
C655 C 0.65775 0.18051 0.24219 0.0
N656 N 0.67584 0.18486 0.25718 0.0
C657 C 0.694 0.24084 0.25759 0.0
C658 C 0.67556 0.23702 0.24217 0.0
C659 C 0.65754 0.20673 0.23435 0.0
C660 C 0.69385 0.21396 0.26454 0.0
H661 H 0.64338 0.15717 0.23634 0.0
C662 C 0.63548 0.09412 0.24924 0.0
O663 O 0.7094 0.08086 0.23315 0.0
O664 O 0.70841 0.12168 0.22049 0.0
N665 N 0.7098 0.18876 0.28542 0.0
C666 C 0.72566 0.18829 0.30054 0.0
C667 C 0.74501 0.21674 0.3099 0.0
C668 C 0.74691 0.2451 0.30401 0.0
C669 C 0.72974 0.2448 0.28867 0.0
C670 C 0.71161 0.21597 0.27958 0.0
H671 H 0.72356 0.16641 0.30545 0.0
O672 O 0.7499 0.14566 0.25066 0.0
O673 O 0.70968 0.15376 0.25541 0.0
O674 O 0.70223 0.09815 0.27326 0.0
O675 O 0.68015 0.12278 0.28818 0.0
C676 C 0.7291 0.27178 0.28236 0.0
C677 C 0.71179 0.27004 0.26665 0.0
H678 H 0.67489 0.2571 0.23629 0.0
H679 H 0.64317 0.20355 0.22248 0.0
H680 H 0.75797 0.21669 0.32181 0.0
H681 H 0.76134 0.26687 0.31149 0.0
H682 H 0.74108 0.29368 0.28982 0.0
H683 H 0.71177 0.29114 0.26191 0.0
Mn684 Mn 0.95126 0.63501 0.24865 0.0
Mn685 Mn 0.91058 0.56877 0.27392 0.0
C686 C 0.90158 0.62224 0.26006 0.0
C687 C 0.96562 0.65783 0.21988 0.0
C688 C 0.96585 0.63004 0.28832 0.0
O689 O 0.97458 0.61046 0.2439 0.0
O690 O 0.94221 0.56516 0.25879 0.0
C691 C 0.87673 0.5219 0.2448 0.0
N692 N 0.87597 0.53661 0.26033 0.0
C693 C 0.81912 0.50378 0.26233 0.0
C694 C 0.81924 0.48816 0.2464 0.0
C695 C 0.84818 0.49732 0.23757 0.0
C696 C 0.8483 0.52811 0.26888 0.0
H697 H 0.89895 0.52877 0.23803 0.0
C698 C 0.96603 0.58208 0.2486 0.0
O699 O 0.98334 0.67161 0.23393 0.0
O700 O 0.93955 0.63113 0.22259 0.0
N701 N 0.87894 0.56869 0.28925 0.0
C702 C 0.88284 0.58659 0.30427 0.0
C703 C 0.8561 0.5809 0.31444 0.0
C704 C 0.82578 0.55649 0.30927 0.0
C705 C 0.82253 0.53807 0.29394 0.0
C706 C 0.84992 0.54494 0.28427 0.0
H707 H 0.90612 0.60512 0.30843 0.0
O708 O 0.92134 0.65072 0.25437 0.0
O709 O 0.91092 0.60147 0.25816 0.0
O710 O 0.97045 0.64733 0.27435 0.0
O711 O 0.94522 0.60051 0.28911 0.0
C712 C 0.79315 0.51317 0.28787 0.0
C713 C 0.79126 0.49616 0.27202 0.0
H714 H 0.79727 0.46914 0.24082 0.0
H715 H 0.8485 0.48537 0.22528 0.0
H716 H 0.85888 0.59517 0.32628 0.0
H717 H 0.80518 0.55213 0.31714 0.0
H718 H 0.77204 0.50696 0.29544 0.0
H719 H 0.7683 0.47725 0.26746 0.0
Mn720 Mn 0.4254 0.34798 0.25332 0.0
Mn721 Mn 0.49589 0.36705 0.27266 0.0
C722 C 0.43739 0.30813 0.25924 0.0
C723 C 0.39548 0.34254 0.22735 0.0
C724 C 0.439 0.35656 0.29439 0.0
O725 O 0.45001 0.3962 0.25063 0.0
O726 O 0.49431 0.4054 0.2653 0.0
C727 C 0.53392 0.39322 0.23925 0.0
N728 N 0.52421 0.37229 0.2533 0.0
C729 C 0.55651 0.3507 0.24303 0.0
C730 C 0.56695 0.37208 0.22849 0.0
C731 C 0.55559 0.39345 0.2266 0.0
C732 C 0.53496 0.35166 0.25523 0.0
H733 H 0.52527 0.40967 0.23769 0.0
C734 C 0.47743 0.41486 0.25709 0.0
O735 O 0.38621 0.34611 0.24323 0.0
O736 O 0.42223 0.34271 0.22658 0.0
N737 N 0.50228 0.33337 0.28062 0.0
C738 C 0.49134 0.31566 0.29598 0.0
C739 C 0.50053 0.29317 0.29991 0.0
C740 C 0.52157 0.28995 0.28829 0.0
C741 C 0.53378 0.30949 0.27308 0.0
C742 C 0.52371 0.3314 0.26983 0.0
H743 H 0.47538 0.31835 0.30499 0.0
O744 O 0.40844 0.30165 0.25634 0.0
O745 O 0.45934 0.33807 0.25759 0.0
O746 O 0.4206 0.3526 0.28095 0.0
O747 O 0.46722 0.3611 0.29291 0.0
C748 C 0.55519 0.30783 0.26089 0.0
C749 C 0.56658 0.32843 0.24588 0.0
H750 H 0.58366 0.3723 0.21871 0.0
H751 H 0.56353 0.41006 0.21543 0.0
H752 H 0.49137 0.2783 0.3118 0.0
H753 H 0.52812 0.27237 0.29112 0.0
H754 H 0.5629 0.2907 0.26284 0.0
H755 H 0.58307 0.32694 0.23662 0.0
Mn756 Mn 0.44948 0.3748 0.4374 0.0
Mn757 Mn 0.5047 0.3588 0.42088 0.0
C758 C 0.49876 0.41678 0.42879 0.0
C759 C 0.42575 0.38181 0.46313 0.0
C760 C 0.44835 0.3517 0.39893 0.0
O761 O 0.43144 0.32774 0.44344 0.0
O762 O 0.47336 0.32251 0.43551 0.0
C763 C 0.53482 0.35728 0.45539 0.0
N764 N 0.53733 0.36932 0.43845 0.0
C765 C 0.59368 0.40394 0.44199 0.0
C766 C 0.5918 0.39172 0.45941 0.0
C767 C 0.56221 0.36827 0.46614 0.0
C768 C 0.56564 0.39174 0.43181 0.0
H769 H 0.51207 0.33951 0.46069 0.0
C770 C 0.44597 0.31202 0.44266 0.0
O771 O 0.41083 0.37389 0.44771 0.0
O772 O 0.45404 0.38543 0.46354 0.0
N773 N 0.53695 0.39181 0.40654 0.0
C774 C 0.53436 0.40227 0.38987 0.0
C775 C 0.56161 0.42669 0.38153 0.0
C776 C 0.59113 0.43985 0.39038 0.0
C777 C 0.5933 0.4281 0.40731 0.0
C778 C 0.56547 0.40347 0.41484 0.0
H779 H 0.51163 0.39242 0.38312 0.0
O780 O 0.4746 0.4209 0.4311 0.0
O781 O 0.49376 0.38836 0.43246 0.0
O782 O 0.43741 0.36338 0.41052 0.0
O783 O 0.47216 0.34781 0.4019 0.0
C784 C 0.62166 0.44088 0.41741 0.0
C785 C 0.62203 0.42857 0.4346 0.0
H786 H 0.61283 0.40046 0.46782 0.0
H787 H 0.56049 0.35886 0.47962 0.0
H788 H 0.5598 0.43563 0.36844 0.0
H789 H 0.61185 0.45916 0.38413 0.0
H790 H 0.64291 0.46127 0.41255 0.0
H791 H 0.644 0.43903 0.44228 0.0
Mn792 Mn 0.6904 0.10004 0.43269 0.0
Mn793 Mn 0.70917 0.16865 0.41124 0.0
C794 C 0.65112 0.11304 0.42732 0.0
C795 C 0.68629 0.07202 0.45911 0.0
C796 C 0.69876 0.10951 0.39162 0.0
O797 O 0.73904 0.12522 0.43456 0.0
O798 O 0.74801 0.17024 0.42068 0.0
C799 C 0.73191 0.21108 0.44323 0.0
N800 N 0.71167 0.19855 0.4289 0.0
C801 C 0.68455 0.22674 0.4371 0.0
C802 C 0.70521 0.24012 0.45188 0.0
C803 C 0.72906 0.23231 0.45492 0.0
C804 C 0.6889 0.20618 0.42573 0.0
H805 H 0.75001 0.20484 0.44578 0.0
C806 C 0.75753 0.15348 0.429 0.0
O807 O 0.6887 0.06157 0.44336 0.0
O808 O 0.68708 0.09911 0.45956 0.0
N809 N 0.67391 0.1708 0.40155 0.0
C810 C 0.656 0.15584 0.38668 0.0
C811 C 0.63079 0.1607 0.38192 0.0
C812 C 0.62447 0.18091 0.39247 0.0
C813 C 0.64405 0.19709 0.40723 0.0
C814 C 0.66913 0.19172 0.41114 0.0
H815 H 0.66047 0.13983 0.37874 0.0
O816 O 0.64373 0.08392 0.43061 0.0
O817 O 0.68142 0.13403 0.42775 0.0
O818 O 0.69199 0.09167 0.40551 0.0
O819 O 0.70613 0.13868 0.39225 0.0
C820 C 0.63892 0.2173 0.41866 0.0
C821 C 0.65928 0.23234 0.43348 0.0
H822 H 0.70281 0.25619 0.46105 0.0
H823 H 0.74504 0.24243 0.46633 0.0
H824 H 0.61578 0.14829 0.37046 0.0
H825 H 0.60414 0.18323 0.38934 0.0
H826 H 0.61891 0.22076 0.41648 0.0
H827 H 0.65494 0.24769 0.4422 0.0
Mn828 Mn 0.96557 0.62789 0.42947 0.0
Mn829 Mn 0.89497 0.5871 0.4081 0.0
C830 C 0.94786 0.57585 0.41987 0.0
C831 C 0.99474 0.64469 0.45639 0.0
C832 C 0.95476 0.6392 0.39028 0.0
O833 O 0.94382 0.65373 0.43531 0.0
O834 O 0.89554 0.62072 0.42334 0.0
C835 C 0.85141 0.55699 0.43902 0.0
N836 N 0.86323 0.55441 0.42282 0.0
C837 C 0.82108 0.50035 0.41917 0.0
C838 C 0.80857 0.50223 0.43592 0.0
C839 C 0.82402 0.53058 0.44599 0.0
C840 C 0.84928 0.52691 0.41338 0.0
H841 H 0.86254 0.57917 0.44641 0.0
C842 C 0.91476 0.64536 0.43237 0.0
O843 O 0.00578 0.6603 0.4414 0.0
O844 O 0.96678 0.61944 0.45578 0.0
N845 N 0.89044 0.55348 0.39274 0.0
C846 C 0.90608 0.55547 0.37708 0.0
C847 C 0.89383 0.52917 0.36539 0.0
C848 C 0.86514 0.50151 0.36966 0.0
C849 C 0.84956 0.49997 0.38593 0.0
C850 C 0.86348 0.52654 0.39731 0.0
H851 H 0.9273 0.57722 0.37332 0.0
O852 O 0.97771 0.59545 0.4232 0.0
O853 O 0.92884 0.58707 0.42265 0.0
O854 O 0.97411 0.64408 0.40319 0.0
O855 O 0.925 0.61965 0.39125 0.0
C856 C 0.82052 0.47331 0.39116 0.0
C857 C 0.80631 0.47349 0.4078 0.0
H858 H 0.78702 0.48216 0.44112 0.0
H859 H 0.8144 0.5323 0.45886 0.0
H860 H 0.906 0.53052 0.35287 0.0
H861 H 0.85538 0.4815 0.36042 0.0
H862 H 0.80908 0.45244 0.38259 0.0
H863 H 0.78418 0.45273 0.41177 0.0
Mn864 Mn 0.3596 0.9561 0.76462 0.0
Mn865 Mn 0.37572 0.90347 0.74428 0.0
C866 C 0.31774 0.90658 0.75616 0.0
C867 C 0.3539 0.97851 0.79134 0.0
C868 C 0.37774 0.95929 0.72468 0.0
O869 O 0.40719 0.97476 0.76942 0.0
O870 O 0.41366 0.93569 0.75751 0.0
C871 C 0.3843 0.87403 0.77725 0.0
N872 N 0.36926 0.87112 0.76119 0.0
C873 C 0.33595 0.81477 0.7653 0.0
C874 C 0.35121 0.81707 0.78181 0.0
C875 C 0.37554 0.84685 0.78779 0.0
C876 C 0.34604 0.8426 0.75523 0.0
H877 H 0.40273 0.89693 0.78201 0.0
C878 C 0.42396 0.96193 0.76601 0.0
O879 O 0.36038 0.99376 0.77608 0.0
O880 O 0.35112 0.95055 0.79111 0.0
N881 N 0.34119 0.87059 0.73102 0.0
C882 C 0.32805 0.87264 0.71513 0.0
C883 C 0.30281 0.84503 0.70752 0.0
C884 C 0.29148 0.8157 0.71631 0.0
C885 C 0.30599 0.81418 0.7324 0.0
C886 C 0.3314 0.8423 0.73915 0.0
H887 H 0.33645 0.8952 0.70844 0.0
O888 O 0.31306 0.93012 0.75951 0.0
O889 O 0.34684 0.91237 0.75848 0.0
O890 O 0.36814 0.96963 0.73775 0.0
O891 O 0.38231 0.93565 0.72595 0.0
C892 C 0.29523 0.78614 0.74247 0.0
C893 C 0.31034 0.78619 0.75876 0.0
H894 H 0.34418 0.7962 0.79009 0.0
H895 H 0.38732 0.8489 0.80057 0.0
H896 H 0.29182 0.84641 0.69508 0.0
H897 H 0.27147 0.7946 0.71066 0.0
H898 H 0.27429 0.7649 0.73829 0.0
H899 H 0.30137 0.76437 0.76643 0.0
Mn900 Mn 0.11097 0.44551 0.76732 0.0
Mn901 Mn 0.1555 0.51939 0.75043 0.0
C902 C 0.1649 0.46483 0.76138 0.0
C903 C 0.08818 0.41393 0.79317 0.0
C904 C 0.11009 0.46234 0.7275 0.0
O905 O 0.08227 0.46479 0.77051 0.0
O906 O 0.11699 0.51492 0.76217 0.0
C907 C 0.17379 0.55536 0.78482 0.0
N908 N 0.18218 0.54789 0.76877 0.0
C909 C 0.2361 0.59052 0.77188 0.0
C910 C 0.2282 0.59861 0.78852 0.0
C911 C 0.19695 0.58074 0.79511 0.0
C912 C 0.21236 0.56413 0.76264 0.0
H913 H 0.14953 0.54231 0.78959 0.0
C914 C 0.09028 0.49386 0.76857 0.0
O915 O 0.07647 0.40398 0.7771 0.0
O916 O 0.11323 0.44192 0.79416 0.0
N917 N 0.19398 0.52853 0.7385 0.0
C918 C 0.19749 0.51758 0.7222 0.0
C919 C 0.22703 0.53339 0.71341 0.0
C920 C 0.25226 0.56086 0.72118 0.0
C921 C 0.24819 0.57149 0.73809 0.0
C922 C 0.21848 0.55426 0.74642 0.0
H923 H 0.17765 0.49749 0.71573 0.0
O924 O 0.14528 0.43474 0.76376 0.0
O925 O 0.15279 0.48324 0.76366 0.0
O926 O 0.1017 0.44089 0.73971 0.0
O927 O 0.12901 0.49192 0.73046 0.0
C928 C 0.27206 0.59912 0.74674 0.0
C929 C 0.26626 0.60819 0.7638 0.0
H930 H 0.2458 0.61871 0.79625 0.0
H931 H 0.19057 0.58699 0.80786 0.0
H932 H 0.23005 0.52508 0.70038 0.0
H933 H 0.27457 0.57371 0.71396 0.0
H934 H 0.29501 0.61363 0.7404 0.0
H935 H 0.28494 0.62919 0.7704 0.0
Mn936 Mn 0.62353 0.69503 0.7678 0.0
Mn937 Mn 0.55031 0.6644 0.74926 0.0
C938 C 0.6042 0.72884 0.7598 0.0
C939 C 0.65519 0.70759 0.79403 0.0
C940 C 0.60847 0.67538 0.72796 0.0
O941 O 0.60399 0.64734 0.77275 0.0
O942 O 0.55506 0.6313 0.76177 0.0
C943 C 0.51219 0.6464 0.78285 0.0
N944 N 0.52038 0.66208 0.76675 0.0
C945 C 0.47547 0.67019 0.76771 0.0
C946 C 0.46655 0.65427 0.78437 0.0
C947 C 0.48522 0.64263 0.79207 0.0
C948 C 0.50334 0.6744 0.75956 0.0
H949 H 0.52581 0.63636 0.78843 0.0
C950 C 0.57529 0.626 0.76966 0.0
O951 O 0.66524 0.70381 0.77846 0.0
O952 O 0.62685 0.7039 0.79437 0.0
N953 N 0.54084 0.6927 0.73641 0.0
C954 C 0.55251 0.70696 0.72015 0.0
C955 C 0.53613 0.71907 0.71033 0.0
C956 C 0.50739 0.71534 0.71704 0.0
C957 C 0.49586 0.70058 0.73383 0.0
C958 C 0.51379 0.69003 0.74328 0.0
H959 H 0.57364 0.70826 0.71449 0.0
O960 O 0.63428 0.73949 0.76244 0.0
O961 O 0.58562 0.69857 0.76283 0.0
O962 O 0.62911 0.68804 0.74063 0.0
O963 O 0.57889 0.66558 0.73006 0.0
C964 C 0.46706 0.69558 0.74146 0.0
C965 C 0.45722 0.681 0.75855 0.0
H966 H 0.44522 0.65047 0.79123 0.0
H967 H 0.47835 0.63006 0.80483 0.0
H968 H 0.54513 0.7304 0.69738 0.0
H969 H 0.49441 0.72402 0.70923 0.0
H970 H 0.45259 0.70337 0.73441 0.0
H971 H 0.43529 0.67769 0.76436 0.0
Mn972 Mn 0.61851 0.69257 0.58362 0.0
Mn973 Mn 0.58014 0.72164 0.60827 0.0
C974 C 0.56581 0.65914 0.59223 0.0
C975 C 0.63464 0.68496 0.5549 0.0
C976 C 0.62451 0.70207 0.62503 0.0
O977 O 0.64812 0.74045 0.58117 0.0
O978 O 0.62028 0.7561 0.59826 0.0
C979 C 0.56541 0.7515 0.57768 0.0
N980 N 0.55547 0.73131 0.59209 0.0
C981 C 0.50302 0.7246 0.59042 0.0
C982 C 0.51262 0.74528 0.57555 0.0
C983 C 0.54389 0.75854 0.56904 0.0
C984 C 0.52519 0.71753 0.59803 0.0
H985 H 0.58967 0.76245 0.57297 0.0
C986 C 0.6443 0.7619 0.58859 0.0
O987 O 0.6494 0.68464 0.56952 0.0
O988 O 0.6106 0.68928 0.55705 0.0
N989 N 0.54058 0.69222 0.61919 0.0
C990 C 0.53577 0.6743 0.63429 0.0
C991 C 0.50631 0.66078 0.64315 0.0
C992 C 0.4825 0.66666 0.63672 0.0
C993 C 0.48782 0.68489 0.62105 0.0
C994 C 0.51747 0.69733 0.61263 0.0
H995 H 0.5546 0.67111 0.63981 0.0
O996 O 0.58372 0.64786 0.58704 0.0
O997 O 0.57861 0.68994 0.59129 0.0
O998 O 0.63286 0.69404 0.61037 0.0
O999 O 0.60468 0.71204 0.6257 0.0
C1000 C 0.46539 0.69239 0.61392 0.0
C1001 C 0.47274 0.71167 0.5984 0.0
H1002 H 0.49631 0.75142 0.56916 0.0
H1003 H 0.55158 0.77468 0.55765 0.0
H1004 H 0.50233 0.64676 0.65526 0.0
H1005 H 0.46038 0.65749 0.6441 0.0
H1006 H 0.44246 0.68369 0.62034 0.0
H1007 H 0.45524 0.71712 0.59301 0.0
Mn1008 Mn 0.3723 0.95145 0.58198 0.0
Mn1009 Mn 0.3436 0.88465 0.60705 0.0
C1010 C 0.4065 0.934 0.59208 0.0
C1011 C 0.38145 0.97534 0.55339 0.0
C1012 C 0.35595 0.94795 0.6221 0.0
O1013 O 0.32421 0.9301 0.5779 0.0
O1014 O 0.30886 0.8843 0.59291 0.0
C1015 C 0.32351 0.83586 0.57833 0.0
N1016 N 0.34118 0.85019 0.59336 0.0
C1017 C 0.3542 0.80885 0.59714 0.0
C1018 C 0.33625 0.79366 0.58165 0.0
C1019 C 0.3211 0.80741 0.5721 0.0
C1020 C 0.35666 0.83772 0.60231 0.0
H1021 H 0.31094 0.8458 0.57134 0.0
C1022 C 0.30312 0.90232 0.58292 0.0
O1023 O 0.37956 0.98965 0.56777 0.0
O1024 O 0.37829 0.94743 0.55563 0.0
N1025 N 0.37448 0.88138 0.62148 0.0
C1026 C 0.39079 0.89907 0.63614 0.0
C1027 C 0.40732 0.88868 0.64719 0.0
C1028 C 0.40609 0.85977 0.64336 0.0
C1029 C 0.38927 0.84206 0.62812 0.0
C1030 C 0.37409 0.85411 0.6173 0.0
H1031 H 0.3907 0.9206 0.63957 0.0
O1032 O 0.41731 0.96319 0.58698 0.0
O1033 O 0.37591 0.91537 0.59053 0.0
O1034 O 0.3683 0.96479 0.60797 0.0
O1035 O 0.34518 0.91808 0.62274 0.0
C1036 C 0.3862 0.81249 0.62354 0.0
C1037 C 0.36892 0.79603 0.60797 0.0
H1038 H 0.33368 0.7713 0.57708 0.0
H1039 H 0.307 0.79571 0.56023 0.0
H1040 H 0.42024 0.90248 0.65891 0.0
H1041 H 0.41801 0.85134 0.65227 0.0
H1042 H 0.3973 0.8023 0.6318 0.0
H1043 H 0.36703 0.77348 0.60449 0.0
Mn1044 Mn 0.11189 0.44641 0.58237 0.0
Mn1045 Mn 0.18 0.48752 0.60633 0.0
C1046 C 0.1301 0.49934 0.59018 0.0
C1047 C 0.08743 0.42857 0.55383 0.0
C1048 C 0.11686 0.44274 0.62386 0.0
O1049 O 0.1312 0.41758 0.58044 0.0
O1050 O 0.17538 0.44761 0.59669 0.0
C1051 C 0.22401 0.50247 0.57547 0.0
N1052 N 0.2137 0.51233 0.58987 0.0
C1053 C 0.25888 0.56507 0.58799 0.0
C1054 C 0.27002 0.55557 0.5731 0.0
C1055 C 0.25232 0.52419 0.5667 0.0
C1056 C 0.22986 0.54271 0.59571 0.0
H1057 H 0.21097 0.47812 0.57086 0.0
C1058 C 0.15728 0.42283 0.5875 0.0
O1059 O 0.07297 0.41428 0.56866 0.0
O1060 O 0.11565 0.45298 0.55565 0.0
N1061 N 0.18926 0.52706 0.61693 0.0
C1062 C 0.1761 0.53178 0.63203 0.0
C1063 C 0.19186 0.56128 0.64088 0.0
C1064 C 0.2214 0.58525 0.6344 0.0
C1065 C 0.23431 0.58004 0.61869 0.0
C1066 C 0.21729 0.55033 0.6103 0.0
H1067 H 0.15425 0.51285 0.63762 0.0
O1068 O 0.1009 0.48054 0.58524 0.0
O1069 O 0.14877 0.48727 0.58942 0.0
O1070 O 0.09995 0.43337 0.60937 0.0
O1071 O 0.14658 0.46297 0.62413 0.0
C1072 C 0.26404 0.60269 0.61146 0.0
C1073 C 0.27599 0.59545 0.59591 0.0
H1074 H 0.2923 0.57203 0.56664 0.0
H1075 H 0.26084 0.51657 0.5553 0.0
H1076 H 0.1818 0.56517 0.653 0.0
H1077 H 0.23415 0.60749 0.64172 0.0
H1078 H 0.27803 0.62574 0.61781 0.0
H1079 H 0.29876 0.61312 0.59044 0.0
Mn1080 Mn 0.37562 0.44066 0.58747 0.0
Mn1081 Mn 0.35081 0.48641 0.60819 0.0
C1082 C 0.41292 0.49209 0.59634 0.0
C1083 C 0.38486 0.42061 0.56087 0.0
C1084 C 0.35696 0.43473 0.62745 0.0
O1085 O 0.3278 0.41671 0.58248 0.0
O1086 O 0.31512 0.45113 0.59505 0.0
C1087 C 0.3358 0.51226 0.57578 0.0
N1088 N 0.35216 0.51708 0.59155 0.0
C1089 C 0.37512 0.57371 0.58911 0.0
C1090 C 0.35849 0.56942 0.57287 0.0
C1091 C 0.33882 0.53854 0.56614 0.0
C1092 C 0.37128 0.54663 0.59807 0.0
H1093 H 0.32044 0.48855 0.57065 0.0
C1094 C 0.30799 0.42577 0.58628 0.0
O1095 O 0.38008 0.40581 0.57617 0.0
O1096 O 0.38411 0.44694 0.56096 0.0
N1097 N 0.38263 0.52171 0.62146 0.0
C1098 C 0.39717 0.5217 0.63724 0.0
C1099 C 0.41802 0.55072 0.64563 0.0
C1100 C 0.42312 0.57929 0.63792 0.0
C1101 C 0.40747 0.57863 0.62182 0.0
C1102 C 0.3872 0.54906 0.61399 0.0
H1103 H 0.39298 0.49976 0.64334 0.0
O1104 O 0.42122 0.47109 0.5928 0.0
O1105 O 0.3829 0.48285 0.59379 0.0
O1106 O 0.36828 0.42653 0.61424 0.0
O1107 O 0.34901 0.45604 0.6264 0.0
C1108 C 0.41109 0.60607 0.61323 0.0
C1109 C 0.39519 0.60374 0.59684 0.0
H1110 H 0.36062 0.58964 0.56546 0.0
H1111 H 0.32585 0.535 0.55364 0.0
H1112 H 0.42994 0.55105 0.65808 0.0
H1113 H 0.439 0.6015 0.64457 0.0
H1114 H 0.42582 0.62903 0.61919 0.0
H1115 H 0.39847 0.62518 0.59036 0.0
Mn1116 Mn 0.62427 0.95915 0.58187 0.0
Mn1117 Mn 0.57614 0.88653 0.59987 0.0
C1118 C 0.5728 0.94525 0.59022 0.0
C1119 C 0.64601 0.99079 0.5563 0.0
C1120 C 0.62567 0.94181 0.62173 0.0
O1121 O 0.64828 0.9357 0.57625 0.0
O1122 O 0.61397 0.88852 0.58858 0.0
C1123 C 0.55724 0.85103 0.56527 0.0
N1124 N 0.54909 0.85967 0.58103 0.0
C1125 C 0.49339 0.82689 0.5744 0.0
C1126 C 0.50115 0.81755 0.55813 0.0
C1127 C 0.53325 0.82972 0.55354 0.0
C1128 C 0.51835 0.84818 0.58555 0.0
H1129 H 0.58186 0.86024 0.56168 0.0
C1130 C 0.63967 0.90707 0.58023 0.0
O1131 O 0.66017 0.99936 0.5719 0.0
O1132 O 0.61941 0.96402 0.55559 0.0
N1133 N 0.5381 0.87998 0.61126 0.0
C1134 C 0.53468 0.89101 0.62756 0.0
C1135 C 0.504 0.88117 0.63411 0.0
C1136 C 0.47733 0.85959 0.62401 0.0
C1137 C 0.48144 0.84799 0.60749 0.0
C1138 C 0.51253 0.85863 0.60166 0.0
H1139 H 0.5552 0.90738 0.63541 0.0
O1140 O 0.59442 0.97465 0.58762 0.0
O1141 O 0.58134 0.92413 0.58684 0.0
O1142 O 0.63652 0.96228 0.60892 0.0
O1143 O 0.60312 0.9131 0.61987 0.0
C1144 C 0.45597 0.8265 0.5965 0.0
C1145 C 0.46189 0.81598 0.57997 0.0
H1146 H 0.48267 0.80107 0.54907 0.0
H1147 H 0.53947 0.82263 0.54102 0.0
H1148 H 0.50091 0.89006 0.64692 0.0
H1149 H 0.45383 0.85194 0.62911 0.0
H1150 H 0.43174 0.81804 0.60052 0.0
H1151 H 0.44204 0.79954 0.57164 0.0
Mn1152 Mn 0.09759 0.68777 0.58289 0.0
Mn1153 Mn 0.16721 0.712 0.60472 0.0
C1154 C 0.11203 0.65037 0.59116 0.0
C1155 C 0.06972 0.67983 0.55577 0.0
C1156 C 0.10791 0.70397 0.62319 0.0
O1157 O 0.12088 0.73612 0.57956 0.0
O1158 O 0.1678 0.74813 0.59222 0.0
C1159 C 0.20971 0.72929 0.57295 0.0
N1160 N 0.19761 0.71205 0.58837 0.0
C1161 C 0.23234 0.6903 0.58608 0.0
C1162 C 0.24529 0.70785 0.57019 0.0
C1163 C 0.23384 0.72736 0.56357 0.0
C1164 C 0.20824 0.69305 0.59478 0.0
H1165 H 0.20117 0.74454 0.56792 0.0
C1166 C 0.14965 0.75576 0.58379 0.0
O1167 O 0.05862 0.68337 0.57103 0.0
O1168 O 0.09719 0.6814 0.55621 0.0
N1169 N 0.1706 0.67985 0.61758 0.0
C1170 C 0.1556 0.66461 0.63309 0.0
C1171 C 0.16406 0.64394 0.64141 0.0
C1172 C 0.1883 0.6398 0.63392 0.0
C1173 C 0.20377 0.65622 0.61812 0.0
C1174 C 0.19416 0.67625 0.61035 0.0
H1175 H 0.13729 0.66813 0.63905 0.0
O1176 O 0.08289 0.6419 0.58701 0.0
O1177 O 0.13253 0.68064 0.58948 0.0
O1178 O 0.089 0.69288 0.60967 0.0
O1179 O 0.13737 0.71242 0.62258 0.0
C1180 C 0.22843 0.65366 0.60979 0.0
C1181 C 0.24256 0.6704 0.59372 0.0
H1182 H 0.26406 0.70657 0.563 0.0
H1183 H 0.24373 0.74104 0.55134 0.0
H1184 H 0.15213 0.63146 0.65365 0.0
H1185 H 0.19487 0.6241 0.64053 0.0
H1186 H 0.2369 0.63913 0.6157 0.0
H1187 H 0.26138 0.66794 0.58745 0.0
Mn1188 Mn 0.10686 0.70777 0.76516 0.0
Mn1189 Mn 0.14636 0.67568 0.74468 0.0
C1190 C 0.15895 0.74081 0.75525 0.0
C1191 C 0.09049 0.72135 0.79181 0.0
C1192 C 0.09577 0.68481 0.72606 0.0
O1193 O 0.07988 0.66056 0.77148 0.0
O1194 O 0.11155 0.64361 0.75969 0.0
C1195 C 0.17423 0.66146 0.77648 0.0
N1196 N 0.17788 0.67552 0.76005 0.0
C1197 C 0.23101 0.68432 0.75709 0.0
C1198 C 0.22803 0.67025 0.77408 0.0
C1199 C 0.19962 0.65907 0.7839 0.0
C1200 C 0.20547 0.68737 0.7508 0.0
H1201 H 0.15193 0.65167 0.78368 0.0
C1202 C 0.08713 0.63909 0.7686 0.0
O1203 O 0.07505 0.71684 0.77673 0.0
O1204 O 0.11547 0.71816 0.79139 0.0
N1205 N 0.18104 0.70337 0.72949 0.0
C1206 C 0.18025 0.71705 0.71356 0.0
C1207 C 0.20673 0.72931 0.70201 0.0
C1208 C 0.23316 0.72624 0.70664 0.0
C1209 C 0.23332 0.71192 0.72308 0.0
C1210 C 0.2069 0.70154 0.73441 0.0
H1211 H 0.1593 0.7179 0.70952 0.0
O1212 O 0.13994 0.75179 0.75844 0.0
O1213 O 0.14735 0.71067 0.75859 0.0
O1214 O 0.09075 0.69945 0.73881 0.0
O1215 O 0.11503 0.6743 0.7273 0.0
C1216 C 0.25873 0.70767 0.72874 0.0
C1217 C 0.25786 0.69449 0.74589 0.0
H1218 H 0.24726 0.66762 0.7796 0.0
H1219 H 0.19702 0.64791 0.79694 0.0
H1220 H 0.2064 0.74025 0.68933 0.0
H1221 H 0.25324 0.73505 0.69751 0.0
H1222 H 0.27946 0.71534 0.72022 0.0
H1223 H 0.27781 0.69198 0.75025 0.0
Mn1224 Mn 0.35363 0.43275 0.77047 0.0
Mn1225 Mn 0.38027 0.50449 0.75096 0.0
C1226 C 0.3171 0.44818 0.7618 0.0
C1227 C 0.34404 0.40247 0.79671 0.0
C1228 C 0.37458 0.44727 0.73103 0.0
O1229 O 0.4015 0.45581 0.77562 0.0
O1230 O 0.41485 0.50439 0.76505 0.0
C1231 C 0.39284 0.54424 0.78366 0.0
N1232 N 0.37757 0.53314 0.76755 0.0
C1233 C 0.35489 0.56713 0.76923 0.0
C1234 C 0.37037 0.579 0.78582 0.0
C1235 C 0.38936 0.56741 0.7931 0.0
C1236 C 0.35909 0.54391 0.7605 0.0
H1237 H 0.40775 0.53566 0.7892 0.0
C1238 C 0.42144 0.48516 0.77315 0.0
O1239 O 0.34856 0.39282 0.7812 0.0
O1240 O 0.34494 0.42963 0.79699 0.0
N1241 N 0.34945 0.5084 0.7369 0.0
C1242 C 0.3361 0.49445 0.72078 0.0
C1243 C 0.31598 0.50304 0.71185 0.0
C1244 C 0.31047 0.5264 0.71936 0.0
C1245 C 0.325 0.5408 0.7358 0.0
C1246 C 0.34439 0.53097 0.74421 0.0
H1247 H 0.34066 0.47684 0.71481 0.0
O1248 O 0.30817 0.41864 0.76505 0.0
O1249 O 0.3472 0.46833 0.76459 0.0
O1250 O 0.3612 0.42685 0.74364 0.0
O1251 O 0.38373 0.47676 0.73274 0.0
C1252 C 0.32122 0.5647 0.7441 0.0
C1253 C 0.33579 0.57768 0.76087 0.0
H1254 H 0.36793 0.59706 0.79306 0.0
H1255 H 0.4015 0.57652 0.80586 0.0
H1256 H 0.30497 0.49188 0.69914 0.0
H1257 H 0.2951 0.53312 0.71237 0.0
H1258 H 0.30753 0.5735 0.73751 0.0
H1259 H 0.33238 0.59595 0.7671 0.0
Mn1260 Mn 0.63124 0.94911 0.76592 0.0
Mn1261 Mn 0.56133 0.89974 0.74543 0.0
C1262 C 0.61885 0.89734 0.75899 0.0
C1263 C 0.65955 0.97154 0.79259 0.0
C1264 C 0.61862 0.95107 0.72555 0.0
O1265 O 0.60628 0.97262 0.76862 0.0
O1266 O 0.55937 0.93529 0.75704 0.0
C1267 C 0.52177 0.87587 0.77838 0.0
N1268 N 0.533 0.87012 0.7628 0.0
C1269 C 0.50345 0.81375 0.76787 0.0
C1270 C 0.49134 0.81896 0.78391 0.0
C1271 C 0.50059 0.85019 0.7892 0.0
C1272 C 0.52435 0.84026 0.7576 0.0
H1273 H 0.52896 0.89985 0.78254 0.0
C1274 C 0.57708 0.96199 0.76474 0.0
O1275 O 0.66983 0.98544 0.77707 0.0
O1276 O 0.63261 0.94507 0.79266 0.0
N1277 N 0.55919 0.86398 0.73348 0.0
C1278 C 0.57352 0.86312 0.71781 0.0
C1279 C 0.5672 0.83368 0.71079 0.0
C1280 C 0.54592 0.80554 0.71981 0.0
C1281 C 0.53087 0.80709 0.73566 0.0
C1282 C 0.5379 0.83701 0.74194 0.0
H1283 H 0.58987 0.88471 0.71082 0.0
O1284 O 0.6478 0.91922 0.76258 0.0
O1285 O 0.59748 0.90604 0.76036 0.0
O1286 O 0.63819 0.96075 0.73882 0.0
O1287 O 0.5895 0.92923 0.72673 0.0
C1288 C 0.50975 0.7802 0.7457 0.0
C1289 C 0.49601 0.78336 0.76178 0.0
H1290 H 0.47512 0.79919 0.79232 0.0
H1291 H 0.49148 0.85445 0.8016 0.0
H1292 H 0.57881 0.83268 0.69852 0.0
H1293 H 0.54143 0.78294 0.71447 0.0
H1294 H 0.50448 0.75712 0.74133 0.0
H1295 H 0.48006 0.7623 0.76943 0.0
H1296 H 0.12385 0.31856 0.13141 0.0
H1297 H 0.13111 0.35477 0.07748 0.0
H1298 H 0.18618 0.36665 0.07552 0.0
H1299 H 0.22358 0.34924 0.08531 0.0
H1300 H 0.21484 0.30989 0.13852 0.0
H1301 H 0.16959 0.3173 0.14492 0.0
C1302 C 0.13825 0.33099 0.11973 0.0
C1303 C 0.12355 0.33554 0.10454 0.0
C1304 C 0.16938 0.33617 0.11841 0.0
C1305 C 0.14211 0.35129 0.08937 0.0
C1306 C 0.17343 0.35746 0.08812 0.0
C1307 C 0.21297 0.34422 0.09869 0.0
C1308 C 0.22221 0.32891 0.11141 0.0
C1309 C 0.18624 0.34751 0.10197 0.0
C1310 C 0.20818 0.32197 0.12862 0.0
C1311 C 0.18196 0.32573 0.13215 0.0
H1312 H 0.75078 0.93073 0.12313 0.0
H1313 H 0.72291 0.92461 0.06731 0.0
H1314 H 0.7133 0.87034 0.06549 0.0
H1315 H 0.72822 0.83236 0.07719 0.0
H1316 H 0.75957 0.83963 0.13233 0.0
H1317 H 0.75192 0.88521 0.13728 0.0
C1318 C 0.74083 0.91673 0.11094 0.0
C1319 C 0.73752 0.93138 0.09536 0.0
C1320 C 0.7369 0.88605 0.10977 0.0
C1321 C 0.72533 0.91351 0.07947 0.0
C1322 C 0.72031 0.88267 0.07836 0.0
C1323 C 0.7317 0.84296 0.09053 0.0
C1324 C 0.74445 0.83296 0.10437 0.0
C1325 C 0.72824 0.86969 0.09303 0.0
C1326 C 0.74939 0.84688 0.12157 0.0
C1327 C 0.74545 0.87322 0.1243 0.0
H1328 H 0.15405 0.84333 0.07803 0.0
H1329 H 0.1175 0.85019 0.12979 0.0
H1330 H 0.16792 0.89812 0.1369 0.0
H1331 H 0.21521 0.94508 0.12434 0.0
H1332 H 0.25028 0.93898 0.07193 0.0
H1333 H 0.20844 0.88339 0.06924 0.0
C1334 C 0.15792 0.85436 0.09126 0.0
C1335 C 0.13233 0.84352 0.10338 0.0
C1336 C 0.18659 0.88244 0.09494 0.0
C1337 C 0.13713 0.85804 0.12039 0.0
C1338 C 0.16579 0.88575 0.12431 0.0
C1339 C 0.21468 0.93091 0.11286 0.0
C1340 C 0.23563 0.9458 0.09837 0.0
C1341 C 0.18979 0.8993 0.11116 0.0
C1342 C 0.23454 0.92769 0.08332 0.0
C1343 C 0.21031 0.89606 0.08167 0.0
H1344 H 0.33717 0.13449 0.92907 0.0
H1345 H 0.28526 0.10974 0.87887 0.0
H1346 H 0.2964 0.16438 0.87528 0.0
H1347 H 0.30714 0.2133 0.8909 0.0
H1348 H 0.35276 0.23538 0.943 0.0
H1349 H 0.35936 0.18875 0.94119 0.0
C1350 C 0.3299 0.14166 0.91689 0.0
C1351 C 0.31063 0.11847 0.90418 0.0
C1352 C 0.33496 0.17272 0.91547 0.0
C1353 C 0.30044 0.12748 0.88867 0.0
C1354 C 0.3065 0.15862 0.88675 0.0
C1355 C 0.32023 0.20884 0.90131 0.0
C1356 C 0.32959 0.22759 0.91701 0.0
C1357 C 0.32184 0.18078 0.90067 0.0
C1358 C 0.34582 0.2214 0.93068 0.0
C1359 C 0.34901 0.19438 0.92978 0.0
H1360 H 0.9393 0.20047 0.88355 0.0
H1361 H 0.9347 0.23785 0.93553 0.0
H1362 H 0.87966 0.19493 0.93927 0.0
H1363 H 0.83968 0.13981 0.93126 0.0
H1364 H 0.84582 0.10123 0.88001 0.0
H1365 H 0.89292 0.15173 0.87209 0.0
C1366 C 0.92564 0.19998 0.89526 0.0
C1367 C 0.94081 0.22202 0.90929 0.0
C1368 C 0.89444 0.17464 0.89752 0.0
C1369 C 0.92322 0.22123 0.92451 0.0
C1370 C 0.89192 0.19642 0.92674 0.0
C1371 C 0.85035 0.14321 0.91796 0.0
C1372 C 0.83943 0.11714 0.90615 0.0
C1373 C 0.87811 0.17194 0.91386 0.0
C1374 C 0.85367 0.12126 0.88913 0.0
C1375 C 0.88089 0.14997 0.88475 0.0
H1376 H 0.85267 0.75306 0.88674 0.0
H1377 H 0.81257 0.7029 0.93644 0.0
H1378 H 0.8556 0.69091 0.93927 0.0
H1379 H 0.91209 0.70992 0.93248 0.0
H1380 H 0.95319 0.76219 0.88346 0.0
H1381 H 0.90237 0.75774 0.87516 0.0
C1382 C 0.85232 0.73772 0.89752 0.0
C1383 C 0.82972 0.72897 0.9114 0.0
C1384 C 0.878 0.73225 0.89944 0.0
C1385 C 0.82959 0.70955 0.9255 0.0
C1386 C 0.85462 0.7033 0.92731 0.0
C1387 C 0.90926 0.71863 0.9195 0.0
C1388 C 0.93611 0.73634 0.90857 0.0
C1389 C 0.88015 0.71669 0.9151 0.0
C1390 C 0.93262 0.74814 0.89193 0.0
C1391 C 0.90366 0.74597 0.88732 0.0
H1392 H 0.79854 0.64457 0.46009 0.0
H1393 H 0.81108 0.69435 0.40993 0.0
H1394 H 0.8665 0.7071 0.40848 0.0
H1395 H 0.90408 0.68907 0.41666 0.0
H1396 H 0.89024 0.63655 0.46589 0.0
H1397 H 0.84328 0.64064 0.47298 0.0
C1398 C 0.81408 0.6599 0.44949 0.0
C1399 C 0.80101 0.66859 0.43515 0.0
C1400 C 0.84554 0.66593 0.4484 0.0
C1401 C 0.82092 0.68781 0.42121 0.0
C1402 C 0.85246 0.69462 0.42023 0.0
C1403 C 0.8919 0.68036 0.42948 0.0
C1404 C 0.90038 0.66254 0.44075 0.0
C1405 C 0.86418 0.68174 0.43304 0.0
C1406 C 0.88422 0.65069 0.45715 0.0
C1407 C 0.85703 0.65255 0.46104 0.0
H1408 H 0.3978 0.26021 0.42701 0.0
H1409 H 0.4625 0.29089 0.47217 0.0
H1410 H 0.45314 0.23694 0.47615 0.0
H1411 H 0.43812 0.18597 0.46153 0.0
H1412 H 0.37855 0.15739 0.41419 0.0
H1413 H 0.37307 0.20465 0.41657 0.0
C1414 C 0.40846 0.25455 0.43827 0.0
C1415 C 0.43067 0.27918 0.44934 0.0
C1416 C 0.40414 0.22377 0.43986 0.0
C1417 C 0.44515 0.27207 0.46361 0.0
C1418 C 0.44003 0.2413 0.46576 0.0
C1419 C 0.42247 0.18929 0.45241 0.0
C1420 C 0.4085 0.16831 0.43782 0.0
C1421 C 0.42118 0.21751 0.45325 0.0
C1422 C 0.38902 0.17308 0.4257 0.0
C1423 C 0.38639 0.2004 0.42689 0.0
H1424 H 0.8791 0.26966 0.4551 0.0
H1425 H 0.9015 0.27128 0.39864 0.0
H1426 H 0.85873 0.21631 0.3952 0.0
H1427 H 0.80719 0.17426 0.40639 0.0
H1428 H 0.78261 0.17319 0.46237 0.0
H1429 H 0.83415 0.22079 0.46813 0.0
C1430 C 0.87557 0.2573 0.44234 0.0
C1431 C 0.89328 0.27423 0.42713 0.0
C1432 C 0.85007 0.22594 0.44033 0.0
C1433 C 0.88819 0.25843 0.41051 0.0
C1434 C 0.86351 0.22714 0.40851 0.0
C1435 C 0.81396 0.1835 0.42004 0.0
C1436 C 0.7914 0.17039 0.43395 0.0
C1437 C 0.84311 0.21145 0.42303 0.0
C1438 C 0.79993 0.18272 0.45153 0.0
C1439 C 0.82919 0.21027 0.45474 0.0
H1440 H 0.96644 0.4665 0.21811 0.0
H1441 H 0.01464 0.47549 0.2685 0.0
H1442 H 0.02595 0.53021 0.27173 0.0
H1443 H 0.00695 0.56759 0.26479 0.0
H1444 H 0.95653 0.55744 0.21506 0.0
H1445 H 0.96159 0.51147 0.2067 0.0
C1446 C 0.98121 0.48122 0.22916 0.0
C1447 C 0.98963 0.46717 0.24309 0.0
C1448 C 0.98624 0.51215 0.2313 0.0
C1449 C 0.00828 0.48607 0.25753 0.0
C1450 C 0.01414 0.51715 0.25956 0.0
C1451 C 0.9987 0.55631 0.25169 0.0
C1452 C 0.98139 0.5656 0.24052 0.0
C1453 C 1.00105 0.52943 0.24723 0.0
C1454 C 0.97023 0.55072 0.22372 0.0
C1455 C 0.97279 0.5242 0.21906 0.0
H1456 H 0.57589 0.55147 0.27443 0.0
H1457 H 0.60495 0.54604 0.22023 0.0
H1458 H 0.55348 0.49843 0.21446 0.0
H1459 H 0.50774 0.45111 0.22805 0.0
H1460 H 0.4814 0.45527 0.28313 0.0
H1461 H 0.52344 0.51085 0.28532 0.0
C1462 C 0.57012 0.54084 0.26105 0.0
C1463 C 0.59396 0.55198 0.24778 0.0
C1464 C 0.54109 0.51274 0.25818 0.0
C1465 C 0.5867 0.53799 0.23055 0.0
C1466 C 0.55747 0.5104 0.22738 0.0
C1467 C 0.51024 0.46483 0.24015 0.0
C1468 C 0.49167 0.44943 0.25541 0.0
C1469 C 0.53545 0.4964 0.24153 0.0
C1470 C 0.49534 0.46695 0.2712 0.0
C1471 C 0.51963 0.49858 0.27251 0.0
H1472 H 0.51237 0.08318 0.22231 0.0
H1473 H 0.47977 0.03511 0.27331 0.0
H1474 H 0.52611 0.02814 0.27519 0.0
H1475 H 0.58262 0.05101 0.26684 0.0
H1476 H 0.61601 0.10082 0.21633 0.0
H1477 H 0.56275 0.09153 0.20946 0.0
C1478 C 0.51441 0.06929 0.23318 0.0
C1479 C 0.49293 0.05978 0.24769 0.0
C1480 C 0.54195 0.06675 0.23453 0.0
C1481 C 0.49593 0.04232 0.26191 0.0
C1482 C 0.52283 0.03896 0.26318 0.0
C1483 C 0.57767 0.0582 0.2539 0.0
C1484 C 0.60292 0.07657 0.2421 0.0
C1485 C 0.5471 0.05331 0.25026 0.0
C1486 C 0.59668 0.08635 0.22549 0.0
C1487 C 0.56631 0.08136 0.22167 0.0
H1488 H 0.47848 1.00035 0.74835 0.0
H1489 H 0.44124 0.95168 0.7988 0.0
H1490 H 0.49203 0.95477 0.80558 0.0
H1491 H 0.54094 0.95871 0.79312 0.0
H1492 H 0.57715 0.00529 0.74204 0.0
H1493 H 0.53366 0.01681 0.7397 0.0
C1494 C 0.4822 0.99202 0.76124 0.0
C1495 C 0.45646 0.97594 0.77312 0.0
C1496 C 0.51122 0.99313 0.76476 0.0
C1497 C 0.46102 0.9645 0.78961 0.0
C1498 C 0.48992 0.96592 0.79337 0.0
C1499 C 0.54021 0.97298 0.78204 0.0
C1500 C 0.56212 0.98137 0.76783 0.0
C1501 C 0.51445 0.97842 0.78051 0.0
C1502 C 0.56073 0.99913 0.75326 0.0
C1503 C 0.53556 0.00522 0.75178 0.0
H1504 H 0.08902 0.52617 0.79777 0.0
H1505 H 0.04385 0.48868 0.74644 0.0
H1506 H 0.02869 0.52954 0.74433 0.0
H1507 H 0.04455 0.58466 0.75243 0.0
H1508 H 0.09277 0.62376 0.80283 0.0
H1509 H 0.08958 0.57334 0.81044 0.0
C1510 C 0.07412 0.52585 0.78672 0.0
C1511 C 0.06761 0.50475 0.77224 0.0
C1512 C 0.06674 0.55029 0.78528 0.0
C1513 C 0.04878 0.50461 0.7578 0.0
C1514 C 0.04061 0.52833 0.75646 0.0
C1515 C 0.05241 0.58133 0.76558 0.0
C1516 C 0.06903 0.6077 0.77703 0.0
C1517 C 0.05171 0.55267 0.76943 0.0
C1518 C 0.07964 0.60357 0.79392 0.0
C1519 C 0.07835 0.5749 0.7981 0.0
H1520 H 0.47416 0.49317 0.75633 0.0
H1521 H 0.44037 0.51162 0.80609 0.0
H1522 H 0.49369 0.55542 0.81296 0.0
H1523 H 0.54404 0.59694 0.80001 0.0
H1524 H 0.57626 0.58071 0.74908 0.0
H1525 H 0.53053 0.52691 0.7478 0.0
C1526 C 0.47904 0.50567 0.76914 0.0
C1527 C 0.45365 0.49939 0.78072 0.0
C1528 C 0.50956 0.53156 0.77263 0.0
C1529 C 0.45979 0.51599 0.79712 0.0
C1530 C 0.4902 0.54129 0.80092 0.0
C1531 C 0.54205 0.5808 0.78927 0.0
C1532 C 0.56319 0.59266 0.7746 0.0
C1533 C 0.51463 0.55062 0.78815 0.0
C1534 C 0.56035 0.57189 0.76059 0.0
C1535 C 0.53376 0.54134 0.75967 0.0
H1536 H 0.64976 0.79345 0.55774 0.0
H1537 H 0.68477 0.80548 0.61233 0.0
H1538 H 0.69613 0.86042 0.6125 0.0
H1539 H 0.67912 0.89683 0.60078 0.0
H1540 H 0.63922 0.88274 0.54731 0.0
H1541 H 0.6472 0.83736 0.54271 0.0
C1542 C 0.66174 0.80883 0.5692 0.0
C1543 C 0.66633 0.79566 0.58503 0.0
C1544 C 0.6663 0.83978 0.56954 0.0
C1545 C 0.68128 0.81538 0.59998 0.0
C1546 C 0.68723 0.84662 0.60018 0.0
C1547 C 0.67401 0.88492 0.58776 0.0
C1548 C 0.65858 0.8928 0.57441 0.0
C1549 C 0.67739 0.85806 0.58559 0.0
C1550 C 0.6514 0.87708 0.55768 0.0
C1551 C 0.65555 0.85085 0.55517 0.0
H1552 H 0.18416 0.78794 0.55475 0.0
H1553 H 0.14918 0.79924 0.60604 0.0
H1554 H 0.1935 0.85371 0.60839 0.0
H1555 H 0.24936 0.89032 0.60012 0.0
H1556 H 0.28538 0.87818 0.54941 0.0
H1557 H 0.23345 0.83236 0.54219 0.0
C1558 C 0.18526 0.8031 0.56584 0.0
C1559 C 0.16362 0.78984 0.5802 0.0
C1560 C 0.21157 0.83399 0.56739 0.0
C1561 C 0.16545 0.80925 0.59474 0.0
C1562 C 0.19113 0.84022 0.59623 0.0
C1563 C 0.24516 0.87873 0.58705 0.0
C1564 C 0.2709 0.88737 0.5753 0.0
C1565 C 0.21547 0.85187 0.58328 0.0
C1566 C 0.26566 0.87203 0.55852 0.0
C1567 C 0.23608 0.84552 0.55453 0.0
H1568 H 0.2553 0.38694 0.60502 0.0
H1569 H 0.28841 0.42872 0.55256 0.0
H1570 H 0.23609 0.42185 0.54551 0.0
H1571 H 0.18776 0.4189 0.55816 0.0
H1572 H 0.15694 0.38126 0.61166 0.0
H1573 H 0.20044 0.36994 0.61423 0.0
C1574 C 0.25035 0.39277 0.59168 0.0
C1575 C 0.27536 0.40824 0.5793 0.0
C1576 C 0.22059 0.38983 0.58807 0.0
C1577 C 0.26922 0.4164 0.56217 0.0
C1578 C 0.23943 0.41288 0.55826 0.0
C1579 C 0.18951 0.40639 0.56987 0.0
C1580 C 0.16942 0.40094 0.58473 0.0
C1581 C 0.21573 0.4017 0.57161 0.0
C1582 C 0.17207 0.38533 0.60002 0.0
C1583 C 0.19732 0.37943 0.60161 0.0
H1584 H 0.02344 0.30637 0.1592 0.0
H1585 H 0.97649 0.34341 0.12589 0.0
H1586 H 0.96005 0.36048 0.15307 0.0
H1587 H 0.95718 0.36274 0.18651 0.0
H1588 H 0.00689 0.32813 0.21941 0.0
H1589 H 0.02413 0.31232 0.19222 0.0
C1590 C 0.00974 0.31834 0.15786 0.0
C1591 C 1.00096 0.32336 0.14051 0.0
C1592 C 1.00077 0.3284 0.17351 0.0
C1593 C 0.98358 0.33928 0.13904 0.0
C1594 C 0.97407 0.34891 0.1546 0.0
C1595 C 0.97189 0.35185 0.18771 0.0
C1596 C 0.9805 0.34638 0.20503 0.0
C1597 C 0.9822 0.34326 0.17194 0.0
C1598 C 0.99991 0.33261 0.20631 0.0
C1599 C 0.00972 0.32348 0.19075 0.0
H1600 H 0.72485 0.67781 0.13958 0.0
H1601 H 0.77206 0.77186 0.16281 0.0
H1602 H 0.75753 0.7493 0.19318 0.0
H1603 H 0.73326 0.70271 0.21338 0.0
H1604 H 0.69035 0.6086 0.19037 0.0
H1605 H 0.70119 0.63107 0.15988 0.0
C1606 C 0.73165 0.69328 0.1513 0.0
C1607 C 0.74936 0.72645 0.14894 0.0
C1608 C 0.72411 0.68008 0.16883 0.0
C1609 C 0.75847 0.74624 0.16427 0.0
C1610 C 0.75016 0.73336 0.18166 0.0
C1611 C 0.72609 0.68716 0.20167 0.0
C1612 C 0.71092 0.65404 0.20415 0.0
C1613 C 0.73327 0.7003 0.18414 0.0
C1614 C 0.70215 0.6342 0.18885 0.0
C1615 C 0.7083 0.64703 0.17138 0.0
H1616 H 0.3055 0.03916 0.15919 0.0
H1617 H 0.39294 0.08168 0.12876 0.0
H1618 H 0.42362 0.094 0.15687 0.0
H1619 H 0.42561 0.09437 0.19028 0.0
H1620 H 0.33794 0.04838 0.22049 0.0
H1621 H 0.30737 0.03561 0.19237 0.0
C1622 C 0.33128 0.05101 0.15873 0.0
C1623 C 0.34695 0.05975 0.14193 0.0
C1624 C 0.34872 0.05744 0.17493 0.0
C1625 C 0.38032 0.07469 0.14152 0.0
C1626 C 0.39788 0.08183 0.15759 0.0
C1627 C 0.39981 0.08143 0.19067 0.0
C1628 C 0.38407 0.07255 0.20746 0.0
C1629 C 0.38235 0.07359 0.1744 0.0
C1630 C 0.35063 0.05544 0.20776 0.0
C1631 C 0.33313 0.04823 0.19168 0.0
H1632 H 0.30691 0.03162 0.85467 0.0
H1633 H 0.34411 0.98363 0.88689 0.0
H1634 H 0.36231 0.9692 0.85942 0.0
H1635 H 0.36402 0.9671 0.82601 0.0
H1636 H 0.33027 0.01862 0.79413 0.0
H1637 H 0.31452 0.03509 0.82167 0.0
C1638 C 0.31932 0.01829 0.85566 0.0
C1639 C 0.3239 0.00836 0.8727 0.0
C1640 C 0.33015 0.01064 0.83987 0.0
C1641 C 0.34038 0.99153 0.87389 0.0
C1642 C 0.35061 0.98315 0.85819 0.0
C1643 C 0.3535 0.98219 0.82515 0.0
C1644 C 0.34795 0.99136 0.80809 0.0
C1645 C 0.34508 0.99207 0.84108 0.0
C1646 C 0.33476 0.01128 0.80712 0.0
C1647 C 0.32563 0.02057 0.82285 0.0
H1648 H 0.09576 0.4336 0.82844 0.0
H1649 H 0.04856 0.34986 0.79483 0.0
H1650 H 0.02816 0.31647 0.82173 0.0
H1651 H 0.02708 0.3106 0.85468 0.0
H1652 H 0.07252 0.39365 0.88877 0.0
H1653 H 0.08969 0.42791 0.86184 0.0
C1654 C 0.08086 0.40805 0.82702 0.0
C1655 C 0.07406 0.39419 0.8096 0.0
C1656 C 0.06879 0.38894 0.84262 0.0
C1657 C 0.05429 0.36113 0.80801 0.0
C1658 C 0.04263 0.34201 0.82341 0.0
C1659 C 0.04029 0.33626 0.85624 0.0
C1660 C 0.04866 0.3496 0.87369 0.0
C1661 C 0.05014 0.3556 0.84075 0.0
C1662 C 0.06557 0.38283 0.87551 0.0
C1663 C 0.07566 0.40236 0.86009 0.0
H1664 H 0.63543 0.69789 0.8291 0.0
H1665 H 0.72002 0.73734 0.79621 0.0
H1666 H 0.75324 0.75484 0.82344 0.0
H1667 H 0.7583 0.76013 0.85671 0.0
H1668 H 0.67365 0.71728 0.8896 0.0
H1669 H 0.64047 0.69987 0.86237 0.0
C1670 C 0.66114 0.71024 0.82791 0.0
C1671 C 0.67522 0.71651 0.81062 0.0
C1672 C 0.6801 0.71968 0.84366 0.0
C1673 C 0.70856 0.73218 0.80932 0.0
C1674 C 0.72758 0.74229 0.82491 0.0
C1675 C 0.73258 0.74692 0.8579 0.0
C1676 C 0.71847 0.74025 0.87519 0.0
C1677 C 0.71363 0.73637 0.84215 0.0
C1678 C 0.68513 0.72273 0.87649 0.0
C1679 C 0.66613 0.71283 0.86091 0.0
H1680 H 0.03961 0.76776 0.85708 0.0
H1681 H 0.07675 0.71746 0.88727 0.0
H1682 H 0.09405 0.70412 0.85921 0.0
H1683 H 0.09912 0.70715 0.82604 0.0
H1684 H 0.05796 0.75333 0.79555 0.0
H1685 H 0.04169 0.76786 0.82367 0.0
C1686 C 0.05148 0.75387 0.85747 0.0
C1687 C 0.0571 0.74379 0.87422 0.0
C1688 C 0.06065 0.74559 0.84122 0.0
C1689 C 0.0721 0.72544 0.87454 0.0
C1690 C 0.08208 0.71788 0.8585 0.0
C1691 C 0.08663 0.72044 0.82559 0.0
C1692 C 0.08001 0.72945 0.80879 0.0
C1693 C 0.07659 0.72791 0.84177 0.0
C1694 C 0.06333 0.74617 0.80834 0.0
C1695 C 0.05409 0.75452 0.82441 0.0
H1696 H 0.35842 0.42366 0.83136 0.0
H1697 H 0.31632 0.33816 0.79912 0.0
H1698 H 0.30409 0.30585 0.8265 0.0
H1699 H 0.30371 0.30184 0.85971 0.0
H1700 H 0.34913 0.38736 0.8919 0.0
H1701 H 0.36207 0.41975 0.86449 0.0
C1702 C 0.3466 0.39795 0.83038 0.0
C1703 C 0.33792 0.38325 0.81329 0.0
C1704 C 0.34036 0.37957 0.84616 0.0
C1705 C 0.32314 0.34998 0.81214 0.0
C1706 C 0.31612 0.33151 0.82778 0.0
C1707 C 0.31667 0.32758 0.86069 0.0
C1708 C 0.32528 0.34219 0.8778 0.0
C1709 C 0.3244 0.34602 0.84487 0.0
C1710 C 0.34234 0.37555 0.87888 0.0
C1711 C 0.34958 0.39407 0.86322 0.0
H1712 H 0.759 0.02252 0.85661 0.0
H1713 H 0.67284 0.98227 0.88812 0.0
H1714 H 0.64097 0.96727 0.86037 0.0
H1715 H 0.63767 0.9634 0.82707 0.0
H1716 H 0.72395 0.0075 0.79559 0.0
H1717 H 0.75578 0.02349 0.82334 0.0
C1718 C 0.73324 0.0106 0.85735 0.0
C1719 C 0.7182 0.00314 0.87432 0.0
C1720 C 0.71516 0.00277 0.84135 0.0
C1721 C 0.68489 0.9882 0.87518 0.0
C1722 C 0.66668 0.97955 0.85932 0.0
C1723 C 0.66344 0.97674 0.82633 0.0
C1724 C 0.67849 0.98403 0.80935 0.0
C1725 C 0.68155 0.98638 0.84233 0.0
C1726 C 0.71186 0.00167 0.80852 0.0
C1727 C 0.73005 0.01068 0.82437 0.0
H1728 H 0.72384 0.06832 0.13651 0.0
H1729 H 0.76611 0.01782 0.1612 0.0
H1730 H 0.7539 0.02981 0.19127 0.0
H1731 H 0.734 0.05729 0.21058 0.0
H1732 H 0.69597 0.11174 0.18594 0.0
H1733 H 0.70369 0.09569 0.15589 0.0
C1734 C 0.72993 0.0596 0.14849 0.0
C1735 C 0.74564 0.04208 0.1467 0.0
C1736 C 0.72388 0.06758 0.16575 0.0
C1737 C 0.75397 0.03137 0.1623 0.0
C1738 C 0.74706 0.03826 0.17948 0.0
C1739 C 0.72721 0.06543 0.19863 0.0
C1740 C 0.71446 0.08566 0.20047 0.0
C1741 C 0.73248 0.05677 0.18138 0.0
C1742 C 0.70602 0.09628 0.18487 0.0
C1743 C 0.71035 0.08706 0.16768 0.0
H1744 H 0.99057 0.69308 0.13695 0.0
H1745 H 0.03882 0.78791 0.15913 0.0
H1746 H 0.02715 0.76624 0.18983 0.0
H1747 H 0.00196 0.72014 0.21045 0.0
H1748 H 0.94951 0.6256 0.18806 0.0
H1749 H 0.96399 0.64717 0.15747 0.0
C1750 C 0.99868 0.70893 0.14853 0.0
C1751 C 0.0157 0.742 0.14581 0.0
C1752 C 0.99099 0.69632 0.16612 0.0
C1753 C 0.02565 0.76234 0.1609 0.0
C1754 C 0.019 0.74997 0.17845 0.0
C1755 C 0.99385 0.70432 0.19885 0.0
C1756 C 0.97481 0.67135 0.20148 0.0
C1757 C 0.00151 0.71699 0.18124 0.0
C1758 C 0.9641 0.6511 0.18635 0.0
C1759 C 0.97243 0.66341 0.16886 0.0
H1760 H 0.29336 0.29851 0.16474 0.0
H1761 H 0.37828 0.33885 0.1321 0.0
H1762 H 0.41123 0.35439 0.1594 0.0
H1763 H 0.41577 0.35444 0.19258 0.0
H1764 H 0.33116 0.31747 0.22531 0.0
H1765 H 0.29819 0.30296 0.19801 0.0
C1766 C 0.31909 0.31081 0.16364 0.0
C1767 C 0.3334 0.31723 0.14645 0.0
C1768 C 0.33789 0.32028 0.17941 0.0
C1769 C 0.36674 0.33362 0.14518 0.0
C1770 C 0.38558 0.34244 0.16079 0.0
C1771 C 0.39012 0.34341 0.19371 0.0
C1772 C 0.37587 0.33678 0.21092 0.0
C1773 C 0.3714 0.3356 0.17797 0.0
C1774 C 0.34267 0.32286 0.21222 0.0
C1775 C 0.32381 0.31442 0.19661 0.0
H1776 H 0.67059 0.65819 0.54529 0.0
H1777 H 0.6208 0.70316 0.52302 0.0
H1778 H 0.63538 0.69624 0.49247 0.0
H1779 H 0.66074 0.67568 0.47175 0.0
H1780 H 0.70719 0.62725 0.49385 0.0
H1781 H 0.69571 0.63731 0.52454 0.0
C1782 C 0.66312 0.66662 0.53375 0.0
C1783 C 0.64464 0.68119 0.53649 0.0
C1784 C 0.67098 0.66189 0.51608 0.0
C1785 C 0.63491 0.69172 0.52134 0.0
C1786 C 0.64328 0.68783 0.50382 0.0
C1787 C 0.66859 0.66762 0.4833 0.0
C1788 C 0.68492 0.65086 0.48049 0.0
C1789 C 0.66111 0.67272 0.50098 0.0
C1790 C 0.69454 0.64017 0.49561 0.0
C1791 C 0.68797 0.64591 0.5132 0.0
H1792 H 0.39247 0.01399 0.47087 0.0
H1793 H 0.44472 0.10792 0.49401 0.0
H1794 H 0.43416 0.08517 0.52447 0.0
H1795 H 0.41102 0.03829 0.5446 0.0
H1796 H 0.36303 0.94435 0.52118 0.0
H1797 H 0.37091 0.9672 0.49089 0.0
C1798 C 0.40134 0.02943 0.4826 0.0
C1799 C 0.41914 0.06258 0.48021 0.0
C1800 C 0.39603 0.01613 0.50006 0.0
C1801 C 0.43095 0.08232 0.49551 0.0
C1802 C 0.42491 0.06932 0.51293 0.0
C1803 C 0.40221 0.02289 0.53285 0.0
C1804 C 0.38635 0.98969 0.53514 0.0
C1805 C 0.40763 0.03623 0.51538 0.0
C1806 C 0.3754 0.96999 0.51978 0.0
C1807 C 0.37984 0.98304 0.50244 0.0
H1808 H 0.04849 0.40365 0.47096 0.0
H1809 H 0.9546 0.35754 0.49432 0.0
H1810 H 0.97746 0.36729 0.52471 0.0
H1811 H 0.02432 0.39203 0.54491 0.0
H1812 H 0.11819 0.44193 0.52152 0.0
H1813 H 0.09541 0.42769 0.49118 0.0
C1814 C 0.0331 0.39533 0.48271 0.0
C1815 C 0.99988 0.37972 0.48035 0.0
C1816 C 0.04648 0.40202 0.50026 0.0
C1817 C 0.98025 0.36959 0.49575 0.0
C1818 C 0.99331 0.37523 0.51316 0.0
C1819 C 0.03976 0.39952 0.53318 0.0
C1820 C 0.07293 0.41805 0.53555 0.0
C1821 C 0.02642 0.39191 0.51563 0.0
C1822 C 0.09257 0.42779 0.52014 0.0
C1823 C 0.07955 0.41962 0.50273 0.0
H1824 H 0.3703 0.42736 0.5262 0.0
H1825 H 0.41565 0.38708 0.55828 0.0
H1826 H 0.43159 0.3707 0.53079 0.0
H1827 H 0.43497 0.37027 0.49763 0.0
H1828 H 0.38613 0.40646 0.46534 0.0
H1829 H 0.36883 0.42172 0.49286 0.0
C1830 C 0.38352 0.41484 0.52711 0.0
C1831 C 0.39215 0.40873 0.54419 0.0
C1832 C 0.39192 0.40478 0.51124 0.0
C1833 C 0.4088 0.39205 0.54527 0.0
C1834 C 0.41798 0.38276 0.52956 0.0
C1835 C 0.42029 0.38125 0.49666 0.0
C1836 C 0.41205 0.38755 0.47955 0.0
C1837 C 0.41001 0.38935 0.51249 0.0
C1838 C 0.39268 0.40135 0.4784 0.0
C1839 C 0.38296 0.41022 0.49412 0.0
H1840 H 0.6395 0.97066 0.52169 0.0
H1841 H 0.68163 0.05546 0.55449 0.0
H1842 H 0.69885 0.08848 0.52719 0.0
H1843 H 0.69907 0.09296 0.49389 0.0
H1844 H 0.66003 0.0079 0.46133 0.0
H1845 H 0.64469 0.9752 0.48861 0.0
C1846 C 0.65263 0.99638 0.52283 0.0
C1847 C 0.65899 0.0107 0.54 0.0
C1848 C 0.66294 0.0151 0.50713 0.0
C1849 C 0.67646 0.04398 0.54137 0.0
C1850 C 0.68619 0.06283 0.52578 0.0
C1851 C 0.68745 0.06728 0.49281 0.0
C1852 C 0.6804 0.05281 0.47565 0.0
C1853 C 0.67915 0.04863 0.50858 0.0
C1854 C 0.66573 0.01956 0.47439 0.0
C1855 C 0.65682 0.00085 0.48999 0.0
H1856 H 0.97206 0.6344 0.49074 0.0
H1857 H 0.05922 0.67805 0.46005 0.0
H1858 H 0.09027 0.69279 0.48808 0.0
H1859 H 0.09258 0.69201 0.5214 0.0
H1860 H 0.00547 0.65206 0.55207 0.0
H1861 H 0.97446 0.63729 0.52404 0.0
C1862 C 0.99786 0.64718 0.49023 0.0
C1863 C 0.01336 0.65487 0.47338 0.0
C1864 C 0.01554 0.65624 0.5064 0.0
C1865 C 0.04677 0.67187 0.47287 0.0
C1866 C 0.06453 0.68023 0.48889 0.0
C1867 C 0.06681 0.68017 0.52191 0.0
C1868 C 0.0513 0.67291 0.53876 0.0
C1869 C 0.04917 0.67236 0.50573 0.0
C1870 C 0.01794 0.65795 0.53926 0.0
C1871 C 1.0002 0.64939 0.52324 0.0
H1872 H 0.04452 0.24784 0.03392 0.0
H1873 H 0.02744 0.32633 0.04002 0.0
H1874 H 0.02531 0.3299 1.00669 0.0
H1875 H 0.02766 0.30879 0.97534 0.0
H1876 H 0.03386 0.22282 0.97357 0.0
H1877 H 0.04021 0.22407 1.00549 0.0
C1878 C 0.03973 0.26561 0.02831 0.0
C1879 C 0.03593 0.28659 0.03977 0.0
C1880 C 0.03669 0.26624 0.00958 0.0
C1881 C 0.03041 0.30968 0.03167 0.0
C1882 C 0.02913 0.31165 0.01257 0.0
C1883 C 0.03038 0.2904 0.98198 0.0
C1884 C 0.03161 0.26654 0.97143 0.0
C1885 C 0.0321 0.28978 1.00125 0.0
C1886 C 0.03418 0.24245 0.98064 0.0
C1887 C 0.03754 0.24279 0.9992 0.0
H1888 H 0.74121 0.76902 0.97963 0.0
H1889 H 0.8098 0.7375 0.97719 0.0
H1890 H 0.80621 0.72931 0.00987 0.0
H1891 H 0.79161 0.74106 0.03947 0.0
H1892 H 0.72686 0.77711 0.04245 0.0
H1893 H 0.72014 0.77293 0.0095 0.0
C1894 C 0.75434 0.75919 0.98623 0.0
C1895 C 0.77563 0.75372 0.97605 0.0
C1896 C 0.75305 0.75567 1.00523 0.0
C1897 C 0.79318 0.74174 0.98478 0.0
C1898 C 0.79128 0.73724 1.00348 0.0
C1899 C 0.77485 0.74647 0.03292 0.0
C1900 C 0.75913 0.75861 0.04332 0.0
C1901 C 0.77238 0.74544 0.01393 0.0
C1902 C 0.73849 0.76687 0.0347 0.0
C1903 C 0.73506 0.76495 0.01584 0.0
H1904 H 0.29001 0.00168 0.97635 0.0
H1905 H 0.3029 0.09574 0.97078 0.0
H1906 H 0.31328 0.10511 1.00316 0.0
H1907 H 0.30965 0.08337 0.03353 0.0
H1908 H 0.2909 0.98747 0.03984 0.0
H1909 H 0.29278 0.9821 1.00692 0.0
C1910 C 0.2961 0.02451 0.98221 0.0
C1911 C 0.29575 0.04803 0.97126 0.0
C1912 C 0.30082 0.02927 1.00105 0.0
C1913 C 0.30302 0.07732 0.979 0.0
C1914 C 0.30886 0.08265 0.99751 0.0
C1915 C 0.30718 0.06177 0.02765 0.0
C1916 C 0.30068 0.03604 0.03896 0.0
C1917 C 0.30659 0.05839 0.00876 0.0
C1918 C 0.29667 0.0078 0.03132 0.0
C1919 C 0.29728 0.00461 0.0125 0.0
H1920 H 0.06461 0.76121 0.97729 0.0
H1921 H 0.96281 0.71942 0.97937 0.0
H1922 H 0.96373 0.7142 0.01223 0.0
H1923 H 0.99469 0.73382 0.04032 0.0
H1924 H 0.09698 0.78294 0.03808 0.0
H1925 H 0.09501 0.77242 1.00561 0.0
C1926 C 0.04257 0.74948 0.98491 0.0
C1927 C 0.01365 0.74033 0.97602 0.0
C1928 C 0.04358 0.74851 1.00391 0.0
C1929 C 0.98525 0.72619 0.98599 0.0
C1930 C 0.98585 0.72359 1.0048 0.0
C1931 C 0.0164 0.74068 0.03283 0.0
C1932 C 0.04591 0.75868 0.04151 0.0
C1933 C 0.01503 0.73637 0.01397 0.0
C1934 C 0.07403 0.76857 0.03165 0.0
C1935 C 0.07288 0.76293 0.01305 0.0
H1936 H 0.31337 0.2854 0.04482 0.0
H1937 H 0.25085 0.32415 0.04107 0.0
H1938 H 0.25979 0.33121 1.00842 0.0
H1939 H 0.27744 0.31714 0.98053 0.0
H1940 H 0.33377 0.2715 0.98393 0.0
H1941 H 0.33605 0.27689 0.01694 0.0
C1942 C 0.30276 0.2965 0.03688 0.0
C1943 C 0.28186 0.30469 0.04524 0.0
C1944 C 0.30673 0.29889 0.01797 0.0
C1945 C 0.26731 0.31806 0.03485 0.0
C1946 C 0.27225 0.32187 0.01619 0.0
C1947 C 0.29133 0.30969 0.98852 0.0
C1948 C 0.30601 0.29461 0.97994 0.0
C1949 C 0.29084 0.31116 1.00751 0.0
C1950 C 0.3229 0.2838 0.99034 0.0
C1951 C 0.32386 0.28654 0.0092 0.0
H1952 H 0.73553 0.00119 0.97833 0.0
H1953 H 0.81272 0.09793 0.9751 0.0
H1954 H 0.81089 0.10395 1.00778 0.0
H1955 H 0.79563 0.07796 0.0374 0.0
H1956 H 0.72172 0.98001 0.04109 0.0
H1957 H 0.71329 0.97812 1.0083 0.0
C1958 C 0.75089 0.02394 0.98475 0.0
C1959 C 0.77419 0.04912 0.97442 0.0
C1960 C 0.75059 0.02676 1.00371 0.0
C1961 C 0.79455 0.07831 0.98286 0.0
C1962 C 0.79369 0.08167 1.00155 0.0
C1963 C 0.77667 0.05674 0.03105 0.0
C1964 C 0.75897 0.02932 0.0415 0.0
C1965 C 0.773 0.05555 0.01218 0.0
C1966 C 0.7351 0.00156 0.03324 0.0
C1967 C 0.73063 1.00038 0.01448 0.0
H1968 H 0.73211 0.65937 0.31061 0.0
H1969 H 0.63007 0.60149 0.3125 0.0
H1970 H 0.63049 0.61181 0.34489 0.0
H1971 H 0.66079 0.62688 0.37341 0.0
H1972 H 0.76312 0.67955 0.37179 0.0
H1973 H 0.76195 0.68276 0.33883 0.0
C1974 C 0.70996 0.65038 0.318 0.0
C1975 C 0.68107 0.63009 0.30921 0.0
C1976 C 0.71057 0.65518 0.33684 0.0
C1977 C 0.65251 0.61758 0.31899 0.0
C1978 C 0.6528 0.6232 0.33756 0.0
C1979 C 0.6827 0.64051 0.36585 0.0
C1980 C 0.71198 0.65333 0.37497 0.0
C1981 C 0.6818 0.64057 0.3468 0.0
C1982 C 0.74031 0.66996 0.36503 0.0
C1983 C 0.73963 0.67136 0.34615 0.0
H1984 H 0.43358 0.05987 0.37356 0.0
H1985 H 0.3803 0.10885 0.37369 0.0
H1986 H 0.37358 0.1027 0.34086 0.0
H1987 H 0.39446 0.09533 0.31197 0.0
H1988 H 0.45433 0.05333 0.31213 0.0
H1989 H 0.44672 0.04427 0.34471 0.0
C1990 C 0.41904 0.06758 0.36645 0.0
C1991 C 0.407 0.08431 0.37595 0.0
C1992 C 0.41731 0.06595 0.34746 0.0
C1993 C 0.3892 0.09534 0.36662 0.0
C1994 C 0.38586 0.0923 0.34781 0.0
C1995 C 0.40457 0.0829 0.31908 0.0
C1996 C 0.42468 0.07473 0.30976 0.0
C1997 C 0.40146 0.07937 0.338 0.0
C1998 C 0.43854 0.05952 0.3191 0.0
C1999 C 0.43439 0.05459 0.33774 0.0
H2000 H 0.98151 0.41915 0.36949 0.0
H2001 H 0.95475 0.32053 0.37338 0.0
H2002 H 0.95627 0.31699 0.34032 0.0
H2003 H 0.95508 0.33969 0.3103 0.0
H2004 H 0.97846 0.43766 0.30729 0.0
H2005 H 0.9889 0.44399 0.33973 0.0
C2006 C 0.97756 0.39735 0.36309 0.0
C2007 C 0.96875 0.37035 0.37381 0.0
C2008 C 0.97717 0.39524 0.34409 0.0
C2009 C 0.96249 0.34185 0.36539 0.0
C2010 C 0.96282 0.33972 0.34646 0.0
C2011 C 0.96358 0.36265 0.31669 0.0
C2012 C 0.96597 0.38819 0.30642 0.0
C2013 C 0.96868 0.3659 0.33562 0.0
C2014 C 0.97641 0.41768 0.31493 0.0
C2015 C 0.98226 0.42129 0.3335 0.0
H2016 H 0.74179 0.11781 0.3656 0.0
H2017 H 0.64142 0.07062 0.37711 0.0
H2018 H 0.62915 0.05885 0.34497 0.0
H2019 H 0.64753 0.07123 0.3134 0.0
H2020 H 0.74773 0.11666 0.30174 0.0
H2021 H 0.75971 0.11908 0.33405 0.0
C2022 C 0.71731 0.1039 0.36106 0.0
C2023 C 0.69248 0.09496 0.37354 0.0
C2024 C 0.71047 0.09711 0.34254 0.0
C2025 C 0.6608 0.0773 0.36765 0.0
C2026 C 0.65381 0.07084 0.34928 0.0
C2027 C 0.67183 0.08027 0.31795 0.0
C2028 C 0.69672 0.09363 0.30531 0.0
C2029 C 0.67847 0.08181 0.33654 0.0
C2030 C 0.72819 0.10573 0.31126 0.0
C2031 C 0.73506 0.10759 0.32975 0.0
H2032 H 0.99695 0.63332 0.36922 0.0
H2033 H 0.93656 0.67468 0.37097 0.0
H2034 H 0.94227 0.68364 0.33831 0.0
H2035 H 0.95445 0.66866 0.30893 0.0
H2036 H 0.00817 0.62016 0.307 0.0
H2037 H 0.01609 0.62581 0.33978 0.0
C2038 C 0.9863 0.64559 0.3625 0.0
C2039 C 0.96668 0.65368 0.37241 0.0
C2040 C 0.98825 0.64898 0.34355 0.0
C2041 C 0.95205 0.66861 0.36356 0.0
C2042 C 0.95509 0.67346 0.34487 0.0
C2043 C 0.96926 0.66085 0.31565 0.0
C2044 C 0.98122 0.64455 0.30564 0.0
C2045 C 0.97178 0.66227 0.33462 0.0
C2046 C 0.99932 0.63335 0.31446 0.0
C2047 C 0.00341 0.63616 0.33324 0.0
H2048 H 0.43483 0.38728 0.37584 0.0
H2049 H 0.43263 0.29776 0.38074 0.0
H2050 H 0.42296 0.28841 0.34833 0.0
H2051 H 0.42466 0.30991 0.31818 0.0
H2052 H 0.4309 0.40099 0.3124 0.0
H2053 H 0.42869 0.40539 0.34541 0.0
C2054 C 0.43109 0.36528 0.36984 0.0
C2055 C 0.43443 0.34321 0.3806 0.0
C2056 C 0.42663 0.36057 0.35098 0.0
C2057 C 0.43018 0.31505 0.37268 0.0
C2058 C 0.4248 0.30977 0.35414 0.0
C2059 C 0.42446 0.33019 0.32419 0.0
C2060 C 0.42769 0.35497 0.31303 0.0
C2061 C 0.42436 0.33296 0.34308 0.0
C2062 C 0.42785 0.3814 0.32082 0.0
C2063 C 0.427 0.38406 0.33968 0.0
H2064 H 0.3314 0.95661 0.70327 0.0
H2065 H 0.43174 0.98911 0.70494 0.0
H2066 H 0.43521 0.9963 0.6721 0.0
H2067 H 0.40756 0.98264 0.64276 0.0
H2068 H 0.30606 0.94322 0.64104 0.0
H2069 H 0.305 0.95019 0.67378 0.0
C2070 C 0.3542 0.9666 0.69645 0.0
C2071 C 0.3814 0.97285 0.70642 0.0
C2072 C 0.3556 0.96902 0.67745 0.0
C2073 C 0.41066 0.98466 0.69748 0.0
C2074 C 0.41255 0.98846 0.6787 0.0
C2075 C 0.38552 0.97708 0.6495 0.0
C2076 C 0.35702 0.96305 0.63956 0.0
C2077 C 0.38492 0.97931 0.66847 0.0
C2078 C 0.32834 0.95469 0.64844 0.0
C2079 C 0.3277 0.95826 0.66719 0.0
H2080 H 0.10812 0.41498 0.7063 0.0
H2081 H 0.08793 0.49189 0.7061 0.0
H2082 H 0.08115 0.4877 0.67334 0.0
H2083 H 0.09047 0.46889 0.64443 0.0
H2084 H 0.11498 0.39518 0.64403 0.0
H2085 H 0.10984 0.39069 0.67704 0.0
C2086 C 0.10117 0.43001 0.6991 0.0
C2087 C 0.09856 0.45374 0.70861 0.0
C2088 C 0.0983 0.42815 0.68004 0.0
C2089 C 0.09014 0.4735 0.69907 0.0
C2090 C 0.08637 0.4712 0.68031 0.0
C2091 C 0.09315 0.45082 0.65155 0.0
C2092 C 0.10226 0.43181 0.64183 0.0
C2093 C 0.09164 0.44951 0.67057 0.0
C2094 C 0.10704 0.4094 0.65122 0.0
C2095 C 0.1046 0.40721 0.67013 0.0
H2096 H 0.65468 0.72176 0.70699 0.0
H2097 H 0.58195 0.62289 0.70703 0.0
H2098 H 0.58577 0.62055 0.67421 0.0
H2099 H 0.60195 0.64923 0.6453 0.0
H2100 H 0.67129 0.74902 0.64488 0.0
H2101 H 0.67734 0.74847 0.67776 0.0
C2102 C 0.64068 0.69947 0.69984 0.0
C2103 C 0.61815 0.6725 0.70939 0.0
C2104 C 0.64216 0.69862 0.68078 0.0
C2105 C 0.59953 0.64391 0.69994 0.0
C2106 C 0.60155 0.64261 0.68115 0.0
C2107 C 0.6195 0.67041 0.65236 0.0
C2108 C 0.6367 0.69894 0.64272 0.0
C2109 C 0.62171 0.67015 0.67135 0.0
C2110 C 0.65843 0.72662 0.65203 0.0
C2111 C 0.66152 0.72638 0.67087 0.0
H2112 H 0.32708 0.40633 0.70912 0.0
H2113 H 0.42872 0.46756 0.71186 0.0
H2114 H 0.43287 0.46283 0.67916 0.0
H2115 H 0.4065 0.44976 0.64945 0.0
H2116 H 0.30436 0.39441 0.64646 0.0
H2117 H 0.30122 0.38757 0.67937 0.0
C2118 C 0.35017 0.41749 0.70257 0.0
C2119 C 0.37762 0.43687 0.71279 0.0
C2120 C 0.35213 0.41598 0.68363 0.0
C2121 C 0.40738 0.4522 0.7042 0.0
C2122 C 0.40971 0.44971 0.6855 0.0
C2123 C 0.38374 0.43504 0.65601 0.0
C2124 C 0.35574 0.42201 0.64566 0.0
C2125 C 0.38212 0.43282 0.67499 0.0
C2126 C 0.3262 0.40404 0.65423 0.0
C2127 C 0.32442 0.40048 0.67305 0.0
H2128 H 0.65286 0.93605 0.70336 0.0
H2129 H 0.60611 0.99133 0.70677 0.0
H2130 H 0.61014 0.99901 0.67393 0.0
H2131 H 0.61788 0.98132 0.64404 0.0
H2132 H 0.659 0.92085 0.64075 0.0
H2133 H 0.66691 0.92415 0.67356 0.0
C2134 C 0.64484 0.95087 0.6969 0.0
C2135 C 0.62978 0.96365 0.70732 0.0
C2136 C 0.64583 0.95376 0.67796 0.0
C2137 C 0.61833 0.98185 0.69892 0.0
C2138 C 0.62033 0.98592 0.68015 0.0
C2139 C 0.62972 0.97 0.65052 0.0
C2140 C 0.63833 0.95129 0.64014 0.0
C2141 C 0.63277 0.97082 0.66947 0.0
C2142 C 0.65266 0.93574 0.64858 0.0
C2143 C 0.65692 0.93741 0.66732 0.0
H2144 H 0.10534 0.73347 0.70449 0.0
H2145 H 0.05873 0.63134 0.70687 0.0
H2146 H 0.05181 0.62802 0.67401 0.0
H2147 H 0.06931 0.6547 0.64451 0.0
H2148 H 0.12205 0.75693 0.64221 0.0
H2149 H 0.11595 0.76001 0.67489 0.0
C2150 C 0.09238 0.71053 0.69782 0.0
C2151 C 0.08212 0.68266 0.70798 0.0
C2152 C 0.09019 0.70897 0.67883 0.0
C2153 C 0.06636 0.65302 0.69924 0.0
C2154 C 0.06275 0.65117 0.68045 0.0
C2155 C 0.07818 0.67754 0.65113 0.0
C2156 C 0.09563 0.70556 0.64109 0.0
C2157 C 0.076 0.67902 0.67004 0.0
C2158 C 0.1081 0.73513 0.64975 0.0
C2159 C 0.10487 0.73686 0.66844 0.0
H2160 H 0.88434 0.08957 0.10767 0.0
H2161 H 0.83777 0.11433 0.06642 0.0
H2162 H 0.88668 0.16465 0.06116 0.0
H2163 H 0.93948 0.20497 0.07157 0.0
H2164 H 0.9852 0.18343 0.11474 0.0
H2165 H 0.94077 0.1284 0.1156 0.0
C2166 C 0.88538 0.10563 0.09716 0.0
C2167 C 0.8577 0.09815 0.08722 0.0
C2168 C 0.91348 0.13522 0.09464 0.0
C2169 C 0.85892 0.11952 0.07405 0.0
C2170 C 0.88683 0.14833 0.07109 0.0
C2171 C 0.94005 0.18793 0.08083 0.0
C2172 C 0.96575 0.19805 0.09287 0.0
C2173 C 0.91381 0.15695 0.08179 0.0
C2174 C 0.96609 0.17596 0.10499 0.0
C2175 C 0.94041 0.14463 0.10567 0.0
H2176 H 0.94273 0.76227 0.06619 0.0
H2177 H 0.99455 0.84092 0.10259 0.0
H2178 H 0.94681 0.84515 0.1073 0.0
H2179 H 0.8879 0.82015 0.10488 0.0
H2180 H 0.83725 0.74303 0.0673 0.0
H2181 H 0.88663 0.74407 0.05941 0.0
C2182 C 0.9438 0.7811 0.0746 0.0
C2183 C 0.97198 0.80123 0.08402 0.0
C2184 C 0.91619 0.78307 0.07739 0.0
C2185 C 0.97318 0.82542 0.095 0.0
C2186 C 0.94572 0.82746 0.09794 0.0
C2187 C 0.88799 0.80441 0.09451 0.0
C2188 C 0.85914 0.78201 0.08637 0.0
C2189 C 0.91672 0.80549 0.08982 0.0
C2190 C 0.85929 0.76077 0.07352 0.0
C2191 C 0.8875 0.76137 0.069 0.0
H2192 H 0.24142 0.09838 0.1074 0.0
H2193 H 0.31323 0.1303 0.06594 0.0
H2194 H 0.3083 0.17728 0.06073 0.0
H2195 H 0.28917 0.21273 0.07084 0.0
H2196 H 0.2178 0.18228 0.11237 0.0
H2197 H 0.21546 0.13061 0.11402 0.0
C2198 C 0.25516 0.11516 0.09685 0.0
C2199 C 0.27725 0.11061 0.0868 0.0
C2200 C 0.25215 0.14232 0.09391 0.0
C2201 C 0.29584 0.13314 0.07366 0.0
C2202 C 0.293 0.15998 0.07067 0.0
C2203 C 0.27229 0.1943 0.07979 0.0
C2204 C 0.25366 0.20121 0.09143 0.0
C2205 C 0.27193 0.16526 0.08105 0.0
C2206 C 0.23204 0.17734 0.10308 0.0
C2207 C 0.23118 0.14802 0.10426 0.0
H2208 H 0.20438 0.93554 0.9462 0.0
H2209 H 0.18549 0.96461 0.89488 0.0
H2210 H 0.13104 0.91922 0.8951 0.0
H2211 H 0.0899 0.86922 0.9091 0.0
H2212 H 0.11033 0.83848 0.95939 0.0
H2213 H 0.16208 0.88736 0.9611 0.0
C2214 C 0.18806 0.93209 0.93525 0.0
C2215 C 0.19841 0.95379 0.92083 0.0
C2216 C 0.15678 0.90602 0.93555 0.0
C2217 C 0.17758 0.94864 0.90638 0.0
C2218 C 0.14653 0.92267 0.90649 0.0
C2219 C 0.10525 0.87393 0.92075 0.0
C2220 C 0.09602 0.85084 0.9344 0.0
C2221 C 0.13582 0.90117 0.92101 0.0
C2222 C 0.11661 0.85644 0.94904 0.0
C2223 C 0.14644 0.88407 0.94982 0.0
H2224 H 0.2064 0.29313 0.94853 0.0
H2225 H 0.20097 0.24117 0.90024 0.0
H2226 H 0.15217 0.24074 0.8911 0.0
H2227 H 0.11254 0.25822 0.89618 0.0
H2228 H 0.11629 0.30637 0.94586 0.0
H2229 H 0.16408 0.30538 0.95518 0.0
C2230 C 0.19374 0.28065 0.93638 0.0
C2231 C 0.20676 0.26674 0.92522 0.0
C2232 C 0.16569 0.28034 0.93133 0.0
C2233 C 0.1908 0.25131 0.90925 0.0
C2234 C 0.1633 0.25166 0.90385 0.0
C2235 C 0.12354 0.26782 0.90919 0.0
C2236 C 0.11042 0.28137 0.92063 0.0
C2237 C 0.15077 0.26658 0.91464 0.0
C2238 C 0.12562 0.2951 0.93708 0.0
C2239 C 0.15291 0.29456 0.94241 0.0
H2240 H 0.7665 0.85054 0.94922 0.0
H2241 H 0.83691 0.87617 0.90748 0.0
H2242 H 0.84282 0.92934 0.9055 0.0
H2243 H 0.81993 0.96433 0.91173 0.0
H2244 H 0.74968 0.93792 0.95372 0.0
H2245 H 0.7512 0.88913 0.95934 0.0
C2246 C 0.78391 0.86819 0.94012 0.0
C2247 C 0.80127 0.85952 0.92854 0.0
C2248 C 0.78651 0.89828 0.93878 0.0
C2249 C 0.82362 0.88244 0.91672 0.0
C2250 C 0.82659 0.91267 0.91539 0.0
C2251 C 0.80597 0.94848 0.92258 0.0
C2252 C 0.78512 0.95498 0.93255 0.0
C2253 C 0.80704 0.92032 0.92577 0.0
C2254 C 0.76611 0.93355 0.94603 0.0
C2255 C 0.76696 0.90565 0.94923 0.0
H2256 H 0.55595 0.44101 0.44606 0.0
H2257 H 0.50963 0.45564 0.4004 0.0
H2258 H 0.55853 0.50492 0.39291 0.0
H2259 H 0.61311 0.54622 0.40102 0.0
H2260 H 0.66077 0.53041 0.4455 0.0
H2261 H 0.61316 0.4791 0.45168 0.0
C2262 C 0.55699 0.45455 0.43417 0.0
C2263 C 0.52965 0.44422 0.4234 0.0
C2264 C 0.58542 0.48267 0.42979 0.0
C2265 C 0.53068 0.46281 0.4086 0.0
C2266 C 0.55861 0.49094 0.40431 0.0
C2267 C 0.61344 0.5308 0.41153 0.0
C2268 C 0.64041 0.54173 0.42264 0.0
C2269 C 0.58604 0.50128 0.4149 0.0
C2270 C 0.64047 0.52207 0.43653 0.0
C2271 C 0.61305 0.49301 0.44026 0.0
H2272 H 0.60205 0.08956 0.40373 0.0
H2273 H 0.64176 0.15235 0.44942 0.0
H2274 H 0.59654 0.16173 0.44944 0.0
H2275 H 0.54347 0.14863 0.43775 0.0
H2276 H 0.50292 0.08346 0.39311 0.0
H2277 H 0.55129 0.07989 0.39057 0.0
C2278 C 0.60095 0.10571 0.41347 0.0
C2279 C 0.62555 0.12106 0.42619 0.0
C2280 C 0.57498 0.11104 0.41331 0.0
C2281 C 0.62351 0.1411 0.43915 0.0
C2282 C 0.59761 0.14634 0.4392 0.0
C2283 C 0.54586 0.13466 0.42706 0.0
C2284 C 0.52007 0.11689 0.41534 0.0
C2285 C 0.5731 0.13134 0.42637 0.0
C2286 C 0.52282 0.09789 0.40197 0.0
C2287 C 0.55023 0.09542 0.40074 0.0
H2288 H 0.91566 0.438 0.44106 0.0
H2289 H 0.98805 0.4588 0.40112 0.0
H2290 H 0.98968 0.50855 0.3935 0.0
H2291 H 0.9737 0.5482 0.39992 0.0
H2292 H 0.90024 0.5275 0.43904 0.0
H2293 H 0.89486 0.47534 0.44481 0.0
C2294 C 0.93113 0.45311 0.43038 0.0
C2295 C 0.95102 0.44433 0.42125 0.0
C2296 C 0.93167 0.48168 0.42591 0.0
C2297 C 0.97203 0.46477 0.40801 0.0
C2298 C 0.97296 0.4932 0.40365 0.0
C2299 C 0.95575 0.53176 0.40924 0.0
C2300 C 0.93718 0.54152 0.41889 0.0
C2301 C 0.95316 0.50206 0.41263 0.0
C2302 C 0.91431 0.52026 0.43114 0.0
C2303 C 0.91169 0.49067 0.4347 0.0
H2304 H 0.75341 0.22276 0.24347 0.0
H2305 H 0.7824 0.17723 0.28308 0.0
H2306 H 0.83135 0.22732 0.28882 0.0
H2307 H 0.86998 0.28096 0.27856 0.0
H2308 H 0.84372 0.32599 0.23727 0.0
H2309 H 0.78958 0.28006 0.23654 0.0
C2310 C 0.76997 0.22425 0.25381 0.0
C2311 C 0.76427 0.1965 0.263 0.0
C2312 C 0.79879 0.25308 0.25657 0.0
C2313 C 0.78627 0.1984 0.27598 0.0
C2314 C 0.81433 0.22699 0.27919 0.0
C2315 C 0.85206 0.28103 0.26979 0.0
C2316 C 0.86064 0.3069 0.25815 0.0
C2317 C 0.82151 0.25405 0.26897 0.0
C2318 C 0.83744 0.30666 0.24667 0.0
C2319 C 0.8066 0.28016 0.24608 0.0
H2320 H 0.84277 0.57536 0.24883 0.0
H2321 H 0.88985 0.65524 0.28506 0.0
H2322 H 0.83914 0.65223 0.29178 0.0
H2323 H 0.78331 0.63237 0.28359 0.0
H2324 H 0.73534 0.5522 0.24773 0.0
H2325 H 0.78384 0.54851 0.24538 0.0
C2326 C 0.84162 0.5912 0.25875 0.0
C2327 C 0.86992 0.61517 0.2667 0.0
C2328 C 0.81218 0.58925 0.26259 0.0
C2329 C 0.86832 0.63643 0.27894 0.0
C2330 C 0.83934 0.63472 0.28277 0.0
C2331 C 0.78321 0.6134 0.27578 0.0
C2332 C 0.75589 0.59262 0.26585 0.0
C2333 C 0.81134 0.61199 0.27418 0.0
C2334 C 0.75598 0.56822 0.25569 0.0
C2335 C 0.7839 0.56647 0.25411 0.0
H2336 H 0.4768 0.28941 0.24359 0.0
H2337 H 0.40756 0.26617 0.28587 0.0
H2338 H 0.40797 0.21705 0.29223 0.0
H2339 H 0.42331 0.17784 0.28341 0.0
H2340 H 0.49444 0.20128 0.24237 0.0
H2341 H 0.49924 0.25368 0.23841 0.0
C2342 C 0.46266 0.27405 0.25457 0.0
C2343 C 0.4427 0.28174 0.26454 0.0
C2344 C 0.46339 0.24589 0.25837 0.0
C2345 C 0.42346 0.26097 0.27822 0.0
C2346 C 0.42369 0.23289 0.28187 0.0
C2347 C 0.44067 0.19492 0.27407 0.0
C2348 C 0.45853 0.18584 0.26323 0.0
C2349 C 0.44301 0.22476 0.27178 0.0
C2350 C 0.48077 0.20796 0.25105 0.0
C2351 C 0.48309 0.23771 0.24857 0.0
H2352 H 0.29685 0.84952 0.77319 0.0
H2353 H 0.27519 0.89448 0.72961 0.0
H2354 H 0.22555 0.84503 0.72354 0.0
H2355 H 0.18606 0.79053 0.73244 0.0
H2356 H 0.20773 0.74436 0.77528 0.0
H2357 H 0.25984 0.79219 0.77958 0.0
C2358 C 0.28164 0.84808 0.76204 0.0
C2359 C 0.29012 0.87525 0.75144 0.0
C2360 C 0.25313 0.81935 0.75854 0.0
C2361 C 0.26947 0.87363 0.73764 0.0
C2362 C 0.24111 0.84538 0.73417 0.0
C2363 C 0.20277 0.79058 0.74222 0.0
C2364 C 0.19327 0.76394 0.75341 0.0
C2365 C 0.23251 0.81821 0.74466 0.0
C2366 C 0.21479 0.76436 0.76627 0.0
C2367 C 0.24435 0.79195 0.76895 0.0
H2368 H 0.30263 0.49119 0.77696 0.0
H2369 H 0.27562 0.4216 0.73446 0.0
H2370 H 0.22815 0.42521 0.72819 0.0
H2371 H 0.1903 0.44162 0.73794 0.0
H2372 H 0.21567 0.51042 0.78062 0.0
H2373 H 0.26831 0.51502 0.78311 0.0
C2374 C 0.28691 0.47776 0.76591 0.0
C2375 C 0.29286 0.45646 0.75599 0.0
C2376 C 0.2593 0.47981 0.76245 0.0
C2377 C 0.27168 0.43833 0.74215 0.0
C2378 C 0.2445 0.44036 0.73857 0.0
C2379 C 0.2078 0.45841 0.74737 0.0
C2380 C 0.1992 0.47573 0.75902 0.0
C2381 C 0.23748 0.46011 0.74906 0.0
C2382 C 0.22191 0.49722 0.7713 0.0
C2383 C 0.25183 0.49942 0.77292 0.0
H2384 H 0.62823 0.7777 0.73655 0.0
H2385 H 0.55815 0.73372 0.77852 0.0
H2386 H 0.55447 0.78217 0.78139 0.0
H2387 H 0.57806 0.84022 0.77513 0.0
H2388 H 0.64788 0.88299 0.73284 0.0
H2389 H 0.64533 0.83224 0.72709 0.0
C2390 C 0.61133 0.77838 0.74588 0.0
C2391 C 0.59343 0.75222 0.75726 0.0
C2392 C 0.60998 0.80649 0.7477 0.0
C2393 C 0.57181 0.75339 0.76941 0.0
C2394 C 0.57017 0.78133 0.77127 0.0
C2395 C 0.59187 0.83804 0.76429 0.0
C2396 C 0.61257 0.86511 0.75409 0.0
C2397 C 0.59014 0.80852 0.76099 0.0
C2398 C 0.63142 0.86236 0.74063 0.0
C2399 C 0.62995 0.83335 0.73734 0.0
H2400 H 0.5432 0.61123 0.61611 0.0
H2401 H 0.51314 0.65521 0.5762 0.0
H2402 H 0.46002 0.60751 0.57532 0.0
H2403 H 0.42633 0.54943 0.58163 0.0
H2404 H 0.45705 0.50682 0.62216 0.0
H2405 H 0.50575 0.55756 0.627 0.0
C2406 C 0.5246 0.61073 0.60771 0.0
C2407 C 0.53196 0.63652 0.59622 0.0
C2408 C 0.49449 0.58311 0.60707 0.0
C2409 C 0.50786 0.6357 0.58529 0.0
C2410 C 0.47765 0.60823 0.58461 0.0
C2411 C 0.4431 0.55168 0.59203 0.0
C2412 C 0.43791 0.52451 0.60172 0.0
C2413 C 0.47122 0.58118 0.59479 0.0
C2414 C 0.46044 0.52745 0.61466 0.0
C2415 C 0.4883 0.55645 0.61741 0.0
H2416 H 0.45639 0.95777 0.61494 0.0
H2417 H 0.40878 0.8864 0.57393 0.0
H2418 H 0.45609 0.88091 0.57048 0.0
H2419 H 0.51444 0.90423 0.57532 0.0
H2420 H 0.56037 0.97336 0.61773 0.0
H2421 H 0.51059 0.97232 0.62433 0.0
C2422 C 0.45604 0.94019 0.60575 0.0
C2423 C 0.42933 0.92261 0.59467 0.0
C2424 C 0.48335 0.93739 0.60378 0.0
C2425 C 0.42904 0.89998 0.58272 0.0
C2426 C 0.45627 0.89721 0.58056 0.0
C2427 C 0.51313 0.918 0.58649 0.0
C2428 C 0.54091 0.93843 0.59625 0.0
C2429 C 0.48411 0.9169 0.59043 0.0
C2430 C 0.5392 0.9572 0.61018 0.0
C2431 C 0.51076 0.95664 0.61396 0.0
H2432 H 0.15705 0.63747 0.57744 0.0
H2433 H 0.08171 0.60613 0.6167 0.0
H2434 H 0.0848 0.55828 0.62247 0.0
H2435 H 0.10302 0.52173 0.61294 0.0
H2436 H 0.17866 0.55212 0.57409 0.0
H2437 H 0.1827 0.60455 0.57223 0.0
C2438 C 0.14222 0.62071 0.58773 0.0
C2439 C 0.11949 0.62555 0.59685 0.0
C2440 C 0.1442 0.59306 0.59103 0.0
C2441 C 0.09955 0.60304 0.60965 0.0
C2442 C 0.1013 0.57567 0.61295 0.0
C2443 C 0.12113 0.54027 0.60455 0.0
C2444 C 0.14047 0.53317 0.59366 0.0
C2445 C 0.12273 0.56991 0.60328 0.0
C2446 C 0.16375 0.5572 0.58275 0.0
C2447 C 0.16569 0.58699 0.58148 0.0
loop_
_geom_bond_atom_site_label_1
_geom_bond_atom_site_label_2
_geom_bond_distance
_geom_bond_site_symmetry_2
_ccdc_geom_bond_type
Mn0 O5 2.095 . S
Mn0 O15 2.162 . S
Mn0 O16 2.297 . S
Mn0 O24 2.385 1_455 S
Mn0 O25 2.209 . S
Mn0 O26 2.094 . S
Mn1 O6 2.121 . S
Mn1 N8 2.257 . S
Mn1 N17 2.282 1_455 S
Mn1 O25 2.215 . S
Mn1 O27 2.117 . S
C2 O24 1.234 . S
C2 O25 1.283 1_655 S
C3 O15 1.281 . S
C3 O16 1.236 . S
C4 O26 1.240 . S
C4 O27 1.264 . S
O5 Mn0 2.095 . S
O5 C14 1.250 . S
O6 Mn1 2.121 . S
O6 C14 1.258 . S
C7 N8 1.326 . S
C7 C11 1.460 . S
C7 H13 0.929 . S
N8 Mn1 2.257 . S
N8 C7 1.326 . S
N8 C12 1.362 1_455 S
C9 C10 1.257 . S
C9 C12 1.431 . S
C9 C29 1.449 . S
C10 C9 1.257 . S
C10 C11 1.478 1_655 S
C10 H30 0.931 . S
C11 C7 1.460 . S
C11 C10 1.478 1_455 S
C11 H31 0.930 . S
C12 N8 1.362 1_655 S
C12 C9 1.431 . S
C12 C22 1.476 . S
H13 C7 0.929 . S
C14 O5 1.250 . S
C14 O6 1.258 . S
O15 Mn0 2.162 . S
O15 C3 1.281 . S
O16 Mn0 2.297 . S
O16 C3 1.236 . S
N17 Mn1 2.282 1_655 S
N17 C18 1.328 . S
N17 C22 1.318 . S
C18 N17 1.328 . S
C18 C19 1.457 . S
C18 H23 0.929 . S
C19 C18 1.457 . S
C19 C20 1.291 . S
C19 H32 0.931 . S
C20 C19 1.291 . S
C20 C21 1.373 . S
C20 H33 0.929 . S
C21 C20 1.373 . S
C21 C22 1.396 . S
C21 C28 1.403 . S
C22 C12 1.476 . S
C22 N17 1.318 . S
C22 C21 1.396 . S
H23 C18 0.929 . S
O24 Mn0 2.385 1_655 S
O24 C2 1.234 . S
O25 Mn0 2.209 . S
O25 Mn1 2.215 . S
O25 C2 1.283 1_455 S
O26 Mn0 2.094 . S
O26 C4 1.240 . S
O27 Mn1 2.117 . S
O27 C4 1.264 . S
C28 C21 1.403 . S
C28 C29 1.399 . S
C28 H34 0.929 . S
C29 C9 1.449 . S
C29 C28 1.399 . S
C29 H35 0.930 . S
H30 C10 0.931 . S
H31 C11 0.930 . S
H32 C19 0.931 . S
H33 C20 0.929 . S
H34 C28 0.929 . S
H35 C29 0.930 . S
Mn36 O41 2.095 . S
Mn36 O51 2.162 . S
Mn36 O52 2.297 . S
Mn36 O60 2.385 . S
Mn36 O61 2.209 . S
Mn36 O62 2.094 . S
Mn37 O42 2.121 . S
Mn37 N44 2.257 . S
Mn37 N53 2.282 . S
Mn37 O61 2.215 . S
Mn37 O63 2.117 . S
C38 O60 1.234 . S
C38 O61 1.283 . S
C39 O51 1.281 . S
C39 O52 1.236 . S
C40 O62 1.240 . S
C40 O63 1.264 . S
O41 Mn36 2.095 . S
O41 C50 1.250 . S
O42 Mn37 2.121 . S
O42 C50 1.258 . S
C43 N44 1.326 . S
C43 C47 1.460 . S
C43 H49 0.929 . S
N44 Mn37 2.257 . S
N44 C43 1.326 . S
N44 C48 1.362 . S
C45 C46 1.258 . S
C45 C48 1.431 . S
C45 C65 1.449 . S
C46 C45 1.258 . S
C46 C47 1.477 . S
C46 H66 0.931 . S
C47 C43 1.460 . S
C47 C46 1.477 . S
C47 H67 0.930 . S
C48 N44 1.362 . S
C48 C45 1.431 . S
C48 C58 1.476 . S
H49 C43 0.929 . S
C50 O41 1.250 . S
C50 O42 1.258 . S
O51 Mn36 2.162 . S
O51 C39 1.281 . S
O52 Mn36 2.297 . S
O52 C39 1.236 . S
N53 Mn37 2.282 . S
N53 C54 1.328 . S
N53 C58 1.318 . S
C54 N53 1.328 . S
C54 C55 1.457 . S
C54 H59 0.929 . S
C55 C54 1.457 . S
C55 C56 1.291 . S
C55 H68 0.931 . S
C56 C55 1.291 . S
C56 C57 1.373 . S
C56 H69 0.929 . S
C57 C56 1.373 . S
C57 C58 1.396 . S
C57 C64 1.403 . S
C58 C48 1.476 . S
C58 N53 1.318 . S
C58 C57 1.396 . S
H59 C54 0.929 . S
O60 Mn36 2.385 . S
O60 C38 1.234 . S
O61 Mn36 2.209 . S
O61 Mn37 2.215 . S
O61 C38 1.283 . S
O62 Mn36 2.094 . S
O62 C40 1.240 . S
O63 Mn37 2.117 . S
O63 C40 1.264 . S
C64 C57 1.403 . S
C64 C65 1.399 . S
C64 H70 0.929 . S
C65 C45 1.449 . S
C65 C64 1.399 . S
C65 H71 0.930 . S
H66 C46 0.931 . S
H67 C47 0.930 . S
H68 C55 0.931 . S
H69 C56 0.929 . S
H70 C64 0.929 . S
H71 C65 0.930 . S
Mn72 O77 2.095 1_545 S
Mn72 O87 2.162 . S
Mn72 O88 2.297 . S
Mn72 O96 2.385 . S
Mn72 O97 2.209 . S
Mn72 O98 2.094 . S
Mn73 O78 2.121 1_545 S
Mn73 N80 2.257 . S
Mn73 N89 2.282 . S
Mn73 O97 2.215 . S
Mn73 O99 2.117 . S
C74 O96 1.234 . S
C74 O97 1.283 . S
C75 O87 1.281 . S
C75 O88 1.236 . S
C76 O98 1.240 . S
C76 O99 1.264 . S
O77 Mn72 2.095 1_565 S
O77 C86 1.250 . S
O78 Mn73 2.121 1_565 S
O78 C86 1.258 . S
C79 N80 1.326 . S
C79 C83 1.460 . S
C79 H85 0.929 . S
N80 Mn73 2.257 . S
N80 C79 1.326 . S
N80 C84 1.362 . S
C81 C82 1.258 . S
C81 C84 1.431 . S
C81 C101 1.449 . S
C82 C81 1.258 . S
C82 C83 1.477 . S
C82 H102 0.931 . S
C83 C79 1.460 . S
C83 C82 1.477 . S
C83 H103 0.930 . S
C84 N80 1.362 . S
C84 C81 1.431 . S
C84 C94 1.476 . S
H85 C79 0.929 . S
C86 O77 1.250 . S
C86 O78 1.258 . S
O87 Mn72 2.162 . S
O87 C75 1.281 . S
O88 Mn72 2.297 . S
O88 C75 1.236 . S
N89 Mn73 2.282 . S
N89 C90 1.328 . S
N89 C94 1.318 . S
C90 N89 1.328 . S
C90 C91 1.457 . S
C90 H95 0.929 . S
C91 C90 1.457 . S
C91 C92 1.291 . S
C91 H104 0.931 . S
C92 C91 1.291 . S
C92 C93 1.373 . S
C92 H105 0.929 . S
C93 C92 1.373 . S
C93 C94 1.396 . S
C93 C100 1.403 . S
C94 C84 1.476 . S
C94 N89 1.318 . S
C94 C93 1.396 . S
H95 C90 0.929 . S
O96 Mn72 2.385 . S
O96 C74 1.234 . S
O97 Mn72 2.209 . S
O97 Mn73 2.215 . S
O97 C74 1.283 . S
O98 Mn72 2.094 . S
O98 C76 1.240 . S
O99 Mn73 2.117 . S
O99 C76 1.264 . S
C100 C93 1.403 . S
C100 C101 1.399 . S
C100 H106 0.929 . S
C101 C81 1.449 . S
C101 C100 1.399 . S
C101 H107 0.930 . S
H102 C82 0.931 . S
H103 C83 0.930 . S
H104 C91 0.931 . S
H105 C92 0.929 . S
H106 C100 0.929 . S
H107 C101 0.930 . S
Mn108 O113 2.095 . S
Mn108 O123 2.162 . S
Mn108 O124 2.297 . S
Mn108 O132 2.385 1_545 S
Mn108 O133 2.209 . S
Mn108 O134 2.094 . S
Mn109 O114 2.121 . S
Mn109 N116 2.257 . S
Mn109 N125 2.282 1_545 S
Mn109 O133 2.215 . S
Mn109 O135 2.117 . S
C110 O132 1.234 . S
C110 O133 1.283 1_565 S
C111 O123 1.281 . S
C111 O124 1.236 . S
C112 O134 1.240 . S
C112 O135 1.264 . S
O113 Mn108 2.095 . S
O113 C122 1.250 . S
O114 Mn109 2.121 . S
O114 C122 1.258 . S
C115 N116 1.326 . S
C115 C119 1.460 . S
C115 H121 0.929 . S
N116 Mn109 2.257 . S
N116 C115 1.326 . S
N116 C120 1.362 1_545 S
C117 C118 1.257 . S
C117 C120 1.431 . S
C117 C137 1.449 . S
C118 C117 1.257 . S
C118 C119 1.478 1_565 S
C118 H138 0.931 . S
C119 C115 1.460 . S
C119 C118 1.478 1_545 S
C119 H139 0.930 . S
C120 N116 1.362 1_565 S
C120 C117 1.431 . S
C120 C130 1.476 . S
H121 C115 0.929 . S
C122 O113 1.250 . S
C122 O114 1.258 . S
O123 Mn108 2.162 . S
O123 C111 1.281 . S
O124 Mn108 2.297 . S
O124 C111 1.236 . S
N125 Mn109 2.282 1_565 S
N125 C126 1.328 . S
N125 C130 1.318 . S
C126 N125 1.328 . S
C126 C127 1.457 . S
C126 H131 0.929 . S
C127 C126 1.457 . S
C127 C128 1.291 . S
C127 H140 0.931 . S
C128 C127 1.291 . S
C128 C129 1.373 . S
C128 H141 0.929 . S
C129 C128 1.373 . S
C129 C130 1.396 . S
C129 C136 1.403 . S
C130 C120 1.476 . S
C130 N125 1.318 . S
C130 C129 1.396 . S
H131 C126 0.929 . S
O132 Mn108 2.385 1_565 S
O132 C110 1.234 . S
O133 Mn108 2.209 . S
O133 Mn109 2.215 . S
O133 C110 1.283 1_545 S
O134 Mn108 2.094 . S
O134 C112 1.240 . S
O135 Mn109 2.117 . S
O135 C112 1.264 . S
C136 C129 1.403 . S
C136 C137 1.399 . S
C136 H142 0.929 . S
C137 C117 1.449 . S
C137 C136 1.399 . S
C137 H143 0.930 . S
H138 C118 0.931 . S
H139 C119 0.930 . S
H140 C127 0.931 . S
H141 C128 0.929 . S
H142 C136 0.929 . S
H143 C137 0.930 . S
Mn144 O149 2.095 1_455 S
Mn144 O159 2.162 . S
Mn144 O160 2.297 . S
Mn144 O168 2.385 . S
Mn144 O169 2.209 . S
Mn144 O170 2.094 . S
Mn145 O150 2.121 1_455 S
Mn145 N152 2.257 . S
Mn145 N161 2.282 . S
Mn145 O169 2.215 . S
Mn145 O171 2.117 . S
C146 O168 1.234 . S
C146 O169 1.283 . S
C147 O159 1.281 . S
C147 O160 1.236 . S
C148 O170 1.240 . S
C148 O171 1.264 . S
O149 Mn144 2.095 1_655 S
O149 C158 1.250 . S
O150 Mn145 2.121 1_655 S
O150 C158 1.258 . S
C151 N152 1.326 . S
C151 C155 1.460 . S
C151 H157 0.929 . S
N152 Mn145 2.257 . S
N152 C151 1.326 . S
N152 C156 1.362 . S
C153 C154 1.258 . S
C153 C156 1.431 . S
C153 C173 1.449 . S
C154 C153 1.258 . S
C154 C155 1.477 . S
C154 H174 0.931 . S
C155 C151 1.460 . S
C155 C154 1.477 . S
C155 H175 0.930 . S
C156 N152 1.362 . S
C156 C153 1.431 . S
C156 C166 1.476 . S
H157 C151 0.929 . S
C158 O149 1.250 . S
C158 O150 1.258 . S
O159 Mn144 2.162 . S
O159 C147 1.281 . S
O160 Mn144 2.297 . S
O160 C147 1.236 . S
N161 Mn145 2.282 . S
N161 C162 1.328 . S
N161 C166 1.318 . S
C162 N161 1.328 . S
C162 C163 1.457 . S
C162 H167 0.929 . S
C163 C162 1.457 . S
C163 C164 1.291 . S
C163 H176 0.931 . S
C164 C163 1.291 . S
C164 C165 1.373 . S
C164 H177 0.929 . S
C165 C164 1.373 . S
C165 C166 1.396 . S
C165 C172 1.403 . S
C166 C156 1.476 . S
C166 N161 1.318 . S
C166 C165 1.396 . S
H167 C162 0.929 . S
O168 Mn144 2.385 . S
O168 C146 1.234 . S
O169 Mn144 2.209 . S
O169 Mn145 2.215 . S
O169 C146 1.283 . S
O170 Mn144 2.094 . S
O170 C148 1.240 . S
O171 Mn145 2.117 . S
O171 C148 1.264 . S
C172 C165 1.403 . S
C172 C173 1.399 . S
C172 H178 0.929 . S
C173 C153 1.449 . S
C173 C172 1.399 . S
C173 H179 0.930 . S
H174 C154 0.931 . S
H175 C155 0.930 . S
H176 C163 0.931 . S
H177 C164 0.929 . S
H178 C172 0.929 . S
H179 C173 0.930 . S
Mn180 O185 2.095 . S
Mn180 O195 2.162 . S
Mn180 O196 2.297 . S
Mn180 O204 2.385 . S
Mn180 O205 2.209 . S
Mn180 O206 2.094 . S
Mn181 O186 2.121 . S
Mn181 N188 2.257 . S
Mn181 N197 2.282 . S
Mn181 O205 2.215 . S
Mn181 O207 2.117 . S
C182 O204 1.234 . S
C182 O205 1.283 . S
C183 O195 1.281 . S
C183 O196 1.236 . S
C184 O206 1.240 . S
C184 O207 1.264 . S
O185 Mn180 2.095 . S
O185 C194 1.250 . S
O186 Mn181 2.121 . S
O186 C194 1.258 . S
C187 N188 1.326 . S
C187 C191 1.460 . S
C187 H193 0.929 . S
N188 Mn181 2.257 . S
N188 C187 1.326 . S
N188 C192 1.362 . S
C189 C190 1.258 . S
C189 C192 1.431 . S
C189 C209 1.449 . S
C190 C189 1.258 . S
C190 C191 1.477 . S
C190 H210 0.931 . S
C191 C187 1.460 . S
C191 C190 1.477 . S
C191 H211 0.930 . S
C192 N188 1.362 . S
C192 C189 1.431 . S
C192 C202 1.476 . S
H193 C187 0.929 . S
C194 O185 1.250 . S
C194 O186 1.258 . S
O195 Mn180 2.162 . S
O195 C183 1.281 . S
O196 Mn180 2.297 . S
O196 C183 1.236 . S
N197 Mn181 2.282 . S
N197 C198 1.328 . S
N197 C202 1.318 . S
C198 N197 1.328 . S
C198 C199 1.457 . S
C198 H203 0.929 . S
C199 C198 1.457 . S
C199 C200 1.291 . S
C199 H212 0.931 . S
C200 C199 1.291 . S
C200 C201 1.373 . S
C200 H213 0.929 . S
C201 C200 1.373 . S
C201 C202 1.396 . S
C201 C208 1.403 . S
C202 C192 1.476 . S
C202 N197 1.318 . S
C202 C201 1.396 . S
H203 C198 0.929 . S
O204 Mn180 2.385 . S
O204 C182 1.234 . S
O205 Mn180 2.209 . S
O205 Mn181 2.215 . S
O205 C182 1.283 . S
O206 Mn180 2.094 . S
O206 C184 1.240 . S
O207 Mn181 2.117 . S
O207 C184 1.264 . S
C208 C201 1.403 . S
C208 C209 1.399 . S
C208 H214 0.929 . S
C209 C189 1.449 . S
C209 C208 1.399 . S
C209 H215 0.930 . S
H210 C190 0.931 . S
H211 C191 0.930 . S
H212 C199 0.931 . S
H213 C200 0.929 . S
H214 C208 0.929 . S
H215 C209 0.930 . S
Mn216 O221 2.095 1_455 S
Mn216 O231 2.162 . S
Mn216 O232 2.297 . S
Mn216 O240 2.385 . S
Mn216 O241 2.209 . S
Mn216 O242 2.094 . S
Mn217 O222 2.121 1_455 S
Mn217 N224 2.257 . S
Mn217 N233 2.282 . S
Mn217 O241 2.215 . S
Mn217 O243 2.117 . S
C218 O240 1.234 . S
C218 O241 1.283 . S
C219 O231 1.281 . S
C219 O232 1.236 . S
C220 O242 1.240 . S
C220 O243 1.264 . S
O221 Mn216 2.095 1_655 S
O221 C230 1.250 . S
O222 Mn217 2.121 1_655 S
O222 C230 1.258 . S
C223 N224 1.326 . S
C223 C227 1.460 . S
C223 H229 0.929 . S
N224 Mn217 2.257 . S
N224 C223 1.326 . S
N224 C228 1.362 . S
C225 C226 1.258 . S
C225 C228 1.431 . S
C225 C245 1.449 . S
C226 C225 1.258 . S
C226 C227 1.477 . S
C226 H246 0.931 . S
C227 C223 1.460 . S
C227 C226 1.477 . S
C227 H247 0.930 . S
C228 N224 1.362 . S
C228 C225 1.431 . S
C228 C238 1.476 . S
H229 C223 0.929 . S
C230 O221 1.250 . S
C230 O222 1.258 . S
O231 Mn216 2.162 . S
O231 C219 1.281 . S
O232 Mn216 2.297 . S
O232 C219 1.236 . S
N233 Mn217 2.282 . S
N233 C234 1.328 . S
N233 C238 1.318 . S
C234 N233 1.328 . S
C234 C235 1.457 . S
C234 H239 0.929 . S
C235 C234 1.457 . S
C235 C236 1.291 . S
C235 H248 0.931 . S
C236 C235 1.291 . S
C236 C237 1.373 . S
C236 H249 0.929 . S
C237 C236 1.373 . S
C237 C238 1.396 . S
C237 C244 1.403 . S
C238 C228 1.476 . S
C238 N233 1.318 . S
C238 C237 1.396 . S
H239 C234 0.929 . S
O240 Mn216 2.385 . S
O240 C218 1.234 . S
O241 Mn216 2.209 . S
O241 Mn217 2.215 . S
O241 C218 1.283 . S
O242 Mn216 2.094 . S
O242 C220 1.240 . S
O243 Mn217 2.117 . S
O243 C220 1.264 . S
C244 C237 1.403 . S
C244 C245 1.399 . S
C244 H250 0.929 . S
C245 C225 1.449 . S
C245 C244 1.399 . S
C245 H251 0.930 . S
H246 C226 0.931 . S
H247 C227 0.930 . S
H248 C235 0.931 . S
H249 C236 0.929 . S
H250 C244 0.929 . S
H251 C245 0.930 . S
Mn252 O257 2.095 . S
Mn252 O267 2.162 . S
Mn252 O268 2.297 . S
Mn252 O276 2.385 . S
Mn252 O277 2.209 . S
Mn252 O278 2.094 . S
Mn253 O258 2.121 . S
Mn253 N260 2.257 . S
Mn253 N269 2.282 . S
Mn253 O277 2.215 . S
Mn253 O279 2.117 . S
C254 O276 1.234 . S
C254 O277 1.283 . S
C255 O267 1.281 . S
C255 O268 1.236 . S
C256 O278 1.240 . S
C256 O279 1.264 . S
O257 Mn252 2.095 . S
O257 C266 1.250 . S
O258 Mn253 2.121 . S
O258 C266 1.258 . S
C259 N260 1.326 . S
C259 C263 1.460 . S
C259 H265 0.929 . S
N260 Mn253 2.257 . S
N260 C259 1.326 . S
N260 C264 1.362 . S
C261 C262 1.258 . S
C261 C264 1.431 . S
C261 C281 1.449 . S
C262 C261 1.258 . S
C262 C263 1.477 . S
C262 H282 0.931 . S
C263 C259 1.460 . S
C263 C262 1.477 . S
C263 H283 0.930 . S
C264 N260 1.362 . S
C264 C261 1.431 . S
C264 C274 1.476 . S
H265 C259 0.929 . S
C266 O257 1.250 . S
C266 O258 1.258 . S
O267 Mn252 2.162 . S
O267 C255 1.281 . S
O268 Mn252 2.297 . S
O268 C255 1.236 . S
N269 Mn253 2.282 . S
N269 C270 1.328 . S
N269 C274 1.318 . S
C270 N269 1.328 . S
C270 C271 1.457 . S
C270 H275 0.929 . S
C271 C270 1.457 . S
C271 C272 1.291 . S
C271 H284 0.931 . S
C272 C271 1.291 . S
C272 C273 1.373 . S
C272 H285 0.929 . S
C273 C272 1.373 . S
C273 C274 1.396 . S
C273 C280 1.403 . S
C274 C264 1.476 . S
C274 N269 1.318 . S
C274 C273 1.396 . S
H275 C270 0.929 . S
O276 Mn252 2.385 . S
O276 C254 1.234 . S
O277 Mn252 2.209 . S
O277 Mn253 2.215 . S
O277 C254 1.283 . S
O278 Mn252 2.094 . S
O278 C256 1.240 . S
O279 Mn253 2.117 . S
O279 C256 1.264 . S
C280 C273 1.403 . S
C280 C281 1.399 . S
C280 H286 0.929 . S
C281 C261 1.449 . S
C281 C280 1.399 . S
C281 H287 0.930 . S
H282 C262 0.931 . S
H283 C263 0.930 . S
H284 C271 0.931 . S
H285 C272 0.929 . S
H286 C280 0.929 . S
H287 C281 0.930 . S
Mn288 O293 2.095 . S
Mn288 O303 2.162 . S
Mn288 O304 2.297 . S
Mn288 O312 2.385 1_545 S
Mn288 O313 2.209 . S
Mn288 O314 2.094 . S
Mn289 O294 2.121 . S
Mn289 N296 2.257 . S
Mn289 N305 2.282 1_545 S
Mn289 O313 2.215 . S
Mn289 O315 2.117 . S
C290 O312 1.234 . S
C290 O313 1.283 1_565 S
C291 O303 1.281 . S
C291 O304 1.236 . S
C292 O314 1.240 . S
C292 O315 1.264 . S
O293 Mn288 2.095 . S
O293 C302 1.250 . S
O294 Mn289 2.121 . S
O294 C302 1.258 . S
C295 N296 1.326 . S
C295 C299 1.460 . S
C295 H301 0.929 . S
N296 Mn289 2.257 . S
N296 C295 1.326 . S
N296 C300 1.362 1_545 S
C297 C298 1.257 . S
C297 C300 1.431 . S
C297 C317 1.449 . S
C298 C297 1.257 . S
C298 C299 1.479 1_565 S
C298 H318 0.929 . S
C299 C295 1.460 . S
C299 C298 1.479 1_545 S
C299 H319 0.930 . S
C300 N296 1.362 1_565 S
C300 C297 1.431 . S
C300 C310 1.476 . S
H301 C295 0.929 . S
C302 O293 1.250 . S
C302 O294 1.258 . S
O303 Mn288 2.162 . S
O303 C291 1.281 . S
O304 Mn288 2.297 . S
O304 C291 1.236 . S
N305 Mn289 2.282 1_565 S
N305 C306 1.328 . S
N305 C310 1.318 . S
C306 N305 1.328 . S
C306 C307 1.457 . S
C306 H311 0.929 . S
C307 C306 1.457 . S
C307 C308 1.291 . S
C307 H320 0.931 . S
C308 C307 1.291 . S
C308 C309 1.373 . S
C308 H321 0.929 . S
C309 C308 1.373 . S
C309 C310 1.396 . S
C309 C316 1.403 . S
C310 C300 1.476 . S
C310 N305 1.318 . S
C310 C309 1.396 . S
H311 C306 0.929 . S
O312 Mn288 2.385 1_565 S
O312 C290 1.234 . S
O313 Mn288 2.209 . S
O313 Mn289 2.215 . S
O313 C290 1.283 1_545 S
O314 Mn288 2.094 . S
O314 C292 1.240 . S
O315 Mn289 2.117 . S
O315 C292 1.264 . S
C316 C309 1.403 . S
C316 C317 1.399 . S
C316 H322 0.929 . S
C317 C297 1.449 . S
C317 C316 1.399 . S
C317 H323 0.930 . S
H318 C298 0.929 . S
H319 C299 0.930 . S
H320 C307 0.931 . S
H321 C308 0.929 . S
H322 C316 0.929 . S
H323 C317 0.930 . S
Mn324 O329 2.095 1_545 S
Mn324 O339 2.162 . S
Mn324 O340 2.297 . S
Mn324 O348 2.385 . S
Mn324 O349 2.209 . S
Mn324 O350 2.094 . S
Mn325 O330 2.121 1_545 S
Mn325 N332 2.257 . S
Mn325 N341 2.282 . S
Mn325 O349 2.215 . S
Mn325 O351 2.117 . S
C326 O348 1.234 . S
C326 O349 1.283 . S
C327 O339 1.281 . S
C327 O340 1.236 . S
C328 O350 1.240 . S
C328 O351 1.264 . S
O329 Mn324 2.095 1_565 S
O329 C338 1.250 . S
O330 Mn325 2.121 1_565 S
O330 C338 1.258 . S
C331 N332 1.326 . S
C331 C335 1.460 . S
C331 H337 0.929 . S
N332 Mn325 2.257 . S
N332 C331 1.326 . S
N332 C336 1.362 . S
C333 C334 1.258 . S
C333 C336 1.431 . S
C333 C353 1.449 . S
C334 C333 1.258 . S
C334 C335 1.477 . S
C334 H354 0.931 . S
C335 C331 1.460 . S
C335 C334 1.477 . S
C335 H355 0.930 . S
C336 N332 1.362 . S
C336 C333 1.431 . S
C336 C346 1.476 . S
H337 C331 0.929 . S
C338 O329 1.250 . S
C338 O330 1.258 . S
O339 Mn324 2.162 . S
O339 C327 1.281 . S
O340 Mn324 2.297 . S
O340 C327 1.236 . S
N341 Mn325 2.282 . S
N341 C342 1.328 . S
N341 C346 1.318 . S
C342 N341 1.328 . S
C342 C343 1.457 . S
C342 H347 0.929 . S
C343 C342 1.457 . S
C343 C344 1.291 . S
C343 H356 0.931 . S
C344 C343 1.291 . S
C344 C345 1.373 . S
C344 H357 0.929 . S
C345 C344 1.373 . S
C345 C346 1.396 . S
C345 C352 1.403 . S
C346 C336 1.476 . S
C346 N341 1.318 . S
C346 C345 1.396 . S
H347 C342 0.929 . S
O348 Mn324 2.385 . S
O348 C326 1.234 . S
O349 Mn324 2.209 . S
O349 Mn325 2.215 . S
O349 C326 1.283 . S
O350 Mn324 2.094 . S
O350 C328 1.240 . S
O351 Mn325 2.117 . S
O351 C328 1.264 . S
C352 C345 1.403 . S
C352 C353 1.399 . S
C352 H358 0.929 . S
C353 C333 1.449 . S
C353 C352 1.399 . S
C353 H359 0.930 . S
H354 C334 0.931 . S
H355 C335 0.930 . S
H356 C343 0.931 . S
H357 C344 0.929 . S
H358 C352 0.929 . S
H359 C353 0.930 . S
Mn360 O365 2.095 . S
Mn360 O375 2.162 . S
Mn360 O376 2.297 . S
Mn360 O384 2.385 1_455 S
Mn360 O385 2.209 . S
Mn360 O386 2.094 . S
Mn361 O366 2.121 . S
Mn361 N368 2.257 . S
Mn361 N377 2.282 1_455 S
Mn361 O385 2.215 . S
Mn361 O387 2.117 . S
C362 O384 1.234 . S
C362 O385 1.283 1_655 S
C363 O375 1.281 . S
C363 O376 1.236 . S
C364 O386 1.240 . S
C364 O387 1.264 . S
O365 Mn360 2.095 . S
O365 C374 1.250 . S
O366 Mn361 2.121 . S
O366 C374 1.258 . S
C367 N368 1.326 . S
C367 C371 1.460 . S
C367 H373 0.929 . S
N368 Mn361 2.257 . S
N368 C367 1.326 . S
N368 C372 1.362 1_455 S
C369 C370 1.257 . S
C369 C372 1.431 . S
C369 C389 1.449 . S
C370 C369 1.257 . S
C370 C371 1.479 1_655 S
C370 H390 0.929 . S
C371 C367 1.460 . S
C371 C370 1.479 1_455 S
C371 H391 0.930 . S
C372 N368 1.362 1_655 S
C372 C369 1.431 . S
C372 C382 1.476 . S
H373 C367 0.929 . S
C374 O365 1.250 . S
C374 O366 1.258 . S
O375 Mn360 2.162 . S
O375 C363 1.281 . S
O376 Mn360 2.297 . S
O376 C363 1.236 . S
N377 Mn361 2.282 1_655 S
N377 C378 1.328 . S
N377 C382 1.318 . S
C378 N377 1.328 . S
C378 C379 1.457 . S
C378 H383 0.929 . S
C379 C378 1.457 . S
C379 C380 1.291 . S
C379 H392 0.931 . S
C380 C379 1.291 . S
C380 C381 1.373 . S
C380 H393 0.929 . S
C381 C380 1.373 . S
C381 C382 1.396 . S
C381 C388 1.403 . S
C382 C372 1.476 . S
C382 N377 1.318 . S
C382 C381 1.396 . S
H383 C378 0.929 . S
O384 Mn360 2.385 1_655 S
O384 C362 1.234 . S
O385 Mn360 2.209 . S
O385 Mn361 2.215 . S
O385 C362 1.283 1_455 S
O386 Mn360 2.094 . S
O386 C364 1.240 . S
O387 Mn361 2.117 . S
O387 C364 1.264 . S
C388 C381 1.403 . S
C388 C389 1.399 . S
C388 H394 0.929 . S
C389 C369 1.449 . S
C389 C388 1.399 . S
C389 H395 0.930 . S
H390 C370 0.929 . S
H391 C371 0.930 . S
H392 C379 0.931 . S
H393 C380 0.929 . S
H394 C388 0.929 . S
H395 C389 0.930 . S
Mn396 O401 2.095 . S
Mn396 O411 2.162 . S
Mn396 O412 2.297 . S
Mn396 O420 2.385 . S
Mn396 O421 2.209 . S
Mn396 O422 2.094 . S
Mn397 O402 2.121 . S
Mn397 N404 2.257 . S
Mn397 N413 2.282 . S
Mn397 O421 2.215 . S
Mn397 O423 2.117 . S
C398 O420 1.234 . S
C398 O421 1.283 . S
C399 O411 1.281 . S
C399 O412 1.236 . S
C400 O422 1.240 . S
C400 O423 1.264 . S
O401 Mn396 2.095 . S
O401 C410 1.250 . S
O402 Mn397 2.121 . S
O402 C410 1.258 . S
C403 N404 1.326 . S
C403 C407 1.460 . S
C403 H409 0.929 . S
N404 Mn397 2.257 . S
N404 C403 1.326 . S
N404 C408 1.362 . S
C405 C406 1.258 . S
C405 C408 1.431 . S
C405 C425 1.449 . S
C406 C405 1.258 . S
C406 C407 1.477 . S
C406 H426 0.931 . S
C407 C403 1.460 . S
C407 C406 1.477 . S
C407 H427 0.930 . S
C408 N404 1.362 . S
C408 C405 1.431 . S
C408 C418 1.476 . S
H409 C403 0.929 . S
C410 O401 1.250 . S
C410 O402 1.258 . S
O411 Mn396 2.162 . S
O411 C399 1.281 . S
O412 Mn396 2.297 . S
O412 C399 1.236 . S
N413 Mn397 2.282 . S
N413 C414 1.328 . S
N413 C418 1.318 . S
C414 N413 1.328 . S
C414 C415 1.457 . S
C414 H419 0.929 . S
C415 C414 1.457 . S
C415 C416 1.291 . S
C415 H428 0.931 . S
C416 C415 1.291 . S
C416 C417 1.373 . S
C416 H429 0.929 . S
C417 C416 1.373 . S
C417 C418 1.396 . S
C417 C424 1.403 . S
C418 C408 1.476 . S
C418 N413 1.318 . S
C418 C417 1.396 . S
H419 C414 0.929 . S
O420 Mn396 2.385 . S
O420 C398 1.234 . S
O421 Mn396 2.209 . S
O421 Mn397 2.215 . S
O421 C398 1.283 . S
O422 Mn396 2.094 . S
O422 C400 1.240 . S
O423 Mn397 2.117 . S
O423 C400 1.264 . S
C424 C417 1.403 . S
C424 C425 1.399 . S
C424 H430 0.929 . S
C425 C405 1.449 . S
C425 C424 1.399 . S
C425 H431 0.930 . S
H426 C406 0.931 . S
H427 C407 0.930 . S
H428 C415 0.931 . S
H429 C416 0.929 . S
H430 C424 0.929 . S
H431 C425 0.930 . S
Mn432 O437 2.095 . S
Mn432 O447 2.162 . S
Mn432 O448 2.297 . S
Mn432 O456 2.385 . S
Mn432 O457 2.209 . S
Mn432 O458 2.094 . S
Mn433 O438 2.121 . S
Mn433 N440 2.257 . S
Mn433 N449 2.282 . S
Mn433 O457 2.215 . S
Mn433 O459 2.117 . S
C434 O456 1.234 . S
C434 O457 1.283 . S
C435 O447 1.281 . S
C435 O448 1.236 . S
C436 O458 1.240 . S
C436 O459 1.264 . S
O437 Mn432 2.095 . S
O437 C446 1.250 . S
O438 Mn433 2.121 . S
O438 C446 1.258 . S
C439 N440 1.326 . S
C439 C443 1.460 . S
C439 H445 0.929 . S
N440 Mn433 2.257 . S
N440 C439 1.326 . S
N440 C444 1.362 . S
C441 C442 1.258 . S
C441 C444 1.431 . S
C441 C461 1.449 . S
C442 C441 1.258 . S
C442 C443 1.477 . S
C442 H462 0.931 . S
C443 C439 1.460 . S
C443 C442 1.477 . S
C443 H463 0.930 . S
C444 N440 1.362 . S
C444 C441 1.431 . S
C444 C454 1.476 . S
H445 C439 0.929 . S
C446 O437 1.250 . S
C446 O438 1.258 . S
O447 Mn432 2.162 . S
O447 C435 1.281 . S
O448 Mn432 2.297 . S
O448 C435 1.236 . S
N449 Mn433 2.282 . S
N449 C450 1.328 . S
N449 C454 1.318 . S
C450 N449 1.328 . S
C450 C451 1.457 . S
C450 H455 0.929 . S
C451 C450 1.457 . S
C451 C452 1.291 . S
C451 H464 0.931 . S
C452 C451 1.291 . S
C452 C453 1.373 . S
C452 H465 0.929 . S
C453 C452 1.373 . S
C453 C454 1.396 . S
C453 C460 1.403 . S
C454 C444 1.476 . S
C454 N449 1.318 . S
C454 C453 1.396 . S
H455 C450 0.929 . S
O456 Mn432 2.385 . S
O456 C434 1.234 . S
O457 Mn432 2.209 . S
O457 Mn433 2.215 . S
O457 C434 1.283 . S
O458 Mn432 2.094 . S
O458 C436 1.240 . S
O459 Mn433 2.117 . S
O459 C436 1.264 . S
C460 C453 1.403 . S
C460 C461 1.399 . S
C460 H466 0.929 . S
C461 C441 1.449 . S
C461 C460 1.399 . S
C461 H467 0.930 . S
H462 C442 0.931 . S
H463 C443 0.930 . S
H464 C451 0.931 . S
H465 C452 0.929 . S
H466 C460 0.929 . S
H467 C461 0.930 . S
Mn468 O473 2.095 . S
Mn468 O483 2.162 . S
Mn468 O484 2.297 . S
Mn468 O492 2.385 . S
Mn468 O493 2.209 . S
Mn468 O494 2.094 . S
Mn469 O474 2.121 . S
Mn469 N476 2.257 . S
Mn469 N485 2.282 . S
Mn469 O493 2.215 . S
Mn469 O495 2.117 . S
C470 O492 1.234 . S
C470 O493 1.283 . S
C471 O483 1.281 . S
C471 O484 1.236 . S
C472 O494 1.240 . S
C472 O495 1.264 . S
O473 Mn468 2.095 . S
O473 C482 1.250 . S
O474 Mn469 2.121 . S
O474 C482 1.258 . S
C475 N476 1.326 . S
C475 C479 1.460 . S
C475 H481 0.929 . S
N476 Mn469 2.257 . S
N476 C475 1.326 . S
N476 C480 1.362 . S
C477 C478 1.258 . S
C477 C480 1.431 . S
C477 C497 1.449 . S
C478 C477 1.258 . S
C478 C479 1.477 . S
C478 H498 0.931 . S
C479 C475 1.460 . S
C479 C478 1.477 . S
C479 H499 0.930 . S
C480 N476 1.362 . S
C480 C477 1.431 . S
C480 C490 1.476 . S
H481 C475 0.929 . S
C482 O473 1.250 . S
C482 O474 1.258 . S
O483 Mn468 2.162 . S
O483 C471 1.281 . S
O484 Mn468 2.297 . S
O484 C471 1.236 . S
N485 Mn469 2.282 . S
N485 C486 1.328 . S
N485 C490 1.318 . S
C486 N485 1.328 . S
C486 C487 1.457 . S
C486 H491 0.929 . S
C487 C486 1.457 . S
C487 C488 1.291 . S
C487 H500 0.931 . S
C488 C487 1.291 . S
C488 C489 1.373 . S
C488 H501 0.929 . S
C489 C488 1.373 . S
C489 C490 1.396 . S
C489 C496 1.403 . S
C490 C480 1.476 . S
C490 N485 1.318 . S
C490 C489 1.396 . S
H491 C486 0.929 . S
O492 Mn468 2.385 . S
O492 C470 1.234 . S
O493 Mn468 2.209 . S
O493 Mn469 2.215 . S
O493 C470 1.283 . S
O494 Mn468 2.094 . S
O494 C472 1.240 . S
O495 Mn469 2.117 . S
O495 C472 1.264 . S
C496 C489 1.403 . S
C496 C497 1.399 . S
C496 H502 0.929 . S
C497 C477 1.449 . S
C497 C496 1.399 . S
C497 H503 0.930 . S
H498 C478 0.931 . S
H499 C479 0.930 . S
H500 C487 0.931 . S
H501 C488 0.929 . S
H502 C496 0.929 . S
H503 C497 0.930 . S
Mn504 O509 2.095 . S
Mn504 O519 2.162 1_655 S
Mn504 O520 2.297 . S
Mn504 O528 2.385 . S
Mn504 O529 2.209 . S
Mn504 O530 2.094 . S
Mn505 O510 2.121 . S
Mn505 N512 2.257 . S
Mn505 N521 2.282 . S
Mn505 O529 2.215 . S
Mn505 O531 2.117 . S
C506 O528 1.234 . S
C506 O529 1.283 . S
C507 O519 1.281 . S
C507 O520 1.236 1_455 S
C508 O530 1.240 . S
C508 O531 1.264 . S
O509 Mn504 2.095 . S
O509 C518 1.250 . S
O510 Mn505 2.121 . S
O510 C518 1.258 . S
C511 N512 1.326 . S
C511 C515 1.460 . S
C511 H517 0.929 . S
N512 Mn505 2.257 . S
N512 C511 1.326 . S
N512 C516 1.362 . S
C513 C514 1.258 . S
C513 C516 1.431 . S
C513 C533 1.449 . S
C514 C513 1.258 . S
C514 C515 1.477 . S
C514 H534 0.931 . S
C515 C511 1.460 . S
C515 C514 1.477 . S
C515 H535 0.930 . S
C516 N512 1.362 . S
C516 C513 1.431 . S
C516 C526 1.476 . S
H517 C511 0.929 . S
C518 O509 1.250 . S
C518 O510 1.258 . S
O519 Mn504 2.162 1_455 S
O519 C507 1.281 . S
O520 Mn504 2.297 . S
O520 C507 1.236 1_655 S
N521 Mn505 2.282 . S
N521 C522 1.328 . S
N521 C526 1.318 . S
C522 N521 1.328 . S
C522 C523 1.457 . S
C522 H527 0.929 . S
C523 C522 1.457 . S
C523 C524 1.291 . S
C523 H536 0.931 . S
C524 C523 1.291 . S
C524 C525 1.373 . S
C524 H537 0.929 . S
C525 C524 1.373 . S
C525 C526 1.396 . S
C525 C532 1.403 . S
C526 C516 1.476 . S
C526 N521 1.318 . S
C526 C525 1.396 . S
H527 C522 0.929 . S
O528 Mn504 2.385 . S
O528 C506 1.234 . S
O529 Mn504 2.209 . S
O529 Mn505 2.215 . S
O529 C506 1.283 . S
O530 Mn504 2.094 . S
O530 C508 1.240 . S
O531 Mn505 2.117 . S
O531 C508 1.264 . S
C532 C525 1.403 . S
C532 C533 1.399 . S
C532 H538 0.929 . S
C533 C513 1.449 . S
C533 C532 1.399 . S
C533 H539 0.930 . S
H534 C514 0.931 . S
H535 C515 0.930 . S
H536 C523 0.931 . S
H537 C524 0.929 . S
H538 C532 0.929 . S
H539 C533 0.930 . S
Mn540 O545 2.095 . S
Mn540 O555 2.162 1_655 S
Mn540 O556 2.297 . S
Mn540 O564 2.385 . S
Mn540 O565 2.209 . S
Mn540 O566 2.094 . S
Mn541 O546 2.121 . S
Mn541 N548 2.257 . S
Mn541 N557 2.282 . S
Mn541 O565 2.215 . S
Mn541 O567 2.117 . S
C542 O564 1.234 . S
C542 O565 1.283 . S
C543 O555 1.281 1_655 S
C543 O556 1.236 . S
C544 O566 1.240 . S
C544 O567 1.264 . S
O545 Mn540 2.095 . S
O545 C554 1.250 . S
O546 Mn541 2.121 . S
O546 C554 1.258 . S
C547 N548 1.326 . S
C547 C551 1.460 . S
C547 H553 0.929 . S
N548 Mn541 2.257 . S
N548 C547 1.326 . S
N548 C552 1.362 . S
C549 C550 1.258 . S
C549 C552 1.431 . S
C549 C569 1.449 . S
C550 C549 1.258 . S
C550 C551 1.477 . S
C550 H570 0.931 . S
C551 C547 1.460 . S
C551 C550 1.477 . S
C551 H571 0.930 . S
C552 N548 1.362 . S
C552 C549 1.431 . S
C552 C562 1.476 . S
H553 C547 0.929 . S
C554 O545 1.250 . S
C554 O546 1.258 . S
O555 Mn540 2.162 1_455 S
O555 C543 1.281 1_455 S
O556 Mn540 2.297 . S
O556 C543 1.236 . S
N557 Mn541 2.282 . S
N557 C558 1.328 . S
N557 C562 1.318 . S
C558 N557 1.328 . S
C558 C559 1.457 . S
C558 H563 0.929 . S
C559 C558 1.457 . S
C559 C560 1.291 . S
C559 H572 0.931 . S
C560 C559 1.291 . S
C560 C561 1.373 . S
C560 H573 0.929 . S
C561 C560 1.373 . S
C561 C562 1.396 . S
C561 C568 1.403 . S
C562 C552 1.476 . S
C562 N557 1.318 . S
C562 C561 1.396 . S
H563 C558 0.929 . S
O564 Mn540 2.385 . S
O564 C542 1.234 . S
O565 Mn540 2.209 . S
O565 Mn541 2.215 . S
O565 C542 1.283 . S
O566 Mn540 2.094 . S
O566 C544 1.240 . S
O567 Mn541 2.117 . S
O567 C544 1.264 . S
C568 C561 1.403 . S
C568 C569 1.399 . S
C568 H574 0.929 . S
C569 C549 1.449 . S
C569 C568 1.399 . S
C569 H575 0.930 . S
H570 C550 0.931 . S
H571 C551 0.930 . S
H572 C559 0.931 . S
H573 C560 0.929 . S
H574 C568 0.929 . S
H575 C569 0.930 . S
Mn576 O581 2.095 . S
Mn576 O591 2.162 . S
Mn576 O592 2.297 . S
Mn576 O600 2.385 . S
Mn576 O601 2.209 . S
Mn576 O602 2.094 . S
Mn577 O582 2.121 . S
Mn577 N584 2.257 . S
Mn577 N593 2.282 . S
Mn577 O601 2.215 . S
Mn577 O603 2.117 . S
C578 O600 1.234 . S
C578 O601 1.283 . S
C579 O591 1.281 . S
C579 O592 1.236 . S
C580 O602 1.240 . S
C580 O603 1.264 . S
O581 Mn576 2.095 . S
O581 C590 1.250 . S
O582 Mn577 2.121 . S
O582 C590 1.258 . S
C583 N584 1.326 . S
C583 C587 1.460 . S
C583 H589 0.929 . S
N584 Mn577 2.257 . S
N584 C583 1.326 . S
N584 C588 1.362 . S
C585 C586 1.258 . S
C585 C588 1.431 . S
C585 C605 1.449 . S
C586 C585 1.258 . S
C586 C587 1.477 . S
C586 H606 0.931 . S
C587 C583 1.460 . S
C587 C586 1.477 . S
C587 H607 0.930 . S
C588 N584 1.362 . S
C588 C585 1.431 . S
C588 C598 1.476 . S
H589 C583 0.929 . S
C590 O581 1.250 . S
C590 O582 1.258 . S
O591 Mn576 2.162 . S
O591 C579 1.281 . S
O592 Mn576 2.297 . S
O592 C579 1.236 . S
N593 Mn577 2.282 . S
N593 C594 1.328 . S
N593 C598 1.318 . S
C594 N593 1.328 . S
C594 C595 1.457 . S
C594 H599 0.929 . S
C595 C594 1.457 . S
C595 C596 1.291 . S
C595 H608 0.931 . S
C596 C595 1.291 . S
C596 C597 1.373 . S
C596 H609 0.929 . S
C597 C596 1.373 . S
C597 C598 1.396 . S
C597 C604 1.403 . S
C598 C588 1.476 . S
C598 N593 1.318 . S
C598 C597 1.396 . S
H599 C594 0.929 . S
O600 Mn576 2.385 . S
O600 C578 1.234 . S
O601 Mn576 2.209 . S
O601 Mn577 2.215 . S
O601 C578 1.283 . S
O602 Mn576 2.094 . S
O602 C580 1.240 . S
O603 Mn577 2.117 . S
O603 C580 1.264 . S
C604 C597 1.403 . S
C604 C605 1.399 . S
C604 H610 0.929 . S
C605 C585 1.449 . S
C605 C604 1.399 . S
C605 H611 0.930 . S
H606 C586 0.931 . S
H607 C587 0.930 . S
H608 C595 0.931 . S
H609 C596 0.929 . S
H610 C604 0.929 . S
H611 C605 0.930 . S
Mn612 O617 2.095 . S
Mn612 O627 2.162 . S
Mn612 O628 2.297 . S
Mn612 O636 2.385 . S
Mn612 O637 2.209 . S
Mn612 O638 2.094 . S
Mn613 O618 2.121 . S
Mn613 N620 2.257 . S
Mn613 N629 2.282 . S
Mn613 O637 2.215 . S
Mn613 O639 2.117 . S
C614 O636 1.234 . S
C614 O637 1.283 . S
C615 O627 1.281 . S
C615 O628 1.236 . S
C616 O638 1.240 . S
C616 O639 1.264 . S
O617 Mn612 2.095 . S
O617 C626 1.250 . S
O618 Mn613 2.121 . S
O618 C626 1.258 . S
C619 N620 1.326 . S
C619 C623 1.460 . S
C619 H625 0.929 . S
N620 Mn613 2.257 . S
N620 C619 1.326 . S
N620 C624 1.362 . S
C621 C622 1.258 . S
C621 C624 1.431 . S
C621 C641 1.449 . S
C622 C621 1.258 . S
C622 C623 1.477 . S
C622 H642 0.931 . S
C623 C619 1.460 . S
C623 C622 1.477 . S
C623 H643 0.930 . S
C624 N620 1.362 . S
C624 C621 1.431 . S
C624 C634 1.476 . S
H625 C619 0.929 . S
C626 O617 1.250 . S
C626 O618 1.258 . S
O627 Mn612 2.162 . S
O627 C615 1.281 . S
O628 Mn612 2.297 . S
O628 C615 1.236 . S
N629 Mn613 2.282 . S
N629 C630 1.328 . S
N629 C634 1.318 . S
C630 N629 1.328 . S
C630 C631 1.457 . S
C630 H635 0.929 . S
C631 C630 1.457 . S
C631 C632 1.291 . S
C631 H644 0.931 . S
C632 C631 1.291 . S
C632 C633 1.373 . S
C632 H645 0.929 . S
C633 C632 1.373 . S
C633 C634 1.396 . S
C633 C640 1.403 . S
C634 C624 1.476 . S
C634 N629 1.318 . S
C634 C633 1.396 . S
H635 C630 0.929 . S
O636 Mn612 2.385 . S
O636 C614 1.234 . S
O637 Mn612 2.209 . S
O637 Mn613 2.215 . S
O637 C614 1.283 . S
O638 Mn612 2.094 . S
O638 C616 1.240 . S
O639 Mn613 2.117 . S
O639 C616 1.264 . S
C640 C633 1.403 . S
C640 C641 1.399 . S
C640 H646 0.929 . S
C641 C621 1.449 . S
C641 C640 1.399 . S
C641 H647 0.930 . S
H642 C622 0.931 . S
H643 C623 0.930 . S
H644 C631 0.931 . S
H645 C632 0.929 . S
H646 C640 0.929 . S
H647 C641 0.930 . S
Mn648 O653 2.095 . S
Mn648 O663 2.162 . S
Mn648 O664 2.297 . S
Mn648 O672 2.385 . S
Mn648 O673 2.209 . S
Mn648 O674 2.094 . S
Mn649 O654 2.121 . S
Mn649 N656 2.257 . S
Mn649 N665 2.282 . S
Mn649 O673 2.215 . S
Mn649 O675 2.117 . S
C650 O672 1.234 . S
C650 O673 1.283 . S
C651 O663 1.281 . S
C651 O664 1.236 . S
C652 O674 1.240 . S
C652 O675 1.264 . S
O653 Mn648 2.095 . S
O653 C662 1.250 . S
O654 Mn649 2.121 . S
O654 C662 1.258 . S
C655 N656 1.326 . S
C655 C659 1.460 . S
C655 H661 0.929 . S
N656 Mn649 2.257 . S
N656 C655 1.326 . S
N656 C660 1.362 . S
C657 C658 1.258 . S
C657 C660 1.431 . S
C657 C677 1.449 . S
C658 C657 1.258 . S
C658 C659 1.477 . S
C658 H678 0.931 . S
C659 C655 1.460 . S
C659 C658 1.477 . S
C659 H679 0.930 . S
C660 N656 1.362 . S
C660 C657 1.431 . S
C660 C670 1.476 . S
H661 C655 0.929 . S
C662 O653 1.250 . S
C662 O654 1.258 . S
O663 Mn648 2.162 . S
O663 C651 1.281 . S
O664 Mn648 2.297 . S
O664 C651 1.236 . S
N665 Mn649 2.282 . S
N665 C666 1.328 . S
N665 C670 1.318 . S
C666 N665 1.328 . S
C666 C667 1.457 . S
C666 H671 0.929 . S
C667 C666 1.457 . S
C667 C668 1.291 . S
C667 H680 0.931 . S
C668 C667 1.291 . S
C668 C669 1.373 . S
C668 H681 0.929 . S
C669 C668 1.373 . S
C669 C670 1.396 . S
C669 C676 1.403 . S
C670 C660 1.476 . S
C670 N665 1.318 . S
C670 C669 1.396 . S
H671 C666 0.929 . S
O672 Mn648 2.385 . S
O672 C650 1.234 . S
O673 Mn648 2.209 . S
O673 Mn649 2.215 . S
O673 C650 1.283 . S
O674 Mn648 2.094 . S
O674 C652 1.240 . S
O675 Mn649 2.117 . S
O675 C652 1.264 . S
C676 C669 1.403 . S
C676 C677 1.399 . S
C676 H682 0.929 . S
C677 C657 1.449 . S
C677 C676 1.399 . S
C677 H683 0.930 . S
H678 C658 0.931 . S
H679 C659 0.930 . S
H680 C667 0.931 . S
H681 C668 0.929 . S
H682 C676 0.929 . S
H683 C677 0.930 . S
Mn684 O689 2.095 . S
Mn684 O699 2.162 1_655 S
Mn684 O700 2.297 . S
Mn684 O708 2.385 . S
Mn684 O709 2.209 . S
Mn684 O710 2.094 . S
Mn685 O690 2.121 . S
Mn685 N692 2.257 . S
Mn685 N701 2.282 . S
Mn685 O709 2.215 . S
Mn685 O711 2.117 . S
C686 O708 1.234 . S
C686 O709 1.283 . S
C687 O699 1.281 1_655 S
C687 O700 1.236 . S
C688 O710 1.240 . S
C688 O711 1.264 . S
O689 Mn684 2.095 . S
O689 C698 1.250 . S
O690 Mn685 2.121 . S
O690 C698 1.258 . S
C691 N692 1.326 . S
C691 C695 1.460 . S
C691 H697 0.929 . S
N692 Mn685 2.257 . S
N692 C691 1.326 . S
N692 C696 1.362 . S
C693 C694 1.258 . S
C693 C696 1.431 . S
C693 C713 1.449 . S
C694 C693 1.258 . S
C694 C695 1.477 . S
C694 H714 0.931 . S
C695 C691 1.460 . S
C695 C694 1.477 . S
C695 H715 0.930 . S
C696 N692 1.362 . S
C696 C693 1.431 . S
C696 C706 1.476 . S
H697 C691 0.929 . S
C698 O689 1.250 . S
C698 O690 1.258 . S
O699 Mn684 2.162 1_455 S
O699 C687 1.281 1_455 S
O700 Mn684 2.297 . S
O700 C687 1.236 . S
N701 Mn685 2.282 . S
N701 C702 1.328 . S
N701 C706 1.318 . S
C702 N701 1.328 . S
C702 C703 1.457 . S
C702 H707 0.929 . S
C703 C702 1.457 . S
C703 C704 1.291 . S
C703 H716 0.931 . S
C704 C703 1.291 . S
C704 C705 1.373 . S
C704 H717 0.929 . S
C705 C704 1.373 . S
C705 C706 1.396 . S
C705 C712 1.403 . S
C706 C696 1.476 . S
C706 N701 1.318 . S
C706 C705 1.396 . S
H707 C702 0.929 . S
O708 Mn684 2.385 . S
O708 C686 1.234 . S
O709 Mn684 2.209 . S
O709 Mn685 2.215 . S
O709 C686 1.283 . S
O710 Mn684 2.094 . S
O710 C688 1.240 . S
O711 Mn685 2.117 . S
O711 C688 1.264 . S
C712 C705 1.403 . S
C712 C713 1.399 . S
C712 H718 0.929 . S
C713 C693 1.449 . S
C713 C712 1.399 . S
C713 H719 0.930 . S
H714 C694 0.931 . S
H715 C695 0.930 . S
H716 C703 0.931 . S
H717 C704 0.929 . S
H718 C712 0.929 . S
H719 C713 0.930 . S
Mn720 O725 2.095 . S
Mn720 O735 2.162 . S
Mn720 O736 2.297 . S
Mn720 O744 2.385 . S
Mn720 O745 2.209 . S
Mn720 O746 2.094 . S
Mn721 O726 2.121 . S
Mn721 N728 2.257 . S
Mn721 N737 2.282 . S
Mn721 O745 2.215 . S
Mn721 O747 2.117 . S
C722 O744 1.234 . S
C722 O745 1.283 . S
C723 O735 1.281 . S
C723 O736 1.236 . S
C724 O746 1.240 . S
C724 O747 1.264 . S
O725 Mn720 2.095 . S
O725 C734 1.250 . S
O726 Mn721 2.121 . S
O726 C734 1.258 . S
C727 N728 1.326 . S
C727 C731 1.460 . S
C727 H733 0.929 . S
N728 Mn721 2.257 . S
N728 C727 1.326 . S
N728 C732 1.362 . S
C729 C730 1.258 . S
C729 C732 1.431 . S
C729 C749 1.449 . S
C730 C729 1.258 . S
C730 C731 1.477 . S
C730 H750 0.931 . S
C731 C727 1.460 . S
C731 C730 1.477 . S
C731 H751 0.930 . S
C732 N728 1.362 . S
C732 C729 1.431 . S
C732 C742 1.476 . S
H733 C727 0.929 . S
C734 O725 1.250 . S
C734 O726 1.258 . S
O735 Mn720 2.162 . S
O735 C723 1.281 . S
O736 Mn720 2.297 . S
O736 C723 1.236 . S
N737 Mn721 2.282 . S
N737 C738 1.328 . S
N737 C742 1.318 . S
C738 N737 1.328 . S
C738 C739 1.457 . S
C738 H743 0.929 . S
C739 C738 1.457 . S
C739 C740 1.291 . S
C739 H752 0.931 . S
C740 C739 1.291 . S
C740 C741 1.373 . S
C740 H753 0.929 . S
C741 C740 1.373 . S
C741 C742 1.396 . S
C741 C748 1.403 . S
C742 C732 1.476 . S
C742 N737 1.318 . S
C742 C741 1.396 . S
H743 C738 0.929 . S
O744 Mn720 2.385 . S
O744 C722 1.234 . S
O745 Mn720 2.209 . S
O745 Mn721 2.215 . S
O745 C722 1.283 . S
O746 Mn720 2.094 . S
O746 C724 1.240 . S
O747 Mn721 2.117 . S
O747 C724 1.264 . S
C748 C741 1.403 . S
C748 C749 1.399 . S
C748 H754 0.929 . S
C749 C729 1.449 . S
C749 C748 1.399 . S
C749 H755 0.930 . S
H750 C730 0.931 . S
H751 C731 0.930 . S
H752 C739 0.931 . S
H753 C740 0.929 . S
H754 C748 0.929 . S
H755 C749 0.930 . S
Mn756 O761 2.095 . S
Mn756 O771 2.162 . S
Mn756 O772 2.297 . S
Mn756 O780 2.385 . S
Mn756 O781 2.209 . S
Mn756 O782 2.094 . S
Mn757 O762 2.121 . S
Mn757 N764 2.257 . S
Mn757 N773 2.282 . S
Mn757 O781 2.215 . S
Mn757 O783 2.117 . S
C758 O780 1.234 . S
C758 O781 1.283 . S
C759 O771 1.281 . S
C759 O772 1.236 . S
C760 O782 1.240 . S
C760 O783 1.264 . S
O761 Mn756 2.095 . S
O761 C770 1.250 . S
O762 Mn757 2.121 . S
O762 C770 1.258 . S
C763 N764 1.326 . S
C763 C767 1.460 . S
C763 H769 0.929 . S
N764 Mn757 2.257 . S
N764 C763 1.326 . S
N764 C768 1.362 . S
C765 C766 1.258 . S
C765 C768 1.431 . S
C765 C785 1.449 . S
C766 C765 1.258 . S
C766 C767 1.477 . S
C766 H786 0.931 . S
C767 C763 1.460 . S
C767 C766 1.477 . S
C767 H787 0.930 . S
C768 N764 1.362 . S
C768 C765 1.431 . S
C768 C778 1.476 . S
H769 C763 0.929 . S
C770 O761 1.250 . S
C770 O762 1.258 . S
O771 Mn756 2.162 . S
O771 C759 1.281 . S
O772 Mn756 2.297 . S
O772 C759 1.236 . S
N773 Mn757 2.282 . S
N773 C774 1.328 . S
N773 C778 1.318 . S
C774 N773 1.328 . S
C774 C775 1.457 . S
C774 H779 0.929 . S
C775 C774 1.457 . S
C775 C776 1.291 . S
C775 H788 0.931 . S
C776 C775 1.291 . S
C776 C777 1.373 . S
C776 H789 0.929 . S
C777 C776 1.373 . S
C777 C778 1.396 . S
C777 C784 1.403 . S
C778 C768 1.476 . S
C778 N773 1.318 . S
C778 C777 1.396 . S
H779 C774 0.929 . S
O780 Mn756 2.385 . S
O780 C758 1.234 . S
O781 Mn756 2.209 . S
O781 Mn757 2.215 . S
O781 C758 1.283 . S
O782 Mn756 2.094 . S
O782 C760 1.240 . S
O783 Mn757 2.117 . S
O783 C760 1.264 . S
C784 C777 1.403 . S
C784 C785 1.399 . S
C784 H790 0.929 . S
C785 C765 1.449 . S
C785 C784 1.399 . S
C785 H791 0.930 . S
H786 C766 0.931 . S
H787 C767 0.930 . S
H788 C775 0.931 . S
H789 C776 0.929 . S
H790 C784 0.929 . S
H791 C785 0.930 . S
Mn792 O797 2.095 . S
Mn792 O807 2.162 . S
Mn792 O808 2.297 . S
Mn792 O816 2.385 . S
Mn792 O817 2.209 . S
Mn792 O818 2.094 . S
Mn793 O798 2.121 . S
Mn793 N800 2.257 . S
Mn793 N809 2.282 . S
Mn793 O817 2.215 . S
Mn793 O819 2.117 . S
C794 O816 1.234 . S
C794 O817 1.283 . S
C795 O807 1.281 . S
C795 O808 1.236 . S
C796 O818 1.240 . S
C796 O819 1.264 . S
O797 Mn792 2.095 . S
O797 C806 1.250 . S
O798 Mn793 2.121 . S
O798 C806 1.258 . S
C799 N800 1.326 . S
C799 C803 1.460 . S
C799 H805 0.929 . S
N800 Mn793 2.257 . S
N800 C799 1.326 . S
N800 C804 1.362 . S
C801 C802 1.258 . S
C801 C804 1.431 . S
C801 C821 1.449 . S
C802 C801 1.258 . S
C802 C803 1.477 . S
C802 H822 0.931 . S
C803 C799 1.460 . S
C803 C802 1.477 . S
C803 H823 0.930 . S
C804 N800 1.362 . S
C804 C801 1.431 . S
C804 C814 1.476 . S
H805 C799 0.929 . S
C806 O797 1.250 . S
C806 O798 1.258 . S
O807 Mn792 2.162 . S
O807 C795 1.281 . S
O808 Mn792 2.297 . S
O808 C795 1.236 . S
N809 Mn793 2.282 . S
N809 C810 1.328 . S
N809 C814 1.318 . S
C810 N809 1.328 . S
C810 C811 1.457 . S
C810 H815 0.929 . S
C811 C810 1.457 . S
C811 C812 1.291 . S
C811 H824 0.931 . S
C812 C811 1.291 . S
C812 C813 1.373 . S
C812 H825 0.929 . S
C813 C812 1.373 . S
C813 C814 1.396 . S
C813 C820 1.403 . S
C814 C804 1.476 . S
C814 N809 1.318 . S
C814 C813 1.396 . S
H815 C810 0.929 . S
O816 Mn792 2.385 . S
O816 C794 1.234 . S
O817 Mn792 2.209 . S
O817 Mn793 2.215 . S
O817 C794 1.283 . S
O818 Mn792 2.094 . S
O818 C796 1.240 . S
O819 Mn793 2.117 . S
O819 C796 1.264 . S
C820 C813 1.403 . S
C820 C821 1.399 . S
C820 H826 0.929 . S
C821 C801 1.449 . S
C821 C820 1.399 . S
C821 H827 0.930 . S
H822 C802 0.931 . S
H823 C803 0.930 . S
H824 C811 0.931 . S
H825 C812 0.929 . S
H826 C820 0.929 . S
H827 C821 0.930 . S
Mn828 O833 2.095 . S
Mn828 O843 2.162 1_655 S
Mn828 O844 2.297 . S
Mn828 O852 2.385 . S
Mn828 O853 2.209 . S
Mn828 O854 2.094 . S
Mn829 O834 2.121 . S
Mn829 N836 2.257 . S
Mn829 N845 2.282 . S
Mn829 O853 2.215 . S
Mn829 O855 2.117 . S
C830 O852 1.234 . S
C830 O853 1.283 . S
C831 O843 1.281 . S
C831 O844 1.236 1_455 S
C832 O854 1.240 . S
C832 O855 1.264 . S
O833 Mn828 2.095 . S
O833 C842 1.250 . S
O834 Mn829 2.121 . S
O834 C842 1.258 . S
C835 N836 1.326 . S
C835 C839 1.460 . S
C835 H841 0.929 . S
N836 Mn829 2.257 . S
N836 C835 1.326 . S
N836 C840 1.362 . S
C837 C838 1.258 . S
C837 C840 1.431 . S
C837 C857 1.449 . S
C838 C837 1.258 . S
C838 C839 1.477 . S
C838 H858 0.931 . S
C839 C835 1.460 . S
C839 C838 1.477 . S
C839 H859 0.930 . S
C840 N836 1.362 . S
C840 C837 1.431 . S
C840 C850 1.476 . S
H841 C835 0.929 . S
C842 O833 1.250 . S
C842 O834 1.258 . S
O843 Mn828 2.162 1_455 S
O843 C831 1.281 . S
O844 Mn828 2.297 . S
O844 C831 1.236 1_655 S
N845 Mn829 2.282 . S
N845 C846 1.328 . S
N845 C850 1.318 . S
C846 N845 1.328 . S
C846 C847 1.457 . S
C846 H851 0.929 . S
C847 C846 1.457 . S
C847 C848 1.291 . S
C847 H860 0.931 . S
C848 C847 1.291 . S
C848 C849 1.373 . S
C848 H861 0.929 . S
C849 C848 1.373 . S
C849 C850 1.396 . S
C849 C856 1.403 . S
C850 C840 1.476 . S
C850 N845 1.318 . S
C850 C849 1.396 . S
H851 C846 0.929 . S
O852 Mn828 2.385 . S
O852 C830 1.234 . S
O853 Mn828 2.209 . S
O853 Mn829 2.215 . S
O853 C830 1.283 . S
O854 Mn828 2.094 . S
O854 C832 1.240 . S
O855 Mn829 2.117 . S
O855 C832 1.264 . S
C856 C849 1.403 . S
C856 C857 1.399 . S
C856 H862 0.929 . S
C857 C837 1.449 . S
C857 C856 1.399 . S
C857 H863 0.930 . S
H858 C838 0.931 . S
H859 C839 0.930 . S
H860 C847 0.931 . S
H861 C848 0.929 . S
H862 C856 0.929 . S
H863 C857 0.930 . S
Mn864 O869 2.095 . S
Mn864 O879 2.162 1_565 S
Mn864 O880 2.297 . S
Mn864 O888 2.385 . S
Mn864 O889 2.209 . S
Mn864 O890 2.094 . S
Mn865 O870 2.121 . S
Mn865 N872 2.257 . S
Mn865 N881 2.282 . S
Mn865 O889 2.215 . S
Mn865 O891 2.117 . S
C866 O888 1.234 . S
C866 O889 1.283 . S
C867 O879 1.281 1_565 S
C867 O880 1.236 . S
C868 O890 1.240 . S
C868 O891 1.264 . S
O869 Mn864 2.095 . S
O869 C878 1.250 . S
O870 Mn865 2.121 . S
O870 C878 1.258 . S
C871 N872 1.326 . S
C871 C875 1.460 . S
C871 H877 0.929 . S
N872 Mn865 2.257 . S
N872 C871 1.326 . S
N872 C876 1.362 . S
C873 C874 1.258 . S
C873 C876 1.431 . S
C873 C893 1.449 . S
C874 C873 1.258 . S
C874 C875 1.477 . S
C874 H894 0.931 . S
C875 C871 1.460 . S
C875 C874 1.477 . S
C875 H895 0.930 . S
C876 N872 1.362 . S
C876 C873 1.431 . S
C876 C886 1.476 . S
H877 C871 0.929 . S
C878 O869 1.250 . S
C878 O870 1.258 . S
O879 Mn864 2.162 1_545 S
O879 C867 1.281 1_545 S
O880 Mn864 2.297 . S
O880 C867 1.236 . S
N881 Mn865 2.282 . S
N881 C882 1.328 . S
N881 C886 1.318 . S
C882 N881 1.328 . S
C882 C883 1.457 . S
C882 H887 0.929 . S
C883 C882 1.457 . S
C883 C884 1.291 . S
C883 H896 0.931 . S
C884 C883 1.291 . S
C884 C885 1.373 . S
C884 H897 0.929 . S
C885 C884 1.373 . S
C885 C886 1.396 . S
C885 C892 1.403 . S
C886 C876 1.476 . S
C886 N881 1.318 . S
C886 C885 1.396 . S
H887 C882 0.929 . S
O888 Mn864 2.385 . S
O888 C866 1.234 . S
O889 Mn864 2.209 . S
O889 Mn865 2.215 . S
O889 C866 1.283 . S
O890 Mn864 2.094 . S
O890 C868 1.240 . S
O891 Mn865 2.117 . S
O891 C868 1.264 . S
C892 C885 1.403 . S
C892 C893 1.399 . S
C892 H898 0.929 . S
C893 C873 1.449 . S
C893 C892 1.399 . S
C893 H899 0.930 . S
H894 C874 0.931 . S
H895 C875 0.930 . S
H896 C883 0.931 . S
H897 C884 0.929 . S
H898 C892 0.929 . S
H899 C893 0.930 . S
Mn900 O905 2.095 . S
Mn900 O915 2.162 . S
Mn900 O916 2.297 . S
Mn900 O924 2.385 . S
Mn900 O925 2.209 . S
Mn900 O926 2.094 . S
Mn901 O906 2.121 . S
Mn901 N908 2.257 . S
Mn901 N917 2.282 . S
Mn901 O925 2.215 . S
Mn901 O927 2.117 . S
C902 O924 1.234 . S
C902 O925 1.283 . S
C903 O915 1.281 . S
C903 O916 1.236 . S
C904 O926 1.240 . S
C904 O927 1.264 . S
O905 Mn900 2.095 . S
O905 C914 1.250 . S
O906 Mn901 2.121 . S
O906 C914 1.258 . S
C907 N908 1.326 . S
C907 C911 1.460 . S
C907 H913 0.929 . S
N908 Mn901 2.257 . S
N908 C907 1.326 . S
N908 C912 1.362 . S
C909 C910 1.258 . S
C909 C912 1.431 . S
C909 C929 1.449 . S
C910 C909 1.258 . S
C910 C911 1.477 . S
C910 H930 0.931 . S
C911 C907 1.460 . S
C911 C910 1.477 . S
C911 H931 0.930 . S
C912 N908 1.362 . S
C912 C909 1.431 . S
C912 C922 1.476 . S
H913 C907 0.929 . S
C914 O905 1.250 . S
C914 O906 1.258 . S
O915 Mn900 2.162 . S
O915 C903 1.281 . S
O916 Mn900 2.297 . S
O916 C903 1.236 . S
N917 Mn901 2.282 . S
N917 C918 1.328 . S
N917 C922 1.318 . S
C918 N917 1.328 . S
C918 C919 1.457 . S
C918 H923 0.929 . S
C919 C918 1.457 . S
C919 C920 1.291 . S
C919 H932 0.931 . S
C920 C919 1.291 . S
C920 C921 1.373 . S
C920 H933 0.929 . S
C921 C920 1.373 . S
C921 C922 1.396 . S
C921 C928 1.403 . S
C922 C912 1.476 . S
C922 N917 1.318 . S
C922 C921 1.396 . S
H923 C918 0.929 . S
O924 Mn900 2.385 . S
O924 C902 1.234 . S
O925 Mn900 2.209 . S
O925 Mn901 2.215 . S
O925 C902 1.283 . S
O926 Mn900 2.094 . S
O926 C904 1.240 . S
O927 Mn901 2.117 . S
O927 C904 1.264 . S
C928 C921 1.403 . S
C928 C929 1.399 . S
C928 H934 0.929 . S
C929 C909 1.449 . S
C929 C928 1.399 . S
C929 H935 0.930 . S
H930 C910 0.931 . S
H931 C911 0.930 . S
H932 C919 0.931 . S
H933 C920 0.929 . S
H934 C928 0.929 . S
H935 C929 0.930 . S
Mn936 O941 2.095 . S
Mn936 O951 2.162 . S
Mn936 O952 2.297 . S
Mn936 O960 2.385 . S
Mn936 O961 2.209 . S
Mn936 O962 2.094 . S
Mn937 O942 2.121 . S
Mn937 N944 2.257 . S
Mn937 N953 2.282 . S
Mn937 O961 2.215 . S
Mn937 O963 2.117 . S
C938 O960 1.234 . S
C938 O961 1.283 . S
C939 O951 1.281 . S
C939 O952 1.236 . S
C940 O962 1.240 . S
C940 O963 1.264 . S
O941 Mn936 2.095 . S
O941 C950 1.250 . S
O942 Mn937 2.121 . S
O942 C950 1.258 . S
C943 N944 1.326 . S
C943 C947 1.460 . S
C943 H949 0.929 . S
N944 Mn937 2.257 . S
N944 C943 1.326 . S
N944 C948 1.362 . S
C945 C946 1.258 . S
C945 C948 1.431 . S
C945 C965 1.449 . S
C946 C945 1.258 . S
C946 C947 1.477 . S
C946 H966 0.931 . S
C947 C943 1.460 . S
C947 C946 1.477 . S
C947 H967 0.930 . S
C948 N944 1.362 . S
C948 C945 1.431 . S
C948 C958 1.476 . S
H949 C943 0.929 . S
C950 O941 1.250 . S
C950 O942 1.258 . S
O951 Mn936 2.162 . S
O951 C939 1.281 . S
O952 Mn936 2.297 . S
O952 C939 1.236 . S
N953 Mn937 2.282 . S
N953 C954 1.328 . S
N953 C958 1.318 . S
C954 N953 1.328 . S
C954 C955 1.457 . S
C954 H959 0.929 . S
C955 C954 1.457 . S
C955 C956 1.291 . S
C955 H968 0.931 . S
C956 C955 1.291 . S
C956 C957 1.373 . S
C956 H969 0.929 . S
C957 C956 1.373 . S
C957 C958 1.396 . S
C957 C964 1.403 . S
C958 C948 1.476 . S
C958 N953 1.318 . S
C958 C957 1.396 . S
H959 C954 0.929 . S
O960 Mn936 2.385 . S
O960 C938 1.234 . S
O961 Mn936 2.209 . S
O961 Mn937 2.215 . S
O961 C938 1.283 . S
O962 Mn936 2.094 . S
O962 C940 1.240 . S
O963 Mn937 2.117 . S
O963 C940 1.264 . S
C964 C957 1.403 . S
C964 C965 1.399 . S
C964 H970 0.929 . S
C965 C945 1.449 . S
C965 C964 1.399 . S
C965 H971 0.930 . S
H966 C946 0.931 . S
H967 C947 0.930 . S
H968 C955 0.931 . S
H969 C956 0.929 . S
H970 C964 0.929 . S
H971 C965 0.930 . S
Mn972 O977 2.095 . S
Mn972 O987 2.162 . S
Mn972 O988 2.297 . S
Mn972 O996 2.385 . S
Mn972 O997 2.209 . S
Mn972 O998 2.094 . S
Mn973 O978 2.121 . S
Mn973 N980 2.257 . S
Mn973 N989 2.282 . S
Mn973 O997 2.215 . S
Mn973 O999 2.117 . S
C974 O996 1.234 . S
C974 O997 1.283 . S
C975 O987 1.281 . S
C975 O988 1.236 . S
C976 O998 1.240 . S
C976 O999 1.264 . S
O977 Mn972 2.095 . S
O977 C986 1.250 . S
O978 Mn973 2.121 . S
O978 C986 1.258 . S
C979 N980 1.326 . S
C979 C983 1.460 . S
C979 H985 0.929 . S
N980 Mn973 2.257 . S
N980 C979 1.326 . S
N980 C984 1.362 . S
C981 C982 1.258 . S
C981 C984 1.431 . S
C981 C1001 1.449 . S
C982 C981 1.258 . S
C982 C983 1.477 . S
C982 H1002 0.931 . S
C983 C979 1.460 . S
C983 C982 1.477 . S
C983 H1003 0.930 . S
C984 N980 1.362 . S
C984 C981 1.431 . S
C984 C994 1.476 . S
H985 C979 0.929 . S
C986 O977 1.250 . S
C986 O978 1.258 . S
O987 Mn972 2.162 . S
O987 C975 1.281 . S
O988 Mn972 2.297 . S
O988 C975 1.236 . S
N989 Mn973 2.282 . S
N989 C990 1.328 . S
N989 C994 1.318 . S
C990 N989 1.328 . S
C990 C991 1.457 . S
C990 H995 0.929 . S
C991 C990 1.457 . S
C991 C992 1.291 . S
C991 H1004 0.931 . S
C992 C991 1.291 . S
C992 C993 1.373 . S
C992 H1005 0.929 . S
C993 C992 1.373 . S
C993 C994 1.396 . S
C993 C1000 1.403 . S
C994 C984 1.476 . S
C994 N989 1.318 . S
C994 C993 1.396 . S
H995 C990 0.929 . S
O996 Mn972 2.385 . S
O996 C974 1.234 . S
O997 Mn972 2.209 . S
O997 Mn973 2.215 . S
O997 C974 1.283 . S
O998 Mn972 2.094 . S
O998 C976 1.240 . S
O999 Mn973 2.117 . S
O999 C976 1.264 . S
C1000 C993 1.403 . S
C1000 C1001 1.399 . S
C1000 H1006 0.929 . S
C1001 C981 1.449 . S
C1001 C1000 1.399 . S
C1001 H1007 0.930 . S
H1002 C982 0.931 . S
H1003 C983 0.930 . S
H1004 C991 0.931 . S
H1005 C992 0.929 . S
H1006 C1000 0.929 . S
H1007 C1001 0.930 . S
Mn1008 O1013 2.095 . S
Mn1008 O1023 2.162 1_565 S
Mn1008 O1024 2.297 . S
Mn1008 O1032 2.385 . S
Mn1008 O1033 2.209 . S
Mn1008 O1034 2.094 . S
Mn1009 O1014 2.121 . S
Mn1009 N1016 2.257 . S
Mn1009 N1025 2.282 . S
Mn1009 O1033 2.215 . S
Mn1009 O1035 2.117 . S
C1010 O1032 1.234 . S
C1010 O1033 1.283 . S
C1011 O1023 1.281 . S
C1011 O1024 1.236 1_545 S
C1012 O1034 1.240 . S
C1012 O1035 1.264 . S
O1013 Mn1008 2.095 . S
O1013 C1022 1.250 . S
O1014 Mn1009 2.121 . S
O1014 C1022 1.258 . S
C1015 N1016 1.326 . S
C1015 C1019 1.460 . S
C1015 H1021 0.929 . S
N1016 Mn1009 2.257 . S
N1016 C1015 1.326 . S
N1016 C1020 1.362 . S
C1017 C1018 1.258 . S
C1017 C1020 1.431 . S
C1017 C1037 1.449 . S
C1018 C1017 1.258 . S
C1018 C1019 1.477 . S
C1018 H1038 0.931 . S
C1019 C1015 1.460 . S
C1019 C1018 1.477 . S
C1019 H1039 0.930 . S
C1020 N1016 1.362 . S
C1020 C1017 1.431 . S
C1020 C1030 1.476 . S
H1021 C1015 0.929 . S
C1022 O1013 1.250 . S
C1022 O1014 1.258 . S
O1023 Mn1008 2.162 1_545 S
O1023 C1011 1.281 . S
O1024 Mn1008 2.297 . S
O1024 C1011 1.236 1_565 S
N1025 Mn1009 2.282 . S
N1025 C1026 1.328 . S
N1025 C1030 1.318 . S
C1026 N1025 1.328 . S
C1026 C1027 1.457 . S
C1026 H1031 0.929 . S
C1027 C1026 1.457 . S
C1027 C1028 1.291 . S
C1027 H1040 0.931 . S
C1028 C1027 1.291 . S
C1028 C1029 1.373 . S
C1028 H1041 0.929 . S
C1029 C1028 1.373 . S
C1029 C1030 1.396 . S
C1029 C1036 1.403 . S
C1030 C1020 1.476 . S
C1030 N1025 1.318 . S
C1030 C1029 1.396 . S
H1031 C1026 0.929 . S
O1032 Mn1008 2.385 . S
O1032 C1010 1.234 . S
O1033 Mn1008 2.209 . S
O1033 Mn1009 2.215 . S
O1033 C1010 1.283 . S
O1034 Mn1008 2.094 . S
O1034 C1012 1.240 . S
O1035 Mn1009 2.117 . S
O1035 C1012 1.264 . S
C1036 C1029 1.403 . S
C1036 C1037 1.399 . S
C1036 H1042 0.929 . S
C1037 C1017 1.449 . S
C1037 C1036 1.399 . S
C1037 H1043 0.930 . S
H1038 C1018 0.931 . S
H1039 C1019 0.930 . S
H1040 C1027 0.931 . S
H1041 C1028 0.929 . S
H1042 C1036 0.929 . S
H1043 C1037 0.930 . S
Mn1044 O1049 2.095 . S
Mn1044 O1059 2.162 . S
Mn1044 O1060 2.297 . S
Mn1044 O1068 2.385 . S
Mn1044 O1069 2.209 . S
Mn1044 O1070 2.094 . S
Mn1045 O1050 2.121 . S
Mn1045 N1052 2.257 . S
Mn1045 N1061 2.282 . S
Mn1045 O1069 2.215 . S
Mn1045 O1071 2.117 . S
C1046 O1068 1.234 . S
C1046 O1069 1.283 . S
C1047 O1059 1.281 . S
C1047 O1060 1.236 . S
C1048 O1070 1.240 . S
C1048 O1071 1.264 . S
O1049 Mn1044 2.095 . S
O1049 C1058 1.250 . S
O1050 Mn1045 2.121 . S
O1050 C1058 1.258 . S
C1051 N1052 1.326 . S
C1051 C1055 1.460 . S
C1051 H1057 0.929 . S
N1052 Mn1045 2.257 . S
N1052 C1051 1.326 . S
N1052 C1056 1.362 . S
C1053 C1054 1.258 . S
C1053 C1056 1.431 . S
C1053 C1073 1.449 . S
C1054 C1053 1.258 . S
C1054 C1055 1.477 . S
C1054 H1074 0.931 . S
C1055 C1051 1.460 . S
C1055 C1054 1.477 . S
C1055 H1075 0.930 . S
C1056 N1052 1.362 . S
C1056 C1053 1.431 . S
C1056 C1066 1.476 . S
H1057 C1051 0.929 . S
C1058 O1049 1.250 . S
C1058 O1050 1.258 . S
O1059 Mn1044 2.162 . S
O1059 C1047 1.281 . S
O1060 Mn1044 2.297 . S
O1060 C1047 1.236 . S
N1061 Mn1045 2.282 . S
N1061 C1062 1.328 . S
N1061 C1066 1.318 . S
C1062 N1061 1.328 . S
C1062 C1063 1.457 . S
C1062 H1067 0.929 . S
C1063 C1062 1.457 . S
C1063 C1064 1.291 . S
C1063 H1076 0.931 . S
C1064 C1063 1.291 . S
C1064 C1065 1.373 . S
C1064 H1077 0.929 . S
C1065 C1064 1.373 . S
C1065 C1066 1.396 . S
C1065 C1072 1.403 . S
C1066 C1056 1.476 . S
C1066 N1061 1.318 . S
C1066 C1065 1.396 . S
H1067 C1062 0.929 . S
O1068 Mn1044 2.385 . S
O1068 C1046 1.234 . S
O1069 Mn1044 2.209 . S
O1069 Mn1045 2.215 . S
O1069 C1046 1.283 . S
O1070 Mn1044 2.094 . S
O1070 C1048 1.240 . S
O1071 Mn1045 2.117 . S
O1071 C1048 1.264 . S
C1072 C1065 1.403 . S
C1072 C1073 1.399 . S
C1072 H1078 0.929 . S
C1073 C1053 1.449 . S
C1073 C1072 1.399 . S
C1073 H1079 0.930 . S
H1074 C1054 0.931 . S
H1075 C1055 0.930 . S
H1076 C1063 0.931 . S
H1077 C1064 0.929 . S
H1078 C1072 0.929 . S
H1079 C1073 0.930 . S
Mn1080 O1085 2.095 . S
Mn1080 O1095 2.162 . S
Mn1080 O1096 2.297 . S
Mn1080 O1104 2.385 . S
Mn1080 O1105 2.209 . S
Mn1080 O1106 2.094 . S
Mn1081 O1086 2.121 . S
Mn1081 N1088 2.257 . S
Mn1081 N1097 2.282 . S
Mn1081 O1105 2.215 . S
Mn1081 O1107 2.117 . S
C1082 O1104 1.234 . S
C1082 O1105 1.283 . S
C1083 O1095 1.281 . S
C1083 O1096 1.236 . S
C1084 O1106 1.240 . S
C1084 O1107 1.264 . S
O1085 Mn1080 2.095 . S
O1085 C1094 1.250 . S
O1086 Mn1081 2.121 . S
O1086 C1094 1.258 . S
C1087 N1088 1.326 . S
C1087 C1091 1.460 . S
C1087 H1093 0.929 . S
N1088 Mn1081 2.257 . S
N1088 C1087 1.326 . S
N1088 C1092 1.362 . S
C1089 C1090 1.258 . S
C1089 C1092 1.431 . S
C1089 C1109 1.449 . S
C1090 C1089 1.258 . S
C1090 C1091 1.477 . S
C1090 H1110 0.931 . S
C1091 C1087 1.460 . S
C1091 C1090 1.477 . S
C1091 H1111 0.930 . S
C1092 N1088 1.362 . S
C1092 C1089 1.431 . S
C1092 C1102 1.476 . S
H1093 C1087 0.929 . S
C1094 O1085 1.250 . S
C1094 O1086 1.258 . S
O1095 Mn1080 2.162 . S
O1095 C1083 1.281 . S
O1096 Mn1080 2.297 . S
O1096 C1083 1.236 . S
N1097 Mn1081 2.282 . S
N1097 C1098 1.328 . S
N1097 C1102 1.318 . S
C1098 N1097 1.328 . S
C1098 C1099 1.457 . S
C1098 H1103 0.929 . S
C1099 C1098 1.457 . S
C1099 C1100 1.291 . S
C1099 H1112 0.931 . S
C1100 C1099 1.291 . S
C1100 C1101 1.373 . S
C1100 H1113 0.929 . S
C1101 C1100 1.373 . S
C1101 C1102 1.396 . S
C1101 C1108 1.403 . S
C1102 C1092 1.476 . S
C1102 N1097 1.318 . S
C1102 C1101 1.396 . S
H1103 C1098 0.929 . S
O1104 Mn1080 2.385 . S
O1104 C1082 1.234 . S
O1105 Mn1080 2.209 . S
O1105 Mn1081 2.215 . S
O1105 C1082 1.283 . S
O1106 Mn1080 2.094 . S
O1106 C1084 1.240 . S
O1107 Mn1081 2.117 . S
O1107 C1084 1.264 . S
C1108 C1101 1.403 . S
C1108 C1109 1.399 . S
C1108 H1114 0.929 . S
C1109 C1089 1.449 . S
C1109 C1108 1.399 . S
C1109 H1115 0.930 . S
H1110 C1090 0.931 . S
H1111 C1091 0.930 . S
H1112 C1099 0.931 . S
H1113 C1100 0.929 . S
H1114 C1108 0.929 . S
H1115 C1109 0.930 . S
Mn1116 O1121 2.095 . S
Mn1116 O1131 2.162 1_565 S
Mn1116 O1132 2.297 . S
Mn1116 O1140 2.385 . S
Mn1116 O1141 2.209 . S
Mn1116 O1142 2.094 . S
Mn1117 O1122 2.121 . S
Mn1117 N1124 2.257 . S
Mn1117 N1133 2.282 . S
Mn1117 O1141 2.215 . S
Mn1117 O1143 2.117 . S
C1118 O1140 1.234 . S
C1118 O1141 1.283 . S
C1119 O1131 1.281 . S
C1119 O1132 1.236 1_545 S
C1120 O1142 1.240 . S
C1120 O1143 1.264 . S
O1121 Mn1116 2.095 . S
O1121 C1130 1.250 . S
O1122 Mn1117 2.121 . S
O1122 C1130 1.258 . S
C1123 N1124 1.326 . S
C1123 C1127 1.460 . S
C1123 H1129 0.929 . S
N1124 Mn1117 2.257 . S
N1124 C1123 1.326 . S
N1124 C1128 1.362 . S
C1125 C1126 1.258 . S
C1125 C1128 1.431 . S
C1125 C1145 1.449 . S
C1126 C1125 1.258 . S
C1126 C1127 1.477 . S
C1126 H1146 0.931 . S
C1127 C1123 1.460 . S
C1127 C1126 1.477 . S
C1127 H1147 0.930 . S
C1128 N1124 1.362 . S
C1128 C1125 1.431 . S
C1128 C1138 1.476 . S
H1129 C1123 0.929 . S
C1130 O1121 1.250 . S
C1130 O1122 1.258 . S
O1131 Mn1116 2.162 1_545 S
O1131 C1119 1.281 . S
O1132 Mn1116 2.297 . S
O1132 C1119 1.236 1_565 S
N1133 Mn1117 2.282 . S
N1133 C1134 1.328 . S
N1133 C1138 1.318 . S
C1134 N1133 1.328 . S
C1134 C1135 1.457 . S
C1134 H1139 0.929 . S
C1135 C1134 1.457 . S
C1135 C1136 1.291 . S
C1135 H1148 0.931 . S
C1136 C1135 1.291 . S
C1136 C1137 1.373 . S
C1136 H1149 0.929 . S
C1137 C1136 1.373 . S
C1137 C1138 1.396 . S
C1137 C1144 1.403 . S
C1138 C1128 1.476 . S
C1138 N1133 1.318 . S
C1138 C1137 1.396 . S
H1139 C1134 0.929 . S
O1140 Mn1116 2.385 . S
O1140 C1118 1.234 . S
O1141 Mn1116 2.209 . S
O1141 Mn1117 2.215 . S
O1141 C1118 1.283 . S
O1142 Mn1116 2.094 . S
O1142 C1120 1.240 . S
O1143 Mn1117 2.117 . S
O1143 C1120 1.264 . S
C1144 C1137 1.403 . S
C1144 C1145 1.399 . S
C1144 H1150 0.929 . S
C1145 C1125 1.449 . S
C1145 C1144 1.399 . S
C1145 H1151 0.930 . S
H1146 C1126 0.931 . S
H1147 C1127 0.930 . S
H1148 C1135 0.931 . S
H1149 C1136 0.929 . S
H1150 C1144 0.929 . S
H1151 C1145 0.930 . S
Mn1152 O1157 2.095 . S
Mn1152 O1167 2.162 . S
Mn1152 O1168 2.297 . S
Mn1152 O1176 2.385 . S
Mn1152 O1177 2.209 . S
Mn1152 O1178 2.094 . S
Mn1153 O1158 2.121 . S
Mn1153 N1160 2.257 . S
Mn1153 N1169 2.282 . S
Mn1153 O1177 2.215 . S
Mn1153 O1179 2.117 . S
C1154 O1176 1.234 . S
C1154 O1177 1.283 . S
C1155 O1167 1.281 . S
C1155 O1168 1.236 . S
C1156 O1178 1.240 . S
C1156 O1179 1.264 . S
O1157 Mn1152 2.095 . S
O1157 C1166 1.250 . S
O1158 Mn1153 2.121 . S
O1158 C1166 1.258 . S
C1159 N1160 1.326 . S
C1159 C1163 1.460 . S
C1159 H1165 0.929 . S
N1160 Mn1153 2.257 . S
N1160 C1159 1.326 . S
N1160 C1164 1.362 . S
C1161 C1162 1.258 . S
C1161 C1164 1.431 . S
C1161 C1181 1.449 . S
C1162 C1161 1.258 . S
C1162 C1163 1.477 . S
C1162 H1182 0.931 . S
C1163 C1159 1.460 . S
C1163 C1162 1.477 . S
C1163 H1183 0.930 . S
C1164 N1160 1.362 . S
C1164 C1161 1.431 . S
C1164 C1174 1.476 . S
H1165 C1159 0.929 . S
C1166 O1157 1.250 . S
C1166 O1158 1.258 . S
O1167 Mn1152 2.162 . S
O1167 C1155 1.281 . S
O1168 Mn1152 2.297 . S
O1168 C1155 1.236 . S
N1169 Mn1153 2.282 . S
N1169 C1170 1.328 . S
N1169 C1174 1.318 . S
C1170 N1169 1.328 . S
C1170 C1171 1.457 . S
C1170 H1175 0.929 . S
C1171 C1170 1.457 . S
C1171 C1172 1.291 . S
C1171 H1184 0.931 . S
C1172 C1171 1.291 . S
C1172 C1173 1.373 . S
C1172 H1185 0.929 . S
C1173 C1172 1.373 . S
C1173 C1174 1.396 . S
C1173 C1180 1.403 . S
C1174 C1164 1.476 . S
C1174 N1169 1.318 . S
C1174 C1173 1.396 . S
H1175 C1170 0.929 . S
O1176 Mn1152 2.385 . S
O1176 C1154 1.234 . S
O1177 Mn1152 2.209 . S
O1177 Mn1153 2.215 . S
O1177 C1154 1.283 . S
O1178 Mn1152 2.094 . S
O1178 C1156 1.240 . S
O1179 Mn1153 2.117 . S
O1179 C1156 1.264 . S
C1180 C1173 1.403 . S
C1180 C1181 1.399 . S
C1180 H1186 0.929 . S
C1181 C1161 1.449 . S
C1181 C1180 1.399 . S
C1181 H1187 0.930 . S
H1182 C1162 0.931 . S
H1183 C1163 0.930 . S
H1184 C1171 0.931 . S
H1185 C1172 0.929 . S
H1186 C1180 0.929 . S
H1187 C1181 0.930 . S
Mn1188 O1193 2.095 . S
Mn1188 O1203 2.162 . S
Mn1188 O1204 2.297 . S
Mn1188 O1212 2.385 . S
Mn1188 O1213 2.209 . S
Mn1188 O1214 2.094 . S
Mn1189 O1194 2.121 . S
Mn1189 N1196 2.257 . S
Mn1189 N1205 2.282 . S
Mn1189 O1213 2.215 . S
Mn1189 O1215 2.117 . S
C1190 O1212 1.234 . S
C1190 O1213 1.283 . S
C1191 O1203 1.281 . S
C1191 O1204 1.236 . S
C1192 O1214 1.240 . S
C1192 O1215 1.264 . S
O1193 Mn1188 2.095 . S
O1193 C1202 1.250 . S
O1194 Mn1189 2.121 . S
O1194 C1202 1.258 . S
C1195 N1196 1.326 . S
C1195 C1199 1.460 . S
C1195 H1201 0.929 . S
N1196 Mn1189 2.257 . S
N1196 C1195 1.326 . S
N1196 C1200 1.362 . S
C1197 C1198 1.258 . S
C1197 C1200 1.431 . S
C1197 C1217 1.449 . S
C1198 C1197 1.258 . S
C1198 C1199 1.477 . S
C1198 H1218 0.931 . S
C1199 C1195 1.460 . S
C1199 C1198 1.477 . S
C1199 H1219 0.930 . S
C1200 N1196 1.362 . S
C1200 C1197 1.431 . S
C1200 C1210 1.476 . S
H1201 C1195 0.929 . S
C1202 O1193 1.250 . S
C1202 O1194 1.258 . S
O1203 Mn1188 2.162 . S
O1203 C1191 1.281 . S
O1204 Mn1188 2.297 . S
O1204 C1191 1.236 . S
N1205 Mn1189 2.282 . S
N1205 C1206 1.328 . S
N1205 C1210 1.318 . S
C1206 N1205 1.328 . S
C1206 C1207 1.457 . S
C1206 H1211 0.929 . S
C1207 C1206 1.457 . S
C1207 C1208 1.291 . S
C1207 H1220 0.931 . S
C1208 C1207 1.291 . S
C1208 C1209 1.373 . S
C1208 H1221 0.929 . S
C1209 C1208 1.373 . S
C1209 C1210 1.396 . S
C1209 C1216 1.403 . S
C1210 C1200 1.476 . S
C1210 N1205 1.318 . S
C1210 C1209 1.396 . S
H1211 C1206 0.929 . S
O1212 Mn1188 2.385 . S
O1212 C1190 1.234 . S
O1213 Mn1188 2.209 . S
O1213 Mn1189 2.215 . S
O1213 C1190 1.283 . S
O1214 Mn1188 2.094 . S
O1214 C1192 1.240 . S
O1215 Mn1189 2.117 . S
O1215 C1192 1.264 . S
C1216 C1209 1.403 . S
C1216 C1217 1.399 . S
C1216 H1222 0.929 . S
C1217 C1197 1.449 . S
C1217 C1216 1.399 . S
C1217 H1223 0.930 . S
H1218 C1198 0.931 . S
H1219 C1199 0.930 . S
H1220 C1207 0.931 . S
H1221 C1208 0.929 . S
H1222 C1216 0.929 . S
H1223 C1217 0.930 . S
Mn1224 O1229 2.095 . S
Mn1224 O1239 2.162 . S
Mn1224 O1240 2.297 . S
Mn1224 O1248 2.385 . S
Mn1224 O1249 2.209 . S
Mn1224 O1250 2.094 . S
Mn1225 O1230 2.121 . S
Mn1225 N1232 2.257 . S
Mn1225 N1241 2.282 . S
Mn1225 O1249 2.215 . S
Mn1225 O1251 2.117 . S
C1226 O1248 1.234 . S
C1226 O1249 1.283 . S
C1227 O1239 1.281 . S
C1227 O1240 1.236 . S
C1228 O1250 1.240 . S
C1228 O1251 1.264 . S
O1229 Mn1224 2.095 . S
O1229 C1238 1.250 . S
O1230 Mn1225 2.121 . S
O1230 C1238 1.258 . S
C1231 N1232 1.326 . S
C1231 C1235 1.460 . S
C1231 H1237 0.929 . S
N1232 Mn1225 2.257 . S
N1232 C1231 1.326 . S
N1232 C1236 1.362 . S
C1233 C1234 1.258 . S
C1233 C1236 1.431 . S
C1233 C1253 1.449 . S
C1234 C1233 1.258 . S
C1234 C1235 1.477 . S
C1234 H1254 0.931 . S
C1235 C1231 1.460 . S
C1235 C1234 1.477 . S
C1235 H1255 0.930 . S
C1236 N1232 1.362 . S
C1236 C1233 1.431 . S
C1236 C1246 1.476 . S
H1237 C1231 0.929 . S
C1238 O1229 1.250 . S
C1238 O1230 1.258 . S
O1239 Mn1224 2.162 . S
O1239 C1227 1.281 . S
O1240 Mn1224 2.297 . S
O1240 C1227 1.236 . S
N1241 Mn1225 2.282 . S
N1241 C1242 1.328 . S
N1241 C1246 1.318 . S
C1242 N1241 1.328 . S
C1242 C1243 1.457 . S
C1242 H1247 0.929 . S
C1243 C1242 1.457 . S
C1243 C1244 1.291 . S
C1243 H1256 0.931 . S
C1244 C1243 1.291 . S
C1244 C1245 1.373 . S
C1244 H1257 0.929 . S
C1245 C1244 1.373 . S
C1245 C1246 1.396 . S
C1245 C1252 1.403 . S
C1246 C1236 1.476 . S
C1246 N1241 1.318 . S
C1246 C1245 1.396 . S
H1247 C1242 0.929 . S
O1248 Mn1224 2.385 . S
O1248 C1226 1.234 . S
O1249 Mn1224 2.209 . S
O1249 Mn1225 2.215 . S
O1249 C1226 1.283 . S
O1250 Mn1224 2.094 . S
O1250 C1228 1.240 . S
O1251 Mn1225 2.117 . S
O1251 C1228 1.264 . S
C1252 C1245 1.403 . S
C1252 C1253 1.399 . S
C1252 H1258 0.929 . S
C1253 C1233 1.449 . S
C1253 C1252 1.399 . S
C1253 H1259 0.930 . S
H1254 C1234 0.931 . S
H1255 C1235 0.930 . S
H1256 C1243 0.931 . S
H1257 C1244 0.929 . S
H1258 C1252 0.929 . S
H1259 C1253 0.930 . S
Mn1260 O1265 2.095 . S
Mn1260 O1275 2.162 1_565 S
Mn1260 O1276 2.297 . S
Mn1260 O1284 2.385 . S
Mn1260 O1285 2.209 . S
Mn1260 O1286 2.094 . S
Mn1261 O1266 2.121 . S
Mn1261 N1268 2.257 . S
Mn1261 N1277 2.282 . S
Mn1261 O1285 2.215 . S
Mn1261 O1287 2.117 . S
C1262 O1284 1.234 . S
C1262 O1285 1.283 . S
C1263 O1275 1.281 1_565 S
C1263 O1276 1.236 . S
C1264 O1286 1.240 . S
C1264 O1287 1.264 . S
O1265 Mn1260 2.095 . S
O1265 C1274 1.250 . S
O1266 Mn1261 2.121 . S
O1266 C1274 1.258 . S
C1267 N1268 1.326 . S
C1267 C1271 1.460 . S
C1267 H1273 0.929 . S
N1268 Mn1261 2.257 . S
N1268 C1267 1.326 . S
N1268 C1272 1.362 . S
C1269 C1270 1.258 . S
C1269 C1272 1.431 . S
C1269 C1289 1.449 . S
C1270 C1269 1.258 . S
C1270 C1271 1.477 . S
C1270 H1290 0.931 . S
C1271 C1267 1.460 . S
C1271 C1270 1.477 . S
C1271 H1291 0.930 . S
C1272 N1268 1.362 . S
C1272 C1269 1.431 . S
C1272 C1282 1.476 . S
H1273 C1267 0.929 . S
C1274 O1265 1.250 . S
C1274 O1266 1.258 . S
O1275 Mn1260 2.162 1_545 S
O1275 C1263 1.281 1_545 S
O1276 Mn1260 2.297 . S
O1276 C1263 1.236 . S
N1277 Mn1261 2.282 . S
N1277 C1278 1.328 . S
N1277 C1282 1.318 . S
C1278 N1277 1.328 . S
C1278 C1279 1.457 . S
C1278 H1283 0.929 . S
C1279 C1278 1.457 . S
C1279 C1280 1.291 . S
C1279 H1292 0.931 . S
C1280 C1279 1.291 . S
C1280 C1281 1.373 . S
C1280 H1293 0.929 . S
C1281 C1280 1.373 . S
C1281 C1282 1.396 . S
C1281 C1288 1.403 . S
C1282 C1272 1.476 . S
C1282 N1277 1.318 . S
C1282 C1281 1.396 . S
H1283 C1278 0.929 . S
O1284 Mn1260 2.385 . S
O1284 C1262 1.234 . S
O1285 Mn1260 2.209 . S
O1285 Mn1261 2.215 . S
O1285 C1262 1.283 . S
O1286 Mn1260 2.094 . S
O1286 C1264 1.240 . S
O1287 Mn1261 2.117 . S
O1287 C1264 1.264 . S
C1288 C1281 1.403 . S
C1288 C1289 1.399 . S
C1288 H1294 0.929 . S
C1289 C1269 1.449 . S
C1289 C1288 1.399 . S
C1289 H1295 0.930 . S
H1290 C1270 0.931 . S
H1291 C1271 0.930 . S
H1292 C1279 0.931 . S
H1293 C1280 0.929 . S
H1294 C1288 0.929 . S
H1295 C1289 0.930 . S
H1296 C1302 0.930 . S
H1297 C1305 0.930 . S
H1298 C1306 0.930 . S
H1299 C1307 0.930 . S
H1300 C1310 0.930 . S
H1301 C1311 0.930 . S
C1302 H1296 0.930 . S
C1302 C1303 1.355 . S
C1302 C1304 1.415 . S
C1303 C1302 1.355 . S
C1303 C1305 1.419 . S
C1304 C1302 1.415 . S
C1304 C1309 1.425 . S
C1304 C1311 1.409 . S
C1305 H1297 0.930 . S
C1305 C1303 1.419 . S
C1305 C1306 1.362 . S
C1306 H1298 0.930 . S
C1306 C1305 1.362 . S
C1306 C1309 1.409 . S
C1307 H1299 0.930 . S
C1307 C1308 1.355 . S
C1307 C1309 1.415 . S
C1308 C1307 1.355 . S
C1308 C1310 1.419 . S
C1309 C1304 1.425 . S
C1309 C1306 1.409 . S
C1309 C1307 1.415 . S
C1310 H1300 0.930 . S
C1310 C1308 1.419 . S
C1310 C1311 1.362 . S
C1311 H1301 0.930 . S
C1311 C1304 1.409 . S
C1311 C1310 1.362 . S
H1312 C1318 0.930 . S
H1313 C1321 0.930 . S
H1314 C1322 0.930 . S
H1315 C1323 0.930 . S
H1316 C1326 0.930 . S
H1317 C1327 0.930 . S
C1318 H1312 0.930 . S
C1318 C1319 1.355 . S
C1318 C1320 1.415 . S
C1319 C1318 1.355 . S
C1319 C1321 1.419 . S
C1320 C1318 1.415 . S
C1320 C1325 1.425 . S
C1320 C1327 1.409 . S
C1321 H1313 0.930 . S
C1321 C1319 1.419 . S
C1321 C1322 1.362 . S
C1322 H1314 0.930 . S
C1322 C1321 1.362 . S
C1322 C1325 1.409 . S
C1323 H1315 0.930 . S
C1323 C1324 1.355 . S
C1323 C1325 1.415 . S
C1324 C1323 1.355 . S
C1324 C1326 1.419 . S
C1325 C1320 1.425 . S
C1325 C1322 1.409 . S
C1325 C1323 1.415 . S
C1326 H1316 0.930 . S
C1326 C1324 1.419 . S
C1326 C1327 1.362 . S
C1327 H1317 0.930 . S
C1327 C1320 1.409 . S
C1327 C1326 1.362 . S
H1328 C1334 0.930 . S
H1329 C1337 0.930 . S
H1330 C1338 0.930 . S
H1331 C1339 0.930 . S
H1332 C1342 0.930 . S
H1333 C1343 0.930 . S
C1334 H1328 0.930 . S
C1334 C1335 1.355 . S
C1334 C1336 1.415 . S
C1335 C1334 1.355 . S
C1335 C1337 1.419 . S
C1336 C1334 1.415 . S
C1336 C1341 1.425 . S
C1336 C1343 1.409 . S
C1337 H1329 0.930 . S
C1337 C1335 1.419 . S
C1337 C1338 1.362 . S
C1338 H1330 0.930 . S
C1338 C1337 1.362 . S
C1338 C1341 1.409 . S
C1339 H1331 0.930 . S
C1339 C1340 1.355 . S
C1339 C1341 1.415 . S
C1340 C1339 1.355 . S
C1340 C1342 1.419 . S
C1341 C1336 1.425 . S
C1341 C1338 1.409 . S
C1341 C1339 1.415 . S
C1342 H1332 0.930 . S
C1342 C1340 1.419 . S
C1342 C1343 1.362 . S
C1343 H1333 0.930 . S
C1343 C1336 1.409 . S
C1343 C1342 1.362 . S
H1344 C1350 0.930 . S
H1345 C1353 0.930 . S
H1346 C1354 0.930 . S
H1347 C1355 0.930 . S
H1348 C1358 0.930 . S
H1349 C1359 0.930 . S
C1350 H1344 0.930 . S
C1350 C1351 1.355 . S
C1350 C1352 1.415 . S
C1351 C1350 1.355 . S
C1351 C1353 1.419 . S
C1352 C1350 1.415 . S
C1352 C1357 1.425 . S
C1352 C1359 1.409 . S
C1353 H1345 0.930 . S
C1353 C1351 1.419 . S
C1353 C1354 1.362 . S
C1354 H1346 0.930 . S
C1354 C1353 1.362 . S
C1354 C1357 1.409 . S
C1355 H1347 0.930 . S
C1355 C1356 1.355 . S
C1355 C1357 1.415 . S
C1356 C1355 1.355 . S
C1356 C1358 1.419 . S
C1357 C1352 1.425 . S
C1357 C1354 1.409 . S
C1357 C1355 1.415 . S
C1358 H1348 0.930 . S
C1358 C1356 1.419 . S
C1358 C1359 1.362 . S
C1359 H1349 0.930 . S
C1359 C1352 1.409 . S
C1359 C1358 1.362 . S
H1360 C1366 0.930 . S
H1361 C1369 0.930 . S
H1362 C1370 0.930 . S
H1363 C1371 0.930 . S
H1364 C1374 0.930 . S
H1365 C1375 0.930 . S
C1366 H1360 0.930 . S
C1366 C1367 1.355 . S
C1366 C1368 1.415 . S
C1367 C1366 1.355 . S
C1367 C1369 1.419 . S
C1368 C1366 1.415 . S
C1368 C1373 1.425 . S
C1368 C1375 1.409 . S
C1369 H1361 0.930 . S
C1369 C1367 1.419 . S
C1369 C1370 1.362 . S
C1370 H1362 0.930 . S
C1370 C1369 1.362 . S
C1370 C1373 1.409 . S
C1371 H1363 0.930 . S
C1371 C1372 1.355 . S
C1371 C1373 1.415 . S
C1372 C1371 1.355 . S
C1372 C1374 1.419 . S
C1373 C1368 1.425 . S
C1373 C1370 1.409 . S
C1373 C1371 1.415 . S
C1374 H1364 0.930 . S
C1374 C1372 1.419 . S
C1374 C1375 1.362 . S
C1375 H1365 0.930 . S
C1375 C1368 1.409 . S
C1375 C1374 1.362 . S
H1376 C1382 0.930 . S
H1377 C1385 0.930 . S
H1378 C1386 0.930 . S
H1379 C1387 0.930 . S
H1380 C1390 0.930 . S
H1381 C1391 0.930 . S
C1382 H1376 0.930 . S
C1382 C1383 1.355 . S
C1382 C1384 1.415 . S
C1383 C1382 1.355 . S
C1383 C1385 1.419 . S
C1384 C1382 1.415 . S
C1384 C1389 1.425 . S
C1384 C1391 1.409 . S
C1385 H1377 0.930 . S
C1385 C1383 1.419 . S
C1385 C1386 1.362 . S
C1386 H1378 0.930 . S
C1386 C1385 1.362 . S
C1386 C1389 1.409 . S
C1387 H1379 0.930 . S
C1387 C1388 1.355 . S
C1387 C1389 1.415 . S
C1388 C1387 1.355 . S
C1388 C1390 1.419 . S
C1389 C1384 1.425 . S
C1389 C1386 1.409 . S
C1389 C1387 1.415 . S
C1390 H1380 0.930 . S
C1390 C1388 1.419 . S
C1390 C1391 1.362 . S
C1391 H1381 0.930 . S
C1391 C1384 1.409 . S
C1391 C1390 1.362 . S
H1392 C1398 0.930 . S
H1393 C1401 0.930 . S
H1394 C1402 0.930 . S
H1395 C1403 0.930 . S
H1396 C1406 0.930 . S
H1397 C1407 0.930 . S
C1398 H1392 0.930 . S
C1398 C1399 1.355 . S
C1398 C1400 1.415 . S
C1399 C1398 1.355 . S
C1399 C1401 1.419 . S
C1400 C1398 1.415 . S
C1400 C1405 1.425 . S
C1400 C1407 1.409 . S
C1401 H1393 0.930 . S
C1401 C1399 1.419 . S
C1401 C1402 1.362 . S
C1402 H1394 0.930 . S
C1402 C1401 1.362 . S
C1402 C1405 1.409 . S
C1403 H1395 0.930 . S
C1403 C1404 1.355 . S
C1403 C1405 1.415 . S
C1404 C1403 1.355 . S
C1404 C1406 1.419 . S
C1405 C1400 1.425 . S
C1405 C1402 1.409 . S
C1405 C1403 1.415 . S
C1406 H1396 0.930 . S
C1406 C1404 1.419 . S
C1406 C1407 1.362 . S
C1407 H1397 0.930 . S
C1407 C1400 1.409 . S
C1407 C1406 1.362 . S
H1408 C1414 0.930 . S
H1409 C1417 0.930 . S
H1410 C1418 0.930 . S
H1411 C1419 0.930 . S
H1412 C1422 0.930 . S
H1413 C1423 0.930 . S
C1414 H1408 0.930 . S
C1414 C1415 1.355 . S
C1414 C1416 1.415 . S
C1415 C1414 1.355 . S
C1415 C1417 1.419 . S
C1416 C1414 1.415 . S
C1416 C1421 1.425 . S
C1416 C1423 1.409 . S
C1417 H1409 0.930 . S
C1417 C1415 1.419 . S
C1417 C1418 1.362 . S
C1418 H1410 0.930 . S
C1418 C1417 1.362 . S
C1418 C1421 1.409 . S
C1419 H1411 0.930 . S
C1419 C1420 1.355 . S
C1419 C1421 1.415 . S
C1420 C1419 1.355 . S
C1420 C1422 1.419 . S
C1421 C1416 1.425 . S
C1421 C1418 1.409 . S
C1421 C1419 1.415 . S
C1422 H1412 0.930 . S
C1422 C1420 1.419 . S
C1422 C1423 1.362 . S
C1423 H1413 0.930 . S
C1423 C1416 1.409 . S
C1423 C1422 1.362 . S
H1424 C1430 0.930 . S
H1425 C1433 0.930 . S
H1426 C1434 0.930 . S
H1427 C1435 0.930 . S
H1428 C1438 0.930 . S
H1429 C1439 0.930 . S
C1430 H1424 0.930 . S
C1430 C1431 1.355 . S
C1430 C1432 1.415 . S
C1431 C1430 1.355 . S
C1431 C1433 1.419 . S
C1432 C1430 1.415 . S
C1432 C1437 1.425 . S
C1432 C1439 1.409 . S
C1433 H1425 0.930 . S
C1433 C1431 1.419 . S
C1433 C1434 1.362 . S
C1434 H1426 0.930 . S
C1434 C1433 1.362 . S
C1434 C1437 1.409 . S
C1435 H1427 0.930 . S
C1435 C1436 1.355 . S
C1435 C1437 1.415 . S
C1436 C1435 1.355 . S
C1436 C1438 1.419 . S
C1437 C1432 1.425 . S
C1437 C1434 1.409 . S
C1437 C1435 1.415 . S
C1438 H1428 0.930 . S
C1438 C1436 1.419 . S
C1438 C1439 1.362 . S
C1439 H1429 0.930 . S
C1439 C1432 1.409 . S
C1439 C1438 1.362 . S
H1440 C1446 0.930 . S
H1441 C1449 0.930 . S
H1442 C1450 0.930 . S
H1443 C1451 0.930 . S
H1444 C1454 0.930 . S
H1445 C1455 0.930 1_455 S
C1446 H1440 0.930 . S
C1446 C1447 1.355 . S
C1446 C1448 1.415 . S
C1447 C1446 1.355 . S
C1447 C1449 1.419 . S
C1448 C1446 1.415 . S
C1448 C1453 1.425 . S
C1448 C1455 1.409 . S
C1449 H1441 0.930 . S
C1449 C1447 1.419 . S
C1449 C1450 1.362 . S
C1450 H1442 0.930 . S
C1450 C1449 1.362 . S
C1450 C1453 1.409 . S
C1451 H1443 0.930 . S
C1451 C1452 1.355 . S
C1451 C1453 1.415 . S
C1452 C1451 1.355 . S
C1452 C1454 1.419 . S
C1453 C1448 1.425 . S
C1453 C1450 1.409 . S
C1453 C1451 1.415 . S
C1454 H1444 0.930 . S
C1454 C1452 1.419 . S
C1454 C1455 1.362 . S
C1455 H1445 0.930 1_655 S
C1455 C1448 1.409 . S
C1455 C1454 1.362 . S
H1456 C1462 0.930 . S
H1457 C1465 0.930 . S
H1458 C1466 0.930 . S
H1459 C1467 0.930 . S
H1460 C1470 0.930 . S
H1461 C1471 0.930 . S
C1462 H1456 0.930 . S
C1462 C1463 1.355 . S
C1462 C1464 1.415 . S
C1463 C1462 1.355 . S
C1463 C1465 1.419 . S
C1464 C1462 1.415 . S
C1464 C1469 1.425 . S
C1464 C1471 1.409 . S
C1465 H1457 0.930 . S
C1465 C1463 1.419 . S
C1465 C1466 1.362 . S
C1466 H1458 0.930 . S
C1466 C1465 1.362 . S
C1466 C1469 1.409 . S
C1467 H1459 0.930 . S
C1467 C1468 1.355 . S
C1467 C1469 1.415 . S
C1468 C1467 1.355 . S
C1468 C1470 1.419 . S
C1469 C1464 1.425 . S
C1469 C1466 1.409 . S
C1469 C1467 1.415 . S
C1470 H1460 0.930 . S
C1470 C1468 1.419 . S
C1470 C1471 1.362 . S
C1471 H1461 0.930 . S
C1471 C1464 1.409 . S
C1471 C1470 1.362 . S
H1472 C1478 0.930 . S
H1473 C1481 0.930 . S
H1474 C1482 0.930 . S
H1475 C1483 0.930 . S
H1476 C1486 0.930 . S
H1477 C1487 0.930 . S
C1478 H1472 0.930 . S
C1478 C1479 1.355 . S
C1478 C1480 1.415 . S
C1479 C1478 1.355 . S
C1479 C1481 1.419 . S
C1480 C1478 1.415 . S
C1480 C1485 1.425 . S
C1480 C1487 1.409 . S
C1481 H1473 0.930 . S
C1481 C1479 1.419 . S
C1481 C1482 1.362 . S
C1482 H1474 0.930 . S
C1482 C1481 1.362 . S
C1482 C1485 1.409 . S
C1483 H1475 0.930 . S
C1483 C1484 1.355 . S
C1483 C1485 1.415 . S
C1484 C1483 1.355 . S
C1484 C1486 1.419 . S
C1485 C1480 1.425 . S
C1485 C1482 1.409 . S
C1485 C1483 1.415 . S
C1486 H1476 0.930 . S
C1486 C1484 1.419 . S
C1486 C1487 1.362 . S
C1487 H1477 0.930 . S
C1487 C1480 1.409 . S
C1487 C1486 1.362 . S
H1488 C1494 0.930 . S
H1489 C1497 0.930 . S
H1490 C1498 0.930 . S
H1491 C1499 0.930 . S
H1492 C1502 0.930 . S
H1493 C1503 0.930 . S
C1494 H1488 0.930 . S
C1494 C1495 1.355 . S
C1494 C1496 1.415 . S
C1495 C1494 1.355 . S
C1495 C1497 1.419 . S
C1496 C1494 1.415 . S
C1496 C1501 1.425 . S
C1496 C1503 1.409 . S
C1497 H1489 0.930 . S
C1497 C1495 1.419 . S
C1497 C1498 1.362 . S
C1498 H1490 0.930 . S
C1498 C1497 1.362 . S
C1498 C1501 1.409 . S
C1499 H1491 0.930 . S
C1499 C1500 1.355 . S
C1499 C1501 1.415 . S
C1500 C1499 1.355 . S
C1500 C1502 1.419 . S
C1501 C1496 1.425 . S
C1501 C1498 1.409 . S
C1501 C1499 1.415 . S
C1502 H1492 0.930 . S
C1502 C1500 1.419 . S
C1502 C1503 1.362 . S
C1503 H1493 0.930 . S
C1503 C1496 1.409 . S
C1503 C1502 1.362 . S
H1504 C1510 0.930 . S
H1505 C1513 0.930 . S
H1506 C1514 0.930 . S
H1507 C1515 0.930 . S
H1508 C1518 0.930 . S
H1509 C1519 0.930 . S
C1510 H1504 0.930 . S
C1510 C1511 1.355 . S
C1510 C1512 1.415 . S
C1511 C1510 1.355 . S
C1511 C1513 1.419 . S
C1512 C1510 1.415 . S
C1512 C1517 1.425 . S
C1512 C1519 1.409 . S
C1513 H1505 0.930 . S
C1513 C1511 1.419 . S
C1513 C1514 1.362 . S
C1514 H1506 0.930 . S
C1514 C1513 1.362 . S
C1514 C1517 1.409 . S
C1515 H1507 0.930 . S
C1515 C1516 1.355 . S
C1515 C1517 1.415 . S
C1516 C1515 1.355 . S
C1516 C1518 1.419 . S
C1517 C1512 1.425 . S
C1517 C1514 1.409 . S
C1517 C1515 1.415 . S
C1518 H1508 0.930 . S
C1518 C1516 1.419 . S
C1518 C1519 1.362 . S
C1519 H1509 0.930 . S
C1519 C1512 1.409 . S
C1519 C1518 1.362 . S
H1520 C1526 0.930 . S
H1521 C1529 0.930 . S
H1522 C1530 0.930 . S
H1523 C1531 0.930 . S
H1524 C1534 0.930 . S
H1525 C1535 0.930 . S
C1526 H1520 0.930 . S
C1526 C1527 1.355 . S
C1526 C1528 1.415 . S
C1527 C1526 1.355 . S
C1527 C1529 1.419 . S
C1528 C1526 1.415 . S
C1528 C1533 1.425 . S
C1528 C1535 1.409 . S
C1529 H1521 0.930 . S
C1529 C1527 1.419 . S
C1529 C1530 1.362 . S
C1530 H1522 0.930 . S
C1530 C1529 1.362 . S
C1530 C1533 1.409 . S
C1531 H1523 0.930 . S
C1531 C1532 1.355 . S
C1531 C1533 1.415 . S
C1532 C1531 1.355 . S
C1532 C1534 1.419 . S
C1533 C1528 1.425 . S
C1533 C1530 1.409 . S
C1533 C1531 1.415 . S
C1534 H1524 0.930 . S
C1534 C1532 1.419 . S
C1534 C1535 1.362 . S
C1535 H1525 0.930 . S
C1535 C1528 1.409 . S
C1535 C1534 1.362 . S
H1536 C1542 0.930 . S
H1537 C1545 0.930 . S
H1538 C1546 0.930 . S
H1539 C1547 0.930 . S
H1540 C1550 0.930 . S
H1541 C1551 0.930 . S
C1542 H1536 0.930 . S
C1542 C1543 1.355 . S
C1542 C1544 1.415 . S
C1543 C1542 1.355 . S
C1543 C1545 1.419 . S
C1544 C1542 1.415 . S
C1544 C1549 1.425 . S
C1544 C1551 1.409 . S
C1545 H1537 0.930 . S
C1545 C1543 1.419 . S
C1545 C1546 1.362 . S
C1546 H1538 0.930 . S
C1546 C1545 1.362 . S
C1546 C1549 1.409 . S
C1547 H1539 0.930 . S
C1547 C1548 1.355 . S
C1547 C1549 1.415 . S
C1548 C1547 1.355 . S
C1548 C1550 1.419 . S
C1549 C1544 1.425 . S
C1549 C1546 1.409 . S
C1549 C1547 1.415 . S
C1550 H1540 0.930 . S
C1550 C1548 1.419 . S
C1550 C1551 1.362 . S
C1551 H1541 0.930 . S
C1551 C1544 1.409 . S
C1551 C1550 1.362 . S
H1552 C1558 0.930 . S
H1553 C1561 0.930 . S
H1554 C1562 0.930 . S
H1555 C1563 0.930 . S
H1556 C1566 0.930 . S
H1557 C1567 0.930 . S
C1558 H1552 0.930 . S
C1558 C1559 1.355 . S
C1558 C1560 1.415 . S
C1559 C1558 1.355 . S
C1559 C1561 1.419 . S
C1560 C1558 1.415 . S
C1560 C1565 1.425 . S
C1560 C1567 1.409 . S
C1561 H1553 0.930 . S
C1561 C1559 1.419 . S
C1561 C1562 1.362 . S
C1562 H1554 0.930 . S
C1562 C1561 1.362 . S
C1562 C1565 1.409 . S
C1563 H1555 0.930 . S
C1563 C1564 1.355 . S
C1563 C1565 1.415 . S
C1564 C1563 1.355 . S
C1564 C1566 1.419 . S
C1565 C1560 1.425 . S
C1565 C1562 1.409 . S
C1565 C1563 1.415 . S
C1566 H1556 0.930 . S
C1566 C1564 1.419 . S
C1566 C1567 1.362 . S
C1567 H1557 0.930 . S
C1567 C1560 1.409 . S
C1567 C1566 1.362 . S
H1568 C1574 0.930 . S
H1569 C1577 0.930 . S
H1570 C1578 0.930 . S
H1571 C1579 0.930 . S
H1572 C1582 0.930 . S
H1573 C1583 0.930 . S
C1574 H1568 0.930 . S
C1574 C1575 1.355 . S
C1574 C1576 1.415 . S
C1575 C1574 1.355 . S
C1575 C1577 1.419 . S
C1576 C1574 1.415 . S
C1576 C1581 1.425 . S
C1576 C1583 1.409 . S
C1577 H1569 0.930 . S
C1577 C1575 1.419 . S
C1577 C1578 1.362 . S
C1578 H1570 0.930 . S
C1578 C1577 1.362 . S
C1578 C1581 1.409 . S
C1579 H1571 0.930 . S
C1579 C1580 1.355 . S
C1579 C1581 1.415 . S
C1580 C1579 1.355 . S
C1580 C1582 1.419 . S
C1581 C1576 1.425 . S
C1581 C1578 1.409 . S
C1581 C1579 1.415 . S
C1582 H1572 0.930 . S
C1582 C1580 1.419 . S
C1582 C1583 1.362 . S
C1583 H1573 0.930 . S
C1583 C1576 1.409 . S
C1583 C1582 1.362 . S
H1584 C1590 0.930 . S
H1585 C1593 0.930 . S
H1586 C1594 0.930 . S
H1587 C1595 0.930 . S
H1588 C1598 0.930 . S
H1589 C1599 0.930 . S
C1590 H1584 0.930 . S
C1590 C1591 1.355 . S
C1590 C1592 1.415 . S
C1591 C1590 1.355 . S
C1591 C1593 1.419 . S
C1592 C1590 1.415 . S
C1592 C1597 1.425 . S
C1592 C1599 1.409 1_455 S
C1593 H1585 0.930 . S
C1593 C1591 1.419 . S
C1593 C1594 1.362 . S
C1594 H1586 0.930 . S
C1594 C1593 1.362 . S
C1594 C1597 1.409 . S
C1595 H1587 0.930 . S
C1595 C1596 1.355 . S
C1595 C1597 1.415 . S
C1596 C1595 1.355 . S
C1596 C1598 1.419 1_455 S
C1597 C1592 1.425 . S
C1597 C1594 1.409 . S
C1597 C1595 1.415 . S
C1598 H1588 0.930 . S
C1598 C1596 1.419 1_655 S
C1598 C1599 1.362 . S
C1599 H1589 0.930 . S
C1599 C1592 1.409 1_655 S
C1599 C1598 1.362 . S
H1600 C1606 0.930 . S
H1601 C1609 0.930 . S
H1602 C1610 0.930 . S
H1603 C1611 0.930 . S
H1604 C1614 0.930 . S
H1605 C1615 0.930 . S
C1606 H1600 0.930 . S
C1606 C1607 1.355 . S
C1606 C1608 1.415 . S
C1607 C1606 1.355 . S
C1607 C1609 1.419 . S
C1608 C1606 1.415 . S
C1608 C1613 1.425 . S
C1608 C1615 1.409 . S
C1609 H1601 0.930 . S
C1609 C1607 1.419 . S
C1609 C1610 1.362 . S
C1610 H1602 0.930 . S
C1610 C1609 1.362 . S
C1610 C1613 1.409 . S
C1611 H1603 0.930 . S
C1611 C1612 1.355 . S
C1611 C1613 1.415 . S
C1612 C1611 1.355 . S
C1612 C1614 1.419 . S
C1613 C1608 1.425 . S
C1613 C1610 1.409 . S
C1613 C1611 1.415 . S
C1614 H1604 0.930 . S
C1614 C1612 1.419 . S
C1614 C1615 1.362 . S
C1615 H1605 0.930 . S
C1615 C1608 1.409 . S
C1615 C1614 1.362 . S
H1616 C1622 0.930 . S
H1617 C1625 0.930 . S
H1618 C1626 0.930 . S
H1619 C1627 0.930 . S
H1620 C1630 0.930 . S
H1621 C1631 0.930 . S
C1622 H1616 0.930 . S
C1622 C1623 1.355 . S
C1622 C1624 1.415 . S
C1623 C1622 1.355 . S
C1623 C1625 1.419 . S
C1624 C1622 1.415 . S
C1624 C1629 1.425 . S
C1624 C1631 1.409 . S
C1625 H1617 0.930 . S
C1625 C1623 1.419 . S
C1625 C1626 1.362 . S
C1626 H1618 0.930 . S
C1626 C1625 1.362 . S
C1626 C1629 1.409 . S
C1627 H1619 0.930 . S
C1627 C1628 1.355 . S
C1627 C1629 1.415 . S
C1628 C1627 1.355 . S
C1628 C1630 1.419 . S
C1629 C1624 1.425 . S
C1629 C1626 1.409 . S
C1629 C1627 1.415 . S
C1630 H1620 0.930 . S
C1630 C1628 1.419 . S
C1630 C1631 1.362 . S
C1631 H1621 0.930 . S
C1631 C1624 1.409 . S
C1631 C1630 1.362 . S
H1632 C1638 0.930 . S
H1633 C1641 0.930 . S
H1634 C1642 0.930 . S
H1635 C1643 0.930 . S
H1636 C1646 0.930 . S
H1637 C1647 0.930 . S
C1638 H1632 0.930 . S
C1638 C1639 1.355 . S
C1638 C1640 1.415 . S
C1639 C1638 1.355 . S
C1639 C1641 1.419 1_545 S
C1640 C1638 1.415 . S
C1640 C1645 1.425 1_545 S
C1640 C1647 1.409 . S
C1641 H1633 0.930 . S
C1641 C1639 1.419 1_565 S
C1641 C1642 1.362 . S
C1642 H1634 0.930 . S
C1642 C1641 1.362 . S
C1642 C1645 1.409 . S
C1643 H1635 0.930 . S
C1643 C1644 1.355 1_565 S
C1643 C1645 1.415 . S
C1644 C1643 1.355 1_545 S
C1644 C1646 1.419 . S
C1645 C1640 1.425 1_565 S
C1645 C1642 1.409 . S
C1645 C1643 1.415 . S
C1646 H1636 0.930 . S
C1646 C1644 1.419 . S
C1646 C1647 1.362 . S
C1647 H1637 0.930 . S
C1647 C1640 1.409 . S
C1647 C1646 1.362 . S
H1648 C1654 0.930 . S
H1649 C1657 0.930 . S
H1650 C1658 0.930 . S
H1651 C1659 0.930 . S
H1652 C1662 0.930 . S
H1653 C1663 0.930 . S
C1654 H1648 0.930 . S
C1654 C1655 1.355 . S
C1654 C1656 1.415 . S
C1655 C1654 1.355 . S
C1655 C1657 1.419 . S
C1656 C1654 1.415 . S
C1656 C1661 1.425 . S
C1656 C1663 1.409 . S
C1657 H1649 0.930 . S
C1657 C1655 1.419 . S
C1657 C1658 1.362 . S
C1658 H1650 0.930 . S
C1658 C1657 1.362 . S
C1658 C1661 1.409 . S
C1659 H1651 0.930 . S
C1659 C1660 1.355 . S
C1659 C1661 1.415 . S
C1660 C1659 1.355 . S
C1660 C1662 1.419 . S
C1661 C1656 1.425 . S
C1661 C1658 1.409 . S
C1661 C1659 1.415 . S
C1662 H1652 0.930 . S
C1662 C1660 1.419 . S
C1662 C1663 1.362 . S
C1663 H1653 0.930 . S
C1663 C1656 1.409 . S
C1663 C1662 1.362 . S
H1664 C1670 0.930 . S
H1665 C1673 0.930 . S
H1666 C1674 0.930 . S
H1667 C1675 0.930 . S
H1668 C1678 0.930 . S
H1669 C1679 0.930 . S
C1670 H1664 0.930 . S
C1670 C1671 1.355 . S
C1670 C1672 1.415 . S
C1671 C1670 1.355 . S
C1671 C1673 1.419 . S
C1672 C1670 1.415 . S
C1672 C1677 1.425 . S
C1672 C1679 1.409 . S
C1673 H1665 0.930 . S
C1673 C1671 1.419 . S
C1673 C1674 1.362 . S
C1674 H1666 0.930 . S
C1674 C1673 1.362 . S
C1674 C1677 1.409 . S
C1675 H1667 0.930 . S
C1675 C1676 1.355 . S
C1675 C1677 1.415 . S
C1676 C1675 1.355 . S
C1676 C1678 1.419 . S
C1677 C1672 1.425 . S
C1677 C1674 1.409 . S
C1677 C1675 1.415 . S
C1678 H1668 0.930 . S
C1678 C1676 1.419 . S
C1678 C1679 1.362 . S
C1679 H1669 0.930 . S
C1679 C1672 1.409 . S
C1679 C1678 1.362 . S
H1680 C1686 0.958 . S
H1681 C1689 0.930 . S
H1682 C1690 0.930 . S
H1683 C1691 0.930 . S
H1684 C1694 0.930 . S
H1685 C1695 0.930 1_655 S
C1686 H1680 0.958 . S
C1686 C1687 1.355 . S
C1686 C1688 1.415 . S
C1687 C1686 1.355 . S
C1687 C1689 1.419 . S
C1688 C1686 1.415 . S
C1688 C1693 1.425 . S
C1688 C1695 1.409 . S
C1689 H1681 0.930 . S
C1689 C1687 1.419 . S
C1689 C1690 1.362 . S
C1690 H1682 0.930 . S
C1690 C1689 1.362 . S
C1690 C1693 1.409 . S
C1691 H1683 0.930 . S
C1691 C1692 1.355 . S
C1691 C1693 1.415 . S
C1692 C1691 1.355 . S
C1692 C1694 1.419 . S
C1693 C1688 1.425 . S
C1693 C1690 1.409 . S
C1693 C1691 1.415 . S
C1694 H1684 0.930 . S
C1694 C1692 1.419 . S
C1694 C1695 1.362 . S
C1695 H1685 0.930 1_455 S
C1695 C1688 1.409 . S
C1695 C1694 1.362 . S
H1696 C1702 0.930 . S
H1697 C1705 0.930 . S
H1698 C1706 0.930 . S
H1699 C1707 0.930 . S
H1700 C1710 0.930 . S
H1701 C1711 0.930 . S
C1702 H1696 0.930 . S
C1702 C1703 1.355 . S
C1702 C1704 1.415 . S
C1703 C1702 1.355 . S
C1703 C1705 1.419 . S
C1704 C1702 1.415 . S
C1704 C1709 1.425 . S
C1704 C1711 1.409 . S
C1705 H1697 0.930 . S
C1705 C1703 1.419 . S
C1705 C1706 1.362 . S
C1706 H1698 0.930 . S
C1706 C1705 1.362 . S
C1706 C1709 1.409 . S
C1707 H1699 0.930 . S
C1707 C1708 1.355 . S
C1707 C1709 1.415 . S
C1708 C1707 1.355 . S
C1708 C1710 1.419 . S
C1709 C1704 1.425 . S
C1709 C1706 1.409 . S
C1709 C1707 1.415 . S
C1710 H1700 0.930 . S
C1710 C1708 1.419 . S
C1710 C1711 1.362 . S
C1711 H1701 0.930 . S
C1711 C1704 1.409 . S
C1711 C1710 1.362 . S
H1712 C1718 0.909 1_565 S
H1713 C1721 0.930 . S
H1714 C1722 0.930 . S
H1715 C1723 0.930 . S
H1716 C1726 0.930 . S
H1717 C1727 0.930 . S
C1718 H1712 0.909 1_545 S
C1718 C1719 1.371 . S
C1718 C1720 1.419 1_545 S
C1719 C1718 1.371 . S
C1719 C1721 1.419 . S
C1720 C1718 1.419 1_565 S
C1720 C1725 1.424 1_565 S
C1720 C1727 1.410 . S
C1721 H1713 0.930 . S
C1721 C1719 1.419 . S
C1721 C1722 1.362 . S
C1722 H1714 0.930 . S
C1722 C1721 1.362 . S
C1722 C1725 1.409 . S
C1723 H1715 0.930 . S
C1723 C1724 1.384 . S
C1723 C1725 1.415 . S
C1724 C1723 1.384 . S
C1724 C1726 1.384 1_545 S
C1725 C1720 1.424 1_545 S
C1725 C1722 1.409 . S
C1725 C1723 1.415 . S
C1726 H1716 0.930 . S
C1726 C1724 1.384 1_565 S
C1726 C1727 1.362 . S
C1727 H1717 0.930 . S
C1727 C1720 1.410 . S
C1727 C1726 1.362 . S
H1728 C1734 0.930 . S
H1729 C1737 0.930 . S
H1730 C1738 0.930 . S
H1731 C1739 0.930 . S
H1732 C1742 0.930 . S
H1733 C1743 0.930 . S
C1734 H1728 0.930 . S
C1734 C1735 1.355 . S
C1734 C1736 1.415 . S
C1735 C1734 1.355 . S
C1735 C1737 1.419 . S
C1736 C1734 1.415 . S
C1736 C1741 1.425 . S
C1736 C1743 1.409 . S
C1737 H1729 0.930 . S
C1737 C1735 1.419 . S
C1737 C1738 1.362 . S
C1738 H1730 0.930 . S
C1738 C1737 1.362 . S
C1738 C1741 1.409 . S
C1739 H1731 0.930 . S
C1739 C1740 1.355 . S
C1739 C1741 1.415 . S
C1740 C1739 1.355 . S
C1740 C1742 1.419 . S
C1741 C1736 1.425 . S
C1741 C1738 1.409 . S
C1741 C1739 1.415 . S
C1742 H1732 0.930 . S
C1742 C1740 1.419 . S
C1742 C1743 1.362 . S
C1743 H1733 0.930 . S
C1743 C1736 1.409 . S
C1743 C1742 1.362 . S
H1744 C1750 0.930 1_655 S
H1745 C1753 0.930 . S
H1746 C1754 0.930 . S
H1747 C1755 0.930 . S
H1748 C1758 0.930 . S
H1749 C1759 0.930 . S
C1750 H1744 0.930 1_455 S
C1750 C1751 1.355 . S
C1750 C1752 1.415 . S
C1751 C1750 1.355 . S
C1751 C1753 1.419 . S
C1752 C1750 1.415 . S
C1752 C1757 1.425 . S
C1752 C1759 1.409 1_455 S
C1753 H1745 0.930 . S
C1753 C1751 1.419 . S
C1753 C1754 1.362 . S
C1754 H1746 0.930 . S
C1754 C1753 1.362 . S
C1754 C1757 1.409 . S
C1755 H1747 0.930 . S
C1755 C1756 1.355 . S
C1755 C1757 1.415 . S
C1756 C1755 1.355 . S
C1756 C1758 1.419 1_455 S
C1757 C1752 1.425 . S
C1757 C1754 1.409 . S
C1757 C1755 1.415 . S
C1758 H1748 0.930 . S
C1758 C1756 1.419 1_655 S
C1758 C1759 1.362 . S
C1759 H1749 0.930 . S
C1759 C1752 1.409 1_655 S
C1759 C1758 1.362 . S
H1760 C1766 0.930 . S
H1761 C1769 0.930 . S
H1762 C1770 0.930 . S
H1763 C1771 0.930 . S
H1764 C1774 0.930 . S
H1765 C1775 0.930 . S
C1766 H1760 0.930 . S
C1766 C1767 1.355 . S
C1766 C1768 1.415 . S
C1767 C1766 1.355 . S
C1767 C1769 1.419 . S
C1768 C1766 1.415 . S
C1768 C1773 1.425 . S
C1768 C1775 1.409 . S
C1769 H1761 0.930 . S
C1769 C1767 1.419 . S
C1769 C1770 1.362 . S
C1770 H1762 0.930 . S
C1770 C1769 1.362 . S
C1770 C1773 1.409 . S
C1771 H1763 0.930 . S
C1771 C1772 1.355 . S
C1771 C1773 1.415 . S
C1772 C1771 1.355 . S
C1772 C1774 1.419 . S
C1773 C1768 1.425 . S
C1773 C1770 1.409 . S
C1773 C1771 1.415 . S
C1774 H1764 0.930 . S
C1774 C1772 1.419 . S
C1774 C1775 1.362 . S
C1775 H1765 0.930 . S
C1775 C1768 1.409 . S
C1775 C1774 1.362 . S
H1776 C1782 0.930 . S
H1777 C1785 0.930 . S
H1778 C1786 0.930 . S
H1779 C1787 0.930 . S
H1780 C1790 0.930 . S
H1781 C1791 0.930 . S
C1782 H1776 0.930 . S
C1782 C1783 1.355 . S
C1782 C1784 1.415 . S
C1783 C1782 1.355 . S
C1783 C1785 1.419 . S
C1784 C1782 1.415 . S
C1784 C1789 1.425 . S
C1784 C1791 1.409 . S
C1785 H1777 0.930 . S
C1785 C1783 1.419 . S
C1785 C1786 1.362 . S
C1786 H1778 0.930 . S
C1786 C1785 1.362 . S
C1786 C1789 1.409 . S
C1787 H1779 0.930 . S
C1787 C1788 1.355 . S
C1787 C1789 1.415 . S
C1788 C1787 1.355 . S
C1788 C1790 1.419 . S
C1789 C1784 1.425 . S
C1789 C1786 1.409 . S
C1789 C1787 1.415 . S
C1790 H1780 0.930 . S
C1790 C1788 1.419 . S
C1790 C1791 1.362 . S
C1791 H1781 0.930 . S
C1791 C1784 1.409 . S
C1791 C1790 1.362 . S
H1792 C1798 0.930 . S
H1793 C1801 0.930 . S
H1794 C1802 0.930 . S
H1795 C1803 0.930 . S
H1796 C1806 0.930 . S
H1797 C1807 0.930 . S
C1798 H1792 0.930 . S
C1798 C1799 1.355 . S
C1798 C1800 1.415 . S
C1799 C1798 1.355 . S
C1799 C1801 1.419 . S
C1800 C1798 1.415 . S
C1800 C1805 1.425 . S
C1800 C1807 1.409 1_545 S
C1801 H1793 0.930 . S
C1801 C1799 1.419 . S
C1801 C1802 1.362 . S
C1802 H1794 0.930 . S
C1802 C1801 1.362 . S
C1802 C1805 1.409 . S
C1803 H1795 0.930 . S
C1803 C1804 1.355 . S
C1803 C1805 1.415 . S
C1804 C1803 1.355 . S
C1804 C1806 1.419 1_545 S
C1805 C1800 1.425 . S
C1805 C1802 1.409 . S
C1805 C1803 1.415 . S
C1806 H1796 0.930 . S
C1806 C1804 1.419 1_565 S
C1806 C1807 1.362 . S
C1807 H1797 0.930 . S
C1807 C1800 1.409 1_565 S
C1807 C1806 1.362 . S
H1808 C1814 0.930 . S
H1809 C1817 0.930 . S
H1810 C1818 0.930 . S
H1811 C1819 0.930 . S
H1812 C1822 0.930 . S
H1813 C1823 0.930 . S
C1814 H1808 0.930 . S
C1814 C1815 1.355 . S
C1814 C1816 1.415 . S
C1815 C1814 1.355 . S
C1815 C1817 1.419 1_455 S
C1816 C1814 1.415 . S
C1816 C1821 1.425 . S
C1816 C1823 1.409 . S
C1817 H1809 0.930 . S
C1817 C1815 1.419 1_655 S
C1817 C1818 1.362 . S
C1818 H1810 0.930 . S
C1818 C1817 1.362 . S
C1818 C1821 1.409 1_655 S
C1819 H1811 0.930 . S
C1819 C1820 1.355 . S
C1819 C1821 1.415 . S
C1820 C1819 1.355 . S
C1820 C1822 1.419 . S
C1821 C1816 1.425 . S
C1821 C1818 1.409 1_455 S
C1821 C1819 1.415 . S
C1822 H1812 0.930 . S
C1822 C1820 1.419 . S
C1822 C1823 1.362 . S
C1823 H1813 0.930 . S
C1823 C1816 1.409 . S
C1823 C1822 1.362 . S
H1824 C1830 0.930 . S
H1825 C1833 0.930 . S
H1826 C1834 0.930 . S
H1827 C1835 0.930 . S
H1828 C1838 0.930 . S
H1829 C1839 0.930 . S
C1830 H1824 0.930 . S
C1830 C1831 1.355 . S
C1830 C1832 1.415 . S
C1831 C1830 1.355 . S
C1831 C1833 1.419 . S
C1832 C1830 1.415 . S
C1832 C1837 1.425 . S
C1832 C1839 1.409 . S
C1833 H1825 0.930 . S
C1833 C1831 1.419 . S
C1833 C1834 1.362 . S
C1834 H1826 0.930 . S
C1834 C1833 1.362 . S
C1834 C1837 1.409 . S
C1835 H1827 0.930 . S
C1835 C1836 1.355 . S
C1835 C1837 1.415 . S
C1836 C1835 1.355 . S
C1836 C1838 1.419 . S
C1837 C1832 1.425 . S
C1837 C1834 1.409 . S
C1837 C1835 1.415 . S
C1838 H1828 0.930 . S
C1838 C1836 1.419 . S
C1838 C1839 1.362 . S
C1839 H1829 0.930 . S
C1839 C1832 1.409 . S
C1839 C1838 1.362 . S
H1840 C1846 0.965 . S
H1841 C1849 0.930 . S
H1842 C1850 0.930 . S
H1843 C1851 0.930 . S
H1844 C1854 0.930 1_565 S
H1845 C1855 0.930 . S
C1846 H1840 0.965 . S
C1846 C1847 1.337 1_565 S
C1846 C1848 1.399 1_565 S
C1847 C1846 1.337 1_545 S
C1847 C1849 1.419 . S
C1848 C1846 1.399 1_545 S
C1848 C1853 1.425 . S
C1848 C1855 1.409 1_545 S
C1849 H1841 0.930 . S
C1849 C1847 1.419 . S
C1849 C1850 1.362 . S
C1850 H1842 0.930 . S
C1850 C1849 1.362 . S
C1850 C1853 1.409 . S
C1851 H1843 0.930 . S
C1851 C1852 1.355 . S
C1851 C1853 1.415 . S
C1852 C1851 1.355 . S
C1852 C1854 1.419 . S
C1853 C1848 1.425 . S
C1853 C1850 1.409 . S
C1853 C1851 1.415 . S
C1854 H1844 0.930 1_545 S
C1854 C1852 1.419 . S
C1854 C1855 1.362 1_545 S
C1855 H1845 0.930 . S
C1855 C1848 1.409 1_565 S
C1855 C1854 1.362 1_565 S
H1856 C1862 0.891 1_655 S
H1857 C1865 0.930 . S
H1858 C1866 0.930 . S
H1859 C1867 0.930 . S
H1860 C1870 0.948 . S
H1861 C1871 0.930 . S
C1862 H1856 0.891 1_455 S
C1862 C1863 1.377 . S
C1862 C1864 1.430 . S
C1863 C1862 1.377 . S
C1863 C1865 1.419 . S
C1864 C1862 1.430 . S
C1864 C1869 1.425 . S
C1864 C1871 1.409 1_455 S
C1865 H1857 0.930 . S
C1865 C1863 1.419 . S
C1865 C1866 1.362 . S
C1866 H1858 0.930 . S
C1866 C1865 1.362 . S
C1866 C1869 1.409 . S
C1867 H1859 0.930 . S
C1867 C1868 1.355 . S
C1867 C1869 1.415 . S
C1868 C1867 1.355 . S
C1868 C1870 1.419 . S
C1869 C1864 1.425 . S
C1869 C1866 1.409 . S
C1869 C1867 1.415 . S
C1870 H1860 0.948 . S
C1870 C1868 1.419 . S
C1870 C1871 1.362 1_455 S
C1871 H1861 0.930 . S
C1871 C1864 1.409 1_655 S
C1871 C1870 1.362 1_655 S
H1872 C1878 0.930 . S
H1873 C1881 0.930 . S
H1874 C1882 0.930 1_655 S
H1875 C1883 0.930 . S
H1876 C1886 0.930 . S
H1877 C1887 0.930 . S
C1878 H1872 0.930 . S
C1878 C1879 1.355 . S
C1878 C1880 1.415 . S
C1879 C1878 1.355 . S
C1879 C1881 1.419 . S
C1880 C1878 1.415 . S
C1880 C1885 1.425 1_554 S
C1880 C1887 1.409 1_554 S
C1881 H1873 0.930 . S
C1881 C1879 1.419 . S
C1881 C1882 1.362 . S
C1882 H1874 0.930 1_455 S
C1882 C1881 1.362 . S
C1882 C1885 1.409 1_554 S
C1883 H1875 0.930 . S
C1883 C1884 1.355 . S
C1883 C1885 1.415 . S
C1884 C1883 1.355 . S
C1884 C1886 1.419 . S
C1885 C1880 1.425 1_556 S
C1885 C1882 1.409 1_556 S
C1885 C1883 1.415 . S
C1886 H1876 0.930 . S
C1886 C1884 1.419 . S
C1886 C1887 1.362 . S
C1887 H1877 0.930 . S
C1887 C1880 1.409 1_556 S
C1887 C1886 1.362 . S
H1888 C1894 0.930 . S
H1889 C1897 0.930 . S
H1890 C1898 0.930 . S
H1891 C1899 0.930 . S
H1892 C1902 0.930 . S
H1893 C1903 0.930 . S
C1894 H1888 0.930 . S
C1894 C1895 1.355 . S
C1894 C1896 1.415 . S
C1895 C1894 1.355 . S
C1895 C1897 1.419 . S
C1896 C1894 1.415 . S
C1896 C1901 1.425 1_556 S
C1896 C1903 1.409 1_556 S
C1897 H1889 0.930 . S
C1897 C1895 1.419 . S
C1897 C1898 1.362 . S
C1898 H1890 0.930 . S
C1898 C1897 1.362 . S
C1898 C1901 1.409 1_556 S
C1899 H1891 0.930 . S
C1899 C1900 1.355 . S
C1899 C1901 1.415 . S
C1900 C1899 1.355 . S
C1900 C1902 1.419 . S
C1901 C1896 1.425 1_554 S
C1901 C1898 1.409 1_554 S
C1901 C1899 1.415 . S
C1902 H1892 0.930 . S
C1902 C1900 1.419 . S
C1902 C1903 1.362 . S
C1903 H1893 0.930 . S
C1903 C1896 1.409 1_554 S
C1903 C1902 1.362 . S
H1904 C1910 0.930 1_565 S
H1905 C1913 0.930 . S
H1906 C1914 0.930 . S
H1907 C1915 0.930 . S
H1908 C1918 0.930 . S
H1909 C1919 0.930 . S
C1910 H1904 0.930 1_545 S
C1910 C1911 1.355 . S
C1910 C1912 1.415 . S
C1911 C1910 1.355 . S
C1911 C1913 1.419 . S
C1912 C1910 1.415 . S
C1912 C1917 1.425 1_556 S
C1912 C1919 1.409 1_546 S
C1913 H1905 0.930 . S
C1913 C1911 1.419 . S
C1913 C1914 1.362 . S
C1914 H1906 0.930 . S
C1914 C1913 1.362 . S
C1914 C1917 1.409 1_556 S
C1915 H1907 0.930 . S
C1915 C1916 1.355 . S
C1915 C1917 1.415 . S
C1916 C1915 1.355 . S
C1916 C1918 1.419 1_545 S
C1917 C1912 1.425 1_554 S
C1917 C1914 1.409 1_554 S
C1917 C1915 1.415 . S
C1918 H1908 0.930 . S
C1918 C1916 1.419 1_565 S
C1918 C1919 1.362 . S
C1919 H1909 0.930 . S
C1919 C1912 1.409 1_564 S
C1919 C1918 1.362 . S
H1920 C1926 0.930 . S
H1921 C1929 0.930 . S
H1922 C1930 0.930 . S
H1923 C1931 0.930 1_655 S
H1924 C1934 0.930 . S
H1925 C1935 0.930 . S
C1926 H1920 0.930 . S
C1926 C1927 1.355 . S
C1926 C1928 1.415 . S
C1927 C1926 1.355 . S
C1927 C1929 1.419 1_455 S
C1928 C1926 1.415 . S
C1928 C1933 1.425 1_556 S
C1928 C1935 1.409 1_556 S
C1929 H1921 0.930 . S
C1929 C1927 1.419 1_655 S
C1929 C1930 1.362 . S
C1930 H1922 0.930 . S
C1930 C1929 1.362 . S
C1930 C1933 1.409 1_656 S
C1931 H1923 0.930 1_455 S
C1931 C1932 1.355 . S
C1931 C1933 1.415 . S
C1932 C1931 1.355 . S
C1932 C1934 1.419 . S
C1933 C1928 1.425 1_554 S
C1933 C1930 1.409 1_454 S
C1933 C1931 1.415 . S
C1934 H1924 0.930 . S
C1934 C1932 1.419 . S
C1934 C1935 1.362 . S
C1935 H1925 0.930 . S
C1935 C1928 1.409 1_554 S
C1935 C1934 1.362 . S
H1936 C1942 0.930 . S
H1937 C1945 0.930 . S
H1938 C1946 0.930 . S
H1939 C1947 0.930 . S
H1940 C1950 0.930 . S
H1941 C1951 0.930 . S
C1942 H1936 0.930 . S
C1942 C1943 1.355 . S
C1942 C1944 1.415 . S
C1943 C1942 1.355 . S
C1943 C1945 1.419 . S
C1944 C1942 1.415 . S
C1944 C1949 1.425 1_554 S
C1944 C1951 1.409 1_554 S
C1945 H1937 0.930 . S
C1945 C1943 1.419 . S
C1945 C1946 1.362 . S
C1946 H1938 0.930 . S
C1946 C1945 1.362 . S
C1946 C1949 1.409 1_554 S
C1947 H1939 0.930 . S
C1947 C1948 1.355 . S
C1947 C1949 1.415 . S
C1948 C1947 1.355 . S
C1948 C1950 1.419 . S
C1949 C1944 1.425 1_556 S
C1949 C1946 1.409 1_556 S
C1949 C1947 1.415 . S
C1950 H1940 0.930 . S
C1950 C1948 1.419 . S
C1950 C1951 1.362 . S
C1951 H1941 0.930 . S
C1951 C1944 1.409 1_556 S
C1951 C1950 1.362 . S
H1952 C1958 0.930 1_565 S
H1953 C1961 0.930 . S
H1954 C1962 0.930 . S
H1955 C1963 0.930 . S
H1956 C1966 0.930 . S
H1957 C1967 0.930 . S
C1958 H1952 0.930 1_545 S
C1958 C1959 1.355 . S
C1958 C1960 1.415 . S
C1959 C1958 1.355 . S
C1959 C1961 1.419 . S
C1960 C1958 1.415 . S
C1960 C1965 1.425 1_556 S
C1960 C1967 1.409 1_546 S
C1961 H1953 0.930 . S
C1961 C1959 1.419 . S
C1961 C1962 1.362 . S
C1962 H1954 0.930 . S
C1962 C1961 1.362 . S
C1962 C1965 1.409 1_556 S
C1963 H1955 0.930 . S
C1963 C1964 1.355 . S
C1963 C1965 1.415 . S
C1964 C1963 1.355 . S
C1964 C1966 1.419 1_545 S
C1965 C1960 1.425 1_554 S
C1965 C1962 1.409 1_554 S
C1965 C1963 1.415 . S
C1966 H1956 0.930 . S
C1966 C1964 1.419 1_565 S
C1966 C1967 1.362 . S
C1967 H1957 0.930 . S
C1967 C1960 1.409 1_564 S
C1967 C1966 1.362 . S
H1968 C1974 0.930 . S
H1969 C1977 0.930 . S
H1970 C1978 0.930 . S
H1971 C1979 0.930 . S
H1972 C1982 0.930 . S
H1973 C1983 0.930 . S
C1974 H1968 0.930 . S
C1974 C1975 1.355 . S
C1974 C1976 1.415 . S
C1975 C1974 1.355 . S
C1975 C1977 1.419 . S
C1976 C1974 1.415 . S
C1976 C1981 1.425 . S
C1976 C1983 1.409 . S
C1977 H1969 0.930 . S
C1977 C1975 1.419 . S
C1977 C1978 1.362 . S
C1978 H1970 0.930 . S
C1978 C1977 1.362 . S
C1978 C1981 1.409 . S
C1979 H1971 0.930 . S
C1979 C1980 1.355 . S
C1979 C1981 1.415 . S
C1980 C1979 1.355 . S
C1980 C1982 1.419 . S
C1981 C1976 1.425 . S
C1981 C1978 1.409 . S
C1981 C1979 1.415 . S
C1982 H1972 0.930 . S
C1982 C1980 1.419 . S
C1982 C1983 1.362 . S
C1983 H1973 0.930 . S
C1983 C1976 1.409 . S
C1983 C1982 1.362 . S
H1984 C1990 0.930 . S
H1985 C1993 0.930 . S
H1986 C1994 0.930 . S
H1987 C1995 0.930 . S
H1988 C1998 0.930 . S
H1989 C1999 0.930 . S
C1990 H1984 0.930 . S
C1990 C1991 1.355 . S
C1990 C1992 1.415 . S
C1991 C1990 1.355 . S
C1991 C1993 1.419 . S
C1992 C1990 1.415 . S
C1992 C1997 1.425 . S
C1992 C1999 1.409 . S
C1993 H1985 0.930 . S
C1993 C1991 1.419 . S
C1993 C1994 1.362 . S
C1994 H1986 0.930 . S
C1994 C1993 1.362 . S
C1994 C1997 1.409 . S
C1995 H1987 0.930 . S
C1995 C1996 1.355 . S
C1995 C1997 1.415 . S
C1996 C1995 1.355 . S
C1996 C1998 1.419 . S
C1997 C1992 1.425 . S
C1997 C1994 1.409 . S
C1997 C1995 1.415 . S
C1998 H1988 0.930 . S
C1998 C1996 1.419 . S
C1998 C1999 1.362 . S
C1999 H1989 0.930 . S
C1999 C1992 1.409 . S
C1999 C1998 1.362 . S
H2000 C2006 0.930 . S
H2001 C2009 0.930 . S
H2002 C2010 0.930 . S
H2003 C2011 0.930 . S
H2004 C2014 0.930 . S
H2005 C2015 0.930 . S
C2006 H2000 0.930 . S
C2006 C2007 1.355 . S
C2006 C2008 1.415 . S
C2007 C2006 1.355 . S
C2007 C2009 1.419 1_655 S
C2008 C2006 1.415 . S
C2008 C2013 1.428 1_655 S
C2008 C2015 1.409 . S
C2009 H2001 0.930 . S
C2009 C2007 1.419 1_455 S
C2009 C2010 1.362 . S
C2010 H2002 0.930 . S
C2010 C2009 1.362 . S
C2010 C2013 1.407 . S
C2011 H2003 0.930 . S
C2011 C2012 1.355 1_455 S
C2011 C2013 1.414 . S
C2012 C2011 1.355 1_655 S
C2012 C2014 1.419 . S
C2013 C2008 1.428 1_455 S
C2013 C2010 1.407 . S
C2013 C2011 1.414 . S
C2014 H2004 0.930 . S
C2014 C2012 1.419 . S
C2014 C2015 1.362 . S
C2015 H2005 0.930 . S
C2015 C2008 1.409 . S
C2015 C2014 1.362 . S
H2016 C2022 0.930 . S
H2017 C2025 0.930 . S
H2018 C2026 0.930 . S
H2019 C2027 0.930 . S
H2020 C2030 0.930 . S
H2021 C2031 0.930 . S
C2022 H2016 0.930 . S
C2022 C2023 1.355 . S
C2022 C2024 1.415 . S
C2023 C2022 1.355 . S
C2023 C2025 1.419 . S
C2024 C2022 1.415 . S
C2024 C2029 1.425 . S
C2024 C2031 1.409 . S
C2025 H2017 0.930 . S
C2025 C2023 1.419 . S
C2025 C2026 1.362 . S
C2026 H2018 0.930 . S
C2026 C2025 1.362 . S
C2026 C2029 1.409 . S
C2027 H2019 0.930 . S
C2027 C2028 1.355 . S
C2027 C2029 1.415 . S
C2028 C2027 1.355 . S
C2028 C2030 1.419 . S
C2029 C2024 1.425 . S
C2029 C2026 1.409 . S
C2029 C2027 1.415 . S
C2030 H2020 0.930 . S
C2030 C2028 1.419 . S
C2030 C2031 1.362 . S
C2031 H2021 0.930 . S
C2031 C2024 1.409 . S
C2031 C2030 1.362 . S
H2032 C2038 0.930 . S
H2033 C2041 0.930 . S
H2034 C2042 0.930 . S
H2035 C2043 0.923 1_455 S
H2036 C2046 0.930 . S
H2037 C2047 0.930 . S
C2038 H2032 0.930 . S
C2038 C2039 1.355 . S
C2038 C2040 1.415 . S
C2039 C2038 1.355 . S
C2039 C2041 1.419 1_655 S
C2040 C2038 1.415 . S
C2040 C2045 1.425 . S
C2040 C2047 1.409 . S
C2041 H2033 0.930 . S
C2041 C2039 1.419 1_455 S
C2041 C2042 1.362 . S
C2042 H2034 0.930 . S
C2042 C2041 1.362 . S
C2042 C2045 1.409 1_455 S
C2043 H2035 0.923 1_655 S
C2043 C2044 1.361 . S
C2043 C2045 1.416 . S
C2044 C2043 1.361 . S
C2044 C2046 1.419 . S
C2045 C2040 1.425 . S
C2045 C2042 1.409 1_655 S
C2045 C2043 1.416 . S
C2046 H2036 0.930 . S
C2046 C2044 1.419 . S
C2046 C2047 1.362 . S
C2047 H2037 0.930 . S
C2047 C2040 1.409 . S
C2047 C2046 1.362 . S
H2048 C2054 0.930 . S
H2049 C2057 0.930 . S
H2050 C2058 0.930 . S
H2051 C2059 0.930 . S
H2052 C2062 0.930 . S
H2053 C2063 0.930 . S
C2054 H2048 0.930 . S
C2054 C2055 1.355 . S
C2054 C2056 1.415 . S
C2055 C2054 1.355 . S
C2055 C2057 1.419 . S
C2056 C2054 1.415 . S
C2056 C2061 1.425 . S
C2056 C2063 1.409 . S
C2057 H2049 0.930 . S
C2057 C2055 1.419 . S
C2057 C2058 1.362 . S
C2058 H2050 0.930 . S
C2058 C2057 1.362 . S
C2058 C2061 1.409 . S
C2059 H2051 0.930 . S
C2059 C2060 1.355 . S
C2059 C2061 1.415 . S
C2060 C2059 1.355 . S
C2060 C2062 1.419 . S
C2061 C2056 1.425 . S
C2061 C2058 1.409 . S
C2061 C2059 1.415 . S
C2062 H2052 0.930 . S
C2062 C2060 1.419 . S
C2062 C2063 1.362 . S
C2063 H2053 0.930 . S
C2063 C2056 1.409 . S
C2063 C2062 1.362 . S
H2064 C2070 0.930 . S
H2065 C2073 0.930 . S
H2066 C2074 0.930 . S
H2067 C2075 0.941 . S
H2068 C2078 0.930 . S
H2069 C2079 0.930 . S
C2070 H2064 0.930 . S
C2070 C2071 1.355 . S
C2070 C2072 1.415 . S
C2071 C2070 1.355 . S
C2071 C2073 1.419 1_565 S
C2072 C2070 1.415 . S
C2072 C2077 1.425 . S
C2072 C2079 1.409 . S
C2073 H2065 0.930 . S
C2073 C2071 1.419 1_545 S
C2073 C2074 1.362 . S
C2074 H2066 0.930 . S
C2074 C2073 1.362 . S
C2074 C2077 1.409 1_545 S
C2075 H2067 0.941 . S
C2075 C2076 1.347 1_545 S
C2075 C2077 1.412 1_545 S
C2076 C2075 1.347 1_565 S
C2076 C2078 1.419 . S
C2077 C2072 1.425 . S
C2077 C2074 1.409 1_565 S
C2077 C2075 1.412 1_565 S
C2078 H2068 0.930 . S
C2078 C2076 1.419 . S
C2078 C2079 1.362 . S
C2079 H2069 0.930 . S
C2079 C2072 1.409 . S
C2079 C2078 1.362 . S
H2080 C2086 0.930 . S
H2081 C2089 0.930 . S
H2082 C2090 0.930 . S
H2083 C2091 0.930 . S
H2084 C2094 0.930 . S
H2085 C2095 0.930 . S
C2086 H2080 0.930 . S
C2086 C2087 1.355 . S
C2086 C2088 1.415 . S
C2087 C2086 1.355 . S
C2087 C2089 1.419 . S
C2088 C2086 1.415 . S
C2088 C2093 1.425 . S
C2088 C2095 1.409 . S
C2089 H2081 0.930 . S
C2089 C2087 1.419 . S
C2089 C2090 1.362 . S
C2090 H2082 0.930 . S
C2090 C2089 1.362 . S
C2090 C2093 1.409 . S
C2091 H2083 0.930 . S
C2091 C2092 1.355 . S
C2091 C2093 1.415 . S
C2092 C2091 1.355 . S
C2092 C2094 1.419 . S
C2093 C2088 1.425 . S
C2093 C2090 1.409 . S
C2093 C2091 1.415 . S
C2094 H2084 0.930 . S
C2094 C2092 1.419 . S
C2094 C2095 1.362 . S
C2095 H2085 0.930 . S
C2095 C2088 1.409 . S
C2095 C2094 1.362 . S
H2096 C2102 0.930 . S
H2097 C2105 0.930 . S
H2098 C2106 0.930 . S
H2099 C2107 0.930 . S
H2100 C2110 0.930 . S
H2101 C2111 0.930 . S
C2102 H2096 0.930 . S
C2102 C2103 1.355 . S
C2102 C2104 1.415 . S
C2103 C2102 1.355 . S
C2103 C2105 1.419 . S
C2104 C2102 1.415 . S
C2104 C2109 1.425 . S
C2104 C2111 1.409 . S
C2105 H2097 0.930 . S
C2105 C2103 1.419 . S
C2105 C2106 1.362 . S
C2106 H2098 0.930 . S
C2106 C2105 1.362 . S
C2106 C2109 1.409 . S
C2107 H2099 0.930 . S
C2107 C2108 1.355 . S
C2107 C2109 1.415 . S
C2108 C2107 1.355 . S
C2108 C2110 1.419 . S
C2109 C2104 1.425 . S
C2109 C2106 1.409 . S
C2109 C2107 1.415 . S
C2110 H2100 0.930 . S
C2110 C2108 1.419 . S
C2110 C2111 1.362 . S
C2111 H2101 0.930 . S
C2111 C2104 1.409 . S
C2111 C2110 1.362 . S
H2112 C2118 0.930 . S
H2113 C2121 0.930 . S
H2114 C2122 0.930 . S
H2115 C2123 0.930 . S
H2116 C2126 0.930 . S
H2117 C2127 0.930 . S
C2118 H2112 0.930 . S
C2118 C2119 1.355 . S
C2118 C2120 1.415 . S
C2119 C2118 1.355 . S
C2119 C2121 1.419 . S
C2120 C2118 1.415 . S
C2120 C2125 1.425 . S
C2120 C2127 1.409 . S
C2121 H2113 0.930 . S
C2121 C2119 1.419 . S
C2121 C2122 1.362 . S
C2122 H2114 0.930 . S
C2122 C2121 1.362 . S
C2122 C2125 1.409 . S
C2123 H2115 0.930 . S
C2123 C2124 1.355 . S
C2123 C2125 1.415 . S
C2124 C2123 1.355 . S
C2124 C2126 1.419 . S
C2125 C2120 1.425 . S
C2125 C2122 1.409 . S
C2125 C2123 1.415 . S
C2126 H2116 0.930 . S
C2126 C2124 1.419 . S
C2126 C2127 1.362 . S
C2127 H2117 0.930 . S
C2127 C2120 1.409 . S
C2127 C2126 1.362 . S
H2128 C2134 0.930 . S
H2129 C2137 0.930 . S
H2130 C2138 0.930 . S
H2131 C2139 0.930 . S
H2132 C2142 0.930 . S
H2133 C2143 0.930 . S
C2134 H2128 0.930 . S
C2134 C2135 1.355 . S
C2134 C2136 1.415 . S
C2135 C2134 1.355 . S
C2135 C2137 1.419 1_565 S
C2136 C2134 1.415 . S
C2136 C2141 1.425 . S
C2136 C2143 1.409 . S
C2137 H2129 0.930 . S
C2137 C2135 1.419 1_545 S
C2137 C2138 1.362 . S
C2138 H2130 0.930 . S
C2138 C2137 1.362 . S
C2138 C2141 1.409 1_545 S
C2139 H2131 0.930 . S
C2139 C2140 1.355 1_545 S
C2139 C2141 1.415 1_545 S
C2140 C2139 1.355 1_565 S
C2140 C2142 1.419 . S
C2141 C2136 1.425 . S
C2141 C2138 1.409 1_565 S
C2141 C2139 1.415 1_565 S
C2142 H2132 0.930 . S
C2142 C2140 1.419 . S
C2142 C2143 1.362 . S
C2143 H2133 0.930 . S
C2143 C2136 1.409 . S
C2143 C2142 1.362 . S
H2144 C2150 0.930 . S
H2145 C2153 0.930 . S
H2146 C2154 0.930 . S
H2147 C2155 0.930 . S
H2148 C2158 0.930 . S
H2149 C2159 0.930 . S
C2150 H2144 0.930 . S
C2150 C2151 1.355 . S
C2150 C2152 1.415 . S
C2151 C2150 1.355 . S
C2151 C2153 1.419 . S
C2152 C2150 1.415 . S
C2152 C2157 1.425 . S
C2152 C2159 1.409 . S
C2153 H2145 0.930 . S
C2153 C2151 1.419 . S
C2153 C2154 1.362 . S
C2154 H2146 0.930 . S
C2154 C2153 1.362 . S
C2154 C2157 1.409 . S
C2155 H2147 0.930 . S
C2155 C2156 1.355 . S
C2155 C2157 1.415 . S
C2156 C2155 1.355 . S
C2156 C2158 1.419 . S
C2157 C2152 1.425 . S
C2157 C2154 1.409 . S
C2157 C2155 1.415 . S
C2158 H2148 0.930 . S
C2158 C2156 1.419 . S
C2158 C2159 1.362 . S
C2159 H2149 0.930 . S
C2159 C2152 1.409 . S
C2159 C2158 1.362 . S
H2160 C2166 0.930 . S
H2161 C2169 0.930 . S
H2162 C2170 0.930 . S
H2163 C2171 0.930 . S
H2164 C2174 0.930 . S
H2165 C2175 0.930 . S
C2166 H2160 0.930 . S
C2166 C2167 1.355 . S
C2166 C2168 1.415 . S
C2167 C2166 1.355 . S
C2167 C2169 1.419 . S
C2168 C2166 1.415 . S
C2168 C2173 1.425 . S
C2168 C2175 1.409 . S
C2169 H2161 0.930 . S
C2169 C2167 1.419 . S
C2169 C2170 1.362 . S
C2170 H2162 0.930 . S
C2170 C2169 1.362 . S
C2170 C2173 1.409 . S
C2171 H2163 0.930 . S
C2171 C2172 1.355 . S
C2171 C2173 1.415 . S
C2172 C2171 1.355 . S
C2172 C2174 1.419 . S
C2173 C2168 1.425 . S
C2173 C2170 1.409 . S
C2173 C2171 1.415 . S
C2174 H2164 0.930 . S
C2174 C2172 1.419 . S
C2174 C2175 1.362 . S
C2175 H2165 0.930 . S
C2175 C2168 1.409 . S
C2175 C2174 1.362 . S
H2176 C2182 0.930 . S
H2177 C2185 0.930 . S
H2178 C2186 0.930 . S
H2179 C2187 0.930 . S
H2180 C2190 0.930 . S
H2181 C2191 0.930 . S
C2182 H2176 0.930 . S
C2182 C2183 1.355 . S
C2182 C2184 1.415 . S
C2183 C2182 1.355 . S
C2183 C2185 1.419 . S
C2184 C2182 1.415 . S
C2184 C2189 1.425 . S
C2184 C2191 1.409 . S
C2185 H2177 0.930 . S
C2185 C2183 1.419 . S
C2185 C2186 1.362 . S
C2186 H2178 0.930 . S
C2186 C2185 1.362 . S
C2186 C2189 1.409 . S
C2187 H2179 0.930 . S
C2187 C2188 1.355 . S
C2187 C2189 1.415 . S
C2188 C2187 1.355 . S
C2188 C2190 1.419 . S
C2189 C2184 1.425 . S
C2189 C2186 1.409 . S
C2189 C2187 1.415 . S
C2190 H2180 0.930 . S
C2190 C2188 1.419 . S
C2190 C2191 1.362 . S
C2191 H2181 0.930 . S
C2191 C2184 1.409 . S
C2191 C2190 1.362 . S
H2192 C2198 0.930 . S
H2193 C2201 0.930 . S
H2194 C2202 0.930 . S
H2195 C2203 0.930 . S
H2196 C2206 0.930 . S
H2197 C2207 0.930 . S
C2198 H2192 0.930 . S
C2198 C2199 1.355 . S
C2198 C2200 1.415 . S
C2199 C2198 1.355 . S
C2199 C2201 1.419 . S
C2200 C2198 1.415 . S
C2200 C2205 1.425 . S
C2200 C2207 1.409 . S
C2201 H2193 0.930 . S
C2201 C2199 1.419 . S
C2201 C2202 1.362 . S
C2202 H2194 0.930 . S
C2202 C2201 1.362 . S
C2202 C2205 1.409 . S
C2203 H2195 0.930 . S
C2203 C2204 1.355 . S
C2203 C2205 1.415 . S
C2204 C2203 1.355 . S
C2204 C2206 1.419 . S
C2205 C2200 1.425 . S
C2205 C2202 1.409 . S
C2205 C2203 1.415 . S
C2206 H2196 0.930 . S
C2206 C2204 1.419 . S
C2206 C2207 1.362 . S
C2207 H2197 0.930 . S
C2207 C2200 1.409 . S
C2207 C2206 1.362 . S
H2208 C2214 0.930 . S
H2209 C2217 0.930 . S
H2210 C2218 0.930 . S
H2211 C2219 0.930 . S
H2212 C2222 0.930 . S
H2213 C2223 0.930 . S
C2214 H2208 0.930 . S
C2214 C2215 1.355 . S
C2214 C2216 1.415 . S
C2215 C2214 1.355 . S
C2215 C2217 1.419 . S
C2216 C2214 1.415 . S
C2216 C2221 1.425 . S
C2216 C2223 1.409 . S
C2217 H2209 0.930 . S
C2217 C2215 1.419 . S
C2217 C2218 1.362 . S
C2218 H2210 0.930 . S
C2218 C2217 1.362 . S
C2218 C2221 1.409 . S
C2219 H2211 0.930 . S
C2219 C2220 1.355 . S
C2219 C2221 1.415 . S
C2220 C2219 1.355 . S
C2220 C2222 1.419 . S
C2221 C2216 1.425 . S
C2221 C2218 1.409 . S
C2221 C2219 1.415 . S
C2222 H2212 0.930 . S
C2222 C2220 1.419 . S
C2222 C2223 1.362 . S
C2223 H2213 0.930 . S
C2223 C2216 1.409 . S
C2223 C2222 1.362 . S
H2224 C2230 0.930 . S
H2225 C2233 0.930 . S
H2226 C2234 0.930 . S
H2227 C2235 0.930 . S
H2228 C2238 0.930 . S
H2229 C2239 0.930 . S
C2230 H2224 0.930 . S
C2230 C2231 1.355 . S
C2230 C2232 1.415 . S
C2231 C2230 1.355 . S
C2231 C2233 1.419 . S
C2232 C2230 1.415 . S
C2232 C2237 1.425 . S
C2232 C2239 1.409 . S
C2233 H2225 0.930 . S
C2233 C2231 1.419 . S
C2233 C2234 1.362 . S
C2234 H2226 0.930 . S
C2234 C2233 1.362 . S
C2234 C2237 1.409 . S
C2235 H2227 0.930 . S
C2235 C2236 1.355 . S
C2235 C2237 1.415 . S
C2236 C2235 1.355 . S
C2236 C2238 1.419 . S
C2237 C2232 1.425 . S
C2237 C2234 1.409 . S
C2237 C2235 1.415 . S
C2238 H2228 0.930 . S
C2238 C2236 1.419 . S
C2238 C2239 1.362 . S
C2239 H2229 0.930 . S
C2239 C2232 1.409 . S
C2239 C2238 1.362 . S
H2240 C2246 0.930 . S
H2241 C2249 0.930 . S
H2242 C2250 0.930 . S
H2243 C2251 0.930 . S
H2244 C2254 0.930 . S
H2245 C2255 0.930 . S
C2246 H2240 0.930 . S
C2246 C2247 1.355 . S
C2246 C2248 1.415 . S
C2247 C2246 1.355 . S
C2247 C2249 1.419 . S
C2248 C2246 1.415 . S
C2248 C2253 1.425 . S
C2248 C2255 1.409 . S
C2249 H2241 0.930 . S
C2249 C2247 1.419 . S
C2249 C2250 1.362 . S
C2250 H2242 0.930 . S
C2250 C2249 1.362 . S
C2250 C2253 1.409 . S
C2251 H2243 0.930 . S
C2251 C2252 1.355 . S
C2251 C2253 1.415 . S
C2252 C2251 1.355 . S
C2252 C2254 1.419 . S
C2253 C2248 1.425 . S
C2253 C2250 1.409 . S
C2253 C2251 1.415 . S
C2254 H2244 0.930 . S
C2254 C2252 1.419 . S
C2254 C2255 1.362 . S
C2255 H2245 0.930 . S
C2255 C2248 1.409 . S
C2255 C2254 1.362 . S
H2256 C2262 0.930 . S
H2257 C2265 0.930 . S
H2258 C2266 0.930 . S
H2259 C2267 0.930 . S
H2260 C2270 0.930 . S
H2261 C2271 0.930 . S
C2262 H2256 0.930 . S
C2262 C2263 1.355 . S
C2262 C2264 1.415 . S
C2263 C2262 1.355 . S
C2263 C2265 1.419 . S
C2264 C2262 1.415 . S
C2264 C2269 1.425 . S
C2264 C2271 1.409 . S
C2265 H2257 0.930 . S
C2265 C2263 1.419 . S
C2265 C2266 1.362 . S
C2266 H2258 0.930 . S
C2266 C2265 1.362 . S
C2266 C2269 1.409 . S
C2267 H2259 0.930 . S
C2267 C2268 1.355 . S
C2267 C2269 1.415 . S
C2268 C2267 1.355 . S
C2268 C2270 1.419 . S
C2269 C2264 1.425 . S
C2269 C2266 1.409 . S
C2269 C2267 1.415 . S
C2270 H2260 0.930 . S
C2270 C2268 1.419 . S
C2270 C2271 1.362 . S
C2271 H2261 0.930 . S
C2271 C2264 1.409 . S
C2271 C2270 1.362 . S
H2272 C2278 0.930 . S
H2273 C2281 0.930 . S
H2274 C2282 0.930 . S
H2275 C2283 0.930 . S
H2276 C2286 0.930 . S
H2277 C2287 0.930 . S
C2278 H2272 0.930 . S
C2278 C2279 1.355 . S
C2278 C2280 1.415 . S
C2279 C2278 1.355 . S
C2279 C2281 1.419 . S
C2280 C2278 1.415 . S
C2280 C2285 1.425 . S
C2280 C2287 1.409 . S
C2281 H2273 0.930 . S
C2281 C2279 1.419 . S
C2281 C2282 1.362 . S
C2282 H2274 0.930 . S
C2282 C2281 1.362 . S
C2282 C2285 1.409 . S
C2283 H2275 0.930 . S
C2283 C2284 1.355 . S
C2283 C2285 1.415 . S
C2284 C2283 1.355 . S
C2284 C2286 1.419 . S
C2285 C2280 1.425 . S
C2285 C2282 1.409 . S
C2285 C2283 1.415 . S
C2286 H2276 0.930 . S
C2286 C2284 1.419 . S
C2286 C2287 1.362 . S
C2287 H2277 0.930 . S
C2287 C2280 1.409 . S
C2287 C2286 1.362 . S
H2288 C2294 0.930 . S
H2289 C2297 0.930 . S
H2290 C2298 0.930 1_455 S
H2291 C2299 0.930 . S
H2292 C2302 0.930 . S
H2293 C2303 0.930 . S
C2294 H2288 0.930 . S
C2294 C2295 1.355 . S
C2294 C2296 1.415 . S
C2295 C2294 1.355 . S
C2295 C2297 1.419 . S
C2296 C2294 1.415 . S
C2296 C2301 1.425 . S
C2296 C2303 1.409 . S
C2297 H2289 0.930 . S
C2297 C2295 1.419 . S
C2297 C2298 1.362 . S
C2298 H2290 0.930 1_655 S
C2298 C2297 1.362 . S
C2298 C2301 1.409 . S
C2299 H2291 0.930 . S
C2299 C2300 1.355 . S
C2299 C2301 1.415 . S
C2300 C2299 1.355 . S
C2300 C2302 1.419 . S
C2301 C2296 1.425 . S
C2301 C2298 1.409 . S
C2301 C2299 1.415 . S
C2302 H2292 0.930 . S
C2302 C2300 1.419 . S
C2302 C2303 1.362 . S
C2303 H2293 0.930 . S
C2303 C2296 1.409 . S
C2303 C2302 1.362 . S
H2304 C2310 0.930 . S
H2305 C2313 0.930 . S
H2306 C2314 0.930 . S
H2307 C2315 0.930 . S
H2308 C2318 0.930 . S
H2309 C2319 0.930 . S
C2310 H2304 0.930 . S
C2310 C2311 1.355 . S
C2310 C2312 1.415 . S
C2311 C2310 1.355 . S
C2311 C2313 1.419 . S
C2312 C2310 1.415 . S
C2312 C2317 1.425 . S
C2312 C2319 1.409 . S
C2313 H2305 0.930 . S
C2313 C2311 1.419 . S
C2313 C2314 1.362 . S
C2314 H2306 0.930 . S
C2314 C2313 1.362 . S
C2314 C2317 1.409 . S
C2315 H2307 0.930 . S
C2315 C2316 1.355 . S
C2315 C2317 1.415 . S
C2316 C2315 1.355 . S
C2316 C2318 1.419 . S
C2317 C2312 1.425 . S
C2317 C2314 1.409 . S
C2317 C2315 1.415 . S
C2318 H2308 0.930 . S
C2318 C2316 1.419 . S
C2318 C2319 1.362 . S
C2319 H2309 0.930 . S
C2319 C2312 1.409 . S
C2319 C2318 1.362 . S
H2320 C2326 0.930 . S
H2321 C2329 0.930 . S
H2322 C2330 0.930 . S
H2323 C2331 0.930 . S
H2324 C2334 0.930 . S
H2325 C2335 0.930 . S
C2326 H2320 0.930 . S
C2326 C2327 1.355 . S
C2326 C2328 1.415 . S
C2327 C2326 1.355 . S
C2327 C2329 1.419 . S
C2328 C2326 1.415 . S
C2328 C2333 1.425 . S
C2328 C2335 1.409 . S
C2329 H2321 0.930 . S
C2329 C2327 1.419 . S
C2329 C2330 1.362 . S
C2330 H2322 0.930 . S
C2330 C2329 1.362 . S
C2330 C2333 1.409 . S
C2331 H2323 0.930 . S
C2331 C2332 1.355 . S
C2331 C2333 1.415 . S
C2332 C2331 1.355 . S
C2332 C2334 1.419 . S
C2333 C2328 1.425 . S
C2333 C2330 1.409 . S
C2333 C2331 1.415 . S
C2334 H2324 0.930 . S
C2334 C2332 1.419 . S
C2334 C2335 1.362 . S
C2335 H2325 0.930 . S
C2335 C2328 1.409 . S
C2335 C2334 1.362 . S
H2336 C2342 0.930 . S
H2337 C2345 0.930 . S
H2338 C2346 0.930 . S
H2339 C2347 0.930 . S
H2340 C2350 0.930 . S
H2341 C2351 0.930 . S
C2342 H2336 0.930 . S
C2342 C2343 1.355 . S
C2342 C2344 1.415 . S
C2343 C2342 1.355 . S
C2343 C2345 1.419 . S
C2344 C2342 1.415 . S
C2344 C2349 1.425 . S
C2344 C2351 1.409 . S
C2345 H2337 0.930 . S
C2345 C2343 1.419 . S
C2345 C2346 1.362 . S
C2346 H2338 0.930 . S
C2346 C2345 1.362 . S
C2346 C2349 1.409 . S
C2347 H2339 0.930 . S
C2347 C2348 1.355 . S
C2347 C2349 1.415 . S
C2348 C2347 1.355 . S
C2348 C2350 1.419 . S
C2349 C2344 1.425 . S
C2349 C2346 1.409 . S
C2349 C2347 1.415 . S
C2350 H2340 0.930 . S
C2350 C2348 1.419 . S
C2350 C2351 1.362 . S
C2351 H2341 0.930 . S
C2351 C2344 1.409 . S
C2351 C2350 1.362 . S
H2352 C2358 0.930 . S
H2353 C2361 0.930 . S
H2354 C2362 0.930 . S
H2355 C2363 0.930 . S
H2356 C2366 0.930 . S
H2357 C2367 0.930 . S
C2358 H2352 0.930 . S
C2358 C2359 1.355 . S
C2358 C2360 1.415 . S
C2359 C2358 1.355 . S
C2359 C2361 1.419 . S
C2360 C2358 1.415 . S
C2360 C2365 1.425 . S
C2360 C2367 1.409 . S
C2361 H2353 0.930 . S
C2361 C2359 1.419 . S
C2361 C2362 1.362 . S
C2362 H2354 0.930 . S
C2362 C2361 1.362 . S
C2362 C2365 1.409 . S
C2363 H2355 0.930 . S
C2363 C2364 1.355 . S
C2363 C2365 1.415 . S
C2364 C2363 1.355 . S
C2364 C2366 1.419 . S
C2365 C2360 1.425 . S
C2365 C2362 1.409 . S
C2365 C2363 1.415 . S
C2366 H2356 0.930 . S
C2366 C2364 1.419 . S
C2366 C2367 1.362 . S
C2367 H2357 0.930 . S
C2367 C2360 1.409 . S
C2367 C2366 1.362 . S
H2368 C2374 0.930 . S
H2369 C2377 0.930 . S
H2370 C2378 0.930 . S
H2371 C2379 0.930 . S
H2372 C2382 0.930 . S
H2373 C2383 0.930 . S
C2374 H2368 0.930 . S
C2374 C2375 1.355 . S
C2374 C2376 1.415 . S
C2375 C2374 1.355 . S
C2375 C2377 1.419 . S
C2376 C2374 1.415 . S
C2376 C2381 1.425 . S
C2376 C2383 1.409 . S
C2377 H2369 0.930 . S
C2377 C2375 1.419 . S
C2377 C2378 1.362 . S
C2378 H2370 0.930 . S
C2378 C2377 1.362 . S
C2378 C2381 1.409 . S
C2379 H2371 0.930 . S
C2379 C2380 1.355 . S
C2379 C2381 1.415 . S
C2380 C2379 1.355 . S
C2380 C2382 1.419 . S
C2381 C2376 1.425 . S
C2381 C2378 1.409 . S
C2381 C2379 1.415 . S
C2382 H2372 0.930 . S
C2382 C2380 1.419 . S
C2382 C2383 1.362 . S
C2383 H2373 0.930 . S
C2383 C2376 1.409 . S
C2383 C2382 1.362 . S
H2384 C2390 0.930 . S
H2385 C2393 0.930 . S
H2386 C2394 0.930 . S
H2387 C2395 0.930 . S
H2388 C2398 0.930 . S
H2389 C2399 0.930 . S
C2390 H2384 0.930 . S
C2390 C2391 1.355 . S
C2390 C2392 1.415 . S
C2391 C2390 1.355 . S
C2391 C2393 1.419 . S
C2392 C2390 1.415 . S
C2392 C2397 1.425 . S
C2392 C2399 1.409 . S
C2393 H2385 0.930 . S
C2393 C2391 1.419 . S
C2393 C2394 1.362 . S
C2394 H2386 0.930 . S
C2394 C2393 1.362 . S
C2394 C2397 1.409 . S
C2395 H2387 0.930 . S
C2395 C2396 1.355 . S
C2395 C2397 1.415 . S
C2396 C2395 1.355 . S
C2396 C2398 1.419 . S
C2397 C2392 1.425 . S
C2397 C2394 1.409 . S
C2397 C2395 1.415 . S
C2398 H2388 0.930 . S
C2398 C2396 1.419 . S
C2398 C2399 1.362 . S
C2399 H2389 0.930 . S
C2399 C2392 1.409 . S
C2399 C2398 1.362 . S
H2400 C2406 0.930 . S
H2401 C2409 0.930 . S
H2402 C2410 0.930 . S
H2403 C2411 0.930 . S
H2404 C2414 0.930 . S
H2405 C2415 0.930 . S
C2406 H2400 0.930 . S
C2406 C2407 1.355 . S
C2406 C2408 1.415 . S
C2407 C2406 1.355 . S
C2407 C2409 1.419 . S
C2408 C2406 1.415 . S
C2408 C2413 1.425 . S
C2408 C2415 1.409 . S
C2409 H2401 0.930 . S
C2409 C2407 1.419 . S
C2409 C2410 1.362 . S
C2410 H2402 0.930 . S
C2410 C2409 1.362 . S
C2410 C2413 1.409 . S
C2411 H2403 0.930 . S
C2411 C2412 1.355 . S
C2411 C2413 1.415 . S
C2412 C2411 1.355 . S
C2412 C2414 1.419 . S
C2413 C2408 1.425 . S
C2413 C2410 1.409 . S
C2413 C2411 1.415 . S
C2414 H2404 0.930 . S
C2414 C2412 1.419 . S
C2414 C2415 1.362 . S
C2415 H2405 0.930 . S
C2415 C2408 1.409 . S
C2415 C2414 1.362 . S
H2416 C2422 0.930 . S
H2417 C2425 0.930 . S
H2418 C2426 0.930 . S
H2419 C2427 0.930 . S
H2420 C2430 0.930 . S
H2421 C2431 0.930 . S
C2422 H2416 0.930 . S
C2422 C2423 1.355 . S
C2422 C2424 1.415 . S
C2423 C2422 1.355 . S
C2423 C2425 1.419 . S
C2424 C2422 1.415 . S
C2424 C2429 1.425 . S
C2424 C2431 1.409 . S
C2425 H2417 0.930 . S
C2425 C2423 1.419 . S
C2425 C2426 1.362 . S
C2426 H2418 0.930 . S
C2426 C2425 1.362 . S
C2426 C2429 1.409 . S
C2427 H2419 0.930 . S
C2427 C2428 1.355 . S
C2427 C2429 1.415 . S
C2428 C2427 1.355 . S
C2428 C2430 1.419 . S
C2429 C2424 1.425 . S
C2429 C2426 1.409 . S
C2429 C2427 1.415 . S
C2430 H2420 0.930 . S
C2430 C2428 1.419 . S
C2430 C2431 1.362 . S
C2431 H2421 0.930 . S
C2431 C2424 1.409 . S
C2431 C2430 1.362 . S
H2432 C2438 0.930 . S
H2433 C2441 0.930 . S
H2434 C2442 0.930 . S
H2435 C2443 0.930 . S
H2436 C2446 0.930 . S
H2437 C2447 0.930 . S
C2438 H2432 0.930 . S
C2438 C2439 1.355 . S
C2438 C2440 1.415 . S
C2439 C2438 1.355 . S
C2439 C2441 1.419 . S
C2440 C2438 1.415 . S
C2440 C2445 1.425 . S
C2440 C2447 1.409 . S
C2441 H2433 0.930 . S
C2441 C2439 1.419 . S
C2441 C2442 1.362 . S
C2442 H2434 0.930 . S
C2442 C2441 1.362 . S
C2442 C2445 1.409 . S
C2443 H2435 0.930 . S
C2443 C2444 1.355 . S
C2443 C2445 1.415 . S
C2444 C2443 1.355 . S
C2444 C2446 1.419 . S
C2445 C2440 1.425 . S
C2445 C2442 1.409 . S
C2445 C2443 1.415 . S
C2446 H2436 0.930 . S
C2446 C2444 1.419 . S
C2446 C2447 1.362 . S
C2447 H2437 0.930 . S
C2447 C2440 1.409 . S
C2447 C2446 1.362 . S
C1303 C14 1.350 . S
C1308 C410 1.417 . S
C1319 C338 1.352 . S
C1324 C50 1.416 . S
C1335 C374 1.405 . S
C1340 C86 1.363 . S
C1351 C122 1.359 . S
C1356 C266 1.409 . S
C1367 C158 1.420 . S
C1372 C302 1.348 . S
C1383 C194 1.346 . S
C1388 C230 1.421 . S
C1399 C446 1.346 . S
C1404 C842 1.422 . S
C1415 C770 1.382 . S
C1420 C482 1.386 . S
C1431 C518 1.414 . S
C1436 C806 1.353 . S
C1447 C554 1.342 . S
C1452 C698 1.425 . S
C1463 C590 1.349 . S
C1468 C734 1.418 . S
C1479 C626 1.351 . S
C1484 C662 1.416 . S
C1495 C878 1.408 . S
C1500 C1274 1.360 . S
C1511 C914 1.345 . S
C1516 C1202 1.423 . S
C1527 C1238 1.356 . S
C1532 C950 1.411 . S
C1543 C986 1.367 . S
C1548 C1130 1.401 . S
C1559 C1166 1.340 . S
C1564 C1022 1.427 . S
C1575 C1094 1.416 . S
C1580 C1058 1.351 . S
C1591 C3 1.293 . S
C1596 C543 1.282 1_455 S
C1607 C39 1.243 . S
C1612 C579 1.252 . S
C1623 C75 1.248 . S
C1628 C615 1.267 . S
C1639 C111 1.266 . S
C1644 C867 1.286 1_545 S
C1655 C903 1.280 . S
C1660 C147 1.292 . S
C1671 C939 1.288 . S
C1676 C183 1.292 . S
C1687 C219 1.283 . S
C1692 C1191 1.293 . S
C1703 C1227 1.267 . S
C1708 C255 1.287 . S
C1719 C291 1.273 . S
C1724 C1263 1.254 1_545 S
C1735 C327 1.244 . S
C1740 C651 1.260 . S
C1751 C363 1.243 . S
C1756 C687 1.252 1_455 S
C1767 C399 1.291 . S
C1772 C723 1.276 . S
C1783 C975 1.265 . S
C1788 C435 1.246 . S
C1799 C471 1.261 . S
C1804 C1011 1.245 . S
C1815 C507 1.257 . S
C1820 C1047 1.243 . S
C1831 C1083 1.261 . S
C1836 C759 1.245 . S
C1847 C1119 1.293 . S
C1852 C795 1.282 . S
C1863 C831 1.290 . S
C1868 C1155 1.291 . S
C1879 C4 1.340 . S
C1884 C148 1.273 . S
C1895 C184 1.313 . S
C1900 C40 1.322 . S
C1911 C112 1.321 . S
C1916 C76 1.315 . S
C1927 C220 1.337 . S
C1932 C364 1.295 . S
C1943 C400 1.334 . S
C1948 C256 1.274 . S
C1959 C292 1.337 . S
C1964 C328 1.296 . S
C1975 C580 1.343 . S
C1980 C436 1.285 . S
C1991 C472 1.295 . S
C1996 C616 1.337 . S
C2007 C508 1.344 . S
C2012 C544 1.275 . S
C2023 C796 1.289 . S
C2028 C652 1.313 . S
C2039 C832 1.343 . S
C2044 C688 1.273 . S
C2055 C760 1.345 . S
C2060 C724 1.279 . S
C2071 C868 1.318 . S
C2076 C1012 1.318 . S
C2087 C904 1.285 . S
C2092 C1048 1.343 . S
C2103 C940 1.341 . S
C2108 C976 1.289 . S
C2119 C1228 1.343 . S
C2124 C1084 1.283 . S
C2135 C1264 1.342 . S
C2140 C1120 1.287 . S
C2151 C1192 1.301 . S
C2156 C1156 1.333 . S
C2167 C326 1.545 . S
C2172 C2 1.574 . S
C2183 C362 1.570 . S
C2188 C38 1.550 . S
C2199 C74 1.548 . S
C2204 C398 1.571 . S
C2215 C110 1.555 . S
C2220 C218 1.564 . S
C2231 C254 1.566 . S
C2236 C146 1.553 . S
C2247 C182 1.575 . S
C2252 C290 1.544 . S
C2263 C758 1.550 . S
C2268 C434 1.569 . S
C2279 C794 1.568 . S
C2284 C470 1.551 . S
C2295 C506 1.551 . S
C2300 C830 1.568 . S
C2311 C650 1.546 . S
C2316 C542 1.573 . S
C2327 C686 1.558 . S
C2332 C578 1.561 . S
C2343 C722 1.550 . S
C2348 C614 1.569 . S
C2359 C866 1.544 . S
C2364 C1190 1.575 . S
C2375 C1226 1.552 . S
C2380 C902 1.567 . S
C2391 C938 1.568 . S
C2396 C1262 1.551 . S
C2407 C974 1.574 . S
C2412 C1082 1.545 . S
C2423 C1010 1.567 . S
C2428 C1118 1.552 . S
C2439 C1154 1.559 . S
C2444 C1046 1.561 . S
