# Generated by pormake.
# Topology wjf, (4)-cn, num edge types: 1
# Building blocks:
#     Node 0, Type 0, BuildingBlock: GALJAG_clean_sbu_0, # of connection points: 4
#     Node 1, Type 0, BuildingBlock: GALJAG_clean_sbu_0, # of connection points: 4
#     Node 2, Type 0, BuildingBlock: GALJAG_clean_sbu_0, # of connection points: 4
#     Node 3, Type 0, BuildingBlock: GALJAG_clean_sbu_0, # of connection points: 4
#     Node 4, Type 0, BuildingBlock: GALJAG_clean_sbu_0, # of connection points: 4
#     Node 5, Type 0, BuildingBlock: GALJAG_clean_sbu_0, # of connection points: 4
#     Node 6, Type 0, BuildingBlock: GALJAG_clean_sbu_0, # of connection points: 4
#     Node 7, Type 0, BuildingBlock: GALJAG_clean_sbu_0, # of connection points: 4
#     Node 8, Type 0, BuildingBlock: GALJAG_clean_sbu_0, # of connection points: 4
#     Node 9, Type 0, BuildingBlock: GALJAG_clean_sbu_0, # of connection points: 4
#     Node 10, Type 0, BuildingBlock: GALJAG_clean_sbu_0, # of connection points: 4
#     Node 11, Type 0, BuildingBlock: GALJAG_clean_sbu_0, # of connection points: 4
#     Edge 12, Type (0, 0), BuildingBlock: XIVTED_clean_linker_0, # of connection points: 2
#     Edge 13, Type (0, 0), BuildingBlock: XIVTED_clean_linker_0, # of connection points: 2
#     Edge 14, Type (0, 0), BuildingBlock: XIVTED_clean_linker_0, # of connection points: 2
#     Edge 15, Type (0, 0), BuildingBlock: XIVTED_clean_linker_0, # of connection points: 2
#     Edge 16, Type (0, 0), BuildingBlock: XIVTED_clean_linker_0, # of connection points: 2
#     Edge 17, Type (0, 0), BuildingBlock: XIVTED_clean_linker_0, # of connection points: 2
#     Edge 18, Type (0, 0), BuildingBlock: XIVTED_clean_linker_0, # of connection points: 2
#     Edge 19, Type (0, 0), BuildingBlock: XIVTED_clean_linker_0, # of connection points: 2
#     Edge 20, Type (0, 0), BuildingBlock: XIVTED_clean_linker_0, # of connection points: 2
#     Edge 21, Type (0, 0), BuildingBlock: XIVTED_clean_linker_0, # of connection points: 2
#     Edge 22, Type (0, 0), BuildingBlock: XIVTED_clean_linker_0, # of connection points: 2
#     Edge 23, Type (0, 0), BuildingBlock: XIVTED_clean_linker_0, # of connection points: 2
#     Edge 24, Type (0, 0), BuildingBlock: XIVTED_clean_linker_0, # of connection points: 2
#     Edge 25, Type (0, 0), BuildingBlock: XIVTED_clean_linker_0, # of connection points: 2
#     Edge 26, Type (0, 0), BuildingBlock: XIVTED_clean_linker_0, # of connection points: 2
#     Edge 27, Type (0, 0), BuildingBlock: XIVTED_clean_linker_0, # of connection points: 2
#     Edge 28, Type (0, 0), BuildingBlock: XIVTED_clean_linker_0, # of connection points: 2
#     Edge 29, Type (0, 0), BuildingBlock: XIVTED_clean_linker_0, # of connection points: 2
#     Edge 30, Type (0, 0), BuildingBlock: XIVTED_clean_linker_0, # of connection points: 2
#     Edge 31, Type (0, 0), BuildingBlock: XIVTED_clean_linker_0, # of connection points: 2
#     Edge 32, Type (0, 0), BuildingBlock: XIVTED_clean_linker_0, # of connection points: 2
#     Edge 33, Type (0, 0), BuildingBlock: XIVTED_clean_linker_0, # of connection points: 2
#     Edge 34, Type (0, 0), BuildingBlock: XIVTED_clean_linker_0, # of connection points: 2
#     Edge 35, Type (0, 0), BuildingBlock: XIVTED_clean_linker_0, # of connection points: 2
# Relax obj value: 0.086
# Max RMSD: 0.104
# Mean RMSD: 0.104
data_MOF--net-wjf--node1-GALJAG_clean_sbu_0--edge1-XIVTED_clean_linker_0
_symmetry_space_group_name_H-M    P1
_symmetry_Int_Tables_number       1
_symmetry_cell_setting            triclinic
loop_
_symmetry_equiv_pos_as_xyz
'x, y, z'
_cell_length_a     50.070672
_cell_length_b     50.061066
_cell_length_c     28.59788
_cell_angle_alpha  89.943919
_cell_angle_beta   89.917029
_cell_angle_gamma 120.10441
loop_
_atom_site_label
_atom_site_type_symbol
_atom_site_fract_x
_atom_site_fract_y
_atom_site_fract_z
_atom_type_partial_charge
In0 In 0.32059 0.37135 0.10437 0.0
O1 O 0.295 0.39737 0.08737 0.0
O2 O 0.27248 0.34878 0.07575 0.0
C3 C 0.37667 0.41572 0.13184 0.0
C4 C 0.33523 0.35894 0.02009 0.0
C5 C 0.30085 0.33975 0.18485 0.0
O6 O 0.35517 0.42134 0.12303 0.0
O7 O 0.36943 0.38775 0.12785 0.0
O8 O 0.31178 0.33114 0.15203 0.0
O9 O 0.29961 0.36386 0.17652 0.0
C10 C 0.27134 0.3733 0.07265 0.0
O11 O 0.31901 0.33754 0.04876 0.0
O12 O 0.34456 0.3859 0.0348 0.0
In13 In 0.93996 0.31942 0.42474 0.0
O14 O 0.94334 0.29015 0.36576 0.0
O15 O 0.97823 0.3372 0.37019 0.0
C16 C 0.94926 0.30012 0.50821 0.0
C17 C 0.8806 0.28737 0.39818 0.0
C18 C 0.95821 0.37958 0.4378 0.0
O19 O 0.96355 0.30011 0.47179 0.0
O20 O 0.93035 0.3094 0.50212 0.0
O21 O 0.93044 0.35932 0.43072 0.0
O22 O 0.97673 0.36946 0.43883 0.0
C23 C 0.96721 0.31226 0.34775 0.0
O24 O 0.90014 0.3119 0.37789 0.0
O25 O 0.89092 0.27934 0.4324 0.0
In26 In 0.63484 0.96311 0.74023 0.0
O27 O 0.6044 0.91089 0.73428 0.0
O28 O 0.65332 0.93083 0.72899 0.0
C29 C 0.59278 0.98018 0.75821 0.0
C30 C 0.64923 0.97883 0.64979 0.0
C31 C 0.66634 0.9804 0.8211 0.0
O32 O 0.58614 0.95226 0.75908 0.0
O33 O 0.62059 -0.00069 0.74857 0.0
O34 O 0.67523 -0.00222 0.78545 0.0
O35 O 0.64221 0.95462 0.81535 0.0
C36 C 0.62704 0.90672 0.72762 0.0
O37 O 0.66965 0.99036 0.68135 0.0
O38 O 0.62228 0.96089 0.66446 0.0
In39 In 0.65433 0.61738 0.07775 0.0
O40 O 0.65908 0.65008 0.01798 0.0
O41 O 0.6322 0.60151 0.00711 0.0
C42 C 0.67454 0.6525 0.15483 0.0
C43 C 0.70211 0.61083 0.05204 0.0
C44 C 0.59785 0.57576 0.10881 0.0
O45 O 0.66263 0.65922 0.1211 0.0
O46 O 0.67658 0.62862 0.14899 0.0
O47 O 0.6191 0.56926 0.10401 0.0
O48 O 0.60533 0.60314 0.09823 0.0
C49 C 0.64324 0.6282 0.99 0.0
O50 O 0.67687 0.58794 0.06549 0.0
O51 O 0.70318 0.63653 0.05334 0.0
In52 In 0.03924 0.66301 0.41517 0.0
O53 O 0.09138 0.68834 0.40574 0.0
O54 O 0.06818 0.71439 0.40431 0.0
C55 C 0.02368 0.60378 0.42885 0.0
C56 C 0.01971 0.66076 0.32711 0.0
C57 C 0.02274 0.67507 0.49843 0.0
O58 O 0.05152 0.62534 0.429 0.0
O59 O 0.0042 0.61226 0.42187 0.0
O60 O 0.00643 0.67018 0.46223 0.0
O61 O 0.04737 0.67444 0.49212 0.0
C62 C 0.0933 0.71435 0.40021 0.0
O63 O 0.00541 0.66358 0.36157 0.0
O64 O 0.04297 0.65856 0.33747 0.0
In65 In 0.38614 0.0551 0.75347 0.0
O66 O 0.35172 0.02087 0.70029 0.0
O67 O 0.39319 0.05962 0.67533 0.0
C68 C 0.35669 0.03801 0.83615 0.0
C69 C 0.3884 0.10913 0.7411 0.0
C70 C 0.43059 0.04053 0.76618 0.0
O71 O 0.34551 0.02209 0.79955 0.0
O72 O 0.38243 0.06235 0.83074 0.0
O73 O 0.43645 0.0682 0.76576 0.0
O74 O 0.40257 0.02061 0.76039 0.0
C75 C 0.36799 0.0358 0.66545 0.0
O76 O 0.41272 0.10745 0.74475 0.0
O77 O 0.36341 0.08381 0.74537 0.0
In78 In 0.61689 0.66777 0.56165 0.0
O79 O 0.59198 0.69459 0.57749 0.0
O80 O 0.64051 0.71618 0.58921 0.0
C81 C 0.57196 0.61188 0.53449 0.0
C82 C 0.62868 0.65312 0.6464 0.0
C83 C 0.64828 0.6864 0.48084 0.0
O84 O 0.59989 0.6189 0.5378 0.0
O85 O 0.56662 0.63349 0.54393 0.0
O86 O 0.65656 0.67522 0.51373 0.0
O87 O 0.62466 0.68851 0.48931 0.0
C88 C 0.61637 0.71808 0.59181 0.0
O89 O 0.60186 0.64443 0.63163 0.0
O90 O 0.65022 0.66871 0.6176 0.0
In91 In 0.93438 0.60146 0.90684 0.0
O92 O 0.8821 0.57446 0.91619 0.0
O93 O 0.90511 0.62371 0.91384 0.0
C94 C 0.9486 0.55666 0.89495 0.0
C95 C 0.95375 0.62069 0.99454 0.0
C96 C 0.95188 0.63079 0.82404 0.0
O97 O 0.92106 0.55113 0.89424 0.0
O98 O 0.96862 0.58457 0.90149 0.0
O99 O 0.96779 0.64182 0.86066 0.0
O100 O 0.92733 0.60524 0.82946 0.0
C101 C 0.88002 0.59858 0.9189 0.0
O102 O 0.96844 0.63668 0.95935 0.0
O103 O 0.93015 0.59518 0.98518 0.0
In104 In 0.32812 0.95109 0.2436 0.0
O105 O 0.30295 0.89894 0.25324 0.0
O106 O 0.27704 0.92221 0.25723 0.0
C107 C 0.38694 0.96619 0.22687 0.0
C108 C 0.33183 0.97091 0.33184 0.0
C109 C 0.31462 0.96758 0.16146 0.0
O110 O 0.3652 0.93844 0.22712 0.0
O111 O 0.37885 0.98586 0.23506 0.0
O112 O 0.3207 0.98417 0.19761 0.0
O113 O 0.31476 0.94267 0.16729 0.0
C114 C 0.27712 0.89708 0.26061 0.0
O115 O 0.32799 0.98482 0.29781 0.0
O116 O 0.33446 0.94796 0.32093 0.0
In117 In 0.36792 0.33499 0.5874 0.0
O118 O 0.39757 0.31252 0.59801 0.0
O119 O 0.34907 0.28597 0.61074 0.0
C120 C 0.40886 0.39177 0.55655 0.0
C121 C 0.35797 0.34554 0.67588 0.0
C122 C 0.3322 0.31474 0.51104 0.0
O123 O 0.41568 0.3707 0.56063 0.0
O124 O 0.38149 0.38396 0.56769 0.0
O125 O 0.32545 0.32621 0.54536 0.0
O126 O 0.35644 0.31323 0.51591 0.0
C127 C 0.37481 0.28712 0.61127 0.0
O128 O 0.33581 0.33009 0.64814 0.0
O129 O 0.38449 0.35647 0.65819 0.0
In130 In 0.02768 0.35339 0.9173 0.0
O131 O -0.00023 0.31763 0.97477 0.0
O132 O 0.02951 0.3646 0.99365 0.0
C133 C 0.01067 0.32276 0.83564 0.0
C134 C 0.084 0.36108 0.92997 0.0
C135 C 0.01139 0.39618 0.90054 0.0
O136 O 0.99298 0.31374 0.87093 0.0
O137 O 0.03658 0.34659 0.84212 0.0
O138 O 0.03915 0.40241 0.8993 0.0
O139 O 0.99198 0.36841 0.90992 0.0
C140 C 0.01124 0.33744 0.00719 0.0
O141 O 0.07976 0.38379 0.92483 0.0
O142 O 0.06 0.33479 0.92712 0.0
In143 In 0.67078 0.05103 0.23133 0.0
O144 O 0.6781 0.09025 0.27958 0.0
O145 O 0.71132 0.09992 0.22592 0.0
C146 C 0.61132 0.03412 0.21438 0.0
C147 C 0.67641 0.02321 0.30878 0.0
C148 C 0.69118 0.04185 0.14875 0.0
O149 O 0.63181 0.06172 0.22208 0.0
O150 O 0.62089 0.01517 0.21451 0.0
O151 O 0.68696 0.02482 0.18384 0.0
O152 O 0.68559 0.06338 0.15577 0.0
C153 C 0.703 0.10988 0.26024 0.0
O154 O 0.65126 0.01397 0.28757 0.0
O155 O 0.69944 0.04546 0.28926 0.0
H156 H 0.31025 0.29363 0.21716 0.0
H157 H 0.2894 0.32983 0.48142 0.0
H158 H 0.27504 0.35303 0.25872 0.0
H159 H 0.33762 0.2827 0.43846 0.0
H160 H 0.27083 0.32618 0.40117 0.0
H161 H 0.30711 0.27727 0.29859 0.0
C162 C 0.3013 0.30276 0.24328 0.0
C163 C 0.29352 0.32519 0.23147 0.0
C164 C 0.285 0.31612 0.40954 0.0
C165 C 0.2901 0.30684 0.32449 0.0
C166 C 0.29549 0.3181 0.45534 0.0
C167 C 0.31556 0.30711 0.4662 0.0
C168 C 0.29471 0.30307 0.37465 0.0
C169 C 0.32263 0.29199 0.43126 0.0
C170 C 0.29957 0.29349 0.28975 0.0
C171 C 0.2818 0.33608 0.26655 0.0
N172 N 0.31258 0.2908 0.38687 0.0
N173 N 0.28089 0.32716 0.31163 0.0
H174 H -0.00346 0.29074 0.53495 0.0
H175 H 0.04787 0.32961 0.76189 0.0
H176 H 0.91697 0.29278 0.58846 0.0
H177 H 0.95205 0.28547 0.80255 0.0
H178 H 0.03229 0.31529 0.68102 0.0
H179 H 0.01105 0.2865 0.61523 0.0
C180 C 0.982 0.29 0.56358 0.0
C181 C 0.95592 0.2928 0.55522 0.0
C182 C 0.01455 0.30774 0.70759 0.0
C183 C 0.97268 0.28875 0.64694 0.0
C184 C 0.02347 0.31619 0.75384 0.0
C185 C 0.00119 0.30891 0.7888 0.0
C186 C 0.98303 0.29218 0.69612 0.0
C187 C 0.96994 0.29154 0.77656 0.0
C188 C 0.99044 0.28791 0.60941 0.0
C189 C 0.93761 0.29128 0.59346 0.0
N190 N 0.96177 0.28433 0.73098 0.0
N191 N 0.9465 0.28965 0.63768 0.0
H192 H 0.65957 0.94378 0.8957 0.0
H193 H 0.71173 0.08067 0.07383 0.0
H194 H 0.70491 0.0392 0.85253 0.0
H195 H 0.68719 0.98846 0.11649 0.0
H196 H 0.71524 0.06721 0.99295 0.0
H197 H 0.67513 0.96025 0.97622 0.0
C198 C 0.67328 0.96824 0.90313 0.0
C199 C 0.68064 0.99021 0.86761 0.0
C200 C 0.70963 0.05004 0.02001 0.0
C201 C 0.69808 0.00927 0.95981 0.0
C202 C 0.70757 0.0577 0.0662 0.0
C203 C 0.69873 0.03548 0.10171 0.0
C204 C 0.70223 0.01975 0.00913 0.0
C205 C 0.69388 0.00619 0.09004 0.0
C206 C 0.6822 0.97764 0.94911 0.0
C207 C 0.69864 0.02155 0.879 0.0
N208 N 0.69513 -0.00103 0.04456 0.0
N209 N 0.70626 0.03019 0.92433 0.0
H210 H 0.70749 0.64738 0.22637 0.0
H211 H 0.63727 0.71461 0.40789 0.0
H212 H 0.6581 0.69388 0.1865 0.0
H213 H 0.69132 0.67289 0.44705 0.0
H214 H 0.65333 0.71654 0.32678 0.0
H215 H 0.71076 0.66577 0.30624 0.0
C216 C 0.69779 0.66195 0.23432 0.0
C217 C 0.682 0.66868 0.20009 0.0
C218 C 0.66214 0.70744 0.35315 0.0
C219 C 0.6852 0.6894 0.29158 0.0
C220 C 0.65296 0.70632 0.39949 0.0
C221 C 0.66253 0.69302 0.434 0.0
C222 C 0.6807 0.6948 0.34119 0.0
C223 C 0.68313 0.683 0.42137 0.0
C224 C 0.69966 0.67244 0.27995 0.0
C225 C 0.67021 0.68792 0.21204 0.0
N226 N 0.69111 0.68359 0.37579 0.0
N227 N 0.67153 0.69715 0.25708 0.0
H228 H 0.00912 0.67733 0.79793 0.0
H229 H 0.96479 0.66077 0.52661 0.0
H230 H 0.91747 0.61709 0.74466 0.0
H231 H 0.05744 0.69521 0.57758 0.0
H232 H 0.94694 0.65712 0.60749 0.0
H233 H 0.02662 0.69612 0.71821 0.0
C234 C 0.9926 0.66844 0.76956 0.0
C235 C 0.96194 0.64533 0.77765 0.0
C236 C 0.97125 0.66592 0.60083 0.0
C237 C 0.98167 0.66671 0.68683 0.0
C238 C 0.98145 0.66815 0.55476 0.0
C239 C 0.01253 0.67788 0.5456 0.0
C240 C 0.99235 0.67373 0.63775 0.0
C241 C 0.03319 0.68719 0.58327 0.0
C242 C 0.00259 0.67909 0.72416 0.0
C243 C 0.94143 0.63463 0.73976 0.0
N244 N 0.02269 0.68463 0.62777 0.0
N245 N 0.95171 0.64525 0.69591 0.0
H246 H 0.32911 0.02568 0.13377 0.0
H247 H 0.30977 0.98101 0.8625 0.0
H248 H 0.29281 0.93277 0.08259 0.0
H249 H 0.37077 0.0726 0.91539 0.0
H250 H 0.29123 0.96369 0.94238 0.0
H251 H 0.33192 0.04352 0.0531 0.0
C252 C 0.32114 0.00896 0.10565 0.0
C253 C 0.31116 0.97781 0.11465 0.0
C254 C 0.30836 0.98767 0.93631 0.0
C255 C 0.31436 -0.00203 0.0227 0.0
C256 C 0.31887 -0.00244 0.89081 0.0
C257 C 0.34215 0.02813 0.88258 0.0
C258 C 0.32107 0.00861 0.97358 0.0
C259 C 0.35311 0.04869 0.9204 0.0
C260 C 0.32288 0.01916 0.05968 0.0
C261 C 0.30105 0.95708 0.07701 0.0
N262 N 0.34264 0.03851 0.96434 0.0
N263 N 0.30319 0.96757 0.0326 0.0
H264 H 0.09936 0.31626 0.93357 0.0
H265 H 0.2625 0.42263 0.0573 0.0
H266 H 0.13645 0.41368 0.95742 0.0
H267 H 0.22024 0.32423 0.03682 0.0
H268 H 0.21858 0.42139 0.01696 0.0
H269 H 0.14632 0.32049 0.96546 0.0
C270 C 0.11759 0.33864 0.94513 0.0
C271 C 0.11399 0.36461 0.94321 0.0
C272 C 0.21903 0.40013 0.02136 0.0
C273 C 0.16773 0.36961 0.98054 0.0
C274 C 0.24396 0.40081 0.04452 0.0
C275 C 0.24487 0.37347 0.05059 0.0
C276 C 0.19508 0.37193 0.00421 0.0
C277 C 0.22043 0.34585 0.03312 0.0
C278 C 0.14439 0.34106 0.96353 0.0
C279 C 0.13838 0.39309 0.9584 0.0
N280 N 0.1966 0.34581 0.01078 0.0
N281 N 0.1642 0.39481 0.97691 0.0
H282 H 0.85876 0.28963 0.31185 0.0
H283 H 0.70118 0.13041 0.34787 0.0
H284 H 0.83151 0.23977 0.44259 0.0
H285 H 0.74998 0.15971 0.21642 0.0
H286 H 0.73999 0.17926 0.38301 0.0
H287 H 0.80974 0.2507 0.27746 0.0
C288 C 0.84216 0.27087 0.33359 0.0
C289 C 0.84926 0.26755 0.37987 0.0
C290 C 0.74179 0.17516 0.34627 0.0
C291 C 0.79343 0.22332 0.34097 0.0
C292 C 0.71967 0.14742 0.32618 0.0
C293 C 0.72275 0.14098 0.27942 0.0
C294 C 0.76678 0.19661 0.31912 0.0
C295 C 0.74708 0.16372 0.25279 0.0
C296 C 0.81432 0.24868 0.31391 0.0
C297 C 0.827 0.24288 0.40657 0.0
N298 N 0.76836 0.1905 0.27314 0.0
N299 N 0.80011 0.22149 0.38658 0.0
H300 H 0.57371 0.85326 0.70554 0.0
H301 H 0.66637 0.76947 0.62504 0.0
H302 H 0.67219 0.8921 0.71886 0.0
H303 H 0.56791 0.72828 0.60704 0.0
H304 H 0.66778 0.81352 0.66285 0.0
H305 H 0.56977 0.80578 0.67422 0.0
C306 C 0.5944 0.85161 0.70247 0.0
C307 C 0.62335 0.87663 0.71451 0.0
C308 C 0.6458 0.79493 0.65067 0.0
C309 C 0.61907 0.82283 0.67846 0.0
C310 C 0.645 0.76977 0.62887 0.0
C311 C 0.61699 0.74526 0.61269 0.0
C312 C 0.61839 0.79577 0.65638 0.0
C313 C 0.59001 0.74684 0.61885 0.0
C314 C 0.59216 0.82463 0.68438 0.0
C315 C 0.64944 0.87343 0.70973 0.0
N316 N 0.59136 0.77177 0.64023 0.0
N317 N 0.64669 0.84711 0.69187 0.0
H318 H 0.75713 0.65727 0.0211 0.0
H319 H 0.82489 0.54897 0.94684 0.0
H320 H 0.70567 0.55827 0.03864 0.0
H321 H 0.87036 0.64725 0.92241 0.0
H322 H 0.78022 0.55069 0.97863 0.0
H323 H 0.79872 0.65311 0.98482 0.0
C324 C 0.75466 0.6346 0.01753 0.0
C325 C 0.72795 0.60806 0.03297 0.0
C326 C 0.79989 0.57178 0.96591 0.0
C327 C 0.77557 0.60305 0.99095 0.0
C328 C 0.82528 0.57079 0.94757 0.0
C329 C 0.85136 0.59804 0.93223 0.0
C330 C 0.8008 0.60024 0.9689 0.0
C331 C 0.85079 0.62571 0.93408 0.0
C332 C 0.7784 0.63221 0.99656 0.0
C333 C 0.72599 0.57929 0.02731 0.0
N334 N 0.82603 0.62611 0.95236 0.0
N335 N 0.74956 0.57751 0.00668 0.0
H336 H 0.10231 0.77207 0.38683 0.0
H337 H 0.27218 0.84113 0.28009 0.0
H338 H 0.14867 0.71923 0.37663 0.0
H339 H 0.22038 0.8888 0.28068 0.0
H340 H 0.2281 0.7964 0.31668 0.0
H341 H 0.14708 0.81603 0.35161 0.0
C342 C 0.12209 0.76984 0.3776 0.0
C343 C 0.12179 0.74198 0.38452 0.0
C344 C 0.22637 0.8166 0.30852 0.0
C345 C 0.17304 0.79212 0.34352 0.0
C346 C 0.25141 0.84202 0.28742 0.0
C347 C 0.24987 0.86865 0.2774 0.0
C348 C 0.19977 0.818 0.31974 0.0
C349 C 0.22255 0.86873 0.28783 0.0
C350 C 0.1476 0.7949 0.35721 0.0
C351 C 0.14803 0.74036 0.3719 0.0
N352 N 0.19866 0.84387 0.30861 0.0
N353 N 0.17262 0.76509 0.35174 0.0
H354 H 0.43785 0.16486 0.71469 0.0
H355 H 0.32852 0.23137 0.64005 0.0
H356 H 0.33922 0.11788 0.73614 0.0
H357 H 0.42762 0.28402 0.62454 0.0
H358 H 0.33294 0.18961 0.67509 0.0
H359 H 0.43576 0.20944 0.68328 0.0
C360 C 0.41587 0.16411 0.71337 0.0
C361 C 0.38864 0.13766 0.7278 0.0
C362 C 0.35381 0.21022 0.66405 0.0
C363 C 0.38604 0.18809 0.69156 0.0
C364 C 0.35127 0.23407 0.6438 0.0
C365 C 0.37776 0.26117 0.62934 0.0
C366 C 0.38307 0.21335 0.66996 0.0
C367 C 0.40663 0.2634 0.63514 0.0
C368 C 0.41467 0.18944 0.69524 0.0
C369 C 0.36075 0.13775 0.72519 0.0
N370 N 0.40856 0.23973 0.65511 0.0
N371 N 0.36017 0.16248 0.70717 0.0
H372 H 0.4007 0.38602 0.73636 0.0
H373 H 0.30037 0.30778 0.96606 0.0
H374 H 0.30669 0.31061 0.73012 0.0
H375 H 0.38118 0.39865 0.96288 0.0
H376 H 0.30537 0.3038 0.8811 0.0
H377 H 0.39632 0.38715 0.82109 0.0
C378 C 0.379 0.36987 0.75288 0.0
C379 C 0.35394 0.34831 0.72629 0.0
C380 C 0.32209 0.32445 0.89921 0.0
C381 C 0.34894 0.34908 0.82339 0.0
C382 C 0.31947 0.32657 0.9476 0.0
C383 C 0.3404 0.35359 0.97123 0.0
C384 C 0.34602 0.34938 0.87482 0.0
C385 C 0.36451 0.37747 0.94583 0.0
C386 C 0.37655 0.37045 0.80126 0.0
C387 C 0.32642 0.32779 0.74945 0.0
N388 N 0.36663 0.37483 0.89901 0.0
N389 N 0.32468 0.32854 0.79689 0.0
H390 H 0.02044 0.35505 0.30572 0.0
H391 H 0.96886 0.2826 0.04948 0.0
H392 H 0.93834 0.26715 0.28138 0.0
H393 H 0.04144 0.37547 0.07955 0.0
H394 H 0.961 0.27249 0.13418 0.0
H395 H 0.03326 0.3581 0.22298 0.0
C396 C 0.00538 0.33611 0.28303 0.0
C397 C 0.97817 0.31097 0.30031 0.0
C398 C 0.97871 0.29499 0.12202 0.0
C399 C 0.99228 0.31459 0.20511 0.0
C400 C 0.98312 0.30077 0.07382 0.0
C401 C 0.00559 0.33 0.05752 0.0
C402 C -0.00286 0.31855 0.15379 0.0
C403 C 0.02361 0.35269 0.09046 0.0
C404 C 0.01259 0.33793 0.23567 0.0
C405 C 0.95954 0.287 0.26937 0.0
N406 N 0.01896 0.34649 0.13682 0.0
N407 N 0.96671 0.28958 0.22302 0.0
H408 H 0.60943 0.94898 0.57912 0.0
H409 H 0.72316 0.04985 0.37329 0.0
H410 H 0.70375 0.01966 0.60506 0.0
H411 H 0.63118 0.97274 0.35339 0.0
H412 H 0.71917 0.03729 0.45697 0.0
H413 H 0.61905 0.95621 0.49573 0.0
C414 C 0.63225 0.96617 0.56722 0.0
C415 C 0.65577 0.98396 0.59915 0.0
C416 C 0.7001 0.02286 0.4341 0.0
C417 C 0.66706 0.99238 0.50291 0.0
C418 C 0.70244 0.02986 0.38632 0.0
C419 C 0.67734 0.01242 0.35649 0.0
C420 C 0.67246 -0.00168 0.4519 0.0
C421 C 0.65099 0.98694 0.37518 0.0
C422 C 0.6378 0.97017 0.51941 0.0
C423 C 0.68495 0.00561 0.58155 0.0
N424 N 0.64914 0.98088 0.42167 0.0
N425 N 0.68975 0.00941 0.53446 0.0
H426 H 0.68035 0.68661 0.70014 0.0
H427 H 0.60155 0.58644 0.92963 0.0
H428 H 0.58796 0.60817 0.70406 0.0
H429 H 0.67859 0.67958 0.93618 0.0
H430 H 0.59981 0.59149 0.84509 0.0
H431 H 0.68443 0.68122 0.78499 0.0
C432 C 0.66121 0.66795 0.71874 0.0
C433 C 0.63378 0.64779 0.69533 0.0
C434 C 0.61699 0.61093 0.86497 0.0
C435 C 0.63812 0.64171 0.79161 0.0
C436 C 0.61793 0.60809 0.91323 0.0
C437 C 0.64013 0.63271 0.93985 0.0
C438 C 0.63867 0.63845 0.84295 0.0
C439 C 0.66092 0.66019 0.91684 0.0
C440 C 0.6634 0.66511 0.76706 0.0
C441 C 0.60947 0.62424 0.72092 0.0
N442 N 0.65984 0.66229 0.8695 0.0
N443 N 0.6122 0.62186 0.76765 0.0
H444 H 0.05588 0.67432 0.25006 0.0
H445 H 0.91775 0.59926 0.07218 0.0
H446 H 0.96251 0.64506 0.29287 0.0
H447 H 0.01041 0.66458 0.02738 0.0
H448 H 0.93352 0.61345 0.15343 0.0
H449 H 0.03988 0.66893 0.16834 0.0
C450 C 0.032 0.66691 0.24216 0.0
C451 C 0.01037 0.65987 0.2781 0.0
C452 C 0.95032 0.6249 0.12582 0.0
C453 C 0.99191 0.65336 0.18485 0.0
C454 C 0.94142 0.6167 0.07951 0.0
C455 C 0.96294 0.63063 0.04318 0.0
C456 C 0.9811 0.64673 0.1359 0.0
C457 C 0.99319 0.65327 0.05448 0.0
C458 C 0.02296 0.66402 0.19556 0.0
C459 C 0.97984 0.65065 0.26607 0.0
N460 N 0.00153 0.66034 0.10002 0.0
N461 N 0.97136 0.64719 0.22031 0.0
H462 H 0.32052 0.93495 0.40864 0.0
H463 H 0.38921 0.0723 0.58833 0.0
H464 H 0.3455 0.02743 0.36669 0.0
H465 H 0.32592 0.9787 0.63161 0.0
H466 H 0.37637 0.05664 0.50673 0.0
H467 H 0.32513 0.95053 0.49051 0.0
C468 C 0.32689 0.95855 0.41675 0.0
C469 C 0.33288 0.98006 0.38101 0.0
C470 C 0.36507 0.03961 0.53408 0.0
C471 C 0.33845 -0.00198 0.47442 0.0
C472 C 0.37249 0.04844 0.58058 0.0
C473 C 0.35872 0.02664 0.61659 0.0
C474 C 0.34423 0.00862 0.52351 0.0
C475 C 0.33705 -0.00386 0.60478 0.0
C476 C 0.32931 0.96733 0.46343 0.0
C477 C 0.34075 0.01022 0.39332 0.0
N478 N 0.33076 0.98789 0.55907 0.0
N479 N 0.34375 0.01847 0.43917 0.0
H480 H 0.40006 0.47828 0.13427 0.0
H481 H 0.57479 0.51478 0.13069 0.0
H482 H 0.42639 0.40877 0.14903 0.0
H483 H 0.54858 0.58451 0.11853 0.0
H484 H 0.52087 0.47628 0.14662 0.0
H485 H 0.45456 0.51826 0.13811 0.0
C486 C 0.41728 0.47146 0.13899 0.0
C487 C 0.40876 0.44019 0.14083 0.0
C488 C 0.52695 0.50006 0.14089 0.0
C489 C 0.47109 0.48569 0.14473 0.0
C490 C 0.55772 0.52202 0.1318 0.0
C491 C 0.56607 0.55277 0.12281 0.0
C492 C 0.50438 0.50893 0.14074 0.0
C493 C 0.54309 0.56097 0.12491 0.0
C494 C 0.44839 0.49427 0.14105 0.0
C495 C 0.43199 0.43263 0.14707 0.0
N496 N 0.51325 0.53913 0.13324 0.0
N497 N 0.46211 0.45519 0.1483 0.0
H498 H 0.96518 0.5549 0.43281 0.0
H499 H 0.01713 0.42786 0.4483 0.0
H500 H 0.06053 0.57801 0.43925 0.0
H501 H 0.9225 0.40653 0.43692 0.0
H502 H 0.03364 0.4829 0.45059 0.0
H503 H 0.9493 0.50045 0.4398 0.0
C504 C 0.9828 0.54849 0.43586 0.0
C505 C 0.01423 0.57097 0.43519 0.0
C506 C 0.00926 0.46616 0.44784 0.0
C507 C -0.00381 0.50853 0.44309 0.0
C508 C -0.00018 0.43477 0.4466 0.0
C509 C 0.96841 0.41267 0.4422 0.0
C510 C 0.9871 0.47544 0.44466 0.0
C511 C 0.94696 0.42282 0.44017 0.0
C512 C 0.97371 0.51736 0.43986 0.0
C513 C 0.03605 0.56136 0.43948 0.0
N514 N 0.95671 0.45347 0.44123 0.0
N515 N 0.02662 0.53079 0.44304 0.0
H516 H 0.60216 0.03881 0.76012 0.0
H517 H 0.42217 0.98258 0.77376 0.0
H518 H 0.53076 0.94331 0.77313 0.0
H519 H 0.49338 0.07856 0.76999 0.0
H520 H 0.46186 0.968 0.7774 0.0
H521 H 0.56303 0.05409 0.76754 0.0
C522 C 0.57824 0.02107 0.76482 0.0
C523 C 0.56962 0.98973 0.76572 0.0
C524 C 0.46887 0.99227 0.77605 0.0
C525 C 0.52473 0.00703 0.77403 0.0
C526 C 0.44621 0.00061 0.77393 0.0
C527 C 0.45455 0.03182 0.77128 0.0
C528 C 0.50015 0.01529 0.77522 0.0
C529 C 0.486 0.05422 0.77185 0.0
C530 C 0.55592 0.02981 0.76907 0.0
C531 C 0.53837 0.96772 0.77207 0.0
N532 N 0.5077 0.0455 0.77344 0.0
N533 N 0.51702 0.97678 0.77568 0.0
H534 H 0.57856 0.56257 0.51228 0.0
H535 H 0.39941 0.44067 0.54764 0.0
H536 H 0.50934 0.58828 0.5366 0.0
H537 H 0.4699 0.41558 0.53439 0.0
H538 H 0.43818 0.49444 0.53212 0.0
H539 H 0.53795 0.50851 0.50818 0.0
C540 C 0.55475 0.55686 0.51617 0.0
C541 C 0.5473 0.57989 0.52531 0.0
C542 C 0.44514 0.47716 0.5322 0.0
C543 C 0.50071 0.518 0.52109 0.0
C544 C 0.42302 0.44645 0.54104 0.0
C545 C 0.43155 0.4237 0.54278 0.0
C546 C 0.47604 0.48521 0.52514 0.0
C547 C 0.4624 0.43244 0.5337 0.0
C548 C 0.53157 0.52597 0.51393 0.0
C549 C 0.51608 0.57121 0.52977 0.0
N550 N 0.48359 0.46256 0.52563 0.0
N551 N 0.49392 0.54089 0.52811 0.0
H552 H 0.91003 0.4941 0.88827 0.0
H553 H 0.04897 0.45809 0.88561 0.0
H554 H 0.00638 0.56431 0.89057 0.0
H555 H 0.95314 0.38781 0.89989 0.0
H556 H 0.03344 0.49712 0.87903 0.0
H557 H 0.92504 0.45451 0.88436 0.0
C558 C 0.93432 0.50116 0.88768 0.0
C559 C 0.957 0.53247 0.89004 0.0
C560 C 0.01579 0.47314 0.8834 0.0
C561 C 0.97433 0.48746 0.8856 0.0
C562 C 0.02465 0.45087 0.88707 0.0
C563 C 0.00231 0.41974 0.8936 0.0
C564 C 0.98437 0.46419 0.88623 0.0
C565 C 0.97112 0.41162 0.89513 0.0
C566 C 0.94288 0.47859 0.88552 0.0
C567 C 0.98814 0.5404 0.88908 0.0
N568 N 0.96306 0.43373 0.89167 0.0
N569 N -0.00411 0.51804 0.88708 0.0
H570 H 0.5854 0.07078 0.2125 0.0
H571 H 0.41175 0.9288 0.21317 0.0
H572 H 0.56248 0.97553 0.20423 0.0
H573 H 0.43624 0.02448 0.22247 0.0
H574 H 0.46656 0.9452 0.20399 0.0
H575 H 0.53049 0.05409 0.20989 0.0
C576 C 0.56878 0.04635 0.20977 0.0
C577 C 0.57844 0.02448 0.20886 0.0
C578 C 0.45988 0.96258 0.20779 0.0
C579 C 0.51554 0.00514 0.20622 0.0
C580 C 0.42864 0.95323 0.21303 0.0
C581 C 0.41952 0.97532 0.21891 0.0
C582 C 0.48204 0.99422 0.20848 0.0
C583 C 0.44229 0.00666 0.21832 0.0
C584 C 0.53743 0.0368 0.20834 0.0
C585 C 0.55596 0.99313 0.20518 0.0
N586 N 0.47247 0.01516 0.21343 0.0
N587 N 0.52551 0.98436 0.20431 0.0
loop_
_geom_bond_atom_site_label_1
_geom_bond_atom_site_label_2
_geom_bond_distance
_geom_bond_site_symmetry_2
_ccdc_geom_bond_type
In0 O1 2.294 . S
In0 O2 2.326 . S
In0 O6 2.266 . S
In0 O7 2.326 . S
In0 O8 2.266 . S
In0 O9 2.326 . S
In0 O11 2.294 . S
In0 O12 2.326 1_554 S
O1 In0 2.294 . S
O1 C10 1.240 . S
O2 In0 2.326 . S
O2 C10 1.252 . S
C3 O6 1.252 . S
C3 O7 1.260 . S
C4 O11 1.240 1_556 S
C4 O12 1.252 . S
C5 O8 1.252 . S
C5 O9 1.260 . S
O6 In0 2.266 . S
O6 C3 1.252 . S
O7 In0 2.326 . S
O7 C3 1.260 . S
O8 In0 2.266 . S
O8 C5 1.252 . S
O9 In0 2.326 . S
O9 C5 1.260 . S
C10 O1 1.240 . S
C10 O2 1.252 . S
O11 In0 2.294 . S
O11 C4 1.240 1_554 S
O12 In0 2.326 1_556 S
O12 C4 1.252 . S
In13 O14 2.319 . S
In13 O15 2.326 . S
In13 O19 2.253 1_655 S
In13 O20 2.326 . S
In13 O21 2.266 . S
In13 O22 2.326 1_655 S
In13 O24 2.294 . S
In13 O25 2.326 . S
O14 In13 2.319 . S
O14 C23 1.258 . S
O15 In13 2.326 . S
O15 C23 1.252 . S
C16 O19 1.240 1_655 S
C16 O20 1.260 . S
C17 O24 1.240 . S
C17 O25 1.252 . S
C18 O21 1.252 . S
C18 O22 1.260 1_655 S
O19 In13 2.253 1_455 S
O19 C16 1.240 1_455 S
O20 In13 2.326 . S
O20 C16 1.260 . S
O21 In13 2.266 . S
O21 C18 1.252 . S
O22 In13 2.326 1_455 S
O22 C18 1.260 1_455 S
C23 O14 1.258 . S
C23 O15 1.252 . S
O24 In13 2.294 . S
O24 C17 1.240 . S
O25 In13 2.326 . S
O25 C17 1.252 . S
In26 O27 2.294 . S
In26 O28 2.326 . S
In26 O32 2.266 . S
In26 O33 2.326 1_565 S
In26 O34 2.259 1_565 S
In26 O35 2.326 . S
In26 O37 2.303 . S
In26 O38 2.326 . S
O27 In26 2.294 . S
O27 C36 1.240 . S
O28 In26 2.326 . S
O28 C36 1.252 . S
C29 O32 1.252 . S
C29 O33 1.260 1_565 S
C30 O37 1.247 . S
C30 O38 1.252 . S
C31 O34 1.245 1_565 S
C31 O35 1.260 . S
O32 In26 2.266 . S
O32 C29 1.252 . S
O33 In26 2.326 1_545 S
O33 C29 1.260 1_545 S
O34 In26 2.259 1_545 S
O34 C31 1.245 1_545 S
O35 In26 2.326 . S
O35 C31 1.260 . S
C36 O27 1.240 . S
C36 O28 1.252 . S
O37 In26 2.303 . S
O37 C30 1.247 . S
O38 In26 2.326 . S
O38 C30 1.252 . S
In39 O40 2.294 . S
In39 O41 2.326 1_554 S
In39 O45 2.266 . S
In39 O46 2.326 . S
In39 O47 2.266 . S
In39 O48 2.326 . S
In39 O50 2.294 . S
In39 O51 2.326 . S
O40 In39 2.294 . S
O40 C49 1.240 1_554 S
O41 In39 2.326 1_556 S
O41 C49 1.252 . S
C42 O45 1.252 . S
C42 O46 1.260 . S
C43 O50 1.240 . S
C43 O51 1.252 . S
C44 O47 1.252 . S
C44 O48 1.260 . S
O45 In39 2.266 . S
O45 C42 1.252 . S
O46 In39 2.326 . S
O46 C42 1.260 . S
O47 In39 2.266 . S
O47 C44 1.252 . S
O48 In39 2.326 . S
O48 C44 1.260 . S
C49 O40 1.240 1_556 S
C49 O41 1.252 . S
O50 In39 2.294 . S
O50 C43 1.240 . S
O51 In39 2.326 . S
O51 C43 1.252 . S
In52 O53 2.294 . S
In52 O54 2.326 . S
In52 O58 2.266 . S
In52 O59 2.326 1_455 S
In52 O60 2.253 1_455 S
In52 O61 2.326 . S
In52 O63 2.319 . S
In52 O64 2.326 . S
O53 In52 2.294 . S
O53 C62 1.240 . S
O54 In52 2.326 . S
O54 C62 1.252 . S
C55 O58 1.252 . S
C55 O59 1.260 1_455 S
C56 O63 1.258 . S
C56 O64 1.252 . S
C57 O60 1.240 1_455 S
C57 O61 1.260 . S
O58 In52 2.266 . S
O58 C55 1.252 . S
O59 In52 2.326 1_655 S
O59 C55 1.260 1_655 S
O60 In52 2.253 1_655 S
O60 C57 1.240 1_655 S
O61 In52 2.326 . S
O61 C57 1.260 . S
C62 O53 1.240 . S
C62 O54 1.252 . S
O63 In52 2.319 . S
O63 C56 1.258 . S
O64 In52 2.326 . S
O64 C56 1.252 . S
In65 O66 2.303 . S
In65 O67 2.326 . S
In65 O71 2.259 1_545 S
In65 O72 2.326 . S
In65 O73 2.266 . S
In65 O74 2.326 1_545 S
In65 O76 2.294 . S
In65 O77 2.326 . S
O66 In65 2.303 . S
O66 C75 1.247 . S
O67 In65 2.326 . S
O67 C75 1.252 . S
C68 O71 1.245 1_545 S
C68 O72 1.260 . S
C69 O76 1.240 . S
C69 O77 1.252 . S
C70 O73 1.252 . S
C70 O74 1.260 1_545 S
O71 In65 2.259 1_565 S
O71 C68 1.245 1_565 S
O72 In65 2.326 . S
O72 C68 1.260 . S
O73 In65 2.266 . S
O73 C70 1.252 . S
O74 In65 2.326 1_565 S
O74 C70 1.260 1_565 S
C75 O66 1.247 . S
C75 O67 1.252 . S
O76 In65 2.294 . S
O76 C69 1.240 . S
O77 In65 2.326 . S
O77 C69 1.252 . S
In78 O79 2.294 . S
In78 O80 2.326 . S
In78 O84 2.266 . S
In78 O85 2.326 . S
In78 O86 2.266 . S
In78 O87 2.326 . S
In78 O89 2.294 . S
In78 O90 2.326 . S
O79 In78 2.294 . S
O79 C88 1.240 . S
O80 In78 2.326 . S
O80 C88 1.252 . S
C81 O84 1.252 . S
C81 O85 1.260 . S
C82 O89 1.240 . S
C82 O90 1.252 . S
C83 O86 1.252 . S
C83 O87 1.260 . S
O84 In78 2.266 . S
O84 C81 1.252 . S
O85 In78 2.326 . S
O85 C81 1.260 . S
O86 In78 2.266 . S
O86 C83 1.252 . S
O87 In78 2.326 . S
O87 C83 1.260 . S
C88 O79 1.240 . S
C88 O80 1.252 . S
O89 In78 2.294 . S
O89 C82 1.240 . S
O90 In78 2.326 . S
O90 C82 1.252 . S
In91 O92 2.294 . S
In91 O93 2.326 . S
In91 O97 2.266 . S
In91 O98 2.326 1_655 S
In91 O99 2.259 1_655 S
In91 O100 2.326 . S
In91 O102 2.303 . S
In91 O103 2.326 1_556 S
O92 In91 2.294 . S
O92 C101 1.240 . S
O93 In91 2.326 . S
O93 C101 1.252 . S
C94 O97 1.252 . S
C94 O98 1.260 1_655 S
C95 O102 1.247 1_554 S
C95 O103 1.252 . S
C96 O99 1.245 1_655 S
C96 O100 1.260 . S
O97 In91 2.266 . S
O97 C94 1.252 . S
O98 In91 2.326 1_455 S
O98 C94 1.260 1_455 S
O99 In91 2.259 1_455 S
O99 C96 1.245 1_455 S
O100 In91 2.326 . S
O100 C96 1.260 . S
C101 O92 1.240 . S
C101 O93 1.252 . S
O102 In91 2.303 . S
O102 C95 1.247 1_556 S
O103 In91 2.326 1_554 S
O103 C95 1.252 . S
In104 O105 2.294 . S
In104 O106 2.326 . S
In104 O110 2.266 . S
In104 O111 2.326 1_565 S
In104 O112 2.253 1_565 S
In104 O113 2.326 . S
In104 O115 2.319 . S
In104 O116 2.326 . S
O105 In104 2.294 . S
O105 C114 1.240 . S
O106 In104 2.326 . S
O106 C114 1.252 . S
C107 O110 1.252 . S
C107 O111 1.260 1_565 S
C108 O115 1.258 . S
C108 O116 1.252 . S
C109 O112 1.240 1_565 S
C109 O113 1.260 . S
O110 In104 2.266 . S
O110 C107 1.252 . S
O111 In104 2.326 1_545 S
O111 C107 1.260 1_545 S
O112 In104 2.253 1_545 S
O112 C109 1.240 1_545 S
O113 In104 2.326 . S
O113 C109 1.260 . S
C114 O105 1.240 . S
C114 O106 1.252 . S
O115 In104 2.319 . S
O115 C108 1.258 . S
O116 In104 2.326 . S
O116 C108 1.252 . S
In117 O118 2.294 . S
In117 O119 2.326 . S
In117 O123 2.266 . S
In117 O124 2.326 . S
In117 O125 2.266 . S
In117 O126 2.326 . S
In117 O128 2.294 . S
In117 O129 2.326 . S
O118 In117 2.294 . S
O118 C127 1.240 . S
O119 In117 2.326 . S
O119 C127 1.252 . S
C120 O123 1.252 . S
C120 O124 1.260 . S
C121 O128 1.240 . S
C121 O129 1.252 . S
C122 O125 1.252 . S
C122 O126 1.260 . S
O123 In117 2.266 . S
O123 C120 1.252 . S
O124 In117 2.326 . S
O124 C120 1.260 . S
O125 In117 2.266 . S
O125 C122 1.252 . S
O126 In117 2.326 . S
O126 C122 1.260 . S
C127 O118 1.240 . S
C127 O119 1.252 . S
O128 In117 2.294 . S
O128 C121 1.240 . S
O129 In117 2.326 . S
O129 C121 1.252 . S
In130 O131 2.303 . S
In130 O132 2.326 1_556 S
In130 O136 2.259 1_455 S
In130 O137 2.326 . S
In130 O138 2.266 . S
In130 O139 2.326 1_455 S
In130 O141 2.294 . S
In130 O142 2.326 . S
O131 In130 2.303 . S
O131 C140 1.247 1_556 S
O132 In130 2.326 1_554 S
O132 C140 1.252 . S
C133 O136 1.245 1_455 S
C133 O137 1.260 . S
C134 O141 1.240 . S
C134 O142 1.252 . S
C135 O138 1.252 . S
C135 O139 1.260 1_455 S
O136 In130 2.259 1_655 S
O136 C133 1.245 1_655 S
O137 In130 2.326 . S
O137 C133 1.260 . S
O138 In130 2.266 . S
O138 C135 1.252 . S
O139 In130 2.326 1_655 S
O139 C135 1.260 1_655 S
C140 O131 1.247 1_554 S
C140 O132 1.252 . S
O141 In130 2.294 . S
O141 C134 1.240 . S
O142 In130 2.326 . S
O142 C134 1.252 . S
In143 O144 2.294 . S
In143 O145 2.326 . S
In143 O149 2.266 . S
In143 O150 2.326 1_545 S
In143 O151 2.253 1_545 S
In143 O152 2.326 . S
In143 O154 2.319 . S
In143 O155 2.326 . S
O144 In143 2.294 . S
O144 C153 1.240 . S
O145 In143 2.326 . S
O145 C153 1.252 . S
C146 O149 1.252 . S
C146 O150 1.260 1_545 S
C147 O154 1.258 . S
C147 O155 1.252 . S
C148 O151 1.240 1_545 S
C148 O152 1.260 . S
O149 In143 2.266 . S
O149 C146 1.252 . S
O150 In143 2.326 1_565 S
O150 C146 1.260 1_565 S
O151 In143 2.253 1_565 S
O151 C148 1.240 1_565 S
O152 In143 2.326 . S
O152 C148 1.260 . S
C153 O144 1.240 . S
C153 O145 1.252 . S
O154 In143 2.319 . S
O154 C147 1.258 . S
O155 In143 2.326 . S
O155 C147 1.252 . S
H156 C162 0.930 . S
H157 C166 0.930 . S
H158 C171 0.929 . S
H159 C169 0.929 . S
H160 C164 0.929 . S
H161 C170 0.929 . S
C162 H156 0.930 . S
C162 C163 1.367 . S
C162 C170 1.378 . S
C163 C162 1.367 . S
C163 C171 1.433 . S
C164 H160 0.929 . S
C164 C166 1.378 . S
C164 C168 1.350 . S
C165 C168 1.463 . S
C165 C170 1.350 . S
C165 N173 1.427 . S
C166 H157 0.930 . S
C166 C164 1.378 . S
C166 C167 1.367 . S
C167 C166 1.367 . S
C167 C169 1.433 . S
C168 C164 1.350 . S
C168 C165 1.463 . S
C168 N172 1.427 . S
C169 H159 0.929 . S
C169 C167 1.433 . S
C169 N172 1.384 . S
C170 H161 0.929 . S
C170 C162 1.378 . S
C170 C165 1.350 . S
C171 H158 0.929 . S
C171 C163 1.433 . S
C171 N173 1.384 . S
N172 C168 1.427 . S
N172 C169 1.384 . S
N173 C165 1.427 . S
N173 C171 1.384 . S
H174 C180 0.930 . S
H175 C184 0.930 . S
H176 C189 0.930 1_455 S
H177 C187 0.930 1_655 S
H178 C182 0.929 . S
H179 C188 0.929 . S
C180 H174 0.930 . S
C180 C181 1.367 . S
C180 C188 1.378 . S
C181 C180 1.367 . S
C181 C189 1.433 . S
C182 H178 0.929 . S
C182 C184 1.378 . S
C182 C186 1.350 . S
C183 C186 1.463 1_655 S
C183 C188 1.350 . S
C183 N191 1.427 1_655 S
C184 H175 0.930 . S
C184 C182 1.378 . S
C184 C185 1.367 . S
C185 C184 1.367 . S
C185 C187 1.433 . S
C186 C182 1.350 . S
C186 C183 1.463 1_455 S
C186 N190 1.427 1_455 S
C187 H177 0.930 1_455 S
C187 C185 1.433 . S
C187 N190 1.384 1_455 S
C188 H179 0.929 . S
C188 C180 1.378 . S
C188 C183 1.350 . S
C189 H176 0.930 1_655 S
C189 C181 1.433 . S
C189 N191 1.384 1_655 S
N190 C186 1.427 1_655 S
N190 C187 1.384 1_655 S
N191 C183 1.427 1_455 S
N191 C189 1.384 1_455 S
H192 C198 0.930 . S
H193 C202 0.930 . S
H194 C207 0.929 . S
H195 C205 0.929 . S
H196 C200 0.929 . S
H197 C206 0.929 . S
C198 H192 0.930 . S
C198 C199 1.367 . S
C198 C206 1.378 . S
C199 C198 1.367 . S
C199 C207 1.433 1_565 S
C200 H196 0.929 . S
C200 C202 1.378 . S
C200 C204 1.350 . S
C201 C204 1.463 1_566 S
C201 C206 1.350 . S
C201 N209 1.427 1_565 S
C202 H193 0.930 . S
C202 C200 1.378 . S
C202 C203 1.367 . S
C203 C202 1.367 . S
C203 C205 1.433 1_545 S
C204 C200 1.350 . S
C204 C201 1.463 1_544 S
C204 N208 1.427 1_545 S
C205 H195 0.929 . S
C205 C203 1.433 1_565 S
C205 N208 1.384 . S
C206 H197 0.929 . S
C206 C198 1.378 . S
C206 C201 1.350 . S
C207 H194 0.929 . S
C207 C199 1.433 1_545 S
C207 N209 1.384 . S
N208 C204 1.427 1_565 S
N208 C205 1.384 . S
N209 C201 1.427 1_545 S
N209 C207 1.384 . S
H210 C216 0.930 . S
H211 C220 0.930 . S
H212 C225 0.929 . S
H213 C223 0.929 . S
H214 C218 0.929 . S
H215 C224 0.929 . S
C216 H210 0.930 . S
C216 C217 1.367 . S
C216 C224 1.378 . S
C217 C216 1.367 . S
C217 C225 1.433 . S
C218 H214 0.929 . S
C218 C220 1.378 . S
C218 C222 1.350 . S
C219 C222 1.463 . S
C219 C224 1.350 . S
C219 N227 1.427 . S
C220 H211 0.930 . S
C220 C218 1.378 . S
C220 C221 1.367 . S
C221 C220 1.367 . S
C221 C223 1.433 . S
C222 C218 1.350 . S
C222 C219 1.463 . S
C222 N226 1.427 . S
C223 H213 0.929 . S
C223 C221 1.433 . S
C223 N226 1.384 . S
C224 H215 0.929 . S
C224 C216 1.378 . S
C224 C219 1.350 . S
C225 H212 0.929 . S
C225 C217 1.433 . S
C225 N227 1.384 . S
N226 C222 1.427 . S
N226 C223 1.384 . S
N227 C219 1.427 . S
N227 C225 1.384 . S
H228 C234 0.930 . S
H229 C238 0.930 . S
H230 C243 0.929 . S
H231 C241 0.929 . S
H232 C236 0.929 . S
H233 C242 0.929 . S
C234 H228 0.930 . S
C234 C235 1.367 1_455 S
C234 C242 1.378 . S
C235 C234 1.367 1_655 S
C235 C243 1.433 . S
C236 H232 0.929 . S
C236 C238 1.378 . S
C236 C240 1.350 1_655 S
C237 C240 1.463 1_655 S
C237 C242 1.350 1_655 S
C237 N245 1.427 . S
C238 H229 0.930 . S
C238 C236 1.378 . S
C238 C239 1.367 1_655 S
C239 C238 1.367 1_455 S
C239 C241 1.433 . S
C240 C236 1.350 1_455 S
C240 C237 1.463 1_455 S
C240 N244 1.427 . S
C241 H231 0.929 . S
C241 C239 1.433 . S
C241 N244 1.384 . S
C242 H233 0.929 . S
C242 C234 1.378 . S
C242 C237 1.350 1_455 S
C243 H230 0.929 . S
C243 C235 1.433 . S
C243 N245 1.384 . S
N244 C240 1.427 . S
N244 C241 1.384 . S
N245 C237 1.427 . S
N245 C243 1.384 . S
H246 C252 0.930 . S
H247 C256 0.930 . S
H248 C261 0.929 . S
H249 C259 0.929 . S
H250 C254 0.929 . S
H251 C260 0.929 . S
C252 H246 0.930 . S
C252 C253 1.367 1_545 S
C252 C260 1.378 . S
C253 C252 1.367 1_565 S
C253 C261 1.433 . S
C254 H250 0.929 . S
C254 C256 1.378 . S
C254 C258 1.350 1_565 S
C255 C258 1.463 1_564 S
C255 C260 1.350 1_565 S
C255 N263 1.427 . S
C256 H247 0.930 . S
C256 C254 1.378 . S
C256 C257 1.367 1_565 S
C257 C256 1.367 1_545 S
C257 C259 1.433 . S
C258 C254 1.350 1_545 S
C258 C255 1.463 1_546 S
C258 N262 1.427 . S
C259 H249 0.929 . S
C259 C257 1.433 . S
C259 N262 1.384 . S
C260 H251 0.929 . S
C260 C252 1.378 . S
C260 C255 1.350 1_545 S
C261 H248 0.929 . S
C261 C253 1.433 . S
C261 N263 1.384 . S
N262 C258 1.427 . S
N262 C259 1.384 . S
N263 C255 1.427 . S
N263 C261 1.384 . S
H264 C270 0.930 . S
H265 C274 0.930 . S
H266 C279 0.929 . S
H267 C277 0.929 . S
H268 C272 0.929 1_556 S
H269 C278 0.929 1_554 S
C270 H264 0.930 . S
C270 C271 1.367 . S
C270 C278 1.378 . S
C271 C270 1.367 . S
C271 C279 1.433 . S
C272 H268 0.929 1_554 S
C272 C274 1.378 . S
C272 C276 1.350 . S
C273 C276 1.463 1_556 S
C273 C278 1.350 . S
C273 N281 1.427 . S
C274 H265 0.930 . S
C274 C272 1.378 . S
C274 C275 1.367 . S
C275 C274 1.367 . S
C275 C277 1.433 . S
C276 C272 1.350 . S
C276 C273 1.463 1_554 S
C276 N280 1.427 . S
C277 H267 0.929 . S
C277 C275 1.433 . S
C277 N280 1.384 . S
C278 H269 0.929 1_556 S
C278 C270 1.378 . S
C278 C273 1.350 . S
C279 H266 0.929 . S
C279 C271 1.433 . S
C279 N281 1.384 . S
N280 C276 1.427 . S
N280 C277 1.384 . S
N281 C273 1.427 . S
N281 C279 1.384 . S
H282 C288 0.930 . S
H283 C292 0.930 . S
H284 C297 0.929 . S
H285 C295 0.929 . S
H286 C290 0.929 . S
H287 C296 0.929 . S
C288 H282 0.930 . S
C288 C289 1.367 . S
C288 C296 1.378 . S
C289 C288 1.367 . S
C289 C297 1.433 . S
C290 H286 0.929 . S
C290 C292 1.378 . S
C290 C294 1.350 . S
C291 C294 1.463 . S
C291 C296 1.350 . S
C291 N299 1.427 . S
C292 H283 0.930 . S
C292 C290 1.378 . S
C292 C293 1.367 . S
C293 C292 1.367 . S
C293 C295 1.433 . S
C294 C290 1.350 . S
C294 C291 1.463 . S
C294 N298 1.427 . S
C295 H285 0.929 . S
C295 C293 1.433 . S
C295 N298 1.384 . S
C296 H287 0.929 . S
C296 C288 1.378 . S
C296 C291 1.350 . S
C297 H284 0.929 . S
C297 C289 1.433 . S
C297 N299 1.384 . S
N298 C294 1.427 . S
N298 C295 1.384 . S
N299 C291 1.427 . S
N299 C297 1.384 . S
H300 C306 0.930 . S
H301 C310 0.930 . S
H302 C315 0.929 . S
H303 C313 0.929 . S
H304 C308 0.929 . S
H305 C314 0.929 . S
C306 H300 0.930 . S
C306 C307 1.367 . S
C306 C314 1.378 . S
C307 C306 1.367 . S
C307 C315 1.433 . S
C308 H304 0.929 . S
C308 C310 1.378 . S
C308 C312 1.350 . S
C309 C312 1.463 . S
C309 C314 1.350 . S
C309 N317 1.427 . S
C310 H301 0.930 . S
C310 C308 1.378 . S
C310 C311 1.367 . S
C311 C310 1.367 . S
C311 C313 1.433 . S
C312 C308 1.350 . S
C312 C309 1.463 . S
C312 N316 1.427 . S
C313 H303 0.929 . S
C313 C311 1.433 . S
C313 N316 1.384 . S
C314 H305 0.929 . S
C314 C306 1.378 . S
C314 C309 1.350 . S
C315 H302 0.929 . S
C315 C307 1.433 . S
C315 N317 1.384 . S
N316 C312 1.427 . S
N316 C313 1.384 . S
N317 C309 1.427 . S
N317 C315 1.384 . S
H318 C324 0.930 . S
H319 C328 0.930 . S
H320 C333 0.929 . S
H321 C331 0.929 . S
H322 C326 0.929 . S
H323 C332 0.929 . S
C324 H318 0.930 . S
C324 C325 1.367 1_556 S
C324 C332 1.378 . S
C325 C324 1.367 1_554 S
C325 C333 1.433 . S
C326 H322 0.929 . S
C326 C328 1.378 . S
C326 C330 1.350 1_554 S
C327 C330 1.463 1_554 S
C327 C332 1.350 1_554 S
C327 N335 1.427 . S
C328 H319 0.930 . S
C328 C326 1.378 . S
C328 C329 1.367 1_554 S
C329 C328 1.367 1_556 S
C329 C331 1.433 . S
C330 C326 1.350 1_556 S
C330 C327 1.463 1_556 S
C330 N334 1.427 . S
C331 H321 0.929 . S
C331 C329 1.433 . S
C331 N334 1.384 . S
C332 H323 0.929 . S
C332 C324 1.378 . S
C332 C327 1.350 1_556 S
C333 H320 0.929 . S
C333 C325 1.433 . S
C333 N335 1.384 . S
N334 C330 1.427 . S
N334 C331 1.384 . S
N335 C327 1.427 . S
N335 C333 1.384 . S
H336 C342 0.930 . S
H337 C346 0.930 . S
H338 C351 0.929 . S
H339 C349 0.929 . S
H340 C344 0.929 . S
H341 C350 0.929 . S
C342 H336 0.930 . S
C342 C343 1.367 . S
C342 C350 1.378 . S
C343 C342 1.367 . S
C343 C351 1.433 . S
C344 H340 0.929 . S
C344 C346 1.378 . S
C344 C348 1.350 . S
C345 C348 1.463 . S
C345 C350 1.350 . S
C345 N353 1.427 . S
C346 H337 0.930 . S
C346 C344 1.378 . S
C346 C347 1.367 . S
C347 C346 1.367 . S
C347 C349 1.433 . S
C348 C344 1.350 . S
C348 C345 1.463 . S
C348 N352 1.427 . S
C349 H339 0.929 . S
C349 C347 1.433 . S
C349 N352 1.384 . S
C350 H341 0.929 . S
C350 C342 1.378 . S
C350 C345 1.350 . S
C351 H338 0.929 . S
C351 C343 1.433 . S
C351 N353 1.384 . S
N352 C348 1.427 . S
N352 C349 1.384 . S
N353 C345 1.427 . S
N353 C351 1.384 . S
H354 C360 0.930 . S
H355 C364 0.930 . S
H356 C369 0.929 . S
H357 C367 0.929 . S
H358 C362 0.929 . S
H359 C368 0.929 . S
C360 H354 0.930 . S
C360 C361 1.367 . S
C360 C368 1.378 . S
C361 C360 1.367 . S
C361 C369 1.433 . S
C362 H358 0.929 . S
C362 C364 1.378 . S
C362 C366 1.350 . S
C363 C366 1.463 . S
C363 C368 1.350 . S
C363 N371 1.427 . S
C364 H355 0.930 . S
C364 C362 1.378 . S
C364 C365 1.367 . S
C365 C364 1.367 . S
C365 C367 1.433 . S
C366 C362 1.350 . S
C366 C363 1.463 . S
C366 N370 1.427 . S
C367 H357 0.929 . S
C367 C365 1.433 . S
C367 N370 1.384 . S
C368 H359 0.929 . S
C368 C360 1.378 . S
C368 C363 1.350 . S
C369 H356 0.929 . S
C369 C361 1.433 . S
C369 N371 1.384 . S
N370 C366 1.427 . S
N370 C367 1.384 . S
N371 C363 1.427 . S
N371 C369 1.384 . S
H372 C378 0.930 . S
H373 C382 0.930 . S
H374 C387 0.929 . S
H375 C385 0.929 . S
H376 C380 0.929 . S
H377 C386 0.929 . S
C378 H372 0.930 . S
C378 C379 1.367 . S
C378 C386 1.378 . S
C379 C378 1.367 . S
C379 C387 1.433 . S
C380 H376 0.929 . S
C380 C382 1.378 . S
C380 C384 1.350 . S
C381 C384 1.463 . S
C381 C386 1.350 . S
C381 N389 1.427 . S
C382 H373 0.930 . S
C382 C380 1.378 . S
C382 C383 1.367 . S
C383 C382 1.367 . S
C383 C385 1.433 . S
C384 C380 1.350 . S
C384 C381 1.463 . S
C384 N388 1.427 . S
C385 H375 0.929 . S
C385 C383 1.433 . S
C385 N388 1.384 . S
C386 H377 0.929 . S
C386 C378 1.378 . S
C386 C381 1.350 . S
C387 H374 0.929 . S
C387 C379 1.433 . S
C387 N389 1.384 . S
N388 C384 1.427 . S
N388 C385 1.384 . S
N389 C381 1.427 . S
N389 C387 1.384 . S
H390 C396 0.930 . S
H391 C400 0.930 . S
H392 C405 0.929 . S
H393 C403 0.929 . S
H394 C398 0.929 . S
H395 C404 0.929 . S
C396 H390 0.930 . S
C396 C397 1.367 . S
C396 C404 1.378 . S
C397 C396 1.367 . S
C397 C405 1.433 1_655 S
C398 H394 0.929 . S
C398 C400 1.378 . S
C398 C402 1.350 . S
C399 C402 1.463 1_655 S
C399 C404 1.350 . S
C399 N407 1.427 1_655 S
C400 H391 0.930 . S
C400 C398 1.378 . S
C400 C401 1.367 . S
C401 C400 1.367 . S
C401 C403 1.433 1_455 S
C402 C398 1.350 . S
C402 C399 1.463 1_455 S
C402 N406 1.427 1_455 S
C403 H393 0.929 . S
C403 C401 1.433 1_655 S
C403 N406 1.384 . S
C404 H395 0.929 . S
C404 C396 1.378 . S
C404 C399 1.350 . S
C405 H392 0.929 . S
C405 C397 1.433 1_455 S
C405 N407 1.384 . S
N406 C402 1.427 1_655 S
N406 C403 1.384 . S
N407 C399 1.427 1_455 S
N407 C405 1.384 . S
H408 C414 0.930 . S
H409 C418 0.930 . S
H410 C423 0.929 . S
H411 C421 0.929 . S
H412 C416 0.929 . S
H413 C422 0.929 . S
C414 H408 0.930 . S
C414 C415 1.367 . S
C414 C422 1.378 . S
C415 C414 1.367 . S
C415 C423 1.433 1_565 S
C416 H412 0.929 . S
C416 C418 1.378 . S
C416 C420 1.350 . S
C417 C420 1.463 1_565 S
C417 C422 1.350 . S
C417 N425 1.427 1_565 S
C418 H409 0.930 . S
C418 C416 1.378 . S
C418 C419 1.367 . S
C419 C418 1.367 . S
C419 C421 1.433 1_545 S
C420 C416 1.350 . S
C420 C417 1.463 1_545 S
C420 N424 1.427 1_545 S
C421 H411 0.929 . S
C421 C419 1.433 1_565 S
C421 N424 1.384 . S
C422 H413 0.929 . S
C422 C414 1.378 . S
C422 C417 1.350 . S
C423 H410 0.929 . S
C423 C415 1.433 1_545 S
C423 N425 1.384 . S
N424 C420 1.427 1_565 S
N424 C421 1.384 . S
N425 C417 1.427 1_545 S
N425 C423 1.384 . S
H426 C432 0.930 . S
H427 C436 0.930 . S
H428 C441 0.929 . S
H429 C439 0.929 . S
H430 C434 0.929 . S
H431 C440 0.929 . S
C432 H426 0.930 . S
C432 C433 1.367 . S
C432 C440 1.378 . S
C433 C432 1.367 . S
C433 C441 1.433 . S
C434 H430 0.929 . S
C434 C436 1.378 . S
C434 C438 1.350 . S
C435 C438 1.463 . S
C435 C440 1.350 . S
C435 N443 1.427 . S
C436 H427 0.930 . S
C436 C434 1.378 . S
C436 C437 1.367 . S
C437 C436 1.367 . S
C437 C439 1.433 . S
C438 C434 1.350 . S
C438 C435 1.463 . S
C438 N442 1.427 . S
C439 H429 0.929 . S
C439 C437 1.433 . S
C439 N442 1.384 . S
C440 H431 0.929 . S
C440 C432 1.378 . S
C440 C435 1.350 . S
C441 H428 0.929 . S
C441 C433 1.433 . S
C441 N443 1.384 . S
N442 C438 1.427 . S
N442 C439 1.384 . S
N443 C435 1.427 . S
N443 C441 1.384 . S
H444 C450 0.930 . S
H445 C454 0.930 . S
H446 C459 0.929 . S
H447 C457 0.929 . S
H448 C452 0.929 . S
H449 C458 0.929 . S
C450 H444 0.930 . S
C450 C451 1.367 . S
C450 C458 1.378 . S
C451 C450 1.367 . S
C451 C459 1.433 1_455 S
C452 H448 0.929 . S
C452 C454 1.378 . S
C452 C456 1.350 . S
C453 C456 1.463 1_455 S
C453 C458 1.350 . S
C453 N461 1.427 1_455 S
C454 H445 0.930 . S
C454 C452 1.378 . S
C454 C455 1.367 . S
C455 C454 1.367 . S
C455 C457 1.433 1_655 S
C456 C452 1.350 . S
C456 C453 1.463 1_655 S
C456 N460 1.427 1_655 S
C457 H447 0.929 . S
C457 C455 1.433 1_455 S
C457 N460 1.384 . S
C458 H449 0.929 . S
C458 C450 1.378 . S
C458 C453 1.350 . S
C459 H446 0.929 . S
C459 C451 1.433 1_655 S
C459 N461 1.384 . S
N460 C456 1.427 1_455 S
N460 C457 1.384 . S
N461 C453 1.427 1_655 S
N461 C459 1.384 . S
H462 C468 0.930 . S
H463 C472 0.930 . S
H464 C477 0.929 . S
H465 C475 0.929 . S
H466 C470 0.929 . S
H467 C476 0.929 . S
C468 H462 0.930 . S
C468 C469 1.367 . S
C468 C476 1.378 . S
C469 C468 1.367 . S
C469 C477 1.433 1_565 S
C470 H466 0.929 . S
C470 C472 1.378 . S
C470 C474 1.350 . S
C471 C474 1.463 1_565 S
C471 C476 1.350 . S
C471 N479 1.427 1_565 S
C472 H463 0.930 . S
C472 C470 1.378 . S
C472 C473 1.367 . S
C473 C472 1.367 . S
C473 C475 1.433 1_545 S
C474 C470 1.350 . S
C474 C471 1.463 1_545 S
C474 N478 1.427 1_545 S
C475 H465 0.929 . S
C475 C473 1.433 1_565 S
C475 N478 1.384 . S
C476 H467 0.929 . S
C476 C468 1.378 . S
C476 C471 1.350 . S
C477 H464 0.929 . S
C477 C469 1.433 1_545 S
C477 N479 1.384 . S
N478 C474 1.427 1_565 S
N478 C475 1.384 . S
N479 C471 1.427 1_545 S
N479 C477 1.384 . S
H480 C486 0.930 . S
H481 C490 0.930 . S
H482 C495 0.929 . S
H483 C493 0.929 . S
H484 C488 0.929 . S
H485 C494 0.929 . S
C486 H480 0.930 . S
C486 C487 1.367 . S
C486 C494 1.378 . S
C487 C486 1.367 . S
C487 C495 1.433 . S
C488 H484 0.929 . S
C488 C490 1.378 . S
C488 C492 1.350 . S
C489 C492 1.463 . S
C489 C494 1.350 . S
C489 N497 1.427 . S
C490 H481 0.930 . S
C490 C488 1.378 . S
C490 C491 1.367 . S
C491 C490 1.367 . S
C491 C493 1.433 . S
C492 C488 1.350 . S
C492 C489 1.463 . S
C492 N496 1.427 . S
C493 H483 0.929 . S
C493 C491 1.433 . S
C493 N496 1.384 . S
C494 H485 0.929 . S
C494 C486 1.378 . S
C494 C489 1.350 . S
C495 H482 0.929 . S
C495 C487 1.433 . S
C495 N497 1.384 . S
N496 C492 1.427 . S
N496 C493 1.384 . S
N497 C489 1.427 . S
N497 C495 1.384 . S
H498 C504 0.930 . S
H499 C508 0.930 . S
H500 C513 0.929 . S
H501 C511 0.929 . S
H502 C506 0.929 . S
H503 C512 0.929 . S
C504 H498 0.930 . S
C504 C505 1.367 1_655 S
C504 C512 1.378 . S
C505 C504 1.367 1_455 S
C505 C513 1.433 . S
C506 H502 0.929 . S
C506 C508 1.378 . S
C506 C510 1.350 1_455 S
C507 C510 1.463 1_455 S
C507 C512 1.350 1_455 S
C507 N515 1.427 . S
C508 H499 0.930 . S
C508 C506 1.378 . S
C508 C509 1.367 1_455 S
C509 C508 1.367 1_655 S
C509 C511 1.433 . S
C510 C506 1.350 1_655 S
C510 C507 1.463 1_655 S
C510 N514 1.427 . S
C511 H501 0.929 . S
C511 C509 1.433 . S
C511 N514 1.384 . S
C512 H503 0.929 . S
C512 C504 1.378 . S
C512 C507 1.350 1_655 S
C513 H500 0.929 . S
C513 C505 1.433 . S
C513 N515 1.384 . S
N514 C510 1.427 . S
N514 C511 1.384 . S
N515 C507 1.427 . S
N515 C513 1.384 . S
H516 C522 0.930 . S
H517 C526 0.930 . S
H518 C531 0.929 . S
H519 C529 0.929 . S
H520 C524 0.929 . S
H521 C530 0.929 . S
C522 H516 0.930 . S
C522 C523 1.367 1_545 S
C522 C530 1.378 . S
C523 C522 1.367 1_565 S
C523 C531 1.433 . S
C524 H520 0.929 . S
C524 C526 1.378 . S
C524 C528 1.350 1_565 S
C525 C528 1.463 1_565 S
C525 C530 1.350 1_565 S
C525 N533 1.427 . S
C526 H517 0.930 . S
C526 C524 1.378 . S
C526 C527 1.367 1_565 S
C527 C526 1.367 1_545 S
C527 C529 1.433 . S
C528 C524 1.350 1_545 S
C528 C525 1.463 1_545 S
C528 N532 1.427 . S
C529 H519 0.929 . S
C529 C527 1.433 . S
C529 N532 1.384 . S
C530 H521 0.929 . S
C530 C522 1.378 . S
C530 C525 1.350 1_545 S
C531 H518 0.929 . S
C531 C523 1.433 . S
C531 N533 1.384 . S
N532 C528 1.427 . S
N532 C529 1.384 . S
N533 C525 1.427 . S
N533 C531 1.384 . S
H534 C540 0.930 . S
H535 C544 0.930 . S
H536 C549 0.929 . S
H537 C547 0.929 . S
H538 C542 0.929 . S
H539 C548 0.929 . S
C540 H534 0.930 . S
C540 C541 1.367 . S
C540 C548 1.378 . S
C541 C540 1.367 . S
C541 C549 1.433 . S
C542 H538 0.929 . S
C542 C544 1.378 . S
C542 C546 1.350 . S
C543 C546 1.463 . S
C543 C548 1.350 . S
C543 N551 1.427 . S
C544 H535 0.930 . S
C544 C542 1.378 . S
C544 C545 1.367 . S
C545 C544 1.367 . S
C545 C547 1.433 . S
C546 C542 1.350 . S
C546 C543 1.463 . S
C546 N550 1.427 . S
C547 H537 0.929 . S
C547 C545 1.433 . S
C547 N550 1.384 . S
C548 H539 0.929 . S
C548 C540 1.378 . S
C548 C543 1.350 . S
C549 H536 0.929 . S
C549 C541 1.433 . S
C549 N551 1.384 . S
N550 C546 1.427 . S
N550 C547 1.384 . S
N551 C543 1.427 . S
N551 C549 1.384 . S
H552 C558 0.930 . S
H553 C562 0.930 . S
H554 C567 0.929 . S
H555 C565 0.929 . S
H556 C560 0.929 . S
H557 C566 0.929 . S
C558 H552 0.930 . S
C558 C559 1.367 . S
C558 C566 1.378 . S
C559 C558 1.367 . S
C559 C567 1.433 1_655 S
C560 H556 0.929 . S
C560 C562 1.378 . S
C560 C564 1.350 . S
C561 C564 1.463 1_655 S
C561 C566 1.350 . S
C561 N569 1.427 1_655 S
C562 H553 0.930 . S
C562 C560 1.378 . S
C562 C563 1.367 . S
C563 C562 1.367 . S
C563 C565 1.433 1_455 S
C564 C560 1.350 . S
C564 C561 1.463 1_455 S
C564 N568 1.427 1_455 S
C565 H555 0.929 . S
C565 C563 1.433 1_655 S
C565 N568 1.384 . S
C566 H557 0.929 . S
C566 C558 1.378 . S
C566 C561 1.350 . S
C567 H554 0.929 . S
C567 C559 1.433 1_455 S
C567 N569 1.384 . S
N568 C564 1.427 1_655 S
N568 C565 1.384 . S
N569 C561 1.427 1_455 S
N569 C567 1.384 . S
H570 C576 0.930 . S
H571 C580 0.930 . S
H572 C585 0.929 . S
H573 C583 0.929 . S
H574 C578 0.929 . S
H575 C584 0.929 . S
C576 H570 0.930 . S
C576 C577 1.367 . S
C576 C584 1.378 . S
C577 C576 1.367 . S
C577 C585 1.433 . S
C578 H574 0.929 . S
C578 C580 1.378 . S
C578 C582 1.350 . S
C579 C582 1.463 1_545 S
C579 C584 1.350 . S
C579 N587 1.427 . S
C580 H571 0.930 . S
C580 C578 1.378 . S
C580 C581 1.367 . S
C581 C580 1.367 . S
C581 C583 1.433 . S
C582 C578 1.350 . S
C582 C579 1.463 1_565 S
C582 N586 1.427 . S
C583 H573 0.929 . S
C583 C581 1.433 . S
C583 N586 1.384 . S
C584 H575 0.929 . S
C584 C576 1.378 . S
C584 C579 1.350 . S
C585 H572 0.929 . S
C585 C577 1.433 . S
C585 N587 1.384 . S
N586 C582 1.427 . S
N586 C583 1.384 . S
N587 C579 1.427 . S
N587 C585 1.384 . S
C163 C5 1.413 . S
C167 C122 1.409 . S
C181 C16 1.411 . S
C185 C133 1.405 . S
C199 C31 1.407 . S
C203 C148 1.404 . S
C217 C42 1.404 . S
C221 C83 1.408 . S
C235 C96 1.412 . S
C239 C57 1.410 . S
C253 C109 1.409 . S
C257 C68 1.413 . S
C271 C134 1.616 . S
C275 C10 1.614 . S
C289 C17 1.613 . S
C293 C153 1.613 . S
C307 C36 1.619 . S
C311 C88 1.619 . S
C325 C43 1.613 . S
C329 C101 1.613 . S
C343 C62 1.618 . S
C347 C114 1.616 . S
C361 C69 1.618 . S
C365 C127 1.619 . S
C379 C121 1.096 . S
C383 C4 1.104 . S
C397 C23 1.095 . S
C401 C140 1.103 . S
C415 C30 1.094 . S
C419 C147 1.095 . S
C433 C82 1.100 . S
C437 C49 1.094 . S
C451 C56 1.096 . S
C455 C95 1.094 . S
C469 C108 1.094 . S
C473 C75 1.098 . S
C487 C3 1.609 . S
C491 C44 1.611 . S
C505 C55 1.609 . S
C509 C18 1.610 . S
C523 C29 1.608 . S
C527 C70 1.610 . S
C541 C81 1.611 . S
C545 C120 1.608 . S
C559 C94 1.611 . S
C563 C135 1.609 . S
C577 C146 1.608 . S
C581 C107 1.611 . S
