# Generated by pormake.
# Topology umz, (4)-cn, num edge types: 1
# Building blocks:
#     Node 0, Type 0, BuildingBlock: CEKHIL_clean_sbu_0, # of connection points: 4
#     Node 1, Type 0, BuildingBlock: CEKHIL_clean_sbu_0, # of connection points: 4
#     Node 2, Type 0, BuildingBlock: CEKHIL_clean_sbu_0, # of connection points: 4
#     Node 3, Type 0, BuildingBlock: CEKHIL_clean_sbu_0, # of connection points: 4
#     Node 4, Type 0, BuildingBlock: CEKHIL_clean_sbu_0, # of connection points: 4
#     Node 5, Type 0, BuildingBlock: CEKHIL_clean_sbu_0, # of connection points: 4
#     Node 6, Type 0, BuildingBlock: CEKHIL_clean_sbu_0, # of connection points: 4
#     Node 7, Type 0, BuildingBlock: CEKHIL_clean_sbu_0, # of connection points: 4
#     Node 8, Type 0, BuildingBlock: CEKHIL_clean_sbu_0, # of connection points: 4
#     Node 9, Type 0, BuildingBlock: CEKHIL_clean_sbu_0, # of connection points: 4
#     Node 10, Type 0, BuildingBlock: CEKHIL_clean_sbu_0, # of connection points: 4
#     Node 11, Type 0, BuildingBlock: CEKHIL_clean_sbu_0, # of connection points: 4
#     Node 12, Type 0, BuildingBlock: CEKHIL_clean_sbu_0, # of connection points: 4
#     Node 13, Type 0, BuildingBlock: CEKHIL_clean_sbu_0, # of connection points: 4
#     Node 14, Type 0, BuildingBlock: CEKHIL_clean_sbu_0, # of connection points: 4
#     Node 15, Type 0, BuildingBlock: CEKHIL_clean_sbu_0, # of connection points: 4
#     Edge 16, Type (0, 0), BuildingBlock: CIFDUS_clean_linker_0, # of connection points: 2
#     Edge 17, Type (0, 0), BuildingBlock: CIFDUS_clean_linker_0, # of connection points: 2
#     Edge 18, Type (0, 0), BuildingBlock: CIFDUS_clean_linker_0, # of connection points: 2
#     Edge 19, Type (0, 0), BuildingBlock: CIFDUS_clean_linker_0, # of connection points: 2
#     Edge 20, Type (0, 0), BuildingBlock: CIFDUS_clean_linker_0, # of connection points: 2
#     Edge 21, Type (0, 0), BuildingBlock: CIFDUS_clean_linker_0, # of connection points: 2
#     Edge 22, Type (0, 0), BuildingBlock: CIFDUS_clean_linker_0, # of connection points: 2
#     Edge 23, Type (0, 0), BuildingBlock: CIFDUS_clean_linker_0, # of connection points: 2
#     Edge 24, Type (0, 0), BuildingBlock: CIFDUS_clean_linker_0, # of connection points: 2
#     Edge 25, Type (0, 0), BuildingBlock: CIFDUS_clean_linker_0, # of connection points: 2
#     Edge 26, Type (0, 0), BuildingBlock: CIFDUS_clean_linker_0, # of connection points: 2
#     Edge 27, Type (0, 0), BuildingBlock: CIFDUS_clean_linker_0, # of connection points: 2
#     Edge 28, Type (0, 0), BuildingBlock: CIFDUS_clean_linker_0, # of connection points: 2
#     Edge 29, Type (0, 0), BuildingBlock: CIFDUS_clean_linker_0, # of connection points: 2
#     Edge 30, Type (0, 0), BuildingBlock: CIFDUS_clean_linker_0, # of connection points: 2
#     Edge 31, Type (0, 0), BuildingBlock: CIFDUS_clean_linker_0, # of connection points: 2
#     Edge 32, Type (0, 0), BuildingBlock: CIFDUS_clean_linker_0, # of connection points: 2
#     Edge 33, Type (0, 0), BuildingBlock: CIFDUS_clean_linker_0, # of connection points: 2
#     Edge 34, Type (0, 0), BuildingBlock: CIFDUS_clean_linker_0, # of connection points: 2
#     Edge 35, Type (0, 0), BuildingBlock: CIFDUS_clean_linker_0, # of connection points: 2
#     Edge 36, Type (0, 0), BuildingBlock: CIFDUS_clean_linker_0, # of connection points: 2
#     Edge 37, Type (0, 0), BuildingBlock: CIFDUS_clean_linker_0, # of connection points: 2
#     Edge 38, Type (0, 0), BuildingBlock: CIFDUS_clean_linker_0, # of connection points: 2
#     Edge 39, Type (0, 0), BuildingBlock: CIFDUS_clean_linker_0, # of connection points: 2
#     Edge 40, Type (0, 0), BuildingBlock: CIFDUS_clean_linker_0, # of connection points: 2
#     Edge 41, Type (0, 0), BuildingBlock: CIFDUS_clean_linker_0, # of connection points: 2
#     Edge 42, Type (0, 0), BuildingBlock: CIFDUS_clean_linker_0, # of connection points: 2
#     Edge 43, Type (0, 0), BuildingBlock: CIFDUS_clean_linker_0, # of connection points: 2
#     Edge 44, Type (0, 0), BuildingBlock: CIFDUS_clean_linker_0, # of connection points: 2
#     Edge 45, Type (0, 0), BuildingBlock: CIFDUS_clean_linker_0, # of connection points: 2
#     Edge 46, Type (0, 0), BuildingBlock: CIFDUS_clean_linker_0, # of connection points: 2
#     Edge 47, Type (0, 0), BuildingBlock: CIFDUS_clean_linker_0, # of connection points: 2
# Relax obj value: 0.259
# Max RMSD: 0.166
# Mean RMSD: 0.166
data_MOF--net-umz--node1-CEKHIL_clean_sbu_0--edge1-CIFDUS_clean_linker_0
_symmetry_space_group_name_H-M    P1
_symmetry_Int_Tables_number       1
_symmetry_cell_setting            triclinic
loop_
_symmetry_equiv_pos_as_xyz
'x, y, z'
_cell_length_a     50.437229
_cell_length_b     50.558656
_cell_length_c     20.119301
_cell_angle_alpha  89.955759
_cell_angle_beta   90.067297
_cell_angle_gamma 89.812402
loop_
_atom_site_label
_atom_site_type_symbol
_atom_site_fract_x
_atom_site_fract_y
_atom_site_fract_z
_atom_type_partial_charge
Co0 Co 0.0056 0.63207 0.05873 0.0
O1 O 0.98577 0.66115 0.02224 0.0
O2 O 0.02814 0.66322 0.04974 0.0
C3 C 0.97483 0.61972 0.13455 0.0
O4 O 0.03178 0.60618 0.10175 0.0
Co5 Co 0.98216 0.5751 0.04525 0.0
O6 O 0.01227 0.56608 0.1046 0.0
C7 C 0.00589 0.60095 0.92904 0.0
C8 C 0.00705 0.67528 0.0275 0.0
C9 C 0.03133 0.5816 0.11902 0.0
O10 O 0.01565 0.61932 0.96618 0.0
O11 O 0.98947 0.58364 0.95008 0.0
O12 O 0.99089 0.63911 0.14751 0.0
O13 O 0.97605 0.61079 0.07474 0.0
Co14 Co 0.87303 0.01615 0.56769 0.0
O15 O 0.84331 1.00381 0.51661 0.0
O16 O 0.84408 0.04186 0.57038 0.0
C17 C 0.88077 0.97802 0.62431 0.0
O18 O 0.90001 0.03402 0.62909 0.0
Co19 Co 0.928 0.98916 0.54452 0.0
O20 O 0.93522 0.00636 0.63116 0.0
C21 C 0.90815 0.02785 0.44709 0.0
C22 C 0.8308 0.02508 0.53434 0.0
C23 C 0.92211 0.02589 0.65442 0.0
O24 O 0.88888 0.03409 0.48625 0.0
O25 O 0.92422 0.00874 0.45861 0.0
O26 O 0.86223 0.99422 0.6432 0.0
O27 O 0.89132 0.98364 0.56759 0.0
Co28 Co 0.49279 0.87491 0.05572 0.0
O29 O 0.50817 0.84292 0.02099 0.0
O30 O 0.46664 0.84662 0.05475 0.0
C31 C 0.5262 0.8857 0.12628 0.0
O32 O 0.47076 0.90443 0.09763 0.0
Co33 Co 0.52178 0.92842 0.02889 0.0
O34 O 0.49438 0.94215 0.09058 0.0
C35 C 0.49018 0.90417 0.92243 0.0
C36 C 0.48546 0.83167 0.03113 0.0
C37 C 0.47415 0.9292 0.11014 0.0
O38 O 0.48131 0.88669 0.96341 0.0
O39 O 0.50856 0.92053 0.93731 0.0
O40 O 0.5087 0.86814 0.14315 0.0
O41 O 0.52492 0.89326 0.06511 0.0
Co42 Co 0.6316 0.49755 0.55952 0.0
O43 O 0.66398 0.51203 0.52478 0.0
O44 O 0.65854 0.47008 0.5528 0.0
C45 C 0.62339 0.52983 0.63458 0.0
O46 O 0.60167 0.47606 0.60125 0.0
Co47 Co 0.57873 0.52936 0.54353 0.0
O48 O 0.56508 0.50176 0.60456 0.0
C49 C 0.60148 0.50176 0.42843 0.0
C50 C 0.67422 0.4886 0.53129 0.0
C51 C 0.57752 0.4805 0.61911 0.0
O52 O 0.61818 0.48955 0.46635 0.0
O53 O 0.58647 0.52052 0.44878 0.0
O54 O 0.64016 0.51103 0.64846 0.0
O55 O 0.61491 0.53007 0.57419 0.0
Co56 Co 0.00901 0.86954 0.8871 0.0
O57 O 0.9966 0.84122 0.94305 0.0
O58 O 0.03408 0.84022 0.88626 0.0
C59 C 0.97036 0.87749 0.83249 0.0
O60 O 0.02725 0.89417 0.82063 0.0
Co61 Co 0.98448 0.92613 0.89929 0.0
O62 O 1.00024 0.9295 0.80963 0.0
C63 C 0.02589 0.90913 -0.00559 0.0
C64 C 0.0176 0.82809 0.92549 0.0
C65 C 0.01942 0.91511 0.78956 0.0
O66 O 0.02843 0.88661 0.96485 0.0
O67 O 0.00866 0.92655 0.97773 0.0
O68 O 0.98562 0.85799 0.81479 0.0
O69 O 0.97718 0.88903 0.88707 0.0
Co70 Co 0.63222 0.00919 0.42394 0.0
O71 O 0.66224 0.99009 0.45836 0.0
O72 O 0.6632 0.03221 0.42919 0.0
C73 C 0.61904 0.97792 0.34994 0.0
O74 O 0.60528 0.03468 0.38277 0.0
Co75 Co 0.57576 0.98516 0.44438 0.0
O76 O 0.56531 0.01476 0.38508 0.0
C77 C 0.60294 0.01046 0.55659 0.0
C78 C 0.67596 0.01153 0.45115 0.0
C79 C 0.58037 0.03388 0.36833 0.0
O80 O 0.6208 0.01978 0.51722 0.0
O81 O 0.58535 0.99381 0.5383 0.0
O82 O 0.63813 0.99408 0.33508 0.0
O83 O 0.61099 0.97927 0.4106 0.0
Co84 Co 0.49999 0.63221 0.93716 0.0
O85 O 0.51887 0.66145 0.97485 0.0
O86 O 0.47689 0.66327 0.94398 0.0
C87 C 0.5319 0.62045 0.86362 0.0
O88 O 0.47492 0.6057 0.89272 0.0
Co89 Co 0.52498 0.5758 0.9537 0.0
O90 O 0.49565 0.56602 0.89301 0.0
C91 C 0.49937 0.60165 0.06754 0.0
C92 C 0.49757 0.67552 0.96757 0.0
C93 C 0.47628 0.581 0.87666 0.0
O94 O 0.48924 0.61947 0.02914 0.0
O95 O 0.51661 0.58473 0.04814 0.0
O96 O 0.51551 0.63953 0.84957 0.0
O97 O 0.53023 0.61147 0.92334 0.0
Co98 Co 0.87331 0.49326 0.43136 0.0
O99 O 0.84663 0.51303 0.47816 0.0
O100 O 0.84096 0.47259 0.43913 0.0
C101 C 0.88571 0.52628 0.36199 0.0
O102 O 0.89574 0.46752 0.37679 0.0
Co103 Co 0.93238 0.5113 0.43846 0.0
O104 O 0.93738 0.48345 0.3703 0.0
C105 C 0.90804 0.48494 0.55357 0.0
C106 C 0.83086 0.49315 0.4688 0.0
C107 C 0.91968 0.46662 0.35451 0.0
O108 O 0.88773 0.47834 0.51823 0.0
O109 O 0.92617 0.50052 0.53272 0.0
O110 O 0.86485 0.51219 0.3489 0.0
O111 O 0.89643 0.52183 0.41911 0.0
Co112 Co 1.00207 0.37746 0.92633 0.0
O113 O 0.01685 0.34516 0.96139 0.0
O114 O 0.97669 0.34865 0.91818 0.0
C115 C 0.03824 0.39028 0.86753 0.0
O116 O 0.98082 0.40718 0.88192 0.0
Co117 Co 0.0279 0.43154 0.96389 0.0
O118 O 1.0036 0.44512 0.89405 0.0
C119 C 0.99663 0.40241 0.06279 0.0
C120 C 0.99472 0.33374 0.94569 0.0
C121 C 0.9844 0.43195 0.86947 0.0
O122 O 0.98741 0.38703 0.01727 0.0
O123 O 0.01517 0.41913 0.0526 0.0
O124 O 0.02193 0.37303 0.8426 0.0
O125 O 0.03366 0.39665 0.92832 0.0
Co126 Co 0.14258 0.99249 0.39013 0.0
O127 O 0.17006 1.00314 0.45072 0.0
O128 O 0.17102 0.96636 0.39152 0.0
C129 C 0.13779 0.03207 0.3384 0.0
O130 O 0.11843 0.97598 0.31926 0.0
Co131 Co 0.0869 0.01983 0.39505 0.0
O132 O 0.08449 0.00455 0.30471 0.0
C133 C 0.10044 0.97793 0.49245 0.0
C134 C 0.18289 0.98197 0.43347 0.0
C135 C 0.09832 0.98475 0.28609 0.0
O136 O 0.12302 0.97352 0.46441 0.0
O137 O 0.08457 0.99641 0.4745 0.0
O138 O 0.15676 0.01603 0.32127 0.0
O139 O 0.12463 0.02501 0.39029 0.0
Co140 Co 0.51314 0.1343 0.92821 0.0
O141 O 0.4937 0.16199 0.97226 0.0
O142 O 0.53236 0.16757 0.92255 0.0
C143 C 0.47806 0.11745 0.87234 0.0
O144 O 0.53801 0.1106 0.874 0.0
Co145 Co 0.49873 0.07524 0.95529 0.0
O146 O 0.52371 0.0685 0.88114 0.0
C147 C 0.52706 0.10616 0.05665 0.0
C148 C 0.51251 0.17795 0.95474 0.0
C149 C 0.53917 0.08599 0.85714 0.0
O150 O 0.53196 0.12463 0.01421 0.0
O151 O 0.51159 0.08673 0.0447 0.0
O152 O 0.49046 0.13799 0.84917 0.0
O153 O 0.48562 0.10966 0.93027 0.0
Co154 Co 0.37759 0.50863 0.43758 0.0
O155 O 0.34949 0.48975 0.48178 0.0
O156 O 0.34443 0.52823 0.43097 0.0
C157 C 0.3947 0.47332 0.3823 0.0
O158 O 0.40128 0.53312 0.38308 0.0
Co159 Co 0.43679 0.4943 0.46518 0.0
O160 O 0.4436 0.5191 0.39069 0.0
C161 C 0.40616 0.52393 0.56502 0.0
C162 C 0.33374 0.50878 0.4636 0.0
C163 C 0.42592 0.53441 0.3664 0.0
O164 O 0.38721 0.52787 0.523 0.0
O165 O 0.4259 0.50864 0.55371 0.0
O166 O 0.37403 0.48571 0.35909 0.0
O167 O 0.40242 0.48094 0.44024 0.0
Co168 Co 0.00713 0.13632 0.06732 0.0
O169 O 0.02431 0.16407 0.01901 0.0
O170 O 0.98423 0.16772 0.06182 0.0
C171 C 0.04266 0.12648 0.13245 0.0
O172 O 0.98411 0.11117 0.12316 0.0
Co173 Co 0.03173 0.07936 0.05603 0.0
O174 O 0.00562 0.0719 0.12683 0.0
C175 C 0.9958 0.09941 0.95052 0.0
C176 C 1.00383 0.17885 0.03031 0.0
C177 C 0.98648 0.08703 0.14374 0.0
O178 O 0.99141 0.12116 0.98231 0.0
O179 O 0.01271 0.08199 0.96931 0.0
O180 O 0.0269 0.14583 0.1482 0.0
O181 O 0.038 0.11586 0.07559 0.0
Co182 Co 0.37907 0.99852 0.55441 0.0
O183 O 0.34752 0.01475 0.51979 0.0
O184 O 0.34895 0.97463 0.56375 0.0
C185 C 0.39313 0.03418 0.61244 0.0
O186 O 0.40829 0.97639 0.59859 0.0
Co187 Co 0.4338 0.02262 0.51443 0.0
O188 O 0.44693 0.9979 0.58373 0.0
C189 C 0.40411 0.99034 0.41844 0.0
C190 C 0.33494 0.99356 0.53708 0.0
C191 C 0.43338 0.9792 0.60927 0.0
O192 O 0.38787 0.98296 0.46421 0.0
O193 O 0.4216 0.0083 0.42706 0.0
O194 O 0.37538 0.01853 0.63765 0.0
O195 O 0.39934 0.02935 0.55163 0.0
Co196 Co 0.51335 0.37628 0.05902 0.0
O197 O 0.49781 0.34572 0.01655 0.0
O198 O 0.5376 0.34655 0.06299 0.0
C199 C 0.47717 0.38875 0.11827 0.0
O200 O 0.5356 0.40267 0.11112 0.0
Co201 Co 0.49158 0.43328 0.03628 0.0
O202 O 0.51648 0.4429 0.10885 0.0
C203 C 0.52211 0.40671 0.93078 0.0
C204 C 0.51948 0.33313 0.03189 0.0
C205 C 0.53425 0.42696 0.12991 0.0
O206 O 0.52938 0.38834 0.97152 0.0
O207 O 0.50489 0.42441 0.94539 0.0
O208 O 0.49252 0.36991 0.14016 0.0
O209 O 0.48271 0.39732 0.05965 0.0
Co210 Co 0.13416 0.51618 0.55887 0.0
O211 O 0.16459 0.50044 0.5156 0.0
O212 O 0.16486 0.53887 0.56804 0.0
C213 C 0.11993 0.47913 0.61168 0.0
O214 O 0.10787 0.53813 0.6129 0.0
Co215 Co 0.0766 0.49723 0.5291 0.0
O216 O 0.06697 0.52083 0.6042 0.0
C217 C 0.10531 0.52923 0.43045 0.0
C218 C 0.1779 0.52099 0.53497 0.0
C219 C 0.08319 0.53738 0.62924 0.0
O220 O 0.12339 0.53492 0.47348 0.0
O221 O 0.08703 0.51226 0.44099 0.0
O222 O 0.13917 0.49304 0.63672 0.0
O223 O 0.11204 0.48655 0.5537 0.0
H224 H 0.04781 0.70862 -0.00888 0.0
H225 H 0.96377 0.70659 0.0311 0.0
H226 H 0.96013 0.75356 0.00695 0.0
H227 H 0.98006 0.79505 0.97188 0.0
H228 H 0.06318 0.79796 0.92309 0.0
H229 H 0.06797 0.75109 0.95323 0.0
C230 C 0.02878 0.71857 -0.00532 0.0
C231 C 0.00609 0.70405 0.01286 0.0
C232 C 0.02663 0.74578 0.97907 0.0
C233 C 0.98152 0.71716 0.01678 0.0
C234 C 0.97939 0.74411 0.00315 0.0
C235 C 0.99931 0.78554 0.96827 0.0
C236 C 0.02126 0.80005 0.94573 0.0
C237 C 1.00172 0.75857 0.9839 0.0
C238 C 0.04596 0.78724 0.94043 0.0
C239 C 0.04869 0.76043 0.95763 0.0
H240 H 0.70935 0.0531 0.48183 0.0
H241 H 0.7079 0.96881 0.4478 0.0
H242 H 0.75536 0.96611 0.46722 0.0
H243 H 0.79714 0.98691 0.49566 0.0
H244 H 0.79999 0.07038 0.53835 0.0
H245 H 0.75234 0.07422 0.51383 0.0
C246 C 0.71952 0.03422 0.47857 0.0
C247 C 0.70501 0.01118 0.46335 0.0
C248 C 0.74709 0.03263 0.49138 0.0
C249 C 0.71844 0.98682 0.45982 0.0
C250 C 0.74567 0.98523 0.47075 0.0
C251 C 0.78747 0.00605 0.49922 0.0
C252 C 0.8022 0.02837 0.51823 0.0
C253 C 0.76015 0.00791 0.48678 0.0
C254 C 0.78914 0.05289 0.5236 0.0
C255 C 0.76188 0.05506 0.50961 0.0
H256 H 0.5243 0.79543 0.0185 0.0
H257 H 0.43919 0.80315 0.01774 0.0
H258 H 0.43487 0.75542 -0.00276 0.0
H259 H 0.4559 0.71112 0.97888 0.0
H260 H 0.54132 0.70508 0.98642 0.0
H261 H 0.54478 0.75229 0.00494 0.0
C262 C 0.50474 0.78676 0.01363 0.0
C263 C 0.48212 0.80289 0.01903 0.0
C264 C 0.50247 0.75943 0.0032 0.0
C265 C 0.45695 0.79118 0.01361 0.0
C266 C 0.4545 0.76388 0.00186 0.0
C267 C 0.4752 0.72019 0.98476 0.0
C268 C 0.49829 0.70441 0.98115 0.0
C269 C 0.47718 0.74773 -0.00351 0.0
C270 C 0.52317 0.71654 -0.01079 0.0
C271 C 0.52525 0.74366 -0.00035 0.0
H272 H 0.71283 0.52517 0.53308 0.0
H273 H 0.69987 0.44184 0.50266 0.0
H274 H 0.74741 0.43543 0.48114 0.0
H275 H 0.79282 0.45413 0.46917 0.0
H276 H 0.8046 0.53737 0.50674 0.0
H277 H 0.75752 0.54309 0.52764 0.0
C278 C 0.72035 0.50558 0.52149 0.0
C279 C 0.70282 0.48408 0.51862 0.0
C280 C 0.74761 0.50202 0.51075 0.0
C281 C 0.71298 0.45875 0.50485 0.0
C282 C 0.74015 0.4551 0.49257 0.0
C283 C 0.78506 0.47344 0.48235 0.0
C284 C 0.80232 0.49528 0.48611 0.0
C285 C 0.7577 0.47664 0.4952 0.0
C286 C 0.79192 0.52017 0.50357 0.0
C287 C 0.7649 0.52353 0.51534 0.0
H288 H 0.03282 0.29717 0.96515 0.0
H289 H 0.94791 0.30588 0.95538 0.0
H290 H 0.94256 0.25873 0.9822 0.0
H291 H 0.96265 0.21467 0.01035 0.0
H292 H 0.04801 0.20752 0.01255 0.0
H293 H 0.05244 0.25414 0.98713 0.0
C294 C 0.01309 0.28881 0.96885 0.0
C295 C 0.99082 0.30507 0.95878 0.0
C296 C 0.01024 0.2618 0.98314 0.0
C297 C 0.96542 0.29378 0.96289 0.0
C298 C 0.96237 0.26682 0.97843 0.0
C299 C 0.98214 0.2234 0.00517 0.0
C300 C 1.00494 0.20748 0.01348 0.0
C301 C 0.98469 0.25057 0.98903 0.0
C302 C 0.03007 0.21911 0.00608 0.0
C303 C 0.03271 0.24589 -0.00833 0.0
H304 H 0.30354 0.95315 0.49035 0.0
H305 H 0.3012 0.03263 0.56775 0.0
H306 H 0.25357 0.03495 0.54831 0.0
H307 H 0.21338 0.0161 0.50214 0.0
H308 H 0.21483 0.93818 0.41527 0.0
H309 H 0.26179 0.93341 0.44566 0.0
C310 C 0.29241 0.97073 0.50375 0.0
C311 C 0.30577 0.99269 0.53063 0.0
C312 C 0.26492 0.9723 0.49019 0.0
C313 C 0.2913 0.01554 0.54688 0.0
C314 C 0.26408 0.0169 0.53573 0.0
C315 C 0.2238 0.99789 0.49038 0.0
C316 C 0.21056 0.97753 0.45645 0.0
C317 C 0.2508 0.99565 0.50627 0.0
C318 C 0.22454 0.95419 0.44134 0.0
C319 C 0.25142 0.95149 0.45862 0.0
H320 H 0.55225 0.21456 0.9681 0.0
H321 H 0.4672 0.20583 0.9713 0.0
H322 H 0.46185 0.25298 -0.00756 0.0
H323 H 0.48106 0.29677 0.01137 0.0
H324 H 0.56598 0.30571 0.0176 0.0
H325 H 0.57169 0.25867 -0.00841 0.0
C326 C 0.5326 0.22306 0.97332 0.0
C327 C 0.51017 0.2067 0.96795 0.0
C328 C 0.52963 0.25028 0.98725 0.0
C329 C 0.48481 0.21793 0.97552 0.0
C330 C 0.4817 0.24494 0.98746 0.0
C331 C 0.50082 0.28844 0.00673 0.0
C332 C 0.52305 0.30472 0.0159 0.0
C333 C 0.50392 0.2613 -0.00642 0.0
C334 C 0.54853 0.29356 0.01076 0.0
C335 C 0.55181 0.26667 -0.00419 0.0
H336 H 0.29823 0.54953 0.47834 0.0
H337 H 0.30443 0.46442 0.47828 0.0
H338 H 0.25684 0.46069 0.4975 0.0
H339 H 0.21332 0.48141 0.5149 0.0
H340 H 0.20707 0.56634 0.5251 0.0
H341 H 0.25458 0.5704 0.50157 0.0
C342 C 0.28909 0.53021 0.48251 0.0
C343 C 0.30484 0.50728 0.4766 0.0
C344 C 0.26166 0.52818 0.49543 0.0
C345 C 0.29279 0.48238 0.48289 0.0
C346 C 0.26554 0.48021 0.49371 0.0
C347 C 0.22235 0.50081 0.51172 0.0
C348 C 0.20667 0.52354 0.52112 0.0
C349 C 0.24977 0.50294 0.50009 0.0
C350 C 0.21873 0.54853 0.51798 0.0
C351 C 0.24589 0.55086 0.50445 0.0
H352 H 0.05702 0.6039 0.88643 0.0
H353 H 0.97747 0.58693 0.82079 0.0
H354 H 0.99457 0.56792 0.71796 0.0
H355 H 0.032 0.55054 0.65461 0.0
H356 H 0.11194 0.56544 0.72101 0.0
H357 H 0.09491 0.59094 0.81512 0.0
C358 C 0.04348 0.59686 0.84849 0.0
C359 C 0.01604 0.5968 0.86102 0.0
C360 C 0.05354 0.58504 0.79028 0.0
C361 C 0.99867 0.58719 0.81209 0.0
C362 C 0.00845 0.57612 0.75355 0.0
C363 C 0.04576 0.55958 0.68922 0.0
C364 C 0.0732 0.55568 0.68126 0.0
C365 C 0.03584 0.57396 0.74344 0.0
C366 C 0.09071 0.56796 0.72606 0.0
C367 C 0.08097 0.58252 0.78004 0.0
H368 H 0.95708 0.10937 0.24565 0.0
H369 H 0.97001 0.03664 0.13795 0.0
H370 H 0.94342 0.01253 0.2179 0.0
H371 H 0.92207 0.01056 0.32608 0.0
H372 H 0.9085 0.082 0.43736 0.0
H373 H 0.92914 0.10815 0.34841 0.0
C374 C 0.95351 0.0884 0.23909 0.0
C375 C 0.966 0.07475 0.18661 0.0
C376 C 0.93826 0.07432 0.28628 0.0
C377 C 0.96112 0.04755 0.17863 0.0
C378 C 0.94587 0.03367 0.22431 0.0
C379 C 0.92305 0.03195 0.33008 0.0
C380 C 0.914 0.04433 0.38814 0.0
C381 C 0.93521 0.04663 0.27953 0.0
C382 C 0.91522 0.07205 0.39277 0.0
C383 C 0.92728 0.08695 0.3422 0.0
H384 H 0.51124 0.92417 0.80997 0.0
H385 H 0.43791 0.89532 0.89201 0.0
H386 H 0.41344 0.91382 0.79734 0.0
H387 H 0.41251 0.94399 0.69976 0.0
H388 H 0.48668 0.97302 0.62146 0.0
H389 H 0.51099 0.94871 0.70583 0.0
C390 C 0.48995 0.92141 0.80644 0.0
C391 C 0.4764 0.90868 0.85828 0.0
C392 C 0.47604 0.9326 0.75296 0.0
C393 C 0.44886 0.90498 0.85263 0.0
C394 C 0.43482 0.91584 0.79884 0.0
C395 C 0.43399 0.9446 0.70047 0.0
C396 C 0.4476 0.96085 0.65494 0.0
C397 C 0.4481 0.93061 0.74999 0.0
C398 C 0.47552 0.96119 0.65647 0.0
C399 C 0.48956 0.9472 0.70472 0.0
H400 H 0.5476 0.47783 0.15625 0.0
H401 H 0.56361 0.39759 0.21784 0.0
H402 H 0.59011 0.41378 0.31107 0.0
H403 H 0.60363 0.45092 0.38337 0.0
H404 H 0.58624 0.53089 0.32188 0.0
H405 H 0.56597 0.51465 0.21983 0.0
C406 C 0.55713 0.46386 0.18961 0.0
C407 C 0.55325 0.43657 0.18068 0.0
C408 C 0.57216 0.47328 0.24327 0.0
C409 C 0.56614 0.41873 0.22371 0.0
C410 C 0.58126 0.42797 0.27721 0.0
C411 C 0.59617 0.46477 0.34658 0.0
C412 C 0.59624 0.49205 0.36038 0.0
C413 C 0.58377 0.45524 0.28861 0.0
C414 C 0.58624 0.50978 0.31257 0.0
C415 C 0.57449 0.50051 0.25437 0.0
H416 H 0.09187 0.932 0.25605 0.0
H417 H 0.08689 0.01072 0.17383 0.0
H418 H 0.06641 0.9935 0.07339 0.0
H419 H 0.04549 0.95742 0.01455 0.0
H420 H 0.04815 0.87825 0.09367 0.0
H421 H 0.07419 0.89407 0.18932 0.0
C422 C 0.08681 0.94515 0.21533 0.0
C423 C 0.0907 0.9726 0.22226 0.0
C424 C 0.07431 0.9351 0.15778 0.0
C425 C 0.0839 0.98956 0.16962 0.0
C426 C 0.07212 0.97976 0.11228 0.0
C427 C 0.0519 0.94353 0.05252 0.0
C428 C 0.0445 0.91684 0.04791 0.0
C429 C 0.06646 0.95278 0.10683 0.0
C430 C 0.05349 0.89895 0.09648 0.0
C431 C 0.06827 0.90804 0.15119 0.0
H432 H 0.55756 0.03636 0.83617 0.0
H433 H 0.56337 0.11602 0.76078 0.0
H434 H 0.58852 0.0999 0.66478 0.0
H435 H 0.6029 0.06215 0.59445 0.0
H436 H 0.59423 0.9827 0.66905 0.0
H437 H 0.57668 0.99972 0.77365 0.0
C438 C 0.5646 0.0503 0.79924 0.0
C439 C 0.55817 0.07731 0.80514 0.0
C440 C 0.57859 0.04085 0.74387 0.0
C441 C 0.56791 0.09511 0.75737 0.0
C442 C 0.58221 0.08587 0.70227 0.0
C443 C 0.59804 0.04871 0.63464 0.0
C444 C 0.5999 0.02122 0.62435 0.0
C445 C 0.58691 0.05866 0.69389 0.0
C446 C 0.59303 1.00392 0.67612 0.0
C447 C 0.58279 0.01364 0.73566 0.0
H448 H 0.47549 0.55281 0.34443 0.0
H449 H 0.39519 0.55906 0.27189 0.0
H450 H 0.41054 0.58525 0.17709 0.0
H451 H 0.44777 0.60074 0.10681 0.0
H452 H 0.5279 0.59197 0.17854 0.0
H453 H 0.51164 0.57297 0.28221 0.0
C454 C 0.46125 0.56014 0.30834 0.0
C455 C 0.4343 0.55357 0.31466 0.0
C456 C 0.47024 0.57483 0.25373 0.0
C457 C 0.41608 0.56369 0.26807 0.0
C458 C 0.42487 0.57861 0.21369 0.0
C459 C 0.46152 0.59552 0.14623 0.0
C460 C 0.48897 0.59775 0.13532 0.0
C461 C 0.45203 0.5836 0.20489 0.0
C462 C 0.50668 0.59046 0.18609 0.0
C463 C 0.49741 0.57939 0.24509 0.0
H464 H 0.94691 0.41096 0.78493 0.0
H465 H 0.98146 0.48498 0.84792 0.0
H466 H 0.95744 0.50831 0.76133 0.0
H467 H 0.93124 0.50728 0.65975 0.0
H468 H 0.89683 0.43412 0.59265 0.0
H469 H 0.91547 0.41108 0.68961 0.0
C470 C 0.94883 0.43224 0.7804 0.0
C471 C 0.96645 0.44601 0.8224 0.0
C472 C 0.93498 0.44576 0.72962 0.0
C473 C 0.96848 0.47366 0.81588 0.0
C474 C 0.95467 0.48714 0.76631 0.0
C475 C 0.92733 0.48638 0.6671 0.0
C476 C 0.91292 0.47236 0.61892 0.0
C477 C 0.93856 0.4733 0.72174 0.0
C478 C 0.90777 0.44537 0.62929 0.0
C479 C 0.9187 0.43216 0.68433 0.0
H480 H 0.94393 0.40539 0.09125 0.0
H481 H 0.02153 0.40374 0.18124 0.0
H482 H 1.0031 0.41977 0.28575 0.0
H483 H 0.96692 0.44216 0.3435 0.0
H484 H 0.88939 0.44626 0.25385 0.0
H485 H 0.90552 0.4211 0.15775 0.0
C486 C 0.95652 0.40758 0.13464 0.0
C487 C 0.98403 0.40356 0.12877 0.0
C488 C 0.94588 0.41782 0.19408 0.0
C489 C 1.0003 0.4068 0.18483 0.0
C490 C 0.98981 0.41617 0.24438 0.0
C491 C 0.95342 0.43701 0.30355 0.0
C492 C 0.92718 0.44635 0.30504 0.0
C493 C 0.96294 0.42303 0.24837 0.0
C494 C 0.90972 0.43927 0.25364 0.0
C495 C 0.919 0.42506 0.1985 0.0
H496 H 0.07225 0.91481 0.7549 0.0
H497 H 0.99367 0.93268 0.68185 0.0
H498 H 0.01216 0.95096 0.58042 0.0
H499 H 0.04998 0.96578 0.5176 0.0
H500 H 0.12938 0.95096 0.58815 0.0
H501 H 0.11138 0.92722 0.68498 0.0
C502 C 0.05932 0.92235 0.71611 0.0
C503 C 0.03167 0.92268 0.72592 0.0
C504 C 0.0702 0.93357 0.65797 0.0
C505 C 0.01502 0.93253 0.67563 0.0
C506 C 0.02555 0.94299 0.61763 0.0
C507 C 0.06346 0.9573 0.55399 0.0
C508 C 0.09093 0.96056 0.54656 0.0
C509 C 0.05303 0.94429 0.60922 0.0
C510 C 0.10812 0.94883 0.59311 0.0
C511 C 0.0978 0.93539 0.64853 0.0
H512 H 0.60411 0.06515 0.27427 0.0
H513 H 0.52911 0.04976 0.36972 0.0
H514 H 0.50622 0.07643 0.28686 0.0
H515 H 0.50646 0.09655 0.17672 0.0
H516 H 0.58043 0.11084 0.07668 0.0
H517 H 0.60488 0.09296 0.17235 0.0
C518 C 0.58289 0.0683 0.27789 0.0
C519 C 0.56826 0.05502 0.32723 0.0
C520 C 0.56963 0.08331 0.22887 0.0
C521 C 0.54076 0.05932 0.33144 0.0
C522 C 0.52762 0.07459 0.28408 0.0
C523 C 0.52798 0.09661 0.17702 0.0
C524 C 0.54168 0.10476 0.12 0.0
C525 C 0.54168 0.08557 0.23095 0.0
C526 C 0.56952 0.10482 0.12048 0.0
C527 C 0.58345 0.09424 0.17479 0.0
H528 H 0.41541 0.50513 0.68742 0.0
H529 H 0.40202 0.5775 0.57957 0.0
H530 H 0.41933 0.60316 0.67359 0.0
H531 H 0.44613 0.60375 0.77774 0.0
H532 H 0.45992 0.53028 0.8818 0.0
H533 H 0.4343 0.50644 0.79901 0.0
C534 C 0.41541 0.52659 0.6856 0.0
C535 C 0.4076 0.53946 0.62696 0.0
C536 C 0.42596 0.54099 0.73889 0.0
C537 C 0.40772 0.56723 0.62468 0.0
C538 C 0.41796 0.58184 0.6781 0.0
C539 C 0.4428 0.58268 0.7832 0.0
C540 C 0.45537 0.56873 0.83515 0.0
C541 C 0.42832 0.56882 0.73427 0.0
C542 C 0.45089 0.5414 0.84161 0.0
C543 C 0.43624 0.5277 0.79425 0.0
H544 H 0.92766 0.07847 0.68964 0.0
H545 H 0.93945 0.99845 0.75902 0.0
H546 H 0.96198 0.01457 0.85755 0.0
H547 H 0.98113 0.05035 0.91975 0.0
H548 H 0.97127 0.13113 0.85548 0.0
H549 H 0.94505 0.11591 0.75935 0.0
C550 C 0.93484 0.06476 0.72706 0.0
C551 C 0.93216 0.0373 0.71696 0.0
C552 C 0.94839 0.07423 0.78379 0.0
C553 C 0.94157 0.01963 0.76546 0.0
C554 C 0.95449 0.0288 0.82177 0.0
C555 C 0.97341 0.06476 0.88463 0.0
C556 C 0.9787 0.09177 0.89374 0.0
C557 C 0.95858 0.05591 0.83051 0.0
C558 C 0.96773 0.11018 0.84903 0.0
C559 C 0.95277 0.10144 0.79416 0.0
H560 H 0.41784 0.00937 0.29856 0.0
H561 H 0.39556 0.93744 0.39871 0.0
H562 H 0.41213 0.91132 0.30487 0.0
H563 H 0.44053 0.90913 0.20435 0.0
H564 H 0.46427 0.98187 0.10917 0.0
H565 H 0.43948 0.00739 0.19061 0.0
C566 C 0.41596 0.98799 0.29901 0.0
C567 C 0.40591 0.97531 0.35568 0.0
C568 C 0.4263 0.9732 0.24622 0.0
C569 C 0.40323 0.94765 0.35549 0.0
C570 C 0.41301 0.9327 0.30218 0.0
C571 C 0.4397 0.93052 0.2006 0.0
C572 C 0.4547 0.9436 0.15164 0.0
C573 C 0.42578 0.94525 0.24875 0.0
C574 C 0.45336 0.97133 0.1472 0.0
C575 C 0.43915 0.98598 0.19369 0.0
H576 H 0.50065 0.42469 0.81711 0.0
H577 H 0.57442 0.39731 0.90109 0.0
H578 H 0.59853 0.41481 0.80481 0.0
H579 H 0.59892 0.44463 0.70653 0.0
H580 H 0.52446 0.47322 0.62783 0.0
H581 H 0.50038 0.44841 0.7118 0.0
C582 C 0.52196 0.42199 0.81356 0.0
C583 C 0.53579 0.41008 0.86636 0.0
C584 C 0.53561 0.43274 0.75939 0.0
C585 C 0.56332 0.40638 0.86091 0.0
C586 C 0.57713 0.41666 0.80621 0.0
C587 C 0.57742 0.44486 0.70685 0.0
C588 C 0.56353 0.46113 0.66166 0.0
C589 C 0.56357 0.43091 0.75655 0.0
C590 C 0.53566 0.46124 0.6627 0.0
C591 C 0.52183 0.44704 0.71071 0.0
H592 H 0.09679 0.50944 0.30891 0.0
H593 H 0.10683 0.5829 0.41378 0.0
H594 H 0.08804 0.60724 0.31904 0.0
H595 H 0.06087 0.60607 0.21566 0.0
H596 H 0.04984 0.53146 0.11542 0.0
H597 H 0.07717 0.50922 0.19813 0.0
C598 C 0.09569 0.53088 0.30996 0.0
C599 C 0.10297 0.54439 0.36802 0.0
C600 C 0.0842 0.54448 0.25643 0.0
C601 C 0.10152 0.57213 0.3692 0.0
C602 C 0.09043 0.58598 0.31538 0.0
C603 C 0.06516 0.58512 0.211 0.0
C604 C 0.05296 0.57034 0.16017 0.0
C605 C 0.08051 0.5722 0.26002 0.0
C606 C 0.05863 0.54318 0.15473 0.0
C607 C 0.07425 0.53041 0.20204 0.0
H608 H 0.92354 0.56344 0.38321 0.0
H609 H 0.87632 0.52781 0.22859 0.0
H610 H 0.89928 0.55423 0.14484 0.0
H611 H 0.934 0.58606 0.11512 0.0
H612 H 0.98031 0.62292 0.26953 0.0
H613 H 0.95637 0.59756 0.35395 0.0
C614 C 0.9182 0.56158 0.33119 0.0
C615 C 0.89836 0.5436 0.31204 0.0
C616 C 0.93133 0.57702 0.28337 0.0
C617 C 0.89148 0.54154 0.2446 0.0
C618 C 0.90465 0.55658 0.19667 0.0
C619 C 0.93873 0.58866 0.16732 0.0
C620 C 0.95896 0.60623 0.18612 0.0
C621 C 0.92478 0.57418 0.21543 0.0
C622 C 0.96475 0.60958 0.25387 0.0
C623 C 0.95115 0.595 0.30209 0.0
H624 H 0.91334 0.93641 0.59494 0.0
H625 H 0.87556 0.97653 0.75876 0.0
H626 H 0.89867 0.94788 0.83756 0.0
H627 H 0.93183 0.9133 0.86053 0.0
H628 H 0.96851 0.87182 0.69741 0.0
H629 H 0.94341 0.89871 0.61802 0.0
C630 C 0.90996 0.93863 0.64787 0.0
C631 C 0.8928 0.95863 0.67088 0.0
C632 C 0.92311 0.9218 0.69313 0.0
C633 C 0.88853 0.96122 0.73961 0.0
C634 C 0.90183 0.94489 0.78482 0.0
C635 C 0.93398 0.90985 0.8076 0.0
C636 C 0.95202 0.8906 0.78498 0.0
C637 C 0.91944 0.92536 0.76223 0.0
C638 C 0.95458 0.88634 0.71623 0.0
C639 C 0.94038 0.90187 0.67074 0.0
H640 H 0.56537 0.92163 0.10344 0.0
H641 H 0.52482 0.88044 0.26113 0.0
H642 H 0.55026 0.90493 0.34392 0.0
H643 H 0.5829 0.93919 0.37189 0.0
H644 H 0.62426 0.97984 0.21476 0.0
H645 H 0.59974 0.95443 0.13158 0.0
C646 C 0.56224 0.91789 0.15593 0.0
C647 C 0.54314 0.89925 0.17599 0.0
C648 C 0.57703 0.93203 0.20344 0.0
C649 C 0.5394 0.89461 0.24422 0.0
C650 C 0.55389 0.90868 0.29168 0.0
C651 C 0.58665 0.9424 0.31943 0.0
C652 C 0.60532 0.96146 0.29958 0.0
C653 C 0.57258 0.92761 0.27191 0.0
C654 C 0.61003 0.96527 0.23141 0.0
C655 C 0.59597 0.95078 0.1838 0.0
H656 H 0.59021 0.57134 0.61548 0.0
H657 H 0.6282 0.52542 0.76957 0.0
H658 H 0.60382 0.55018 0.85436 0.0
H659 H 0.56992 0.58322 0.88412 0.0
H660 H 0.5321 0.62915 0.72975 0.0
H661 H 0.55827 0.60603 0.64552 0.0
C662 C 0.59332 0.56689 0.66766 0.0
C663 C 0.61089 0.54649 0.68623 0.0
C664 C 0.57916 0.58109 0.71598 0.0
C665 C 0.61483 0.54106 0.754 0.0
C666 C 0.6008 0.55513 0.80246 0.0
C667 C 0.56752 0.58827 0.83206 0.0
C668 C 0.54899 0.60776 0.81313 0.0
C669 C 0.58264 0.57492 0.78395 0.0
C670 C 0.54622 0.61422 0.74558 0.0
C671 C 0.56113 0.60098 0.6974 0.0
H672 H 0.12268 0.46824 0.74467 0.0
H673 H 0.08359 0.4445 0.56361 0.0
H674 H 0.05622 0.41334 0.62545 0.0
H675 H 0.04126 0.39465 0.73222 0.0
H676 H 0.07904 0.41986 0.91373 0.0
H677 H 0.10897 0.44824 0.85085 0.0
C678 C 0.10839 0.45602 0.71873 0.0
C679 C 0.1052 0.45876 0.64965 0.0
C680 C 0.09232 0.43837 0.75484 0.0
C681 C 0.08643 0.44288 0.61684 0.0
C682 C 0.07071 0.42502 0.65217 0.0
C683 C 0.05631 0.40606 0.75781 0.0
C684 C 0.05791 0.4051 0.82753 0.0
C685 C 0.07318 0.42284 0.72135 0.0
C686 C 0.07733 0.42026 0.86005 0.0
C687 C 0.09446 0.43656 0.82414 0.0
H688 H 0.08415 0.09442 0.10368 0.0
H689 H 0.0433 0.13136 0.26754 0.0
H690 H 0.07116 0.10701 0.34644 0.0
H691 H 0.10429 0.07221 0.36839 0.0
H692 H 0.14575 0.03596 0.2045 0.0
H693 H 0.12081 0.06336 0.12596 0.0
C694 C 0.08159 0.09736 0.1567 0.0
C695 C 0.06156 0.11444 0.17987 0.0
C696 C 0.09777 0.08342 0.20163 0.0
C697 C 0.05859 0.11831 0.24855 0.0
C698 C 0.07444 0.10432 0.29364 0.0
C699 C 0.10821 0.0707 0.31551 0.0
C700 C 0.12674 0.05203 0.29222 0.0
C701 C 0.09371 0.08642 0.27071 0.0
C702 C 0.13173 0.05031 0.2237 0.0
C703 C 0.1173 0.06581 0.17874 0.0
H704 H 0.39624 0.03755 0.74717 0.0
H705 H 0.42394 0.07418 0.5666 0.0
H706 H 0.45144 0.10451 0.63099 0.0
H707 H 0.46949 0.11916 0.73862 0.0
H708 H 0.44362 0.0807 0.91857 0.0
H709 H 0.41357 0.05275 0.85475 0.0
C710 C 0.40806 0.05238 0.72205 0.0
C711 C 0.40802 0.05367 0.65233 0.0
C712 C 0.4243 0.06939 0.75933 0.0
C713 C 0.42367 0.07278 0.62033 0.0
C714 C 0.43943 0.09013 0.65708 0.0
C715 C 0.45705 0.10485 0.76379 0.0
C716 C 0.45874 0.10202 0.83313 0.0
C717 C 0.44018 0.08841 0.7266 0.0
C718 C 0.44272 0.08321 0.86513 0.0
C719 C 0.42552 0.0672 0.8287 0.0
H720 H 0.47559 0.39225 0.25379 0.0
H721 H 0.43501 0.4174 0.0758 0.0
H722 H 0.40472 0.44449 0.14168 0.0
H723 H 0.39131 0.46325 0.24937 0.0
H724 H 0.43356 0.44031 0.42687 0.0
H725 H 0.46143 0.41029 0.36219 0.0
C726 C 0.45984 0.40334 0.2297 0.0
C727 C 0.45745 0.40271 0.16009 0.0
C728 C 0.44288 0.41953 0.26785 0.0
C729 C 0.43724 0.41755 0.12937 0.0
C730 C 0.41993 0.43311 0.16698 0.0
C731 C 0.40644 0.45148 0.27393 0.0
C732 C 0.41031 0.45402 0.34283 0.0
C733 C 0.4228 0.4346 0.23618 0.0
C734 C 0.43018 0.43879 0.37383 0.0
C735 C 0.44616 0.42159 0.33687 0.0
loop_
_geom_bond_atom_site_label_1
_geom_bond_atom_site_label_2
_geom_bond_distance
_geom_bond_site_symmetry_2
_ccdc_geom_bond_type
Co0 O1 2.216 1_455 S
Co0 O2 2.091 . S
Co0 O4 2.004 . S
Co0 O10 2.021 . S
Co0 O12 2.137 1_455 S
Co0 O13 2.244 1_455 S
O1 Co0 2.216 1_655 S
O1 C8 1.247 1_655 S
O2 Co0 2.091 . S
O2 C8 1.261 . S
C3 O12 1.247 . S
C3 O13 1.272 . S
O4 Co0 2.004 . S
O4 C9 1.259 . S
Co5 O6 2.061 . S
Co5 O11 2.052 . S
Co5 O13 2.135 1_455 S
O6 Co5 2.061 . S
O6 C9 1.235 . S
C7 O10 1.238 . S
C7 O11 1.241 . S
C8 O1 1.247 1_455 S
C8 O2 1.261 . S
C9 O4 1.259 . S
C9 O6 1.235 . S
O10 Co0 2.021 . S
O10 C7 1.238 . S
O11 Co5 2.052 . S
O11 C7 1.241 . S
O12 Co0 2.137 1_655 S
O12 C3 1.247 . S
O13 Co0 2.244 1_655 S
O13 C3 1.272 . S
O13 Co5 2.135 1_655 S
Co14 O15 2.216 1_545 S
Co14 O16 2.091 . S
Co14 O18 2.004 . S
Co14 O24 2.021 . S
Co14 O26 2.137 1_545 S
Co14 O27 2.244 1_545 S
O15 Co14 2.216 1_565 S
O15 C22 1.247 1_565 S
O16 Co14 2.091 . S
O16 C22 1.261 . S
C17 O26 1.247 . S
C17 O27 1.272 . S
O18 Co14 2.004 . S
O18 C23 1.259 . S
Co19 O20 2.061 . S
Co19 O25 2.052 . S
Co19 O27 2.135 1_545 S
O20 Co19 2.061 . S
O20 C23 1.235 . S
C21 O24 1.238 . S
C21 O25 1.241 . S
C22 O15 1.247 1_545 S
C22 O16 1.261 . S
C23 O18 1.259 . S
C23 O20 1.235 . S
O24 Co14 2.021 . S
O24 C21 1.238 . S
O25 Co19 2.052 . S
O25 C21 1.241 . S
O26 Co14 2.137 1_565 S
O26 C17 1.247 . S
O27 Co14 2.244 1_565 S
O27 C17 1.272 . S
O27 Co19 2.135 1_565 S
Co28 O29 2.216 . S
Co28 O30 2.091 . S
Co28 O32 2.004 . S
Co28 O38 2.021 . S
Co28 O40 2.137 . S
Co28 O41 2.244 . S
O29 Co28 2.216 . S
O29 C36 1.247 . S
O30 Co28 2.091 . S
O30 C36 1.261 . S
C31 O40 1.247 . S
C31 O41 1.272 . S
O32 Co28 2.004 . S
O32 C37 1.259 . S
Co33 O34 2.061 . S
Co33 O39 2.052 . S
Co33 O41 2.135 . S
O34 Co33 2.061 . S
O34 C37 1.235 . S
C35 O38 1.238 . S
C35 O39 1.241 . S
C36 O29 1.247 . S
C36 O30 1.261 . S
C37 O32 1.259 . S
C37 O34 1.235 . S
O38 Co28 2.021 . S
O38 C35 1.238 . S
O39 Co33 2.052 . S
O39 C35 1.241 . S
O40 Co28 2.137 . S
O40 C31 1.247 . S
O41 Co28 2.244 . S
O41 C31 1.272 . S
O41 Co33 2.135 . S
Co42 O43 2.216 . S
Co42 O44 2.091 . S
Co42 O46 2.004 . S
Co42 O52 2.021 . S
Co42 O54 2.137 . S
Co42 O55 2.244 . S
O43 Co42 2.216 . S
O43 C50 1.247 . S
O44 Co42 2.091 . S
O44 C50 1.261 . S
C45 O54 1.247 . S
C45 O55 1.272 . S
O46 Co42 2.004 . S
O46 C51 1.259 . S
Co47 O48 2.061 . S
Co47 O53 2.052 . S
Co47 O55 2.135 . S
O48 Co47 2.061 . S
O48 C51 1.235 . S
C49 O52 1.238 . S
C49 O53 1.241 . S
C50 O43 1.247 . S
C50 O44 1.261 . S
C51 O46 1.259 . S
C51 O48 1.235 . S
O52 Co42 2.021 . S
O52 C49 1.238 . S
O53 Co47 2.052 . S
O53 C49 1.241 . S
O54 Co42 2.137 . S
O54 C45 1.247 . S
O55 Co42 2.244 . S
O55 C45 1.272 . S
O55 Co47 2.135 . S
Co56 O57 2.216 1_455 S
Co56 O58 2.091 . S
Co56 O60 2.004 . S
Co56 O66 2.021 . S
Co56 O68 2.137 1_455 S
Co56 O69 2.244 1_455 S
O57 Co56 2.216 1_655 S
O57 C64 1.247 1_655 S
O58 Co56 2.091 . S
O58 C64 1.261 . S
C59 O68 1.247 . S
C59 O69 1.272 . S
O60 Co56 2.004 . S
O60 C65 1.259 . S
Co61 O62 2.061 . S
Co61 O67 2.052 . S
Co61 O69 2.135 1_455 S
O62 Co61 2.061 . S
O62 C65 1.235 . S
C63 O66 1.238 . S
C63 O67 1.241 . S
C64 O57 1.247 1_455 S
C64 O58 1.261 . S
C65 O60 1.259 . S
C65 O62 1.235 . S
O66 Co56 2.021 . S
O66 C63 1.238 . S
O67 Co61 2.052 . S
O67 C63 1.241 . S
O68 Co56 2.137 1_655 S
O68 C59 1.247 . S
O69 Co56 2.244 1_655 S
O69 C59 1.272 . S
O69 Co61 2.135 1_655 S
Co70 O71 2.216 1_545 S
Co70 O72 2.091 . S
Co70 O74 2.004 . S
Co70 O80 2.021 . S
Co70 O82 2.137 1_545 S
Co70 O83 2.244 1_545 S
O71 Co70 2.216 1_565 S
O71 C78 1.247 1_565 S
O72 Co70 2.091 . S
O72 C78 1.261 . S
C73 O82 1.247 . S
C73 O83 1.272 . S
O74 Co70 2.004 . S
O74 C79 1.259 . S
Co75 O76 2.061 . S
Co75 O81 2.052 . S
Co75 O83 2.135 1_545 S
O76 Co75 2.061 . S
O76 C79 1.235 . S
C77 O80 1.238 . S
C77 O81 1.241 . S
C78 O71 1.247 1_545 S
C78 O72 1.261 . S
C79 O74 1.259 . S
C79 O76 1.235 . S
O80 Co70 2.021 . S
O80 C77 1.238 . S
O81 Co75 2.052 . S
O81 C77 1.241 . S
O82 Co70 2.137 1_565 S
O82 C73 1.247 . S
O83 Co70 2.244 1_565 S
O83 C73 1.272 . S
O83 Co75 2.135 1_565 S
Co84 O85 2.216 . S
Co84 O86 2.091 . S
Co84 O88 2.004 . S
Co84 O94 2.021 . S
Co84 O96 2.137 . S
Co84 O97 2.244 . S
O85 Co84 2.216 . S
O85 C92 1.247 . S
O86 Co84 2.091 . S
O86 C92 1.261 . S
C87 O96 1.247 . S
C87 O97 1.272 . S
O88 Co84 2.004 . S
O88 C93 1.259 . S
Co89 O90 2.061 . S
Co89 O95 2.052 . S
Co89 O97 2.135 . S
O90 Co89 2.061 . S
O90 C93 1.235 . S
C91 O94 1.238 . S
C91 O95 1.241 . S
C92 O85 1.247 . S
C92 O86 1.261 . S
C93 O88 1.259 . S
C93 O90 1.235 . S
O94 Co84 2.021 . S
O94 C91 1.238 . S
O95 Co89 2.052 . S
O95 C91 1.241 . S
O96 Co84 2.137 . S
O96 C87 1.247 . S
O97 Co84 2.244 . S
O97 C87 1.272 . S
O97 Co89 2.135 . S
Co98 O99 2.216 . S
Co98 O100 2.091 . S
Co98 O102 2.004 . S
Co98 O108 2.021 . S
Co98 O110 2.137 . S
Co98 O111 2.244 . S
O99 Co98 2.216 . S
O99 C106 1.247 . S
O100 Co98 2.091 . S
O100 C106 1.261 . S
C101 O110 1.247 . S
C101 O111 1.272 . S
O102 Co98 2.004 . S
O102 C107 1.259 . S
Co103 O104 2.061 . S
Co103 O109 2.052 . S
Co103 O111 2.135 . S
O104 Co103 2.061 . S
O104 C107 1.235 . S
C105 O108 1.238 . S
C105 O109 1.241 . S
C106 O99 1.247 . S
C106 O100 1.261 . S
C107 O102 1.259 . S
C107 O104 1.235 . S
O108 Co98 2.021 . S
O108 C105 1.238 . S
O109 Co103 2.052 . S
O109 C105 1.241 . S
O110 Co98 2.137 . S
O110 C101 1.247 . S
O111 Co98 2.244 . S
O111 C101 1.272 . S
O111 Co103 2.135 . S
Co112 O113 2.216 1_655 S
Co112 O114 2.091 . S
Co112 O116 2.004 . S
Co112 O122 2.021 . S
Co112 O124 2.137 1_655 S
Co112 O125 2.244 1_655 S
O113 Co112 2.216 1_455 S
O113 C120 1.247 1_455 S
O114 Co112 2.091 . S
O114 C120 1.261 . S
C115 O124 1.247 . S
C115 O125 1.272 . S
O116 Co112 2.004 . S
O116 C121 1.259 . S
Co117 O118 2.061 . S
Co117 O123 2.052 . S
Co117 O125 2.135 1_655 S
O118 Co117 2.061 . S
O118 C121 1.235 . S
C119 O122 1.238 . S
C119 O123 1.241 . S
C120 O113 1.247 1_655 S
C120 O114 1.261 . S
C121 O116 1.259 . S
C121 O118 1.235 . S
O122 Co112 2.021 . S
O122 C119 1.238 . S
O123 Co117 2.052 . S
O123 C119 1.241 . S
O124 Co112 2.137 1_455 S
O124 C115 1.247 . S
O125 Co112 2.244 1_455 S
O125 C115 1.272 . S
O125 Co117 2.135 1_455 S
Co126 O127 2.216 1_565 S
Co126 O128 2.091 . S
Co126 O130 2.004 . S
Co126 O136 2.021 . S
Co126 O138 2.137 1_565 S
Co126 O139 2.244 1_565 S
O127 Co126 2.216 1_545 S
O127 C134 1.247 1_545 S
O128 Co126 2.091 . S
O128 C134 1.261 . S
C129 O138 1.247 . S
C129 O139 1.272 . S
O130 Co126 2.004 . S
O130 C135 1.259 . S
Co131 O132 2.061 . S
Co131 O137 2.052 . S
Co131 O139 2.135 1_565 S
O132 Co131 2.061 . S
O132 C135 1.235 . S
C133 O136 1.238 . S
C133 O137 1.241 . S
C134 O127 1.247 1_565 S
C134 O128 1.261 . S
C135 O130 1.259 . S
C135 O132 1.235 . S
O136 Co126 2.021 . S
O136 C133 1.238 . S
O137 Co131 2.052 . S
O137 C133 1.241 . S
O138 Co126 2.137 1_545 S
O138 C129 1.247 . S
O139 Co126 2.244 1_545 S
O139 C129 1.272 . S
O139 Co131 2.135 1_545 S
Co140 O141 2.216 . S
Co140 O142 2.091 . S
Co140 O144 2.004 . S
Co140 O150 2.021 . S
Co140 O152 2.137 . S
Co140 O153 2.244 . S
O141 Co140 2.216 . S
O141 C148 1.247 . S
O142 Co140 2.091 . S
O142 C148 1.261 . S
C143 O152 1.247 . S
C143 O153 1.272 . S
O144 Co140 2.004 . S
O144 C149 1.259 . S
Co145 O146 2.061 . S
Co145 O151 2.052 . S
Co145 O153 2.135 . S
O146 Co145 2.061 . S
O146 C149 1.235 . S
C147 O150 1.238 . S
C147 O151 1.241 . S
C148 O141 1.247 . S
C148 O142 1.261 . S
C149 O144 1.259 . S
C149 O146 1.235 . S
O150 Co140 2.021 . S
O150 C147 1.238 . S
O151 Co145 2.052 . S
O151 C147 1.241 . S
O152 Co140 2.137 . S
O152 C143 1.247 . S
O153 Co140 2.244 . S
O153 C143 1.272 . S
O153 Co145 2.135 . S
Co154 O155 2.216 . S
Co154 O156 2.091 . S
Co154 O158 2.004 . S
Co154 O164 2.021 . S
Co154 O166 2.137 . S
Co154 O167 2.244 . S
O155 Co154 2.216 . S
O155 C162 1.247 . S
O156 Co154 2.091 . S
O156 C162 1.261 . S
C157 O166 1.247 . S
C157 O167 1.272 . S
O158 Co154 2.004 . S
O158 C163 1.259 . S
Co159 O160 2.061 . S
Co159 O165 2.052 . S
Co159 O167 2.135 . S
O160 Co159 2.061 . S
O160 C163 1.235 . S
C161 O164 1.238 . S
C161 O165 1.241 . S
C162 O155 1.247 . S
C162 O156 1.261 . S
C163 O158 1.259 . S
C163 O160 1.235 . S
O164 Co154 2.021 . S
O164 C161 1.238 . S
O165 Co159 2.052 . S
O165 C161 1.241 . S
O166 Co154 2.137 . S
O166 C157 1.247 . S
O167 Co154 2.244 . S
O167 C157 1.272 . S
O167 Co159 2.135 . S
Co168 O169 2.216 1_655 S
Co168 O170 2.091 . S
Co168 O172 2.004 . S
Co168 O178 2.021 . S
Co168 O180 2.137 1_655 S
Co168 O181 2.244 1_655 S
O169 Co168 2.216 1_455 S
O169 C176 1.247 1_455 S
O170 Co168 2.091 . S
O170 C176 1.261 . S
C171 O180 1.247 . S
C171 O181 1.272 . S
O172 Co168 2.004 . S
O172 C177 1.259 . S
Co173 O174 2.061 . S
Co173 O179 2.052 . S
Co173 O181 2.135 1_655 S
O174 Co173 2.061 . S
O174 C177 1.235 . S
C175 O178 1.238 . S
C175 O179 1.241 . S
C176 O169 1.247 1_655 S
C176 O170 1.261 . S
C177 O172 1.259 . S
C177 O174 1.235 . S
O178 Co168 2.021 . S
O178 C175 1.238 . S
O179 Co173 2.052 . S
O179 C175 1.241 . S
O180 Co168 2.137 1_455 S
O180 C171 1.247 . S
O181 Co168 2.244 1_455 S
O181 C171 1.272 . S
O181 Co173 2.135 1_455 S
Co182 O183 2.216 1_565 S
Co182 O184 2.091 . S
Co182 O186 2.004 . S
Co182 O192 2.021 . S
Co182 O194 2.137 1_565 S
Co182 O195 2.244 1_565 S
O183 Co182 2.216 1_545 S
O183 C190 1.247 1_545 S
O184 Co182 2.091 . S
O184 C190 1.261 . S
C185 O194 1.247 . S
C185 O195 1.272 . S
O186 Co182 2.004 . S
O186 C191 1.259 . S
Co187 O188 2.061 . S
Co187 O193 2.052 . S
Co187 O195 2.135 1_565 S
O188 Co187 2.061 . S
O188 C191 1.235 . S
C189 O192 1.238 . S
C189 O193 1.241 . S
C190 O183 1.247 1_565 S
C190 O184 1.261 . S
C191 O186 1.259 . S
C191 O188 1.235 . S
O192 Co182 2.021 . S
O192 C189 1.238 . S
O193 Co187 2.052 . S
O193 C189 1.241 . S
O194 Co182 2.137 1_545 S
O194 C185 1.247 . S
O195 Co182 2.244 1_545 S
O195 C185 1.272 . S
O195 Co187 2.135 1_545 S
Co196 O197 2.216 . S
Co196 O198 2.091 . S
Co196 O200 2.004 . S
Co196 O206 2.021 . S
Co196 O208 2.137 . S
Co196 O209 2.244 . S
O197 Co196 2.216 . S
O197 C204 1.247 . S
O198 Co196 2.091 . S
O198 C204 1.261 . S
C199 O208 1.247 . S
C199 O209 1.272 . S
O200 Co196 2.004 . S
O200 C205 1.259 . S
Co201 O202 2.061 . S
Co201 O207 2.052 . S
Co201 O209 2.135 . S
O202 Co201 2.061 . S
O202 C205 1.235 . S
C203 O206 1.238 . S
C203 O207 1.241 . S
C204 O197 1.247 . S
C204 O198 1.261 . S
C205 O200 1.259 . S
C205 O202 1.235 . S
O206 Co196 2.021 . S
O206 C203 1.238 . S
O207 Co201 2.052 . S
O207 C203 1.241 . S
O208 Co196 2.137 . S
O208 C199 1.247 . S
O209 Co196 2.244 . S
O209 C199 1.272 . S
O209 Co201 2.135 . S
Co210 O211 2.216 . S
Co210 O212 2.091 . S
Co210 O214 2.004 . S
Co210 O220 2.021 . S
Co210 O222 2.137 . S
Co210 O223 2.244 . S
O211 Co210 2.216 . S
O211 C218 1.247 . S
O212 Co210 2.091 . S
O212 C218 1.261 . S
C213 O222 1.247 . S
C213 O223 1.272 . S
O214 Co210 2.004 . S
O214 C219 1.259 . S
Co215 O216 2.061 . S
Co215 O221 2.052 . S
Co215 O223 2.135 . S
O216 Co215 2.061 . S
O216 C219 1.235 . S
C217 O220 1.238 . S
C217 O221 1.241 . S
C218 O211 1.247 . S
C218 O212 1.261 . S
C219 O214 1.259 . S
C219 O216 1.235 . S
O220 Co210 2.021 . S
O220 C217 1.238 . S
O221 Co215 2.052 . S
O221 C217 1.241 . S
O222 Co210 2.137 . S
O222 C213 1.247 . S
O223 Co210 2.244 . S
O223 C213 1.272 . S
O223 Co215 2.135 . S
H224 C230 0.930 . S
H225 C233 0.930 . S
H226 C234 0.930 . S
H227 C235 0.930 . S
H228 C238 0.930 . S
H229 C239 0.930 . S
C230 H224 0.930 . S
C230 C231 1.339 1_455 S
C230 C232 1.415 1_554 S
C231 C230 1.339 1_655 S
C231 C233 1.439 . S
C232 C230 1.415 1_556 S
C232 C237 1.425 1_456 S
C232 C239 1.409 . S
C233 H225 0.930 . S
C233 C231 1.439 . S
C233 C234 1.362 . S
C234 H226 0.930 . S
C234 C233 1.362 . S
C234 C237 1.409 . S
C235 H227 0.930 . S
C235 C236 1.355 1_655 S
C235 C237 1.415 1_556 S
C236 C235 1.355 1_455 S
C236 C238 1.419 . S
C237 C232 1.425 1_654 S
C237 C234 1.409 . S
C237 C235 1.415 1_554 S
C238 H228 0.930 . S
C238 C236 1.419 . S
C238 C239 1.362 . S
C239 H229 0.930 . S
C239 C232 1.409 . S
C239 C238 1.362 . S
H240 C246 0.930 . S
H241 C249 0.930 . S
H242 C250 0.930 . S
H243 C251 0.930 . S
H244 C254 0.930 . S
H245 C255 0.930 . S
C246 H240 0.930 . S
C246 C247 1.355 1_545 S
C246 C248 1.415 . S
C247 C246 1.355 1_565 S
C247 C249 1.419 . S
C248 C246 1.415 . S
C248 C253 1.425 1_545 S
C248 C255 1.409 . S
C249 H241 0.930 . S
C249 C247 1.419 . S
C249 C250 1.362 . S
C250 H242 0.930 . S
C250 C249 1.362 . S
C250 C253 1.409 . S
C251 H243 0.930 . S
C251 C252 1.355 1_565 S
C251 C253 1.415 . S
C252 C251 1.355 1_545 S
C252 C254 1.419 . S
C253 C248 1.425 1_565 S
C253 C250 1.409 . S
C253 C251 1.415 . S
C254 H244 0.930 . S
C254 C252 1.419 . S
C254 C255 1.362 . S
C255 H245 0.930 . S
C255 C248 1.409 . S
C255 C254 1.362 . S
H256 C262 0.930 . S
H257 C265 0.930 . S
H258 C266 0.930 . S
H259 C267 0.930 . S
H260 C270 0.930 . S
H261 C271 0.930 . S
C262 H256 0.930 . S
C262 C263 1.355 . S
C262 C264 1.415 1_554 S
C263 C262 1.355 . S
C263 C265 1.419 . S
C264 C262 1.415 1_556 S
C264 C269 1.425 1_556 S
C264 C271 1.409 . S
C265 H257 0.930 . S
C265 C263 1.419 . S
C265 C266 1.362 . S
C266 H258 0.930 . S
C266 C265 1.362 . S
C266 C269 1.409 . S
C267 H259 0.930 . S
C267 C268 1.355 . S
C267 C269 1.415 1_556 S
C268 C267 1.355 . S
C268 C270 1.419 . S
C269 C264 1.425 1_554 S
C269 C266 1.409 . S
C269 C267 1.415 1_554 S
C270 H260 0.930 . S
C270 C268 1.419 . S
C270 C271 1.362 . S
C271 H261 0.930 . S
C271 C264 1.409 . S
C271 C270 1.362 . S
H272 C278 0.930 . S
H273 C281 0.930 . S
H274 C282 0.930 . S
H275 C283 0.930 . S
H276 C286 0.930 . S
H277 C287 0.930 . S
C278 H272 0.930 . S
C278 C279 1.355 . S
C278 C280 1.415 . S
C279 C278 1.355 . S
C279 C281 1.419 . S
C280 C278 1.415 . S
C280 C285 1.425 . S
C280 C287 1.409 . S
C281 H273 0.930 . S
C281 C279 1.419 . S
C281 C282 1.362 . S
C282 H274 0.930 . S
C282 C281 1.362 . S
C282 C285 1.409 . S
C283 H275 0.930 . S
C283 C284 1.355 . S
C283 C285 1.415 . S
C284 C283 1.355 . S
C284 C286 1.419 . S
C285 C280 1.425 . S
C285 C282 1.409 . S
C285 C283 1.415 . S
C286 H276 0.930 . S
C286 C284 1.419 . S
C286 C287 1.362 . S
C287 H277 0.930 . S
C287 C280 1.409 . S
C287 C286 1.362 . S
H288 C294 0.930 1_554 S
H289 C297 0.930 . S
H290 C298 0.930 . S
H291 C299 0.930 1_556 S
H292 C302 0.930 . S
H293 C303 0.930 . S
C294 H288 0.930 1_556 S
C294 C295 1.355 1_455 S
C294 C296 1.415 1_556 S
C295 C294 1.355 1_655 S
C295 C297 1.419 . S
C296 C294 1.415 1_554 S
C296 C301 1.425 1_454 S
C296 C303 1.409 . S
C297 H289 0.930 . S
C297 C295 1.419 . S
C297 C298 1.362 . S
C298 H290 0.930 . S
C298 C297 1.362 . S
C298 C301 1.409 . S
C299 H291 0.930 1_554 S
C299 C300 1.354 . S
C299 C301 1.415 1_554 S
C300 C299 1.354 . S
C300 C302 1.420 1_655 S
C301 C296 1.425 1_656 S
C301 C298 1.409 . S
C301 C299 1.415 1_556 S
C302 H292 0.930 . S
C302 C300 1.420 1_455 S
C302 C303 1.362 . S
C303 H293 0.930 . S
C303 C296 1.409 . S
C303 C302 1.362 . S
H304 C310 0.930 . S
H305 C313 0.930 . S
H306 C314 0.930 . S
H307 C315 0.930 . S
H308 C318 0.930 . S
H309 C319 0.930 . S
C310 H304 0.930 . S
C310 C311 1.355 1_565 S
C310 C312 1.415 . S
C311 C310 1.355 1_545 S
C311 C313 1.419 . S
C312 C310 1.415 . S
C312 C317 1.425 1_565 S
C312 C319 1.409 . S
C313 H305 0.930 . S
C313 C311 1.419 . S
C313 C314 1.362 . S
C314 H306 0.930 . S
C314 C313 1.362 . S
C314 C317 1.409 . S
C315 H307 0.930 . S
C315 C316 1.355 1_545 S
C315 C317 1.415 . S
C316 C315 1.355 1_565 S
C316 C318 1.419 . S
C317 C312 1.425 1_545 S
C317 C314 1.409 . S
C317 C315 1.415 . S
C318 H308 0.930 . S
C318 C316 1.419 . S
C318 C319 1.362 . S
C319 H309 0.930 . S
C319 C312 1.409 . S
C319 C318 1.362 . S
H320 C326 0.930 . S
H321 C329 0.930 . S
H322 C330 0.930 . S
H323 C331 0.930 . S
H324 C334 0.930 . S
H325 C335 0.930 . S
C326 H320 0.930 . S
C326 C327 1.355 . S
C326 C328 1.415 . S
C327 C326 1.355 . S
C327 C329 1.419 . S
C328 C326 1.415 . S
C328 C333 1.425 1_556 S
C328 C335 1.409 . S
C329 H321 0.930 . S
C329 C327 1.419 . S
C329 C330 1.362 1_556 S
C330 H322 0.930 . S
C330 C329 1.362 1_554 S
C330 C333 1.409 . S
C331 H323 0.930 . S
C331 C332 1.355 . S
C331 C333 1.415 . S
C332 C331 1.355 . S
C332 C334 1.419 . S
C333 C328 1.425 1_554 S
C333 C330 1.409 . S
C333 C331 1.415 . S
C334 H324 0.930 . S
C334 C332 1.419 . S
C334 C335 1.362 1_554 S
C335 H325 0.930 . S
C335 C328 1.409 . S
C335 C334 1.362 1_556 S
H336 C342 0.930 . S
H337 C345 0.930 . S
H338 C346 0.930 . S
H339 C347 0.930 . S
H340 C350 0.930 . S
H341 C351 0.930 . S
C342 H336 0.930 . S
C342 C343 1.355 . S
C342 C344 1.415 . S
C343 C342 1.355 . S
C343 C345 1.419 . S
C344 C342 1.415 . S
C344 C349 1.425 . S
C344 C351 1.409 . S
C345 H337 0.930 . S
C345 C343 1.419 . S
C345 C346 1.362 . S
C346 H338 0.930 . S
C346 C345 1.362 . S
C346 C349 1.409 . S
C347 H339 0.930 . S
C347 C348 1.355 . S
C347 C349 1.415 . S
C348 C347 1.355 . S
C348 C350 1.419 . S
C349 C344 1.425 . S
C349 C346 1.409 . S
C349 C347 1.415 . S
C350 H340 0.930 . S
C350 C348 1.419 . S
C350 C351 1.362 . S
C351 H341 0.930 . S
C351 C344 1.409 . S
C351 C350 1.362 . S
H352 C358 0.930 . S
H353 C361 0.930 . S
H354 C362 0.930 . S
H355 C363 0.930 . S
H356 C366 0.930 . S
H357 C367 0.930 . S
C358 H352 0.930 . S
C358 C359 1.355 . S
C358 C360 1.415 . S
C359 C358 1.355 . S
C359 C361 1.419 . S
C360 C358 1.415 . S
C360 C365 1.425 . S
C360 C367 1.409 . S
C361 H353 0.930 . S
C361 C359 1.419 . S
C361 C362 1.362 . S
C362 H354 0.930 . S
C362 C361 1.362 . S
C362 C365 1.409 . S
C363 H355 0.930 . S
C363 C364 1.355 . S
C363 C365 1.415 . S
C364 C363 1.355 . S
C364 C366 1.419 . S
C365 C360 1.425 . S
C365 C362 1.409 . S
C365 C363 1.415 . S
C366 H356 0.930 . S
C366 C364 1.419 . S
C366 C367 1.362 . S
C367 H357 0.930 . S
C367 C360 1.409 . S
C367 C366 1.362 . S
H368 C374 0.930 . S
H369 C377 0.930 . S
H370 C378 0.930 . S
H371 C379 0.930 . S
H372 C382 0.930 . S
H373 C383 0.930 . S
C374 H368 0.930 . S
C374 C375 1.355 . S
C374 C376 1.415 . S
C375 C374 1.355 . S
C375 C377 1.419 . S
C376 C374 1.415 . S
C376 C381 1.425 . S
C376 C383 1.409 . S
C377 H369 0.930 . S
C377 C375 1.419 . S
C377 C378 1.362 . S
C378 H370 0.930 . S
C378 C377 1.362 . S
C378 C381 1.409 . S
C379 H371 0.930 . S
C379 C380 1.355 . S
C379 C381 1.415 . S
C380 C379 1.355 . S
C380 C382 1.419 . S
C381 C376 1.425 . S
C381 C378 1.409 . S
C381 C379 1.415 . S
C382 H372 0.930 . S
C382 C380 1.419 . S
C382 C383 1.362 . S
C383 H373 0.930 . S
C383 C376 1.409 . S
C383 C382 1.362 . S
H384 C390 0.930 . S
H385 C393 0.930 . S
H386 C394 0.930 . S
H387 C395 0.930 . S
H388 C398 0.930 . S
H389 C399 0.930 . S
C390 H384 0.930 . S
C390 C391 1.355 . S
C390 C392 1.415 . S
C391 C390 1.355 . S
C391 C393 1.419 1_556 S
C392 C390 1.415 . S
C392 C397 1.425 . S
C392 C399 1.409 . S
C393 H385 0.930 . S
C393 C391 1.419 1_554 S
C393 C394 1.362 1_554 S
C394 H386 0.930 . S
C394 C393 1.362 1_556 S
C394 C397 1.409 . S
C395 H387 0.930 . S
C395 C396 1.355 . S
C395 C397 1.415 . S
C396 C395 1.355 . S
C396 C398 1.419 . S
C397 C392 1.425 . S
C397 C394 1.409 . S
C397 C395 1.415 . S
C398 H388 0.930 . S
C398 C396 1.419 . S
C398 C399 1.362 . S
C399 H389 0.930 . S
C399 C392 1.409 . S
C399 C398 1.362 . S
H400 C406 0.930 . S
H401 C409 0.930 . S
H402 C410 0.930 . S
H403 C411 0.930 . S
H404 C414 0.930 . S
H405 C415 0.930 . S
C406 H400 0.930 . S
C406 C407 1.355 . S
C406 C408 1.415 . S
C407 C406 1.355 . S
C407 C409 1.419 . S
C408 C406 1.415 . S
C408 C413 1.425 . S
C408 C415 1.409 . S
C409 H401 0.930 . S
C409 C407 1.419 . S
C409 C410 1.362 . S
C410 H402 0.930 . S
C410 C409 1.362 . S
C410 C413 1.409 . S
C411 H403 0.930 . S
C411 C412 1.355 . S
C411 C413 1.415 . S
C412 C411 1.355 . S
C412 C414 1.419 . S
C413 C408 1.425 . S
C413 C410 1.409 . S
C413 C411 1.415 . S
C414 H404 0.930 . S
C414 C412 1.419 . S
C414 C415 1.362 . S
C415 H405 0.930 . S
C415 C408 1.409 . S
C415 C414 1.362 . S
H416 C422 0.930 . S
H417 C425 0.930 . S
H418 C426 0.930 . S
H419 C427 0.930 . S
H420 C430 0.930 . S
H421 C431 0.930 . S
C422 H416 0.930 . S
C422 C423 1.355 . S
C422 C424 1.415 . S
C423 C422 1.355 . S
C423 C425 1.419 . S
C424 C422 1.415 . S
C424 C429 1.425 . S
C424 C431 1.409 . S
C425 H417 0.930 . S
C425 C423 1.419 . S
C425 C426 1.362 . S
C426 H418 0.930 . S
C426 C425 1.362 . S
C426 C429 1.409 . S
C427 H419 0.930 . S
C427 C428 1.355 . S
C427 C429 1.415 . S
C428 C427 1.355 . S
C428 C430 1.419 . S
C429 C424 1.425 . S
C429 C426 1.409 . S
C429 C427 1.415 . S
C430 H420 0.930 . S
C430 C428 1.419 . S
C430 C431 1.362 . S
C431 H421 0.930 . S
C431 C424 1.409 . S
C431 C430 1.362 . S
H432 C438 0.930 . S
H433 C441 0.930 . S
H434 C442 0.930 . S
H435 C443 0.930 . S
H436 C446 0.930 . S
H437 C447 0.930 . S
C438 H432 0.930 . S
C438 C439 1.355 . S
C438 C440 1.415 . S
C439 C438 1.355 . S
C439 C441 1.419 . S
C440 C438 1.415 . S
C440 C445 1.425 . S
C440 C447 1.409 . S
C441 H433 0.930 . S
C441 C439 1.419 . S
C441 C442 1.362 . S
C442 H434 0.930 . S
C442 C441 1.362 . S
C442 C445 1.409 . S
C443 H435 0.930 . S
C443 C444 1.355 . S
C443 C445 1.415 . S
C444 C443 1.355 . S
C444 C446 1.419 . S
C445 C440 1.425 . S
C445 C442 1.409 . S
C445 C443 1.415 . S
C446 H436 0.930 . S
C446 C444 1.419 . S
C446 C447 1.362 . S
C447 H437 0.930 . S
C447 C440 1.409 . S
C447 C446 1.362 . S
H448 C454 0.930 . S
H449 C457 0.930 . S
H450 C458 0.930 . S
H451 C459 0.930 . S
H452 C462 0.930 . S
H453 C463 0.930 . S
C454 H448 0.930 . S
C454 C455 1.355 . S
C454 C456 1.415 . S
C455 C454 1.355 . S
C455 C457 1.419 . S
C456 C454 1.415 . S
C456 C461 1.425 . S
C456 C463 1.409 . S
C457 H449 0.930 . S
C457 C455 1.419 . S
C457 C458 1.362 . S
C458 H450 0.930 . S
C458 C457 1.362 . S
C458 C461 1.409 . S
C459 H451 0.930 . S
C459 C460 1.355 . S
C459 C461 1.415 . S
C460 C459 1.355 . S
C460 C462 1.419 . S
C461 C456 1.425 . S
C461 C458 1.409 . S
C461 C459 1.415 . S
C462 H452 0.930 . S
C462 C460 1.419 . S
C462 C463 1.362 . S
C463 H453 0.930 . S
C463 C456 1.409 . S
C463 C462 1.362 . S
H464 C470 0.930 . S
H465 C473 0.930 . S
H466 C474 0.930 . S
H467 C475 0.930 . S
H468 C478 0.930 . S
H469 C479 0.930 . S
C470 H464 0.930 . S
C470 C471 1.355 . S
C470 C472 1.415 . S
C471 C470 1.355 . S
C471 C473 1.419 . S
C472 C470 1.415 . S
C472 C477 1.425 . S
C472 C479 1.409 . S
C473 H465 0.930 . S
C473 C471 1.419 . S
C473 C474 1.362 . S
C474 H466 0.930 . S
C474 C473 1.362 . S
C474 C477 1.409 . S
C475 H467 0.930 . S
C475 C476 1.355 . S
C475 C477 1.415 . S
C476 C475 1.355 . S
C476 C478 1.419 . S
C477 C472 1.425 . S
C477 C474 1.409 . S
C477 C475 1.415 . S
C478 H468 0.930 . S
C478 C476 1.419 . S
C478 C479 1.362 . S
C479 H469 0.930 . S
C479 C472 1.409 . S
C479 C478 1.362 . S
H480 C486 0.930 . S
H481 C489 0.930 . S
H482 C490 0.930 . S
H483 C491 0.930 . S
H484 C494 0.930 . S
H485 C495 0.930 . S
C486 H480 0.930 . S
C486 C487 1.355 . S
C486 C488 1.415 . S
C487 C486 1.355 . S
C487 C489 1.419 . S
C488 C486 1.415 . S
C488 C493 1.425 . S
C488 C495 1.409 . S
C489 H481 0.930 . S
C489 C487 1.419 . S
C489 C490 1.362 . S
C490 H482 0.930 . S
C490 C489 1.362 . S
C490 C493 1.409 . S
C491 H483 0.930 . S
C491 C492 1.355 . S
C491 C493 1.415 . S
C492 C491 1.355 . S
C492 C494 1.419 . S
C493 C488 1.425 . S
C493 C490 1.409 . S
C493 C491 1.415 . S
C494 H484 0.930 . S
C494 C492 1.419 . S
C494 C495 1.362 . S
C495 H485 0.930 . S
C495 C488 1.409 . S
C495 C494 1.362 . S
H496 C502 0.930 . S
H497 C505 0.930 . S
H498 C506 0.930 . S
H499 C507 0.930 . S
H500 C510 0.930 . S
H501 C511 0.930 . S
C502 H496 0.930 . S
C502 C503 1.355 . S
C502 C504 1.415 . S
C503 C502 1.355 . S
C503 C505 1.419 . S
C504 C502 1.415 . S
C504 C509 1.425 . S
C504 C511 1.409 . S
C505 H497 0.930 . S
C505 C503 1.419 . S
C505 C506 1.362 . S
C506 H498 0.930 . S
C506 C505 1.362 . S
C506 C509 1.409 . S
C507 H499 0.930 . S
C507 C508 1.355 . S
C507 C509 1.415 . S
C508 C507 1.355 . S
C508 C510 1.419 . S
C509 C504 1.425 . S
C509 C506 1.409 . S
C509 C507 1.415 . S
C510 H500 0.930 . S
C510 C508 1.419 . S
C510 C511 1.362 . S
C511 H501 0.930 . S
C511 C504 1.409 . S
C511 C510 1.362 . S
H512 C518 0.930 . S
H513 C521 0.930 . S
H514 C522 0.930 . S
H515 C523 0.930 . S
H516 C526 0.930 . S
H517 C527 0.930 . S
C518 H512 0.930 . S
C518 C519 1.355 . S
C518 C520 1.415 . S
C519 C518 1.355 . S
C519 C521 1.419 . S
C520 C518 1.415 . S
C520 C525 1.425 . S
C520 C527 1.409 . S
C521 H513 0.930 . S
C521 C519 1.419 . S
C521 C522 1.362 . S
C522 H514 0.930 . S
C522 C521 1.362 . S
C522 C525 1.409 . S
C523 H515 0.930 . S
C523 C524 1.355 . S
C523 C525 1.415 . S
C524 C523 1.355 . S
C524 C526 1.419 1_554 S
C525 C520 1.425 . S
C525 C522 1.409 . S
C525 C523 1.415 . S
C526 H516 0.930 . S
C526 C524 1.419 1_556 S
C526 C527 1.362 1_556 S
C527 H517 0.930 . S
C527 C520 1.409 . S
C527 C526 1.362 1_554 S
H528 C534 0.930 . S
H529 C537 0.930 . S
H530 C538 0.930 . S
H531 C539 0.930 . S
H532 C542 0.930 . S
H533 C543 0.930 . S
C534 H528 0.930 . S
C534 C535 1.355 . S
C534 C536 1.415 . S
C535 C534 1.355 . S
C535 C537 1.419 . S
C536 C534 1.415 . S
C536 C541 1.425 . S
C536 C543 1.409 . S
C537 H529 0.930 . S
C537 C535 1.419 . S
C537 C538 1.362 . S
C538 H530 0.930 . S
C538 C537 1.362 . S
C538 C541 1.409 . S
C539 H531 0.930 . S
C539 C540 1.355 . S
C539 C541 1.415 . S
C540 C539 1.355 . S
C540 C542 1.419 . S
C541 C536 1.425 . S
C541 C538 1.409 . S
C541 C539 1.415 . S
C542 H532 0.930 . S
C542 C540 1.419 . S
C542 C543 1.362 . S
C543 H533 0.930 . S
C543 C536 1.409 . S
C543 C542 1.362 . S
H544 C550 0.930 . S
H545 C553 0.930 . S
H546 C554 0.930 . S
H547 C555 0.930 . S
H548 C558 0.930 . S
H549 C559 0.930 . S
C550 H544 0.930 . S
C550 C551 1.355 . S
C550 C552 1.415 . S
C551 C550 1.355 . S
C551 C553 1.419 . S
C552 C550 1.415 . S
C552 C557 1.425 . S
C552 C559 1.409 . S
C553 H545 0.930 . S
C553 C551 1.419 . S
C553 C554 1.362 . S
C554 H546 0.930 . S
C554 C553 1.362 . S
C554 C557 1.409 . S
C555 H547 0.930 . S
C555 C556 1.355 . S
C555 C557 1.415 . S
C556 C555 1.355 . S
C556 C558 1.419 . S
C557 C552 1.425 . S
C557 C554 1.409 . S
C557 C555 1.415 . S
C558 H548 0.930 . S
C558 C556 1.419 . S
C558 C559 1.362 . S
C559 H549 0.930 . S
C559 C552 1.409 . S
C559 C558 1.362 . S
H560 C566 0.930 . S
H561 C569 0.930 . S
H562 C570 0.930 . S
H563 C571 0.930 . S
H564 C574 0.930 . S
H565 C575 0.930 . S
C566 H560 0.930 . S
C566 C567 1.355 . S
C566 C568 1.415 . S
C567 C566 1.355 . S
C567 C569 1.419 . S
C568 C566 1.415 . S
C568 C573 1.425 . S
C568 C575 1.409 . S
C569 H561 0.930 . S
C569 C567 1.419 . S
C569 C570 1.362 . S
C570 H562 0.930 . S
C570 C569 1.362 . S
C570 C573 1.409 . S
C571 H563 0.930 . S
C571 C572 1.355 . S
C571 C573 1.415 . S
C572 C571 1.355 . S
C572 C574 1.419 . S
C573 C568 1.425 . S
C573 C570 1.409 . S
C573 C571 1.415 . S
C574 H564 0.930 . S
C574 C572 1.419 . S
C574 C575 1.362 . S
C575 H565 0.930 . S
C575 C568 1.409 . S
C575 C574 1.362 . S
H576 C582 0.930 . S
H577 C585 0.930 1_554 S
H578 C586 0.930 . S
H579 C587 0.930 . S
H580 C590 0.930 . S
H581 C591 0.930 . S
C582 H576 0.930 . S
C582 C583 1.355 . S
C582 C584 1.415 . S
C583 C582 1.355 . S
C583 C585 1.419 . S
C584 C582 1.415 . S
C584 C589 1.425 . S
C584 C591 1.409 . S
C585 H577 0.930 1_556 S
C585 C583 1.419 . S
C585 C586 1.362 . S
C586 H578 0.930 . S
C586 C585 1.362 . S
C586 C589 1.409 . S
C587 H579 0.930 . S
C587 C588 1.355 . S
C587 C589 1.415 . S
C588 C587 1.355 . S
C588 C590 1.419 . S
C589 C584 1.425 . S
C589 C586 1.409 . S
C589 C587 1.415 . S
C590 H580 0.930 . S
C590 C588 1.419 . S
C590 C591 1.362 . S
C591 H581 0.930 . S
C591 C584 1.409 . S
C591 C590 1.362 . S
H592 C598 0.930 . S
H593 C601 0.930 . S
H594 C602 0.930 . S
H595 C603 0.930 . S
H596 C606 0.930 . S
H597 C607 0.930 . S
C598 H592 0.930 . S
C598 C599 1.355 . S
C598 C600 1.415 . S
C599 C598 1.355 . S
C599 C601 1.419 . S
C600 C598 1.415 . S
C600 C605 1.425 . S
C600 C607 1.409 . S
C601 H593 0.930 . S
C601 C599 1.419 . S
C601 C602 1.362 . S
C602 H594 0.930 . S
C602 C601 1.362 . S
C602 C605 1.409 . S
C603 H595 0.930 . S
C603 C604 1.355 . S
C603 C605 1.415 . S
C604 C603 1.355 . S
C604 C606 1.419 . S
C605 C600 1.425 . S
C605 C602 1.409 . S
C605 C603 1.415 . S
C606 H596 0.930 . S
C606 C604 1.419 . S
C606 C607 1.362 . S
C607 H597 0.930 . S
C607 C600 1.409 . S
C607 C606 1.362 . S
H608 C614 0.930 . S
H609 C617 0.930 . S
H610 C618 0.930 . S
H611 C619 0.930 . S
H612 C622 0.930 . S
H613 C623 0.930 . S
C614 H608 0.930 . S
C614 C615 1.355 . S
C614 C616 1.415 . S
C615 C614 1.355 . S
C615 C617 1.419 . S
C616 C614 1.415 . S
C616 C621 1.425 . S
C616 C623 1.409 . S
C617 H609 0.930 . S
C617 C615 1.419 . S
C617 C618 1.362 . S
C618 H610 0.930 . S
C618 C617 1.362 . S
C618 C621 1.409 . S
C619 H611 0.930 . S
C619 C620 1.355 . S
C619 C621 1.415 . S
C620 C619 1.355 . S
C620 C622 1.419 . S
C621 C616 1.425 . S
C621 C618 1.409 . S
C621 C619 1.415 . S
C622 H612 0.930 . S
C622 C620 1.419 . S
C622 C623 1.362 . S
C623 H613 0.930 . S
C623 C616 1.409 . S
C623 C622 1.362 . S
H624 C630 0.930 . S
H625 C633 0.930 . S
H626 C634 0.930 . S
H627 C635 0.930 . S
H628 C638 0.930 . S
H629 C639 0.930 . S
C630 H624 0.930 . S
C630 C631 1.355 . S
C630 C632 1.415 . S
C631 C630 1.355 . S
C631 C633 1.419 . S
C632 C630 1.415 . S
C632 C637 1.425 . S
C632 C639 1.409 . S
C633 H625 0.930 . S
C633 C631 1.419 . S
C633 C634 1.362 . S
C634 H626 0.930 . S
C634 C633 1.362 . S
C634 C637 1.409 . S
C635 H627 0.930 . S
C635 C636 1.355 . S
C635 C637 1.415 . S
C636 C635 1.355 . S
C636 C638 1.419 . S
C637 C632 1.425 . S
C637 C634 1.409 . S
C637 C635 1.415 . S
C638 H628 0.930 . S
C638 C636 1.419 . S
C638 C639 1.362 . S
C639 H629 0.930 . S
C639 C632 1.409 . S
C639 C638 1.362 . S
H640 C646 0.930 . S
H641 C649 0.930 . S
H642 C650 0.930 . S
H643 C651 0.930 . S
H644 C654 0.930 . S
H645 C655 0.930 . S
C646 H640 0.930 . S
C646 C647 1.355 . S
C646 C648 1.415 . S
C647 C646 1.355 . S
C647 C649 1.419 . S
C648 C646 1.415 . S
C648 C653 1.425 . S
C648 C655 1.409 . S
C649 H641 0.930 . S
C649 C647 1.419 . S
C649 C650 1.362 . S
C650 H642 0.930 . S
C650 C649 1.362 . S
C650 C653 1.409 . S
C651 H643 0.930 . S
C651 C652 1.355 . S
C651 C653 1.415 . S
C652 C651 1.355 . S
C652 C654 1.419 . S
C653 C648 1.425 . S
C653 C650 1.409 . S
C653 C651 1.415 . S
C654 H644 0.930 . S
C654 C652 1.419 . S
C654 C655 1.362 . S
C655 H645 0.930 . S
C655 C648 1.409 . S
C655 C654 1.362 . S
H656 C662 0.930 . S
H657 C665 0.930 . S
H658 C666 0.930 . S
H659 C667 0.930 . S
H660 C670 0.930 . S
H661 C671 0.930 . S
C662 H656 0.930 . S
C662 C663 1.355 . S
C662 C664 1.415 . S
C663 C662 1.355 . S
C663 C665 1.419 . S
C664 C662 1.415 . S
C664 C669 1.425 . S
C664 C671 1.409 . S
C665 H657 0.930 . S
C665 C663 1.419 . S
C665 C666 1.362 . S
C666 H658 0.930 . S
C666 C665 1.362 . S
C666 C669 1.409 . S
C667 H659 0.930 . S
C667 C668 1.355 . S
C667 C669 1.415 . S
C668 C667 1.355 . S
C668 C670 1.419 . S
C669 C664 1.425 . S
C669 C666 1.409 . S
C669 C667 1.415 . S
C670 H660 0.930 . S
C670 C668 1.419 . S
C670 C671 1.362 . S
C671 H661 0.930 . S
C671 C664 1.409 . S
C671 C670 1.362 . S
H672 C678 0.930 . S
H673 C681 0.930 . S
H674 C682 0.930 . S
H675 C683 0.930 . S
H676 C686 0.930 . S
H677 C687 0.930 . S
C678 H672 0.930 . S
C678 C679 1.355 . S
C678 C680 1.415 . S
C679 C678 1.355 . S
C679 C681 1.419 . S
C680 C678 1.415 . S
C680 C685 1.425 . S
C680 C687 1.409 . S
C681 H673 0.930 . S
C681 C679 1.419 . S
C681 C682 1.362 . S
C682 H674 0.930 . S
C682 C681 1.362 . S
C682 C685 1.409 . S
C683 H675 0.930 . S
C683 C684 1.355 . S
C683 C685 1.415 . S
C684 C683 1.355 . S
C684 C686 1.419 . S
C685 C680 1.425 . S
C685 C682 1.409 . S
C685 C683 1.415 . S
C686 H676 0.930 . S
C686 C684 1.419 . S
C686 C687 1.362 . S
C687 H677 0.930 . S
C687 C680 1.409 . S
C687 C686 1.362 . S
H688 C694 0.930 . S
H689 C697 0.930 . S
H690 C698 0.930 . S
H691 C699 0.930 . S
H692 C702 0.930 . S
H693 C703 0.930 . S
C694 H688 0.930 . S
C694 C695 1.355 . S
C694 C696 1.415 . S
C695 C694 1.355 . S
C695 C697 1.419 . S
C696 C694 1.415 . S
C696 C701 1.425 . S
C696 C703 1.409 . S
C697 H689 0.930 . S
C697 C695 1.419 . S
C697 C698 1.362 . S
C698 H690 0.930 . S
C698 C697 1.362 . S
C698 C701 1.409 . S
C699 H691 0.930 . S
C699 C700 1.355 . S
C699 C701 1.415 . S
C700 C699 1.355 . S
C700 C702 1.419 . S
C701 C696 1.425 . S
C701 C698 1.409 . S
C701 C699 1.415 . S
C702 H692 0.930 . S
C702 C700 1.419 . S
C702 C703 1.362 . S
C703 H693 0.930 . S
C703 C696 1.409 . S
C703 C702 1.362 . S
H704 C710 0.930 . S
H705 C713 0.930 . S
H706 C714 0.930 . S
H707 C715 0.930 . S
H708 C718 0.930 . S
H709 C719 0.930 . S
C710 H704 0.930 . S
C710 C711 1.355 . S
C710 C712 1.415 . S
C711 C710 1.355 . S
C711 C713 1.419 . S
C712 C710 1.415 . S
C712 C717 1.425 . S
C712 C719 1.409 . S
C713 H705 0.930 . S
C713 C711 1.419 . S
C713 C714 1.362 . S
C714 H706 0.930 . S
C714 C713 1.362 . S
C714 C717 1.409 . S
C715 H707 0.930 . S
C715 C716 1.355 . S
C715 C717 1.415 . S
C716 C715 1.355 . S
C716 C718 1.419 . S
C717 C712 1.425 . S
C717 C714 1.409 . S
C717 C715 1.415 . S
C718 H708 0.930 . S
C718 C716 1.419 . S
C718 C719 1.362 . S
C719 H709 0.930 . S
C719 C712 1.409 . S
C719 C718 1.362 . S
H720 C726 0.930 . S
H721 C729 0.930 . S
H722 C730 0.930 . S
H723 C731 0.930 . S
H724 C734 0.930 . S
H725 C735 0.930 . S
C726 H720 0.930 . S
C726 C727 1.355 . S
C726 C728 1.415 . S
C727 C726 1.355 . S
C727 C729 1.419 . S
C728 C726 1.415 . S
C728 C733 1.425 . S
C728 C735 1.409 . S
C729 H721 0.930 . S
C729 C727 1.419 . S
C729 C730 1.362 . S
C730 H722 0.930 . S
C730 C729 1.362 . S
C730 C733 1.409 . S
C731 H723 0.930 . S
C731 C732 1.355 . S
C731 C733 1.415 . S
C732 C731 1.355 . S
C732 C734 1.419 . S
C733 C728 1.425 . S
C733 C730 1.409 . S
C733 C731 1.415 . S
C734 H724 0.930 . S
C734 C732 1.419 . S
C734 C735 1.362 . S
C735 H725 0.930 . S
C735 C728 1.409 . S
C735 C734 1.362 . S
C231 C8 1.170 1_655 S
C236 C64 1.154 . S
C247 C78 1.176 1_565 S
C252 C22 1.147 . S
C263 C36 1.144 . S
C268 C92 1.176 . S
C279 C50 1.149 . S
C284 C106 1.151 . S
C295 C120 1.159 . S
C300 C176 1.172 . S
C311 C190 1.176 1_545 S
C316 C134 1.146 . S
C327 C148 1.162 . S
C332 C204 1.142 . S
C343 C162 1.175 . S
C348 C218 1.151 . S
C359 C7 1.420 1_556 S
C364 C219 1.481 . S
C375 C177 1.440 . S
C380 C21 1.412 . S
C391 C35 1.419 1_556 S
C396 C191 1.433 . S
C407 C205 1.481 . S
C412 C49 1.419 . S
C423 C135 1.447 . S
C428 C63 1.469 1_554 S
C439 C149 1.470 . S
C444 C77 1.401 . S
C455 C163 1.470 . S
C460 C91 1.401 1_554 S
C471 C121 1.432 . S
C476 C105 1.421 . S
C487 C119 1.472 1_554 S
C492 C107 1.435 . S
C503 C65 1.424 . S
C508 C133 1.468 . S
C519 C79 1.447 . S
C524 C147 1.407 1_554 S
C535 C161 1.402 . S
C540 C93 1.455 . S
C551 C23 1.421 . S
C556 C175 1.464 1_556 S
C567 C189 1.408 . S
C572 C37 1.444 . S
C583 C203 1.404 1_556 S
C588 C51 1.452 . S
C599 C217 1.448 . S
C604 C9 1.419 . S
C615 C101 1.165 . S
C620 C3 1.185 . S
C631 C17 1.164 . S
C636 C59 1.187 . S
C647 C31 1.194 . S
C652 C73 1.158 . S
C663 C45 1.165 . S
C668 C87 1.184 . S
C679 C213 1.172 . S
C684 C115 1.210 . S
C695 C171 1.168 . S
C700 C129 1.182 . S
C711 C185 1.179 . S
C716 C143 1.206 . S
C727 C199 1.209 . S
C732 C157 1.173 . S
