# Generated by pormake.
# Topology gis, (4)-cn, num edge types: 1
# Building blocks:
#     Node 0, Type 0, BuildingBlock: QUQFOY_clean_sbu_1, # of connection points: 4
#     Node 1, Type 0, BuildingBlock: QUQFOY_clean_sbu_1, # of connection points: 4
#     Node 2, Type 0, BuildingBlock: QUQFOY_clean_sbu_1, # of connection points: 4
#     Node 3, Type 0, BuildingBlock: QUQFOY_clean_sbu_1, # of connection points: 4
#     Node 4, Type 0, BuildingBlock: QUQFOY_clean_sbu_1, # of connection points: 4
#     Node 5, Type 0, BuildingBlock: QUQFOY_clean_sbu_1, # of connection points: 4
#     Node 6, Type 0, BuildingBlock: QUQFOY_clean_sbu_1, # of connection points: 4
#     Node 7, Type 0, BuildingBlock: QUQFOY_clean_sbu_1, # of connection points: 4
#     Node 8, Type 0, BuildingBlock: QUQFOY_clean_sbu_1, # of connection points: 4
#     Node 9, Type 0, BuildingBlock: QUQFOY_clean_sbu_1, # of connection points: 4
#     Node 10, Type 0, BuildingBlock: QUQFOY_clean_sbu_1, # of connection points: 4
#     Node 11, Type 0, BuildingBlock: QUQFOY_clean_sbu_1, # of connection points: 4
#     Node 12, Type 0, BuildingBlock: QUQFOY_clean_sbu_1, # of connection points: 4
#     Node 13, Type 0, BuildingBlock: QUQFOY_clean_sbu_1, # of connection points: 4
#     Node 14, Type 0, BuildingBlock: QUQFOY_clean_sbu_1, # of connection points: 4
#     Node 15, Type 0, BuildingBlock: QUQFOY_clean_sbu_1, # of connection points: 4
#     Edge 16, Type (0, 0), BuildingBlock: XIVTED_clean_linker_0, # of connection points: 2
#     Edge 17, Type (0, 0), BuildingBlock: XIVTED_clean_linker_0, # of connection points: 2
#     Edge 18, Type (0, 0), BuildingBlock: XIVTED_clean_linker_0, # of connection points: 2
#     Edge 19, Type (0, 0), BuildingBlock: XIVTED_clean_linker_0, # of connection points: 2
#     Edge 20, Type (0, 0), BuildingBlock: XIVTED_clean_linker_0, # of connection points: 2
#     Edge 21, Type (0, 0), BuildingBlock: XIVTED_clean_linker_0, # of connection points: 2
#     Edge 22, Type (0, 0), BuildingBlock: XIVTED_clean_linker_0, # of connection points: 2
#     Edge 23, Type (0, 0), BuildingBlock: XIVTED_clean_linker_0, # of connection points: 2
#     Edge 24, Type (0, 0), BuildingBlock: XIVTED_clean_linker_0, # of connection points: 2
#     Edge 25, Type (0, 0), BuildingBlock: XIVTED_clean_linker_0, # of connection points: 2
#     Edge 26, Type (0, 0), BuildingBlock: XIVTED_clean_linker_0, # of connection points: 2
#     Edge 27, Type (0, 0), BuildingBlock: XIVTED_clean_linker_0, # of connection points: 2
#     Edge 28, Type (0, 0), BuildingBlock: XIVTED_clean_linker_0, # of connection points: 2
#     Edge 29, Type (0, 0), BuildingBlock: XIVTED_clean_linker_0, # of connection points: 2
#     Edge 30, Type (0, 0), BuildingBlock: XIVTED_clean_linker_0, # of connection points: 2
#     Edge 31, Type (0, 0), BuildingBlock: XIVTED_clean_linker_0, # of connection points: 2
#     Edge 32, Type (0, 0), BuildingBlock: XIVTED_clean_linker_0, # of connection points: 2
#     Edge 33, Type (0, 0), BuildingBlock: XIVTED_clean_linker_0, # of connection points: 2
#     Edge 34, Type (0, 0), BuildingBlock: XIVTED_clean_linker_0, # of connection points: 2
#     Edge 35, Type (0, 0), BuildingBlock: XIVTED_clean_linker_0, # of connection points: 2
#     Edge 36, Type (0, 0), BuildingBlock: XIVTED_clean_linker_0, # of connection points: 2
#     Edge 37, Type (0, 0), BuildingBlock: XIVTED_clean_linker_0, # of connection points: 2
#     Edge 38, Type (0, 0), BuildingBlock: XIVTED_clean_linker_0, # of connection points: 2
#     Edge 39, Type (0, 0), BuildingBlock: XIVTED_clean_linker_0, # of connection points: 2
#     Edge 40, Type (0, 0), BuildingBlock: XIVTED_clean_linker_0, # of connection points: 2
#     Edge 41, Type (0, 0), BuildingBlock: XIVTED_clean_linker_0, # of connection points: 2
#     Edge 42, Type (0, 0), BuildingBlock: XIVTED_clean_linker_0, # of connection points: 2
#     Edge 43, Type (0, 0), BuildingBlock: XIVTED_clean_linker_0, # of connection points: 2
#     Edge 44, Type (0, 0), BuildingBlock: XIVTED_clean_linker_0, # of connection points: 2
#     Edge 45, Type (0, 0), BuildingBlock: XIVTED_clean_linker_0, # of connection points: 2
#     Edge 46, Type (0, 0), BuildingBlock: XIVTED_clean_linker_0, # of connection points: 2
#     Edge 47, Type (0, 0), BuildingBlock: XIVTED_clean_linker_0, # of connection points: 2
# Relax obj value: 0.009
# Max RMSD: 0.058
# Mean RMSD: 0.058
data_MOF--net-gis--node1-QUQFOY_clean_sbu_1--edge1-XIVTED_clean_linker_0
_symmetry_space_group_name_H-M    P1
_symmetry_Int_Tables_number       1
_symmetry_cell_setting            triclinic
loop_
_symmetry_equiv_pos_as_xyz
'x, y, z'
_cell_length_a     54.06266
_cell_length_b     54.089238
_cell_length_c     42.076613
_cell_angle_alpha  89.992013
_cell_angle_beta   90.023682
_cell_angle_gamma 89.999603
loop_
_atom_site_label
_atom_site_type_symbol
_atom_site_fract_x
_atom_site_fract_y
_atom_site_fract_z
_atom_type_partial_charge
O0 O 0.15557 0.65541 0.15494 0.0
Cd1 Cd 0.14994 0.61852 0.16507 0.0
Cd2 Cd 0.14783 0.61582 0.10157 0.0
O3 O 0.16044 0.65208 0.10306 0.0
O4 O 0.16374 0.61296 0.20861 0.0
O5 O 0.18016 0.59692 0.16509 0.0
C6 C 0.18125 0.60039 0.19544 0.0
C7 C 0.16607 0.58443 0.07152 0.0
C8 C 0.16057 0.66518 0.1282 0.0
C9 C 0.10086 0.60538 0.13794 0.0
O10 O 0.11087 0.61015 0.11128 0.0
O11 O 0.11372 0.60581 0.16328 0.0
O12 O 0.15357 0.6019 0.05816 0.0
O13 O 0.16945 0.58562 0.10188 0.0
O14 O 0.65485 0.86012 0.36144 0.0
Cd15 Cd 0.64915 0.89704 0.35166 0.0
Cd16 Cd 0.64701 0.8993 0.41522 0.0
O17 O 0.65961 0.86305 0.41338 0.0
O18 O 0.66301 0.90286 0.3082 0.0
O19 O 0.67938 0.91862 0.35194 0.0
C20 C 0.68052 0.91531 0.32157 0.0
C21 C 0.66534 0.93063 0.4453 0.0
C22 C 0.65982 0.85015 0.38807 0.0
C23 C 0.60005 0.90999 0.37892 0.0
O24 O 0.61007 0.90505 0.40553 0.0
O25 O 0.6129 0.90972 0.35357 0.0
O26 O 0.65287 0.91314 0.45867 0.0
O27 O 0.66864 0.92948 0.41494 0.0
O28 O 0.36076 0.36003 0.65664 0.0
Cd29 Cd 0.36652 0.39698 0.66622 0.0
Cd30 Cd 0.36888 0.39906 0.60277 0.0
O31 O 0.35605 0.3629 0.6047 0.0
O32 O 0.35296 0.40274 0.70981 0.0
O33 O 0.33627 0.41856 0.66631 0.0
C34 C 0.33535 0.41521 0.69668 0.0
C35 C 0.35073 0.43028 0.5723 0.0
C36 C 0.35577 0.35004 0.63004 0.0
C37 C 0.41577 0.40964 0.63917 0.0
O38 O 0.40586 0.40459 0.61252 0.0
O39 O 0.40278 0.40958 0.66439 0.0
O40 O 0.36316 0.41266 0.55918 0.0
O41 O 0.3474 0.42937 0.60268 0.0
O42 O 0.90578 0.11104 0.90584 0.0
Cd43 Cd 0.86883 0.11646 0.91592 0.0
Cd44 Cd 0.86606 0.11938 0.85256 0.0
O45 O 0.90239 0.10694 0.85388 0.0
O46 O 0.86319 0.10211 0.95909 0.0
O47 O 0.84726 0.08622 0.91515 0.0
C48 C 0.85066 0.08477 0.94549 0.0
C49 C 0.83539 0.10158 0.82076 0.0
C50 C 0.91553 0.10646 0.87898 0.0
C51 C 0.85544 0.16582 0.88998 0.0
O52 O 0.86013 0.15617 0.86309 0.0
O53 O 0.85604 0.15265 0.91504 0.0
O54 O 0.85301 0.11456 0.80854 0.0
O55 O 0.83593 0.09757 0.85102 0.0
O56 O 0.15509 0.35967 0.86204 0.0
Cd57 Cd 0.14933 0.39653 0.85183 0.0
Cd58 Cd 0.14679 0.39922 0.91527 0.0
O59 O 0.15951 0.36301 0.91398 0.0
O60 O 0.16299 0.40195 0.80821 0.0
O61 O 0.17951 0.41821 0.85154 0.0
C62 C 0.1805 0.41463 0.82122 0.0
C63 C 0.16508 0.43069 0.94517 0.0
C64 C 0.15992 0.34992 0.88885 0.0
C65 C 0.10001 0.40951 0.87846 0.0
O66 O 0.10985 0.40479 0.90525 0.0
O67 O 0.11306 0.40911 0.85329 0.0
O68 O 0.1525 0.41331 0.95861 0.0
O69 O 0.16844 0.4294 0.91482 0.0
O70 O 0.86037 0.86004 0.15523 0.0
Cd71 Cd 0.86591 0.89696 0.16524 0.0
Cd72 Cd 0.86851 0.89943 0.10177 0.0
O73 O 0.85586 0.86319 0.10328 0.0
O74 O 0.85186 0.90259 0.20863 0.0
O75 O 0.83566 0.91852 0.16489 0.0
C76 C 0.83441 0.91511 0.19523 0.0
C77 C 0.85037 0.93081 0.07155 0.0
C78 C 0.85556 0.85018 0.12849 0.0
C79 C 0.91522 0.90995 0.13867 0.0
O80 O 0.90541 0.90507 0.11192 0.0
O81 O 0.90215 0.90967 0.16383 0.0
O82 O 0.86297 0.91336 0.05829 0.0
O83 O 0.84687 0.92961 0.10188 0.0
O84 O 0.40513 0.61027 0.40681 0.0
Cd85 Cd 0.36819 0.61604 0.41658 0.0
Cd86 Cd 0.366 0.61847 0.3531 0.0
O87 O 0.4022 0.60571 0.35485 0.0
O88 O 0.36264 0.60255 0.46026 0.0
O89 O 0.34659 0.5858 0.41695 0.0
C90 C 0.35009 0.58494 0.4473 0.0
C91 C 0.33459 0.60027 0.32301 0.0
C92 C 0.4151 0.60537 0.38017 0.0
C93 C 0.35546 0.66529 0.38957 0.0
O94 O 0.36044 0.65541 0.3629 0.0
O95 O 0.35559 0.65229 0.41479 0.0
O96 O 0.35211 0.61271 0.30966 0.0
O97 O 0.33572 0.59695 0.35338 0.0
O98 O 0.6553 0.15552 0.65486 0.0
Cd99 Cd 0.64951 0.11872 0.66532 0.0
Cd100 Cd 0.6469 0.11589 0.6018 0.0
O101 O 0.65965 0.15211 0.60293 0.0
O102 O 0.66391 0.11343 0.70861 0.0
O103 O 0.67946 0.09677 0.66496 0.0
C104 C 0.68109 0.10057 0.6952 0.0
C105 C 0.66495 0.08439 0.57172 0.0
C106 C 0.6601 0.16523 0.62803 0.0
C107 C 0.60016 0.10575 0.63893 0.0
O108 O 0.61 0.11036 0.61211 0.0
O109 O 0.6132 0.10622 0.66412 0.0
O110 O 0.65232 0.10179 0.5584 0.0
O111 O 0.66851 0.08568 0.60204 0.0
O112 O 0.85965 0.36056 0.86274 0.0
Cd113 Cd 0.86572 0.39737 0.85266 0.0
Cd114 Cd 0.86808 0.39973 0.91632 0.0
O115 O 0.85537 0.3635 0.91473 0.0
O116 O 0.85162 0.40291 0.80926 0.0
O117 O 0.8359 0.4195 0.85285 0.0
C118 C 0.83441 0.41582 0.82257 0.0
C119 C 0.84998 0.43112 0.94653 0.0
C120 C 0.85485 0.35062 0.88943 0.0
C121 C 0.915 0.41003 0.87962 0.0
O122 O 0.905 0.40535 0.90631 0.0
O123 O 0.90211 0.40966 0.85429 0.0
O124 O 0.86252 0.41362 0.9598 0.0
O125 O 0.8465 0.42995 0.9162 0.0
O126 O 0.36024 0.15533 0.6549 0.0
Cd127 Cd 0.36605 0.11842 0.66478 0.0
Cd128 Cd 0.36805 0.11598 0.60137 0.0
O129 O 0.35534 0.15218 0.60302 0.0
O130 O 0.35314 0.11314 0.70876 0.0
O131 O 0.33581 0.09675 0.66604 0.0
C132 C 0.33539 0.10043 0.69637 0.0
C133 C 0.34983 0.08473 0.57106 0.0
C134 C 0.35519 0.16519 0.62823 0.0
C135 C 0.41515 0.10559 0.63742 0.0
O136 O 0.40508 0.11041 0.6108 0.0
O137 O 0.40232 0.10589 0.66277 0.0
O138 O 0.36223 0.10235 0.55786 0.0
O139 O 0.34655 0.08566 0.60145 0.0
O140 O 0.65495 0.65546 0.36267 0.0
Cd141 Cd 0.64931 0.61861 0.35226 0.0
Cd142 Cd 0.6467 0.61588 0.41579 0.0
O143 O 0.65913 0.65219 0.41466 0.0
O144 O 0.66301 0.61338 0.30862 0.0
O145 O 0.67953 0.59699 0.35188 0.0
C146 C 0.68053 0.60067 0.32158 0.0
C147 C 0.66518 0.58433 0.44537 0.0
C148 C 0.65959 0.66526 0.3895 0.0
C149 C 0.60003 0.60538 0.37873 0.0
O150 O 0.60984 0.61005 0.40555 0.0
O151 O 0.61307 0.60593 0.35356 0.0
O152 O 0.65227 0.60139 0.45895 0.0
O153 O 0.6688 0.58605 0.4151 0.0
O154 O 0.11021 0.9048 0.11092 0.0
Cd155 Cd 0.14717 0.89906 0.1013 0.0
Cd156 Cd 0.14933 0.89711 0.16486 0.0
O157 O 0.11306 0.90968 0.16284 0.0
O158 O 0.15294 0.91251 0.05764 0.0
O159 O 0.16874 0.92931 0.10108 0.0
C160 C 0.1654 0.93015 0.0707 0.0
C161 C 0.18061 0.91561 0.19488 0.0
C162 C 0.1002 0.90983 0.13749 0.0
C163 C 0.16012 0.85007 0.1289 0.0
O164 O 0.15513 0.86014 0.15544 0.0
O165 O 0.15987 0.86285 0.10349 0.0
O166 O 0.16312 0.90316 0.20829 0.0
O167 O 0.17949 0.91878 0.16448 0.0
O168 O 0.86092 0.65531 0.15685 0.0
Cd169 Cd 0.86663 0.61838 0.16659 0.0
Cd170 Cd 0.86908 0.61621 0.10311 0.0
O171 O 0.85634 0.65241 0.10489 0.0
O172 O 0.85305 0.61272 0.2102 0.0
O173 O 0.83637 0.59682 0.16674 0.0
C174 C 0.83544 0.60023 0.1971 0.0
C175 C 0.85076 0.5848 0.07317 0.0
C176 C 0.85601 0.66529 0.13021 0.0
C177 C 0.9159 0.60559 0.13963 0.0
O178 O 0.90603 0.61061 0.11295 0.0
O179 O 0.90288 0.60573 0.16484 0.0
O180 O 0.86322 0.60226 0.05973 0.0
O181 O 0.84749 0.586 0.10354 0.0
O182 O 0.15563 0.15513 0.86129 0.0
Cd183 Cd 0.14967 0.11826 0.85146 0.0
Cd184 Cd 0.14763 0.11599 0.91508 0.0
O185 O 0.16032 0.15221 0.91323 0.0
O186 O 0.16386 0.11251 0.80818 0.0
O187 O 0.17956 0.09625 0.85201 0.0
C188 C 0.18109 0.09976 0.8217 0.0
C189 C 0.16571 0.08483 0.94576 0.0
C190 C 0.16061 0.16509 0.88791 0.0
C191 C 0.10055 0.10558 0.8787 0.0
O192 O 0.11067 0.11035 0.9053 0.0
O193 O 0.11332 0.10589 0.85329 0.0
O194 O 0.15322 0.10247 0.95875 0.0
O195 O 0.16916 0.08571 0.9154 0.0
O196 O 0.61082 0.40483 0.61083 0.0
Cd197 Cd 0.64781 0.39909 0.6014 0.0
Cd198 Cd 0.64991 0.39709 0.66484 0.0
O199 O 0.61362 0.40958 0.66275 0.0
O200 O 0.65332 0.41205 0.55752 0.0
O201 O 0.66942 0.42936 0.60045 0.0
C202 C 0.6659 0.42982 0.57007 0.0
C203 C 0.6805 0.41527 0.69637 0.0
C204 C 0.60077 0.40978 0.6374 0.0
C205 C 0.66071 0.35007 0.62882 0.0
O206 O 0.6558 0.36013 0.65539 0.0
O207 O 0.66041 0.36287 0.60344 0.0
O208 O 0.66274 0.4026 0.7088 0.0
O209 O 0.68012 0.41881 0.666 0.0
O210 O 0.36001 0.86023 0.36101 0.0
Cd211 Cd 0.36569 0.8972 0.35143 0.0
Cd212 Cd 0.36845 0.89923 0.41492 0.0
O213 O 0.35579 0.86301 0.41303 0.0
O214 O 0.35171 0.9031 0.30807 0.0
O215 O 0.3355 0.91887 0.35189 0.0
C216 C 0.33428 0.9156 0.32151 0.0
C217 C 0.35038 0.93025 0.44579 0.0
C218 C 0.35531 0.85019 0.38767 0.0
C219 C 0.41508 0.90996 0.378 0.0
O220 O 0.40533 0.90497 0.40475 0.0
O221 O 0.40196 0.90979 0.35288 0.0
O222 O 0.36304 0.91267 0.45866 0.0
O223 O 0.3468 0.92942 0.41545 0.0
H224 H 0.16814 0.81899 0.17895 0.0
H225 H 0.16391 0.69499 0.07517 0.0
H226 H 0.16272 0.81943 0.07659 0.0
H227 H 0.16736 0.69715 0.17764 0.0
H228 H 0.1675 0.74021 0.07415 0.0
H229 H 0.17204 0.77421 0.17783 0.0
C230 C 0.16792 0.80969 0.15615 0.0
C231 C 0.16487 0.82306 0.12783 0.0
C232 C 0.16767 0.73072 0.09681 0.0
C233 C 0.16917 0.77141 0.12639 0.0
C234 C 0.16569 0.7049 0.09742 0.0
C235 C 0.16512 0.69221 0.12656 0.0
C236 C 0.16916 0.74391 0.12554 0.0
C237 C 0.16748 0.70607 0.15461 0.0
C238 C 0.17015 0.78403 0.15554 0.0
C239 C 0.16496 0.80989 0.09902 0.0
N240 N 0.16925 0.73108 0.15338 0.0
N241 N 0.16684 0.78476 0.09905 0.0
H242 H 0.44489 0.91322 0.32497 0.0
H243 H 0.56892 0.91828 0.42883 0.0
H244 H 0.44706 0.91699 0.42742 0.0
H245 H 0.56942 0.91226 0.32652 0.0
H246 H 0.52412 0.92206 0.42761 0.0
H247 H 0.49013 0.91694 0.32395 0.0
C248 C 0.45481 0.91509 0.34721 0.0
C249 C 0.44212 0.91458 0.37635 0.0
C250 C 0.53395 0.92006 0.40534 0.0
C251 C 0.49383 0.91877 0.37533 0.0
C252 C 0.55963 0.9179 0.40602 0.0
C253 C 0.57302 0.91471 0.37774 0.0
C254 C 0.52135 0.91888 0.37619 0.0
C255 C 0.55986 0.91461 0.34892 0.0
C256 C 0.48064 0.91715 0.3466 0.0
C257 C 0.45598 0.91706 0.4044 0.0
N258 N 0.53472 0.91642 0.34889 0.0
N259 N 0.481 0.91891 0.40316 0.0
H260 H 0.3477 0.3188 0.67991 0.0
H261 H 0.35182 0.19519 0.57539 0.0
H262 H 0.35311 0.31959 0.57756 0.0
H263 H 0.34833 0.19695 0.67787 0.0
H264 H 0.34823 0.24042 0.57465 0.0
H265 H 0.34372 0.27403 0.67853 0.0
C266 C 0.34791 0.30958 0.65707 0.0
C267 C 0.35097 0.32304 0.62882 0.0
C268 C 0.34805 0.23084 0.59725 0.0
C269 C 0.34658 0.27142 0.62707 0.0
C270 C 0.35003 0.20502 0.5977 0.0
C271 C 0.35059 0.19222 0.62675 0.0
C272 C 0.34656 0.24392 0.62606 0.0
C273 C 0.34822 0.20597 0.65489 0.0
C274 C 0.34563 0.28393 0.65629 0.0
C275 C 0.35086 0.30998 0.59993 0.0
N276 N 0.34645 0.23098 0.65382 0.0
N277 N 0.34894 0.28486 0.59981 0.0
H278 H 0.06958 0.09719 0.92873 0.0
H279 H 0.94516 0.10351 0.82576 0.0
H280 H 0.06969 0.10383 0.82649 0.0
H281 H 0.94769 0.09919 0.92817 0.0
H282 H 0.99037 0.09965 0.82443 0.0
H283 H 0.02474 0.09372 0.9278 0.0
C284 C 0.06019 0.09777 0.906 0.0
C285 C 0.07349 0.10104 0.87766 0.0
C286 C 0.98097 0.09936 0.84714 0.0
C287 C 0.02178 0.09724 0.87644 0.0
C288 C 0.95515 0.1015 0.84793 0.0
C289 C 0.94256 0.10189 0.87715 0.0
C290 C 0.99426 0.09752 0.87576 0.0
C291 C 0.95652 0.09922 0.90509 0.0
C292 C 0.0345 0.09579 0.90549 0.0
C293 C 0.06021 0.10141 0.84893 0.0
N294 N 0.98153 0.09728 0.90368 0.0
N295 N 0.03505 0.09977 0.84907 0.0
H296 H 0.16299 0.32011 0.94191 0.0
H297 H 0.16912 0.19623 0.83809 0.0
H298 H 0.16741 0.31803 0.8395 0.0
H299 H 0.16263 0.19566 0.94034 0.0
H300 H 0.17279 0.24103 0.83934 0.0
H301 H 0.16694 0.27492 0.94296 0.0
C302 C 0.16505 0.31022 0.91969 0.0
C303 C 0.16465 0.32292 0.89055 0.0
C304 C 0.17071 0.23118 0.86159 0.0
C305 C 0.16911 0.27126 0.8916 0.0
C306 C 0.16862 0.20551 0.86089 0.0
C307 C 0.16533 0.1921 0.88914 0.0
C308 C 0.16935 0.24376 0.89073 0.0
C309 C 0.16506 0.20523 0.91797 0.0
C310 C 0.16724 0.28442 0.92031 0.0
C311 C 0.16738 0.3091 0.86252 0.0
N312 N 0.1668 0.23037 0.91801 0.0
N313 N 0.16935 0.2841 0.86377 0.0
H314 H 0.94513 0.91311 0.19166 0.0
H315 H 0.06898 0.91783 0.08755 0.0
H316 H 0.9471 0.91704 0.08921 0.0
H317 H 0.06965 0.91233 0.18991 0.0
H318 H 0.02418 0.92164 0.08882 0.0
H319 H 0.99038 0.91677 0.19258 0.0
C320 C 0.95501 0.915 0.1694 0.0
C321 C 0.94226 0.91455 0.14029 0.0
C322 C 0.03405 0.91975 0.11108 0.0
C323 C 0.99398 0.91867 0.1412 0.0
C324 C 0.05972 0.91757 0.11038 0.0
C325 C 0.07317 0.91453 0.13866 0.0
C326 C 0.02149 0.91873 0.14027 0.0
C327 C 0.06006 0.91457 0.16751 0.0
C328 C 0.98084 0.91703 0.16995 0.0
C329 C 0.95607 0.91706 0.11222 0.0
N330 N 0.03491 0.9164 0.16756 0.0
N331 N 0.98109 0.91887 0.11339 0.0
H332 H 0.35207 0.6953 0.44239 0.0
H333 H 0.34719 0.81892 0.33783 0.0
H334 H 0.34862 0.69706 0.3399 0.0
H335 H 0.35303 0.81971 0.44016 0.0
H336 H 0.34347 0.77412 0.33924 0.0
H337 H 0.34836 0.74052 0.44311 0.0
C338 C 0.35028 0.70512 0.42007 0.0
C339 C 0.35088 0.69232 0.39102 0.0
C340 C 0.34542 0.78402 0.36146 0.0
C341 C 0.34669 0.74402 0.3917 0.0
C342 C 0.34754 0.80969 0.36068 0.0
C343 C 0.35066 0.82316 0.38891 0.0
C344 C 0.34656 0.77151 0.39068 0.0
C345 C 0.35074 0.81009 0.41779 0.0
C346 C 0.34822 0.73094 0.42051 0.0
C347 C 0.34848 0.70607 0.36287 0.0
N348 N 0.34896 0.78496 0.41792 0.0
N349 N 0.34663 0.73108 0.36394 0.0
H350 H 0.57019 0.10296 0.69186 0.0
H351 H 0.4464 0.09754 0.58755 0.0
H352 H 0.56831 0.0984 0.58945 0.0
H353 H 0.44569 0.10339 0.68987 0.0
H354 H 0.49122 0.09386 0.58891 0.0
H355 H 0.52495 0.09928 0.69271 0.0
C356 C 0.56033 0.10093 0.6696 0.0
C357 C 0.57311 0.1012 0.64052 0.0
C358 C 0.48133 0.0958 0.61115 0.0
C359 C 0.52139 0.09707 0.64134 0.0
C360 C 0.45565 0.0979 0.61039 0.0
C361 C 0.44219 0.101 0.63863 0.0
C362 C 0.49388 0.09695 0.64035 0.0
C363 C 0.45529 0.1011 0.6675 0.0
C364 C 0.5345 0.09889 0.67011 0.0
C365 C 0.55933 0.09852 0.61244 0.0
N366 N 0.48044 0.09934 0.66761 0.0
N367 N 0.5343 0.0967 0.61357 0.0
H368 H 0.8529 0.19552 0.94318 0.0
H369 H 0.84561 0.31956 0.83975 0.0
H370 H 0.84731 0.19779 0.84087 0.0
H371 H 0.8534 0.32 0.94186 0.0
H372 H 0.84187 0.27477 0.841 0.0
H373 H 0.84894 0.24071 0.94442 0.0
C374 C 0.85057 0.20545 0.92102 0.0
C375 C 0.85066 0.1928 0.89184 0.0
C376 C 0.84424 0.28459 0.86322 0.0
C377 C 0.84618 0.24447 0.89312 0.0
C378 C 0.84638 0.31025 0.86253 0.0
C379 C 0.85006 0.32362 0.89072 0.0
C380 C 0.84595 0.27197 0.89231 0.0
C381 C 0.85065 0.31046 0.91952 0.0
C382 C 0.84838 0.23125 0.92176 0.0
C383 C 0.84759 0.20668 0.86391 0.0
N384 N 0.84887 0.28532 0.91956 0.0
N385 N 0.84562 0.23167 0.86526 0.0
H386 H 0.66236 0.69518 0.44249 0.0
H387 H 0.66809 0.81891 0.33828 0.0
H388 H 0.66706 0.69711 0.34009 0.0
H389 H 0.66195 0.81966 0.44057 0.0
H390 H 0.67179 0.77412 0.33966 0.0
H391 H 0.66611 0.7404 0.44341 0.0
C392 C 0.66444 0.70504 0.42025 0.0
C393 C 0.66418 0.69229 0.39115 0.0
C394 C 0.66978 0.78401 0.36189 0.0
C395 C 0.6684 0.74398 0.39205 0.0
C396 C 0.66767 0.80967 0.36112 0.0
C397 C 0.66448 0.82313 0.38934 0.0
C398 C 0.66854 0.77148 0.39108 0.0
C399 C 0.66431 0.81005 0.41821 0.0
C400 C 0.66651 0.73086 0.42079 0.0
C401 C 0.66693 0.70608 0.36309 0.0
N402 N 0.66607 0.78491 0.41833 0.0
N403 N 0.66878 0.73108 0.36426 0.0
H404 H 0.84778 0.69653 0.18002 0.0
H405 H 0.85252 0.8202 0.0756 0.0
H406 H 0.85364 0.69576 0.07771 0.0
H407 H 0.84848 0.81836 0.17804 0.0
H408 H 0.84895 0.77497 0.07479 0.0
H409 H 0.84389 0.7413 0.17862 0.0
C410 C 0.84811 0.70576 0.15717 0.0
C411 C 0.85127 0.6923 0.12895 0.0
C412 C 0.84865 0.78453 0.0974 0.0
C413 C 0.84698 0.74394 0.12718 0.0
C414 C 0.85062 0.81035 0.09788 0.0
C415 C 0.85102 0.82314 0.12695 0.0
C416 C 0.847 0.77143 0.12618 0.0
C417 C 0.8485 0.80937 0.15506 0.0
C418 C 0.84588 0.73141 0.15639 0.0
C419 C 0.85131 0.70537 0.10007 0.0
N420 N 0.84674 0.78435 0.15395 0.0
N421 N 0.84943 0.7305 0.09994 0.0
H422 H 0.66903 0.31894 0.67874 0.0
H423 H 0.66304 0.19503 0.57495 0.0
H424 H 0.66283 0.31947 0.57645 0.0
H425 H 0.66773 0.19712 0.67734 0.0
H426 H 0.66694 0.24024 0.57389 0.0
H427 H 0.67272 0.27414 0.67753 0.0
C428 C 0.6686 0.30965 0.65594 0.0
C429 C 0.66539 0.32305 0.62767 0.0
C430 C 0.66731 0.23073 0.59653 0.0
C431 C 0.66943 0.2714 0.62612 0.0
C432 C 0.66515 0.20492 0.59716 0.0
C433 C 0.66483 0.19223 0.6263 0.0
C434 C 0.66923 0.2439 0.62524 0.0
C435 C 0.66763 0.20605 0.65432 0.0
C436 C 0.6707 0.28399 0.65527 0.0
C437 C 0.6652 0.30991 0.59885 0.0
N438 N 0.66957 0.23105 0.65307 0.0
N439 N 0.66695 0.28477 0.59882 0.0
H440 H 0.07011 0.41245 0.82546 0.0
H441 H 0.94623 0.41844 0.92942 0.0
H442 H 0.06811 0.4168 0.92788 0.0
H443 H 0.94558 0.41182 0.82717 0.0
H444 H 0.99105 0.42202 0.92812 0.0
H445 H 0.02488 0.41622 0.82447 0.0
C446 C 0.06023 0.41445 0.8477 0.0
C447 C 0.07297 0.4141 0.87682 0.0
C448 C 0.98118 0.41993 0.90588 0.0
C449 C 0.02126 0.41834 0.87583 0.0
C450 C 0.9555 0.41788 0.9066 0.0
C451 C 0.94205 0.41459 0.87837 0.0
C452 C 0.99375 0.41854 0.87673 0.0
C453 C 0.95517 0.41426 0.84954 0.0
C454 C 0.0344 0.41654 0.84711 0.0
C455 C 0.05916 0.41675 0.90486 0.0
N456 N 0.98033 0.41597 0.84947 0.0
N457 N 0.03414 0.41862 0.90365 0.0
H458 H 0.57008 0.60262 0.32575 0.0
H459 H 0.44633 0.59686 0.42994 0.0
H460 H 0.56821 0.59773 0.42814 0.0
H461 H 0.44558 0.60328 0.32768 0.0
H462 H 0.49113 0.59302 0.42856 0.0
H463 H 0.52484 0.59888 0.32483 0.0
C464 C 0.56023 0.6005 0.34799 0.0
C465 C 0.573 0.60071 0.37709 0.0
C466 C 0.48124 0.59512 0.40634 0.0
C467 C 0.52129 0.5965 0.37619 0.0
C468 C 0.45557 0.59731 0.40711 0.0
C469 C 0.44211 0.60062 0.3789 0.0
C470 C 0.49378 0.5964 0.37715 0.0
C471 C 0.4552 0.60083 0.35003 0.0
C472 C 0.5344 0.59842 0.34745 0.0
C473 C 0.55922 0.5979 0.40514 0.0
N474 N 0.48034 0.59899 0.34991 0.0
N475 N 0.5342 0.59606 0.40397 0.0
H476 H 0.56947 0.41747 0.58745 0.0
H477 H 0.44581 0.41326 0.69197 0.0
H478 H 0.57028 0.41243 0.68984 0.0
H479 H 0.44755 0.41621 0.58946 0.0
H480 H 0.49104 0.41695 0.69268 0.0
H481 H 0.52465 0.42118 0.58878 0.0
C482 C 0.56024 0.41729 0.61029 0.0
C483 C 0.57373 0.41441 0.63857 0.0
C484 C 0.48146 0.41699 0.67008 0.0
C485 C 0.52205 0.41849 0.64025 0.0
C486 C 0.45563 0.41494 0.66965 0.0
C487 C 0.44282 0.41421 0.64059 0.0
C488 C 0.49454 0.41837 0.64126 0.0
C489 C 0.45657 0.41645 0.61243 0.0
C490 C 0.53456 0.41941 0.61103 0.0
C491 C 0.56065 0.41454 0.66744 0.0
N492 N 0.48159 0.4183 0.61349 0.0
N493 N 0.53551 0.41631 0.66754 0.0
H494 H 0.06959 0.59716 0.08811 0.0
H495 H 0.94589 0.60218 0.1925 0.0
H496 H 0.07037 0.60314 0.19042 0.0
H497 H 0.94769 0.59871 0.09002 0.0
H498 H 0.99112 0.59842 0.1933 0.0
H499 H 0.02478 0.59343 0.08948 0.0
C500 C 0.06035 0.59754 0.11095 0.0
C501 C 0.07383 0.6007 0.13918 0.0
C502 C 0.98155 0.59828 0.17068 0.0
C503 C 0.02215 0.59659 0.14091 0.0
C504 C 0.95572 0.60037 0.17021 0.0
C505 C 0.94293 0.60098 0.14113 0.0
C506 C 0.99464 0.59673 0.14189 0.0
C507 C 0.9567 0.59857 0.11301 0.0
C508 C 0.03468 0.59541 0.11171 0.0
C509 C 0.06075 0.60081 0.16805 0.0
N510 N 0.98172 0.59669 0.11411 0.0
N511 N 0.0356 0.59902 0.16816 0.0
H512 H 0.18117 0.5394 0.09415 0.0
H513 H 0.18043 0.4756 0.92241 0.0
H514 H 0.16809 0.57918 1.00683 0.0
H515 H 0.16733 0.43599 0.00984 0.0
H516 H 0.1869 0.51351 0.95317 0.0
H517 H 0.18712 0.50144 0.06334 0.0
C518 C 0.18003 0.54027 0.06847 0.0
C519 C 0.17388 0.56246 0.05306 0.0
C520 C 0.18295 0.49643 0.9656 0.0
C521 C 0.18064 0.5191 0.01773 0.0
C522 C 0.17938 0.47475 0.9481 0.0
C523 C 0.17308 0.45263 0.96357 0.0
C524 C 0.18046 0.49593 0.99882 0.0
C525 C 0.17193 0.45267 0.99691 0.0
C526 C 0.18329 0.51856 0.05094 0.0
C527 C 0.17258 0.56244 0.01972 0.0
N528 N 0.17542 0.47401 0.01341 0.0
N529 N 0.17577 0.54107 1.00319 0.0
H530 H 0.72555 0.93049 0.3442 0.0
H531 H 0.7894 0.93028 0.17251 0.0
H532 H 0.6858 0.91733 0.25687 0.0
H533 H 0.82909 0.91717 0.25991 0.0
H534 H 0.75143 0.93648 0.20326 0.0
H535 H 0.76351 0.93657 0.31342 0.0
C536 C 0.72468 0.92935 0.31853 0.0
C537 C 0.7025 0.92315 0.3031 0.0
C538 C 0.76854 0.93259 0.21569 0.0
C539 C 0.74586 0.93007 0.2678 0.0
C540 C 0.79025 0.92918 0.19819 0.0
C541 C 0.81241 0.92296 0.21365 0.0
C542 C 0.76905 0.93002 0.2489 0.0
C543 C 0.81237 0.92172 0.24699 0.0
C544 C 0.74639 0.93269 0.301 0.0
C545 C 0.70252 0.92187 0.26976 0.0
N546 N 0.791 0.92506 0.26348 0.0
N547 N 0.72389 0.92513 0.25324 0.0
H548 H 0.34807 0.43466 0.50757 0.0
H549 H 0.3479 0.5806 0.51206 0.0
H550 H 0.3363 0.47576 0.59413 0.0
H551 H 0.3355 0.53944 0.42567 0.0
H552 H 0.34182 0.54266 0.54268 0.0
H553 H 0.34164 0.47259 0.47704 0.0
C554 C 0.34376 0.45159 0.52014 0.0
C555 C 0.3429 0.45207 0.55347 0.0
C556 C 0.34003 0.54198 0.51706 0.0
C557 C 0.33596 0.49568 0.51868 0.0
C558 C 0.34352 0.56365 0.49955 0.0
C559 C 0.3424 0.56316 0.46623 0.0
C560 C 0.33584 0.51954 0.50113 0.0
C561 C 0.33658 0.54067 0.45131 0.0
C562 C 0.34007 0.47326 0.50268 0.0
C563 C 0.33718 0.47454 0.56847 0.0
N564 N 0.33393 0.51969 0.46883 0.0
N565 N 0.33432 0.49553 0.551 0.0
H566 H 0.72382 0.07977 0.67239 0.0
H567 H 0.83226 0.10035 0.75594 0.0
H568 H 0.68914 0.10399 0.75936 0.0
H569 H 0.78967 0.08606 0.84067 0.0
H570 H 0.79517 0.09406 0.72401 0.0
H571 H 0.76244 0.07339 0.70151 0.0
C572 C 0.72424 0.08352 0.69768 0.0
C573 C 0.70329 0.09282 0.71335 0.0
C574 C 0.79398 0.09154 0.74947 0.0
C575 C 0.74767 0.08621 0.74668 0.0
C576 C 0.81519 0.09534 0.76778 0.0
C577 C 0.81407 0.09378 0.80104 0.0
C578 C 0.77135 0.08639 0.76453 0.0
C579 C 0.7914 0.08737 0.81509 0.0
C580 C 0.74642 0.08016 0.71422 0.0
C581 C 0.70491 0.09711 0.74621 0.0
N582 N 0.77084 0.08436 0.79681 0.0
N583 N 0.72676 0.09393 0.76172 0.0
H584 H 0.83474 0.47615 0.92405 0.0
H585 H 0.83565 0.5398 0.09588 0.0
H586 H 0.84822 0.43634 0.01125 0.0
H587 H 0.84841 0.57956 1.00849 0.0
H588 H 0.8293 0.50189 0.06509 0.0
H589 H 0.82879 0.51407 0.95495 0.0
C590 C 0.83597 0.47526 0.94972 0.0
C591 C 0.84223 0.45307 0.96508 0.0
C592 C 0.83315 0.519 0.05267 0.0
C593 C 0.83546 0.49639 1.00049 0.0
C594 C 0.83664 0.54068 0.07019 0.0
C595 C 0.84282 0.56284 0.05474 0.0
C596 C 0.83559 0.51954 0.01944 0.0
C597 C 0.84392 0.56284 0.0214 0.0
C598 C 0.83271 0.49694 0.9673 0.0
C599 C 0.84364 0.45307 0.99841 0.0
N600 N 0.8405 0.5415 1.00488 0.0
N601 N 0.84044 0.47442 0.01498 0.0
H602 H 0.22375 0.07882 0.84458 0.0
H603 H 0.33229 0.09882 0.76118 0.0
H604 H 0.18913 0.10303 0.75753 0.0
H605 H 0.28959 0.08521 0.67633 0.0
H606 H 0.29519 0.09258 0.79305 0.0
H607 H 0.26234 0.07229 0.81552 0.0
C608 C 0.22418 0.08254 0.81929 0.0
C609 C 0.20325 0.09189 0.80358 0.0
C610 C 0.29397 0.09019 0.76757 0.0
C611 C 0.24761 0.08511 0.7703 0.0
C612 C 0.31519 0.09396 0.74929 0.0
C613 C 0.31405 0.09259 0.71602 0.0
C614 C 0.2713 0.08524 0.75246 0.0
C615 C 0.29134 0.08637 0.70192 0.0
C616 C 0.24634 0.07909 0.80277 0.0
C617 C 0.20487 0.09611 0.77071 0.0
N618 N 0.27077 0.08338 0.72017 0.0
N619 N 0.22671 0.09287 0.75522 0.0
H620 H 0.68658 0.54198 0.42233 0.0
H621 H 0.66784 0.43302 0.50529 0.0
H622 H 0.66186 0.57602 0.50947 0.0
H623 H 0.68065 0.47569 0.59034 0.0
H624 H 0.67378 0.47023 0.47356 0.0
H625 H 0.69357 0.5034 0.45125 0.0
C626 C 0.68284 0.54142 0.44761 0.0
C627 C 0.67322 0.56218 0.46338 0.0
C628 C 0.67607 0.47143 0.49906 0.0
C629 C 0.68053 0.51783 0.4965 0.0
C630 C 0.67248 0.45014 0.51726 0.0
C631 C 0.67369 0.45123 0.55054 0.0
C632 C 0.68068 0.49412 0.51426 0.0
C633 C 0.67962 0.47397 0.56475 0.0
C634 C 0.68655 0.51927 0.46405 0.0
C635 C 0.66897 0.56041 0.49624 0.0
N636 N 0.68243 0.4946 0.54656 0.0
N637 N 0.67248 0.53858 0.51164 0.0
H638 H 0.28926 0.93075 0.34419 0.0
H639 H 0.22561 0.93088 0.1723 0.0
H640 H 0.32906 0.91795 0.25684 0.0
H641 H 0.18578 0.91788 0.25957 0.0
H642 H 0.26351 0.93715 0.20317 0.0
H643 H 0.25133 0.93702 0.31335 0.0
C644 C 0.29014 0.92974 0.3185 0.0
C645 C 0.31232 0.92357 0.30308 0.0
C646 C 0.24639 0.93327 0.21555 0.0
C647 C 0.269 0.93071 0.26773 0.0
C648 C 0.22471 0.92982 0.19798 0.0
C649 C 0.20253 0.92359 0.21337 0.0
C650 C 0.24583 0.93072 0.24877 0.0
C651 C 0.20251 0.92242 0.24671 0.0
C652 C 0.26845 0.93319 0.30095 0.0
C653 C 0.31233 0.92245 0.26973 0.0
N654 N 0.22386 0.92577 0.26328 0.0
N655 N 0.29097 0.92581 0.25319 0.0
H656 H 0.68034 0.03947 0.59438 0.0
H657 H 0.68043 0.97565 0.42267 0.0
H658 H 0.66683 0.07907 0.50704 0.0
H659 H 0.66745 0.93588 0.51 0.0
H660 H 0.68647 0.0136 0.45347 0.0
H661 H 0.68661 1.00154 0.5636 0.0
C662 C 0.67916 0.04031 0.5687 0.0
C663 C 0.6728 0.06243 0.55327 0.0
C664 C 0.68265 0.99648 0.46587 0.0
C665 C 0.67996 0.01912 0.51799 0.0
C666 C 0.67933 0.97478 0.44835 0.0
C667 C 0.67318 0.9526 0.46377 0.0
C668 C 0.68005 0.99595 0.49908 0.0
C669 C 0.67194 0.95261 0.49711 0.0
C670 C 0.68261 0.01862 0.55119 0.0
C671 C 0.67147 0.06238 0.51994 0.0
N672 N 0.67518 0.97398 0.51364 0.0
N673 N 0.67486 0.04104 0.50342 0.0
H674 H 0.33092 0.41778 0.76141 0.0
H675 H 0.18496 0.41683 0.75648 0.0
H676 H 0.28984 0.42954 0.67478 0.0
H677 H 0.22587 0.42953 0.84302 0.0
H678 H 0.22292 0.42328 0.726 0.0
H679 H 0.29289 0.42391 0.79185 0.0
C680 C 0.31397 0.42204 0.74881 0.0
C681 C 0.31353 0.42296 0.71548 0.0
C682 C 0.22353 0.42506 0.75162 0.0
C683 C 0.26981 0.42956 0.75017 0.0
C684 C 0.20186 0.42135 0.76905 0.0
C685 C 0.20228 0.42246 0.80237 0.0
C686 C 0.24591 0.42944 0.76764 0.0
C687 C 0.22469 0.42845 0.81737 0.0
C688 C 0.29225 0.42556 0.76622 0.0
C689 C 0.29103 0.42861 0.70043 0.0
N690 N 0.2457 0.43131 0.79994 0.0
N691 N 0.27 0.43129 0.71785 0.0
H692 H 0.8359 0.03975 0.92243 0.0
H693 H 0.83477 0.9757 0.09404 0.0
H694 H 0.84806 0.07933 0.01009 0.0
H695 H 0.84878 0.93613 1.00683 0.0
H696 H 0.82866 0.01363 0.06321 0.0
H697 H 0.82966 1.0017 0.95302 0.0
C698 C 0.83678 0.04056 0.94813 0.0
C699 C 0.84276 0.06271 0.96372 0.0
C700 C 0.83273 0.99655 0.05083 0.0
C701 C 0.83565 0.01927 0.99879 0.0
C702 C 0.83609 0.97486 0.06838 0.0
C703 C 0.84254 0.95275 0.05301 0.0
C704 C 0.83559 0.99608 0.01766 0.0
C705 C 0.84405 0.95281 0.01969 0.0
C706 C 0.83336 0.01881 0.96554 0.0
C707 C 0.84372 0.06262 0.99708 0.0
N708 N 0.84077 0.97417 1.00314 0.0
N709 N 0.84037 0.04122 0.01348 0.0
H710 H 0.22631 0.58497 0.17323 0.0
H711 H 0.28941 0.58539 0.34546 0.0
H712 H 0.18626 0.59857 0.26018 0.0
H713 H 0.32955 0.59793 0.25831 0.0
H714 H 0.25155 0.57928 0.31443 0.0
H715 H 0.26411 0.57877 0.20435 0.0
C716 C 0.22534 0.58618 0.19889 0.0
C717 C 0.20313 0.59255 0.21411 0.0
C718 C 0.26873 0.58303 0.30212 0.0
C719 C 0.2463 0.58549 0.24979 0.0
C720 C 0.29038 0.58638 0.31978 0.0
C721 C 0.31265 0.59243 0.30446 0.0
C722 C 0.2694 0.58547 0.26889 0.0
C723 C 0.31276 0.59353 0.27112 0.0
C724 C 0.24695 0.58278 0.21661 0.0
C725 C 0.20301 0.59392 0.24744 0.0
N726 N 0.29144 0.59025 0.25446 0.0
N727 N 0.2243 0.59059 0.26415 0.0
H728 H 0.34679 0.08043 0.50637 0.0
H729 H 0.34845 0.9345 0.51058 0.0
H730 H 0.33596 0.03908 0.59295 0.0
H731 H 0.33525 0.97563 0.42436 0.0
H732 H 0.34201 0.97231 0.54132 0.0
H733 H 0.34067 0.04247 0.47582 0.0
C734 C 0.34274 0.06343 0.51894 0.0
C735 C 0.34207 0.0629 0.55228 0.0
C736 C 0.34013 0.97301 0.51572 0.0
C737 C 0.33547 0.01925 0.51746 0.0
C738 C 0.34382 0.95141 0.49814 0.0
C739 C 0.34257 0.95193 0.46482 0.0
C740 C 0.3356 0.99542 0.49986 0.0
C741 C 0.33644 0.97437 0.44999 0.0
C742 C 0.33922 0.04175 0.50147 0.0
C743 C 0.33667 0.04034 0.56729 0.0
N744 N 0.33359 0.9953 0.46757 0.0
N745 N 0.33399 0.01935 0.5498 0.0
H746 H 0.83097 0.59774 0.26183 0.0
H747 H 0.68503 0.59867 0.25683 0.0
H748 H 0.78994 0.58589 0.17518 0.0
H749 H 0.72588 0.58573 0.34336 0.0
H750 H 0.723 0.59229 0.22636 0.0
H751 H 0.79292 0.5916 0.29225 0.0
C752 C 0.81402 0.59346 0.24922 0.0
C753 C 0.8136 0.59251 0.21589 0.0
C754 C 0.7236 0.59044 0.25197 0.0
C755 C 0.76987 0.5859 0.25055 0.0
C756 C 0.70192 0.59411 0.2694 0.0
C757 C 0.70232 0.59292 0.30271 0.0
C758 C 0.74597 0.58601 0.26799 0.0
C759 C 0.72472 0.58687 0.31772 0.0
C760 C 0.7923 0.58994 0.26661 0.0
C761 C 0.79112 0.58683 0.20083 0.0
N762 N 0.74573 0.58405 0.30029 0.0
N763 N 0.77008 0.58416 0.21824 0.0
H764 H 0.16785 0.93452 1.00594 0.0
H765 H 0.16801 0.08044 0.01051 0.0
H766 H 0.17999 0.9756 0.09245 0.0
H767 H 0.18023 0.03935 0.92405 0.0
H768 H 0.17419 0.04248 0.04107 0.0
H769 H 0.17418 0.97246 0.97539 0.0
C770 C 0.17223 0.95145 0.01849 0.0
C771 C 0.17321 0.95192 0.05182 0.0
C772 C 0.17592 0.04183 0.01545 0.0
C773 C 0.18004 0.99553 0.01701 0.0
C774 C 0.17237 0.06351 0.99797 0.0
C775 C 0.17342 0.06304 0.96465 0.0
C776 C 0.18009 0.0194 0.99948 0.0
C777 C 0.17921 0.04056 0.94969 0.0
C778 C 0.17586 0.97311 1.00103 0.0
C779 C 0.17902 0.97438 0.0668 0.0
N780 N 0.18191 0.01957 0.96717 0.0
N781 N 0.18181 0.99537 0.04932 0.0
H782 H 0.68341 0.41734 0.76116 0.0
H783 H 0.79182 0.43714 0.845 0.0
H784 H 0.72643 0.43016 0.67642 0.0
H785 H 0.82654 0.41223 0.75839 0.0
H786 H 0.75336 0.44377 0.81565 0.0
H787 H 0.72044 0.42358 0.79318 0.0
C788 C 0.70057 0.42204 0.74932 0.0
C789 C 0.70181 0.42318 0.71605 0.0
C790 C 0.76935 0.43679 0.80306 0.0
C791 C 0.7445 0.43052 0.75266 0.0
C792 C 0.79144 0.43328 0.81975 0.0
C793 C 0.81235 0.42371 0.80426 0.0
C794 C 0.76813 0.4306 0.77064 0.0
C795 C 0.8108 0.41932 0.77142 0.0
C796 C 0.72175 0.4258 0.76769 0.0
C797 C 0.7246 0.42918 0.70201 0.0
N798 N 0.78902 0.42262 0.75577 0.0
N799 N 0.74513 0.43218 0.72036 0.0
loop_
_geom_bond_atom_site_label_1
_geom_bond_atom_site_label_2
_geom_bond_distance
_geom_bond_site_symmetry_2
_ccdc_geom_bond_type
O0 Cd1 2.223 . S
O0 C8 1.315 . S
Cd1 O0 2.223 . S
Cd1 O4 2.297 . S
Cd1 O5 2.439 . S
Cd1 O11 2.240 . S
Cd2 O3 2.240 . S
Cd2 O10 2.223 . S
Cd2 O12 2.297 . S
Cd2 O13 2.439 . S
O3 Cd2 2.240 . S
O3 C8 1.279 . S
O4 Cd1 2.297 . S
O4 C6 1.247 . S
O5 Cd1 2.439 . S
O5 C6 1.208 . S
C6 O4 1.247 . S
C6 O5 1.208 . S
C7 O12 1.247 . S
C7 O13 1.208 . S
C8 O0 1.315 . S
C8 O3 1.279 . S
C9 O10 1.315 . S
C9 O11 1.279 . S
O10 Cd2 2.223 . S
O10 C9 1.315 . S
O11 Cd1 2.240 . S
O11 C9 1.279 . S
O12 Cd2 2.297 . S
O12 C7 1.247 . S
O13 Cd2 2.439 . S
O13 C7 1.208 . S
O14 Cd15 2.223 . S
O14 C22 1.315 . S
Cd15 O14 2.223 . S
Cd15 O18 2.297 . S
Cd15 O19 2.439 . S
Cd15 O25 2.240 . S
Cd16 O17 2.240 . S
Cd16 O24 2.223 . S
Cd16 O26 2.297 . S
Cd16 O27 2.439 . S
O17 Cd16 2.240 . S
O17 C22 1.279 . S
O18 Cd15 2.297 . S
O18 C20 1.247 . S
O19 Cd15 2.439 . S
O19 C20 1.208 . S
C20 O18 1.247 . S
C20 O19 1.208 . S
C21 O26 1.247 . S
C21 O27 1.208 . S
C22 O14 1.315 . S
C22 O17 1.279 . S
C23 O24 1.315 . S
C23 O25 1.279 . S
O24 Cd16 2.223 . S
O24 C23 1.315 . S
O25 Cd15 2.240 . S
O25 C23 1.279 . S
O26 Cd16 2.297 . S
O26 C21 1.247 . S
O27 Cd16 2.439 . S
O27 C21 1.208 . S
O28 Cd29 2.223 . S
O28 C36 1.315 . S
Cd29 O28 2.223 . S
Cd29 O32 2.297 . S
Cd29 O33 2.439 . S
Cd29 O39 2.240 . S
Cd30 O31 2.240 . S
Cd30 O38 2.223 . S
Cd30 O40 2.297 . S
Cd30 O41 2.439 . S
O31 Cd30 2.240 . S
O31 C36 1.279 . S
O32 Cd29 2.297 . S
O32 C34 1.247 . S
O33 Cd29 2.439 . S
O33 C34 1.208 . S
C34 O32 1.247 . S
C34 O33 1.208 . S
C35 O40 1.247 . S
C35 O41 1.208 . S
C36 O28 1.315 . S
C36 O31 1.279 . S
C37 O38 1.315 . S
C37 O39 1.279 . S
O38 Cd30 2.223 . S
O38 C37 1.315 . S
O39 Cd29 2.240 . S
O39 C37 1.279 . S
O40 Cd30 2.297 . S
O40 C35 1.247 . S
O41 Cd30 2.439 . S
O41 C35 1.208 . S
O42 Cd43 2.223 . S
O42 C50 1.315 . S
Cd43 O42 2.223 . S
Cd43 O46 2.297 . S
Cd43 O47 2.439 . S
Cd43 O53 2.240 . S
Cd44 O45 2.240 . S
Cd44 O52 2.223 . S
Cd44 O54 2.297 . S
Cd44 O55 2.439 . S
O45 Cd44 2.240 . S
O45 C50 1.279 . S
O46 Cd43 2.297 . S
O46 C48 1.247 . S
O47 Cd43 2.439 . S
O47 C48 1.208 . S
C48 O46 1.247 . S
C48 O47 1.208 . S
C49 O54 1.247 . S
C49 O55 1.208 . S
C50 O42 1.315 . S
C50 O45 1.279 . S
C51 O52 1.315 . S
C51 O53 1.279 . S
O52 Cd44 2.223 . S
O52 C51 1.315 . S
O53 Cd43 2.240 . S
O53 C51 1.279 . S
O54 Cd44 2.297 . S
O54 C49 1.247 . S
O55 Cd44 2.439 . S
O55 C49 1.208 . S
O56 Cd57 2.223 . S
O56 C64 1.315 . S
Cd57 O56 2.223 . S
Cd57 O60 2.297 . S
Cd57 O61 2.439 . S
Cd57 O67 2.240 . S
Cd58 O59 2.240 . S
Cd58 O66 2.223 . S
Cd58 O68 2.297 . S
Cd58 O69 2.439 . S
O59 Cd58 2.240 . S
O59 C64 1.279 . S
O60 Cd57 2.297 . S
O60 C62 1.247 . S
O61 Cd57 2.439 . S
O61 C62 1.208 . S
C62 O60 1.247 . S
C62 O61 1.208 . S
C63 O68 1.247 . S
C63 O69 1.208 . S
C64 O56 1.315 . S
C64 O59 1.279 . S
C65 O66 1.315 . S
C65 O67 1.279 . S
O66 Cd58 2.223 . S
O66 C65 1.315 . S
O67 Cd57 2.240 . S
O67 C65 1.279 . S
O68 Cd58 2.297 . S
O68 C63 1.247 . S
O69 Cd58 2.439 . S
O69 C63 1.208 . S
O70 Cd71 2.223 . S
O70 C78 1.315 . S
Cd71 O70 2.223 . S
Cd71 O74 2.297 . S
Cd71 O75 2.439 . S
Cd71 O81 2.240 . S
Cd72 O73 2.240 . S
Cd72 O80 2.223 . S
Cd72 O82 2.297 . S
Cd72 O83 2.439 . S
O73 Cd72 2.240 . S
O73 C78 1.279 . S
O74 Cd71 2.297 . S
O74 C76 1.247 . S
O75 Cd71 2.439 . S
O75 C76 1.208 . S
C76 O74 1.247 . S
C76 O75 1.208 . S
C77 O82 1.247 . S
C77 O83 1.208 . S
C78 O70 1.315 . S
C78 O73 1.279 . S
C79 O80 1.315 . S
C79 O81 1.279 . S
O80 Cd72 2.223 . S
O80 C79 1.315 . S
O81 Cd71 2.240 . S
O81 C79 1.279 . S
O82 Cd72 2.297 . S
O82 C77 1.247 . S
O83 Cd72 2.439 . S
O83 C77 1.208 . S
O84 Cd85 2.223 . S
O84 C92 1.315 . S
Cd85 O84 2.223 . S
Cd85 O88 2.297 . S
Cd85 O89 2.439 . S
Cd85 O95 2.240 . S
Cd86 O87 2.240 . S
Cd86 O94 2.223 . S
Cd86 O96 2.297 . S
Cd86 O97 2.439 . S
O87 Cd86 2.240 . S
O87 C92 1.279 . S
O88 Cd85 2.297 . S
O88 C90 1.247 . S
O89 Cd85 2.439 . S
O89 C90 1.208 . S
C90 O88 1.247 . S
C90 O89 1.208 . S
C91 O96 1.247 . S
C91 O97 1.208 . S
C92 O84 1.315 . S
C92 O87 1.279 . S
C93 O94 1.315 . S
C93 O95 1.279 . S
O94 Cd86 2.223 . S
O94 C93 1.315 . S
O95 Cd85 2.240 . S
O95 C93 1.279 . S
O96 Cd86 2.297 . S
O96 C91 1.247 . S
O97 Cd86 2.439 . S
O97 C91 1.208 . S
O98 Cd99 2.223 . S
O98 C106 1.315 . S
Cd99 O98 2.223 . S
Cd99 O102 2.297 . S
Cd99 O103 2.439 . S
Cd99 O109 2.240 . S
Cd100 O101 2.240 . S
Cd100 O108 2.223 . S
Cd100 O110 2.297 . S
Cd100 O111 2.439 . S
O101 Cd100 2.240 . S
O101 C106 1.279 . S
O102 Cd99 2.297 . S
O102 C104 1.247 . S
O103 Cd99 2.439 . S
O103 C104 1.208 . S
C104 O102 1.247 . S
C104 O103 1.208 . S
C105 O110 1.247 . S
C105 O111 1.208 . S
C106 O98 1.315 . S
C106 O101 1.279 . S
C107 O108 1.315 . S
C107 O109 1.279 . S
O108 Cd100 2.223 . S
O108 C107 1.315 . S
O109 Cd99 2.240 . S
O109 C107 1.279 . S
O110 Cd100 2.297 . S
O110 C105 1.247 . S
O111 Cd100 2.439 . S
O111 C105 1.208 . S
O112 Cd113 2.223 . S
O112 C120 1.315 . S
Cd113 O112 2.223 . S
Cd113 O116 2.297 . S
Cd113 O117 2.439 . S
Cd113 O123 2.240 . S
Cd114 O115 2.240 . S
Cd114 O122 2.223 . S
Cd114 O124 2.297 . S
Cd114 O125 2.439 . S
O115 Cd114 2.240 . S
O115 C120 1.279 . S
O116 Cd113 2.297 . S
O116 C118 1.247 . S
O117 Cd113 2.439 . S
O117 C118 1.208 . S
C118 O116 1.247 . S
C118 O117 1.208 . S
C119 O124 1.247 . S
C119 O125 1.208 . S
C120 O112 1.315 . S
C120 O115 1.279 . S
C121 O122 1.315 . S
C121 O123 1.279 . S
O122 Cd114 2.223 . S
O122 C121 1.315 . S
O123 Cd113 2.240 . S
O123 C121 1.279 . S
O124 Cd114 2.297 . S
O124 C119 1.247 . S
O125 Cd114 2.439 . S
O125 C119 1.208 . S
O126 Cd127 2.223 . S
O126 C134 1.315 . S
Cd127 O126 2.223 . S
Cd127 O130 2.297 . S
Cd127 O131 2.439 . S
Cd127 O137 2.240 . S
Cd128 O129 2.240 . S
Cd128 O136 2.223 . S
Cd128 O138 2.297 . S
Cd128 O139 2.439 . S
O129 Cd128 2.240 . S
O129 C134 1.279 . S
O130 Cd127 2.297 . S
O130 C132 1.247 . S
O131 Cd127 2.439 . S
O131 C132 1.208 . S
C132 O130 1.247 . S
C132 O131 1.208 . S
C133 O138 1.247 . S
C133 O139 1.208 . S
C134 O126 1.315 . S
C134 O129 1.279 . S
C135 O136 1.315 . S
C135 O137 1.279 . S
O136 Cd128 2.223 . S
O136 C135 1.315 . S
O137 Cd127 2.240 . S
O137 C135 1.279 . S
O138 Cd128 2.297 . S
O138 C133 1.247 . S
O139 Cd128 2.439 . S
O139 C133 1.208 . S
O140 Cd141 2.223 . S
O140 C148 1.315 . S
Cd141 O140 2.223 . S
Cd141 O144 2.297 . S
Cd141 O145 2.439 . S
Cd141 O151 2.240 . S
Cd142 O143 2.240 . S
Cd142 O150 2.223 . S
Cd142 O152 2.297 . S
Cd142 O153 2.439 . S
O143 Cd142 2.240 . S
O143 C148 1.279 . S
O144 Cd141 2.297 . S
O144 C146 1.247 . S
O145 Cd141 2.439 . S
O145 C146 1.208 . S
C146 O144 1.247 . S
C146 O145 1.208 . S
C147 O152 1.247 . S
C147 O153 1.208 . S
C148 O140 1.315 . S
C148 O143 1.279 . S
C149 O150 1.315 . S
C149 O151 1.279 . S
O150 Cd142 2.223 . S
O150 C149 1.315 . S
O151 Cd141 2.240 . S
O151 C149 1.279 . S
O152 Cd142 2.297 . S
O152 C147 1.247 . S
O153 Cd142 2.439 . S
O153 C147 1.208 . S
O154 Cd155 2.223 . S
O154 C162 1.315 . S
Cd155 O154 2.223 . S
Cd155 O158 2.297 . S
Cd155 O159 2.439 . S
Cd155 O165 2.240 . S
Cd156 O157 2.240 . S
Cd156 O164 2.223 . S
Cd156 O166 2.297 . S
Cd156 O167 2.439 . S
O157 Cd156 2.240 . S
O157 C162 1.279 . S
O158 Cd155 2.297 . S
O158 C160 1.247 . S
O159 Cd155 2.439 . S
O159 C160 1.208 . S
C160 O158 1.247 . S
C160 O159 1.208 . S
C161 O166 1.247 . S
C161 O167 1.208 . S
C162 O154 1.315 . S
C162 O157 1.279 . S
C163 O164 1.315 . S
C163 O165 1.279 . S
O164 Cd156 2.223 . S
O164 C163 1.315 . S
O165 Cd155 2.240 . S
O165 C163 1.279 . S
O166 Cd156 2.297 . S
O166 C161 1.247 . S
O167 Cd156 2.439 . S
O167 C161 1.208 . S
O168 Cd169 2.223 . S
O168 C176 1.315 . S
Cd169 O168 2.223 . S
Cd169 O172 2.297 . S
Cd169 O173 2.439 . S
Cd169 O179 2.240 . S
Cd170 O171 2.240 . S
Cd170 O178 2.223 . S
Cd170 O180 2.297 . S
Cd170 O181 2.439 . S
O171 Cd170 2.240 . S
O171 C176 1.279 . S
O172 Cd169 2.297 . S
O172 C174 1.247 . S
O173 Cd169 2.439 . S
O173 C174 1.208 . S
C174 O172 1.247 . S
C174 O173 1.208 . S
C175 O180 1.247 . S
C175 O181 1.208 . S
C176 O168 1.315 . S
C176 O171 1.279 . S
C177 O178 1.315 . S
C177 O179 1.279 . S
O178 Cd170 2.223 . S
O178 C177 1.315 . S
O179 Cd169 2.240 . S
O179 C177 1.279 . S
O180 Cd170 2.297 . S
O180 C175 1.247 . S
O181 Cd170 2.439 . S
O181 C175 1.208 . S
O182 Cd183 2.223 . S
O182 C190 1.315 . S
Cd183 O182 2.223 . S
Cd183 O186 2.297 . S
Cd183 O187 2.439 . S
Cd183 O193 2.240 . S
Cd184 O185 2.240 . S
Cd184 O192 2.223 . S
Cd184 O194 2.297 . S
Cd184 O195 2.439 . S
O185 Cd184 2.240 . S
O185 C190 1.279 . S
O186 Cd183 2.297 . S
O186 C188 1.247 . S
O187 Cd183 2.439 . S
O187 C188 1.208 . S
C188 O186 1.247 . S
C188 O187 1.208 . S
C189 O194 1.247 . S
C189 O195 1.208 . S
C190 O182 1.315 . S
C190 O185 1.279 . S
C191 O192 1.315 . S
C191 O193 1.279 . S
O192 Cd184 2.223 . S
O192 C191 1.315 . S
O193 Cd183 2.240 . S
O193 C191 1.279 . S
O194 Cd184 2.297 . S
O194 C189 1.247 . S
O195 Cd184 2.439 . S
O195 C189 1.208 . S
O196 Cd197 2.223 . S
O196 C204 1.315 . S
Cd197 O196 2.223 . S
Cd197 O200 2.297 . S
Cd197 O201 2.439 . S
Cd197 O207 2.240 . S
Cd198 O199 2.240 . S
Cd198 O206 2.223 . S
Cd198 O208 2.297 . S
Cd198 O209 2.439 . S
O199 Cd198 2.240 . S
O199 C204 1.279 . S
O200 Cd197 2.297 . S
O200 C202 1.247 . S
O201 Cd197 2.439 . S
O201 C202 1.208 . S
C202 O200 1.247 . S
C202 O201 1.208 . S
C203 O208 1.247 . S
C203 O209 1.208 . S
C204 O196 1.315 . S
C204 O199 1.279 . S
C205 O206 1.315 . S
C205 O207 1.279 . S
O206 Cd198 2.223 . S
O206 C205 1.315 . S
O207 Cd197 2.240 . S
O207 C205 1.279 . S
O208 Cd198 2.297 . S
O208 C203 1.247 . S
O209 Cd198 2.439 . S
O209 C203 1.208 . S
O210 Cd211 2.223 . S
O210 C218 1.315 . S
Cd211 O210 2.223 . S
Cd211 O214 2.297 . S
Cd211 O215 2.439 . S
Cd211 O221 2.240 . S
Cd212 O213 2.240 . S
Cd212 O220 2.223 . S
Cd212 O222 2.297 . S
Cd212 O223 2.439 . S
O213 Cd212 2.240 . S
O213 C218 1.279 . S
O214 Cd211 2.297 . S
O214 C216 1.247 . S
O215 Cd211 2.439 . S
O215 C216 1.208 . S
C216 O214 1.247 . S
C216 O215 1.208 . S
C217 O222 1.247 . S
C217 O223 1.208 . S
C218 O210 1.315 . S
C218 O213 1.279 . S
C219 O220 1.315 . S
C219 O221 1.279 . S
O220 Cd212 2.223 . S
O220 C219 1.315 . S
O221 Cd211 2.240 . S
O221 C219 1.279 . S
O222 Cd212 2.297 . S
O222 C217 1.247 . S
O223 Cd212 2.439 . S
O223 C217 1.208 . S
H224 C230 0.930 . S
H225 C234 0.930 . S
H226 C239 0.929 . S
H227 C237 0.929 . S
H228 C232 0.929 . S
H229 C238 0.929 . S
C230 H224 0.930 . S
C230 C231 1.367 . S
C230 C238 1.378 . S
C231 C230 1.367 . S
C231 C239 1.433 . S
C232 H228 0.929 . S
C232 C234 1.378 . S
C232 C236 1.350 . S
C233 C236 1.463 . S
C233 C238 1.350 . S
C233 N241 1.427 . S
C234 H225 0.930 . S
C234 C232 1.378 . S
C234 C235 1.367 . S
C235 C234 1.367 . S
C235 C237 1.433 . S
C236 C232 1.350 . S
C236 C233 1.463 . S
C236 N240 1.427 . S
C237 H227 0.929 . S
C237 C235 1.433 . S
C237 N240 1.384 . S
C238 H229 0.929 . S
C238 C230 1.378 . S
C238 C233 1.350 . S
C239 H226 0.929 . S
C239 C231 1.433 . S
C239 N241 1.384 . S
N240 C236 1.427 . S
N240 C237 1.384 . S
N241 C233 1.427 . S
N241 C239 1.384 . S
H242 C248 0.930 . S
H243 C252 0.930 . S
H244 C257 0.929 . S
H245 C255 0.929 . S
H246 C250 0.929 . S
H247 C256 0.929 . S
C248 H242 0.930 . S
C248 C249 1.367 . S
C248 C256 1.378 . S
C249 C248 1.367 . S
C249 C257 1.433 . S
C250 H246 0.929 . S
C250 C252 1.378 . S
C250 C254 1.350 . S
C251 C254 1.463 . S
C251 C256 1.350 . S
C251 N259 1.427 . S
C252 H243 0.930 . S
C252 C250 1.378 . S
C252 C253 1.367 . S
C253 C252 1.367 . S
C253 C255 1.433 . S
C254 C250 1.350 . S
C254 C251 1.463 . S
C254 N258 1.427 . S
C255 H245 0.929 . S
C255 C253 1.433 . S
C255 N258 1.384 . S
C256 H247 0.929 . S
C256 C248 1.378 . S
C256 C251 1.350 . S
C257 H244 0.929 . S
C257 C249 1.433 . S
C257 N259 1.384 . S
N258 C254 1.427 . S
N258 C255 1.384 . S
N259 C251 1.427 . S
N259 C257 1.384 . S
H260 C266 0.930 . S
H261 C270 0.930 . S
H262 C275 0.929 . S
H263 C273 0.929 . S
H264 C268 0.929 . S
H265 C274 0.929 . S
C266 H260 0.930 . S
C266 C267 1.367 . S
C266 C274 1.378 . S
C267 C266 1.367 . S
C267 C275 1.433 . S
C268 H264 0.929 . S
C268 C270 1.378 . S
C268 C272 1.350 . S
C269 C272 1.463 . S
C269 C274 1.350 . S
C269 N277 1.427 . S
C270 H261 0.930 . S
C270 C268 1.378 . S
C270 C271 1.367 . S
C271 C270 1.367 . S
C271 C273 1.433 . S
C272 C268 1.350 . S
C272 C269 1.463 . S
C272 N276 1.427 . S
C273 H263 0.929 . S
C273 C271 1.433 . S
C273 N276 1.384 . S
C274 H265 0.929 . S
C274 C266 1.378 . S
C274 C269 1.350 . S
C275 H262 0.929 . S
C275 C267 1.433 . S
C275 N277 1.384 . S
N276 C272 1.427 . S
N276 C273 1.384 . S
N277 C269 1.427 . S
N277 C275 1.384 . S
H278 C284 0.930 . S
H279 C288 0.930 . S
H280 C293 0.929 . S
H281 C291 0.929 . S
H282 C286 0.929 . S
H283 C292 0.929 . S
C284 H278 0.930 . S
C284 C285 1.367 . S
C284 C292 1.378 . S
C285 C284 1.367 . S
C285 C293 1.433 . S
C286 H282 0.929 . S
C286 C288 1.378 . S
C286 C290 1.350 . S
C287 C290 1.463 1_455 S
C287 C292 1.350 . S
C287 N295 1.427 . S
C288 H279 0.930 . S
C288 C286 1.378 . S
C288 C289 1.367 . S
C289 C288 1.367 . S
C289 C291 1.433 . S
C290 C286 1.350 . S
C290 C287 1.463 1_655 S
C290 N294 1.427 . S
C291 H281 0.929 . S
C291 C289 1.433 . S
C291 N294 1.384 . S
C292 H283 0.929 . S
C292 C284 1.378 . S
C292 C287 1.350 . S
C293 H280 0.929 . S
C293 C285 1.433 . S
C293 N295 1.384 . S
N294 C290 1.427 . S
N294 C291 1.384 . S
N295 C287 1.427 . S
N295 C293 1.384 . S
H296 C302 0.930 . S
H297 C306 0.930 . S
H298 C311 0.929 . S
H299 C309 0.929 . S
H300 C304 0.929 . S
H301 C310 0.929 . S
C302 H296 0.930 . S
C302 C303 1.367 . S
C302 C310 1.378 . S
C303 C302 1.367 . S
C303 C311 1.433 . S
C304 H300 0.929 . S
C304 C306 1.378 . S
C304 C308 1.350 . S
C305 C308 1.463 . S
C305 C310 1.350 . S
C305 N313 1.427 . S
C306 H297 0.930 . S
C306 C304 1.378 . S
C306 C307 1.367 . S
C307 C306 1.367 . S
C307 C309 1.433 . S
C308 C304 1.350 . S
C308 C305 1.463 . S
C308 N312 1.427 . S
C309 H299 0.929 . S
C309 C307 1.433 . S
C309 N312 1.384 . S
C310 H301 0.929 . S
C310 C302 1.378 . S
C310 C305 1.350 . S
C311 H298 0.929 . S
C311 C303 1.433 . S
C311 N313 1.384 . S
N312 C308 1.427 . S
N312 C309 1.384 . S
N313 C305 1.427 . S
N313 C311 1.384 . S
H314 C320 0.930 . S
H315 C324 0.930 . S
H316 C329 0.929 . S
H317 C327 0.929 . S
H318 C322 0.929 . S
H319 C328 0.929 . S
C320 H314 0.930 . S
C320 C321 1.367 . S
C320 C328 1.378 . S
C321 C320 1.367 . S
C321 C329 1.433 . S
C322 H318 0.929 . S
C322 C324 1.378 . S
C322 C326 1.350 . S
C323 C326 1.463 1_655 S
C323 C328 1.350 . S
C323 N331 1.427 . S
C324 H315 0.930 . S
C324 C322 1.378 . S
C324 C325 1.367 . S
C325 C324 1.367 . S
C325 C327 1.433 . S
C326 C322 1.350 . S
C326 C323 1.463 1_455 S
C326 N330 1.427 . S
C327 H317 0.929 . S
C327 C325 1.433 . S
C327 N330 1.384 . S
C328 H319 0.929 . S
C328 C320 1.378 . S
C328 C323 1.350 . S
C329 H316 0.929 . S
C329 C321 1.433 . S
C329 N331 1.384 . S
N330 C326 1.427 . S
N330 C327 1.384 . S
N331 C323 1.427 . S
N331 C329 1.384 . S
H332 C338 0.930 . S
H333 C342 0.930 . S
H334 C347 0.929 . S
H335 C345 0.929 . S
H336 C340 0.929 . S
H337 C346 0.929 . S
C338 H332 0.930 . S
C338 C339 1.367 . S
C338 C346 1.378 . S
C339 C338 1.367 . S
C339 C347 1.433 . S
C340 H336 0.929 . S
C340 C342 1.378 . S
C340 C344 1.350 . S
C341 C344 1.463 . S
C341 C346 1.350 . S
C341 N349 1.427 . S
C342 H333 0.930 . S
C342 C340 1.378 . S
C342 C343 1.367 . S
C343 C342 1.367 . S
C343 C345 1.433 . S
C344 C340 1.350 . S
C344 C341 1.463 . S
C344 N348 1.427 . S
C345 H335 0.929 . S
C345 C343 1.433 . S
C345 N348 1.384 . S
C346 H337 0.929 . S
C346 C338 1.378 . S
C346 C341 1.350 . S
C347 H334 0.929 . S
C347 C339 1.433 . S
C347 N349 1.384 . S
N348 C344 1.427 . S
N348 C345 1.384 . S
N349 C341 1.427 . S
N349 C347 1.384 . S
H350 C356 0.930 . S
H351 C360 0.930 . S
H352 C365 0.929 . S
H353 C363 0.929 . S
H354 C358 0.929 . S
H355 C364 0.929 . S
C356 H350 0.930 . S
C356 C357 1.367 . S
C356 C364 1.378 . S
C357 C356 1.367 . S
C357 C365 1.433 . S
C358 H354 0.929 . S
C358 C360 1.378 . S
C358 C362 1.350 . S
C359 C362 1.463 . S
C359 C364 1.350 . S
C359 N367 1.427 . S
C360 H351 0.930 . S
C360 C358 1.378 . S
C360 C361 1.367 . S
C361 C360 1.367 . S
C361 C363 1.433 . S
C362 C358 1.350 . S
C362 C359 1.463 . S
C362 N366 1.427 . S
C363 H353 0.929 . S
C363 C361 1.433 . S
C363 N366 1.384 . S
C364 H355 0.929 . S
C364 C356 1.378 . S
C364 C359 1.350 . S
C365 H352 0.929 . S
C365 C357 1.433 . S
C365 N367 1.384 . S
N366 C362 1.427 . S
N366 C363 1.384 . S
N367 C359 1.427 . S
N367 C365 1.384 . S
H368 C374 0.930 . S
H369 C378 0.930 . S
H370 C383 0.929 . S
H371 C381 0.929 . S
H372 C376 0.929 . S
H373 C382 0.929 . S
C374 H368 0.930 . S
C374 C375 1.367 . S
C374 C382 1.378 . S
C375 C374 1.367 . S
C375 C383 1.433 . S
C376 H372 0.929 . S
C376 C378 1.378 . S
C376 C380 1.350 . S
C377 C380 1.463 . S
C377 C382 1.350 . S
C377 N385 1.427 . S
C378 H369 0.930 . S
C378 C376 1.378 . S
C378 C379 1.367 . S
C379 C378 1.367 . S
C379 C381 1.433 . S
C380 C376 1.350 . S
C380 C377 1.463 . S
C380 N384 1.427 . S
C381 H371 0.929 . S
C381 C379 1.433 . S
C381 N384 1.384 . S
C382 H373 0.929 . S
C382 C374 1.378 . S
C382 C377 1.350 . S
C383 H370 0.929 . S
C383 C375 1.433 . S
C383 N385 1.384 . S
N384 C380 1.427 . S
N384 C381 1.384 . S
N385 C377 1.427 . S
N385 C383 1.384 . S
H386 C392 0.930 . S
H387 C396 0.930 . S
H388 C401 0.929 . S
H389 C399 0.929 . S
H390 C394 0.929 . S
H391 C400 0.929 . S
C392 H386 0.930 . S
C392 C393 1.367 . S
C392 C400 1.378 . S
C393 C392 1.367 . S
C393 C401 1.433 . S
C394 H390 0.929 . S
C394 C396 1.378 . S
C394 C398 1.350 . S
C395 C398 1.463 . S
C395 C400 1.350 . S
C395 N403 1.427 . S
C396 H387 0.930 . S
C396 C394 1.378 . S
C396 C397 1.367 . S
C397 C396 1.367 . S
C397 C399 1.433 . S
C398 C394 1.350 . S
C398 C395 1.463 . S
C398 N402 1.427 . S
C399 H389 0.929 . S
C399 C397 1.433 . S
C399 N402 1.384 . S
C400 H391 0.929 . S
C400 C392 1.378 . S
C400 C395 1.350 . S
C401 H388 0.929 . S
C401 C393 1.433 . S
C401 N403 1.384 . S
N402 C398 1.427 . S
N402 C399 1.384 . S
N403 C395 1.427 . S
N403 C401 1.384 . S
H404 C410 0.930 . S
H405 C414 0.930 . S
H406 C419 0.929 . S
H407 C417 0.929 . S
H408 C412 0.929 . S
H409 C418 0.929 . S
C410 H404 0.930 . S
C410 C411 1.367 . S
C410 C418 1.378 . S
C411 C410 1.367 . S
C411 C419 1.433 . S
C412 H408 0.929 . S
C412 C414 1.378 . S
C412 C416 1.350 . S
C413 C416 1.463 . S
C413 C418 1.350 . S
C413 N421 1.427 . S
C414 H405 0.930 . S
C414 C412 1.378 . S
C414 C415 1.367 . S
C415 C414 1.367 . S
C415 C417 1.433 . S
C416 C412 1.350 . S
C416 C413 1.463 . S
C416 N420 1.427 . S
C417 H407 0.929 . S
C417 C415 1.433 . S
C417 N420 1.384 . S
C418 H409 0.929 . S
C418 C410 1.378 . S
C418 C413 1.350 . S
C419 H406 0.929 . S
C419 C411 1.433 . S
C419 N421 1.384 . S
N420 C416 1.427 . S
N420 C417 1.384 . S
N421 C413 1.427 . S
N421 C419 1.384 . S
H422 C428 0.930 . S
H423 C432 0.930 . S
H424 C437 0.929 . S
H425 C435 0.929 . S
H426 C430 0.929 . S
H427 C436 0.929 . S
C428 H422 0.930 . S
C428 C429 1.367 . S
C428 C436 1.378 . S
C429 C428 1.367 . S
C429 C437 1.433 . S
C430 H426 0.929 . S
C430 C432 1.378 . S
C430 C434 1.350 . S
C431 C434 1.463 . S
C431 C436 1.350 . S
C431 N439 1.427 . S
C432 H423 0.930 . S
C432 C430 1.378 . S
C432 C433 1.367 . S
C433 C432 1.367 . S
C433 C435 1.433 . S
C434 C430 1.350 . S
C434 C431 1.463 . S
C434 N438 1.427 . S
C435 H425 0.929 . S
C435 C433 1.433 . S
C435 N438 1.384 . S
C436 H427 0.929 . S
C436 C428 1.378 . S
C436 C431 1.350 . S
C437 H424 0.929 . S
C437 C429 1.433 . S
C437 N439 1.384 . S
N438 C434 1.427 . S
N438 C435 1.384 . S
N439 C431 1.427 . S
N439 C437 1.384 . S
H440 C446 0.930 . S
H441 C450 0.930 . S
H442 C455 0.929 . S
H443 C453 0.929 . S
H444 C448 0.929 . S
H445 C454 0.929 . S
C446 H440 0.930 . S
C446 C447 1.367 . S
C446 C454 1.378 . S
C447 C446 1.367 . S
C447 C455 1.433 . S
C448 H444 0.929 . S
C448 C450 1.378 . S
C448 C452 1.350 . S
C449 C452 1.463 1_455 S
C449 C454 1.350 . S
C449 N457 1.427 . S
C450 H441 0.930 . S
C450 C448 1.378 . S
C450 C451 1.367 . S
C451 C450 1.367 . S
C451 C453 1.433 . S
C452 C448 1.350 . S
C452 C449 1.463 1_655 S
C452 N456 1.427 . S
C453 H443 0.929 . S
C453 C451 1.433 . S
C453 N456 1.384 . S
C454 H445 0.929 . S
C454 C446 1.378 . S
C454 C449 1.350 . S
C455 H442 0.929 . S
C455 C447 1.433 . S
C455 N457 1.384 . S
N456 C452 1.427 . S
N456 C453 1.384 . S
N457 C449 1.427 . S
N457 C455 1.384 . S
H458 C464 0.930 . S
H459 C468 0.930 . S
H460 C473 0.929 . S
H461 C471 0.929 . S
H462 C466 0.929 . S
H463 C472 0.929 . S
C464 H458 0.930 . S
C464 C465 1.367 . S
C464 C472 1.378 . S
C465 C464 1.367 . S
C465 C473 1.433 . S
C466 H462 0.929 . S
C466 C468 1.378 . S
C466 C470 1.350 . S
C467 C470 1.463 . S
C467 C472 1.350 . S
C467 N475 1.427 . S
C468 H459 0.930 . S
C468 C466 1.378 . S
C468 C469 1.367 . S
C469 C468 1.367 . S
C469 C471 1.433 . S
C470 C466 1.350 . S
C470 C467 1.463 . S
C470 N474 1.427 . S
C471 H461 0.929 . S
C471 C469 1.433 . S
C471 N474 1.384 . S
C472 H463 0.929 . S
C472 C464 1.378 . S
C472 C467 1.350 . S
C473 H460 0.929 . S
C473 C465 1.433 . S
C473 N475 1.384 . S
N474 C470 1.427 . S
N474 C471 1.384 . S
N475 C467 1.427 . S
N475 C473 1.384 . S
H476 C482 0.930 . S
H477 C486 0.930 . S
H478 C491 0.929 . S
H479 C489 0.929 . S
H480 C484 0.929 . S
H481 C490 0.929 . S
C482 H476 0.930 . S
C482 C483 1.367 . S
C482 C490 1.378 . S
C483 C482 1.367 . S
C483 C491 1.433 . S
C484 H480 0.929 . S
C484 C486 1.378 . S
C484 C488 1.350 . S
C485 C488 1.463 . S
C485 C490 1.350 . S
C485 N493 1.427 . S
C486 H477 0.930 . S
C486 C484 1.378 . S
C486 C487 1.367 . S
C487 C486 1.367 . S
C487 C489 1.433 . S
C488 C484 1.350 . S
C488 C485 1.463 . S
C488 N492 1.427 . S
C489 H479 0.929 . S
C489 C487 1.433 . S
C489 N492 1.384 . S
C490 H481 0.929 . S
C490 C482 1.378 . S
C490 C485 1.350 . S
C491 H478 0.929 . S
C491 C483 1.433 . S
C491 N493 1.384 . S
N492 C488 1.427 . S
N492 C489 1.384 . S
N493 C485 1.427 . S
N493 C491 1.384 . S
H494 C500 0.930 . S
H495 C504 0.930 . S
H496 C509 0.929 . S
H497 C507 0.929 . S
H498 C502 0.929 . S
H499 C508 0.929 . S
C500 H494 0.930 . S
C500 C501 1.367 . S
C500 C508 1.378 . S
C501 C500 1.367 . S
C501 C509 1.433 . S
C502 H498 0.929 . S
C502 C504 1.378 . S
C502 C506 1.350 . S
C503 C506 1.463 1_455 S
C503 C508 1.350 . S
C503 N511 1.427 . S
C504 H495 0.930 . S
C504 C502 1.378 . S
C504 C505 1.367 . S
C505 C504 1.367 . S
C505 C507 1.433 . S
C506 C502 1.350 . S
C506 C503 1.463 1_655 S
C506 N510 1.427 . S
C507 H497 0.929 . S
C507 C505 1.433 . S
C507 N510 1.384 . S
C508 H499 0.929 . S
C508 C500 1.378 . S
C508 C503 1.350 . S
C509 H496 0.929 . S
C509 C501 1.433 . S
C509 N511 1.384 . S
N510 C506 1.427 . S
N510 C507 1.384 . S
N511 C503 1.427 . S
N511 C509 1.384 . S
H512 C518 0.930 . S
H513 C522 0.930 . S
H514 C527 0.929 . S
H515 C525 0.929 . S
H516 C520 0.929 . S
H517 C526 0.929 . S
C518 H512 0.930 . S
C518 C519 1.367 . S
C518 C526 1.378 . S
C519 C518 1.367 . S
C519 C527 1.433 . S
C520 H516 0.929 . S
C520 C522 1.378 . S
C520 C524 1.350 . S
C521 C524 1.463 1_554 S
C521 C526 1.350 . S
C521 N529 1.427 . S
C522 H513 0.930 . S
C522 C520 1.378 . S
C522 C523 1.367 . S
C523 C522 1.367 . S
C523 C525 1.433 . S
C524 C520 1.350 . S
C524 C521 1.463 1_556 S
C524 N528 1.427 . S
C525 H515 0.929 . S
C525 C523 1.433 . S
C525 N528 1.384 . S
C526 H517 0.929 . S
C526 C518 1.378 . S
C526 C521 1.350 . S
C527 H514 0.929 . S
C527 C519 1.433 . S
C527 N529 1.384 . S
N528 C524 1.427 . S
N528 C525 1.384 . S
N529 C521 1.427 . S
N529 C527 1.384 . S
H530 C536 0.930 . S
H531 C540 0.930 . S
H532 C545 0.929 . S
H533 C543 0.929 . S
H534 C538 0.929 . S
H535 C544 0.929 . S
C536 H530 0.930 . S
C536 C537 1.367 . S
C536 C544 1.378 . S
C537 C536 1.367 . S
C537 C545 1.433 . S
C538 H534 0.929 . S
C538 C540 1.378 . S
C538 C542 1.350 . S
C539 C542 1.463 . S
C539 C544 1.350 . S
C539 N547 1.427 . S
C540 H531 0.930 . S
C540 C538 1.378 . S
C540 C541 1.367 . S
C541 C540 1.367 . S
C541 C543 1.433 . S
C542 C538 1.350 . S
C542 C539 1.463 . S
C542 N546 1.427 . S
C543 H533 0.929 . S
C543 C541 1.433 . S
C543 N546 1.384 . S
C544 H535 0.929 . S
C544 C536 1.378 . S
C544 C539 1.350 . S
C545 H532 0.929 . S
C545 C537 1.433 . S
C545 N547 1.384 . S
N546 C542 1.427 . S
N546 C543 1.384 . S
N547 C539 1.427 . S
N547 C545 1.384 . S
H548 C554 0.930 . S
H549 C558 0.930 . S
H550 C563 0.929 . S
H551 C561 0.929 . S
H552 C556 0.929 . S
H553 C562 0.929 . S
C554 H548 0.930 . S
C554 C555 1.367 . S
C554 C562 1.378 . S
C555 C554 1.367 . S
C555 C563 1.433 . S
C556 H552 0.929 . S
C556 C558 1.378 . S
C556 C560 1.350 . S
C557 C560 1.463 . S
C557 C562 1.350 . S
C557 N565 1.427 . S
C558 H549 0.930 . S
C558 C556 1.378 . S
C558 C559 1.367 . S
C559 C558 1.367 . S
C559 C561 1.433 . S
C560 C556 1.350 . S
C560 C557 1.463 . S
C560 N564 1.427 . S
C561 H551 0.929 . S
C561 C559 1.433 . S
C561 N564 1.384 . S
C562 H553 0.929 . S
C562 C554 1.378 . S
C562 C557 1.350 . S
C563 H550 0.929 . S
C563 C555 1.433 . S
C563 N565 1.384 . S
N564 C560 1.427 . S
N564 C561 1.384 . S
N565 C557 1.427 . S
N565 C563 1.384 . S
H566 C572 0.930 . S
H567 C576 0.930 . S
H568 C581 0.929 . S
H569 C579 0.929 . S
H570 C574 0.929 . S
H571 C580 0.929 . S
C572 H566 0.930 . S
C572 C573 1.367 . S
C572 C580 1.378 . S
C573 C572 1.367 . S
C573 C581 1.433 . S
C574 H570 0.929 . S
C574 C576 1.378 . S
C574 C578 1.350 . S
C575 C578 1.463 . S
C575 C580 1.350 . S
C575 N583 1.427 . S
C576 H567 0.930 . S
C576 C574 1.378 . S
C576 C577 1.367 . S
C577 C576 1.367 . S
C577 C579 1.433 . S
C578 C574 1.350 . S
C578 C575 1.463 . S
C578 N582 1.427 . S
C579 H569 0.929 . S
C579 C577 1.433 . S
C579 N582 1.384 . S
C580 H571 0.929 . S
C580 C572 1.378 . S
C580 C575 1.350 . S
C581 H568 0.929 . S
C581 C573 1.433 . S
C581 N583 1.384 . S
N582 C578 1.427 . S
N582 C579 1.384 . S
N583 C575 1.427 . S
N583 C581 1.384 . S
H584 C590 0.930 . S
H585 C594 0.930 . S
H586 C599 0.929 . S
H587 C597 0.929 . S
H588 C592 0.929 . S
H589 C598 0.929 . S
C590 H584 0.930 . S
C590 C591 1.367 . S
C590 C598 1.378 . S
C591 C590 1.367 . S
C591 C599 1.433 . S
C592 H588 0.929 . S
C592 C594 1.378 . S
C592 C596 1.350 . S
C593 C596 1.463 1_556 S
C593 C598 1.350 . S
C593 N601 1.427 1_556 S
C594 H585 0.930 . S
C594 C592 1.378 . S
C594 C595 1.367 . S
C595 C594 1.367 . S
C595 C597 1.433 . S
C596 C592 1.350 . S
C596 C593 1.463 1_554 S
C596 N600 1.427 1_554 S
C597 H587 0.929 . S
C597 C595 1.433 . S
C597 N600 1.384 1_554 S
C598 H589 0.929 . S
C598 C590 1.378 . S
C598 C593 1.350 . S
C599 H586 0.929 . S
C599 C591 1.433 . S
C599 N601 1.384 1_556 S
N600 C596 1.427 1_556 S
N600 C597 1.384 1_556 S
N601 C593 1.427 1_554 S
N601 C599 1.384 1_554 S
H602 C608 0.930 . S
H603 C612 0.930 . S
H604 C617 0.929 . S
H605 C615 0.929 . S
H606 C610 0.929 . S
H607 C616 0.929 . S
C608 H602 0.930 . S
C608 C609 1.367 . S
C608 C616 1.378 . S
C609 C608 1.367 . S
C609 C617 1.433 . S
C610 H606 0.929 . S
C610 C612 1.378 . S
C610 C614 1.350 . S
C611 C614 1.463 . S
C611 C616 1.350 . S
C611 N619 1.427 . S
C612 H603 0.930 . S
C612 C610 1.378 . S
C612 C613 1.367 . S
C613 C612 1.367 . S
C613 C615 1.433 . S
C614 C610 1.350 . S
C614 C611 1.463 . S
C614 N618 1.427 . S
C615 H605 0.929 . S
C615 C613 1.433 . S
C615 N618 1.384 . S
C616 H607 0.929 . S
C616 C608 1.378 . S
C616 C611 1.350 . S
C617 H604 0.929 . S
C617 C609 1.433 . S
C617 N619 1.384 . S
N618 C614 1.427 . S
N618 C615 1.384 . S
N619 C611 1.427 . S
N619 C617 1.384 . S
H620 C626 0.930 . S
H621 C630 0.930 . S
H622 C635 0.929 . S
H623 C633 0.929 . S
H624 C628 0.929 . S
H625 C634 0.929 . S
C626 H620 0.930 . S
C626 C627 1.367 . S
C626 C634 1.378 . S
C627 C626 1.367 . S
C627 C635 1.433 . S
C628 H624 0.929 . S
C628 C630 1.378 . S
C628 C632 1.350 . S
C629 C632 1.463 . S
C629 C634 1.350 . S
C629 N637 1.427 . S
C630 H621 0.930 . S
C630 C628 1.378 . S
C630 C631 1.367 . S
C631 C630 1.367 . S
C631 C633 1.433 . S
C632 C628 1.350 . S
C632 C629 1.463 . S
C632 N636 1.427 . S
C633 H623 0.929 . S
C633 C631 1.433 . S
C633 N636 1.384 . S
C634 H625 0.929 . S
C634 C626 1.378 . S
C634 C629 1.350 . S
C635 H622 0.929 . S
C635 C627 1.433 . S
C635 N637 1.384 . S
N636 C632 1.427 . S
N636 C633 1.384 . S
N637 C629 1.427 . S
N637 C635 1.384 . S
H638 C644 0.930 . S
H639 C648 0.930 . S
H640 C653 0.929 . S
H641 C651 0.929 . S
H642 C646 0.929 . S
H643 C652 0.929 . S
C644 H638 0.930 . S
C644 C645 1.367 . S
C644 C652 1.378 . S
C645 C644 1.367 . S
C645 C653 1.433 . S
C646 H642 0.929 . S
C646 C648 1.378 . S
C646 C650 1.350 . S
C647 C650 1.463 . S
C647 C652 1.350 . S
C647 N655 1.427 . S
C648 H639 0.930 . S
C648 C646 1.378 . S
C648 C649 1.367 . S
C649 C648 1.367 . S
C649 C651 1.433 . S
C650 C646 1.350 . S
C650 C647 1.463 . S
C650 N654 1.427 . S
C651 H641 0.929 . S
C651 C649 1.433 . S
C651 N654 1.384 . S
C652 H643 0.929 . S
C652 C644 1.378 . S
C652 C647 1.350 . S
C653 H640 0.929 . S
C653 C645 1.433 . S
C653 N655 1.384 . S
N654 C650 1.427 . S
N654 C651 1.384 . S
N655 C647 1.427 . S
N655 C653 1.384 . S
H656 C662 0.930 . S
H657 C666 0.930 . S
H658 C671 0.929 . S
H659 C669 0.929 . S
H660 C664 0.929 1_545 S
H661 C670 0.929 1_565 S
C662 H656 0.930 . S
C662 C663 1.367 . S
C662 C670 1.378 . S
C663 C662 1.367 . S
C663 C671 1.433 . S
C664 H660 0.929 1_565 S
C664 C666 1.378 . S
C664 C668 1.350 . S
C665 C668 1.463 1_545 S
C665 C670 1.350 . S
C665 N673 1.427 . S
C666 H657 0.930 . S
C666 C664 1.378 . S
C666 C667 1.367 . S
C667 C666 1.367 . S
C667 C669 1.433 . S
C668 C664 1.350 . S
C668 C665 1.463 1_565 S
C668 N672 1.427 . S
C669 H659 0.929 . S
C669 C667 1.433 . S
C669 N672 1.384 . S
C670 H661 0.929 1_545 S
C670 C662 1.378 . S
C670 C665 1.350 . S
C671 H658 0.929 . S
C671 C663 1.433 . S
C671 N673 1.384 . S
N672 C668 1.427 . S
N672 C669 1.384 . S
N673 C665 1.427 . S
N673 C671 1.384 . S
H674 C680 0.930 . S
H675 C684 0.930 . S
H676 C689 0.929 . S
H677 C687 0.929 . S
H678 C682 0.929 . S
H679 C688 0.929 . S
C680 H674 0.930 . S
C680 C681 1.367 . S
C680 C688 1.378 . S
C681 C680 1.367 . S
C681 C689 1.433 . S
C682 H678 0.929 . S
C682 C684 1.378 . S
C682 C686 1.350 . S
C683 C686 1.463 . S
C683 C688 1.350 . S
C683 N691 1.427 . S
C684 H675 0.930 . S
C684 C682 1.378 . S
C684 C685 1.367 . S
C685 C684 1.367 . S
C685 C687 1.433 . S
C686 C682 1.350 . S
C686 C683 1.463 . S
C686 N690 1.427 . S
C687 H677 0.929 . S
C687 C685 1.433 . S
C687 N690 1.384 . S
C688 H679 0.929 . S
C688 C680 1.378 . S
C688 C683 1.350 . S
C689 H676 0.929 . S
C689 C681 1.433 . S
C689 N691 1.384 . S
N690 C686 1.427 . S
N690 C687 1.384 . S
N691 C683 1.427 . S
N691 C689 1.384 . S
H692 C698 0.930 . S
H693 C702 0.930 . S
H694 C707 0.929 . S
H695 C705 0.929 . S
H696 C700 0.929 1_545 S
H697 C706 0.929 1_565 S
C698 H692 0.930 . S
C698 C699 1.367 . S
C698 C706 1.378 . S
C699 C698 1.367 . S
C699 C707 1.433 . S
C700 H696 0.929 1_565 S
C700 C702 1.378 . S
C700 C704 1.350 . S
C701 C704 1.463 1_546 S
C701 C706 1.350 . S
C701 N709 1.427 . S
C702 H693 0.930 . S
C702 C700 1.378 . S
C702 C703 1.367 . S
C703 C702 1.367 . S
C703 C705 1.433 . S
C704 C700 1.350 . S
C704 C701 1.463 1_564 S
C704 N708 1.427 . S
C705 H695 0.929 . S
C705 C703 1.433 . S
C705 N708 1.384 . S
C706 H697 0.929 1_545 S
C706 C698 1.378 . S
C706 C701 1.350 . S
C707 H694 0.929 . S
C707 C699 1.433 . S
C707 N709 1.384 . S
N708 C704 1.427 . S
N708 C705 1.384 . S
N709 C701 1.427 . S
N709 C707 1.384 . S
H710 C716 0.930 . S
H711 C720 0.930 . S
H712 C725 0.929 . S
H713 C723 0.929 . S
H714 C718 0.929 . S
H715 C724 0.929 . S
C716 H710 0.930 . S
C716 C717 1.367 . S
C716 C724 1.378 . S
C717 C716 1.367 . S
C717 C725 1.433 . S
C718 H714 0.929 . S
C718 C720 1.378 . S
C718 C722 1.350 . S
C719 C722 1.463 . S
C719 C724 1.350 . S
C719 N727 1.427 . S
C720 H711 0.930 . S
C720 C718 1.378 . S
C720 C721 1.367 . S
C721 C720 1.367 . S
C721 C723 1.433 . S
C722 C718 1.350 . S
C722 C719 1.463 . S
C722 N726 1.427 . S
C723 H713 0.929 . S
C723 C721 1.433 . S
C723 N726 1.384 . S
C724 H715 0.929 . S
C724 C716 1.378 . S
C724 C719 1.350 . S
C725 H712 0.929 . S
C725 C717 1.433 . S
C725 N727 1.384 . S
N726 C722 1.427 . S
N726 C723 1.384 . S
N727 C719 1.427 . S
N727 C725 1.384 . S
H728 C734 0.930 . S
H729 C738 0.930 . S
H730 C743 0.929 . S
H731 C741 0.929 . S
H732 C736 0.929 . S
H733 C742 0.929 . S
C734 H728 0.930 . S
C734 C735 1.367 . S
C734 C742 1.378 . S
C735 C734 1.367 . S
C735 C743 1.433 . S
C736 H732 0.929 . S
C736 C738 1.378 . S
C736 C740 1.350 . S
C737 C740 1.463 1_545 S
C737 C742 1.350 . S
C737 N745 1.427 . S
C738 H729 0.930 . S
C738 C736 1.378 . S
C738 C739 1.367 . S
C739 C738 1.367 . S
C739 C741 1.433 . S
C740 C736 1.350 . S
C740 C737 1.463 1_565 S
C740 N744 1.427 . S
C741 H731 0.929 . S
C741 C739 1.433 . S
C741 N744 1.384 . S
C742 H733 0.929 . S
C742 C734 1.378 . S
C742 C737 1.350 . S
C743 H730 0.929 . S
C743 C735 1.433 . S
C743 N745 1.384 . S
N744 C740 1.427 . S
N744 C741 1.384 . S
N745 C737 1.427 . S
N745 C743 1.384 . S
H746 C752 0.930 . S
H747 C756 0.930 . S
H748 C761 0.929 . S
H749 C759 0.929 . S
H750 C754 0.929 . S
H751 C760 0.929 . S
C752 H746 0.930 . S
C752 C753 1.367 . S
C752 C760 1.378 . S
C753 C752 1.367 . S
C753 C761 1.433 . S
C754 H750 0.929 . S
C754 C756 1.378 . S
C754 C758 1.350 . S
C755 C758 1.463 . S
C755 C760 1.350 . S
C755 N763 1.427 . S
C756 H747 0.930 . S
C756 C754 1.378 . S
C756 C757 1.367 . S
C757 C756 1.367 . S
C757 C759 1.433 . S
C758 C754 1.350 . S
C758 C755 1.463 . S
C758 N762 1.427 . S
C759 H749 0.929 . S
C759 C757 1.433 . S
C759 N762 1.384 . S
C760 H751 0.929 . S
C760 C752 1.378 . S
C760 C755 1.350 . S
C761 H748 0.929 . S
C761 C753 1.433 . S
C761 N763 1.384 . S
N762 C758 1.427 . S
N762 C759 1.384 . S
N763 C755 1.427 . S
N763 C761 1.384 . S
H764 C770 0.930 . S
H765 C774 0.930 . S
H766 C779 0.929 . S
H767 C777 0.929 . S
H768 C772 0.929 1_554 S
H769 C778 0.929 1_556 S
C770 H764 0.930 . S
C770 C771 1.367 . S
C770 C778 1.378 . S
C771 C770 1.367 . S
C771 C779 1.433 . S
C772 H768 0.929 1_556 S
C772 C774 1.378 . S
C772 C776 1.350 . S
C773 C776 1.463 1_564 S
C773 C778 1.350 . S
C773 N781 1.427 . S
C774 H765 0.930 . S
C774 C772 1.378 . S
C774 C775 1.367 . S
C775 C774 1.367 . S
C775 C777 1.433 . S
C776 C772 1.350 . S
C776 C773 1.463 1_546 S
C776 N780 1.427 . S
C777 H767 0.929 . S
C777 C775 1.433 . S
C777 N780 1.384 . S
C778 H769 0.929 1_554 S
C778 C770 1.378 . S
C778 C773 1.350 . S
C779 H766 0.929 . S
C779 C771 1.433 . S
C779 N781 1.384 . S
N780 C776 1.427 . S
N780 C777 1.384 . S
N781 C773 1.427 . S
N781 C779 1.384 . S
H782 C788 0.930 . S
H783 C792 0.930 . S
H784 C797 0.929 . S
H785 C795 0.929 . S
H786 C790 0.929 . S
H787 C796 0.929 . S
C788 H782 0.930 . S
C788 C789 1.367 . S
C788 C796 1.378 . S
C789 C788 1.367 . S
C789 C797 1.433 . S
C790 H786 0.929 . S
C790 C792 1.378 . S
C790 C794 1.350 . S
C791 C794 1.463 . S
C791 C796 1.350 . S
C791 N799 1.427 . S
C792 H783 0.930 . S
C792 C790 1.378 . S
C792 C793 1.367 . S
C793 C792 1.367 . S
C793 C795 1.433 . S
C794 C790 1.350 . S
C794 C791 1.463 . S
C794 N798 1.427 . S
C795 H785 0.929 . S
C795 C793 1.433 . S
C795 N798 1.384 . S
C796 H787 0.929 . S
C796 C788 1.378 . S
C796 C791 1.350 . S
C797 H784 0.929 . S
C797 C789 1.433 . S
C797 N799 1.384 . S
N798 C794 1.427 . S
N798 C795 1.384 . S
N799 C791 1.427 . S
N799 C797 1.384 . S
C231 C163 1.423 . S
C235 C8 1.430 . S
C249 C219 1.431 . S
C253 C23 1.423 . S
C267 C36 1.421 . S
C271 C134 1.432 . S
C285 C191 1.426 . S
C289 C50 1.428 . S
C303 C64 1.432 . S
C307 C190 1.422 . S
C321 C79 1.426 . S
C325 C162 1.427 . S
C339 C93 1.431 . S
C343 C218 1.423 . S
C357 C107 1.428 . S
C361 C135 1.425 . S
C375 C51 1.433 . S
C379 C120 1.421 . S
C393 C148 1.431 . S
C397 C22 1.423 . S
C411 C176 1.423 . S
C415 C78 1.430 . S
C429 C205 1.423 . S
C433 C106 1.431 . S
C447 C65 1.432 . S
C451 C121 1.422 . S
C465 C149 1.433 . S
C469 C92 1.421 . S
C483 C204 1.422 . S
C487 C37 1.432 . S
C501 C9 1.423 . S
C505 C177 1.431 . S
C519 C7 1.427 . S
C523 C63 1.430 . S
C537 C20 1.426 . S
C541 C76 1.430 . S
C555 C35 1.421 . S
C559 C90 1.420 . S
C573 C104 1.428 . S
C577 C49 1.424 . S
C591 C119 1.430 . S
C595 C175 1.429 . S
C609 C188 1.428 . S
C613 C132 1.424 . S
C627 C147 1.427 . S
C631 C202 1.423 . S
C645 C216 1.429 . S
C649 C161 1.425 . S
C663 C105 1.426 . S
C667 C21 1.430 . S
C681 C34 1.420 . S
C685 C62 1.421 . S
C699 C48 1.428 . S
C703 C77 1.430 . S
C717 C6 1.430 . S
C721 C91 1.429 . S
C735 C133 1.420 . S
C739 C217 1.421 . S
C753 C174 1.425 . S
C757 C146 1.421 . S
C771 C160 1.422 . S
C775 C189 1.420 . S
C789 C203 1.423 . S
C793 C118 1.427 . S
