# Generated by pormake.
# Topology wfy, (7)-cn, num edge types: 1
# Building blocks:
#     Node 0, Type 0, BuildingBlock: HICVOG_clean_sbu_0, # of connection points: 7
#     Node 1, Type 0, BuildingBlock: HICVOG_clean_sbu_0, # of connection points: 7
#     Node 2, Type 0, BuildingBlock: HICVOG_clean_sbu_0, # of connection points: 7
#     Node 3, Type 0, BuildingBlock: HICVOG_clean_sbu_0, # of connection points: 7
#     Node 4, Type 0, BuildingBlock: HICVOG_clean_sbu_0, # of connection points: 7
#     Node 5, Type 0, BuildingBlock: HICVOG_clean_sbu_0, # of connection points: 7
#     Node 6, Type 0, BuildingBlock: HICVOG_clean_sbu_0, # of connection points: 7
#     Node 7, Type 0, BuildingBlock: HICVOG_clean_sbu_0, # of connection points: 7
#     Edge 8, Type (0, 0), None
#     Edge 9, Type (0, 0), None
#     Edge 10, Type (0, 0), None
#     Edge 11, Type (0, 0), None
#     Edge 12, Type (0, 0), None
#     Edge 13, Type (0, 0), None
#     Edge 14, Type (0, 0), None
#     Edge 15, Type (0, 0), None
#     Edge 16, Type (0, 0), None
#     Edge 17, Type (0, 0), None
#     Edge 18, Type (0, 0), None
#     Edge 19, Type (0, 0), None
#     Edge 20, Type (0, 0), None
#     Edge 21, Type (0, 0), None
#     Edge 22, Type (0, 0), None
#     Edge 23, Type (0, 0), None
#     Edge 24, Type (0, 0), None
#     Edge 25, Type (0, 0), None
#     Edge 26, Type (0, 0), None
#     Edge 27, Type (0, 0), None
#     Edge 28, Type (0, 0), None
#     Edge 29, Type (0, 0), None
#     Edge 30, Type (0, 0), None
#     Edge 31, Type (0, 0), None
#     Edge 32, Type (0, 0), None
#     Edge 33, Type (0, 0), None
#     Edge 34, Type (0, 0), None
#     Edge 35, Type (0, 0), None
# Relax obj value: 0.140
# Max RMSD: 0.236
# Mean RMSD: 0.236
data_MOF--net-wfy--node1-HICVOG_clean_sbu_0--edge1-none
_symmetry_space_group_name_H-M    P1
_symmetry_Int_Tables_number       1
_symmetry_cell_setting            triclinic
loop_
_symmetry_equiv_pos_as_xyz
'x, y, z'
_cell_length_a     20.000765
_cell_length_b     20.002771
_cell_length_c     12.710345
_cell_angle_alpha  89.998411
_cell_angle_beta   90.001482
_cell_angle_gamma 89.996596
loop_
_atom_site_label
_atom_site_type_symbol
_atom_site_fract_x
_atom_site_fract_y
_atom_site_fract_z
_atom_type_partial_charge
Zn0 Zn 0.35848 0.06355 0.12698 0.0
C1 C 0.30853 0.25442 0.11817 0.0
N2 N 0.37523 0.26404 0.11959 0.0
C3 C 0.40001 0.20259 0.10537 0.0
N4 N 0.35091 0.15701 0.09774 0.0
N5 N 0.29352 0.18944 0.09995 0.0
C6 C 0.08473 0.19233 0.03806 0.0
O7 O 0.08143 0.13022 0.07109 0.0
O8 O 0.45076 0.03321 0.09368 0.0
Zn9 Zn 0.22779 0.16118 0.99671 0.0
N10 N 0.34852 0.0506 0.27652 0.0
C11 C 0.33203 0.08434 0.45419 0.0
C12 C 0.33905 0.10042 0.34773 0.0
C13 C 0.34906 0.98571 0.30684 0.0
N14 N 0.33156 0.01905 0.48415 0.0
C15 C 0.34047 0.96922 0.41274 0.0
O16 O 0.20404 0.06157 1.00175 0.0
C17 C 0.23162 1.00545 1.0219 0.0
O18 O 0.29012 1.00159 0.06081 0.0
H19 H 0.33605 0.15189 0.32224 0.0
H20 H 0.35226 0.94751 0.2473 0.0
C21 C 0.23142 0.21366 0.7881 0.0
C22 C 0.25977 0.23317 0.69138 0.0
C23 C 0.36128 0.18159 0.74104 0.0
C24 C 0.33261 0.16199 0.83682 0.0
N25 N 0.26835 0.17927 0.8592 0.0
N26 N 0.32452 0.21747 0.67082 0.0
H27 H 0.1808 0.22764 0.80858 0.0
C28 C 0.47911 0.02431 1.00552 0.0
O29 O 0.4463 0.03382 0.91737 0.0
O30 O 0.14074 0.2159 1.00744 0.0
H31 H 0.36178 0.13433 0.89337 0.0
H32 H 0.3246 0.12328 0.51192 0.0
H33 H 0.41264 0.1689 0.72322 0.0
Zn34 Zn 0.16134 0.80024 0.04984 0.0
C35 C 0.20264 0.6279 0.94127 0.0
N36 N 0.26409 0.65267 0.92685 0.0
C37 C 0.25451 0.71936 0.92844 0.0
N38 N 0.18954 0.73432 0.94689 0.0
N39 N 0.15705 0.67699 0.94922 0.0
C40 C 0.02447 0.54875 0.04109 0.0
O41 O 0.03424 0.58141 0.12929 0.0
O42 O 0.21608 0.88726 0.03894 0.0
Zn43 Zn 0.0636 0.66949 0.9198 0.0
N44 N 0.17939 0.75978 0.18744 0.0
C45 C 0.18153 0.66697 0.30583 0.0
C46 C 0.16198 0.69559 0.20998 0.0
C47 C 0.21385 0.7967 0.25843 0.0
N48 N 0.21747 0.70372 0.37597 0.0
C49 C 0.2333 0.76841 0.35523 0.0
O50 O 1.00167 0.73787 0.98599 0.0
C51 C 1.00558 0.79641 0.02475 0.0
O52 O 0.06172 0.82399 0.04477 0.0
H53 H 0.13425 0.66642 0.15351 0.0
H54 H 0.22791 0.84728 0.23782 0.0
C55 C 0.98576 0.67899 0.73994 0.0
C56 C 0.96925 0.68766 0.63405 0.0
C57 C 0.08438 0.69616 0.5926 0.0
C58 C 0.10048 0.68905 0.69905 0.0
N59 N 0.05065 0.67952 0.77025 0.0
N60 N 0.01908 0.69664 0.56266 0.0
H61 H 0.94756 0.67574 0.79948 0.0
C62 C 0.19246 0.94328 1.00842 0.0
O63 O 0.13031 0.94659 0.97558 0.0
O64 O 0.03318 0.57723 0.95297 0.0
H65 H 0.15195 0.69202 0.72453 0.0
H66 H 0.16875 0.61566 0.32378 0.0
H67 H 0.12331 0.70365 0.53489 0.0
Zn68 Zn 0.66967 0.96441 0.12706 0.0
C69 C 0.71961 0.77352 0.11835 0.0
N70 N 0.6529 0.76391 0.11977 0.0
C71 C 0.62813 0.82536 0.10553 0.0
N72 N 0.67724 0.87094 0.09791 0.0
N73 N 0.73462 0.8385 0.10013 0.0
C74 C 0.94343 0.83559 0.03822 0.0
O75 O 0.94676 0.89773 0.07108 0.0
O76 O 0.5774 0.99474 0.09372 0.0
Zn77 Zn 0.80038 0.86674 0.99694 0.0
N78 N 0.67965 0.97742 0.27659 0.0
C79 C 0.69612 0.94377 0.45431 0.0
C80 C 0.68909 0.92763 0.34787 0.0
C81 C 0.67914 0.04232 0.30682 0.0
N82 N 0.69661 1.00907 0.48418 0.0
C83 C 0.68773 0.05886 0.4127 0.0
O84 O 0.82416 0.96634 1.00197 0.0
C85 C 0.79657 0.02246 1.02203 0.0
O86 O 0.73804 0.02634 0.06085 0.0
H87 H 0.69207 0.87615 0.32246 0.0
H88 H 0.67596 0.08049 0.24722 0.0
C89 C 0.79677 0.8143 0.78834 0.0
C90 C 0.76844 0.79483 0.69158 0.0
C91 C 0.66694 0.84645 0.74118 0.0
C92 C 0.69559 0.866 0.83699 0.0
N93 N 0.75983 0.84869 0.85941 0.0
N94 N 0.7037 0.81057 0.67097 0.0
H95 H 0.84738 0.80031 0.80886 0.0
C96 C 0.54908 1.00368 1.00554 0.0
O97 O 0.58192 0.99421 0.91742 0.0
O98 O 0.8874 0.81199 1.00771 0.0
H99 H 0.6664 0.89367 0.89353 0.0
H100 H 0.70353 0.90486 0.5121 0.0
H101 H 0.61559 0.85915 0.72331 0.0
Zn102 Zn 0.96449 0.35831 0.91932 0.0
C103 C 0.77359 0.30839 0.92833 0.0
N104 N 0.76397 0.37509 0.92702 0.0
C105 C 0.82545 0.39984 0.94113 0.0
N106 N 0.87103 0.35072 0.94856 0.0
N107 N 0.83859 0.29335 0.94637 0.0
C108 C 0.83572 0.08462 1.00851 0.0
O109 O 0.89786 0.08131 0.97561 0.0
O110 O 0.9948 0.45057 0.95271 0.0
Zn111 Zn 0.86683 0.22768 0.04968 0.0
N112 N 0.97749 0.34836 0.76978 0.0
C113 C 0.94384 0.3319 0.59206 0.0
C114 C 0.9277 0.33893 0.6985 0.0
C115 C 0.0424 0.34887 0.73955 0.0
N116 N 1.00915 0.33141 0.56219 0.0
C117 C 0.05895 0.34029 0.63367 0.0
O118 O 0.96644 0.20392 0.04473 0.0
C119 C 0.02256 0.23147 0.02453 0.0
O120 O 0.02643 0.28995 0.98553 0.0
H121 H 0.87621 0.33596 0.72391 0.0
H122 H 0.08057 0.35204 0.79915 0.0
C123 C 0.81435 0.23137 0.25824 0.0
C124 C 0.79482 0.25971 0.35496 0.0
C125 C 0.84633 0.36124 0.30527 0.0
C126 C 0.86594 0.33257 0.2095 0.0
N127 N 0.84871 0.2683 0.18714 0.0
N128 N 0.81048 0.32446 0.37551 0.0
H129 H 0.80042 0.18074 0.23777 0.0
C130 C 1.00385 0.47879 0.04094 0.0
O131 O 0.99457 0.44583 0.12901 0.0
O132 O 0.8121 0.14064 0.039 0.0
H133 H 0.89359 0.36176 0.15295 0.0
H134 H 0.90493 0.32449 0.53427 0.0
H135 H 0.85897 0.4126 0.32309 0.0
Zn136 Zn 0.85847 0.5635 0.6272 0.0
C137 C 0.80863 0.7544 0.61842 0.0
N138 N 0.87533 0.76404 0.61986 0.0
C139 C 0.90004 0.70254 0.6058 0.0
N140 N 0.85092 0.65698 0.59809 0.0
N141 N 0.79355 0.68944 0.60022 0.0
C142 C 0.58475 0.69237 0.53827 0.0
O143 O 0.58142 0.63024 0.57117 0.0
O144 O 0.95075 0.53318 0.59389 0.0
Zn145 Zn 0.72781 0.66123 0.49698 0.0
N146 N 0.84845 0.55046 0.77672 0.0
C147 C 0.83189 0.58414 0.95441 0.0
C148 C 0.83898 0.60026 0.84797 0.0
C149 C 0.84893 0.48556 0.80698 0.0
N150 N 0.83138 0.51884 0.98431 0.0
C151 C 0.84029 0.46904 0.91286 0.0
O152 O 0.70403 0.56164 0.50194 0.0
C153 C 0.73161 0.50551 0.522 0.0
O154 O 0.79012 0.50161 0.56088 0.0
H155 H 0.83604 0.65174 0.82254 0.0
H156 H 0.85214 0.44738 0.74741 0.0
C157 C 0.73144 0.71369 0.28836 0.0
C158 C 0.75979 0.73314 0.19161 0.0
C159 C 0.86129 0.68156 0.24131 0.0
C160 C 0.83262 0.66202 0.33711 0.0
N161 N 0.76836 0.67932 0.35948 0.0
N162 N 0.82453 0.71741 0.17105 0.0
H163 H 0.68081 0.72767 0.30883 0.0
C164 C 0.97906 0.52426 0.5057 0.0
O165 O 0.94619 0.53372 0.41759 0.0
O166 O 0.64077 0.71596 0.50774 0.0
H167 H 0.86179 0.63437 0.39368 0.0
H168 H 0.82446 0.62306 1.01217 0.0
H169 H 0.91264 0.66885 0.22348 0.0
Zn170 Zn 0.6613 0.30033 0.54964 0.0
C171 C 0.70262 0.12806 0.44089 0.0
N172 N 0.76411 0.15279 0.42664 0.0
C173 C 0.75447 0.21948 0.42818 0.0
N174 N 0.68952 0.23449 0.4466 0.0
N175 N 0.65703 0.17715 0.44888 0.0
C176 C 0.52429 0.04905 0.54097 0.0
O177 O 0.5337 0.0819 0.62909 0.0
O178 O 0.71607 0.38733 0.53889 0.0
Zn179 Zn 0.56357 0.16964 0.41951 0.0
N180 N 0.6793 0.25981 0.6872 0.0
C181 C 0.68133 0.16691 0.80542 0.0
C182 C 0.66184 0.19561 0.70962 0.0
C183 C 0.71377 0.29666 0.75829 0.0
N184 N 0.71728 0.20359 0.87565 0.0
C185 C 0.73316 0.26829 0.85505 0.0
O186 O 0.50166 0.23801 0.48572 0.0
C187 C 0.50557 0.29654 0.52451 0.0
O188 O 0.5617 0.32411 0.54455 0.0
H189 H 0.6341 0.16651 0.65308 0.0
H190 H 0.72787 0.34724 0.7378 0.0
C191 C 0.4857 0.17917 0.23965 0.0
C192 C 0.46922 0.18774 0.13374 0.0
C193 C 0.58434 0.19606 0.09227 0.0
C194 C 0.60043 0.18904 0.19874 0.0
N195 N 0.5506 0.17963 0.26996 0.0
N196 N 0.51905 0.19657 0.06231 0.0
H197 H 0.44749 0.17603 0.29919 0.0
C198 C 0.69246 0.44336 0.50843 0.0
O199 O 0.63031 0.44669 0.47556 0.0
O200 O 0.53322 0.07737 0.45279 0.0
H201 H 0.65191 0.19197 0.22421 0.0
H202 H 0.66851 0.1156 0.82327 0.0
H203 H 0.62329 0.20344 0.03454 0.0
Zn204 Zn 0.1697 0.46446 0.62704 0.0
C205 C 0.21959 0.2736 0.61819 0.0
N206 N 0.1529 0.26394 0.61957 0.0
C207 C 0.12817 0.32543 0.60547 0.0
N208 N 0.17727 0.371 0.59781 0.0
N209 N 0.23466 0.33857 0.6 0.0
C210 C 0.44341 0.3357 0.53799 0.0
O211 O 0.44672 0.39784 0.57087 0.0
O212 O 0.07742 0.4948 0.59379 0.0
Zn213 Zn 0.30036 0.36681 0.49672 0.0
N214 N 0.17969 0.47741 0.77658 0.0
C215 C 0.19605 0.4436 0.95426 0.0
C216 C 0.18907 0.42755 0.84777 0.0
C217 C 0.17921 0.54229 0.80693 0.0
N218 N 0.19655 0.50888 0.98427 0.0
C219 C 0.18775 0.55873 0.91287 0.0
O220 O 0.32411 0.46642 0.50171 0.0
C221 C 0.29654 0.52253 0.52188 0.0
O222 O 0.23805 0.52641 0.56083 0.0
H223 H 0.19201 0.37609 0.82227 0.0
H224 H 0.17608 0.58051 0.74742 0.0
C225 C 0.29671 0.31432 0.28812 0.0
C226 C 0.26835 0.2948 0.19141 0.0
C227 C 0.16683 0.34634 0.24112 0.0
C228 C 0.19551 0.36594 0.33688 0.0
N229 N 0.25978 0.34869 0.35923 0.0
N230 N 0.20359 0.31048 0.17088 0.0
H231 H 0.34735 0.30037 0.30858 0.0
C232 C 0.04903 0.50366 0.50564 0.0
O233 O 0.08181 0.49411 0.41748 0.0
O234 O 0.38739 0.31209 0.50747 0.0
H235 H 0.16633 0.3936 0.39344 0.0
H236 H 0.20339 0.40464 1.01197 0.0
H237 H 0.11546 0.359 0.22331 0.0
Zn238 Zn 0.36683 0.72773 0.54982 0.0
C239 C 0.32557 0.90004 0.44102 0.0
N240 N 0.26407 0.87533 0.42681 0.0
C241 C 0.27368 0.80864 0.4284 0.0
N242 N 0.33863 0.79361 0.4468 0.0
N243 N 0.37115 0.85094 0.44903 0.0
C244 C 0.50371 0.97908 0.54099 0.0
O245 O 0.49402 0.94633 0.62914 0.0
O246 O 0.31208 0.64071 0.53893 0.0
Zn247 Zn 0.4646 0.85841 0.41963 0.0
N248 N 0.34873 0.7682 0.68739 0.0
C249 C 0.3465 0.86106 0.80567 0.0
C250 C 0.36607 0.83243 0.70985 0.0
C251 C 0.31431 0.73127 0.75843 0.0
N252 N 0.31061 0.8243 0.87585 0.0
C253 C 0.29484 0.75959 0.85519 0.0
O254 O 0.5265 0.79005 0.48589 0.0
C255 C 0.52259 0.73154 0.52476 0.0
O256 O 0.46645 0.70398 0.54482 0.0
H257 H 0.39376 0.86161 0.65335 0.0
H258 H 0.30031 0.68068 0.73788 0.0
C259 C 0.54244 0.84882 0.23977 0.0
C260 C 0.55893 0.84022 0.13387 0.0
C261 C 0.4438 0.83186 0.09242 0.0
C262 C 0.42771 0.83893 0.19888 0.0
N263 N 0.47755 0.84836 0.27008 0.0
N264 N 0.50909 0.83135 0.06245 0.0
H265 H 0.58065 0.852 0.29931 0.0
C266 C 0.33569 0.5847 0.50837 0.0
O267 O 0.39783 0.58139 0.47548 0.0
O268 O 0.49499 0.95067 0.45283 0.0
H269 H 0.37624 0.836 0.22435 0.0
H270 H 0.35923 0.91239 0.82357 0.0
H271 H 0.40485 0.82447 0.03469 0.0
loop_
_geom_bond_atom_site_label_1
_geom_bond_atom_site_label_2
_geom_bond_distance
_geom_bond_site_symmetry_2
_ccdc_geom_bond_type
Zn0 N4 2.020 . S
Zn0 O8 2.019 1_545 S
Zn0 N10 2.119 1_545 S
Zn0 O18 1.975 1_554 S
C1 N2 1.334 . S
C1 N5 1.336 . S
N2 C1 1.334 . S
N2 C3 1.334 . S
C3 N2 1.334 . S
C3 N4 1.336 . S
N4 Zn0 2.020 . S
N4 C3 1.336 . S
N4 N5 1.354 . S
N5 C1 1.336 . S
N5 N4 1.354 . S
N5 Zn9 2.020 . S
C6 O7 1.244 . S
C6 O30 1.257 1_554 S
O7 C6 1.244 . S
O8 Zn0 2.019 1_565 S
O8 C28 1.257 . S
Zn9 N5 2.020 . S
Zn9 O16 1.975 1_554 S
Zn9 N25 2.119 1_554 S
Zn9 O30 2.019 1_554 S
N10 Zn0 2.119 1_565 S
N10 C12 1.334 . S
N10 C13 1.328 . S
C11 C12 1.391 . S
C11 N14 1.329 . S
C11 H32 0.930 . S
C12 N10 1.334 . S
C12 C11 1.391 . S
C12 H19 0.930 1_565 S
C13 N10 1.328 . S
C13 C15 1.392 . S
C13 H20 0.930 . S
N14 C11 1.329 . S
N14 C15 1.331 . S
C15 C13 1.392 . S
C15 N14 1.331 . S
O16 Zn9 1.975 1_556 S
O16 C17 1.252 . S
C17 O16 1.252 . S
C17 O18 1.252 . S
O18 Zn0 1.975 1_556 S
O18 C17 1.252 . S
H19 C12 0.930 1_545 S
H20 C13 0.930 . S
C21 C22 1.392 . S
C21 N25 1.328 . S
C21 H27 0.930 . S
C22 C21 1.392 . S
C22 N26 1.331 . S
C23 C24 1.391 . S
C23 N26 1.329 . S
C23 H33 0.930 . S
C24 C23 1.391 . S
C24 N25 1.334 . S
C24 H31 0.930 . S
N25 Zn9 2.119 1_556 S
N25 C21 1.328 . S
N25 C24 1.334 . S
N26 C22 1.331 . S
N26 C23 1.329 . S
H27 C21 0.930 . S
C28 O8 1.257 . S
C28 O29 1.244 1_564 S
O29 C28 1.244 1_546 S
O30 C6 1.257 1_556 S
O30 Zn9 2.019 1_556 S
H31 C24 0.930 . S
H32 C11 0.930 . S
H33 C23 0.930 . S
Zn34 N38 2.020 . S
Zn34 O42 2.019 1_556 S
Zn34 N44 2.119 1_556 S
Zn34 O52 1.975 1_556 S
C35 N36 1.334 . S
C35 N39 1.336 . S
N36 C35 1.334 . S
N36 C37 1.334 . S
C37 N36 1.334 . S
C37 N38 1.336 . S
N38 Zn34 2.020 . S
N38 C37 1.336 . S
N38 N39 1.354 . S
N39 C35 1.336 . S
N39 N38 1.354 . S
N39 Zn43 2.020 . S
C40 O41 1.244 1_656 S
C40 O64 1.257 . S
O41 C40 1.244 1_454 S
O42 Zn34 2.019 1_554 S
O42 C62 1.257 1_554 S
Zn43 N39 2.020 . S
Zn43 O50 1.975 1_556 S
Zn43 N59 2.119 1_455 S
Zn43 O64 2.019 1_455 S
N44 Zn34 2.119 1_554 S
N44 C46 1.334 . S
N44 C47 1.328 . S
C45 C46 1.391 . S
C45 N48 1.329 . S
C45 H66 0.930 . S
C46 N44 1.334 . S
C46 C45 1.391 . S
C46 H53 0.930 . S
C47 N44 1.328 . S
C47 C49 1.392 . S
C47 H54 0.930 . S
N48 C45 1.329 . S
N48 C49 1.331 . S
C49 C47 1.392 . S
C49 N48 1.331 . S
O50 Zn43 1.975 1_554 S
O50 C51 1.252 . S
C51 O50 1.252 . S
C51 O52 1.252 . S
O52 Zn34 1.975 1_554 S
O52 C51 1.252 . S
H53 C46 0.930 . S
H54 C47 0.930 . S
C55 C56 1.392 . S
C55 N59 1.328 . S
C55 H61 0.930 . S
C56 C55 1.392 . S
C56 N60 1.331 . S
C57 C58 1.391 . S
C57 N60 1.329 . S
C57 H67 0.930 . S
C58 C57 1.391 . S
C58 N59 1.334 . S
C58 H65 0.930 1_655 S
N59 Zn43 2.119 1_655 S
N59 C55 1.328 . S
N59 C58 1.334 . S
N60 C56 1.331 . S
N60 C57 1.329 . S
H61 C55 0.930 . S
C62 O42 1.257 1_556 S
C62 O63 1.244 . S
O63 C62 1.244 . S
O64 C40 1.257 . S
O64 Zn43 2.019 1_655 S
H65 C58 0.930 1_455 S
H66 C45 0.930 . S
H67 C57 0.930 . S
Zn68 N72 2.020 . S
Zn68 O76 2.019 1_565 S
Zn68 N78 2.119 1_565 S
Zn68 O86 1.975 1_554 S
C69 N70 1.334 . S
C69 N73 1.336 . S
N70 C69 1.334 . S
N70 C71 1.334 . S
C71 N70 1.334 . S
C71 N72 1.336 . S
N72 Zn68 2.020 . S
N72 C71 1.336 . S
N72 N73 1.354 . S
N73 C69 1.336 . S
N73 N72 1.354 . S
N73 Zn77 2.020 . S
C74 O75 1.244 . S
C74 O98 1.257 1_554 S
O75 C74 1.244 . S
O76 Zn68 2.019 1_545 S
O76 C96 1.257 . S
Zn77 N73 2.020 . S
Zn77 O84 1.975 1_554 S
Zn77 N93 2.119 1_554 S
Zn77 O98 2.019 1_554 S
N78 Zn68 2.119 1_545 S
N78 C80 1.334 . S
N78 C81 1.328 . S
C79 C80 1.391 . S
C79 N82 1.329 . S
C79 H100 0.930 . S
C80 N78 1.334 . S
C80 C79 1.391 . S
C80 H87 0.930 1_545 S
C81 N78 1.328 . S
C81 C83 1.392 . S
C81 H88 0.930 . S
N82 C79 1.329 . S
N82 C83 1.331 . S
C83 C81 1.392 . S
C83 N82 1.331 . S
O84 Zn77 1.975 1_556 S
O84 C85 1.252 . S
C85 O84 1.252 . S
C85 O86 1.252 . S
O86 Zn68 1.975 1_556 S
O86 C85 1.252 . S
H87 C80 0.930 1_565 S
H88 C81 0.930 . S
C89 C90 1.392 . S
C89 N93 1.328 . S
C89 H95 0.930 . S
C90 C89 1.392 . S
C90 N94 1.331 . S
C91 C92 1.391 . S
C91 N94 1.329 . S
C91 H101 0.930 . S
C92 C91 1.391 . S
C92 N93 1.334 . S
C92 H99 0.930 . S
N93 Zn77 2.119 1_556 S
N93 C89 1.328 . S
N93 C92 1.334 . S
N94 C90 1.331 . S
N94 C91 1.329 . S
H95 C89 0.930 . S
C96 O76 1.257 . S
C96 O97 1.244 1_544 S
O97 C96 1.244 1_566 S
O98 C74 1.257 1_556 S
O98 Zn77 2.019 1_556 S
H99 C92 0.930 . S
H100 C79 0.930 . S
H101 C91 0.930 . S
Zn102 N106 2.020 . S
Zn102 O110 2.019 1_655 S
Zn102 N112 2.119 1_655 S
Zn102 O120 1.975 1_556 S
C103 N104 1.334 . S
C103 N107 1.336 . S
N104 C103 1.334 . S
N104 C105 1.334 . S
C105 N104 1.334 . S
C105 N106 1.336 . S
N106 Zn102 2.020 . S
N106 C105 1.336 . S
N106 N107 1.354 . S
N107 C103 1.336 . S
N107 N106 1.354 . S
N107 Zn111 2.020 . S
C108 O109 1.244 . S
C108 O132 1.257 1_556 S
O109 C108 1.244 . S
O110 Zn102 2.019 1_455 S
O110 C130 1.257 . S
Zn111 N107 2.020 . S
Zn111 O118 1.975 1_556 S
Zn111 N127 2.119 1_556 S
Zn111 O132 2.019 1_556 S
N112 Zn102 2.119 1_455 S
N112 C114 1.334 . S
N112 C115 1.328 . S
C113 C114 1.391 . S
C113 N116 1.329 . S
C113 H134 0.930 . S
C114 N112 1.334 . S
C114 C113 1.391 . S
C114 H121 0.930 1_455 S
C115 N112 1.328 . S
C115 C117 1.392 . S
C115 H122 0.930 . S
N116 C113 1.329 . S
N116 C117 1.331 . S
C117 C115 1.392 . S
C117 N116 1.331 . S
O118 Zn111 1.975 1_554 S
O118 C119 1.252 . S
C119 O118 1.252 . S
C119 O120 1.252 . S
O120 Zn102 1.975 1_554 S
O120 C119 1.252 . S
H121 C114 0.930 1_655 S
H122 C115 0.930 . S
C123 C124 1.392 . S
C123 N127 1.328 . S
C123 H129 0.930 . S
C124 C123 1.392 . S
C124 N128 1.331 . S
C125 C126 1.391 . S
C125 N128 1.329 . S
C125 H135 0.930 . S
C126 C125 1.391 . S
C126 N127 1.334 . S
C126 H133 0.930 . S
N127 Zn111 2.119 1_554 S
N127 C123 1.328 . S
N127 C126 1.334 . S
N128 C124 1.331 . S
N128 C125 1.329 . S
H129 C123 0.930 . S
C130 O110 1.257 . S
C130 O131 1.244 1_456 S
O131 C130 1.244 1_654 S
O132 C108 1.257 1_554 S
O132 Zn111 2.019 1_554 S
H133 C126 0.930 . S
H134 C113 0.930 . S
H135 C125 0.930 . S
Zn136 N140 2.020 . S
Zn136 O144 2.019 . S
Zn136 N146 2.119 . S
Zn136 O154 1.975 . S
C137 N138 1.334 . S
C137 N141 1.336 . S
N138 C137 1.334 . S
N138 C139 1.334 . S
C139 N138 1.334 . S
C139 N140 1.336 . S
N140 Zn136 2.020 . S
N140 C139 1.336 . S
N140 N141 1.354 . S
N141 C137 1.336 . S
N141 N140 1.354 . S
N141 Zn145 2.020 . S
C142 O143 1.244 . S
C142 O166 1.257 . S
O143 C142 1.244 . S
O144 Zn136 2.019 . S
O144 C164 1.257 . S
Zn145 N141 2.020 . S
Zn145 O152 1.975 . S
Zn145 N161 2.119 . S
Zn145 O166 2.019 . S
N146 Zn136 2.119 . S
N146 C148 1.334 . S
N146 C149 1.328 . S
C147 C148 1.391 . S
C147 N150 1.329 . S
C147 H168 0.930 . S
C148 N146 1.334 . S
C148 C147 1.391 . S
C148 H155 0.930 . S
C149 N146 1.328 . S
C149 C151 1.392 . S
C149 H156 0.930 . S
N150 C147 1.329 . S
N150 C151 1.331 . S
C151 C149 1.392 . S
C151 N150 1.331 . S
O152 Zn145 1.975 . S
O152 C153 1.252 . S
C153 O152 1.252 . S
C153 O154 1.252 . S
O154 Zn136 1.975 . S
O154 C153 1.252 . S
H155 C148 0.930 . S
H156 C149 0.930 . S
C157 C158 1.392 . S
C157 N161 1.328 . S
C157 H163 0.930 . S
C158 C157 1.392 . S
C158 N162 1.331 . S
C159 C160 1.391 . S
C159 N162 1.329 . S
C159 H169 0.930 . S
C160 C159 1.391 . S
C160 N161 1.334 . S
C160 H167 0.930 . S
N161 Zn145 2.119 . S
N161 C157 1.328 . S
N161 C160 1.334 . S
N162 C158 1.331 . S
N162 C159 1.329 . S
H163 C157 0.930 . S
C164 O144 1.257 . S
C164 O165 1.244 . S
O165 C164 1.244 . S
O166 C142 1.257 . S
O166 Zn145 2.019 . S
H167 C160 0.930 . S
H168 C147 0.930 . S
H169 C159 0.930 . S
Zn170 N174 2.020 . S
Zn170 O178 2.019 . S
Zn170 N180 2.119 . S
Zn170 O188 1.975 . S
C171 N172 1.334 . S
C171 N175 1.336 . S
N172 C171 1.334 . S
N172 C173 1.334 . S
C173 N172 1.334 . S
C173 N174 1.336 . S
N174 Zn170 2.020 . S
N174 C173 1.336 . S
N174 N175 1.354 . S
N175 C171 1.336 . S
N175 N174 1.354 . S
N175 Zn179 2.020 . S
C176 O177 1.244 . S
C176 O200 1.257 . S
O177 C176 1.244 . S
O178 Zn170 2.019 . S
O178 C198 1.257 . S
Zn179 N175 2.020 . S
Zn179 O186 1.975 . S
Zn179 N195 2.119 . S
Zn179 O200 2.019 . S
N180 Zn170 2.119 . S
N180 C182 1.334 . S
N180 C183 1.328 . S
C181 C182 1.391 . S
C181 N184 1.329 . S
C181 H202 0.930 . S
C182 N180 1.334 . S
C182 C181 1.391 . S
C182 H189 0.930 . S
C183 N180 1.328 . S
C183 C185 1.392 . S
C183 H190 0.930 . S
N184 C181 1.329 . S
N184 C185 1.331 . S
C185 C183 1.392 . S
C185 N184 1.331 . S
O186 Zn179 1.975 . S
O186 C187 1.252 . S
C187 O186 1.252 . S
C187 O188 1.252 . S
O188 Zn170 1.975 . S
O188 C187 1.252 . S
H189 C182 0.930 . S
H190 C183 0.930 . S
C191 C192 1.392 . S
C191 N195 1.328 . S
C191 H197 0.930 . S
C192 C191 1.392 . S
C192 N196 1.331 . S
C193 C194 1.391 . S
C193 N196 1.329 . S
C193 H203 0.930 . S
C194 C193 1.391 . S
C194 N195 1.334 . S
C194 H201 0.930 . S
N195 Zn179 2.119 . S
N195 C191 1.328 . S
N195 C194 1.334 . S
N196 C192 1.331 . S
N196 C193 1.329 . S
H197 C191 0.930 . S
C198 O178 1.257 . S
C198 O199 1.244 . S
O199 C198 1.244 . S
O200 C176 1.257 . S
O200 Zn179 2.019 . S
H201 C194 0.930 . S
H202 C181 0.930 . S
H203 C193 0.930 . S
Zn204 N208 2.020 . S
Zn204 O212 2.019 . S
Zn204 N214 2.119 . S
Zn204 O222 1.975 . S
C205 N206 1.334 . S
C205 N209 1.336 . S
N206 C205 1.334 . S
N206 C207 1.334 . S
C207 N206 1.334 . S
C207 N208 1.336 . S
N208 Zn204 2.020 . S
N208 C207 1.336 . S
N208 N209 1.354 . S
N209 C205 1.336 . S
N209 N208 1.354 . S
N209 Zn213 2.020 . S
C210 O211 1.244 . S
C210 O234 1.257 . S
O211 C210 1.244 . S
O212 Zn204 2.019 . S
O212 C232 1.257 . S
Zn213 N209 2.020 . S
Zn213 O220 1.975 . S
Zn213 N229 2.119 . S
Zn213 O234 2.019 . S
N214 Zn204 2.119 . S
N214 C216 1.334 . S
N214 C217 1.328 . S
C215 C216 1.391 . S
C215 N218 1.329 . S
C215 H236 0.930 . S
C216 N214 1.334 . S
C216 C215 1.391 . S
C216 H223 0.930 . S
C217 N214 1.328 . S
C217 C219 1.392 . S
C217 H224 0.930 . S
N218 C215 1.329 . S
N218 C219 1.331 . S
C219 C217 1.392 . S
C219 N218 1.331 . S
O220 Zn213 1.975 . S
O220 C221 1.252 . S
C221 O220 1.252 . S
C221 O222 1.252 . S
O222 Zn204 1.975 . S
O222 C221 1.252 . S
H223 C216 0.930 . S
H224 C217 0.930 . S
C225 C226 1.392 . S
C225 N229 1.328 . S
C225 H231 0.930 . S
C226 C225 1.392 . S
C226 N230 1.331 . S
C227 C228 1.391 . S
C227 N230 1.329 . S
C227 H237 0.930 . S
C228 C227 1.391 . S
C228 N229 1.334 . S
C228 H235 0.930 . S
N229 Zn213 2.119 . S
N229 C225 1.328 . S
N229 C228 1.334 . S
N230 C226 1.331 . S
N230 C227 1.329 . S
H231 C225 0.930 . S
C232 O212 1.257 . S
C232 O233 1.244 . S
O233 C232 1.244 . S
O234 C210 1.257 . S
O234 Zn213 2.019 . S
H235 C228 0.930 . S
H236 C215 0.930 . S
H237 C227 0.930 . S
Zn238 N242 2.020 . S
Zn238 O246 2.019 . S
Zn238 N248 2.119 . S
Zn238 O256 1.975 . S
C239 N240 1.334 . S
C239 N243 1.336 . S
N240 C239 1.334 . S
N240 C241 1.334 . S
C241 N240 1.334 . S
C241 N242 1.336 . S
N242 Zn238 2.020 . S
N242 C241 1.336 . S
N242 N243 1.354 . S
N243 C239 1.336 . S
N243 N242 1.354 . S
N243 Zn247 2.020 . S
C244 O245 1.244 . S
C244 O268 1.257 . S
O245 C244 1.244 . S
O246 Zn238 2.019 . S
O246 C266 1.257 . S
Zn247 N243 2.020 . S
Zn247 O254 1.975 . S
Zn247 N263 2.119 . S
Zn247 O268 2.019 . S
N248 Zn238 2.119 . S
N248 C250 1.334 . S
N248 C251 1.328 . S
C249 C250 1.391 . S
C249 N252 1.329 . S
C249 H270 0.930 . S
C250 N248 1.334 . S
C250 C249 1.391 . S
C250 H257 0.930 . S
C251 N248 1.328 . S
C251 C253 1.392 . S
C251 H258 0.930 . S
N252 C249 1.329 . S
N252 C253 1.331 . S
C253 C251 1.392 . S
C253 N252 1.331 . S
O254 Zn247 1.975 . S
O254 C255 1.252 . S
C255 O254 1.252 . S
C255 O256 1.252 . S
O256 Zn238 1.975 . S
O256 C255 1.252 . S
H257 C250 0.930 . S
H258 C251 0.930 . S
C259 C260 1.392 . S
C259 N263 1.328 . S
C259 H265 0.930 . S
C260 C259 1.392 . S
C260 N264 1.331 . S
C261 C262 1.391 . S
C261 N264 1.329 . S
C261 H271 0.930 . S
C262 C261 1.391 . S
C262 N263 1.334 . S
C262 H269 0.930 . S
N263 Zn247 2.119 . S
N263 C259 1.328 . S
N263 C262 1.334 . S
N264 C260 1.331 . S
N264 C261 1.329 . S
H265 C259 0.930 . S
C266 O246 1.257 . S
C266 O267 1.244 . S
O267 C266 1.244 . S
O268 C244 1.257 . S
O268 Zn247 2.019 . S
H269 C262 0.930 . S
H270 C249 0.930 . S
H271 C261 0.930 . S
C15 C239 0.893 . S
C56 C139 0.893 . S
C171 C83 0.893 . S
C117 C207 0.893 . S
C151 C105 0.893 . S
C192 C3 0.893 . S
C219 C35 0.893 . S
C260 C71 0.893 . S
C28 C96 1.716 1_565 S
C130 C40 1.716 1_455 S
C164 C232 1.716 1_655 S
C176 C244 1.716 1_545 S
C205 C22 1.384 . S
C49 C241 1.384 . S
C137 C90 1.384 . S
C124 C173 1.384 . S
C158 C69 1.384 . S
C103 C185 1.384 . S
C226 C1 1.384 . S
C37 C253 1.384 . S
C17 C62 2.505 1_545 S
C51 C74 2.505 1_455 S
C85 C108 2.505 1_565 S
C119 C6 2.505 1_655 S
C198 C153 2.505 . S
C210 C187 2.505 . S
C221 C266 2.505 . S
C142 C255 2.505 . S
