# Generated by pormake.
# Topology afw, (4)-cn, num edge types: 1
# Building blocks:
#     Node 0, Type 0, BuildingBlock: KUFVIS_clean_sbu_0, # of connection points: 4
#     Node 1, Type 0, BuildingBlock: KUFVIS_clean_sbu_0, # of connection points: 4
#     Node 2, Type 0, BuildingBlock: KUFVIS_clean_sbu_0, # of connection points: 4
#     Node 3, Type 0, BuildingBlock: KUFVIS_clean_sbu_0, # of connection points: 4
#     Node 4, Type 0, BuildingBlock: KUFVIS_clean_sbu_0, # of connection points: 4
#     Node 5, Type 0, BuildingBlock: KUFVIS_clean_sbu_0, # of connection points: 4
#     Node 6, Type 0, BuildingBlock: KUFVIS_clean_sbu_0, # of connection points: 4
#     Node 7, Type 0, BuildingBlock: KUFVIS_clean_sbu_0, # of connection points: 4
#     Node 8, Type 0, BuildingBlock: KUFVIS_clean_sbu_0, # of connection points: 4
#     Edge 9, Type (0, 0), BuildingBlock: CIFDUS_clean_linker_0, # of connection points: 2
#     Edge 10, Type (0, 0), BuildingBlock: CIFDUS_clean_linker_0, # of connection points: 2
#     Edge 11, Type (0, 0), BuildingBlock: CIFDUS_clean_linker_0, # of connection points: 2
#     Edge 12, Type (0, 0), BuildingBlock: CIFDUS_clean_linker_0, # of connection points: 2
#     Edge 13, Type (0, 0), BuildingBlock: CIFDUS_clean_linker_0, # of connection points: 2
#     Edge 14, Type (0, 0), BuildingBlock: CIFDUS_clean_linker_0, # of connection points: 2
#     Edge 15, Type (0, 0), BuildingBlock: CIFDUS_clean_linker_0, # of connection points: 2
#     Edge 16, Type (0, 0), BuildingBlock: CIFDUS_clean_linker_0, # of connection points: 2
#     Edge 17, Type (0, 0), BuildingBlock: CIFDUS_clean_linker_0, # of connection points: 2
#     Edge 18, Type (0, 0), BuildingBlock: CIFDUS_clean_linker_0, # of connection points: 2
#     Edge 19, Type (0, 0), BuildingBlock: CIFDUS_clean_linker_0, # of connection points: 2
#     Edge 20, Type (0, 0), BuildingBlock: CIFDUS_clean_linker_0, # of connection points: 2
#     Edge 21, Type (0, 0), BuildingBlock: CIFDUS_clean_linker_0, # of connection points: 2
#     Edge 22, Type (0, 0), BuildingBlock: CIFDUS_clean_linker_0, # of connection points: 2
#     Edge 23, Type (0, 0), BuildingBlock: CIFDUS_clean_linker_0, # of connection points: 2
#     Edge 24, Type (0, 0), BuildingBlock: CIFDUS_clean_linker_0, # of connection points: 2
#     Edge 25, Type (0, 0), BuildingBlock: CIFDUS_clean_linker_0, # of connection points: 2
#     Edge 26, Type (0, 0), BuildingBlock: CIFDUS_clean_linker_0, # of connection points: 2
# Relax obj value: 0.208
# Max RMSD: 0.228
# Mean RMSD: 0.211
data_MOF--net-afw--node1-KUFVIS_clean_sbu_0--edge1-CIFDUS_clean_linker_0
_symmetry_space_group_name_H-M    P1
_symmetry_Int_Tables_number       1
_symmetry_cell_setting            triclinic
loop_
_symmetry_equiv_pos_as_xyz
'x, y, z'
_cell_length_a     36.386164
_cell_length_b     37.540223
_cell_length_c     28.396926
_cell_angle_alpha  91.119113
_cell_angle_beta   90.322463
_cell_angle_gamma 119.42336
loop_
_atom_site_label
_atom_site_type_symbol
_atom_site_fract_x
_atom_site_fract_y
_atom_site_fract_z
_atom_type_partial_charge
Mn0 Mn 0.02394 0.20154 0.04078 0.0
Mn1 Mn 0.12016 0.27314 0.08135 0.0
C2 C 0.08146 0.19136 0.03457 0.0
C3 C 0.95994 0.14144 0.051 0.0
C4 C 0.08086 0.28144 0.99067 0.0
O5 O 0.00994 0.23686 0.08491 0.0
O6 O 0.07598 0.28162 0.11152 0.0
C7 C 0.11257 0.24678 0.18004 0.0
N8 N 0.13285 0.2546 0.13818 0.0
C9 C 0.18195 0.23465 0.16801 0.0
C10 C 0.16177 0.22666 0.21155 0.0
C11 C 0.12692 0.23274 0.21757 0.0
C12 C 0.16645 0.24891 0.13203 0.0
H13 H 0.08555 0.25108 0.18467 0.0
C14 C 0.03596 0.26762 0.11047 0.0
O15 O 0.96425 0.16657 0.0179 0.0
O16 O 0.9916 0.15267 0.0799 0.0
N17 N 0.16537 0.26765 0.05464 0.0
C18 C 0.18015 0.27515 0.00987 0.0
C19 C 0.21452 0.2698 0.99773 0.0
C20 C 0.23334 0.25686 0.0317 0.0
C21 C 0.21781 0.24969 0.07765 0.0
C22 C 0.18384 0.25606 0.08786 0.0
H23 H 0.16561 0.28483 0.98355 0.0
O24 O 0.04907 0.17173 0.00654 0.0
O25 O 0.07932 0.21659 0.06472 0.0
O26 O 0.04706 0.24685 0.99182 0.0
O27 O 0.10992 0.2942 0.02239 0.0
C28 C 0.23422 0.23579 0.11349 0.0
C29 C 0.21629 0.22825 0.15862 0.0
H30 H 0.17254 0.21552 0.24047 0.0
H31 H 0.11104 0.22642 0.25099 0.0
H32 H 0.22626 0.27532 0.96217 0.0
H33 H 0.25949 0.25225 0.02204 0.0
H34 H 0.26035 0.23038 0.10657 0.0
H35 H 0.22889 0.21713 0.18573 0.0
Mn36 Mn 0.83336 0.84085 0.01117 0.0
Mn37 Mn 0.84384 0.76341 0.96345 0.0
C38 C 0.89834 0.84311 0.0127 0.0
C39 C 0.83707 0.9046 0.00468 0.0
C40 C 0.79968 0.75743 0.0558 0.0
O41 O 0.78088 0.81097 0.96806 0.0
O42 O 0.79566 0.76491 0.93327 0.0
C43 C 0.86692 0.79124 0.86582 0.0
N44 N 0.87615 0.7796 0.90734 0.0
C45 C 0.94074 0.78628 0.87683 0.0
C46 C 0.93189 0.79825 0.83368 0.0
C47 C 0.89484 0.80079 0.82818 0.0
C48 C 0.91157 0.77682 0.91294 0.0
H49 H 0.83849 0.79326 0.86151 0.0
C50 C 0.77302 0.78225 0.9377 0.0
O51 O 0.81575 0.87986 0.03787 0.0
O52 O 0.85415 0.89142 0.97406 0.0
N53 N 0.89024 0.76 0.99024 0.0
C54 C 0.89564 0.75121 0.03522 0.0
C55 C 0.93192 0.74908 0.04726 0.0
C56 C 0.96212 0.75588 0.01293 0.0
C57 C 0.95603 0.76513 0.96691 0.0
C58 C 0.91909 0.76655 0.95692 0.0
H59 H 0.87251 0.746 0.06176 0.0
O60 O 0.89028 0.86459 0.04296 0.0
O61 O 0.86797 0.82067 0.98324 0.0
O62 O 0.80782 0.79458 0.05894 0.0
O63 O 0.81057 0.74297 0.02097 0.0
C64 C 0.98538 0.77362 0.93078 0.0
C65 C 0.97778 0.78425 0.88581 0.0
H66 H 0.9535 0.80593 0.80468 0.0
H67 H 0.88788 0.81014 0.79504 0.0
H68 H 0.93661 0.74218 0.08289 0.0
H69 H 0.98983 0.75404 0.02254 0.0
H70 H 0.0141 0.7725 0.93724 0.0
H71 H 0.00091 0.79132 0.85856 0.0
Mn72 Mn 0.21023 0.00968 0.01156 0.0
Mn73 Mn 0.20178 0.92074 0.04643 0.0
C74 C 0.14626 0.9495 0.00535 0.0
C75 C 0.20531 0.06876 0.02142 0.0
C76 C 0.24133 0.95963 0.95496 0.0
O77 O 0.26102 0.02961 0.05551 0.0
O78 O 0.25409 0.96818 0.07301 0.0
C79 C 0.19023 0.92961 0.14842 0.0
N80 N 0.17643 0.90783 0.10702 0.0
C81 C 0.11697 0.8531 0.14472 0.0
C82 C 0.13064 0.87488 0.18779 0.0
C83 C 0.16734 0.91337 0.1896 0.0
C84 C 0.14099 0.87091 0.10485 0.0
H85 H 0.21848 0.95913 0.15007 0.0
C86 C 0.27335 0.00739 0.07626 0.0
O87 O 0.22838 0.06545 0.98887 0.0
O88 O 0.18709 0.03866 0.05015 0.0
N89 N 0.15235 0.87254 0.02421 0.0
C90 C 0.14202 0.85673 0.97946 0.0
C91 C 0.10647 0.81812 0.97151 0.0
C92 C 0.08182 0.79632 0.00962 0.0
C93 C 0.09216 0.81382 0.05517 0.0
C94 C 0.12844 0.85206 0.06103 0.0
H95 H 0.16094 0.8733 0.95014 0.0
O96 O 0.155 0.97944 0.97729 0.0
O97 O 0.17592 0.95502 0.03518 0.0
O98 O 0.23872 0.99183 0.96199 0.0
O99 O 0.22724 0.93012 0.9834 0.0
C100 C 0.06803 0.79483 0.095 0.0
C101 C 0.08024 0.81461 0.13969 0.0
H102 H 0.11308 0.86245 0.21964 0.0
H103 H 0.17802 0.93042 0.22268 0.0
H104 H 0.09836 0.805 0.93617 0.0
H105 H 0.05525 0.76604 0.00342 0.0
H106 H 0.03981 0.76521 0.09162 0.0
H107 H 0.06111 0.79999 0.16993 0.0
Mn108 Mn 0.68239 0.54362 0.32748 0.0
Mn109 Mn 0.76301 0.62153 0.38726 0.0
C110 C 0.74701 0.54587 0.33275 0.0
C111 C 0.6235 0.47827 0.32519 0.0
C112 C 0.73143 0.6304 0.29131 0.0
O113 O 0.65324 0.56673 0.36885 0.0
O114 O 0.70869 0.61343 0.41289 0.0
C115 C 0.753 0.58866 0.48312 0.0
N116 N 0.77687 0.60407 0.44416 0.0
C117 C 0.83509 0.60041 0.47976 0.0
C118 C 0.81115 0.58459 0.52031 0.0
C119 C 0.76995 0.57869 0.52197 0.0
C120 C 0.81674 0.6103 0.44237 0.0
H121 H 0.72125 0.58392 0.48449 0.0
C122 C 0.66901 0.59271 0.40314 0.0
O123 O 0.62891 0.50473 0.29339 0.0
O124 O 0.6514 0.49018 0.35904 0.0
N125 N 0.81664 0.63078 0.36559 0.0
C126 C 0.83407 0.64291 0.32245 0.0
C127 C 0.87461 0.64868 0.31423 0.0
C128 C 0.89675 0.64186 0.35035 0.0
C129 C 0.87798 0.62892 0.39428 0.0
C130 C 0.83768 0.62415 0.40061 0.0
H131 H 0.81718 0.64808 0.29447 0.0
O132 O 0.72062 0.52575 0.29852 0.0
O133 O 0.73504 0.56499 0.36223 0.0
O134 O 0.70474 0.59271 0.28411 0.0
O135 O 0.75298 0.64413 0.32944 0.0
C136 C 0.89736 0.61986 0.43174 0.0
C137 C 0.87593 0.60564 0.47446 0.0
H138 H 0.82392 0.57644 0.55016 0.0
H139 H 0.75123 0.56633 0.55307 0.0
H140 H 0.88878 0.65839 0.28012 0.0
H141 H 0.92807 0.6466 0.34384 0.0
H142 H 0.92847 0.62317 0.42784 0.0
H143 H 0.89088 0.59817 0.50274 0.0
Mn144 Mn 0.49899 0.17833 0.35716 0.0
Mn145 Mn 0.51671 0.10346 0.31571 0.0
C146 C 0.5655 0.18486 0.36239 0.0
C147 C 0.49885 0.23984 0.34789 0.0
C148 C 0.47025 0.0974 0.40626 0.0
O149 O 0.44851 0.14546 0.31254 0.0
O150 O 0.46678 0.10003 0.28313 0.0
C151 C 0.53955 0.1303 0.21769 0.0
N152 N 0.54982 0.12101 0.26015 0.0
C153 C 0.61868 0.13689 0.23315 0.0
C154 C 0.60873 0.14641 0.18906 0.0
C155 C 0.56899 0.14309 0.18131 0.0
C156 C 0.5879 0.12386 0.2679 0.0
H157 H 0.50918 0.12814 0.21167 0.0
C158 C 0.44285 0.11621 0.28407 0.0
O159 O 0.47724 0.21478 0.38071 0.0
O160 O 0.51806 0.22786 0.31866 0.0
N161 N 0.56533 0.10525 0.34456 0.0
C162 C 0.57098 0.0975 0.38993 0.0
C163 C 0.60959 0.10069 0.40388 0.0
C164 C 0.64199 0.11186 0.37112 0.0
C165 C 0.63541 0.1196 0.3246 0.0
C166 C 0.59608 0.11545 0.31257 0.0
H167 H 0.54634 0.08925 0.41539 0.0
O168 O 0.55507 0.20564 0.391 0.0
O169 O 0.53643 0.16053 0.33275 0.0
O170 O 0.47495 0.13334 0.40589 0.0
O171 O 0.48327 0.08271 0.37356 0.0
C172 C 0.66666 0.13217 0.29001 0.0
C173 C 0.6583 0.14078 0.24431 0.0
H174 H 0.63151 0.15668 0.16105 0.0
H175 H 0.56117 0.1506 0.14746 0.0
H176 H 0.61449 0.09485 0.4399 0.0
H177 H 0.67191 0.11481 0.38218 0.0
H178 H 0.69743 0.13583 0.29835 0.0
H179 H 0.68277 0.15093 0.21819 0.0
Mn180 Mn 0.87736 0.36675 0.35914 0.0
Mn181 Mn 0.95578 0.45074 0.31029 0.0
C182 C 0.87332 0.42625 0.35563 0.0
C183 C 0.81319 0.30642 0.35696 0.0
C184 C 0.96274 0.42203 0.40712 0.0
O185 O 0.90682 0.34296 0.31963 0.0
O186 O 0.95711 0.40079 0.28727 0.0
C187 C 0.92814 0.43478 0.21009 0.0
N188 N 0.93905 0.45932 0.24952 0.0
C189 C 0.93012 0.51022 0.20867 0.0
C190 C 0.91902 0.48558 0.16757 0.0
C191 C 0.918 0.44769 0.16832 0.0
C192 C 0.94052 0.49602 0.24909 0.0
H193 H 0.92715 0.40556 0.21051 0.0
C194 C 0.93778 0.3618 0.29203 0.0
O195 O 0.84124 0.31392 0.38969 0.0
O196 O 0.82345 0.33297 0.32392 0.0
N197 N 0.95672 0.50041 0.32911 0.0
C198 C 0.96365 0.51837 0.37284 0.0
C199 C 0.96353 0.55551 0.37878 0.0
C200 C 0.95628 0.57375 0.33976 0.0
C201 C 0.94883 0.55453 0.29518 0.0
C202 C 0.94974 0.51773 0.29131 0.0
H203 H 0.96875 0.50424 0.40305 0.0
O204 O 0.85321 0.39954 0.38756 0.0
O205 O 0.89622 0.41788 0.32735 0.0
O206 O 0.92606 0.39095 0.40675 0.0
O207 O 0.97714 0.44635 0.37286 0.0
C208 C 0.93939 0.56985 0.25471 0.0
C209 C 0.93009 0.54773 0.21147 0.0
H210 H 0.91072 0.49521 0.1354 0.0
H211 H 0.90925 0.42842 0.1368 0.0
H212 H 0.96884 0.56997 0.41338 0.0
H213 H 0.95612 0.6023 0.34456 0.0
H214 H 0.9384 0.59822 0.25666 0.0
H215 H 0.92215 0.55946 0.1808 0.0
Mn216 Mn 0.33447 0.84811 0.65171 0.0
Mn217 Mn 0.42104 0.92826 0.70024 0.0
C218 C 0.39914 0.85107 0.64724 0.0
C219 C 0.2764 0.78298 0.65895 0.0
C220 C 0.38157 0.93211 0.60729 0.0
O221 O 0.31 0.8739 0.69604 0.0
O222 O 0.36978 0.92382 0.73054 0.0
C223 C 0.41534 0.89724 0.79654 0.0
N224 N 0.43713 0.91114 0.75595 0.0
C225 C 0.49354 0.90115 0.78521 0.0
C226 C 0.47184 0.88704 0.82742 0.0
C227 C 0.43258 0.88509 0.83309 0.0
C228 C 0.47503 0.91329 0.7502 0.0
H229 H 0.3849 0.8952 0.80089 0.0
C230 C 0.32943 0.9028 0.72659 0.0
O231 O 0.27762 0.80698 0.62589 0.0
O232 O 0.308 0.79734 0.68845 0.0
N233 N 0.47241 0.93465 0.67445 0.0
C234 C 0.48809 0.94658 0.63057 0.0
C235 C 0.52671 0.94911 0.61877 0.0
C236 C 0.54876 0.93929 0.65213 0.0
C237 C 0.53211 0.92727 0.69712 0.0
C238 C 0.4938 0.92592 0.70712 0.0
H239 H 0.47114 0.95381 0.6046 0.0
O240 O 0.36899 0.82824 0.61764 0.0
O241 O 0.39025 0.87122 0.67854 0.0
O242 O 0.35259 0.89468 0.60526 0.0
O243 O 0.40745 0.94813 0.64211 0.0
C244 C 0.55158 0.91574 0.73208 0.0
C245 C 0.5323 0.90266 0.77607 0.0
H246 H 0.48481 0.87721 0.85551 0.0
H247 H 0.4155 0.87397 0.86545 0.0
H248 H 0.53929 0.95829 0.58392 0.0
H249 H 0.57827 0.94076 0.64268 0.0
H250 H 0.58112 0.91631 0.72527 0.0
H251 H 0.54728 0.89332 0.80242 0.0
Mn252 Mn 0.15807 0.48238 0.70676 0.0
Mn253 Mn 0.16362 0.40392 0.65422 0.0
C254 C 0.2199 0.47951 0.71136 0.0
C255 C 0.1649 0.54733 0.70275 0.0
C256 C 0.12213 0.39707 0.74833 0.0
O257 O 0.10754 0.45837 0.662 0.0
O258 O 0.11465 0.40735 0.62813 0.0
C259 C 0.18384 0.43731 0.55838 0.0
N260 N 0.19361 0.42219 0.59678 0.0
C261 C 0.25497 0.42711 0.55928 0.0
C262 C 0.24543 0.44247 0.5192 0.0
C263 C 0.20981 0.44777 0.51885 0.0
C264 C 0.22809 0.41748 0.59774 0.0
H265 H 0.15646 0.44138 0.55788 0.0
C266 C 0.09601 0.42854 0.63267 0.0
O267 O 0.14213 0.52207 0.73489 0.0
O268 O 0.18276 0.53457 0.67266 0.0
N269 N 0.20989 0.39722 0.67502 0.0
C270 C 0.21595 0.38425 0.71735 0.0
C271 C 0.25057 0.37791 0.72378 0.0
C272 C 0.27824 0.3845 0.6865 0.0
C273 C 0.27157 0.39818 0.64337 0.0
C274 C 0.23654 0.40396 0.63904 0.0
H275 H 0.1944 0.37858 0.74588 0.0
O276 O 0.21202 0.5011 0.74163 0.0
O277 O 0.19142 0.46064 0.67829 0.0
O278 O 0.12899 0.43387 0.75108 0.0
O279 O 0.13311 0.38262 0.71344 0.0
C280 C 0.29814 0.40618 0.60442 0.0
C281 C 0.29016 0.42113 0.56265 0.0
H282 H 0.26534 0.45047 0.4886 0.0
H283 H 0.20233 0.45978 0.48814 0.0
H284 H 0.25566 0.36753 0.75721 0.0
H285 H 0.30437 0.37878 0.69141 0.0
H286 H 0.32481 0.40097 0.606 0.0
H287 H 0.31125 0.42781 0.53328 0.0
Mn288 Mn 0.52187 0.67081 0.68596 0.0
Mn289 Mn 0.51657 0.58165 0.71368 0.0
C290 C 0.46082 0.60946 0.67047 0.0
C291 C 0.51365 0.72747 0.70121 0.0
C292 C 0.55819 0.62663 0.62634 0.0
O293 O 0.57061 0.69002 0.73259 0.0
O294 O 0.56773 0.62932 0.74193 0.0
C295 C 0.50312 0.5875 0.8158 0.0
N296 N 0.49063 0.56643 0.77383 0.0
C297 C 0.43151 0.50994 0.80971 0.0
C298 C 0.44388 0.53094 0.85333 0.0
C299 C 0.47978 0.56995 0.85634 0.0
C300 C 0.456 0.529 0.77051 0.0
H301 H 0.53065 0.61748 0.81841 0.0
C302 C 0.58505 0.66806 0.74934 0.0
O303 O 0.53897 0.72782 0.669 0.0
O304 O 0.49444 0.69476 0.72597 0.0
N305 N 0.46884 0.53258 0.69003 0.0
C306 C 0.45996 0.51724 0.64499 0.0
C307 C 0.4249 0.47847 0.63591 0.0
C308 C 0.39965 0.45584 0.67328 0.0
C309 C 0.40913 0.47235 0.71923 0.0
C310 C 0.44476 0.51089 0.72623 0.0
H311 H 0.47952 0.53445 0.61628 0.0
O312 O 0.46955 0.64172 0.64662 0.0
O313 O 0.48815 0.61384 0.70311 0.0
O314 O 0.55498 0.65811 0.6368 0.0
O315 O 0.54274 0.59455 0.65102 0.0
C316 C 0.3845 0.45217 0.75832 0.0
C317 C 0.39555 0.47106 0.80349 0.0
H318 H 0.42591 0.51752 0.88467 0.0
H319 H 0.48945 0.58644 0.88984 0.0
H320 H 0.41756 0.4659 0.6003 0.0
H321 H 0.3733 0.42566 0.66645 0.0
H322 H 0.35675 0.42233 0.75402 0.0
H323 H 0.37604 0.45552 0.83316 0.0
H324 H 0.17123 0.0925 0.09176 0.0
H325 H 0.214 0.11825 0.94867 0.0
H326 H 0.18129 0.16114 0.94054 0.0
H327 H 0.13237 0.18372 0.97084 0.0
H328 H 0.09231 0.16046 0.11477 0.0
H329 H 0.13185 0.12406 0.12592 0.0
C330 C 0.1741 0.10819 0.05916 0.0
C331 C 0.19434 0.10171 0.02068 0.0
C332 C 0.15512 0.1327 0.05464 0.0
C333 C 0.19839 0.12263 0.9788 0.0
C334 C 0.17938 0.14688 0.97393 0.0
C335 C 0.13309 0.17124 0.00475 0.0
C336 C 0.11005 0.17485 0.04207 0.0
C337 C 0.15633 0.15087 0.01103 0.0
C338 C 0.11051 0.15836 0.08584 0.0
C339 C 0.13292 0.13747 0.09215 0.0
H340 H 0.84798 0.95345 0.08114 0.0
H341 H 0.85141 0.95322 0.92947 0.0
H342 H 0.88269 0.02771 0.93057 0.0
H343 H 0.91918 0.09324 0.9749 0.0
H344 H 0.92433 0.09353 0.12653 0.0
H345 H 0.87911 0.01912 0.12551 0.0
C346 C 0.85447 0.96967 0.04835 0.0
C347 C 0.84727 0.94793 0.00526 0.0
C348 C 0.87447 0.01272 0.0494 0.0
C349 C 0.85664 0.96935 0.96304 0.0
C350 C 0.8747 0.01195 0.96369 0.0
C351 C 0.90921 0.07709 0.0077 0.0
C352 C 0.92473 0.09879 0.05075 0.0
C353 C 0.8852 0.03408 0.00668 0.0
C354 C 0.91253 0.07744 0.093 0.0
C355 C 0.88693 0.03487 0.09238 0.0
H356 H 0.95976 0.85466 0.07581 0.0
H357 H 0.93615 0.86156 0.92846 0.0
H358 H 0.01048 0.8872 0.9116 0.0
H359 H 0.0835 0.91554 0.94006 0.0
H360 H 0.1085 0.92137 0.08915 0.0
H361 H 0.03318 0.88182 0.10418 0.0
C362 C 0.97101 0.86111 0.04001 0.0
C363 C 0.94245 0.8546 0.00309 0.0
C364 C 0.01428 0.87792 0.03098 0.0
C365 C 0.95736 0.86451 0.95705 0.0
C366 C -6e-05 0.87966 0.94749 0.0
C367 C 0.07231 0.90717 0.97565 0.0
C368 C 0.10155 0.91954 0.01321 0.0
C369 C 0.02885 0.88733 0.9843 0.0
C370 C 0.08676 0.90992 0.05938 0.0
C371 C 0.04356 0.88819 0.0681 0.0
H372 H 0.85104 0.46826 0.4165 0.0
H373 H 0.85828 0.44543 0.26875 0.0
H374 H 0.82952 0.48986 0.24865 0.0
H375 H 0.79362 0.5279 0.27329 0.0
H376 H 0.76546 0.53013 0.41983 0.0
H377 H 0.81129 0.50253 0.44089 0.0
C378 C 0.84714 0.47389 0.37998 0.0
C379 C 0.85964 0.45613 0.34406 0.0
C380 C 0.82668 0.49615 0.36881 0.0
C381 C 0.85211 0.46151 0.29689 0.0
C382 C 0.83469 0.48614 0.28543 0.0
C383 C 0.79857 0.52331 0.30988 0.0
C384 C 0.77904 0.53428 0.34542 0.0
C385 C 0.82103 0.50296 0.32113 0.0
C386 C 0.78337 0.52569 0.39238 0.0
C387 C 0.80856 0.50864 0.40426 0.0
H388 H 0.51953 0.29126 0.27452 0.0
H389 H 0.50133 0.28527 0.42467 0.0
H390 H 0.53529 0.3598 0.43077 0.0
H391 H 0.57976 0.42669 0.39482 0.0
H392 H 0.59435 0.43291 0.2442 0.0
H393 H 0.55181 0.35838 0.23666 0.0
C394 C 0.52199 0.3063 0.30833 0.0
C395 C 0.50846 0.28292 0.34914 0.0
C396 C 0.54141 0.3492 0.31155 0.0
C397 C 0.51144 0.30261 0.39272 0.0
C398 C 0.53123 0.34528 0.39632 0.0
C399 C 0.57273 0.41168 0.36031 0.0
C400 C 0.5905 0.43498 0.32018 0.0
C401 C 0.54781 0.3689 0.35623 0.0
C402 C 0.58091 0.41548 0.27556 0.0
C403 C 0.55684 0.37286 0.27128 0.0
H404 H 0.62803 0.19367 0.42233 0.0
H405 H 0.60233 0.21266 0.27949 0.0
H406 H 0.67752 0.24707 0.26247 0.0
H407 H 0.75063 0.2788 0.29097 0.0
H408 H 0.77721 0.26001 0.43376 0.0
H409 H 0.70183 0.21735 0.44764 0.0
C410 C 0.63914 0.20483 0.38741 0.0
C411 C 0.61014 0.20049 0.35204 0.0
C412 C 0.68246 0.22455 0.37786 0.0
C413 C 0.6244 0.21528 0.30695 0.0
C414 C 0.66729 0.23505 0.29726 0.0
C415 C 0.73997 0.26468 0.32481 0.0
C416 C 0.76932 0.27313 0.36148 0.0
C417 C 0.69666 0.24078 0.33278 0.0
C418 C 0.75516 0.25418 0.40498 0.0
C419 C 0.71203 0.23007 0.41312 0.0
H420 H 0.41665 0.82456 0.72636 0.0
H421 H 0.45539 0.85402 0.58281 0.0
H422 H 0.50224 0.82469 0.59055 0.0
H423 H 0.5226 0.78113 0.63415 0.0
H424 H 0.47736 0.7454 0.77497 0.0
H425 H 0.44376 0.78803 0.77321 0.0
C426 C 0.43653 0.82573 0.6974 0.0
C427 C 0.43354 0.84198 0.6544 0.0
C428 C 0.46185 0.80742 0.70167 0.0
C429 C 0.45794 0.84208 0.61637 0.0
C430 C 0.48447 0.82522 0.6208 0.0
C431 C 0.50632 0.78353 0.6649 0.0
C432 C 0.50201 0.75989 0.70445 0.0
C433 C 0.48538 0.8064 0.66271 0.0
C434 C 0.48069 0.76306 0.74398 0.0
C435 C 0.46132 0.78722 0.74289 0.0
H436 H 0.24452 0.73625 0.73553 0.0
H437 H 0.23699 0.73204 0.58381 0.0
H438 H 0.19723 0.65723 0.5839 0.0
H439 H 0.17407 0.5934 0.62701 0.0
H440 H 0.17799 0.5974 0.77882 0.0
H441 H 0.20917 0.67194 0.77905 0.0
C442 C 0.23319 0.71888 0.7026 0.0
C443 C 0.24398 0.7394 0.6597 0.0
C444 C 0.21015 0.67594 0.703 0.0
C445 C 0.22891 0.71681 0.61723 0.0
C446 C 0.20652 0.67405 0.61727 0.0
C447 C 0.18089 0.61062 0.66008 0.0
C448 C 0.17435 0.59027 0.70283 0.0
C449 C 0.19837 0.65333 0.65988 0.0
C450 C 0.18276 0.61257 0.74553 0.0
C451 C 0.20086 0.65517 0.74564 0.0
H452 H 0.26784 0.49718 0.63356 0.0
H453 H 0.27064 0.4843 0.78371 0.0
H454 H 0.34776 0.52078 0.78397 0.0
H455 H 0.41258 0.56789 0.74339 0.0
H456 H 0.41092 0.57623 0.59251 0.0
H457 H 0.33457 0.52948 0.59022 0.0
C458 C 0.28527 0.50005 0.6658 0.0
C459 C 0.2637 0.48757 0.70844 0.0
C460 C 0.3296 0.52109 0.66563 0.0
C461 C 0.28674 0.49342 0.75044 0.0
C462 C 0.33076 0.51457 0.75066 0.0
C463 C 0.39596 0.55762 0.70981 0.0
C464 C 0.41741 0.57462 0.66812 0.0
C465 C 0.3524 0.53025 0.70878 0.0
C466 C 0.395 0.5631 0.62501 0.0
C467 C 0.35142 0.53647 0.62371 0.0
H468 H 0.05209 0.25941 0.89998 0.0
H469 H 0.12484 0.36452 0.99164 0.0
H470 H 0.13976 0.40995 0.92552 0.0
H471 H 0.1365 0.41973 0.84066 0.0
H472 H 0.06943 0.3146 0.74756 0.0
H473 H 0.04748 0.2694 0.81496 0.0
C474 C 0.07079 0.29228 0.90549 0.0
C475 C 0.08738 0.30854 0.95063 0.0
C476 C 0.08029 0.31826 0.86695 0.0
C477 C 0.11197 0.35119 0.95716 0.0
C478 C 0.12045 0.37723 0.91938 0.0
C479 C 0.11637 0.387 0.83529 0.0
C480 C 0.10426 0.37053 0.78932 0.0
C481 C 0.10534 0.36111 0.874 0.0
C482 C 0.07901 0.32797 0.7827 0.0
C483 C 0.06659 0.30212 0.82119 0.0
H484 H 0.74533 0.71852 0.87583 0.0
H485 H 0.71792 0.81244 0.92511 0.0
H486 H 0.65823 0.78679 0.869 0.0
H487 H 0.61318 0.73634 0.80664 0.0
H488 H 0.64201 0.64247 0.7611 0.0
H489 H 0.70239 0.67004 0.81502 0.0
C490 C 0.72657 0.73373 0.87459 0.0
C491 C 0.73625 0.76745 0.90487 0.0
C492 C 0.69263 0.71889 0.84268 0.0
C493 C 0.71116 0.78634 0.90241 0.0
C494 C 0.67711 0.77175 0.87023 0.0
C495 C 0.63303 0.72229 0.80829 0.0
C496 C 0.62316 0.6874 0.77992 0.0
C497 C 0.66752 0.73794 0.8402 0.0
C498 C 0.64878 0.66917 0.78272 0.0
C499 C 0.68331 0.68489 0.81354 0.0
H500 H 0.35091 0.97225 0.77827 0.0
H501 H 0.25249 0.84674 0.75867 0.0
H502 H 0.21679 0.85305 0.82822 0.0
H503 H 0.21607 0.89281 0.89754 0.0
H504 H 0.31137 0.01957 0.91445 0.0
H505 H 0.34613 0.01414 0.84323 0.0
C506 C 0.32133 0.94648 0.78887 0.0
C507 C 0.3045 0.90907 0.76346 0.0
C508 C 0.30082 0.95036 0.82877 0.0
C509 C 0.26598 0.876 0.77737 0.0
C510 C 0.24574 0.87944 0.81742 0.0
C511 C 0.24436 0.91922 0.88557 0.0
C512 C 0.26151 0.95636 0.91143 0.0
C513 C 0.26333 0.91619 0.84391 0.0
C514 C 0.29778 0.9906 0.8951 0.0
C515 C 0.3176 0.98752 0.85444 0.0
H516 H 0.42216 0.05473 0.21998 0.0
H517 H 0.38705 0.14426 0.2655 0.0
H518 H 0.33361 0.12078 0.20219 0.0
H519 H 0.29602 0.07355 0.13464 0.0
H520 H 0.33124 0.98352 0.09234 0.0
H521 H 0.38635 0.00926 0.15333 0.0
C522 C 0.4029 0.06927 0.21642 0.0
C523 C 0.40863 0.10118 0.24779 0.0
C524 C 0.37262 0.05584 0.18008 0.0
C525 C 0.3832 0.11945 0.24216 0.0
C526 C 0.3528 0.10619 0.20578 0.0
C527 C 0.31633 0.06016 0.13837 0.0
C528 C 0.30991 0.02692 0.10893 0.0
C529 C 0.34728 0.07442 0.17448 0.0
C530 C 0.33575 0.00919 0.11459 0.0
C531 C 0.36708 0.02375 0.14954 0.0
H532 H 0.96514 0.23648 0.16423 0.0
H533 H 0.07312 0.34928 0.12339 0.0
H534 H 0.0527 0.38814 0.17632 0.0
H535 H 0.00556 0.39035 0.2351 0.0
H536 H 0.89836 0.27818 0.27933 0.0
H537 H 0.91741 0.23889 0.22483 0.0
C538 C 0.98376 0.26958 0.16669 0.0
C539 C 0.02042 0.29006 0.13991 0.0
C540 C 0.97238 0.29183 0.19823 0.0
C541 C 0.04479 0.33289 0.1438 0.0
C542 C 0.03322 0.35514 0.1741 0.0
C543 C 0.98631 0.35729 0.23309 0.0
C544 C 0.95061 0.33739 0.26146 0.0
C545 C -0.00264 0.33493 0.2018 0.0
C546 C 0.92621 0.29443 0.25819 0.0
C547 C 0.93693 0.27189 0.2268 0.0
H548 H 0.71446 0.61295 0.19746 0.0
H549 H 0.77 0.71383 0.29834 0.0
H550 H 0.79247 0.76239 0.23453 0.0
H551 H 0.80168 0.77631 0.14958 0.0
H552 H 0.74963 0.67498 0.04926 0.0
H553 H 0.72029 0.62682 0.11305 0.0
C554 C 0.73088 0.64555 0.20557 0.0
C555 C 0.74058 0.65959 0.25269 0.0
C556 C 0.74468 0.67339 0.16863 0.0
C557 C 0.76228 0.70205 0.2624 0.0
C558 C 0.77521 0.72993 0.22589 0.0
C559 C 0.78331 0.74374 0.14174 0.0
C560 C 0.778 0.7293 0.09474 0.0
C561 C 0.76738 0.71598 0.17879 0.0
C562 C 0.75449 0.68692 0.08516 0.0
C563 C 0.73767 0.6593 0.12163 0.0
H564 H 0.09305 0.4846 0.57792 0.0
H565 H 0.02778 0.35591 0.60683 0.0
H566 H 0.97888 0.3428 0.54056 0.0
H567 H 0.95787 0.36758 0.47166 0.0
H568 H 0.02822 0.49541 0.43797 0.0
H569 H 0.07231 0.50932 0.50859 0.0
C570 C 0.06749 0.45387 0.57015 0.0
C571 C 0.06321 0.42129 0.59744 0.0
C572 C 0.04101 0.44642 0.53077 0.0
C573 C 0.03106 0.38138 0.58644 0.0
C574 C 0.0034 0.37392 0.54848 0.0
C575 C 0.98269 0.39853 0.47992 0.0
C576 C 0.98965 0.43043 0.44968 0.0
C577 C 0.00857 0.40612 0.51992 0.0
C578 C 0.02229 0.47028 0.46055 0.0
C579 C 0.04741 0.47829 0.50102 0.0
H580 H 0.68421 0.65696 0.46129 0.0
H581 H 0.58892 0.53373 0.42264 0.0
H582 H 0.54584 0.53326 0.4885 0.0
H583 H 0.53784 0.56605 0.56075 0.0
H584 H 0.63107 0.6905 0.59675 0.0
H585 H 0.67257 0.69229 0.52843 0.0
C586 C 0.65372 0.63024 0.46689 0.0
C587 C 0.63992 0.5954 0.4373 0.0
C588 C 0.62907 0.63019 0.50474 0.0
C589 C 0.60018 0.56109 0.44471 0.0
C590 C 0.57569 0.56062 0.48265 0.0
C591 C 0.56719 0.59351 0.55346 0.0
C592 C 0.58181 0.62787 0.58389 0.0
C593 C 0.59028 0.59464 0.51351 0.0
C594 C 0.61939 0.66364 0.57374 0.0
C595 C 0.64309 0.66467 0.53477 0.0
H596 H 0.41782 0.01505 0.60411 0.0
H597 H 0.36228 0.90572 0.51573 0.0
H598 H 0.38354 0.94719 0.44543 0.0
H599 H 0.42282 0.01457 0.4091 0.0
H600 H 0.47517 0.12391 0.49721 0.0
H601 H 0.45014 0.08248 0.56745 0.0
C602 C 0.4099 1.00033 0.56945 0.0
C603 C 0.38875 0.95735 0.56523 0.0
C604 C 0.42196 0.02437 0.52909 0.0
C605 C 0.37834 0.93873 0.52005 0.0
C606 C 0.39077 0.96243 0.47977 0.0
C607 C 0.4284 0.02926 0.44369 0.0
C608 C 0.45115 0.0722 0.44801 0.0
C609 C 0.41336 0.00526 0.48389 0.0
C610 C 0.45767 0.0909 0.49295 0.0
C611 C 0.44352 0.06723 0.53315 0.0
loop_
_geom_bond_atom_site_label_1
_geom_bond_atom_site_label_2
_geom_bond_distance
_geom_bond_site_symmetry_2
_ccdc_geom_bond_type
Mn0 O5 2.095 1_455 S
Mn0 O15 2.162 1_454 S
Mn0 O16 2.297 1_455 S
Mn0 O24 2.385 1_554 S
Mn0 O25 2.209 . S
Mn0 O26 2.094 1_554 S
Mn1 O6 2.121 . S
Mn1 N8 2.257 . S
Mn1 N17 2.282 . S
Mn1 O25 2.215 . S
Mn1 O27 2.117 1_554 S
C2 O24 1.234 1_554 S
C2 O25 1.283 . S
C3 O15 1.281 1_554 S
C3 O16 1.236 . S
C4 O26 1.240 . S
C4 O27 1.264 . S
O5 Mn0 2.095 1_655 S
O5 C14 1.250 1_655 S
O6 Mn1 2.121 . S
O6 C14 1.258 . S
C7 N8 1.326 . S
C7 C11 1.460 . S
C7 H13 0.929 . S
N8 Mn1 2.257 . S
N8 C7 1.326 . S
N8 C12 1.362 . S
C9 C10 1.258 . S
C9 C12 1.431 . S
C9 C29 1.449 . S
C10 C9 1.258 . S
C10 C11 1.477 . S
C10 H30 0.931 . S
C11 C7 1.460 . S
C11 C10 1.477 . S
C11 H31 0.930 . S
C12 N8 1.362 . S
C12 C9 1.431 . S
C12 C22 1.476 . S
H13 C7 0.929 . S
C14 O5 1.250 1_455 S
C14 O6 1.258 . S
O15 Mn0 2.162 1_656 S
O15 C3 1.281 1_556 S
O16 Mn0 2.297 1_655 S
O16 C3 1.236 . S
N17 Mn1 2.282 . S
N17 C18 1.328 1_554 S
N17 C22 1.318 . S
C18 N17 1.328 1_556 S
C18 C19 1.457 . S
C18 H23 0.929 . S
C19 C18 1.457 . S
C19 C20 1.291 . S
C19 H32 0.931 . S
C20 C19 1.291 . S
C20 C21 1.373 1_556 S
C20 H33 0.929 . S
C21 C20 1.373 1_554 S
C21 C22 1.396 . S
C21 C28 1.403 . S
C22 C12 1.476 . S
C22 N17 1.318 . S
C22 C21 1.396 . S
H23 C18 0.929 . S
O24 Mn0 2.385 1_556 S
O24 C2 1.234 1_556 S
O25 Mn0 2.209 . S
O25 Mn1 2.215 . S
O25 C2 1.283 . S
O26 Mn0 2.094 1_556 S
O26 C4 1.240 . S
O27 Mn1 2.117 1_556 S
O27 C4 1.264 . S
C28 C21 1.403 . S
C28 C29 1.399 . S
C28 H34 0.929 . S
C29 C9 1.449 . S
C29 C28 1.399 . S
C29 H35 0.930 . S
H30 C10 0.931 . S
H31 C11 0.930 . S
H32 C19 0.931 . S
H33 C20 0.929 . S
H34 C28 0.929 . S
H35 C29 0.930 . S
Mn36 O41 2.095 1_554 S
Mn36 O51 2.162 . S
Mn36 O52 2.297 1_554 S
Mn36 O60 2.385 . S
Mn36 O61 2.209 1_554 S
Mn36 O62 2.094 . S
Mn37 O42 2.121 . S
Mn37 N44 2.257 . S
Mn37 N53 2.282 1_556 S
Mn37 O61 2.215 . S
Mn37 O63 2.117 1_556 S
C38 O60 1.234 . S
C38 O61 1.283 1_554 S
C39 O51 1.281 . S
C39 O52 1.236 1_554 S
C40 O62 1.240 . S
C40 O63 1.264 . S
O41 Mn36 2.095 1_556 S
O41 C50 1.250 . S
O42 Mn37 2.121 . S
O42 C50 1.258 . S
C43 N44 1.326 . S
C43 C47 1.460 . S
C43 H49 0.929 . S
N44 Mn37 2.257 . S
N44 C43 1.326 . S
N44 C48 1.362 . S
C45 C46 1.258 . S
C45 C48 1.431 . S
C45 C65 1.449 . S
C46 C45 1.258 . S
C46 C47 1.477 . S
C46 H66 0.931 . S
C47 C43 1.460 . S
C47 C46 1.477 . S
C47 H67 0.930 . S
C48 N44 1.362 . S
C48 C45 1.431 . S
C48 C58 1.476 . S
H49 C43 0.929 . S
C50 O41 1.250 . S
C50 O42 1.258 . S
O51 Mn36 2.162 . S
O51 C39 1.281 . S
O52 Mn36 2.297 1_556 S
O52 C39 1.236 1_556 S
N53 Mn37 2.282 1_554 S
N53 C54 1.328 . S
N53 C58 1.318 1_554 S
C54 N53 1.328 . S
C54 C55 1.457 . S
C54 H59 0.929 . S
C55 C54 1.457 . S
C55 C56 1.291 . S
C55 H68 0.931 . S
C56 C55 1.291 . S
C56 C57 1.373 1_554 S
C56 H69 0.929 . S
C57 C56 1.373 1_556 S
C57 C58 1.396 . S
C57 C64 1.403 . S
C58 C48 1.476 . S
C58 N53 1.318 1_556 S
C58 C57 1.396 . S
H59 C54 0.929 . S
O60 Mn36 2.385 . S
O60 C38 1.234 . S
O61 Mn36 2.209 1_556 S
O61 Mn37 2.215 . S
O61 C38 1.283 1_556 S
O62 Mn36 2.094 . S
O62 C40 1.240 . S
O63 Mn37 2.117 1_554 S
O63 C40 1.264 . S
C64 C57 1.403 . S
C64 C65 1.399 . S
C64 H70 0.933 . S
C65 C45 1.449 . S
C65 C64 1.399 . S
C65 H71 0.930 . S
H66 C46 0.931 . S
H67 C47 0.930 . S
H68 C55 0.931 . S
H69 C56 0.929 . S
H70 C64 0.933 . S
H71 C65 0.930 . S
Mn72 O77 2.095 . S
Mn72 O87 2.162 1_554 S
Mn72 O88 2.297 . S
Mn72 O96 2.385 1_544 S
Mn72 O97 2.209 1_545 S
Mn72 O98 2.094 1_554 S
Mn73 O78 2.121 . S
Mn73 N80 2.257 . S
Mn73 N89 2.282 . S
Mn73 O97 2.215 . S
Mn73 O99 2.117 1_554 S
C74 O96 1.234 1_554 S
C74 O97 1.283 . S
C75 O87 1.281 1_554 S
C75 O88 1.236 . S
C76 O98 1.240 1_565 S
C76 O99 1.264 . S
O77 Mn72 2.095 . S
O77 C86 1.250 . S
O78 Mn73 2.121 . S
O78 C86 1.258 1_565 S
C79 N80 1.326 . S
C79 C83 1.460 . S
C79 H85 0.929 . S
N80 Mn73 2.257 . S
N80 C79 1.326 . S
N80 C84 1.362 . S
C81 C82 1.258 . S
C81 C84 1.431 . S
C81 C101 1.449 . S
C82 C81 1.258 . S
C82 C83 1.477 . S
C82 H102 0.931 . S
C83 C79 1.460 . S
C83 C82 1.477 . S
C83 H103 0.930 . S
C84 N80 1.362 . S
C84 C81 1.431 . S
C84 C94 1.476 . S
H85 C79 0.929 . S
C86 O77 1.250 . S
C86 O78 1.258 1_545 S
O87 Mn72 2.162 1_556 S
O87 C75 1.281 1_556 S
O88 Mn72 2.297 . S
O88 C75 1.236 . S
N89 Mn73 2.282 . S
N89 C90 1.328 1_554 S
N89 C94 1.318 . S
C90 N89 1.328 1_556 S
C90 C91 1.457 . S
C90 H95 0.929 . S
C91 C90 1.457 . S
C91 C92 1.291 . S
C91 H104 0.931 . S
C92 C91 1.291 . S
C92 C93 1.373 1_556 S
C92 H105 0.929 . S
C93 C92 1.373 1_554 S
C93 C94 1.396 . S
C93 C100 1.403 . S
C94 C84 1.476 . S
C94 N89 1.318 . S
C94 C93 1.396 . S
H95 C90 0.929 . S
O96 Mn72 2.385 1_566 S
O96 C74 1.234 1_556 S
O97 Mn72 2.209 1_565 S
O97 Mn73 2.215 . S
O97 C74 1.283 . S
O98 Mn72 2.094 1_556 S
O98 C76 1.240 1_545 S
O99 Mn73 2.117 1_556 S
O99 C76 1.264 . S
C100 C93 1.403 . S
C100 C101 1.399 . S
C100 H106 0.929 . S
C101 C81 1.449 . S
C101 C100 1.399 . S
C101 H107 0.930 . S
H102 C82 0.931 . S
H103 C83 0.930 . S
H104 C91 0.931 . S
H105 C92 0.929 . S
H106 C100 0.929 . S
H107 C101 0.930 . S
Mn108 O113 2.095 . S
Mn108 O123 2.162 . S
Mn108 O124 2.297 . S
Mn108 O132 2.385 . S
Mn108 O133 2.209 . S
Mn108 O134 2.094 . S
Mn109 O114 2.121 . S
Mn109 N116 2.257 . S
Mn109 N125 2.282 . S
Mn109 O133 2.215 . S
Mn109 O135 2.117 . S
C110 O132 1.234 . S
C110 O133 1.283 . S
C111 O123 1.281 . S
C111 O124 1.236 . S
C112 O134 1.240 . S
C112 O135 1.264 . S
O113 Mn108 2.095 . S
O113 C122 1.250 . S
O114 Mn109 2.121 . S
O114 C122 1.258 . S
C115 N116 1.326 . S
C115 C119 1.460 . S
C115 H121 0.929 . S
N116 Mn109 2.257 . S
N116 C115 1.326 . S
N116 C120 1.362 . S
C117 C118 1.258 . S
C117 C120 1.431 . S
C117 C137 1.449 . S
C118 C117 1.258 . S
C118 C119 1.477 . S
C118 H138 0.931 . S
C119 C115 1.460 . S
C119 C118 1.477 . S
C119 H139 0.930 . S
C120 N116 1.362 . S
C120 C117 1.431 . S
C120 C130 1.476 . S
H121 C115 0.929 . S
C122 O113 1.250 . S
C122 O114 1.258 . S
O123 Mn108 2.162 . S
O123 C111 1.281 . S
O124 Mn108 2.297 . S
O124 C111 1.236 . S
N125 Mn109 2.282 . S
N125 C126 1.328 . S
N125 C130 1.318 . S
C126 N125 1.328 . S
C126 C127 1.457 . S
C126 H131 0.929 . S
C127 C126 1.457 . S
C127 C128 1.291 . S
C127 H140 0.931 . S
C128 C127 1.291 . S
C128 C129 1.373 . S
C128 H141 0.929 . S
C129 C128 1.373 . S
C129 C130 1.396 . S
C129 C136 1.403 . S
C130 C120 1.476 . S
C130 N125 1.318 . S
C130 C129 1.396 . S
H131 C126 0.929 . S
O132 Mn108 2.385 . S
O132 C110 1.234 . S
O133 Mn108 2.209 . S
O133 Mn109 2.215 . S
O133 C110 1.283 . S
O134 Mn108 2.094 . S
O134 C112 1.240 . S
O135 Mn109 2.117 . S
O135 C112 1.264 . S
C136 C129 1.403 . S
C136 C137 1.399 . S
C136 H142 0.929 . S
C137 C117 1.449 . S
C137 C136 1.399 . S
C137 H143 0.930 . S
H138 C118 0.931 . S
H139 C119 0.930 . S
H140 C127 0.931 . S
H141 C128 0.929 . S
H142 C136 0.929 . S
H143 C137 0.930 . S
Mn144 O149 2.095 . S
Mn144 O159 2.162 . S
Mn144 O160 2.297 . S
Mn144 O168 2.385 . S
Mn144 O169 2.209 . S
Mn144 O170 2.094 . S
Mn145 O150 2.121 . S
Mn145 N152 2.257 . S
Mn145 N161 2.282 . S
Mn145 O169 2.215 . S
Mn145 O171 2.117 . S
C146 O168 1.234 . S
C146 O169 1.283 . S
C147 O159 1.281 . S
C147 O160 1.236 . S
C148 O170 1.240 . S
C148 O171 1.264 . S
O149 Mn144 2.095 . S
O149 C158 1.250 . S
O150 Mn145 2.121 . S
O150 C158 1.258 . S
C151 N152 1.326 . S
C151 C155 1.460 . S
C151 H157 0.929 . S
N152 Mn145 2.257 . S
N152 C151 1.326 . S
N152 C156 1.362 . S
C153 C154 1.258 . S
C153 C156 1.431 . S
C153 C173 1.449 . S
C154 C153 1.258 . S
C154 C155 1.477 . S
C154 H174 0.931 . S
C155 C151 1.460 . S
C155 C154 1.477 . S
C155 H175 0.930 . S
C156 N152 1.362 . S
C156 C153 1.431 . S
C156 C166 1.476 . S
H157 C151 0.929 . S
C158 O149 1.250 . S
C158 O150 1.258 . S
O159 Mn144 2.162 . S
O159 C147 1.281 . S
O160 Mn144 2.297 . S
O160 C147 1.236 . S
N161 Mn145 2.282 . S
N161 C162 1.328 . S
N161 C166 1.318 . S
C162 N161 1.328 . S
C162 C163 1.457 . S
C162 H167 0.929 . S
C163 C162 1.457 . S
C163 C164 1.291 . S
C163 H176 0.931 . S
C164 C163 1.291 . S
C164 C165 1.373 . S
C164 H177 0.929 . S
C165 C164 1.373 . S
C165 C166 1.396 . S
C165 C172 1.403 . S
C166 C156 1.476 . S
C166 N161 1.318 . S
C166 C165 1.396 . S
H167 C162 0.929 . S
O168 Mn144 2.385 . S
O168 C146 1.234 . S
O169 Mn144 2.209 . S
O169 Mn145 2.215 . S
O169 C146 1.283 . S
O170 Mn144 2.094 . S
O170 C148 1.240 . S
O171 Mn145 2.117 . S
O171 C148 1.264 . S
C172 C165 1.403 . S
C172 C173 1.399 . S
C172 H178 0.929 . S
C173 C153 1.449 . S
C173 C172 1.399 . S
C173 H179 0.930 . S
H174 C154 0.931 . S
H175 C155 0.930 . S
H176 C163 0.931 . S
H177 C164 0.929 . S
H178 C172 0.929 . S
H179 C173 0.930 . S
Mn180 O185 2.095 . S
Mn180 O195 2.162 . S
Mn180 O196 2.297 . S
Mn180 O204 2.385 . S
Mn180 O205 2.209 . S
Mn180 O206 2.094 . S
Mn181 O186 2.121 . S
Mn181 N188 2.257 . S
Mn181 N197 2.282 . S
Mn181 O205 2.215 . S
Mn181 O207 2.117 . S
C182 O204 1.234 . S
C182 O205 1.283 . S
C183 O195 1.281 . S
C183 O196 1.236 . S
C184 O206 1.240 . S
C184 O207 1.264 . S
O185 Mn180 2.095 . S
O185 C194 1.250 . S
O186 Mn181 2.121 . S
O186 C194 1.258 . S
C187 N188 1.326 . S
C187 C191 1.460 . S
C187 H193 0.929 . S
N188 Mn181 2.257 . S
N188 C187 1.326 . S
N188 C192 1.362 . S
C189 C190 1.258 . S
C189 C192 1.431 . S
C189 C209 1.449 . S
C190 C189 1.258 . S
C190 C191 1.477 . S
C190 H210 0.931 . S
C191 C187 1.460 . S
C191 C190 1.477 . S
C191 H211 0.930 . S
C192 N188 1.362 . S
C192 C189 1.431 . S
C192 C202 1.476 . S
H193 C187 0.929 . S
C194 O185 1.250 . S
C194 O186 1.258 . S
O195 Mn180 2.162 . S
O195 C183 1.281 . S
O196 Mn180 2.297 . S
O196 C183 1.236 . S
N197 Mn181 2.282 . S
N197 C198 1.328 . S
N197 C202 1.318 . S
C198 N197 1.328 . S
C198 C199 1.457 . S
C198 H203 0.929 . S
C199 C198 1.457 . S
C199 C200 1.291 . S
C199 H212 0.931 . S
C200 C199 1.291 . S
C200 C201 1.373 . S
C200 H213 0.929 . S
C201 C200 1.373 . S
C201 C202 1.396 . S
C201 C208 1.403 . S
C202 C192 1.476 . S
C202 N197 1.318 . S
C202 C201 1.396 . S
H203 C198 0.929 . S
O204 Mn180 2.385 . S
O204 C182 1.234 . S
O205 Mn180 2.209 . S
O205 Mn181 2.215 . S
O205 C182 1.283 . S
O206 Mn180 2.094 . S
O206 C184 1.240 . S
O207 Mn181 2.117 . S
O207 C184 1.264 . S
C208 C201 1.403 . S
C208 C209 1.399 . S
C208 H214 0.929 . S
C209 C189 1.449 . S
C209 C208 1.399 . S
C209 H215 0.930 . S
H210 C190 0.931 . S
H211 C191 0.930 . S
H212 C199 0.931 . S
H213 C200 0.929 . S
H214 C208 0.929 . S
H215 C209 0.930 . S
Mn216 O221 2.095 . S
Mn216 O231 2.162 . S
Mn216 O232 2.297 . S
Mn216 O240 2.385 . S
Mn216 O241 2.209 . S
Mn216 O242 2.094 . S
Mn217 O222 2.121 . S
Mn217 N224 2.257 . S
Mn217 N233 2.282 . S
Mn217 O241 2.215 . S
Mn217 O243 2.117 . S
C218 O240 1.234 . S
C218 O241 1.283 . S
C219 O231 1.281 . S
C219 O232 1.236 . S
C220 O242 1.240 . S
C220 O243 1.264 . S
O221 Mn216 2.095 . S
O221 C230 1.250 . S
O222 Mn217 2.121 . S
O222 C230 1.258 . S
C223 N224 1.326 . S
C223 C227 1.460 . S
C223 H229 0.929 . S
N224 Mn217 2.257 . S
N224 C223 1.326 . S
N224 C228 1.362 . S
C225 C226 1.258 . S
C225 C228 1.431 . S
C225 C245 1.449 . S
C226 C225 1.258 . S
C226 C227 1.477 . S
C226 H246 0.931 . S
C227 C223 1.460 . S
C227 C226 1.477 . S
C227 H247 0.930 . S
C228 N224 1.362 . S
C228 C225 1.431 . S
C228 C238 1.476 . S
H229 C223 0.929 . S
C230 O221 1.250 . S
C230 O222 1.258 . S
O231 Mn216 2.162 . S
O231 C219 1.281 . S
O232 Mn216 2.297 . S
O232 C219 1.236 . S
N233 Mn217 2.282 . S
N233 C234 1.328 . S
N233 C238 1.318 . S
C234 N233 1.328 . S
C234 C235 1.457 . S
C234 H239 0.929 . S
C235 C234 1.457 . S
C235 C236 1.291 . S
C235 H248 0.931 . S
C236 C235 1.291 . S
C236 C237 1.373 . S
C236 H249 0.929 . S
C237 C236 1.373 . S
C237 C238 1.396 . S
C237 C244 1.403 . S
C238 C228 1.476 . S
C238 N233 1.318 . S
C238 C237 1.396 . S
H239 C234 0.929 . S
O240 Mn216 2.385 . S
O240 C218 1.234 . S
O241 Mn216 2.209 . S
O241 Mn217 2.215 . S
O241 C218 1.283 . S
O242 Mn216 2.094 . S
O242 C220 1.240 . S
O243 Mn217 2.117 . S
O243 C220 1.264 . S
C244 C237 1.403 . S
C244 C245 1.399 . S
C244 H250 0.929 . S
C245 C225 1.449 . S
C245 C244 1.399 . S
C245 H251 0.930 . S
H246 C226 0.931 . S
H247 C227 0.930 . S
H248 C235 0.931 . S
H249 C236 0.929 . S
H250 C244 0.929 . S
H251 C245 0.930 . S
Mn252 O257 2.095 . S
Mn252 O267 2.162 . S
Mn252 O268 2.297 . S
Mn252 O276 2.385 . S
Mn252 O277 2.209 . S
Mn252 O278 2.094 . S
Mn253 O258 2.121 . S
Mn253 N260 2.257 . S
Mn253 N269 2.282 . S
Mn253 O277 2.215 . S
Mn253 O279 2.117 . S
C254 O276 1.234 . S
C254 O277 1.283 . S
C255 O267 1.281 . S
C255 O268 1.236 . S
C256 O278 1.240 . S
C256 O279 1.264 . S
O257 Mn252 2.095 . S
O257 C266 1.250 . S
O258 Mn253 2.121 . S
O258 C266 1.258 . S
C259 N260 1.326 . S
C259 C263 1.460 . S
C259 H265 0.929 . S
N260 Mn253 2.257 . S
N260 C259 1.326 . S
N260 C264 1.362 . S
C261 C262 1.258 . S
C261 C264 1.431 . S
C261 C281 1.449 . S
C262 C261 1.258 . S
C262 C263 1.477 . S
C262 H282 0.931 . S
C263 C259 1.460 . S
C263 C262 1.477 . S
C263 H283 0.930 . S
C264 N260 1.362 . S
C264 C261 1.431 . S
C264 C274 1.476 . S
H265 C259 0.929 . S
C266 O257 1.250 . S
C266 O258 1.258 . S
O267 Mn252 2.162 . S
O267 C255 1.281 . S
O268 Mn252 2.297 . S
O268 C255 1.236 . S
N269 Mn253 2.282 . S
N269 C270 1.328 . S
N269 C274 1.318 . S
C270 N269 1.328 . S
C270 C271 1.457 . S
C270 H275 0.929 . S
C271 C270 1.457 . S
C271 C272 1.291 . S
C271 H284 0.931 . S
C272 C271 1.291 . S
C272 C273 1.373 . S
C272 H285 0.929 . S
C273 C272 1.373 . S
C273 C274 1.396 . S
C273 C280 1.403 . S
C274 C264 1.476 . S
C274 N269 1.318 . S
C274 C273 1.396 . S
H275 C270 0.929 . S
O276 Mn252 2.385 . S
O276 C254 1.234 . S
O277 Mn252 2.209 . S
O277 Mn253 2.215 . S
O277 C254 1.283 . S
O278 Mn252 2.094 . S
O278 C256 1.240 . S
O279 Mn253 2.117 . S
O279 C256 1.264 . S
C280 C273 1.403 . S
C280 C281 1.399 . S
C280 H286 0.929 . S
C281 C261 1.449 . S
C281 C280 1.399 . S
C281 H287 0.930 . S
H282 C262 0.931 . S
H283 C263 0.930 . S
H284 C271 0.931 . S
H285 C272 0.929 . S
H286 C280 0.929 . S
H287 C281 0.930 . S
Mn288 O293 2.095 . S
Mn288 O303 2.162 . S
Mn288 O304 2.297 . S
Mn288 O312 2.385 . S
Mn288 O313 2.209 . S
Mn288 O314 2.094 . S
Mn289 O294 2.121 . S
Mn289 N296 2.257 . S
Mn289 N305 2.282 . S
Mn289 O313 2.215 . S
Mn289 O315 2.117 . S
C290 O312 1.234 . S
C290 O313 1.283 . S
C291 O303 1.281 . S
C291 O304 1.236 . S
C292 O314 1.240 . S
C292 O315 1.264 . S
O293 Mn288 2.095 . S
O293 C302 1.250 . S
O294 Mn289 2.121 . S
O294 C302 1.258 . S
C295 N296 1.326 . S
C295 C299 1.460 . S
C295 H301 0.929 . S
N296 Mn289 2.257 . S
N296 C295 1.326 . S
N296 C300 1.362 . S
C297 C298 1.258 . S
C297 C300 1.431 . S
C297 C317 1.449 . S
C298 C297 1.258 . S
C298 C299 1.477 . S
C298 H318 0.931 . S
C299 C295 1.460 . S
C299 C298 1.477 . S
C299 H319 0.930 . S
C300 N296 1.362 . S
C300 C297 1.431 . S
C300 C310 1.476 . S
H301 C295 0.929 . S
C302 O293 1.250 . S
C302 O294 1.258 . S
O303 Mn288 2.162 . S
O303 C291 1.281 . S
O304 Mn288 2.297 . S
O304 C291 1.236 . S
N305 Mn289 2.282 . S
N305 C306 1.328 . S
N305 C310 1.318 . S
C306 N305 1.328 . S
C306 C307 1.457 . S
C306 H311 0.929 . S
C307 C306 1.457 . S
C307 C308 1.291 . S
C307 H320 0.931 . S
C308 C307 1.291 . S
C308 C309 1.373 . S
C308 H321 0.929 . S
C309 C308 1.373 . S
C309 C310 1.396 . S
C309 C316 1.403 . S
C310 C300 1.476 . S
C310 N305 1.318 . S
C310 C309 1.396 . S
H311 C306 0.929 . S
O312 Mn288 2.385 . S
O312 C290 1.234 . S
O313 Mn288 2.209 . S
O313 Mn289 2.215 . S
O313 C290 1.283 . S
O314 Mn288 2.094 . S
O314 C292 1.240 . S
O315 Mn289 2.117 . S
O315 C292 1.264 . S
C316 C309 1.403 . S
C316 C317 1.399 . S
C316 H322 0.929 . S
C317 C297 1.449 . S
C317 C316 1.399 . S
C317 H323 0.930 . S
H318 C298 0.931 . S
H319 C299 0.930 . S
H320 C307 0.931 . S
H321 C308 0.929 . S
H322 C316 0.929 . S
H323 C317 0.930 . S
H324 C330 0.930 . S
H325 C333 0.930 . S
H326 C334 0.930 . S
H327 C335 0.930 1_556 S
H328 C338 0.930 . S
H329 C339 0.930 . S
C330 H324 0.930 . S
C330 C331 1.355 . S
C330 C332 1.415 . S
C331 C330 1.355 . S
C331 C333 1.419 1_554 S
C332 C330 1.415 . S
C332 C337 1.425 . S
C332 C339 1.409 . S
C333 H325 0.930 . S
C333 C331 1.419 1_556 S
C333 C334 1.362 . S
C334 H326 0.930 . S
C334 C333 1.362 . S
C334 C337 1.409 1_556 S
C335 H327 0.930 1_554 S
C335 C336 1.355 . S
C335 C337 1.415 . S
C336 C335 1.355 . S
C336 C338 1.419 . S
C337 C332 1.425 . S
C337 C334 1.409 1_554 S
C337 C335 1.415 . S
C338 H328 0.930 . S
C338 C336 1.419 . S
C338 C339 1.362 . S
C339 H329 0.930 . S
C339 C332 1.409 . S
C339 C338 1.362 . S
H340 C346 0.930 . S
H341 C349 0.930 1_556 S
H342 C350 0.930 . S
H343 C351 0.930 . S
H344 C354 0.930 . S
H345 C355 0.930 . S
C346 H340 0.930 . S
C346 C347 1.355 . S
C346 C348 1.415 1_565 S
C347 C346 1.355 . S
C347 C349 1.419 . S
C348 C346 1.415 1_545 S
C348 C353 1.425 . S
C348 C355 1.409 . S
C349 H341 0.930 1_554 S
C349 C347 1.419 . S
C349 C350 1.362 1_554 S
C350 H342 0.930 . S
C350 C349 1.362 1_556 S
C350 C353 1.409 1_566 S
C351 H343 0.930 . S
C351 C352 1.355 1_556 S
C351 C353 1.415 1_556 S
C352 C351 1.355 1_554 S
C352 C354 1.419 . S
C353 C348 1.425 . S
C353 C350 1.409 1_544 S
C353 C351 1.415 1_554 S
C354 H344 0.930 . S
C354 C352 1.419 . S
C354 C355 1.362 . S
C355 H345 0.930 . S
C355 C348 1.409 . S
C355 C354 1.362 . S
H356 C362 0.930 . S
H357 C365 0.931 . S
H358 C366 0.930 1_556 S
H359 C367 0.930 . S
H360 C370 0.930 . S
H361 C371 0.930 . S
C362 H356 0.930 . S
C362 C363 1.355 . S
C362 C364 1.415 1_655 S
C363 C362 1.355 . S
C363 C365 1.419 1_554 S
C364 C362 1.415 1_455 S
C364 C369 1.425 . S
C364 C371 1.409 . S
C365 H357 0.931 . S
C365 C363 1.419 1_556 S
C365 C366 1.362 1_656 S
C366 H358 0.930 1_554 S
C366 C365 1.362 1_454 S
C366 C369 1.409 . S
C367 H359 0.930 . S
C367 C368 1.355 . S
C367 C369 1.415 . S
C368 C367 1.355 . S
C368 C370 1.419 . S
C369 C364 1.425 . S
C369 C366 1.409 . S
C369 C367 1.415 . S
C370 H360 0.930 . S
C370 C368 1.419 . S
C370 C371 1.362 . S
C371 H361 0.930 . S
C371 C364 1.409 . S
C371 C370 1.362 . S
H372 C378 0.930 . S
H373 C381 0.930 . S
H374 C382 0.930 . S
H375 C383 0.930 . S
H376 C386 0.930 . S
H377 C387 0.930 . S
C378 H372 0.930 . S
C378 C379 1.355 . S
C378 C380 1.415 . S
C379 C378 1.355 . S
C379 C381 1.419 . S
C380 C378 1.415 . S
C380 C385 1.425 . S
C380 C387 1.409 . S
C381 H373 0.930 . S
C381 C379 1.419 . S
C381 C382 1.362 . S
C382 H374 0.930 . S
C382 C381 1.362 . S
C382 C385 1.409 . S
C383 H375 0.930 . S
C383 C384 1.355 . S
C383 C385 1.415 . S
C384 C383 1.355 . S
C384 C386 1.419 . S
C385 C380 1.425 . S
C385 C382 1.409 . S
C385 C383 1.415 . S
C386 H376 0.930 . S
C386 C384 1.419 . S
C386 C387 1.362 . S
C387 H377 0.930 . S
C387 C380 1.409 . S
C387 C386 1.362 . S
H388 C394 0.930 . S
H389 C397 0.930 . S
H390 C398 0.930 . S
H391 C399 0.930 . S
H392 C402 0.930 . S
H393 C403 0.930 . S
C394 H388 0.930 . S
C394 C395 1.355 . S
C394 C396 1.415 . S
C395 C394 1.355 . S
C395 C397 1.419 . S
C396 C394 1.415 . S
C396 C401 1.425 . S
C396 C403 1.409 . S
C397 H389 0.930 . S
C397 C395 1.419 . S
C397 C398 1.362 . S
C398 H390 0.930 . S
C398 C397 1.362 . S
C398 C401 1.409 . S
C399 H391 0.930 . S
C399 C400 1.355 . S
C399 C401 1.415 . S
C400 C399 1.355 . S
C400 C402 1.419 . S
C401 C396 1.425 . S
C401 C398 1.409 . S
C401 C399 1.415 . S
C402 H392 0.930 . S
C402 C400 1.419 . S
C402 C403 1.362 . S
C403 H393 0.930 . S
C403 C396 1.409 . S
C403 C402 1.362 . S
H404 C410 0.930 . S
H405 C413 0.930 . S
H406 C414 0.930 . S
H407 C415 0.930 . S
H408 C418 0.930 . S
H409 C419 0.930 . S
C410 H404 0.930 . S
C410 C411 1.355 . S
C410 C412 1.415 . S
C411 C410 1.355 . S
C411 C413 1.419 . S
C412 C410 1.415 . S
C412 C417 1.425 . S
C412 C419 1.409 . S
C413 H405 0.930 . S
C413 C411 1.419 . S
C413 C414 1.362 . S
C414 H406 0.930 . S
C414 C413 1.362 . S
C414 C417 1.409 . S
C415 H407 0.930 . S
C415 C416 1.355 . S
C415 C417 1.415 . S
C416 C415 1.355 . S
C416 C418 1.419 . S
C417 C412 1.425 . S
C417 C414 1.409 . S
C417 C415 1.415 . S
C418 H408 0.930 . S
C418 C416 1.419 . S
C418 C419 1.362 . S
C419 H409 0.930 . S
C419 C412 1.409 . S
C419 C418 1.362 . S
H420 C426 0.930 . S
H421 C429 0.930 . S
H422 C430 0.930 . S
H423 C431 0.930 . S
H424 C434 0.930 . S
H425 C435 0.930 . S
C426 H420 0.930 . S
C426 C427 1.355 . S
C426 C428 1.415 . S
C427 C426 1.355 . S
C427 C429 1.419 . S
C428 C426 1.415 . S
C428 C433 1.425 . S
C428 C435 1.409 . S
C429 H421 0.930 . S
C429 C427 1.419 . S
C429 C430 1.362 . S
C430 H422 0.930 . S
C430 C429 1.362 . S
C430 C433 1.409 . S
C431 H423 0.930 . S
C431 C432 1.355 . S
C431 C433 1.415 . S
C432 C431 1.355 . S
C432 C434 1.419 . S
C433 C428 1.425 . S
C433 C430 1.409 . S
C433 C431 1.415 . S
C434 H424 0.930 . S
C434 C432 1.419 . S
C434 C435 1.362 . S
C435 H425 0.930 . S
C435 C428 1.409 . S
C435 C434 1.362 . S
H436 C442 0.930 . S
H437 C445 0.930 . S
H438 C446 0.930 . S
H439 C447 0.930 . S
H440 C450 0.930 . S
H441 C451 0.930 . S
C442 H436 0.930 . S
C442 C443 1.355 . S
C442 C444 1.415 . S
C443 C442 1.355 . S
C443 C445 1.419 . S
C444 C442 1.415 . S
C444 C449 1.425 . S
C444 C451 1.409 . S
C445 H437 0.930 . S
C445 C443 1.419 . S
C445 C446 1.362 . S
C446 H438 0.930 . S
C446 C445 1.362 . S
C446 C449 1.409 . S
C447 H439 0.930 . S
C447 C448 1.355 . S
C447 C449 1.415 . S
C448 C447 1.355 . S
C448 C450 1.419 . S
C449 C444 1.425 . S
C449 C446 1.409 . S
C449 C447 1.415 . S
C450 H440 0.930 . S
C450 C448 1.419 . S
C450 C451 1.362 . S
C451 H441 0.930 . S
C451 C444 1.409 . S
C451 C450 1.362 . S
H452 C458 0.930 . S
H453 C461 0.930 . S
H454 C462 0.930 . S
H455 C463 0.930 . S
H456 C466 0.930 . S
H457 C467 0.930 . S
C458 H452 0.930 . S
C458 C459 1.355 . S
C458 C460 1.415 . S
C459 C458 1.355 . S
C459 C461 1.419 . S
C460 C458 1.415 . S
C460 C465 1.425 . S
C460 C467 1.409 . S
C461 H453 0.930 . S
C461 C459 1.419 . S
C461 C462 1.362 . S
C462 H454 0.930 . S
C462 C461 1.362 . S
C462 C465 1.409 . S
C463 H455 0.930 . S
C463 C464 1.355 . S
C463 C465 1.415 . S
C464 C463 1.355 . S
C464 C466 1.419 . S
C465 C460 1.425 . S
C465 C462 1.409 . S
C465 C463 1.415 . S
C466 H456 0.930 . S
C466 C464 1.419 . S
C466 C467 1.362 . S
C467 H457 0.930 . S
C467 C460 1.409 . S
C467 C466 1.362 . S
H468 C474 0.930 . S
H469 C477 0.930 . S
H470 C478 0.930 . S
H471 C479 0.930 . S
H472 C482 0.930 . S
H473 C483 0.930 . S
C474 H468 0.930 . S
C474 C475 1.355 . S
C474 C476 1.415 . S
C475 C474 1.355 . S
C475 C477 1.419 . S
C476 C474 1.415 . S
C476 C481 1.425 . S
C476 C483 1.409 . S
C477 H469 0.930 . S
C477 C475 1.419 . S
C477 C478 1.362 . S
C478 H470 0.930 . S
C478 C477 1.362 . S
C478 C481 1.409 . S
C479 H471 0.930 . S
C479 C480 1.355 . S
C479 C481 1.415 . S
C480 C479 1.355 . S
C480 C482 1.419 . S
C481 C476 1.425 . S
C481 C478 1.409 . S
C481 C479 1.415 . S
C482 H472 0.930 . S
C482 C480 1.419 . S
C482 C483 1.362 . S
C483 H473 0.930 . S
C483 C476 1.409 . S
C483 C482 1.362 . S
H484 C490 0.930 . S
H485 C493 0.930 . S
H486 C494 0.930 . S
H487 C495 0.930 . S
H488 C498 0.930 . S
H489 C499 0.930 . S
C490 H484 0.930 . S
C490 C491 1.355 . S
C490 C492 1.415 . S
C491 C490 1.355 . S
C491 C493 1.419 . S
C492 C490 1.415 . S
C492 C497 1.425 . S
C492 C499 1.409 . S
C493 H485 0.930 . S
C493 C491 1.419 . S
C493 C494 1.362 . S
C494 H486 0.930 . S
C494 C493 1.362 . S
C494 C497 1.409 . S
C495 H487 0.930 . S
C495 C496 1.355 . S
C495 C497 1.415 . S
C496 C495 1.355 . S
C496 C498 1.419 . S
C497 C492 1.425 . S
C497 C494 1.409 . S
C497 C495 1.415 . S
C498 H488 0.930 . S
C498 C496 1.419 . S
C498 C499 1.362 . S
C499 H489 0.930 . S
C499 C492 1.409 . S
C499 C498 1.362 . S
H500 C506 0.930 . S
H501 C509 0.930 . S
H502 C510 0.930 . S
H503 C511 0.930 . S
H504 C514 0.930 1_545 S
H505 C515 0.930 . S
C506 H500 0.930 . S
C506 C507 1.355 . S
C506 C508 1.415 . S
C507 C506 1.355 . S
C507 C509 1.419 . S
C508 C506 1.415 . S
C508 C513 1.425 . S
C508 C515 1.409 . S
C509 H501 0.930 . S
C509 C507 1.419 . S
C509 C510 1.362 . S
C510 H502 0.930 . S
C510 C509 1.362 . S
C510 C513 1.409 . S
C511 H503 0.930 . S
C511 C512 1.355 . S
C511 C513 1.415 . S
C512 C511 1.355 . S
C512 C514 1.419 . S
C513 C508 1.425 . S
C513 C510 1.409 . S
C513 C511 1.415 . S
C514 H504 0.930 1_565 S
C514 C512 1.419 . S
C514 C515 1.362 . S
C515 H505 0.930 . S
C515 C508 1.409 . S
C515 C514 1.362 . S
H516 C522 0.930 . S
H517 C525 0.930 . S
H518 C526 0.930 . S
H519 C527 0.930 . S
H520 C530 0.930 . S
H521 C531 0.930 . S
C522 H516 0.930 . S
C522 C523 1.355 . S
C522 C524 1.415 . S
C523 C522 1.355 . S
C523 C525 1.419 . S
C524 C522 1.415 . S
C524 C529 1.425 . S
C524 C531 1.409 . S
C525 H517 0.930 . S
C525 C523 1.419 . S
C525 C526 1.362 . S
C526 H518 0.930 . S
C526 C525 1.362 . S
C526 C529 1.409 . S
C527 H519 0.930 . S
C527 C528 1.355 . S
C527 C529 1.415 . S
C528 C527 1.355 . S
C528 C530 1.419 . S
C529 C524 1.425 . S
C529 C526 1.409 . S
C529 C527 1.415 . S
C530 H520 0.930 . S
C530 C528 1.419 . S
C530 C531 1.362 . S
C531 H521 0.930 . S
C531 C524 1.409 . S
C531 C530 1.362 . S
H532 C538 0.930 . S
H533 C541 0.954 . S
H534 C542 0.930 1_455 S
H535 C543 0.930 . S
H536 C546 0.930 . S
H537 C547 0.930 . S
C538 H532 0.930 . S
C538 C539 1.355 . S
C538 C540 1.415 . S
C539 C538 1.355 . S
C539 C541 1.407 1_655 S
C540 C538 1.415 . S
C540 C545 1.425 . S
C540 C547 1.409 . S
C541 H533 0.954 . S
C541 C539 1.407 1_455 S
C541 C542 1.351 1_455 S
C542 H534 0.930 1_655 S
C542 C541 1.351 1_655 S
C542 C545 1.409 . S
C543 H535 0.930 . S
C543 C544 1.355 . S
C543 C545 1.415 . S
C544 C543 1.355 . S
C544 C546 1.419 . S
C545 C540 1.425 . S
C545 C542 1.409 . S
C545 C543 1.415 . S
C546 H536 0.930 . S
C546 C544 1.419 . S
C546 C547 1.362 . S
C547 H537 0.930 . S
C547 C540 1.409 . S
C547 C546 1.362 . S
H548 C554 0.930 . S
H549 C557 0.930 . S
H550 C558 0.930 . S
H551 C559 0.930 . S
H552 C562 0.930 . S
H553 C563 0.930 . S
C554 H548 0.930 . S
C554 C555 1.355 . S
C554 C556 1.415 . S
C555 C554 1.355 . S
C555 C557 1.419 . S
C556 C554 1.415 . S
C556 C561 1.425 . S
C556 C563 1.409 . S
C557 H549 0.930 . S
C557 C555 1.419 . S
C557 C558 1.362 . S
C558 H550 0.930 . S
C558 C557 1.362 . S
C558 C561 1.409 . S
C559 H551 0.930 . S
C559 C560 1.355 . S
C559 C561 1.415 . S
C560 C559 1.355 . S
C560 C562 1.419 . S
C561 C556 1.425 . S
C561 C558 1.409 . S
C561 C559 1.415 . S
C562 H552 0.930 . S
C562 C560 1.419 . S
C562 C563 1.362 . S
C563 H553 0.930 . S
C563 C556 1.409 . S
C563 C562 1.362 . S
H564 C570 0.930 . S
H565 C573 0.930 . S
H566 C574 0.930 1_655 S
H567 C575 0.930 . S
H568 C578 0.930 . S
H569 C579 0.930 . S
C570 H564 0.930 . S
C570 C571 1.355 . S
C570 C572 1.415 . S
C571 C570 1.355 . S
C571 C573 1.419 . S
C572 C570 1.415 . S
C572 C577 1.425 . S
C572 C579 1.409 . S
C573 H565 0.930 . S
C573 C571 1.419 . S
C573 C574 1.362 . S
C574 H566 0.930 1_455 S
C574 C573 1.362 . S
C574 C577 1.409 . S
C575 H567 0.930 . S
C575 C576 1.355 . S
C575 C577 1.415 1_655 S
C576 C575 1.355 . S
C576 C578 1.419 1_655 S
C577 C572 1.425 . S
C577 C574 1.409 . S
C577 C575 1.415 1_455 S
C578 H568 0.930 . S
C578 C576 1.419 1_455 S
C578 C579 1.362 . S
C579 H569 0.930 . S
C579 C572 1.409 . S
C579 C578 1.362 . S
H580 C586 0.930 . S
H581 C589 0.930 . S
H582 C590 0.930 . S
H583 C591 0.930 . S
H584 C594 0.930 . S
H585 C595 0.930 . S
C586 H580 0.930 . S
C586 C587 1.355 . S
C586 C588 1.415 . S
C587 C586 1.355 . S
C587 C589 1.419 . S
C588 C586 1.415 . S
C588 C593 1.425 . S
C588 C595 1.409 . S
C589 H581 0.930 . S
C589 C587 1.419 . S
C589 C590 1.362 . S
C590 H582 0.930 . S
C590 C589 1.362 . S
C590 C593 1.409 . S
C591 H583 0.930 . S
C591 C592 1.355 . S
C591 C593 1.415 . S
C592 C591 1.355 . S
C592 C594 1.419 . S
C593 C588 1.425 . S
C593 C590 1.409 . S
C593 C591 1.415 . S
C594 H584 0.930 . S
C594 C592 1.419 . S
C594 C595 1.362 . S
C595 H585 0.930 . S
C595 C588 1.409 . S
C595 C594 1.362 . S
H596 C602 0.930 1_545 S
H597 C605 0.930 . S
H598 C606 0.930 . S
H599 C607 0.930 . S
H600 C610 0.930 . S
H601 C611 0.930 . S
C602 H596 0.930 1_565 S
C602 C603 1.355 . S
C602 C604 1.415 1_565 S
C603 C602 1.355 . S
C603 C605 1.419 . S
C604 C602 1.415 1_545 S
C604 C609 1.417 1_545 S
C604 C611 1.409 . S
C605 H597 0.930 . S
C605 C603 1.419 . S
C605 C606 1.362 . S
C606 H598 0.930 . S
C606 C605 1.362 . S
C606 C609 1.428 . S
C607 H599 0.930 . S
C607 C608 1.355 . S
C607 C609 1.404 1_545 S
C608 C607 1.355 . S
C608 C610 1.419 . S
C609 C604 1.417 1_565 S
C609 C606 1.428 . S
C609 C607 1.404 1_565 S
C610 H600 0.930 . S
C610 C608 1.419 . S
C610 C611 1.362 . S
C611 H601 0.930 . S
C611 C604 1.409 . S
C611 C610 1.362 . S
C331 C75 1.097 . S
C336 C2 1.055 . S
C347 C39 1.113 . S
C352 C3 1.057 . S
C363 C38 1.160 . S
C368 C74 1.107 . S
C379 C182 1.179 . S
C384 C110 1.130 . S
C395 C147 1.052 . S
C400 C111 1.060 . S
C411 C146 0.999 . S
C416 C183 1.098 . S
C427 C218 1.021 . S
C432 C291 1.103 . S
C443 C219 1.030 . S
C448 C255 0.985 . S
C459 C254 1.178 . S
C464 C290 1.120 . S
C475 C4 1.377 . S
C480 C256 1.395 . S
C491 C50 1.406 . S
C496 C302 1.348 . S
C507 C230 1.344 . S
C512 C76 1.371 . S
C523 C158 1.358 . S
C528 C86 1.293 . S
C539 C14 1.337 1_655 S
C544 C194 1.369 . S
C555 C112 1.400 . S
C560 C40 1.394 . S
C571 C266 1.362 . S
C576 C184 1.383 . S
C587 C122 1.421 . S
C592 C292 1.429 . S
C603 C220 1.392 . S
C608 C148 1.380 . S
