# Generated by pormake.
# Topology fcn, (5)-cn, num edge types: 1
# Building blocks:
#     Node 0, Type 0, BuildingBlock: XOMCOT_clean_sbu_0, # of connection points: 5
#     Node 1, Type 0, BuildingBlock: XOMCOT_clean_sbu_0, # of connection points: 5
#     Node 2, Type 0, BuildingBlock: XOMCOT_clean_sbu_0, # of connection points: 5
#     Node 3, Type 0, BuildingBlock: XOMCOT_clean_sbu_0, # of connection points: 5
#     Node 4, Type 0, BuildingBlock: XOMCOT_clean_sbu_0, # of connection points: 5
#     Node 5, Type 0, BuildingBlock: XOMCOT_clean_sbu_0, # of connection points: 5
#     Node 6, Type 0, BuildingBlock: XOMCOT_clean_sbu_0, # of connection points: 5
#     Node 7, Type 0, BuildingBlock: XOMCOT_clean_sbu_0, # of connection points: 5
#     Node 8, Type 0, BuildingBlock: XOMCOT_clean_sbu_0, # of connection points: 5
#     Node 9, Type 0, BuildingBlock: XOMCOT_clean_sbu_0, # of connection points: 5
#     Node 10, Type 0, BuildingBlock: XOMCOT_clean_sbu_0, # of connection points: 5
#     Node 11, Type 0, BuildingBlock: XOMCOT_clean_sbu_0, # of connection points: 5
#     Node 12, Type 0, BuildingBlock: XOMCOT_clean_sbu_0, # of connection points: 5
#     Node 13, Type 0, BuildingBlock: XOMCOT_clean_sbu_0, # of connection points: 5
#     Node 14, Type 0, BuildingBlock: XOMCOT_clean_sbu_0, # of connection points: 5
#     Node 15, Type 0, BuildingBlock: XOMCOT_clean_sbu_0, # of connection points: 5
#     Node 16, Type 0, BuildingBlock: XOMCOT_clean_sbu_0, # of connection points: 5
#     Node 17, Type 0, BuildingBlock: XOMCOT_clean_sbu_0, # of connection points: 5
#     Node 18, Type 0, BuildingBlock: XOMCOT_clean_sbu_0, # of connection points: 5
#     Node 19, Type 0, BuildingBlock: XOMCOT_clean_sbu_0, # of connection points: 5
#     Node 20, Type 0, BuildingBlock: XOMCOT_clean_sbu_0, # of connection points: 5
#     Node 21, Type 0, BuildingBlock: XOMCOT_clean_sbu_0, # of connection points: 5
#     Node 22, Type 0, BuildingBlock: XOMCOT_clean_sbu_0, # of connection points: 5
#     Node 23, Type 0, BuildingBlock: XOMCOT_clean_sbu_0, # of connection points: 5
#     Node 24, Type 0, BuildingBlock: XOMCOT_clean_sbu_0, # of connection points: 5
#     Node 25, Type 0, BuildingBlock: XOMCOT_clean_sbu_0, # of connection points: 5
#     Node 26, Type 0, BuildingBlock: XOMCOT_clean_sbu_0, # of connection points: 5
#     Node 27, Type 0, BuildingBlock: XOMCOT_clean_sbu_0, # of connection points: 5
#     Node 28, Type 0, BuildingBlock: XOMCOT_clean_sbu_0, # of connection points: 5
#     Node 29, Type 0, BuildingBlock: XOMCOT_clean_sbu_0, # of connection points: 5
#     Node 30, Type 0, BuildingBlock: XOMCOT_clean_sbu_0, # of connection points: 5
#     Node 31, Type 0, BuildingBlock: XOMCOT_clean_sbu_0, # of connection points: 5
#     Node 32, Type 0, BuildingBlock: XOMCOT_clean_sbu_0, # of connection points: 5
#     Node 33, Type 0, BuildingBlock: XOMCOT_clean_sbu_0, # of connection points: 5
#     Node 34, Type 0, BuildingBlock: XOMCOT_clean_sbu_0, # of connection points: 5
#     Node 35, Type 0, BuildingBlock: XOMCOT_clean_sbu_0, # of connection points: 5
#     Node 36, Type 0, BuildingBlock: XOMCOT_clean_sbu_0, # of connection points: 5
#     Node 37, Type 0, BuildingBlock: XOMCOT_clean_sbu_0, # of connection points: 5
#     Node 38, Type 0, BuildingBlock: XOMCOT_clean_sbu_0, # of connection points: 5
#     Node 39, Type 0, BuildingBlock: XOMCOT_clean_sbu_0, # of connection points: 5
#     Node 40, Type 0, BuildingBlock: XOMCOT_clean_sbu_0, # of connection points: 5
#     Node 41, Type 0, BuildingBlock: XOMCOT_clean_sbu_0, # of connection points: 5
#     Node 42, Type 0, BuildingBlock: XOMCOT_clean_sbu_0, # of connection points: 5
#     Node 43, Type 0, BuildingBlock: XOMCOT_clean_sbu_0, # of connection points: 5
#     Node 44, Type 0, BuildingBlock: XOMCOT_clean_sbu_0, # of connection points: 5
#     Node 45, Type 0, BuildingBlock: XOMCOT_clean_sbu_0, # of connection points: 5
#     Node 46, Type 0, BuildingBlock: XOMCOT_clean_sbu_0, # of connection points: 5
#     Node 47, Type 0, BuildingBlock: XOMCOT_clean_sbu_0, # of connection points: 5
#     Edge 48, Type (0, 0), None
#     Edge 49, Type (0, 0), None
#     Edge 50, Type (0, 0), None
#     Edge 51, Type (0, 0), None
#     Edge 52, Type (0, 0), None
#     Edge 53, Type (0, 0), None
#     Edge 54, Type (0, 0), None
#     Edge 55, Type (0, 0), None
#     Edge 56, Type (0, 0), None
#     Edge 57, Type (0, 0), None
#     Edge 58, Type (0, 0), None
#     Edge 59, Type (0, 0), None
#     Edge 60, Type (0, 0), None
#     Edge 61, Type (0, 0), None
#     Edge 62, Type (0, 0), None
#     Edge 63, Type (0, 0), None
#     Edge 64, Type (0, 0), None
#     Edge 65, Type (0, 0), None
#     Edge 66, Type (0, 0), None
#     Edge 67, Type (0, 0), None
#     Edge 68, Type (0, 0), None
#     Edge 69, Type (0, 0), None
#     Edge 70, Type (0, 0), None
#     Edge 71, Type (0, 0), None
#     Edge 72, Type (0, 0), None
#     Edge 73, Type (0, 0), None
#     Edge 74, Type (0, 0), None
#     Edge 75, Type (0, 0), None
#     Edge 76, Type (0, 0), None
#     Edge 77, Type (0, 0), None
#     Edge 78, Type (0, 0), None
#     Edge 79, Type (0, 0), None
#     Edge 80, Type (0, 0), None
#     Edge 81, Type (0, 0), None
#     Edge 82, Type (0, 0), None
#     Edge 83, Type (0, 0), None
#     Edge 84, Type (0, 0), None
#     Edge 85, Type (0, 0), None
#     Edge 86, Type (0, 0), None
#     Edge 87, Type (0, 0), None
#     Edge 88, Type (0, 0), None
#     Edge 89, Type (0, 0), None
#     Edge 90, Type (0, 0), None
#     Edge 91, Type (0, 0), None
#     Edge 92, Type (0, 0), None
#     Edge 93, Type (0, 0), None
#     Edge 94, Type (0, 0), None
#     Edge 95, Type (0, 0), None
#     Edge 96, Type (0, 0), None
#     Edge 97, Type (0, 0), None
#     Edge 98, Type (0, 0), None
#     Edge 99, Type (0, 0), None
#     Edge 100, Type (0, 0), None
#     Edge 101, Type (0, 0), None
#     Edge 102, Type (0, 0), None
#     Edge 103, Type (0, 0), None
#     Edge 104, Type (0, 0), None
#     Edge 105, Type (0, 0), None
#     Edge 106, Type (0, 0), None
#     Edge 107, Type (0, 0), None
#     Edge 108, Type (0, 0), None
#     Edge 109, Type (0, 0), None
#     Edge 110, Type (0, 0), None
#     Edge 111, Type (0, 0), None
#     Edge 112, Type (0, 0), None
#     Edge 113, Type (0, 0), None
#     Edge 114, Type (0, 0), None
#     Edge 115, Type (0, 0), None
#     Edge 116, Type (0, 0), None
#     Edge 117, Type (0, 0), None
#     Edge 118, Type (0, 0), None
#     Edge 119, Type (0, 0), None
#     Edge 120, Type (0, 0), None
#     Edge 121, Type (0, 0), None
#     Edge 122, Type (0, 0), None
#     Edge 123, Type (0, 0), None
#     Edge 124, Type (0, 0), None
#     Edge 125, Type (0, 0), None
#     Edge 126, Type (0, 0), None
#     Edge 127, Type (0, 0), None
#     Edge 128, Type (0, 0), None
#     Edge 129, Type (0, 0), None
#     Edge 130, Type (0, 0), None
#     Edge 131, Type (0, 0), None
#     Edge 132, Type (0, 0), None
#     Edge 133, Type (0, 0), None
#     Edge 134, Type (0, 0), None
#     Edge 135, Type (0, 0), None
#     Edge 136, Type (0, 0), None
#     Edge 137, Type (0, 0), None
#     Edge 138, Type (0, 0), None
#     Edge 139, Type (0, 0), None
#     Edge 140, Type (0, 0), None
#     Edge 141, Type (0, 0), None
#     Edge 142, Type (0, 0), None
#     Edge 143, Type (0, 0), None
#     Edge 144, Type (0, 0), None
#     Edge 145, Type (0, 0), None
#     Edge 146, Type (0, 0), None
#     Edge 147, Type (0, 0), None
#     Edge 148, Type (0, 0), None
#     Edge 149, Type (0, 0), None
#     Edge 150, Type (0, 0), None
#     Edge 151, Type (0, 0), None
#     Edge 152, Type (0, 0), None
#     Edge 153, Type (0, 0), None
#     Edge 154, Type (0, 0), None
#     Edge 155, Type (0, 0), None
#     Edge 156, Type (0, 0), None
#     Edge 157, Type (0, 0), None
#     Edge 158, Type (0, 0), None
#     Edge 159, Type (0, 0), None
#     Edge 160, Type (0, 0), None
#     Edge 161, Type (0, 0), None
#     Edge 162, Type (0, 0), None
#     Edge 163, Type (0, 0), None
#     Edge 164, Type (0, 0), None
#     Edge 165, Type (0, 0), None
#     Edge 166, Type (0, 0), None
#     Edge 167, Type (0, 0), None
# Relax obj value: 0.244
# Max RMSD: 0.220
# Mean RMSD: 0.220
data_MOF--net-fcn--node1-XOMCOT_clean_sbu_0--edge1-none
_symmetry_space_group_name_H-M    P1
_symmetry_Int_Tables_number       1
_symmetry_cell_setting            triclinic
loop_
_symmetry_equiv_pos_as_xyz
'x, y, z'
_cell_length_a     39.159882
_cell_length_b     39.013627
_cell_length_c     38.992519
_cell_angle_alpha  89.718366
_cell_angle_beta   90.128696
_cell_angle_gamma 89.420165
loop_
_atom_site_label
_atom_site_type_symbol
_atom_site_fract_x
_atom_site_fract_y
_atom_site_fract_z
_atom_type_partial_charge
Co0 Co 0.08854 0.18159 0.24028 0.0
C1 C 0.14781 0.13696 0.22512 0.0
C2 C 0.10414 0.1235 0.19517 0.0
C3 C 0.13215 0.10586 0.18302 0.0
N4 N 0.11358 0.14239 0.22232 0.0
N5 N 0.15949 0.11415 0.20214 0.0
H6 H 0.16468 0.15156 0.24099 0.0
H7 H 0.07954 0.1252 0.18283 0.0
C8 C 0.0363 0.12514 0.24347 0.0
O9 O 0.05854 0.10064 0.25018 0.0
N10 N 0.06527 0.22155 0.25734 0.0
C11 C 0.07899 0.24676 0.27627 0.0
C12 C 0.054 0.27108 0.28257 0.0
C13 C 0.0324 0.23075 0.25199 0.0
N14 N 0.02526 0.26103 0.26671 0.0
C15 C 0.13524 0.17006 0.29864 0.0
C16 C 0.08684 0.14031 0.34029 0.0
C17 C 0.12137 0.13497 0.3492 0.0
C18 C 0.14556 0.1522 0.32849 0.0
C19 C 0.07794 0.15741 0.30982 0.0
N20 N 0.10222 0.16912 0.28761 0.0
H21 H 0.15407 0.18365 0.28385 0.0
H22 H 0.05115 0.16038 0.30397 0.0
H23 H 0.10512 0.24707 0.28531 0.0
H24 H 0.01397 0.21548 0.23831 0.0
O25 O 0.12562 0.20999 0.22189 0.0
O26 O 0.07787 0.19626 0.19493 0.0
O27 O 0.04476 0.15638 0.24397 0.0
C28 C 0.1068 0.21139 0.19395 0.0
H29 H 0.13305 0.09124 0.15957 0.0
H30 H 0.05628 0.29368 0.29836 0.0
H31 H 0.06629 0.13081 0.35595 0.0
H32 H 0.17254 0.15133 0.33403 0.0
Co33 Co 0.10218 0.85019 0.5132 0.0
C34 C 0.13051 0.91452 0.48449 0.0
C35 C 0.17053 0.87925 0.49902 0.0
C36 C 0.18497 0.90835 0.48563 0.0
N37 N 0.13629 0.88256 0.49742 0.0
N38 N 0.15983 0.93046 0.47686 0.0
H39 H 0.10555 0.92558 0.47951 0.0
H40 H 0.1844 0.85768 0.50961 0.0
C41 C 0.15445 0.79347 0.50529 0.0
O42 O 0.18751 0.79061 0.50994 0.0
N43 N 0.06685 0.82026 0.52901 0.0
C44 C 0.04278 0.82772 0.55276 0.0
C45 C 0.02201 0.79978 0.5568 0.0
C46 C 0.05922 0.78898 0.51739 0.0
N47 N 0.03318 0.77573 0.53495 0.0
C48 C 0.11314 0.90118 0.56702 0.0
C49 C 0.12664 0.85206 0.61689 0.0
C50 C 0.13768 0.88555 0.62273 0.0
C51 C 0.12891 0.91069 0.59791 0.0
C52 C 0.11247 0.84349 0.58533 0.0
N53 N 0.10754 0.86749 0.56001 0.0
H54 H 0.108 0.9206 0.54787 0.0
H55 H 0.10777 0.8167 0.58048 0.0
H56 H 0.04059 0.85177 0.5663 0.0
H57 H 0.0706 0.77713 0.49522 0.0
O58 O 0.06664 0.87923 0.49208 0.0
O59 O 0.09357 0.83577 0.4671 0.0
O60 O 0.1392 0.81533 0.52448 0.0
C61 C 0.07096 0.86004 0.46492 0.0
H62 H 0.21199 0.91339 0.48345 0.0
H63 H 1.00073 0.79711 0.57425 0.0
H64 H 0.13097 0.83182 0.6355 0.0
H65 H 0.13633 0.93714 0.60084 0.0
Co66 Co 0.42878 0.8401 0.74494 0.0
C67 C 0.36839 0.88243 0.72712 0.0
C68 C 0.41225 0.89698 0.698 0.0
C69 C 0.38407 0.91392 0.68505 0.0
N70 N 0.40275 0.87784 0.72507 0.0
N71 N 0.35663 0.90499 0.70368 0.0
H72 H 0.35164 0.86751 0.74289 0.0
H73 H 0.43715 0.89611 0.68642 0.0
C74 C 0.47943 0.89859 0.747 0.0
O75 O 0.45679 0.92254 0.754 0.0
N76 N 0.45341 0.80167 0.76454 0.0
C77 C 0.44015 0.77208 0.77635 0.0
C78 C 0.46656 0.75091 0.78722 0.0
C79 C 0.4875 0.79843 0.76872 0.0
N80 N 0.49592 0.76799 0.78274 0.0
C81 C 0.38184 0.85279 0.80257 0.0
C82 C 0.43036 0.88274 0.84389 0.0
C83 C 0.39587 0.88781 0.85283 0.0
C84 C 0.37162 0.8706 0.83224 0.0
C85 C 0.43916 0.86576 0.81356 0.0
N86 N 0.41482 0.85379 0.79157 0.0
H87 H 0.36303 0.83895 0.78809 0.0
H88 H 0.46593 0.86298 0.80767 0.0
H89 H 0.41324 0.76609 0.77651 0.0
H90 H 0.50601 0.8171 0.76053 0.0
O91 O 0.39244 0.81002 0.7273 0.0
O92 O 0.43987 0.82394 0.70023 0.0
O93 O 0.47155 0.8672 0.74724 0.0
C94 C 0.41119 0.80832 0.69945 0.0
H95 H 0.38325 0.92867 0.66153 0.0
H96 H 0.4645 0.72507 0.79715 0.0
H97 H 0.45095 0.89232 0.85946 0.0
H98 H 0.34466 0.87138 0.83781 0.0
Co99 Co 0.41429 0.17232 0.01215 0.0
C100 C 0.38545 0.10861 0.98331 0.0
C101 C 0.34561 0.14357 0.99837 0.0
C102 C 0.331 0.11441 0.98545 0.0
N103 N 0.37983 0.14056 0.99598 0.0
N104 N 0.35608 0.09245 0.9765 0.0
H105 H 0.41034 0.09753 0.97824 0.0
H106 H 0.33189 0.16477 1.00957 0.0
C107 C 0.36289 0.2281 1.00095 0.0
O108 O 0.32955 0.22961 1.00346 0.0
N109 N 0.44998 0.20145 0.02863 0.0
C110 C 0.47356 0.19311 0.05277 0.0
C111 C 0.49489 0.22052 0.05738 0.0
C112 C 0.45834 0.23281 0.01746 0.0
N113 N 0.4846 0.24512 0.03544 0.0
C114 C 0.40282 0.12074 0.0657 0.0
C115 C 0.38819 0.16912 0.11543 0.0
C116 C 0.37762 0.13538 0.12113 0.0
C117 C 0.38691 0.11066 0.09635 0.0
C118 C 0.40261 0.17823 0.08409 0.0
N119 N 0.4081 0.15458 0.05883 0.0
H120 H 0.40845 0.1016 0.04661 0.0
H121 H 0.4073 0.20509 0.07936 0.0
H122 H 0.47502 0.16884 0.06625 0.0
H123 H 0.44734 0.24536 0.99534 0.0
O124 O 0.44957 0.14299 0.9914 0.0
O125 O 0.42345 0.18719 0.9663 0.0
O126 O 0.37805 0.20803 0.02231 0.0
C127 C 0.44565 0.16261 0.96425 0.0
H128 H 0.30395 0.10916 0.9839 0.0
H129 H 0.5158 0.22253 0.07543 0.0
H130 H 0.38347 0.18909 0.13402 0.0
H131 H 0.37988 0.08406 0.09914 0.0
Co132 Co 0.09471 0.83259 0.27275 0.0
C133 C 0.15834 0.87184 0.29242 0.0
C134 C 0.11305 0.88809 0.31826 0.0
C135 C 0.14024 0.90433 0.33262 0.0
N136 N 0.12356 0.86867 0.29182 0.0
N137 N 0.16877 0.89468 0.31611 0.0
H138 H 0.17611 0.85562 0.27908 0.0
H139 H 0.08845 0.88604 0.33019 0.0
C140 C 0.0426 0.88681 0.2828 0.0
O141 O 0.04716 0.9197 0.27793 0.0
N142 N 0.06695 0.79539 0.25595 0.0
C143 C 0.07642 0.77076 0.23364 0.0
C144 C 0.05052 0.74712 0.23129 0.0
C145 C 0.03596 0.78589 0.26759 0.0
N146 N 0.02567 0.75643 0.25323 0.0
C147 C 0.14547 0.84367 0.21699 0.0
C148 C 0.09611 0.86547 0.17089 0.0
C149 C 0.12983 0.87564 0.1648 0.0
C150 C 0.15502 0.86222 0.18743 0.0
C151 C 0.08782 0.84814 0.20117 0.0
N152 N 0.11193 0.84072 0.2257 0.0
H153 H 0.16503 0.83237 0.23288 0.0
H154 H 0.06123 0.84256 0.20569 0.0
H155 H 0.10038 0.77014 0.2199 0.0
H156 H 0.02154 0.79961 0.28671 0.0
O157 O 0.12638 0.79953 0.2939 0.0
O158 O 0.07968 0.82128 0.31794 0.0
O159 O 0.05737 0.86676 0.26175 0.0
C160 C 0.10616 0.80157 0.32061 0.0
H161 H 0.1397 0.91814 0.35657 0.0
H162 H 0.0494 0.72551 0.21404 0.0
H163 H 0.07564 0.87202 0.15333 0.0
H164 H 0.18186 0.8671 0.18362 0.0
Co165 Co 0.43151 0.85054 0.53525 0.0
C166 C 0.38878 0.91116 0.55168 0.0
C167 C 0.37316 0.86648 0.57944 0.0
C168 C 0.35607 0.89459 0.59214 0.0
N169 N 0.39303 0.87651 0.55323 0.0
N170 N 0.36549 0.92258 0.57432 0.0
H171 H 0.40464 0.92829 0.53725 0.0
H172 H 0.37409 0.84136 0.59111 0.0
C173 C 0.37545 0.79678 0.53286 0.0
O174 O 0.35042 0.81808 0.52512 0.0
N175 N 0.47079 0.82597 0.51843 0.0
C176 C 0.49597 0.83835 0.49858 0.0
C177 C 0.5195 0.8124 0.49304 0.0
C178 C 0.4793 0.79299 0.52508 0.0
N179 N 0.50915 0.78443 0.51037 0.0
C180 C 0.41497 0.89529 0.47562 0.0
C181 C 0.39079 0.84278 0.43534 0.0
C182 C 0.38207 0.87649 0.42532 0.0
C183 C 0.39625 0.90295 0.44549 0.0
C184 C 0.40868 0.83642 0.46604 0.0
N185 N 0.41797 0.86243 0.48748 0.0
H186 H 0.42646 0.91596 0.48953 0.0
H187 H 0.41415 0.81009 0.47285 0.0
H188 H 0.49666 0.86411 0.48824 0.0
H189 H 0.4637 0.77536 0.53954 0.0
O190 O 0.46075 0.88806 0.55199 0.0
O191 O 0.44696 0.84118 0.58063 0.0
O192 O 0.40616 0.80658 0.53357 0.0
C193 C 0.46274 0.86982 0.58037 0.0
H194 H 0.3414 0.89505 0.61551 0.0
H195 H 0.54156 0.81339 0.4764 0.0
H196 H 0.38341 0.82093 0.42024 0.0
H197 H 0.39227 0.92966 0.43916 0.0
Co198 Co 0.42209 0.18737 0.7684 0.0
C199 C 0.35811 0.14862 0.78915 0.0
C200 C 0.40332 0.13394 0.81644 0.0
C201 C 0.3763 0.11745 0.8308 0.0
N202 N 0.39277 0.15256 0.7892 0.0
N203 N 0.34786 0.12609 0.8134 0.0
H204 H 0.34023 0.16372 0.77448 0.0
H205 H 0.42792 0.13633 0.82843 0.0
C206 C 0.4736 0.1325 0.78112 0.0
O207 O 0.47059 0.09932 0.7772 0.0
N208 N 0.45087 0.22296 0.74949 0.0
C209 C 0.44386 0.24599 0.72434 0.0
C210 C 0.47192 0.26696 0.71993 0.0
C211 C 0.48232 0.23083 0.76069 0.0
N212 N 0.49588 0.25686 0.74271 0.0
C213 C 0.371 0.17602 0.71291 0.0
C214 C 0.42001 0.15288 0.66749 0.0
C215 C 0.38609 0.14353 0.66127 0.0
C216 C 0.36111 0.1576 0.68353 0.0
C217 C 0.42863 0.16977 0.69768 0.0
N218 N 0.40459 0.17808 0.72181 0.0
H219 H 0.35171 0.18791 0.72851 0.0
H220 H 0.45536 0.17453 0.70236 0.0
H221 H 0.42012 0.2474 0.71014 0.0
H222 H 0.49434 0.21908 0.78271 0.0
O223 O 0.39126 0.22198 0.78806 0.0
O224 O 0.43745 0.20008 0.8132 0.0
O225 O 0.45821 0.1514 0.75914 0.0
C226 C 0.41128 0.2203 0.81505 0.0
H227 H 0.3768 0.10402 0.85511 0.0
H228 H 0.47465 0.2875 0.70141 0.0
H229 H 0.44042 0.14595 0.65017 0.0
H230 H 0.33417 0.15337 0.67957 0.0
Co231 Co 0.08578 0.16888 0.0299 0.0
C232 C 0.1266 0.1075 0.04971 0.0
C233 C 0.14293 0.15248 0.07622 0.0
C234 C 0.15961 0.12435 0.0898 0.0
N235 N 0.12291 0.14225 0.05023 0.0
N236 N 0.14981 0.09616 0.07272 0.0
H237 H 0.11053 0.09038 0.03558 0.0
H238 H 0.1427 0.17791 0.08693 0.0
C239 C 0.14348 0.22151 0.02817 0.0
O240 O 0.16827 0.19993 0.02078 0.0
N241 N 0.0479 0.19407 1.00994 0.0
C242 C 0.01985 0.18104 0.99485 0.0
C243 C 0.99958 0.20784 0.98301 0.0
C244 C 0.04458 0.2284 1.00697 0.0
N245 N 0.0157 0.23723 0.99034 0.0
C246 C 0.10405 0.12335 0.97176 0.0
C247 C 0.12686 0.17608 0.93049 0.0
C248 C 0.13568 0.14248 0.9208 0.0
C249 C 0.12236 0.11585 0.94152 0.0
C250 C 0.10962 0.1823 0.96132 0.0
N251 N 0.10072 0.15625 0.98309 0.0
H252 H 0.09298 0.10259 0.98597 0.0
H253 H 0.10419 0.20861 0.96789 0.0
H254 H 0.01457 0.15399 0.99254 0.0
H255 H 0.06235 0.24673 0.01724 0.0
O256 O 0.05502 0.13231 0.0468 0.0
O257 O 0.06876 0.17947 0.07435 0.0
O258 O 0.11265 0.21204 0.02872 0.0
C259 C 0.05268 0.15103 0.07465 0.0
H260 H 0.17448 0.12414 0.11311 0.0
H261 H 0.97523 0.20598 0.97 0.0
H262 H 0.13366 0.19799 0.91501 0.0
H263 H 0.12665 0.08918 0.93548 0.0
Co264 Co 0.24602 0.09187 0.17792 0.0
C265 C 0.23078 0.15939 0.14437 0.0
C266 C 0.24333 0.12114 0.10682 0.0
C267 C 0.2364 0.15183 0.09027 0.0
N268 N 0.23914 0.12555 0.14084 0.0
N269 N 0.229 0.17595 0.11393 0.0
H270 H 0.22466 0.17142 0.16857 0.0
H271 H 0.24995 0.09724 0.09453 0.0
C272 C 0.25832 0.02745 0.13195 0.0
O273 O 0.28107 0.01433 0.11097 0.0
N274 N 0.25352 0.06152 0.21762 0.0
C275 C 0.27196 0.07176 0.24503 0.0
C276 C 0.27221 0.04661 0.2697 0.0
C277 C 0.2411 0.03056 0.2273 0.0
N278 N 0.2527 0.02081 0.25873 0.0
C279 C 0.30026 0.14208 0.17939 0.0
C280 C 0.34861 0.09346 0.16109 0.0
C281 C 0.35288 0.12723 0.14943 0.0
C282 C 0.32957 0.15221 0.16164 0.0
C283 C 0.31851 0.08452 0.17795 0.0
N284 N 0.29296 0.10818 0.18268 0.0
H285 H 0.28168 0.16127 0.18666 0.0
H286 H 0.31394 0.05766 0.18293 0.0
H287 H 0.28498 0.09597 0.24692 0.0
H288 H 0.22294 0.01605 0.21284 0.0
O289 O 0.21865 0.12111 0.20812 0.0
O290 O 0.19885 0.07979 0.17491 0.0
O291 O 0.26416 0.05764 0.14323 0.0
C292 C 0.19238 0.10459 0.19585 0.0
H293 H 0.23616 0.15593 0.06277 0.0
H294 H 0.2872 0.04632 0.29306 0.0
H295 H 0.36681 0.07343 0.15478 0.0
H296 H 0.33177 0.17901 0.15495 0.0
Co297 Co 0.17261 1.00684 0.42586 0.0
C298 C 0.10653 0.97999 0.39875 0.0
C299 C 0.14173 0.99044 0.35787 0.0
C300 C 0.11135 0.97927 0.34405 0.0
N301 N 0.13914 0.99035 0.39232 0.0
N302 N 0.08918 0.97288 0.36972 0.0
H303 H 0.09584 0.97682 0.4241 0.0
H304 H 0.16403 0.99791 0.34353 0.0
C305 C 0.23525 1.00509 0.37783 0.0
O306 O 0.25131 0.02274 0.35423 0.0
N307 N 0.20365 0.02321 0.4619 0.0
C308 C 0.19764 0.0506 0.48222 0.0
C309 C 0.22123 0.051 0.50845 0.0
C310 C 0.22997 1.00634 0.47774 0.0
N311 N 0.24112 0.02285 0.50603 0.0
C312 C 0.12007 0.05957 0.4137 0.0
C313 C 0.1661 0.10653 0.38841 0.0
C314 C 0.13184 0.11006 0.37778 0.0
C315 C 0.10847 0.08692 0.39287 0.0
C316 C 0.17663 0.0783 0.40829 0.0
N317 N 0.15415 0.05359 0.41838 0.0
H318 H 0.10169 0.04164 0.42353 0.0
H319 H 0.20366 0.07488 0.41308 0.0
H320 H 0.17711 0.069 0.47882 0.0
H321 H 0.24006 0.98181 0.46976 0.0
O322 O 0.14444 0.98689 0.46211 0.0
O323 O 0.18757 0.96103 0.43547 0.0
O324 O 0.20632 0.01692 0.38784 0.0
C325 C 0.1638 0.9596 0.45832 0.0
H326 H 0.10615 0.97552 0.31703 0.0
H327 H 0.22439 0.07107 0.52723 0.0
H328 H 0.18556 0.1241 0.38016 0.0
H329 H 0.08149 0.08806 0.38736 0.0
Co330 Co 0.27006 0.92654 0.67871 0.0
C331 C 0.28562 0.8587 0.64683 0.0
C332 C 0.27265 0.89628 0.60831 0.0
C333 C 0.28023 0.8655 0.59253 0.0
N334 N 0.27672 0.89235 0.64245 0.0
N335 N 0.28796 0.84182 0.6168 0.0
H336 H 0.29187 0.84709 0.67134 0.0
H337 H 0.26585 0.91997 0.59543 0.0
C338 C 0.2568 0.99057 0.63148 0.0
O339 O 0.2335 1.00305 0.6105 0.0
N340 N 0.26298 0.95725 0.71772 0.0
C341 C 0.24537 0.94708 0.74572 0.0
C342 C 0.24563 0.97242 0.76994 0.0
C343 C 0.2754 0.98835 0.7265 0.0
N344 N 0.26464 0.99823 0.75799 0.0
C345 C 0.21536 0.87683 0.68057 0.0
C346 C 0.16738 0.92635 0.66294 0.0
C347 C 0.1626 0.89285 0.6511 0.0
C348 C 0.18571 0.86736 0.66299 0.0
C349 C 0.19778 0.93463 0.67962 0.0
N350 N 0.2231 0.91058 0.68402 0.0
H351 H 0.23379 0.85729 0.68754 0.0
H352 H 0.20279 0.96137 0.68454 0.0
H353 H 0.23262 0.92276 0.74833 0.0
H354 H 0.29296 1.00291 0.71135 0.0
O355 O 0.29755 0.8977 0.70953 0.0
O356 O 0.31715 0.93858 0.6753 0.0
O357 O 0.25169 0.96034 0.64331 0.0
C358 C 0.32372 0.91414 0.69689 0.0
H359 H 0.28083 0.86111 0.56512 0.0
H360 H 0.2313 0.97283 0.79364 0.0
H361 H 0.1494 0.94672 0.65678 0.0
H362 H 0.18312 0.84072 0.65611 0.0
Co363 Co 0.34377 0.01516 0.92758 0.0
C364 C 0.40968 0.04247 0.9001 0.0
C365 C 0.37448 0.03133 0.85936 0.0
C366 C 0.40478 0.04253 0.84538 0.0
N367 N 0.37711 0.03178 0.89382 0.0
N368 N 0.42697 0.04934 0.87095 0.0
H369 H 0.4204 0.04595 0.92541 0.0
H370 H 0.35224 0.02353 0.84509 0.0
C371 C 0.28183 0.01552 0.8782 0.0
O372 O 0.26629 0.99725 0.85483 0.0
N373 N 0.3129 0.99869 0.96386 0.0
C374 C 0.31986 0.97207 0.98518 0.0
C375 C 0.29606 0.97119 0.0111 0.0
C376 C 0.28565 0.0147 0.97876 0.0
N377 N 0.27493 0.99832 1.00748 0.0
C378 C 0.39699 0.96311 0.91652 0.0
C379 C 0.35136 0.91532 0.89235 0.0
C380 C 0.38549 0.91243 0.88132 0.0
C381 C 0.40871 0.93593 0.8959 0.0
C382 C 0.34068 0.94345 0.91194 0.0
N383 N 0.36288 0.96862 0.9213 0.0
H384 H 0.41521 0.98134 0.92598 0.0
H385 H 0.31366 0.9465 0.91688 0.0
H386 H 0.3412 0.95451 0.98263 0.0
H387 H 0.27472 0.03866 0.96995 0.0
O388 O 0.37166 0.03589 0.96342 0.0
O389 O 0.3281 0.06089 0.93617 0.0
O390 O 0.31046 1.00393 0.88949 0.0
C391 C 0.352 0.06291 0.95895 0.0
H392 H 0.40991 0.04595 0.81829 0.0
H393 H 0.29363 0.95143 0.0305 0.0
H394 H 0.33211 0.89735 0.88457 0.0
H395 H 0.43562 0.93523 0.89009 0.0
Co396 Co 0.25153 0.91666 0.35148 0.0
C397 C 0.23004 0.85002 0.38168 0.0
C398 C 0.24119 0.88691 0.42087 0.0
C399 C 0.23067 0.85695 0.43613 0.0
N400 N 0.24026 0.88291 0.38665 0.0
N401 N 0.22381 0.83382 0.41154 0.0
H402 H 0.22582 0.83854 0.35685 0.0
H403 H 0.24871 0.90992 0.43404 0.0
C404 C 0.25612 0.98126 0.39818 0.0
O405 O 0.27584 0.99505 0.42145 0.0
N406 N 0.26223 0.94823 0.31387 0.0
C407 C 0.28661 0.94268 0.29001 0.0
C408 C 0.28363 0.96695 0.2644 0.0
C409 C 0.24351 0.97485 0.301 0.0
N410 N 0.25632 0.98694 0.27112 0.0
C411 C 0.30732 0.86711 0.3613 0.0
C412 C 0.35226 0.91694 0.38228 0.0
C413 C 0.35698 0.88372 0.39596 0.0
C414 C 0.33499 0.85824 0.38293 0.0
C415 C 0.32372 0.92477 0.36163 0.0
N416 N 0.29966 0.90064 0.35422 0.0
H417 H 0.29008 0.84723 0.35345 0.0
H418 H 0.31901 0.95137 0.35508 0.0
H419 H 0.30539 0.9222 0.29085 0.0
H420 H 0.22068 0.98506 0.31281 0.0
O421 O 0.22874 0.88751 0.3172 0.0
O422 O 0.20424 0.92836 0.34804 0.0
O423 O 0.26405 0.95089 0.38839 0.0
C424 C 0.20077 0.90389 0.32613 0.0
H425 H 0.22847 0.85228 0.46339 0.0
H426 H 0.30119 0.97083 0.24337 0.0
H427 H 0.36909 0.93766 0.38888 0.0
H428 H 0.33719 0.83179 0.39094 0.0
Co429 Co 0.34313 1.00846 0.60228 0.0
C430 C 0.41006 0.99176 0.63528 0.0
C431 C 0.3714 0.99995 0.67344 0.0
C432 C 0.40204 0.99232 0.6896 0.0
N433 N 0.37616 0.99906 0.63924 0.0
N434 N 0.42639 0.98764 0.66555 0.0
H435 H 0.4224 0.98818 0.61074 0.0
H436 H 0.34741 1.0052 0.68597 0.0
C437 C 0.27859 0.01583 0.64809 0.0
O438 O 0.26311 0.03729 0.66889 0.0
N439 N 0.31356 0.0186 0.56258 0.0
C440 C 0.32413 0.03934 0.53688 0.0
C441 C 0.29979 0.04109 0.5116 0.0
C442 C 0.28317 1.00638 0.55118 0.0
N443 N 0.27419 0.02028 0.52039 0.0
C444 C 0.39296 0.06375 0.60481 0.0
C445 C 0.34404 0.11176 0.62326 0.0
C446 C 0.37771 0.11688 0.63449 0.0
C447 C 0.40269 0.09335 0.62251 0.0
C448 C 0.33546 0.08137 0.6065 0.0
N449 N 0.35931 0.05609 0.60103 0.0
H450 H 0.41239 0.04564 0.59714 0.0
H451 H 0.30877 0.07668 0.60132 0.0
H452 H 0.34816 0.05272 0.53646 0.0
H453 H 0.26874 0.98677 0.56384 0.0
O454 O 0.37283 0.98235 0.57102 0.0
O455 O 0.33084 0.9611 0.60227 0.0
O456 O 0.30815 0.0244 0.63714 0.0
C457 C 0.35602 0.95544 0.58167 0.0
H458 H 0.40598 0.98992 0.71701 0.0
H459 H 0.30008 0.05746 0.48911 0.0
H460 H 0.32379 0.1298 0.62918 0.0
H461 H 0.42942 0.09584 0.62876 0.0
Co462 Co 0.26537 0.10341 0.8482 0.0
C463 C 0.28669 0.17031 0.87712 0.0
C464 C 0.27656 0.13352 0.91703 0.0
C465 C 0.28757 0.16347 0.93164 0.0
N466 N 0.27646 0.1375 0.88274 0.0
N467 N 0.29391 0.18645 0.90661 0.0
H468 H 0.29042 0.18168 0.85207 0.0
H469 H 0.2696 0.11049 0.93068 0.0
C470 C 0.26057 0.03986 0.89711 0.0
O471 O 0.24059 0.02674 0.92058 0.0
N472 N 0.25493 0.07146 0.81128 0.0
C473 C 0.23129 0.07722 0.78655 0.0
C474 C 0.23443 0.05258 0.76161 0.0
C475 C 0.27341 0.04432 0.79967 0.0
N476 N 0.26113 0.03218 0.76969 0.0
C477 C 0.20951 0.15265 0.85655 0.0
C478 C 0.16484 0.1025 0.87768 0.0
C479 C 0.16022 0.1356 0.89125 0.0
C480 C 0.18195 0.1613 0.87808 0.0
C481 C 0.19332 0.0949 0.85718 0.0
N482 N 0.2173 0.11917 0.84991 0.0
H483 H 0.22667 0.17261 0.84861 0.0
H484 H 0.1982 0.06833 0.85089 0.0
H485 H 0.21297 0.09813 0.78636 0.0
H486 H 0.29583 0.03396 0.81229 0.0
O487 O 0.28791 0.13227 0.81347 0.0
O488 O 0.31271 0.09197 0.84539 0.0
O489 O 0.25261 0.06979 0.88585 0.0
C490 C 0.31597 0.1163 0.82301 0.0
H491 H 0.29044 0.16828 0.95877 0.0
H492 H 0.21742 0.04881 0.74006 0.0
H493 H 0.14807 0.08172 0.8844 0.0
H494 H 0.17975 0.1877 0.88598 0.0
Co495 Co 0.17192 1.01041 0.10256 0.0
C496 C 0.10476 0.02813 0.13409 0.0
C497 C 0.14294 0.01994 0.17303 0.0
C498 C 0.1123 0.02848 0.18851 0.0
N499 N 0.13848 0.02025 0.13876 0.0
N500 N 0.08827 0.03326 0.16399 0.0
H501 H 0.09273 0.0315 0.10928 0.0
H502 H 0.16678 0.0147 0.18605 0.0
C503 C 0.23613 1.00288 0.14913 0.0
O504 O 0.25128 0.98139 0.17043 0.0
N505 N 0.2022 1.00008 0.06357 0.0
C506 C 0.19261 0.97859 0.03825 0.0
C507 C 0.21706 0.97765 0.01312 0.0
C508 C 0.23206 0.01351 0.05202 0.0
N509 N 0.2417 0.99972 0.02152 0.0
C510 C 0.12216 0.95492 0.1066 0.0
C511 C 0.1714 0.90733 0.12593 0.0
C512 C 0.13787 0.90222 0.13751 0.0
C513 C 0.11271 0.92554 0.12519 0.0
C514 C 0.17971 0.93747 0.10824 0.0
N515 N 0.15575 0.96262 0.10218 0.0
H516 H 0.10256 0.97286 0.09871 0.0
H517 H 0.20634 0.94217 0.10288 0.0
H518 H 0.16916 0.96423 0.03792 0.0
H519 H 0.24566 0.03383 0.06445 0.0
O520 O 0.14258 0.0363 0.07031 0.0
O521 O 0.18417 0.05781 0.10183 0.0
O522 O 0.20641 0.99471 0.13829 0.0
C523 C 0.15921 0.06332 0.08076 0.0
H524 H 0.10819 0.03164 0.21578 0.0
H525 H 0.2175 0.96102 0.99098 0.0
H526 H 0.19177 0.88946 0.1322 0.0
H527 H 0.08608 0.92299 0.13178 0.0
Co528 Co 0.1886 0.25906 0.09532 0.0
C529 C 0.14884 0.23104 0.15283 0.0
C530 C 0.11614 0.24463 0.11036 0.0
C531 C 0.09636 0.23353 0.13718 0.0
N532 N 0.14915 0.24255 0.11991 0.0
N533 N 0.11697 0.22559 0.16391 0.0
H534 H 0.17129 0.22681 0.16855 0.0
H535 H 0.10674 0.25447 0.08618 0.0
C536 C 0.1485 0.25864 0.02852 0.0
O537 O 0.1325 0.27686 1.00495 0.0
N538 N 0.2279 0.27576 0.07193 0.0
C539 C 0.25325 0.29579 0.08368 0.0
C540 C 0.27222 0.30686 0.05588 0.0
C541 C 0.23172 0.2745 0.03787 0.0
N542 N 0.25766 0.29392 0.02752 0.0
C543 C 0.17047 0.30888 0.14856 0.0
C544 C 0.15666 0.36056 0.10157 0.0
C545 C 0.14082 0.36245 0.13374 0.0
C546 C 0.14992 0.33704 0.15812 0.0
C547 C 0.17651 0.3318 0.09301 0.0
N548 N 0.18049 0.30479 0.11531 0.0
H549 H 0.17587 0.28917 0.16732 0.0
H550 H 0.18597 0.33002 0.06707 0.0
H551 H 0.25675 0.30293 0.11021 0.0
H552 H 0.21582 0.25984 0.02085 0.0
O553 O 0.21785 0.23375 0.12863 0.0
O554 O 0.19949 0.21368 0.07933 0.0
O555 O 0.16028 0.27445 0.05459 0.0
C556 C 0.21624 0.20802 0.10724 0.0
H557 H 0.06878 0.23247 0.1374 0.0
H558 H 0.29411 0.32357 0.05628 0.0
H559 H 0.15227 0.38016 0.08227 0.0
H560 H 0.13936 0.33728 0.18373 0.0
Co561 Co 0.68361 0.285 0.92521 0.0
C562 C 0.64581 0.30353 0.86235 0.0
C563 C 0.62328 0.32733 0.90636 0.0
C564 C 0.60717 0.33954 0.87726 0.0
N565 N 0.64661 0.30355 0.89724 0.0
N566 N 0.62141 0.32443 0.84967 0.0
H567 H 0.66467 0.2914 0.84626 0.0
H568 H 0.62051 0.33751 0.93184 0.0
C569 C 0.62431 0.28003 0.97534 0.0
O570 O 0.60198 0.27018 0.95235 0.0
N571 N 0.72196 0.2669 0.95104 0.0
C572 C 0.75204 0.25641 0.9376 0.0
C573 C 0.77376 0.24703 0.96393 0.0
C574 C 0.72547 0.26333 0.98536 0.0
N575 N 0.75667 0.25105 0.9935 0.0
C576 C 0.66525 0.22622 0.88099 0.0
C577 C 0.64369 0.18614 0.93533 0.0
C578 C 0.63324 0.17681 0.90228 0.0
C579 C 0.64595 0.1966 0.87474 0.0
C580 C 0.66246 0.2161 0.94033 0.0
N581 N 0.67043 0.23755 0.91363 0.0
H582 H 0.67524 0.24009 0.85947 0.0
H583 H 0.66897 0.22283 0.96632 0.0
H584 H 0.75798 0.25606 0.91054 0.0
H585 H 0.7063 0.27031 1.00405 0.0
O586 O 0.71437 0.30172 0.8886 0.0
O587 O 0.69866 0.33018 0.93486 0.0
O588 O 0.65554 0.28357 0.9678 0.0
C589 C 0.71516 0.33014 0.9065 0.0
H590 H 0.5887 0.36026 0.87623 0.0
H591 H 0.79988 0.23801 0.96169 0.0
H592 H 0.63669 0.17104 0.95752 0.0
H593 H 0.63996 0.1904 0.84842 0.0
Co594 Co 1.0018 0.42186 0.16974 0.0
C595 C 0.98305 0.39145 0.10221 0.0
C596 C 0.99619 0.35216 0.13897 0.0
C597 C 0.98672 0.33698 0.10851 0.0
N598 N 0.993 0.38639 0.13545 0.0
N599 N 0.97872 0.36168 0.08538 0.0
H600 H 0.97736 0.41624 0.09094 0.0
H601 H 1.00352 0.33886 0.16226 0.0
C602 C 1.00518 0.37613 0.23534 0.0
O603 O 0.0251 0.35385 0.25111 0.0
N604 N 0.0107 0.46009 0.20077 0.0
C605 C 0.03379 0.48473 0.19401 0.0
C606 C 0.03092 0.51034 0.21783 0.0
C607 C 0.9925 0.4727 0.22757 0.0
N608 N 1.00491 0.5029 0.23889 0.0
C609 C 0.05942 0.41645 0.12227 0.0
C610 C 0.1049 0.39871 0.17399 0.0
C611 C 0.1125 0.38808 0.14053 0.0
C612 C 0.09013 0.39927 0.11419 0.0
C613 C 0.0738 0.41522 0.18094 0.0
N614 N 0.05011 0.42122 0.15565 0.0
H615 H 0.04187 0.42291 0.10183 0.0
H616 H 0.06739 0.42006 0.20744 0.0
H617 H 0.05171 0.48442 0.17298 0.0
H618 H 0.97 0.46089 0.23806 0.0
O619 O 0.97838 0.4554 0.13981 0.0
O620 O 0.95446 0.42351 0.18022 0.0
O621 O 0.01443 0.38549 0.20515 0.0
C622 C 0.95066 0.44566 0.15581 0.0
H623 H 0.98476 0.30967 0.10408 0.0
H624 H 0.04795 0.53181 0.22086 0.0
H625 H 0.12179 0.39248 0.19518 0.0
H626 H 0.09472 0.39257 0.0877 0.0
Co627 Co 0.83402 0.73756 0.42227 0.0
C628 C 0.87422 0.72008 0.35991 0.0
C629 C 0.89289 0.69411 0.40476 0.0
C630 C 0.90906 0.68091 0.37646 0.0
N631 N 0.87169 0.7196 0.39483 0.0
N632 N 0.89785 0.69766 0.34827 0.0
H633 H 0.85676 0.73329 0.34294 0.0
H634 H 0.89361 0.68324 0.43018 0.0
C635 C 0.89302 0.74328 0.47213 0.0
O636 O 0.91488 0.75308 0.44866 0.0
N637 N 0.79515 0.75443 0.44759 0.0
C638 C 0.7679 0.77091 0.43387 0.0
C639 C 0.74457 0.77732 0.45949 0.0
C640 C 0.7882 0.75086 0.48132 0.0
N641 N 0.75729 0.76418 0.48886 0.0
C642 C 0.85169 0.79701 0.37824 0.0
C643 C 0.87142 0.83693 0.43314 0.0
C644 C 0.88248 0.84662 0.40037 0.0
C645 C 0.87061 0.82699 0.37248 0.0
C646 C 0.85296 0.80668 0.43764 0.0
N647 N 0.84615 0.7853 0.41075 0.0
H648 H 0.84224 0.78318 0.35654 0.0
H649 H 0.84583 0.7996 0.46343 0.0
H650 H 0.76542 0.77807 0.40714 0.0
H651 H 0.80532 0.73926 0.49996 0.0
O652 O 0.80359 0.72092 0.38569 0.0
O653 O 0.81989 0.69232 0.43222 0.0
O654 O 0.86169 0.73955 0.46509 0.0
C655 C 0.80291 0.6926 0.40408 0.0
H656 H 0.92478 0.65805 0.37624 0.0
H657 H 0.72078 0.7915 0.45714 0.0
H658 H 0.87778 0.85194 0.45548 0.0
H659 H 0.87705 0.8336 0.34633 0.0
Co660 Co 1.00408 0.07272 0.17767 0.0
C661 C 0.03173 0.10999 0.11714 0.0
C662 C 0.0154 0.14477 0.15668 0.0
C663 C 0.0267 0.16337 0.12902 0.0
N664 N 0.01908 0.1112 0.14967 0.0
N665 N 0.03642 0.14156 0.10399 0.0
H666 H 0.0378 0.08668 0.10344 0.0
H667 H 1.00484 0.15532 0.17992 0.0
C668 C 0.99974 0.11866 0.24095 0.0
O669 O 0.97941 0.13609 0.26131 0.0
N670 N 0.98927 0.0343 0.20452 0.0
C671 C 0.9759 1.00443 0.19388 0.0
C672 C 0.96862 0.98465 0.22248 0.0
C673 C 0.99007 0.0325 0.23893 0.0
N674 N 0.97713 1.00295 0.25038 0.0
C675 C 0.95468 0.08748 0.12326 0.0
C676 C 0.90425 0.10387 0.17011 0.0
C677 C 0.90367 0.1207 0.13824 0.0
C678 C 0.92805 0.11007 0.11377 0.0
C679 C 0.93143 0.08167 0.17847 0.0
N680 N 0.95843 0.07722 0.15659 0.0
H681 H 0.97411 0.08136 0.10467 0.0
H682 H 0.9328 0.07186 0.20441 0.0
H683 H 0.9719 0.99755 0.16734 0.0
H684 H 1.00095 0.05174 0.25533 0.0
O685 O 0.03076 0.04201 0.14726 0.0
O686 O 0.04961 0.06506 0.19501 0.0
O687 O 0.98633 0.10346 0.21538 0.0
C688 C 0.05605 0.04612 0.16882 0.0
H689 H 0.02709 0.19103 0.12717 0.0
H690 H 0.95813 0.9591 0.22282 0.0
H691 H 0.88513 0.10939 0.18936 0.0
H692 H 0.92845 0.12112 0.08827 0.0
Co693 Co 0.33008 0.75935 0.60006 0.0
C694 C 0.3693 0.78797 0.65808 0.0
C695 C 0.40235 0.77455 0.61612 0.0
C696 C 0.42187 0.78584 0.64307 0.0
N697 N 0.36925 0.77633 0.62523 0.0
N698 N 0.40112 0.79369 0.66955 0.0
H699 H 0.34669 0.79206 0.67346 0.0
H700 H 0.41199 0.7648 0.59214 0.0
C701 C 0.37078 0.75968 0.53374 0.0
O702 O 0.38729 0.74141 0.51082 0.0
N703 N 0.29094 0.74233 0.57633 0.0
C704 C 0.26436 0.72443 0.58883 0.0
C705 C 0.24465 0.71361 0.56149 0.0
C706 C 0.2872 0.74248 0.54217 0.0
N707 N 0.25992 0.72451 0.53257 0.0
C708 C 0.35043 0.70927 0.65289 0.0
C709 C 0.36328 0.65874 0.60492 0.0
C710 C 0.38101 0.65704 0.63614 0.0
C711 C 0.3724 0.68167 0.66118 0.0
C712 C 0.34189 0.68683 0.59768 0.0
N713 N 0.33853 0.71353 0.62019 0.0
H714 H 0.34551 0.72852 0.672 0.0
H715 H 0.33115 0.6887 0.57219 0.0
H716 H 0.26016 0.71894 0.6157 0.0
H717 H 0.30376 0.75574 0.52458 0.0
O718 O 0.30027 0.7844 0.63273 0.0
O719 O 0.31885 0.80456 0.58345 0.0
O720 O 0.35886 0.74404 0.55991 0.0
C721 C 0.30164 0.81003 0.61097 0.0
H722 H 0.44944 0.78717 0.6435 0.0
H723 H 0.22151 0.69872 0.56261 0.0
H724 H 0.36734 0.63961 0.58529 0.0
H725 H 0.38437 0.68128 0.68621 0.0
Co726 Co 0.99979 0.59722 0.34068 0.0
C727 C 0.98469 0.63129 0.40681 0.0
C728 C 0.99448 0.66883 0.36764 0.0
C729 C 0.98685 0.68548 0.39793 0.0
N730 N 0.99245 0.63476 0.37298 0.0
N731 N 0.98104 0.66173 0.42249 0.0
H732 H 0.98004 0.60704 0.41945 0.0
H733 H 1.00025 0.68094 0.34345 0.0
C734 C 1.00834 0.64033 0.2744 0.0
O735 O 0.02953 0.66084 0.25848 0.0
N736 N 1.00751 0.55717 0.31156 0.0
C737 C 0.02835 0.53086 0.32075 0.0
C738 C 0.0265 0.50537 0.29675 0.0
C739 C 0.99164 0.54596 0.28282 0.0
N740 N 1.00341 0.51478 0.27291 0.0
C741 C 0.05434 0.59583 0.39167 0.0
C742 C 0.10326 0.61444 0.34432 0.0
C743 C 0.10813 0.62418 0.37861 0.0
C744 C 0.0842 0.61208 0.40277 0.0
C745 C 0.07265 0.5991 0.33438 0.0
N746 N 0.04706 0.59366 0.35756 0.0
H747 H 0.03569 0.58828 0.41045 0.0
H748 H 0.06818 0.59497 0.30735 0.0
H749 H 0.04428 0.53011 0.34341 0.0
H750 H 0.97108 0.55931 0.26999 0.0
O751 O 0.9732 0.56747 0.37087 0.0
O752 O 0.95252 0.59943 0.32831 0.0
O753 O 0.01649 0.63093 0.30492 0.0
C754 C 0.94659 0.5792 0.35388 0.0
H755 H 0.98502 0.71296 0.40144 0.0
H756 H 0.0426 0.48269 0.29551 0.0
H757 H 0.12171 0.62067 0.32471 0.0
H758 H 0.08665 0.61744 0.42982 0.0
Co759 Co 0.51443 0.42498 0.84523 0.0
C760 C 0.53235 0.39193 0.91153 0.0
C761 C 0.51474 0.35426 0.87593 0.0
C762 C 0.524 0.338 0.90604 0.0
N763 N 0.5215 0.38798 0.87864 0.0
N764 N 0.53423 0.36192 0.9285 0.0
H765 H 0.53976 0.41604 0.92275 0.0
H766 H 0.50254 0.34215 0.85457 0.0
C767 C 0.52123 0.37401 0.79186 0.0
O768 O 0.52112 0.34087 0.79699 0.0
N769 N 0.50675 0.46367 0.81492 0.0
C770 C 0.49017 0.49255 0.82471 0.0
C771 C 0.48806 0.51481 0.79736 0.0
C772 C 0.51555 0.46912 0.78195 0.0
N773 N 0.50367 0.49969 0.77075 0.0
C774 C 0.45893 0.42512 0.89428 0.0
C775 C 0.41096 0.41025 0.84446 0.0
C776 C 0.4049 0.39914 0.87816 0.0
C777 C 0.42833 0.40937 0.90366 0.0
C778 C 0.44224 0.42505 0.8362 0.0
N779 N 0.46709 0.42884 0.86054 0.0
H780 H 0.47753 0.43061 0.91389 0.0
H781 H 0.44787 0.42972 0.80946 0.0
H782 H 0.47984 0.49689 0.85004 0.0
H783 H 0.53168 0.45253 0.76711 0.0
O784 O 0.54079 0.45551 0.87497 0.0
O785 O 0.56166 0.42296 0.83344 0.0
O786 O 0.4997 0.39186 0.80888 0.0
C787 C 0.56747 0.44383 0.85821 0.0
H788 H 0.52226 0.31081 0.91143 0.0
H789 H 0.4754 0.5396 0.79666 0.0
H790 H 0.39305 0.4051 0.824 0.0
H791 H 0.42502 0.40253 0.93033 0.0
Co792 Co 0.60191 0.68465 0.75888 0.0
C793 C 0.66318 0.65303 0.72649 0.0
C794 C 0.62501 0.61521 0.73727 0.0
C795 C 0.65336 0.59924 0.72358 0.0
N796 N 0.63096 0.64909 0.73895 0.0
N797 N 0.6773 0.62293 0.71704 0.0
H798 H 0.67613 0.67729 0.72427 0.0
H799 H 0.60221 0.60263 0.74612 0.0
C800 C 0.53979 0.63693 0.75926 0.0
O801 O 0.52158 0.61619 0.77832 0.0
N802 N 0.57427 0.72095 0.77814 0.0
C803 C 0.58543 0.75203 0.7879 0.0
C804 C 0.55755 0.77327 0.79303 0.0
C805 C 0.5399 0.72338 0.77811 0.0
N806 N 0.52925 0.75492 0.78703 0.0
C807 C 0.65597 0.66412 0.80744 0.0
C808 C 0.60949 0.64833 0.85822 0.0
C809 C 0.64099 0.63079 0.8586 0.0
C810 C 0.66516 0.64091 0.83374 0.0
C811 C 0.60119 0.67069 0.8311 0.0
N812 N 0.62308 0.67571 0.8042 0.0
H813 H 0.67469 0.67029 0.78826 0.0
H814 H 0.57538 0.68067 0.82997 0.0
H815 H 0.61197 0.75935 0.78897 0.0
H816 H 0.52298 0.70365 0.76941 0.0
O817 O 0.63078 0.71929 0.73534 0.0
O818 O 0.58408 0.69656 0.7146 0.0
O819 O 0.56615 0.65037 0.773 0.0
C820 C 0.60892 0.71726 0.71001 0.0
H821 H 0.65705 0.57202 0.72031 0.0
H822 H 0.558 0.80035 0.79891 0.0
H823 H 0.59037 0.64351 0.87758 0.0
H824 H 0.69037 0.62941 0.83285 0.0
Co825 Co 0.5739 0.34434 0.0109 0.0
C826 C 0.61328 0.40357 0.98454 0.0
C827 C 0.64676 0.36202 0.99941 0.0
C828 C 0.66605 0.38904 0.98793 0.0
N829 N 0.61353 0.3707 0.99661 0.0
N830 N 0.64501 0.41532 0.97918 0.0
H831 H 0.59049 0.41857 0.97922 0.0
H832 H 0.65661 0.33815 1.00964 0.0
C833 C 0.61666 0.2791 0.01192 0.0
O834 O 0.63231 0.25563 0.03059 0.0
N835 N 0.53401 0.32014 0.02476 0.0
C836 C 0.50338 0.33396 0.03298 0.0
C837 C 0.48058 0.30772 0.03792 0.0
C838 C 0.52982 0.28602 0.02488 0.0
N839 N 0.49771 0.27816 0.03294 0.0
C840 C 0.58827 0.39639 0.06192 0.0
C841 C 0.6013 0.34743 0.11208 0.0
C842 C 0.61768 0.37902 0.11437 0.0
C843 C 0.60881 0.40458 0.09014 0.0
C844 C 0.58093 0.34047 0.08354 0.0
N845 N 0.57814 0.36346 0.057 0.0
H846 H 0.58354 0.41563 0.0425 0.0
H847 H 0.57107 0.31485 0.08097 0.0
H848 H 0.49793 0.36114 0.03454 0.0
H849 H 0.54913 0.26733 0.01811 0.0
O850 O 0.54515 0.37732 0.98551 0.0
O851 O 0.56601 0.32858 0.9652 0.0
O852 O 0.60255 0.30425 0.02742 0.0
C853 C 0.5481 0.35598 0.95988 0.0
H854 H 0.69364 0.38953 0.98675 0.0
H855 H 0.45386 0.30998 0.04466 0.0
H856 H 0.60597 0.32744 0.13094 0.0
H857 H 0.61991 0.42986 0.09115 0.0
Co858 Co 0.91873 0.34969 0.25655 0.0
C859 C 0.85174 0.37712 0.23242 0.0
C860 C 0.88727 0.41786 0.24147 0.0
C861 C 0.85675 0.43173 0.23008 0.0
N862 N 0.88446 0.3835 0.24227 0.0
N863 N 0.83447 0.40611 0.22458 0.0
H864 H 0.84112 0.35181 0.22957 0.0
H865 H 0.91 0.432 0.24775 0.0
C866 C 0.98264 0.3966 0.25748 0.0
O867 O 0.99779 0.41959 0.2765 0.0
N868 N 0.95058 0.31382 0.2712 0.0
C869 C 0.94727 0.29351 0.29928 0.0
C870 C 0.97386 0.27029 0.3005 0.0
C871 C 0.97775 0.30063 0.25432 0.0
N872 N 0.99257 0.27487 0.27216 0.0
C873 C 0.86841 0.35939 0.31093 0.0
C874 C 0.91641 0.38367 0.35657 0.0
C875 C 0.88244 0.3949 0.36067 0.0
C876 C 0.858 0.38013 0.33846 0.0
C877 C 0.92573 0.36422 0.32804 0.0
N878 N 0.90222 0.35481 0.30391 0.0
H879 H 0.84933 0.34996 0.29347 0.0
H880 H 0.95264 0.35955 0.32378 0.0
H881 H 0.92689 0.29515 0.31784 0.0
H882 H 0.98637 0.30922 0.22945 0.0
O883 O 0.89073 0.31353 0.23517 0.0
O884 O 0.93141 0.34344 0.21001 0.0
O885 O 0.95263 0.38742 0.26688 0.0
C886 C 0.90779 0.32077 0.2072 0.0
H887 H 0.85166 0.45866 0.22519 0.0
H888 H 0.97942 0.2519 0.32068 0.0
H889 H 0.93658 0.39144 0.37365 0.0
H890 H 0.8311 0.38604 0.34028 0.0
Co891 Co 0.94354 0.67839 0.50644 0.0
C892 C 0.90327 0.6206 0.47994 0.0
C893 C 0.87035 0.66158 0.49688 0.0
C894 C 0.85064 0.63455 0.48642 0.0
N895 N 0.90344 0.65324 0.49207 0.0
N896 N 0.87143 0.60863 0.47654 0.0
H897 H 0.92582 0.60574 0.47361 0.0
H898 H 0.86096 0.68504 0.50815 0.0
C899 C 0.90148 0.74393 0.50852 0.0
O900 O 0.88638 0.76733 0.52742 0.0
N901 N 0.98379 0.7015 0.52068 0.0
C902 C 0.01416 0.68714 0.52918 0.0
C903 C 0.037 0.71303 0.5355 0.0
C904 C 0.98814 0.73554 0.52196 0.0
N905 N 0.02008 0.74288 0.53107 0.0
C906 C 0.92843 0.62492 0.55622 0.0
C907 C 0.91342 0.67263 0.6064 0.0
C908 C 0.89615 0.64136 0.60708 0.0
C909 C 0.90608 0.61634 0.58293 0.0
C910 C 0.93545 0.68004 0.57917 0.0
N911 N 0.93904 0.65788 0.55227 0.0
H912 H 0.934 0.6061 0.53681 0.0
H913 H 0.94589 0.70554 0.57765 0.0
H914 H 0.01935 0.65987 0.53022 0.0
H915 H 0.96903 0.75463 0.51546 0.0
O916 O 0.9717 0.64578 0.47999 0.0
O917 O 0.95131 0.69516 0.46067 0.0
O918 O 0.91569 0.7185 0.52374 0.0
C919 C 0.96864 0.66764 0.45456 0.0
H920 H 0.82304 0.63365 0.48701 0.0
H921 H 0.06351 0.71033 0.54295 0.0
H922 H 0.90836 0.69214 0.62543 0.0
H923 H 0.89459 0.59124 0.58268 0.0
Co924 Co 0.59964 0.34776 0.76139 0.0
C925 C 0.66412 0.38398 0.77564 0.0
C926 C 0.62318 0.42049 0.7688 0.0
C927 C 0.65259 0.43759 0.77841 0.0
N928 N 0.63033 0.38669 0.76747 0.0
N929 N 0.67821 0.41444 0.7827 0.0
H930 H 0.67781 0.35996 0.77881 0.0
H931 H 0.59815 0.43182 0.76497 0.0
C932 C 0.53213 0.38608 0.75766 0.0
O933 O 0.50986 0.4031 0.73877 0.0
N934 N 0.57177 0.30657 0.75539 0.0
C935 C 0.58167 0.27475 0.76562 0.0
C936 C 0.55547 0.25227 0.76091 0.0
C937 C 0.53976 0.3022 0.74262 0.0
N938 N 0.52921 0.2696 0.74676 0.0
C939 C 0.64921 0.34853 0.70569 0.0
C940 C 0.59952 0.36454 0.65766 0.0
C941 C 0.63252 0.377 0.6522 0.0
C942 C 0.65813 0.36625 0.67555 0.0
C943 C 0.59178 0.34756 0.68833 0.0
N944 N 0.61572 0.34357 0.71373 0.0
H945 H 0.66895 0.34217 0.72399 0.0
H946 H 0.56538 0.34183 0.69306 0.0
H947 H 0.60608 0.26783 0.77668 0.0
H948 H 0.52367 0.32248 0.73242 0.0
O949 O 0.63178 0.32063 0.79019 0.0
O950 O 0.58778 0.35061 0.80904 0.0
O951 O 0.56107 0.37824 0.74419 0.0
C952 C 0.61374 0.33153 0.81628 0.0
H953 H 0.65452 0.4648 0.78332 0.0
H954 H 0.55548 0.22547 0.76805 0.0
H955 H 0.57908 0.37001 0.63965 0.0
H956 H 0.68443 0.37381 0.67236 0.0
Co957 Co 0.93185 0.34491 1.00569 0.0
C958 C 0.89773 0.40794 0.03217 0.0
C959 C 0.86121 0.36914 0.01956 0.0
C960 C 0.84402 0.39826 0.02983 0.0
N961 N 0.89502 0.37492 0.02137 0.0
N962 N 0.86693 0.42253 0.03766 0.0
H963 H 0.92157 0.42102 0.03642 0.0
H964 H 0.84954 0.34588 1.01057 0.0
C965 C 0.88624 0.2814 1.0108 0.0
O966 O 0.86613 0.26073 0.99384 0.0
N967 N 0.96945 0.31645 0.98989 0.0
C968 C 1.00174 0.32725 0.98503 0.0
C969 C 0.02304 0.2991 0.98221 0.0
C970 C 0.97135 0.28189 0.98856 0.0
N971 N 1.00371 0.27087 0.98446 0.0
C972 C 0.91736 0.39629 0.9521 0.0
C973 C 0.90155 0.34762 0.9033 0.0
C974 C 0.88922 0.38115 0.89816 0.0
C975 C 0.89913 0.40601 0.92233 0.0
C976 C 0.91943 0.33901 0.93338 0.0
N977 N 0.92482 0.3626 0.95869 0.0
H978 H 0.92322 0.4156 0.97085 0.0
H979 H 0.92629 0.31242 0.93749 0.0
H980 H 0.00968 0.35369 0.98589 0.0
H981 H 0.95024 0.2649 0.9925 0.0
O982 O 0.96479 0.37654 0.028 0.0
O983 O 0.94225 0.33099 0.05173 0.0
O984 O 0.89833 0.30725 0.99449 0.0
C985 C 0.9623 0.35656 0.05492 0.0
H986 H 0.81662 0.40199 0.03025 0.0
H987 H 0.05063 0.29929 0.98057 0.0
H988 H 0.89607 0.32762 0.88501 0.0
H989 H 0.89096 0.43247 0.91963 0.0
Co990 Co 0.919 0.66836 0.26221 0.0
C991 C 0.8518 0.63767 0.27911 0.0
C992 C 0.88948 0.59837 0.26969 0.0
C993 C 0.85887 0.58315 0.27795 0.0
N994 N 0.88533 0.63266 0.2711 0.0
N995 N 0.83517 0.6079 0.28349 0.0
H996 H 0.84005 0.66254 0.28317 0.0
H997 H 0.91315 0.58513 0.26411 0.0
C998 C 0.98403 0.62214 0.2527 0.0
O999 O 0.99734 0.60002 0.23112 0.0
N1000 N 0.94965 0.70648 0.25265 0.0
C1001 C 0.94215 0.73196 0.23006 0.0
C1002 C 0.96853 0.75485 0.22898 0.0
C1003 C 0.9797 0.71585 0.26685 0.0
N1004 N 0.99187 0.74466 0.25214 0.0
C1005 C 0.86964 0.66579 0.20584 0.0
C1006 C 0.91949 0.64764 0.15904 0.0
C1007 C 0.88619 0.63596 0.1533 0.0
C1008 C 0.86065 0.64776 0.17612 0.0
C1009 C 0.92737 0.66454 0.18955 0.0
N1010 N 0.90313 0.67003 0.21425 0.0
H1011 H 0.84983 0.67317 0.22354 0.0
H1012 H 0.95395 0.66957 0.1949 0.0
H1013 H 0.91913 0.73368 0.21477 0.0
H1014 H 0.99199 0.70286 0.28796 0.0
O1015 O 0.88996 0.70075 0.28821 0.0
O1016 O 0.93121 0.66811 0.30983 0.0
O1017 O 0.9533 0.63226 0.24674 0.0
C1018 C 0.90661 0.68963 0.31535 0.0
H1019 H 0.85458 0.55586 0.28048 0.0
H1020 H 0.97105 0.77656 0.21181 0.0
H1021 H 0.94006 0.64178 0.14152 0.0
H1022 H 0.83414 0.641 0.17298 0.0
Co1023 Co 0.59662 0.67618 0.51198 0.0
C1024 C 0.62655 0.608 0.53088 0.0
C1025 C 0.66564 0.64389 0.51716 0.0
C1026 C 0.68076 0.61299 0.52598 0.0
N1027 N 0.63164 0.64122 0.52123 0.0
N1028 N 0.65617 0.59035 0.53417 0.0
H1029 H 0.60191 0.59727 0.53694 0.0
H1030 H 0.67886 0.66685 0.5095 0.0
C1031 C 0.64186 0.74165 0.50833 0.0
O1032 O 0.66411 0.75655 0.48821 0.0
N1033 N 0.55938 0.70834 0.50205 0.0
C1034 C 0.53663 0.70533 0.47602 0.0
C1035 C 0.51376 0.73221 0.47698 0.0
C1036 C 0.54796 0.73554 0.52021 0.0
N1037 N 0.52101 0.75089 0.50475 0.0
C1038 C 0.60042 0.6284 0.45429 0.0
C1039 C 0.61897 0.67889 0.40802 0.0
C1040 C 0.62758 0.64485 0.40023 0.0
C1041 C 0.61613 0.61926 0.42314 0.0
C1042 C 0.60427 0.68687 0.43965 0.0
N1043 N 0.59741 0.662 0.46353 0.0
H1044 H 0.5935 0.60842 0.47211 0.0
H1045 H 0.60089 0.71364 0.44595 0.0
H1046 H 0.53655 0.68513 0.45718 0.0
H1047 H 0.5589 0.74405 0.5441 0.0
O1048 O 0.56281 0.64695 0.53543 0.0
O1049 O 0.59468 0.68663 0.55965 0.0
O1050 O 0.63302 0.7111 0.50004 0.0
C1051 C 0.57243 0.66275 0.56341 0.0
H1052 H 0.70797 0.60782 0.5272 0.0
H1053 H 0.49405 0.73825 0.45835 0.0
H1054 H 0.62534 0.69969 0.39081 0.0
H1055 H 0.6214 0.59241 0.41855 0.0
Co1056 Co 0.75524 0.60555 0.66916 0.0
C1057 C 0.73183 0.66997 0.63437 0.0
C1058 C 0.7115 0.62455 0.61207 0.0
C1059 C 0.69454 0.65224 0.59869 0.0
N1060 N 0.73596 0.63517 0.63365 0.0
N1061 N 0.70758 0.6809 0.61215 0.0
H1062 H 0.74247 0.68651 0.6536 0.0
H1063 H 0.70211 0.59891 0.61111 0.0
C1064 C 0.74653 0.55097 0.61561 0.0
O1065 O 0.75077 0.55609 0.58264 0.0
N1066 N 0.77296 0.57765 0.70574 0.0
C1067 C 0.79415 0.5873 0.73121 0.0
C1068 C 0.80246 0.55876 0.75062 0.0
C1069 C 0.7679 0.544 0.71024 0.0
N1070 N 0.78647 0.5319 0.73656 0.0
C1071 C 0.81138 0.65518 0.65411 0.0
C1072 C 0.85812 0.60302 0.64176 0.0
C1073 C 0.86601 0.63589 0.63018 0.0
C1074 C 0.84282 0.66258 0.63824 0.0
C1075 C 0.82652 0.59675 0.65673 0.0
N1076 N 0.80223 0.62207 0.66062 0.0
H1077 H 0.79465 0.67612 0.66023 0.0
H1078 H 0.82103 0.57047 0.6633 0.0
H1079 H 0.80321 0.61311 0.73499 0.0
H1080 H 0.74967 0.52925 0.69609 0.0
O1081 O 0.73412 0.6368 0.70282 0.0
O1082 O 0.7102 0.59069 0.68079 0.0
O1083 O 0.7663 0.56786 0.63517 0.0
C1084 C 0.70745 0.61683 0.70074 0.0
H1085 H 0.67104 0.65119 0.58424 0.0
H1086 H 0.81887 0.55764 0.77298 0.0
H1087 H 0.87559 0.58169 0.63796 0.0
H1088 H 0.84796 0.6888 0.63084 0.0
Co1089 Co 0.6729 0.49009 0.93068 0.0
C1090 C 0.61176 0.47275 0.89064 0.0
C1091 C 0.65635 0.44634 0.87228 0.0
C1092 C 0.62813 0.43377 0.85578 0.0
N1093 N 0.64631 0.47157 0.89345 0.0
N1094 N 0.60024 0.45079 0.86702 0.0
H1095 H 0.59494 0.48634 0.90772 0.0
H1096 H 0.68174 0.43547 0.87152 0.0
C1097 C 0.72396 0.49494 0.87185 0.0
O1098 O 0.70184 0.50543 0.84863 0.0
N1099 N 0.69819 0.50829 0.9686 0.0
C1100 C 0.68537 0.5203 0.99836 0.0
C1101 C 0.71214 0.53064 0.01876 0.0
C1102 C 0.73232 0.51181 0.97095 0.0
N1103 N 0.74111 0.52593 1.00085 0.0
C1104 C 0.62789 0.5497 0.91371 0.0
C1105 C 0.68087 0.5902 0.89106 0.0
C1106 C 0.64752 0.60065 0.88253 0.0
C1107 C 0.62073 0.58044 0.89574 0.0
C1108 C 0.68674 0.5591 0.90829 0.0
N1109 N 0.6606 0.53763 0.91689 0.0
H1110 H 0.60702 0.53574 0.92463 0.0
H1111 H 0.71289 0.55196 0.91364 0.0
H1112 H 0.65858 0.5209 1.00498 0.0
H1113 H 0.75061 0.50316 0.9521 0.0
O1114 O 0.63651 0.47315 0.9617 0.0
O1115 O 0.6831 0.4448 0.94676 0.0
O1116 O 0.71543 0.49124 0.90291 0.0
C1117 C 0.65485 0.44478 0.96329 0.0
H1118 H 0.62776 0.41142 0.83952 0.0
H1119 H 0.71067 0.54021 0.04473 0.0
H1120 H 0.70268 0.60545 0.88395 0.0
H1121 H 0.59428 0.58738 0.89137 0.0
Co1122 Co 0.75508 0.41831 0.17651 0.0
C1123 C 0.78368 0.35502 0.14555 0.0
C1124 C 0.77565 0.39437 0.1074 0.0
C1125 C 0.78948 0.36581 0.09198 0.0
N1126 N 0.77224 0.38779 0.14114 0.0
N1127 N 0.79454 0.34127 0.11591 0.0
H1128 H 0.78508 0.34181 0.16998 0.0
H1129 H 0.76868 0.41805 0.09465 0.0
C1130 C 0.75666 0.48063 0.12832 0.0
O1131 O 0.73855 0.50019 0.10753 0.0
N1132 N 0.73817 0.44695 0.21261 0.0
C1133 C 0.72758 0.43592 0.24359 0.0
C1134 C 0.71721 0.46386 0.26234 0.0
C1135 C 0.73353 0.48116 0.21252 0.0
N1136 N 0.72051 0.49183 0.24232 0.0
C1137 C 0.7021 0.36696 0.1619 0.0
C1138 C 0.65178 0.41666 0.15295 0.0
C1139 C 0.64637 0.38429 0.1391 0.0
C1140 C 0.67121 0.35859 0.14552 0.0
C1141 C 0.6829 0.42402 0.16834 0.0
N1142 N 0.70873 0.40009 0.17071 0.0
H1143 H 0.72126 0.34722 0.16526 0.0
H1144 H 0.68699 0.45036 0.17512 0.0
H1145 H 0.72807 0.40951 0.25214 0.0
H1146 H 0.74012 0.49822 0.19188 0.0
O1147 O 0.77831 0.38863 0.21128 0.0
O1148 O 0.80005 0.43384 0.18602 0.0
O1149 O 0.74195 0.4544 0.14134 0.0
C1150 C 0.80414 0.40938 0.20769 0.0
H1151 H 0.79451 0.36264 0.065 0.0
H1152 H 0.70925 0.46395 0.28891 0.0
H1153 H 0.63306 0.43706 0.1498 0.0
H1154 H 0.668 0.33286 0.13583 0.0
Co1155 Co 0.84326 0.53396 0.42974 0.0
C1156 C 0.90272 0.55081 0.38724 0.0
C1157 C 0.85819 0.57914 0.37136 0.0
C1158 C 0.88607 0.59134 0.35394 0.0
N1159 N 0.86842 0.55307 0.39171 0.0
N1160 N 0.91389 0.57309 0.36358 0.0
H1161 H 0.91986 0.53579 0.40291 0.0
H1162 H 0.83306 0.59064 0.37173 0.0
C1163 C 0.79011 0.52913 0.3723 0.0
O1164 O 0.81138 0.51903 0.34834 0.0
N1165 N 0.81982 0.51463 0.46816 0.0
C1166 C 0.83391 0.49798 0.4952 0.0
C1167 C 0.80804 0.48373 0.5144 0.0
C1168 C 0.78596 0.5102 0.47089 0.0
N1169 N 0.77839 0.49096 0.49828 0.0
C1170 C 0.88959 0.47554 0.41683 0.0
C1171 C 0.83935 0.43387 0.39071 0.0
C1172 C 0.87349 0.4242 0.38471 0.0
C1173 C 0.89874 0.44498 0.40006 0.0
C1174 C 0.83161 0.46505 0.40653 0.0
N1175 N 0.85666 0.48711 0.41644 0.0
H1176 H 0.90909 0.49 0.42963 0.0
H1177 H 0.80505 0.4715 0.41018 0.0
H1178 H 0.86103 0.49576 0.50014 0.0
H1179 H 0.76702 0.52096 0.45363 0.0
O1180 O 0.88012 0.55109 0.45956 0.0
O1181 O 0.83243 0.57879 0.44587 0.0
O1182 O 0.79982 0.53217 0.4031 0.0
C1183 C 0.86128 0.57908 0.46151 0.0
H1184 H 0.88649 0.61428 0.33842 0.0
H1185 H 0.81065 0.46913 0.53795 0.0
H1186 H 0.81822 0.41826 0.3827 0.0
H1187 H 0.92561 0.43887 0.39861 0.0
Co1188 Co 0.76093 0.43039 0.82397 0.0
C1189 C 0.73439 0.37156 0.86386 0.0
C1190 C 0.74883 0.41302 0.89687 0.0
C1191 C 0.73835 0.38593 0.9167 0.0
N1192 N 0.74569 0.40443 0.86362 0.0
N1193 N 0.72997 0.35971 0.89597 0.0
H1194 H 0.72921 0.35662 0.84117 0.0
H1195 H 0.75891 0.43677 0.9064 0.0
C1196 C 0.76069 0.49543 0.86569 0.0
O1197 O 0.77853 0.51876 0.88171 0.0
N1198 N 0.77622 0.45496 0.78428 0.0
C1199 C 0.78354 0.44218 0.75301 0.0
C1200 C 0.78935 0.46924 0.73087 0.0
C1201 C 0.77791 0.48922 0.78104 0.0
N1202 N 0.78622 0.49827 0.74911 0.0
C1203 C 0.81097 0.37607 0.83936 0.0
C1204 C 0.86185 0.42212 0.85506 0.0
C1205 C 0.86373 0.38938 0.87006 0.0
C1206 C 0.8388 0.36555 0.85994 0.0
C1207 C 0.83357 0.43152 0.8348 0.0
N1208 N 0.80678 0.40969 0.83018 0.0
H1209 H 0.79144 0.35773 0.83341 0.0
H1210 H 0.83178 0.45772 0.82581 0.0
H1211 H 0.78335 0.41526 0.74651 0.0
H1212 H 0.77122 0.50746 0.80063 0.0
O1213 O 0.73541 0.39842 0.79439 0.0
O1214 O 0.71517 0.44709 0.81461 0.0
O1215 O 0.77675 0.46987 0.85294 0.0
C1216 C 0.70975 0.42008 0.79662 0.0
H1217 H 0.73778 0.38526 0.94444 0.0
H1218 H 0.7947 0.46788 0.7037 0.0
H1219 H 0.88113 0.44108 0.86035 0.0
H1220 H 0.83921 0.33956 0.86979 0.0
Co1221 Co 0.84609 0.50061 0.08381 0.0
C1222 C 0.90824 0.48001 0.12411 0.0
C1223 C 0.86281 0.4548 0.1403 0.0
C1224 C 0.89007 0.43977 0.15655 0.0
N1225 N 0.87356 0.48119 0.12091 0.0
N1226 N 0.9186 0.45588 0.14675 0.0
H1227 H 0.92593 0.493 0.10772 0.0
H1228 H 0.83805 0.44338 0.13818 0.0
C1229 C 0.7919 0.49119 0.1366 0.0
O1230 O 0.79915 0.49591 0.16906 0.0
N1231 N 0.81955 0.51825 0.04634 0.0
C1232 C 0.82902 0.53897 0.02028 0.0
C1233 C 0.80081 0.54502 0.9996 0.0
C1234 C 0.78643 0.51161 0.04123 0.0
N1235 N 0.77442 0.5282 0.01362 0.0
C1236 C 0.89585 0.55631 0.09659 0.0
C1237 C 0.84553 0.60238 0.11593 0.0
C1238 C 0.87898 0.60866 0.12692 0.0
C1239 C 0.9047 0.58605 0.11477 0.0
C1240 C 0.83792 0.57191 0.09906 0.0
N1241 N 0.86247 0.54746 0.09286 0.0
H1242 H 0.91581 0.54049 0.08617 0.0
H1243 H 0.81151 0.56737 0.09264 0.0
H1244 H 0.85448 0.54884 0.01666 0.0
H1245 H 0.77194 0.49367 0.05618 0.0
O1246 O 0.87924 0.47979 0.05199 0.0
O1247 O 0.83212 0.45547 0.07131 0.0
O1248 O 0.80655 0.51109 0.11541 0.0
C1249 C 0.85939 0.45292 0.05297 0.0
H1250 H 0.88949 0.4158 0.17057 0.0
H1251 H 0.79962 0.5604 0.97644 0.0
H1252 H 0.82478 0.61995 0.12152 0.0
H1253 H 0.93139 0.59 0.12041 0.0
Co1254 Co 0.75254 0.59386 0.32446 0.0
C1255 C 0.78133 0.65177 0.36281 0.0
C1256 C 0.7665 0.61094 0.39681 0.0
C1257 C 0.7784 0.63772 0.41595 0.0
N1258 N 0.76904 0.61935 0.3634 0.0
N1259 N 0.78705 0.66347 0.39454 0.0
H1260 H 0.78633 0.66649 0.33982 0.0
H1261 H 0.75601 0.58752 0.40692 0.0
C1262 C 0.75306 0.52909 0.36721 0.0
O1263 O 0.73548 0.50608 0.38413 0.0
N1264 N 0.73589 0.56963 0.28568 0.0
C1265 C 0.7215 0.58191 0.25658 0.0
C1266 C 0.71272 0.55434 0.23631 0.0
C1267 C 0.73576 0.53546 0.28305 0.0
N1268 N 0.72118 0.52566 0.25385 0.0
C1269 C 0.70412 0.64905 0.33977 0.0
C1270 C 0.65235 0.6041 0.35596 0.0
C1271 C 0.65169 0.63663 0.37118 0.0
C1272 C 0.67702 0.65998 0.36073 0.0
C1273 C 0.68021 0.59414 0.33571 0.0
N1274 N 0.70739 0.61541 0.33087 0.0
H1275 H 0.72396 0.66695 0.33349 0.0
H1276 H 0.68138 0.56792 0.32695 0.0
H1277 H 0.71794 0.6088 0.25055 0.0
H1278 H 0.74737 0.51794 0.30122 0.0
O1279 O 0.77819 0.6253 0.29413 0.0
O1280 O 0.79743 0.57618 0.31489 0.0
O1281 O 0.7368 0.55464 0.35424 0.0
C1282 C 0.80337 0.60308 0.29679 0.0
H1283 H 0.77978 0.63854 0.44365 0.0
H1284 H 0.70146 0.55514 0.21095 0.0
H1285 H 0.63265 0.58557 0.36125 0.0
H1286 H 0.67773 0.6858 0.37063 0.0
Co1287 Co 0.67366 0.51057 0.58121 0.0
C1288 C 0.6125 0.53901 0.61556 0.0
C1289 C 0.65159 0.52519 0.65213 0.0
C1290 C 0.62306 0.53626 0.66947 0.0
N1291 N 0.64519 0.52729 0.61823 0.0
N1292 N 0.59869 0.54482 0.64648 0.0
H1293 H 0.599 0.54348 0.59172 0.0
H1294 H 0.67476 0.5153 0.66373 0.0
C1295 C 0.73782 0.51553 0.62594 0.0
O1296 O 0.75998 0.49837 0.64479 0.0
N1297 N 0.70059 0.4936 0.54365 0.0
C1298 C 0.68928 0.48761 0.51155 0.0
C1299 C 0.71708 0.48252 0.49059 0.0
C1300 C 0.73481 0.49074 0.54213 0.0
N1301 N 0.74536 0.48442 0.51016 0.0
C1302 C 0.62289 0.45825 0.59763 0.0
C1303 C 0.67184 0.40835 0.61148 0.0
C1304 C 0.63918 0.40411 0.62541 0.0
C1305 C 0.61401 0.42878 0.61642 0.0
C1306 C 0.67969 0.43833 0.59344 0.0
N1307 N 0.65609 0.46412 0.589 0.0
H1308 H 0.60347 0.47737 0.59243 0.0
H1309 H 0.7059 0.44192 0.58581 0.0
H1310 H 0.66289 0.48924 0.50346 0.0
H1311 H 0.75204 0.49561 0.56301 0.0
O1312 O 0.64147 0.53321 0.54822 0.0
O1313 O 0.68762 0.556 0.57002 0.0
O1314 O 0.71203 0.49906 0.61437 0.0
C1315 C 0.66164 0.55968 0.55031 0.0
H1316 H 0.61969 0.53649 0.69699 0.0
H1317 H 0.71674 0.48008 0.46295 0.0
H1318 H 0.69194 0.38963 0.61609 0.0
H1319 H 0.58814 0.42687 0.62584 0.0
Co1320 Co 0.66781 0.76351 0.59433 0.0
C1321 C 0.64058 0.74232 0.66238 0.0
C1322 C 0.59987 0.75084 0.62607 0.0
C1323 C 0.58626 0.73951 0.65666 0.0
N1324 N 0.63406 0.75201 0.62933 0.0
N1325 N 0.61186 0.73412 0.67941 0.0
H1326 H 0.66589 0.73935 0.67323 0.0
H1327 H 0.58574 0.75643 0.60285 0.0
C1328 C 0.62137 0.76487 0.5299 0.0
O1329 O 0.59887 0.7841 0.5136 0.0
N1330 N 0.70403 0.775 0.56199 0.0
C1331 C 0.72601 0.80144 0.56502 0.0
C1332 C 0.75008 0.79957 0.53948 0.0
C1333 C 0.717 0.75597 0.53609 0.0
N1334 N 0.7444 0.77086 0.52172 0.0
C1335 C 0.66263 0.82047 0.64327 0.0
C1336 C 0.6427 0.86746 0.59352 0.0
C1337 C 0.63499 0.87507 0.62776 0.0
C1338 C 0.64698 0.85166 0.65294 0.0
C1339 C 0.65737 0.83581 0.585 0.0
N1340 N 0.66527 0.81168 0.60951 0.0
H1341 H 0.67017 0.80246 0.66301 0.0
H1342 H 0.66024 0.82986 0.55811 0.0
H1343 H 0.72512 0.82087 0.58465 0.0
H1344 H 0.70717 0.73149 0.52811 0.0
O1345 O 0.7033 0.74049 0.62263 0.0
O1346 O 0.67138 0.71648 0.58263 0.0
O1347 O 0.63036 0.77494 0.55993 0.0
C1348 C 0.69457 0.7128 0.6059 0.0
H1349 H 0.55955 0.73429 0.66136 0.0
H1350 H 0.76962 0.81815 0.53374 0.0
H1351 H 0.63584 0.88494 0.57295 0.0
H1352 H 0.64234 0.85602 0.67991 0.0
Co1353 Co 0.17733 0.75491 0.4284 0.0
C1354 C 0.14349 0.78248 0.36644 0.0
C1355 C 0.10668 0.76807 0.40456 0.0
C1356 C 0.08975 0.77747 0.3749 0.0
N1357 N 0.14045 0.77179 0.3995 0.0
N1358 N 0.11298 0.78619 0.3511 0.0
H1359 H 0.16735 0.78767 0.35363 0.0
H1360 H 0.09502 0.75818 0.42762 0.0
C1361 C 0.13689 0.76181 0.49448 0.0
O1362 O 0.11868 0.74596 0.51776 0.0
N1363 N 0.21515 0.73677 0.45496 0.0
C1364 C 0.24752 0.73334 0.44359 0.0
C1365 C 0.26818 0.7244 0.47071 0.0
C1366 C 0.21629 0.72778 0.48838 0.0
N1367 N 0.24838 0.72126 0.49869 0.0
C1368 C 0.16459 0.70355 0.37583 0.0
C1369 C 0.14571 0.65358 0.42243 0.0
C1370 C 0.13478 0.65014 0.38831 0.0
C1371 C 0.14639 0.67485 0.36452 0.0
C1372 C 0.16283 0.68311 0.43271 0.0
N1373 N 0.16976 0.7089 0.40998 0.0
H1374 H 0.17205 0.72267 0.35732 0.0
H1375 H 0.16805 0.68621 0.45969 0.0
H1376 H 0.25604 0.73883 0.41782 0.0
H1377 H 0.19481 0.72797 0.50558 0.0
O1378 O 0.20987 0.77707 0.39641 0.0
O1379 O 0.18795 0.80036 0.44283 0.0
O1380 O 0.14446 0.745 0.46714 0.0
C1381 C 0.20763 0.80357 0.41679 0.0
H1382 H 0.0624 0.77714 0.37072 0.0
H1383 H 0.2958 0.72289 0.47051 0.0
H1384 H 0.13947 0.63468 0.44174 0.0
H1385 H 0.13956 0.6737 0.33768 0.0
Co1386 Co 0.5113 0.95018 0.68064 0.0
C1387 C 0.48344 0.91161 0.62159 0.0
C1388 C 0.50074 0.87769 0.66188 0.0
C1389 C 0.48918 0.85848 0.63491 0.0
N1390 N 0.49648 0.91109 0.65399 0.0
N1391 N 0.4789 0.87979 0.60946 0.0
H1392 H 0.47693 0.93458 0.60728 0.0
H1393 H 0.51189 0.86767 0.68523 0.0
C1394 C 0.51595 0.90565 0.74502 0.0
O1395 O 0.5362 0.889 0.76636 0.0
N1396 N 0.52618 0.98901 0.70643 0.0
C1397 C 0.54157 0.01789 0.6956 0.0
C1398 C 0.54958 0.03738 0.72409 0.0
C1399 C 0.52489 0.99113 0.74075 0.0
N1400 N 0.53953 0.01979 0.75206 0.0
C1401 C 0.55916 0.93761 0.62499 0.0
C1402 C 0.61157 0.91954 0.66934 0.0
C1403 C 0.61139 0.90465 0.63661 0.0
C1404 C 0.5858 0.91617 0.61356 0.0
C1405 C 0.58414 0.9404 0.67976 0.0
N1406 N 0.55646 0.94583 0.65884 0.0
H1407 H 0.53892 0.94444 0.60737 0.0
H1408 H 0.58354 0.94887 0.70611 0.0
H1409 H 0.54682 0.02411 0.66908 0.0
H1410 H 0.51277 0.97259 0.75722 0.0
O1411 O 0.48409 0.98001 0.64951 0.0
O1412 O 0.46581 0.95773 0.69801 0.0
O1413 O 0.52955 0.92032 0.71913 0.0
C1414 C 0.45894 0.97588 0.67115 0.0
H1415 H 0.48914 0.83079 0.63376 0.0
H1416 H 0.56187 0.0621 0.72432 0.0
H1417 H 0.63156 0.91352 0.68767 0.0
H1418 H 0.58444 0.90668 0.58759 0.0
Co1419 Co 0.33938 0.26572 0.92275 0.0
C1420 C 0.37367 0.24023 0.86016 0.0
C1421 C 0.4103 0.25373 0.89883 0.0
C1422 C 0.4274 0.24427 0.86941 0.0
N1423 N 0.37653 0.25058 0.89331 0.0
N1424 N 0.40432 0.23613 0.8452 0.0
H1425 H 0.34983 0.23519 0.8472 0.0
H1426 H 0.42188 0.26276 0.92223 0.0
C1427 C 0.37984 0.26 0.98939 0.0
O1428 O 0.39803 0.27644 0.01219 0.0
N1429 N 0.30119 0.28204 0.94968 0.0
C1430 C 0.2685 0.28415 0.93873 0.0
C1431 C 0.24809 0.29293 0.96589 0.0
C1432 C 0.30034 0.29168 0.98283 0.0
N1433 N 0.26831 0.29736 0.99343 0.0
C1434 C 0.35087 0.31885 0.87116 0.0
C1435 C 0.36594 0.36838 0.91924 0.0
C1436 C 0.37807 0.3729 0.88577 0.0
C1437 C 0.36822 0.34854 0.86105 0.0
C1438 C 0.35002 0.33788 0.92839 0.0
N1439 N 0.34502 0.31236 0.90503 0.0
H1440 H 0.34481 0.29993 0.85209 0.0
H1441 H 0.34462 0.33385 0.95516 0.0
H1442 H 0.25966 0.27802 0.91325 0.0
H1443 H 0.32208 0.29266 0.99975 0.0
O1444 O 0.30721 0.24324 0.89081 0.0
O1445 O 0.33059 0.21975 0.93685 0.0
O1446 O 0.37226 0.27614 0.96144 0.0
C1447 C 0.31036 0.21658 0.91115 0.0
H1448 H 0.45482 0.24378 0.86584 0.0
H1449 H 0.22045 0.29346 0.96611 0.0
H1450 H 0.37087 0.387 0.93907 0.0
H1451 H 0.37605 0.35068 0.83456 0.0
Co1452 Co 0.5208 0.58985 0.66876 0.0
C1453 C 0.5388 0.63111 0.60636 0.0
C1454 C 0.56344 0.64836 0.65191 0.0
C1455 C 0.57767 0.66465 0.62441 0.0
N1456 N 0.53773 0.62828 0.64134 0.0
N1457 N 0.56206 0.65412 0.59568 0.0
H1458 H 0.52673 0.61385 0.58881 0.0
H1459 H 0.57534 0.64673 0.67676 0.0
C1460 C 0.52938 0.64221 0.72324 0.0
O1461 O 0.52424 0.67375 0.71254 0.0
N1462 N 0.50626 0.55047 0.69458 0.0
C1463 C 0.49368 0.52086 0.68227 0.0
C1464 C 0.49234 0.49724 0.70881 0.0
C1465 C 0.51267 0.54459 0.72801 0.0
N1466 N 0.50451 0.51253 0.73709 0.0
C1467 C 0.46276 0.60443 0.62105 0.0
C1468 C 0.41863 0.61995 0.67417 0.0
C1469 C 0.41026 0.63215 0.64138 0.0
C1470 C 0.43194 0.62219 0.61421 0.0
C1471 C 0.44964 0.60272 0.67976 0.0
N1472 N 0.47304 0.59829 0.654 0.0
H1473 H 0.47819 0.59629 0.59987 0.0
H1474 H 0.4556 0.59488 0.7057 0.0
H1475 H 0.48674 0.51657 0.65579 0.0
H1476 H 0.52436 0.56268 0.74503 0.0
O1477 O 0.54152 0.55966 0.63421 0.0
O1478 O 0.56646 0.57841 0.68159 0.0
O1479 O 0.51087 0.61919 0.71003 0.0
C1480 C 0.56864 0.56052 0.654 0.0
H1481 H 0.60102 0.6792 0.62507 0.0
H1482 H 0.48275 0.47135 0.70767 0.0
H1483 H 0.40201 0.62475 0.69581 0.0
H1484 H 0.42618 0.62941 0.58798 0.0
Co1485 Co 0.84244 0.26288 0.0998 0.0
C1486 C 0.87769 0.28446 0.16504 0.0
C1487 C 0.90017 0.30425 0.11929 0.0
C1488 C 0.91444 0.32023 0.14667 0.0
N1489 N 0.87792 0.28058 0.13015 0.0
N1490 N 0.90091 0.30761 0.17562 0.0
H1491 H 0.85838 0.27444 0.1819 0.0
H1492 H 0.90106 0.31423 0.09373 0.0
C1493 C 0.89635 0.27142 0.04606 0.0
O1494 O 0.92917 0.26736 0.05167 0.0
N1495 N 0.80591 0.24746 0.07065 0.0
C1496 C 0.77861 0.22855 0.07966 0.0
C1497 C 0.75626 0.22743 0.05216 0.0
C1498 C 0.79968 0.25813 0.03836 0.0
N1499 N 0.77004 0.24587 0.02657 0.0
C1500 C 0.85539 0.20592 0.1498 0.0
C1501 C 0.86935 0.15916 0.09844 0.0
C1502 C 0.88041 0.15111 0.13168 0.0
C1503 C 0.87145 0.17435 0.1579 0.0
C1504 C 0.85391 0.19092 0.09151 0.0
N1505 N 0.84949 0.21523 0.11647 0.0
H1506 H 0.84873 0.22279 0.17036 0.0
H1507 H 0.84765 0.19669 0.0651 0.0
H1508 H 0.77487 0.21715 0.1047 0.0
H1509 H 0.81498 0.27648 0.02475 0.0
O1510 O 0.80868 0.28418 0.13059 0.0
O1511 O 0.83225 0.30869 0.08515 0.0
O1512 O 0.87681 0.25139 0.06272 0.0
C1513 C 0.81147 0.31118 0.11067 0.0
H1514 H 0.92942 0.34323 0.14525 0.0
H1515 H 0.73206 0.21434 0.05098 0.0
H1516 H 0.87382 0.1417 0.0774 0.0
H1517 H 0.87832 0.16922 0.18434 0.0
Co1518 Co 0.50637 0.09774 0.8593 0.0
C1519 C 0.47373 0.12817 0.9206 0.0
C1520 C 0.48333 0.16675 0.88229 0.0
C1521 C 0.46876 0.18198 0.91058 0.0
N1522 N 0.48619 0.13284 0.88838 0.0
N1523 N 0.46283 0.15775 0.93444 0.0
H1524 H 0.47227 0.10374 0.93369 0.0
H1525 H 0.49182 0.17981 0.85941 0.0
C1526 C 0.50583 0.14487 0.79595 0.0
O1527 O 0.5242 0.16582 0.77738 0.0
N1528 N 0.52618 0.06156 0.83173 0.0
C1529 C 0.53121 0.02882 0.84205 0.0
C1530 C 0.53965 1.00928 0.814 0.0
C1531 C 0.53299 0.06171 0.79779 0.0
N1532 N 0.54072 0.03019 0.78647 0.0
C1533 C 0.55548 0.11842 0.91275 0.0
C1534 C 0.60643 0.13082 0.86546 0.0
C1535 C 0.60789 0.14831 0.89672 0.0
C1536 C 0.58283 0.14003 0.92134 0.0
C1537 C 0.57839 0.11026 0.85771 0.0
N1538 N 0.55167 0.10649 0.88005 0.0
H1539 H 0.53628 0.11362 0.93183 0.0
H1540 H 0.57681 0.10067 0.83192 0.0
H1541 H 0.52706 0.01935 0.86779 0.0
H1542 H 0.53101 0.08371 0.78116 0.0
O1543 O 0.48318 0.063 0.88869 0.0
O1544 O 0.46206 0.08599 0.84171 0.0
O1545 O 0.51929 0.13309 0.82363 0.0
C1546 C 0.4576 0.0655 0.86713 0.0
H1547 H 0.46456 0.20902 0.91442 0.0
H1548 H 0.54278 0.98169 0.81345 0.0
H1549 H 0.62575 0.13441 0.84602 0.0
H1550 H 0.58279 0.1518 0.9464 0.0
Co1551 Co 0.00966 0.92474 0.35898 0.0
C1552 C 0.04257 0.89446 0.42087 0.0
C1553 C 0.03207 0.85567 0.38339 0.0
C1554 C 0.04695 0.84054 0.41179 0.0
N1555 N 0.02958 0.88967 0.38886 0.0
N1556 N 0.05349 0.86488 0.43512 0.0
H1557 H 0.04445 0.91899 0.43348 0.0
H1558 H 0.02311 0.84247 0.36088 0.0
C1559 C 0.00961 0.87611 0.29719 0.0
O1560 O 0.99157 0.85387 0.27991 0.0
N1561 N 0.99039 0.96086 0.33058 0.0
C1562 C 0.98431 0.99338 0.34071 0.0
C1563 C 0.97622 0.01301 0.31236 0.0
C1564 C 0.98476 0.96087 0.29641 0.0
N1565 N 0.9765 0.99231 0.28484 0.0
C1566 C 0.96037 0.90422 0.41218 0.0
C1567 C 0.90925 0.89347 0.36454 0.0
C1568 C 0.90773 0.87524 0.3955 0.0
C1569 C 0.93281 0.88271 0.42038 0.0
C1570 C 0.93744 0.91393 0.35718 0.0
N1571 N 0.96427 0.91681 0.37964 0.0
H1572 H 0.9797 0.90827 0.43136 0.0
H1573 H 0.9391 0.92398 0.33148 0.0
H1574 H 0.98733 1.00263 0.36662 0.0
H1575 H 0.98778 0.93903 0.27993 0.0
O1576 O 0.03306 0.9596 0.38774 0.0
O1577 O 0.054 0.93589 0.34134 0.0
O1578 O 0.9961 0.88913 0.3241 0.0
C1579 C 0.05855 0.95672 0.36627 0.0
H1580 H 0.05076 0.81349 0.41619 0.0
H1581 H 0.97212 0.04048 0.31172 0.0
H1582 H 0.8899 0.89041 0.34496 0.0
H1583 H 0.93273 0.87029 0.44524 0.0
loop_
_geom_bond_atom_site_label_1
_geom_bond_atom_site_label_2
_geom_bond_distance
_geom_bond_site_symmetry_2
_ccdc_geom_bond_type
Co0 N4 2.148 . S
Co0 N10 2.128 . S
Co0 N20 2.194 . S
Co0 O25 2.351 . S
Co0 O26 2.155 . S
Co0 O27 2.096 . S
C1 N4 1.301 . S
C1 N5 1.328 . S
C1 H6 0.930 . S
C2 C3 1.333 . S
C2 N4 1.317 . S
C2 H7 0.930 . S
C3 C2 1.333 . S
C3 N5 1.350 . S
C3 H29 0.931 . S
N4 Co0 2.148 . S
N4 C1 1.301 . S
N4 C2 1.317 . S
N5 C1 1.328 . S
N5 C3 1.350 . S
H6 C1 0.930 . S
H7 C2 0.930 . S
C8 O9 1.224 . S
C8 O27 1.247 . S
O9 C8 1.224 . S
N10 Co0 2.128 . S
N10 C11 1.355 . S
N10 C13 1.311 . S
C11 N10 1.355 . S
C11 C12 1.363 . S
C11 H23 0.929 . S
C12 C11 1.363 . S
C12 N14 1.375 . S
C12 H30 0.931 . S
C13 N10 1.311 . S
C13 N14 1.347 . S
C13 H24 0.929 . S
N14 C12 1.375 . S
N14 C13 1.347 . S
C15 C18 1.365 . S
C15 N20 1.328 . S
C15 H21 0.929 . S
C16 C17 1.362 . S
C16 C19 1.378 . S
C16 H31 0.929 . S
C17 C16 1.362 . S
C17 C18 1.366 . S
C18 C15 1.365 . S
C18 C17 1.366 . S
C18 H32 0.930 . S
C19 C16 1.378 . S
C19 N20 1.315 . S
C19 H22 0.930 . S
N20 Co0 2.194 . S
N20 C15 1.328 . S
N20 C19 1.315 . S
H21 C15 0.929 . S
H22 C19 0.930 . S
H23 C11 0.929 . S
H24 C13 0.929 . S
O25 Co0 2.351 . S
O25 C28 1.244 . S
O26 Co0 2.155 . S
O26 C28 1.240 . S
O27 Co0 2.096 . S
O27 C8 1.247 . S
C28 O25 1.244 . S
C28 O26 1.240 . S
H29 C3 0.931 . S
H30 C12 0.931 . S
H31 C16 0.929 . S
H32 C18 0.930 . S
Co33 N37 2.148 . S
Co33 N43 2.128 . S
Co33 N53 2.194 . S
Co33 O58 2.351 . S
Co33 O59 2.155 . S
Co33 O60 2.096 . S
C34 N37 1.301 . S
C34 N38 1.328 . S
C34 H39 0.930 . S
C35 C36 1.333 . S
C35 N37 1.317 . S
C35 H40 0.930 . S
C36 C35 1.333 . S
C36 N38 1.350 . S
C36 H62 0.931 . S
N37 Co33 2.148 . S
N37 C34 1.301 . S
N37 C35 1.317 . S
N38 C34 1.328 . S
N38 C36 1.350 . S
H39 C34 0.930 . S
H40 C35 0.930 . S
C41 O42 1.224 . S
C41 O60 1.247 . S
O42 C41 1.224 . S
N43 Co33 2.128 . S
N43 C44 1.355 . S
N43 C46 1.311 . S
C44 N43 1.355 . S
C44 C45 1.363 1_455 S
C44 H56 0.929 . S
C45 C44 1.363 1_655 S
C45 N47 1.375 1_655 S
C45 H63 0.931 . S
C46 N43 1.311 . S
C46 N47 1.347 . S
C46 H57 0.929 . S
N47 C45 1.375 1_455 S
N47 C46 1.347 . S
C48 C51 1.365 . S
C48 N53 1.328 . S
C48 H54 0.929 . S
C49 C50 1.362 . S
C49 C52 1.378 . S
C49 H64 0.929 . S
C50 C49 1.362 . S
C50 C51 1.366 . S
C51 C48 1.365 . S
C51 C50 1.366 . S
C51 H65 0.930 . S
C52 C49 1.378 . S
C52 N53 1.315 . S
C52 H55 0.930 . S
N53 Co33 2.194 . S
N53 C48 1.328 . S
N53 C52 1.315 . S
H54 C48 0.929 . S
H55 C52 0.930 . S
H56 C44 0.929 . S
H57 C46 0.929 . S
O58 Co33 2.351 . S
O58 C61 1.244 . S
O59 Co33 2.155 . S
O59 C61 1.240 . S
O60 Co33 2.096 . S
O60 C41 1.247 . S
C61 O58 1.244 . S
C61 O59 1.240 . S
H62 C36 0.931 . S
H63 C45 0.931 . S
H64 C49 0.929 . S
H65 C51 0.930 . S
Co66 N70 2.148 . S
Co66 N76 2.128 . S
Co66 N86 2.194 . S
Co66 O91 2.351 . S
Co66 O92 2.155 . S
Co66 O93 2.096 . S
C67 N70 1.301 . S
C67 N71 1.328 . S
C67 H72 0.930 . S
C68 C69 1.333 . S
C68 N70 1.317 . S
C68 H73 0.930 . S
C69 C68 1.333 . S
C69 N71 1.350 . S
C69 H95 0.931 . S
N70 Co66 2.148 . S
N70 C67 1.301 . S
N70 C68 1.317 . S
N71 C67 1.328 . S
N71 C69 1.350 . S
H72 C67 0.930 . S
H73 C68 0.930 . S
C74 O75 1.224 . S
C74 O93 1.247 . S
O75 C74 1.224 . S
N76 Co66 2.128 . S
N76 C77 1.355 . S
N76 C79 1.311 . S
C77 N76 1.355 . S
C77 C78 1.363 . S
C77 H89 0.929 . S
C78 C77 1.363 . S
C78 N80 1.375 . S
C78 H96 0.931 . S
C79 N76 1.311 . S
C79 N80 1.347 . S
C79 H90 0.929 . S
N80 C78 1.375 . S
N80 C79 1.347 . S
C81 C84 1.365 . S
C81 N86 1.328 . S
C81 H87 0.929 . S
C82 C83 1.362 . S
C82 C85 1.378 . S
C82 H97 0.929 . S
C83 C82 1.362 . S
C83 C84 1.366 . S
C84 C81 1.365 . S
C84 C83 1.366 . S
C84 H98 0.930 . S
C85 C82 1.378 . S
C85 N86 1.315 . S
C85 H88 0.930 . S
N86 Co66 2.194 . S
N86 C81 1.328 . S
N86 C85 1.315 . S
H87 C81 0.929 . S
H88 C85 0.930 . S
H89 C77 0.929 . S
H90 C79 0.929 . S
O91 Co66 2.351 . S
O91 C94 1.244 . S
O92 Co66 2.155 . S
O92 C94 1.240 . S
O93 Co66 2.096 . S
O93 C74 1.247 . S
C94 O91 1.244 . S
C94 O92 1.240 . S
H95 C69 0.931 . S
H96 C78 0.931 . S
H97 C82 0.929 . S
H98 C84 0.930 . S
Co99 N103 2.148 1_554 S
Co99 N109 2.128 . S
Co99 N119 2.194 . S
Co99 O124 2.351 . S
Co99 O125 2.155 1_554 S
Co99 O126 2.096 1_554 S
C100 N103 1.301 . S
C100 N104 1.328 . S
C100 H105 0.930 1_556 S
C101 C102 1.333 . S
C101 N103 1.317 . S
C101 H106 0.930 . S
C102 C101 1.333 . S
C102 N104 1.350 . S
C102 H128 0.931 . S
N103 Co99 2.148 1_556 S
N103 C100 1.301 . S
N103 C101 1.317 . S
N104 C100 1.328 . S
N104 C102 1.350 . S
H105 C100 0.930 1_554 S
H106 C101 0.930 . S
C107 O108 1.224 1_556 S
C107 O126 1.247 . S
O108 C107 1.224 1_554 S
N109 Co99 2.128 . S
N109 C110 1.355 . S
N109 C112 1.311 . S
C110 N109 1.355 . S
C110 C111 1.363 . S
C110 H122 0.929 . S
C111 C110 1.363 . S
C111 N113 1.375 . S
C111 H129 0.931 . S
C112 N109 1.311 . S
C112 N113 1.347 . S
C112 H123 0.929 . S
N113 C111 1.375 . S
N113 C112 1.347 . S
C114 C117 1.365 . S
C114 N119 1.328 . S
C114 H120 0.929 . S
C115 C116 1.362 . S
C115 C118 1.378 . S
C115 H130 0.929 . S
C116 C115 1.362 . S
C116 C117 1.366 . S
C117 C114 1.365 . S
C117 C116 1.366 . S
C117 H131 0.930 . S
C118 C115 1.378 . S
C118 N119 1.315 . S
C118 H121 0.930 . S
N119 Co99 2.194 . S
N119 C114 1.328 . S
N119 C118 1.315 . S
H120 C114 0.929 . S
H121 C118 0.930 . S
H122 C110 0.929 . S
H123 C112 0.929 . S
O124 Co99 2.351 . S
O124 C127 1.244 1_554 S
O125 Co99 2.155 1_556 S
O125 C127 1.240 . S
O126 Co99 2.096 1_556 S
O126 C107 1.247 . S
C127 O124 1.244 1_556 S
C127 O125 1.240 . S
H128 C102 0.931 . S
H129 C111 0.931 . S
H130 C115 0.929 . S
H131 C117 0.930 . S
Co132 N136 2.148 . S
Co132 N142 2.128 . S
Co132 N152 2.194 . S
Co132 O157 2.351 . S
Co132 O158 2.155 . S
Co132 O159 2.096 . S
C133 N136 1.301 . S
C133 N137 1.328 . S
C133 H138 0.930 . S
C134 C135 1.333 . S
C134 N136 1.317 . S
C134 H139 0.930 . S
C135 C134 1.333 . S
C135 N137 1.350 . S
C135 H161 0.931 . S
N136 Co132 2.148 . S
N136 C133 1.301 . S
N136 C134 1.317 . S
N137 C133 1.328 . S
N137 C135 1.350 . S
H138 C133 0.930 . S
H139 C134 0.930 . S
C140 O141 1.224 . S
C140 O159 1.247 . S
O141 C140 1.224 . S
N142 Co132 2.128 . S
N142 C143 1.355 . S
N142 C145 1.311 . S
C143 N142 1.355 . S
C143 C144 1.363 . S
C143 H155 0.929 . S
C144 C143 1.363 . S
C144 N146 1.375 . S
C144 H162 0.931 . S
C145 N142 1.311 . S
C145 N146 1.347 . S
C145 H156 0.929 . S
N146 C144 1.375 . S
N146 C145 1.347 . S
C147 C150 1.365 . S
C147 N152 1.328 . S
C147 H153 0.929 . S
C148 C149 1.362 . S
C148 C151 1.378 . S
C148 H163 0.929 . S
C149 C148 1.362 . S
C149 C150 1.366 . S
C150 C147 1.365 . S
C150 C149 1.366 . S
C150 H164 0.930 . S
C151 C148 1.378 . S
C151 N152 1.315 . S
C151 H154 0.930 . S
N152 Co132 2.194 . S
N152 C147 1.328 . S
N152 C151 1.315 . S
H153 C147 0.929 . S
H154 C151 0.930 . S
H155 C143 0.929 . S
H156 C145 0.929 . S
O157 Co132 2.351 . S
O157 C160 1.244 . S
O158 Co132 2.155 . S
O158 C160 1.240 . S
O159 Co132 2.096 . S
O159 C140 1.247 . S
C160 O157 1.244 . S
C160 O158 1.240 . S
H161 C135 0.931 . S
H162 C144 0.931 . S
H163 C148 0.929 . S
H164 C150 0.930 . S
Co165 N169 2.148 . S
Co165 N175 2.128 . S
Co165 N185 2.194 . S
Co165 O190 2.351 . S
Co165 O191 2.155 . S
Co165 O192 2.096 . S
C166 N169 1.301 . S
C166 N170 1.328 . S
C166 H171 0.930 . S
C167 C168 1.333 . S
C167 N169 1.317 . S
C167 H172 0.930 . S
C168 C167 1.333 . S
C168 N170 1.350 . S
C168 H194 0.931 . S
N169 Co165 2.148 . S
N169 C166 1.301 . S
N169 C167 1.317 . S
N170 C166 1.328 . S
N170 C168 1.350 . S
H171 C166 0.930 . S
H172 C167 0.930 . S
C173 O174 1.224 . S
C173 O192 1.247 . S
O174 C173 1.224 . S
N175 Co165 2.128 . S
N175 C176 1.355 . S
N175 C178 1.311 . S
C176 N175 1.355 . S
C176 C177 1.363 . S
C176 H188 0.929 . S
C177 C176 1.363 . S
C177 N179 1.375 . S
C177 H195 0.931 . S
C178 N175 1.311 . S
C178 N179 1.347 . S
C178 H189 0.929 . S
N179 C177 1.375 . S
N179 C178 1.347 . S
C180 C183 1.365 . S
C180 N185 1.328 . S
C180 H186 0.929 . S
C181 C182 1.362 . S
C181 C184 1.378 . S
C181 H196 0.929 . S
C182 C181 1.362 . S
C182 C183 1.366 . S
C183 C180 1.365 . S
C183 C182 1.366 . S
C183 H197 0.930 . S
C184 C181 1.378 . S
C184 N185 1.315 . S
C184 H187 0.930 . S
N185 Co165 2.194 . S
N185 C180 1.328 . S
N185 C184 1.315 . S
H186 C180 0.929 . S
H187 C184 0.930 . S
H188 C176 0.929 . S
H189 C178 0.929 . S
O190 Co165 2.351 . S
O190 C193 1.244 . S
O191 Co165 2.155 . S
O191 C193 1.240 . S
O192 Co165 2.096 . S
O192 C173 1.247 . S
C193 O190 1.244 . S
C193 O191 1.240 . S
H194 C168 0.931 . S
H195 C177 0.931 . S
H196 C181 0.929 . S
H197 C183 0.930 . S
Co198 N202 2.148 . S
Co198 N208 2.128 . S
Co198 N218 2.194 . S
Co198 O223 2.351 . S
Co198 O224 2.155 . S
Co198 O225 2.096 . S
C199 N202 1.301 . S
C199 N203 1.328 . S
C199 H204 0.930 . S
C200 C201 1.333 . S
C200 N202 1.317 . S
C200 H205 0.930 . S
C201 C200 1.333 . S
C201 N203 1.350 . S
C201 H227 0.931 . S
N202 Co198 2.148 . S
N202 C199 1.301 . S
N202 C200 1.317 . S
N203 C199 1.328 . S
N203 C201 1.350 . S
H204 C199 0.930 . S
H205 C200 0.930 . S
C206 O207 1.224 . S
C206 O225 1.247 . S
O207 C206 1.224 . S
N208 Co198 2.128 . S
N208 C209 1.355 . S
N208 C211 1.311 . S
C209 N208 1.355 . S
C209 C210 1.363 . S
C209 H221 0.929 . S
C210 C209 1.363 . S
C210 N212 1.375 . S
C210 H228 0.931 . S
C211 N208 1.311 . S
C211 N212 1.347 . S
C211 H222 0.929 . S
N212 C210 1.375 . S
N212 C211 1.347 . S
C213 C216 1.365 . S
C213 N218 1.328 . S
C213 H219 0.929 . S
C214 C215 1.362 . S
C214 C217 1.378 . S
C214 H229 0.929 . S
C215 C214 1.362 . S
C215 C216 1.366 . S
C216 C213 1.365 . S
C216 C215 1.366 . S
C216 H230 0.930 . S
C217 C214 1.378 . S
C217 N218 1.315 . S
C217 H220 0.930 . S
N218 Co198 2.194 . S
N218 C213 1.328 . S
N218 C217 1.315 . S
H219 C213 0.929 . S
H220 C217 0.930 . S
H221 C209 0.929 . S
H222 C211 0.929 . S
O223 Co198 2.351 . S
O223 C226 1.244 . S
O224 Co198 2.155 . S
O224 C226 1.240 . S
O225 Co198 2.096 . S
O225 C206 1.247 . S
C226 O223 1.244 . S
C226 O224 1.240 . S
H227 C201 0.931 . S
H228 C210 0.931 . S
H229 C214 0.929 . S
H230 C216 0.930 . S
Co231 N235 2.148 1_556 S
Co231 N241 2.128 . S
Co231 N251 2.194 . S
Co231 O256 2.351 . S
Co231 O257 2.155 1_556 S
Co231 O258 2.096 1_556 S
C232 N235 1.301 . S
C232 N236 1.328 . S
C232 H237 0.930 1_554 S
C233 C234 1.333 . S
C233 N235 1.317 . S
C233 H238 0.930 . S
C234 C233 1.333 . S
C234 N236 1.350 . S
C234 H260 0.931 . S
N235 Co231 2.148 1_554 S
N235 C232 1.301 . S
N235 C233 1.317 . S
N236 C232 1.328 . S
N236 C234 1.350 . S
H237 C232 0.930 1_556 S
H238 C233 0.930 . S
C239 O240 1.224 1_554 S
C239 O258 1.247 . S
O240 C239 1.224 1_556 S
N241 Co231 2.128 . S
N241 C242 1.355 . S
N241 C244 1.311 . S
C242 N241 1.355 . S
C242 C243 1.363 1_455 S
C242 H254 0.929 . S
C243 C242 1.363 1_655 S
C243 N245 1.375 1_655 S
C243 H261 0.931 . S
C244 N241 1.311 . S
C244 N245 1.347 . S
C244 H255 0.929 . S
N245 C243 1.375 1_455 S
N245 C244 1.347 . S
C246 C249 1.365 . S
C246 N251 1.328 . S
C246 H252 0.929 . S
C247 C248 1.362 . S
C247 C250 1.378 . S
C247 H262 0.929 . S
C248 C247 1.362 . S
C248 C249 1.366 . S
C249 C246 1.365 . S
C249 C248 1.366 . S
C249 H263 0.930 . S
C250 C247 1.378 . S
C250 N251 1.315 . S
C250 H253 0.930 . S
N251 Co231 2.194 . S
N251 C246 1.328 . S
N251 C250 1.315 . S
H252 C246 0.929 . S
H253 C250 0.930 . S
H254 C242 0.929 . S
H255 C244 0.929 . S
O256 Co231 2.351 . S
O256 C259 1.244 1_556 S
O257 Co231 2.155 1_554 S
O257 C259 1.240 . S
O258 Co231 2.096 1_554 S
O258 C239 1.247 . S
C259 O256 1.244 1_554 S
C259 O257 1.240 . S
H260 C234 0.931 . S
H261 C243 0.931 . S
H262 C247 0.929 . S
H263 C249 0.930 . S
Co264 N268 2.148 . S
Co264 N274 2.128 . S
Co264 N284 2.194 . S
Co264 O289 2.351 . S
Co264 O290 2.155 . S
Co264 O291 2.096 . S
C265 N268 1.301 . S
C265 N269 1.328 . S
C265 H270 0.930 . S
C266 C267 1.333 . S
C266 N268 1.317 . S
C266 H271 0.930 . S
C267 C266 1.333 . S
C267 N269 1.350 . S
C267 H293 0.931 . S
N268 Co264 2.148 . S
N268 C265 1.301 . S
N268 C266 1.317 . S
N269 C265 1.328 . S
N269 C267 1.350 . S
H270 C265 0.930 . S
H271 C266 0.930 . S
C272 O273 1.224 . S
C272 O291 1.247 . S
O273 C272 1.224 . S
N274 Co264 2.128 . S
N274 C275 1.355 . S
N274 C277 1.311 . S
C275 N274 1.355 . S
C275 C276 1.363 . S
C275 H287 0.929 . S
C276 C275 1.363 . S
C276 N278 1.375 . S
C276 H294 0.931 . S
C277 N274 1.311 . S
C277 N278 1.347 . S
C277 H288 0.929 . S
N278 C276 1.375 . S
N278 C277 1.347 . S
C279 C282 1.365 . S
C279 N284 1.328 . S
C279 H285 0.929 . S
C280 C281 1.362 . S
C280 C283 1.378 . S
C280 H295 0.929 . S
C281 C280 1.362 . S
C281 C282 1.366 . S
C282 C279 1.365 . S
C282 C281 1.366 . S
C282 H296 0.930 . S
C283 C280 1.378 . S
C283 N284 1.315 . S
C283 H286 0.930 . S
N284 Co264 2.194 . S
N284 C279 1.328 . S
N284 C283 1.315 . S
H285 C279 0.929 . S
H286 C283 0.930 . S
H287 C275 0.929 . S
H288 C277 0.929 . S
O289 Co264 2.351 . S
O289 C292 1.244 . S
O290 Co264 2.155 . S
O290 C292 1.240 . S
O291 Co264 2.096 . S
O291 C272 1.247 . S
C292 O289 1.244 . S
C292 O290 1.240 . S
H293 C267 0.931 . S
H294 C276 0.931 . S
H295 C280 0.929 . S
H296 C282 0.930 . S
Co297 N301 2.148 1_545 S
Co297 N307 2.128 . S
Co297 N317 2.194 . S
Co297 O322 2.351 . S
Co297 O323 2.155 1_545 S
Co297 O324 2.096 1_545 S
C298 N301 1.301 . S
C298 N302 1.328 . S
C298 H303 0.930 1_565 S
C299 C300 1.333 . S
C299 N301 1.317 . S
C299 H304 0.930 . S
C300 C299 1.333 . S
C300 N302 1.350 . S
C300 H326 0.931 . S
N301 Co297 2.148 1_565 S
N301 C298 1.301 . S
N301 C299 1.317 . S
N302 C298 1.328 . S
N302 C300 1.350 . S
H303 C298 0.930 1_545 S
H304 C299 0.930 . S
C305 O306 1.224 1_565 S
C305 O324 1.247 . S
O306 C305 1.224 1_545 S
N307 Co297 2.128 . S
N307 C308 1.355 . S
N307 C310 1.311 . S
C308 N307 1.355 . S
C308 C309 1.363 . S
C308 H320 0.929 . S
C309 C308 1.363 . S
C309 N311 1.375 . S
C309 H327 0.931 . S
C310 N307 1.311 . S
C310 N311 1.347 . S
C310 H321 0.929 . S
N311 C309 1.375 . S
N311 C310 1.347 . S
C312 C315 1.365 . S
C312 N317 1.328 . S
C312 H318 0.929 . S
C313 C314 1.362 . S
C313 C316 1.378 . S
C313 H328 0.929 . S
C314 C313 1.362 . S
C314 C315 1.366 . S
C315 C312 1.365 . S
C315 C314 1.366 . S
C315 H329 0.930 . S
C316 C313 1.378 . S
C316 N317 1.315 . S
C316 H319 0.930 . S
N317 Co297 2.194 . S
N317 C312 1.328 . S
N317 C316 1.315 . S
H318 C312 0.929 . S
H319 C316 0.930 . S
H320 C308 0.929 . S
H321 C310 0.929 . S
O322 Co297 2.351 . S
O322 C325 1.244 1_545 S
O323 Co297 2.155 1_565 S
O323 C325 1.240 . S
O324 Co297 2.096 1_565 S
O324 C305 1.247 . S
C325 O322 1.244 1_565 S
C325 O323 1.240 . S
H326 C300 0.931 . S
H327 C309 0.931 . S
H328 C313 0.929 . S
H329 C315 0.930 . S
Co330 N334 2.148 . S
Co330 N340 2.128 . S
Co330 N350 2.194 . S
Co330 O355 2.351 . S
Co330 O356 2.155 . S
Co330 O357 2.096 . S
C331 N334 1.301 . S
C331 N335 1.328 . S
C331 H336 0.930 . S
C332 C333 1.333 . S
C332 N334 1.317 . S
C332 H337 0.930 . S
C333 C332 1.333 . S
C333 N335 1.350 . S
C333 H359 0.931 . S
N334 Co330 2.148 . S
N334 C331 1.301 . S
N334 C332 1.317 . S
N335 C331 1.328 . S
N335 C333 1.350 . S
H336 C331 0.930 . S
H337 C332 0.930 . S
C338 O339 1.224 . S
C338 O357 1.247 . S
O339 C338 1.224 . S
N340 Co330 2.128 . S
N340 C341 1.355 . S
N340 C343 1.311 . S
C341 N340 1.355 . S
C341 C342 1.363 . S
C341 H353 0.929 . S
C342 C341 1.363 . S
C342 N344 1.375 . S
C342 H360 0.931 . S
C343 N340 1.311 . S
C343 N344 1.347 . S
C343 H354 0.929 . S
N344 C342 1.375 . S
N344 C343 1.347 . S
C345 C348 1.365 . S
C345 N350 1.328 . S
C345 H351 0.929 . S
C346 C347 1.362 . S
C346 C349 1.378 . S
C346 H361 0.929 . S
C347 C346 1.362 . S
C347 C348 1.366 . S
C348 C345 1.365 . S
C348 C347 1.366 . S
C348 H362 0.930 . S
C349 C346 1.378 . S
C349 N350 1.315 . S
C349 H352 0.930 . S
N350 Co330 2.194 . S
N350 C345 1.328 . S
N350 C349 1.315 . S
H351 C345 0.929 . S
H352 C349 0.930 . S
H353 C341 0.929 . S
H354 C343 0.929 . S
O355 Co330 2.351 . S
O355 C358 1.244 . S
O356 Co330 2.155 . S
O356 C358 1.240 . S
O357 Co330 2.096 . S
O357 C338 1.247 . S
C358 O355 1.244 . S
C358 O356 1.240 . S
H359 C333 0.931 . S
H360 C342 0.931 . S
H361 C346 0.929 . S
H362 C348 0.930 . S
Co363 N367 2.148 1_565 S
Co363 N373 2.128 . S
Co363 N383 2.194 . S
Co363 O388 2.351 . S
Co363 O389 2.155 1_565 S
Co363 O390 2.096 1_565 S
C364 N367 1.301 . S
C364 N368 1.328 . S
C364 H369 0.930 1_545 S
C365 C366 1.333 . S
C365 N367 1.317 . S
C365 H370 0.930 . S
C366 C365 1.333 . S
C366 N368 1.350 . S
C366 H392 0.931 . S
N367 Co363 2.148 1_545 S
N367 C364 1.301 . S
N367 C365 1.317 . S
N368 C364 1.328 . S
N368 C366 1.350 . S
H369 C364 0.930 1_565 S
H370 C365 0.930 . S
C371 O372 1.224 1_545 S
C371 O390 1.247 . S
O372 C371 1.224 1_565 S
N373 Co363 2.128 . S
N373 C374 1.355 . S
N373 C376 1.311 . S
C374 N373 1.355 . S
C374 C375 1.363 1_556 S
C374 H386 0.929 . S
C375 C374 1.363 1_554 S
C375 N377 1.375 1_554 S
C375 H393 0.931 . S
C376 N373 1.311 . S
C376 N377 1.347 . S
C376 H387 0.929 . S
N377 C375 1.375 1_556 S
N377 C376 1.347 . S
C378 C381 1.365 . S
C378 N383 1.328 . S
C378 H384 0.929 . S
C379 C380 1.362 . S
C379 C382 1.378 . S
C379 H394 0.929 . S
C380 C379 1.362 . S
C380 C381 1.366 . S
C381 C378 1.365 . S
C381 C380 1.366 . S
C381 H395 0.930 . S
C382 C379 1.378 . S
C382 N383 1.315 . S
C382 H385 0.930 . S
N383 Co363 2.194 . S
N383 C378 1.328 . S
N383 C382 1.315 . S
H384 C378 0.929 . S
H385 C382 0.930 . S
H386 C374 0.929 . S
H387 C376 0.929 . S
O388 Co363 2.351 . S
O388 C391 1.244 1_565 S
O389 Co363 2.155 1_545 S
O389 C391 1.240 . S
O390 Co363 2.096 1_545 S
O390 C371 1.247 . S
C391 O388 1.244 1_545 S
C391 O389 1.240 . S
H392 C366 0.931 . S
H393 C375 0.931 . S
H394 C379 0.929 . S
H395 C381 0.930 . S
Co396 N400 2.148 . S
Co396 N406 2.128 . S
Co396 N416 2.194 . S
Co396 O421 2.351 . S
Co396 O422 2.155 . S
Co396 O423 2.096 . S
C397 N400 1.301 . S
C397 N401 1.328 . S
C397 H402 0.930 . S
C398 C399 1.333 . S
C398 N400 1.317 . S
C398 H403 0.930 . S
C399 C398 1.333 . S
C399 N401 1.350 . S
C399 H425 0.931 . S
N400 Co396 2.148 . S
N400 C397 1.301 . S
N400 C398 1.317 . S
N401 C397 1.328 . S
N401 C399 1.350 . S
H402 C397 0.930 . S
H403 C398 0.930 . S
C404 O405 1.224 . S
C404 O423 1.247 . S
O405 C404 1.224 . S
N406 Co396 2.128 . S
N406 C407 1.355 . S
N406 C409 1.311 . S
C407 N406 1.355 . S
C407 C408 1.363 . S
C407 H419 0.929 . S
C408 C407 1.363 . S
C408 N410 1.375 . S
C408 H426 0.931 . S
C409 N406 1.311 . S
C409 N410 1.347 . S
C409 H420 0.929 . S
N410 C408 1.375 . S
N410 C409 1.347 . S
C411 C414 1.365 . S
C411 N416 1.328 . S
C411 H417 0.929 . S
C412 C413 1.362 . S
C412 C415 1.378 . S
C412 H427 0.929 . S
C413 C412 1.362 . S
C413 C414 1.366 . S
C414 C411 1.365 . S
C414 C413 1.366 . S
C414 H428 0.930 . S
C415 C412 1.378 . S
C415 N416 1.315 . S
C415 H418 0.930 . S
N416 Co396 2.194 . S
N416 C411 1.328 . S
N416 C415 1.315 . S
H417 C411 0.929 . S
H418 C415 0.930 . S
H419 C407 0.929 . S
H420 C409 0.929 . S
O421 Co396 2.351 . S
O421 C424 1.244 . S
O422 Co396 2.155 . S
O422 C424 1.240 . S
O423 Co396 2.096 . S
O423 C404 1.247 . S
C424 O421 1.244 . S
C424 O422 1.240 . S
H425 C399 0.931 . S
H426 C408 0.931 . S
H427 C412 0.929 . S
H428 C414 0.930 . S
Co429 N433 2.148 1_545 S
Co429 N439 2.128 . S
Co429 N449 2.194 . S
Co429 O454 2.351 . S
Co429 O455 2.155 1_545 S
Co429 O456 2.096 1_545 S
C430 N433 1.301 . S
C430 N434 1.328 . S
C430 H435 0.930 1_565 S
C431 C432 1.333 . S
C431 N433 1.317 . S
C431 H436 0.930 . S
C432 C431 1.333 . S
C432 N434 1.350 . S
C432 H458 0.931 . S
N433 Co429 2.148 1_565 S
N433 C430 1.301 . S
N433 C431 1.317 . S
N434 C430 1.328 . S
N434 C432 1.350 . S
H435 C430 0.930 1_545 S
H436 C431 0.930 . S
C437 O438 1.224 1_565 S
C437 O456 1.247 . S
O438 C437 1.224 1_545 S
N439 Co429 2.128 . S
N439 C440 1.355 . S
N439 C442 1.311 . S
C440 N439 1.355 . S
C440 C441 1.363 . S
C440 H452 0.929 . S
C441 C440 1.363 . S
C441 N443 1.375 . S
C441 H459 0.931 . S
C442 N439 1.311 . S
C442 N443 1.347 . S
C442 H453 0.929 . S
N443 C441 1.375 . S
N443 C442 1.347 . S
C444 C447 1.365 . S
C444 N449 1.328 . S
C444 H450 0.929 . S
C445 C446 1.362 . S
C445 C448 1.378 . S
C445 H460 0.929 . S
C446 C445 1.362 . S
C446 C447 1.366 . S
C447 C444 1.365 . S
C447 C446 1.366 . S
C447 H461 0.930 . S
C448 C445 1.378 . S
C448 N449 1.315 . S
C448 H451 0.930 . S
N449 Co429 2.194 . S
N449 C444 1.328 . S
N449 C448 1.315 . S
H450 C444 0.929 . S
H451 C448 0.930 . S
H452 C440 0.929 . S
H453 C442 0.929 . S
O454 Co429 2.351 . S
O454 C457 1.244 1_545 S
O455 Co429 2.155 1_565 S
O455 C457 1.240 . S
O456 Co429 2.096 1_565 S
O456 C437 1.247 . S
C457 O454 1.244 1_565 S
C457 O455 1.240 . S
H458 C432 0.931 . S
H459 C441 0.931 . S
H460 C445 0.929 . S
H461 C447 0.930 . S
Co462 N466 2.148 . S
Co462 N472 2.128 . S
Co462 N482 2.194 . S
Co462 O487 2.351 . S
Co462 O488 2.155 . S
Co462 O489 2.096 . S
C463 N466 1.301 . S
C463 N467 1.328 . S
C463 H468 0.930 . S
C464 C465 1.333 . S
C464 N466 1.317 . S
C464 H469 0.930 . S
C465 C464 1.333 . S
C465 N467 1.350 . S
C465 H491 0.931 . S
N466 Co462 2.148 . S
N466 C463 1.301 . S
N466 C464 1.317 . S
N467 C463 1.328 . S
N467 C465 1.350 . S
H468 C463 0.930 . S
H469 C464 0.930 . S
C470 O471 1.224 . S
C470 O489 1.247 . S
O471 C470 1.224 . S
N472 Co462 2.128 . S
N472 C473 1.355 . S
N472 C475 1.311 . S
C473 N472 1.355 . S
C473 C474 1.363 . S
C473 H485 0.929 . S
C474 C473 1.363 . S
C474 N476 1.375 . S
C474 H492 0.931 . S
C475 N472 1.311 . S
C475 N476 1.347 . S
C475 H486 0.929 . S
N476 C474 1.375 . S
N476 C475 1.347 . S
C477 C480 1.365 . S
C477 N482 1.328 . S
C477 H483 0.929 . S
C478 C479 1.362 . S
C478 C481 1.378 . S
C478 H493 0.929 . S
C479 C478 1.362 . S
C479 C480 1.366 . S
C480 C477 1.365 . S
C480 C479 1.366 . S
C480 H494 0.930 . S
C481 C478 1.378 . S
C481 N482 1.315 . S
C481 H484 0.930 . S
N482 Co462 2.194 . S
N482 C477 1.328 . S
N482 C481 1.315 . S
H483 C477 0.929 . S
H484 C481 0.930 . S
H485 C473 0.929 . S
H486 C475 0.929 . S
O487 Co462 2.351 . S
O487 C490 1.244 . S
O488 Co462 2.155 . S
O488 C490 1.240 . S
O489 Co462 2.096 . S
O489 C470 1.247 . S
C490 O487 1.244 . S
C490 O488 1.240 . S
H491 C465 0.931 . S
H492 C474 0.931 . S
H493 C478 0.929 . S
H494 C480 0.930 . S
Co495 N499 2.148 1_565 S
Co495 N505 2.128 . S
Co495 N515 2.194 . S
Co495 O520 2.351 . S
Co495 O521 2.155 1_565 S
Co495 O522 2.096 1_565 S
C496 N499 1.301 . S
C496 N500 1.328 . S
C496 H501 0.930 1_545 S
C497 C498 1.333 . S
C497 N499 1.317 . S
C497 H502 0.930 . S
C498 C497 1.333 . S
C498 N500 1.350 . S
C498 H524 0.931 . S
N499 Co495 2.148 1_545 S
N499 C496 1.301 . S
N499 C497 1.317 . S
N500 C496 1.328 . S
N500 C498 1.350 . S
H501 C496 0.930 1_565 S
H502 C497 0.930 . S
C503 O504 1.224 1_545 S
C503 O522 1.247 . S
O504 C503 1.224 1_565 S
N505 Co495 2.128 . S
N505 C506 1.355 . S
N505 C508 1.311 . S
C506 N505 1.355 . S
C506 C507 1.363 1_554 S
C506 H518 0.929 . S
C507 C506 1.363 1_556 S
C507 N509 1.375 1_556 S
C507 H525 0.931 . S
C508 N505 1.311 . S
C508 N509 1.347 . S
C508 H519 0.929 . S
N509 C507 1.375 1_554 S
N509 C508 1.347 . S
C510 C513 1.365 . S
C510 N515 1.328 . S
C510 H516 0.929 . S
C511 C512 1.362 . S
C511 C514 1.378 . S
C511 H526 0.929 . S
C512 C511 1.362 . S
C512 C513 1.366 . S
C513 C510 1.365 . S
C513 C512 1.366 . S
C513 H527 0.930 . S
C514 C511 1.378 . S
C514 N515 1.315 . S
C514 H517 0.930 . S
N515 Co495 2.194 . S
N515 C510 1.328 . S
N515 C514 1.315 . S
H516 C510 0.929 . S
H517 C514 0.930 . S
H518 C506 0.929 . S
H519 C508 0.929 . S
O520 Co495 2.351 . S
O520 C523 1.244 1_565 S
O521 Co495 2.155 1_545 S
O521 C523 1.240 . S
O522 Co495 2.096 1_545 S
O522 C503 1.247 . S
C523 O520 1.244 1_545 S
C523 O521 1.240 . S
H524 C498 0.931 . S
H525 C507 0.931 . S
H526 C511 0.929 . S
H527 C513 0.930 . S
Co528 N532 2.148 . S
Co528 N538 2.128 . S
Co528 N548 2.194 . S
Co528 O553 2.351 . S
Co528 O554 2.155 . S
Co528 O555 2.096 . S
C529 N532 1.301 . S
C529 N533 1.328 . S
C529 H534 0.930 . S
C530 C531 1.333 . S
C530 N532 1.317 . S
C530 H535 0.930 . S
C531 C530 1.333 . S
C531 N533 1.350 . S
C531 H557 0.931 . S
N532 Co528 2.148 . S
N532 C529 1.301 . S
N532 C530 1.317 . S
N533 C529 1.328 . S
N533 C531 1.350 . S
H534 C529 0.930 . S
H535 C530 0.930 . S
C536 O537 1.224 . S
C536 O555 1.247 . S
O537 C536 1.224 . S
N538 Co528 2.128 . S
N538 C539 1.355 . S
N538 C541 1.311 . S
C539 N538 1.355 . S
C539 C540 1.363 . S
C539 H551 0.929 . S
C540 C539 1.363 . S
C540 N542 1.375 . S
C540 H558 0.931 . S
C541 N538 1.311 . S
C541 N542 1.347 . S
C541 H552 0.929 . S
N542 C540 1.375 . S
N542 C541 1.347 . S
C543 C546 1.365 . S
C543 N548 1.328 . S
C543 H549 0.929 . S
C544 C545 1.362 . S
C544 C547 1.378 . S
C544 H559 0.929 . S
C545 C544 1.362 . S
C545 C546 1.366 . S
C546 C543 1.365 . S
C546 C545 1.366 . S
C546 H560 0.930 . S
C547 C544 1.378 . S
C547 N548 1.315 . S
C547 H550 0.930 . S
N548 Co528 2.194 . S
N548 C543 1.328 . S
N548 C547 1.315 . S
H549 C543 0.929 . S
H550 C547 0.930 . S
H551 C539 0.929 . S
H552 C541 0.929 . S
O553 Co528 2.351 . S
O553 C556 1.244 . S
O554 Co528 2.155 . S
O554 C556 1.240 . S
O555 Co528 2.096 . S
O555 C536 1.247 . S
C556 O553 1.244 . S
C556 O554 1.240 . S
H557 C531 0.931 . S
H558 C540 0.931 . S
H559 C544 0.929 . S
H560 C546 0.930 . S
Co561 N565 2.148 . S
Co561 N571 2.128 . S
Co561 N581 2.194 . S
Co561 O586 2.351 . S
Co561 O587 2.155 . S
Co561 O588 2.096 . S
C562 N565 1.301 . S
C562 N566 1.328 . S
C562 H567 0.930 . S
C563 C564 1.333 . S
C563 N565 1.317 . S
C563 H568 0.930 . S
C564 C563 1.333 . S
C564 N566 1.350 . S
C564 H590 0.931 . S
N565 Co561 2.148 . S
N565 C562 1.301 . S
N565 C563 1.317 . S
N566 C562 1.328 . S
N566 C564 1.350 . S
H567 C562 0.930 . S
H568 C563 0.930 . S
C569 O570 1.224 . S
C569 O588 1.247 . S
O570 C569 1.224 . S
N571 Co561 2.128 . S
N571 C572 1.355 . S
N571 C574 1.311 . S
C572 N571 1.355 . S
C572 C573 1.363 . S
C572 H584 0.929 . S
C573 C572 1.363 . S
C573 N575 1.375 . S
C573 H591 0.931 . S
C574 N571 1.311 . S
C574 N575 1.347 . S
C574 H585 0.929 . S
N575 C573 1.375 . S
N575 C574 1.347 . S
C576 C579 1.365 . S
C576 N581 1.328 . S
C576 H582 0.929 . S
C577 C578 1.362 . S
C577 C580 1.378 . S
C577 H592 0.929 . S
C578 C577 1.362 . S
C578 C579 1.366 . S
C579 C576 1.365 . S
C579 C578 1.366 . S
C579 H593 0.930 . S
C580 C577 1.378 . S
C580 N581 1.315 . S
C580 H583 0.930 . S
N581 Co561 2.194 . S
N581 C576 1.328 . S
N581 C580 1.315 . S
H582 C576 0.929 . S
H583 C580 0.930 . S
H584 C572 0.929 . S
H585 C574 0.929 . S
O586 Co561 2.351 . S
O586 C589 1.244 . S
O587 Co561 2.155 . S
O587 C589 1.240 . S
O588 Co561 2.096 . S
O588 C569 1.247 . S
C589 O586 1.244 . S
C589 O587 1.240 . S
H590 C564 0.931 . S
H591 C573 0.931 . S
H592 C577 0.929 . S
H593 C579 0.930 . S
Co594 N598 2.148 1_455 S
Co594 N604 2.128 . S
Co594 N614 2.194 . S
Co594 O619 2.351 . S
Co594 O620 2.155 1_455 S
Co594 O621 2.096 1_455 S
C595 N598 1.301 . S
C595 N599 1.328 . S
C595 H600 0.930 1_655 S
C596 C597 1.333 . S
C596 N598 1.317 . S
C596 H601 0.930 . S
C597 C596 1.333 . S
C597 N599 1.350 . S
C597 H623 0.931 . S
N598 Co594 2.148 1_655 S
N598 C595 1.301 . S
N598 C596 1.317 . S
N599 C595 1.328 . S
N599 C597 1.350 . S
H600 C595 0.930 1_455 S
H601 C596 0.930 . S
C602 O603 1.224 1_655 S
C602 O621 1.247 . S
O603 C602 1.224 1_455 S
N604 Co594 2.128 . S
N604 C605 1.355 . S
N604 C607 1.311 . S
C605 N604 1.355 . S
C605 C606 1.363 . S
C605 H617 0.929 . S
C606 C605 1.363 . S
C606 N608 1.375 . S
C606 H624 0.931 . S
C607 N604 1.311 . S
C607 N608 1.347 . S
C607 H618 0.929 . S
N608 C606 1.375 . S
N608 C607 1.347 . S
C609 C612 1.365 . S
C609 N614 1.328 . S
C609 H615 0.929 . S
C610 C611 1.362 . S
C610 C613 1.378 . S
C610 H625 0.929 . S
C611 C610 1.362 . S
C611 C612 1.366 . S
C612 C609 1.365 . S
C612 C611 1.366 . S
C612 H626 0.930 . S
C613 C610 1.378 . S
C613 N614 1.315 . S
C613 H616 0.930 . S
N614 Co594 2.194 . S
N614 C609 1.328 . S
N614 C613 1.315 . S
H615 C609 0.929 . S
H616 C613 0.930 . S
H617 C605 0.929 . S
H618 C607 0.929 . S
O619 Co594 2.351 . S
O619 C622 1.244 1_455 S
O620 Co594 2.155 1_655 S
O620 C622 1.240 . S
O621 Co594 2.096 1_655 S
O621 C602 1.247 . S
C622 O619 1.244 1_655 S
C622 O620 1.240 . S
H623 C597 0.931 . S
H624 C606 0.931 . S
H625 C610 0.929 . S
H626 C612 0.930 . S
Co627 N631 2.148 . S
Co627 N637 2.128 . S
Co627 N647 2.194 . S
Co627 O652 2.351 . S
Co627 O653 2.155 . S
Co627 O654 2.096 . S
C628 N631 1.301 . S
C628 N632 1.328 . S
C628 H633 0.930 . S
C629 C630 1.333 . S
C629 N631 1.317 . S
C629 H634 0.930 . S
C630 C629 1.333 . S
C630 N632 1.350 . S
C630 H656 0.931 . S
N631 Co627 2.148 . S
N631 C628 1.301 . S
N631 C629 1.317 . S
N632 C628 1.328 . S
N632 C630 1.350 . S
H633 C628 0.930 . S
H634 C629 0.930 . S
C635 O636 1.224 . S
C635 O654 1.247 . S
O636 C635 1.224 . S
N637 Co627 2.128 . S
N637 C638 1.355 . S
N637 C640 1.311 . S
C638 N637 1.355 . S
C638 C639 1.363 . S
C638 H650 0.929 . S
C639 C638 1.363 . S
C639 N641 1.375 . S
C639 H657 0.931 . S
C640 N637 1.311 . S
C640 N641 1.347 . S
C640 H651 0.929 . S
N641 C639 1.375 . S
N641 C640 1.347 . S
C642 C645 1.365 . S
C642 N647 1.328 . S
C642 H648 0.929 . S
C643 C644 1.362 . S
C643 C646 1.378 . S
C643 H658 0.929 . S
C644 C643 1.362 . S
C644 C645 1.366 . S
C645 C642 1.365 . S
C645 C644 1.366 . S
C645 H659 0.930 . S
C646 C643 1.378 . S
C646 N647 1.315 . S
C646 H649 0.930 . S
N647 Co627 2.194 . S
N647 C642 1.328 . S
N647 C646 1.315 . S
H648 C642 0.929 . S
H649 C646 0.930 . S
H650 C638 0.929 . S
H651 C640 0.929 . S
O652 Co627 2.351 . S
O652 C655 1.244 . S
O653 Co627 2.155 . S
O653 C655 1.240 . S
O654 Co627 2.096 . S
O654 C635 1.247 . S
C655 O652 1.244 . S
C655 O653 1.240 . S
H656 C630 0.931 . S
H657 C639 0.931 . S
H658 C643 0.929 . S
H659 C645 0.930 . S
Co660 N664 2.148 1_655 S
Co660 N670 2.128 . S
Co660 N680 2.194 . S
Co660 O685 2.351 . S
Co660 O686 2.155 1_655 S
Co660 O687 2.096 1_655 S
C661 N664 1.301 . S
C661 N665 1.328 . S
C661 H666 0.930 1_455 S
C662 C663 1.333 . S
C662 N664 1.317 . S
C662 H667 0.930 . S
C663 C662 1.333 . S
C663 N665 1.350 . S
C663 H689 0.931 . S
N664 Co660 2.148 1_455 S
N664 C661 1.301 . S
N664 C662 1.317 . S
N665 C661 1.328 . S
N665 C663 1.350 . S
H666 C661 0.930 1_655 S
H667 C662 0.930 . S
C668 O669 1.224 1_455 S
C668 O687 1.247 . S
O669 C668 1.224 1_655 S
N670 Co660 2.128 . S
N670 C671 1.355 . S
N670 C673 1.311 . S
C671 N670 1.355 . S
C671 C672 1.363 1_545 S
C671 H683 0.929 . S
C672 C671 1.363 1_565 S
C672 N674 1.375 1_565 S
C672 H690 0.931 . S
C673 N670 1.311 . S
C673 N674 1.347 . S
C673 H684 0.929 . S
N674 C672 1.375 1_545 S
N674 C673 1.347 . S
C675 C678 1.365 . S
C675 N680 1.328 . S
C675 H681 0.929 . S
C676 C677 1.362 . S
C676 C679 1.378 . S
C676 H691 0.929 . S
C677 C676 1.362 . S
C677 C678 1.366 . S
C678 C675 1.365 . S
C678 C677 1.366 . S
C678 H692 0.930 . S
C679 C676 1.378 . S
C679 N680 1.315 . S
C679 H682 0.930 . S
N680 Co660 2.194 . S
N680 C675 1.328 . S
N680 C679 1.315 . S
H681 C675 0.929 . S
H682 C679 0.930 . S
H683 C671 0.929 . S
H684 C673 0.929 . S
O685 Co660 2.351 . S
O685 C688 1.244 1_655 S
O686 Co660 2.155 1_455 S
O686 C688 1.240 . S
O687 Co660 2.096 1_455 S
O687 C668 1.247 . S
C688 O685 1.244 1_455 S
C688 O686 1.240 . S
H689 C663 0.931 . S
H690 C672 0.931 . S
H691 C676 0.929 . S
H692 C678 0.930 . S
Co693 N697 2.148 . S
Co693 N703 2.128 . S
Co693 N713 2.194 . S
Co693 O718 2.351 . S
Co693 O719 2.155 . S
Co693 O720 2.096 . S
C694 N697 1.301 . S
C694 N698 1.328 . S
C694 H699 0.930 . S
C695 C696 1.333 . S
C695 N697 1.317 . S
C695 H700 0.930 . S
C696 C695 1.333 . S
C696 N698 1.350 . S
C696 H722 0.931 . S
N697 Co693 2.148 . S
N697 C694 1.301 . S
N697 C695 1.317 . S
N698 C694 1.328 . S
N698 C696 1.350 . S
H699 C694 0.930 . S
H700 C695 0.930 . S
C701 O702 1.224 . S
C701 O720 1.247 . S
O702 C701 1.224 . S
N703 Co693 2.128 . S
N703 C704 1.355 . S
N703 C706 1.311 . S
C704 N703 1.355 . S
C704 C705 1.363 . S
C704 H716 0.929 . S
C705 C704 1.363 . S
C705 N707 1.375 . S
C705 H723 0.931 . S
C706 N703 1.311 . S
C706 N707 1.347 . S
C706 H717 0.929 . S
N707 C705 1.375 . S
N707 C706 1.347 . S
C708 C711 1.365 . S
C708 N713 1.328 . S
C708 H714 0.929 . S
C709 C710 1.362 . S
C709 C712 1.378 . S
C709 H724 0.929 . S
C710 C709 1.362 . S
C710 C711 1.366 . S
C711 C708 1.365 . S
C711 C710 1.366 . S
C711 H725 0.930 . S
C712 C709 1.378 . S
C712 N713 1.315 . S
C712 H715 0.930 . S
N713 Co693 2.194 . S
N713 C708 1.328 . S
N713 C712 1.315 . S
H714 C708 0.929 . S
H715 C712 0.930 . S
H716 C704 0.929 . S
H717 C706 0.929 . S
O718 Co693 2.351 . S
O718 C721 1.244 . S
O719 Co693 2.155 . S
O719 C721 1.240 . S
O720 Co693 2.096 . S
O720 C701 1.247 . S
C721 O718 1.244 . S
C721 O719 1.240 . S
H722 C696 0.931 . S
H723 C705 0.931 . S
H724 C709 0.929 . S
H725 C711 0.930 . S
Co726 N730 2.148 1_455 S
Co726 N736 2.128 . S
Co726 N746 2.194 . S
Co726 O751 2.351 . S
Co726 O752 2.155 1_455 S
Co726 O753 2.096 1_455 S
C727 N730 1.301 . S
C727 N731 1.328 . S
C727 H732 0.930 1_655 S
C728 C729 1.333 . S
C728 N730 1.317 . S
C728 H733 0.930 . S
C729 C728 1.333 . S
C729 N731 1.350 . S
C729 H755 0.931 . S
N730 Co726 2.148 1_655 S
N730 C727 1.301 . S
N730 C728 1.317 . S
N731 C727 1.328 . S
N731 C729 1.350 . S
H732 C727 0.930 1_455 S
H733 C728 0.930 . S
C734 O735 1.224 1_655 S
C734 O753 1.247 . S
O735 C734 1.224 1_455 S
N736 Co726 2.128 . S
N736 C737 1.355 . S
N736 C739 1.311 . S
C737 N736 1.355 . S
C737 C738 1.363 . S
C737 H749 0.929 . S
C738 C737 1.363 . S
C738 N740 1.375 . S
C738 H756 0.931 . S
C739 N736 1.311 . S
C739 N740 1.347 . S
C739 H750 0.929 . S
N740 C738 1.375 . S
N740 C739 1.347 . S
C741 C744 1.365 . S
C741 N746 1.328 . S
C741 H747 0.929 . S
C742 C743 1.362 . S
C742 C745 1.378 . S
C742 H757 0.929 . S
C743 C742 1.362 . S
C743 C744 1.366 . S
C744 C741 1.365 . S
C744 C743 1.366 . S
C744 H758 0.930 . S
C745 C742 1.378 . S
C745 N746 1.315 . S
C745 H748 0.930 . S
N746 Co726 2.194 . S
N746 C741 1.328 . S
N746 C745 1.315 . S
H747 C741 0.929 . S
H748 C745 0.930 . S
H749 C737 0.929 . S
H750 C739 0.929 . S
O751 Co726 2.351 . S
O751 C754 1.244 1_455 S
O752 Co726 2.155 1_655 S
O752 C754 1.240 . S
O753 Co726 2.096 1_655 S
O753 C734 1.247 . S
C754 O751 1.244 1_655 S
C754 O752 1.240 . S
H755 C729 0.931 . S
H756 C738 0.931 . S
H757 C742 0.929 . S
H758 C744 0.930 . S
Co759 N763 2.148 . S
Co759 N769 2.128 . S
Co759 N779 2.194 . S
Co759 O784 2.351 . S
Co759 O785 2.155 . S
Co759 O786 2.096 . S
C760 N763 1.301 . S
C760 N764 1.328 . S
C760 H765 0.930 . S
C761 C762 1.333 . S
C761 N763 1.317 . S
C761 H766 0.930 . S
C762 C761 1.333 . S
C762 N764 1.350 . S
C762 H788 0.931 . S
N763 Co759 2.148 . S
N763 C760 1.301 . S
N763 C761 1.317 . S
N764 C760 1.328 . S
N764 C762 1.350 . S
H765 C760 0.930 . S
H766 C761 0.930 . S
C767 O768 1.224 . S
C767 O786 1.247 . S
O768 C767 1.224 . S
N769 Co759 2.128 . S
N769 C770 1.355 . S
N769 C772 1.311 . S
C770 N769 1.355 . S
C770 C771 1.363 . S
C770 H782 0.929 . S
C771 C770 1.363 . S
C771 N773 1.375 . S
C771 H789 0.931 . S
C772 N769 1.311 . S
C772 N773 1.347 . S
C772 H783 0.929 . S
N773 C771 1.375 . S
N773 C772 1.347 . S
C774 C777 1.365 . S
C774 N779 1.328 . S
C774 H780 0.929 . S
C775 C776 1.362 . S
C775 C778 1.378 . S
C775 H790 0.929 . S
C776 C775 1.362 . S
C776 C777 1.366 . S
C777 C774 1.365 . S
C777 C776 1.366 . S
C777 H791 0.930 . S
C778 C775 1.378 . S
C778 N779 1.315 . S
C778 H781 0.930 . S
N779 Co759 2.194 . S
N779 C774 1.328 . S
N779 C778 1.315 . S
H780 C774 0.929 . S
H781 C778 0.930 . S
H782 C770 0.929 . S
H783 C772 0.929 . S
O784 Co759 2.351 . S
O784 C787 1.244 . S
O785 Co759 2.155 . S
O785 C787 1.240 . S
O786 Co759 2.096 . S
O786 C767 1.247 . S
C787 O784 1.244 . S
C787 O785 1.240 . S
H788 C762 0.931 . S
H789 C771 0.931 . S
H790 C775 0.929 . S
H791 C777 0.930 . S
Co792 N796 2.148 . S
Co792 N802 2.128 . S
Co792 N812 2.194 . S
Co792 O817 2.351 . S
Co792 O818 2.155 . S
Co792 O819 2.096 . S
C793 N796 1.301 . S
C793 N797 1.328 . S
C793 H798 0.930 . S
C794 C795 1.333 . S
C794 N796 1.317 . S
C794 H799 0.930 . S
C795 C794 1.333 . S
C795 N797 1.350 . S
C795 H821 0.931 . S
N796 Co792 2.148 . S
N796 C793 1.301 . S
N796 C794 1.317 . S
N797 C793 1.328 . S
N797 C795 1.350 . S
H798 C793 0.930 . S
H799 C794 0.930 . S
C800 O801 1.224 . S
C800 O819 1.247 . S
O801 C800 1.224 . S
N802 Co792 2.128 . S
N802 C803 1.355 . S
N802 C805 1.311 . S
C803 N802 1.355 . S
C803 C804 1.363 . S
C803 H815 0.929 . S
C804 C803 1.363 . S
C804 N806 1.375 . S
C804 H822 0.931 . S
C805 N802 1.311 . S
C805 N806 1.347 . S
C805 H816 0.929 . S
N806 C804 1.375 . S
N806 C805 1.347 . S
C807 C810 1.365 . S
C807 N812 1.328 . S
C807 H813 0.929 . S
C808 C809 1.362 . S
C808 C811 1.378 . S
C808 H823 0.929 . S
C809 C808 1.362 . S
C809 C810 1.366 . S
C810 C807 1.365 . S
C810 C809 1.366 . S
C810 H824 0.930 . S
C811 C808 1.378 . S
C811 N812 1.315 . S
C811 H814 0.930 . S
N812 Co792 2.194 . S
N812 C807 1.328 . S
N812 C811 1.315 . S
H813 C807 0.929 . S
H814 C811 0.930 . S
H815 C803 0.929 . S
H816 C805 0.929 . S
O817 Co792 2.351 . S
O817 C820 1.244 . S
O818 Co792 2.155 . S
O818 C820 1.240 . S
O819 Co792 2.096 . S
O819 C800 1.247 . S
C820 O817 1.244 . S
C820 O818 1.240 . S
H821 C795 0.931 . S
H822 C804 0.931 . S
H823 C808 0.929 . S
H824 C810 0.930 . S
Co825 N829 2.148 1_554 S
Co825 N835 2.128 . S
Co825 N845 2.194 . S
Co825 O850 2.351 . S
Co825 O851 2.155 1_554 S
Co825 O852 2.096 1_554 S
C826 N829 1.301 . S
C826 N830 1.328 . S
C826 H831 0.930 1_556 S
C827 C828 1.333 . S
C827 N829 1.317 . S
C827 H832 0.930 . S
C828 C827 1.333 . S
C828 N830 1.350 . S
C828 H854 0.931 . S
N829 Co825 2.148 1_556 S
N829 C826 1.301 . S
N829 C827 1.317 . S
N830 C826 1.328 . S
N830 C828 1.350 . S
H831 C826 0.930 1_554 S
H832 C827 0.930 . S
C833 O834 1.224 1_556 S
C833 O852 1.247 . S
O834 C833 1.224 1_554 S
N835 Co825 2.128 . S
N835 C836 1.355 . S
N835 C838 1.311 . S
C836 N835 1.355 . S
C836 C837 1.363 . S
C836 H848 0.929 . S
C837 C836 1.363 . S
C837 N839 1.375 . S
C837 H855 0.931 . S
C838 N835 1.311 . S
C838 N839 1.347 . S
C838 H849 0.929 . S
N839 C837 1.375 . S
N839 C838 1.347 . S
C840 C843 1.365 . S
C840 N845 1.328 . S
C840 H846 0.929 . S
C841 C842 1.362 . S
C841 C844 1.378 . S
C841 H856 0.929 . S
C842 C841 1.362 . S
C842 C843 1.366 . S
C843 C840 1.365 . S
C843 C842 1.366 . S
C843 H857 0.930 . S
C844 C841 1.378 . S
C844 N845 1.315 . S
C844 H847 0.930 . S
N845 Co825 2.194 . S
N845 C840 1.328 . S
N845 C844 1.315 . S
H846 C840 0.929 . S
H847 C844 0.930 . S
H848 C836 0.929 . S
H849 C838 0.929 . S
O850 Co825 2.351 . S
O850 C853 1.244 1_554 S
O851 Co825 2.155 1_556 S
O851 C853 1.240 . S
O852 Co825 2.096 1_556 S
O852 C833 1.247 . S
C853 O850 1.244 1_556 S
C853 O851 1.240 . S
H854 C828 0.931 . S
H855 C837 0.931 . S
H856 C841 0.929 . S
H857 C843 0.930 . S
Co858 N862 2.148 . S
Co858 N868 2.128 . S
Co858 N878 2.194 . S
Co858 O883 2.351 . S
Co858 O884 2.155 . S
Co858 O885 2.096 . S
C859 N862 1.301 . S
C859 N863 1.328 . S
C859 H864 0.930 . S
C860 C861 1.333 . S
C860 N862 1.317 . S
C860 H865 0.930 . S
C861 C860 1.333 . S
C861 N863 1.350 . S
C861 H887 0.931 . S
N862 Co858 2.148 . S
N862 C859 1.301 . S
N862 C860 1.317 . S
N863 C859 1.328 . S
N863 C861 1.350 . S
H864 C859 0.930 . S
H865 C860 0.930 . S
C866 O867 1.224 . S
C866 O885 1.247 . S
O867 C866 1.224 . S
N868 Co858 2.128 . S
N868 C869 1.355 . S
N868 C871 1.311 . S
C869 N868 1.355 . S
C869 C870 1.363 . S
C869 H881 0.929 . S
C870 C869 1.363 . S
C870 N872 1.375 . S
C870 H888 0.931 . S
C871 N868 1.311 . S
C871 N872 1.347 . S
C871 H882 0.929 . S
N872 C870 1.375 . S
N872 C871 1.347 . S
C873 C876 1.365 . S
C873 N878 1.328 . S
C873 H879 0.929 . S
C874 C875 1.362 . S
C874 C877 1.378 . S
C874 H889 0.929 . S
C875 C874 1.362 . S
C875 C876 1.366 . S
C876 C873 1.365 . S
C876 C875 1.366 . S
C876 H890 0.930 . S
C877 C874 1.378 . S
C877 N878 1.315 . S
C877 H880 0.930 . S
N878 Co858 2.194 . S
N878 C873 1.328 . S
N878 C877 1.315 . S
H879 C873 0.929 . S
H880 C877 0.930 . S
H881 C869 0.929 . S
H882 C871 0.929 . S
O883 Co858 2.351 . S
O883 C886 1.244 . S
O884 Co858 2.155 . S
O884 C886 1.240 . S
O885 Co858 2.096 . S
O885 C866 1.247 . S
C886 O883 1.244 . S
C886 O884 1.240 . S
H887 C861 0.931 . S
H888 C870 0.931 . S
H889 C874 0.929 . S
H890 C876 0.930 . S
Co891 N895 2.148 . S
Co891 N901 2.128 . S
Co891 N911 2.194 . S
Co891 O916 2.351 . S
Co891 O917 2.155 . S
Co891 O918 2.096 . S
C892 N895 1.301 . S
C892 N896 1.328 . S
C892 H897 0.930 . S
C893 C894 1.333 . S
C893 N895 1.317 . S
C893 H898 0.930 . S
C894 C893 1.333 . S
C894 N896 1.350 . S
C894 H920 0.931 . S
N895 Co891 2.148 . S
N895 C892 1.301 . S
N895 C893 1.317 . S
N896 C892 1.328 . S
N896 C894 1.350 . S
H897 C892 0.930 . S
H898 C893 0.930 . S
C899 O900 1.224 . S
C899 O918 1.247 . S
O900 C899 1.224 . S
N901 Co891 2.128 . S
N901 C902 1.355 . S
N901 C904 1.311 . S
C902 N901 1.355 . S
C902 C903 1.363 1_655 S
C902 H914 0.929 . S
C903 C902 1.363 1_455 S
C903 N905 1.375 1_455 S
C903 H921 0.931 . S
C904 N901 1.311 . S
C904 N905 1.347 . S
C904 H915 0.929 . S
N905 C903 1.375 1_655 S
N905 C904 1.347 . S
C906 C909 1.365 . S
C906 N911 1.328 . S
C906 H912 0.929 . S
C907 C908 1.362 . S
C907 C910 1.378 . S
C907 H922 0.929 . S
C908 C907 1.362 . S
C908 C909 1.366 . S
C909 C906 1.365 . S
C909 C908 1.366 . S
C909 H923 0.930 . S
C910 C907 1.378 . S
C910 N911 1.315 . S
C910 H913 0.930 . S
N911 Co891 2.194 . S
N911 C906 1.328 . S
N911 C910 1.315 . S
H912 C906 0.929 . S
H913 C910 0.930 . S
H914 C902 0.929 . S
H915 C904 0.929 . S
O916 Co891 2.351 . S
O916 C919 1.244 . S
O917 Co891 2.155 . S
O917 C919 1.240 . S
O918 Co891 2.096 . S
O918 C899 1.247 . S
C919 O916 1.244 . S
C919 O917 1.240 . S
H920 C894 0.931 . S
H921 C903 0.931 . S
H922 C907 0.929 . S
H923 C909 0.930 . S
Co924 N928 2.148 . S
Co924 N934 2.128 . S
Co924 N944 2.194 . S
Co924 O949 2.351 . S
Co924 O950 2.155 . S
Co924 O951 2.096 . S
C925 N928 1.301 . S
C925 N929 1.328 . S
C925 H930 0.930 . S
C926 C927 1.333 . S
C926 N928 1.317 . S
C926 H931 0.930 . S
C927 C926 1.333 . S
C927 N929 1.350 . S
C927 H953 0.931 . S
N928 Co924 2.148 . S
N928 C925 1.301 . S
N928 C926 1.317 . S
N929 C925 1.328 . S
N929 C927 1.350 . S
H930 C925 0.930 . S
H931 C926 0.930 . S
C932 O933 1.224 . S
C932 O951 1.247 . S
O933 C932 1.224 . S
N934 Co924 2.128 . S
N934 C935 1.355 . S
N934 C937 1.311 . S
C935 N934 1.355 . S
C935 C936 1.363 . S
C935 H947 0.929 . S
C936 C935 1.363 . S
C936 N938 1.375 . S
C936 H954 0.931 . S
C937 N934 1.311 . S
C937 N938 1.347 . S
C937 H948 0.929 . S
N938 C936 1.375 . S
N938 C937 1.347 . S
C939 C942 1.365 . S
C939 N944 1.328 . S
C939 H945 0.929 . S
C940 C941 1.362 . S
C940 C943 1.378 . S
C940 H955 0.929 . S
C941 C940 1.362 . S
C941 C942 1.366 . S
C942 C939 1.365 . S
C942 C941 1.366 . S
C942 H956 0.930 . S
C943 C940 1.378 . S
C943 N944 1.315 . S
C943 H946 0.930 . S
N944 Co924 2.194 . S
N944 C939 1.328 . S
N944 C943 1.315 . S
H945 C939 0.929 . S
H946 C943 0.930 . S
H947 C935 0.929 . S
H948 C937 0.929 . S
O949 Co924 2.351 . S
O949 C952 1.244 . S
O950 Co924 2.155 . S
O950 C952 1.240 . S
O951 Co924 2.096 . S
O951 C932 1.247 . S
C952 O949 1.244 . S
C952 O950 1.240 . S
H953 C927 0.931 . S
H954 C936 0.931 . S
H955 C940 0.929 . S
H956 C942 0.930 . S
Co957 N961 2.148 1_556 S
Co957 N967 2.128 . S
Co957 N977 2.194 . S
Co957 O982 2.351 . S
Co957 O983 2.155 1_556 S
Co957 O984 2.096 1_556 S
C958 N961 1.301 . S
C958 N962 1.328 . S
C958 H963 0.930 1_554 S
C959 C960 1.333 . S
C959 N961 1.317 . S
C959 H964 0.930 . S
C960 C959 1.333 . S
C960 N962 1.350 . S
C960 H986 0.931 . S
N961 Co957 2.148 1_554 S
N961 C958 1.301 . S
N961 C959 1.317 . S
N962 C958 1.328 . S
N962 C960 1.350 . S
H963 C958 0.930 1_556 S
H964 C959 0.930 . S
C965 O966 1.224 1_554 S
C965 O984 1.247 . S
O966 C965 1.224 1_556 S
N967 Co957 2.128 . S
N967 C968 1.355 . S
N967 C970 1.311 . S
C968 N967 1.355 . S
C968 C969 1.363 1_655 S
C968 H980 0.929 . S
C969 C968 1.363 1_455 S
C969 N971 1.375 1_455 S
C969 H987 0.931 . S
C970 N967 1.311 . S
C970 N971 1.347 . S
C970 H981 0.929 . S
N971 C969 1.375 1_655 S
N971 C970 1.347 . S
C972 C975 1.365 . S
C972 N977 1.328 . S
C972 H978 0.929 . S
C973 C974 1.362 . S
C973 C976 1.378 . S
C973 H988 0.929 . S
C974 C973 1.362 . S
C974 C975 1.366 . S
C975 C972 1.365 . S
C975 C974 1.366 . S
C975 H989 0.930 . S
C976 C973 1.378 . S
C976 N977 1.315 . S
C976 H979 0.930 . S
N977 Co957 2.194 . S
N977 C972 1.328 . S
N977 C976 1.315 . S
H978 C972 0.929 . S
H979 C976 0.930 . S
H980 C968 0.929 . S
H981 C970 0.929 . S
O982 Co957 2.351 . S
O982 C985 1.244 1_556 S
O983 Co957 2.155 1_554 S
O983 C985 1.240 . S
O984 Co957 2.096 1_554 S
O984 C965 1.247 . S
C985 O982 1.244 1_554 S
C985 O983 1.240 . S
H986 C960 0.931 . S
H987 C969 0.931 . S
H988 C973 0.929 . S
H989 C975 0.930 . S
Co990 N994 2.148 . S
Co990 N1000 2.128 . S
Co990 N1010 2.194 . S
Co990 O1015 2.351 . S
Co990 O1016 2.155 . S
Co990 O1017 2.096 . S
C991 N994 1.301 . S
C991 N995 1.328 . S
C991 H996 0.930 . S
C992 C993 1.333 . S
C992 N994 1.317 . S
C992 H997 0.930 . S
C993 C992 1.333 . S
C993 N995 1.350 . S
C993 H1019 0.931 . S
N994 Co990 2.148 . S
N994 C991 1.301 . S
N994 C992 1.317 . S
N995 C991 1.328 . S
N995 C993 1.350 . S
H996 C991 0.930 . S
H997 C992 0.930 . S
C998 O999 1.224 . S
C998 O1017 1.247 . S
O999 C998 1.224 . S
N1000 Co990 2.128 . S
N1000 C1001 1.355 . S
N1000 C1003 1.311 . S
C1001 N1000 1.355 . S
C1001 C1002 1.363 . S
C1001 H1013 0.929 . S
C1002 C1001 1.363 . S
C1002 N1004 1.375 . S
C1002 H1020 0.931 . S
C1003 N1000 1.311 . S
C1003 N1004 1.347 . S
C1003 H1014 0.929 . S
N1004 C1002 1.375 . S
N1004 C1003 1.347 . S
C1005 C1008 1.365 . S
C1005 N1010 1.328 . S
C1005 H1011 0.929 . S
C1006 C1007 1.362 . S
C1006 C1009 1.378 . S
C1006 H1021 0.929 . S
C1007 C1006 1.362 . S
C1007 C1008 1.366 . S
C1008 C1005 1.365 . S
C1008 C1007 1.366 . S
C1008 H1022 0.930 . S
C1009 C1006 1.378 . S
C1009 N1010 1.315 . S
C1009 H1012 0.930 . S
N1010 Co990 2.194 . S
N1010 C1005 1.328 . S
N1010 C1009 1.315 . S
H1011 C1005 0.929 . S
H1012 C1009 0.930 . S
H1013 C1001 0.929 . S
H1014 C1003 0.929 . S
O1015 Co990 2.351 . S
O1015 C1018 1.244 . S
O1016 Co990 2.155 . S
O1016 C1018 1.240 . S
O1017 Co990 2.096 . S
O1017 C998 1.247 . S
C1018 O1015 1.244 . S
C1018 O1016 1.240 . S
H1019 C993 0.931 . S
H1020 C1002 0.931 . S
H1021 C1006 0.929 . S
H1022 C1008 0.930 . S
Co1023 N1027 2.148 . S
Co1023 N1033 2.128 . S
Co1023 N1043 2.194 . S
Co1023 O1048 2.351 . S
Co1023 O1049 2.155 . S
Co1023 O1050 2.096 . S
C1024 N1027 1.301 . S
C1024 N1028 1.328 . S
C1024 H1029 0.930 . S
C1025 C1026 1.333 . S
C1025 N1027 1.317 . S
C1025 H1030 0.930 . S
C1026 C1025 1.333 . S
C1026 N1028 1.350 . S
C1026 H1052 0.931 . S
N1027 Co1023 2.148 . S
N1027 C1024 1.301 . S
N1027 C1025 1.317 . S
N1028 C1024 1.328 . S
N1028 C1026 1.350 . S
H1029 C1024 0.930 . S
H1030 C1025 0.930 . S
C1031 O1032 1.224 . S
C1031 O1050 1.247 . S
O1032 C1031 1.224 . S
N1033 Co1023 2.128 . S
N1033 C1034 1.355 . S
N1033 C1036 1.311 . S
C1034 N1033 1.355 . S
C1034 C1035 1.363 . S
C1034 H1046 0.929 . S
C1035 C1034 1.363 . S
C1035 N1037 1.375 . S
C1035 H1053 0.931 . S
C1036 N1033 1.311 . S
C1036 N1037 1.347 . S
C1036 H1047 0.929 . S
N1037 C1035 1.375 . S
N1037 C1036 1.347 . S
C1038 C1041 1.365 . S
C1038 N1043 1.328 . S
C1038 H1044 0.929 . S
C1039 C1040 1.362 . S
C1039 C1042 1.378 . S
C1039 H1054 0.929 . S
C1040 C1039 1.362 . S
C1040 C1041 1.366 . S
C1041 C1038 1.365 . S
C1041 C1040 1.366 . S
C1041 H1055 0.930 . S
C1042 C1039 1.378 . S
C1042 N1043 1.315 . S
C1042 H1045 0.930 . S
N1043 Co1023 2.194 . S
N1043 C1038 1.328 . S
N1043 C1042 1.315 . S
H1044 C1038 0.929 . S
H1045 C1042 0.930 . S
H1046 C1034 0.929 . S
H1047 C1036 0.929 . S
O1048 Co1023 2.351 . S
O1048 C1051 1.244 . S
O1049 Co1023 2.155 . S
O1049 C1051 1.240 . S
O1050 Co1023 2.096 . S
O1050 C1031 1.247 . S
C1051 O1048 1.244 . S
C1051 O1049 1.240 . S
H1052 C1026 0.931 . S
H1053 C1035 0.931 . S
H1054 C1039 0.929 . S
H1055 C1041 0.930 . S
Co1056 N1060 2.148 . S
Co1056 N1066 2.128 . S
Co1056 N1076 2.194 . S
Co1056 O1081 2.351 . S
Co1056 O1082 2.155 . S
Co1056 O1083 2.096 . S
C1057 N1060 1.301 . S
C1057 N1061 1.328 . S
C1057 H1062 0.930 . S
C1058 C1059 1.333 . S
C1058 N1060 1.317 . S
C1058 H1063 0.930 . S
C1059 C1058 1.333 . S
C1059 N1061 1.350 . S
C1059 H1085 0.931 . S
N1060 Co1056 2.148 . S
N1060 C1057 1.301 . S
N1060 C1058 1.317 . S
N1061 C1057 1.328 . S
N1061 C1059 1.350 . S
H1062 C1057 0.930 . S
H1063 C1058 0.930 . S
C1064 O1065 1.224 . S
C1064 O1083 1.247 . S
O1065 C1064 1.224 . S
N1066 Co1056 2.128 . S
N1066 C1067 1.355 . S
N1066 C1069 1.311 . S
C1067 N1066 1.355 . S
C1067 C1068 1.363 . S
C1067 H1079 0.929 . S
C1068 C1067 1.363 . S
C1068 N1070 1.375 . S
C1068 H1086 0.931 . S
C1069 N1066 1.311 . S
C1069 N1070 1.347 . S
C1069 H1080 0.929 . S
N1070 C1068 1.375 . S
N1070 C1069 1.347 . S
C1071 C1074 1.365 . S
C1071 N1076 1.328 . S
C1071 H1077 0.929 . S
C1072 C1073 1.362 . S
C1072 C1075 1.378 . S
C1072 H1087 0.929 . S
C1073 C1072 1.362 . S
C1073 C1074 1.366 . S
C1074 C1071 1.365 . S
C1074 C1073 1.366 . S
C1074 H1088 0.930 . S
C1075 C1072 1.378 . S
C1075 N1076 1.315 . S
C1075 H1078 0.930 . S
N1076 Co1056 2.194 . S
N1076 C1071 1.328 . S
N1076 C1075 1.315 . S
H1077 C1071 0.929 . S
H1078 C1075 0.930 . S
H1079 C1067 0.929 . S
H1080 C1069 0.929 . S
O1081 Co1056 2.351 . S
O1081 C1084 1.244 . S
O1082 Co1056 2.155 . S
O1082 C1084 1.240 . S
O1083 Co1056 2.096 . S
O1083 C1064 1.247 . S
C1084 O1081 1.244 . S
C1084 O1082 1.240 . S
H1085 C1059 0.931 . S
H1086 C1068 0.931 . S
H1087 C1072 0.929 . S
H1088 C1074 0.930 . S
Co1089 N1093 2.148 . S
Co1089 N1099 2.128 . S
Co1089 N1109 2.194 . S
Co1089 O1114 2.351 . S
Co1089 O1115 2.155 . S
Co1089 O1116 2.096 . S
C1090 N1093 1.301 . S
C1090 N1094 1.328 . S
C1090 H1095 0.930 . S
C1091 C1092 1.333 . S
C1091 N1093 1.317 . S
C1091 H1096 0.930 . S
C1092 C1091 1.333 . S
C1092 N1094 1.350 . S
C1092 H1118 0.931 . S
N1093 Co1089 2.148 . S
N1093 C1090 1.301 . S
N1093 C1091 1.317 . S
N1094 C1090 1.328 . S
N1094 C1092 1.350 . S
H1095 C1090 0.930 . S
H1096 C1091 0.930 . S
C1097 O1098 1.224 . S
C1097 O1116 1.247 . S
O1098 C1097 1.224 . S
N1099 Co1089 2.128 . S
N1099 C1100 1.355 . S
N1099 C1102 1.311 . S
C1100 N1099 1.355 . S
C1100 C1101 1.363 1_556 S
C1100 H1112 0.929 . S
C1101 C1100 1.363 1_554 S
C1101 N1103 1.375 1_554 S
C1101 H1119 0.931 . S
C1102 N1099 1.311 . S
C1102 N1103 1.347 . S
C1102 H1113 0.929 . S
N1103 C1101 1.375 1_556 S
N1103 C1102 1.347 . S
C1104 C1107 1.365 . S
C1104 N1109 1.328 . S
C1104 H1110 0.929 . S
C1105 C1106 1.362 . S
C1105 C1108 1.378 . S
C1105 H1120 0.929 . S
C1106 C1105 1.362 . S
C1106 C1107 1.366 . S
C1107 C1104 1.365 . S
C1107 C1106 1.366 . S
C1107 H1121 0.930 . S
C1108 C1105 1.378 . S
C1108 N1109 1.315 . S
C1108 H1111 0.930 . S
N1109 Co1089 2.194 . S
N1109 C1104 1.328 . S
N1109 C1108 1.315 . S
H1110 C1104 0.929 . S
H1111 C1108 0.930 . S
H1112 C1100 0.929 . S
H1113 C1102 0.929 . S
O1114 Co1089 2.351 . S
O1114 C1117 1.244 . S
O1115 Co1089 2.155 . S
O1115 C1117 1.240 . S
O1116 Co1089 2.096 . S
O1116 C1097 1.247 . S
C1117 O1114 1.244 . S
C1117 O1115 1.240 . S
H1118 C1092 0.931 . S
H1119 C1101 0.931 . S
H1120 C1105 0.929 . S
H1121 C1107 0.930 . S
Co1122 N1126 2.148 . S
Co1122 N1132 2.128 . S
Co1122 N1142 2.194 . S
Co1122 O1147 2.351 . S
Co1122 O1148 2.155 . S
Co1122 O1149 2.096 . S
C1123 N1126 1.301 . S
C1123 N1127 1.328 . S
C1123 H1128 0.930 . S
C1124 C1125 1.333 . S
C1124 N1126 1.317 . S
C1124 H1129 0.930 . S
C1125 C1124 1.333 . S
C1125 N1127 1.350 . S
C1125 H1151 0.931 . S
N1126 Co1122 2.148 . S
N1126 C1123 1.301 . S
N1126 C1124 1.317 . S
N1127 C1123 1.328 . S
N1127 C1125 1.350 . S
H1128 C1123 0.930 . S
H1129 C1124 0.930 . S
C1130 O1131 1.224 . S
C1130 O1149 1.247 . S
O1131 C1130 1.224 . S
N1132 Co1122 2.128 . S
N1132 C1133 1.355 . S
N1132 C1135 1.311 . S
C1133 N1132 1.355 . S
C1133 C1134 1.363 . S
C1133 H1145 0.929 . S
C1134 C1133 1.363 . S
C1134 N1136 1.375 . S
C1134 H1152 0.931 . S
C1135 N1132 1.311 . S
C1135 N1136 1.347 . S
C1135 H1146 0.929 . S
N1136 C1134 1.375 . S
N1136 C1135 1.347 . S
C1137 C1140 1.365 . S
C1137 N1142 1.328 . S
C1137 H1143 0.929 . S
C1138 C1139 1.362 . S
C1138 C1141 1.378 . S
C1138 H1153 0.929 . S
C1139 C1138 1.362 . S
C1139 C1140 1.366 . S
C1140 C1137 1.365 . S
C1140 C1139 1.366 . S
C1140 H1154 0.930 . S
C1141 C1138 1.378 . S
C1141 N1142 1.315 . S
C1141 H1144 0.930 . S
N1142 Co1122 2.194 . S
N1142 C1137 1.328 . S
N1142 C1141 1.315 . S
H1143 C1137 0.929 . S
H1144 C1141 0.930 . S
H1145 C1133 0.929 . S
H1146 C1135 0.929 . S
O1147 Co1122 2.351 . S
O1147 C1150 1.244 . S
O1148 Co1122 2.155 . S
O1148 C1150 1.240 . S
O1149 Co1122 2.096 . S
O1149 C1130 1.247 . S
C1150 O1147 1.244 . S
C1150 O1148 1.240 . S
H1151 C1125 0.931 . S
H1152 C1134 0.931 . S
H1153 C1138 0.929 . S
H1154 C1140 0.930 . S
Co1155 N1159 2.148 . S
Co1155 N1165 2.128 . S
Co1155 N1175 2.194 . S
Co1155 O1180 2.351 . S
Co1155 O1181 2.155 . S
Co1155 O1182 2.096 . S
C1156 N1159 1.301 . S
C1156 N1160 1.328 . S
C1156 H1161 0.930 . S
C1157 C1158 1.333 . S
C1157 N1159 1.317 . S
C1157 H1162 0.930 . S
C1158 C1157 1.333 . S
C1158 N1160 1.350 . S
C1158 H1184 0.931 . S
N1159 Co1155 2.148 . S
N1159 C1156 1.301 . S
N1159 C1157 1.317 . S
N1160 C1156 1.328 . S
N1160 C1158 1.350 . S
H1161 C1156 0.930 . S
H1162 C1157 0.930 . S
C1163 O1164 1.224 . S
C1163 O1182 1.247 . S
O1164 C1163 1.224 . S
N1165 Co1155 2.128 . S
N1165 C1166 1.355 . S
N1165 C1168 1.311 . S
C1166 N1165 1.355 . S
C1166 C1167 1.363 . S
C1166 H1178 0.929 . S
C1167 C1166 1.363 . S
C1167 N1169 1.375 . S
C1167 H1185 0.931 . S
C1168 N1165 1.311 . S
C1168 N1169 1.347 . S
C1168 H1179 0.929 . S
N1169 C1167 1.375 . S
N1169 C1168 1.347 . S
C1170 C1173 1.365 . S
C1170 N1175 1.328 . S
C1170 H1176 0.929 . S
C1171 C1172 1.362 . S
C1171 C1174 1.378 . S
C1171 H1186 0.929 . S
C1172 C1171 1.362 . S
C1172 C1173 1.366 . S
C1173 C1170 1.365 . S
C1173 C1172 1.366 . S
C1173 H1187 0.930 . S
C1174 C1171 1.378 . S
C1174 N1175 1.315 . S
C1174 H1177 0.930 . S
N1175 Co1155 2.194 . S
N1175 C1170 1.328 . S
N1175 C1174 1.315 . S
H1176 C1170 0.929 . S
H1177 C1174 0.930 . S
H1178 C1166 0.929 . S
H1179 C1168 0.929 . S
O1180 Co1155 2.351 . S
O1180 C1183 1.244 . S
O1181 Co1155 2.155 . S
O1181 C1183 1.240 . S
O1182 Co1155 2.096 . S
O1182 C1163 1.247 . S
C1183 O1180 1.244 . S
C1183 O1181 1.240 . S
H1184 C1158 0.931 . S
H1185 C1167 0.931 . S
H1186 C1171 0.929 . S
H1187 C1173 0.930 . S
Co1188 N1192 2.148 . S
Co1188 N1198 2.128 . S
Co1188 N1208 2.194 . S
Co1188 O1213 2.351 . S
Co1188 O1214 2.155 . S
Co1188 O1215 2.096 . S
C1189 N1192 1.301 . S
C1189 N1193 1.328 . S
C1189 H1194 0.930 . S
C1190 C1191 1.333 . S
C1190 N1192 1.317 . S
C1190 H1195 0.930 . S
C1191 C1190 1.333 . S
C1191 N1193 1.350 . S
C1191 H1217 0.931 . S
N1192 Co1188 2.148 . S
N1192 C1189 1.301 . S
N1192 C1190 1.317 . S
N1193 C1189 1.328 . S
N1193 C1191 1.350 . S
H1194 C1189 0.930 . S
H1195 C1190 0.930 . S
C1196 O1197 1.224 . S
C1196 O1215 1.247 . S
O1197 C1196 1.224 . S
N1198 Co1188 2.128 . S
N1198 C1199 1.355 . S
N1198 C1201 1.311 . S
C1199 N1198 1.355 . S
C1199 C1200 1.363 . S
C1199 H1211 0.929 . S
C1200 C1199 1.363 . S
C1200 N1202 1.375 . S
C1200 H1218 0.931 . S
C1201 N1198 1.311 . S
C1201 N1202 1.347 . S
C1201 H1212 0.929 . S
N1202 C1200 1.375 . S
N1202 C1201 1.347 . S
C1203 C1206 1.365 . S
C1203 N1208 1.328 . S
C1203 H1209 0.929 . S
C1204 C1205 1.362 . S
C1204 C1207 1.378 . S
C1204 H1219 0.929 . S
C1205 C1204 1.362 . S
C1205 C1206 1.366 . S
C1206 C1203 1.365 . S
C1206 C1205 1.366 . S
C1206 H1220 0.930 . S
C1207 C1204 1.378 . S
C1207 N1208 1.315 . S
C1207 H1210 0.930 . S
N1208 Co1188 2.194 . S
N1208 C1203 1.328 . S
N1208 C1207 1.315 . S
H1209 C1203 0.929 . S
H1210 C1207 0.930 . S
H1211 C1199 0.929 . S
H1212 C1201 0.929 . S
O1213 Co1188 2.351 . S
O1213 C1216 1.244 . S
O1214 Co1188 2.155 . S
O1214 C1216 1.240 . S
O1215 Co1188 2.096 . S
O1215 C1196 1.247 . S
C1216 O1213 1.244 . S
C1216 O1214 1.240 . S
H1217 C1191 0.931 . S
H1218 C1200 0.931 . S
H1219 C1204 0.929 . S
H1220 C1206 0.930 . S
Co1221 N1225 2.148 . S
Co1221 N1231 2.128 . S
Co1221 N1241 2.194 . S
Co1221 O1246 2.351 . S
Co1221 O1247 2.155 . S
Co1221 O1248 2.096 . S
C1222 N1225 1.301 . S
C1222 N1226 1.328 . S
C1222 H1227 0.930 . S
C1223 C1224 1.333 . S
C1223 N1225 1.317 . S
C1223 H1228 0.930 . S
C1224 C1223 1.333 . S
C1224 N1226 1.350 . S
C1224 H1250 0.931 . S
N1225 Co1221 2.148 . S
N1225 C1222 1.301 . S
N1225 C1223 1.317 . S
N1226 C1222 1.328 . S
N1226 C1224 1.350 . S
H1227 C1222 0.930 . S
H1228 C1223 0.930 . S
C1229 O1230 1.224 . S
C1229 O1248 1.247 . S
O1230 C1229 1.224 . S
N1231 Co1221 2.128 . S
N1231 C1232 1.355 . S
N1231 C1234 1.311 . S
C1232 N1231 1.355 . S
C1232 C1233 1.363 1_554 S
C1232 H1244 0.929 . S
C1233 C1232 1.363 1_556 S
C1233 N1235 1.375 1_556 S
C1233 H1251 0.931 . S
C1234 N1231 1.311 . S
C1234 N1235 1.347 . S
C1234 H1245 0.929 . S
N1235 C1233 1.375 1_554 S
N1235 C1234 1.347 . S
C1236 C1239 1.365 . S
C1236 N1241 1.328 . S
C1236 H1242 0.929 . S
C1237 C1238 1.362 . S
C1237 C1240 1.378 . S
C1237 H1252 0.929 . S
C1238 C1237 1.362 . S
C1238 C1239 1.366 . S
C1239 C1236 1.365 . S
C1239 C1238 1.366 . S
C1239 H1253 0.930 . S
C1240 C1237 1.378 . S
C1240 N1241 1.315 . S
C1240 H1243 0.930 . S
N1241 Co1221 2.194 . S
N1241 C1236 1.328 . S
N1241 C1240 1.315 . S
H1242 C1236 0.929 . S
H1243 C1240 0.930 . S
H1244 C1232 0.929 . S
H1245 C1234 0.929 . S
O1246 Co1221 2.351 . S
O1246 C1249 1.244 . S
O1247 Co1221 2.155 . S
O1247 C1249 1.240 . S
O1248 Co1221 2.096 . S
O1248 C1229 1.247 . S
C1249 O1246 1.244 . S
C1249 O1247 1.240 . S
H1250 C1224 0.931 . S
H1251 C1233 0.931 . S
H1252 C1237 0.929 . S
H1253 C1239 0.930 . S
Co1254 N1258 2.148 . S
Co1254 N1264 2.128 . S
Co1254 N1274 2.194 . S
Co1254 O1279 2.351 . S
Co1254 O1280 2.155 . S
Co1254 O1281 2.096 . S
C1255 N1258 1.301 . S
C1255 N1259 1.328 . S
C1255 H1260 0.930 . S
C1256 C1257 1.333 . S
C1256 N1258 1.317 . S
C1256 H1261 0.930 . S
C1257 C1256 1.333 . S
C1257 N1259 1.350 . S
C1257 H1283 0.931 . S
N1258 Co1254 2.148 . S
N1258 C1255 1.301 . S
N1258 C1256 1.317 . S
N1259 C1255 1.328 . S
N1259 C1257 1.350 . S
H1260 C1255 0.930 . S
H1261 C1256 0.930 . S
C1262 O1263 1.224 . S
C1262 O1281 1.247 . S
O1263 C1262 1.224 . S
N1264 Co1254 2.128 . S
N1264 C1265 1.355 . S
N1264 C1267 1.311 . S
C1265 N1264 1.355 . S
C1265 C1266 1.363 . S
C1265 H1277 0.929 . S
C1266 C1265 1.363 . S
C1266 N1268 1.375 . S
C1266 H1284 0.931 . S
C1267 N1264 1.311 . S
C1267 N1268 1.347 . S
C1267 H1278 0.929 . S
N1268 C1266 1.375 . S
N1268 C1267 1.347 . S
C1269 C1272 1.365 . S
C1269 N1274 1.328 . S
C1269 H1275 0.929 . S
C1270 C1271 1.362 . S
C1270 C1273 1.378 . S
C1270 H1285 0.929 . S
C1271 C1270 1.362 . S
C1271 C1272 1.366 . S
C1272 C1269 1.365 . S
C1272 C1271 1.366 . S
C1272 H1286 0.930 . S
C1273 C1270 1.378 . S
C1273 N1274 1.315 . S
C1273 H1276 0.930 . S
N1274 Co1254 2.194 . S
N1274 C1269 1.328 . S
N1274 C1273 1.315 . S
H1275 C1269 0.929 . S
H1276 C1273 0.930 . S
H1277 C1265 0.929 . S
H1278 C1267 0.929 . S
O1279 Co1254 2.351 . S
O1279 C1282 1.244 . S
O1280 Co1254 2.155 . S
O1280 C1282 1.240 . S
O1281 Co1254 2.096 . S
O1281 C1262 1.247 . S
C1282 O1279 1.244 . S
C1282 O1280 1.240 . S
H1283 C1257 0.931 . S
H1284 C1266 0.931 . S
H1285 C1270 0.929 . S
H1286 C1272 0.930 . S
Co1287 N1291 2.148 . S
Co1287 N1297 2.128 . S
Co1287 N1307 2.194 . S
Co1287 O1312 2.351 . S
Co1287 O1313 2.155 . S
Co1287 O1314 2.096 . S
C1288 N1291 1.301 . S
C1288 N1292 1.328 . S
C1288 H1293 0.930 . S
C1289 C1290 1.333 . S
C1289 N1291 1.317 . S
C1289 H1294 0.930 . S
C1290 C1289 1.333 . S
C1290 N1292 1.350 . S
C1290 H1316 0.931 . S
N1291 Co1287 2.148 . S
N1291 C1288 1.301 . S
N1291 C1289 1.317 . S
N1292 C1288 1.328 . S
N1292 C1290 1.350 . S
H1293 C1288 0.930 . S
H1294 C1289 0.930 . S
C1295 O1296 1.224 . S
C1295 O1314 1.247 . S
O1296 C1295 1.224 . S
N1297 Co1287 2.128 . S
N1297 C1298 1.355 . S
N1297 C1300 1.311 . S
C1298 N1297 1.355 . S
C1298 C1299 1.363 . S
C1298 H1310 0.929 . S
C1299 C1298 1.363 . S
C1299 N1301 1.375 . S
C1299 H1317 0.931 . S
C1300 N1297 1.311 . S
C1300 N1301 1.347 . S
C1300 H1311 0.929 . S
N1301 C1299 1.375 . S
N1301 C1300 1.347 . S
C1302 C1305 1.365 . S
C1302 N1307 1.328 . S
C1302 H1308 0.929 . S
C1303 C1304 1.362 . S
C1303 C1306 1.378 . S
C1303 H1318 0.929 . S
C1304 C1303 1.362 . S
C1304 C1305 1.366 . S
C1305 C1302 1.365 . S
C1305 C1304 1.366 . S
C1305 H1319 0.930 . S
C1306 C1303 1.378 . S
C1306 N1307 1.315 . S
C1306 H1309 0.930 . S
N1307 Co1287 2.194 . S
N1307 C1302 1.328 . S
N1307 C1306 1.315 . S
H1308 C1302 0.929 . S
H1309 C1306 0.930 . S
H1310 C1298 0.929 . S
H1311 C1300 0.929 . S
O1312 Co1287 2.351 . S
O1312 C1315 1.244 . S
O1313 Co1287 2.155 . S
O1313 C1315 1.240 . S
O1314 Co1287 2.096 . S
O1314 C1295 1.247 . S
C1315 O1312 1.244 . S
C1315 O1313 1.240 . S
H1316 C1290 0.931 . S
H1317 C1299 0.931 . S
H1318 C1303 0.929 . S
H1319 C1305 0.930 . S
Co1320 N1324 2.148 . S
Co1320 N1330 2.128 . S
Co1320 N1340 2.194 . S
Co1320 O1345 2.351 . S
Co1320 O1346 2.155 . S
Co1320 O1347 2.096 . S
C1321 N1324 1.301 . S
C1321 N1325 1.328 . S
C1321 H1326 0.930 . S
C1322 C1323 1.333 . S
C1322 N1324 1.317 . S
C1322 H1327 0.930 . S
C1323 C1322 1.333 . S
C1323 N1325 1.350 . S
C1323 H1349 0.931 . S
N1324 Co1320 2.148 . S
N1324 C1321 1.301 . S
N1324 C1322 1.317 . S
N1325 C1321 1.328 . S
N1325 C1323 1.350 . S
H1326 C1321 0.930 . S
H1327 C1322 0.930 . S
C1328 O1329 1.224 . S
C1328 O1347 1.247 . S
O1329 C1328 1.224 . S
N1330 Co1320 2.128 . S
N1330 C1331 1.355 . S
N1330 C1333 1.311 . S
C1331 N1330 1.355 . S
C1331 C1332 1.363 . S
C1331 H1343 0.929 . S
C1332 C1331 1.363 . S
C1332 N1334 1.375 . S
C1332 H1350 0.931 . S
C1333 N1330 1.311 . S
C1333 N1334 1.347 . S
C1333 H1344 0.929 . S
N1334 C1332 1.375 . S
N1334 C1333 1.347 . S
C1335 C1338 1.365 . S
C1335 N1340 1.328 . S
C1335 H1341 0.929 . S
C1336 C1337 1.362 . S
C1336 C1339 1.378 . S
C1336 H1351 0.929 . S
C1337 C1336 1.362 . S
C1337 C1338 1.366 . S
C1338 C1335 1.365 . S
C1338 C1337 1.366 . S
C1338 H1352 0.930 . S
C1339 C1336 1.378 . S
C1339 N1340 1.315 . S
C1339 H1342 0.930 . S
N1340 Co1320 2.194 . S
N1340 C1335 1.328 . S
N1340 C1339 1.315 . S
H1341 C1335 0.929 . S
H1342 C1339 0.930 . S
H1343 C1331 0.929 . S
H1344 C1333 0.929 . S
O1345 Co1320 2.351 . S
O1345 C1348 1.244 . S
O1346 Co1320 2.155 . S
O1346 C1348 1.240 . S
O1347 Co1320 2.096 . S
O1347 C1328 1.247 . S
C1348 O1345 1.244 . S
C1348 O1346 1.240 . S
H1349 C1323 0.931 . S
H1350 C1332 0.931 . S
H1351 C1336 0.929 . S
H1352 C1338 0.930 . S
Co1353 N1357 2.148 . S
Co1353 N1363 2.128 . S
Co1353 N1373 2.194 . S
Co1353 O1378 2.351 . S
Co1353 O1379 2.155 . S
Co1353 O1380 2.096 . S
C1354 N1357 1.301 . S
C1354 N1358 1.328 . S
C1354 H1359 0.930 . S
C1355 C1356 1.333 . S
C1355 N1357 1.317 . S
C1355 H1360 0.930 . S
C1356 C1355 1.333 . S
C1356 N1358 1.350 . S
C1356 H1382 0.931 . S
N1357 Co1353 2.148 . S
N1357 C1354 1.301 . S
N1357 C1355 1.317 . S
N1358 C1354 1.328 . S
N1358 C1356 1.350 . S
H1359 C1354 0.930 . S
H1360 C1355 0.930 . S
C1361 O1362 1.224 . S
C1361 O1380 1.247 . S
O1362 C1361 1.224 . S
N1363 Co1353 2.128 . S
N1363 C1364 1.355 . S
N1363 C1366 1.311 . S
C1364 N1363 1.355 . S
C1364 C1365 1.363 . S
C1364 H1376 0.929 . S
C1365 C1364 1.363 . S
C1365 N1367 1.375 . S
C1365 H1383 0.931 . S
C1366 N1363 1.311 . S
C1366 N1367 1.347 . S
C1366 H1377 0.929 . S
N1367 C1365 1.375 . S
N1367 C1366 1.347 . S
C1368 C1371 1.365 . S
C1368 N1373 1.328 . S
C1368 H1374 0.929 . S
C1369 C1370 1.362 . S
C1369 C1372 1.378 . S
C1369 H1384 0.929 . S
C1370 C1369 1.362 . S
C1370 C1371 1.366 . S
C1371 C1368 1.365 . S
C1371 C1370 1.366 . S
C1371 H1385 0.930 . S
C1372 C1369 1.378 . S
C1372 N1373 1.315 . S
C1372 H1375 0.930 . S
N1373 Co1353 2.194 . S
N1373 C1368 1.328 . S
N1373 C1372 1.315 . S
H1374 C1368 0.929 . S
H1375 C1372 0.930 . S
H1376 C1364 0.929 . S
H1377 C1366 0.929 . S
O1378 Co1353 2.351 . S
O1378 C1381 1.244 . S
O1379 Co1353 2.155 . S
O1379 C1381 1.240 . S
O1380 Co1353 2.096 . S
O1380 C1361 1.247 . S
C1381 O1378 1.244 . S
C1381 O1379 1.240 . S
H1382 C1356 0.931 . S
H1383 C1365 0.931 . S
H1384 C1369 0.929 . S
H1385 C1371 0.930 . S
Co1386 N1390 2.148 . S
Co1386 N1396 2.128 . S
Co1386 N1406 2.194 . S
Co1386 O1411 2.351 . S
Co1386 O1412 2.155 . S
Co1386 O1413 2.096 . S
C1387 N1390 1.301 . S
C1387 N1391 1.328 . S
C1387 H1392 0.930 . S
C1388 C1389 1.333 . S
C1388 N1390 1.317 . S
C1388 H1393 0.930 . S
C1389 C1388 1.333 . S
C1389 N1391 1.350 . S
C1389 H1415 0.931 . S
N1390 Co1386 2.148 . S
N1390 C1387 1.301 . S
N1390 C1388 1.317 . S
N1391 C1387 1.328 . S
N1391 C1389 1.350 . S
H1392 C1387 0.930 . S
H1393 C1388 0.930 . S
C1394 O1395 1.224 . S
C1394 O1413 1.247 . S
O1395 C1394 1.224 . S
N1396 Co1386 2.128 . S
N1396 C1397 1.355 . S
N1396 C1399 1.311 . S
C1397 N1396 1.355 . S
C1397 C1398 1.363 1_565 S
C1397 H1409 0.929 . S
C1398 C1397 1.363 1_545 S
C1398 N1400 1.375 1_545 S
C1398 H1416 0.931 . S
C1399 N1396 1.311 . S
C1399 N1400 1.347 . S
C1399 H1410 0.929 . S
N1400 C1398 1.375 1_565 S
N1400 C1399 1.347 . S
C1401 C1404 1.365 . S
C1401 N1406 1.328 . S
C1401 H1407 0.929 . S
C1402 C1403 1.362 . S
C1402 C1405 1.378 . S
C1402 H1417 0.929 . S
C1403 C1402 1.362 . S
C1403 C1404 1.366 . S
C1404 C1401 1.365 . S
C1404 C1403 1.366 . S
C1404 H1418 0.930 . S
C1405 C1402 1.378 . S
C1405 N1406 1.315 . S
C1405 H1408 0.930 . S
N1406 Co1386 2.194 . S
N1406 C1401 1.328 . S
N1406 C1405 1.315 . S
H1407 C1401 0.929 . S
H1408 C1405 0.930 . S
H1409 C1397 0.929 . S
H1410 C1399 0.929 . S
O1411 Co1386 2.351 . S
O1411 C1414 1.244 . S
O1412 Co1386 2.155 . S
O1412 C1414 1.240 . S
O1413 Co1386 2.096 . S
O1413 C1394 1.247 . S
C1414 O1411 1.244 . S
C1414 O1412 1.240 . S
H1415 C1389 0.931 . S
H1416 C1398 0.931 . S
H1417 C1402 0.929 . S
H1418 C1404 0.930 . S
Co1419 N1423 2.148 . S
Co1419 N1429 2.128 . S
Co1419 N1439 2.194 . S
Co1419 O1444 2.351 . S
Co1419 O1445 2.155 . S
Co1419 O1446 2.096 . S
C1420 N1423 1.301 . S
C1420 N1424 1.328 . S
C1420 H1425 0.930 . S
C1421 C1422 1.333 . S
C1421 N1423 1.317 . S
C1421 H1426 0.930 . S
C1422 C1421 1.333 . S
C1422 N1424 1.350 . S
C1422 H1448 0.931 . S
N1423 Co1419 2.148 . S
N1423 C1420 1.301 . S
N1423 C1421 1.317 . S
N1424 C1420 1.328 . S
N1424 C1422 1.350 . S
H1425 C1420 0.930 . S
H1426 C1421 0.930 . S
C1427 O1428 1.224 . S
C1427 O1446 1.247 . S
O1428 C1427 1.224 . S
N1429 Co1419 2.128 . S
N1429 C1430 1.355 . S
N1429 C1432 1.311 . S
C1430 N1429 1.355 . S
C1430 C1431 1.363 . S
C1430 H1442 0.929 . S
C1431 C1430 1.363 . S
C1431 N1433 1.375 . S
C1431 H1449 0.931 . S
C1432 N1429 1.311 . S
C1432 N1433 1.347 . S
C1432 H1443 0.929 . S
N1433 C1431 1.375 . S
N1433 C1432 1.347 . S
C1434 C1437 1.365 . S
C1434 N1439 1.328 . S
C1434 H1440 0.929 . S
C1435 C1436 1.362 . S
C1435 C1438 1.378 . S
C1435 H1450 0.929 . S
C1436 C1435 1.362 . S
C1436 C1437 1.366 . S
C1437 C1434 1.365 . S
C1437 C1436 1.366 . S
C1437 H1451 0.930 . S
C1438 C1435 1.378 . S
C1438 N1439 1.315 . S
C1438 H1441 0.930 . S
N1439 Co1419 2.194 . S
N1439 C1434 1.328 . S
N1439 C1438 1.315 . S
H1440 C1434 0.929 . S
H1441 C1438 0.930 . S
H1442 C1430 0.929 . S
H1443 C1432 0.929 . S
O1444 Co1419 2.351 . S
O1444 C1447 1.244 . S
O1445 Co1419 2.155 . S
O1445 C1447 1.240 . S
O1446 Co1419 2.096 . S
O1446 C1427 1.247 . S
C1447 O1444 1.244 . S
C1447 O1445 1.240 . S
H1448 C1422 0.931 . S
H1449 C1431 0.931 . S
H1450 C1435 0.929 . S
H1451 C1437 0.930 . S
Co1452 N1456 2.148 . S
Co1452 N1462 2.128 . S
Co1452 N1472 2.194 . S
Co1452 O1477 2.351 . S
Co1452 O1478 2.155 . S
Co1452 O1479 2.096 . S
C1453 N1456 1.301 . S
C1453 N1457 1.328 . S
C1453 H1458 0.930 . S
C1454 C1455 1.333 . S
C1454 N1456 1.317 . S
C1454 H1459 0.930 . S
C1455 C1454 1.333 . S
C1455 N1457 1.350 . S
C1455 H1481 0.931 . S
N1456 Co1452 2.148 . S
N1456 C1453 1.301 . S
N1456 C1454 1.317 . S
N1457 C1453 1.328 . S
N1457 C1455 1.350 . S
H1458 C1453 0.930 . S
H1459 C1454 0.930 . S
C1460 O1461 1.224 . S
C1460 O1479 1.247 . S
O1461 C1460 1.224 . S
N1462 Co1452 2.128 . S
N1462 C1463 1.355 . S
N1462 C1465 1.311 . S
C1463 N1462 1.355 . S
C1463 C1464 1.363 . S
C1463 H1475 0.929 . S
C1464 C1463 1.363 . S
C1464 N1466 1.375 . S
C1464 H1482 0.931 . S
C1465 N1462 1.311 . S
C1465 N1466 1.347 . S
C1465 H1476 0.929 . S
N1466 C1464 1.375 . S
N1466 C1465 1.347 . S
C1467 C1470 1.365 . S
C1467 N1472 1.328 . S
C1467 H1473 0.929 . S
C1468 C1469 1.362 . S
C1468 C1471 1.378 . S
C1468 H1483 0.929 . S
C1469 C1468 1.362 . S
C1469 C1470 1.366 . S
C1470 C1467 1.365 . S
C1470 C1469 1.366 . S
C1470 H1484 0.930 . S
C1471 C1468 1.378 . S
C1471 N1472 1.315 . S
C1471 H1474 0.930 . S
N1472 Co1452 2.194 . S
N1472 C1467 1.328 . S
N1472 C1471 1.315 . S
H1473 C1467 0.929 . S
H1474 C1471 0.930 . S
H1475 C1463 0.929 . S
H1476 C1465 0.929 . S
O1477 Co1452 2.351 . S
O1477 C1480 1.244 . S
O1478 Co1452 2.155 . S
O1478 C1480 1.240 . S
O1479 Co1452 2.096 . S
O1479 C1460 1.247 . S
C1480 O1477 1.244 . S
C1480 O1478 1.240 . S
H1481 C1455 0.931 . S
H1482 C1464 0.931 . S
H1483 C1468 0.929 . S
H1484 C1470 0.930 . S
Co1485 N1489 2.148 . S
Co1485 N1495 2.128 . S
Co1485 N1505 2.194 . S
Co1485 O1510 2.351 . S
Co1485 O1511 2.155 . S
Co1485 O1512 2.096 . S
C1486 N1489 1.301 . S
C1486 N1490 1.328 . S
C1486 H1491 0.930 . S
C1487 C1488 1.333 . S
C1487 N1489 1.317 . S
C1487 H1492 0.930 . S
C1488 C1487 1.333 . S
C1488 N1490 1.350 . S
C1488 H1514 0.931 . S
N1489 Co1485 2.148 . S
N1489 C1486 1.301 . S
N1489 C1487 1.317 . S
N1490 C1486 1.328 . S
N1490 C1488 1.350 . S
H1491 C1486 0.930 . S
H1492 C1487 0.930 . S
C1493 O1494 1.224 . S
C1493 O1512 1.247 . S
O1494 C1493 1.224 . S
N1495 Co1485 2.128 . S
N1495 C1496 1.355 . S
N1495 C1498 1.311 . S
C1496 N1495 1.355 . S
C1496 C1497 1.363 . S
C1496 H1508 0.929 . S
C1497 C1496 1.363 . S
C1497 N1499 1.375 . S
C1497 H1515 0.931 . S
C1498 N1495 1.311 . S
C1498 N1499 1.347 . S
C1498 H1509 0.929 . S
N1499 C1497 1.375 . S
N1499 C1498 1.347 . S
C1500 C1503 1.365 . S
C1500 N1505 1.328 . S
C1500 H1506 0.929 . S
C1501 C1502 1.362 . S
C1501 C1504 1.378 . S
C1501 H1516 0.929 . S
C1502 C1501 1.362 . S
C1502 C1503 1.366 . S
C1503 C1500 1.365 . S
C1503 C1502 1.366 . S
C1503 H1517 0.930 . S
C1504 C1501 1.378 . S
C1504 N1505 1.315 . S
C1504 H1507 0.930 . S
N1505 Co1485 2.194 . S
N1505 C1500 1.328 . S
N1505 C1504 1.315 . S
H1506 C1500 0.929 . S
H1507 C1504 0.930 . S
H1508 C1496 0.929 . S
H1509 C1498 0.929 . S
O1510 Co1485 2.351 . S
O1510 C1513 1.244 . S
O1511 Co1485 2.155 . S
O1511 C1513 1.240 . S
O1512 Co1485 2.096 . S
O1512 C1493 1.247 . S
C1513 O1510 1.244 . S
C1513 O1511 1.240 . S
H1514 C1488 0.931 . S
H1515 C1497 0.931 . S
H1516 C1501 0.929 . S
H1517 C1503 0.930 . S
Co1518 N1522 2.148 . S
Co1518 N1528 2.128 . S
Co1518 N1538 2.194 . S
Co1518 O1543 2.351 . S
Co1518 O1544 2.155 . S
Co1518 O1545 2.096 . S
C1519 N1522 1.301 . S
C1519 N1523 1.328 . S
C1519 H1524 0.930 . S
C1520 C1521 1.333 . S
C1520 N1522 1.317 . S
C1520 H1525 0.930 . S
C1521 C1520 1.333 . S
C1521 N1523 1.350 . S
C1521 H1547 0.931 . S
N1522 Co1518 2.148 . S
N1522 C1519 1.301 . S
N1522 C1520 1.317 . S
N1523 C1519 1.328 . S
N1523 C1521 1.350 . S
H1524 C1519 0.930 . S
H1525 C1520 0.930 . S
C1526 O1527 1.224 . S
C1526 O1545 1.247 . S
O1527 C1526 1.224 . S
N1528 Co1518 2.128 . S
N1528 C1529 1.355 . S
N1528 C1531 1.311 . S
C1529 N1528 1.355 . S
C1529 C1530 1.363 1_545 S
C1529 H1541 0.929 . S
C1530 C1529 1.363 1_565 S
C1530 N1532 1.375 1_565 S
C1530 H1548 0.931 . S
C1531 N1528 1.311 . S
C1531 N1532 1.347 . S
C1531 H1542 0.929 . S
N1532 C1530 1.375 1_545 S
N1532 C1531 1.347 . S
C1533 C1536 1.365 . S
C1533 N1538 1.328 . S
C1533 H1539 0.929 . S
C1534 C1535 1.362 . S
C1534 C1537 1.378 . S
C1534 H1549 0.929 . S
C1535 C1534 1.362 . S
C1535 C1536 1.366 . S
C1536 C1533 1.365 . S
C1536 C1535 1.366 . S
C1536 H1550 0.930 . S
C1537 C1534 1.378 . S
C1537 N1538 1.315 . S
C1537 H1540 0.930 . S
N1538 Co1518 2.194 . S
N1538 C1533 1.328 . S
N1538 C1537 1.315 . S
H1539 C1533 0.929 . S
H1540 C1537 0.930 . S
H1541 C1529 0.929 . S
H1542 C1531 0.929 . S
O1543 Co1518 2.351 . S
O1543 C1546 1.244 . S
O1544 Co1518 2.155 . S
O1544 C1546 1.240 . S
O1545 Co1518 2.096 . S
O1545 C1526 1.247 . S
C1546 O1543 1.244 . S
C1546 O1544 1.240 . S
H1547 C1521 0.931 . S
H1548 C1530 0.931 . S
H1549 C1534 0.929 . S
H1550 C1536 0.930 . S
Co1551 N1555 2.148 1_655 S
Co1551 N1561 2.128 . S
Co1551 N1571 2.194 . S
Co1551 O1576 2.351 . S
Co1551 O1577 2.155 1_655 S
Co1551 O1578 2.096 1_655 S
C1552 N1555 1.301 . S
C1552 N1556 1.328 . S
C1552 H1557 0.930 1_455 S
C1553 C1554 1.333 . S
C1553 N1555 1.317 . S
C1553 H1558 0.930 . S
C1554 C1553 1.333 . S
C1554 N1556 1.350 . S
C1554 H1580 0.931 . S
N1555 Co1551 2.148 1_455 S
N1555 C1552 1.301 . S
N1555 C1553 1.317 . S
N1556 C1552 1.328 . S
N1556 C1554 1.350 . S
H1557 C1552 0.930 1_655 S
H1558 C1553 0.930 . S
C1559 O1560 1.224 1_455 S
C1559 O1578 1.247 . S
O1560 C1559 1.224 1_655 S
N1561 Co1551 2.128 . S
N1561 C1562 1.355 . S
N1561 C1564 1.311 . S
C1562 N1561 1.355 . S
C1562 C1563 1.363 1_565 S
C1562 H1574 0.929 . S
C1563 C1562 1.363 1_545 S
C1563 N1565 1.375 1_545 S
C1563 H1581 0.931 . S
C1564 N1561 1.311 . S
C1564 N1565 1.347 . S
C1564 H1575 0.929 . S
N1565 C1563 1.375 1_565 S
N1565 C1564 1.347 . S
C1566 C1569 1.365 . S
C1566 N1571 1.328 . S
C1566 H1572 0.929 . S
C1567 C1568 1.362 . S
C1567 C1570 1.378 . S
C1567 H1582 0.929 . S
C1568 C1567 1.362 . S
C1568 C1569 1.366 . S
C1569 C1566 1.365 . S
C1569 C1568 1.366 . S
C1569 H1583 0.930 . S
C1570 C1567 1.378 . S
C1570 N1571 1.315 . S
C1570 H1573 0.930 . S
N1571 Co1551 2.194 . S
N1571 C1566 1.328 . S
N1571 C1570 1.315 . S
H1572 C1566 0.929 . S
H1573 C1570 0.930 . S
H1574 C1562 0.929 . S
H1575 C1564 0.929 . S
O1576 Co1551 2.351 . S
O1576 C1579 1.244 1_655 S
O1577 Co1551 2.155 1_455 S
O1577 C1579 1.240 . S
O1578 Co1551 2.096 1_455 S
O1578 C1559 1.247 . S
C1579 O1576 1.244 1_455 S
C1579 O1577 1.240 . S
H1580 C1554 0.931 . S
H1581 C1563 0.931 . S
H1582 C1567 0.929 . S
H1583 C1569 0.930 . S
C8 C668 2.658 . S
C1361 C41 2.658 . S
C1394 C74 2.658 . S
C107 C1427 2.658 . S
C140 C1559 2.658 . S
C701 C173 2.658 . S
C206 C1526 2.658 . S
C239 C536 2.658 . S
C272 C503 2.658 . S
C305 C404 2.658 . S
C437 C338 2.658 . S
C470 C371 2.658 . S
C833 C569 2.658 . S
C602 C866 2.658 . S
C899 C635 2.658 . S
C734 C998 2.658 . S
C767 C932 2.658 . S
C1460 C800 2.658 . S
C1493 C965 2.658 . S
C1031 C1328 2.658 . S
C1295 C1064 2.658 . S
C1196 C1097 2.658 . S
C1130 C1229 2.658 . S
C1163 C1262 2.658 . S
N533 C28 2.032 . S
N1556 C61 2.032 . S
N698 C94 2.032 . S
C127 N1523 2.032 . S
N1358 C160 2.032 . S
C193 N1391 2.032 . S
N1424 C226 2.032 . S
C259 N665 2.032 . S
C292 N5 2.032 . S
N38 C325 2.032 . S
N71 C358 2.032 . S
N104 C391 2.032 . S
C424 N137 2.032 . S
C457 N170 2.032 . S
C490 N203 2.032 . S
C523 N236 2.032 . S
N269 C556 2.032 . S
C589 N1193 2.032 . S
C622 N1226 2.032 . S
N1259 C655 2.032 . S
C688 N500 2.032 . S
C721 N335 2.032 . S
N1160 C754 2.032 . S
C787 N1094 2.032 . S
C820 N1325 2.032 . S
C853 N764 2.032 . S
C886 N1490 2.032 . S
C919 N731 2.032 . S
N566 C952 2.032 . S
C985 N599 2.032 . S
C1018 N632 2.032 . S
C1051 N1457 2.032 . S
N797 C1084 2.032 . S
C1117 N830 2.032 . S
N863 C1150 2.032 . S
N896 C1183 2.032 . S
N929 C1216 2.032 . S
N962 C1249 2.032 . S
C1282 N995 2.032 . S
C1315 N1028 2.032 . S
N1061 C1348 2.032 . S
C1381 N401 2.032 . S
C1414 N434 2.032 . S
C1447 N467 2.032 . S
N1292 C1480 2.032 . S
N1127 C1513 2.032 . S
N368 C1546 2.032 . S
C1579 N302 2.032 . S
C314 C17 1.713 . S
C347 C50 1.713 . S
C83 C380 1.713 . S
C116 C281 1.713 . S
C149 C512 1.713 . S
C413 C182 1.713 . S
C446 C215 1.713 . S
C248 C479 1.713 . S
C545 C611 1.713 . S
C1535 C578 1.713 . S
C1568 C644 1.713 . S
C1502 C677 1.713 . S
C710 C1469 1.713 . S
C1370 C743 1.713 . S
C1436 C776 1.713 . S
C1106 C809 1.713 . S
C1139 C842 1.713 . S
C875 C1172 1.713 . S
C1073 C908 1.713 . S
C1304 C941 1.713 . S
C974 C1205 1.713 . S
C1238 C1007 1.713 . S
C1040 C1271 1.713 . S
C1337 C1403 1.713 . S
N872 N14 1.526 1_655 S
N47 N905 1.526 1_455 S
N806 N80 1.526 . S
N839 N113 1.526 . S
N1004 N146 1.526 1_655 S
N1037 N179 1.526 . S
N938 N212 1.526 . S
N245 N971 1.526 1_455 S
N278 N410 1.526 1_545 S
N311 N443 1.526 . S
N344 N476 1.526 1_565 S
N377 N509 1.526 1_556 S
N1433 N542 1.526 1_556 S
N1499 N575 1.526 1_554 S
N608 N740 1.526 . S
N1334 N641 1.526 . S
N674 N1565 1.526 1_545 S
N707 N1367 1.526 . S
N773 N1466 1.526 . S
N1070 N1202 1.526 . S
N1235 N1103 1.526 1_554 S
N1268 N1136 1.526 . S
N1169 N1301 1.526 . S
N1400 N1532 1.526 1_565 S
