# Generated by pormake.
# Topology kag, (6)-cn, num edge types: 1
# Building blocks:
#     Node 0, Type 0, BuildingBlock: BETDEL_clean_sbu_0, # of connection points: 6
#     Node 1, Type 0, BuildingBlock: BETDEL_clean_sbu_0, # of connection points: 6
#     Node 2, Type 0, BuildingBlock: BETDEL_clean_sbu_0, # of connection points: 6
#     Edge 3, Type (0, 0), BuildingBlock: ZUJKAS_clean_linker_0, # of connection points: 2
#     Edge 4, Type (0, 0), BuildingBlock: ZUJKAS_clean_linker_0, # of connection points: 2
#     Edge 5, Type (0, 0), BuildingBlock: ZUJKAS_clean_linker_0, # of connection points: 2
#     Edge 6, Type (0, 0), BuildingBlock: ZUJKAS_clean_linker_0, # of connection points: 2
#     Edge 7, Type (0, 0), BuildingBlock: ZUJKAS_clean_linker_0, # of connection points: 2
#     Edge 8, Type (0, 0), BuildingBlock: ZUJKAS_clean_linker_0, # of connection points: 2
#     Edge 9, Type (0, 0), BuildingBlock: ZUJKAS_clean_linker_0, # of connection points: 2
#     Edge 10, Type (0, 0), BuildingBlock: ZUJKAS_clean_linker_0, # of connection points: 2
#     Edge 11, Type (0, 0), BuildingBlock: ZUJKAS_clean_linker_0, # of connection points: 2
# Relax obj value: 0.008
# Max RMSD: 0.048
# Mean RMSD: 0.036
data_MOF--net-kag--node1-BETDEL_clean_sbu_0--edge1-ZUJKAS_clean_linker_0
_symmetry_space_group_name_H-M    P1
_symmetry_Int_Tables_number       1
_symmetry_cell_setting            triclinic
loop_
_symmetry_equiv_pos_as_xyz
'x, y, z'
_cell_length_a     39.85709
_cell_length_b     42.14929
_cell_length_c     19.003078
_cell_angle_alpha  94.69985
_cell_angle_beta   90.559608
_cell_angle_gamma 114.32476
loop_
_atom_site_label
_atom_site_type_symbol
_atom_site_fract_x
_atom_site_fract_y
_atom_site_fract_z
_atom_type_partial_charge
Dy0 Dy 0.99258 0.47168 0.99932 0.0
C1 C 0.08259 0.61739 1.00541 0.0
C2 C 0.94467 0.40338 0.00745 0.0
Dy3 Dy 0.0333 0.54919 0.00778 0.0
O4 O 0.96057 0.4166 0.95119 0.0
O5 O 0.95538 0.42742 0.06039 0.0
O6 O 0.01735 0.46719 0.89639 0.0
O7 O 1.00389 0.50992 0.92079 0.0
C8 C 0.01808 0.49601 0.87573 0.0
C9 C 1.00697 0.52442 0.13064 0.0
O10 O 0.97813 0.54745 0.97993 0.0
O11 O 0.94672 0.48985 1.00435 0.0
O12 O 0.07485 0.59997 0.06046 0.0
O13 O 0.06299 0.59764 0.95066 0.0
O14 O 1.00723 0.55302 0.10957 0.0
O15 O 0.02185 0.51094 0.08619 0.0
O16 O 0.04793 0.47484 0.03104 0.0
O17 O 0.07811 0.53009 0.99415 0.0
C18 C 0.94708 0.52026 0.9899 0.0
C19 C 0.07851 0.50092 0.0146 0.0
Dy20 Dy 0.55162 0.0331 0.00791 0.0
C21 C 0.39993 0.94378 0.02354 0.0
C22 C 0.62228 0.08208 0.99899 0.0
Dy23 Dy 0.4703 0.9919 0.00762 0.0
O24 O 0.60568 0.07254 0.05682 0.0
O25 O 0.60041 0.06439 0.94495 0.0
O26 O 0.55778 1.00986 0.10581 0.0
O27 O 0.5117 0.02132 0.09155 0.0
C28 C 0.52728 1.00849 0.13178 0.0
C29 C 0.49452 0.01579 0.88292 0.0
O30 O 0.47155 0.04357 0.04805 0.0
O31 O 0.52913 0.07409 1.00587 0.0
O32 O 0.41137 0.96082 0.96857 0.0
O33 O 0.42682 0.95358 0.07098 0.0
O34 O 0.46369 0.01388 0.90812 0.0
O35 O 0.51014 1.00338 0.92395 0.0
O36 O 0.55204 0.98152 0.97241 0.0
O37 O 0.49167 0.9499 1.00121 0.0
C38 C 0.49801 0.07319 0.03177 0.0
C39 C 0.52418 0.95145 0.98193 0.0
Dy40 Dy 0.52775 0.55168 0.99886 0.0
C41 C 0.48787 0.40688 0.02533 0.0
C42 C 0.54089 0.61839 0.9709 0.0
Dy43 Dy 0.50066 0.47419 1.00306 0.0
O44 O 0.55659 0.61012 0.02203 0.0
O45 O 0.51817 0.59014 0.93424 0.0
O46 O 0.55398 0.56098 0.10764 0.0
O47 O 0.50503 0.51645 0.08214 0.0
C48 C 0.53038 0.53213 0.1292 0.0
C49 C 0.49679 0.49448 0.87395 0.0
O50 O 0.4473 0.47743 0.02485 0.0
O51 O 0.46606 0.53425 0.99467 0.0
O52 O 0.49152 0.41931 0.96436 0.0
O53 O 0.49105 0.43125 0.07484 0.0
O54 O 0.47226 0.46641 0.89683 0.0
O55 O 0.52302 0.50949 0.91968 0.0
O56 O 0.57896 0.54576 0.9686 0.0
O57 O 0.56223 0.49308 0.01658 0.0
C58 C 0.43994 0.50423 0.01088 0.0
C59 C 0.58751 0.52108 0.99151 0.0
H60 H 0.04346 0.46476 0.77207 0.0
H61 H 0.04229 0.47068 0.64529 0.0
H62 H 0.99822 0.54811 0.68276 0.0
H63 H 0.99982 0.54263 0.81017 0.0
H64 H 0.97912 0.45636 0.56249 0.0
H65 H 0.08081 0.59341 0.54896 0.0
H66 H 0.07802 0.56995 0.62561 0.0
H67 H 0.04546 0.58838 0.61052 0.0
C68 C 0.03408 0.48347 0.75341 0.0
C69 C 0.02164 0.50318 0.80083 0.0
C70 C 0.03334 0.48674 0.68098 0.0
C71 C 0.02032 0.50992 0.65461 0.0
C72 C 1.00892 0.53047 0.70209 0.0
H73 H 0.98094 0.55545 0.23362 0.0
H74 H 0.98176 0.54959 0.36049 0.0
C75 C 1.00975 0.52726 0.77478 0.0
C76 C 0.01661 0.51082 0.57719 0.0
H77 H 0.04502 0.56419 0.44396 0.0
C78 C 0.99364 0.47989 0.53645 0.0
C79 C 0.0355 0.54156 0.5435 0.0
C80 C 0.0616 0.57516 0.58418 0.0
C81 C 0.98864 0.47899 0.46296 0.0
C82 C 1.00755 0.50973 0.42927 0.0
C83 C 0.03049 0.54067 0.47001 0.0
C84 C 1.004 0.51057 0.3518 0.0
C85 C 0.96257 0.44539 0.42225 0.0
C86 C 0.01569 0.4901 0.30467 0.0
C87 C 0.01508 0.49329 0.23196 0.0
C88 C 1.00313 0.51724 0.20553 0.0
C89 C 0.99037 0.53684 0.25258 0.0
C90 C 0.99091 0.5336 0.32505 0.0
H91 H 0.94334 0.42714 0.45744 0.0
H92 H 0.94618 0.4506 0.38076 0.0
H93 H 0.97874 0.43218 0.39597 0.0
H94 H 0.02643 0.47256 0.32431 0.0
H95 H 0.02524 0.478 0.19685 0.0
H96 H 0.56266 0.98662 0.2264 0.0
H97 H 0.55612 0.98671 0.3542 0.0
H98 H 0.47002 0.02294 0.33613 0.0
H99 H 0.47612 0.02246 0.20776 0.0
H100 H 0.56755 0.04539 0.44587 0.0
H101 H 0.4258 0.9429 0.46217 0.0
H102 H 0.45117 0.94744 0.38266 0.0
H103 H 0.42916 0.9762 0.4059 0.0
C104 C 0.54193 0.99409 0.24952 0.0
C105 C 0.51995 1.00462 0.20728 0.0
C106 C 0.53831 0.99421 0.32253 0.0
C107 C 0.51249 1.00466 0.35465 0.0
C108 C 0.48972 0.01425 0.31231 0.0
H109 H 0.45919 0.03703 0.78707 0.0
H110 H 0.4659 0.03632 0.65928 0.0
C111 C 0.49329 0.01406 0.23907 0.0
C112 C 0.51109 1.00751 0.43277 0.0
H113 H 0.45465 0.97741 0.56875 0.0
C114 C 0.54293 0.03041 0.47284 0.0
C115 C 0.47893 0.98799 0.4677 0.0
C116 C 0.44439 0.962 0.42756 0.0
C117 C 0.5433 0.03478 0.54695 0.0
C118 C 0.51111 0.01532 0.58187 0.0
C119 C 0.47929 0.99236 0.5418 0.0
C120 C 0.50958 0.01845 0.65997 0.0
C121 C 0.57783 0.06079 0.58707 0.0
C122 C 0.53232 1.00911 0.70294 0.0
C123 C 0.52867 1.00967 0.7762 0.0
C124 C 0.50194 0.01923 0.80735 0.0
C125 C 0.47997 0.02948 0.76444 0.0
C126 C 0.48369 0.029 0.69144 0.0
H127 H 0.59651 0.07977 0.55237 0.0
H128 H 0.57104 0.07549 0.63171 0.0
H129 H 0.59296 0.04659 0.60911 0.0
H130 H 0.55208 1.00034 0.67963 0.0
H131 H 0.54582 1.00147 0.80804 0.0
H132 H 0.5532 0.5438 0.80931 0.0
H133 H 0.55817 0.55065 0.6822 0.0
H134 H 0.45064 0.46588 0.6414 0.0
H135 H 0.44537 0.45921 0.76792 0.0
H136 H 0.55625 0.49989 0.57561 0.0
H137 H 0.44324 0.54126 0.5287 0.0
H138 H 0.46218 0.54253 0.61612 0.0
H139 H 0.42938 0.50192 0.57235 0.0
C140 C 0.53045 0.52698 0.77322 0.0
C141 C 0.4989 0.50098 0.79845 0.0
C142 C 0.53335 0.53084 0.70069 0.0
C143 C 0.50461 0.50902 0.65231 0.0
C144 C 0.47286 0.48346 0.67772 0.0
H145 H 0.47379 0.48193 0.19199 0.0
H146 H 0.468 0.4745 0.31889 0.0
C147 C 0.46997 0.47956 0.75006 0.0
C148 C 0.50854 0.51162 0.57502 0.0
H149 H 0.46899 0.52528 0.42676 0.0
C150 C 0.53732 0.50567 0.54312 0.0
C151 C 0.48365 0.51888 0.53258 0.0
C152 C 0.45306 0.52683 0.56415 0.0
C153 C 0.54158 0.50628 0.46983 0.0
C154 C 0.51672 0.5136 0.42742 0.0
C155 C 0.48789 0.51947 0.45927 0.0
C156 C 0.521 0.51664 0.35033 0.0
C157 C 0.57223 0.49844 0.43825 0.0
C158 C 0.55269 0.54271 0.32594 0.0
C159 C 0.55602 0.54696 0.25381 0.0
C160 C 0.52764 0.52537 0.20456 0.0
C161 C 0.49613 0.49888 0.22876 0.0
C162 C 0.49276 0.49469 0.30116 0.0
H163 H 0.58211 0.48405 0.47367 0.0
H164 H 0.56313 0.48275 0.38626 0.0
H165 H 0.59585 0.5234 0.43005 0.0
H166 H 0.57452 0.56035 0.36291 0.0
H167 H 0.58058 0.56767 0.23674 0.0
H168 H 0.09158 0.4447 0.04861 0.0
H169 H 0.15074 0.43968 0.04984 0.0
H170 H 0.20485 0.54459 0.98864 0.0
H171 H 0.14621 0.54978 0.98649 0.0
H172 H 0.22235 0.49506 0.90758 0.0
H173 H 0.23815 0.48714 0.19613 0.0
H174 H 0.19562 0.45633 0.15241 0.0
H175 H 0.20586 0.50216 0.15978 0.0
C176 C 0.11611 0.46676 0.03577 0.0
C177 C 0.11411 0.49764 0.01752 0.0
C178 C 0.14991 0.46389 0.03683 0.0
C179 C 0.18221 0.49191 0.02003 0.0
C180 C 0.18025 0.52269 1.00192 0.0
H181 H 0.41394 0.55288 0.98297 0.0
H182 H 0.35041 0.54688 0.98473 0.0
C183 C 0.14663 0.52559 1.0008 0.0
C184 C 0.21813 0.48922 0.01907 0.0
H185 H 0.28503 0.48392 0.125 0.0
C186 C 0.23598 0.49246 0.95504 0.0
C187 C 0.23572 0.4856 0.081 0.0
C188 C 0.2181 0.48285 0.15147 0.0
C189 C 0.27122 0.49272 0.95142 0.0
C190 C 0.28935 0.49029 0.01375 0.0
C191 C 0.27106 0.48592 0.07739 0.0
C192 C 0.32792 0.49386 0.01433 0.0
C193 C 0.28877 0.49562 0.88084 0.0
C194 C 0.33649 0.46635 0.03236 0.0
C195 C 0.37292 0.46972 0.03171 0.0
C196 C 0.40143 0.50079 0.01352 0.0
C197 C 0.39272 0.52851 0.99685 0.0
C198 C 0.35636 0.52509 0.99744 0.0
H199 H 0.26783 0.48739 0.83623 0.0
H200 H 0.30792 0.52327 0.87658 0.0
H201 H 0.30479 0.47942 0.87532 0.0
H202 H 0.31493 0.44212 0.04603 0.0
H203 H 0.37863 0.44789 0.04508 0.0
H204 H 0.66075 0.10802 0.88251 0.0
H205 H 0.71992 0.1593 0.88105 0.0
H206 H 0.72433 0.17367 0.1089 0.0
H207 H 0.66613 0.12233 0.11063 0.0
H208 H 0.7347 0.22618 0.92999 0.0
H209 H 0.82712 0.18267 0.07412 0.0
H210 H 0.78171 0.15274 0.03957 0.0
H211 H 0.78743 0.17866 0.12265 0.0
C212 C 0.67476 0.12184 0.93217 0.0
C213 C 0.65902 0.11114 0.99665 0.0
C214 C 0.70846 0.15112 0.93133 0.0
C215 C 0.72694 0.17 0.99495 0.0
C216 C 0.71123 0.15904 0.05925 0.0
H217 H 0.9047 0.37259 0.11876 0.0
H218 H 0.8527 0.31474 0.11483 0.0
C219 C 0.67778 0.12979 0.06012 0.0
C220 C 0.76116 0.20261 0.99448 0.0
H221 H 0.84962 0.24433 0.06413 0.0
C222 C 0.75996 0.22997 0.95856 0.0
C223 C 0.79409 0.20764 0.03212 0.0
C224 C 0.79784 0.17873 0.06869 0.0
C225 C 0.79039 0.26247 0.96088 0.0
C226 C 0.823 0.26767 0.99964 0.0
C227 C 0.82445 0.24028 0.0349 0.0
C228 C 0.85592 0.30141 1.00344 0.0
C229 C 0.78719 0.29137 0.92334 0.0
C230 C 0.87538 0.31254 0.94261 0.0
C231 C 0.90499 0.34532 0.94481 0.0
C232 C 0.91571 0.36755 0.00793 0.0
C233 C 0.89699 0.35594 0.06947 0.0
C234 C 0.86735 0.32299 0.06726 0.0
H235 H 0.75811 0.28551 0.90805 0.0
H236 H 0.79907 0.31654 0.95727 0.0
H237 H 0.8029 0.29474 0.87455 0.0
H238 H 0.86725 0.29607 0.89311 0.0
H239 H 0.91899 0.35356 0.8966 0.0
H240 H 0.47279 0.88532 0.99554 0.0
H241 H 0.48132 0.83114 0.98666 0.0
H242 H 0.59503 0.88771 0.93893 0.0
H243 H 0.58678 0.94245 0.94721 0.0
H244 H 0.55616 0.82273 0.85201 0.0
H245 H 0.54002 0.80727 0.13845 0.0
H246 H 0.50312 0.81368 0.09601 0.0
H247 H 0.5489 0.84806 0.10199 0.0
C248 C 0.49967 0.88642 0.98292 0.0
C249 C 0.52921 0.9184 0.97266 0.0
C250 C 0.50448 0.85535 0.97811 0.0
C251 C 0.53893 0.85551 0.96327 0.0
C252 C 0.56826 0.88711 0.95083 0.0
H253 H 0.58895 0.67877 0.04301 0.0
H254 H 0.59265 0.7378 0.03569 0.0
C255 C 0.56349 0.91835 0.95569 0.0
C256 C 0.54417 0.82263 0.96222 0.0
H257 H 0.53788 0.75792 0.06505 0.0
C258 C 0.55249 0.80864 0.89863 0.0
C259 C 0.53987 0.80459 0.02338 0.0
C260 C 0.53283 0.81927 0.09404 0.0
C261 C 0.55542 0.7764 0.89408 0.0
C262 C 0.54938 0.75757 0.95452 0.0
C263 C 0.54221 0.77219 0.01856 0.0
C264 C 0.54976 0.72242 0.95291 0.0
C265 C 0.56517 0.76294 0.82482 0.0
C266 C 0.52466 0.69414 0.9083 0.0
C267 C 0.52266 0.66037 0.91214 0.0
C268 C 0.54544 0.65431 0.96121 0.0
C269 C 0.57108 0.68271 1.00464 0.0
C270 C 0.5732 0.71643 1.00056 0.0
H271 H 0.57934 0.78446 0.79102 0.0
H272 H 0.5832 0.74923 0.83348 0.0
H273 H 0.53952 0.74411 0.79562 0.0
H274 H 0.50572 0.69794 0.87226 0.0
H275 H 0.50246 0.63888 0.87843 0.0
H276 H 0.93466 0.57691 0.95659 0.0
H277 H 0.8758 0.58257 0.95588 0.0
H278 H 0.82066 0.47739 0.01494 0.0
H279 H 0.87892 0.47142 0.01604 0.0
H280 H 0.80706 0.53821 0.87577 0.0
H281 H 0.7931 0.53866 0.16602 0.0
H282 H 0.83646 0.5476 0.12537 0.0
H283 H 0.80273 0.50332 0.12634 0.0
C284 C 0.91001 0.55497 0.96938 0.0
C285 C 0.9116 0.52377 0.98674 0.0
C286 C 0.87644 0.55827 0.96888 0.0
C287 C 0.84407 0.53058 0.98639 0.0
C288 C 0.84547 0.49926 1.00244 0.0
H289 H 0.61401 0.47385 0.0267 0.0
H290 H 0.6773 0.47931 0.02307 0.0
C291 C 0.87885 0.49588 1.00269 0.0
C292 C 0.80855 0.53396 0.9877 0.0
H293 H 0.73946 0.52979 0.09627 0.0
C294 C 0.79239 0.53683 0.92399 0.0
C295 C 0.78964 0.5322 0.05082 0.0
C296 C 0.80645 0.53059 0.1212 0.0
C297 C 0.75691 0.53633 0.9212 0.0
C298 C 0.73753 0.53351 0.98408 0.0
C299 C 0.75428 0.53177 0.04809 0.0
C300 C 0.69914 0.53051 0.98439 0.0
C301 C 0.73986 0.53731 0.85062 0.0
C302 C 0.69041 0.55761 0.96417 0.0
C303 C 0.65409 0.55454 0.96592 0.0
C304 C 0.62594 0.5244 0.98848 0.0
C305 C 0.63492 0.49742 0.00899 0.0
C306 C 0.67113 0.50049 0.00704 0.0
H307 H 0.7549 0.53166 0.80583 0.0
H308 H 0.71059 0.51811 0.84485 0.0
H309 H 0.74068 0.56375 0.84697 0.0
H310 H 0.71174 0.58131 0.94785 0.0
H311 H 0.64819 0.5759 0.95019 0.0
H312 H 0.12668 0.65718 0.1171 0.0
H313 H 0.17749 0.715 0.1184 0.0
H314 H 0.15539 0.71661 0.89647 0.0
H315 H 0.1042 0.65826 0.89468 0.0
H316 H 0.24004 0.73045 0.02614 0.0
H317 H 0.16315 0.81325 0.99591 0.0
H318 H 0.14214 0.77057 0.02826 0.0
H319 H 0.15031 0.77428 0.93605 0.0
C320 C 0.13236 0.66994 0.06863 0.0
C321 C 0.11151 0.65328 1.00573 0.0
C322 C 0.16141 0.70295 0.06952 0.0
C323 C 0.16999 0.72012 0.00774 0.0
C324 C 0.14885 0.70389 0.94491 0.0
H325 H 0.34501 0.91769 0.92092 0.0
H326 H 0.28844 0.86398 0.91838 0.0
C327 C 0.11977 0.67062 0.94388 0.0
C328 C 0.20241 0.75413 0.00895 0.0
H329 H 0.22813 0.84163 1.00077 0.0
C330 C 0.23751 0.7548 0.0206 0.0
C331 C 0.19889 0.78569 1.00138 0.0
C332 C 0.16164 0.78625 0.99009 0.0
C333 C 0.26934 0.78624 0.02446 0.0
C334 C 0.26586 0.81803 0.01846 0.0
C335 C 0.23072 0.81729 1.006 0.0
C336 C 0.29854 0.85212 0.02306 0.0
C337 C 0.30644 0.78498 0.03331 0.0
C338 C 0.32241 0.86393 0.08371 0.0
C339 C 0.35488 0.89456 0.08516 0.0
C340 C 0.36373 0.91403 0.02625 0.0
C341 C 0.33889 0.90313 0.96706 0.0
C342 C 0.30657 0.87246 0.96551 0.0
H343 H 0.30493 0.7584 0.01785 0.0
H344 H 0.32714 0.80379 1.00117 0.0
H345 H 0.3162 0.79204 0.08967 0.0
H346 H 0.31631 0.84907 0.12939 0.0
H347 H 0.37348 0.90248 0.13155 0.0
H348 H 0.48288 0.35577 0.92402 0.0
H349 H 0.47757 0.29705 0.9399 0.0
H350 H 0.47579 0.31759 0.16569 0.0
H351 H 0.48178 0.37698 0.14999 0.0
H352 H 0.5241 0.2891 0.12966 0.0
H353 H 0.38993 0.21077 0.98716 0.0
H354 H 0.42092 0.2424 0.93392 0.0
H355 H 0.40534 0.25688 0.01387 0.0
C356 C 0.48097 0.34768 0.97704 0.0
C357 C 0.48263 0.37085 0.0358 0.0
C358 C 0.47764 0.31399 0.986 0.0
C359 C 0.47553 0.30262 0.05386 0.0
C360 C 0.47702 0.3257 0.11279 0.0
H361 H 0.43944 0.08365 0.08704 0.0
H362 H 0.4321 0.13877 0.10236 0.0
C363 C 0.48041 0.35956 0.10381 0.0
C364 C 0.4744 0.26754 0.06286 0.0
H365 H 0.4298 0.18127 1.00193 0.0
C366 C 0.50314 0.26545 0.10269 0.0
C367 C 0.44674 0.23654 0.02867 0.0
C368 C 0.41378 0.23667 0.98915 0.0
C369 C 0.5061 0.23353 0.10593 0.0
C370 C 0.48002 0.20303 0.06722 0.0
C371 C 0.4501 0.20474 0.03077 0.0
C372 C 0.48463 0.16973 0.06017 0.0
C373 C 0.53743 0.23291 0.15016 0.0
C374 C 0.5163 0.16875 0.03046 0.0
C375 C 0.52061 0.13746 0.02176 0.0
C376 C 0.49313 0.10628 0.04196 0.0
C377 C 0.46119 0.10719 0.07113 0.0
C378 C 0.45694 0.13865 0.07994 0.0
H379 H 0.54714 0.25454 0.19333 0.0
H380 H 0.52919 0.20768 0.17378 0.0
H381 H 0.56097 0.23635 0.11624 0.0
H382 H 0.53758 0.19219 0.01305 0.0
H383 H 0.54545 0.13777 0.9986 0.0
loop_
_geom_bond_atom_site_label_1
_geom_bond_atom_site_label_2
_geom_bond_distance
_geom_bond_site_symmetry_2
_ccdc_geom_bond_type
Dy0 O4 2.398 . S
Dy0 O5 2.491 1_556 S
Dy0 O6 2.403 . S
Dy0 O7 2.664 1_655 S
Dy0 O11 2.326 . S
Dy0 O15 2.310 1_556 S
Dy0 O16 2.351 1_655 S
C1 O12 1.185 . S
C1 O13 1.355 1_554 S
C2 O4 1.185 . S
C2 O5 1.355 1_556 S
Dy3 O7 2.310 1_554 S
Dy3 O10 2.351 1_455 S
Dy3 O12 2.398 . S
Dy3 O13 2.491 1_554 S
Dy3 O14 2.403 . S
Dy3 O15 2.664 1_455 S
Dy3 O17 2.326 . S
O4 Dy0 2.398 . S
O4 C2 1.185 . S
O5 Dy0 2.491 1_554 S
O5 C2 1.355 1_554 S
O6 Dy0 2.403 . S
O6 C8 1.254 . S
O7 Dy0 2.664 1_455 S
O7 Dy3 2.310 1_556 S
O7 C8 1.268 1_455 S
C8 O6 1.254 . S
C8 O7 1.268 1_655 S
C9 O14 1.254 . S
C9 O15 1.268 1_455 S
O10 Dy3 2.351 1_655 S
O10 C18 1.249 1_554 S
O11 Dy0 2.326 . S
O11 C18 1.267 . S
O12 C1 1.185 . S
O12 Dy3 2.398 . S
O13 C1 1.355 1_556 S
O13 Dy3 2.491 1_556 S
O14 Dy3 2.403 . S
O14 C9 1.254 . S
O15 Dy0 2.310 1_554 S
O15 Dy3 2.664 1_655 S
O15 C9 1.268 1_655 S
O16 Dy0 2.351 1_455 S
O16 C19 1.249 1_556 S
O17 Dy3 2.326 . S
O17 C19 1.267 . S
C18 O10 1.249 1_556 S
C18 O11 1.267 . S
C19 O16 1.249 1_554 S
C19 O17 1.267 . S
Dy20 O24 2.398 . S
Dy20 O25 2.491 1_554 S
Dy20 O26 2.403 . S
Dy20 O27 2.664 1_545 S
Dy20 O31 2.326 . S
Dy20 O35 2.310 1_554 S
Dy20 O36 2.351 1_545 S
C21 O32 1.185 . S
C21 O33 1.355 1_556 S
C22 O24 1.185 . S
C22 O25 1.355 1_554 S
Dy23 O27 2.310 1_556 S
Dy23 O30 2.351 1_565 S
Dy23 O32 2.398 . S
Dy23 O33 2.491 1_556 S
Dy23 O34 2.403 . S
Dy23 O35 2.664 1_565 S
Dy23 O37 2.326 . S
O24 Dy20 2.398 . S
O24 C22 1.185 . S
O25 Dy20 2.491 1_556 S
O25 C22 1.355 1_556 S
O26 Dy20 2.403 . S
O26 C28 1.254 . S
O27 Dy20 2.664 1_565 S
O27 Dy23 2.310 1_554 S
O27 C28 1.268 1_565 S
C28 O26 1.254 . S
C28 O27 1.268 1_545 S
C29 O34 1.254 . S
C29 O35 1.268 1_565 S
O30 Dy23 2.351 1_545 S
O30 C38 1.249 1_556 S
O31 Dy20 2.326 . S
O31 C38 1.267 . S
O32 C21 1.185 . S
O32 Dy23 2.398 . S
O33 C21 1.355 1_554 S
O33 Dy23 2.491 1_554 S
O34 Dy23 2.403 . S
O34 C29 1.254 . S
O35 Dy20 2.310 1_556 S
O35 Dy23 2.664 1_545 S
O35 C29 1.268 1_545 S
O36 Dy20 2.351 1_565 S
O36 C39 1.249 1_554 S
O37 Dy23 2.326 . S
O37 C39 1.267 . S
C38 O30 1.249 1_554 S
C38 O31 1.267 . S
C39 O36 1.249 1_556 S
C39 O37 1.267 . S
Dy40 O44 2.398 . S
Dy40 O45 2.491 1_554 S
Dy40 O46 2.403 . S
Dy40 O47 2.664 . S
Dy40 O51 2.326 . S
Dy40 O55 2.310 1_554 S
Dy40 O56 2.351 . S
C41 O52 1.185 . S
C41 O53 1.355 1_556 S
C42 O44 1.185 . S
C42 O45 1.355 1_554 S
Dy43 O47 2.310 1_556 S
Dy43 O50 2.351 . S
Dy43 O52 2.398 . S
Dy43 O53 2.491 1_556 S
Dy43 O54 2.403 . S
Dy43 O55 2.664 . S
Dy43 O57 2.326 . S
O44 Dy40 2.398 . S
O44 C42 1.185 . S
O45 Dy40 2.491 1_556 S
O45 C42 1.355 1_556 S
O46 Dy40 2.403 . S
O46 C48 1.254 . S
O47 Dy40 2.664 . S
O47 Dy43 2.310 1_554 S
O47 C48 1.268 . S
C48 O46 1.254 . S
C48 O47 1.268 . S
C49 O54 1.254 . S
C49 O55 1.268 . S
O50 Dy43 2.351 . S
O50 C58 1.249 1_556 S
O51 Dy40 2.326 . S
O51 C58 1.267 . S
O52 C41 1.185 . S
O52 Dy43 2.398 . S
O53 C41 1.355 1_554 S
O53 Dy43 2.491 1_554 S
O54 Dy43 2.403 . S
O54 C49 1.254 . S
O55 Dy40 2.310 1_556 S
O55 Dy43 2.664 . S
O55 C49 1.268 . S
O56 Dy40 2.351 . S
O56 C59 1.249 1_554 S
O57 Dy43 2.326 . S
O57 C59 1.267 . S
C58 O50 1.249 1_554 S
C58 O51 1.267 . S
C59 O56 1.249 1_556 S
C59 O57 1.267 . S
H60 C68 0.929 . S
H61 C70 0.930 . S
H62 C72 0.930 . S
H63 C75 0.929 . S
H64 C78 0.930 . S
H65 C80 0.960 . S
H66 C80 0.960 . S
H67 C80 0.960 . S
C68 H60 0.929 . S
C68 C69 1.377 . S
C68 C70 1.384 . S
C69 C68 1.377 . S
C69 C75 1.390 1_455 S
C70 H61 0.930 . S
C70 C68 1.384 . S
C70 C71 1.372 . S
C71 C70 1.372 . S
C71 C72 1.400 1_455 S
C71 C76 1.490 . S
C72 H62 0.930 . S
C72 C71 1.400 1_655 S
C72 C75 1.386 . S
H73 C89 0.930 . S
H74 C90 0.931 . S
C75 H63 0.929 . S
C75 C69 1.390 1_655 S
C75 C72 1.386 . S
C76 C71 1.490 . S
C76 C78 1.395 1_455 S
C76 C79 1.403 . S
H77 C83 0.930 . S
C78 H64 0.930 . S
C78 C76 1.395 1_655 S
C78 C81 1.403 . S
C79 C76 1.403 . S
C79 C80 1.524 . S
C79 C83 1.400 . S
C80 H65 0.960 . S
C80 H66 0.960 . S
C80 H67 0.960 . S
C80 C79 1.524 . S
C81 C78 1.403 . S
C81 C82 1.392 . S
C81 C85 1.495 . S
C82 C81 1.392 . S
C82 C83 1.385 1_655 S
C82 C84 1.478 . S
C83 H77 0.930 . S
C83 C79 1.400 . S
C83 C82 1.385 1_455 S
C84 C82 1.478 . S
C84 C86 1.381 1_655 S
C84 C90 1.383 . S
C85 C81 1.495 . S
C85 H91 0.959 . S
C85 H92 0.961 . S
C85 H93 0.960 . S
C86 C84 1.381 1_455 S
C86 C87 1.394 . S
C86 H94 0.930 . S
C87 C86 1.394 . S
C87 C88 1.383 1_455 S
C87 H95 0.929 . S
C88 C87 1.383 1_655 S
C88 C89 1.377 . S
C89 H73 0.930 . S
C89 C88 1.377 . S
C89 C90 1.379 . S
C90 H74 0.931 . S
C90 C84 1.383 . S
C90 C89 1.379 . S
H91 C85 0.959 . S
H92 C85 0.961 . S
H93 C85 0.960 . S
H94 C86 0.930 . S
H95 C87 0.929 . S
H96 C104 0.929 . S
H97 C106 0.930 . S
H98 C108 0.930 . S
H99 C111 0.929 . S
H100 C114 0.930 . S
H101 C116 0.960 . S
H102 C116 0.960 . S
H103 C116 0.960 . S
C104 H96 0.929 . S
C104 C105 1.377 . S
C104 C106 1.384 . S
C105 C104 1.377 . S
C105 C111 1.390 1_545 S
C106 H97 0.930 . S
C106 C104 1.384 . S
C106 C107 1.372 . S
C107 C106 1.372 . S
C107 C108 1.400 1_545 S
C107 C112 1.490 . S
C108 H98 0.930 . S
C108 C107 1.400 1_565 S
C108 C111 1.386 . S
H109 C125 0.929 1_565 S
H110 C126 0.931 . S
C111 H99 0.929 . S
C111 C105 1.390 1_565 S
C111 C108 1.386 . S
C112 C107 1.490 . S
C112 C114 1.395 . S
C112 C115 1.403 1_545 S
H113 C119 0.930 . S
C114 H100 0.930 . S
C114 C112 1.395 . S
C114 C117 1.403 . S
C115 C112 1.403 1_565 S
C115 C116 1.524 . S
C115 C119 1.400 . S
C116 H101 0.960 . S
C116 H102 0.960 . S
C116 H103 0.960 . S
C116 C115 1.524 . S
C117 C114 1.403 . S
C117 C118 1.392 . S
C117 C121 1.495 . S
C118 C117 1.392 . S
C118 C119 1.385 1_545 S
C118 C120 1.478 . S
C119 H113 0.930 . S
C119 C115 1.400 . S
C119 C118 1.385 1_565 S
C120 C118 1.478 . S
C120 C122 1.381 . S
C120 C126 1.383 . S
C121 C117 1.495 . S
C121 H127 0.959 . S
C121 H128 0.961 . S
C121 H129 0.960 . S
C122 C120 1.381 . S
C122 C123 1.394 . S
C122 H130 0.930 . S
C123 C122 1.394 . S
C123 C124 1.383 . S
C123 H131 0.929 . S
C124 C123 1.383 . S
C124 C125 1.377 . S
C125 H109 0.929 1_545 S
C125 C124 1.377 . S
C125 C126 1.379 . S
C126 H110 0.931 . S
C126 C120 1.383 . S
C126 C125 1.379 . S
H127 C121 0.959 . S
H128 C121 0.961 . S
H129 C121 0.960 . S
H130 C122 0.930 . S
H131 C123 0.929 . S
H132 C140 0.929 . S
H133 C142 0.930 . S
H134 C144 0.930 . S
H135 C147 0.929 . S
H136 C150 0.930 . S
H137 C152 0.960 . S
H138 C152 0.960 . S
H139 C152 0.960 . S
C140 H132 0.929 . S
C140 C141 1.377 . S
C140 C142 1.384 . S
C141 C140 1.377 . S
C141 C147 1.390 . S
C142 H133 0.930 . S
C142 C140 1.384 . S
C142 C143 1.372 . S
C143 C142 1.372 . S
C143 C144 1.400 . S
C143 C148 1.490 . S
C144 H134 0.930 . S
C144 C143 1.400 . S
C144 C147 1.386 . S
H145 C161 0.930 . S
H146 C162 0.931 . S
C147 H135 0.929 . S
C147 C141 1.390 . S
C147 C144 1.386 . S
C148 C143 1.490 . S
C148 C150 1.395 . S
C148 C151 1.403 . S
H149 C155 0.930 . S
C150 H136 0.930 . S
C150 C148 1.395 . S
C150 C153 1.403 . S
C151 C148 1.403 . S
C151 C152 1.524 . S
C151 C155 1.400 . S
C152 H137 0.960 . S
C152 H138 0.960 . S
C152 H139 0.960 . S
C152 C151 1.524 . S
C153 C150 1.403 . S
C153 C154 1.392 . S
C153 C157 1.495 . S
C154 C153 1.392 . S
C154 C155 1.385 . S
C154 C156 1.478 . S
C155 H149 0.930 . S
C155 C151 1.400 . S
C155 C154 1.385 . S
C156 C154 1.478 . S
C156 C158 1.381 . S
C156 C162 1.383 . S
C157 C153 1.495 . S
C157 H163 0.959 . S
C157 H164 0.961 . S
C157 H165 0.960 . S
C158 C156 1.381 . S
C158 C159 1.394 . S
C158 H166 0.930 . S
C159 C158 1.394 . S
C159 C160 1.383 . S
C159 H167 0.929 . S
C160 C159 1.383 . S
C160 C161 1.377 . S
C161 H145 0.930 . S
C161 C160 1.377 . S
C161 C162 1.379 . S
C162 H146 0.931 . S
C162 C156 1.383 . S
C162 C161 1.379 . S
H163 C157 0.959 . S
H164 C157 0.961 . S
H165 C157 0.960 . S
H166 C158 0.930 . S
H167 C159 0.929 . S
H168 C176 0.929 . S
H169 C178 0.930 . S
H170 C180 0.930 . S
H171 C183 0.929 . S
H172 C186 0.930 . S
H173 C188 0.960 . S
H174 C188 0.960 . S
H175 C188 0.960 . S
C176 H168 0.929 . S
C176 C177 1.377 . S
C176 C178 1.384 . S
C177 C176 1.377 . S
C177 C183 1.390 1_556 S
C178 H169 0.930 . S
C178 C176 1.384 . S
C178 C179 1.372 . S
C179 C178 1.372 . S
C179 C180 1.400 1_556 S
C179 C184 1.490 . S
C180 H170 0.930 . S
C180 C179 1.400 1_554 S
C180 C183 1.386 . S
H181 C197 0.930 . S
H182 C198 0.931 . S
C183 H171 0.929 . S
C183 C177 1.390 1_554 S
C183 C180 1.386 . S
C184 C179 1.490 . S
C184 C186 1.395 . S
C184 C187 1.403 1_556 S
H185 C191 0.930 . S
C186 H172 0.930 . S
C186 C184 1.395 . S
C186 C189 1.403 . S
C187 C184 1.403 1_554 S
C187 C188 1.524 . S
C187 C191 1.400 . S
C188 H173 0.960 . S
C188 H174 0.960 . S
C188 H175 0.960 . S
C188 C187 1.524 . S
C189 C186 1.403 . S
C189 C190 1.392 . S
C189 C193 1.495 . S
C190 C189 1.392 . S
C190 C191 1.385 1_556 S
C190 C192 1.478 . S
C191 H185 0.930 . S
C191 C187 1.400 . S
C191 C190 1.385 1_554 S
C192 C190 1.478 . S
C192 C194 1.381 . S
C192 C198 1.383 1_556 S
C193 C189 1.495 . S
C193 H199 0.959 . S
C193 H200 0.961 . S
C193 H201 0.960 . S
C194 C192 1.381 . S
C194 C195 1.394 . S
C194 H202 0.930 . S
C195 C194 1.394 . S
C195 C196 1.383 . S
C195 H203 0.929 . S
C196 C195 1.383 . S
C196 C197 1.377 1_556 S
C197 H181 0.930 . S
C197 C196 1.377 1_554 S
C197 C198 1.379 . S
C198 H182 0.931 . S
C198 C192 1.383 1_554 S
C198 C197 1.379 . S
H199 C193 0.959 . S
H200 C193 0.961 . S
H201 C193 0.960 . S
H202 C194 0.930 . S
H203 C195 0.929 . S
H204 C212 0.929 . S
H205 C214 0.930 . S
H206 C216 0.930 . S
H207 C219 0.929 . S
H208 C222 0.930 . S
H209 C224 0.960 . S
H210 C224 0.960 . S
H211 C224 0.960 . S
C212 H204 0.929 . S
C212 C213 1.377 . S
C212 C214 1.384 . S
C213 C212 1.377 . S
C213 C219 1.390 1_556 S
C214 H205 0.930 . S
C214 C212 1.384 . S
C214 C215 1.372 . S
C215 C214 1.372 . S
C215 C216 1.400 1_556 S
C215 C220 1.490 . S
C216 H206 0.930 . S
C216 C215 1.400 1_554 S
C216 C219 1.386 . S
H217 C233 0.930 . S
H218 C234 0.931 . S
C219 H207 0.929 . S
C219 C213 1.390 1_554 S
C219 C216 1.386 . S
C220 C215 1.490 . S
C220 C222 1.395 . S
C220 C223 1.403 1_556 S
H221 C227 0.930 . S
C222 H208 0.930 . S
C222 C220 1.395 . S
C222 C225 1.403 . S
C223 C220 1.403 1_554 S
C223 C224 1.524 . S
C223 C227 1.400 . S
C224 H209 0.960 . S
C224 H210 0.960 . S
C224 H211 0.960 . S
C224 C223 1.524 . S
C225 C222 1.403 . S
C225 C226 1.392 . S
C225 C229 1.495 . S
C226 C225 1.392 . S
C226 C227 1.385 1_556 S
C226 C228 1.478 . S
C227 H221 0.930 . S
C227 C223 1.400 . S
C227 C226 1.385 1_554 S
C228 C226 1.478 . S
C228 C230 1.381 . S
C228 C234 1.383 1_556 S
C229 C225 1.495 . S
C229 H235 0.959 . S
C229 H236 0.961 . S
C229 H237 0.960 . S
C230 C228 1.381 . S
C230 C231 1.394 . S
C230 H238 0.930 . S
C231 C230 1.394 . S
C231 C232 1.383 . S
C231 H239 0.929 . S
C232 C231 1.383 . S
C232 C233 1.377 1_556 S
C233 H217 0.930 . S
C233 C232 1.377 1_554 S
C233 C234 1.379 . S
C234 H218 0.931 . S
C234 C228 1.383 1_554 S
C234 C233 1.379 . S
H235 C229 0.959 . S
H236 C229 0.961 . S
H237 C229 0.960 . S
H238 C230 0.930 . S
H239 C231 0.929 . S
H240 C248 0.929 . S
H241 C250 0.930 . S
H242 C252 0.930 . S
H243 C255 0.929 . S
H244 C258 0.930 . S
H245 C260 0.960 . S
H246 C260 0.960 . S
H247 C260 0.960 . S
C248 H240 0.929 . S
C248 C249 1.377 1_554 S
C248 C250 1.384 . S
C249 C248 1.377 1_556 S
C249 C255 1.390 . S
C250 H241 0.930 . S
C250 C248 1.384 . S
C250 C251 1.374 . S
C251 C250 1.374 . S
C251 C252 1.397 1_554 S
C251 C256 1.492 1_554 S
C252 H242 0.930 . S
C252 C251 1.397 1_556 S
C252 C255 1.386 . S
H253 C269 0.930 . S
H254 C270 0.931 . S
C255 H243 0.929 . S
C255 C249 1.390 . S
C255 C252 1.386 . S
C256 C251 1.492 1_556 S
C256 C258 1.404 . S
C256 C259 1.392 1_556 S
H257 C263 0.930 . S
C258 H244 0.930 . S
C258 C256 1.404 . S
C258 C261 1.403 . S
C259 C256 1.392 1_554 S
C259 C260 1.524 . S
C259 C263 1.400 . S
C260 H245 0.960 . S
C260 H246 0.960 . S
C260 H247 0.960 . S
C260 C259 1.524 . S
C261 C258 1.403 . S
C261 C262 1.392 . S
C261 C265 1.495 . S
C262 C261 1.392 . S
C262 C263 1.385 1_556 S
C262 C264 1.478 . S
C263 H257 0.930 . S
C263 C259 1.400 . S
C263 C262 1.385 1_554 S
C264 C262 1.478 . S
C264 C266 1.381 1_556 S
C264 C270 1.383 . S
C265 C261 1.495 . S
C265 H271 0.959 . S
C265 H272 0.961 . S
C265 H273 0.960 . S
C266 C264 1.381 1_554 S
C266 C267 1.394 . S
C266 H274 0.930 . S
C267 C266 1.394 . S
C267 C268 1.383 1_554 S
C267 H275 0.929 . S
C268 C267 1.383 1_556 S
C268 C269 1.377 . S
C269 H253 0.930 . S
C269 C268 1.377 . S
C269 C270 1.379 . S
C270 H254 0.931 . S
C270 C264 1.383 . S
C270 C269 1.379 . S
H271 C265 0.959 . S
H272 C265 0.961 . S
H273 C265 0.960 . S
H274 C266 0.930 . S
H275 C267 0.929 . S
H276 C284 0.929 . S
H277 C286 0.930 . S
H278 C288 0.930 . S
H279 C291 0.929 . S
H280 C294 0.930 . S
H281 C296 0.960 . S
H282 C296 0.960 . S
H283 C296 0.960 . S
C284 H276 0.929 . S
C284 C285 1.377 1_556 S
C284 C286 1.384 . S
C285 C284 1.377 1_554 S
C285 C291 1.390 . S
C286 H277 0.930 . S
C286 C284 1.384 . S
C286 C287 1.372 1_556 S
C287 C286 1.372 1_554 S
C287 C288 1.400 . S
C287 C292 1.490 . S
C288 H278 0.930 . S
C288 C287 1.400 . S
C288 C291 1.386 . S
H289 C305 0.930 . S
H290 C306 0.931 . S
C291 H279 0.929 . S
C291 C285 1.390 . S
C291 C288 1.386 . S
C292 C287 1.490 . S
C292 C294 1.385 1_554 S
C292 C295 1.412 . S
H293 C299 0.930 . S
C294 H280 0.930 . S
C294 C292 1.385 1_556 S
C294 C297 1.403 . S
C295 C292 1.412 . S
C295 C296 1.524 . S
C295 C299 1.400 . S
C296 H281 0.960 . S
C296 H282 0.960 . S
C296 H283 0.960 . S
C296 C295 1.524 . S
C297 C294 1.403 . S
C297 C298 1.392 . S
C297 C301 1.495 . S
C298 C297 1.392 . S
C298 C299 1.385 1_556 S
C298 C300 1.478 . S
C299 H293 0.930 . S
C299 C295 1.400 . S
C299 C298 1.385 1_554 S
C300 C298 1.478 . S
C300 C302 1.381 . S
C300 C306 1.383 1_556 S
C301 C297 1.495 . S
C301 H307 0.959 . S
C301 H308 0.961 . S
C301 H309 0.960 . S
C302 C300 1.381 . S
C302 C303 1.394 . S
C302 H310 0.930 . S
C303 C302 1.394 . S
C303 C304 1.383 . S
C303 H311 0.929 . S
C304 C303 1.383 . S
C304 C305 1.377 1_556 S
C305 H289 0.930 . S
C305 C304 1.377 1_554 S
C305 C306 1.379 . S
C306 H290 0.931 . S
C306 C300 1.383 1_554 S
C306 C305 1.379 . S
H307 C301 0.959 . S
H308 C301 0.961 . S
H309 C301 0.960 . S
H310 C302 0.930 . S
H311 C303 0.929 . S
H312 C320 0.929 . S
H313 C322 0.930 . S
H314 C324 0.930 . S
H315 C327 0.929 . S
H316 C330 0.930 . S
H317 C332 0.960 . S
H318 C332 0.960 . S
H319 C332 0.960 . S
C320 H312 0.929 . S
C320 C321 1.377 . S
C320 C322 1.384 . S
C321 C320 1.377 . S
C321 C327 1.390 1_554 S
C322 H313 0.930 . S
C322 C320 1.384 . S
C322 C323 1.372 . S
C323 C322 1.372 . S
C323 C324 1.400 1_554 S
C323 C328 1.490 . S
C324 H314 0.930 . S
C324 C323 1.400 1_556 S
C324 C327 1.386 . S
H325 C341 0.930 . S
H326 C342 0.931 . S
C327 H315 0.929 . S
C327 C321 1.390 1_556 S
C327 C324 1.386 . S
C328 C323 1.490 . S
C328 C330 1.395 1_554 S
C328 C331 1.403 . S
H329 C335 0.930 . S
C330 H316 0.930 . S
C330 C328 1.395 1_556 S
C330 C333 1.403 . S
C331 C328 1.403 . S
C331 C332 1.524 . S
C331 C335 1.400 . S
C332 H317 0.960 . S
C332 H318 0.960 . S
C332 H319 0.960 . S
C332 C331 1.524 . S
C333 C330 1.403 . S
C333 C334 1.392 . S
C333 C337 1.495 . S
C334 C333 1.392 . S
C334 C335 1.385 1_556 S
C334 C336 1.478 . S
C335 H329 0.930 . S
C335 C331 1.400 . S
C335 C334 1.385 1_554 S
C336 C334 1.478 . S
C336 C338 1.381 1_556 S
C336 C342 1.383 . S
C337 C333 1.495 . S
C337 H343 0.959 . S
C337 H344 0.961 . S
C337 H345 0.960 . S
C338 C336 1.381 1_554 S
C338 C339 1.394 . S
C338 H346 0.930 . S
C339 C338 1.394 . S
C339 C340 1.383 1_554 S
C339 H347 0.929 . S
C340 C339 1.383 1_556 S
C340 C341 1.377 . S
C341 H325 0.930 . S
C341 C340 1.377 . S
C341 C342 1.379 . S
C342 H326 0.931 . S
C342 C336 1.383 . S
C342 C341 1.379 . S
H343 C337 0.959 . S
H344 C337 0.961 . S
H345 C337 0.960 . S
H346 C338 0.930 . S
H347 C339 0.929 . S
H348 C356 0.929 . S
H349 C358 0.930 . S
H350 C360 0.930 . S
H351 C363 0.929 . S
H352 C366 0.930 . S
H353 C368 0.960 . S
H354 C368 0.960 . S
H355 C368 0.960 . S
C356 H348 0.929 . S
C356 C357 1.377 . S
C356 C358 1.384 . S
C357 C356 1.377 . S
C357 C363 1.390 1_556 S
C358 H349 0.930 . S
C358 C356 1.384 . S
C358 C359 1.372 . S
C359 C358 1.372 . S
C359 C360 1.400 1_556 S
C359 C364 1.490 . S
C360 H350 0.930 . S
C360 C359 1.400 1_554 S
C360 C363 1.386 . S
H361 C377 0.930 . S
H362 C378 0.931 . S
C363 H351 0.929 . S
C363 C357 1.390 1_554 S
C363 C360 1.386 . S
C364 C359 1.490 . S
C364 C366 1.395 1_556 S
C364 C367 1.403 . S
H365 C371 0.930 . S
C366 H352 0.930 . S
C366 C364 1.395 1_554 S
C366 C369 1.403 . S
C367 C364 1.403 . S
C367 C368 1.524 . S
C367 C371 1.400 . S
C368 H353 0.960 . S
C368 H354 0.960 . S
C368 H355 0.960 . S
C368 C367 1.524 . S
C369 C366 1.403 . S
C369 C370 1.392 . S
C369 C373 1.495 . S
C370 C369 1.392 . S
C370 C371 1.385 1_554 S
C370 C372 1.478 . S
C371 H365 0.930 . S
C371 C367 1.400 . S
C371 C370 1.385 1_556 S
C372 C370 1.478 . S
C372 C374 1.381 1_554 S
C372 C378 1.383 . S
C373 C369 1.495 . S
C373 H379 0.959 . S
C373 H380 0.961 . S
C373 H381 0.960 . S
C374 C372 1.381 1_556 S
C374 C375 1.394 . S
C374 H382 0.930 . S
C375 C374 1.394 . S
C375 C376 1.383 1_556 S
C375 H383 0.929 . S
C376 C375 1.383 1_554 S
C376 C377 1.377 . S
C377 H361 0.930 . S
C377 C376 1.377 . S
C377 C378 1.379 . S
C378 H362 0.931 . S
C378 C372 1.383 . S
C378 C377 1.379 . S
H379 C373 0.959 . S
H380 C373 0.961 . S
H381 C373 0.960 . S
H382 C374 0.930 . S
H383 C375 0.929 . S
C69 C8 1.461 1_455 S
C88 C9 1.479 1_655 S
C105 C28 1.454 . S
C124 C29 1.467 1_545 S
C141 C49 1.464 . S
C160 C48 1.477 . S
C177 C19 1.767 1_556 S
C196 C58 1.771 1_556 S
C213 C22 1.231 1_556 S
C232 C2 1.234 . S
C249 C39 1.515 . S
C268 C42 1.502 1_556 S
C285 C18 1.767 1_554 S
C304 C59 1.750 . S
C321 C1 1.227 . S
C340 C21 1.241 . S
C357 C41 1.490 . S
C376 C38 1.504 . S
