# Generated by pormake.
# Topology uoh, (4)-cn, num edge types: 1
# Building blocks:
#     Node 0, Type 0, BuildingBlock: GALJAG_clean_sbu_0, # of connection points: 4
#     Node 1, Type 0, BuildingBlock: GALJAG_clean_sbu_0, # of connection points: 4
#     Node 2, Type 0, BuildingBlock: GALJAG_clean_sbu_0, # of connection points: 4
#     Node 3, Type 0, BuildingBlock: GALJAG_clean_sbu_0, # of connection points: 4
#     Node 4, Type 0, BuildingBlock: GALJAG_clean_sbu_0, # of connection points: 4
#     Node 5, Type 0, BuildingBlock: GALJAG_clean_sbu_0, # of connection points: 4
#     Node 6, Type 0, BuildingBlock: GALJAG_clean_sbu_0, # of connection points: 4
#     Node 7, Type 0, BuildingBlock: GALJAG_clean_sbu_0, # of connection points: 4
#     Node 8, Type 0, BuildingBlock: GALJAG_clean_sbu_0, # of connection points: 4
#     Node 9, Type 0, BuildingBlock: GALJAG_clean_sbu_0, # of connection points: 4
#     Node 10, Type 0, BuildingBlock: GALJAG_clean_sbu_0, # of connection points: 4
#     Node 11, Type 0, BuildingBlock: GALJAG_clean_sbu_0, # of connection points: 4
#     Node 12, Type 0, BuildingBlock: GALJAG_clean_sbu_0, # of connection points: 4
#     Node 13, Type 0, BuildingBlock: GALJAG_clean_sbu_0, # of connection points: 4
#     Node 14, Type 0, BuildingBlock: GALJAG_clean_sbu_0, # of connection points: 4
#     Node 15, Type 0, BuildingBlock: GALJAG_clean_sbu_0, # of connection points: 4
#     Node 16, Type 0, BuildingBlock: GALJAG_clean_sbu_0, # of connection points: 4
#     Node 17, Type 0, BuildingBlock: GALJAG_clean_sbu_0, # of connection points: 4
#     Node 18, Type 0, BuildingBlock: GALJAG_clean_sbu_0, # of connection points: 4
#     Node 19, Type 0, BuildingBlock: GALJAG_clean_sbu_0, # of connection points: 4
#     Node 20, Type 0, BuildingBlock: GALJAG_clean_sbu_0, # of connection points: 4
#     Node 21, Type 0, BuildingBlock: GALJAG_clean_sbu_0, # of connection points: 4
#     Node 22, Type 0, BuildingBlock: GALJAG_clean_sbu_0, # of connection points: 4
#     Node 23, Type 0, BuildingBlock: GALJAG_clean_sbu_0, # of connection points: 4
#     Node 24, Type 0, BuildingBlock: GALJAG_clean_sbu_0, # of connection points: 4
#     Node 25, Type 0, BuildingBlock: GALJAG_clean_sbu_0, # of connection points: 4
#     Node 26, Type 0, BuildingBlock: GALJAG_clean_sbu_0, # of connection points: 4
#     Node 27, Type 0, BuildingBlock: GALJAG_clean_sbu_0, # of connection points: 4
#     Node 28, Type 0, BuildingBlock: GALJAG_clean_sbu_0, # of connection points: 4
#     Node 29, Type 0, BuildingBlock: GALJAG_clean_sbu_0, # of connection points: 4
#     Node 30, Type 0, BuildingBlock: GALJAG_clean_sbu_0, # of connection points: 4
#     Node 31, Type 0, BuildingBlock: GALJAG_clean_sbu_0, # of connection points: 4
#     Node 32, Type 0, BuildingBlock: GALJAG_clean_sbu_0, # of connection points: 4
#     Node 33, Type 0, BuildingBlock: GALJAG_clean_sbu_0, # of connection points: 4
#     Node 34, Type 0, BuildingBlock: GALJAG_clean_sbu_0, # of connection points: 4
#     Node 35, Type 0, BuildingBlock: GALJAG_clean_sbu_0, # of connection points: 4
#     Edge 36, Type (0, 0), BuildingBlock: AJUNOK_clean_linker_0, # of connection points: 2
#     Edge 37, Type (0, 0), BuildingBlock: AJUNOK_clean_linker_0, # of connection points: 2
#     Edge 38, Type (0, 0), BuildingBlock: AJUNOK_clean_linker_0, # of connection points: 2
#     Edge 39, Type (0, 0), BuildingBlock: AJUNOK_clean_linker_0, # of connection points: 2
#     Edge 40, Type (0, 0), BuildingBlock: AJUNOK_clean_linker_0, # of connection points: 2
#     Edge 41, Type (0, 0), BuildingBlock: AJUNOK_clean_linker_0, # of connection points: 2
#     Edge 42, Type (0, 0), BuildingBlock: AJUNOK_clean_linker_0, # of connection points: 2
#     Edge 43, Type (0, 0), BuildingBlock: AJUNOK_clean_linker_0, # of connection points: 2
#     Edge 44, Type (0, 0), BuildingBlock: AJUNOK_clean_linker_0, # of connection points: 2
#     Edge 45, Type (0, 0), BuildingBlock: AJUNOK_clean_linker_0, # of connection points: 2
#     Edge 46, Type (0, 0), BuildingBlock: AJUNOK_clean_linker_0, # of connection points: 2
#     Edge 47, Type (0, 0), BuildingBlock: AJUNOK_clean_linker_0, # of connection points: 2
#     Edge 48, Type (0, 0), BuildingBlock: AJUNOK_clean_linker_0, # of connection points: 2
#     Edge 49, Type (0, 0), BuildingBlock: AJUNOK_clean_linker_0, # of connection points: 2
#     Edge 50, Type (0, 0), BuildingBlock: AJUNOK_clean_linker_0, # of connection points: 2
#     Edge 51, Type (0, 0), BuildingBlock: AJUNOK_clean_linker_0, # of connection points: 2
#     Edge 52, Type (0, 0), BuildingBlock: AJUNOK_clean_linker_0, # of connection points: 2
#     Edge 53, Type (0, 0), BuildingBlock: AJUNOK_clean_linker_0, # of connection points: 2
#     Edge 54, Type (0, 0), BuildingBlock: AJUNOK_clean_linker_0, # of connection points: 2
#     Edge 55, Type (0, 0), BuildingBlock: AJUNOK_clean_linker_0, # of connection points: 2
#     Edge 56, Type (0, 0), BuildingBlock: AJUNOK_clean_linker_0, # of connection points: 2
#     Edge 57, Type (0, 0), BuildingBlock: AJUNOK_clean_linker_0, # of connection points: 2
#     Edge 58, Type (0, 0), BuildingBlock: AJUNOK_clean_linker_0, # of connection points: 2
#     Edge 59, Type (0, 0), BuildingBlock: AJUNOK_clean_linker_0, # of connection points: 2
#     Edge 60, Type (0, 0), BuildingBlock: AJUNOK_clean_linker_0, # of connection points: 2
#     Edge 61, Type (0, 0), BuildingBlock: AJUNOK_clean_linker_0, # of connection points: 2
#     Edge 62, Type (0, 0), BuildingBlock: AJUNOK_clean_linker_0, # of connection points: 2
#     Edge 63, Type (0, 0), BuildingBlock: AJUNOK_clean_linker_0, # of connection points: 2
#     Edge 64, Type (0, 0), BuildingBlock: AJUNOK_clean_linker_0, # of connection points: 2
#     Edge 65, Type (0, 0), BuildingBlock: AJUNOK_clean_linker_0, # of connection points: 2
#     Edge 66, Type (0, 0), BuildingBlock: AJUNOK_clean_linker_0, # of connection points: 2
#     Edge 67, Type (0, 0), BuildingBlock: AJUNOK_clean_linker_0, # of connection points: 2
#     Edge 68, Type (0, 0), BuildingBlock: AJUNOK_clean_linker_0, # of connection points: 2
#     Edge 69, Type (0, 0), BuildingBlock: AJUNOK_clean_linker_0, # of connection points: 2
#     Edge 70, Type (0, 0), BuildingBlock: AJUNOK_clean_linker_0, # of connection points: 2
#     Edge 71, Type (0, 0), BuildingBlock: AJUNOK_clean_linker_0, # of connection points: 2
#     Edge 72, Type (0, 0), BuildingBlock: AJUNOK_clean_linker_0, # of connection points: 2
#     Edge 73, Type (0, 0), BuildingBlock: AJUNOK_clean_linker_0, # of connection points: 2
#     Edge 74, Type (0, 0), BuildingBlock: AJUNOK_clean_linker_0, # of connection points: 2
#     Edge 75, Type (0, 0), BuildingBlock: AJUNOK_clean_linker_0, # of connection points: 2
#     Edge 76, Type (0, 0), BuildingBlock: AJUNOK_clean_linker_0, # of connection points: 2
#     Edge 77, Type (0, 0), BuildingBlock: AJUNOK_clean_linker_0, # of connection points: 2
#     Edge 78, Type (0, 0), BuildingBlock: AJUNOK_clean_linker_0, # of connection points: 2
#     Edge 79, Type (0, 0), BuildingBlock: AJUNOK_clean_linker_0, # of connection points: 2
#     Edge 80, Type (0, 0), BuildingBlock: AJUNOK_clean_linker_0, # of connection points: 2
#     Edge 81, Type (0, 0), BuildingBlock: AJUNOK_clean_linker_0, # of connection points: 2
#     Edge 82, Type (0, 0), BuildingBlock: AJUNOK_clean_linker_0, # of connection points: 2
#     Edge 83, Type (0, 0), BuildingBlock: AJUNOK_clean_linker_0, # of connection points: 2
#     Edge 84, Type (0, 0), BuildingBlock: AJUNOK_clean_linker_0, # of connection points: 2
#     Edge 85, Type (0, 0), BuildingBlock: AJUNOK_clean_linker_0, # of connection points: 2
#     Edge 86, Type (0, 0), BuildingBlock: AJUNOK_clean_linker_0, # of connection points: 2
#     Edge 87, Type (0, 0), BuildingBlock: AJUNOK_clean_linker_0, # of connection points: 2
#     Edge 88, Type (0, 0), BuildingBlock: AJUNOK_clean_linker_0, # of connection points: 2
#     Edge 89, Type (0, 0), BuildingBlock: AJUNOK_clean_linker_0, # of connection points: 2
#     Edge 90, Type (0, 0), BuildingBlock: AJUNOK_clean_linker_0, # of connection points: 2
#     Edge 91, Type (0, 0), BuildingBlock: AJUNOK_clean_linker_0, # of connection points: 2
#     Edge 92, Type (0, 0), BuildingBlock: AJUNOK_clean_linker_0, # of connection points: 2
#     Edge 93, Type (0, 0), BuildingBlock: AJUNOK_clean_linker_0, # of connection points: 2
#     Edge 94, Type (0, 0), BuildingBlock: AJUNOK_clean_linker_0, # of connection points: 2
#     Edge 95, Type (0, 0), BuildingBlock: AJUNOK_clean_linker_0, # of connection points: 2
#     Edge 96, Type (0, 0), BuildingBlock: AJUNOK_clean_linker_0, # of connection points: 2
#     Edge 97, Type (0, 0), BuildingBlock: AJUNOK_clean_linker_0, # of connection points: 2
#     Edge 98, Type (0, 0), BuildingBlock: AJUNOK_clean_linker_0, # of connection points: 2
#     Edge 99, Type (0, 0), BuildingBlock: AJUNOK_clean_linker_0, # of connection points: 2
#     Edge 100, Type (0, 0), BuildingBlock: AJUNOK_clean_linker_0, # of connection points: 2
#     Edge 101, Type (0, 0), BuildingBlock: AJUNOK_clean_linker_0, # of connection points: 2
#     Edge 102, Type (0, 0), BuildingBlock: AJUNOK_clean_linker_0, # of connection points: 2
#     Edge 103, Type (0, 0), BuildingBlock: AJUNOK_clean_linker_0, # of connection points: 2
#     Edge 104, Type (0, 0), BuildingBlock: AJUNOK_clean_linker_0, # of connection points: 2
#     Edge 105, Type (0, 0), BuildingBlock: AJUNOK_clean_linker_0, # of connection points: 2
#     Edge 106, Type (0, 0), BuildingBlock: AJUNOK_clean_linker_0, # of connection points: 2
#     Edge 107, Type (0, 0), BuildingBlock: AJUNOK_clean_linker_0, # of connection points: 2
# Relax obj value: 0.044
# Max RMSD: 0.095
# Mean RMSD: 0.095
data_MOF--net-uoh--node1-GALJAG_clean_sbu_0--edge1-AJUNOK_clean_linker_0
_symmetry_space_group_name_H-M    P1
_symmetry_Int_Tables_number       1
_symmetry_cell_setting            triclinic
loop_
_symmetry_equiv_pos_as_xyz
'x, y, z'
_cell_length_a     64.688273
_cell_length_b     64.682389
_cell_length_c     21.144962
_cell_angle_alpha  90.034555
_cell_angle_beta   90.048427
_cell_angle_gamma 120.00176
loop_
_atom_site_label
_atom_site_type_symbol
_atom_site_fract_x
_atom_site_fract_y
_atom_site_fract_z
_atom_type_partial_charge
In0 In 0.2271 0.13296 0.20162 0.0
O1 O 0.22684 0.16766 0.21293 0.0
O2 O 0.19354 0.13497 0.20524 0.0
C3 C 0.2734 0.14539 0.19975 0.0
C4 C 0.2146 0.11438 0.3182 0.0
C5 C 0.21553 0.11839 0.08117 0.0
O6 O 0.26675 0.16074 0.19926 0.0
O7 O 0.25667 0.124 0.20145 0.0
O8 O 0.21064 0.10368 0.12606 0.0
O9 O 0.22588 0.14003 0.09752 0.0
C10 C 0.20424 0.15736 0.21277 0.0
O11 O 0.20777 0.10112 0.26953 0.0
O12 O 0.22775 0.13635 0.30734 0.0
In13 In 0.84883 0.09048 0.19809 0.0
O14 O 0.81455 0.05532 0.21142 0.0
O15 O 0.84774 0.05553 0.21162 0.0
C16 C 0.8345 0.12273 0.18536 0.0
C17 C 0.86647 0.09885 0.31606 0.0
C18 C 0.8651 0.0924 0.08 0.0
O19 O 0.81994 0.10052 0.18585 0.0
O20 O 0.85609 0.12846 0.19227 0.0
O21 O 0.87903 0.10367 0.12538 0.0
O22 O 0.84342 0.07989 0.09499 0.0
C23 C 0.82531 0.0436 0.21815 0.0
O24 O 0.88019 0.10466 0.26849 0.0
O25 O 0.84462 0.09004 0.30345 0.0
In26 In 0.89221 0.7571 0.20084 0.0
O27 O 0.87959 0.77578 0.27089 0.0
O28 O 0.89243 0.75343 0.30653 0.0
C29 C 0.89047 0.7715 0.08251 0.0
C30 C 0.93918 0.77794 0.21848 0.0
C31 C 0.85816 0.71106 0.1884 0.0
O32 O 0.88064 0.77574 0.12862 0.0
O33 O 0.90168 0.76088 0.09696 0.0
O34 O 0.88012 0.7176 0.1899 0.0
O35 O 0.85355 0.72774 0.19428 0.0
C36 C 0.88448 0.76724 0.31882 0.0
O37 O 0.92614 0.75551 0.21336 0.0
O38 O 0.92847 0.78967 0.21221 0.0
In39 In 0.13039 0.23064 0.29885 0.0
O40 O 0.16484 0.23007 0.28493 0.0
O41 O 0.13166 0.19702 0.28477 0.0
C42 C 0.14245 0.27649 0.31469 0.0
C43 C 0.11311 0.22179 0.18069 0.0
C44 C 0.11474 0.21556 0.41669 0.0
O45 O 0.15799 0.27007 0.31259 0.0
O46 O 0.12123 0.25984 0.30737 0.0
O47 O 0.10045 0.21211 0.37153 0.0
O48 O 0.13649 0.22594 0.40157 0.0
C49 C 0.15408 0.20758 0.27814 0.0
O50 O 0.09928 0.21353 0.22796 0.0
O51 O 0.13492 0.23499 0.19367 0.0
In52 In 0.75071 0.89724 0.31201 0.0
O53 O 0.75201 0.93259 0.29814 0.0
O54 O 0.78484 0.93215 0.30209 0.0
C55 C 0.70423 0.86471 0.32523 0.0
C56 C 0.75985 0.88905 0.19361 0.0
C57 C 0.76489 0.89535 0.43035 0.0
O58 O 0.71164 0.88688 0.32397 0.0
O59 O 0.72026 0.85919 0.31867 0.0
O60 O 0.76819 0.88456 0.38483 0.0
O61 O 0.75506 0.90727 0.41542 0.0
C62 C 0.77459 0.94427 0.29455 0.0
O63 O 0.76748 0.88282 0.24103 0.0
O64 O 0.74719 0.89826 0.20655 0.0
In65 In 0.086 0.85241 0.30888 0.0
O66 O 0.09885 0.88373 0.23892 0.0
O67 O 0.08564 0.84847 0.20323 0.0
C68 C 0.08804 0.86879 0.42712 0.0
C69 C 0.03898 0.82693 0.29092 0.0
C70 C 0.11921 0.83925 0.32141 0.0
O71 O 0.09826 0.88275 0.38108 0.0
O72 O 0.07636 0.84698 0.41264 0.0
O73 O 0.09709 0.82435 0.32124 0.0
O74 O 0.12446 0.86069 0.31415 0.0
C75 C 0.09372 0.87024 0.19098 0.0
O76 O 0.05176 0.81723 0.29512 0.0
O77 O 0.04997 0.84934 0.29835 0.0
In78 In 0.74979 0.85166 0.81046 0.0
O79 O 0.74957 0.81682 0.7994 0.0
O80 O 0.7832 0.84923 0.80113 0.0
C81 C 0.7029 0.83687 0.81669 0.0
C82 C 0.76067 0.8703 0.69332 0.0
C83 C 0.76268 0.86789 0.92966 0.0
O84 O 0.71079 0.82254 0.8162 0.0
O85 O 0.71871 0.85862 0.8137 0.0
O86 O 0.76688 0.88188 0.88344 0.0
O87 O 0.75274 0.8461 0.91503 0.0
C88 C 0.77205 0.82676 0.79505 0.0
O89 O 0.76791 0.88355 0.74193 0.0
O90 O 0.74784 0.84833 0.7045 0.0
In91 In 0.12923 0.89605 0.80908 0.0
O92 O 0.09784 0.8831 0.73879 0.0
O93 O 0.13319 0.89666 0.70357 0.0
C94 C 0.11287 0.8944 0.92708 0.0
C95 C 0.15494 0.94292 0.79053 0.0
C96 C 0.14348 0.86373 0.82234 0.0
O97 O 0.09899 0.88275 0.88195 0.0
O98 O 0.13448 0.90712 0.91184 0.0
O99 O 0.1579 0.88594 0.82279 0.0
O100 O 0.12193 0.8579 0.8141 0.0
C101 C 0.11146 0.88864 0.6911 0.0
O102 O 0.16443 0.92996 0.79491 0.0
O103 O 0.13254 0.93218 0.79813 0.0
In104 In 0.08764 0.23122 0.79671 0.0
O105 O 0.05261 0.23089 0.78425 0.0
O106 O 0.05225 0.19767 0.78766 0.0
C107 C 0.12189 0.27733 0.80342 0.0
C108 C 0.09496 0.22015 0.67977 0.0
C109 C 0.09005 0.21857 0.91636 0.0
O110 O 0.09993 0.27094 0.80274 0.0
O111 O 0.1263 0.26045 0.79998 0.0
O112 O 0.0992 0.21323 0.87071 0.0
O113 O 0.07932 0.2296 0.90093 0.0
C114 C 0.04052 0.20832 0.7804 0.0
O115 O 0.10079 0.21266 0.72822 0.0
O116 O 0.08626 0.23339 0.69103 0.0
In117 In 0.8487 0.75709 0.70097 0.0
O118 O 0.8134 0.75566 0.71489 0.0
O119 O 0.84528 0.78981 0.71339 0.0
C120 C 0.8351 0.71063 0.68832 0.0
C121 C 0.86667 0.76752 0.81874 0.0
C122 C 0.86481 0.77175 0.58273 0.0
O123 O 0.82036 0.71802 0.68855 0.0
O124 O 0.8566 0.72669 0.69542 0.0
O125 O 0.87881 0.77434 0.62787 0.0
O126 O 0.84317 0.76252 0.59805 0.0
C127 C 0.82285 0.77807 0.72045 0.0
O128 O 0.88019 0.77572 0.7709 0.0
O129 O 0.84494 0.75367 0.80651 0.0
In130 In 0.2269 0.08934 0.69781 0.0
O131 O 0.22749 0.05492 0.70965 0.0
O132 O 0.19387 0.05376 0.71296 0.0
C133 C 0.27311 0.12209 0.68088 0.0
C134 C 0.21876 0.09842 0.81645 0.0
C135 C 0.21084 0.09002 0.5809 0.0
O136 O 0.26595 0.10003 0.68442 0.0
O137 O 0.25696 0.12747 0.68679 0.0
O138 O 0.20833 0.10133 0.62642 0.0
O139 O 0.22079 0.07816 0.59523 0.0
C140 C 0.20512 0.0425 0.71734 0.0
O141 O 0.20985 0.10328 0.76922 0.0
O142 O 0.23196 0.08987 0.80312 0.0
In143 In 0.89285 0.13507 0.69891 0.0
O144 O 0.9281 0.16954 0.7117 0.0
O145 O 0.92809 0.13652 0.70622 0.0
C146 C 0.85885 0.14715 0.6887 0.0
C147 C 0.88522 0.11724 0.81665 0.0
C148 C 0.89023 0.11939 0.57987 0.0
O149 O 0.88083 0.16266 0.69007 0.0
O150 O 0.85432 0.12586 0.6937 0.0
O151 O 0.88097 0.10513 0.62591 0.0
O152 O 0.9012 0.14122 0.59465 0.0
C153 C 0.94005 0.15889 0.71378 0.0
O154 O 0.8796 0.10372 0.7686 0.0
O155 O 0.89389 0.13912 0.8046 0.0
In156 In 0.89459 0.46821 0.53292 0.0
O157 O 0.89624 0.50373 0.54585 0.0
O158 O 0.86203 0.47199 0.54211 0.0
C159 C 0.94067 0.4802 0.52356 0.0
C160 C 0.88387 0.45029 0.65073 0.0
C161 C 0.88091 0.45206 0.41409 0.0
O162 O 0.9341 0.49561 0.52239 0.0
O163 O 0.92398 0.45897 0.53024 0.0
O164 O 0.87641 0.43799 0.46032 0.0
O165 O 0.89142 0.47388 0.42861 0.0
C166 C 0.87379 0.4944 0.54948 0.0
O167 O 0.87557 0.43686 0.60263 0.0
O168 O 0.89764 0.47206 0.6387 0.0
In169 In 0.51951 0.42392 0.52718 0.0
O170 O 0.48318 0.39199 0.55121 0.0
O171 O 0.51395 0.38806 0.55569 0.0
C172 C 0.50469 0.45535 0.50746 0.0
C173 C 0.54265 0.43882 0.63844 0.0
C174 C 0.53435 0.42307 0.40836 0.0
O175 O 0.49033 0.43351 0.51876 0.0
O176 O 0.52647 0.46112 0.5059 0.0
O177 O 0.54856 0.43601 0.4514 0.0
O178 O 0.5131 0.41005 0.42625 0.0
C179 C 0.49172 0.37862 0.56353 0.0
O180 O 0.54889 0.42875 0.59753 0.0
O181 O 0.5259 0.44221 0.6219 0.0
In182 In 0.55926 0.0915 0.53671 0.0
O183 O 0.59441 0.09217 0.54903 0.0
O184 O 0.59462 0.1253 0.54367 0.0
C185 C 0.52571 0.04518 0.52878 0.0
C186 C 0.55188 0.10192 0.65448 0.0
C187 C 0.55592 0.10411 0.41764 0.0
O188 O 0.54777 0.05204 0.52756 0.0
O189 O 0.52086 0.06169 0.53482 0.0
O190 O 0.54663 0.10898 0.46389 0.0
O191 O 0.56728 0.09364 0.43218 0.0
C192 C 0.60647 0.11477 0.55113 0.0
O193 O 0.5459 0.10949 0.60648 0.0
O194 O 0.56089 0.08901 0.64238 0.0
In195 In 0.79874 0.56593 0.63968 0.0
O196 O 0.83412 0.56721 0.62732 0.0
O197 O 0.80207 0.53319 0.62957 0.0
C198 C 0.80998 0.61176 0.65056 0.0
C199 C 0.78143 0.55538 0.52151 0.0
C200 C 0.78285 0.55182 0.75805 0.0
O201 O 0.8257 0.60558 0.65043 0.0
O202 O 0.78884 0.59483 0.64413 0.0
O203 O 0.76866 0.54703 0.71185 0.0
O204 O 0.80468 0.56291 0.74368 0.0
C205 C 0.8245 0.54473 0.62279 0.0
O206 O 0.76766 0.54729 0.56894 0.0
O207 O 0.80314 0.56917 0.53432 0.0
In208 In 0.41717 0.23222 0.6488 0.0
O209 O 0.41606 0.26634 0.63387 0.0
O210 O 0.44973 0.26872 0.65174 0.0
C211 C 0.37176 0.19662 0.6467 0.0
C212 C 0.43101 0.22592 0.53399 0.0
C213 C 0.4239 0.22893 0.77287 0.0
O214 O 0.37731 0.21835 0.64389 0.0
O215 O 0.38923 0.19303 0.64872 0.0
O216 O 0.43597 0.22513 0.7319 0.0
O217 O 0.40957 0.23494 0.75069 0.0
C218 C 0.43846 0.27954 0.63938 0.0
O219 O 0.43671 0.21888 0.58368 0.0
O220 O 0.41847 0.23554 0.54315 0.0
In221 In 0.75369 0.18789 0.63882 0.0
O222 O 0.71826 0.15375 0.62591 0.0
O223 O 0.71883 0.18708 0.62661 0.0
C224 C 0.78596 0.17354 0.65121 0.0
C225 C 0.76246 0.20576 0.52105 0.0
C226 C 0.75594 0.20418 0.75714 0.0
O227 O 0.76376 0.15897 0.64929 0.0
O228 O 0.7917 0.19519 0.6459 0.0
O229 O 0.76621 0.21817 0.71117 0.0
O230 O 0.74415 0.18237 0.74258 0.0
C231 C 0.70667 0.16467 0.62017 0.0
O232 O 0.76822 0.21933 0.569 0.0
O233 O 0.7532 0.18383 0.53323 0.0
In234 In 0.4195 0.18788 0.15433 0.0
O235 O 0.41772 0.15241 0.13613 0.0
O236 O 0.45142 0.18443 0.12899 0.0
C237 C 0.37349 0.17319 0.17734 0.0
C238 C 0.42347 0.20676 0.03851 0.0
C239 C 0.4358 0.20476 0.27151 0.0
O240 O 0.38106 0.1587 0.16956 0.0
O241 O 0.38928 0.19499 0.17408 0.0
O242 O 0.43704 0.21832 0.22666 0.0
O243 O 0.42728 0.18318 0.25614 0.0
C244 C 0.43976 0.16196 0.12409 0.0
O245 O 0.43956 0.21751 0.07989 0.0
O246 O 0.40592 0.18733 0.05628 0.0
In247 In 0.79751 0.23069 0.13827 0.0
O248 O 0.83298 0.26453 0.12454 0.0
O249 O 0.80121 0.26697 0.12886 0.0
C250 C 0.80882 0.1961 0.14843 0.0
C251 C 0.7796 0.22402 0.02078 0.0
C252 C 0.78239 0.2296 0.25723 0.0
O253 O 0.82449 0.21801 0.1482 0.0
O254 O 0.78765 0.19186 0.14254 0.0
O255 O 0.76788 0.21927 0.21214 0.0
O256 O 0.80409 0.24068 0.24159 0.0
C257 C 0.8236 0.27762 0.12111 0.0
O258 O 0.76607 0.21838 0.0687 0.0
O259 O 0.80135 0.23187 0.03275 0.0
In260 In 0.75443 0.56472 0.13954 0.0
O261 O 0.71887 0.56309 0.12729 0.0
O262 O 0.71968 0.53043 0.12849 0.0
C263 C 0.78615 0.61154 0.15051 0.0
C264 C 0.76239 0.55507 0.02159 0.0
C265 C 0.75743 0.55115 0.25777 0.0
O266 O 0.76388 0.60354 0.14992 0.0
O267 O 0.79222 0.59589 0.14457 0.0
O268 O 0.7678 0.54768 0.21159 0.0
O269 O 0.74515 0.56066 0.24346 0.0
C270 C 0.70741 0.54056 0.12192 0.0
O271 O 0.76901 0.54793 0.06923 0.0
O272 O 0.75299 0.56759 0.03407 0.0
In273 In 0.51417 0.08961 0.03544 0.0
O274 O 0.4789 0.08866 0.04669 0.0
O275 O 0.51109 0.12255 0.04518 0.0
C276 C 0.5015 0.0434 0.0228 0.0
C277 C 0.53152 0.09984 0.15386 0.0
C278 C 0.53049 0.10442 0.91767 0.0
O279 O 0.48635 0.05028 0.02473 0.0
O280 O 0.52292 0.05985 0.02824 0.0
O281 O 0.54453 0.10786 0.96343 0.0
O282 O 0.50868 0.09409 0.93205 0.0
C283 C 0.4886 0.11114 0.05092 0.0
O284 O 0.54529 0.10773 0.10642 0.0
O285 O 0.50976 0.08644 0.14098 0.0
In286 In 0.89517 0.42445 0.03209 0.0
O287 O 0.87707 0.43764 0.10263 0.0
O288 O 0.89853 0.42366 0.13772 0.0
C289 C 0.88019 0.42613 0.91426 0.0
C290 C 0.87368 0.37747 0.04992 0.0
C291 C 0.9417 0.45708 0.01928 0.0
O292 O 0.87777 0.4375 0.95976 0.0
O293 O 0.88948 0.41371 0.92899 0.0
O294 O 0.93413 0.43491 0.01923 0.0
O295 O 0.92578 0.46268 0.02682 0.0
C296 C 0.88506 0.43195 0.15029 0.0
O297 O 0.89612 0.3902 0.04438 0.0
O298 O 0.86223 0.3885 0.04403 0.0
In299 In 0.56088 0.4665 0.02864 0.0
O300 O 0.59569 0.50071 0.04634 0.0
O301 O 0.59633 0.46817 0.03542 0.0
C302 C 0.52731 0.47921 0.02388 0.0
C303 C 0.55263 0.44683 0.14413 0.0
C304 C 0.56093 0.45636 0.90542 0.0
O305 O 0.54932 0.49426 0.02875 0.0
O306 O 0.52226 0.45764 0.02261 0.0
O307 O 0.55359 0.44005 0.94703 0.0
O308 O 0.5682 0.47708 0.92675 0.0
C309 C 0.6079 0.49034 0.04664 0.0
O310 O 0.54586 0.43379 0.09491 0.0
O311 O 0.56252 0.46896 0.13409 0.0
In312 In 0.55711 0.79589 0.86517 0.0
O313 O 0.53404 0.76528 0.93405 0.0
O314 O 0.56814 0.79321 0.96448 0.0
C315 C 0.5417 0.78101 0.74619 0.0
C316 C 0.53893 0.8236 0.89628 0.0
C317 C 0.60284 0.80847 0.84538 0.0
O318 O 0.53965 0.76668 0.78976 0.0
O319 O 0.55056 0.80242 0.7636 0.0
O320 O 0.59641 0.82376 0.85486 0.0
O321 O 0.58612 0.78701 0.84588 0.0
C322 C 0.54928 0.77421 0.97811 0.0
O323 O 0.56095 0.83221 0.88536 0.0
O324 O 0.52635 0.80124 0.89 0.0
In325 In 0.1836 0.75815 0.86962 0.0
O326 O 0.21496 0.77176 0.93958 0.0
O327 O 0.17949 0.75675 0.97536 0.0
C328 C 0.19994 0.76142 0.7511 0.0
C329 C 0.15957 0.71095 0.88373 0.0
C330 C 0.17078 0.7916 0.86013 0.0
O331 O 0.21394 0.77075 0.7977 0.0
O332 O 0.17806 0.75003 0.76506 0.0
O333 O 0.15558 0.76953 0.85929 0.0
O334 O 0.19212 0.79647 0.86672 0.0
C335 C 0.20142 0.76587 0.98753 0.0
O336 O 0.14909 0.72306 0.88215 0.0
O337 O 0.18195 0.72276 0.87614 0.0
In338 In 0.22643 0.42262 0.86199 0.0
O339 O 0.21565 0.44157 0.93646 0.0
O340 O 0.21556 0.40954 0.96126 0.0
C341 C 0.22568 0.43875 0.74524 0.0
C342 C 0.27275 0.44488 0.89119 0.0
C343 C 0.19487 0.3767 0.83823 0.0
O344 O 0.21333 0.43996 0.7901 0.0
O345 O 0.23884 0.43031 0.76038 0.0
O346 O 0.21692 0.38409 0.84566 0.0
O347 O 0.18902 0.39258 0.84268 0.0
C348 C 0.21224 0.42628 0.9787 0.0
O349 O 0.26122 0.42275 0.87897 0.0
O350 O 0.26091 0.4555 0.88669 0.0
In351 In 0.46735 0.89941 0.97352 0.0
O352 O 0.50256 0.90001 0.96414 0.0
O353 O 0.47024 0.86631 0.97027 0.0
C354 C 0.47831 0.94517 0.98307 0.0
C355 C 0.45063 0.88822 0.85463 0.0
C356 C 0.45056 0.88677 0.09167 0.0
O357 O 0.49422 0.93924 0.98326 0.0
O358 O 0.45727 0.9281 0.97632 0.0
O359 O 0.43674 0.88215 0.04469 0.0
O360 O 0.47247 0.8968 0.07834 0.0
C361 C 0.49269 0.87744 0.9636 0.0
O362 O 0.43675 0.88007 0.90181 0.0
O363 O 0.47225 0.90226 0.86797 0.0
In364 In 0.08701 0.56423 0.97396 0.0
O365 O 0.10525 0.55103 0.90431 0.0
O366 O 0.08403 0.56528 0.86853 0.0
C367 C 0.10066 0.5629 0.09324 0.0
C368 C 0.11 0.61109 0.95482 0.0
C369 C 0.04092 0.53023 0.98341 0.0
O370 O 0.1046 0.55231 0.04839 0.0
O371 O 0.09045 0.57435 0.07723 0.0
O372 O 0.04743 0.55222 0.98342 0.0
O373 O 0.05765 0.52569 0.97779 0.0
C374 C 0.09753 0.55694 0.85646 0.0
O375 O 0.08746 0.59921 0.96013 0.0
O376 O 0.12062 0.59933 0.96244 0.0
In377 In 0.41975 0.51695 0.97879 0.0
O378 O 0.38446 0.48261 0.9658 0.0
O379 O 0.38472 0.51581 0.9698 0.0
C380 C 0.45361 0.50479 0.99146 0.0
C381 C 0.42823 0.53469 0.86084 0.0
C382 C 0.42125 0.5325 0.09739 0.0
O383 O 0.43167 0.48923 0.9884 0.0
O384 O 0.45812 0.52608 0.98704 0.0
O385 O 0.43135 0.54684 0.05192 0.0
O386 O 0.41029 0.5107 0.08236 0.0
C387 C 0.37264 0.4934 0.96298 0.0
O388 O 0.43387 0.54827 0.90874 0.0
O389 O 0.419 0.51276 0.8731 0.0
In390 In 0.08648 0.52076 0.47469 0.0
O391 O 0.10456 0.55234 0.40528 0.0
O392 O 0.08281 0.51712 0.36903 0.0
C393 C 0.10135 0.53726 0.59271 0.0
C394 C 0.10732 0.49478 0.45479 0.0
C395 C 0.03997 0.50677 0.48799 0.0
O396 O 0.10463 0.55116 0.54684 0.0
O397 O 0.09146 0.51548 0.57809 0.0
O398 O 0.04761 0.49223 0.48795 0.0
O399 O 0.05582 0.52831 0.48034 0.0
C400 C 0.09625 0.53896 0.35714 0.0
O401 O 0.08494 0.48542 0.46049 0.0
O402 O 0.11912 0.5172 0.46177 0.0
In403 In 0.46432 0.56137 0.47733 0.0
O404 O 0.43247 0.54777 0.40888 0.0
O405 O 0.46774 0.56285 0.37157 0.0
C406 C 0.44943 0.55896 0.59717 0.0
C407 C 0.48805 0.60852 0.4619 0.0
C408 C 0.4769 0.52764 0.48301 0.0
O409 O 0.43486 0.54906 0.55194 0.0
O410 O 0.47112 0.5702 0.58138 0.0
O411 O 0.49224 0.54967 0.4819 0.0
O412 O 0.4555 0.52293 0.48081 0.0
C413 C 0.44575 0.55375 0.36036 0.0
O414 O 0.49872 0.5966 0.46483 0.0
O415 O 0.46567 0.59657 0.46922 0.0
In416 In 0.42189 0.89911 0.47531 0.0
O417 O 0.43507 0.88214 0.40153 0.0
O418 O 0.42225 0.9051 0.37061 0.0
C419 C 0.42547 0.88426 0.59161 0.0
C420 C 0.37484 0.87565 0.45662 0.0
C421 C 0.45365 0.94567 0.49119 0.0
O422 O 0.4363 0.88206 0.54446 0.0
O423 O 0.41231 0.89295 0.57905 0.0
O424 O 0.43137 0.93765 0.49194 0.0
O425 O 0.45971 0.93019 0.48143 0.0
C426 C 0.43013 0.89148 0.35545 0.0
O427 O 0.38647 0.89805 0.46482 0.0
O428 O 0.38693 0.86526 0.46097 0.0
In429 In 0.18032 0.4211 0.36678 0.0
O430 O 0.14562 0.42074 0.38232 0.0
O431 O 0.17744 0.45439 0.36955 0.0
C432 C 0.16764 0.37486 0.36235 0.0
C433 C 0.19995 0.43307 0.48245 0.0
C434 C 0.19132 0.42907 0.24373 0.0
O435 O 0.15258 0.38183 0.36598 0.0
O436 O 0.18923 0.39133 0.36363 0.0
O437 O 0.20726 0.43962 0.28576 0.0
O438 O 0.17049 0.41584 0.26435 0.0
C439 C 0.15526 0.44323 0.38077 0.0
O440 O 0.21292 0.43968 0.43321 0.0
O441 O 0.17787 0.42023 0.47239 0.0
In442 In 0.56001 0.75495 0.36688 0.0
O443 O 0.54119 0.76876 0.43292 0.0
O444 O 0.56172 0.7543 0.47241 0.0
C445 C 0.54993 0.75416 0.2432 0.0
C446 C 0.53738 0.70812 0.38736 0.0
C447 C 0.60551 0.79034 0.36129 0.0
O448 O 0.54092 0.7617 0.28422 0.0
O449 O 0.56317 0.7468 0.2655 0.0
O450 O 0.5999 0.76863 0.36583 0.0
O451 O 0.58809 0.79404 0.3608 0.0
C452 C 0.54841 0.76304 0.48226 0.0
O453 O 0.55998 0.72043 0.38597 0.0
O454 O 0.52659 0.71945 0.37546 0.0
In455 In 0.22771 0.80301 0.36957 0.0
O456 O 0.26293 0.83742 0.38278 0.0
O457 O 0.26288 0.80435 0.37747 0.0
C458 C 0.19343 0.81471 0.35915 0.0
C459 C 0.22068 0.7859 0.48781 0.0
C460 C 0.22568 0.78734 0.25088 0.0
O461 O 0.21538 0.83036 0.35895 0.0
O462 O 0.18913 0.79354 0.36553 0.0
O463 O 0.21567 0.77304 0.29648 0.0
O464 O 0.23683 0.80914 0.26583 0.0
C465 C 0.27485 0.82672 0.38514 0.0
O466 O 0.21457 0.77201 0.44042 0.0
O467 O 0.22928 0.8077 0.47493 0.0
C468 C 0.21569 0.0874 0.93007 0.0
C469 C 0.21437 0.10208 0.88294 0.0
C470 C 0.21436 0.09182 0.99436 0.0
C471 C 0.21222 0.11141 0.01382 0.0
H472 H 0.21834 0.07267 0.91721 0.0
H473 H 0.21635 0.08059 0.029 0.0
S474 S 0.20597 0.15403 0.90925 0.0
N475 N 0.20885 0.13579 0.85999 0.0
N476 N 0.20708 0.14461 0.98111 0.0
C477 C 0.20983 0.12562 0.96721 0.0
C478 C 0.21069 0.1208 0.90162 0.0
C479 C 0.89622 0.12464 0.93049 0.0
C480 C 0.88191 0.10871 0.88268 0.0
C481 C 0.8918 0.11847 0.99451 0.0
C482 C 0.87261 0.09632 0.01307 0.0
H483 H 0.91055 0.14234 0.91845 0.0
H484 H 0.90261 0.13171 0.02965 0.0
S485 S 0.83141 0.04731 0.90635 0.0
N486 N 0.84922 0.06903 0.85804 0.0
N487 N 0.84046 0.05758 0.97866 0.0
C488 C 0.85897 0.07972 0.96572 0.0
C489 C 0.86375 0.08587 0.90039 0.0
C490 C 0.90175 0.77475 0.96839 0.0
C491 C 0.88669 0.77545 0.01556 0.0
C492 C 0.89612 0.77388 0.90392 0.0
C493 C 0.875 0.77315 0.88476 0.0
H494 H 0.91751 0.77391 0.98144 0.0
H495 H 0.90758 0.77229 0.86928 0.0
S496 S 0.83103 0.77737 0.98847 0.0
N497 N 0.85103 0.77776 0.03779 0.0
N498 N 0.8402 0.77554 0.91692 0.0
C499 C 0.86056 0.77525 0.93106 0.0
C500 C 0.86649 0.77659 0.99646 0.0
C501 C 0.08741 0.21323 0.50255 0.0
C502 C 0.10733 0.21157 0.48366 0.0
C503 C 0.08303 0.21494 0.56662 0.0
C504 C 0.09811 0.21454 0.61408 0.0
H505 H 0.07601 0.21479 0.46762 0.0
H506 H 0.06815 0.2174 0.57897 0.0
S507 S 0.15071 0.20711 0.58956 0.0
N508 N 0.141 0.20736 0.51744 0.0
N509 N 0.13231 0.20995 0.6382 0.0
C510 C 0.11699 0.21102 0.59611 0.0
C511 C 0.12174 0.20972 0.53072 0.0
C512 C 0.76681 0.86986 0.51564 0.0
C513 C 0.76871 0.89159 0.4973 0.0
C514 C 0.76525 0.86365 0.5796 0.0
C515 C 0.76602 0.87913 0.62757 0.0
H516 H 0.76504 0.85691 0.48037 0.0
H517 H 0.76266 0.84621 0.59147 0.0
S518 S 0.77411 0.93952 0.60454 0.0
N519 N 0.77348 0.9296 0.53213 0.0
N520 N 0.77115 0.91808 0.65263 0.0
C521 C 0.7697 0.90165 0.61011 0.0
C522 C 0.77086 0.90783 0.54483 0.0
C523 C 0.08212 0.86559 0.60565 0.0
C524 C 0.10323 0.88596 0.62499 0.0
C525 C 0.0766 0.86083 0.54114 0.0
C526 C 0.09175 0.87654 0.49408 0.0
H527 H 0.07059 0.85255 0.6402 0.0
H528 H 0.06083 0.84424 0.52799 0.0
S529 S 0.14737 0.93415 0.52163 0.0
N530 N 0.13809 0.92315 0.59311 0.0
N531 N 0.12746 0.91452 0.47214 0.0
C532 C 0.11193 0.89788 0.51334 0.0
C533 C 0.11776 0.90249 0.5788 0.0
C534 C 0.7647 0.86492 0.10857 0.0
C535 C 0.7647 0.88573 0.12732 0.0
C536 C 0.76526 0.85984 0.04423 0.0
C537 C 0.76634 0.87563 0.99666 0.0
H538 H 0.7629 0.85188 0.14351 0.0
H539 H 0.764 0.84301 0.03162 0.0
S540 S 0.77013 0.93416 0.02243 0.0
N541 N 0.76812 0.92329 0.09423 0.0
N542 N 0.76973 0.91404 0.97357 0.0
C543 C 0.76809 0.8973 0.01528 0.0
C544 C 0.76708 0.90225 0.0806 0.0
C545 C 0.08239 0.86244 0.07744 0.0
C546 C 0.09671 0.87859 0.12483 0.0
C547 C 0.08653 0.86843 0.01327 0.0
C548 C 0.10547 0.89064 0.99413 0.0
H549 H 0.06826 0.84469 0.08994 0.0
H550 H 0.07574 0.85502 0.97847 0.0
S551 S 0.14659 0.9402 0.09961 0.0
N552 N 0.12912 0.91852 0.14848 0.0
N553 N 0.1374 0.92968 0.02758 0.0
C554 C 0.11911 0.90746 0.04107 0.0
C555 C 0.11459 0.90148 0.10656 0.0
C556 C 0.07918 0.21673 0.03041 0.0
C557 C 0.09371 0.2149 0.98358 0.0
C558 C 0.08459 0.21738 0.09494 0.0
C559 C 0.10499 0.21674 0.11448 0.0
H560 H 0.06399 0.21853 0.01705 0.0
H561 H 0.07357 0.21978 0.12934 0.0
S562 S 0.14726 0.20925 0.01187 0.0
N563 N 0.12801 0.21011 0.96212 0.0
N564 N 0.13848 0.21193 0.08318 0.0
C565 C 0.11889 0.2136 0.06858 0.0
C566 C 0.11315 0.21248 1.00309 0.0
C567 C 0.89571 0.77084 0.43244 0.0
C568 C 0.88131 0.77246 0.38497 0.0
C569 C 0.89141 0.77254 0.49661 0.0
C570 C 0.87221 0.77542 0.51566 0.0
H571 H 0.91004 0.76751 0.41999 0.0
H572 H 0.9023 0.77012 0.53145 0.0
S573 S 0.83067 0.78304 0.40992 0.0
N574 N 0.84847 0.77929 0.36115 0.0
N575 N 0.83987 0.78184 0.48202 0.0
C576 C 0.85844 0.77833 0.46864 0.0
C577 C 0.86313 0.77705 0.40316 0.0
C578 C 0.20814 0.11503 0.49557 0.0
C579 C 0.20637 0.09338 0.51421 0.0
C580 C 0.20956 0.12108 0.43152 0.0
C581 C 0.20881 0.10551 0.38382 0.0
H582 H 0.21005 0.1281 0.53063 0.0
H583 H 0.2122 0.13851 0.41939 0.0
S584 S 0.20068 0.04516 0.40772 0.0
N585 N 0.20143 0.05524 0.47998 0.0
N586 N 0.20357 0.06648 0.35932 0.0
C587 C 0.20507 0.083 0.40159 0.0
C588 C 0.20401 0.07698 0.46694 0.0
C589 C 0.90103 0.12778 0.46561 0.0
C590 C 0.88638 0.11177 0.51285 0.0
C591 C 0.89544 0.12285 0.4012 0.0
C592 C 0.87474 0.10199 0.38217 0.0
H593 H 0.91648 0.14466 0.47856 0.0
H594 H 0.90659 0.13604 0.36648 0.0
S595 S 0.83196 0.05308 0.48611 0.0
N596 N 0.85157 0.07315 0.53532 0.0
N597 N 0.84079 0.06417 0.41451 0.0
C598 C 0.86069 0.08526 0.42853 0.0
C599 C 0.86661 0.09005 0.4939 0.0
C600 C 0.87882 0.45517 0.23534 0.0
C601 C 0.87966 0.43481 0.21643 0.0
C602 C 0.87789 0.45998 0.29972 0.0
C603 C 0.87724 0.44433 0.34711 0.0
H604 H 0.8803 0.46813 0.20054 0.0
H605 H 0.87859 0.47654 0.31254 0.0
S606 S 0.87573 0.38689 0.32085 0.0
N607 N 0.87753 0.39778 0.24916 0.0
N608 N 0.8752 0.40651 0.36986 0.0
C609 C 0.87629 0.42304 0.3283 0.0
C610 C 0.87769 0.41839 0.26297 0.0
C611 C 0.5655 0.45279 0.25643 0.0
C612 C 0.54956 0.43778 0.2096 0.0
C613 C 0.5614 0.44691 0.32062 0.0
C614 C 0.54097 0.42597 0.34058 0.0
H615 H 0.5809 0.4697 0.24356 0.0
H616 H 0.57362 0.45963 0.35488 0.0
S617 S 0.4952 0.37923 0.23628 0.0
N618 N 0.5139 0.39994 0.18692 0.0
N619 N 0.5058 0.38895 0.30798 0.0
C620 C 0.52566 0.41003 0.29401 0.0
C621 C 0.53007 0.4159 0.22835 0.0
C622 C 0.56672 0.10699 0.30328 0.0
C623 C 0.55169 0.10755 0.3507 0.0
C624 C 0.56096 0.10608 0.23892 0.0
C625 C 0.53971 0.10514 0.22008 0.0
H626 H 0.58264 0.10641 0.31605 0.0
H627 H 0.57249 0.10471 0.20408 0.0
S628 S 0.49555 0.10866 0.3247 0.0
N629 N 0.51577 0.10931 0.37365 0.0
N630 N 0.50467 0.10699 0.25295 0.0
C631 C 0.52519 0.10696 0.26668 0.0
C632 C 0.53127 0.10836 0.332 0.0
C633 C 0.79124 0.54932 0.87226 0.0
C634 C 0.77516 0.54781 0.82495 0.0
C635 C 0.78636 0.55005 0.93662 0.0
C636 C 0.76546 0.54981 0.95555 0.0
H637 H 0.80818 0.55089 0.85939 0.0
H638 H 0.79963 0.55226 0.97137 0.0
S639 S 0.71627 0.54308 0.85142 0.0
N640 N 0.73638 0.54363 0.80232 0.0
N641 N 0.72746 0.54554 0.92305 0.0
C642 C 0.74861 0.54687 0.90914 0.0
C643 C 0.75337 0.54569 0.84381 0.0
C644 C 0.44541 0.22823 0.87164 0.0
C645 C 0.4245 0.22478 0.8415 0.0
C646 C 0.44555 0.22382 0.93687 0.0
C647 C 0.42464 0.21529 0.97322 0.0
H648 H 0.46166 0.23428 0.84469 0.0
H649 H 0.46178 0.2261 0.95831 0.0
S650 S 0.3654 0.2034 0.91695 0.0
N651 N 0.38254 0.21276 0.85359 0.0
N652 N 0.38277 0.20395 0.9749 0.0
C653 C 0.4038 0.21205 0.94369 0.0
C654 C 0.40374 0.21693 0.87812 0.0
C655 C 0.74464 0.19611 0.87119 0.0
C656 C 0.75966 0.21191 0.82409 0.0
C657 C 0.7502 0.20089 0.93566 0.0
C658 C 0.7712 0.22139 0.9549 0.0
H659 H 0.72897 0.17942 0.8581 0.0
H660 H 0.73882 0.18776 0.97023 0.0
S661 S 0.81487 0.2699 0.85151 0.0
N662 N 0.79505 0.25015 0.80206 0.0
N663 N 0.80576 0.25882 0.923 0.0
C664 C 0.78555 0.23803 0.90872 0.0
C665 C 0.77969 0.23339 0.84329 0.0
C666 C 0.43749 0.2377 0.42065 0.0
C667 C 0.43716 0.22252 0.46888 0.0
C668 C 0.43904 0.23286 0.3568 0.0
C669 C 0.43991 0.21242 0.33863 0.0
H670 H 0.43558 0.25299 0.43217 0.0
H671 H 0.43801 0.24443 0.32143 0.0
S672 S 0.44251 0.16857 0.44684 0.0
N673 N 0.44031 0.18761 0.49453 0.0
N674 N 0.44281 0.17818 0.3743 0.0
C675 C 0.4412 0.19795 0.38654 0.0
C676 C 0.43995 0.20309 0.45177 0.0
C677 C 0.75088 0.19867 0.40761 0.0
C678 C 0.76597 0.21422 0.45498 0.0
C679 C 0.75526 0.20463 0.34347 0.0
C680 C 0.7752 0.22614 0.32438 0.0
H681 H 0.7359 0.1814 0.42011 0.0
H682 H 0.74378 0.19165 0.30863 0.0
S683 S 0.81881 0.27405 0.42987 0.0
N684 N 0.80034 0.25295 0.47871 0.0
N685 N 0.80906 0.26396 0.35783 0.0
C686 C 0.78973 0.24241 0.37131 0.0
C687 C 0.78498 0.2365 0.43677 0.0
C688 C 0.75183 0.54839 0.43629 0.0
C689 C 0.77331 0.54986 0.45533 0.0
C690 C 0.74615 0.54745 0.37189 0.0
C691 C 0.76152 0.54745 0.32462 0.0
H692 H 0.74007 0.54942 0.47103 0.0
H693 H 0.73005 0.54766 0.35898 0.0
S694 S 0.81824 0.54753 0.35125 0.0
N695 N 0.80883 0.54886 0.42289 0.0
N696 N 0.79792 0.54655 0.30207 0.0
C697 C 0.78214 0.54706 0.34353 0.0
C698 C 0.78811 0.54845 0.40891 0.0
C699 C 0.56297 0.10588 0.76828 0.0
C700 C 0.5483 0.10686 0.72053 0.0
C701 C 0.55819 0.10703 0.83237 0.0
C702 C 0.53825 0.1087 0.85096 0.0
H703 H 0.57788 0.10342 0.7561 0.0
H704 H 0.56931 0.10509 0.86745 0.0
S705 S 0.49575 0.11445 0.74449 0.0
N706 N 0.5144 0.11191 0.69608 0.0
N707 N 0.50494 0.11345 0.81676 0.0
C708 C 0.52421 0.11105 0.80371 0.0
C709 C 0.52936 0.11032 0.73836 0.0
C710 C 0.8804 0.45786 0.76447 0.0
C711 C 0.87863 0.44183 0.71681 0.0
C712 C 0.87895 0.45188 0.8286 0.0
C713 C 0.87617 0.42982 0.8474 0.0
H714 H 0.88371 0.47552 0.75218 0.0
H715 H 0.88152 0.46521 0.86357 0.0
S716 S 0.86806 0.38058 0.7412 0.0
N717 N 0.87166 0.40213 0.69264 0.0
N718 N 0.86955 0.39102 0.81341 0.0
C719 C 0.87303 0.4131 0.80023 0.0
C720 C 0.87407 0.41905 0.73481 0.0
C721 C 0.55698 0.46597 0.73052 0.0
C722 C 0.55195 0.44416 0.70346 0.0
C723 C 0.56098 0.46995 0.79549 0.0
C724 C 0.55939 0.452 0.83631 0.0
H725 H 0.55701 0.47979 0.70149 0.0
H726 H 0.56422 0.48693 0.81411 0.0
S727 S 0.5475 0.3919 0.78787 0.0
N728 N 0.54664 0.40469 0.72104 0.0
N729 N 0.5535 0.41188 0.84414 0.0
C730 C 0.55513 0.43031 0.80947 0.0
C731 C 0.55159 0.42647 0.74273 0.0
C732 C 0.53963 0.75426 0.65874 0.0
C733 C 0.53826 0.77428 0.67844 0.0
C734 C 0.54177 0.75029 0.59463 0.0
C735 C 0.54218 0.7659 0.54764 0.0
H736 H 0.54055 0.74236 0.69319 0.0
H737 H 0.54396 0.73526 0.58193 0.0
S738 S 0.5358 0.81906 0.57368 0.0
N739 N 0.53516 0.80869 0.64548 0.0
N740 N 0.53865 0.80077 0.52455 0.0
C741 C 0.53897 0.78494 0.56614 0.0
C742 C 0.53717 0.78925 0.63171 0.0
C743 C 0.19747 0.75636 0.57243 0.0
C744 C 0.21769 0.77775 0.55403 0.0
C745 C 0.19247 0.75056 0.63667 0.0
C746 C 0.20783 0.76569 0.68441 0.0
H747 H 0.18474 0.74475 0.53731 0.0
H748 H 0.17603 0.73453 0.64909 0.0
S749 S 0.26479 0.82222 0.65972 0.0
N750 N 0.25427 0.81304 0.58772 0.0
N751 N 0.24519 0.80187 0.70822 0.0
C752 C 0.22898 0.78626 0.66619 0.0
C753 C 0.23381 0.79237 0.60098 0.0
C754 C 0.19363 0.4383 0.59588 0.0
C755 C 0.20912 0.4391 0.54792 0.0
C756 C 0.19999 0.44022 0.65979 0.0
C757 C 0.22193 0.44262 0.67825 0.0
H758 H 0.17603 0.43529 0.5841 0.0
H759 H 0.18696 0.43828 0.69495 0.0
S760 S 0.2701 0.44876 0.57096 0.0
N761 N 0.24836 0.44506 0.52287 0.0
N762 N 0.26025 0.44821 0.64336 0.0
C763 C 0.23824 0.44503 0.63068 0.0
C764 C 0.23186 0.44341 0.56536 0.0
C765 C 0.4559 0.88089 0.20597 0.0
C766 C 0.44251 0.88392 0.15803 0.0
C767 C 0.45106 0.88211 0.27017 0.0
C768 C 0.43312 0.88709 0.28837 0.0
H769 H 0.47067 0.87822 0.19374 0.0
H770 H 0.46218 0.88031 0.30557 0.0
S771 S 0.39217 0.89513 0.18121 0.0
N772 N 0.40971 0.8907 0.13323 0.0
N773 N 0.40095 0.8936 0.25352 0.0
C774 C 0.41906 0.88928 0.24088 0.0
C775 C 0.42365 0.88752 0.17574 0.0
C776 C 0.10237 0.53774 0.17971 0.0
C777 C 0.10425 0.55938 0.16051 0.0
C778 C 0.10073 0.53178 0.24387 0.0
C779 C 0.10144 0.54746 0.29116 0.0
H780 H 0.1007 0.52467 0.14494 0.0
H781 H 0.09818 0.51442 0.25645 0.0
S782 S 0.10922 0.6076 0.26582 0.0
N783 N 0.10873 0.59742 0.19381 0.0
N784 N 0.10633 0.5864 0.31475 0.0
C785 C 0.10502 0.56985 0.27288 0.0
C786 C 0.10622 0.57575 0.20738 0.0
C787 C 0.44604 0.56039 0.18287 0.0
C788 C 0.42473 0.54004 0.16432 0.0
C789 C 0.45212 0.5652 0.24689 0.0
C790 C 0.43689 0.55013 0.29465 0.0
H791 H 0.4588 0.57187 0.14773 0.0
H792 H 0.46928 0.58043 0.25901 0.0
S793 S 0.37757 0.49636 0.27097 0.0
N794 N 0.38734 0.50588 0.19867 0.0
N795 N 0.39859 0.51536 0.3193 0.0
C796 C 0.41474 0.53074 0.27695 0.0
C797 C 0.40872 0.52557 0.21163 0.0
C798 C 0.10353 0.53369 0.77122 0.0
C799 C 0.10322 0.55428 0.79055 0.0
C800 C 0.10441 0.529 0.70675 0.0
C801 C 0.10545 0.54496 0.65971 0.0
H802 H 0.1016 0.52046 0.80571 0.0
H803 H 0.10323 0.51226 0.69359 0.0
S804 S 0.10893 0.60325 0.6875 0.0
N805 N 0.10667 0.59199 0.75889 0.0
N806 N 0.10882 0.58345 0.63794 0.0
C807 C 0.10711 0.56652 0.67905 0.0
C808 C 0.10581 0.57108 0.74449 0.0
C809 C 0.41725 0.52777 0.74692 0.0
C810 C 0.43216 0.54318 0.79474 0.0
C811 C 0.42202 0.53379 0.68288 0.0
C812 C 0.4422 0.55522 0.66434 0.0
H813 H 0.40207 0.51058 0.75901 0.0
H814 H 0.41058 0.52096 0.6477 0.0
S815 S 0.48567 0.60267 0.77112 0.0
N816 N 0.46676 0.58164 0.81941 0.0
N817 N 0.47621 0.59275 0.69879 0.0
C818 C 0.45664 0.5713 0.7117 0.0
C819 C 0.45148 0.56535 0.77703 0.0
C820 C 0.42033 0.87974 0.77013 0.0
C821 C 0.44258 0.88282 0.78822 0.0
C822 C 0.41431 0.87879 0.70597 0.0
C823 C 0.43013 0.88038 0.65787 0.0
H824 H 0.40811 0.87949 0.80552 0.0
H825 H 0.39754 0.87776 0.69397 0.0
S826 S 0.48914 0.88504 0.68141 0.0
N827 N 0.47948 0.88504 0.75366 0.0
N828 N 0.46795 0.88272 0.6333 0.0
C829 C 0.45164 0.8816 0.67566 0.0
C830 C 0.45794 0.883 0.74085 0.0
C831 C 0.21181 0.44999 0.14296 0.0
C832 C 0.19649 0.42892 0.17591 0.0
C833 C 0.21599 0.44936 0.07777 0.0
C834 C 0.20545 0.42757 0.04451 0.0
H835 H 0.22042 0.46697 0.16751 0.0
H836 H 0.22814 0.46584 0.05384 0.0
S837 S 0.16438 0.36753 0.10997 0.0
N838 N 0.17077 0.38583 0.17059 0.0
N839 N 0.17915 0.3846 0.04934 0.0
C840 C 0.19017 0.40649 0.07723 0.0
C841 C 0.18556 0.40718 0.14269 0.0
C842 C 0.53015 0.76615 0.08432 0.0
C843 C 0.54577 0.76411 0.04199 0.0
C844 C 0.53087 0.76204 0.14941 0.0
C845 C 0.54712 0.75559 0.17388 0.0
H846 H 0.51831 0.7723 0.0676 0.0
H847 H 0.51924 0.76474 0.18092 0.0
S848 S 0.5905 0.74631 0.08024 0.0
N849 N 0.57699 0.75431 0.02752 0.0
N850 N 0.57811 0.74586 0.14884 0.0
C851 C 0.56192 0.75228 0.13089 0.0
C852 C 0.56134 0.7568 0.06516 0.0
C853 C 0.2005 0.7597 0.16542 0.0
C854 C 0.22205 0.77976 0.18398 0.0
C855 C 0.19447 0.75487 0.10135 0.0
C856 C 0.20999 0.76962 0.05358 0.0
H857 H 0.18757 0.74846 0.20056 0.0
H858 H 0.17718 0.73984 0.0892 0.0
S859 S 0.26985 0.82264 0.07743 0.0
N860 N 0.25984 0.81338 0.14971 0.0
N861 N 0.2487 0.80384 0.02905 0.0
C862 C 0.2323 0.78875 0.07137 0.0
C863 C 0.23826 0.79396 0.13671 0.0
C864 C 0.19159 0.20624 0.26186 0.0
C865 C 0.16653 0.1946 0.26036 0.0
C866 C 0.20373 0.19423 0.24483 0.0
C867 C 0.19121 0.1702 0.22552 0.0
H868 H 0.20193 0.22469 0.27693 0.0
H869 H 0.22303 0.20375 0.24789 0.0
S870 S 0.12549 0.13221 0.20887 0.0
N871 N 0.12962 0.15805 0.23491 0.0
N872 N 0.15241 0.13554 0.20277 0.0
C873 C 0.16616 0.15854 0.22229 0.0
C874 C 0.15382 0.17072 0.23982 0.0
C875 C 0.77553 0.98159 0.25996 0.0
C876 C 0.78793 0.96981 0.27771 0.0
C877 C 0.78775 0.0054 0.24001 0.0
C878 C 0.81282 0.01825 0.23694 0.0
H879 H 0.75619 0.9723 0.26078 0.0
H880 H 0.77745 0.01375 0.22681 0.0
S881 S 0.85374 -0.00414 0.28072 0.0
N882 N 0.82673 0.97296 0.29263 0.0
N883 N 0.8497 0.01766 0.25502 0.0
C884 C 0.82546 0.00675 0.25512 0.0
C885 C 0.81303 0.98254 0.27561 0.0
C886 C 0.97716 0.81439 0.24727 0.0
C887 C 0.96472 0.7897 0.2353 0.0
C888 C 0.00102 0.82608 0.26631 0.0
C889 C 0.01344 0.81358 0.27399 0.0
H890 H 0.96838 0.82484 0.24239 0.0
H891 H 0.00979 0.84515 0.27468 0.0
S892 S 0.98909 0.7487 0.24816 0.0
N893 N 0.96655 0.75304 0.23226 0.0
N894 N 0.01161 0.77512 0.26789 0.0
C895 C 0.00128 0.78887 0.26212 0.0
C896 C 0.97687 0.77691 0.24275 0.0
C897 C 0.82129 0.81461 0.74814 0.0
C898 C 0.80917 0.78978 0.73851 0.0
C899 C 0.80916 0.82626 0.76782 0.0
C900 C 0.7844 0.81355 0.77854 0.0
H901 H 0.84038 0.82522 0.74065 0.0
H902 H 0.81929 0.84545 0.77402 0.0
S903 S 0.74433 0.74816 0.76107 0.0
N904 N 0.77102 0.75272 0.74188 0.0
N905 N 0.74813 0.7747 0.7788 0.0
C906 C 0.77202 0.78867 0.7695 0.0
C907 C 0.78441 0.77677 0.74943 0.0
C908 C 0.16858 0.0053 0.74984 0.0
C909 C 0.19298 0.01701 0.73448 0.0
C910 C 0.15661 0.98146 0.76895 0.0
C911 C 0.16856 0.96839 0.77337 0.0
H912 H 0.15859 0.01462 0.74756 0.0
H913 H 0.13778 0.97323 0.78006 0.0
S914 S 0.23244 0.99067 0.73741 0.0
N915 N 0.22872 0.01377 0.72436 0.0
N916 N 0.20614 0.96878 0.76022 0.0
C917 C 0.19297 0.97983 0.75804 0.0
C918 C 0.20519 0.00419 0.73854 0.0
C919 C 0.97796 0.19581 0.74318 0.0
C920 C 0.96582 0.17131 0.72845 0.0
C921 C 0.0021 0.20764 0.76059 0.0
C922 C 0.01489 0.19537 0.76413 0.0
H923 H 0.96874 0.20591 0.74182 0.0
H924 H 0.01075 0.22652 0.77146 0.0
S925 S -0.00849 0.13122 0.72818 0.0
N926 N 0.96856 0.1353 0.71705 0.0
N927 N 0.01378 0.15746 0.74999 0.0
C928 C 0.00299 0.1709 0.74906 0.0
C929 C 0.97849 0.1589 0.73109 0.0
C930 C 0.82532 0.50797 0.59379 0.0
C931 C 0.83792 0.53266 0.60561 0.0
C932 C 0.8371 0.49595 0.5744 0.0
C933 C 0.86199 0.50812 0.56623 0.0
H934 H 0.8061 0.49774 0.5991 0.0
H935 H 0.82655 0.47689 0.56627 0.0
S936 S 0.90335 0.57292 0.59099 0.0
N937 N 0.87669 0.56901 0.60761 0.0
N938 N 0.89897 0.54631 0.57136 0.0
C939 C 0.87489 0.53285 0.57777 0.0
C940 C 0.86283 0.54515 0.59748 0.0
C941 C 0.47615 0.31811 0.62732 0.0
C942 C 0.45107 0.30536 0.62581 0.0
C943 C 0.48898 0.34186 0.60784 0.0
C944 C 0.47727 0.35388 0.5863 0.0
H945 H 0.48608 0.30954 0.64216 0.0
H946 H 0.5083 0.35074 0.60903 0.0
S947 S 0.41179 0.32912 0.57717 0.0
N948 N 0.41487 0.30683 0.60398 0.0
N949 N 0.43915 0.35176 0.56756 0.0
C950 C 0.45218 0.3417 0.58665 0.0
C951 C 0.43905 0.31736 0.60638 0.0
C952 C 0.64406 0.11529 0.58103 0.0
C953 C 0.63221 0.1279 0.56611 0.0
C954 C 0.66811 0.12732 0.5991 0.0
C955 C 0.68113 0.15237 0.60306 0.0
H956 H 0.63466 0.09596 0.57939 0.0
H957 H 0.67651 0.11687 0.61014 0.0
S958 S 0.65856 0.19376 0.56696 0.0
N959 N 0.63545 0.16688 0.55507 0.0
N960 N 0.68056 0.18945 0.58919 0.0
C961 C 0.66955 0.16521 0.58777 0.0
C962 C 0.64511 0.15298 0.56917 0.0
C963 C 0.47597 0.1605 0.0926 0.0
C964 C 0.45128 0.14826 0.10438 0.0
C965 C 0.48767 0.14831 0.0739 0.0
C966 C 0.47517 0.12339 0.06623 0.0
H967 H 0.48648 0.17969 0.09818 0.0
H968 H 0.50677 0.15857 0.06623 0.0
S969 S 0.41012 0.08299 0.08908 0.0
N970 N 0.4145 0.10985 0.10551 0.0
N971 N 0.43659 0.08684 0.07035 0.0
C972 C 0.45039 0.11089 0.07689 0.0
C973 C 0.43843 0.12336 0.09602 0.0
C974 C 0.83703 0.33987 0.07946 0.0
C975 C 0.86163 0.35194 0.06661 0.0
C976 C 0.82509 0.31599 0.09815 0.0
C977 C 0.83724 0.30318 0.1046 0.0
H978 H 0.82684 0.34895 0.0755 0.0
H979 H 0.80609 0.3075 0.10721 0.0
S980 S 0.90178 0.32648 0.07619 0.0
N981 N 0.89786 0.34935 0.06148 0.0
N982 N 0.87529 0.30424 0.09647 0.0
C983 C 0.86188 0.31497 0.09191 0.0
C984 C 0.87409 0.3394 0.07289 0.0
C985 C 0.669 0.53928 0.09851 0.0
C986 C 0.68195 0.52723 0.10416 0.0
C987 C 0.64515 0.52728 0.07884 0.0
C988 C 0.63342 0.50282 0.06386 0.0
H989 H 0.67734 0.55815 0.10923 0.0
H990 H 0.63583 0.53726 0.07572 0.0
S991 S 0.65953 0.46314 0.06985 0.0
N992 N 0.68138 0.48949 0.09258 0.0
N993 N 0.6366 0.46697 0.05542 0.0
C994 C 0.6462 0.49057 0.06895 0.0
C995 C 0.67045 0.50276 0.08923 0.0
C996 C 0.49314 0.83954 0.95092 0.0
C997 C 0.50577 0.86463 0.95098 0.0
C998 C 0.50418 0.82658 0.93364 0.0
C999 C 0.52834 0.83816 0.91584 0.0
H1000 H 0.47438 0.82971 0.96326 0.0
H1001 H 0.49355 0.80728 0.9338 0.0
S1002 S 0.5697 0.90361 0.9104 0.0
N1003 N 0.54399 0.90069 0.93347 0.0
N1004 N 0.56487 0.87619 0.90112 0.0
C1005 C 0.54142 0.86325 0.91711 0.0
C1006 C 0.53012 0.87653 0.93468 0.0
C1007 C 0.11104 0.64967 0.93565 0.0
C1008 C 0.12293 0.63648 0.93654 0.0
C1009 C 0.12288 0.67366 0.91708 0.0
C1010 C 0.14698 0.68523 0.89852 0.0
H1011 H 0.0925 0.64149 0.9498 0.0
H1012 H 0.11315 0.68325 0.91816 0.0
S1013 S 0.18569 0.65811 0.88859 0.0
N1014 N 0.15985 0.63643 0.91463 0.0
N1015 N 0.18203 0.68141 0.87956 0.0
C1016 C 0.15892 0.67209 0.89797 0.0
C1017 C 0.14692 0.64774 0.91709 0.0
C1018 C 0.31083 0.44514 0.91313 0.0
C1019 C 0.29803 0.45743 0.91089 0.0
C1020 C 0.33485 0.45676 0.93153 0.0
C1021 C 0.34689 0.48106 0.94833 0.0
H1022 H 0.30232 0.42646 0.90012 0.0
H1023 H 0.34412 0.4467 0.93158 0.0
S1024 S 0.32106 0.52101 0.9533 0.0
N1025 N 0.29895 0.49506 0.92913 0.0
N1026 N 0.34399 0.51683 0.96375 0.0
C1027 C 0.33416 0.49343 0.94745 0.0
C1028 C 0.30975 0.48164 0.92867 0.0
C1029 C 0.14357 0.49297 0.42545 0.0
C1030 C 0.11885 0.48093 0.43674 0.0
C1031 C 0.15502 0.48064 0.40579 0.0
C1032 C 0.14222 0.45578 0.39691 0.0
H1033 H 0.15423 0.51213 0.43161 0.0
H1034 H 0.17415 0.49071 0.39835 0.0
S1035 S 0.07704 0.41588 0.41887 0.0
N1036 N 0.08178 0.44276 0.43666 0.0
N1037 N 0.1034 0.4195 0.39991 0.0
C1038 C 0.11745 0.44348 0.40759 0.0
C1039 C 0.10575 0.45608 0.42752 0.0
C1040 C 0.52505 0.64627 0.43242 0.0
C1041 C 0.50046 0.63416 0.44582 0.0
C1042 C 0.53686 0.67018 0.41304 0.0
C1043 C 0.52448 0.68275 0.40603 0.0
H1044 H 0.53524 0.6372 0.43628 0.0
H1045 H 0.55582 0.6788 0.40321 0.0
S1046 S 0.46007 0.65942 0.43756 0.0
N1047 N 0.46424 0.63674 0.45248 0.0
N1048 N 0.48638 0.68153 0.41578 0.0
C1049 C 0.49992 0.67091 0.41989 0.0
C1050 C 0.48794 0.64665 0.43994 0.0
C1051 C 0.33632 0.87485 0.43781 0.0
C1052 C 0.34934 0.86277 0.43889 0.0
C1053 C 0.31234 0.8632 0.41908 0.0
C1054 C 0.30055 0.83907 0.40063 0.0
H1055 H 0.34468 0.89344 0.45166 0.0
H1056 H 0.30293 0.87312 0.41982 0.0
S1057 S 0.32696 0.79969 0.39244 0.0
N1058 N 0.34886 0.8255 0.41813 0.0
N1059 N 0.30388 0.80366 0.38279 0.0
C1060 C 0.31345 0.82687 0.40069 0.0
C1061 C 0.33782 0.83869 0.41993 0.0
C1062 C 0.31667 0.17605 0.19418 0.0
C1063 C 0.2988 0.15189 0.19692 0.0
C1064 C 0.34078 0.18271 0.18903 0.0
C1065 C 0.34797 0.16547 0.18631 0.0
H1066 H 0.31203 0.18998 0.19532 0.0
H1067 H 0.35384 0.20156 0.18627 0.0
S1068 S 0.30824 0.09977 0.19407 0.0
N1069 N 0.28998 0.11061 0.19837 0.0
N1070 N 0.33532 0.12318 0.18855 0.0
C1071 C 0.33034 0.14125 0.19011 0.0
C1072 C 0.30575 0.13445 0.19545 0.0
C1073 C 0.83862 0.1829 0.16571 0.0
C1074 C 0.81474 0.17694 0.15679 0.0
C1075 C 0.84474 0.16522 0.17517 0.0
C1076 C 0.82722 0.14086 0.17606 0.0
H1077 H 0.85276 0.2014 0.16566 0.0
H1078 H 0.86341 0.17076 0.18179 0.0
S1079 S 0.76204 0.11573 0.15457 0.0
N1080 N 0.77339 0.14489 0.14914 0.0
N1081 N 0.78495 0.11166 0.16689 0.0
C1082 C 0.80325 0.13461 0.16705 0.0
C1083 C 0.797 0.15264 0.1574 0.0
C1084 C 0.82832 0.6442 0.16367 0.0
C1085 C 0.80395 0.63709 0.15934 0.0
C1086 C 0.84567 0.66812 0.17334 0.0
C1087 C 0.83934 0.68589 0.17906 0.0
H1088 H 0.83413 0.63117 0.15983 0.0
H1089 H 0.86419 0.67267 0.17634 0.0
S1090 S 0.77795 0.67673 0.17033 0.0
N1091 N 0.77435 0.64979 0.16098 0.0
N1092 N 0.80694 0.6948 0.1791 0.0
C1093 C 0.81502 0.67908 0.17462 0.0
C1094 C 0.79733 0.65467 0.16477 0.0
C1095 C 0.17824 0.34283 0.35036 0.0
C1096 C 0.16064 0.34954 0.35261 0.0
C1097 C 0.17224 0.31919 0.33782 0.0
C1098 C 0.14843 0.3014 0.32686 0.0
H1099 H 0.19685 0.35594 0.35798 0.0
H1100 H 0.1864 0.31488 0.33668 0.0
S1101 S 0.09561 0.30974 0.32692 0.0
N1102 N 0.11838 0.33647 0.34263 0.0
N1103 N 0.1071 0.29215 0.31893 0.0
C1104 C 0.13063 0.30787 0.32908 0.0
C1105 C 0.13674 0.3319 0.34203 0.0
C1106 C 0.64878 0.80423 0.34702 0.0
C1107 C 0.63052 0.80981 0.35411 0.0
C1108 C 0.67248 0.82213 0.33755 0.0
C1109 C 0.67891 0.84637 0.33494 0.0
H1110 H 0.64475 0.78584 0.34815 0.0
H1111 H 0.68585 0.81685 0.33213 0.0
S1112 S 0.63794 0.87059 0.35246 0.0
N1113 N 0.62051 0.84141 0.35898 0.0
N1114 N 0.66514 0.87508 0.34132 0.0
C1115 C 0.66089 0.85227 0.34256 0.0
C1116 C 0.63669 0.83399 0.35212 0.0
C1117 C 0.17989 0.84422 0.33973 0.0
C1118 C 0.17417 0.82051 0.35066 0.0
C1119 C 0.16198 0.85005 0.33004 0.0
C1120 C 0.13766 0.8324 0.33088 0.0
H1121 H 0.19835 0.85842 0.33835 0.0
H1122 H 0.1673 0.86859 0.32181 0.0
S1123 S 0.11315 0.76761 0.35834 0.0
N1124 N 0.14236 0.77922 0.36233 0.0
N1125 N 0.10879 0.79022 0.34408 0.0
C1126 C 0.13168 0.80862 0.34196 0.0
C1127 C 0.1499 0.80267 0.35187 0.0
C1128 C 0.67003 0.84615 0.82898 0.0
C1129 C 0.67722 0.82903 0.82193 0.0
C1130 C 0.64593 0.83933 0.836 0.0
C1131 C 0.62808 0.81513 0.83605 0.0
H1132 H 0.68313 0.86502 0.82977 0.0
H1133 H 0.64132 0.85318 0.84186 0.0
S1134 S 0.63742 0.76328 0.81707 0.0
N1135 N 0.66451 0.7868 0.81399 0.0
N1136 N 0.6192 0.77395 0.827 0.0
C1137 C 0.63498 0.7978 0.82815 0.0
C1138 C 0.65955 0.80476 0.82115 0.0
C1139 C 0.14039 0.80394 0.84047 0.0
C1140 C 0.16428 0.81034 0.8519 0.0
C1141 C 0.13389 0.82134 0.83074 0.0
C1142 C 0.15102 0.84582 0.83207 0.0
H1143 H 0.12659 0.78532 0.83865 0.0
H1144 H 0.11526 0.81551 0.82206 0.0
S1145 S 0.21598 0.87206 0.8611 0.0
N1146 N 0.20515 0.84295 0.86468 0.0
N1147 N 0.19289 0.87561 0.84638 0.0
C1148 C 0.17496 0.8525 0.84374 0.0
C1149 C 0.18159 0.83478 0.85369 0.0
C1150 C 0.1526 0.34453 0.82258 0.0
C1151 C 0.17691 0.35134 0.82705 0.0
C1152 C 0.13499 0.32061 0.81417 0.0
C1153 C 0.14098 0.30256 0.80979 0.0
H1154 H 0.14702 0.35773 0.82624 0.0
H1155 H 0.11652 0.31626 0.81166 0.0
S1156 S 0.20214 0.31102 0.81684 0.0
N1157 N 0.20613 0.33815 0.82518 0.0
N1158 N 0.17306 0.29318 0.80925 0.0
C1159 C 0.16527 0.30914 0.81326 0.0
C1160 C 0.18322 0.33353 0.82193 0.0
C1161 C 0.84569 0.67864 0.67696 0.0
C1162 C 0.82803 0.68527 0.67901 0.0
C1163 C 0.83969 0.65486 0.66732 0.0
C1164 C 0.8158 0.63679 0.65934 0.0
H1165 H 0.86436 0.69191 0.68275 0.0
H1166 H 0.85393 0.65065 0.66627 0.0
S1167 S 0.76276 0.64474 0.66088 0.0
N1168 N 0.78561 0.67183 0.67232 0.0
N1169 N 0.7743 0.62713 0.65422 0.0
C1170 C 0.79793 0.64316 0.66125 0.0
C1171 C 0.80405 0.6674 0.6711 0.0
C1172 C 0.30451 0.16448 0.66343 0.0
C1173 C 0.29834 0.14043 0.67022 0.0
C1174 C 0.32822 0.18242 0.65435 0.0
C1175 C 0.34673 0.17703 0.6518 0.0
H1176 H 0.29093 0.1696 0.66555 0.0
H1177 H 0.33206 0.2007 0.65023 0.0
S1178 S 0.34003 0.11672 0.66525 0.0
N1179 N 0.31261 0.11206 0.67238 0.0
N1180 N 0.35725 0.14578 0.6554 0.0
C1181 C 0.3408 0.153 0.65753 0.0
C1182 C 0.3166 0.13469 0.66673 0.0
C1183 C 0.8459 0.17734 0.67463 0.0
C1184 C 0.83986 0.15331 0.68 0.0
C1185 C 0.82833 0.18364 0.66505 0.0
C1186 C 0.80402 0.16615 0.66044 0.0
H1187 H 0.86436 0.19146 0.67771 0.0
H1188 H 0.8339 0.20242 0.66135 0.0
S1189 S 0.77875 0.10059 0.67097 0.0
N1190 N 0.80778 0.11185 0.67979 0.0
N1191 N 0.77481 0.12373 0.66181 0.0
C1192 C 0.7977 0.14203 0.66572 0.0
C1193 C 0.8156 0.1356 0.67551 0.0
C1194 C 0.00735 0.51661 0.49517 0.0
C1195 C 0.01455 0.49939 0.49731 0.0
C1196 C 0.98346 0.51027 0.50426 0.0
C1197 C 0.96585 0.48645 0.51584 0.0
H1198 H 0.02024 0.53519 0.48628 0.0
H1199 H 0.97878 0.52415 0.50181 0.0
S1200 S 0.97547 0.43457 0.52735 0.0
N1201 N 0.00221 0.45751 0.51273 0.0
N1202 N 0.95731 0.44555 0.52982 0.0
C1203 C 0.97282 0.46904 0.5185 0.0
C1204 C -0.00284 0.47551 0.50921 0.0
C1205 C 0.50751 0.51489 0.48605 0.0
C1206 C 0.48339 0.50876 0.48755 0.0
C1207 C 0.51416 0.49743 0.49165 0.0
C1208 C 0.49694 0.47316 0.4992 0.0
H1209 H 0.52143 0.53335 0.48081 0.0
H1210 H 0.533 0.50308 0.49067 0.0
S1211 S 0.43127 0.44765 0.50516 0.0
N1212 N 0.44213 0.47661 0.49628 0.0
N1213 N 0.45467 0.44385 0.50699 0.0
C1214 C 0.47272 0.46673 0.50019 0.0
C1215 C 0.46594 0.48452 0.49432 0.0
C1216 C 0.51337 0.00251 0.50851 0.0
C1217 C 0.50695 0.01989 0.52131 0.0
C1218 C 0.49597 0.97859 0.49886 0.0
C1219 C 0.47148 0.9711 0.50167 0.0
H1220 H 0.53198 0.00742 0.50532 0.0
H1221 H 0.50184 0.96591 0.48887 0.0
S1222 S 0.44521 0.00946 0.53568 0.0
N1223 N 0.47433 0.02788 0.5377 0.0
N1224 N 0.44167 0.9829 0.51956 0.0
C1225 C 0.46478 0.98823 0.51511 0.0
C1226 C 0.4825 0.01262 0.52494 0.0
C1227 C 0.51304 0.01229 0.00616 0.0
C1228 C 0.49497 0.0182 0.01319 0.0
C1229 C 0.50751 0.98867 0.99599 0.0
C1230 C 0.48369 0.97005 0.99238 0.0
H1231 H 0.53168 0.02602 0.00831 0.0
H1232 H 0.52204 0.98501 0.99094 0.0
S1233 S 0.42968 0.97594 0.00911 0.0
N1234 N 0.45225 0.00343 0.0167 0.0
N1235 N 0.4418 0.95905 0.99761 0.0
C1236 C 0.46541 0.97568 0.99951 0.0
C1237 C 0.47106 -0.00025 0.00993 0.0
C1238 C 0.97415 0.49964 0.01126 0.0
C1239 C 0.96711 0.47523 0.01003 0.0
C1240 C -0.002 0.51729 1.00205 0.0
C1241 C 0.01575 0.51121 0.99126 0.0
H1242 H 0.96114 0.50524 0.01949 0.0
H1243 H 0.00255 0.53583 1.00377 0.0
S1244 S 0.00661 0.44982 0.98242 0.0
N1245 N 0.97978 0.44588 0.9964 0.0
N1246 N 0.0246 0.47899 0.97909 0.0
C1247 C 0.00895 0.48685 0.98956 0.0
C1248 C 0.98464 0.46888 0.99896 0.0
C1249 C 0.48468 0.46857 0.01096 0.0
C1250 C 0.50885 0.48623 0.01755 0.0
C1251 C 0.46692 0.4747 1.00264 0.0
C1252 C 0.47265 0.49872 1.00046 0.0
H1253 H 0.4794 0.44982 0.01182 0.0
H1254 H 0.44857 0.46048 0.99759 0.0
S1255 S 0.53326 0.55179 0.01659 0.0
N1256 N 0.53755 0.52877 0.02226 0.0
N1257 N 0.50426 0.54031 0.00657 0.0
C1258 C 0.49675 0.51656 0.00748 0.0
C1259 C 0.51482 0.51032 0.01607 0.0
loop_
_geom_bond_atom_site_label_1
_geom_bond_atom_site_label_2
_geom_bond_distance
_geom_bond_site_symmetry_2
_ccdc_geom_bond_type
In0 O1 2.294 . S
In0 O2 2.326 . S
In0 O6 2.266 . S
In0 O7 2.326 . S
In0 O8 2.266 . S
In0 O9 2.326 . S
In0 O11 2.294 . S
In0 O12 2.326 . S
O1 In0 2.294 . S
O1 C10 1.240 . S
O2 In0 2.326 . S
O2 C10 1.252 . S
C3 O6 1.252 . S
C3 O7 1.260 . S
C4 O11 1.240 . S
C4 O12 1.252 . S
C5 O8 1.252 . S
C5 O9 1.260 . S
O6 In0 2.266 . S
O6 C3 1.252 . S
O7 In0 2.326 . S
O7 C3 1.260 . S
O8 In0 2.266 . S
O8 C5 1.252 . S
O9 In0 2.326 . S
O9 C5 1.260 . S
C10 O1 1.240 . S
C10 O2 1.252 . S
O11 In0 2.294 . S
O11 C4 1.240 . S
O12 In0 2.326 . S
O12 C4 1.252 . S
In13 O14 2.294 . S
In13 O15 2.326 . S
In13 O19 2.266 . S
In13 O20 2.326 . S
In13 O21 2.266 . S
In13 O22 2.326 . S
In13 O24 2.294 . S
In13 O25 2.326 . S
O14 In13 2.294 . S
O14 C23 1.240 . S
O15 In13 2.326 . S
O15 C23 1.252 . S
C16 O19 1.252 . S
C16 O20 1.260 . S
C17 O24 1.240 . S
C17 O25 1.252 . S
C18 O21 1.252 . S
C18 O22 1.260 . S
O19 In13 2.266 . S
O19 C16 1.252 . S
O20 In13 2.326 . S
O20 C16 1.260 . S
O21 In13 2.266 . S
O21 C18 1.252 . S
O22 In13 2.326 . S
O22 C18 1.260 . S
C23 O14 1.240 . S
C23 O15 1.252 . S
O24 In13 2.294 . S
O24 C17 1.240 . S
O25 In13 2.326 . S
O25 C17 1.252 . S
In26 O27 2.294 . S
In26 O28 2.326 . S
In26 O32 2.266 . S
In26 O33 2.326 . S
In26 O34 2.266 . S
In26 O35 2.326 . S
In26 O37 2.294 . S
In26 O38 2.326 . S
O27 In26 2.294 . S
O27 C36 1.240 . S
O28 In26 2.326 . S
O28 C36 1.252 . S
C29 O32 1.252 . S
C29 O33 1.260 . S
C30 O37 1.240 . S
C30 O38 1.252 . S
C31 O34 1.252 . S
C31 O35 1.260 . S
O32 In26 2.266 . S
O32 C29 1.252 . S
O33 In26 2.326 . S
O33 C29 1.260 . S
O34 In26 2.266 . S
O34 C31 1.252 . S
O35 In26 2.326 . S
O35 C31 1.260 . S
C36 O27 1.240 . S
C36 O28 1.252 . S
O37 In26 2.294 . S
O37 C30 1.240 . S
O38 In26 2.326 . S
O38 C30 1.252 . S
In39 O40 2.294 . S
In39 O41 2.326 . S
In39 O45 2.266 . S
In39 O46 2.326 . S
In39 O47 2.266 . S
In39 O48 2.326 . S
In39 O50 2.294 . S
In39 O51 2.326 . S
O40 In39 2.294 . S
O40 C49 1.240 . S
O41 In39 2.326 . S
O41 C49 1.252 . S
C42 O45 1.252 . S
C42 O46 1.260 . S
C43 O50 1.240 . S
C43 O51 1.252 . S
C44 O47 1.252 . S
C44 O48 1.260 . S
O45 In39 2.266 . S
O45 C42 1.252 . S
O46 In39 2.326 . S
O46 C42 1.260 . S
O47 In39 2.266 . S
O47 C44 1.252 . S
O48 In39 2.326 . S
O48 C44 1.260 . S
C49 O40 1.240 . S
C49 O41 1.252 . S
O50 In39 2.294 . S
O50 C43 1.240 . S
O51 In39 2.326 . S
O51 C43 1.252 . S
In52 O53 2.294 . S
In52 O54 2.326 . S
In52 O58 2.266 . S
In52 O59 2.326 . S
In52 O60 2.266 . S
In52 O61 2.326 . S
In52 O63 2.294 . S
In52 O64 2.326 . S
O53 In52 2.294 . S
O53 C62 1.240 . S
O54 In52 2.326 . S
O54 C62 1.252 . S
C55 O58 1.252 . S
C55 O59 1.260 . S
C56 O63 1.240 . S
C56 O64 1.252 . S
C57 O60 1.252 . S
C57 O61 1.260 . S
O58 In52 2.266 . S
O58 C55 1.252 . S
O59 In52 2.326 . S
O59 C55 1.260 . S
O60 In52 2.266 . S
O60 C57 1.252 . S
O61 In52 2.326 . S
O61 C57 1.260 . S
C62 O53 1.240 . S
C62 O54 1.252 . S
O63 In52 2.294 . S
O63 C56 1.240 . S
O64 In52 2.326 . S
O64 C56 1.252 . S
In65 O66 2.294 . S
In65 O67 2.326 . S
In65 O71 2.266 . S
In65 O72 2.326 . S
In65 O73 2.266 . S
In65 O74 2.326 . S
In65 O76 2.294 . S
In65 O77 2.326 . S
O66 In65 2.294 . S
O66 C75 1.240 . S
O67 In65 2.326 . S
O67 C75 1.252 . S
C68 O71 1.252 . S
C68 O72 1.260 . S
C69 O76 1.240 . S
C69 O77 1.252 . S
C70 O73 1.252 . S
C70 O74 1.260 . S
O71 In65 2.266 . S
O71 C68 1.252 . S
O72 In65 2.326 . S
O72 C68 1.260 . S
O73 In65 2.266 . S
O73 C70 1.252 . S
O74 In65 2.326 . S
O74 C70 1.260 . S
C75 O66 1.240 . S
C75 O67 1.252 . S
O76 In65 2.294 . S
O76 C69 1.240 . S
O77 In65 2.326 . S
O77 C69 1.252 . S
In78 O79 2.294 . S
In78 O80 2.326 . S
In78 O84 2.266 . S
In78 O85 2.326 . S
In78 O86 2.266 . S
In78 O87 2.326 . S
In78 O89 2.294 . S
In78 O90 2.326 . S
O79 In78 2.294 . S
O79 C88 1.240 . S
O80 In78 2.326 . S
O80 C88 1.252 . S
C81 O84 1.252 . S
C81 O85 1.260 . S
C82 O89 1.240 . S
C82 O90 1.252 . S
C83 O86 1.252 . S
C83 O87 1.260 . S
O84 In78 2.266 . S
O84 C81 1.252 . S
O85 In78 2.326 . S
O85 C81 1.260 . S
O86 In78 2.266 . S
O86 C83 1.252 . S
O87 In78 2.326 . S
O87 C83 1.260 . S
C88 O79 1.240 . S
C88 O80 1.252 . S
O89 In78 2.294 . S
O89 C82 1.240 . S
O90 In78 2.326 . S
O90 C82 1.252 . S
In91 O92 2.294 . S
In91 O93 2.326 . S
In91 O97 2.266 . S
In91 O98 2.326 . S
In91 O99 2.266 . S
In91 O100 2.326 . S
In91 O102 2.294 . S
In91 O103 2.326 . S
O92 In91 2.294 . S
O92 C101 1.240 . S
O93 In91 2.326 . S
O93 C101 1.252 . S
C94 O97 1.252 . S
C94 O98 1.260 . S
C95 O102 1.240 . S
C95 O103 1.252 . S
C96 O99 1.252 . S
C96 O100 1.260 . S
O97 In91 2.266 . S
O97 C94 1.252 . S
O98 In91 2.326 . S
O98 C94 1.260 . S
O99 In91 2.266 . S
O99 C96 1.252 . S
O100 In91 2.326 . S
O100 C96 1.260 . S
C101 O92 1.240 . S
C101 O93 1.252 . S
O102 In91 2.294 . S
O102 C95 1.240 . S
O103 In91 2.326 . S
O103 C95 1.252 . S
In104 O105 2.294 . S
In104 O106 2.326 . S
In104 O110 2.266 . S
In104 O111 2.326 . S
In104 O112 2.266 . S
In104 O113 2.326 . S
In104 O115 2.294 . S
In104 O116 2.326 . S
O105 In104 2.294 . S
O105 C114 1.240 . S
O106 In104 2.326 . S
O106 C114 1.252 . S
C107 O110 1.252 . S
C107 O111 1.260 . S
C108 O115 1.240 . S
C108 O116 1.252 . S
C109 O112 1.252 . S
C109 O113 1.260 . S
O110 In104 2.266 . S
O110 C107 1.252 . S
O111 In104 2.326 . S
O111 C107 1.260 . S
O112 In104 2.266 . S
O112 C109 1.252 . S
O113 In104 2.326 . S
O113 C109 1.260 . S
C114 O105 1.240 . S
C114 O106 1.252 . S
O115 In104 2.294 . S
O115 C108 1.240 . S
O116 In104 2.326 . S
O116 C108 1.252 . S
In117 O118 2.294 . S
In117 O119 2.326 . S
In117 O123 2.266 . S
In117 O124 2.326 . S
In117 O125 2.266 . S
In117 O126 2.326 . S
In117 O128 2.294 . S
In117 O129 2.326 . S
O118 In117 2.294 . S
O118 C127 1.240 . S
O119 In117 2.326 . S
O119 C127 1.252 . S
C120 O123 1.252 . S
C120 O124 1.260 . S
C121 O128 1.240 . S
C121 O129 1.252 . S
C122 O125 1.252 . S
C122 O126 1.260 . S
O123 In117 2.266 . S
O123 C120 1.252 . S
O124 In117 2.326 . S
O124 C120 1.260 . S
O125 In117 2.266 . S
O125 C122 1.252 . S
O126 In117 2.326 . S
O126 C122 1.260 . S
C127 O118 1.240 . S
C127 O119 1.252 . S
O128 In117 2.294 . S
O128 C121 1.240 . S
O129 In117 2.326 . S
O129 C121 1.252 . S
In130 O131 2.294 . S
In130 O132 2.326 . S
In130 O136 2.266 . S
In130 O137 2.326 . S
In130 O138 2.266 . S
In130 O139 2.326 . S
In130 O141 2.294 . S
In130 O142 2.326 . S
O131 In130 2.294 . S
O131 C140 1.240 . S
O132 In130 2.326 . S
O132 C140 1.252 . S
C133 O136 1.252 . S
C133 O137 1.260 . S
C134 O141 1.240 . S
C134 O142 1.252 . S
C135 O138 1.252 . S
C135 O139 1.260 . S
O136 In130 2.266 . S
O136 C133 1.252 . S
O137 In130 2.326 . S
O137 C133 1.260 . S
O138 In130 2.266 . S
O138 C135 1.252 . S
O139 In130 2.326 . S
O139 C135 1.260 . S
C140 O131 1.240 . S
C140 O132 1.252 . S
O141 In130 2.294 . S
O141 C134 1.240 . S
O142 In130 2.326 . S
O142 C134 1.252 . S
In143 O144 2.294 . S
In143 O145 2.326 . S
In143 O149 2.266 . S
In143 O150 2.326 . S
In143 O151 2.266 . S
In143 O152 2.326 . S
In143 O154 2.294 . S
In143 O155 2.326 . S
O144 In143 2.294 . S
O144 C153 1.240 . S
O145 In143 2.326 . S
O145 C153 1.252 . S
C146 O149 1.252 . S
C146 O150 1.260 . S
C147 O154 1.240 . S
C147 O155 1.252 . S
C148 O151 1.252 . S
C148 O152 1.260 . S
O149 In143 2.266 . S
O149 C146 1.252 . S
O150 In143 2.326 . S
O150 C146 1.260 . S
O151 In143 2.266 . S
O151 C148 1.252 . S
O152 In143 2.326 . S
O152 C148 1.260 . S
C153 O144 1.240 . S
C153 O145 1.252 . S
O154 In143 2.294 . S
O154 C147 1.240 . S
O155 In143 2.326 . S
O155 C147 1.252 . S
In156 O157 2.294 . S
In156 O158 2.326 . S
In156 O162 2.266 . S
In156 O163 2.326 . S
In156 O164 2.266 . S
In156 O165 2.326 . S
In156 O167 2.294 . S
In156 O168 2.326 . S
O157 In156 2.294 . S
O157 C166 1.240 . S
O158 In156 2.326 . S
O158 C166 1.252 . S
C159 O162 1.252 . S
C159 O163 1.260 . S
C160 O167 1.240 . S
C160 O168 1.252 . S
C161 O164 1.252 . S
C161 O165 1.260 . S
O162 In156 2.266 . S
O162 C159 1.252 . S
O163 In156 2.326 . S
O163 C159 1.260 . S
O164 In156 2.266 . S
O164 C161 1.252 . S
O165 In156 2.326 . S
O165 C161 1.260 . S
C166 O157 1.240 . S
C166 O158 1.252 . S
O167 In156 2.294 . S
O167 C160 1.240 . S
O168 In156 2.326 . S
O168 C160 1.252 . S
In169 O170 2.294 . S
In169 O171 2.326 . S
In169 O175 2.266 . S
In169 O176 2.326 . S
In169 O177 2.266 . S
In169 O178 2.326 . S
In169 O180 2.294 . S
In169 O181 2.326 . S
O170 In169 2.294 . S
O170 C179 1.240 . S
O171 In169 2.326 . S
O171 C179 1.252 . S
C172 O175 1.252 . S
C172 O176 1.260 . S
C173 O180 1.240 . S
C173 O181 1.252 . S
C174 O177 1.252 . S
C174 O178 1.260 . S
O175 In169 2.266 . S
O175 C172 1.252 . S
O176 In169 2.326 . S
O176 C172 1.260 . S
O177 In169 2.266 . S
O177 C174 1.252 . S
O178 In169 2.326 . S
O178 C174 1.260 . S
C179 O170 1.240 . S
C179 O171 1.252 . S
O180 In169 2.294 . S
O180 C173 1.240 . S
O181 In169 2.326 . S
O181 C173 1.252 . S
In182 O183 2.294 . S
In182 O184 2.326 . S
In182 O188 2.266 . S
In182 O189 2.326 . S
In182 O190 2.266 . S
In182 O191 2.326 . S
In182 O193 2.294 . S
In182 O194 2.326 . S
O183 In182 2.294 . S
O183 C192 1.240 . S
O184 In182 2.326 . S
O184 C192 1.252 . S
C185 O188 1.252 . S
C185 O189 1.260 . S
C186 O193 1.240 . S
C186 O194 1.252 . S
C187 O190 1.252 . S
C187 O191 1.260 . S
O188 In182 2.266 . S
O188 C185 1.252 . S
O189 In182 2.326 . S
O189 C185 1.260 . S
O190 In182 2.266 . S
O190 C187 1.252 . S
O191 In182 2.326 . S
O191 C187 1.260 . S
C192 O183 1.240 . S
C192 O184 1.252 . S
O193 In182 2.294 . S
O193 C186 1.240 . S
O194 In182 2.326 . S
O194 C186 1.252 . S
In195 O196 2.294 . S
In195 O197 2.326 . S
In195 O201 2.266 . S
In195 O202 2.326 . S
In195 O203 2.266 . S
In195 O204 2.326 . S
In195 O206 2.294 . S
In195 O207 2.326 . S
O196 In195 2.294 . S
O196 C205 1.240 . S
O197 In195 2.326 . S
O197 C205 1.252 . S
C198 O201 1.252 . S
C198 O202 1.260 . S
C199 O206 1.240 . S
C199 O207 1.252 . S
C200 O203 1.252 . S
C200 O204 1.260 . S
O201 In195 2.266 . S
O201 C198 1.252 . S
O202 In195 2.326 . S
O202 C198 1.260 . S
O203 In195 2.266 . S
O203 C200 1.252 . S
O204 In195 2.326 . S
O204 C200 1.260 . S
C205 O196 1.240 . S
C205 O197 1.252 . S
O206 In195 2.294 . S
O206 C199 1.240 . S
O207 In195 2.326 . S
O207 C199 1.252 . S
In208 O209 2.294 . S
In208 O210 2.326 . S
In208 O214 2.266 . S
In208 O215 2.326 . S
In208 O216 2.266 . S
In208 O217 2.326 . S
In208 O219 2.294 . S
In208 O220 2.326 . S
O209 In208 2.294 . S
O209 C218 1.240 . S
O210 In208 2.326 . S
O210 C218 1.252 . S
C211 O214 1.252 . S
C211 O215 1.260 . S
C212 O219 1.240 . S
C212 O220 1.252 . S
C213 O216 1.252 . S
C213 O217 1.260 . S
O214 In208 2.266 . S
O214 C211 1.252 . S
O215 In208 2.326 . S
O215 C211 1.260 . S
O216 In208 2.266 . S
O216 C213 1.252 . S
O217 In208 2.326 . S
O217 C213 1.260 . S
C218 O209 1.240 . S
C218 O210 1.252 . S
O219 In208 2.294 . S
O219 C212 1.240 . S
O220 In208 2.326 . S
O220 C212 1.252 . S
In221 O222 2.294 . S
In221 O223 2.326 . S
In221 O227 2.266 . S
In221 O228 2.326 . S
In221 O229 2.266 . S
In221 O230 2.326 . S
In221 O232 2.294 . S
In221 O233 2.326 . S
O222 In221 2.294 . S
O222 C231 1.240 . S
O223 In221 2.326 . S
O223 C231 1.252 . S
C224 O227 1.252 . S
C224 O228 1.260 . S
C225 O232 1.240 . S
C225 O233 1.252 . S
C226 O229 1.252 . S
C226 O230 1.260 . S
O227 In221 2.266 . S
O227 C224 1.252 . S
O228 In221 2.326 . S
O228 C224 1.260 . S
O229 In221 2.266 . S
O229 C226 1.252 . S
O230 In221 2.326 . S
O230 C226 1.260 . S
C231 O222 1.240 . S
C231 O223 1.252 . S
O232 In221 2.294 . S
O232 C225 1.240 . S
O233 In221 2.326 . S
O233 C225 1.252 . S
In234 O235 2.294 . S
In234 O236 2.326 . S
In234 O240 2.266 . S
In234 O241 2.326 . S
In234 O242 2.266 . S
In234 O243 2.326 . S
In234 O245 2.294 . S
In234 O246 2.326 . S
O235 In234 2.294 . S
O235 C244 1.240 . S
O236 In234 2.326 . S
O236 C244 1.252 . S
C237 O240 1.252 . S
C237 O241 1.260 . S
C238 O245 1.240 . S
C238 O246 1.252 . S
C239 O242 1.252 . S
C239 O243 1.260 . S
O240 In234 2.266 . S
O240 C237 1.252 . S
O241 In234 2.326 . S
O241 C237 1.260 . S
O242 In234 2.266 . S
O242 C239 1.252 . S
O243 In234 2.326 . S
O243 C239 1.260 . S
C244 O235 1.240 . S
C244 O236 1.252 . S
O245 In234 2.294 . S
O245 C238 1.240 . S
O246 In234 2.326 . S
O246 C238 1.252 . S
In247 O248 2.294 . S
In247 O249 2.326 . S
In247 O253 2.266 . S
In247 O254 2.326 . S
In247 O255 2.266 . S
In247 O256 2.326 . S
In247 O258 2.294 . S
In247 O259 2.326 . S
O248 In247 2.294 . S
O248 C257 1.240 . S
O249 In247 2.326 . S
O249 C257 1.252 . S
C250 O253 1.252 . S
C250 O254 1.260 . S
C251 O258 1.240 . S
C251 O259 1.252 . S
C252 O255 1.252 . S
C252 O256 1.260 . S
O253 In247 2.266 . S
O253 C250 1.252 . S
O254 In247 2.326 . S
O254 C250 1.260 . S
O255 In247 2.266 . S
O255 C252 1.252 . S
O256 In247 2.326 . S
O256 C252 1.260 . S
C257 O248 1.240 . S
C257 O249 1.252 . S
O258 In247 2.294 . S
O258 C251 1.240 . S
O259 In247 2.326 . S
O259 C251 1.252 . S
In260 O261 2.294 . S
In260 O262 2.326 . S
In260 O266 2.266 . S
In260 O267 2.326 . S
In260 O268 2.266 . S
In260 O269 2.326 . S
In260 O271 2.294 . S
In260 O272 2.326 . S
O261 In260 2.294 . S
O261 C270 1.240 . S
O262 In260 2.326 . S
O262 C270 1.252 . S
C263 O266 1.252 . S
C263 O267 1.260 . S
C264 O271 1.240 . S
C264 O272 1.252 . S
C265 O268 1.252 . S
C265 O269 1.260 . S
O266 In260 2.266 . S
O266 C263 1.252 . S
O267 In260 2.326 . S
O267 C263 1.260 . S
O268 In260 2.266 . S
O268 C265 1.252 . S
O269 In260 2.326 . S
O269 C265 1.260 . S
C270 O261 1.240 . S
C270 O262 1.252 . S
O271 In260 2.294 . S
O271 C264 1.240 . S
O272 In260 2.326 . S
O272 C264 1.252 . S
In273 O274 2.294 . S
In273 O275 2.326 . S
In273 O279 2.266 . S
In273 O280 2.326 . S
In273 O281 2.266 1_554 S
In273 O282 2.326 1_554 S
In273 O284 2.294 . S
In273 O285 2.326 . S
O274 In273 2.294 . S
O274 C283 1.240 . S
O275 In273 2.326 . S
O275 C283 1.252 . S
C276 O279 1.252 . S
C276 O280 1.260 . S
C277 O284 1.240 . S
C277 O285 1.252 . S
C278 O281 1.252 . S
C278 O282 1.260 . S
O279 In273 2.266 . S
O279 C276 1.252 . S
O280 In273 2.326 . S
O280 C276 1.260 . S
O281 In273 2.266 1_556 S
O281 C278 1.252 . S
O282 In273 2.326 1_556 S
O282 C278 1.260 . S
C283 O274 1.240 . S
C283 O275 1.252 . S
O284 In273 2.294 . S
O284 C277 1.240 . S
O285 In273 2.326 . S
O285 C277 1.252 . S
In286 O287 2.294 . S
In286 O288 2.326 . S
In286 O292 2.266 1_554 S
In286 O293 2.326 1_554 S
In286 O294 2.266 . S
In286 O295 2.326 . S
In286 O297 2.294 . S
In286 O298 2.326 . S
O287 In286 2.294 . S
O287 C296 1.240 . S
O288 In286 2.326 . S
O288 C296 1.252 . S
C289 O292 1.252 . S
C289 O293 1.260 . S
C290 O297 1.240 . S
C290 O298 1.252 . S
C291 O294 1.252 . S
C291 O295 1.260 . S
O292 In286 2.266 1_556 S
O292 C289 1.252 . S
O293 In286 2.326 1_556 S
O293 C289 1.260 . S
O294 In286 2.266 . S
O294 C291 1.252 . S
O295 In286 2.326 . S
O295 C291 1.260 . S
C296 O287 1.240 . S
C296 O288 1.252 . S
O297 In286 2.294 . S
O297 C290 1.240 . S
O298 In286 2.326 . S
O298 C290 1.252 . S
In299 O300 2.294 . S
In299 O301 2.326 . S
In299 O305 2.266 . S
In299 O306 2.326 . S
In299 O307 2.266 1_554 S
In299 O308 2.326 1_554 S
In299 O310 2.294 . S
In299 O311 2.326 . S
O300 In299 2.294 . S
O300 C309 1.240 . S
O301 In299 2.326 . S
O301 C309 1.252 . S
C302 O305 1.252 . S
C302 O306 1.260 . S
C303 O310 1.240 . S
C303 O311 1.252 . S
C304 O307 1.252 . S
C304 O308 1.260 . S
O305 In299 2.266 . S
O305 C302 1.252 . S
O306 In299 2.326 . S
O306 C302 1.260 . S
O307 In299 2.266 1_556 S
O307 C304 1.252 . S
O308 In299 2.326 1_556 S
O308 C304 1.260 . S
C309 O300 1.240 . S
C309 O301 1.252 . S
O310 In299 2.294 . S
O310 C303 1.240 . S
O311 In299 2.326 . S
O311 C303 1.252 . S
In312 O313 2.294 . S
In312 O314 2.326 . S
In312 O318 2.266 . S
In312 O319 2.326 . S
In312 O320 2.266 . S
In312 O321 2.326 . S
In312 O323 2.294 . S
In312 O324 2.326 . S
O313 In312 2.294 . S
O313 C322 1.240 . S
O314 In312 2.326 . S
O314 C322 1.252 . S
C315 O318 1.252 . S
C315 O319 1.260 . S
C316 O323 1.240 . S
C316 O324 1.252 . S
C317 O320 1.252 . S
C317 O321 1.260 . S
O318 In312 2.266 . S
O318 C315 1.252 . S
O319 In312 2.326 . S
O319 C315 1.260 . S
O320 In312 2.266 . S
O320 C317 1.252 . S
O321 In312 2.326 . S
O321 C317 1.260 . S
C322 O313 1.240 . S
C322 O314 1.252 . S
O323 In312 2.294 . S
O323 C316 1.240 . S
O324 In312 2.326 . S
O324 C316 1.252 . S
In325 O326 2.294 . S
In325 O327 2.326 . S
In325 O331 2.266 . S
In325 O332 2.326 . S
In325 O333 2.266 . S
In325 O334 2.326 . S
In325 O336 2.294 . S
In325 O337 2.326 . S
O326 In325 2.294 . S
O326 C335 1.240 . S
O327 In325 2.326 . S
O327 C335 1.252 . S
C328 O331 1.252 . S
C328 O332 1.260 . S
C329 O336 1.240 . S
C329 O337 1.252 . S
C330 O333 1.252 . S
C330 O334 1.260 . S
O331 In325 2.266 . S
O331 C328 1.252 . S
O332 In325 2.326 . S
O332 C328 1.260 . S
O333 In325 2.266 . S
O333 C330 1.252 . S
O334 In325 2.326 . S
O334 C330 1.260 . S
C335 O326 1.240 . S
C335 O327 1.252 . S
O336 In325 2.294 . S
O336 C329 1.240 . S
O337 In325 2.326 . S
O337 C329 1.252 . S
In338 O339 2.294 . S
In338 O340 2.326 . S
In338 O344 2.266 . S
In338 O345 2.326 . S
In338 O346 2.266 . S
In338 O347 2.326 . S
In338 O349 2.294 . S
In338 O350 2.326 . S
O339 In338 2.294 . S
O339 C348 1.240 . S
O340 In338 2.326 . S
O340 C348 1.252 . S
C341 O344 1.252 . S
C341 O345 1.260 . S
C342 O349 1.240 . S
C342 O350 1.252 . S
C343 O346 1.252 . S
C343 O347 1.260 . S
O344 In338 2.266 . S
O344 C341 1.252 . S
O345 In338 2.326 . S
O345 C341 1.260 . S
O346 In338 2.266 . S
O346 C343 1.252 . S
O347 In338 2.326 . S
O347 C343 1.260 . S
C348 O339 1.240 . S
C348 O340 1.252 . S
O349 In338 2.294 . S
O349 C342 1.240 . S
O350 In338 2.326 . S
O350 C342 1.252 . S
In351 O352 2.294 . S
In351 O353 2.326 . S
In351 O357 2.266 . S
In351 O358 2.326 . S
In351 O359 2.266 1_556 S
In351 O360 2.326 1_556 S
In351 O362 2.294 . S
In351 O363 2.326 . S
O352 In351 2.294 . S
O352 C361 1.240 . S
O353 In351 2.326 . S
O353 C361 1.252 . S
C354 O357 1.252 . S
C354 O358 1.260 . S
C355 O362 1.240 . S
C355 O363 1.252 . S
C356 O359 1.252 . S
C356 O360 1.260 . S
O357 In351 2.266 . S
O357 C354 1.252 . S
O358 In351 2.326 . S
O358 C354 1.260 . S
O359 In351 2.266 1_554 S
O359 C356 1.252 . S
O360 In351 2.326 1_554 S
O360 C356 1.260 . S
C361 O352 1.240 . S
C361 O353 1.252 . S
O362 In351 2.294 . S
O362 C355 1.240 . S
O363 In351 2.326 . S
O363 C355 1.252 . S
In364 O365 2.294 . S
In364 O366 2.326 . S
In364 O370 2.266 1_556 S
In364 O371 2.326 1_556 S
In364 O372 2.266 . S
In364 O373 2.326 . S
In364 O375 2.294 . S
In364 O376 2.326 . S
O365 In364 2.294 . S
O365 C374 1.240 . S
O366 In364 2.326 . S
O366 C374 1.252 . S
C367 O370 1.252 . S
C367 O371 1.260 . S
C368 O375 1.240 . S
C368 O376 1.252 . S
C369 O372 1.252 . S
C369 O373 1.260 . S
O370 In364 2.266 1_554 S
O370 C367 1.252 . S
O371 In364 2.326 1_554 S
O371 C367 1.260 . S
O372 In364 2.266 . S
O372 C369 1.252 . S
O373 In364 2.326 . S
O373 C369 1.260 . S
C374 O365 1.240 . S
C374 O366 1.252 . S
O375 In364 2.294 . S
O375 C368 1.240 . S
O376 In364 2.326 . S
O376 C368 1.252 . S
In377 O378 2.294 . S
In377 O379 2.326 . S
In377 O383 2.266 . S
In377 O384 2.326 . S
In377 O385 2.266 1_556 S
In377 O386 2.326 1_556 S
In377 O388 2.294 . S
In377 O389 2.326 . S
O378 In377 2.294 . S
O378 C387 1.240 . S
O379 In377 2.326 . S
O379 C387 1.252 . S
C380 O383 1.252 . S
C380 O384 1.260 . S
C381 O388 1.240 . S
C381 O389 1.252 . S
C382 O385 1.252 . S
C382 O386 1.260 . S
O383 In377 2.266 . S
O383 C380 1.252 . S
O384 In377 2.326 . S
O384 C380 1.260 . S
O385 In377 2.266 1_554 S
O385 C382 1.252 . S
O386 In377 2.326 1_554 S
O386 C382 1.260 . S
C387 O378 1.240 . S
C387 O379 1.252 . S
O388 In377 2.294 . S
O388 C381 1.240 . S
O389 In377 2.326 . S
O389 C381 1.252 . S
In390 O391 2.294 . S
In390 O392 2.326 . S
In390 O396 2.266 . S
In390 O397 2.326 . S
In390 O398 2.266 . S
In390 O399 2.326 . S
In390 O401 2.294 . S
In390 O402 2.326 . S
O391 In390 2.294 . S
O391 C400 1.240 . S
O392 In390 2.326 . S
O392 C400 1.252 . S
C393 O396 1.252 . S
C393 O397 1.260 . S
C394 O401 1.240 . S
C394 O402 1.252 . S
C395 O398 1.252 . S
C395 O399 1.260 . S
O396 In390 2.266 . S
O396 C393 1.252 . S
O397 In390 2.326 . S
O397 C393 1.260 . S
O398 In390 2.266 . S
O398 C395 1.252 . S
O399 In390 2.326 . S
O399 C395 1.260 . S
C400 O391 1.240 . S
C400 O392 1.252 . S
O401 In390 2.294 . S
O401 C394 1.240 . S
O402 In390 2.326 . S
O402 C394 1.252 . S
In403 O404 2.294 . S
In403 O405 2.326 . S
In403 O409 2.266 . S
In403 O410 2.326 . S
In403 O411 2.266 . S
In403 O412 2.326 . S
In403 O414 2.294 . S
In403 O415 2.326 . S
O404 In403 2.294 . S
O404 C413 1.240 . S
O405 In403 2.326 . S
O405 C413 1.252 . S
C406 O409 1.252 . S
C406 O410 1.260 . S
C407 O414 1.240 . S
C407 O415 1.252 . S
C408 O411 1.252 . S
C408 O412 1.260 . S
O409 In403 2.266 . S
O409 C406 1.252 . S
O410 In403 2.326 . S
O410 C406 1.260 . S
O411 In403 2.266 . S
O411 C408 1.252 . S
O412 In403 2.326 . S
O412 C408 1.260 . S
C413 O404 1.240 . S
C413 O405 1.252 . S
O414 In403 2.294 . S
O414 C407 1.240 . S
O415 In403 2.326 . S
O415 C407 1.252 . S
In416 O417 2.294 . S
In416 O418 2.326 . S
In416 O422 2.266 . S
In416 O423 2.326 . S
In416 O424 2.266 . S
In416 O425 2.326 . S
In416 O427 2.294 . S
In416 O428 2.326 . S
O417 In416 2.294 . S
O417 C426 1.240 . S
O418 In416 2.326 . S
O418 C426 1.252 . S
C419 O422 1.252 . S
C419 O423 1.260 . S
C420 O427 1.240 . S
C420 O428 1.252 . S
C421 O424 1.252 . S
C421 O425 1.260 . S
O422 In416 2.266 . S
O422 C419 1.252 . S
O423 In416 2.326 . S
O423 C419 1.260 . S
O424 In416 2.266 . S
O424 C421 1.252 . S
O425 In416 2.326 . S
O425 C421 1.260 . S
C426 O417 1.240 . S
C426 O418 1.252 . S
O427 In416 2.294 . S
O427 C420 1.240 . S
O428 In416 2.326 . S
O428 C420 1.252 . S
In429 O430 2.294 . S
In429 O431 2.326 . S
In429 O435 2.266 . S
In429 O436 2.326 . S
In429 O437 2.266 . S
In429 O438 2.326 . S
In429 O440 2.294 . S
In429 O441 2.326 . S
O430 In429 2.294 . S
O430 C439 1.240 . S
O431 In429 2.326 . S
O431 C439 1.252 . S
C432 O435 1.252 . S
C432 O436 1.260 . S
C433 O440 1.240 . S
C433 O441 1.252 . S
C434 O437 1.252 . S
C434 O438 1.260 . S
O435 In429 2.266 . S
O435 C432 1.252 . S
O436 In429 2.326 . S
O436 C432 1.260 . S
O437 In429 2.266 . S
O437 C434 1.252 . S
O438 In429 2.326 . S
O438 C434 1.260 . S
C439 O430 1.240 . S
C439 O431 1.252 . S
O440 In429 2.294 . S
O440 C433 1.240 . S
O441 In429 2.326 . S
O441 C433 1.252 . S
In442 O443 2.294 . S
In442 O444 2.326 . S
In442 O448 2.266 . S
In442 O449 2.326 . S
In442 O450 2.266 . S
In442 O451 2.326 . S
In442 O453 2.294 . S
In442 O454 2.326 . S
O443 In442 2.294 . S
O443 C452 1.240 . S
O444 In442 2.326 . S
O444 C452 1.252 . S
C445 O448 1.252 . S
C445 O449 1.260 . S
C446 O453 1.240 . S
C446 O454 1.252 . S
C447 O450 1.252 . S
C447 O451 1.260 . S
O448 In442 2.266 . S
O448 C445 1.252 . S
O449 In442 2.326 . S
O449 C445 1.260 . S
O450 In442 2.266 . S
O450 C447 1.252 . S
O451 In442 2.326 . S
O451 C447 1.260 . S
C452 O443 1.240 . S
C452 O444 1.252 . S
O453 In442 2.294 . S
O453 C446 1.240 . S
O454 In442 2.326 . S
O454 C446 1.252 . S
In455 O456 2.294 . S
In455 O457 2.326 . S
In455 O461 2.266 . S
In455 O462 2.326 . S
In455 O463 2.266 . S
In455 O464 2.326 . S
In455 O466 2.294 . S
In455 O467 2.326 . S
O456 In455 2.294 . S
O456 C465 1.240 . S
O457 In455 2.326 . S
O457 C465 1.252 . S
C458 O461 1.252 . S
C458 O462 1.260 . S
C459 O466 1.240 . S
C459 O467 1.252 . S
C460 O463 1.252 . S
C460 O464 1.260 . S
O461 In455 2.266 . S
O461 C458 1.252 . S
O462 In455 2.326 . S
O462 C458 1.260 . S
O463 In455 2.266 . S
O463 C460 1.252 . S
O464 In455 2.326 . S
O464 C460 1.260 . S
C465 O456 1.240 . S
C465 O457 1.252 . S
O466 In455 2.294 . S
O466 C459 1.240 . S
O467 In455 2.326 . S
O467 C459 1.252 . S
C468 C469 1.369 . S
C468 C470 1.419 . S
C468 H472 0.930 . S
C469 C468 1.369 . S
C469 C478 1.429 . S
C470 C468 1.419 . S
C470 C471 1.363 1_556 S
C470 H473 0.929 1_556 S
C471 C470 1.363 1_554 S
C471 C477 1.428 1_554 S
H472 C468 0.930 . S
H473 C470 0.929 1_554 S
S474 N475 1.613 . S
S474 N476 1.610 1_556 S
N475 S474 1.613 . S
N475 C478 1.350 . S
N476 S474 1.610 1_554 S
N476 C477 1.351 1_554 S
C477 C471 1.428 1_556 S
C477 N476 1.351 1_556 S
C477 C478 1.434 . S
C478 C469 1.429 . S
C478 N475 1.350 . S
C478 C477 1.434 . S
C479 C480 1.369 . S
C479 C481 1.419 . S
C479 H483 0.930 . S
C480 C479 1.369 . S
C480 C489 1.429 . S
C481 C479 1.419 . S
C481 C482 1.363 1_556 S
C481 H484 0.929 1_556 S
C482 C481 1.363 1_554 S
C482 C488 1.428 1_554 S
H483 C479 0.930 . S
H484 C481 0.929 1_554 S
S485 N486 1.613 . S
S485 N487 1.610 1_556 S
N486 S485 1.613 . S
N486 C489 1.350 . S
N487 S485 1.610 1_554 S
N487 C488 1.351 1_554 S
C488 C482 1.428 1_556 S
C488 N487 1.351 1_556 S
C488 C489 1.434 . S
C489 C480 1.429 . S
C489 N486 1.350 . S
C489 C488 1.434 . S
C490 C491 1.369 1_556 S
C490 C492 1.419 . S
C490 H494 0.930 1_556 S
C491 C490 1.369 1_554 S
C491 C500 1.429 1_554 S
C492 C490 1.419 . S
C492 C493 1.363 . S
C492 H495 0.929 . S
C493 C492 1.363 . S
C493 C499 1.428 . S
H494 C490 0.930 1_554 S
H495 C492 0.929 . S
S496 N497 1.613 1_556 S
S496 N498 1.610 . S
N497 S496 1.613 1_554 S
N497 C500 1.350 1_554 S
N498 S496 1.610 . S
N498 C499 1.351 . S
C499 C493 1.428 . S
C499 N498 1.351 . S
C499 C500 1.434 . S
C500 C491 1.429 1_556 S
C500 N497 1.350 1_556 S
C500 C499 1.434 . S
C501 C502 1.369 . S
C501 C503 1.419 . S
C501 H505 0.930 . S
C502 C501 1.369 . S
C502 C511 1.429 . S
C503 C501 1.419 . S
C503 C504 1.363 . S
C503 H506 0.929 . S
C504 C503 1.363 . S
C504 C510 1.428 . S
H505 C501 0.930 . S
H506 C503 0.929 . S
S507 N508 1.613 . S
S507 N509 1.610 . S
N508 S507 1.613 . S
N508 C511 1.350 . S
N509 S507 1.610 . S
N509 C510 1.351 . S
C510 C504 1.428 . S
C510 N509 1.351 . S
C510 C511 1.434 . S
C511 C502 1.429 . S
C511 N508 1.350 . S
C511 C510 1.434 . S
C512 C513 1.369 . S
C512 C514 1.419 . S
C512 H516 0.930 . S
C513 C512 1.369 . S
C513 C522 1.429 . S
C514 C512 1.419 . S
C514 C515 1.363 . S
C514 H517 0.929 . S
C515 C514 1.363 . S
C515 C521 1.428 . S
H516 C512 0.930 . S
H517 C514 0.929 . S
S518 N519 1.613 . S
S518 N520 1.610 . S
N519 S518 1.613 . S
N519 C522 1.350 . S
N520 S518 1.610 . S
N520 C521 1.351 . S
C521 C515 1.428 . S
C521 N520 1.351 . S
C521 C522 1.434 . S
C522 C513 1.429 . S
C522 N519 1.350 . S
C522 C521 1.434 . S
C523 C524 1.369 . S
C523 C525 1.419 . S
C523 H527 0.930 . S
C524 C523 1.369 . S
C524 C533 1.429 . S
C525 C523 1.419 . S
C525 C526 1.363 . S
C525 H528 0.929 . S
C526 C525 1.363 . S
C526 C532 1.428 . S
H527 C523 0.930 . S
H528 C525 0.929 . S
S529 N530 1.613 . S
S529 N531 1.610 . S
N530 S529 1.613 . S
N530 C533 1.350 . S
N531 S529 1.610 . S
N531 C532 1.351 . S
C532 C526 1.428 . S
C532 N531 1.351 . S
C532 C533 1.434 . S
C533 C524 1.429 . S
C533 N530 1.350 . S
C533 C532 1.434 . S
C534 C535 1.369 . S
C534 C536 1.419 . S
C534 H538 0.930 . S
C535 C534 1.369 . S
C535 C544 1.429 . S
C536 C534 1.419 . S
C536 C537 1.363 1_554 S
C536 H539 0.929 1_554 S
C537 C536 1.363 1_556 S
C537 C543 1.428 1_556 S
H538 C534 0.930 . S
H539 C536 0.929 1_556 S
S540 N541 1.613 . S
S540 N542 1.610 1_554 S
N541 S540 1.613 . S
N541 C544 1.350 . S
N542 S540 1.610 1_556 S
N542 C543 1.351 1_556 S
C543 C537 1.428 1_554 S
C543 N542 1.351 1_554 S
C543 C544 1.434 . S
C544 C535 1.429 . S
C544 N541 1.350 . S
C544 C543 1.434 . S
C545 C546 1.369 . S
C545 C547 1.419 . S
C545 H549 0.930 . S
C546 C545 1.369 . S
C546 C555 1.429 . S
C547 C545 1.419 . S
C547 C548 1.363 1_554 S
C547 H550 0.929 1_554 S
C548 C547 1.363 1_556 S
C548 C554 1.428 1_556 S
H549 C545 0.930 . S
H550 C547 0.929 1_556 S
S551 N552 1.613 . S
S551 N553 1.610 1_554 S
N552 S551 1.613 . S
N552 C555 1.350 . S
N553 S551 1.610 1_556 S
N553 C554 1.351 1_556 S
C554 C548 1.428 1_554 S
C554 N553 1.351 1_554 S
C554 C555 1.434 . S
C555 C546 1.429 . S
C555 N552 1.350 . S
C555 C554 1.434 . S
C556 C557 1.369 1_554 S
C556 C558 1.419 . S
C556 H560 0.930 1_554 S
C557 C556 1.369 1_556 S
C557 C566 1.429 1_556 S
C558 C556 1.419 . S
C558 C559 1.363 . S
C558 H561 0.929 . S
C559 C558 1.363 . S
C559 C565 1.428 . S
H560 C556 0.930 1_556 S
H561 C558 0.929 . S
S562 N563 1.613 1_554 S
S562 N564 1.610 . S
N563 S562 1.613 1_556 S
N563 C566 1.350 1_556 S
N564 S562 1.610 . S
N564 C565 1.351 . S
C565 C559 1.428 . S
C565 N564 1.351 . S
C565 C566 1.434 . S
C566 C557 1.429 1_554 S
C566 N563 1.350 1_554 S
C566 C565 1.434 . S
C567 C568 1.369 . S
C567 C569 1.419 . S
C567 H571 0.930 . S
C568 C567 1.369 . S
C568 C577 1.429 . S
C569 C567 1.419 . S
C569 C570 1.363 . S
C569 H572 0.929 . S
C570 C569 1.363 . S
C570 C576 1.428 . S
H571 C567 0.930 . S
H572 C569 0.929 . S
S573 N574 1.613 . S
S573 N575 1.610 . S
N574 S573 1.613 . S
N574 C577 1.350 . S
N575 S573 1.610 . S
N575 C576 1.351 . S
C576 C570 1.428 . S
C576 N575 1.351 . S
C576 C577 1.434 . S
C577 C568 1.429 . S
C577 N574 1.350 . S
C577 C576 1.434 . S
C578 C579 1.369 . S
C578 C580 1.419 . S
C578 H582 0.930 . S
C579 C578 1.369 . S
C579 C588 1.429 . S
C580 C578 1.419 . S
C580 C581 1.363 . S
C580 H583 0.929 . S
C581 C580 1.363 . S
C581 C587 1.428 . S
H582 C578 0.930 . S
H583 C580 0.929 . S
S584 N585 1.613 . S
S584 N586 1.610 . S
N585 S584 1.613 . S
N585 C588 1.350 . S
N586 S584 1.610 . S
N586 C587 1.351 . S
C587 C581 1.428 . S
C587 N586 1.351 . S
C587 C588 1.434 . S
C588 C579 1.429 . S
C588 N585 1.350 . S
C588 C587 1.434 . S
C589 C590 1.369 . S
C589 C591 1.419 . S
C589 H593 0.930 . S
C590 C589 1.369 . S
C590 C599 1.429 . S
C591 C589 1.419 . S
C591 C592 1.363 . S
C591 H594 0.929 . S
C592 C591 1.363 . S
C592 C598 1.428 . S
H593 C589 0.930 . S
H594 C591 0.929 . S
S595 N596 1.613 . S
S595 N597 1.610 . S
N596 S595 1.613 . S
N596 C599 1.350 . S
N597 S595 1.610 . S
N597 C598 1.351 . S
C598 C592 1.428 . S
C598 N597 1.351 . S
C598 C599 1.434 . S
C599 C590 1.429 . S
C599 N596 1.350 . S
C599 C598 1.434 . S
C600 C601 1.369 . S
C600 C602 1.419 . S
C600 H604 0.930 . S
C601 C600 1.369 . S
C601 C610 1.429 . S
C602 C600 1.419 . S
C602 C603 1.363 . S
C602 H605 0.929 . S
C603 C602 1.363 . S
C603 C609 1.428 . S
H604 C600 0.930 . S
H605 C602 0.929 . S
S606 N607 1.613 . S
S606 N608 1.610 . S
N607 S606 1.613 . S
N607 C610 1.350 . S
N608 S606 1.610 . S
N608 C609 1.351 . S
C609 C603 1.428 . S
C609 N608 1.351 . S
C609 C610 1.434 . S
C610 C601 1.429 . S
C610 N607 1.350 . S
C610 C609 1.434 . S
C611 C612 1.369 . S
C611 C613 1.419 . S
C611 H615 0.930 . S
C612 C611 1.369 . S
C612 C621 1.429 . S
C613 C611 1.419 . S
C613 C614 1.363 . S
C613 H616 0.929 . S
C614 C613 1.363 . S
C614 C620 1.428 . S
H615 C611 0.930 . S
H616 C613 0.929 . S
S617 N618 1.613 . S
S617 N619 1.610 . S
N618 S617 1.613 . S
N618 C621 1.350 . S
N619 S617 1.610 . S
N619 C620 1.351 . S
C620 C614 1.428 . S
C620 N619 1.351 . S
C620 C621 1.434 . S
C621 C612 1.429 . S
C621 N618 1.350 . S
C621 C620 1.434 . S
C622 C623 1.369 . S
C622 C624 1.419 . S
C622 H626 0.930 . S
C623 C622 1.369 . S
C623 C632 1.429 . S
C624 C622 1.419 . S
C624 C625 1.363 . S
C624 H627 0.929 . S
C625 C624 1.363 . S
C625 C631 1.428 . S
H626 C622 0.930 . S
H627 C624 0.929 . S
S628 N629 1.613 . S
S628 N630 1.610 . S
N629 S628 1.613 . S
N629 C632 1.350 . S
N630 S628 1.610 . S
N630 C631 1.351 . S
C631 C625 1.428 . S
C631 N630 1.351 . S
C631 C632 1.434 . S
C632 C623 1.429 . S
C632 N629 1.350 . S
C632 C631 1.434 . S
C633 C634 1.369 . S
C633 C635 1.419 . S
C633 H637 0.930 . S
C634 C633 1.369 . S
C634 C643 1.429 . S
C635 C633 1.419 . S
C635 C636 1.363 . S
C635 H638 0.929 . S
C636 C635 1.363 . S
C636 C642 1.428 . S
H637 C633 0.930 . S
H638 C635 0.929 . S
S639 N640 1.613 . S
S639 N641 1.610 . S
N640 S639 1.613 . S
N640 C643 1.350 . S
N641 S639 1.610 . S
N641 C642 1.351 . S
C642 C636 1.428 . S
C642 N641 1.351 . S
C642 C643 1.434 . S
C643 C634 1.429 . S
C643 N640 1.350 . S
C643 C642 1.434 . S
C644 C645 1.369 . S
C644 C646 1.419 . S
C644 H648 0.930 . S
C645 C644 1.369 . S
C645 C654 1.429 . S
C646 C644 1.419 . S
C646 C647 1.363 . S
C646 H649 0.929 . S
C647 C646 1.363 . S
C647 C653 1.428 . S
H648 C644 0.930 . S
H649 C646 0.929 . S
S650 N651 1.613 . S
S650 N652 1.610 . S
N651 S650 1.613 . S
N651 C654 1.350 . S
N652 S650 1.610 . S
N652 C653 1.351 . S
C653 C647 1.428 . S
C653 N652 1.351 . S
C653 C654 1.434 . S
C654 C645 1.429 . S
C654 N651 1.350 . S
C654 C653 1.434 . S
C655 C656 1.369 . S
C655 C657 1.419 . S
C655 H659 0.930 . S
C656 C655 1.369 . S
C656 C665 1.429 . S
C657 C655 1.419 . S
C657 C658 1.363 . S
C657 H660 0.929 . S
C658 C657 1.363 . S
C658 C664 1.428 . S
H659 C655 0.930 . S
H660 C657 0.929 . S
S661 N662 1.613 . S
S661 N663 1.610 . S
N662 S661 1.613 . S
N662 C665 1.350 . S
N663 S661 1.610 . S
N663 C664 1.351 . S
C664 C658 1.428 . S
C664 N663 1.351 . S
C664 C665 1.434 . S
C665 C656 1.429 . S
C665 N662 1.350 . S
C665 C664 1.434 . S
C666 C667 1.369 . S
C666 C668 1.419 . S
C666 H670 0.930 . S
C667 C666 1.369 . S
C667 C676 1.429 . S
C668 C666 1.419 . S
C668 C669 1.363 . S
C668 H671 0.929 . S
C669 C668 1.363 . S
C669 C675 1.428 . S
H670 C666 0.930 . S
H671 C668 0.929 . S
S672 N673 1.613 . S
S672 N674 1.610 . S
N673 S672 1.613 . S
N673 C676 1.350 . S
N674 S672 1.610 . S
N674 C675 1.351 . S
C675 C669 1.428 . S
C675 N674 1.351 . S
C675 C676 1.434 . S
C676 C667 1.429 . S
C676 N673 1.350 . S
C676 C675 1.434 . S
C677 C678 1.369 . S
C677 C679 1.419 . S
C677 H681 0.930 . S
C678 C677 1.369 . S
C678 C687 1.429 . S
C679 C677 1.419 . S
C679 C680 1.363 . S
C679 H682 0.929 . S
C680 C679 1.363 . S
C680 C686 1.428 . S
H681 C677 0.930 . S
H682 C679 0.929 . S
S683 N684 1.613 . S
S683 N685 1.610 . S
N684 S683 1.613 . S
N684 C687 1.350 . S
N685 S683 1.610 . S
N685 C686 1.351 . S
C686 C680 1.428 . S
C686 N685 1.351 . S
C686 C687 1.434 . S
C687 C678 1.429 . S
C687 N684 1.350 . S
C687 C686 1.434 . S
C688 C689 1.369 . S
C688 C690 1.419 . S
C688 H692 0.930 . S
C689 C688 1.369 . S
C689 C698 1.429 . S
C690 C688 1.419 . S
C690 C691 1.363 . S
C690 H693 0.929 . S
C691 C690 1.363 . S
C691 C697 1.428 . S
H692 C688 0.930 . S
H693 C690 0.929 . S
S694 N695 1.613 . S
S694 N696 1.610 . S
N695 S694 1.613 . S
N695 C698 1.350 . S
N696 S694 1.610 . S
N696 C697 1.351 . S
C697 C691 1.428 . S
C697 N696 1.351 . S
C697 C698 1.434 . S
C698 C689 1.429 . S
C698 N695 1.350 . S
C698 C697 1.434 . S
C699 C700 1.369 . S
C699 C701 1.419 . S
C699 H703 0.930 . S
C700 C699 1.369 . S
C700 C709 1.429 . S
C701 C699 1.419 . S
C701 C702 1.363 . S
C701 H704 0.929 . S
C702 C701 1.363 . S
C702 C708 1.428 . S
H703 C699 0.930 . S
H704 C701 0.929 . S
S705 N706 1.613 . S
S705 N707 1.610 . S
N706 S705 1.613 . S
N706 C709 1.350 . S
N707 S705 1.610 . S
N707 C708 1.351 . S
C708 C702 1.428 . S
C708 N707 1.351 . S
C708 C709 1.434 . S
C709 C700 1.429 . S
C709 N706 1.350 . S
C709 C708 1.434 . S
C710 C711 1.369 . S
C710 C712 1.419 . S
C710 H714 0.930 . S
C711 C710 1.369 . S
C711 C720 1.429 . S
C712 C710 1.419 . S
C712 C713 1.363 . S
C712 H715 0.929 . S
C713 C712 1.363 . S
C713 C719 1.428 . S
H714 C710 0.930 . S
H715 C712 0.929 . S
S716 N717 1.613 . S
S716 N718 1.610 . S
N717 S716 1.613 . S
N717 C720 1.350 . S
N718 S716 1.610 . S
N718 C719 1.351 . S
C719 C713 1.428 . S
C719 N718 1.351 . S
C719 C720 1.434 . S
C720 C711 1.429 . S
C720 N717 1.350 . S
C720 C719 1.434 . S
C721 C722 1.369 . S
C721 C723 1.419 . S
C721 H725 0.930 . S
C722 C721 1.369 . S
C722 C731 1.429 . S
C723 C721 1.419 . S
C723 C724 1.363 . S
C723 H726 0.929 . S
C724 C723 1.363 . S
C724 C730 1.428 . S
H725 C721 0.930 . S
H726 C723 0.929 . S
S727 N728 1.613 . S
S727 N729 1.610 . S
N728 S727 1.613 . S
N728 C731 1.350 . S
N729 S727 1.610 . S
N729 C730 1.351 . S
C730 C724 1.428 . S
C730 N729 1.351 . S
C730 C731 1.434 . S
C731 C722 1.429 . S
C731 N728 1.350 . S
C731 C730 1.434 . S
C732 C733 1.369 . S
C732 C734 1.419 . S
C732 H736 0.930 . S
C733 C732 1.369 . S
C733 C742 1.429 . S
C734 C732 1.419 . S
C734 C735 1.363 . S
C734 H737 0.929 . S
C735 C734 1.363 . S
C735 C741 1.428 . S
H736 C732 0.930 . S
H737 C734 0.929 . S
S738 N739 1.613 . S
S738 N740 1.610 . S
N739 S738 1.613 . S
N739 C742 1.350 . S
N740 S738 1.610 . S
N740 C741 1.351 . S
C741 C735 1.428 . S
C741 N740 1.351 . S
C741 C742 1.434 . S
C742 C733 1.429 . S
C742 N739 1.350 . S
C742 C741 1.434 . S
C743 C744 1.369 . S
C743 C745 1.419 . S
C743 H747 0.930 . S
C744 C743 1.369 . S
C744 C753 1.429 . S
C745 C743 1.419 . S
C745 C746 1.363 . S
C745 H748 0.929 . S
C746 C745 1.363 . S
C746 C752 1.428 . S
H747 C743 0.930 . S
H748 C745 0.929 . S
S749 N750 1.613 . S
S749 N751 1.610 . S
N750 S749 1.613 . S
N750 C753 1.350 . S
N751 S749 1.610 . S
N751 C752 1.351 . S
C752 C746 1.428 . S
C752 N751 1.351 . S
C752 C753 1.434 . S
C753 C744 1.429 . S
C753 N750 1.350 . S
C753 C752 1.434 . S
C754 C755 1.369 . S
C754 C756 1.419 . S
C754 H758 0.930 . S
C755 C754 1.369 . S
C755 C764 1.429 . S
C756 C754 1.419 . S
C756 C757 1.363 . S
C756 H759 0.929 . S
C757 C756 1.363 . S
C757 C763 1.428 . S
H758 C754 0.930 . S
H759 C756 0.929 . S
S760 N761 1.613 . S
S760 N762 1.610 . S
N761 S760 1.613 . S
N761 C764 1.350 . S
N762 S760 1.610 . S
N762 C763 1.351 . S
C763 C757 1.428 . S
C763 N762 1.351 . S
C763 C764 1.434 . S
C764 C755 1.429 . S
C764 N761 1.350 . S
C764 C763 1.434 . S
C765 C766 1.369 . S
C765 C767 1.419 . S
C765 H769 0.930 . S
C766 C765 1.369 . S
C766 C775 1.429 . S
C767 C765 1.419 . S
C767 C768 1.363 . S
C767 H770 0.929 . S
C768 C767 1.363 . S
C768 C774 1.428 . S
H769 C765 0.930 . S
H770 C767 0.929 . S
S771 N772 1.613 . S
S771 N773 1.610 . S
N772 S771 1.613 . S
N772 C775 1.350 . S
N773 S771 1.610 . S
N773 C774 1.351 . S
C774 C768 1.428 . S
C774 N773 1.351 . S
C774 C775 1.434 . S
C775 C766 1.429 . S
C775 N772 1.350 . S
C775 C774 1.434 . S
C776 C777 1.369 . S
C776 C778 1.419 . S
C776 H780 0.930 . S
C777 C776 1.369 . S
C777 C786 1.429 . S
C778 C776 1.419 . S
C778 C779 1.363 . S
C778 H781 0.929 . S
C779 C778 1.363 . S
C779 C785 1.428 . S
H780 C776 0.930 . S
H781 C778 0.929 . S
S782 N783 1.613 . S
S782 N784 1.610 . S
N783 S782 1.613 . S
N783 C786 1.350 . S
N784 S782 1.610 . S
N784 C785 1.351 . S
C785 C779 1.428 . S
C785 N784 1.351 . S
C785 C786 1.434 . S
C786 C777 1.429 . S
C786 N783 1.350 . S
C786 C785 1.434 . S
C787 C788 1.369 . S
C787 C789 1.419 . S
C787 H791 0.930 . S
C788 C787 1.369 . S
C788 C797 1.429 . S
C789 C787 1.419 . S
C789 C790 1.363 . S
C789 H792 0.929 . S
C790 C789 1.363 . S
C790 C796 1.428 . S
H791 C787 0.930 . S
H792 C789 0.929 . S
S793 N794 1.613 . S
S793 N795 1.610 . S
N794 S793 1.613 . S
N794 C797 1.350 . S
N795 S793 1.610 . S
N795 C796 1.351 . S
C796 C790 1.428 . S
C796 N795 1.351 . S
C796 C797 1.434 . S
C797 C788 1.429 . S
C797 N794 1.350 . S
C797 C796 1.434 . S
C798 C799 1.369 . S
C798 C800 1.419 . S
C798 H802 0.930 . S
C799 C798 1.369 . S
C799 C808 1.429 . S
C800 C798 1.419 . S
C800 C801 1.363 . S
C800 H803 0.929 . S
C801 C800 1.363 . S
C801 C807 1.428 . S
H802 C798 0.930 . S
H803 C800 0.929 . S
S804 N805 1.613 . S
S804 N806 1.610 . S
N805 S804 1.613 . S
N805 C808 1.350 . S
N806 S804 1.610 . S
N806 C807 1.351 . S
C807 C801 1.428 . S
C807 N806 1.351 . S
C807 C808 1.434 . S
C808 C799 1.429 . S
C808 N805 1.350 . S
C808 C807 1.434 . S
C809 C810 1.369 . S
C809 C811 1.419 . S
C809 H813 0.930 . S
C810 C809 1.369 . S
C810 C819 1.429 . S
C811 C809 1.419 . S
C811 C812 1.363 . S
C811 H814 0.929 . S
C812 C811 1.363 . S
C812 C818 1.428 . S
H813 C809 0.930 . S
H814 C811 0.929 . S
S815 N816 1.613 . S
S815 N817 1.610 . S
N816 S815 1.613 . S
N816 C819 1.350 . S
N817 S815 1.610 . S
N817 C818 1.351 . S
C818 C812 1.428 . S
C818 N817 1.351 . S
C818 C819 1.434 . S
C819 C810 1.429 . S
C819 N816 1.350 . S
C819 C818 1.434 . S
C820 C821 1.369 . S
C820 C822 1.419 . S
C820 H824 0.930 . S
C821 C820 1.369 . S
C821 C830 1.429 . S
C822 C820 1.419 . S
C822 C823 1.363 . S
C822 H825 0.929 . S
C823 C822 1.363 . S
C823 C829 1.428 . S
H824 C820 0.930 . S
H825 C822 0.929 . S
S826 N827 1.613 . S
S826 N828 1.610 . S
N827 S826 1.613 . S
N827 C830 1.350 . S
N828 S826 1.610 . S
N828 C829 1.351 . S
C829 C823 1.428 . S
C829 N828 1.351 . S
C829 C830 1.434 . S
C830 C821 1.429 . S
C830 N827 1.350 . S
C830 C829 1.434 . S
C831 C832 1.369 . S
C831 C833 1.419 . S
C831 H835 0.930 . S
C832 C831 1.369 . S
C832 C841 1.429 . S
C833 C831 1.419 . S
C833 C834 1.363 . S
C833 H836 0.929 . S
C834 C833 1.363 . S
C834 C840 1.428 . S
H835 C831 0.930 . S
H836 C833 0.929 . S
S837 N838 1.613 . S
S837 N839 1.610 . S
N838 S837 1.613 . S
N838 C841 1.350 . S
N839 S837 1.610 . S
N839 C840 1.351 . S
C840 C834 1.428 . S
C840 N839 1.351 . S
C840 C841 1.434 . S
C841 C832 1.429 . S
C841 N838 1.350 . S
C841 C840 1.434 . S
C842 C843 1.369 . S
C842 C844 1.419 . S
C842 H846 0.930 . S
C843 C842 1.369 . S
C843 C852 1.429 . S
C844 C842 1.419 . S
C844 C845 1.363 . S
C844 H847 0.929 . S
C845 C844 1.363 . S
C845 C851 1.428 . S
H846 C842 0.930 . S
H847 C844 0.929 . S
S848 N849 1.613 . S
S848 N850 1.610 . S
N849 S848 1.613 . S
N849 C852 1.350 . S
N850 S848 1.610 . S
N850 C851 1.351 . S
C851 C845 1.428 . S
C851 N850 1.351 . S
C851 C852 1.434 . S
C852 C843 1.429 . S
C852 N849 1.350 . S
C852 C851 1.434 . S
C853 C854 1.369 . S
C853 C855 1.419 . S
C853 H857 0.930 . S
C854 C853 1.369 . S
C854 C863 1.429 . S
C855 C853 1.419 . S
C855 C856 1.363 . S
C855 H858 0.929 . S
C856 C855 1.363 . S
C856 C862 1.428 . S
H857 C853 0.930 . S
H858 C855 0.929 . S
S859 N860 1.613 . S
S859 N861 1.610 . S
N860 S859 1.613 . S
N860 C863 1.350 . S
N861 S859 1.610 . S
N861 C862 1.351 . S
C862 C856 1.428 . S
C862 N861 1.351 . S
C862 C863 1.434 . S
C863 C854 1.429 . S
C863 N860 1.350 . S
C863 C862 1.434 . S
C864 C865 1.369 . S
C864 C866 1.419 . S
C864 H868 0.930 . S
C865 C864 1.369 . S
C865 C874 1.429 . S
C866 C864 1.419 . S
C866 C867 1.363 . S
C866 H869 0.929 . S
C867 C866 1.363 . S
C867 C873 1.428 . S
H868 C864 0.930 . S
H869 C866 0.929 . S
S870 N871 1.613 . S
S870 N872 1.610 . S
N871 S870 1.613 . S
N871 C874 1.350 . S
N872 S870 1.610 . S
N872 C873 1.351 . S
C873 C867 1.428 . S
C873 N872 1.351 . S
C873 C874 1.434 . S
C874 C865 1.429 . S
C874 N871 1.350 . S
C874 C873 1.434 . S
C875 C876 1.369 . S
C875 C877 1.419 1_565 S
C875 H879 0.930 . S
C876 C875 1.369 . S
C876 C885 1.429 . S
C877 C875 1.419 1_545 S
C877 C878 1.363 . S
C877 H880 0.929 . S
C878 C877 1.363 . S
C878 C884 1.428 . S
H879 C875 0.930 . S
H880 C877 0.929 . S
S881 N882 1.613 1_545 S
S881 N883 1.610 . S
N882 S881 1.613 1_565 S
N882 C885 1.350 . S
N883 S881 1.610 . S
N883 C884 1.351 . S
C884 C878 1.428 . S
C884 N883 1.351 . S
C884 C885 1.434 1_545 S
C885 C876 1.429 . S
C885 N882 1.350 . S
C885 C884 1.434 1_565 S
C886 C887 1.369 . S
C886 C888 1.419 1_655 S
C886 H890 0.930 . S
C887 C886 1.369 . S
C887 C896 1.429 . S
C888 C886 1.419 1_455 S
C888 C889 1.363 . S
C888 H891 0.929 . S
C889 C888 1.363 . S
C889 C895 1.428 . S
H890 C886 0.930 . S
H891 C888 0.929 . S
S892 N893 1.613 1_455 S
S892 N894 1.610 . S
N893 S892 1.613 1_655 S
N893 C896 1.350 . S
N894 S892 1.610 . S
N894 C895 1.351 . S
C895 C889 1.428 . S
C895 N894 1.351 . S
C895 C896 1.434 1_455 S
C896 C887 1.429 . S
C896 N893 1.350 . S
C896 C895 1.434 1_655 S
C897 C898 1.369 . S
C897 C899 1.419 . S
C897 H901 0.930 . S
C898 C897 1.369 . S
C898 C907 1.429 . S
C899 C897 1.419 . S
C899 C900 1.363 . S
C899 H902 0.929 . S
C900 C899 1.363 . S
C900 C906 1.428 . S
H901 C897 0.930 . S
H902 C899 0.929 . S
S903 N904 1.613 . S
S903 N905 1.610 . S
N904 S903 1.613 . S
N904 C907 1.350 . S
N905 S903 1.610 . S
N905 C906 1.351 . S
C906 C900 1.428 . S
C906 N905 1.351 . S
C906 C907 1.434 . S
C907 C898 1.429 . S
C907 N904 1.350 . S
C907 C906 1.434 . S
C908 C909 1.369 . S
C908 C910 1.419 1_545 S
C908 H912 0.930 . S
C909 C908 1.369 . S
C909 C918 1.429 . S
C910 C908 1.419 1_565 S
C910 C911 1.363 . S
C910 H913 0.929 . S
C911 C910 1.363 . S
C911 C917 1.428 . S
H912 C908 0.930 . S
H913 C910 0.929 . S
S914 N915 1.613 1_565 S
S914 N916 1.610 . S
N915 S914 1.613 1_545 S
N915 C918 1.350 . S
N916 S914 1.610 . S
N916 C917 1.351 . S
C917 C911 1.428 . S
C917 N916 1.351 . S
C917 C918 1.434 1_565 S
C918 C909 1.429 . S
C918 N915 1.350 . S
C918 C917 1.434 1_545 S
C919 C920 1.369 . S
C919 C921 1.419 1_655 S
C919 H923 0.930 . S
C920 C919 1.369 . S
C920 C929 1.429 . S
C921 C919 1.419 1_455 S
C921 C922 1.363 . S
C921 H924 0.929 . S
C922 C921 1.363 . S
C922 C928 1.428 . S
H923 C919 0.930 . S
H924 C921 0.929 . S
S925 N926 1.613 1_455 S
S925 N927 1.610 . S
N926 S925 1.613 1_655 S
N926 C929 1.350 . S
N927 S925 1.610 . S
N927 C928 1.351 . S
C928 C922 1.428 . S
C928 N927 1.351 . S
C928 C929 1.434 1_455 S
C929 C920 1.429 . S
C929 N926 1.350 . S
C929 C928 1.434 1_655 S
C930 C931 1.369 . S
C930 C932 1.419 . S
C930 H934 0.930 . S
C931 C930 1.369 . S
C931 C940 1.429 . S
C932 C930 1.419 . S
C932 C933 1.363 . S
C932 H935 0.929 . S
C933 C932 1.363 . S
C933 C939 1.428 . S
H934 C930 0.930 . S
H935 C932 0.929 . S
S936 N937 1.613 . S
S936 N938 1.610 . S
N937 S936 1.613 . S
N937 C940 1.350 . S
N938 S936 1.610 . S
N938 C939 1.351 . S
C939 C933 1.428 . S
C939 N938 1.351 . S
C939 C940 1.434 . S
C940 C931 1.429 . S
C940 N937 1.350 . S
C940 C939 1.434 . S
C941 C942 1.369 . S
C941 C943 1.419 . S
C941 H945 0.930 . S
C942 C941 1.369 . S
C942 C951 1.429 . S
C943 C941 1.419 . S
C943 C944 1.363 . S
C943 H946 0.929 . S
C944 C943 1.363 . S
C944 C950 1.428 . S
H945 C941 0.930 . S
H946 C943 0.929 . S
S947 N948 1.613 . S
S947 N949 1.610 . S
N948 S947 1.613 . S
N948 C951 1.350 . S
N949 S947 1.610 . S
N949 C950 1.351 . S
C950 C944 1.428 . S
C950 N949 1.351 . S
C950 C951 1.434 . S
C951 C942 1.429 . S
C951 N948 1.350 . S
C951 C950 1.434 . S
C952 C953 1.369 . S
C952 C954 1.419 . S
C952 H956 0.930 . S
C953 C952 1.369 . S
C953 C962 1.429 . S
C954 C952 1.419 . S
C954 C955 1.363 . S
C954 H957 0.929 . S
C955 C954 1.363 . S
C955 C961 1.428 . S
H956 C952 0.930 . S
H957 C954 0.929 . S
S958 N959 1.613 . S
S958 N960 1.610 . S
N959 S958 1.613 . S
N959 C962 1.350 . S
N960 S958 1.610 . S
N960 C961 1.351 . S
C961 C955 1.428 . S
C961 N960 1.351 . S
C961 C962 1.434 . S
C962 C953 1.429 . S
C962 N959 1.350 . S
C962 C961 1.434 . S
C963 C964 1.369 . S
C963 C965 1.419 . S
C963 H967 0.930 . S
C964 C963 1.369 . S
C964 C973 1.429 . S
C965 C963 1.419 . S
C965 C966 1.363 . S
C965 H968 0.929 . S
C966 C965 1.363 . S
C966 C972 1.428 . S
H967 C963 0.930 . S
H968 C965 0.929 . S
S969 N970 1.613 . S
S969 N971 1.610 . S
N970 S969 1.613 . S
N970 C973 1.350 . S
N971 S969 1.610 . S
N971 C972 1.351 . S
C972 C966 1.428 . S
C972 N971 1.351 . S
C972 C973 1.434 . S
C973 C964 1.429 . S
C973 N970 1.350 . S
C973 C972 1.434 . S
C974 C975 1.369 . S
C974 C976 1.419 . S
C974 H978 0.930 . S
C975 C974 1.369 . S
C975 C984 1.429 . S
C976 C974 1.419 . S
C976 C977 1.363 . S
C976 H979 0.929 . S
C977 C976 1.363 . S
C977 C983 1.428 . S
H978 C974 0.930 . S
H979 C976 0.929 . S
S980 N981 1.613 1_556 S
S980 N982 1.610 1_556 S
N981 S980 1.613 1_554 S
N981 C984 1.350 . S
N982 S980 1.610 1_554 S
N982 C983 1.351 . S
C983 C977 1.428 . S
C983 N982 1.351 . S
C983 C984 1.434 . S
C984 C975 1.429 . S
C984 N981 1.350 . S
C984 C983 1.434 . S
C985 C986 1.369 . S
C985 C987 1.419 . S
C985 H989 0.930 . S
C986 C985 1.369 . S
C986 C995 1.429 . S
C987 C985 1.419 . S
C987 C988 1.363 . S
C987 H990 0.929 . S
C988 C987 1.363 . S
C988 C994 1.428 . S
H989 C985 0.930 . S
H990 C987 0.929 . S
S991 N992 1.613 . S
S991 N993 1.610 . S
N992 S991 1.613 . S
N992 C995 1.350 . S
N993 S991 1.610 . S
N993 C994 1.351 . S
C994 C988 1.428 . S
C994 N993 1.351 . S
C994 C995 1.434 . S
C995 C986 1.429 . S
C995 N992 1.350 . S
C995 C994 1.434 . S
C996 C997 1.369 . S
C996 C998 1.419 . S
C996 H1000 0.930 1_556 S
C997 C996 1.369 . S
C997 C1006 1.429 . S
C998 C996 1.419 . S
C998 C999 1.363 . S
C998 H1001 0.929 . S
C999 C998 1.363 . S
C999 C1005 1.428 . S
H1000 C996 0.930 1_554 S
H1001 C998 0.929 . S
S1002 N1003 1.613 . S
S1002 N1004 1.610 . S
N1003 S1002 1.613 . S
N1003 C1006 1.350 . S
N1004 S1002 1.610 . S
N1004 C1005 1.351 . S
C1005 C999 1.428 . S
C1005 N1004 1.351 . S
C1005 C1006 1.434 . S
C1006 C997 1.429 . S
C1006 N1003 1.350 . S
C1006 C1005 1.434 . S
C1007 C1008 1.369 . S
C1007 C1009 1.419 . S
C1007 H1011 0.930 1_556 S
C1008 C1007 1.369 . S
C1008 C1017 1.429 . S
C1009 C1007 1.419 . S
C1009 C1010 1.363 . S
C1009 H1012 0.929 . S
C1010 C1009 1.363 . S
C1010 C1016 1.428 . S
H1011 C1007 0.930 1_554 S
H1012 C1009 0.929 . S
S1013 N1014 1.613 . S
S1013 N1015 1.610 . S
N1014 S1013 1.613 . S
N1014 C1017 1.350 . S
N1015 S1013 1.610 . S
N1015 C1016 1.351 . S
C1016 C1010 1.428 . S
C1016 N1015 1.351 . S
C1016 C1017 1.434 . S
C1017 C1008 1.429 . S
C1017 N1014 1.350 . S
C1017 C1016 1.434 . S
C1018 C1019 1.369 . S
C1018 C1020 1.419 . S
C1018 H1022 0.930 . S
C1019 C1018 1.369 . S
C1019 C1028 1.429 . S
C1020 C1018 1.419 . S
C1020 C1021 1.363 . S
C1020 H1023 0.929 . S
C1021 C1020 1.363 . S
C1021 C1027 1.428 . S
H1022 C1018 0.930 . S
H1023 C1020 0.929 . S
S1024 N1025 1.613 . S
S1024 N1026 1.610 . S
N1025 S1024 1.613 . S
N1025 C1028 1.350 . S
N1026 S1024 1.610 . S
N1026 C1027 1.351 . S
C1027 C1021 1.428 . S
C1027 N1026 1.351 . S
C1027 C1028 1.434 . S
C1028 C1019 1.429 . S
C1028 N1025 1.350 . S
C1028 C1027 1.434 . S
C1029 C1030 1.369 . S
C1029 C1031 1.419 . S
C1029 H1033 0.930 . S
C1030 C1029 1.369 . S
C1030 C1039 1.429 . S
C1031 C1029 1.419 . S
C1031 C1032 1.363 . S
C1031 H1034 0.929 . S
C1032 C1031 1.363 . S
C1032 C1038 1.428 . S
H1033 C1029 0.930 . S
H1034 C1031 0.929 . S
S1035 N1036 1.613 . S
S1035 N1037 1.610 . S
N1036 S1035 1.613 . S
N1036 C1039 1.350 . S
N1037 S1035 1.610 . S
N1037 C1038 1.351 . S
C1038 C1032 1.428 . S
C1038 N1037 1.351 . S
C1038 C1039 1.434 . S
C1039 C1030 1.429 . S
C1039 N1036 1.350 . S
C1039 C1038 1.434 . S
C1040 C1041 1.369 . S
C1040 C1042 1.419 . S
C1040 H1044 0.930 . S
C1041 C1040 1.369 . S
C1041 C1050 1.429 . S
C1042 C1040 1.419 . S
C1042 C1043 1.363 . S
C1042 H1045 0.929 . S
C1043 C1042 1.363 . S
C1043 C1049 1.428 . S
H1044 C1040 0.930 . S
H1045 C1042 0.929 . S
S1046 N1047 1.613 . S
S1046 N1048 1.610 . S
N1047 S1046 1.613 . S
N1047 C1050 1.350 . S
N1048 S1046 1.610 . S
N1048 C1049 1.351 . S
C1049 C1043 1.428 . S
C1049 N1048 1.351 . S
C1049 C1050 1.434 . S
C1050 C1041 1.429 . S
C1050 N1047 1.350 . S
C1050 C1049 1.434 . S
C1051 C1052 1.369 . S
C1051 C1053 1.419 . S
C1051 H1055 0.930 . S
C1052 C1051 1.369 . S
C1052 C1061 1.429 . S
C1053 C1051 1.419 . S
C1053 C1054 1.363 . S
C1053 H1056 0.929 . S
C1054 C1053 1.363 . S
C1054 C1060 1.428 . S
H1055 C1051 0.930 . S
H1056 C1053 0.929 . S
S1057 N1058 1.613 . S
S1057 N1059 1.610 . S
N1058 S1057 1.613 . S
N1058 C1061 1.350 . S
N1059 S1057 1.610 . S
N1059 C1060 1.351 . S
C1060 C1054 1.428 . S
C1060 N1059 1.351 . S
C1060 C1061 1.434 . S
C1061 C1052 1.429 . S
C1061 N1058 1.350 . S
C1061 C1060 1.434 . S
C1062 C1063 1.369 . S
C1062 C1064 1.419 . S
C1062 H1066 0.930 . S
C1063 C1062 1.369 . S
C1063 C1072 1.429 . S
C1064 C1062 1.419 . S
C1064 C1065 1.363 . S
C1064 H1067 0.929 . S
C1065 C1064 1.363 . S
C1065 C1071 1.428 . S
H1066 C1062 0.930 . S
H1067 C1064 0.929 . S
S1068 N1069 1.613 . S
S1068 N1070 1.610 . S
N1069 S1068 1.613 . S
N1069 C1072 1.350 . S
N1070 S1068 1.610 . S
N1070 C1071 1.351 . S
C1071 C1065 1.428 . S
C1071 N1070 1.351 . S
C1071 C1072 1.434 . S
C1072 C1063 1.429 . S
C1072 N1069 1.350 . S
C1072 C1071 1.434 . S
C1073 C1074 1.369 . S
C1073 C1075 1.419 . S
C1073 H1077 0.930 . S
C1074 C1073 1.369 . S
C1074 C1083 1.429 . S
C1075 C1073 1.419 . S
C1075 C1076 1.363 . S
C1075 H1078 0.929 . S
C1076 C1075 1.363 . S
C1076 C1082 1.428 . S
H1077 C1073 0.930 . S
H1078 C1075 0.929 . S
S1079 N1080 1.613 . S
S1079 N1081 1.610 . S
N1080 S1079 1.613 . S
N1080 C1083 1.350 . S
N1081 S1079 1.610 . S
N1081 C1082 1.351 . S
C1082 C1076 1.428 . S
C1082 N1081 1.351 . S
C1082 C1083 1.434 . S
C1083 C1074 1.429 . S
C1083 N1080 1.350 . S
C1083 C1082 1.434 . S
C1084 C1085 1.369 . S
C1084 C1086 1.419 . S
C1084 H1088 0.930 . S
C1085 C1084 1.369 . S
C1085 C1094 1.429 . S
C1086 C1084 1.419 . S
C1086 C1087 1.363 . S
C1086 H1089 0.929 . S
C1087 C1086 1.363 . S
C1087 C1093 1.428 . S
H1088 C1084 0.930 . S
H1089 C1086 0.929 . S
S1090 N1091 1.613 . S
S1090 N1092 1.610 . S
N1091 S1090 1.613 . S
N1091 C1094 1.350 . S
N1092 S1090 1.610 . S
N1092 C1093 1.351 . S
C1093 C1087 1.428 . S
C1093 N1092 1.351 . S
C1093 C1094 1.434 . S
C1094 C1085 1.429 . S
C1094 N1091 1.350 . S
C1094 C1093 1.434 . S
C1095 C1096 1.369 . S
C1095 C1097 1.419 . S
C1095 H1099 0.930 . S
C1096 C1095 1.369 . S
C1096 C1105 1.429 . S
C1097 C1095 1.419 . S
C1097 C1098 1.363 . S
C1097 H1100 0.929 . S
C1098 C1097 1.363 . S
C1098 C1104 1.428 . S
H1099 C1095 0.930 . S
H1100 C1097 0.929 . S
S1101 N1102 1.613 . S
S1101 N1103 1.610 . S
N1102 S1101 1.613 . S
N1102 C1105 1.350 . S
N1103 S1101 1.610 . S
N1103 C1104 1.351 . S
C1104 C1098 1.428 . S
C1104 N1103 1.351 . S
C1104 C1105 1.434 . S
C1105 C1096 1.429 . S
C1105 N1102 1.350 . S
C1105 C1104 1.434 . S
C1106 C1107 1.369 . S
C1106 C1108 1.419 . S
C1106 H1110 0.930 . S
C1107 C1106 1.369 . S
C1107 C1116 1.429 . S
C1108 C1106 1.419 . S
C1108 C1109 1.363 . S
C1108 H1111 0.929 . S
C1109 C1108 1.363 . S
C1109 C1115 1.428 . S
H1110 C1106 0.930 . S
H1111 C1108 0.929 . S
S1112 N1113 1.613 . S
S1112 N1114 1.610 . S
N1113 S1112 1.613 . S
N1113 C1116 1.350 . S
N1114 S1112 1.610 . S
N1114 C1115 1.351 . S
C1115 C1109 1.428 . S
C1115 N1114 1.351 . S
C1115 C1116 1.434 . S
C1116 C1107 1.429 . S
C1116 N1113 1.350 . S
C1116 C1115 1.434 . S
C1117 C1118 1.369 . S
C1117 C1119 1.419 . S
C1117 H1121 0.930 . S
C1118 C1117 1.369 . S
C1118 C1127 1.429 . S
C1119 C1117 1.419 . S
C1119 C1120 1.363 . S
C1119 H1122 0.929 . S
C1120 C1119 1.363 . S
C1120 C1126 1.428 . S
H1121 C1117 0.930 . S
H1122 C1119 0.929 . S
S1123 N1124 1.613 . S
S1123 N1125 1.610 . S
N1124 S1123 1.613 . S
N1124 C1127 1.350 . S
N1125 S1123 1.610 . S
N1125 C1126 1.351 . S
C1126 C1120 1.428 . S
C1126 N1125 1.351 . S
C1126 C1127 1.434 . S
C1127 C1118 1.429 . S
C1127 N1124 1.350 . S
C1127 C1126 1.434 . S
C1128 C1129 1.369 . S
C1128 C1130 1.419 . S
C1128 H1132 0.930 . S
C1129 C1128 1.369 . S
C1129 C1138 1.429 . S
C1130 C1128 1.419 . S
C1130 C1131 1.363 . S
C1130 H1133 0.929 . S
C1131 C1130 1.363 . S
C1131 C1137 1.428 . S
H1132 C1128 0.930 . S
H1133 C1130 0.929 . S
S1134 N1135 1.613 . S
S1134 N1136 1.610 . S
N1135 S1134 1.613 . S
N1135 C1138 1.350 . S
N1136 S1134 1.610 . S
N1136 C1137 1.351 . S
C1137 C1131 1.428 . S
C1137 N1136 1.351 . S
C1137 C1138 1.434 . S
C1138 C1129 1.429 . S
C1138 N1135 1.350 . S
C1138 C1137 1.434 . S
C1139 C1140 1.369 . S
C1139 C1141 1.419 . S
C1139 H1143 0.930 . S
C1140 C1139 1.369 . S
C1140 C1149 1.429 . S
C1141 C1139 1.419 . S
C1141 C1142 1.363 . S
C1141 H1144 0.929 . S
C1142 C1141 1.363 . S
C1142 C1148 1.428 . S
H1143 C1139 0.930 . S
H1144 C1141 0.929 . S
S1145 N1146 1.613 . S
S1145 N1147 1.610 . S
N1146 S1145 1.613 . S
N1146 C1149 1.350 . S
N1147 S1145 1.610 . S
N1147 C1148 1.351 . S
C1148 C1142 1.428 . S
C1148 N1147 1.351 . S
C1148 C1149 1.434 . S
C1149 C1140 1.429 . S
C1149 N1146 1.350 . S
C1149 C1148 1.434 . S
C1150 C1151 1.369 . S
C1150 C1152 1.419 . S
C1150 H1154 0.930 . S
C1151 C1150 1.369 . S
C1151 C1160 1.429 . S
C1152 C1150 1.419 . S
C1152 C1153 1.363 . S
C1152 H1155 0.929 . S
C1153 C1152 1.363 . S
C1153 C1159 1.428 . S
H1154 C1150 0.930 . S
H1155 C1152 0.929 . S
S1156 N1157 1.613 . S
S1156 N1158 1.610 . S
N1157 S1156 1.613 . S
N1157 C1160 1.350 . S
N1158 S1156 1.610 . S
N1158 C1159 1.351 . S
C1159 C1153 1.428 . S
C1159 N1158 1.351 . S
C1159 C1160 1.434 . S
C1160 C1151 1.429 . S
C1160 N1157 1.350 . S
C1160 C1159 1.434 . S
C1161 C1162 1.369 . S
C1161 C1163 1.419 . S
C1161 H1165 0.930 . S
C1162 C1161 1.369 . S
C1162 C1171 1.429 . S
C1163 C1161 1.419 . S
C1163 C1164 1.363 . S
C1163 H1166 0.929 . S
C1164 C1163 1.363 . S
C1164 C1170 1.428 . S
H1165 C1161 0.930 . S
H1166 C1163 0.929 . S
S1167 N1168 1.613 . S
S1167 N1169 1.610 . S
N1168 S1167 1.613 . S
N1168 C1171 1.350 . S
N1169 S1167 1.610 . S
N1169 C1170 1.351 . S
C1170 C1164 1.428 . S
C1170 N1169 1.351 . S
C1170 C1171 1.434 . S
C1171 C1162 1.429 . S
C1171 N1168 1.350 . S
C1171 C1170 1.434 . S
C1172 C1173 1.369 . S
C1172 C1174 1.419 . S
C1172 H1176 0.930 . S
C1173 C1172 1.369 . S
C1173 C1182 1.429 . S
C1174 C1172 1.419 . S
C1174 C1175 1.363 . S
C1174 H1177 0.929 . S
C1175 C1174 1.363 . S
C1175 C1181 1.428 . S
H1176 C1172 0.930 . S
H1177 C1174 0.929 . S
S1178 N1179 1.613 . S
S1178 N1180 1.610 . S
N1179 S1178 1.613 . S
N1179 C1182 1.350 . S
N1180 S1178 1.610 . S
N1180 C1181 1.351 . S
C1181 C1175 1.428 . S
C1181 N1180 1.351 . S
C1181 C1182 1.434 . S
C1182 C1173 1.429 . S
C1182 N1179 1.350 . S
C1182 C1181 1.434 . S
C1183 C1184 1.369 . S
C1183 C1185 1.419 . S
C1183 H1187 0.930 . S
C1184 C1183 1.369 . S
C1184 C1193 1.429 . S
C1185 C1183 1.419 . S
C1185 C1186 1.363 . S
C1185 H1188 0.929 . S
C1186 C1185 1.363 . S
C1186 C1192 1.428 . S
H1187 C1183 0.930 . S
H1188 C1185 0.929 . S
S1189 N1190 1.613 . S
S1189 N1191 1.610 . S
N1190 S1189 1.613 . S
N1190 C1193 1.350 . S
N1191 S1189 1.610 . S
N1191 C1192 1.351 . S
C1192 C1186 1.428 . S
C1192 N1191 1.351 . S
C1192 C1193 1.434 . S
C1193 C1184 1.429 . S
C1193 N1190 1.350 . S
C1193 C1192 1.434 . S
C1194 C1195 1.369 . S
C1194 C1196 1.419 1_455 S
C1194 H1198 0.930 . S
C1195 C1194 1.369 . S
C1195 C1204 1.429 . S
C1196 C1194 1.419 1_655 S
C1196 C1197 1.363 . S
C1196 H1199 0.929 . S
C1197 C1196 1.363 . S
C1197 C1203 1.428 . S
H1198 C1194 0.930 . S
H1199 C1196 0.929 . S
S1200 N1201 1.613 . S
S1200 N1202 1.610 1_455 S
N1201 S1200 1.613 . S
N1201 C1204 1.350 . S
N1202 S1200 1.610 1_655 S
N1202 C1203 1.351 . S
C1203 C1197 1.428 . S
C1203 N1202 1.351 . S
C1203 C1204 1.434 1_655 S
C1204 C1195 1.429 . S
C1204 N1201 1.350 . S
C1204 C1203 1.434 1_455 S
C1205 C1206 1.369 . S
C1205 C1207 1.419 . S
C1205 H1209 0.930 . S
C1206 C1205 1.369 . S
C1206 C1215 1.429 . S
C1207 C1205 1.419 . S
C1207 C1208 1.363 . S
C1207 H1210 0.929 . S
C1208 C1207 1.363 . S
C1208 C1214 1.428 . S
H1209 C1205 0.930 . S
H1210 C1207 0.929 . S
S1211 N1212 1.613 . S
S1211 N1213 1.610 . S
N1212 S1211 1.613 . S
N1212 C1215 1.350 . S
N1213 S1211 1.610 . S
N1213 C1214 1.351 . S
C1214 C1208 1.428 . S
C1214 N1213 1.351 . S
C1214 C1215 1.434 . S
C1215 C1206 1.429 . S
C1215 N1212 1.350 . S
C1215 C1214 1.434 . S
C1216 C1217 1.369 . S
C1216 C1218 1.419 1_545 S
C1216 H1220 0.930 . S
C1217 C1216 1.369 . S
C1217 C1226 1.429 . S
C1218 C1216 1.419 1_565 S
C1218 C1219 1.363 . S
C1218 H1221 0.929 . S
C1219 C1218 1.363 . S
C1219 C1225 1.428 . S
H1220 C1216 0.930 . S
H1221 C1218 0.929 . S
S1222 N1223 1.613 1_565 S
S1222 N1224 1.610 . S
N1223 S1222 1.613 1_545 S
N1223 C1226 1.350 . S
N1224 S1222 1.610 . S
N1224 C1225 1.351 . S
C1225 C1219 1.428 . S
C1225 N1224 1.351 . S
C1225 C1226 1.434 1_565 S
C1226 C1217 1.429 . S
C1226 N1223 1.350 . S
C1226 C1225 1.434 1_545 S
C1227 C1228 1.369 1_556 S
C1227 C1229 1.419 1_545 S
C1227 H1231 0.930 . S
C1228 C1227 1.369 1_554 S
C1228 C1237 1.429 . S
C1229 C1227 1.419 1_565 S
C1229 C1230 1.363 . S
C1229 H1232 0.929 . S
C1230 C1229 1.363 . S
C1230 C1236 1.428 1_556 S
H1231 C1227 0.930 . S
H1232 C1229 0.929 . S
S1233 N1234 1.613 1_565 S
S1233 N1235 1.610 . S
N1234 S1233 1.613 1_545 S
N1234 C1237 1.350 . S
N1235 S1233 1.610 . S
N1235 C1236 1.351 . S
C1236 C1230 1.428 1_554 S
C1236 N1235 1.351 . S
C1236 C1237 1.434 1_565 S
C1237 C1228 1.429 . S
C1237 N1234 1.350 . S
C1237 C1236 1.434 1_545 S
C1238 C1239 1.369 . S
C1238 C1240 1.419 1_655 S
C1238 H1242 0.930 . S
C1239 C1238 1.369 . S
C1239 C1248 1.429 1_554 S
C1240 C1238 1.419 1_455 S
C1240 C1241 1.363 1_554 S
C1240 H1243 0.929 . S
C1241 C1240 1.363 1_556 S
C1241 C1247 1.428 . S
H1242 C1238 0.930 . S
H1243 C1240 0.929 . S
S1244 N1245 1.613 . S
S1244 N1246 1.610 1_655 S
N1245 S1244 1.613 . S
N1245 C1248 1.350 . S
N1246 S1244 1.610 1_455 S
N1246 C1247 1.351 . S
C1247 C1241 1.428 . S
C1247 N1246 1.351 . S
C1247 C1248 1.434 1_455 S
C1248 C1239 1.429 1_556 S
C1248 N1245 1.350 . S
C1248 C1247 1.434 1_655 S
C1249 C1250 1.369 . S
C1249 C1251 1.417 1_554 S
C1249 H1253 0.930 . S
C1250 C1249 1.369 . S
C1250 C1259 1.429 . S
C1251 C1249 1.417 1_556 S
C1251 C1252 1.365 . S
C1251 H1254 0.929 . S
C1252 C1251 1.365 . S
C1252 C1258 1.428 . S
H1253 C1249 0.930 . S
H1254 C1251 0.929 . S
S1255 N1256 1.613 1_556 S
S1255 N1257 1.610 . S
N1256 S1255 1.613 1_554 S
N1256 C1259 1.350 . S
N1257 S1255 1.610 . S
N1257 C1258 1.351 . S
C1258 C1252 1.428 . S
C1258 N1257 1.351 . S
C1258 C1259 1.434 1_556 S
C1259 C1250 1.429 . S
C1259 N1256 1.350 . S
C1259 C1258 1.434 1_554 S
C469 C134 1.436 . S
C471 C5 1.428 . S
C480 C147 1.435 . S
C482 C18 1.428 . S
C491 C29 1.432 . S
C493 C121 1.429 . S
C502 C44 1.431 . S
C504 C108 1.435 . S
C513 C57 1.428 . S
C515 C82 1.435 . S
C524 C101 1.429 . S
C526 C68 1.433 . S
C535 C56 1.430 . S
C537 C83 1.433 . S
C546 C75 1.435 . S
C548 C94 1.427 . S
C557 C109 1.434 . S
C559 C43 1.431 . S
C568 C36 1.436 . S
C570 C122 1.428 . S
C579 C135 1.426 . S
C581 C4 1.434 . S
C590 C148 1.433 . S
C592 C17 1.429 . S
C601 C296 1.429 . S
C603 C161 1.433 . S
C612 C303 1.436 . S
C614 C174 1.428 . S
C623 C187 1.432 . S
C625 C277 1.429 . S
C634 C200 1.431 . S
C636 C264 1.430 1_556 S
C645 C213 1.427 . S
C647 C238 1.432 1_556 S
C656 C226 1.434 . S
C658 C251 1.431 1_556 S
C667 C212 1.434 . S
C669 C239 1.427 . S
C678 C225 1.436 . S
C680 C252 1.429 . S
C689 C199 1.429 . S
C691 C265 1.431 . S
C700 C186 1.436 . S
C702 C278 1.430 . S
C711 C160 1.436 . S
C713 C289 1.428 . S
C722 C173 1.431 . S
C724 C304 1.433 . S
C733 C315 1.433 . S
C735 C452 1.434 . S
C744 C459 1.429 . S
C746 C328 1.431 . S
C755 C433 1.435 . S
C757 C341 1.431 . S
C766 C356 1.428 . S
C768 C426 1.432 . S
C777 C367 1.428 . S
C779 C400 1.435 . S
C788 C382 1.428 . S
C790 C413 1.435 . S
C799 C374 1.430 . S
C801 C393 1.433 . S
C810 C381 1.436 . S
C812 C406 1.428 . S
C821 C355 1.431 . S
C823 C419 1.428 . S
C832 C434 1.429 . S
C834 C348 1.431 1_554 S
C843 C322 1.434 1_554 S
C845 C445 1.427 . S
C854 C460 1.427 . S
C856 C335 1.432 1_554 S
C865 C49 1.553 . S
C867 C10 1.553 . S
C876 C62 1.553 . S
C878 C23 1.553 . S
C887 C30 1.553 . S
C889 C69 1.553 . S
C898 C127 1.552 . S
C900 C88 1.552 . S
C909 C140 1.553 . S
C911 C95 1.553 . S
C920 C153 1.554 . S
C922 C114 1.553 . S
C931 C205 1.552 . S
C933 C166 1.552 . S
C942 C218 1.553 . S
C944 C179 1.553 . S
C953 C192 1.553 . S
C955 C231 1.553 . S
C964 C244 1.552 . S
C966 C283 1.552 . S
C975 C290 1.553 . S
C977 C257 1.553 . S
C986 C270 1.553 . S
C988 C309 1.553 . S
C997 C361 1.552 . S
C999 C316 1.552 . S
C1008 C368 1.553 . S
C1010 C329 1.553 . S
C1019 C342 1.554 . S
C1021 C387 1.553 . S
C1030 C394 1.552 . S
C1032 C439 1.552 . S
C1041 C407 1.553 . S
C1043 C446 1.553 . S
C1052 C420 1.553 . S
C1054 C465 1.553 . S
C1063 C3 1.540 . S
C1065 C237 1.541 . S
C1074 C250 1.540 . S
C1076 C16 1.541 . S
C1085 C263 1.540 . S
C1087 C31 1.541 . S
C1096 C432 1.540 . S
C1098 C42 1.540 . S
C1107 C447 1.540 . S
C1109 C55 1.541 . S
C1118 C458 1.540 . S
C1120 C70 1.541 . S
C1129 C81 1.540 . S
C1131 C317 1.541 . S
C1140 C330 1.540 . S
C1142 C96 1.541 . S
C1151 C343 1.541 . S
C1153 C107 1.541 . S
C1162 C120 1.540 . S
C1164 C198 1.540 . S
C1173 C133 1.540 . S
C1175 C211 1.541 . S
C1184 C146 1.541 . S
C1186 C224 1.540 . S
C1195 C395 1.541 . S
C1197 C159 1.540 . S
C1206 C408 1.541 . S
C1208 C172 1.540 . S
C1217 C185 1.540 . S
C1219 C421 1.541 . S
C1228 C276 1.540 . S
C1230 C354 1.541 . S
C1239 C291 1.541 . S
C1241 C369 1.540 . S
C1250 C302 1.541 . S
C1252 C380 1.541 . S
