# Generated by pormake.
# Topology fnt, (5)-cn, num edge types: 1
# Building blocks:
#     Node 0, Type 0, BuildingBlock: XOMCOT_clean_sbu_0, # of connection points: 5
#     Node 1, Type 0, BuildingBlock: XOMCOT_clean_sbu_0, # of connection points: 5
#     Node 2, Type 0, BuildingBlock: XOMCOT_clean_sbu_0, # of connection points: 5
#     Node 3, Type 0, BuildingBlock: XOMCOT_clean_sbu_0, # of connection points: 5
#     Node 4, Type 0, BuildingBlock: XOMCOT_clean_sbu_0, # of connection points: 5
#     Node 5, Type 0, BuildingBlock: XOMCOT_clean_sbu_0, # of connection points: 5
#     Edge 6, Type (0, 0), BuildingBlock: KIFKEQ_clean_linker_1, # of connection points: 2
#     Edge 7, Type (0, 0), BuildingBlock: KIFKEQ_clean_linker_1, # of connection points: 2
#     Edge 8, Type (0, 0), BuildingBlock: KIFKEQ_clean_linker_1, # of connection points: 2
#     Edge 9, Type (0, 0), BuildingBlock: KIFKEQ_clean_linker_1, # of connection points: 2
#     Edge 10, Type (0, 0), BuildingBlock: KIFKEQ_clean_linker_1, # of connection points: 2
#     Edge 11, Type (0, 0), BuildingBlock: KIFKEQ_clean_linker_1, # of connection points: 2
#     Edge 12, Type (0, 0), BuildingBlock: KIFKEQ_clean_linker_1, # of connection points: 2
#     Edge 13, Type (0, 0), BuildingBlock: KIFKEQ_clean_linker_1, # of connection points: 2
#     Edge 14, Type (0, 0), BuildingBlock: KIFKEQ_clean_linker_1, # of connection points: 2
#     Edge 15, Type (0, 0), BuildingBlock: KIFKEQ_clean_linker_1, # of connection points: 2
#     Edge 16, Type (0, 0), BuildingBlock: KIFKEQ_clean_linker_1, # of connection points: 2
#     Edge 17, Type (0, 0), BuildingBlock: KIFKEQ_clean_linker_1, # of connection points: 2
#     Edge 18, Type (0, 0), BuildingBlock: KIFKEQ_clean_linker_1, # of connection points: 2
#     Edge 19, Type (0, 0), BuildingBlock: KIFKEQ_clean_linker_1, # of connection points: 2
#     Edge 20, Type (0, 0), BuildingBlock: KIFKEQ_clean_linker_1, # of connection points: 2
# Relax obj value: 0.137
# Max RMSD: 0.163
# Mean RMSD: 0.163
data_MOF--net-fnt--node1-XOMCOT_clean_sbu_0--edge1-KIFKEQ_clean_linker_1
_symmetry_space_group_name_H-M    P1
_symmetry_Int_Tables_number       1
_symmetry_cell_setting            triclinic
loop_
_symmetry_equiv_pos_as_xyz
'x, y, z'
_cell_length_a     28.209622
_cell_length_b     28.138917
_cell_length_c     48.528383
_cell_angle_alpha  90.067715
_cell_angle_beta   89.452706
_cell_angle_gamma 119.68741
loop_
_atom_site_label
_atom_site_type_symbol
_atom_site_fract_x
_atom_site_fract_y
_atom_site_fract_z
_atom_type_partial_charge
Co0 Co 0.16189 0.2738 0.04432 0.0
C1 C 0.12039 0.26094 0.10153 0.0
C2 C 0.2002 0.26913 0.09971 0.0
C3 C 0.18283 0.2615 0.12678 0.0
N4 N 0.16113 0.26898 0.08399 0.0
N5 N 0.13258 0.25627 0.12793 0.0
H6 H 0.08265 0.25839 0.09498 0.0
H7 H 0.23811 0.27317 0.09198 0.0
C8 C 0.27156 0.36885 1.0312 0.0
O9 O 0.24687 0.38738 1.0153 0.0
N10 N 0.16379 0.27749 1.004 0.0
C11 C 0.14963 0.30579 0.98659 0.0
C12 C 0.15867 0.29561 0.95988 0.0
C13 C 0.1823 0.25146 0.98731 0.0
N14 N 0.17912 0.26137 0.96034 0.0
C15 C 0.09407 0.32074 0.03991 0.0
C16 C 0.15582 0.41354 0.07081 0.0
C17 C 0.10333 0.40077 0.06264 0.0
C18 C 0.07276 0.35425 0.04679 0.0
C19 C 0.1756 0.37808 0.06372 0.0
N20 N 0.14507 0.33276 0.04795 0.0
H21 H 0.06882 0.28428 1.02821 0.0
H22 H 0.21409 0.38563 0.07204 0.0
H23 H 0.13593 0.33402 0.99227 0.0
H24 H 0.19775 0.22556 0.99471 0.0
O25 O 0.08784 0.21521 0.04375 0.0
O26 O 0.15971 0.2034 0.04241 0.0
O27 O 0.24359 0.32446 0.04481 0.0
C28 C 0.10671 0.18171 0.04284 0.0
H29 H 0.20492 0.25831 0.14413 0.0
H30 H 0.15219 0.31346 0.94156 0.0
H31 H 0.18015 0.44907 0.08343 0.0
H32 H 0.03211 0.34338 0.04004 0.0
Co33 Co 0.88169 0.18324 0.38207 0.0
C34 C 0.88757 0.15665 0.44084 0.0
C35 C 0.88632 0.23179 0.4366 0.0
C36 C 0.88299 0.21906 0.46422 0.0
N37 N 0.88899 0.1925 0.42187 0.0
N38 N 0.88319 0.17144 0.46683 0.0
H39 H 0.88668 0.11885 0.43577 0.0
H40 H 0.88319 0.26548 0.42792 0.0
C41 C 0.92202 0.29752 0.35822 0.0
O42 O 0.90372 0.27795 0.33369 0.0
N43 N 0.87498 0.17285 0.34243 0.0
C44 C 0.82987 0.13977 0.32798 0.0
C45 C 0.84468 0.13936 0.30085 0.0
C46 C 0.9167 0.18993 0.32414 0.0
N47 N 0.8993 0.17131 0.29847 0.0
C48 C 0.7748 0.12982 0.40319 0.0
C49 C 0.73083 0.17906 0.37114 0.0
C50 C 0.6967 0.13593 0.38888 0.0
C51 C 0.71961 0.11228 0.40545 0.0
C52 C 0.7869 0.19674 0.37011 0.0
N53 N 0.80784 0.17101 0.38556 0.0
H54 H 0.79063 0.10843 0.415 0.0
H55 H 0.81231 0.22862 0.35582 0.0
H56 H 0.78918 0.1163 0.33659 0.0
H57 H 0.95907 0.21557 0.32962 0.0
O58 O 0.8633 0.10809 0.38498 0.0
O59 O 0.94766 0.17768 0.38045 0.0
O60 O 0.91486 0.26592 0.37872 0.0
C61 C 0.91503 0.1249 0.38246 0.0
H62 H 0.87696 0.2412 0.48087 0.0
H63 H 0.81728 0.11728 0.2842 0.0
H64 H 0.71415 0.19787 0.35782 0.0
H65 H 0.69446 0.07812 0.41897 0.0
Co66 Co 0.70403 0.89032 0.71418 0.0
C67 C 0.71633 0.87861 0.77417 0.0
C68 C 0.64251 0.87968 0.76567 0.0
C69 C 0.6435 0.86959 0.79337 0.0
N70 N 0.6883 0.88548 0.75356 0.0
N71 N 0.68986 0.86857 0.79867 0.0
H72 H 0.75348 0.87704 0.77107 0.0
H73 H 0.60909 0.87971 0.75504 0.0
C74 C 0.62986 0.92684 0.68696 0.0
O75 O 0.6412 0.91509 0.66249 0.0
N76 N 0.72145 0.89494 0.67514 0.0
C77 C 0.71822 0.85453 0.6589 0.0
C78 C 0.74086 0.87621 0.63355 0.0
C79 C 0.74822 0.94099 0.65978 0.0
N80 N 0.75949 0.93056 0.63409 0.0
C81 C 0.65914 0.77798 0.72474 0.0
C82 C 0.57578 0.73838 0.6869 0.0
C83 C 0.58996 0.7023 0.69936 0.0
C84 C 0.63065 0.72237 0.71926 0.0
C85 C 0.60587 0.79439 0.6929 0.0
N86 N 0.64861 0.81373 0.71076 0.0
H87 H 0.69212 0.79262 0.73924 0.0
H88 H 0.59671 0.82179 0.68184 0.0
H89 H 0.70194 0.81238 0.66514 0.0
H90 H 0.75919 0.98131 0.66735 0.0
O91 O 0.76466 0.87877 0.72023 0.0
O92 O 0.77036 0.96021 0.71943 0.0
O93 O 0.64958 0.91747 0.70867 0.0
C94 C 0.79488 0.93143 0.72187 0.0
H95 H 0.61153 0.86175 0.8082 0.0
H96 H 0.74311 0.8535 0.61605 0.0
H97 H 0.54396 0.72394 0.67159 0.0
H98 H 0.64175 0.69544 0.72984 0.0
Co99 Co 0.79141 0.68384 0.04455 0.0
C100 C 0.83465 0.69355 0.10077 0.0
C101 C 0.75117 0.67531 0.1014 0.0
C102 C 0.76895 0.68072 0.12815 0.0
N103 N 0.7923 0.68307 0.08433 0.0
N104 N 0.82147 0.69231 0.12773 0.0
H105 H 0.87421 0.70199 0.09308 0.0
H106 H 0.71141 0.66752 0.09488 0.0
C107 C 0.68392 0.58292 1.03374 0.0
O108 O 0.70984 0.56326 1.01932 0.0
N109 N 0.78902 0.68541 1.00416 0.0
C110 C 0.79213 0.65125 0.98549 0.0
C111 C 0.78615 0.66652 0.95943 0.0
C112 C 0.77989 0.72023 0.98881 0.0
N113 N 0.7784 0.70987 0.96155 0.0
C114 C 0.86228 0.64363 1.03134 0.0
C115 C 0.81682 0.55303 0.06553 0.0
C116 C 0.86669 0.56819 0.05209 0.0
C117 C 0.88885 0.61378 0.03461 0.0
C118 C 0.79095 0.58409 0.0614 0.0
N119 N 0.81366 0.62861 0.04424 0.0
H120 H 0.88185 0.68026 1.01884 0.0
H121 H 0.7542 0.57405 0.07298 0.0
H122 H 0.79668 0.61622 0.99004 0.0
H123 H 0.77416 0.7526 0.99724 0.0
O124 O 0.86386 0.74514 0.04427 0.0
O125 O 0.78896 0.75193 0.0463 0.0
O126 O 0.71043 0.62948 0.04545 0.0
C127 C 0.84222 0.77621 0.04586 0.0
H128 H 0.74549 0.67812 0.14643 0.0
H129 H 0.78568 0.64606 0.94045 0.0
H130 H 0.79871 0.51841 0.07951 0.0
H131 H 0.92802 0.62815 1.02449 0.0
Co132 Co 0.10291 0.81417 0.37378 0.0
C133 C 0.13185 0.85563 0.43082 0.0
C134 C 0.06614 0.77258 0.42971 0.0
C135 C 0.07572 0.78918 0.45674 0.0
N136 N 0.10143 0.81414 0.41354 0.0
N137 N 0.11704 0.84145 0.45749 0.0
H138 H 0.16379 0.89531 0.4239 0.0
H139 H 0.03466 0.73336 0.42232 0.0
C140 C 0.09824 0.70932 0.35827 0.0
O141 O 0.13535 0.73648 0.33927 0.0
N142 N 0.10241 0.81316 0.33342 0.0
C143 C 0.14435 0.8333 0.31505 0.0
C144 C 0.12397 0.82195 0.28881 0.0
C145 C 0.0571 0.78958 0.3177 0.0
N146 N 0.06913 0.79454 0.29047 0.0
C147 C 0.21385 0.89348 0.36694 0.0
C148 C 0.25919 0.83791 0.39244 0.0
C149 C 0.2927 0.89249 0.38427 0.0
C150 C 0.26954 0.91993 0.37116 0.0
C151 C 0.20271 0.81269 0.388 0.0
N152 N 0.18087 0.84034 0.3749 0.0
H153 H 0.19731 0.9162 0.35695 0.0
H154 H 0.17658 0.7721 0.39616 0.0
H155 H 0.18712 0.8529 0.31971 0.0
H156 H 0.01602 0.7681 0.32603 0.0
O157 O 0.10815 0.88453 0.37326 0.0
O158 O 0.03 0.80627 0.37406 0.0
O159 O 0.08219 0.73431 0.37455 0.0
C160 C 0.05548 0.85962 0.37327 0.0
H161 H 0.0526 0.76502 0.47436 0.0
H162 H 0.14789 0.83322 0.26994 0.0
H163 H 0.27609 0.81597 0.40309 0.0
H164 H 0.29439 0.96209 0.36451 0.0
Co165 Co 0.29093 0.11175 0.70787 0.0
C166 C 0.27553 0.13169 0.76647 0.0
C167 C 0.33116 0.10092 0.76285 0.0
C168 C 0.32618 0.1107 0.79032 0.0
N169 N 0.29941 0.11425 0.7478 0.0
N170 N 0.29141 0.1304 0.79247 0.0
H171 H 0.24689 0.14516 0.76127 0.0
H172 H 0.35688 0.08577 0.75471 0.0
C173 C 0.36437 0.07033 0.68376 0.0
O174 O 0.35778 0.08362 0.65879 0.0
N175 N 0.28037 0.10972 0.66827 0.0
C176 C 0.29037 0.15237 0.65182 0.0
C177 C 0.2724 0.13331 0.62571 0.0
C178 C 0.25426 0.06501 0.65212 0.0
N179 N 0.25006 0.07843 0.62586 0.0
C180 C 0.33813 0.22522 0.71666 0.0
C181 C 0.43219 0.26023 0.68555 0.0
C182 C 0.41788 0.29846 0.69509 0.0
C183 C 0.37133 0.28065 0.71153 0.0
C184 C 0.39721 0.20446 0.69099 0.0
N185 N 0.34969 0.18745 0.70557 0.0
H186 H 0.30131 0.21279 0.72845 0.0
H187 H 0.40737 0.17563 0.68219 0.0
H188 H 0.30851 0.1945 0.65829 0.0
H189 H 0.23916 0.02359 0.65942 0.0
O190 O 0.2316 0.12639 0.71152 0.0
O191 O 0.222 0.0434 0.7117 0.0
O192 O 0.34322 0.0812 0.70465 0.0
C193 C 0.19936 0.07407 0.71337 0.0
H194 H 0.34764 0.10511 0.80727 0.0
H195 H 0.27609 0.15809 0.6079 0.0
H196 H 0.46844 0.27304 0.67295 0.0
H197 H 0.35969 0.30935 0.71966 0.0
H198 H 0.3391 0.33552 0.0538 0.0
H199 H 0.34062 0.47384 1.01436 0.0
H200 H 0.43875 0.38714 0.05651 0.0
H201 H 0.43992 0.52526 1.01722 0.0
H202 H 0.61404 0.61812 0.05166 0.0
H203 H 0.51424 0.56637 0.05297 0.0
H204 H 0.51734 0.42393 1.02222 0.0
H205 H 0.61687 0.47548 1.02075 0.0
C206 C 0.3606 0.37697 0.04585 0.0
C207 C 0.33186 0.40045 1.03377 0.0
C208 C 0.41768 0.40643 0.0473 0.0
C209 C 0.44719 0.46028 0.03709 0.0
C210 C 0.41834 0.48406 1.02551 0.0
C211 C 0.36142 0.45441 1.02371 0.0
C212 C 0.59345 0.57567 0.04534 0.0
C213 C 0.62349 0.55104 0.03598 0.0
C214 C 0.53629 0.54613 0.04597 0.0
C215 C 0.50792 0.49109 0.03766 0.0
C216 C 0.53799 0.46611 1.02897 0.0
C217 C 0.59506 0.49581 1.02798 0.0
H218 H 0.00564 0.37036 0.32674 0.0
H219 H 0.9057 0.35895 0.39689 0.0
H220 H 0.05209 0.46949 0.32907 0.0
H221 H 0.9486 0.45871 0.39806 0.0
H222 H 0.0587 0.64358 0.40406 0.0
H223 H 0.02065 0.54449 0.40646 0.0
H224 H 0.04095 0.54107 0.31805 0.0
H225 H 0.08249 0.63969 0.31635 0.0
C226 C -0.00647 0.38947 0.34262 0.0
C227 C 0.95219 0.35736 0.36158 0.0
C228 C 0.01961 0.44644 0.3438 0.0
C229 C 0.00354 0.47298 0.36334 0.0
C230 C 0.96279 0.44037 0.38284 0.0
C231 C 0.93787 0.38311 0.38216 0.0
C232 C 0.05524 0.62131 0.38526 0.0
C233 C 0.07402 0.64927 0.36006 0.0
C234 C 0.03304 0.56436 0.38654 0.0
C235 C 0.02786 0.53396 0.3625 0.0
C236 C 0.04572 0.56248 0.33725 0.0
C237 C 0.06919 0.61929 0.33614 0.0
H238 H 0.42757 0.07665 0.72821 0.0
H239 H 0.38087 0.00777 0.64688 0.0
H240 H 0.49204 0.04218 0.73084 0.0
H241 H 0.44298 0.97176 0.64978 0.0
H242 H 0.60139 0.97264 0.64578 0.0
H243 H 0.53738 0.00629 0.64723 0.0
H244 H 0.50639 0.96437 0.73368 0.0
H245 H 0.57284 0.93231 0.7324 0.0
C246 C 0.43037 0.05335 0.71114 0.0
C247 C 0.39961 0.04545 0.68722 0.0
C248 C 0.46726 0.03351 0.71262 0.0
C249 C 0.47366 0.00496 0.69031 0.0
C250 C 0.4407 -0.00498 0.66703 0.0
C251 C 0.40467 0.01538 0.66542 0.0
C252 C 0.58105 0.97049 0.66517 0.0
C253 C 0.59191 0.9491 0.68891 0.0
C254 C 0.54386 0.98954 0.66597 0.0
C255 C 0.51559 0.98714 0.69044 0.0
C256 C 0.52739 0.96701 0.71446 0.0
C257 C 0.56534 0.94838 0.71372 0.0
H258 H 0.48182 0.62536 0.69789 0.0
H259 H 0.64309 0.6493 0.68252 0.0
H260 H 0.44312 0.52704 0.69094 0.0
H261 H 0.60474 0.55151 0.67465 0.0
H262 H 0.5228 0.3727 0.7079 0.0
H263 H 0.56602 0.47211 0.70336 0.0
H264 H 0.42452 0.45383 0.66016 0.0
H265 H 0.38104 0.35476 0.66575 0.0
C266 C 0.50869 0.60958 0.69235 0.0
C267 C 0.56528 0.64444 0.69107 0.0
C268 C 0.4867 0.55336 0.68826 0.0
C269 C 0.52096 0.53125 0.6825 0.0
C270 C 0.57734 0.56693 0.67964 0.0
C271 C 0.59926 0.62288 0.68401 0.0
C272 C 0.50182 0.39019 0.69687 0.0
C273 C 0.4488 0.35666 0.68727 0.0
C274 C 0.52639 0.44703 0.6942 0.0
C275 C 0.49838 0.47104 0.68168 0.0
C276 C 0.4467 0.43682 0.67044 0.0
C277 C 0.42204 0.3802 0.67338 0.0
H278 H 0.92031 0.54053 1.01411 0.0
H279 H 0.88583 0.53315 0.10143 0.0
H280 H 0.9843 0.50801 1.02249 0.0
H281 H 0.94939 0.49893 0.10974 0.0
H282 H 0.01497 0.37115 0.09549 0.0
H283 H 0.9578 0.41407 0.09682 0.0
H284 H 0.07659 0.54672 0.04629 0.0
H285 H 0.13372 0.50358 0.04509 0.0
C286 C 0.92626 0.53172 0.03512 0.0
C287 C 0.89843 0.53995 0.05714 0.0
C288 C 0.9632 0.51349 0.03992 0.0
C289 C 0.9728 0.50236 0.06683 0.0
C290 C 0.94304 0.5078 0.08882 0.0
C291 C 0.9063 0.52674 0.08403 0.0
C292 C 0.02964 0.41057 0.0856 0.0
C293 C 0.07853 0.43436 0.07023 0.0
C294 C -0.00303 0.435 0.0863 0.0
C295 C 0.01243 0.48315 0.07129 0.0
C296 C 0.06351 0.50916 0.05775 0.0
C297 C 0.09646 0.48497 0.0573 0.0
H298 H 0.3722 0.87575 0.36211 0.0
H299 H 0.3449 0.98041 0.41718 0.0
H300 H 0.47083 0.93973 0.36335 0.0
H301 H 0.4429 0.04452 0.41834 0.0
H302 H 0.62842 0.11478 0.43269 0.0
H303 H 0.52988 0.05304 0.43372 0.0
H304 H 0.53149 0.03499 0.34534 0.0
H305 H 0.63042 0.09643 0.34446 0.0
C306 C 0.38762 0.91171 0.37503 0.0
C307 C 0.35157 0.92319 0.38978 0.0
C308 C 0.44371 0.94871 0.37539 0.0
C309 C 0.46436 -0.00253 0.39063 0.0
C310 C 0.42823 0.00728 0.40649 0.0
C311 C 0.37232 0.97058 0.40596 0.0
C312 C 0.60736 0.09858 0.41345 0.0
C313 C 0.63671 0.11035 0.38849 0.0
C314 C 0.55111 0.06311 0.41403 0.0
C315 C 0.52325 0.03847 0.38967 0.0
C316 C 0.5522 0.05261 0.36449 0.0
C317 C 0.60851 0.08848 0.3639 0.0
H318 H 0.12785 0.09818 1.03167 0.0
H319 H -0.00131 0.13115 0.05477 0.0
H320 H 0.06214 6e-05 1.03182 0.0
H321 H 0.9339 0.03396 0.05596 0.0
H322 H 0.82004 0.85688 1.03009 0.0
H323 H 0.8847 0.95537 1.02814 0.0
H324 H 0.00946 0.92745 0.0629 0.0
H325 H 0.94584 0.82986 0.06382 0.0
C326 C 0.0856 0.08443 0.03694 0.0
C327 C 0.06845 0.12225 0.04314 0.0
C328 C 0.04792 0.02829 0.03716 0.0
C329 C -0.00745 0.009 0.04391 0.0
C330 C 0.97579 0.04716 0.05016 0.0
C331 C 0.01318 0.10301 0.04967 0.0
C332 C 0.86118 0.87215 0.03748 0.0
C333 C 0.87806 0.83594 0.04697 0.0
C334 C 0.89828 0.92845 0.03638 0.0
C335 C 0.95263 0.94938 0.04509 0.0
C336 C 0.96858 0.91286 0.05533 0.0
C337 C 0.93187 0.85689 0.0561 0.0
H338 H 0.95869 0.83901 0.39754 0.0
H339 H 0.09194 0.95476 0.34636 0.0
H340 H 0.92351 0.90308 0.40067 0.0
H341 H 0.0563 0.01741 0.34844 0.0
H342 H 0.02034 0.14468 0.38339 0.0
H343 H 0.05073 0.07722 0.38108 0.0
H344 H 0.88296 0.94738 0.37608 0.0
H345 H 0.85279 0.01443 0.37946 0.0
C346 C 0.97956 0.87754 0.38648 0.0
C347 C 0.02806 0.89232 0.37192 0.0
C348 C 0.95968 0.91431 0.38827 0.0
C349 C 0.98778 0.96595 0.37524 0.0
C350 C 0.03462 0.97892 0.35947 0.0
C351 C 0.0547 0.94274 0.35802 0.0
C352 C 0.99011 0.10173 0.38191 0.0
C353 C 0.93434 0.0849 0.38154 0.0
C354 C 0.00738 0.06301 0.38041 0.0
C355 C 0.96922 0.00678 0.37816 0.0
C356 C 0.91341 0.99013 0.37811 0.0
C357 C 0.89619 0.02873 0.37987 0.0
H358 H 0.11604 0.96871 0.70638 0.0
H359 H 0.14942 0.13063 0.72943 0.0
H360 H 0.01809 0.93586 0.71044 0.0
H361 H 0.05237 0.09783 0.73435 0.0
H362 H 0.87505 0.03455 0.70747 0.0
H363 H 0.97341 0.06871 0.70673 0.0
H364 H 0.94632 0.91664 0.74273 0.0
H365 H 0.84847 0.88228 0.74258 0.0
C366 C 0.10243 -0.00299 0.71263 0.0
C367 C 0.14024 0.05218 0.71739 0.0
C368 C 0.0464 0.97829 0.71508 0.0
C369 C 0.02728 0.01434 0.7226 0.0
C370 C 0.06546 0.0692 0.72798 0.0
C371 C 0.12119 0.0879 0.7253 0.0
C372 C 0.89039 0.00896 0.71559 0.0
C373 C 0.85431 0.95582 0.72495 0.0
C374 C 0.94667 0.02837 0.71518 0.0
C375 C 0.96781 -0.00488 0.7244 0.0
C376 C 0.9315 0.94283 0.73486 0.0
C377 C 0.87544 0.92334 0.735 0.0
H378 H 0.25768 0.2323 0.95783 0.0
H379 H 0.13548 0.24256 0.90942 0.0
H380 H 0.28549 0.19976 0.91747 0.0
H381 H 0.16251 0.20946 0.86928 0.0
H382 H 0.26318 0.20922 0.79599 0.0
H383 H 0.23624 0.23976 0.83705 0.0
H384 H 0.25766 0.1239 0.88618 0.0
H385 H 0.28537 0.09376 0.84485 0.0
C386 C 0.23635 0.22704 0.93867 0.0
C387 C 0.1946 0.24042 0.93682 0.0
C388 C 0.25223 0.20831 0.91551 0.0
C389 C 0.22655 0.2023 0.88999 0.0
C390 C 0.1841 0.21473 0.88838 0.0
C391 C 0.16849 0.23368 0.91143 0.0
C392 C 0.26167 0.18983 0.81547 0.0
C393 C 0.27601 0.14867 0.81705 0.0
C394 C 0.24616 0.20735 0.83909 0.0
C395 C 0.24428 0.18404 0.86499 0.0
C396 C 0.25918 0.14322 0.86665 0.0
C397 C 0.27499 0.12584 0.84296 0.0
H398 H 0.1657 0.27962 0.18096 0.0
H399 H 0.02186 0.20848 0.13022 0.0
H400 H 0.10862 0.25827 0.222 0.0
H401 H 0.9648 0.18934 0.17129 0.0
H402 H 0.87808 0.10824 0.25286 0.0
H403 H 0.93415 0.12972 0.21118 0.0
H404 H 0.051 0.2851 0.24611 0.0
H405 H -0.0048 0.26337 0.28775 0.0
C406 C 0.12192 0.25949 0.17849 0.0
C407 C 0.09856 0.24561 0.15217 0.0
C408 C 0.08913 0.24781 0.20208 0.0
C409 C 0.03202 0.22208 0.20001 0.0
C410 C 0.00859 0.20861 0.17369 0.0
C411 C 0.04143 0.22025 0.15007 0.0
C412 C 0.91555 0.1471 0.25156 0.0
C413 C 0.93227 0.1839 0.27374 0.0
C414 C 0.94768 0.15951 0.22763 0.0
C415 C -0.00278 0.20913 0.22526 0.0
C416 C 0.01364 0.24608 0.24738 0.0
C417 C 0.98163 0.2336 0.27131 0.0
H418 H 0.90234 0.20747 0.51969 0.0
H419 H 0.83685 0.06084 0.47038 0.0
H420 H 0.87759 0.15164 0.56153 0.0
H421 H 0.81272 0.00559 0.5119 0.0
H422 H 0.81632 0.92248 0.5907 0.0
H423 H 0.85191 0.98334 0.55093 0.0
H424 H 0.79397 0.08636 0.58633 0.0
H425 H 0.75827 0.02539 0.62611 0.0
C426 C 0.88284 0.16346 0.51773 0.0
C427 C 0.87184 0.13887 0.49157 0.0
C428 C 0.86864 0.13148 0.5417 0.0
C429 C 0.84326 0.07415 0.54006 0.0
C430 C 0.83312 0.04967 0.51393 0.0
C431 C 0.84714 0.08155 0.49003 0.0
C432 C 0.81109 0.95804 0.59001 0.0
C433 C 0.78405 0.96876 0.61154 0.0
C434 C 0.83155 0.99298 0.56721 0.0
C435 C 0.82549 0.03954 0.56536 0.0
C436 C 0.79992 0.05121 0.58726 0.0
C437 C 0.77943 0.01622 0.61009 0.0
H438 H 0.79123 0.89137 0.8143 0.0
H439 H 0.62233 0.80866 0.84087 0.0
H440 H 0.81493 0.85696 0.85489 0.0
H441 H 0.64638 0.77517 0.88159 0.0
H442 H 0.71775 0.76043 0.9634 0.0
H443 H 0.69877 0.80485 0.92519 0.0
H444 H 0.79676 0.76574 0.87094 0.0
H445 H 0.81657 0.72242 0.9092 0.0
C446 C 0.7591 0.86595 0.82873 0.0
C447 C 0.7047 0.85246 0.82401 0.0
C448 C 0.77277 0.84631 0.85204 0.0
C449 C 0.73248 0.81306 0.87136 0.0
C450 C 0.67847 0.80116 0.86723 0.0
C451 C 0.66471 0.82051 0.84383 0.0
C452 C 0.73579 0.76195 0.94341 0.0
C453 C 0.76857 0.73776 0.93932 0.0
C454 C 0.72452 0.78696 0.92147 0.0
C455 C 0.74623 0.78878 0.89504 0.0
C456 C 0.77984 0.7655 0.8911 0.0
C457 C 0.79071 0.74014 0.91295 0.0
H458 H 0.79112 0.65533 0.18008 0.0
H459 H 0.9317 0.75571 0.12872 0.0
H460 H 0.85004 0.67709 0.22 0.0
H461 H 0.99057 0.77761 0.16858 0.0
H462 H 0.08634 0.76462 0.23996 0.0
H463 H 0.02554 0.73708 0.20064 0.0
H464 H 0.9061 0.75369 0.24981 0.0
H465 H 0.96705 0.781 0.28924 0.0
C466 C 0.83454 0.68225 0.17731 0.0
C467 C 0.85661 0.70377 0.15115 0.0
C468 C 0.86834 0.69477 0.20022 0.0
C469 C 0.92506 0.72914 0.19754 0.0
C470 C 0.94717 0.75028 0.17133 0.0
C471 C 0.91338 0.7377 0.14842 0.0
C472 C 0.04722 0.76261 0.24237 0.0
C473 C 0.03172 0.77538 0.26771 0.0
C474 C 0.01234 0.74685 0.2198 0.0
C475 C 0.96107 0.74353 0.22197 0.0
C476 C 0.94505 0.7552 0.24749 0.0
C477 C 0.97996 0.77086 0.27012 0.0
H478 H 0.20198 0.09224 0.58094 0.0
H479 H 0.25097 0.98366 0.61741 0.0
H480 H 0.17075 0.03457 0.54019 0.0
H481 H 0.22055 0.92616 0.57645 0.0
H482 H 0.11073 0.80749 0.51048 0.0
H483 H 0.14119 0.86388 0.55152 0.0
H484 H 0.20494 0.00927 0.50086 0.0
H485 H 0.17191 0.95274 0.45986 0.0
C486 C 0.20633 0.05615 0.58018 0.0
C487 C 0.229 0.04258 0.60242 0.0
C488 C 0.18864 0.02315 0.55675 0.0
C489 C 0.19345 0.97582 0.55485 0.0
C490 C 0.21554 0.96188 0.57729 0.0
C491 C 0.23295 -0.00521 0.60082 0.0
C492 C 0.13075 0.85143 0.50801 0.0
C493 C 0.13829 0.87532 0.4817 0.0
C494 C 0.14891 0.8839 0.53162 0.0
C495 C 0.17539 0.94123 0.52961 0.0
C496 C 0.18392 0.96522 0.50328 0.0
C497 C 0.16557 0.93272 0.47965 0.0
loop_
_geom_bond_atom_site_label_1
_geom_bond_atom_site_label_2
_geom_bond_distance
_geom_bond_site_symmetry_2
_ccdc_geom_bond_type
Co0 N4 2.148 . S
Co0 N10 2.128 1_554 S
Co0 N20 2.194 . S
Co0 O25 2.351 . S
Co0 O26 2.155 . S
Co0 O27 2.096 . S
C1 N4 1.301 . S
C1 N5 1.328 . S
C1 H6 0.930 . S
C2 C3 1.333 . S
C2 N4 1.317 . S
C2 H7 0.930 . S
C3 C2 1.333 . S
C3 N5 1.350 . S
C3 H29 0.931 . S
N4 Co0 2.148 . S
N4 C1 1.301 . S
N4 C2 1.317 . S
N5 C1 1.328 . S
N5 C3 1.350 . S
H6 C1 0.930 . S
H7 C2 0.930 . S
C8 O9 1.224 . S
C8 O27 1.247 . S
O9 C8 1.224 . S
N10 Co0 2.128 1_556 S
N10 C11 1.355 . S
N10 C13 1.311 . S
C11 N10 1.355 . S
C11 C12 1.363 . S
C11 H23 0.929 . S
C12 C11 1.363 . S
C12 N14 1.375 . S
C12 H30 0.931 . S
C13 N10 1.311 . S
C13 N14 1.347 . S
C13 H24 0.929 . S
N14 C12 1.375 . S
N14 C13 1.347 . S
C15 C18 1.365 . S
C15 N20 1.328 . S
C15 H21 0.929 . S
C16 C17 1.362 . S
C16 C19 1.378 1_556 S
C16 H31 0.929 . S
C17 C16 1.362 . S
C17 C18 1.366 1_556 S
C18 C15 1.365 . S
C18 C17 1.366 1_554 S
C18 H32 0.930 . S
C19 C16 1.378 1_554 S
C19 N20 1.315 . S
C19 H22 0.930 . S
N20 Co0 2.194 . S
N20 C15 1.328 . S
N20 C19 1.315 . S
H21 C15 0.929 . S
H22 C19 0.930 . S
H23 C11 0.929 . S
H24 C13 0.929 . S
O25 Co0 2.351 . S
O25 C28 1.244 . S
O26 Co0 2.155 . S
O26 C28 1.240 . S
O27 Co0 2.096 . S
O27 C8 1.247 . S
C28 O25 1.244 . S
C28 O26 1.240 . S
H29 C3 0.931 . S
H30 C12 0.931 . S
H31 C16 0.929 . S
H32 C18 0.930 . S
Co33 N37 2.148 . S
Co33 N43 2.128 . S
Co33 N53 2.194 . S
Co33 O58 2.351 . S
Co33 O59 2.155 . S
Co33 O60 2.096 . S
C34 N37 1.301 . S
C34 N38 1.328 . S
C34 H39 0.930 . S
C35 C36 1.333 . S
C35 N37 1.317 . S
C35 H40 0.930 . S
C36 C35 1.333 . S
C36 N38 1.350 . S
C36 H62 0.931 . S
N37 Co33 2.148 . S
N37 C34 1.301 . S
N37 C35 1.317 . S
N38 C34 1.328 . S
N38 C36 1.350 . S
H39 C34 0.930 . S
H40 C35 0.930 . S
C41 O42 1.224 . S
C41 O60 1.247 . S
O42 C41 1.224 . S
N43 Co33 2.128 . S
N43 C44 1.355 . S
N43 C46 1.311 . S
C44 N43 1.355 . S
C44 C45 1.363 . S
C44 H56 0.929 . S
C45 C44 1.363 . S
C45 N47 1.375 . S
C45 H63 0.931 . S
C46 N43 1.311 . S
C46 N47 1.347 . S
C46 H57 0.929 . S
N47 C45 1.375 . S
N47 C46 1.347 . S
C48 C51 1.365 . S
C48 N53 1.328 . S
C48 H54 0.929 . S
C49 C50 1.362 . S
C49 C52 1.378 . S
C49 H64 0.929 . S
C50 C49 1.362 . S
C50 C51 1.366 . S
C51 C48 1.365 . S
C51 C50 1.366 . S
C51 H65 0.930 . S
C52 C49 1.378 . S
C52 N53 1.315 . S
C52 H55 0.930 . S
N53 Co33 2.194 . S
N53 C48 1.328 . S
N53 C52 1.315 . S
H54 C48 0.929 . S
H55 C52 0.930 . S
H56 C44 0.929 . S
H57 C46 0.929 . S
O58 Co33 2.351 . S
O58 C61 1.244 . S
O59 Co33 2.155 . S
O59 C61 1.240 . S
O60 Co33 2.096 . S
O60 C41 1.247 . S
C61 O58 1.244 . S
C61 O59 1.240 . S
H62 C36 0.931 . S
H63 C45 0.931 . S
H64 C49 0.929 . S
H65 C51 0.930 . S
Co66 N70 2.148 . S
Co66 N76 2.128 . S
Co66 N86 2.194 . S
Co66 O91 2.351 . S
Co66 O92 2.155 . S
Co66 O93 2.096 . S
C67 N70 1.301 . S
C67 N71 1.328 . S
C67 H72 0.930 . S
C68 C69 1.333 . S
C68 N70 1.317 . S
C68 H73 0.930 . S
C69 C68 1.333 . S
C69 N71 1.350 . S
C69 H95 0.931 . S
N70 Co66 2.148 . S
N70 C67 1.301 . S
N70 C68 1.317 . S
N71 C67 1.328 . S
N71 C69 1.350 . S
H72 C67 0.930 . S
H73 C68 0.930 . S
C74 O75 1.224 . S
C74 O93 1.247 . S
O75 C74 1.224 . S
N76 Co66 2.128 . S
N76 C77 1.355 . S
N76 C79 1.311 . S
C77 N76 1.355 . S
C77 C78 1.363 . S
C77 H89 0.929 . S
C78 C77 1.363 . S
C78 N80 1.375 . S
C78 H96 0.931 . S
C79 N76 1.311 . S
C79 N80 1.347 . S
C79 H90 0.929 . S
N80 C78 1.375 . S
N80 C79 1.347 . S
C81 C84 1.365 . S
C81 N86 1.328 . S
C81 H87 0.929 . S
C82 C83 1.362 . S
C82 C85 1.378 . S
C82 H97 0.929 . S
C83 C82 1.362 . S
C83 C84 1.366 . S
C84 C81 1.365 . S
C84 C83 1.366 . S
C84 H98 0.930 . S
C85 C82 1.378 . S
C85 N86 1.315 . S
C85 H88 0.930 . S
N86 Co66 2.194 . S
N86 C81 1.328 . S
N86 C85 1.315 . S
H87 C81 0.929 . S
H88 C85 0.930 . S
H89 C77 0.929 . S
H90 C79 0.929 . S
O91 Co66 2.351 . S
O91 C94 1.244 . S
O92 Co66 2.155 . S
O92 C94 1.240 . S
O93 Co66 2.096 . S
O93 C74 1.247 . S
C94 O91 1.244 . S
C94 O92 1.240 . S
H95 C69 0.931 . S
H96 C78 0.931 . S
H97 C82 0.929 . S
H98 C84 0.930 . S
Co99 N103 2.148 . S
Co99 N109 2.128 1_554 S
Co99 N119 2.194 . S
Co99 O124 2.351 . S
Co99 O125 2.155 . S
Co99 O126 2.096 . S
C100 N103 1.301 . S
C100 N104 1.328 . S
C100 H105 0.930 . S
C101 C102 1.333 . S
C101 N103 1.317 . S
C101 H106 0.930 . S
C102 C101 1.333 . S
C102 N104 1.350 . S
C102 H128 0.931 . S
N103 Co99 2.148 . S
N103 C100 1.301 . S
N103 C101 1.317 . S
N104 C100 1.328 . S
N104 C102 1.350 . S
H105 C100 0.930 . S
H106 C101 0.930 . S
C107 O108 1.224 . S
C107 O126 1.247 . S
O108 C107 1.224 . S
N109 Co99 2.128 1_556 S
N109 C110 1.355 . S
N109 C112 1.311 . S
C110 N109 1.355 . S
C110 C111 1.363 . S
C110 H122 0.929 . S
C111 C110 1.363 . S
C111 N113 1.375 . S
C111 H129 0.931 . S
C112 N109 1.311 . S
C112 N113 1.347 . S
C112 H123 0.929 . S
N113 C111 1.375 . S
N113 C112 1.347 . S
C114 C117 1.365 . S
C114 N119 1.328 . S
C114 H120 0.929 . S
C115 C116 1.362 . S
C115 C118 1.378 1_556 S
C115 H130 0.929 . S
C116 C115 1.362 . S
C116 C117 1.366 1_556 S
C117 C114 1.365 . S
C117 C116 1.366 1_554 S
C117 H131 0.930 . S
C118 C115 1.378 1_554 S
C118 N119 1.315 . S
C118 H121 0.930 . S
N119 Co99 2.194 . S
N119 C114 1.328 . S
N119 C118 1.315 . S
H120 C114 0.929 . S
H121 C118 0.930 . S
H122 C110 0.929 . S
H123 C112 0.929 . S
O124 Co99 2.351 . S
O124 C127 1.244 . S
O125 Co99 2.155 . S
O125 C127 1.240 . S
O126 Co99 2.096 . S
O126 C107 1.247 . S
C127 O124 1.244 . S
C127 O125 1.240 . S
H128 C102 0.931 . S
H129 C111 0.931 . S
H130 C115 0.929 . S
H131 C117 0.930 . S
Co132 N136 2.148 . S
Co132 N142 2.128 . S
Co132 N152 2.194 . S
Co132 O157 2.351 . S
Co132 O158 2.155 . S
Co132 O159 2.096 . S
C133 N136 1.301 . S
C133 N137 1.328 . S
C133 H138 0.930 . S
C134 C135 1.333 . S
C134 N136 1.317 . S
C134 H139 0.930 . S
C135 C134 1.333 . S
C135 N137 1.350 . S
C135 H161 0.931 . S
N136 Co132 2.148 . S
N136 C133 1.301 . S
N136 C134 1.317 . S
N137 C133 1.328 . S
N137 C135 1.350 . S
H138 C133 0.930 . S
H139 C134 0.930 . S
C140 O141 1.224 . S
C140 O159 1.247 . S
O141 C140 1.224 . S
N142 Co132 2.128 . S
N142 C143 1.355 . S
N142 C145 1.311 . S
C143 N142 1.355 . S
C143 C144 1.363 . S
C143 H155 0.929 . S
C144 C143 1.363 . S
C144 N146 1.375 . S
C144 H162 0.931 . S
C145 N142 1.311 . S
C145 N146 1.347 . S
C145 H156 0.929 . S
N146 C144 1.375 . S
N146 C145 1.347 . S
C147 C150 1.365 . S
C147 N152 1.328 . S
C147 H153 0.929 . S
C148 C149 1.362 . S
C148 C151 1.378 . S
C148 H163 0.929 . S
C149 C148 1.362 . S
C149 C150 1.366 . S
C150 C147 1.365 . S
C150 C149 1.366 . S
C150 H164 0.930 . S
C151 C148 1.378 . S
C151 N152 1.315 . S
C151 H154 0.930 . S
N152 Co132 2.194 . S
N152 C147 1.328 . S
N152 C151 1.315 . S
H153 C147 0.929 . S
H154 C151 0.930 . S
H155 C143 0.929 . S
H156 C145 0.929 . S
O157 Co132 2.351 . S
O157 C160 1.244 . S
O158 Co132 2.155 . S
O158 C160 1.240 . S
O159 Co132 2.096 . S
O159 C140 1.247 . S
C160 O157 1.244 . S
C160 O158 1.240 . S
H161 C135 0.931 . S
H162 C144 0.931 . S
H163 C148 0.929 . S
H164 C150 0.930 . S
Co165 N169 2.148 . S
Co165 N175 2.128 . S
Co165 N185 2.194 . S
Co165 O190 2.351 . S
Co165 O191 2.155 . S
Co165 O192 2.096 . S
C166 N169 1.301 . S
C166 N170 1.328 . S
C166 H171 0.930 . S
C167 C168 1.333 . S
C167 N169 1.317 . S
C167 H172 0.930 . S
C168 C167 1.333 . S
C168 N170 1.350 . S
C168 H194 0.931 . S
N169 Co165 2.148 . S
N169 C166 1.301 . S
N169 C167 1.317 . S
N170 C166 1.328 . S
N170 C168 1.350 . S
H171 C166 0.930 . S
H172 C167 0.930 . S
C173 O174 1.224 . S
C173 O192 1.247 . S
O174 C173 1.224 . S
N175 Co165 2.128 . S
N175 C176 1.355 . S
N175 C178 1.311 . S
C176 N175 1.355 . S
C176 C177 1.363 . S
C176 H188 0.929 . S
C177 C176 1.363 . S
C177 N179 1.375 . S
C177 H195 0.931 . S
C178 N175 1.311 . S
C178 N179 1.347 . S
C178 H189 0.929 . S
N179 C177 1.375 . S
N179 C178 1.347 . S
C180 C183 1.365 . S
C180 N185 1.328 . S
C180 H186 0.929 . S
C181 C182 1.362 . S
C181 C184 1.378 . S
C181 H196 0.929 . S
C182 C181 1.362 . S
C182 C183 1.366 . S
C183 C180 1.365 . S
C183 C182 1.366 . S
C183 H197 0.930 . S
C184 C181 1.378 . S
C184 N185 1.315 . S
C184 H187 0.930 . S
N185 Co165 2.194 . S
N185 C180 1.328 . S
N185 C184 1.315 . S
H186 C180 0.929 . S
H187 C184 0.930 . S
H188 C176 0.929 . S
H189 C178 0.929 . S
O190 Co165 2.351 . S
O190 C193 1.244 . S
O191 Co165 2.155 . S
O191 C193 1.240 . S
O192 Co165 2.096 . S
O192 C173 1.247 . S
C193 O190 1.244 . S
C193 O191 1.240 . S
H194 C168 0.931 . S
H195 C177 0.931 . S
H196 C181 0.929 . S
H197 C183 0.930 . S
H198 C206 0.950 . S
H199 C211 0.950 . S
H200 C208 0.950 . S
H201 C210 0.950 . S
H202 C212 0.950 . S
H203 C214 0.950 . S
H204 C216 0.950 . S
H205 C217 0.950 . S
C206 H198 0.950 . S
C206 C207 1.386 . S
C206 C208 1.391 . S
C207 C206 1.386 . S
C207 C211 1.393 . S
C208 H200 0.950 . S
C208 C206 1.391 . S
C208 C209 1.400 . S
C209 C208 1.400 . S
C209 C210 1.398 . S
C209 C215 1.491 . S
C210 H201 0.950 . S
C210 C209 1.398 . S
C210 C211 1.391 . S
C211 H199 0.950 . S
C211 C207 1.393 . S
C211 C210 1.391 . S
C212 H202 0.950 . S
C212 C213 1.386 . S
C212 C214 1.391 . S
C213 C212 1.386 . S
C213 C217 1.393 . S
C214 H203 0.950 . S
C214 C212 1.391 . S
C214 C215 1.400 . S
C215 C209 1.491 . S
C215 C214 1.400 . S
C215 C216 1.398 . S
C216 H204 0.950 . S
C216 C215 1.398 . S
C216 C217 1.391 . S
C217 H205 0.950 . S
C217 C213 1.393 . S
C217 C216 1.391 . S
H218 C226 0.950 . S
H219 C231 0.950 . S
H220 C228 0.950 . S
H221 C230 0.950 . S
H222 C232 0.950 . S
H223 C234 0.950 . S
H224 C236 0.950 . S
H225 C237 0.950 . S
C226 H218 0.950 . S
C226 C227 1.386 . S
C226 C228 1.391 . S
C227 C226 1.386 . S
C227 C231 1.393 . S
C228 H220 0.950 . S
C228 C226 1.391 . S
C228 C229 1.400 . S
C229 C228 1.400 . S
C229 C230 1.398 . S
C229 C235 1.491 1_655 S
C230 H221 0.950 . S
C230 C229 1.398 . S
C230 C231 1.391 . S
C231 H219 0.950 . S
C231 C227 1.393 . S
C231 C230 1.391 . S
C232 H222 0.950 . S
C232 C233 1.386 . S
C232 C234 1.391 . S
C233 C232 1.386 . S
C233 C237 1.393 . S
C234 H223 0.950 . S
C234 C232 1.391 . S
C234 C235 1.400 . S
C235 C229 1.491 1_455 S
C235 C234 1.400 . S
C235 C236 1.398 . S
C236 H224 0.950 . S
C236 C235 1.398 . S
C236 C237 1.391 . S
C237 H225 0.950 . S
C237 C233 1.393 . S
C237 C236 1.391 . S
H238 C246 0.950 . S
H239 C251 0.950 1_565 S
H240 C248 0.950 . S
H241 C250 0.950 . S
H242 C252 0.950 . S
H243 C254 0.950 . S
H244 C256 0.950 . S
H245 C257 0.950 1_545 S
C246 H238 0.950 . S
C246 C247 1.386 . S
C246 C248 1.391 . S
C247 C246 1.386 . S
C247 C251 1.393 . S
C248 H240 0.950 . S
C248 C246 1.391 . S
C248 C249 1.400 . S
C249 C248 1.400 . S
C249 C250 1.398 1_545 S
C249 C255 1.491 1_545 S
C250 H241 0.950 . S
C250 C249 1.398 1_565 S
C250 C251 1.391 1_565 S
C251 H239 0.950 1_545 S
C251 C247 1.393 . S
C251 C250 1.391 1_545 S
C252 H242 0.950 . S
C252 C253 1.386 . S
C252 C254 1.391 . S
C253 C252 1.386 . S
C253 C257 1.393 . S
C254 H243 0.950 . S
C254 C252 1.391 . S
C254 C255 1.400 . S
C255 C249 1.491 1_565 S
C255 C254 1.400 . S
C255 C256 1.398 1_565 S
C256 H244 0.950 . S
C256 C255 1.398 1_545 S
C256 C257 1.391 1_545 S
C257 H245 0.950 1_565 S
C257 C253 1.393 . S
C257 C256 1.391 1_565 S
H258 C266 0.950 . S
H259 C271 0.950 . S
H260 C268 0.950 . S
H261 C270 0.950 . S
H262 C272 0.950 . S
H263 C274 0.950 . S
H264 C276 0.950 . S
H265 C277 0.950 . S
C266 H258 0.950 . S
C266 C267 1.386 . S
C266 C268 1.391 . S
C267 C266 1.386 . S
C267 C271 1.393 . S
C268 H260 0.950 . S
C268 C266 1.391 . S
C268 C269 1.400 . S
C269 C268 1.400 . S
C269 C270 1.398 . S
C269 C275 1.491 . S
C270 H261 0.950 . S
C270 C269 1.398 . S
C270 C271 1.391 . S
C271 H259 0.950 . S
C271 C267 1.393 . S
C271 C270 1.391 . S
C272 H262 0.950 . S
C272 C273 1.386 . S
C272 C274 1.391 . S
C273 C272 1.386 . S
C273 C277 1.393 . S
C274 H263 0.950 . S
C274 C272 1.391 . S
C274 C275 1.400 . S
C275 C269 1.491 . S
C275 C274 1.400 . S
C275 C276 1.398 . S
C276 H264 0.950 . S
C276 C275 1.398 . S
C276 C277 1.391 . S
C277 H265 0.950 . S
C277 C273 1.393 . S
C277 C276 1.391 . S
H278 C286 0.950 . S
H279 C291 0.950 . S
H280 C288 0.950 . S
H281 C290 0.950 1_455 S
H282 C292 0.950 . S
H283 C294 0.950 . S
H284 C296 0.950 1_655 S
H285 C297 0.950 . S
C286 H278 0.950 . S
C286 C287 1.386 . S
C286 C288 1.391 . S
C287 C286 1.386 . S
C287 C291 1.393 1_556 S
C288 H280 0.950 . S
C288 C286 1.391 . S
C288 C289 1.400 . S
C289 C288 1.400 . S
C289 C290 1.398 1_556 S
C289 C295 1.491 1_655 S
C290 H281 0.950 1_655 S
C290 C289 1.398 1_554 S
C290 C291 1.391 . S
C291 H279 0.950 . S
C291 C287 1.393 1_554 S
C291 C290 1.391 . S
C292 H282 0.950 . S
C292 C293 1.386 1_554 S
C292 C294 1.391 . S
C293 C292 1.386 1_556 S
C293 C297 1.393 . S
C294 H283 0.950 . S
C294 C292 1.391 . S
C294 C295 1.400 1_554 S
C295 C289 1.491 1_455 S
C295 C294 1.400 1_556 S
C295 C296 1.398 . S
C296 H284 0.950 1_455 S
C296 C295 1.398 . S
C296 C297 1.391 . S
C297 H285 0.950 . S
C297 C293 1.393 . S
C297 C296 1.391 . S
H298 C306 0.950 . S
H299 C311 0.950 1_545 S
H300 C308 0.950 . S
H301 C310 0.950 . S
H302 C312 0.950 . S
H303 C314 0.950 . S
H304 C316 0.950 . S
H305 C317 0.950 1_565 S
C306 H298 0.950 . S
C306 C307 1.386 . S
C306 C308 1.391 . S
C307 C306 1.386 . S
C307 C311 1.393 . S
C308 H300 0.950 . S
C308 C306 1.391 . S
C308 C309 1.400 . S
C309 C308 1.400 . S
C309 C310 1.398 1_565 S
C309 C315 1.491 1_565 S
C310 H301 0.950 . S
C310 C309 1.398 1_545 S
C310 C311 1.391 1_545 S
C311 H299 0.950 1_565 S
C311 C307 1.393 . S
C311 C310 1.391 1_565 S
C312 H302 0.950 . S
C312 C313 1.386 . S
C312 C314 1.391 . S
C313 C312 1.386 . S
C313 C317 1.393 . S
C314 H303 0.950 . S
C314 C312 1.391 . S
C314 C315 1.400 . S
C315 C309 1.491 1_545 S
C315 C314 1.400 . S
C315 C316 1.398 1_545 S
C316 H304 0.950 . S
C316 C315 1.398 1_565 S
C316 C317 1.391 1_565 S
C317 H305 0.950 1_545 S
C317 C313 1.393 . S
C317 C316 1.391 1_545 S
H318 C326 0.950 . S
H319 C331 0.950 . S
H320 C328 0.950 . S
H321 C330 0.950 . S
H322 C332 0.950 . S
H323 C334 0.950 . S
H324 C336 0.950 . S
H325 C337 0.950 . S
C326 H318 0.950 . S
C326 C327 1.386 . S
C326 C328 1.391 . S
C327 C326 1.386 . S
C327 C331 1.393 1_554 S
C328 H320 0.950 . S
C328 C326 1.391 . S
C328 C329 1.400 . S
C329 C328 1.400 . S
C329 C330 1.398 1_554 S
C329 C335 1.491 1_445 S
C330 H321 0.950 . S
C330 C329 1.398 1_556 S
C330 C331 1.391 . S
C331 H319 0.950 . S
C331 C327 1.393 1_556 S
C331 C330 1.391 . S
C332 H322 0.950 . S
C332 C333 1.386 1_556 S
C332 C334 1.391 . S
C333 C332 1.386 1_554 S
C333 C337 1.393 . S
C334 H323 0.950 . S
C334 C332 1.391 . S
C334 C335 1.400 1_556 S
C335 C329 1.491 1_665 S
C335 C334 1.400 1_554 S
C335 C336 1.398 . S
C336 H324 0.950 . S
C336 C335 1.398 . S
C336 C337 1.391 . S
C337 H325 0.950 . S
C337 C333 1.393 . S
C337 C336 1.391 . S
H338 C346 0.950 1_655 S
H339 C351 0.950 . S
H340 C348 0.950 . S
H341 C350 0.950 . S
H342 C352 0.950 1_455 S
H343 C354 0.950 . S
H344 C356 0.950 . S
H345 C357 0.950 . S
C346 H338 0.950 1_455 S
C346 C347 1.386 . S
C346 C348 1.391 1_455 S
C347 C346 1.386 . S
C347 C351 1.393 . S
C348 H340 0.950 . S
C348 C346 1.391 1_655 S
C348 C349 1.400 1_655 S
C349 C348 1.400 1_455 S
C349 C350 1.398 1_565 S
C349 C355 1.491 1_465 S
C350 H341 0.950 . S
C350 C349 1.398 1_545 S
C350 C351 1.391 1_545 S
C351 H339 0.950 . S
C351 C347 1.393 . S
C351 C350 1.391 1_565 S
C352 H342 0.950 1_655 S
C352 C353 1.386 . S
C352 C354 1.391 1_655 S
C353 C352 1.386 . S
C353 C357 1.393 . S
C354 H343 0.950 . S
C354 C352 1.391 1_455 S
C354 C355 1.400 1_455 S
C355 C349 1.491 1_645 S
C355 C354 1.400 1_655 S
C355 C356 1.398 1_545 S
C356 H344 0.950 . S
C356 C355 1.398 1_565 S
C356 C357 1.391 1_565 S
C357 H345 0.950 . S
C357 C353 1.393 . S
C357 C356 1.391 1_545 S
H358 C366 0.950 . S
H359 C371 0.950 . S
H360 C368 0.950 . S
H361 C370 0.950 . S
H362 C372 0.950 . S
H363 C374 0.950 . S
H364 C376 0.950 . S
H365 C377 0.950 . S
C366 H358 0.950 . S
C366 C367 1.386 . S
C366 C368 1.391 . S
C367 C366 1.386 . S
C367 C371 1.393 . S
C368 H360 0.950 . S
C368 C366 1.391 . S
C368 C369 1.400 . S
C369 C368 1.400 . S
C369 C370 1.398 . S
C369 C375 1.491 1_445 S
C370 H361 0.950 . S
C370 C369 1.398 . S
C370 C371 1.391 . S
C371 H359 0.950 . S
C371 C367 1.393 . S
C371 C370 1.391 . S
C372 H362 0.950 . S
C372 C373 1.386 . S
C372 C374 1.391 . S
C373 C372 1.386 . S
C373 C377 1.393 . S
C374 H363 0.950 . S
C374 C372 1.391 . S
C374 C375 1.400 . S
C375 C369 1.491 1_665 S
C375 C374 1.400 . S
C375 C376 1.398 . S
C376 H364 0.950 . S
C376 C375 1.398 . S
C376 C377 1.391 . S
C377 H365 0.950 . S
C377 C373 1.393 . S
C377 C376 1.391 . S
H378 C386 0.950 . S
H379 C391 0.950 . S
H380 C388 0.950 . S
H381 C390 0.950 . S
H382 C392 0.950 . S
H383 C394 0.950 . S
H384 C396 0.950 . S
H385 C397 0.950 . S
C386 H378 0.950 . S
C386 C387 1.386 . S
C386 C388 1.391 . S
C387 C386 1.386 . S
C387 C391 1.393 . S
C388 H380 0.950 . S
C388 C386 1.391 . S
C388 C389 1.400 . S
C389 C388 1.400 . S
C389 C390 1.398 . S
C389 C395 1.491 . S
C390 H381 0.950 . S
C390 C389 1.398 . S
C390 C391 1.391 . S
C391 H379 0.950 . S
C391 C387 1.393 . S
C391 C390 1.391 . S
C392 H382 0.950 . S
C392 C393 1.386 . S
C392 C394 1.391 . S
C393 C392 1.386 . S
C393 C397 1.393 . S
C394 H383 0.950 . S
C394 C392 1.391 . S
C394 C395 1.400 . S
C395 C389 1.491 . S
C395 C394 1.400 . S
C395 C396 1.398 . S
C396 H384 0.950 . S
C396 C395 1.398 . S
C396 C397 1.391 . S
C397 H385 0.950 . S
C397 C393 1.393 . S
C397 C396 1.391 . S
H398 C406 0.950 . S
H399 C411 0.950 . S
H400 C408 0.950 . S
H401 C410 0.950 1_655 S
H402 C412 0.950 . S
H403 C414 0.950 . S
H404 C416 0.950 . S
H405 C417 0.950 . S
C406 H398 0.950 . S
C406 C407 1.386 . S
C406 C408 1.391 . S
C407 C406 1.386 . S
C407 C411 1.393 . S
C408 H400 0.950 . S
C408 C406 1.391 . S
C408 C409 1.400 . S
C409 C408 1.400 . S
C409 C410 1.398 . S
C409 C415 1.491 1_455 S
C410 H401 0.950 1_455 S
C410 C409 1.398 . S
C410 C411 1.391 . S
C411 H399 0.950 . S
C411 C407 1.393 . S
C411 C410 1.391 . S
C412 H402 0.950 . S
C412 C413 1.386 . S
C412 C414 1.391 . S
C413 C412 1.386 . S
C413 C417 1.393 . S
C414 H403 0.950 . S
C414 C412 1.391 . S
C414 C415 1.400 . S
C415 C409 1.491 1_655 S
C415 C414 1.400 . S
C415 C416 1.398 1_655 S
C416 H404 0.950 . S
C416 C415 1.398 1_455 S
C416 C417 1.391 1_455 S
C417 H405 0.950 . S
C417 C413 1.393 . S
C417 C416 1.391 1_655 S
H418 C426 0.950 . S
H419 C431 0.950 . S
H420 C428 0.950 . S
H421 C430 0.950 1_565 S
H422 C432 0.950 . S
H423 C434 0.950 . S
H424 C436 0.950 . S
H425 C437 0.950 . S
C426 H418 0.950 . S
C426 C427 1.386 . S
C426 C428 1.391 . S
C427 C426 1.386 . S
C427 C431 1.393 . S
C428 H420 0.950 . S
C428 C426 1.391 . S
C428 C429 1.400 . S
C429 C428 1.400 . S
C429 C430 1.398 . S
C429 C435 1.491 1_545 S
C430 H421 0.950 1_545 S
C430 C429 1.398 . S
C430 C431 1.391 . S
C431 H419 0.950 . S
C431 C427 1.393 . S
C431 C430 1.391 . S
C432 H422 0.950 . S
C432 C433 1.386 . S
C432 C434 1.391 . S
C433 C432 1.386 . S
C433 C437 1.393 . S
C434 H423 0.950 . S
C434 C432 1.391 . S
C434 C435 1.400 . S
C435 C429 1.491 1_565 S
C435 C434 1.400 . S
C435 C436 1.398 1_565 S
C436 H424 0.950 . S
C436 C435 1.398 1_545 S
C436 C437 1.391 1_545 S
C437 H425 0.950 . S
C437 C433 1.393 . S
C437 C436 1.391 1_565 S
H438 C446 0.950 . S
H439 C451 0.950 . S
H440 C448 0.950 . S
H441 C450 0.950 . S
H442 C452 0.950 . S
H443 C454 0.950 . S
H444 C456 0.950 . S
H445 C457 0.950 . S
C446 H438 0.950 . S
C446 C447 1.386 . S
C446 C448 1.391 . S
C447 C446 1.386 . S
C447 C451 1.393 . S
C448 H440 0.950 . S
C448 C446 1.391 . S
C448 C449 1.400 . S
C449 C448 1.400 . S
C449 C450 1.398 . S
C449 C455 1.491 . S
C450 H441 0.950 . S
C450 C449 1.398 . S
C450 C451 1.391 . S
C451 H439 0.950 . S
C451 C447 1.393 . S
C451 C450 1.391 . S
C452 H442 0.950 . S
C452 C453 1.386 . S
C452 C454 1.391 . S
C453 C452 1.386 . S
C453 C457 1.393 . S
C454 H443 0.950 . S
C454 C452 1.391 . S
C454 C455 1.400 . S
C455 C449 1.491 . S
C455 C454 1.400 . S
C455 C456 1.398 . S
C456 H444 0.950 . S
C456 C455 1.398 . S
C456 C457 1.391 . S
C457 H445 0.950 . S
C457 C453 1.393 . S
C457 C456 1.391 . S
H458 C466 0.950 . S
H459 C471 0.950 . S
H460 C468 0.950 . S
H461 C470 0.950 1_455 S
H462 C472 0.950 . S
H463 C474 0.950 . S
H464 C476 0.950 . S
H465 C477 0.950 1_655 S
C466 H458 0.950 . S
C466 C467 1.386 . S
C466 C468 1.391 . S
C467 C466 1.386 . S
C467 C471 1.393 . S
C468 H460 0.950 . S
C468 C466 1.391 . S
C468 C469 1.400 . S
C469 C468 1.400 . S
C469 C470 1.398 . S
C469 C475 1.491 1_655 S
C470 H461 0.950 1_655 S
C470 C469 1.398 . S
C470 C471 1.391 . S
C471 H459 0.950 . S
C471 C467 1.393 . S
C471 C470 1.391 . S
C472 H462 0.950 . S
C472 C473 1.386 . S
C472 C474 1.391 . S
C473 C472 1.386 . S
C473 C477 1.393 . S
C474 H463 0.950 . S
C474 C472 1.391 . S
C474 C475 1.400 . S
C475 C469 1.491 1_455 S
C475 C474 1.400 . S
C475 C476 1.398 1_455 S
C476 H464 0.950 . S
C476 C475 1.398 1_655 S
C476 C477 1.391 1_655 S
C477 H465 0.950 1_455 S
C477 C473 1.393 . S
C477 C476 1.391 1_455 S
H478 C486 0.950 . S
H479 C491 0.950 1_565 S
H480 C488 0.950 . S
H481 C490 0.950 . S
H482 C492 0.950 . S
H483 C494 0.950 . S
H484 C496 0.937 1_545 S
H485 C497 0.950 . S
C486 H478 0.950 . S
C486 C487 1.386 . S
C486 C488 1.391 . S
C487 C486 1.386 . S
C487 C491 1.393 . S
C488 H480 0.950 . S
C488 C486 1.391 . S
C488 C489 1.400 . S
C489 C488 1.400 . S
C489 C490 1.398 1_545 S
C489 C495 1.491 1_545 S
C490 H481 0.950 . S
C490 C489 1.398 1_565 S
C490 C491 1.391 1_565 S
C491 H479 0.950 1_545 S
C491 C487 1.393 . S
C491 C490 1.391 1_545 S
C492 H482 0.950 . S
C492 C493 1.386 . S
C492 C494 1.391 . S
C493 C492 1.386 . S
C493 C497 1.393 . S
C494 H483 0.950 . S
C494 C492 1.391 . S
C494 C495 1.400 . S
C495 C489 1.491 1_565 S
C495 C494 1.400 . S
C495 C496 1.405 . S
C496 H484 0.937 1_565 S
C496 C495 1.405 . S
C496 C497 1.397 . S
C497 H485 0.950 . S
C497 C493 1.393 . S
C497 C496 1.397 . S
C207 C8 1.913 . S
C213 C107 1.916 . S
C227 C41 1.912 . S
C233 C140 1.912 . S
C247 C173 1.921 . S
C253 C74 1.919 . S
C267 C83 0.742 . S
C273 C182 0.716 . S
C287 C116 0.732 . S
C293 C17 0.730 . S
C307 C149 0.739 . S
C313 C50 0.723 . S
C327 C28 0.745 . S
C333 C127 0.747 . S
C347 C160 0.749 . S
C353 C61 0.736 . S
C367 C193 0.746 . S
C373 C94 0.747 . S
C387 N14 1.668 . S
C393 N170 1.772 . S
C407 N5 1.775 . S
C413 N47 1.669 . S
C427 N38 1.776 . S
C433 N80 1.673 . S
C447 N71 1.775 . S
C453 N113 1.690 . S
C467 N104 1.774 . S
C473 N146 1.666 . S
C487 N179 1.692 . S
C493 N137 1.777 . S
