# Generated by pormake.
# Topology yfz, (5)-cn, num edge types: 1
# Building blocks:
#     Node 0, Type 0, BuildingBlock: XOMCOT_clean_sbu_0, # of connection points: 5
#     Node 1, Type 0, BuildingBlock: XOMCOT_clean_sbu_0, # of connection points: 5
#     Node 2, Type 0, BuildingBlock: XOMCOT_clean_sbu_0, # of connection points: 5
#     Node 3, Type 0, BuildingBlock: XOMCOT_clean_sbu_0, # of connection points: 5
#     Node 4, Type 0, BuildingBlock: XOMCOT_clean_sbu_0, # of connection points: 5
#     Node 5, Type 0, BuildingBlock: XOMCOT_clean_sbu_0, # of connection points: 5
#     Node 6, Type 0, BuildingBlock: XOMCOT_clean_sbu_0, # of connection points: 5
#     Node 7, Type 0, BuildingBlock: XOMCOT_clean_sbu_0, # of connection points: 5
#     Edge 8, Type (0, 0), BuildingBlock: ZUJKAS_clean_linker_0, # of connection points: 2
#     Edge 9, Type (0, 0), BuildingBlock: ZUJKAS_clean_linker_0, # of connection points: 2
#     Edge 10, Type (0, 0), BuildingBlock: ZUJKAS_clean_linker_0, # of connection points: 2
#     Edge 11, Type (0, 0), BuildingBlock: ZUJKAS_clean_linker_0, # of connection points: 2
#     Edge 12, Type (0, 0), BuildingBlock: ZUJKAS_clean_linker_0, # of connection points: 2
#     Edge 13, Type (0, 0), BuildingBlock: ZUJKAS_clean_linker_0, # of connection points: 2
#     Edge 14, Type (0, 0), BuildingBlock: ZUJKAS_clean_linker_0, # of connection points: 2
#     Edge 15, Type (0, 0), BuildingBlock: ZUJKAS_clean_linker_0, # of connection points: 2
#     Edge 16, Type (0, 0), BuildingBlock: ZUJKAS_clean_linker_0, # of connection points: 2
#     Edge 17, Type (0, 0), BuildingBlock: ZUJKAS_clean_linker_0, # of connection points: 2
#     Edge 18, Type (0, 0), BuildingBlock: ZUJKAS_clean_linker_0, # of connection points: 2
#     Edge 19, Type (0, 0), BuildingBlock: ZUJKAS_clean_linker_0, # of connection points: 2
#     Edge 20, Type (0, 0), BuildingBlock: ZUJKAS_clean_linker_0, # of connection points: 2
#     Edge 21, Type (0, 0), BuildingBlock: ZUJKAS_clean_linker_0, # of connection points: 2
#     Edge 22, Type (0, 0), BuildingBlock: ZUJKAS_clean_linker_0, # of connection points: 2
#     Edge 23, Type (0, 0), BuildingBlock: ZUJKAS_clean_linker_0, # of connection points: 2
#     Edge 24, Type (0, 0), BuildingBlock: ZUJKAS_clean_linker_0, # of connection points: 2
#     Edge 25, Type (0, 0), BuildingBlock: ZUJKAS_clean_linker_0, # of connection points: 2
#     Edge 26, Type (0, 0), BuildingBlock: ZUJKAS_clean_linker_0, # of connection points: 2
#     Edge 27, Type (0, 0), BuildingBlock: ZUJKAS_clean_linker_0, # of connection points: 2
# Relax obj value: 0.170
# Max RMSD: 0.158
# Mean RMSD: 0.158
data_MOF--net-yfz--node1-XOMCOT_clean_sbu_0--edge1-ZUJKAS_clean_linker_0
_symmetry_space_group_name_H-M    P1
_symmetry_Int_Tables_number       1
_symmetry_cell_setting            triclinic
loop_
_symmetry_equiv_pos_as_xyz
'x, y, z'
_cell_length_a     65.700468
_cell_length_b     65.693034
_cell_length_c     22.018476
_cell_angle_alpha  89.95306
_cell_angle_beta   90.059308
_cell_angle_gamma 89.999551
loop_
_atom_site_label
_atom_site_type_symbol
_atom_site_fract_x
_atom_site_fract_y
_atom_site_fract_z
_atom_type_partial_charge
Co0 Co 0.5702 0.10139 0.31876 0.0
C1 C 0.56919 0.09619 0.18572 0.0
C2 C 0.54428 0.0808 0.22908 0.0
C3 C 0.54242 0.07839 0.16724 0.0
N4 N 0.5611 0.09186 0.24049 0.0
N5 N 0.55804 0.08814 0.14005 0.0
H6 H 0.58279 0.10524 0.17955 0.0
H7 H 0.53374 0.07539 0.26311 0.0
C8 C 0.56453 0.06378 0.39542 0.0
O9 O 0.58333 0.0657 0.41508 0.0
N10 N 0.57872 0.11145 0.39837 0.0
C11 C 0.59214 0.12648 0.41078 0.0
C12 C 0.59277 0.12968 0.47244 0.0
C13 C 0.57047 0.10677 0.45288 0.0
N14 N 0.57922 0.11713 0.49899 0.0
C15 C 0.61338 0.09891 0.30578 0.0
C16 C 0.61602 0.05784 0.28034 0.0
C17 C 0.63399 0.06928 0.28513 0.0
C18 C 0.63239 0.09014 0.29682 0.0
C19 C 0.59714 0.0673 0.29034 0.0
N20 N 0.5961 0.08744 0.30602 0.0
H21 H 0.61265 0.11514 0.3105 0.0
H22 H 0.58339 0.05843 0.28534 0.0
H23 H 0.60039 0.13536 0.37773 0.0
H24 H 0.55773 0.09659 0.45883 0.0
O25 O 0.57727 0.12714 0.28283 0.0
O26 O 0.54711 0.11982 0.32224 0.0
O27 O 0.55725 0.07663 0.35752 0.0
C28 C 0.55889 0.13304 0.29547 0.0
H29 H 0.53006 0.07076 0.14402 0.0
H30 H 0.60248 0.14045 0.49571 0.0
H31 H 0.61656 0.04177 0.26949 0.0
H32 H 0.64576 0.0998 0.2975 0.0
Co33 Co 0.3792 0.5698 0.81219 0.0
C34 C 0.38243 0.56562 0.6771 0.0
C35 C 0.39432 0.53972 0.72413 0.0
C36 C 0.39544 0.53606 0.66269 0.0
N37 N 0.38668 0.55853 0.73341 0.0
N38 N 0.38797 0.5524 0.63311 0.0
H39 H 0.37413 0.5794 0.66794 0.0
H40 H 0.3982 0.52902 0.75962 0.0
C41 C 0.42139 0.55395 0.83481 0.0
O42 O 0.42752 0.56351 0.78566 0.0
N43 N 0.37148 0.58035 0.89063 0.0
C44 C 0.3626 0.59839 0.90218 0.0
C45 C 0.36063 0.60051 0.96415 0.0
C46 C 0.37467 0.57165 0.94532 0.0
N47 N 0.36828 0.58371 0.99124 0.0
C48 C 0.38862 0.60787 0.75512 0.0
C49 C 0.4191 0.61973 0.83391 0.0
C50 C 0.41305 0.63316 0.7877 0.0
C51 C 0.39763 0.62691 0.74797 0.0
C52 C 0.40972 0.60065 0.83918 0.0
N53 N 0.39507 0.59459 0.79879 0.0
H54 H 0.37545 0.60456 0.72801 0.0
H55 H 0.41362 0.5912 0.87761 0.0
H56 H 0.35816 0.60935 0.86797 0.0
H57 H 0.382 0.55705 0.95136 0.0
O58 O 0.35363 0.57892 0.77897 0.0
O59 O 0.35883 0.54858 0.82015 0.0
O60 O 0.40281 0.55514 0.85159 0.0
C61 C 0.34631 0.56125 0.79405 0.0
H62 H 0.40105 0.52228 0.64164 0.0
H63 H 0.35406 0.61345 0.98732 0.0
H64 H 0.43058 0.62411 0.86671 0.0
H65 H 0.39164 0.63713 0.71373 0.0
Co66 Co 0.91059 0.37818 0.31029 0.0
C67 C 0.91486 0.38127 0.1751 0.0
C68 C 0.94015 0.39435 0.22218 0.0
C69 C 0.94384 0.39555 0.16076 0.0
N70 N 0.92165 0.38598 0.23142 0.0
N71 N 0.92791 0.38728 0.13117 0.0
H72 H 0.90118 0.37284 0.1659 0.0
H73 H 0.95071 0.39859 0.25767 0.0
C74 C 0.92533 0.42074 0.33301 0.0
O75 O 0.91546 0.42666 0.28415 0.0
N76 N 0.90031 0.37015 0.3888 0.0
C77 C 0.88257 0.3607 0.40054 0.0
C78 C 0.8807 0.35841 0.46251 0.0
C79 C 0.90905 0.37342 0.44335 0.0
N80 N 0.89734 0.36647 0.48939 0.0
C81 C 0.87244 0.38693 0.25284 0.0
C82 C 0.8597 0.41691 0.33198 0.0
C83 C 0.84669 0.41093 0.28469 0.0
C84 C 0.85335 0.39573 0.24494 0.0
C85 C 0.87893 0.40784 0.33777 0.0
N86 N 0.88543 0.39348 0.29709 0.0
H87 H 0.87606 0.37388 0.22566 0.0
H88 H 0.88818 0.41178 0.37656 0.0
H89 H 0.8716 0.35615 0.36649 0.0
H90 H 0.92369 0.3807 0.44915 0.0
O91 O 0.90203 0.35244 0.27706 0.0
O92 O 0.93228 0.35828 0.31799 0.0
O93 O 0.92471 0.40211 0.34968 0.0
C94 C 0.91987 0.34551 0.29188 0.0
H95 H 0.9576 0.40123 0.13972 0.0
H96 H 0.86781 0.35183 0.48593 0.0
H97 H 0.85491 0.42817 0.36489 0.0
H98 H 0.8434 0.38979 0.2099 0.0
Co99 Co 0.10282 0.90928 0.82296 0.0
C100 C 0.09773 0.91053 0.68987 0.0
C101 C 0.08338 0.93604 0.73319 0.0
C102 C 0.08096 0.93796 0.67137 0.0
N103 N 0.09377 0.9188 0.74461 0.0
N104 N 0.09006 0.92196 0.64423 0.0
H105 H 0.10621 0.89656 0.68371 0.0
H106 H 0.07838 0.94679 0.76723 0.0
C107 C 0.06477 0.91568 0.89676 0.0
O108 O 0.0659 0.89667 0.91517 0.0
N109 N 0.11248 0.90041 0.90278 0.0
C110 C 0.12791 0.88743 0.91511 0.0
C111 C 0.13091 0.88654 0.97682 0.0
C112 C 0.10734 0.90819 0.95752 0.0
N113 N 0.11785 0.89953 1.00356 0.0
C114 C 0.09865 0.86601 0.81375 0.0
C115 C 0.05838 0.86512 0.77761 0.0
C116 C 0.06882 0.84672 0.78597 0.0
C117 C 0.08923 0.84736 0.8037 0.0
C118 C 0.06835 0.88359 0.78959 0.0
N119 N 0.08809 0.88383 0.80967 0.0
H120 H 0.11468 0.86599 0.82268 0.0
H121 H 0.06025 0.89771 0.78236 0.0
H122 H 0.13717 0.87968 0.88191 0.0
H123 H 0.09687 0.92066 0.96376 0.0
O124 O 0.1284 0.90145 0.78754 0.0
O125 O 0.12191 0.9318 0.82707 0.0
O126 O 0.07831 0.92288 0.86099 0.0
C127 C 0.13483 0.91965 0.8005 0.0
H128 H 0.07377 0.95058 0.64811 0.0
H129 H 0.14196 0.87709 0.99994 0.0
H130 H 0.0427 0.8652 0.76232 0.0
H131 H 0.09806 0.8335 0.80793 0.0
Co132 Co 0.56836 0.37769 0.1932 0.0
C133 C 0.56449 0.38175 0.32832 0.0
C134 C 0.53775 0.39149 0.28095 0.0
C135 C 0.53416 0.39293 0.34235 0.0
N136 N 0.55695 0.38491 0.2719 0.0
N137 N 0.55101 0.38679 0.37216 0.0
H138 H 0.57894 0.37476 0.3378 0.0
H139 H 0.52686 0.39456 0.24523 0.0
C140 C 0.55283 0.4202 0.17411 0.0
O141 O 0.56179 0.42569 0.22491 0.0
N142 N 0.57906 0.37028 0.11471 0.0
C143 C 0.59705 0.3613 0.10321 0.0
C144 C 0.5993 0.35954 0.04123 0.0
C145 C 0.5705 0.37373 0.05996 0.0
N146 N 0.58261 0.3674 0.01408 0.0
C147 C 0.60686 0.38489 0.2502 0.0
C148 C 0.61898 0.41716 0.1785 0.0
C149 C 0.63248 0.40969 0.22267 0.0
C150 C 0.6261 0.39332 0.2587 0.0
C151 C 0.59973 0.40825 0.1716 0.0
N152 N 0.59352 0.39272 0.20874 0.0
H153 H 0.60335 0.37114 0.27456 0.0
H154 H 0.5903 0.41326 0.13435 0.0
H155 H 0.60788 0.35659 0.13749 0.0
H156 H 0.55595 0.38117 0.05388 0.0
O157 O 0.57651 0.35159 0.22504 0.0
O158 O 0.54657 0.35803 0.18296 0.0
O159 O 0.55444 0.40192 0.15491 0.0
C160 C 0.5587 0.34494 0.20881 0.0
H161 H 0.52012 0.39791 0.36325 0.0
H162 H 0.61222 0.35292 0.01806 0.0
H163 H 0.62341 0.42943 0.14844 0.0
H164 H 0.63632 0.38624 0.29105 0.0
Co165 Co 0.10026 0.57205 0.68361 0.0
C166 C 0.09588 0.56878 0.81866 0.0
C167 C 0.08572 0.54203 0.77223 0.0
C168 C 0.08431 0.53862 0.83373 0.0
N169 N 0.09249 0.56115 0.76251 0.0
N170 N 0.09076 0.55545 0.86289 0.0
H171 H 0.10269 0.58335 0.82761 0.0
H172 H 0.08279 0.53096 0.73697 0.0
C173 C 0.05813 0.55598 0.66233 0.0
O174 O 0.05219 0.56552 0.71167 0.0
N175 N 0.10826 0.58225 0.60506 0.0
C176 C 0.11749 0.60011 0.59324 0.0
C177 C 0.11969 0.60202 0.5313 0.0
C178 C 0.10505 0.57348 0.55057 0.0
N179 N 0.11182 0.58528 0.50449 0.0
C180 C 0.09168 0.61088 0.73685 0.0
C181 C 0.06056 0.62202 0.65929 0.0
C182 C 0.06727 0.63608 0.70291 0.0
C183 C 0.08306 0.63018 0.74196 0.0
C184 C 0.06969 0.60278 0.65564 0.0
N185 N 0.08464 0.59708 0.69555 0.0
H186 H 0.10501 0.60771 0.76354 0.0
H187 H 0.06535 0.59294 0.61864 0.0
H188 H 0.1219 0.61114 0.62722 0.0
H189 H 0.0979 0.55877 0.54487 0.0
O190 O 0.12588 0.58096 0.71707 0.0
O191 O 0.12039 0.55055 0.6769 0.0
O192 O 0.07658 0.55741 0.64447 0.0
C193 C 0.133 0.56314 0.70288 0.0
H194 H 0.07982 0.5245 0.85523 0.0
H195 H 0.12606 0.61502 0.50787 0.0
H196 H 0.04872 0.62598 0.62715 0.0
H197 H 0.08959 0.64079 0.77417 0.0
Co198 Co 0.91007 0.09983 0.18833 0.0
C199 C 0.91381 0.09616 0.32365 0.0
C200 C 0.94011 0.08516 0.27681 0.0
C201 C 0.94373 0.08395 0.33824 0.0
N202 N 0.92111 0.09232 0.26739 0.0
N203 N 0.92715 0.09089 0.3677 0.0
H204 H 0.89975 0.10394 0.33278 0.0
H205 H 0.95092 0.08165 0.24133 0.0
C206 C 0.92492 0.05725 0.17012 0.0
O207 O 0.91515 0.05218 0.21997 0.0
N208 N 0.89979 0.10761 0.10961 0.0
C209 C 0.88204 0.11707 0.09786 0.0
C210 C 0.87994 0.11901 0.0359 0.0
C211 C 0.90835 0.10406 0.05503 0.0
N212 N 0.89648 0.11078 0.00902 0.0
C213 C 0.87135 0.09234 0.24343 0.0
C214 C 0.85858 0.06222 0.16465 0.0
C215 C 0.84479 0.06985 0.20754 0.0
C216 C 0.85161 0.0848 0.248 0.0
C217 C 0.87836 0.07017 0.1618 0.0
N218 N 0.88475 0.08483 0.20173 0.0
H219 H 0.87515 0.10537 0.27056 0.0
H220 H 0.88802 0.06542 0.12483 0.0
H221 H 0.87126 0.12195 0.13197 0.0
H222 H 0.92272 0.09626 0.04913 0.0
O223 O 0.90173 0.12577 0.22052 0.0
O224 O 0.93192 0.11957 0.17994 0.0
O225 O 0.92405 0.07554 0.15039 0.0
C226 C 0.9196 0.13253 0.20551 0.0
H227 H 0.95764 0.07868 0.35935 0.0
H228 H 0.86723 0.12598 0.01255 0.0
H229 H 0.85377 0.05113 0.13121 0.0
H230 H 0.84145 0.09135 0.28143 0.0
Co231 Co 0.38059 0.91075 0.69585 0.0
C232 C 0.38393 0.91491 0.83129 0.0
C233 C 0.39376 0.94158 0.78378 0.0
C234 C 0.39496 0.94533 0.84515 0.0
N235 N 0.38734 0.9223 0.77485 0.0
N236 N 0.38873 0.92854 0.87497 0.0
H237 H 0.37749 0.90024 0.84097 0.0
H238 H 0.39679 0.95244 0.74799 0.0
C239 C 0.42305 0.92627 0.67981 0.0
O240 O 0.42787 0.91713 0.73097 0.0
N241 N 0.3736 0.90004 0.61708 0.0
C242 C 0.36484 0.88198 0.6049 0.0
C243 C 0.36281 0.88012 0.54287 0.0
C244 C 0.3767 0.90898 0.56278 0.0
N245 N 0.37032 0.8971 0.51642 0.0
C246 C 0.38824 0.87252 0.75398 0.0
C247 C 0.42027 0.86028 0.68161 0.0
C248 C 0.41324 0.84711 0.72714 0.0
C249 C 0.39701 0.8535 0.76347 0.0
C250 C 0.41121 0.87947 0.67432 0.0
N251 N 0.39582 0.88573 0.71183 0.0
H252 H 0.37446 0.87594 0.77817 0.0
H253 H 0.416 0.88881 0.63661 0.0
H254 H 0.36047 0.87086 0.63872 0.0
H255 H 0.38335 0.92394 0.55747 0.0
O256 O 0.35452 0.90223 0.72656 0.0
O257 O 0.36066 0.93231 0.68503 0.0
O258 O 0.40496 0.92485 0.6588 0.0
C259 C 0.34765 0.91995 0.71028 0.0
H260 H 0.39931 0.95958 0.86608 0.0
H261 H 0.35669 0.86706 0.51915 0.0
H262 H 0.43234 0.85565 0.65114 0.0
H263 H 0.39033 0.84338 0.79685 0.0
H264 H 0.4179 0.94874 0.57601 0.0
H265 H 0.44291 0.9704 0.52533 0.0
H266 H 0.48807 0.95349 0.65838 0.0
H267 H 0.46305 0.93208 0.71012 0.0
H268 H 0.48653 0.9946 0.63985 0.0
H269 H 0.49058 0.95475 0.41832 0.0
H270 H 0.46519 0.9618 0.43965 0.0
H271 H 0.47892 0.94346 0.48447 0.0
C272 C 0.43319 0.94948 0.5943 0.0
C273 C 0.43846 0.93864 0.64718 0.0
C274 C 0.44753 0.96179 0.56497 0.0
C275 C 0.46748 0.96334 0.58747 0.0
C276 C 0.4728 0.95245 0.64002 0.0
H277 H 0.5733 0.03655 0.48616 0.0
H278 H 0.55038 0.0116 0.53237 0.0
C279 C 0.45847 0.94019 0.66951 0.0
C280 C 0.4825 0.9771 0.55808 0.0
H281 H 0.5063 0.9874 0.42355 0.0
C282 C 0.49099 0.99292 0.5927 0.0
C283 C 0.48827 0.97493 0.49649 0.0
C284 C 0.48043 0.95771 0.45767 0.0
C285 C 0.5047 0.0069 0.56711 0.0
C286 C 0.51033 0.00483 0.50542 0.0
C287 C 0.50195 0.98896 0.47083 0.0
C288 C 0.52457 0.01928 0.4757 0.0
C289 C 0.51261 0.02412 0.60586 0.0
C290 C 0.51786 0.03145 0.42728 0.0
C291 C 0.53093 0.04566 0.40058 0.0
C292 C 0.55105 0.0479 0.42152 0.0
C293 C 0.55789 0.03529 0.46902 0.0
C294 C 0.54478 0.0211 0.49577 0.0
H295 H 0.50326 0.02634 0.64733 0.0
H296 H 0.52841 0.02062 0.62037 0.0
H297 H 0.5129 0.03861 0.57985 0.0
H298 H 0.50235 0.03022 0.41091 0.0
H299 H 0.52516 0.05506 0.36398 0.0
H300 H 0.52703 0.4126 0.07944 0.0
H301 H 0.50643 0.43697 0.0227 0.0
H302 H 0.53087 0.48605 0.13049 0.0
H303 H 0.55106 0.46159 0.18904 0.0
H304 H 0.49107 0.49017 0.11836 0.0
H305 H 0.52358 0.47526 0.89128 0.0
H306 H 0.51383 0.45244 0.92511 0.0
H307 H 0.53497 0.46546 0.95989 0.0
C308 C 0.52814 0.42859 0.09092 0.0
C309 C 0.54077 0.43515 0.13867 0.0
C310 C 0.51644 0.44255 0.05805 0.0
C311 C 0.5174 0.46344 0.0713 0.0
C312 C 0.52996 0.47003 0.11911 0.0
H313 H 0.46298 0.5534 0.8266 0.0
H314 H 0.48686 0.53297 0.88644 0.0
C315 C 0.54151 0.45603 0.15253 0.0
C316 C 0.5047 0.47825 0.03686 0.0
H317 H 0.49192 0.49338 0.89334 0.0
C318 C 0.49141 0.491 0.06917 0.0
C319 C 0.50536 0.47967 0.9727 0.0
C320 C 0.52037 0.46763 0.9353 0.0
C321 C 0.47835 0.50465 0.03912 0.0
C322 C 0.47811 0.50513 0.9748 0.0
C323 C 0.49186 0.49284 0.94258 0.0
C324 C 0.46359 0.51804 0.93992 0.0
C325 C 0.46517 0.51857 0.07683 0.0
C326 C 0.44252 0.51637 0.94954 0.0
C327 C 0.42887 0.52821 0.91594 0.0
C328 C 0.43595 0.54169 0.87103 0.0
C329 C 0.45702 0.54316 0.86081 0.0
C330 C 0.4707 0.53148 0.89501 0.0
H331 H 0.47191 0.52121 0.12247 0.0
H332 H 0.46295 0.53353 0.05427 0.0
H333 H 0.45005 0.51139 0.0835 0.0
H334 H 0.43658 0.50568 0.9825 0.0
H335 H 0.41272 0.52654 0.92456 0.0
H336 H 0.95278 0.4127 0.42335 0.0
H337 H 0.97377 0.43696 0.47927 0.0
H338 H 0.94637 0.48656 0.38008 0.0
H339 H 0.92579 0.46229 0.32234 0.0
H340 H 0.9862 0.49141 0.38575 0.0
H341 H 0.95841 0.47354 0.6167 0.0
H342 H 0.96809 0.45136 0.57917 0.0
H343 H 0.94596 0.46412 0.5493 0.0
C344 C 0.95111 0.42878 0.41363 0.0
C345 C 0.93755 0.43555 0.36842 0.0
C346 C 0.96303 0.44267 0.44605 0.0
C347 C 0.96139 0.46366 0.43489 0.0
C348 C 0.94785 0.47046 0.38978 0.0
H349 H 0.01673 0.55396 0.67557 0.0
H350 H 0.99276 0.53286 0.61835 0.0
C351 C 0.93607 0.45656 0.35682 0.0
C352 C 0.9744 0.47843 0.46842 0.0
H353 H 0.98924 0.49287 0.61075 0.0
C354 C 0.98672 0.49184 0.43497 0.0
C355 C 0.97487 0.4793 0.53268 0.0
C356 C 0.96096 0.46646 0.57152 0.0
C357 C 0.99986 0.50566 0.46386 0.0
C358 C 1.00119 0.5057 0.52807 0.0
C359 C 0.98846 0.49269 0.56155 0.0
C360 C 0.01575 0.51897 0.56147 0.0
C361 C 0.01192 0.52029 0.42513 0.0
C362 C 0.03669 0.51813 0.54899 0.0
C363 C 0.0504 0.53036 0.58112 0.0
C364 C 0.0435 0.54342 0.62731 0.0
C365 C 0.02255 0.54408 0.64028 0.0
C366 C 0.00883 0.532 0.60762 0.0
H367 H 0.00444 0.5229 0.38051 0.0
H368 H 0.01389 0.5352 0.4481 0.0
H369 H 0.0272 0.51375 0.41624 0.0
H370 H 0.04252 0.50779 0.51491 0.0
H371 H 0.06645 0.52931 0.57035 0.0
H372 H 0.94894 0.0629 0.06981 0.0
H373 H 0.97118 0.03805 0.02072 0.0
H374 H 0.95187 0.99213 0.14831 0.0
H375 H 0.92985 0.01697 0.19843 0.0
H376 H 0.99329 0.99356 0.13593 0.0
H377 H 0.95688 0.99116 0.90872 0.0
H378 H 0.96373 0.01636 0.93263 0.0
H379 H 0.94463 0.00243 0.97388 0.0
C380 C 0.94927 0.04748 0.08717 0.0
C381 C 0.93757 0.04194 0.13809 0.0
C382 C 0.96191 0.03324 0.05876 0.0
C383 C 0.96297 0.01313 0.08023 0.0
C384 C 0.95122 0.00753 0.13076 0.0
H385 H 0.03621 0.90698 0.98363 0.0
H386 H 0.01106 0.93011 0.02775 0.0
C387 C 0.93861 0.02176 0.15932 0.0
C388 C 0.97708 0.9982 0.05199 0.0
H389 H 0.98923 0.97504 0.91787 0.0
C390 C 0.99229 0.98939 0.08836 0.0
C391 C 0.97582 0.9928 0.98986 0.0
C392 C 0.95927 1.00102 0.94907 0.0
C393 C 0.00653 0.97568 0.06407 0.0
C394 C 0.00535 0.9704 1.00189 0.0
C395 C 0.9901 0.97913 0.96552 0.0
C396 C 0.02004 0.9561 0.97359 0.0
C397 C 0.02306 0.96738 0.1048 0.0
C398 C 0.03305 0.96287 0.92731 0.0
C399 C 0.0474 0.94967 0.90183 0.0
C400 C 0.04892 0.92938 0.92185 0.0
C401 C 0.03551 0.92251 0.96726 0.0
C402 C 0.0212 0.93575 0.99281 0.0
H403 H 0.02474 0.97649 0.14699 0.0
H404 H 0.01919 0.95154 0.11801 0.0
H405 H 0.03792 0.96708 0.08082 0.0
H406 H 0.03234 0.97849 0.91162 0.0
H407 H 0.05741 0.95547 0.86682 0.0
H408 H 0.5242 0.15283 0.33276 0.0
H409 H 0.51527 0.18869 0.31463 0.0
H410 H 0.57013 0.19637 0.2097 0.0
H411 H 0.579 0.16087 0.22705 0.0
H412 H 0.53816 0.22206 0.35007 0.0
H413 H 0.5277 0.2232 0.10123 0.0
H414 H 0.52733 0.19989 0.14487 0.0
H415 H 0.55116 0.21106 0.12195 0.0
C416 C 0.53415 0.16213 0.30504 0.0
C417 C 0.5523 0.15405 0.28136 0.0
C418 C 0.52904 0.18258 0.29476 0.0
C419 C 0.54186 0.19511 0.25993 0.0
C420 C 0.55975 0.18689 0.23544 0.0
H421 H 0.58041 0.31606 0.26898 0.0
H422 H 0.57183 0.28032 0.28367 0.0
C423 C 0.5649 0.1666 0.2459 0.0
C424 C 0.53783 0.21723 0.25331 0.0
H425 H 0.53739 0.2553 0.14763 0.0
C426 C 0.53752 0.22931 0.30583 0.0
C427 C 0.53664 0.22671 0.19567 0.0
C428 C 0.5355 0.2145 0.13778 0.0
C429 C 0.53766 0.25065 0.30208 0.0
C430 C 0.53844 0.2601 0.24435 0.0
C431 C 0.53711 0.24805 0.1919 0.0
C432 C 0.54279 0.28214 0.23749 0.0
C433 C 0.53761 0.26288 0.36004 0.0
C434 C 0.52951 0.29501 0.20541 0.0
C435 C 0.53444 0.31558 0.19665 0.0
C436 C 0.55285 0.32347 0.2192 0.0
C437 C 0.56608 0.31049 0.2512 0.0
C438 C 0.56111 0.29007 0.26009 0.0
H439 H 0.53024 0.25432 0.39763 0.0
H440 H 0.55354 0.26609 0.37375 0.0
H441 H 0.52957 0.27761 0.35394 0.0
H442 H 0.51538 0.28914 0.18704 0.0
H443 H 0.52399 0.32519 0.17162 0.0
H444 H 0.15382 0.52873 0.66889 0.0
H445 H 0.18993 0.52106 0.687 0.0
H446 H 0.19668 0.57804 0.78206 0.0
H447 H 0.16084 0.5857 0.76466 0.0
H448 H 0.22328 0.54395 0.6483 0.0
H449 H 0.22321 0.5375 0.89871 0.0
H450 H 0.20017 0.53615 0.854 0.0
H451 H 0.2111 0.56044 0.87308 0.0
C452 C 0.16298 0.53949 0.69419 0.0
C453 C 0.15449 0.5578 0.71539 0.0
C454 C 0.18358 0.5351 0.70449 0.0
C455 C 0.1959 0.54882 0.73679 0.0
C456 C 0.18736 0.56701 0.75828 0.0
H457 H 0.31883 0.5837 0.7305 0.0
H458 H 0.2828 0.57664 0.7146 0.0
C459 C 0.16689 0.57144 0.74783 0.0
C460 C 0.21802 0.54505 0.74478 0.0
H461 H 0.25559 0.54506 0.85207 0.0
C462 C 0.23033 0.5438 0.69287 0.0
C463 C 0.2272 0.54451 0.80293 0.0
C464 C 0.21471 0.5445 0.86036 0.0
C465 C 0.25164 0.54341 0.69753 0.0
C466 C 0.26085 0.54459 0.75554 0.0
C467 C 0.24853 0.54442 0.80756 0.0
C468 C 0.28304 0.54796 0.76295 0.0
C469 C 0.26413 0.54225 0.64019 0.0
C470 C 0.29513 0.53433 0.79642 0.0
C471 C 0.31586 0.53836 0.80578 0.0
C472 C 0.3247 0.55622 0.78249 0.0
C473 C 0.31252 0.56977 0.74895 0.0
C474 C 0.29193 0.56569 0.73939 0.0
H475 H 0.25544 0.53499 0.60271 0.0
H476 H 0.26822 0.55789 0.62551 0.0
H477 H 0.27841 0.53355 0.64767 0.0
H478 H 0.28851 0.52064 0.81549 0.0
H479 H 0.32485 0.52768 0.83201 0.0
H480 H 0.95383 0.15305 0.16778 0.0
H481 H 0.96178 0.18924 0.18384 0.0
H482 H 0.9058 0.19652 0.28356 0.0
H483 H 0.89786 0.16068 0.26817 0.0
H484 H 0.93843 0.22267 0.14614 0.0
H485 H 0.94767 0.2232 0.3957 0.0
H486 H 0.94863 0.20006 0.35147 0.0
H487 H 0.92451 0.21091 0.37284 0.0
C488 C 0.94336 0.16236 0.19368 0.0
C489 C 0.92523 0.15401 0.21677 0.0
C490 C 0.94791 0.18299 0.20278 0.0
C491 C 0.93455 0.19548 0.23581 0.0
C492 C 0.91656 0.18708 0.25917 0.0
H493 H 0.89784 0.31756 0.22906 0.0
H494 H 0.90567 0.28173 0.21275 0.0
C495 C 0.91197 0.16659 0.24988 0.0
C496 C 0.93842 0.21761 0.2428 0.0
H497 H 0.93903 0.25541 0.34914 0.0
C498 C 0.93899 0.22982 0.1905 0.0
C499 C 0.93949 0.22694 0.30063 0.0
C500 C 0.94026 0.21457 0.35834 0.0
C501 C 0.93913 0.25116 0.19461 0.0
C502 C 0.93839 0.26048 0.25249 0.0
C503 C 0.93933 0.24827 0.30475 0.0
C504 C 0.9346 0.28262 0.25975 0.0
C505 C 0.93953 0.26352 0.13687 0.0
C506 C 0.94809 0.29501 0.29267 0.0
C507 C 0.9436 0.31563 0.30235 0.0
C508 C 0.9254 0.32405 0.27992 0.0
C509 C 0.91201 0.31158 0.24685 0.0
C510 C 0.91654 0.2911 0.23701 0.0
H511 H 0.94677 0.25492 0.09921 0.0
H512 H 0.92369 0.26711 0.12303 0.0
H513 H 0.94787 0.27806 0.14335 0.0
H514 H 0.96202 0.28871 0.31114 0.0
H515 H 0.95417 0.32485 0.32818 0.0
H516 H 0.31869 0.8969 0.76505 0.0
H517 H 0.28277 0.90477 0.7789 0.0
H518 H 0.29147 0.96308 0.69261 0.0
H519 H 0.32772 0.95517 0.6778 0.0
H520 H 0.26427 0.93739 0.84099 0.0
H521 H 0.24468 0.93669 0.59474 0.0
H522 H 0.26834 0.92644 0.62313 0.0
H523 H 0.26479 0.95348 0.61856 0.0
C524 C 0.31304 0.91143 0.74897 0.0
C525 C 0.32604 0.92537 0.71994 0.0
C526 C 0.29249 0.91593 0.75715 0.0
C527 C 0.2844 0.93442 0.73637 0.0
C528 C 0.29736 0.9486 0.70828 0.0
H529 H 0.15489 0.95469 0.83362 0.0
H530 H 0.19097 0.96284 0.81637 0.0
C531 C 0.31805 0.94409 0.70005 0.0
C532 C 0.26228 0.93826 0.74349 0.0
H533 H 0.21768 0.93961 0.66376 0.0
C534 C 0.25406 0.93827 0.80233 0.0
C535 C 0.24905 0.93929 0.69286 0.0
C536 C 0.25703 0.93886 0.62864 0.0
C537 C 0.23293 0.93827 0.81192 0.0
C538 C 0.21968 0.93854 0.76125 0.0
C539 C 0.22791 0.93953 0.70247 0.0
C540 C 0.19751 0.93494 0.76796 0.0
C541 C 0.22495 0.93667 0.87601 0.0
C542 C 0.18914 0.91688 0.74503 0.0
C543 C 0.16869 0.91224 0.75465 0.0
C544 C 0.15608 0.92561 0.78725 0.0
C545 C 0.16426 0.94406 0.80855 0.0
C546 C 0.18486 0.94869 0.79896 0.0
H547 H 0.23725 0.9336 0.90942 0.0
H548 H 0.21744 0.95119 0.88869 0.0
H549 H 0.21343 0.92436 0.87937 0.0
H550 H 0.19862 0.90605 0.72098 0.0
H551 H 0.16286 0.89795 0.73731 0.0
H552 H 0.42013 0.81899 0.63773 0.0
H553 H 0.42685 0.78253 0.65129 0.0
H554 H 0.43049 0.79116 0.84509 0.0
H555 H 0.42362 0.82752 0.83192 0.0
H556 H 0.45787 0.75846 0.71108 0.0
H557 H 0.38207 0.75198 0.82136 0.0
H558 H 0.38978 0.77431 0.77957 0.0
H559 H 0.39892 0.7702 0.85557 0.0
C560 C 0.42288 0.81319 0.68306 0.0
C561 C 0.42112 0.82604 0.73385 0.0
C562 C 0.42665 0.79236 0.69076 0.0
C563 C 0.42876 0.78411 0.74928 0.0
C564 C 0.42851 0.79717 0.79964 0.0
H565 H 0.4204 0.65961 0.88137 0.0
H566 H 0.42804 0.69597 0.87414 0.0
C567 C 0.42462 0.81792 0.79205 0.0
C568 C 0.42935 0.76173 0.75811 0.0
H569 H 0.40207 0.7223 0.81782 0.0
C570 C 0.44573 0.75052 0.73455 0.0
C571 C 0.41343 0.75142 0.78854 0.0
C572 C 0.39495 0.76252 0.8123 0.0
C573 C 0.44668 0.72923 0.74121 0.0
C574 C 0.43068 0.71893 0.77137 0.0
C575 C 0.41442 0.73022 0.79525 0.0
C576 C 0.42968 0.6964 0.776 0.0
C577 C 0.46488 0.71798 0.71643 0.0
C578 C 0.42851 0.68445 0.72331 0.0
C579 C 0.42429 0.66364 0.72733 0.0
C580 C 0.42097 0.65436 0.78412 0.0
C581 C 0.42311 0.66618 0.83698 0.0
C582 C 0.42735 0.687 0.8329 0.0
H583 H 0.47828 0.72818 0.7118 0.0
H584 H 0.46907 0.70494 0.74603 0.0
H585 H 0.46113 0.71199 0.67067 0.0
H586 H 0.42984 0.69139 0.67886 0.0
H587 H 0.4229 0.65493 0.68578 0.0
H588 H 0.82679 0.42259 0.18149 0.0
H589 H 0.79043 0.42954 0.16975 0.0
H590 H 0.78222 0.4233 0.36316 0.0
H591 H 0.81862 0.41634 0.37522 0.0
H592 H 0.76178 0.40077 0.20146 0.0
H593 H 0.74695 0.47306 0.3237 0.0
H594 H 0.77215 0.46545 0.30002 0.0
H595 H 0.76093 0.45456 0.36701 0.0
C596 C 0.8173 0.42309 0.22167 0.0
C597 C 0.82555 0.41881 0.27925 0.0
C598 C 0.79655 0.42712 0.21491 0.0
C599 C 0.78361 0.42707 0.26557 0.0
C600 C 0.79196 0.42383 0.32355 0.0
H601 H 0.65489 0.41565 0.32621 0.0
H602 H 0.69143 0.42217 0.33366 0.0
C603 C 0.81278 0.41984 0.33039 0.0
C604 C 0.76121 0.42778 0.25673 0.0
H605 H 0.71786 0.45312 0.29703 0.0
C606 C 0.7522 0.41237 0.22171 0.0
C607 C 0.74874 0.4428 0.28372 0.0
C608 C 0.75766 0.46002 0.32031 0.0
C609 C 0.73103 0.41122 0.21422 0.0
C610 C 0.71849 0.4262 0.24131 0.0
C611 C 0.7275 0.44175 0.27594 0.0
C612 C 0.69596 0.42515 0.23677 0.0
C613 C 0.72226 0.39347 0.17937 0.0
C614 C 0.68621 0.42547 0.17999 0.0
C615 C 0.66534 0.42147 0.17547 0.0
C616 C 0.6538 0.41726 0.22779 0.0
C617 C 0.66339 0.41841 0.28491 0.0
C618 C 0.68426 0.4223 0.28932 0.0
H619 H 0.73343 0.38088 0.1744 0.0
H620 H 0.70846 0.38741 0.20217 0.0
H621 H 0.71788 0.39862 0.13316 0.0
H622 H 0.69489 0.42805 0.13891 0.0
H623 H 0.65853 0.42064 0.13074 0.0
H624 H 0.05153 0.83323 0.68048 0.0
H625 H 0.04224 0.79788 0.65586 0.0
H626 H 0.05634 0.77984 0.83951 0.0
H627 H 0.06577 0.81493 0.86388 0.0
H628 H 0.07235 0.76606 0.67015 0.0
H629 H 0.00229 0.74937 0.80099 0.0
H630 H 0.00981 0.77493 0.78041 0.0
H631 H 0.02168 0.76233 0.84368 0.0
C632 C 0.052 0.82179 0.71591 0.0
C633 C 0.05928 0.82672 0.77407 0.0
C634 C 0.04679 0.80164 0.70181 0.0
C635 C 0.0484 0.7863 0.74606 0.0
C636 C 0.05462 0.79149 0.80501 0.0
H637 H 0.06036 0.65983 0.80308 0.0
H638 H 0.05294 0.6962 0.80568 0.0
C639 C 0.06007 0.81149 0.81883 0.0
C640 C 0.0464 0.76452 0.72941 0.0
H641 H 0.02208 0.72059 0.76933 0.0
C642 C 0.0611 0.75612 0.69067 0.0
C643 C 0.03183 0.75165 0.7568 0.0
C644 C 0.01538 0.76001 0.79741 0.0
C645 C 0.06243 0.73501 0.68151 0.0
C646 C 0.04823 0.72198 0.71049 0.0
C647 C 0.03293 0.73053 0.74705 0.0
C648 C 0.05028 0.69945 0.70817 0.0
C649 C 0.07986 0.72683 0.6441 0.0
C650 C 0.05053 0.68894 0.65264 0.0
C651 C 0.05519 0.66814 0.65089 0.0
C652 C 0.0594 0.65738 0.7048 0.0
C653 C 0.0577 0.6677 0.76057 0.0
C654 C 0.05326 0.68849 0.7622 0.0
H655 H 0.09195 0.73842 0.63704 0.0
H656 H 0.0868 0.7133 0.66616 0.0
H657 H 0.0741 0.7222 0.59879 0.0
H658 H 0.04776 0.69695 0.61044 0.0
H659 H 0.0564 0.66078 0.60708 0.0
H660 H 0.81195 0.09489 0.21706 0.0
H661 H 0.77609 0.08566 0.2206 0.0
H662 H 0.79179 0.02242 0.19702 0.0
H663 H 0.82812 0.03156 0.19502 0.0
H664 H 0.75226 0.0654 0.13334 0.0
H665 H 0.7561 0.02287 0.35213 0.0
H666 H 0.77633 0.03953 0.32754 0.0
H667 H 0.77301 0.01517 0.29215 0.0
C668 C 0.80787 0.07896 0.2133 0.0
C669 C 0.82294 0.06391 0.2069 0.0
C670 C 0.78732 0.07374 0.21473 0.0
C671 C 0.78127 0.05334 0.20977 0.0
C672 C 0.79616 0.03823 0.20179 0.0
H673 H 0.64681 0.0436 0.19425 0.0
H674 H 0.68211 0.03375 0.17153 0.0
C675 C 0.81687 0.04348 0.20024 0.0
C676 C 0.75927 0.04838 0.21415 0.0
H677 H 0.7237 0.02941 0.31201 0.0
C678 C 0.74596 0.05715 0.17165 0.0
C679 C 0.75117 0.03769 0.26439 0.0
C680 C 0.76479 0.02832 0.31203 0.0
C681 C 0.72478 0.05662 0.17992 0.0
C682 C 0.71667 0.04669 0.23163 0.0
C683 C 0.72995 0.03688 0.27223 0.0
C684 C 0.69501 0.04925 0.24932 0.0
C685 C 0.71137 0.06797 0.13562 0.0
C686 C 0.69047 0.06024 0.30217 0.0
C687 C 0.67044 0.06567 0.3154 0.0
C688 C 0.65448 0.06024 0.27608 0.0
C689 C 0.65882 0.04801 0.22532 0.0
C690 C 0.67897 0.04254 0.21202 0.0
H691 H 0.72033 0.07741 0.10342 0.0
H692 H 0.70233 0.05689 0.10881 0.0
H693 H 0.70059 0.07802 0.1602 0.0
H694 H 0.70255 0.0655 0.33179 0.0
H695 H 0.66752 0.07484 0.35535 0.0
H696 H 0.58643 0.14462 0.58867 0.0
H697 H 0.5829 0.1392 0.69787 0.0
H698 H 0.55959 0.07884 0.66496 0.0
H699 H 0.56387 0.08378 0.55584 0.0
H700 H 0.5493 0.13034 0.76759 0.0
H701 H 0.60607 0.06796 0.78272 0.0
H702 H 0.60354 0.08387 0.71631 0.0
H703 H 0.58601 0.06329 0.7291 0.0
C704 C 0.58071 0.13012 0.60452 0.0
C705 C 0.57562 0.11459 0.56323 0.0
C706 C 0.57858 0.1271 0.66702 0.0
C707 C 0.57137 0.10848 0.68959 0.0
C708 C 0.56562 0.09317 0.64859 0.0
H709 H 0.54691 0.06208 0.05088 0.0
H710 H 0.55019 0.06733 0.94124 0.0
C711 C 0.56781 0.09615 0.58606 0.0
C712 C 0.56988 0.10513 0.75606 0.0
H713 H 0.58679 0.07475 0.87157 0.0
C714 C 0.55755 0.11824 0.79039 0.0
C715 C 0.58072 0.08936 0.78569 0.0
C716 C 0.59498 0.07542 0.75173 0.0
C717 C 0.55551 0.1158 0.85344 0.0
C718 C 0.56627 0.09997 0.88291 0.0
C719 C 0.57857 0.08685 0.84868 0.0
C720 C 0.5648 0.0967 0.94929 0.0
C721 C 0.54157 0.1299 0.88793 0.0
C722 C 0.57229 0.11132 0.99003 0.0
C723 C 0.57044 0.10835 0.05268 0.0
C724 C 0.56104 0.09072 0.07566 0.0
C725 C 0.55395 0.07593 0.0346 0.0
C726 C 0.5559 0.07886 0.97201 0.0
H727 H 0.53114 0.13833 0.85715 0.0
H728 H 0.53234 0.12129 0.92147 0.0
H729 H 0.55087 0.14119 0.91315 0.0
H730 H 0.57946 0.12507 0.97331 0.0
H731 H 0.57591 0.1201 0.083 0.0
H732 H 0.38606 0.58801 0.57085 0.0
H733 H 0.38203 0.59243 0.46134 0.0
H734 H 0.38094 0.52731 0.43786 0.0
H735 H 0.38475 0.5227 0.54749 0.0
H736 H 0.40692 0.54786 0.35613 0.0
H737 H 0.33008 0.5829 0.36132 0.0
H738 H 0.34842 0.5952 0.4094 0.0
H739 H 0.34074 0.5695 0.42551 0.0
C740 C 0.38468 0.5746 0.54264 0.0
C741 C 0.3856 0.55499 0.56829 0.0
C742 C 0.3824 0.57717 0.47995 0.0
C743 C 0.38088 0.5602 0.44156 0.0
C744 C 0.38202 0.54061 0.46674 0.0
H745 H 0.37027 0.54693 0.04759 0.0
H746 H 0.37354 0.54055 0.1566 0.0
C747 C 0.38429 0.53802 0.52947 0.0
C748 C 0.37854 0.56293 0.37499 0.0
H749 H 0.34749 0.58365 0.26687 0.0
C750 C 0.39387 0.55556 0.33649 0.0
C751 C 0.3615 0.57299 0.34956 0.0
C752 C 0.34414 0.58045 0.38844 0.0
C753 C 0.3929 0.55845 0.2733 0.0
C754 C 0.37593 0.56867 0.24792 0.0
C755 C 0.36051 0.57587 0.28642 0.0
C756 C 0.37402 0.5724 0.18163 0.0
C757 C 0.41032 0.55108 0.23447 0.0
C758 C 0.37273 0.59239 0.15952 0.0
C759 C 0.37081 0.59609 0.09724 0.0
C760 C 0.37004 0.57984 0.05565 0.0
C761 C 0.37116 0.5598 0.07808 0.0
C762 C 0.37304 0.55612 0.14046 0.0
H763 H 0.42426 0.54825 0.26182 0.0
H764 H 0.40594 0.53656 0.21232 0.0
H765 H 0.41397 0.56229 0.19831 0.0
H766 H 0.37342 0.60518 0.19049 0.0
H767 H 0.37025 0.6117 0.08172 0.0
H768 H 0.90616 0.35813 0.07202 0.0
H769 H 0.90193 0.35441 0.96234 0.0
H770 H 0.94021 0.4068 0.93293 0.0
H771 H 0.94443 0.41072 0.04264 0.0
H772 H 0.88563 0.38231 0.88015 0.0
H773 H 0.96575 0.36407 0.82165 0.0
H774 H 0.95627 0.36301 0.89852 0.0
H775 H 0.96264 0.38708 0.86462 0.0
C776 C 0.91362 0.36894 0.04239 0.0
C777 C 0.92567 0.38474 0.06634 0.0
C778 C 0.91127 0.36671 0.9796 0.0
C779 C 0.92099 0.38014 0.9394 0.0
C780 C 0.93295 0.39597 0.96303 0.0
H781 H 0.92076 0.39468 0.54673 0.0
H782 H 0.92649 0.3979 0.65607 0.0
C783 C 0.93534 0.39819 0.02582 0.0
C784 C 0.91801 0.37798 0.87285 0.0
H785 H 0.94323 0.37014 0.73923 0.0
C786 C 0.89821 0.37955 0.84935 0.0
C787 C 0.93446 0.37446 0.83272 0.0
C788 C 0.95597 0.37187 0.85555 0.0
C789 C 0.89442 0.37799 0.78673 0.0
C790 C 0.91084 0.3744 0.74662 0.0
C791 C 0.93067 0.37289 0.77006 0.0
C792 C 0.90773 0.37207 0.68018 0.0
C793 C 0.8729 0.38066 0.76397 0.0
C794 C 0.8956 0.35624 0.65732 0.0
C795 C 0.89234 0.35432 0.59483 0.0
C796 C 0.90127 0.3681 0.55377 0.0
C797 C 0.91379 0.38368 0.57683 0.0
C798 C 0.91701 0.38561 0.6394 0.0
H799 H 0.86317 0.38855 0.79781 0.0
H800 H 0.87262 0.38946 0.72089 0.0
H801 H 0.86614 0.36546 0.75514 0.0
H802 H 0.88869 0.34532 0.68786 0.0
H803 H 0.88296 0.34192 0.57867 0.0
H804 H 0.14537 0.89248 0.09347 0.0
H805 H 0.13993 0.89602 0.20254 0.0
H806 H 0.07938 0.91879 0.16934 0.0
H807 H 0.08428 0.91441 0.06032 0.0
H808 H 0.13117 0.92949 0.2713 0.0
H809 H 0.06869 0.87293 0.28847 0.0
H810 H 0.08438 0.87533 0.22164 0.0
H811 H 0.06384 0.89289 0.23468 0.0
C812 C 0.1308 0.89804 0.10918 0.0
C813 C 0.11521 0.90297 0.06783 0.0
C814 C 0.12778 0.90019 0.17164 0.0
C815 C 0.10912 0.90728 0.19411 0.0
C816 C 0.09374 0.91283 0.15305 0.0
H817 H 0.0641 0.93373 0.55546 0.0
H818 H 0.06894 0.93007 0.44574 0.0
C819 C 0.0967 0.91059 0.09057 0.0
C820 C 0.10586 0.90897 0.26052 0.0
H821 H 0.07561 0.89252 0.37674 0.0
C822 C 0.11909 0.92134 0.2944 0.0
C823 C 0.09009 0.89828 0.29055 0.0
C824 C 0.07605 0.88395 0.25713 0.0
C825 C 0.11678 0.92354 0.35741 0.0
C826 C 0.10096 0.91295 0.38725 0.0
C827 C 0.0877 0.90062 0.35351 0.0
C828 C 0.09787 0.91459 0.45359 0.0
C829 C 0.13104 0.93745 0.39152 0.0
C830 C 0.11237 0.90674 0.49413 0.0
C831 C 0.10964 0.90879 0.55678 0.0
C832 C 0.09236 0.91877 0.57989 0.0
C833 C 0.07768 0.92623 0.53901 0.0
C834 C 0.08037 0.92407 0.47642 0.0
H835 H 0.13966 0.94762 0.36046 0.0
H836 H 0.12251 0.94697 0.42449 0.0
H837 H 0.14215 0.92813 0.4174 0.0
H838 H 0.12586 0.89915 0.47726 0.0
H839 H 0.12129 0.90303 0.587 0.0
H840 H 0.52167 0.38242 0.45833 0.0
H841 H 0.52656 0.38001 0.56812 0.0
H842 H 0.59153 0.38407 0.54371 0.0
H843 H 0.58678 0.38726 0.43413 0.0
H844 H 0.5476 0.35109 0.63413 0.0
H845 H 0.58104 0.42761 0.67114 0.0
H846 H 0.56831 0.42068 0.60147 0.0
H847 H 0.59417 0.41286 0.61486 0.0
C848 C 0.537 0.38311 0.47621 0.0
C849 C 0.55382 0.38515 0.43711 0.0
C850 C 0.53977 0.38157 0.53905 0.0
C851 C 0.55939 0.38217 0.56424 0.0
C852 C 0.57622 0.38398 0.52543 0.0
H853 H 0.61076 0.37002 0.92433 0.0
H854 H 0.60444 0.37315 0.81534 0.0
C855 C 0.57348 0.38554 0.4626 0.0
C856 C 0.56226 0.38038 0.63096 0.0
H857 H 0.58264 0.4045 0.75428 0.0
C858 C 0.55513 0.36283 0.6605 0.0
C859 C 0.57208 0.39572 0.6653 0.0
C860 C 0.57918 0.41537 0.63676 0.0
C861 C 0.558 0.35997 0.72318 0.0
C862 C 0.56802 0.3752 0.75733 0.0
C863 C 0.57502 0.39282 0.72792 0.0
C864 C 0.57164 0.37305 0.82355 0.0
C865 C 0.55074 0.34045 0.75211 0.0
C866 C 0.55529 0.37213 0.86444 0.0
C867 C 0.55885 0.37025 0.92687 0.0
C868 C 0.57886 0.36928 0.94966 0.0
C869 C 0.59518 0.37036 0.90843 0.0
C870 C 0.5916 0.37231 0.84609 0.0
H871 H 0.5476 0.32847 0.71775 0.0
H872 H 0.56219 0.33457 0.78487 0.0
H873 H 0.53645 0.34343 0.77737 0.0
H874 H 0.53976 0.37298 0.84807 0.0
H875 H 0.54593 0.36934 0.95718 0.0
H876 H 0.11797 0.57953 0.92202 0.0
H877 H 0.12156 0.58376 0.03177 0.0
H878 H 0.07215 0.54169 0.06094 0.0
H879 H 0.06842 0.53741 0.95116 0.0
H880 H 0.09325 0.59764 0.11536 0.0
H881 H 0.1168 0.51854 0.16978 0.0
H882 H 0.11677 0.52843 0.09326 0.0
H883 H 0.09338 0.52032 0.12802 0.0
C884 C 0.10777 0.57126 0.95165 0.0
C885 C 0.09292 0.55808 0.92768 0.0
C886 C 0.10992 0.57361 0.01444 0.0
C887 C 0.09735 0.56279 0.05457 0.0
C888 C 0.08236 0.54981 0.03087 0.0
H889 H 0.08414 0.56113 0.44748 0.0
H890 H 0.08071 0.55558 0.33815 0.0
C891 C 0.08023 0.5474 0.96809 0.0
C892 C 0.09958 0.56554 0.12115 0.0
H893 H 0.10959 0.54016 0.2534 0.0
C894 C 0.09692 0.5851 0.14552 0.0
C895 C 0.1043 0.54913 0.16043 0.0
C896 C 0.10817 0.52795 0.13663 0.0
C897 C 0.09858 0.58865 0.2082 0.0
C898 C 0.10334 0.57226 0.24743 0.0
C899 C 0.10593 0.55269 0.22317 0.0
C900 C 0.10585 0.5752 0.31379 0.0
C901 C 0.09485 0.60985 0.23207 0.0
C902 C 0.12139 0.58773 0.33639 0.0
C903 C 0.12347 0.59085 0.39887 0.0
C904 C 0.11011 0.58141 0.44012 0.0
C905 C 0.09482 0.56849 0.41726 0.0
C906 C 0.09276 0.56538 0.3547 0.0
H907 H 0.08648 0.61941 0.1987 0.0
H908 H 0.08604 0.60939 0.27507 0.0
H909 H 0.10968 0.61729 0.24149 0.0
H910 H 0.13194 0.59509 0.30564 0.0
H911 H 0.13566 0.60056 0.41481 0.0
H912 H 0.89154 0.09204 0.42995 0.0
H913 H 0.88712 0.09608 0.53943 0.0
H914 H 0.95222 0.09849 0.5628 0.0
H915 H 0.95683 0.09475 0.45326 0.0
H916 H 0.93176 0.07181 0.6445 0.0
H917 H 0.89633 0.14854 0.63879 0.0
H918 H 0.88439 0.13006 0.59034 0.0
H919 H 0.91004 0.13806 0.57502 0.0
C920 C 0.90494 0.0937 0.45813 0.0
C921 C 0.92455 0.09318 0.43248 0.0
C922 C 0.90237 0.09598 0.52078 0.0
C923 C 0.91934 0.09786 0.55909 0.0
C924 C 0.93893 0.09712 0.53394 0.0
H925 H 0.93316 0.10835 0.95271 0.0
H926 H 0.93937 0.10502 0.84363 0.0
C927 C 0.94152 0.09487 0.47127 0.0
C928 C 0.91664 0.10019 0.62556 0.0
H929 H 0.89608 0.13128 0.73347 0.0
C930 C 0.92407 0.08486 0.6641 0.0
C931 C 0.9066 0.11723 0.65084 0.0
C932 C 0.89902 0.13452 0.61177 0.0
C933 C 0.92126 0.08586 0.72727 0.0
C934 C 0.9111 0.10285 0.75256 0.0
C935 C 0.90384 0.11826 0.71399 0.0
C936 C 0.90749 0.10479 0.81882 0.0
C937 C 0.92866 0.06843 0.76616 0.0
C938 C 0.88754 0.10626 0.84101 0.0
C939 C 0.88395 0.10824 0.90326 0.0
C940 C 0.90025 0.10888 0.9447 0.0
C941 C 0.92025 0.10757 0.92223 0.0
C942 C 0.92383 0.10564 0.85987 0.0
H943 H 0.93133 0.05446 0.73891 0.0
H944 H 0.94328 0.07275 0.7879 0.0
H945 H 0.91756 0.06486 0.80262 0.0
H946 H 0.87471 0.10567 0.81012 0.0
H947 H 0.86836 0.10896 0.91891 0.0
H948 H 0.39728 0.9221 0.45988 0.0
H949 H 0.39981 0.92884 0.35094 0.0
H950 H 0.34975 0.8879 0.31762 0.0
H951 H 0.34666 0.88158 0.42652 0.0
H952 H 0.40747 0.90108 0.25855 0.0
H953 H 0.33278 0.93873 0.22374 0.0
H954 H 0.34374 0.93498 0.29814 0.0
H955 H 0.33107 0.91433 0.26012 0.0
C956 C 0.38657 0.91478 0.42959 0.0
C957 C 0.37169 0.90135 0.45219 0.0
C958 C 0.38814 0.91855 0.36723 0.0
C959 C 0.37479 0.9091 0.32624 0.0
C960 C 0.35997 0.89566 0.34852 0.0
H961 H 0.36207 0.90417 0.93513 0.0
H962 H 0.35934 0.89955 0.045 0.0
C963 C 0.35839 0.89187 0.41082 0.0
C964 C 0.37684 0.91271 0.25998 0.0
H965 H 0.35107 0.92948 0.13472 0.0
C966 C 0.3952 0.90743 0.23151 0.0
C967 C 0.36079 0.92096 0.22481 0.0
C968 C 0.34104 0.92776 0.25325 0.0
C969 C 0.39779 0.90974 0.16857 0.0
C970 C 0.38169 0.91783 0.13337 0.0
C971 C 0.36336 0.92323 0.16185 0.0
C972 C 0.3835 0.92069 0.06678 0.0
C973 C 0.41754 0.90301 0.14001 0.0
C974 C 0.39784 0.93429 0.04262 0.0
C975 C 0.39951 0.93689 0.97977 0.0
C976 C 0.38684 0.92598 0.93984 0.0
C977 C 0.37232 0.91254 0.96437 0.0
C978 C 0.37063 0.90999 0.02722 0.0
H979 H 0.42635 0.89279 0.1705 0.0
H980 H 0.41472 0.89498 0.09645 0.0
H981 H 0.42705 0.91659 0.13031 0.0
H982 H 0.40771 0.94294 0.0724 0.0
H983 H 0.41091 0.94726 0.96244 0.0
loop_
_geom_bond_atom_site_label_1
_geom_bond_atom_site_label_2
_geom_bond_distance
_geom_bond_site_symmetry_2
_ccdc_geom_bond_type
Co0 N4 2.148 . S
Co0 N10 2.128 . S
Co0 N20 2.194 . S
Co0 O25 2.351 . S
Co0 O26 2.155 . S
Co0 O27 2.096 . S
C1 N4 1.301 . S
C1 N5 1.328 . S
C1 H6 0.930 . S
C2 C3 1.333 . S
C2 N4 1.317 . S
C2 H7 0.930 . S
C3 C2 1.333 . S
C3 N5 1.350 . S
C3 H29 0.931 . S
N4 Co0 2.148 . S
N4 C1 1.301 . S
N4 C2 1.317 . S
N5 C1 1.328 . S
N5 C3 1.350 . S
H6 C1 0.930 . S
H7 C2 0.930 . S
C8 O9 1.224 . S
C8 O27 1.247 . S
O9 C8 1.224 . S
N10 Co0 2.128 . S
N10 C11 1.355 . S
N10 C13 1.311 . S
C11 N10 1.355 . S
C11 C12 1.363 . S
C11 H23 0.929 . S
C12 C11 1.363 . S
C12 N14 1.375 . S
C12 H30 0.931 . S
C13 N10 1.311 . S
C13 N14 1.347 . S
C13 H24 0.929 . S
N14 C12 1.375 . S
N14 C13 1.347 . S
C15 C18 1.365 . S
C15 N20 1.328 . S
C15 H21 0.929 . S
C16 C17 1.362 . S
C16 C19 1.378 . S
C16 H31 0.929 . S
C17 C16 1.362 . S
C17 C18 1.366 . S
C18 C15 1.365 . S
C18 C17 1.366 . S
C18 H32 0.930 . S
C19 C16 1.378 . S
C19 N20 1.315 . S
C19 H22 0.930 . S
N20 Co0 2.194 . S
N20 C15 1.328 . S
N20 C19 1.315 . S
H21 C15 0.929 . S
H22 C19 0.930 . S
H23 C11 0.929 . S
H24 C13 0.929 . S
O25 Co0 2.351 . S
O25 C28 1.244 . S
O26 Co0 2.155 . S
O26 C28 1.240 . S
O27 Co0 2.096 . S
O27 C8 1.247 . S
C28 O25 1.244 . S
C28 O26 1.240 . S
H29 C3 0.931 . S
H30 C12 0.931 . S
H31 C16 0.929 . S
H32 C18 0.930 . S
Co33 N37 2.148 . S
Co33 N43 2.128 . S
Co33 N53 2.194 . S
Co33 O58 2.351 . S
Co33 O59 2.155 . S
Co33 O60 2.096 . S
C34 N37 1.301 . S
C34 N38 1.328 . S
C34 H39 0.930 . S
C35 C36 1.333 . S
C35 N37 1.317 . S
C35 H40 0.930 . S
C36 C35 1.333 . S
C36 N38 1.350 . S
C36 H62 0.931 . S
N37 Co33 2.148 . S
N37 C34 1.301 . S
N37 C35 1.317 . S
N38 C34 1.328 . S
N38 C36 1.350 . S
H39 C34 0.930 . S
H40 C35 0.930 . S
C41 O42 1.224 . S
C41 O60 1.247 . S
O42 C41 1.224 . S
N43 Co33 2.128 . S
N43 C44 1.355 . S
N43 C46 1.311 . S
C44 N43 1.355 . S
C44 C45 1.363 . S
C44 H56 0.929 . S
C45 C44 1.363 . S
C45 N47 1.371 1_556 S
C45 H63 0.931 1_556 S
C46 N43 1.311 . S
C46 N47 1.335 1_556 S
C46 H57 0.929 . S
N47 C45 1.371 1_554 S
N47 C46 1.335 1_554 S
C48 C51 1.365 . S
C48 N53 1.328 . S
C48 H54 0.929 . S
C49 C50 1.362 . S
C49 C52 1.378 . S
C49 H64 0.929 . S
C50 C49 1.362 . S
C50 C51 1.366 . S
C51 C48 1.365 . S
C51 C50 1.366 . S
C51 H65 0.930 . S
C52 C49 1.378 . S
C52 N53 1.315 . S
C52 H55 0.930 . S
N53 Co33 2.194 . S
N53 C48 1.328 . S
N53 C52 1.315 . S
H54 C48 0.929 . S
H55 C52 0.930 . S
H56 C44 0.929 . S
H57 C46 0.929 . S
O58 Co33 2.351 . S
O58 C61 1.244 . S
O59 Co33 2.155 . S
O59 C61 1.240 . S
O60 Co33 2.096 . S
O60 C41 1.247 . S
C61 O58 1.244 . S
C61 O59 1.240 . S
H62 C36 0.931 . S
H63 C45 0.931 1_554 S
H64 C49 0.929 . S
H65 C51 0.930 . S
Co66 N70 2.148 . S
Co66 N76 2.128 . S
Co66 N86 2.194 . S
Co66 O91 2.351 . S
Co66 O92 2.155 . S
Co66 O93 2.096 . S
C67 N70 1.301 . S
C67 N71 1.328 . S
C67 H72 0.930 . S
C68 C69 1.333 . S
C68 N70 1.317 . S
C68 H73 0.930 . S
C69 C68 1.333 . S
C69 N71 1.350 . S
C69 H95 0.931 . S
N70 Co66 2.148 . S
N70 C67 1.301 . S
N70 C68 1.317 . S
N71 C67 1.328 . S
N71 C69 1.350 . S
H72 C67 0.930 . S
H73 C68 0.930 . S
C74 O75 1.224 . S
C74 O93 1.247 . S
O75 C74 1.224 . S
N76 Co66 2.128 . S
N76 C77 1.355 . S
N76 C79 1.311 . S
C77 N76 1.355 . S
C77 C78 1.363 . S
C77 H89 0.929 . S
C78 C77 1.363 . S
C78 N80 1.375 . S
C78 H96 0.931 . S
C79 N76 1.311 . S
C79 N80 1.347 . S
C79 H90 0.929 . S
N80 C78 1.375 . S
N80 C79 1.347 . S
C81 C84 1.365 . S
C81 N86 1.328 . S
C81 H87 0.929 . S
C82 C83 1.362 . S
C82 C85 1.378 . S
C82 H97 0.929 . S
C83 C82 1.362 . S
C83 C84 1.366 . S
C84 C81 1.365 . S
C84 C83 1.366 . S
C84 H98 0.930 . S
C85 C82 1.378 . S
C85 N86 1.315 . S
C85 H88 0.930 . S
N86 Co66 2.194 . S
N86 C81 1.328 . S
N86 C85 1.315 . S
H87 C81 0.929 . S
H88 C85 0.930 . S
H89 C77 0.929 . S
H90 C79 0.929 . S
O91 Co66 2.351 . S
O91 C94 1.244 . S
O92 Co66 2.155 . S
O92 C94 1.240 . S
O93 Co66 2.096 . S
O93 C74 1.247 . S
C94 O91 1.244 . S
C94 O92 1.240 . S
H95 C69 0.931 . S
H96 C78 0.931 . S
H97 C82 0.929 . S
H98 C84 0.930 . S
Co99 N103 2.148 . S
Co99 N109 2.128 . S
Co99 N119 2.194 . S
Co99 O124 2.351 . S
Co99 O125 2.155 . S
Co99 O126 2.096 . S
C100 N103 1.301 . S
C100 N104 1.328 . S
C100 H105 0.930 . S
C101 C102 1.333 . S
C101 N103 1.317 . S
C101 H106 0.930 . S
C102 C101 1.333 . S
C102 N104 1.350 . S
C102 H128 0.931 . S
N103 Co99 2.148 . S
N103 C100 1.301 . S
N103 C101 1.317 . S
N104 C100 1.328 . S
N104 C102 1.350 . S
H105 C100 0.930 . S
H106 C101 0.930 . S
C107 O108 1.224 . S
C107 O126 1.247 . S
O108 C107 1.224 . S
N109 Co99 2.128 . S
N109 C110 1.355 . S
N109 C112 1.311 . S
C110 N109 1.355 . S
C110 C111 1.363 . S
C110 H122 0.929 . S
C111 C110 1.363 . S
C111 N113 1.371 1_556 S
C111 H129 0.931 1_556 S
C112 N109 1.311 . S
C112 N113 1.335 1_556 S
C112 H123 0.929 . S
N113 C111 1.371 1_554 S
N113 C112 1.335 1_554 S
C114 C117 1.365 . S
C114 N119 1.328 . S
C114 H120 0.929 . S
C115 C116 1.362 . S
C115 C118 1.378 . S
C115 H130 0.929 . S
C116 C115 1.362 . S
C116 C117 1.366 . S
C117 C114 1.365 . S
C117 C116 1.366 . S
C117 H131 0.930 . S
C118 C115 1.378 . S
C118 N119 1.315 . S
C118 H121 0.930 . S
N119 Co99 2.194 . S
N119 C114 1.328 . S
N119 C118 1.315 . S
H120 C114 0.929 . S
H121 C118 0.930 . S
H122 C110 0.929 . S
H123 C112 0.929 . S
O124 Co99 2.351 . S
O124 C127 1.244 . S
O125 Co99 2.155 . S
O125 C127 1.240 . S
O126 Co99 2.096 . S
O126 C107 1.247 . S
C127 O124 1.244 . S
C127 O125 1.240 . S
H128 C102 0.931 . S
H129 C111 0.931 1_554 S
H130 C115 0.929 . S
H131 C117 0.930 . S
Co132 N136 2.148 . S
Co132 N142 2.128 . S
Co132 N152 2.194 . S
Co132 O157 2.351 . S
Co132 O158 2.155 . S
Co132 O159 2.096 . S
C133 N136 1.301 . S
C133 N137 1.328 . S
C133 H138 0.930 . S
C134 C135 1.333 . S
C134 N136 1.317 . S
C134 H139 0.930 . S
C135 C134 1.333 . S
C135 N137 1.350 . S
C135 H161 0.931 . S
N136 Co132 2.148 . S
N136 C133 1.301 . S
N136 C134 1.317 . S
N137 C133 1.328 . S
N137 C135 1.350 . S
H138 C133 0.930 . S
H139 C134 0.930 . S
C140 O141 1.224 . S
C140 O159 1.247 . S
O141 C140 1.224 . S
N142 Co132 2.128 . S
N142 C143 1.355 . S
N142 C145 1.311 . S
C143 N142 1.355 . S
C143 C144 1.363 . S
C143 H155 0.929 . S
C144 C143 1.363 . S
C144 N146 1.371 1_554 S
C144 H162 0.931 1_554 S
C145 N142 1.311 . S
C145 N146 1.335 1_554 S
C145 H156 0.929 . S
N146 C144 1.371 1_556 S
N146 C145 1.335 1_556 S
C147 C150 1.365 . S
C147 N152 1.328 . S
C147 H153 0.929 . S
C148 C149 1.362 . S
C148 C151 1.378 . S
C148 H163 0.929 . S
C149 C148 1.362 . S
C149 C150 1.366 . S
C150 C147 1.365 . S
C150 C149 1.366 . S
C150 H164 0.930 . S
C151 C148 1.378 . S
C151 N152 1.315 . S
C151 H154 0.930 . S
N152 Co132 2.194 . S
N152 C147 1.328 . S
N152 C151 1.315 . S
H153 C147 0.929 . S
H154 C151 0.930 . S
H155 C143 0.929 . S
H156 C145 0.929 . S
O157 Co132 2.351 . S
O157 C160 1.244 . S
O158 Co132 2.155 . S
O158 C160 1.240 . S
O159 Co132 2.096 . S
O159 C140 1.247 . S
C160 O157 1.244 . S
C160 O158 1.240 . S
H161 C135 0.931 . S
H162 C144 0.931 1_556 S
H163 C148 0.929 . S
H164 C150 0.930 . S
Co165 N169 2.148 . S
Co165 N175 2.128 . S
Co165 N185 2.194 . S
Co165 O190 2.351 . S
Co165 O191 2.155 . S
Co165 O192 2.096 . S
C166 N169 1.301 . S
C166 N170 1.328 . S
C166 H171 0.930 . S
C167 C168 1.333 . S
C167 N169 1.317 . S
C167 H172 0.930 . S
C168 C167 1.333 . S
C168 N170 1.350 . S
C168 H194 0.931 . S
N169 Co165 2.148 . S
N169 C166 1.301 . S
N169 C167 1.317 . S
N170 C166 1.328 . S
N170 C168 1.350 . S
H171 C166 0.930 . S
H172 C167 0.930 . S
C173 O174 1.224 . S
C173 O192 1.247 . S
O174 C173 1.224 . S
N175 Co165 2.128 . S
N175 C176 1.355 . S
N175 C178 1.311 . S
C176 N175 1.355 . S
C176 C177 1.363 . S
C176 H188 0.929 . S
C177 C176 1.363 . S
C177 N179 1.375 . S
C177 H195 0.931 . S
C178 N175 1.311 . S
C178 N179 1.347 . S
C178 H189 0.929 . S
N179 C177 1.375 . S
N179 C178 1.347 . S
C180 C183 1.365 . S
C180 N185 1.328 . S
C180 H186 0.929 . S
C181 C182 1.362 . S
C181 C184 1.378 . S
C181 H196 0.929 . S
C182 C181 1.362 . S
C182 C183 1.366 . S
C183 C180 1.365 . S
C183 C182 1.366 . S
C183 H197 0.930 . S
C184 C181 1.378 . S
C184 N185 1.315 . S
C184 H187 0.930 . S
N185 Co165 2.194 . S
N185 C180 1.328 . S
N185 C184 1.315 . S
H186 C180 0.929 . S
H187 C184 0.930 . S
H188 C176 0.929 . S
H189 C178 0.929 . S
O190 Co165 2.351 . S
O190 C193 1.244 . S
O191 Co165 2.155 . S
O191 C193 1.240 . S
O192 Co165 2.096 . S
O192 C173 1.247 . S
C193 O190 1.244 . S
C193 O191 1.240 . S
H194 C168 0.931 . S
H195 C177 0.931 . S
H196 C181 0.929 . S
H197 C183 0.930 . S
Co198 N202 2.148 . S
Co198 N208 2.128 . S
Co198 N218 2.194 . S
Co198 O223 2.351 . S
Co198 O224 2.155 . S
Co198 O225 2.096 . S
C199 N202 1.301 . S
C199 N203 1.328 . S
C199 H204 0.930 . S
C200 C201 1.333 . S
C200 N202 1.317 . S
C200 H205 0.930 . S
C201 C200 1.333 . S
C201 N203 1.350 . S
C201 H227 0.931 . S
N202 Co198 2.148 . S
N202 C199 1.301 . S
N202 C200 1.317 . S
N203 C199 1.328 . S
N203 C201 1.350 . S
H204 C199 0.930 . S
H205 C200 0.930 . S
C206 O207 1.224 . S
C206 O225 1.247 . S
O207 C206 1.224 . S
N208 Co198 2.128 . S
N208 C209 1.355 . S
N208 C211 1.311 . S
C209 N208 1.355 . S
C209 C210 1.363 . S
C209 H221 0.929 . S
C210 C209 1.363 . S
C210 N212 1.371 1_554 S
C210 H228 0.931 1_554 S
C211 N208 1.311 . S
C211 N212 1.335 1_554 S
C211 H222 0.929 . S
N212 C210 1.371 1_556 S
N212 C211 1.335 1_556 S
C213 C216 1.365 . S
C213 N218 1.328 . S
C213 H219 0.929 . S
C214 C215 1.362 . S
C214 C217 1.378 . S
C214 H229 0.929 . S
C215 C214 1.362 . S
C215 C216 1.366 . S
C216 C213 1.365 . S
C216 C215 1.366 . S
C216 H230 0.930 . S
C217 C214 1.378 . S
C217 N218 1.315 . S
C217 H220 0.930 . S
N218 Co198 2.194 . S
N218 C213 1.328 . S
N218 C217 1.315 . S
H219 C213 0.929 . S
H220 C217 0.930 . S
H221 C209 0.929 . S
H222 C211 0.929 . S
O223 Co198 2.351 . S
O223 C226 1.244 . S
O224 Co198 2.155 . S
O224 C226 1.240 . S
O225 Co198 2.096 . S
O225 C206 1.247 . S
C226 O223 1.244 . S
C226 O224 1.240 . S
H227 C201 0.931 . S
H228 C210 0.931 1_556 S
H229 C214 0.929 . S
H230 C216 0.930 . S
Co231 N235 2.148 . S
Co231 N241 2.128 . S
Co231 N251 2.194 . S
Co231 O256 2.351 . S
Co231 O257 2.155 . S
Co231 O258 2.096 . S
C232 N235 1.301 . S
C232 N236 1.328 . S
C232 H237 0.930 . S
C233 C234 1.333 . S
C233 N235 1.317 . S
C233 H238 0.930 . S
C234 C233 1.333 . S
C234 N236 1.350 . S
C234 H260 0.931 . S
N235 Co231 2.148 . S
N235 C232 1.301 . S
N235 C233 1.317 . S
N236 C232 1.328 . S
N236 C234 1.350 . S
H237 C232 0.930 . S
H238 C233 0.930 . S
C239 O240 1.224 . S
C239 O258 1.247 . S
O240 C239 1.224 . S
N241 Co231 2.128 . S
N241 C242 1.355 . S
N241 C244 1.311 . S
C242 N241 1.355 . S
C242 C243 1.363 . S
C242 H254 0.929 . S
C243 C242 1.363 . S
C243 N245 1.375 . S
C243 H261 0.931 . S
C244 N241 1.311 . S
C244 N245 1.347 . S
C244 H255 0.929 . S
N245 C243 1.375 . S
N245 C244 1.347 . S
C246 C249 1.365 . S
C246 N251 1.328 . S
C246 H252 0.929 . S
C247 C248 1.362 . S
C247 C250 1.378 . S
C247 H262 0.929 . S
C248 C247 1.362 . S
C248 C249 1.366 . S
C249 C246 1.365 . S
C249 C248 1.366 . S
C249 H263 0.930 . S
C250 C247 1.378 . S
C250 N251 1.315 . S
C250 H253 0.930 . S
N251 Co231 2.194 . S
N251 C246 1.328 . S
N251 C250 1.315 . S
H252 C246 0.929 . S
H253 C250 0.930 . S
H254 C242 0.929 . S
H255 C244 0.929 . S
O256 Co231 2.351 . S
O256 C259 1.244 . S
O257 Co231 2.155 . S
O257 C259 1.240 . S
O258 Co231 2.096 . S
O258 C239 1.247 . S
C259 O256 1.244 . S
C259 O257 1.240 . S
H260 C234 0.931 . S
H261 C243 0.931 . S
H262 C247 0.929 . S
H263 C249 0.930 . S
H264 C272 0.929 . S
H265 C274 0.930 . S
H266 C276 0.930 . S
H267 C279 0.929 . S
H268 C282 0.930 . S
H269 C284 0.960 . S
H270 C284 0.960 . S
H271 C284 0.960 . S
C272 H264 0.929 . S
C272 C273 1.377 . S
C272 C274 1.384 . S
C273 C272 1.377 . S
C273 C279 1.390 . S
C274 H265 0.930 . S
C274 C272 1.384 . S
C274 C275 1.372 . S
C275 C274 1.372 . S
C275 C276 1.400 . S
C275 C280 1.490 . S
C276 H266 0.930 . S
C276 C275 1.400 . S
C276 C279 1.386 . S
H277 C293 0.930 . S
H278 C294 0.931 . S
C279 H267 0.929 . S
C279 C273 1.390 . S
C279 C276 1.386 . S
C280 C275 1.490 . S
C280 C282 1.395 1_565 S
C280 C283 1.403 . S
H281 C287 0.932 . S
C282 H268 0.930 . S
C282 C280 1.395 1_545 S
C282 C285 1.403 . S
C283 C280 1.403 . S
C283 C284 1.524 . S
C283 C287 1.400 1_565 S
C284 H269 0.960 . S
C284 H270 0.960 . S
C284 H271 0.960 . S
C284 C283 1.524 . S
C285 C282 1.403 . S
C285 C286 1.392 . S
C285 C289 1.495 . S
C286 C285 1.392 . S
C286 C287 1.385 . S
C286 C288 1.478 . S
C287 H281 0.932 . S
C287 C283 1.400 1_545 S
C287 C286 1.385 . S
C288 C286 1.478 . S
C288 C290 1.381 . S
C288 C294 1.383 . S
C289 C285 1.495 . S
C289 H295 0.959 . S
C289 H296 0.961 . S
C289 H297 0.960 . S
C290 C288 1.381 . S
C290 C291 1.394 . S
C290 H298 0.930 . S
C291 C290 1.394 . S
C291 C292 1.383 . S
C291 H299 0.929 . S
C292 C291 1.383 . S
C292 C293 1.377 . S
C293 H277 0.930 . S
C293 C292 1.377 . S
C293 C294 1.379 . S
C294 H278 0.931 . S
C294 C288 1.383 . S
C294 C293 1.379 . S
H295 C289 0.959 . S
H296 C289 0.961 . S
H297 C289 0.960 . S
H298 C290 0.930 . S
H299 C291 0.929 . S
H300 C308 0.929 . S
H301 C310 0.930 . S
H302 C312 0.930 . S
H303 C315 0.929 . S
H304 C318 0.930 . S
H305 C320 0.960 . S
H306 C320 0.960 . S
H307 C320 0.960 . S
C308 H300 0.929 . S
C308 C309 1.377 . S
C308 C310 1.384 . S
C309 C308 1.377 . S
C309 C315 1.390 . S
C310 H301 0.930 . S
C310 C308 1.384 . S
C310 C311 1.372 . S
C311 C310 1.372 . S
C311 C312 1.400 . S
C311 C316 1.490 . S
C312 H302 0.930 . S
C312 C311 1.400 . S
C312 C315 1.386 . S
H313 C329 0.930 . S
H314 C330 0.931 . S
C315 H303 0.929 . S
C315 C309 1.390 . S
C315 C312 1.386 . S
C316 C311 1.490 . S
C316 C318 1.395 . S
C316 C319 1.403 1_554 S
H317 C323 0.930 . S
C318 H304 0.930 . S
C318 C316 1.395 . S
C318 C321 1.403 . S
C319 C316 1.403 1_556 S
C319 C320 1.524 . S
C319 C323 1.400 . S
C320 H305 0.960 . S
C320 H306 0.960 . S
C320 H307 0.960 . S
C320 C319 1.524 . S
C321 C318 1.403 . S
C321 C322 1.392 1_554 S
C321 C325 1.495 . S
C322 C321 1.392 1_556 S
C322 C323 1.385 . S
C322 C324 1.478 . S
C323 H317 0.930 . S
C323 C319 1.400 . S
C323 C322 1.385 . S
C324 C322 1.478 . S
C324 C326 1.381 . S
C324 C330 1.383 . S
C325 C321 1.495 . S
C325 H331 0.959 . S
C325 H332 0.961 . S
C325 H333 0.960 . S
C326 C324 1.381 . S
C326 C327 1.394 . S
C326 H334 0.930 . S
C327 C326 1.394 . S
C327 C328 1.383 . S
C327 H335 0.929 . S
C328 C327 1.383 . S
C328 C329 1.377 . S
C329 H313 0.930 . S
C329 C328 1.377 . S
C329 C330 1.379 . S
C330 H314 0.931 . S
C330 C324 1.383 . S
C330 C329 1.379 . S
H331 C325 0.959 . S
H332 C325 0.961 . S
H333 C325 0.960 . S
H334 C326 0.930 . S
H335 C327 0.929 . S
H336 C344 0.929 . S
H337 C346 0.930 . S
H338 C348 0.930 . S
H339 C351 0.929 . S
H340 C354 0.930 . S
H341 C356 0.960 . S
H342 C356 0.960 . S
H343 C356 0.960 . S
C344 H336 0.929 . S
C344 C345 1.377 . S
C344 C346 1.384 . S
C345 C344 1.377 . S
C345 C351 1.390 . S
C346 H337 0.930 . S
C346 C344 1.384 . S
C346 C347 1.372 . S
C347 C346 1.372 . S
C347 C348 1.400 . S
C347 C352 1.490 . S
C348 H338 0.930 . S
C348 C347 1.400 . S
C348 C351 1.386 . S
H349 C365 0.930 . S
H350 C366 0.931 . S
C351 H339 0.929 . S
C351 C345 1.390 . S
C351 C348 1.386 . S
C352 C347 1.490 . S
C352 C354 1.395 1_655 S
C352 C355 1.403 . S
H353 C359 0.930 . S
C354 H340 0.930 . S
C354 C352 1.395 1_455 S
C354 C357 1.403 . S
C355 C352 1.403 . S
C355 C356 1.524 . S
C355 C359 1.400 . S
C356 H341 0.960 . S
C356 H342 0.960 . S
C356 H343 0.960 . S
C356 C355 1.524 . S
C357 C354 1.403 . S
C357 C358 1.392 . S
C357 C361 1.495 . S
C358 C357 1.392 . S
C358 C359 1.385 1_455 S
C358 C360 1.478 . S
C359 H353 0.930 . S
C359 C355 1.400 . S
C359 C358 1.385 1_655 S
C360 C358 1.478 . S
C360 C362 1.381 . S
C360 C366 1.383 . S
C361 C357 1.495 . S
C361 H367 0.959 . S
C361 H368 0.961 . S
C361 H369 0.960 . S
C362 C360 1.381 . S
C362 C363 1.394 . S
C362 H370 0.930 . S
C363 C362 1.394 . S
C363 C364 1.383 . S
C363 H371 0.929 . S
C364 C363 1.383 . S
C364 C365 1.377 . S
C365 H349 0.930 . S
C365 C364 1.377 . S
C365 C366 1.379 . S
C366 H350 0.931 . S
C366 C360 1.383 . S
C366 C365 1.379 . S
H367 C361 0.959 . S
H368 C361 0.961 . S
H369 C361 0.960 . S
H370 C362 0.930 . S
H371 C363 0.929 . S
H372 C380 0.929 . S
H373 C382 0.930 . S
H374 C384 0.930 . S
H375 C387 0.929 . S
H376 C390 0.930 . S
H377 C392 0.960 . S
H378 C392 0.960 . S
H379 C392 0.960 . S
C380 H372 0.929 . S
C380 C381 1.377 . S
C380 C382 1.384 . S
C381 C380 1.377 . S
C381 C387 1.390 . S
C382 H373 0.930 . S
C382 C380 1.384 . S
C382 C383 1.372 . S
C383 C382 1.372 . S
C383 C384 1.400 . S
C383 C388 1.490 . S
C384 H374 0.930 . S
C384 C383 1.400 . S
C384 C387 1.386 . S
H385 C401 0.930 . S
H386 C402 0.931 . S
C387 H375 0.929 . S
C387 C381 1.390 . S
C387 C384 1.386 . S
C388 C383 1.490 . S
C388 C390 1.395 1_655 S
C388 C391 1.403 1_554 S
H389 C395 0.930 . S
C390 H376 0.930 . S
C390 C388 1.395 1_455 S
C390 C393 1.403 1_545 S
C391 C388 1.403 1_556 S
C391 C392 1.524 . S
C391 C395 1.401 1_545 S
C392 H377 0.960 . S
C392 H378 0.960 . S
C392 H379 0.960 . S
C392 C391 1.524 . S
C393 C390 1.403 1_565 S
C393 C394 1.392 1_554 S
C393 C397 1.495 . S
C394 C393 1.392 1_556 S
C394 C395 1.384 1_455 S
C394 C396 1.478 . S
C395 H389 0.930 . S
C395 C391 1.401 1_565 S
C395 C394 1.384 1_655 S
C396 C394 1.478 . S
C396 C398 1.381 . S
C396 C402 1.383 . S
C397 C393 1.495 . S
C397 H403 0.959 . S
C397 H404 0.961 . S
C397 H405 0.960 . S
C398 C396 1.381 . S
C398 C399 1.394 . S
C398 H406 0.930 . S
C399 C398 1.394 . S
C399 C400 1.383 . S
C399 H407 0.929 . S
C400 C399 1.383 . S
C400 C401 1.377 . S
C401 H385 0.930 . S
C401 C400 1.377 . S
C401 C402 1.379 . S
C402 H386 0.931 . S
C402 C396 1.383 . S
C402 C401 1.379 . S
H403 C397 0.959 . S
H404 C397 0.961 . S
H405 C397 0.960 . S
H406 C398 0.930 . S
H407 C399 0.929 . S
H408 C416 0.929 . S
H409 C418 0.930 . S
H410 C420 0.930 . S
H411 C423 0.929 . S
H412 C426 0.930 . S
H413 C428 0.960 . S
H414 C428 0.960 . S
H415 C428 0.960 . S
C416 H408 0.929 . S
C416 C417 1.377 . S
C416 C418 1.384 . S
C417 C416 1.377 . S
C417 C423 1.390 . S
C418 H409 0.930 . S
C418 C416 1.384 . S
C418 C419 1.372 . S
C419 C418 1.372 . S
C419 C420 1.400 . S
C419 C424 1.490 . S
C420 H410 0.930 . S
C420 C419 1.400 . S
C420 C423 1.386 . S
H421 C437 0.930 . S
H422 C438 0.931 . S
C423 H411 0.929 . S
C423 C417 1.390 . S
C423 C420 1.386 . S
C424 C419 1.490 . S
C424 C426 1.395 . S
C424 C427 1.403 . S
H425 C431 0.930 . S
C426 H412 0.930 . S
C426 C424 1.395 . S
C426 C429 1.403 . S
C427 C424 1.403 . S
C427 C428 1.524 . S
C427 C431 1.400 . S
C428 H413 0.960 . S
C428 H414 0.960 . S
C428 H415 0.960 . S
C428 C427 1.524 . S
C429 C426 1.403 . S
C429 C430 1.392 . S
C429 C433 1.495 . S
C430 C429 1.392 . S
C430 C431 1.385 . S
C430 C432 1.478 . S
C431 H425 0.930 . S
C431 C427 1.400 . S
C431 C430 1.385 . S
C432 C430 1.478 . S
C432 C434 1.381 . S
C432 C438 1.383 . S
C433 C429 1.495 . S
C433 H439 0.959 . S
C433 H440 0.961 . S
C433 H441 0.960 . S
C434 C432 1.381 . S
C434 C435 1.394 . S
C434 H442 0.930 . S
C435 C434 1.394 . S
C435 C436 1.383 . S
C435 H443 0.929 . S
C436 C435 1.383 . S
C436 C437 1.377 . S
C437 H421 0.930 . S
C437 C436 1.377 . S
C437 C438 1.379 . S
C438 H422 0.931 . S
C438 C432 1.383 . S
C438 C437 1.379 . S
H439 C433 0.959 . S
H440 C433 0.961 . S
H441 C433 0.960 . S
H442 C434 0.930 . S
H443 C435 0.929 . S
H444 C452 0.929 . S
H445 C454 0.930 . S
H446 C456 0.930 . S
H447 C459 0.929 . S
H448 C462 0.930 . S
H449 C464 0.960 . S
H450 C464 0.960 . S
H451 C464 0.960 . S
C452 H444 0.929 . S
C452 C453 1.377 . S
C452 C454 1.384 . S
C453 C452 1.377 . S
C453 C459 1.390 . S
C454 H445 0.930 . S
C454 C452 1.384 . S
C454 C455 1.372 . S
C455 C454 1.372 . S
C455 C456 1.400 . S
C455 C460 1.490 . S
C456 H446 0.930 . S
C456 C455 1.400 . S
C456 C459 1.386 . S
H457 C473 0.930 . S
H458 C474 0.931 . S
C459 H447 0.929 . S
C459 C453 1.390 . S
C459 C456 1.386 . S
C460 C455 1.490 . S
C460 C462 1.395 . S
C460 C463 1.403 . S
H461 C467 0.930 . S
C462 H448 0.930 . S
C462 C460 1.395 . S
C462 C465 1.403 . S
C463 C460 1.403 . S
C463 C464 1.524 . S
C463 C467 1.400 . S
C464 H449 0.960 . S
C464 H450 0.960 . S
C464 H451 0.960 . S
C464 C463 1.524 . S
C465 C462 1.403 . S
C465 C466 1.392 . S
C465 C469 1.495 . S
C466 C465 1.392 . S
C466 C467 1.385 . S
C466 C468 1.478 . S
C467 H461 0.930 . S
C467 C463 1.400 . S
C467 C466 1.385 . S
C468 C466 1.478 . S
C468 C470 1.381 . S
C468 C474 1.383 . S
C469 C465 1.495 . S
C469 H475 0.959 . S
C469 H476 0.961 . S
C469 H477 0.960 . S
C470 C468 1.381 . S
C470 C471 1.394 . S
C470 H478 0.930 . S
C471 C470 1.394 . S
C471 C472 1.383 . S
C471 H479 0.929 . S
C472 C471 1.383 . S
C472 C473 1.377 . S
C473 H457 0.930 . S
C473 C472 1.377 . S
C473 C474 1.379 . S
C474 H458 0.931 . S
C474 C468 1.383 . S
C474 C473 1.379 . S
H475 C469 0.959 . S
H476 C469 0.961 . S
H477 C469 0.960 . S
H478 C470 0.930 . S
H479 C471 0.929 . S
H480 C488 0.929 . S
H481 C490 0.930 . S
H482 C492 0.930 . S
H483 C495 0.929 . S
H484 C498 0.930 . S
H485 C500 0.960 . S
H486 C500 0.960 . S
H487 C500 0.960 . S
C488 H480 0.929 . S
C488 C489 1.377 . S
C488 C490 1.384 . S
C489 C488 1.377 . S
C489 C495 1.390 . S
C490 H481 0.930 . S
C490 C488 1.384 . S
C490 C491 1.372 . S
C491 C490 1.372 . S
C491 C492 1.400 . S
C491 C496 1.490 . S
C492 H482 0.930 . S
C492 C491 1.400 . S
C492 C495 1.386 . S
H493 C509 0.930 . S
H494 C510 0.931 . S
C495 H483 0.929 . S
C495 C489 1.390 . S
C495 C492 1.386 . S
C496 C491 1.490 . S
C496 C498 1.395 . S
C496 C499 1.403 . S
H497 C503 0.930 . S
C498 H484 0.930 . S
C498 C496 1.395 . S
C498 C501 1.403 . S
C499 C496 1.403 . S
C499 C500 1.524 . S
C499 C503 1.400 . S
C500 H485 0.960 . S
C500 H486 0.960 . S
C500 H487 0.960 . S
C500 C499 1.524 . S
C501 C498 1.403 . S
C501 C502 1.392 . S
C501 C505 1.495 . S
C502 C501 1.392 . S
C502 C503 1.385 . S
C502 C504 1.478 . S
C503 H497 0.930 . S
C503 C499 1.400 . S
C503 C502 1.385 . S
C504 C502 1.478 . S
C504 C506 1.381 . S
C504 C510 1.383 . S
C505 C501 1.495 . S
C505 H511 0.959 . S
C505 H512 0.961 . S
C505 H513 0.960 . S
C506 C504 1.381 . S
C506 C507 1.394 . S
C506 H514 0.930 . S
C507 C506 1.394 . S
C507 C508 1.383 . S
C507 H515 0.929 . S
C508 C507 1.383 . S
C508 C509 1.377 . S
C509 H493 0.930 . S
C509 C508 1.377 . S
C509 C510 1.379 . S
C510 H494 0.931 . S
C510 C504 1.383 . S
C510 C509 1.379 . S
H511 C505 0.959 . S
H512 C505 0.961 . S
H513 C505 0.960 . S
H514 C506 0.930 . S
H515 C507 0.929 . S
H516 C524 0.929 . S
H517 C526 0.930 . S
H518 C528 0.930 . S
H519 C531 0.929 . S
H520 C534 0.930 . S
H521 C536 0.960 . S
H522 C536 0.960 . S
H523 C536 0.960 . S
C524 H516 0.929 . S
C524 C525 1.377 . S
C524 C526 1.384 . S
C525 C524 1.377 . S
C525 C531 1.390 . S
C526 H517 0.930 . S
C526 C524 1.384 . S
C526 C527 1.372 . S
C527 C526 1.372 . S
C527 C528 1.400 . S
C527 C532 1.490 . S
C528 H518 0.930 . S
C528 C527 1.400 . S
C528 C531 1.386 . S
H529 C545 0.930 . S
H530 C546 0.931 . S
C531 H519 0.929 . S
C531 C525 1.390 . S
C531 C528 1.386 . S
C532 C527 1.490 . S
C532 C534 1.395 . S
C532 C535 1.403 . S
H533 C539 0.930 . S
C534 H520 0.930 . S
C534 C532 1.395 . S
C534 C537 1.403 . S
C535 C532 1.403 . S
C535 C536 1.524 . S
C535 C539 1.400 . S
C536 H521 0.960 . S
C536 H522 0.960 . S
C536 H523 0.960 . S
C536 C535 1.524 . S
C537 C534 1.403 . S
C537 C538 1.392 . S
C537 C541 1.495 . S
C538 C537 1.392 . S
C538 C539 1.385 . S
C538 C540 1.478 . S
C539 H533 0.930 . S
C539 C535 1.400 . S
C539 C538 1.385 . S
C540 C538 1.478 . S
C540 C542 1.381 . S
C540 C546 1.383 . S
C541 C537 1.495 . S
C541 H547 0.959 . S
C541 H548 0.961 . S
C541 H549 0.960 . S
C542 C540 1.381 . S
C542 C543 1.394 . S
C542 H550 0.930 . S
C543 C542 1.394 . S
C543 C544 1.383 . S
C543 H551 0.929 . S
C544 C543 1.383 . S
C544 C545 1.377 . S
C545 H529 0.930 . S
C545 C544 1.377 . S
C545 C546 1.379 . S
C546 H530 0.931 . S
C546 C540 1.383 . S
C546 C545 1.379 . S
H547 C541 0.959 . S
H548 C541 0.961 . S
H549 C541 0.960 . S
H550 C542 0.930 . S
H551 C543 0.929 . S
H552 C560 0.929 . S
H553 C562 0.930 . S
H554 C564 0.930 . S
H555 C567 0.929 . S
H556 C570 0.930 . S
H557 C572 0.960 . S
H558 C572 0.960 . S
H559 C572 0.960 . S
C560 H552 0.929 . S
C560 C561 1.377 . S
C560 C562 1.384 . S
C561 C560 1.377 . S
C561 C567 1.390 . S
C562 H553 0.930 . S
C562 C560 1.384 . S
C562 C563 1.372 . S
C563 C562 1.372 . S
C563 C564 1.400 . S
C563 C568 1.490 . S
C564 H554 0.930 . S
C564 C563 1.400 . S
C564 C567 1.386 . S
H565 C581 0.930 . S
H566 C582 0.931 . S
C567 H555 0.929 . S
C567 C561 1.390 . S
C567 C564 1.386 . S
C568 C563 1.490 . S
C568 C570 1.395 . S
C568 C571 1.403 . S
H569 C575 0.930 . S
C570 H556 0.930 . S
C570 C568 1.395 . S
C570 C573 1.403 . S
C571 C568 1.403 . S
C571 C572 1.524 . S
C571 C575 1.400 . S
C572 H557 0.960 . S
C572 H558 0.960 . S
C572 H559 0.960 . S
C572 C571 1.524 . S
C573 C570 1.403 . S
C573 C574 1.392 . S
C573 C577 1.495 . S
C574 C573 1.392 . S
C574 C575 1.385 . S
C574 C576 1.478 . S
C575 H569 0.930 . S
C575 C571 1.400 . S
C575 C574 1.385 . S
C576 C574 1.478 . S
C576 C578 1.381 . S
C576 C582 1.383 . S
C577 C573 1.495 . S
C577 H583 0.959 . S
C577 H584 0.961 . S
C577 H585 0.960 . S
C578 C576 1.381 . S
C578 C579 1.394 . S
C578 H586 0.930 . S
C579 C578 1.394 . S
C579 C580 1.383 . S
C579 H587 0.929 . S
C580 C579 1.383 . S
C580 C581 1.377 . S
C581 H565 0.930 . S
C581 C580 1.377 . S
C581 C582 1.379 . S
C582 H566 0.931 . S
C582 C576 1.383 . S
C582 C581 1.379 . S
H583 C577 0.959 . S
H584 C577 0.961 . S
H585 C577 0.960 . S
H586 C578 0.930 . S
H587 C579 0.929 . S
H588 C596 0.929 . S
H589 C598 0.930 . S
H590 C600 0.930 . S
H591 C603 0.929 . S
H592 C606 0.930 . S
H593 C608 0.960 . S
H594 C608 0.960 . S
H595 C608 0.960 . S
C596 H588 0.929 . S
C596 C597 1.377 . S
C596 C598 1.384 . S
C597 C596 1.377 . S
C597 C603 1.390 . S
C598 H589 0.930 . S
C598 C596 1.384 . S
C598 C599 1.372 . S
C599 C598 1.372 . S
C599 C600 1.400 . S
C599 C604 1.490 . S
C600 H590 0.930 . S
C600 C599 1.400 . S
C600 C603 1.386 . S
H601 C617 0.930 . S
H602 C618 0.931 . S
C603 H591 0.929 . S
C603 C597 1.390 . S
C603 C600 1.386 . S
C604 C599 1.490 . S
C604 C606 1.395 . S
C604 C607 1.403 . S
H605 C611 0.930 . S
C606 H592 0.930 . S
C606 C604 1.395 . S
C606 C609 1.403 . S
C607 C604 1.403 . S
C607 C608 1.524 . S
C607 C611 1.400 . S
C608 H593 0.960 . S
C608 H594 0.960 . S
C608 H595 0.960 . S
C608 C607 1.524 . S
C609 C606 1.403 . S
C609 C610 1.392 . S
C609 C613 1.495 . S
C610 C609 1.392 . S
C610 C611 1.385 . S
C610 C612 1.478 . S
C611 H605 0.930 . S
C611 C607 1.400 . S
C611 C610 1.385 . S
C612 C610 1.478 . S
C612 C614 1.381 . S
C612 C618 1.383 . S
C613 C609 1.495 . S
C613 H619 0.959 . S
C613 H620 0.961 . S
C613 H621 0.960 . S
C614 C612 1.381 . S
C614 C615 1.394 . S
C614 H622 0.930 . S
C615 C614 1.394 . S
C615 C616 1.383 . S
C615 H623 0.929 . S
C616 C615 1.383 . S
C616 C617 1.377 . S
C617 H601 0.930 . S
C617 C616 1.377 . S
C617 C618 1.379 . S
C618 H602 0.931 . S
C618 C612 1.383 . S
C618 C617 1.379 . S
H619 C613 0.959 . S
H620 C613 0.961 . S
H621 C613 0.960 . S
H622 C614 0.930 . S
H623 C615 0.929 . S
H624 C632 0.929 . S
H625 C634 0.930 . S
H626 C636 0.930 . S
H627 C639 0.929 . S
H628 C642 0.930 . S
H629 C644 0.960 . S
H630 C644 0.960 . S
H631 C644 0.960 . S
C632 H624 0.929 . S
C632 C633 1.377 . S
C632 C634 1.384 . S
C633 C632 1.377 . S
C633 C639 1.390 . S
C634 H625 0.930 . S
C634 C632 1.384 . S
C634 C635 1.372 . S
C635 C634 1.372 . S
C635 C636 1.400 . S
C635 C640 1.490 . S
C636 H626 0.930 . S
C636 C635 1.400 . S
C636 C639 1.386 . S
H637 C653 0.930 . S
H638 C654 0.931 . S
C639 H627 0.929 . S
C639 C633 1.390 . S
C639 C636 1.386 . S
C640 C635 1.490 . S
C640 C642 1.395 . S
C640 C643 1.403 . S
H641 C647 0.930 . S
C642 H628 0.930 . S
C642 C640 1.395 . S
C642 C645 1.403 . S
C643 C640 1.403 . S
C643 C644 1.524 . S
C643 C647 1.400 . S
C644 H629 0.960 . S
C644 H630 0.960 . S
C644 H631 0.960 . S
C644 C643 1.524 . S
C645 C642 1.403 . S
C645 C646 1.392 . S
C645 C649 1.495 . S
C646 C645 1.392 . S
C646 C647 1.385 . S
C646 C648 1.478 . S
C647 H641 0.930 . S
C647 C643 1.400 . S
C647 C646 1.385 . S
C648 C646 1.478 . S
C648 C650 1.381 . S
C648 C654 1.383 . S
C649 C645 1.495 . S
C649 H655 0.959 . S
C649 H656 0.961 . S
C649 H657 0.960 . S
C650 C648 1.381 . S
C650 C651 1.394 . S
C650 H658 0.930 . S
C651 C650 1.394 . S
C651 C652 1.383 . S
C651 H659 0.929 . S
C652 C651 1.383 . S
C652 C653 1.377 . S
C653 H637 0.930 . S
C653 C652 1.377 . S
C653 C654 1.379 . S
C654 H638 0.931 . S
C654 C648 1.383 . S
C654 C653 1.379 . S
H655 C649 0.959 . S
H656 C649 0.961 . S
H657 C649 0.960 . S
H658 C650 0.930 . S
H659 C651 0.929 . S
H660 C668 0.929 . S
H661 C670 0.930 . S
H662 C672 0.930 . S
H663 C675 0.929 . S
H664 C678 0.930 . S
H665 C680 0.960 . S
H666 C680 0.960 . S
H667 C680 0.960 . S
C668 H660 0.929 . S
C668 C669 1.377 . S
C668 C670 1.384 . S
C669 C668 1.377 . S
C669 C675 1.390 . S
C670 H661 0.930 . S
C670 C668 1.384 . S
C670 C671 1.372 . S
C671 C670 1.372 . S
C671 C672 1.400 . S
C671 C676 1.490 . S
C672 H662 0.930 . S
C672 C671 1.400 . S
C672 C675 1.386 . S
H673 C689 0.930 . S
H674 C690 0.931 . S
C675 H663 0.929 . S
C675 C669 1.390 . S
C675 C672 1.386 . S
C676 C671 1.490 . S
C676 C678 1.395 . S
C676 C679 1.403 . S
H677 C683 0.930 . S
C678 H664 0.930 . S
C678 C676 1.395 . S
C678 C681 1.403 . S
C679 C676 1.403 . S
C679 C680 1.524 . S
C679 C683 1.400 . S
C680 H665 0.960 . S
C680 H666 0.960 . S
C680 H667 0.960 . S
C680 C679 1.524 . S
C681 C678 1.403 . S
C681 C682 1.392 . S
C681 C685 1.495 . S
C682 C681 1.392 . S
C682 C683 1.385 . S
C682 C684 1.478 . S
C683 H677 0.930 . S
C683 C679 1.400 . S
C683 C682 1.385 . S
C684 C682 1.478 . S
C684 C686 1.381 . S
C684 C690 1.383 . S
C685 C681 1.495 . S
C685 H691 0.959 . S
C685 H692 0.961 . S
C685 H693 0.960 . S
C686 C684 1.381 . S
C686 C687 1.394 . S
C686 H694 0.930 . S
C687 C686 1.394 . S
C687 C688 1.383 . S
C687 H695 0.929 . S
C688 C687 1.383 . S
C688 C689 1.377 . S
C689 H673 0.930 . S
C689 C688 1.377 . S
C689 C690 1.379 . S
C690 H674 0.931 . S
C690 C684 1.383 . S
C690 C689 1.379 . S
H691 C685 0.959 . S
H692 C685 0.961 . S
H693 C685 0.960 . S
H694 C686 0.930 . S
H695 C687 0.929 . S
H696 C704 0.929 . S
H697 C706 0.930 . S
H698 C708 0.930 . S
H699 C711 0.929 . S
H700 C714 0.930 . S
H701 C716 0.960 . S
H702 C716 0.960 . S
H703 C716 0.960 . S
C704 H696 0.929 . S
C704 C705 1.377 . S
C704 C706 1.384 . S
C705 C704 1.377 . S
C705 C711 1.390 . S
C706 H697 0.930 . S
C706 C704 1.384 . S
C706 C707 1.372 . S
C707 C706 1.372 . S
C707 C708 1.400 . S
C707 C712 1.490 . S
C708 H698 0.930 . S
C708 C707 1.400 . S
C708 C711 1.386 . S
H709 C725 0.930 . S
H710 C726 0.931 . S
C711 H699 0.929 . S
C711 C705 1.390 . S
C711 C708 1.386 . S
C712 C707 1.490 . S
C712 C714 1.395 . S
C712 C715 1.403 . S
H713 C719 0.930 . S
C714 H700 0.930 . S
C714 C712 1.395 . S
C714 C717 1.403 . S
C715 C712 1.403 . S
C715 C716 1.524 . S
C715 C719 1.400 . S
C716 H701 0.960 . S
C716 H702 0.960 . S
C716 H703 0.960 . S
C716 C715 1.524 . S
C717 C714 1.403 . S
C717 C718 1.392 . S
C717 C721 1.495 . S
C718 C717 1.392 . S
C718 C719 1.385 . S
C718 C720 1.478 . S
C719 H713 0.930 . S
C719 C715 1.400 . S
C719 C718 1.385 . S
C720 C718 1.478 . S
C720 C722 1.381 . S
C720 C726 1.383 . S
C721 C717 1.495 . S
C721 H727 0.959 . S
C721 H728 0.961 . S
C721 H729 0.960 . S
C722 C720 1.381 . S
C722 C723 1.394 1_556 S
C722 H730 0.930 . S
C723 C722 1.394 1_554 S
C723 C724 1.383 . S
C723 H731 0.929 . S
C724 C723 1.383 . S
C724 C725 1.377 . S
C725 H709 0.930 . S
C725 C724 1.377 . S
C725 C726 1.379 1_554 S
C726 H710 0.931 . S
C726 C720 1.383 . S
C726 C725 1.379 1_556 S
H727 C721 0.959 . S
H728 C721 0.961 . S
H729 C721 0.960 . S
H730 C722 0.930 . S
H731 C723 0.929 . S
H732 C740 0.929 . S
H733 C742 0.930 . S
H734 C744 0.930 . S
H735 C747 0.929 . S
H736 C750 0.930 . S
H737 C752 0.960 . S
H738 C752 0.960 . S
H739 C752 0.960 . S
C740 H732 0.929 . S
C740 C741 1.377 . S
C740 C742 1.384 . S
C741 C740 1.377 . S
C741 C747 1.390 . S
C742 H733 0.930 . S
C742 C740 1.384 . S
C742 C743 1.372 . S
C743 C742 1.372 . S
C743 C744 1.400 . S
C743 C748 1.490 . S
C744 H734 0.930 . S
C744 C743 1.400 . S
C744 C747 1.386 . S
H745 C761 0.930 . S
H746 C762 0.931 . S
C747 H735 0.929 . S
C747 C741 1.390 . S
C747 C744 1.386 . S
C748 C743 1.490 . S
C748 C750 1.395 . S
C748 C751 1.403 . S
H749 C755 0.930 . S
C750 H736 0.930 . S
C750 C748 1.395 . S
C750 C753 1.403 . S
C751 C748 1.403 . S
C751 C752 1.524 . S
C751 C755 1.400 . S
C752 H737 0.960 . S
C752 H738 0.960 . S
C752 H739 0.960 . S
C752 C751 1.524 . S
C753 C750 1.403 . S
C753 C754 1.392 . S
C753 C757 1.495 . S
C754 C753 1.392 . S
C754 C755 1.385 . S
C754 C756 1.478 . S
C755 H749 0.930 . S
C755 C751 1.400 . S
C755 C754 1.385 . S
C756 C754 1.478 . S
C756 C758 1.381 . S
C756 C762 1.383 . S
C757 C753 1.495 . S
C757 H763 0.959 . S
C757 H764 0.961 . S
C757 H765 0.960 . S
C758 C756 1.381 . S
C758 C759 1.394 . S
C758 H766 0.930 . S
C759 C758 1.394 . S
C759 C760 1.383 . S
C759 H767 0.929 . S
C760 C759 1.383 . S
C760 C761 1.377 . S
C761 H745 0.930 . S
C761 C760 1.377 . S
C761 C762 1.379 . S
C762 H746 0.931 . S
C762 C756 1.383 . S
C762 C761 1.379 . S
H763 C757 0.959 . S
H764 C757 0.961 . S
H765 C757 0.960 . S
H766 C758 0.930 . S
H767 C759 0.929 . S
H768 C776 0.929 . S
H769 C778 0.930 . S
H770 C780 0.930 . S
H771 C783 0.929 . S
H772 C786 0.930 . S
H773 C788 0.960 . S
H774 C788 0.960 . S
H775 C788 0.960 . S
C776 H768 0.929 . S
C776 C777 1.377 . S
C776 C778 1.384 1_554 S
C777 C776 1.377 . S
C777 C783 1.390 . S
C778 H769 0.930 . S
C778 C776 1.384 1_556 S
C778 C779 1.372 . S
C779 C778 1.372 . S
C779 C780 1.400 . S
C779 C784 1.490 . S
C780 H770 0.930 . S
C780 C779 1.400 . S
C780 C783 1.386 1_556 S
H781 C797 0.930 . S
H782 C798 0.931 . S
C783 H771 0.929 . S
C783 C777 1.390 . S
C783 C780 1.386 1_554 S
C784 C779 1.490 . S
C784 C786 1.395 . S
C784 C787 1.403 . S
H785 C791 0.930 . S
C786 H772 0.930 . S
C786 C784 1.395 . S
C786 C789 1.403 . S
C787 C784 1.403 . S
C787 C788 1.524 . S
C787 C791 1.400 . S
C788 H773 0.960 . S
C788 H774 0.960 . S
C788 H775 0.960 . S
C788 C787 1.524 . S
C789 C786 1.403 . S
C789 C790 1.392 . S
C789 C793 1.495 . S
C790 C789 1.392 . S
C790 C791 1.385 . S
C790 C792 1.478 . S
C791 H785 0.930 . S
C791 C787 1.400 . S
C791 C790 1.385 . S
C792 C790 1.478 . S
C792 C794 1.381 . S
C792 C798 1.383 . S
C793 C789 1.495 . S
C793 H799 0.959 . S
C793 H800 0.961 . S
C793 H801 0.960 . S
C794 C792 1.381 . S
C794 C795 1.394 . S
C794 H802 0.930 . S
C795 C794 1.394 . S
C795 C796 1.383 . S
C795 H803 0.929 . S
C796 C795 1.383 . S
C796 C797 1.377 . S
C797 H781 0.930 . S
C797 C796 1.377 . S
C797 C798 1.379 . S
C798 H782 0.931 . S
C798 C792 1.383 . S
C798 C797 1.379 . S
H799 C793 0.959 . S
H800 C793 0.961 . S
H801 C793 0.960 . S
H802 C794 0.930 . S
H803 C795 0.929 . S
H804 C812 0.929 . S
H805 C814 0.930 . S
H806 C816 0.930 . S
H807 C819 0.929 . S
H808 C822 0.930 . S
H809 C824 0.960 . S
H810 C824 0.960 . S
H811 C824 0.960 . S
C812 H804 0.929 . S
C812 C813 1.377 . S
C812 C814 1.384 . S
C813 C812 1.377 . S
C813 C819 1.390 . S
C814 H805 0.930 . S
C814 C812 1.384 . S
C814 C815 1.372 . S
C815 C814 1.372 . S
C815 C816 1.400 . S
C815 C820 1.490 . S
C816 H806 0.930 . S
C816 C815 1.400 . S
C816 C819 1.386 . S
H817 C833 0.930 . S
H818 C834 0.931 . S
C819 H807 0.929 . S
C819 C813 1.390 . S
C819 C816 1.386 . S
C820 C815 1.490 . S
C820 C822 1.395 . S
C820 C823 1.403 . S
H821 C827 0.930 . S
C822 H808 0.930 . S
C822 C820 1.395 . S
C822 C825 1.403 . S
C823 C820 1.403 . S
C823 C824 1.524 . S
C823 C827 1.400 . S
C824 H809 0.960 . S
C824 H810 0.960 . S
C824 H811 0.960 . S
C824 C823 1.524 . S
C825 C822 1.403 . S
C825 C826 1.392 . S
C825 C829 1.495 . S
C826 C825 1.392 . S
C826 C827 1.385 . S
C826 C828 1.478 . S
C827 H821 0.930 . S
C827 C823 1.400 . S
C827 C826 1.385 . S
C828 C826 1.478 . S
C828 C830 1.381 . S
C828 C834 1.383 . S
C829 C825 1.495 . S
C829 H835 0.959 . S
C829 H836 0.961 . S
C829 H837 0.960 . S
C830 C828 1.381 . S
C830 C831 1.394 . S
C830 H838 0.930 . S
C831 C830 1.394 . S
C831 C832 1.383 . S
C831 H839 0.929 . S
C832 C831 1.383 . S
C832 C833 1.377 . S
C833 H817 0.930 . S
C833 C832 1.377 . S
C833 C834 1.379 . S
C834 H818 0.931 . S
C834 C828 1.383 . S
C834 C833 1.379 . S
H835 C829 0.959 . S
H836 C829 0.961 . S
H837 C829 0.960 . S
H838 C830 0.930 . S
H839 C831 0.929 . S
H840 C848 0.929 . S
H841 C850 0.930 . S
H842 C852 0.930 . S
H843 C855 0.929 . S
H844 C858 0.930 . S
H845 C860 0.960 . S
H846 C860 0.960 . S
H847 C860 0.960 . S
C848 H840 0.929 . S
C848 C849 1.377 . S
C848 C850 1.384 . S
C849 C848 1.377 . S
C849 C855 1.390 . S
C850 H841 0.930 . S
C850 C848 1.384 . S
C850 C851 1.372 . S
C851 C850 1.372 . S
C851 C852 1.400 . S
C851 C856 1.490 . S
C852 H842 0.930 . S
C852 C851 1.400 . S
C852 C855 1.386 . S
H853 C869 0.930 . S
H854 C870 0.931 . S
C855 H843 0.929 . S
C855 C849 1.390 . S
C855 C852 1.386 . S
C856 C851 1.490 . S
C856 C858 1.395 . S
C856 C859 1.403 . S
H857 C863 0.930 . S
C858 H844 0.930 . S
C858 C856 1.395 . S
C858 C861 1.403 . S
C859 C856 1.403 . S
C859 C860 1.524 . S
C859 C863 1.400 . S
C860 H845 0.960 . S
C860 H846 0.960 . S
C860 H847 0.960 . S
C860 C859 1.524 . S
C861 C858 1.403 . S
C861 C862 1.392 . S
C861 C865 1.495 . S
C862 C861 1.392 . S
C862 C863 1.385 . S
C862 C864 1.478 . S
C863 H857 0.930 . S
C863 C859 1.400 . S
C863 C862 1.385 . S
C864 C862 1.478 . S
C864 C866 1.381 . S
C864 C870 1.383 . S
C865 C861 1.495 . S
C865 H871 0.959 . S
C865 H872 0.961 . S
C865 H873 0.960 . S
C866 C864 1.381 . S
C866 C867 1.394 . S
C866 H874 0.930 . S
C867 C866 1.394 . S
C867 C868 1.383 . S
C867 H875 0.929 . S
C868 C867 1.383 . S
C868 C869 1.377 . S
C869 H853 0.930 . S
C869 C868 1.377 . S
C869 C870 1.379 . S
C870 H854 0.931 . S
C870 C864 1.383 . S
C870 C869 1.379 . S
H871 C865 0.959 . S
H872 C865 0.961 . S
H873 C865 0.960 . S
H874 C866 0.930 . S
H875 C867 0.929 . S
H876 C884 0.929 . S
H877 C886 0.930 . S
H878 C888 0.930 . S
H879 C891 0.929 . S
H880 C894 0.930 . S
H881 C896 0.960 . S
H882 C896 0.960 . S
H883 C896 0.960 . S
C884 H876 0.929 . S
C884 C885 1.377 . S
C884 C886 1.384 1_556 S
C885 C884 1.377 . S
C885 C891 1.390 . S
C886 H877 0.930 . S
C886 C884 1.384 1_554 S
C886 C887 1.372 . S
C887 C886 1.372 . S
C887 C888 1.400 . S
C887 C892 1.490 . S
C888 H878 0.930 . S
C888 C887 1.400 . S
C888 C891 1.386 1_554 S
H889 C905 0.930 . S
H890 C906 0.931 . S
C891 H879 0.929 . S
C891 C885 1.390 . S
C891 C888 1.386 1_556 S
C892 C887 1.490 . S
C892 C894 1.395 . S
C892 C895 1.403 . S
H893 C899 0.930 . S
C894 H880 0.930 . S
C894 C892 1.395 . S
C894 C897 1.403 . S
C895 C892 1.403 . S
C895 C896 1.524 . S
C895 C899 1.400 . S
C896 H881 0.960 . S
C896 H882 0.960 . S
C896 H883 0.960 . S
C896 C895 1.524 . S
C897 C894 1.403 . S
C897 C898 1.392 . S
C897 C901 1.495 . S
C898 C897 1.392 . S
C898 C899 1.385 . S
C898 C900 1.478 . S
C899 H893 0.930 . S
C899 C895 1.400 . S
C899 C898 1.385 . S
C900 C898 1.478 . S
C900 C902 1.381 . S
C900 C906 1.383 . S
C901 C897 1.495 . S
C901 H907 0.959 . S
C901 H908 0.961 . S
C901 H909 0.960 . S
C902 C900 1.381 . S
C902 C903 1.394 . S
C902 H910 0.930 . S
C903 C902 1.394 . S
C903 C904 1.383 . S
C903 H911 0.929 . S
C904 C903 1.383 . S
C904 C905 1.377 . S
C905 H889 0.930 . S
C905 C904 1.377 . S
C905 C906 1.379 . S
C906 H890 0.931 . S
C906 C900 1.383 . S
C906 C905 1.379 . S
H907 C901 0.959 . S
H908 C901 0.961 . S
H909 C901 0.960 . S
H910 C902 0.930 . S
H911 C903 0.929 . S
H912 C920 0.929 . S
H913 C922 0.930 . S
H914 C924 0.930 . S
H915 C927 0.929 . S
H916 C930 0.930 . S
H917 C932 0.960 . S
H918 C932 0.960 . S
H919 C932 0.960 . S
C920 H912 0.929 . S
C920 C921 1.377 . S
C920 C922 1.384 . S
C921 C920 1.377 . S
C921 C927 1.390 . S
C922 H913 0.930 . S
C922 C920 1.384 . S
C922 C923 1.372 . S
C923 C922 1.372 . S
C923 C924 1.400 . S
C923 C928 1.490 . S
C924 H914 0.930 . S
C924 C923 1.400 . S
C924 C927 1.386 . S
H925 C941 0.930 . S
H926 C942 0.931 . S
C927 H915 0.929 . S
C927 C921 1.390 . S
C927 C924 1.386 . S
C928 C923 1.490 . S
C928 C930 1.395 . S
C928 C931 1.403 . S
H929 C935 0.930 . S
C930 H916 0.930 . S
C930 C928 1.395 . S
C930 C933 1.403 . S
C931 C928 1.403 . S
C931 C932 1.524 . S
C931 C935 1.400 . S
C932 H917 0.960 . S
C932 H918 0.960 . S
C932 H919 0.960 . S
C932 C931 1.524 . S
C933 C930 1.403 . S
C933 C934 1.392 . S
C933 C937 1.495 . S
C934 C933 1.392 . S
C934 C935 1.385 . S
C934 C936 1.478 . S
C935 H929 0.930 . S
C935 C931 1.400 . S
C935 C934 1.385 . S
C936 C934 1.478 . S
C936 C938 1.381 . S
C936 C942 1.383 . S
C937 C933 1.495 . S
C937 H943 0.959 . S
C937 H944 0.961 . S
C937 H945 0.960 . S
C938 C936 1.381 . S
C938 C939 1.394 . S
C938 H946 0.930 . S
C939 C938 1.394 . S
C939 C940 1.383 . S
C939 H947 0.929 . S
C940 C939 1.383 . S
C940 C941 1.377 . S
C941 H925 0.930 . S
C941 C940 1.377 . S
C941 C942 1.379 . S
C942 H926 0.931 . S
C942 C936 1.383 . S
C942 C941 1.379 . S
H943 C937 0.959 . S
H944 C937 0.961 . S
H945 C937 0.960 . S
H946 C938 0.930 . S
H947 C939 0.929 . S
H948 C956 0.929 . S
H949 C958 0.930 . S
H950 C960 0.930 . S
H951 C963 0.929 . S
H952 C966 0.930 . S
H953 C968 0.960 . S
H954 C968 0.960 . S
H955 C968 0.960 . S
C956 H948 0.929 . S
C956 C957 1.377 . S
C956 C958 1.384 . S
C957 C956 1.377 . S
C957 C963 1.390 . S
C958 H949 0.930 . S
C958 C956 1.384 . S
C958 C959 1.372 . S
C959 C958 1.372 . S
C959 C960 1.400 . S
C959 C964 1.490 . S
C960 H950 0.930 . S
C960 C959 1.400 . S
C960 C963 1.386 . S
H961 C977 0.930 . S
H962 C978 0.931 . S
C963 H951 0.929 . S
C963 C957 1.390 . S
C963 C960 1.386 . S
C964 C959 1.490 . S
C964 C966 1.395 . S
C964 C967 1.403 . S
H965 C971 0.930 . S
C966 H952 0.930 . S
C966 C964 1.395 . S
C966 C969 1.403 . S
C967 C964 1.403 . S
C967 C968 1.524 . S
C967 C971 1.400 . S
C968 H953 0.960 . S
C968 H954 0.960 . S
C968 H955 0.960 . S
C968 C967 1.524 . S
C969 C966 1.403 . S
C969 C970 1.392 . S
C969 C973 1.495 . S
C970 C969 1.392 . S
C970 C971 1.385 . S
C970 C972 1.478 . S
C971 H965 0.930 . S
C971 C967 1.400 . S
C971 C970 1.385 . S
C972 C970 1.478 . S
C972 C974 1.381 . S
C972 C978 1.383 . S
C973 C969 1.495 . S
C973 H979 0.959 . S
C973 H980 0.961 . S
C973 H981 0.960 . S
C974 C972 1.381 . S
C974 C975 1.394 1_554 S
C974 H982 0.930 . S
C975 C974 1.394 1_556 S
C975 C976 1.383 . S
C975 H983 0.929 . S
C976 C975 1.383 . S
C976 C977 1.377 . S
C977 H961 0.930 . S
C977 C976 1.377 . S
C977 C978 1.379 1_556 S
C978 H962 0.931 . S
C978 C972 1.383 . S
C978 C977 1.379 1_554 S
H979 C973 0.959 . S
H980 C973 0.961 . S
H981 C973 0.960 . S
H982 C974 0.930 . S
H983 C975 0.929 . S
C273 C239 0.910 . S
C292 C8 0.882 . S
C309 C140 0.908 . S
C328 C41 0.885 . S
C345 C74 0.909 . S
C364 C173 0.883 . S
C381 C206 0.910 . S
C400 C107 0.882 . S
C417 C28 1.419 . S
C436 C160 1.418 . S
C453 C193 1.419 . S
C472 C61 1.424 . S
C489 C226 1.419 . S
C508 C94 1.421 . S
C525 C259 1.414 . S
C544 C127 1.399 . S
C561 C248 1.512 . S
C580 C50 1.518 . S
C597 C83 1.515 . S
C616 C149 1.507 . S
C633 C116 1.515 . S
C652 C182 1.502 . S
C669 C215 1.510 . S
C688 C17 1.496 . S
C705 N14 1.206 . S
C724 N5 1.206 . S
C741 N38 1.214 . S
C760 N47 1.242 . S
C777 N71 1.214 . S
C796 N80 1.191 . S
C813 N113 1.221 . S
C832 N104 1.211 . S
C849 N137 1.210 . S
C868 N146 1.204 . S
C885 N170 1.215 . S
C904 N179 1.200 . S
C921 N203 1.214 . S
C940 N212 1.241 . S
C957 N245 1.213 . S
C976 N236 1.207 . S
