# Generated by pormake.
# Topology wga, (5)-cn, num edge types: 1
# Building blocks:
#     Node 0, Type 0, BuildingBlock: BEQFEK_clean_sbu_0, # of connection points: 5
#     Node 1, Type 0, BuildingBlock: BEQFEK_clean_sbu_0, # of connection points: 5
#     Node 2, Type 0, BuildingBlock: BEQFEK_clean_sbu_0, # of connection points: 5
#     Node 3, Type 0, BuildingBlock: BEQFEK_clean_sbu_0, # of connection points: 5
#     Node 4, Type 0, BuildingBlock: BEQFEK_clean_sbu_0, # of connection points: 5
#     Node 5, Type 0, BuildingBlock: BEQFEK_clean_sbu_0, # of connection points: 5
#     Node 6, Type 0, BuildingBlock: BEQFEK_clean_sbu_0, # of connection points: 5
#     Node 7, Type 0, BuildingBlock: BEQFEK_clean_sbu_0, # of connection points: 5
#     Node 8, Type 0, BuildingBlock: BEQFEK_clean_sbu_0, # of connection points: 5
#     Node 9, Type 0, BuildingBlock: BEQFEK_clean_sbu_0, # of connection points: 5
#     Node 10, Type 0, BuildingBlock: BEQFEK_clean_sbu_0, # of connection points: 5
#     Node 11, Type 0, BuildingBlock: BEQFEK_clean_sbu_0, # of connection points: 5
#     Node 12, Type 0, BuildingBlock: BEQFEK_clean_sbu_0, # of connection points: 5
#     Node 13, Type 0, BuildingBlock: BEQFEK_clean_sbu_0, # of connection points: 5
#     Node 14, Type 0, BuildingBlock: BEQFEK_clean_sbu_0, # of connection points: 5
#     Node 15, Type 0, BuildingBlock: BEQFEK_clean_sbu_0, # of connection points: 5
#     Node 16, Type 0, BuildingBlock: BEQFEK_clean_sbu_0, # of connection points: 5
#     Node 17, Type 0, BuildingBlock: BEQFEK_clean_sbu_0, # of connection points: 5
#     Node 18, Type 0, BuildingBlock: BEQFEK_clean_sbu_0, # of connection points: 5
#     Node 19, Type 0, BuildingBlock: BEQFEK_clean_sbu_0, # of connection points: 5
#     Node 20, Type 0, BuildingBlock: BEQFEK_clean_sbu_0, # of connection points: 5
#     Node 21, Type 0, BuildingBlock: BEQFEK_clean_sbu_0, # of connection points: 5
#     Node 22, Type 0, BuildingBlock: BEQFEK_clean_sbu_0, # of connection points: 5
#     Node 23, Type 0, BuildingBlock: BEQFEK_clean_sbu_0, # of connection points: 5
#     Node 24, Type 0, BuildingBlock: BEQFEK_clean_sbu_0, # of connection points: 5
#     Node 25, Type 0, BuildingBlock: BEQFEK_clean_sbu_0, # of connection points: 5
#     Node 26, Type 0, BuildingBlock: BEQFEK_clean_sbu_0, # of connection points: 5
#     Node 27, Type 0, BuildingBlock: BEQFEK_clean_sbu_0, # of connection points: 5
#     Node 28, Type 0, BuildingBlock: BEQFEK_clean_sbu_0, # of connection points: 5
#     Node 29, Type 0, BuildingBlock: BEQFEK_clean_sbu_0, # of connection points: 5
#     Node 30, Type 0, BuildingBlock: BEQFEK_clean_sbu_0, # of connection points: 5
#     Node 31, Type 0, BuildingBlock: BEQFEK_clean_sbu_0, # of connection points: 5
#     Edge 32, Type (0, 0), BuildingBlock: UVAHIK_clean_linker_0, # of connection points: 2
#     Edge 33, Type (0, 0), BuildingBlock: UVAHIK_clean_linker_0, # of connection points: 2
#     Edge 34, Type (0, 0), BuildingBlock: UVAHIK_clean_linker_0, # of connection points: 2
#     Edge 35, Type (0, 0), BuildingBlock: UVAHIK_clean_linker_0, # of connection points: 2
#     Edge 36, Type (0, 0), BuildingBlock: UVAHIK_clean_linker_0, # of connection points: 2
#     Edge 37, Type (0, 0), BuildingBlock: UVAHIK_clean_linker_0, # of connection points: 2
#     Edge 38, Type (0, 0), BuildingBlock: UVAHIK_clean_linker_0, # of connection points: 2
#     Edge 39, Type (0, 0), BuildingBlock: UVAHIK_clean_linker_0, # of connection points: 2
#     Edge 40, Type (0, 0), BuildingBlock: UVAHIK_clean_linker_0, # of connection points: 2
#     Edge 41, Type (0, 0), BuildingBlock: UVAHIK_clean_linker_0, # of connection points: 2
#     Edge 42, Type (0, 0), BuildingBlock: UVAHIK_clean_linker_0, # of connection points: 2
#     Edge 43, Type (0, 0), BuildingBlock: UVAHIK_clean_linker_0, # of connection points: 2
#     Edge 44, Type (0, 0), BuildingBlock: UVAHIK_clean_linker_0, # of connection points: 2
#     Edge 45, Type (0, 0), BuildingBlock: UVAHIK_clean_linker_0, # of connection points: 2
#     Edge 46, Type (0, 0), BuildingBlock: UVAHIK_clean_linker_0, # of connection points: 2
#     Edge 47, Type (0, 0), BuildingBlock: UVAHIK_clean_linker_0, # of connection points: 2
#     Edge 48, Type (0, 0), BuildingBlock: UVAHIK_clean_linker_0, # of connection points: 2
#     Edge 49, Type (0, 0), BuildingBlock: UVAHIK_clean_linker_0, # of connection points: 2
#     Edge 50, Type (0, 0), BuildingBlock: UVAHIK_clean_linker_0, # of connection points: 2
#     Edge 51, Type (0, 0), BuildingBlock: UVAHIK_clean_linker_0, # of connection points: 2
#     Edge 52, Type (0, 0), BuildingBlock: UVAHIK_clean_linker_0, # of connection points: 2
#     Edge 53, Type (0, 0), BuildingBlock: UVAHIK_clean_linker_0, # of connection points: 2
#     Edge 54, Type (0, 0), BuildingBlock: UVAHIK_clean_linker_0, # of connection points: 2
#     Edge 55, Type (0, 0), BuildingBlock: UVAHIK_clean_linker_0, # of connection points: 2
#     Edge 56, Type (0, 0), BuildingBlock: UVAHIK_clean_linker_0, # of connection points: 2
#     Edge 57, Type (0, 0), BuildingBlock: UVAHIK_clean_linker_0, # of connection points: 2
#     Edge 58, Type (0, 0), BuildingBlock: UVAHIK_clean_linker_0, # of connection points: 2
#     Edge 59, Type (0, 0), BuildingBlock: UVAHIK_clean_linker_0, # of connection points: 2
#     Edge 60, Type (0, 0), BuildingBlock: UVAHIK_clean_linker_0, # of connection points: 2
#     Edge 61, Type (0, 0), BuildingBlock: UVAHIK_clean_linker_0, # of connection points: 2
#     Edge 62, Type (0, 0), BuildingBlock: UVAHIK_clean_linker_0, # of connection points: 2
#     Edge 63, Type (0, 0), BuildingBlock: UVAHIK_clean_linker_0, # of connection points: 2
#     Edge 64, Type (0, 0), BuildingBlock: UVAHIK_clean_linker_0, # of connection points: 2
#     Edge 65, Type (0, 0), BuildingBlock: UVAHIK_clean_linker_0, # of connection points: 2
#     Edge 66, Type (0, 0), BuildingBlock: UVAHIK_clean_linker_0, # of connection points: 2
#     Edge 67, Type (0, 0), BuildingBlock: UVAHIK_clean_linker_0, # of connection points: 2
#     Edge 68, Type (0, 0), BuildingBlock: UVAHIK_clean_linker_0, # of connection points: 2
#     Edge 69, Type (0, 0), BuildingBlock: UVAHIK_clean_linker_0, # of connection points: 2
#     Edge 70, Type (0, 0), BuildingBlock: UVAHIK_clean_linker_0, # of connection points: 2
#     Edge 71, Type (0, 0), BuildingBlock: UVAHIK_clean_linker_0, # of connection points: 2
#     Edge 72, Type (0, 0), BuildingBlock: UVAHIK_clean_linker_0, # of connection points: 2
#     Edge 73, Type (0, 0), BuildingBlock: UVAHIK_clean_linker_0, # of connection points: 2
#     Edge 74, Type (0, 0), BuildingBlock: UVAHIK_clean_linker_0, # of connection points: 2
#     Edge 75, Type (0, 0), BuildingBlock: UVAHIK_clean_linker_0, # of connection points: 2
#     Edge 76, Type (0, 0), BuildingBlock: UVAHIK_clean_linker_0, # of connection points: 2
#     Edge 77, Type (0, 0), BuildingBlock: UVAHIK_clean_linker_0, # of connection points: 2
#     Edge 78, Type (0, 0), BuildingBlock: UVAHIK_clean_linker_0, # of connection points: 2
#     Edge 79, Type (0, 0), BuildingBlock: UVAHIK_clean_linker_0, # of connection points: 2
#     Edge 80, Type (0, 0), BuildingBlock: UVAHIK_clean_linker_0, # of connection points: 2
#     Edge 81, Type (0, 0), BuildingBlock: UVAHIK_clean_linker_0, # of connection points: 2
#     Edge 82, Type (0, 0), BuildingBlock: UVAHIK_clean_linker_0, # of connection points: 2
#     Edge 83, Type (0, 0), BuildingBlock: UVAHIK_clean_linker_0, # of connection points: 2
#     Edge 84, Type (0, 0), BuildingBlock: UVAHIK_clean_linker_0, # of connection points: 2
#     Edge 85, Type (0, 0), BuildingBlock: UVAHIK_clean_linker_0, # of connection points: 2
#     Edge 86, Type (0, 0), BuildingBlock: UVAHIK_clean_linker_0, # of connection points: 2
#     Edge 87, Type (0, 0), BuildingBlock: UVAHIK_clean_linker_0, # of connection points: 2
#     Edge 88, Type (0, 0), BuildingBlock: UVAHIK_clean_linker_0, # of connection points: 2
#     Edge 89, Type (0, 0), BuildingBlock: UVAHIK_clean_linker_0, # of connection points: 2
#     Edge 90, Type (0, 0), BuildingBlock: UVAHIK_clean_linker_0, # of connection points: 2
#     Edge 91, Type (0, 0), BuildingBlock: UVAHIK_clean_linker_0, # of connection points: 2
#     Edge 92, Type (0, 0), BuildingBlock: UVAHIK_clean_linker_0, # of connection points: 2
#     Edge 93, Type (0, 0), BuildingBlock: UVAHIK_clean_linker_0, # of connection points: 2
#     Edge 94, Type (0, 0), BuildingBlock: UVAHIK_clean_linker_0, # of connection points: 2
#     Edge 95, Type (0, 0), BuildingBlock: UVAHIK_clean_linker_0, # of connection points: 2
#     Edge 96, Type (0, 0), BuildingBlock: UVAHIK_clean_linker_0, # of connection points: 2
#     Edge 97, Type (0, 0), BuildingBlock: UVAHIK_clean_linker_0, # of connection points: 2
#     Edge 98, Type (0, 0), BuildingBlock: UVAHIK_clean_linker_0, # of connection points: 2
#     Edge 99, Type (0, 0), BuildingBlock: UVAHIK_clean_linker_0, # of connection points: 2
#     Edge 100, Type (0, 0), BuildingBlock: UVAHIK_clean_linker_0, # of connection points: 2
#     Edge 101, Type (0, 0), BuildingBlock: UVAHIK_clean_linker_0, # of connection points: 2
#     Edge 102, Type (0, 0), BuildingBlock: UVAHIK_clean_linker_0, # of connection points: 2
#     Edge 103, Type (0, 0), BuildingBlock: UVAHIK_clean_linker_0, # of connection points: 2
#     Edge 104, Type (0, 0), BuildingBlock: UVAHIK_clean_linker_0, # of connection points: 2
#     Edge 105, Type (0, 0), BuildingBlock: UVAHIK_clean_linker_0, # of connection points: 2
#     Edge 106, Type (0, 0), BuildingBlock: UVAHIK_clean_linker_0, # of connection points: 2
#     Edge 107, Type (0, 0), BuildingBlock: UVAHIK_clean_linker_0, # of connection points: 2
#     Edge 108, Type (0, 0), BuildingBlock: UVAHIK_clean_linker_0, # of connection points: 2
#     Edge 109, Type (0, 0), BuildingBlock: UVAHIK_clean_linker_0, # of connection points: 2
#     Edge 110, Type (0, 0), BuildingBlock: UVAHIK_clean_linker_0, # of connection points: 2
#     Edge 111, Type (0, 0), BuildingBlock: UVAHIK_clean_linker_0, # of connection points: 2
# Relax obj value: 0.051
# Max RMSD: 0.131
# Mean RMSD: 0.131
data_MOF--net-wga--node1-BEQFEK_clean_sbu_0--edge1-UVAHIK_clean_linker_0
_symmetry_space_group_name_H-M    P1
_symmetry_Int_Tables_number       1
_symmetry_cell_setting            triclinic
loop_
_symmetry_equiv_pos_as_xyz
'x, y, z'
_cell_length_a     137.5475
_cell_length_b     137.43936
_cell_length_c     23.761619
_cell_angle_alpha  89.995768
_cell_angle_beta   90.008014
_cell_angle_gamma 90.011489
loop_
_atom_site_label
_atom_site_type_symbol
_atom_site_fract_x
_atom_site_fract_y
_atom_site_fract_z
_atom_type_partial_charge
Co0 Co 0.06564 0.56741 0.01938 0.0
Co1 Co 0.06666 0.56327 0.14916 0.0
C2 C 0.04861 0.57107 0.09447 0.0
O3 O 0.05266 0.57132 0.04629 0.0
O4 O 0.05315 0.568 0.13776 0.0
C5 C 0.06302 0.57753 0.91233 0.0
O6 O 0.05875 0.58448 0.94114 0.0
C7 C 0.06552 0.56747 0.27023 0.0
C8 C 0.07573 0.55664 0.30534 0.0
C9 C 0.06964 0.56424 0.32017 0.0
N10 N 0.06905 0.56203 0.22786 0.0
N11 N 0.07508 0.55551 0.2492 0.0
C12 C 0.05898 0.57604 0.26197 0.0
H13 H 0.06026 0.57936 0.22003 0.0
H14 H 0.06016 0.58157 0.29534 0.0
H15 H 0.0513 0.57357 0.26384 0.0
C16 C 0.08249 0.57993 0.04727 0.0
N17 N 0.07544 0.57361 0.06167 0.0
N18 N 0.07581 0.572 0.11628 0.0
C19 C 0.08309 0.57734 0.13841 0.0
C20 C 0.08753 0.58252 0.09548 0.0
C21 C 0.08392 0.58382 0.98904 0.0
H22 H 0.07755 0.58832 0.97741 0.0
H23 H 0.09056 0.58836 0.98573 0.0
H24 H 0.08438 0.57768 0.95883 0.0
O25 O 0.06708 0.5532 0.0249 0.0
O26 O 0.06801 0.55006 0.11623 0.0
H27 H 0.09264 0.58155 0.20692 0.0
H28 H 0.07991 0.58043 0.22461 0.0
C29 C 0.08591 0.5773 0.19925 0.0
H30 H 0.08715 0.56971 0.21325 0.0
H31 H 0.07889 0.55042 0.22525 0.0
O32 O 0.06656 0.57023 0.93795 0.0
C33 C 0.06799 0.5472 0.06527 0.0
Co34 Co 0.67624 0.8146 0.28148 0.0
Co35 Co 0.68037 0.81678 0.41084 0.0
C36 C 0.67293 0.79812 0.36057 0.0
O37 O 0.67258 0.80171 0.3112 0.0
O38 O 0.67591 0.80311 0.40232 0.0
C39 C 0.66639 0.81129 0.17374 0.0
O40 O 0.65945 0.80694 0.20219 0.0
C41 C 0.67604 0.81608 0.53171 0.0
C42 C 0.68668 0.82654 0.56629 0.0
C43 C 0.6792 0.82032 0.58145 0.0
N44 N 0.68141 0.81963 0.48916 0.0
N45 N 0.6878 0.82583 0.51015 0.0
C46 C 0.6676 0.80934 0.52389 0.0
H47 H 0.66431 0.81041 0.48168 0.0
H48 H 0.66202 0.81055 0.55688 0.0
H49 H 0.6702 0.80172 0.52692 0.0
C50 C 0.6632 0.83127 0.30537 0.0
N51 N 0.66979 0.82457 0.32134 0.0
N52 N 0.67145 0.82545 0.37571 0.0
C53 C 0.66588 0.83271 0.39612 0.0
C54 C 0.66049 0.8366 0.3523 0.0
C55 C 0.65915 0.83205 0.2471 0.0
H56 H 0.6652 0.83254 0.21636 0.0
H57 H 0.65492 0.82539 0.23755 0.0
H58 H 0.65432 0.83844 0.24228 0.0
O59 O 0.69039 0.81638 0.28711 0.0
O60 O 0.69356 0.81818 0.37796 0.0
H61 H 0.67342 0.83742 0.46998 0.0
H62 H 0.66151 0.84269 0.4621 0.0
C63 C 0.66586 0.83598 0.4562 0.0
H64 H 0.6628 0.83012 0.48299 0.0
H65 H 0.69284 0.82967 0.48602 0.0
O66 O 0.67355 0.81504 0.19974 0.0
C67 C 0.69639 0.81778 0.327 0.0
Co68 Co 0.42782 0.42536 0.53256 0.0
Co69 Co 0.42756 0.43083 0.66084 0.0
C70 C 0.44561 0.42345 0.60246 0.0
O71 O 0.44125 0.42237 0.55559 0.0
O72 O 0.4412 0.42676 0.64558 0.0
C73 C 0.4305 0.41545 0.42477 0.0
O74 O 0.43714 0.4101 0.44973 0.0
C75 C 0.42875 0.42722 0.78359 0.0
C76 C 0.42 0.43949 0.81589 0.0
C77 C 0.42508 0.43128 0.83299 0.0
N78 N 0.42579 0.4327 0.73983 0.0
N79 N 0.42064 0.44005 0.75958 0.0
C80 C 0.43516 0.41848 0.77766 0.0
H81 H 0.43918 0.41866 0.7374 0.0
H82 H 0.43064 0.4118 0.77799 0.0
H83 H 0.44043 0.41811 0.813 0.0
C84 C 0.41181 0.41254 0.56895 0.0
N85 N 0.41879 0.41911 0.5799 0.0
N86 N 0.41854 0.42144 0.63364 0.0
C87 C 0.41129 0.41644 0.65854 0.0
C88 C 0.40683 0.41062 0.61842 0.0
C89 C 0.41019 0.40801 0.51245 0.0
H90 H 0.41717 0.40505 0.49657 0.0
H91 H 0.40476 0.40205 0.51414 0.0
H92 H 0.40771 0.41368 0.48248 0.0
O93 O 0.4257 0.43954 0.53403 0.0
O94 O 0.42519 0.44356 0.62429 0.0
H95 H 0.40096 0.41443 0.72644 0.0
H96 H 0.41359 0.41422 0.74651 0.0
C97 C 0.40819 0.41772 0.71846 0.0
H98 H 0.40784 0.42557 0.72879 0.0
H99 H 0.41742 0.44538 0.73446 0.0
O100 O 0.42583 0.42175 0.45301 0.0
C101 C 0.42471 0.44588 0.57252 0.0
Co102 Co 0.81665 0.17858 0.78473 0.0
Co103 Co 0.8126 0.1769 0.91437 0.0
C104 C 0.8207 0.19512 0.86246 0.0
O105 O 0.82083 0.19138 0.81343 0.0
O106 O 0.8176 0.19035 0.90482 0.0
C107 C 0.82665 0.18139 0.67733 0.0
O108 O 0.83371 0.18548 0.70608 0.0
C109 C 0.81698 0.17759 0.03525 0.0
C110 C 0.80599 0.16753 0.07012 0.0
C111 C 0.8137 0.17349 0.08509 0.0
N112 N 0.81146 0.17421 0.99282 0.0
N113 N 0.80487 0.16825 0.01399 0.0
C114 C 0.82564 0.18403 0.0272 0.0
H115 H 0.82888 0.1828 0.98502 0.0
H116 H 0.83119 0.18265 0.06021 0.0
H117 H 0.82331 0.19174 0.02997 0.0
C118 C 0.82906 0.16147 0.80958 0.0
N119 N 0.82274 0.16845 0.82517 0.0
N120 N 0.82112 0.16778 0.87967 0.0
C121 C 0.82644 0.16038 0.90054 0.0
C122 C 0.83164 0.15618 0.85691 0.0
C123 C 0.83304 0.16042 0.7513 0.0
H124 H 0.82696 0.16019 0.72064 0.0
H125 H 0.8376 0.16685 0.74143 0.0
H126 H 0.83755 0.15378 0.74674 0.0
O127 O 0.80244 0.1774 0.79073 0.0
O128 O 0.79934 0.17598 0.88189 0.0
H129 H 0.81891 0.15615 0.97535 0.0
H130 H 0.83062 0.15048 0.96739 0.0
C131 C 0.82648 0.15731 0.96098 0.0
H132 H 0.82977 0.16315 0.98693 0.0
H133 H 0.79969 0.16457 0.98998 0.0
O134 O 0.81933 0.17793 0.70305 0.0
C135 C 0.79645 0.17637 0.83104 0.0
Co136 Co 0.06528 0.42497 0.96923 0.0
Co137 Co 0.06601 0.42983 0.84036 0.0
C138 C 0.04791 0.42215 0.89678 0.0
O139 O 0.05201 0.42147 0.9447 0.0
O140 O 0.05249 0.42534 0.85396 0.0
C141 C 0.06271 0.41507 0.07714 0.0
O142 O 0.05652 0.40927 0.05169 0.0
C143 C 0.06537 0.42598 0.71764 0.0
C144 C 0.07419 0.43825 0.68603 0.0
C145 C 0.0692 0.43002 0.66861 0.0
N146 N 0.06814 0.43152 0.76157 0.0
N147 N 0.07335 0.43887 0.74223 0.0
C148 C 0.05896 0.41721 0.72294 0.0
H149 H 0.05488 0.41733 0.76292 0.0
H150 H 0.06351 0.41055 0.7227 0.0
H151 H 0.05377 0.41685 0.68725 0.0
C152 C 0.0817 0.41225 0.9368 0.0
N153 N 0.07473 0.41877 0.92422 0.0
N154 N 0.07515 0.42086 0.8702 0.0
C155 C 0.08246 0.41575 0.84673 0.0
C156 C 0.08681 0.41011 0.88805 0.0
C157 C 0.08306 0.40784 0.99383 0.0
H158 H 0.07613 0.40448 0.00757 0.0
H159 H 0.08883 0.40221 0.99401 0.0
H160 H 0.08493 0.41365 0.0244 0.0
O161 O 0.06693 0.43923 0.96634 0.0
O162 O 0.06773 0.44276 0.87548 0.0
H163 H 0.08601 0.42439 0.77454 0.0
H164 H 0.09281 0.41322 0.77954 0.0
C165 C 0.0856 0.41661 0.78661 0.0
H166 H 0.08019 0.41296 0.75929 0.0
H167 H 0.07644 0.44424 0.76756 0.0
O168 O 0.06704 0.42165 0.04923 0.0
C169 C 0.06787 0.44539 0.92681 0.0
Co170 Co 0.81829 0.81611 0.21595 0.0
Co171 Co 0.81277 0.81707 0.08767 0.0
C172 C 0.82108 0.79902 0.1398 0.0
O173 O 0.82179 0.80306 0.18782 0.0
O174 O 0.81763 0.80356 0.09753 0.0
C175 C 0.82607 0.81071 0.32463 0.0
O176 O 0.82787 0.80231 0.30049 0.0
C177 C 0.81626 0.81635 0.96621 0.0
C178 C 0.80399 0.82499 0.93294 0.0
C179 C 0.81221 0.81987 0.91664 0.0
N180 N 0.81069 0.81927 0.00948 0.0
N181 N 0.80333 0.82437 0.98932 0.0
C182 C 0.82565 0.81099 0.97345 0.0
H183 H 0.82867 0.81232 0.01607 0.0
H184 H 0.831 0.81327 0.94109 0.0
H185 H 0.82429 0.80307 0.96894 0.0
C186 C 0.83065 0.83266 0.183 0.0
N187 N 0.82408 0.82574 0.1707 0.0
N188 N 0.82179 0.82627 0.11699 0.0
C189 C 0.8268 0.83365 0.09344 0.0
C190 C 0.83259 0.83791 0.13446 0.0
C191 C 0.83534 0.83379 0.23947 0.0
H192 H 0.83788 0.82658 0.25454 0.0
H193 H 0.84159 0.83887 0.23812 0.0
H194 H 0.82987 0.83652 0.26994 0.0
O195 O 0.80401 0.81761 0.21597 0.0
O196 O 0.80003 0.81842 0.12563 0.0
H197 H 0.82902 0.84415 0.0267 0.0
H198 H 0.82951 0.83155 0.00575 0.0
C199 C 0.82578 0.83685 0.03353 0.0
H200 H 0.81799 0.83711 0.02181 0.0
H201 H 0.79794 0.82755 0.01415 0.0
O202 O 0.82233 0.81754 0.29575 0.0
C203 C 0.79766 0.81847 0.17741 0.0
Co204 Co 0.42695 0.567 0.4755 0.0
Co205 Co 0.42565 0.56322 0.34549 0.0
C206 C 0.44412 0.56985 0.40027 0.0
O207 O 0.44012 0.57019 0.44855 0.0
O208 O 0.43941 0.56717 0.3568 0.0
C209 C 0.43022 0.57689 0.5824 0.0
O210 O 0.43483 0.58359 0.55331 0.0
C211 C 0.42698 0.56747 0.22457 0.0
C212 C 0.41614 0.55729 0.18928 0.0
C213 C 0.42268 0.56453 0.17458 0.0
N214 N 0.42314 0.56223 0.26683 0.0
N215 N 0.41673 0.5561 0.24539 0.0
C216 C 0.43405 0.57562 0.23296 0.0
H217 H 0.43296 0.579 0.2749 0.0
H218 H 0.43323 0.58122 0.19961 0.0
H219 H 0.44155 0.57268 0.23117 0.0
C220 C 0.41077 0.58047 0.44875 0.0
N221 N 0.41751 0.57386 0.43375 0.0
N222 N 0.41704 0.57239 0.37903 0.0
C223 C 0.41001 0.57812 0.35741 0.0
C224 C 0.40584 0.58341 0.4008 0.0
C225 C 0.40947 0.5842 0.50741 0.0
H226 H 0.41605 0.58833 0.5198 0.0
H227 H 0.40307 0.58906 0.51111 0.0
H228 H 0.40868 0.57798 0.53682 0.0
O229 O 0.42467 0.55291 0.46931 0.0
O230 O 0.42357 0.55007 0.37771 0.0
H231 H 0.40061 0.58287 0.28936 0.0
H232 H 0.41322 0.58101 0.27101 0.0
C233 C 0.40709 0.57824 0.29672 0.0
H234 H 0.4054 0.57074 0.28285 0.0
H235 H 0.41262 0.55123 0.26925 0.0
O236 O 0.42626 0.56979 0.55701 0.0
C237 C 0.42341 0.54708 0.4284 0.0
Co238 Co 0.6743 0.17854 0.71723 0.0
Co239 Co 0.68026 0.1776 0.59008 0.0
C240 C 0.67117 0.19543 0.64003 0.0
O241 O 0.67043 0.19141 0.68811 0.0
O242 O 0.67492 0.19097 0.59833 0.0
C243 C 0.66847 0.18433 0.82804 0.0
O244 O 0.66937 0.19317 0.80758 0.0
C245 C 0.6776 0.17802 0.46786 0.0
C246 C 0.68979 0.16883 0.43876 0.0
C247 C 0.68182 0.17408 0.41999 0.0
N248 N 0.68282 0.17519 0.51275 0.0
N249 N 0.69015 0.16978 0.49507 0.0
C250 C 0.66831 0.18365 0.47186 0.0
H251 H 0.66486 0.18248 0.51354 0.0
H252 H 0.6632 0.18147 0.43797 0.0
H253 H 0.66994 0.19152 0.46731 0.0
C254 C 0.66253 0.16159 0.68383 0.0
N255 N 0.66898 0.16865 0.67201 0.0
N256 N 0.67141 0.16817 0.61853 0.0
C257 C 0.6666 0.16069 0.59458 0.0
C258 C 0.66082 0.15631 0.63515 0.0
C259 C 0.65768 0.16042 0.73979 0.0
H260 H 0.65486 0.16757 0.75408 0.0
H261 H 0.65159 0.15513 0.73805 0.0
H262 H 0.66312 0.15792 0.77109 0.0
O263 O 0.68861 0.17752 0.71963 0.0
O264 O 0.69286 0.17673 0.62978 0.0
H265 H 0.67555 0.15716 0.52377 0.0
H266 H 0.66434 0.15039 0.52675 0.0
C267 C 0.66773 0.15759 0.53455 0.0
H268 H 0.66425 0.16306 0.50676 0.0
H269 H 0.69526 0.16656 0.5216 0.0
O270 O 0.66993 0.17708 0.79603 0.0
C271 C 0.6951 0.17682 0.68174 0.0
Co272 Co 0.92777 0.42609 0.97427 0.0
Co273 Co 0.92642 0.43017 0.84475 0.0
C274 C 0.94473 0.42266 0.89768 0.0
O275 O 0.94084 0.42249 0.94637 0.0
O276 O 0.94 0.4255 0.8545 0.0
C277 C 0.93088 0.4163 0.08238 0.0
O278 O 0.93676 0.41026 0.05635 0.0
C279 C 0.92759 0.42834 0.72081 0.0
C280 C 0.91396 0.43566 0.6956 0.0
C281 C 0.92184 0.43056 0.67442 0.0
N282 N 0.92314 0.43174 0.76722 0.0
N283 N 0.91508 0.43623 0.75171 0.0
C284 C 0.93741 0.42369 0.72137 0.0
H285 H 0.9423 0.428 0.74878 0.0
H286 H 0.93683 0.41625 0.73915 0.0
H287 H 0.94068 0.42338 0.67878 0.0
C288 C 0.91115 0.41327 0.94772 0.0
N289 N 0.91801 0.41974 0.93263 0.0
N290 N 0.91765 0.42111 0.87788 0.0
C291 C 0.91069 0.41531 0.85609 0.0
C292 C 0.90629 0.41023 0.89967 0.0
C293 C 0.90912 0.41035 0.00726 0.0
H294 H 0.90932 0.41685 0.03483 0.0
H295 H 0.91485 0.40523 0.0216 0.0
H296 H 0.90191 0.4068 0.01142 0.0
O297 O 0.92605 0.44022 0.97027 0.0
O298 O 0.92501 0.44331 0.87902 0.0
H299 H 0.90443 0.41999 0.77838 0.0
H300 H 0.90515 0.40697 0.78571 0.0
C301 C 0.90896 0.41392 0.7944 0.0
H302 H 0.91598 0.41389 0.77158 0.0
H303 H 0.91021 0.43946 0.7797 0.0
O304 O 0.92665 0.42298 0.0548 0.0
C305 C 0.92501 0.44619 0.92993 0.0
Co306 Co 0.31825 0.17954 0.73927 0.0
Co307 Co 0.31466 0.17772 0.60977 0.0
C308 C 0.32266 0.19595 0.66065 0.0
O309 O 0.32264 0.19222 0.70972 0.0
O310 O 0.31962 0.19122 0.61801 0.0
C311 C 0.32825 0.18209 0.84709 0.0
O312 O 0.33541 0.18621 0.81934 0.0
C313 C 0.31843 0.17808 0.48793 0.0
C314 C 0.30893 0.16614 0.45856 0.0
C315 C 0.31571 0.17289 0.44044 0.0
N316 N 0.31351 0.17451 0.53221 0.0
N317 N 0.30776 0.16745 0.51425 0.0
C318 C 0.32627 0.18559 0.4925 0.0
H319 H 0.33013 0.18484 0.53327 0.0
H320 H 0.33157 0.18494 0.45748 0.0
H321 H 0.32292 0.19293 0.49099 0.0
C322 C 0.33013 0.16198 0.71797 0.0
N323 N 0.32429 0.16924 0.70057 0.0
N324 N 0.32312 0.16865 0.64572 0.0
C325 C 0.32837 0.16108 0.62623 0.0
C326 C 0.33293 0.15658 0.67143 0.0
C327 C 0.33255 0.16002 0.77831 0.0
H328 H 0.32601 0.16111 0.80485 0.0
H329 H 0.33824 0.1652 0.79227 0.0
H330 H 0.33524 0.15248 0.78435 0.0
O331 O 0.30408 0.17842 0.733 0.0
O332 O 0.30131 0.17686 0.64161 0.0
H333 H 0.32281 0.15532 0.54914 0.0
H334 H 0.33574 0.15363 0.55793 0.0
C335 C 0.32959 0.15869 0.56517 0.0
H336 H 0.331 0.16544 0.54114 0.0
H337 H 0.30325 0.16335 0.54036 0.0
O338 O 0.32089 0.17891 0.82055 0.0
C339 C 0.29824 0.17732 0.69207 0.0
Co340 Co 0.56563 0.56889 0.46123 0.0
Co341 Co 0.56589 0.5639 0.33237 0.0
C342 C 0.54784 0.57103 0.39125 0.0
O343 O 0.55221 0.57191 0.43822 0.0
O344 O 0.55224 0.56792 0.34763 0.0
C345 C 0.56292 0.5788 0.56876 0.0
O346 O 0.55643 0.58425 0.54326 0.0
C347 C 0.56473 0.56757 0.20958 0.0
C348 C 0.57387 0.55557 0.17755 0.0
C349 C 0.56859 0.56363 0.16034 0.0
N350 N 0.56778 0.56216 0.25342 0.0
N351 N 0.57317 0.55496 0.23382 0.0
C352 C 0.55806 0.57612 0.21523 0.0
H353 H 0.55393 0.57578 0.25505 0.0
H354 H 0.5624 0.58292 0.21564 0.0
H355 H 0.55289 0.5764 0.17939 0.0
C356 C 0.58164 0.58186 0.42635 0.0
N357 N 0.57467 0.5753 0.41464 0.0
N358 N 0.57488 0.57322 0.36057 0.0
C359 C 0.58207 0.57839 0.33616 0.0
C360 C 0.58655 0.58403 0.377 0.0
C361 C 0.58329 0.58615 0.48343 0.0
H362 H 0.57638 0.58929 0.49911 0.0
H363 H 0.58891 0.59193 0.48279 0.0
H364 H 0.58551 0.58031 0.51299 0.0
O365 O 0.56775 0.55472 0.4587 0.0
O366 O 0.56822 0.55108 0.36789 0.0
H367 H 0.59214 0.58104 0.26766 0.0
H368 H 0.57945 0.58084 0.24871 0.0
C369 C 0.58506 0.57745 0.27583 0.0
H370 H 0.58567 0.56966 0.26449 0.0
H371 H 0.5765 0.54972 0.25903 0.0
O372 O 0.56753 0.57239 0.54096 0.0
C373 C 0.56871 0.54853 0.4193 0.0
Co374 Co 0.17415 0.81571 0.21761 0.0
Co375 Co 0.18074 0.81638 0.09118 0.0
C376 C 0.17132 0.79868 0.14115 0.0
O377 O 0.17032 0.80279 0.18883 0.0
O378 O 0.17532 0.80306 0.09993 0.0
C379 C 0.16828 0.81011 0.32849 0.0
O380 O 0.16935 0.80127 0.30831 0.0
C381 C 0.17836 0.81578 0.96869 0.0
C382 C 0.19083 0.82461 0.9399 0.0
C383 C 0.18277 0.81954 0.92085 0.0
N384 N 0.18357 0.81854 0.01379 0.0
N385 N 0.19107 0.82372 0.99628 0.0
C386 C 0.16891 0.81042 0.97241 0.0
H387 H 0.16548 0.81164 0.01407 0.0
H388 H 0.16388 0.81277 0.9385 0.0
H389 H 0.17031 0.80251 0.96762 0.0
C390 C 0.16274 0.83274 0.18118 0.0
N391 N 0.16911 0.82554 0.17082 0.0
N392 N 0.17182 0.8259 0.11773 0.0
C393 C 0.16727 0.83343 0.09262 0.0
C394 C 0.16137 0.83797 0.13195 0.0
C395 C 0.15772 0.83417 0.23642 0.0
H396 H 0.15476 0.82711 0.25124 0.0
H397 H 0.15172 0.83954 0.23332 0.0
H398 H 0.16309 0.83671 0.26802 0.0
O399 O 0.18844 0.8167 0.22171 0.0
O400 O 0.19318 0.81738 0.13261 0.0
H401 H 0.1767 0.83669 0.02344 0.0
H402 H 0.16567 0.84376 0.02434 0.0
C403 C 0.16882 0.83647 0.03281 0.0
H404 H 0.16533 0.8311 0.00443 0.0
H405 H 0.19622 0.82686 0.02296 0.0
O406 O 0.16959 0.81735 0.29612 0.0
C407 C 0.19513 0.81737 0.18497 0.0
Co408 Co 0.92787 0.56838 0.02361 0.0
Co409 Co 0.9274 0.5637 0.15275 0.0
C410 C 0.94533 0.57142 0.0953 0.0
O411 O 0.94109 0.57202 0.04779 0.0
O412 O 0.94092 0.56821 0.13864 0.0
C413 C 0.93033 0.57831 0.91591 0.0
O414 O 0.93645 0.58416 0.94159 0.0
C415 C 0.9282 0.5674 0.27575 0.0
C416 C 0.91889 0.55544 0.3067 0.0
C417 C 0.92416 0.56347 0.32449 0.0
N418 N 0.92526 0.56201 0.23154 0.0
N419 N 0.91977 0.55484 0.25051 0.0
C420 C 0.93496 0.57591 0.27106 0.0
H421 H 0.93935 0.57547 0.23225 0.0
H422 H 0.93066 0.58273 0.26933 0.0
H423 H 0.9399 0.57622 0.30795 0.0
C424 C 0.91137 0.58094 0.05591 0.0
N425 N 0.91843 0.57454 0.06865 0.0
N426 N 0.91818 0.57263 0.12293 0.0
C427 C 0.9109 0.57779 0.14647 0.0
C428 C 0.90639 0.58322 0.10482 0.0
C429 C 0.90983 0.58514 0.9985 0.0
H430 H 0.91663 0.58872 0.98435 0.0
H431 H 0.90386 0.59056 0.99788 0.0
H432 H 0.90816 0.57919 0.96848 0.0
O433 O 0.9263 0.55413 0.02692 0.0
O434 O 0.92567 0.55072 0.11798 0.0
H435 H 0.90102 0.58097 0.21511 0.0
H436 H 0.91375 0.58066 0.23327 0.0
C437 C 0.90803 0.57723 0.20713 0.0
H438 H 0.90731 0.56951 0.21986 0.0
H439 H 0.91649 0.54962 0.22491 0.0
O440 O 0.92606 0.57166 0.94362 0.0
C441 C 0.92545 0.54802 0.06678 0.0
Co442 Co 0.17576 0.17762 0.7742 0.0
Co443 Co 0.18001 0.17708 0.90395 0.0
C444 C 0.17182 0.19481 0.84787 0.0
O445 O 0.17164 0.19062 0.80007 0.0
O446 O 0.17498 0.19046 0.89157 0.0
C447 C 0.16556 0.17992 0.6672 0.0
O448 O 0.15864 0.18428 0.69581 0.0
C449 C 0.17596 0.17833 0.0252 0.0
C450 C 0.18707 0.16841 0.0602 0.0
C451 C 0.17933 0.17432 0.07512 0.0
N452 N 0.18143 0.1749 0.98275 0.0
N453 N 0.18812 0.16906 0.00402 0.0
C454 C 0.16721 0.18464 0.01708 0.0
H455 H 0.16392 0.18328 0.97516 0.0
H456 H 0.16174 0.18331 0.05051 0.0
H457 H 0.16948 0.19239 0.01901 0.0
C458 C 0.16344 0.16071 0.80443 0.0
N459 N 0.16974 0.16785 0.81774 0.0
N460 N 0.17144 0.16766 0.8723 0.0
C461 C 0.1662 0.1604 0.89547 0.0
C462 C 0.16097 0.1558 0.85333 0.0
C463 C 0.15943 0.15912 0.74664 0.0
H464 H 0.16549 0.15852 0.71608 0.0
H465 H 0.15496 0.1655 0.73462 0.0
H466 H 0.15483 0.1525 0.74435 0.0
O467 O 0.19 0.17648 0.77914 0.0
O468 O 0.19316 0.17593 0.87054 0.0
H469 H 0.174 0.15678 0.97046 0.0
H470 H 0.16235 0.15091 0.96498 0.0
C471 C 0.16638 0.15775 0.95656 0.0
H472 H 0.16308 0.16372 0.98145 0.0
H473 H 0.19327 0.16534 0.97999 0.0
O474 O 0.17286 0.17643 0.69295 0.0
C475 C 0.19602 0.17584 0.81959 0.0
Co476 Co 0.56653 0.42709 0.52459 0.0
Co477 Co 0.56752 0.43167 0.65397 0.0
C478 C 0.54927 0.42435 0.59894 0.0
O479 O 0.55337 0.42378 0.551 0.0
O480 O 0.55385 0.42739 0.64211 0.0
C481 C 0.56367 0.41702 0.41726 0.0
O482 O 0.5589 0.41033 0.44551 0.0
C483 C 0.56613 0.42773 0.77528 0.0
C484 C 0.57653 0.4384 0.81014 0.0
C485 C 0.57028 0.43094 0.82517 0.0
N486 N 0.5698 0.43304 0.73275 0.0
N487 N 0.57593 0.43947 0.75394 0.0
C488 C 0.55944 0.41926 0.76725 0.0
H489 H 0.56063 0.41591 0.72533 0.0
H490 H 0.56054 0.41373 0.80068 0.0
H491 H 0.55181 0.42187 0.76929 0.0
C492 C 0.58283 0.41405 0.55488 0.0
N493 N 0.57599 0.42066 0.56822 0.0
N494 N 0.57639 0.42249 0.62259 0.0
C495 C 0.58349 0.41703 0.64562 0.0
C496 C 0.58777 0.41151 0.60355 0.0
C497 C 0.58418 0.40991 0.49716 0.0
H498 H 0.5775 0.40593 0.48488 0.0
H499 H 0.59043 0.40483 0.4951 0.0
H500 H 0.58526 0.41592 0.46663 0.0
O501 O 0.56851 0.44123 0.52886 0.0
O502 O 0.56942 0.44471 0.61977 0.0
H503 H 0.59306 0.41307 0.71451 0.0
H504 H 0.58038 0.4144 0.73239 0.0
C505 C 0.58637 0.41735 0.70634 0.0
H506 H 0.5877 0.42499 0.71903 0.0
H507 H 0.57988 0.44444 0.72985 0.0
O508 O 0.56754 0.42409 0.44336 0.0
C509 C 0.5696 0.44736 0.56844 0.0
Co510 Co 0.31597 0.81522 0.28696 0.0
Co511 Co 0.3127 0.81688 0.41676 0.0
C512 C 0.32016 0.79857 0.36449 0.0
O513 O 0.32006 0.8024 0.31567 0.0
O514 O 0.31735 0.80328 0.40775 0.0
C515 C 0.32579 0.81232 0.17937 0.0
O516 O 0.33269 0.80782 0.20736 0.0
C517 C 0.31656 0.81631 0.5385 0.0
C518 C 0.30753 0.8286 0.56815 0.0
C519 C 0.31407 0.8216 0.58605 0.0
N520 N 0.31173 0.82007 0.49438 0.0
N521 N 0.30626 0.82733 0.51251 0.0
C522 C 0.3241 0.80851 0.53374 0.0
H523 H 0.32803 0.8092 0.49315 0.0
H524 H 0.32938 0.80889 0.56898 0.0
H525 H 0.32046 0.80131 0.53461 0.0
C526 C 0.32852 0.83227 0.30859 0.0
N527 N 0.32239 0.82525 0.32585 0.0
N528 N 0.32132 0.8258 0.38079 0.0
C529 C 0.32692 0.8331 0.40042 0.0
C530 C 0.33162 0.83746 0.35527 0.0
C531 C 0.33104 0.83416 0.2483 0.0
H532 H 0.32446 0.83343 0.22174 0.0
H533 H 0.33646 0.8287 0.23419 0.0
H534 H 0.33413 0.84155 0.24251 0.0
O535 O 0.30184 0.81672 0.29405 0.0
O536 O 0.29932 0.81807 0.38578 0.0
H537 H 0.3217 0.83888 0.47826 0.0
H538 H 0.33465 0.84022 0.46864 0.0
C539 C 0.32834 0.83534 0.46153 0.0
H540 H 0.32959 0.82851 0.48503 0.0
H541 H 0.30187 0.8316 0.48653 0.0
O542 O 0.31857 0.81586 0.20566 0.0
C543 C 0.29612 0.81783 0.33552 0.0
Co544 Co 0.56526 0.06742 0.50977 0.0
Co545 Co 0.56642 0.064 0.63988 0.0
C546 C 0.54812 0.07093 0.58504 0.0
O547 O 0.55214 0.07099 0.53672 0.0
O548 O 0.55277 0.06832 0.62892 0.0
C549 C 0.56229 0.0773 0.40241 0.0
O550 O 0.55677 0.08353 0.42951 0.0
C551 C 0.56534 0.0665 0.76373 0.0
C552 C 0.5786 0.0586 0.78966 0.0
C553 C 0.57098 0.06412 0.81035 0.0
N554 N 0.56961 0.06273 0.71766 0.0
N555 N 0.57746 0.05793 0.73363 0.0
C556 C 0.55582 0.07176 0.76276 0.0
H557 H 0.55076 0.06801 0.73372 0.0
H558 H 0.55697 0.07927 0.74704 0.0
H559 H 0.5524 0.07199 0.80499 0.0
C560 C 0.58192 0.08028 0.53488 0.0
N561 N 0.5749 0.07404 0.55084 0.0
N562 N 0.57515 0.07299 0.60584 0.0
C563 C 0.58218 0.07877 0.6269 0.0
C564 C 0.58676 0.08351 0.58259 0.0
C565 C 0.58425 0.08263 0.47486 0.0
H566 H 0.58377 0.07596 0.44885 0.0
H567 H 0.57885 0.08795 0.4588 0.0
H568 H 0.59164 0.08576 0.47051 0.0
O569 O 0.56716 0.05332 0.51553 0.0
O570 O 0.56811 0.05077 0.6074 0.0
H571 H 0.58828 0.07417 0.70519 0.0
H572 H 0.58798 0.0872 0.69625 0.0
C573 C 0.58396 0.08033 0.6884 0.0
H574 H 0.57694 0.08066 0.71115 0.0
H575 H 0.58215 0.05437 0.706 0.0
O576 O 0.56632 0.07038 0.4291 0.0
C577 C 0.56823 0.0476 0.55707 0.0
Co578 Co 0.17529 0.31449 0.7541 0.0
Co579 Co 0.17896 0.31623 0.88356 0.0
C580 C 0.17129 0.29789 0.83227 0.0
O581 O 0.17121 0.30166 0.78328 0.0
O582 O 0.17424 0.30266 0.87497 0.0
C583 C 0.16529 0.31183 0.64629 0.0
O584 O 0.15825 0.30746 0.67385 0.0
C585 C 0.17535 0.3157 0.00558 0.0
C586 C 0.18467 0.32781 0.03474 0.0
C587 C 0.17803 0.32093 0.05302 0.0
N588 N 0.18017 0.31938 0.96118 0.0
N589 N 0.18581 0.32653 0.97902 0.0
C590 C 0.16764 0.30806 0.00122 0.0
H591 H 0.16376 0.30872 0.96049 0.0
H592 H 0.16235 0.30864 0.0363 0.0
H593 H 0.17112 0.30078 0.00285 0.0
C594 C 0.16303 0.33176 0.77672 0.0
N595 N 0.16906 0.32461 0.79351 0.0
N596 N 0.1703 0.32517 0.84832 0.0
C597 C 0.1649 0.33258 0.8684 0.0
C598 C 0.16018 0.33704 0.82363 0.0
C599 C 0.16045 0.33372 0.7166 0.0
H600 H 0.16697 0.33284 0.68965 0.0
H601 H 0.15488 0.32839 0.70276 0.0
H602 H 0.15753 0.34119 0.71102 0.0
O603 O 0.18945 0.31588 0.75982 0.0
O604 O 0.19224 0.31734 0.85124 0.0
H605 H 0.17042 0.33832 0.94565 0.0
H606 H 0.15745 0.33977 0.93739 0.0
C607 C 0.16369 0.33485 0.92963 0.0
H608 H 0.16244 0.32803 0.9533 0.0
H609 H 0.19022 0.33073 0.95279 0.0
O610 O 0.17256 0.31517 0.67294 0.0
C611 C 0.19529 0.31702 0.80072 0.0
Co612 Co 0.92872 0.92659 0.0185 0.0
Co613 Co 0.92699 0.93006 0.14828 0.0
C614 C 0.94533 0.92245 0.09663 0.0
O615 O 0.94159 0.92261 0.04754 0.0
O616 O 0.94052 0.92519 0.1397 0.0
C617 C 0.93202 0.91695 0.91048 0.0
O618 O 0.93764 0.91074 0.93711 0.0
C619 C 0.92794 0.92805 0.27209 0.0
C620 C 0.91406 0.93496 0.29675 0.0
C621 C 0.92206 0.93008 0.31821 0.0
N622 N 0.92346 0.93136 0.22553 0.0
N623 N 0.91525 0.93559 0.24071 0.0
C624 C 0.93793 0.92377 0.27203 0.0
H625 H 0.9427 0.92826 0.24492 0.0
H626 H 0.93765 0.91631 0.25418 0.0
H627 H 0.94114 0.92356 0.31479 0.0
C628 C 0.91167 0.9141 0.04072 0.0
N629 N 0.91868 0.92025 0.05785 0.0
N630 N 0.9182 0.92129 0.1128 0.0
C631 C 0.91103 0.91555 0.1327 0.0
C632 C 0.90659 0.91089 0.08763 0.0
C633 C 0.90965 0.91173 0.98035 0.0
H634 H 0.91026 0.91841 0.9544 0.0
H635 H 0.91513 0.90641 0.96524 0.0
H636 H 0.90228 0.90861 0.97476 0.0
O637 O 0.92721 0.94072 0.02407 0.0
O638 O 0.92586 0.94336 0.11567 0.0
H639 H 0.90435 0.91972 0.21021 0.0
H640 H 0.90534 0.90676 0.20072 0.0
C641 C 0.90907 0.91382 0.19387 0.0
H642 H 0.91598 0.91379 0.21776 0.0
H643 H 0.91034 0.93873 0.21254 0.0
O644 O 0.92787 0.92373 0.93767 0.0
C645 C 0.92609 0.94649 0.06528 0.0
Co646 Co 0.31674 0.679 0.2801 0.0
Co647 Co 0.31308 0.67717 0.40955 0.0
C648 C 0.3208 0.69552 0.35847 0.0
O649 O 0.32087 0.69178 0.30942 0.0
O650 O 0.31782 0.69075 0.40111 0.0
C651 C 0.32663 0.68183 0.17217 0.0
O652 O 0.33358 0.68633 0.19974 0.0
C653 C 0.31677 0.67769 0.53144 0.0
C654 C 0.30752 0.66555 0.56084 0.0
C655 C 0.31415 0.67245 0.57894 0.0
N656 N 0.31194 0.67399 0.48715 0.0
N657 N 0.30634 0.66682 0.50513 0.0
C658 C 0.32445 0.68536 0.5269 0.0
H659 H 0.32837 0.68465 0.4863 0.0
H660 H 0.32972 0.68486 0.56213 0.0
H661 H 0.32094 0.69263 0.52805 0.0
C662 C 0.32918 0.66187 0.3024 0.0
N663 N 0.32299 0.66887 0.31925 0.0
N664 N 0.32173 0.66824 0.37402 0.0
C665 C 0.32724 0.6609 0.39398 0.0
C666 C 0.3321 0.6566 0.3492 0.0
C667 C 0.33196 0.6601 0.24238 0.0
H668 H 0.32547 0.66079 0.21501 0.0
H669 H 0.33736 0.66564 0.22922 0.0
H670 H 0.33515 0.65275 0.23663 0.0
O671 O 0.30258 0.67764 0.28617 0.0
O672 O 0.29976 0.67614 0.37754 0.0
H673 H 0.32171 0.65517 0.47124 0.0
H674 H 0.33466 0.65362 0.46279 0.0
C675 C 0.32846 0.6586 0.45515 0.0
H676 H 0.32977 0.6654 0.47888 0.0
H677 H 0.30192 0.66261 0.47901 0.0
O678 O 0.31943 0.67834 0.19885 0.0
C679 C 0.29672 0.67651 0.327 0.0
Co680 Co 0.56503 0.92541 0.4767 0.0
Co681 Co 0.56611 0.9296 0.34714 0.0
C682 C 0.54773 0.92271 0.40193 0.0
O683 O 0.55179 0.92225 0.45007 0.0
O684 O 0.55239 0.92552 0.35847 0.0
C685 C 0.56196 0.91552 0.58445 0.0
O686 O 0.55601 0.90957 0.55827 0.0
C687 C 0.56483 0.92736 0.22317 0.0
C688 C 0.57793 0.93549 0.19688 0.0
C689 C 0.57037 0.92986 0.17636 0.0
N690 N 0.56912 0.93113 0.26919 0.0
N691 N 0.57686 0.93608 0.253 0.0
C692 C 0.55543 0.92189 0.22444 0.0
H693 H 0.55036 0.92546 0.25408 0.0
H694 H 0.55677 0.91436 0.23948 0.0
H695 H 0.55193 0.92168 0.18243 0.0
C696 C 0.5812 0.91218 0.44816 0.0
N697 N 0.57443 0.91879 0.43384 0.0
N698 N 0.5747 0.92024 0.37913 0.0
C699 C 0.58153 0.91438 0.35662 0.0
C700 C 0.58592 0.90914 0.39966 0.0
C701 C 0.58335 0.90921 0.50748 0.0
H702 H 0.58334 0.91571 0.53512 0.0
H703 H 0.57759 0.90418 0.52232 0.0
H704 H 0.59051 0.90555 0.51095 0.0
O705 O 0.5672 0.93949 0.47291 0.0
O706 O 0.56813 0.94263 0.38165 0.0
H707 H 0.58745 0.91958 0.27909 0.0
H708 H 0.58739 0.90649 0.28526 0.0
C709 C 0.58327 0.91323 0.29479 0.0
H710 H 0.57623 0.91292 0.27232 0.0
H711 H 0.58156 0.93968 0.28054 0.0
O712 O 0.56624 0.9222 0.55706 0.0
C713 C 0.56835 0.94546 0.43265 0.0
Co714 Co 0.31774 0.31521 0.73801 0.0
Co715 Co 0.31477 0.31711 0.60808 0.0
C716 C 0.32246 0.29883 0.65939 0.0
O717 O 0.32218 0.30254 0.7085 0.0
O718 O 0.31966 0.3036 0.61632 0.0
C719 C 0.32761 0.31252 0.84555 0.0
O720 O 0.33478 0.30853 0.81725 0.0
C721 C 0.3188 0.31684 0.48649 0.0
C722 C 0.30957 0.32899 0.45705 0.0
C723 C 0.31625 0.32212 0.43904 0.0
N724 N 0.31388 0.32046 0.53063 0.0
N725 N 0.3083 0.32765 0.51264 0.0
C726 C 0.32647 0.30916 0.49118 0.0
H727 H 0.33033 0.30984 0.532 0.0
H728 H 0.3318 0.3097 0.45625 0.0
H729 H 0.32296 0.30189 0.48967 0.0
C730 C 0.32977 0.33275 0.71881 0.0
N731 N 0.32399 0.32552 0.70045 0.0
N732 N 0.3231 0.32611 0.64542 0.0
C733 C 0.32851 0.33364 0.62681 0.0
C734 C 0.33286 0.33813 0.67275 0.0
C735 C 0.3319 0.33472 0.77952 0.0
H736 H 0.32526 0.33355 0.80508 0.0
H737 H 0.33759 0.3296 0.79426 0.0
H738 H 0.33449 0.34228 0.78598 0.0
O739 O 0.30359 0.3164 0.73016 0.0
O740 O 0.30132 0.31796 0.63829 0.0
H741 H 0.32348 0.33955 0.54886 0.0
H742 H 0.3364 0.34089 0.55975 0.0
C743 C 0.33009 0.33599 0.56597 0.0
H744 H 0.33142 0.3292 0.54214 0.0
H745 H 0.30382 0.3318 0.53866 0.0
O746 O 0.32021 0.3157 0.81946 0.0
C747 C 0.29798 0.31752 0.68817 0.0
Co748 Co 0.92845 0.06865 0.97781 0.0
Co749 Co 0.92694 0.06441 0.8484 0.0
C750 C 0.94537 0.07184 0.90097 0.0
O751 O 0.94151 0.07218 0.94971 0.0
O752 O 0.94057 0.06894 0.85816 0.0
C753 C 0.9312 0.07861 0.08622 0.0
O754 O 0.93666 0.08505 0.06034 0.0
C755 C 0.92765 0.0668 0.72443 0.0
C756 C 0.91484 0.05814 0.69918 0.0
C757 C 0.9221 0.06409 0.67809 0.0
N758 N 0.92368 0.06282 0.77076 0.0
N759 N 0.9161 0.05756 0.75519 0.0
C760 C 0.93685 0.0726 0.72495 0.0
H761 H 0.9422 0.069 0.75272 0.0
H762 H 0.93535 0.07996 0.7421 0.0
H763 H 0.9401 0.07322 0.68241 0.0
C764 C 0.91173 0.08136 0.95143 0.0
N765 N 0.91867 0.07498 0.93619 0.0
N766 N 0.91819 0.07349 0.88157 0.0
C767 C 0.91105 0.07909 0.86002 0.0
C768 C 0.90668 0.0842 0.90363 0.0
C769 C 0.90972 0.08427 0.011 0.0
H770 H 0.91004 0.07779 0.03866 0.0
H771 H 0.91539 0.08949 0.02503 0.0
H772 H 0.90247 0.08772 0.0154 0.0
O773 O 0.92668 0.05453 0.97409 0.0
O774 O 0.92545 0.05131 0.88306 0.0
H775 H 0.90503 0.0736 0.78344 0.0
H776 H 0.90453 0.08668 0.78946 0.0
C777 C 0.90898 0.08014 0.79846 0.0
H778 H 0.91591 0.08075 0.77495 0.0
H779 H 0.91165 0.05374 0.78308 0.0
O780 O 0.92736 0.07172 0.05843 0.0
C781 C 0.92553 0.04851 0.93413 0.0
Co782 Co 0.17429 0.6792 0.22819 0.0
Co783 Co 0.17954 0.67753 0.10056 0.0
C784 C 0.17104 0.69575 0.14826 0.0
O785 O 0.17044 0.69196 0.19703 0.0
O786 O 0.17456 0.69104 0.10682 0.0
C787 C 0.1698 0.68584 0.33886 0.0
O788 O 0.17211 0.69438 0.31797 0.0
C789 C 0.17737 0.67814 0.97793 0.0
C790 C 0.1878 0.66683 0.95097 0.0
C791 C 0.18102 0.67342 0.93089 0.0
N792 N 0.1818 0.67449 0.02369 0.0
N793 N 0.18808 0.6678 0.00729 0.0
C794 C 0.16916 0.68528 0.98026 0.0
H795 H 0.16501 0.68437 0.01993 0.0
H796 H 0.16419 0.68434 0.94389 0.0
H797 H 0.17217 0.69277 0.97932 0.0
C798 C 0.16246 0.66198 0.20048 0.0
N799 N 0.16871 0.66907 0.18599 0.0
N800 N 0.17061 0.66847 0.13188 0.0
C801 C 0.16549 0.66101 0.10987 0.0
C802 C 0.16017 0.65664 0.1527 0.0
C803 C 0.15909 0.66019 0.2595 0.0
H804 H 0.16542 0.66041 0.28844 0.0
H805 H 0.154 0.66606 0.27211 0.0
H806 H 0.15543 0.65304 0.26382 0.0
O807 O 0.18856 0.67798 0.22933 0.0
O808 O 0.19231 0.67662 0.13893 0.0
H809 H 0.17229 0.65554 0.03543 0.0
H810 H 0.15934 0.65333 0.03836 0.0
C811 C 0.16518 0.65861 0.04845 0.0
H812 H 0.16387 0.66533 0.02394 0.0
H813 H 0.19242 0.66375 0.0347 0.0
O814 O 0.17 0.67841 0.30711 0.0
C815 C 0.19483 0.67696 0.19044 0.0
Co816 Co 0.427 0.92656 0.47232 0.0
Co817 Co 0.4259 0.93028 0.34221 0.0
C818 C 0.44418 0.9233 0.39759 0.0
O819 O 0.44011 0.92307 0.44571 0.0
O820 O 0.43957 0.92606 0.35387 0.0
C821 C 0.43007 0.91661 0.57913 0.0
O822 O 0.43457 0.90986 0.54997 0.0
C823 C 0.42718 0.92597 0.22132 0.0
C824 C 0.41655 0.93636 0.1859 0.0
C825 C 0.42294 0.92899 0.1713 0.0
N826 N 0.42344 0.9313 0.26351 0.0
N827 N 0.41716 0.93756 0.24199 0.0
C828 C 0.43407 0.91768 0.22982 0.0
H829 H 0.43289 0.91433 0.27177 0.0
H830 H 0.43314 0.9121 0.19649 0.0
H831 H 0.44163 0.92048 0.22812 0.0
C832 C 0.41057 0.91343 0.44548 0.0
N833 N 0.41746 0.91988 0.43047 0.0
N834 N 0.41706 0.92132 0.37571 0.0
C835 C 0.40991 0.91574 0.35407 0.0
C836 C 0.40559 0.91058 0.39751 0.0
C837 C 0.40917 0.90975 0.50419 0.0
H838 H 0.40846 0.91599 0.53346 0.0
H839 H 0.41569 0.90553 0.51678 0.0
H840 H 0.4027 0.90498 0.50788 0.0
O841 O 0.42503 0.94069 0.46589 0.0
O842 O 0.42406 0.94349 0.3742 0.0
H843 H 0.4055 0.92318 0.2793 0.0
H844 H 0.40045 0.91116 0.28593 0.0
C845 C 0.40703 0.91565 0.29334 0.0
H846 H 0.4131 0.91273 0.26778 0.0
H847 H 0.41316 0.94253 0.26579 0.0
O848 O 0.42622 0.92379 0.55383 0.0
C849 C 0.42392 0.94651 0.42481 0.0
Co850 Co 0.81864 0.67908 0.23491 0.0
Co851 Co 0.81323 0.67712 0.10757 0.0
C852 C 0.82106 0.6957 0.15457 0.0
O853 O 0.82191 0.69197 0.20338 0.0
O854 O 0.81766 0.69082 0.11345 0.0
C855 C 0.8227 0.68591 0.34565 0.0
O856 O 0.81984 0.69429 0.32482 0.0
C857 C 0.81522 0.6778 0.98484 0.0
C858 C 0.80517 0.66611 0.95823 0.0
C859 C 0.81168 0.67296 0.93791 0.0
N860 N 0.81098 0.67399 0.03077 0.0
N861 N 0.80493 0.66706 0.01458 0.0
C862 C 0.82316 0.68523 0.98687 0.0
H863 H 0.82739 0.68447 0.0264 0.0
H864 H 0.82813 0.68447 0.95032 0.0
H865 H 0.81989 0.69261 0.98603 0.0
C866 C 0.83098 0.66224 0.20705 0.0
N867 N 0.82454 0.66916 0.19259 0.0
N868 N 0.82257 0.66845 0.13857 0.0
C869 C 0.82786 0.66112 0.11657 0.0
C870 C 0.83334 0.65693 0.15933 0.0
C871 C 0.83436 0.66052 0.26612 0.0
H872 H 0.82803 0.66066 0.29502 0.0
H873 H 0.83936 0.66647 0.27869 0.0
H874 H 0.83812 0.65343 0.27058 0.0
O875 O 0.80445 0.67726 0.23675 0.0
O876 O 0.80056 0.67568 0.14665 0.0
H877 H 0.82111 0.65525 0.04305 0.0
H878 H 0.83414 0.65358 0.04499 0.0
C879 C 0.82812 0.65863 0.05526 0.0
H880 H 0.82909 0.66535 0.03027 0.0
H881 H 0.80078 0.66285 0.04214 0.0
O882 O 0.82303 0.6785 0.31375 0.0
C883 C 0.79815 0.67593 0.19837 0.0
Co884 Co 0.06499 0.06729 0.98695 0.0
Co885 Co 0.06703 0.064 0.85698 0.0
C886 C 0.04845 0.07112 0.90824 0.0
O887 O 0.0521 0.07114 0.95752 0.0
O888 O 0.05341 0.06843 0.86573 0.0
C889 C 0.06231 0.07744 0.09372 0.0
O890 O 0.05918 0.08489 0.0642 0.0
C891 C 0.06617 0.06815 0.73574 0.0
C892 C 0.07759 0.05842 0.70255 0.0
C893 C 0.07078 0.06531 0.6865 0.0
N894 N 0.07006 0.06316 0.77884 0.0
N895 N 0.07685 0.05731 0.75867 0.0
C896 C 0.05882 0.07609 0.7427 0.0
H897 H 0.05965 0.0796 0.78448 0.0
H898 H 0.05961 0.08166 0.70919 0.0
H899 H 0.05142 0.07291 0.74004 0.0
C900 C 0.08218 0.07988 0.96595 0.0
N901 N 0.07508 0.07384 0.94849 0.0
N902 N 0.07576 0.07268 0.89362 0.0
C903 C 0.08321 0.07809 0.87428 0.0
C904 C 0.08756 0.08278 0.9195 0.0
C905 C 0.08409 0.08237 0.02624 0.0
H906 H 0.08284 0.0759 0.05317 0.0
H907 H 0.079 0.0882 0.03951 0.0
H908 H 0.09165 0.08498 0.03236 0.0
O909 O 0.06669 0.05315 0.97971 0.0
O910 O 0.06834 0.05065 0.88805 0.0
H911 H 0.08894 0.07239 0.79745 0.0
H912 H 0.09084 0.08532 0.80597 0.0
C913 C 0.08569 0.07924 0.81327 0.0
H914 H 0.07898 0.08073 0.78903 0.0
H915 H 0.08106 0.05266 0.78337 0.0
O916 O 0.06519 0.06981 0.06866 0.0
C917 C 0.068 0.04745 0.93828 0.0
Co918 Co 0.67581 0.31493 0.72764 0.0
Co919 Co 0.6793 0.31687 0.59811 0.0
C920 C 0.67174 0.29844 0.6489 0.0
O921 O 0.67171 0.30214 0.69806 0.0
O922 O 0.67465 0.30327 0.60631 0.0
C923 C 0.66591 0.31208 0.83546 0.0
O924 O 0.65888 0.30774 0.8077 0.0
C925 C 0.67551 0.31641 0.47631 0.0
C926 C 0.68471 0.32859 0.44687 0.0
C927 C 0.67809 0.32167 0.4288 0.0
N928 N 0.68035 0.32011 0.52055 0.0
N929 N 0.68592 0.32731 0.50255 0.0
C930 C 0.66786 0.30871 0.48092 0.0
H931 H 0.66397 0.30939 0.52163 0.0
H932 H 0.66256 0.30922 0.44583 0.0
H933 H 0.67139 0.30146 0.47958 0.0
C934 C 0.66341 0.33215 0.70636 0.0
N935 N 0.66947 0.32507 0.68899 0.0
N936 N 0.67065 0.32572 0.63416 0.0
C937 C 0.66518 0.33314 0.61467 0.0
C938 C 0.66047 0.33748 0.65983 0.0
C939 C 0.66085 0.33399 0.76664 0.0
H940 H 0.6674 0.33314 0.79338 0.0
H941 H 0.65535 0.32858 0.78033 0.0
H942 H 0.65785 0.34141 0.77267 0.0
O943 O 0.68996 0.3164 0.72128 0.0
O944 O 0.69262 0.31802 0.62981 0.0
H945 H 0.67064 0.33902 0.53765 0.0
H946 H 0.65768 0.34047 0.54639 0.0
C947 C 0.66392 0.33553 0.55363 0.0
H948 H 0.66264 0.32875 0.52955 0.0
H949 H 0.69035 0.33152 0.52863 0.0
O950 O 0.67316 0.31549 0.80894 0.0
C951 C 0.69574 0.31764 0.68018 0.0
Co952 Co 0.42678 0.06858 0.52356 0.0
Co953 Co 0.42688 0.06324 0.65201 0.0
C954 C 0.44463 0.07103 0.59261 0.0
O955 O 0.44016 0.07192 0.54595 0.0
O956 O 0.44038 0.06767 0.63615 0.0
C957 C 0.42915 0.07857 0.41596 0.0
O958 O 0.43565 0.08408 0.44103 0.0
C959 C 0.42814 0.06677 0.77491 0.0
C960 C 0.41944 0.05445 0.80696 0.0
C961 C 0.42448 0.06266 0.8242 0.0
N962 N 0.4252 0.06131 0.73102 0.0
N963 N 0.42008 0.05392 0.75063 0.0
C964 C 0.43454 0.07553 0.76925 0.0
H965 H 0.43867 0.07533 0.72938 0.0
H966 H 0.42999 0.08219 0.76892 0.0
H967 H 0.43971 0.07597 0.80503 0.0
C968 C 0.41059 0.08113 0.56054 0.0
N969 N 0.41768 0.07465 0.57118 0.0
N970 N 0.41758 0.07239 0.62503 0.0
C971 C 0.41034 0.07734 0.65033 0.0
C972 C 0.40572 0.08306 0.61036 0.0
C973 C 0.40886 0.08565 0.50412 0.0
H974 H 0.41576 0.0888 0.4883 0.0
H975 H 0.40327 0.09145 0.50588 0.0
H976 H 0.40652 0.07993 0.47404 0.0
O977 O 0.42502 0.05436 0.5253 0.0
O978 O 0.4248 0.05043 0.61574 0.0
H979 H 0.40718 0.06836 0.72168 0.0
H980 H 0.40027 0.07949 0.71937 0.0
C981 C 0.40748 0.07619 0.71073 0.0
H982 H 0.41298 0.07976 0.7378 0.0
H983 H 0.41687 0.0486 0.7254 0.0
O984 O 0.42464 0.07214 0.44408 0.0
C985 C 0.42428 0.04803 0.56411 0.0
Co986 Co 0.67678 0.67939 0.27693 0.0
Co987 Co 0.67943 0.67655 0.40661 0.0
C988 C 0.67263 0.69547 0.35832 0.0
O989 O 0.67285 0.69211 0.30835 0.0
O990 O 0.6751 0.69027 0.40031 0.0
C991 C 0.66719 0.68274 0.16897 0.0
O992 O 0.65996 0.68661 0.19725 0.0
C993 C 0.6751 0.67653 0.52784 0.0
C994 C 0.68409 0.66419 0.55716 0.0
C995 C 0.67754 0.67118 0.57526 0.0
N996 N 0.67999 0.67285 0.48369 0.0
N997 N 0.68539 0.66553 0.50158 0.0
C998 C 0.66761 0.68438 0.52328 0.0
H999 H 0.66396 0.68404 0.48169 0.0
H1000 H 0.66209 0.68372 0.55712 0.0
H1001 H 0.67125 0.69156 0.52714 0.0
C1002 C 0.66404 0.66218 0.29211 0.0
N1003 N 0.67002 0.66913 0.31218 0.0
N1004 N 0.67084 0.66813 0.36706 0.0
C1005 C 0.6652 0.66065 0.38387 0.0
C1006 C 0.66077 0.6566 0.33688 0.0
C1007 C 0.66198 0.66061 0.23094 0.0
H1008 H 0.66869 0.66173 0.20599 0.0
H1009 H 0.65645 0.66595 0.21683 0.0
H1010 H 0.65919 0.65316 0.22293 0.0
O1011 O 0.69085 0.67751 0.28564 0.0
O1012 O 0.6929 0.67532 0.37726 0.0
H1013 H 0.67013 0.65413 0.46038 0.0
H1014 H 0.65718 0.65306 0.44914 0.0
C1015 C 0.66358 0.6579 0.4441 0.0
H1016 H 0.66235 0.66453 0.4695 0.0
H1017 H 0.68985 0.66134 0.47559 0.0
O1018 O 0.67452 0.67941 0.19518 0.0
C1019 C 0.69634 0.6759 0.32765 0.0
Co1020 Co 0.06422 0.92495 0.00615 0.0
Co1021 Co 0.06658 0.92828 0.13597 0.0
C1022 C 0.04796 0.92091 0.08631 0.0
O1023 O 0.05147 0.92091 0.03671 0.0
O1024 O 0.05299 0.92369 0.12831 0.0
C1025 C 0.06175 0.91469 0.89926 0.0
O1026 O 0.0591 0.90705 0.92874 0.0
C1027 C 0.06602 0.92402 0.25712 0.0
C1028 C 0.07724 0.93401 0.29012 0.0
C1029 C 0.07061 0.92696 0.30629 0.0
N1030 N 0.06976 0.92912 0.21397 0.0
N1031 N 0.07644 0.9351 0.23401 0.0
C1032 C 0.05886 0.91591 0.25024 0.0
H1033 H 0.05968 0.91249 0.20822 0.0
H1034 H 0.05986 0.91031 0.28341 0.0
H1035 H 0.05139 0.9189 0.25364 0.0
C1036 C 0.08183 0.91288 0.02528 0.0
N1037 N 0.07455 0.9186 0.04365 0.0
N1038 N 0.07533 0.91972 0.0985 0.0
C1039 C 0.083 0.91452 0.11699 0.0
C1040 C 0.08741 0.91007 0.07115 0.0
C1041 C 0.08379 0.91073 0.9646 0.0
H1042 H 0.08213 0.9172 0.93852 0.0
H1043 H 0.07906 0.90464 0.9508 0.0
H1044 H 0.09149 0.90862 0.95784 0.0
O1045 O 0.06577 0.93908 0.01336 0.0
O1046 O 0.06769 0.94167 0.10478 0.0
H1047 H 0.0889 0.92028 0.19325 0.0
H1048 H 0.09089 0.90737 0.18447 0.0
C1049 C 0.08566 0.9134 0.17774 0.0
H1050 H 0.07905 0.91184 0.20266 0.0
H1051 H 0.08051 0.93988 0.20927 0.0
O1052 O 0.06426 0.92246 0.92436 0.0
C1053 C 0.06717 0.94483 0.05448 0.0
Co1054 Co 0.81792 0.31411 0.76816 0.0
Co1055 Co 0.81354 0.31639 0.89724 0.0
C1056 C 0.82113 0.29771 0.84785 0.0
O1057 O 0.82159 0.30122 0.79829 0.0
O1058 O 0.81805 0.30277 0.88908 0.0
C1059 C 0.82789 0.31096 0.66022 0.0
O1060 O 0.83492 0.30671 0.6884 0.0
C1061 C 0.81779 0.31579 0.01822 0.0
C1062 C 0.80692 0.32601 0.05263 0.0
C1063 C 0.81452 0.31994 0.06793 0.0
N1064 N 0.81237 0.31923 0.97556 0.0
N1065 N 0.80585 0.32529 0.99646 0.0
C1066 C 0.82638 0.30924 0.01053 0.0
H1067 H 0.8296 0.3103 0.96816 0.0
H1068 H 0.83196 0.31065 0.04329 0.0
H1069 H 0.82396 0.30156 0.0142 0.0
C1070 C 0.83085 0.33088 0.79269 0.0
N1071 N 0.82427 0.32414 0.8083 0.0
N1072 N 0.82247 0.32507 0.86249 0.0
C1073 C 0.82792 0.33239 0.88313 0.0
C1074 C 0.83341 0.33628 0.8397 0.0
C1075 C 0.83502 0.33167 0.73472 0.0
H1076 H 0.82903 0.33212 0.70355 0.0
H1077 H 0.8393 0.32503 0.72552 0.0
H1078 H 0.83983 0.3381 0.73023 0.0
O1079 O 0.80374 0.31584 0.77292 0.0
O1080 O 0.80042 0.31775 0.86352 0.0
H1081 H 0.82008 0.33704 0.95608 0.0
H1082 H 0.83187 0.34261 0.94886 0.0
C1083 C 0.82771 0.33577 0.943 0.0
H1084 H 0.83085 0.33005 0.9704 0.0
H1085 H 0.80073 0.32903 0.97225 0.0
O1086 O 0.82069 0.31456 0.68646 0.0
C1087 C 0.79767 0.31728 0.81243 0.0
C1088 C 0.06175 0.58649 0.82038 0.0
C1089 C 0.06319 0.57776 0.85016 0.0
C1090 C 0.06175 0.58651 0.7614 0.0
C1091 C 0.05683 0.57097 0.64082 0.0
H1092 H 0.07516 0.58677 0.55686 0.0
C1093 C 0.05887 0.57013 0.39811 0.0
C1094 C 0.06821 0.56797 0.37783 0.0
C1095 C 0.05754 0.57286 0.45429 0.0
C1096 C 0.06994 0.58239 0.57984 0.0
H1097 H 0.06569 0.56224 0.84162 0.0
H1098 H 0.06546 0.56227 0.73914 0.0
H1099 H 0.074 0.58858 0.65942 0.0
H1100 H 0.08349 0.56718 0.39949 0.0
H1101 H 0.08118 0.57211 0.49746 0.0
H1102 H 0.05288 0.56464 0.56173 0.0
C1103 C 0.0644 0.56908 0.76131 0.0
C1104 C 0.06925 0.58347 0.63826 0.0
C1105 C 0.0646 0.56909 0.81996 0.0
C1106 C 0.07621 0.56883 0.41416 0.0
C1107 C 0.0749 0.57172 0.46999 0.0
C1108 C 0.0574 0.57002 0.58243 0.0
C1109 C 0.06297 0.57777 0.73151 0.0
C1110 C 0.06286 0.57759 0.66931 0.0
C1111 C 0.06554 0.5736 0.49083 0.0
C1112 C 0.06412 0.57556 0.55155 0.0
H1113 H 0.06068 0.59328 0.8426 0.0
H1114 H 0.06065 0.5933 0.73916 0.0
H1115 H 0.05182 0.56639 0.66396 0.0
H1116 H 0.05256 0.56935 0.37121 0.0
H1117 H 0.05024 0.57426 0.46943 0.0
C1118 C 0.67374 0.80924 0.65897 0.0
C1119 C 0.67566 0.81868 0.63935 0.0
C1120 C 0.67117 0.80769 0.71518 0.0
C1121 C 0.66165 0.81953 0.84249 0.0
H1122 H 0.67785 0.80115 0.92347 0.0
C1123 C 0.65755 0.81017 0.08139 0.0
C1124 C 0.66624 0.81152 0.11158 0.0
C1125 C 0.65758 0.81042 0.02243 0.0
C1126 C 0.67322 0.80624 0.90123 0.0
H1127 H 0.67624 0.83392 0.66239 0.0
H1128 H 0.6716 0.83123 0.76058 0.0
H1129 H 0.67957 0.80276 0.82148 0.0
H1130 H 0.68176 0.81406 0.10382 0.0
H1131 H 0.6818 0.81426 0.00133 0.0
H1132 H 0.65543 0.82311 0.92273 0.0
C1133 C 0.67204 0.82504 0.73247 0.0
C1134 C 0.67416 0.80712 0.84296 0.0
C1135 C 0.67476 0.82657 0.67652 0.0
C1136 C 0.67494 0.81303 0.08181 0.0
C1137 C 0.67499 0.81308 0.02315 0.0
C1138 C 0.6606 0.81853 0.90078 0.0
C1139 C 0.67037 0.81557 0.75254 0.0
C1140 C 0.66853 0.81392 0.8132 0.0
C1141 C 0.66632 0.8118 0.99293 0.0
C1142 C 0.66654 0.81203 0.93072 0.0
H1143 H 0.67458 0.80301 0.6315 0.0
H1144 H 0.66993 0.80032 0.7297 0.0
H1145 H 0.6572 0.8248 0.82041 0.0
H1146 H 0.65074 0.80902 0.10329 0.0
H1147 H 0.65081 0.80941 -0.00013 0.0
C1148 C 0.42477 0.43479 0.93595 0.0
C1149 C 0.42589 0.42796 0.89231 0.0
C1150 C 0.42488 0.43185 0.99211 0.0
C1151 C 0.43443 0.41509 0.09076 0.0
H1152 H 0.41139 0.42029 0.17991 0.0
C1153 C 0.43353 0.40765 0.33062 0.0
C1154 C 0.42896 0.41485 0.36326 0.0
C1155 C 0.43251 0.40763 0.27196 0.0
C1156 C 0.41792 0.41885 0.15586 0.0
H1157 H 0.42755 0.41252 0.87466 0.0
H1158 H 0.42839 0.40754 0.97296 0.0
H1159 H 0.41128 0.42369 0.07921 0.0
H1160 H 0.41963 0.42757 0.35998 0.0
H1161 H 0.41814 0.42775 0.2587 0.0
H1162 H 0.44133 0.41085 0.16761 0.0
C1163 C 0.42747 0.41518 0.96294 0.0
C1164 C 0.41781 0.42074 0.0982 0.0
C1165 C 0.42715 0.41809 0.90653 0.0
C1166 C 0.42321 0.42188 0.33623 0.0
C1167 C 0.42229 0.42193 0.27787 0.0
C1168 C 0.43462 0.41337 0.14879 0.0
C1169 C 0.42624 0.42204 0.00597 0.0
C1170 C 0.42611 0.41904 0.06549 0.0
C1171 C 0.42697 0.41486 0.2448 0.0
C1172 C 0.42643 0.41545 0.1823 0.0
H1173 H 0.42373 0.44244 0.92675 0.0
H1174 H 0.42393 0.43725 0.02486 0.0
H1175 H 0.44092 0.41376 0.06607 0.0
H1176 H 0.43797 0.4021 0.35028 0.0
H1177 H 0.43612 0.402 0.24792 0.0
C1178 C 0.81964 0.18431 0.16263 0.0
C1179 C 0.81735 0.17495 0.14287 0.0
C1180 C 0.82231 0.18572 0.21882 0.0
C1181 C 0.8314 0.17343 0.34584 0.0
H1182 H 0.81581 0.19226 0.42737 0.0
C1183 C 0.83562 0.18228 0.58534 0.0
C1184 C 0.82686 0.18119 0.61518 0.0
C1185 C 0.83565 0.18212 0.52637 0.0
C1186 C 0.82027 0.18705 0.40497 0.0
H1187 H 0.81624 0.15974 0.1656 0.0
H1188 H 0.82104 0.16218 0.26371 0.0
H1189 H 0.8141 0.19086 0.32527 0.0
H1190 H 0.81128 0.17918 0.6068 0.0
H1191 H 0.81132 0.17913 0.50429 0.0
H1192 H 0.83743 0.16951 0.42603 0.0
C1193 C 0.82081 0.1684 0.23575 0.0
C1194 C 0.81934 0.18629 0.34664 0.0
C1195 C 0.818 0.16701 0.17984 0.0
C1196 C 0.81815 0.18001 0.58505 0.0
C1197 C 0.81816 0.18004 0.5264 0.0
C1198 C 0.83245 0.17431 0.40419 0.0
C1199 C 0.82284 0.17779 0.256 0.0
C1200 C 0.82474 0.17933 0.31668 0.0
C1201 C 0.82689 0.18109 0.49653 0.0
C1202 C 0.82672 0.18097 0.43432 0.0
H1203 H 0.81901 0.19058 0.13529 0.0
H1204 H 0.82381 0.19303 0.23348 0.0
H1205 H 0.83566 0.16804 0.32359 0.0
H1206 H 0.84244 0.18318 0.60751 0.0
H1207 H 0.84247 0.18294 0.50408 0.0
C1208 C 0.06964 0.43354 0.56575 0.0
C1209 C 0.06852 0.4267 0.60927 0.0
C1210 C 0.06953 0.43063 0.50958 0.0
C1211 C 0.05996 0.41362 0.41161 0.0
H1212 H 0.08237 0.41997 0.31961 0.0
C1213 C 0.06026 0.40691 0.17081 0.0
C1214 C 0.06432 0.41445 0.13855 0.0
C1215 C 0.06147 0.40675 0.22934 0.0
C1216 C 0.07602 0.41821 0.34452 0.0
H1217 H 0.0669 0.41124 0.62678 0.0
H1218 H 0.06608 0.4063 0.52843 0.0
H1219 H 0.0828 0.42313 0.42054 0.0
H1220 H 0.07292 0.42768 0.14234 0.0
H1221 H 0.07475 0.42759 0.24342 0.0
H1222 H 0.05291 0.40927 0.33539 0.0
C1223 C 0.06699 0.41393 0.53853 0.0
C1224 C 0.07631 0.41995 0.40227 0.0
C1225 C 0.0673 0.41682 0.59496 0.0
C1226 C 0.06973 0.42173 0.16579 0.0
C1227 C 0.07086 0.42162 0.22399 0.0
C1228 C 0.05959 0.41203 0.3535 0.0
C1229 C 0.06819 0.42081 0.49559 0.0
C1230 C 0.06822 0.41786 0.43599 0.0
C1231 C 0.06672 0.41417 0.25666 0.0
C1232 C 0.06753 0.41454 0.31905 0.0
H1233 H 0.07064 0.44119 0.57504 0.0
H1234 H 0.07045 0.43605 0.47691 0.0
H1235 H 0.05364 0.41198 0.43708 0.0
H1236 H 0.05608 0.40117 0.15097 0.0
H1237 H 0.05827 0.40084 0.25314 0.0
C1238 C 0.82003 0.81021 0.83902 0.0
C1239 C 0.81575 0.81888 0.85811 0.0
C1240 C 0.82289 0.80926 0.78281 0.0
C1241 C 0.82821 0.82345 0.6537 0.0
H1242 H 0.82086 0.7997 0.57659 0.0
C1243 C 0.82489 0.8207 0.4125 0.0
C1244 C 0.82738 0.8119 0.38608 0.0
C1245 C 0.82512 0.82151 0.47108 0.0
C1246 C 0.82314 0.80631 0.59762 0.0
H1247 H 0.81106 0.83332 0.83342 0.0
H1248 H 0.81595 0.83162 0.73533 0.0
H1249 H 0.81818 0.80113 0.6775 0.0
H1250 H 0.83253 0.79718 0.40038 0.0
H1251 H 0.83303 0.79863 0.50264 0.0
H1252 H 0.83298 0.8287 0.57348 0.0
C1253 C 0.81728 0.82563 0.76389 0.0
C1254 C 0.82159 0.80713 0.65552 0.0
C1255 C 0.8144 0.82657 0.81996 0.0
C1256 C 0.83051 0.80405 0.41941 0.0
C1257 C 0.83074 0.80486 0.47804 0.0
C1258 C 0.82977 0.82262 0.59577 0.0
C1259 C 0.8215 0.81694 0.74455 0.0
C1260 C 0.82396 0.81577 0.68406 0.0
C1261 C 0.82786 0.81353 0.5046 0.0
C1262 C 0.8271 0.8141 0.5669 0.0
H1263 H 0.82092 0.80406 0.8669 0.0
H1264 H 0.82614 0.80247 0.76921 0.0
H1265 H 0.83026 0.83014 0.67466 0.0
H1266 H 0.82247 0.8269 0.38807 0.0
H1267 H 0.82277 0.82826 0.49015 0.0
C1268 C 0.42821 0.56863 0.67504 0.0
C1269 C 0.4301 0.57718 0.64455 0.0
C1270 C 0.42841 0.56867 0.73368 0.0
C1271 C 0.42443 0.58348 0.85615 0.0
H1272 H 0.43953 0.56373 0.93356 0.0
C1273 C 0.41645 0.56951 0.0805 0.0
C1274 C 0.42436 0.56816 0.11697 0.0
C1275 C 0.41797 0.57228 0.02465 0.0
C1276 C 0.43538 0.56936 0.9126 0.0
H1277 H 0.43353 0.59253 0.65161 0.0
H1278 H 0.43358 0.59264 0.75503 0.0
H1279 H 0.44074 0.56529 0.83129 0.0
H1280 H 0.44007 0.56854 0.12383 0.0
H1281 H 0.44275 0.57323 0.02558 0.0
H1282 H 0.41873 0.58724 0.93735 0.0
C1283 C 0.43208 0.58591 0.73301 0.0
C1284 C 0.43603 0.57021 0.85419 0.0
C1285 C 0.43206 0.58583 0.67404 0.0
C1286 C 0.43383 0.56971 0.09682 0.0
C1287 C 0.43537 0.57232 0.04063 0.0
C1288 C 0.42366 0.58251 0.9146 0.0
C1289 C 0.43035 0.57729 0.76319 0.0
C1290 C 0.43044 0.57717 0.8254 0.0
C1291 C 0.42745 0.57355 0.00394 0.0
C1292 C 0.42902 0.57535 0.9432 0.0
H1293 H 0.42671 0.56184 0.65359 0.0
H1294 H 0.42696 0.56195 0.75607 0.0
H1295 H 0.42003 0.58886 0.83475 0.0
H1296 H 0.40908 0.56833 0.09508 0.0
H1297 H 0.41175 0.57305 0.99706 0.0
C1298 C 0.66603 0.19081 0.92559 0.0
C1299 C 0.66703 0.18282 0.88909 0.0
C1300 C 0.66592 0.18943 0.98387 0.0
C1301 C 0.67555 0.17266 0.08836 0.0
H1302 H 0.65907 0.18656 0.1935 0.0
C1303 C 0.67913 0.16651 0.32617 0.0
C1304 C 0.67854 0.17473 0.36099 0.0
C1305 C 0.6765 0.1671 0.26957 0.0
C1306 C 0.66379 0.1827 0.16468 0.0
H1307 H 0.66809 0.16708 0.88501 0.0
H1308 H 0.66793 0.1647 0.98664 0.0
H1309 H 0.65635 0.18833 0.09229 0.0
H1310 H 0.67493 0.19006 0.36399 0.0
H1311 H 0.67052 0.19118 0.26474 0.0
H1312 H 0.68323 0.16729 0.15991 0.0
C1313 C 0.66735 0.17203 0.97015 0.0
C1314 C 0.6622 0.18368 0.1068 0.0
C1315 C 0.66741 0.1734 0.91195 0.0
C1316 C 0.67524 0.18356 0.33833 0.0
C1317 C 0.67271 0.18419 0.28146 0.0
C1318 C 0.6772 0.17174 0.14601 0.0
C1319 C 0.66685 0.18005 0.00669 0.0
C1320 C 0.66809 0.17868 0.06812 0.0
C1321 C 0.6734 0.17598 0.24624 0.0
C1322 C 0.67136 0.17676 0.18495 0.0
H1323 H 0.66568 0.19816 0.90929 0.0
H1324 H 0.66557 0.19575 0.01106 0.0
H1325 H 0.68034 0.16887 0.05952 0.0
H1326 H 0.68161 0.1596 0.34278 0.0
H1327 H 0.67695 0.16059 0.24403 0.0
C1328 C 0.93405 0.40864 0.17682 0.0
C1329 C 0.92937 0.41573 0.14389 0.0
C1330 C 0.93285 0.40855 0.23538 0.0
C1331 C 0.91711 0.41858 0.34894 0.0
H1332 H 0.93998 0.41546 0.44268 0.0
C1333 C 0.91968 0.434 0.57232 0.0
C1334 C 0.92309 0.42777 0.61478 0.0
C1335 C 0.92025 0.43125 0.51591 0.0
C1336 C 0.93352 0.41623 0.41698 0.0
H1337 H 0.91965 0.42818 0.14653 0.0
H1338 H 0.91777 0.42816 0.24763 0.0
H1339 H 0.94116 0.41264 0.34127 0.0
H1340 H 0.92926 0.41352 0.63147 0.0
H1341 H 0.93069 0.40894 0.5324 0.0
H1342 H 0.9096 0.42261 0.42431 0.0
C1343 C 0.9222 0.42253 0.22866 0.0
C1344 C 0.93417 0.41457 0.35902 0.0
C1345 C 0.92336 0.4226 0.17049 0.0
C1346 C 0.927 0.41868 0.59968 0.0
C1347 C 0.92771 0.41599 0.54307 0.0
C1348 C 0.9165 0.42035 0.4066 0.0
C1349 C 0.92695 0.41555 0.26193 0.0
C1350 C 0.92602 0.41597 0.32416 0.0
C1351 C 0.92426 0.42223 0.5008 0.0
C1352 C 0.92474 0.41939 0.44089 0.0
H1353 H 0.9387 0.40324 0.15752 0.0
H1354 H 0.93655 0.40303 0.25981 0.0
H1355 H 0.91063 0.41949 0.32355 0.0
H1356 H 0.91654 0.441 0.58273 0.0
H1357 H 0.9176 0.43622 0.48399 0.0
C1358 C 0.33698 0.18329 0.93989 0.0
C1359 C 0.32856 0.18106 0.90897 0.0
C1360 C 0.33712 0.18213 0.99848 0.0
C1361 C 0.33308 0.18426 0.12497 0.0
H1362 H 0.31869 0.16253 0.18725 0.0
C1363 C 0.32033 0.18286 0.35651 0.0
C1364 C 0.31944 0.17375 0.38254 0.0
C1365 C 0.32307 0.1835 0.29996 0.0
C1366 C 0.3229 0.16855 0.17089 0.0
H1367 H 0.31362 0.17605 0.91536 0.0
H1368 H 0.31379 0.17425 0.0166 0.0
H1369 H 0.32065 0.16385 0.08633 0.0
H1370 H 0.32108 0.15821 0.37139 0.0
H1371 H 0.32621 0.1593 0.27345 0.0
H1372 H 0.33545 0.18886 0.21001 0.0
C1373 C 0.32039 0.17665 0.99592 0.0
C1374 C 0.32389 0.16939 0.11277 0.0
C1375 C 0.32028 0.17775 0.93773 0.0
C1376 C 0.32164 0.16531 0.35193 0.0
C1377 C 0.32453 0.16595 0.29579 0.0
C1378 C 0.33215 0.18338 0.18341 0.0
C1379 C 0.32882 0.17873 0.02702 0.0
C1380 C 0.32878 0.17737 0.08902 0.0
C1381 C 0.32505 0.17504 0.26863 0.0
C1382 C 0.32689 0.1756 0.20702 0.0
H1383 H 0.34349 0.18585 0.91887 0.0
H1384 H 0.34374 0.18375 0.02127 0.0
H1385 H 0.33687 0.19052 0.10799 0.0
H1386 H 0.31853 0.18946 0.37916 0.0
H1387 H 0.32323 0.19061 0.28031 0.0
C1388 C 0.55993 0.58679 0.66237 0.0
C1389 C 0.56446 0.57951 0.63021 0.0
C1390 C 0.56098 0.58694 0.721 0.0
C1391 C 0.57567 0.57603 0.83748 0.0
H1392 H 0.55268 0.58108 0.92741 0.0
C1393 C 0.56908 0.56016 0.05743 0.0
C1394 C 0.56777 0.56695 0.10105 0.0
C1395 C 0.56896 0.56311 0.0013 0.0
C1396 C 0.55917 0.57977 0.90268 0.0
H1397 H 0.57376 0.56676 0.63429 0.0
H1398 H 0.57532 0.56683 0.73554 0.0
H1399 H 0.55221 0.58388 0.82576 0.0
H1400 H 0.56577 0.58235 0.11883 0.0
H1401 H 0.56493 0.58733 0.02051 0.0
H1402 H 0.58238 0.57133 0.9142 0.0
C1403 C 0.57117 0.57261 0.71598 0.0
C1404 C 0.55894 0.58142 0.84459 0.0
C1405 C 0.5702 0.57252 0.65766 0.0
C1406 C 0.56632 0.5768 0.0869 0.0
C1407 C 0.56599 0.57972 0.03051 0.0
C1408 C 0.57582 0.57422 0.89521 0.0
C1409 C 0.56653 0.57977 0.74857 0.0
C1410 C 0.56712 0.57933 0.81106 0.0
C1411 C 0.56742 0.5729 0.98747 0.0
C1412 C 0.56752 0.5759 0.92796 0.0
H1413 H 0.55549 0.59231 0.64237 0.0
H1414 H 0.5574 0.59264 0.74469 0.0
H1415 H 0.58219 0.5746 0.81335 0.0
H1416 H 0.57026 0.55253 0.06661 0.0
H1417 H 0.57005 0.55773 0.96855 0.0
C1418 C 0.18039 0.82717 0.82686 0.0
C1419 C 0.17952 0.81898 0.86171 0.0
C1420 C 0.17774 0.82668 0.77025 0.0
C1421 C 0.16437 0.81156 0.66562 0.0
H1422 H 0.18108 0.82503 0.5598 0.0
C1423 C 0.16586 0.80364 0.42608 0.0
C1424 C 0.16698 0.81163 0.38968 0.0
C1425 C 0.16592 0.80497 0.48441 0.0
C1426 C 0.17626 0.82135 0.58884 0.0
H1427 H 0.17538 0.80379 0.86463 0.0
H1428 H 0.17091 0.80283 0.7654 0.0
H1429 H 0.18423 0.82641 0.66006 0.0
H1430 H 0.16849 0.82734 0.38593 0.0
H1431 H 0.16864 0.82962 0.4877 0.0
H1432 H 0.15663 0.80623 0.59354 0.0
C1433 C 0.17335 0.80974 0.7821 0.0
C1434 C 0.17805 0.82215 0.64643 0.0
C1435 C 0.17592 0.81027 0.83899 0.0
C1436 C 0.16767 0.82102 0.41278 0.0
C1437 C 0.16781 0.82233 0.47105 0.0
C1438 C 0.16264 0.81069 0.60781 0.0
C1439 C 0.17431 0.81792 0.74689 0.0
C1440 C 0.17215 0.81725 0.68563 0.0
C1441 C 0.16717 0.8143 0.50744 0.0
C1442 C 0.16858 0.81556 0.56887 0.0
H1443 H 0.18311 0.834 0.84347 0.0
H1444 H 0.1784 0.83318 0.74478 0.0
H1445 H 0.1596 0.8078 0.6946 0.0
H1446 H 0.16527 0.79632 0.40962 0.0
H1447 H 0.16546 0.79864 0.51144 0.0
C1448 C 0.93281 0.58652 0.82243 0.0
C1449 C 0.92874 0.57896 0.85451 0.0
C1450 C 0.93162 0.58671 0.76389 0.0
C1451 C 0.91714 0.57531 0.6483 0.0
H1452 H 0.93961 0.58147 0.55635 0.0
C1453 C 0.92355 0.55995 0.42728 0.0
C1454 C 0.92484 0.56677 0.38382 0.0
C1455 C 0.92362 0.56287 0.48344 0.0
C1456 C 0.93326 0.57985 0.58164 0.0
H1457 H 0.92014 0.56573 0.85041 0.0
H1458 H 0.91835 0.56587 0.74929 0.0
H1459 H 0.94027 0.58418 0.65805 0.0
H1460 H 0.92672 0.58219 0.36618 0.0
H1461 H 0.92747 0.58714 0.46462 0.0
H1462 H 0.91041 0.57041 0.57211 0.0
C1463 C 0.92223 0.57183 0.76888 0.0
C1464 C 0.93359 0.58144 0.63976 0.0
C1465 C 0.92334 0.5717 0.82709 0.0
C1466 C 0.92619 0.57663 0.3981 0.0
C1467 C 0.92646 0.57952 0.45452 0.0
C1468 C 0.91689 0.57356 0.59054 0.0
C1469 C 0.92639 0.5793 0.73638 0.0
C1470 C 0.92562 0.57895 0.67399 0.0
C1471 C 0.92508 0.57267 0.49745 0.0
C1472 C 0.92501 0.57563 0.55704 0.0
H1473 H 0.93698 0.59225 0.84241 0.0
H1474 H 0.93483 0.59262 0.74022 0.0
H1475 H 0.91077 0.57356 0.67305 0.0
H1476 H 0.92244 0.55231 0.41794 0.0
H1477 H 0.92257 0.55747 0.51608 0.0
C1478 C 0.15665 0.18122 0.57511 0.0
C1479 C 0.16534 0.17972 0.60502 0.0
C1480 C 0.15666 0.18128 0.51613 0.0
C1481 C 0.17221 0.18645 0.39632 0.0
H1482 H 0.15667 0.16813 0.3107 0.0
C1483 C 0.17319 0.18488 0.1534 0.0
C1484 C 0.17555 0.1756 0.13276 0.0
C1485 C 0.1704 0.18608 0.20958 0.0
C1486 C 0.16097 0.17334 0.33415 0.0
H1487 H 0.18085 0.17715 0.59668 0.0
H1488 H 0.18087 0.17749 0.4942 0.0
H1489 H 0.15476 0.16907 0.41329 0.0
H1490 H 0.17662 0.1603 0.15372 0.0
H1491 H 0.17157 0.16238 0.25166 0.0
H1492 H 0.17856 0.19062 0.31765 0.0
C1493 C 0.17406 0.17854 0.51629 0.0
C1494 C 0.15984 0.17391 0.39258 0.0
C1495 C 0.17402 0.17829 0.57493 0.0
C1496 C 0.17482 0.16753 0.16869 0.0
C1497 C 0.17187 0.1687 0.22449 0.0
C1498 C 0.17321 0.18601 0.33792 0.0
C1499 C 0.1654 0.18006 0.48638 0.0
C1500 C 0.16563 0.1803 0.42421 0.0
C1501 C 0.16979 0.17801 0.24571 0.0
C1502 C 0.16776 0.1793 0.30644 0.0
H1503 H 0.14985 0.18232 0.59723 0.0
H1504 H 0.1499 0.18245 0.49378 0.0
H1505 H 0.17673 0.19145 0.41993 0.0
H1506 H 0.17385 0.19124 0.12677 0.0
H1507 H 0.16885 0.19333 0.22506 0.0
C1508 C 0.57683 0.42616 0.9189 0.0
C1509 C 0.56882 0.42724 0.88287 0.0
C1510 C 0.57551 0.42326 0.97471 0.0
C1511 C 0.55827 0.42535 0.08806 0.0
H1512 H 0.57422 0.406 0.16319 0.0
C1513 C 0.56583 0.4255 0.32537 0.0
C1514 C 0.56391 0.41686 0.35507 0.0
C1515 C 0.56564 0.42562 0.26672 0.0
C1516 C 0.56966 0.41135 0.14255 0.0
H1517 H 0.55313 0.42625 0.87676 0.0
H1518 H 0.55079 0.42136 0.97504 0.0
H1519 H 0.57533 0.40797 0.06068 0.0
H1520 H 0.5605 0.40153 0.34657 0.0
H1521 H 0.56049 0.40171 0.2431 0.0
H1522 H 0.55295 0.42904 0.17008 0.0
C1523 C 0.5581 0.42258 0.95964 0.0
C1524 C 0.57032 0.4125 0.08416 0.0
C1525 C 0.55945 0.42531 0.90345 0.0
C1526 C 0.56198 0.40829 0.32475 0.0
C1527 C 0.56199 0.40838 0.26577 0.0
C1528 C 0.55774 0.42431 0.14643 0.0
C1529 C 0.56612 0.4216 0.99585 0.0
C1530 C 0.56472 0.41961 0.05654 0.0
C1531 C 0.5637 0.41709 0.23641 0.0
C1532 C 0.56353 0.4174 0.17423 0.0
H1533 H 0.58413 0.42763 0.90398 0.0
H1534 H 0.5818 0.42268 0.00193 0.0
H1535 H 0.55394 0.43093 0.06787 0.0
H1536 H 0.56731 0.43224 0.34744 0.0
H1537 H 0.56708 0.4324 0.24495 0.0
C1538 C 0.33456 0.81063 0.08699 0.0
C1539 C 0.32624 0.81335 0.11753 0.0
C1540 C 0.33482 0.81176 0.02841 0.0
C1541 C 0.33082 0.80974 0.90191 0.0
H1542 H 0.3177 0.83215 0.83832 0.0
C1543 C 0.31827 0.81151 0.67015 0.0
C1544 C 0.31783 0.82063 0.64379 0.0
C1545 C 0.32099 0.8108 0.7267 0.0
C1546 C 0.32156 0.82593 0.85504 0.0
H1547 H 0.31163 0.81921 0.11048 0.0
H1548 H 0.31202 0.82096 0.00921 0.0
H1549 H 0.31951 0.83085 0.93933 0.0
H1550 H 0.32027 0.83608 0.65423 0.0
H1551 H 0.32539 0.83485 0.75214 0.0
H1552 H 0.33301 0.80492 0.81715 0.0
C1553 C 0.31844 0.8182 0.0302 0.0
C1554 C 0.32246 0.82511 0.91322 0.0
C1555 C 0.31819 0.81713 0.0884 0.0
C1556 C 0.32048 0.82897 0.67398 0.0
C1557 C 0.32336 0.82826 0.7301 0.0
C1558 C 0.33 0.8106 0.84341 0.0
C1559 C 0.32677 0.81561 -0.00053 0.0
C1560 C 0.32687 0.8169 0.93744 0.0
C1561 C 0.3234 0.8192 0.75767 0.0
C1562 C 0.32519 0.81863 0.81932 0.0
H1563 H 0.34087 0.80771 0.10831 0.0
H1564 H 0.34137 0.80975 0.00592 0.0
H1565 H 0.33424 0.80331 0.91925 0.0
H1566 H 0.31612 0.80499 0.64777 0.0
H1567 H 0.32079 0.80372 0.74665 0.0
C1568 C 0.56618 0.07621 0.88497 0.0
C1569 C 0.5698 0.06699 0.86992 0.0
C1570 C 0.56553 0.07891 0.94159 0.0
C1571 C 0.57655 0.07419 0.07801 0.0
H1572 H 0.55202 0.08214 0.14393 0.0
C1573 C 0.56953 0.07109 0.31333 0.0
C1574 C 0.56373 0.07802 0.34093 0.0
C1575 C 0.57068 0.07138 0.2552 0.0
C1576 C 0.55897 0.08014 0.12601 0.0
H1577 H 0.57586 0.05354 0.90212 0.0
H1578 H 0.57492 0.05835 0.00077 0.0
H1579 H 0.55317 0.07958 0.04223 0.0
H1580 H 0.55475 0.09083 0.32915 0.0
H1581 H 0.55689 0.0914 0.22687 0.0
H1582 H 0.58241 0.07468 0.16117 0.0
C1583 C 0.57246 0.0634 0.96882 0.0
C1584 C 0.55961 0.07864 0.0679 0.0
C1585 C 0.57297 0.06065 0.91244 0.0
C1586 C 0.55924 0.08537 0.30904 0.0
C1587 C 0.56043 0.08567 0.25052 0.0
C1588 C 0.57596 0.07579 0.1358 0.0
C1589 C 0.56875 0.07255 0.98387 0.0
C1590 C 0.56833 0.07537 0.04379 0.0
C1591 C 0.56614 0.07864 0.22298 0.0
C1592 C 0.56709 0.07847 0.16076 0.0
H1593 H 0.56412 0.08145 0.85317 0.0
H1594 H 0.56277 0.08605 0.95228 0.0
H1595 H 0.58341 0.07183 0.06012 0.0
H1596 H 0.57308 0.06531 0.33649 0.0
H1597 H 0.57496 0.06572 0.23538 0.0
C1598 C 0.17188 0.32845 0.14118 0.0
C1599 C 0.17431 0.32005 0.11091 0.0
C1600 C 0.16897 0.3278 0.19726 0.0
C1601 C 0.16168 0.31029 0.31 0.0
H1602 H 0.1725 0.33025 0.40676 0.0
C1603 C 0.17315 0.31649 0.55584 0.0
C1604 C 0.16496 0.3129 0.58442 0.0
C1605 C 0.17304 0.31757 0.49765 0.0
C1606 C 0.16945 0.32459 0.38041 0.0
H1607 H 0.17559 0.30437 0.1148 0.0
H1608 H 0.17085 0.3032 0.2136 0.0
H1609 H 0.17456 0.33151 0.30589 0.0
H1610 H 0.15021 0.30762 0.57419 0.0
H1611 H 0.14996 0.30969 0.47178 0.0
H1612 H 0.15709 0.3031 0.3855 0.0
C1613 C 0.17086 0.31029 0.19372 0.0
C1614 C 0.1705 0.32539 0.3223 0.0
C1615 C 0.17362 0.31094 0.13721 0.0
C1616 C 0.15664 0.31039 0.55331 0.0
C1617 C 0.15651 0.31154 0.49471 0.0
C1618 C 0.16071 0.30945 0.36844 0.0
C1619 C 0.16865 0.31873 0.22472 0.0
C1620 C 0.16675 0.31819 0.28629 0.0
C1621 C 0.16471 0.3152 0.46633 0.0
C1622 C 0.16477 0.3165 0.40429 0.0
H1623 H 0.17228 0.33555 0.12149 0.0
H1624 H 0.16711 0.33444 0.21931 0.0
H1625 H 0.15857 0.30469 0.2835 0.0
H1626 H 0.17973 0.3184 0.57835 0.0
H1627 H 0.17957 0.32018 0.47711 0.0
C1628 C 0.92755 0.91843 0.39331 0.0
C1629 C 0.92337 0.92738 0.37792 0.0
C1630 C 0.92837 0.91583 0.45001 0.0
C1631 C 0.91723 0.9202 0.58689 0.0
H1632 H 0.94214 0.91303 0.65116 0.0
C1633 C 0.92458 0.92319 0.82206 0.0
C1634 C 0.93057 0.91634 0.84897 0.0
C1635 C 0.92336 0.923 0.76396 0.0
C1636 C 0.93509 0.91481 0.6337 0.0
H1637 H 0.91646 0.94045 0.4095 0.0
H1638 H 0.91774 0.93585 0.50841 0.0
H1639 H 0.94072 0.91561 0.54963 0.0
H1640 H 0.93986 0.9038 0.83597 0.0
H1641 H 0.93763 0.9034 0.73371 0.0
H1642 H 0.91156 0.91947 0.67042 0.0
C1643 C 0.92049 0.93091 0.47666 0.0
C1644 C 0.9343 0.91633 0.57568 0.0
C1645 C 0.9198 0.93356 0.42016 0.0
C1646 C 0.93522 0.90918 0.81641 0.0
C1647 C 0.93397 0.90898 0.7579 0.0
C1648 C 0.91799 0.91859 0.64462 0.0
C1649 C 0.92478 0.92203 0.49208 0.0
C1650 C 0.92542 0.91931 0.55212 0.0
C1651 C 0.92805 0.91593 0.73109 0.0
C1652 C 0.92699 0.91618 0.66895 0.0
H1653 H 0.92995 0.9133 0.36168 0.0
H1654 H 0.93157 0.90888 0.46091 0.0
H1655 H 0.91026 0.92231 0.56949 0.0
H1656 H 0.9209 0.92883 0.84574 0.0
H1657 H 0.91891 0.92859 0.74468 0.0
C1658 C 0.31849 0.6825 0.663 0.0
C1659 C 0.31787 0.67338 0.63679 0.0
C1660 C 0.32124 0.6832 0.71951 0.0
C1661 C 0.3217 0.66813 0.84823 0.0
H1662 H 0.33484 0.69058 0.91139 0.0
C1663 C 0.33528 0.68337 0.07929 0.0
C1664 C 0.32698 0.68076 0.11032 0.0
C1665 C 0.33545 0.6822 0.02071 0.0
C1666 C 0.33129 0.68419 0.89434 0.0
H1667 H 0.32003 0.6579 0.64752 0.0
H1668 H 0.3252 0.65908 0.74536 0.0
H1669 H 0.33343 0.68894 0.80939 0.0
H1670 H 0.31229 0.67507 0.10411 0.0
H1671 H 0.3125 0.67327 0.00288 0.0
H1672 H 0.3197 0.66328 0.93271 0.0
C1673 C 0.32328 0.6657 0.72323 0.0
C1674 C 0.33037 0.68331 0.8359 0.0
C1675 C 0.32037 0.66501 0.66715 0.0
C1676 C 0.31885 0.67707 0.08167 0.0
C1677 C 0.31899 0.67596 0.02348 0.0
C1678 C 0.32271 0.66896 0.90635 0.0
C1679 C 0.32352 0.67478 0.75061 0.0
C1680 C 0.32539 0.67536 0.81219 0.0
C1681 C 0.3273 0.67843 0.99225 0.0
C1682 C 0.32728 0.67711 0.93022 0.0
H1683 H 0.31646 0.68905 0.64051 0.0
H1684 H 0.32118 0.69029 0.7393 0.0
H1685 H 0.31771 0.66196 0.83183 0.0
H1686 H 0.34167 0.68623 0.10023 0.0
H1687 H 0.34198 0.68412 0.99785 0.0
C1688 C 0.57228 0.9333 0.0741 0.0
C1689 C 0.5692 0.92695 0.11681 0.0
C1690 C 0.5718 0.9305 0.01778 0.0
C1691 C 0.55909 0.91512 0.91897 0.0
H1692 H 0.58201 0.91873 0.8263 0.0
C1693 C 0.55879 0.90775 0.67859 0.0
C1694 C 0.56345 0.91489 0.64596 0.0
C1695 C 0.55995 0.90761 0.73716 0.0
C1696 C 0.57552 0.91773 0.85146 0.0
H1697 H 0.56371 0.91243 0.13386 0.0
H1698 H 0.56237 0.90775 0.0349 0.0
H1699 H 0.5829 0.92187 0.9271 0.0
H1700 H 0.57311 0.92739 0.64917 0.0
H1701 H 0.57492 0.92729 0.7503 0.0
H1702 H 0.55156 0.91146 0.84301 0.0
C1703 C 0.56505 0.91493 0.04541 0.0
C1704 C 0.57606 0.91949 0.90914 0.0
C1705 C 0.56569 0.91768 0.10196 0.0
C1706 C 0.56942 0.92176 0.67289 0.0
C1707 C 0.57054 0.92165 0.73108 0.0
C1708 C 0.55851 0.91348 0.86097 0.0
C1709 C 0.56818 0.9213 0.00296 0.0
C1710 C 0.5678 0.91841 0.94314 0.0
C1711 C 0.56579 0.91462 0.76407 0.0
C1712 C 0.56667 0.91501 0.82636 0.0
H1713 H 0.5751 0.94045 0.08425 0.0
H1714 H 0.5742 0.93555 0.98567 0.0
H1715 H 0.55262 0.91425 0.9445 0.0
H1716 H 0.55417 0.90234 0.65902 0.0
H1717 H 0.55627 0.90205 0.76134 0.0
C1718 C 0.32224 0.32958 0.3503 0.0
C1719 C 0.31995 0.32119 0.38114 0.0
C1720 C 0.32504 0.32888 0.29405 0.0
C1721 C 0.33226 0.31134 0.18156 0.0
H1722 H 0.3206 0.33083 0.08483 0.0
C1723 C 0.3198 0.31678 0.93677 0.0
C1724 C 0.32803 0.3135 0.90742 0.0
C1725 C 0.32004 0.3179 0.99493 0.0
C1726 C 0.32389 0.3253 0.11119 0.0
H1727 H 0.31881 0.3055 0.37802 0.0
H1728 H 0.32339 0.30424 0.27904 0.0
H1729 H 0.31892 0.33226 0.1859 0.0
H1730 H 0.34299 0.30876 0.91622 0.0
H1731 H 0.34347 0.31088 0.01856 0.0
H1732 H 0.33674 0.30411 0.10597 0.0
C1733 C 0.32335 0.31135 0.2986 0.0
C1734 C 0.32305 0.3262 0.16936 0.0
C1735 C 0.32069 0.31206 0.35523 0.0
C1736 C 0.33653 0.3113 0.93771 0.0
C1737 C 0.33679 0.31247 0.99626 0.0
C1738 C 0.33303 0.31039 0.12309 0.0
C1739 C 0.32539 0.31978 0.26704 0.0
C1740 C 0.3271 0.31916 0.20535 0.0
C1741 C 0.32856 0.31586 0.02538 0.0
C1742 C 0.32867 0.31727 0.0873 0.0
H1743 H 0.32179 0.33671 0.36965 0.0
H1744 H 0.32676 0.3355 0.27147 0.0
H1745 H 0.33558 0.30586 0.20807 0.0
H1746 H 0.31309 0.31846 0.91488 0.0
H1747 H 0.31349 0.3203 0.01613 0.0
C1748 C 0.92603 0.07648 0.60349 0.0
C1749 C 0.92305 0.06704 0.61849 0.0
C1750 C 0.92659 0.0792 0.54688 0.0
C1751 C 0.91637 0.07364 0.40924 0.0
H1752 H 0.94046 0.08354 0.34647 0.0
C1753 C 0.92423 0.07166 0.17421 0.0
C1754 C 0.92962 0.07904 0.14772 0.0
C1755 C 0.92293 0.07169 0.23226 0.0
C1756 C 0.93361 0.08098 0.36347 0.0
H1757 H 0.91795 0.0532 0.58621 0.0
H1758 H 0.91874 0.05803 0.48746 0.0
H1759 H 0.93915 0.08079 0.44791 0.0
H1760 H 0.93771 0.09237 0.16146 0.0
H1761 H 0.93529 0.0925 0.26359 0.0
H1762 H 0.91078 0.0738 0.32543 0.0
C1763 C 0.92079 0.06325 0.51948 0.0
C1764 C 0.93289 0.07938 0.42146 0.0
C1765 C 0.92036 0.06049 0.5759 0.0
C1766 C 0.93355 0.08657 0.18069 0.0
C1767 C 0.9322 0.08662 0.23915 0.0
C1768 C 0.91705 0.07535 0.35156 0.0
C1769 C 0.92392 0.07262 0.50447 0.0
C1770 C 0.92436 0.07543 0.44449 0.0
C1771 C 0.9269 0.07914 0.26556 0.0
C1772 C 0.92577 0.07875 0.3277 0.0
H1773 H 0.92769 0.08185 0.63534 0.0
H1774 H 0.92889 0.08652 0.53627 0.0
H1775 H 0.90966 0.07076 0.42625 0.0
H1776 H 0.92112 0.06572 0.15024 0.0
H1777 H 0.91899 0.06569 0.25115 0.0
C1778 C 0.16871 0.69267 0.43637 0.0
C1779 C 0.1682 0.68463 0.39994 0.0
C1780 C 0.16841 0.69134 0.49464 0.0
C1781 C 0.17493 0.6731 0.59884 0.0
H1782 H 0.16129 0.68974 0.70432 0.0
C1783 C 0.17727 0.66642 0.83683 0.0
C1784 C 0.17818 0.67462 0.87149 0.0
C1785 C 0.17488 0.66746 0.7801 0.0
C1786 C 0.16521 0.68509 0.67538 0.0
H1787 H 0.16637 0.66895 0.39594 0.0
H1788 H 0.16587 0.66666 0.49754 0.0
H1789 H 0.15886 0.69197 0.60319 0.0
H1790 H 0.17758 0.69036 0.87412 0.0
H1791 H 0.17358 0.69224 0.7747 0.0
H1792 H 0.18154 0.66641 0.67024 0.0
C1793 C 0.16663 0.67397 0.48101 0.0
C1794 C 0.16379 0.68635 0.61758 0.0
C1795 C 0.16688 0.6753 0.42284 0.0
C1796 C 0.17669 0.68391 0.84853 0.0
C1797 C 0.17439 0.68497 0.7916 0.0
C1798 C 0.17641 0.67189 0.65643 0.0
C1799 C 0.16763 0.68194 0.51747 0.0
C1800 C 0.16866 0.68037 0.5788 0.0
C1801 C 0.17351 0.67676 0.75662 0.0
C1802 C 0.17161 0.67788 0.69544 0.0
H1803 H 0.16969 0.69996 0.42001 0.0
H1804 H 0.16925 0.69761 0.52181 0.0
H1805 H 0.17892 0.66851 0.56987 0.0
H1806 H 0.17835 0.65917 0.8537 0.0
H1807 H 0.1741 0.66097 0.75464 0.0
C1808 C 0.43397 0.92356 0.09353 0.0
C1809 C 0.42453 0.9253 0.11373 0.0
C1810 C 0.43544 0.92091 0.03733 0.0
C1811 C 0.42349 0.91097 0.91134 0.0
H1812 H 0.44086 0.92791 0.82797 0.0
C1813 C 0.43177 0.9076 0.67063 0.0
C1814 C 0.42994 0.9163 0.64128 0.0
C1815 C 0.4318 0.9075 0.7296 0.0
C1816 C 0.43607 0.92307 0.85089 0.0
H1817 H 0.40924 0.92543 0.09195 0.0
H1818 H 0.41179 0.92065 0.99394 0.0
H1819 H 0.43973 0.92946 0.93027 0.0
H1820 H 0.4268 0.93169 0.65055 0.0
H1821 H 0.42707 0.93152 0.75304 0.0
H1822 H 0.41971 0.90472 0.83147 0.0
C1823 C 0.41804 0.9213 0.02148 0.0
C1824 C 0.43546 0.92391 0.90932 0.0
C1825 C 0.41659 0.9241 0.07733 0.0
C1826 C 0.42819 0.92487 0.67189 0.0
C1827 C 0.42841 0.9248 0.73053 0.0
C1828 C 0.42423 0.91002 0.85287 0.0
C1829 C 0.42748 0.91984 0.0007 0.0
C1830 C 0.42901 0.91802 0.93994 0.0
C1831 C 0.43022 0.91613 0.75991 0.0
C1832 C 0.43034 0.91623 0.8221 0.0
H1833 H 0.44023 0.92461 0.12049 0.0
H1834 H 0.44279 0.91986 0.02222 0.0
H1835 H 0.41849 0.90633 0.93411 0.0
H1836 H 0.43312 0.90089 0.64809 0.0
H1837 H 0.4332 0.90073 0.75151 0.0
C1838 C 0.81557 0.66614 0.84357 0.0
C1839 C 0.81439 0.67429 0.87839 0.0
C1840 C 0.81789 0.66729 0.7868 0.0
C1841 C 0.8269 0.68533 0.68239 0.0
H1842 H 0.81397 0.66821 0.57641 0.0
C1843 C 0.82333 0.69278 0.44321 0.0
C1844 C 0.82427 0.68477 0.40681 0.0
C1845 C 0.8236 0.69145 0.50151 0.0
C1846 C 0.81775 0.67296 0.60552 0.0
H1847 H 0.8144 0.69004 0.8812 0.0
H1848 H 0.81827 0.69211 0.78173 0.0
H1849 H 0.81134 0.666 0.6767 0.0
H1850 H 0.8268 0.66919 0.40294 0.0
H1851 H 0.82723 0.66691 0.50459 0.0
H1852 H 0.83302 0.69248 0.61041 0.0
C1853 C 0.81774 0.6848 0.79853 0.0
C1854 C 0.81626 0.67168 0.66307 0.0
C1855 C 0.81551 0.68363 0.8555 0.0
C1856 C 0.82597 0.6755 0.42981 0.0
C1857 C 0.82618 0.67418 0.488 0.0
C1858 C 0.82832 0.68666 0.62463 0.0
C1859 C 0.8189 0.67664 0.76342 0.0
C1860 C 0.82079 0.67787 0.70226 0.0
C1861 C 0.82476 0.6821 0.52439 0.0
C1862 C 0.82373 0.68049 0.58569 0.0
H1863 H 0.81477 0.65885 0.86037 0.0
H1864 H 0.81889 0.66085 0.76125 0.0
H1865 H 0.83061 0.69013 0.71144 0.0
H1866 H 0.82205 0.70001 0.42679 0.0
H1867 H 0.82245 0.69768 0.52863 0.0
C1868 C 0.05958 0.07017 0.60825 0.0
C1869 C 0.06907 0.0687 0.62838 0.0
C1870 C 0.05801 0.07274 0.55207 0.0
C1871 C 0.06989 0.08259 0.42501 0.0
H1872 H 0.05142 0.06646 0.34431 0.0
C1873 C 0.06149 0.08651 0.18547 0.0
C1874 C 0.0623 0.07769 0.15587 0.0
C1875 C 0.06156 0.08656 0.24443 0.0
C1876 C 0.05654 0.07106 0.36643 0.0
H1877 H 0.08434 0.06883 0.60609 0.0
H1878 H 0.0816 0.07334 0.50786 0.0
H1879 H 0.05302 0.06475 0.44613 0.0
H1880 H 0.06369 0.06203 0.16473 0.0
H1881 H 0.06367 0.06214 0.26705 0.0
H1882 H 0.07358 0.0887 0.34471 0.0
C1883 C 0.07539 0.07262 0.53561 0.0
C1884 C 0.05741 0.07014 0.42468 0.0
C1885 C 0.07695 0.06997 0.59161 0.0
C1886 C 0.06308 0.06895 0.18624 0.0
C1887 C 0.063 0.069 0.24485 0.0
C1888 C 0.06894 0.08359 0.36669 0.0
C1889 C 0.0659 0.07391 0.51509 0.0
C1890 C 0.06424 0.07574 0.45439 0.0
C1891 C 0.06225 0.07779 0.27453 0.0
C1892 C 0.06241 0.07767 0.33678 0.0
H1893 H 0.05336 0.06903 0.63531 0.0
H1894 H 0.05062 0.07367 0.53731 0.0
H1895 H 0.07516 0.08704 0.44701 0.0
H1896 H 0.0609 0.09335 0.16314 0.0
H1897 H 0.06097 0.09344 0.26649 0.0
C1898 C 0.6572 0.31062 0.92821 0.0
C1899 C 0.66555 0.31311 0.89733 0.0
C1900 C 0.65702 0.31179 0.98679 0.0
C1901 C 0.66109 0.3098 0.11331 0.0
H1902 H 0.67481 0.33196 0.17564 0.0
C1903 C 0.67375 0.31157 0.3449 0.0
C1904 C 0.67439 0.32071 0.37092 0.0
C1905 C 0.67103 0.31085 0.28835 0.0
C1906 C 0.67078 0.32581 0.15927 0.0
H1907 H 0.68033 0.31858 0.90381 0.0
H1908 H 0.68008 0.32039 0.00505 0.0
H1909 H 0.67291 0.33057 0.07472 0.0
H1910 H 0.6723 0.3362 0.35976 0.0
H1911 H 0.66721 0.33496 0.26181 0.0
H1912 H 0.65883 0.30514 0.19833 0.0
C1913 C 0.67357 0.31779 0.98432 0.0
C1914 C 0.66983 0.32494 0.10115 0.0
C1915 C 0.67373 0.31668 0.92614 0.0
C1916 C 0.67194 0.32908 0.3403 0.0
C1917 C 0.66907 0.32836 0.28416 0.0
C1918 C 0.66197 0.31071 0.17175 0.0
C1919 C 0.6652 0.31545 0.01538 0.0
C1920 C 0.66519 0.31681 0.07737 0.0
C1921 C 0.66882 0.31926 0.257 0.0
C1922 C 0.667 0.31865 0.19539 0.0
H1923 H 0.65078 0.30786 0.90715 0.0
H1924 H 0.65044 0.30997 0.00953 0.0
H1925 H 0.65749 0.30343 0.09631 0.0
H1926 H 0.67574 0.30503 0.36756 0.0
H1927 H 0.67107 0.30374 0.26871 0.0
C1928 C 0.43203 0.08647 0.32195 0.0
C1929 C 0.42761 0.07916 0.35445 0.0
C1930 C 0.43105 0.08647 0.26327 0.0
C1931 C 0.41683 0.07493 0.14676 0.0
H1932 H 0.4398 0.08052 0.05772 0.0
C1933 C 0.42416 0.05914 0.92712 0.0
C1934 C 0.42522 0.06599 0.88353 0.0
C1935 C 0.42417 0.06208 0.98328 0.0
C1936 C 0.43332 0.07905 0.08219 0.0
H1937 H 0.41857 0.06623 0.35092 0.0
H1938 H 0.41715 0.06603 0.2496 0.0
H1939 H 0.44005 0.08345 0.15925 0.0
H1940 H 0.42668 0.08145 0.86586 0.0
H1941 H 0.42734 0.08644 0.9642 0.0
H1942 H 0.41037 0.06994 0.06991 0.0
C1943 C 0.42115 0.07194 0.2689 0.0
C1944 C 0.43341 0.08078 0.14022 0.0
C1945 C 0.42203 0.072 0.32727 0.0
C1946 C 0.42633 0.07587 0.89775 0.0
C1947 C 0.42655 0.07879 0.95416 0.0
C1948 C 0.41681 0.07304 0.0891 0.0
C1949 C 0.4257 0.07912 0.23596 0.0
C1950 C 0.42523 0.07852 0.17345 0.0
C1951 C 0.42536 0.07192 0.99716 0.0
C1952 C 0.42511 0.07492 0.05667 0.0
H1953 H 0.43634 0.09211 0.34172 0.0
H1954 H 0.43455 0.09219 0.23934 0.0
H1955 H 0.41031 0.07335 0.1706 0.0
H1956 H 0.42324 0.05148 0.91788 0.0
H1957 H 0.42326 0.05667 0.016 0.0
C1958 C 0.65828 0.68382 0.07672 0.0
C1959 C 0.66684 0.68185 0.10703 0.0
C1960 C 0.65803 0.68254 0.01824 0.0
C1961 C 0.6616 0.68424 0.89098 0.0
H1962 H 0.67595 0.66232 0.83055 0.0
C1963 C 0.67337 0.68159 0.65817 0.0
C1964 C 0.67404 0.67234 0.6335 0.0
C1965 C 0.67089 0.68254 0.71495 0.0
C1966 C 0.67176 0.66839 0.84648 0.0
H1967 H 0.6819 0.6773 0.09963 0.0
H1968 H 0.6815 0.67527 0.99843 0.0
H1969 H 0.67451 0.66424 0.93154 0.0
H1970 H 0.67236 0.65687 0.64764 0.0
H1971 H 0.66776 0.65851 0.74627 0.0
H1972 H 0.65876 0.6883 0.8055 0.0
C1973 C 0.67491 0.67755 0.01961 0.0
C1974 C 0.67106 0.66957 0.90455 0.0
C1975 C 0.67515 0.67878 0.07771 0.0
C1976 C 0.67193 0.66408 0.66592 0.0
C1977 C 0.66934 0.66503 0.72241 0.0
C1978 C 0.66225 0.68302 0.83263 0.0
C1979 C 0.66633 0.67928 0.98921 0.0
C1980 C 0.66617 0.67762 0.92751 0.0
C1981 C 0.66901 0.67425 0.74801 0.0
C1982 C 0.66748 0.67516 0.80971 0.0
H1983 H 0.65176 0.68619 0.09819 0.0
H1984 H 0.6513 0.6839 0.99597 0.0
H1985 H 0.6578 0.69053 0.90738 0.0
H1986 H 0.67515 0.68806 0.63431 0.0
H1987 H 0.67088 0.68974 0.73343 0.0
C1988 C 0.07684 0.92259 0.40157 0.0
C1989 C 0.06895 0.92357 0.36451 0.0
C1990 C 0.07531 0.91994 0.45763 0.0
C1991 C 0.05707 0.92183 0.56784 0.0
H1992 H 0.07384 0.90398 0.64904 0.0
C1993 C 0.06208 0.92324 0.8068 0.0
C1994 C 0.06174 0.91446 0.8371 0.0
C1995 C 0.0621 0.9232 0.74818 0.0
C1996 C 0.06904 0.90889 0.62672 0.0
H1997 H 0.05326 0.92275 0.35722 0.0
H1998 H 0.05059 0.91808 0.45517 0.0
H1999 H 0.07556 0.90569 0.54686 0.0
H2000 H 0.06123 0.89875 0.82968 0.0
H2001 H 0.06146 0.89869 0.72635 0.0
H2002 H 0.05075 0.92525 0.64773 0.0
C2003 C 0.05796 0.91925 0.44064 0.0
C2004 C 0.07006 0.90993 0.56846 0.0
C2005 C 0.0595 0.92182 0.38444 0.0
C2006 C 0.06146 0.90562 0.80741 0.0
C2007 C 0.06163 0.90558 0.74845 0.0
C2008 C 0.05612 0.92087 0.62603 0.0
C2009 C 0.06585 0.91837 0.47791 0.0
C2010 C 0.06419 0.91652 0.53861 0.0
C2011 C 0.0619 0.91439 0.7184 0.0
C2012 C 0.0622 0.91453 0.65615 0.0
H2013 H 0.0842 0.92395 0.38728 0.0
H2014 H 0.08152 0.91945 0.48558 0.0
H2015 H 0.0525 0.92702 0.54606 0.0
H2016 H 0.06228 0.93018 0.82838 0.0
H2017 H 0.06244 0.93009 0.72607 0.0
C2018 C 0.81922 0.31257 0.56857 0.0
C2019 C 0.82798 0.31123 0.59805 0.0
C2020 C 0.81911 0.31266 0.50992 0.0
C2021 C 0.83325 0.31851 0.38718 0.0
H2022 H 0.81457 0.30234 0.30813 0.0
C2023 C 0.81879 0.32628 0.16311 0.0
C2024 C 0.81807 0.31838 0.12589 0.0
C2025 C 0.82155 0.32481 0.21906 0.0
C2026 C 0.8199 0.30682 0.32953 0.0
H2027 H 0.84352 0.30907 0.58921 0.0
H2028 H 0.84334 0.30953 0.48579 0.0
H2029 H 0.81641 0.30073 0.41005 0.0
H2030 H 0.81951 0.30274 0.11798 0.0
H2031 H 0.82421 0.30014 0.21616 0.0
H2032 H 0.83643 0.32489 0.30681 0.0
C2033 C 0.83657 0.31038 0.50859 0.0
C2034 C 0.82091 0.30593 0.38776 0.0
C2035 C 0.83666 0.31009 0.56755 0.0
C2036 C 0.8202 0.30898 0.14548 0.0
C2037 C 0.82281 0.30749 0.20169 0.0
C2038 C 0.83212 0.31952 0.32893 0.0
C2039 C 0.82777 0.31158 0.47938 0.0
C2040 C 0.82749 0.31186 0.41718 0.0
C2041 C 0.82344 0.31538 0.23909 0.0
C2042 C 0.82534 0.31375 0.29972 0.0
H2043 H 0.8124 0.31343 0.59082 0.0
H2044 H 0.81225 0.3137 0.48834 0.0
H2045 H 0.83833 0.32319 0.40906 0.0
H2046 H 0.81714 0.33359 0.14902 0.0
H2047 H 0.82186 0.331 0.24719 0.0
C2048 C 0.15588 0.63986 0.12072 0.0
C2049 C 0.15322 0.64852 0.148 0.0
C2050 C 0.14921 0.63225 0.11557 0.0
C2051 C 0.12707 0.62227 0.17886 0.0
H2052 H 0.12288 0.61034 0.03296 0.0
C2053 C 0.09405 0.5979 0.13533 0.0
C2054 C 0.09537 0.58973 0.10095 0.0
C2055 C 0.10149 0.60471 0.14143 0.0
C2056 C 0.12406 0.61348 0.07418 0.0
H2057 H 0.14161 0.65609 0.19108 0.0
H2058 H 0.12997 0.64272 0.18306 0.0
H2059 H 0.13538 0.62281 0.04368 0.0
H2060 H 0.10536 0.58209 0.04636 0.0
H2061 H 0.11853 0.59394 0.05759 0.0
H2062 H 0.11584 0.61295 0.20966 0.0
C2063 C 0.13721 0.64179 0.16591 0.0
C2064 C 0.1312 0.62063 0.08024 0.0
C2065 C 0.14385 0.64943 0.17051 0.0
C2066 C 0.10422 0.58842 0.07271 0.0
C2067 C 0.1117 0.5952 0.07905 0.0
C2068 C 0.11999 0.61508 0.17295 0.0
C2069 C 0.13982 0.63315 0.13823 0.0
C2070 C 0.13268 0.62518 0.13247 0.0
C2071 C 0.11042 0.60342 0.11358 0.0
C2072 C 0.11831 0.61069 0.12038 0.0
H2073 H 0.16313 0.63898 0.10357 0.0
H2074 H 0.15142 0.62562 0.09445 0.0
H2075 H 0.12817 0.62557 0.2198 0.0
H2076 H 0.08723 0.59903 0.15717 0.0
H2077 H 0.10019 0.61104 0.16746 0.0
C2078 C 0.5928 0.89276 0.42107 0.0
C2079 C 0.59373 0.90184 0.39475 0.0
C2080 C 0.60019 0.88585 0.41645 0.0
C2081 C 0.62066 0.87857 0.3275 0.0
H2082 H 0.62925 0.86465 0.46048 0.0
C2083 C 0.65376 0.85276 0.32486 0.0
C2084 C 0.65294 0.84415 0.35605 0.0
C2085 C 0.64665 0.85997 0.32937 0.0
C2086 C 0.62685 0.86838 0.42282 0.0
H2087 H 0.60303 0.91093 0.34338 0.0
H2088 H 0.61595 0.89879 0.33457 0.0
H2089 H 0.61653 0.87691 0.46872 0.0
H2090 H 0.64417 0.83613 0.41567 0.0
H2091 H 0.6316 0.84862 0.42297 0.0
H2092 H 0.63086 0.86996 0.28137 0.0
C2093 C 0.6095 0.89699 0.35851 0.0
C2094 C 0.61959 0.87542 0.42761 0.0
C2095 C 0.60213 0.90392 0.36353 0.0
C2096 C 0.64493 0.84278 0.39156 0.0
C2097 C 0.6378 0.84995 0.3959 0.0
C2098 C 0.62789 0.87149 0.32262 0.0
C2099 C 0.6086 0.8879 0.38505 0.0
C2100 C 0.61641 0.88055 0.37999 0.0
C2101 C 0.63859 0.85865 0.36504 0.0
C2102 C 0.63104 0.86629 0.37021 0.0
H2103 H 0.58631 0.89096 0.44473 0.0
H2104 H 0.59926 0.87885 0.43671 0.0
H2105 H 0.61826 0.88236 0.29001 0.0
H2106 H 0.65997 0.85395 0.29759 0.0
H2107 H 0.64755 0.86664 0.30564 0.0
C2108 C 0.34842 0.346 0.70155 0.0
C2109 C 0.33958 0.34649 0.67232 0.0
C2110 C 0.35499 0.35373 0.69911 0.0
C2111 C 0.36241 0.37363 0.60789 0.0
H2112 H 0.37595 0.38312 0.74008 0.0
C2113 C 0.39012 0.40496 0.59441 0.0
C2114 C 0.39859 0.40395 0.62672 0.0
C2115 C 0.38233 0.39859 0.60223 0.0
C2116 C 0.3723 0.38048 0.70269 0.0
H2117 H 0.33045 0.35546 0.61923 0.0
H2118 H 0.34204 0.36896 0.61393 0.0
H2119 H 0.36333 0.37077 0.75035 0.0
H2120 H 0.40568 0.39567 0.69231 0.0
H2121 H 0.39218 0.38434 0.70524 0.0
H2122 H 0.37155 0.38305 0.55987 0.0
C2123 C 0.34391 0.36258 0.63851 0.0
C2124 C 0.36506 0.37345 0.70866 0.0
C2125 C 0.3373 0.35489 0.64145 0.0
C2126 C 0.39916 0.39657 0.66718 0.0
C2127 C 0.39142 0.39015 0.67475 0.0
C2128 C 0.36971 0.38059 0.60183 0.0
C2129 C 0.35284 0.36204 0.66697 0.0
C2130 C 0.3601 0.3699 0.66126 0.0
C2131 C 0.38291 0.39107 0.64225 0.0
C2132 C 0.37481 0.38404 0.6491 0.0
H2133 H 0.35037 0.33954 0.72513 0.0
H2134 H 0.36188 0.35308 0.7209 0.0
H2135 H 0.35878 0.37092 0.57057 0.0
H2136 H 0.38953 0.41071 0.56341 0.0
H2137 H 0.37584 0.39961 0.57715 0.0
C2138 C 0.89014 0.08886 0.86987 0.0
C2139 C 0.89862 0.09123 0.89976 0.0
C2140 C 0.88257 0.09557 0.8655 0.0
C2141 C 0.87224 0.11712 0.93396 0.0
H2142 H 0.8606 0.12217 0.78817 0.0
C2143 C 0.84712 0.14984 0.89625 0.0
C2144 C 0.83904 0.14849 0.86128 0.0
C2145 C 0.85414 0.14256 0.90109 0.0
C2146 C 0.86367 0.12074 0.82932 0.0
H2147 H 0.90592 0.10239 0.94818 0.0
H2148 H 0.89262 0.11412 0.94128 0.0
H2149 H 0.87329 0.10985 0.79686 0.0
H2150 H 0.83175 0.13862 0.80432 0.0
H2151 H 0.84397 0.12574 0.81322 0.0
H2152 H 0.86261 0.12794 0.96665 0.0
C2153 C 0.89179 0.10706 0.92158 0.0
C2154 C 0.87094 0.11371 0.83423 0.0
C2155 C 0.89939 0.10037 0.92555 0.0
C2156 C 0.83801 0.13979 0.83117 0.0
C2157 C 0.84501 0.13247 0.83618 0.0
C2158 C 0.86492 0.1241 0.92915 0.0
C2159 C 0.88332 0.10473 0.89137 0.0
C2160 C 0.87535 0.1119 0.8865 0.0
C2161 C 0.85315 0.13378 0.87128 0.0
C2162 C 0.86063 0.12606 0.87668 0.0
H2163 H 0.88937 0.0818 0.85015 0.0
H2164 H 0.87607 0.09357 0.84246 0.0
H2165 H 0.87542 0.11576 0.97493 0.0
H2166 H 0.84804 0.15656 0.9195 0.0
H2167 H 0.8604 0.14388 0.92766 0.0
C2168 C 0.14429 0.34471 0.79904 0.0
C2169 C 0.15335 0.34531 0.82593 0.0
C2170 C 0.13765 0.35235 0.80329 0.0
C2171 C 0.1307 0.37227 0.89581 0.0
H2172 H 0.11639 0.38168 0.76617 0.0
C2173 C 0.10336 0.40399 0.9121 0.0
C2174 C 0.09478 0.4031 0.88074 0.0
C2175 C 0.11097 0.39741 0.90414 0.0
C2176 C 0.12025 0.37906 0.8029 0.0
H2177 H 0.16276 0.35438 0.87678 0.0
H2178 H 0.15105 0.36772 0.88524 0.0
H2179 H 0.12891 0.36929 0.75371 0.0
H2180 H 0.08725 0.39473 0.81718 0.0
H2181 H 0.10041 0.38304 0.80407 0.0
H2182 H 0.12188 0.38178 0.94537 0.0
C2183 C 0.14907 0.36133 0.86113 0.0
C2184 C 0.12743 0.372 0.79566 0.0
C2185 C 0.15575 0.35372 0.85635 0.0
C2186 C 0.09386 0.39555 0.84151 0.0
C2187 C 0.10142 0.38892 0.83382 0.0
C2188 C 0.12345 0.37926 0.90316 0.0
C2189 C 0.13994 0.36068 0.83493 0.0
C2190 C 0.13267 0.3685 0.8421 0.0
C2191 C 0.11009 0.38979 0.86491 0.0
C2192 C 0.11808 0.38268 0.85684 0.0
H2193 H 0.14225 0.33824 0.77586 0.0
H2194 H 0.13062 0.35162 0.78321 0.0
H2195 H 0.13457 0.3696 0.93241 0.0
H2196 H 0.10421 0.40985 0.94219 0.0
H2197 H 0.11759 0.39837 0.92821 0.0
C2198 C 0.89018 0.90593 0.12205 0.0
C2199 C 0.89846 0.90389 0.08962 0.0
C2200 C 0.88261 0.8992 0.12537 0.0
C2201 C 0.87158 0.87852 0.05222 0.0
H2202 H 0.86177 0.8715 0.19975 0.0
C2203 C 0.84694 0.84521 0.08682 0.0
C2204 C 0.83958 0.84591 0.12735 0.0
C2205 C 0.85375 0.85267 0.08092 0.0
C2206 C 0.8643 0.87349 0.15815 0.0
H2207 H 0.90539 0.8933 0.03537 0.0
H2208 H 0.89203 0.88158 0.04018 0.0
H2209 H 0.87429 0.88396 0.19136 0.0
H2210 H 0.8333 0.85489 0.19262 0.0
H2211 H 0.84506 0.8681 0.18169 0.0
H2212 H 0.86156 0.86813 0.01879 0.0
C2213 C 0.89138 0.8884 0.06278 0.0
C2214 C 0.87149 0.8806 0.15343 0.0
C2215 C 0.899 0.89509 0.05996 0.0
C2216 C 0.839 0.85421 0.16143 0.0
C2217 C 0.84575 0.86171 0.15527 0.0
C2218 C 0.86432 0.87147 0.05686 0.0
C2219 C 0.88315 0.89037 0.09583 0.0
C2220 C 0.87525 0.88312 0.10048 0.0
C2221 C 0.85325 0.861 0.11519 0.0
C2222 C 0.86066 0.8688 0.10994 0.0
H2223 H 0.88957 0.91273 0.14476 0.0
H2224 H 0.87629 0.90093 0.1507 0.0
H2225 H 0.87428 0.88042 0.01083 0.0
H2226 H 0.84754 0.83881 0.06045 0.0
H2227 H 0.85952 0.8518 0.05032 0.0
C2228 C 0.34834 0.64963 0.3258 0.0
C2229 C 0.33921 0.64859 0.35143 0.0
C2230 C 0.35521 0.64219 0.32961 0.0
C2231 C 0.36228 0.62161 0.418 0.0
H2232 H 0.37747 0.61384 0.28808 0.0
C2233 C 0.3893 0.5895 0.42501 0.0
C2234 C 0.3981 0.59074 0.39624 0.0
C2235 C 0.38186 0.59633 0.41909 0.0
C2236 C 0.37337 0.61601 0.3249 0.0
H2237 H 0.32995 0.63899 0.39985 0.0
H2238 H 0.34204 0.62597 0.40717 0.0
H2239 H 0.36484 0.62616 0.27767 0.0
H2240 H 0.40622 0.59999 0.33953 0.0
H2241 H 0.3933 0.61208 0.32983 0.0
H2242 H 0.3709 0.61161 0.46553 0.0
C2243 C 0.3439 0.63255 0.38452 0.0
C2244 C 0.36612 0.62303 0.31886 0.0
C2245 C 0.33701 0.63997 0.38033 0.0
C2246 C 0.39943 0.59891 0.36183 0.0
C2247 C 0.39202 0.60577 0.35607 0.0
C2248 C 0.36957 0.61462 0.42414 0.0
C2249 C 0.35309 0.63362 0.35943 0.0
C2250 C 0.36054 0.62593 0.36539 0.0
C2251 C 0.38313 0.60453 0.3844 0.0
C2252 C 0.37523 0.61178 0.37771 0.0
H2253 H 0.35022 0.65627 0.30382 0.0
H2254 H 0.36228 0.64326 0.31044 0.0
H2255 H 0.35816 0.6238 0.45473 0.0
H2256 H 0.38814 0.58316 0.45133 0.0
H2257 H 0.37505 0.5951 0.4409 0.0
C2258 C 0.6031 0.08837 0.6187 0.0
C2259 C 0.59491 0.09048 0.58571 0.0
C2260 C 0.61072 0.09505 0.62266 0.0
C2261 C 0.622 0.11568 0.55026 0.0
H2262 H 0.6317 0.12256 0.69827 0.0
C2263 C 0.64656 0.14898 0.58667 0.0
C2264 C 0.65389 0.14826 0.62736 0.0
C2265 C 0.63979 0.1415 0.58027 0.0
C2266 C 0.6292 0.12061 0.65655 0.0
H2267 H 0.58817 0.10114 0.53109 0.0
H2268 H 0.60159 0.11277 0.5371 0.0
H2269 H 0.61912 0.11016 0.68919 0.0
H2270 H 0.66016 0.13923 0.69249 0.0
H2271 H 0.64845 0.12599 0.68072 0.0
H2272 H 0.6321 0.12605 0.51741 0.0
C2273 C 0.60214 0.10594 0.55966 0.0
C2274 C 0.62198 0.11353 0.65142 0.0
C2275 C 0.59448 0.09931 0.55618 0.0
C2276 C 0.65448 0.13992 0.66113 0.0
C2277 C 0.64776 0.13239 0.65449 0.0
C2278 C 0.62929 0.1227 0.5553 0.0
C2279 C 0.6103 0.10389 0.59319 0.0
C2280 C 0.61825 0.11107 0.59829 0.0
C2281 C 0.64029 0.13312 0.61424 0.0
C2282 C 0.6329 0.12532 0.60857 0.0
H2283 H 0.60363 0.08154 0.64127 0.0
H2284 H 0.61697 0.09326 0.64835 0.0
H2285 H 0.61933 0.11382 0.50873 0.0
H2286 H 0.64595 0.15541 0.56058 0.0
H2287 H 0.63404 0.14238 0.54957 0.0
C2288 C 0.84871 0.34273 0.88076 0.0
C2289 C 0.84083 0.34394 0.84402 0.0
C2290 C 0.85562 0.35008 0.88658 0.0
C2291 C 0.86529 0.37206 0.81661 0.0
H2292 H 0.8756 0.37752 0.96526 0.0
C2293 C 0.89012 0.40495 0.86322 0.0
C2294 C 0.89845 0.40295 0.89523 0.0
C2295 C 0.88284 0.39794 0.85736 0.0
C2296 C 0.87283 0.37603 0.92348 0.0
H2297 H 0.83386 0.35361 0.78468 0.0
H2298 H 0.84589 0.36661 0.79525 0.0
H2299 H 0.8633 0.36491 0.95369 0.0
H2300 H 0.90581 0.39214 0.94604 0.0
H2301 H 0.89301 0.3799 0.93661 0.0
H2302 H 0.87479 0.38326 0.78665 0.0
C2303 C 0.84685 0.35994 0.81886 0.0
C2304 C 0.86581 0.36879 0.91677 0.0
C2305 C 0.83996 0.35254 0.81286 0.0
C2306 C 0.89937 0.39388 0.92184 0.0
C2307 C 0.89206 0.3869 0.91637 0.0
C2308 C 0.87227 0.37934 0.82341 0.0
C2309 C 0.85474 0.3588 0.85601 0.0
C2310 C 0.86201 0.36668 0.8632 0.0
C2311 C 0.88376 0.38884 0.8838 0.0
C2312 C 0.87615 0.38134 0.87685 0.0
H2313 H 0.8495 0.33609 0.9049 0.0
H2314 H 0.8617 0.3489 0.91474 0.0
H2315 H 0.86261 0.37052 0.77469 0.0
H2316 H 0.88923 0.41194 0.84279 0.0
H2317 H 0.87646 0.39966 0.83254 0.0
C2318 C 0.39841 0.09728 0.65922 0.0
C2319 C 0.39758 0.08982 0.61935 0.0
C2320 C 0.39077 0.1038 0.66739 0.0
C2321 C 0.3689 0.11349 0.59683 0.0
H2322 H 0.3633 0.1237 0.74553 0.0
C2323 C 0.33704 0.13974 0.63988 0.0
C2324 C 0.33957 0.14815 0.66996 0.0
C2325 C 0.34353 0.13196 0.63618 0.0
C2326 C 0.36481 0.12092 0.70379 0.0
H2327 H 0.3882 0.08305 0.55768 0.0
H2328 H 0.37469 0.09434 0.57251 0.0
H2329 H 0.37568 0.11114 0.73433 0.0
H2330 H 0.35072 0.15504 0.72049 0.0
H2331 H 0.36203 0.14136 0.71497 0.0
H2332 H 0.35798 0.12327 0.56649 0.0
C2333 C 0.3813 0.09533 0.59666 0.0
C2334 C 0.37192 0.11376 0.69728 0.0
C2335 C 0.38898 0.08885 0.58823 0.0
C2336 C 0.34857 0.14858 0.69755 0.0
C2337 C 0.35502 0.14077 0.69438 0.0
C2338 C 0.36173 0.12058 0.60345 0.0
C2339 C 0.38213 0.10292 0.63611 0.0
C2340 C 0.37414 0.11006 0.6436 0.0
C2341 C 0.3526 0.13244 0.66312 0.0
C2342 C 0.35971 0.12445 0.65687 0.0
H2343 H 0.40503 0.09815 0.6834 0.0
H2344 H 0.39173 0.10965 0.69737 0.0
H2345 H 0.37052 0.11092 0.55479 0.0
H2346 H 0.33006 0.13922 0.61893 0.0
H2347 H 0.34146 0.12558 0.6123 0.0
C2348 C 0.60329 0.58957 0.40083 0.0
C2349 C 0.59474 0.59078 0.3695 0.0
C2350 C 0.61103 0.59603 0.39404 0.0
C2351 C 0.62077 0.61496 0.29781 0.0
H2352 H 0.63454 0.62347 0.43148 0.0
C2353 C 0.6451 0.64915 0.30618 0.0
C2354 C 0.65394 0.64834 0.33524 0.0
C2355 C 0.63842 0.64151 0.30689 0.0
C2356 C 0.63084 0.62106 0.39371 0.0
H2357 H 0.58746 0.5995 0.30659 0.0
H2358 H 0.60087 0.611 0.2955 0.0
H2359 H 0.62175 0.6113 0.4398 0.0
H2360 H 0.66296 0.63886 0.38598 0.0
H2361 H 0.65118 0.62551 0.38818 0.0
H2362 H 0.62971 0.62499 0.25215 0.0
C2363 C 0.60173 0.60497 0.32444 0.0
C2364 C 0.62352 0.61408 0.3984 0.0
C2365 C 0.59403 0.59845 0.33096 0.0
C2366 C 0.6561 0.63969 0.36401 0.0
C2367 C 0.6494 0.63208 0.36518 0.0
C2368 C 0.62803 0.62201 0.29323 0.0
C2369 C 0.61031 0.60386 0.35607 0.0
C2370 C 0.61836 0.61099 0.35056 0.0
C2371 C 0.64046 0.63296 0.33706 0.0
C2372 C 0.63309 0.62516 0.3412 0.0
H2373 H 0.60398 0.5836 0.43032 0.0
H2374 H 0.61758 0.59487 0.41835 0.0
H2375 H 0.61705 0.61261 0.26 0.0
H2376 H 0.64325 0.6558 0.28413 0.0
H2377 H 0.63154 0.64241 0.28536 0.0
C2378 C 0.15545 0.85463 0.15516 0.0
C2379 C 0.15471 0.84618 0.1225 0.0
C2380 C 0.14904 0.86236 0.14635 0.0
C2381 C 0.13113 0.8721 0.04333 0.0
H2382 H 0.12091 0.88552 0.17415 0.0
C2383 C 0.09583 0.89476 0.04289 0.0
C2384 C 0.09604 0.9037 0.07133 0.0
C2385 C 0.1038 0.88849 0.04547 0.0
C2386 C 0.1238 0.88191 0.13721 0.0
H2387 H 0.14683 0.83902 0.05551 0.0
H2388 H 0.13542 0.85237 0.04096 0.0
H2389 H 0.13331 0.87304 0.18635 0.0
H2390 H 0.10479 0.91335 0.12262 0.0
H2391 H 0.11867 0.90225 0.12845 0.0
H2392 H 0.12128 0.88076 0.99461 0.0
C2393 C 0.14107 0.85321 0.07233 0.0
C2394 C 0.13092 0.87479 0.1441 0.0
C2395 C 0.14754 0.84554 0.08082 0.0
C2396 C 0.10441 0.9064 0.10122 0.0
C2397 C 0.11234 0.90009 0.1044 0.0
C2398 C 0.12392 0.87915 0.03654 0.0
C2399 C 0.14173 0.86172 0.10507 0.0
C2400 C 0.1346 0.86972 0.0973 0.0
C2401 C 0.11206 0.89104 0.07698 0.0
C2402 C 0.12014 0.88405 0.08348 0.0
H2403 H 0.16101 0.85526 0.18724 0.0
H2404 H 0.14985 0.86886 0.17171 0.0
H2405 H 0.13394 0.86848 0.00626 0.0
H2406 H 0.08941 0.8925 0.01994 0.0
H2407 H 0.10338 0.88151 0.02443 0.0
C2408 C 0.8897 0.58903 0.08179 0.0
C2409 C 0.89839 0.59022 0.11172 0.0
C2410 C 0.88214 0.59572 0.08835 0.0
C2411 C 0.87337 0.61531 0.18328 0.0
H2412 H 0.85868 0.62337 0.05196 0.0
C2413 C 0.84969 0.6498 0.17787 0.0
C2414 C 0.84035 0.64885 0.15486 0.0
C2415 C 0.85635 0.64218 0.17393 0.0
C2416 C 0.86267 0.6211 0.08904 0.0
H2417 H 0.90618 0.59916 0.17149 0.0
H2418 H 0.89311 0.61104 0.18205 0.0
H2419 H 0.8712 0.61091 0.04246 0.0
H2420 H 0.83055 0.63925 0.11013 0.0
H2421 H 0.84231 0.62593 0.10191 0.0
H2422 H 0.86501 0.62576 0.22935 0.0
C2423 C 0.89197 0.60486 0.15456 0.0
C2424 C 0.86981 0.61395 0.08372 0.0
C2425 C 0.89947 0.59812 0.14833 0.0
C2426 C 0.83776 0.64017 0.12761 0.0
C2427 C 0.84446 0.63257 0.12302 0.0
C2428 C 0.86631 0.62253 0.18843 0.0
C2429 C 0.8832 0.60374 0.12466 0.0
C2430 C 0.8753 0.61102 0.13071 0.0
C2431 C 0.8538 0.63351 0.14632 0.0
C2432 C 0.86095 0.62554 0.14129 0.0
H2433 H 0.88874 0.5829 0.05368 0.0
H2434 H 0.87544 0.59456 0.06535 0.0
H2435 H 0.87732 0.61308 0.22056 0.0
H2436 H 0.85188 0.65649 0.19844 0.0
H2437 H 0.86355 0.64312 0.19159 0.0
C2438 C 0.14583 0.14928 0.89611 0.0
C2439 C 0.15379 0.14795 0.86024 0.0
C2440 C 0.13913 0.1418 0.90418 0.0
C2441 C 0.13009 0.11908 0.84019 0.0
H2442 H 0.11925 0.11483 0.98891 0.0
C2443 C 0.10437 0.08708 0.88892 0.0
C2444 C 0.09586 0.08957 0.91805 0.0
C2445 C 0.11198 0.09376 0.88431 0.0
C2446 C 0.12219 0.11597 0.94713 0.0
H2447 H 0.16117 0.13789 0.80486 0.0
H2448 H 0.1495 0.12466 0.81927 0.0
H2449 H 0.13158 0.12738 0.97527 0.0
H2450 H 0.08863 0.10078 0.96647 0.0
H2451 H 0.10199 0.11245 0.95905 0.0
H2452 H 0.12069 0.10766 0.81217 0.0
C2453 C 0.14831 0.13153 0.84053 0.0
C2454 C 0.12922 0.12316 0.93924 0.0
C2455 C 0.15499 0.13905 0.83231 0.0
C2456 C 0.09517 0.09869 0.94414 0.0
C2457 C 0.1028 0.10535 0.93989 0.0
C2458 C 0.1231 0.11185 0.84817 0.0
C2459 C 0.14031 0.13282 0.87671 0.0
C2460 C 0.13318 0.12487 0.88555 0.0
C2461 C 0.11122 0.10299 0.90926 0.0
C2462 C 0.11902 0.11029 0.9016 0.0
H2463 H 0.14477 0.15614 0.91776 0.0
H2464 H 0.13296 0.1431 0.93148 0.0
H2465 H 0.13289 0.12029 0.79817 0.0
H2466 H 0.10509 0.08001 0.86921 0.0
H2467 H 0.11844 0.09171 0.86114 0.0
C2468 C 0.60432 0.40531 0.58052 0.0
C2469 C 0.59556 0.40427 0.60997 0.0
C2470 C 0.61177 0.39852 0.58763 0.0
C2471 C 0.62031 0.37922 0.68466 0.0
H2472 H 0.63504 0.37061 0.55474 0.0
C2473 C 0.64453 0.34497 0.68483 0.0
C2474 C 0.6536 0.34571 0.65824 0.0
C2475 C 0.63785 0.35259 0.6813 0.0
C2476 C 0.63106 0.37304 0.59149 0.0
H2477 H 0.58754 0.39545 0.66931 0.0
H2478 H 0.60045 0.38341 0.68106 0.0
H2479 H 0.62249 0.38297 0.54324 0.0
H2480 H 0.66299 0.355 0.60867 0.0
H2481 H 0.65125 0.36832 0.60173 0.0
H2482 H 0.62876 0.36909 0.73257 0.0
C2483 C 0.6017 0.38955 0.65338 0.0
C2484 C 0.62389 0.38012 0.58496 0.0
C2485 C 0.5943 0.39637 0.64646 0.0
C2486 C 0.65597 0.35424 0.62886 0.0
C2487 C 0.64928 0.36183 0.62492 0.0
C2488 C 0.62744 0.37208 0.69109 0.0
C2489 C 0.61054 0.39055 0.62416 0.0
C2490 C 0.61839 0.38325 0.63141 0.0
C2491 C 0.64013 0.36105 0.65078 0.0
C2492 C 0.63284 0.36889 0.64452 0.0
H2493 H 0.60544 0.41144 0.55259 0.0
H2494 H 0.61853 0.39958 0.56511 0.0
H2495 H 0.61633 0.3816 0.72149 0.0
H2496 H 0.64251 0.33841 0.70724 0.0
H2497 H 0.63081 0.35176 0.70111 0.0
C2498 C 0.39885 0.89521 0.35858 0.0
C2499 C 0.3977 0.9034 0.39302 0.0
C2500 C 0.39135 0.88844 0.35347 0.0
C2501 C 0.36914 0.87975 0.42441 0.0
H2502 H 0.36381 0.86808 0.27899 0.0
C2503 C 0.33658 0.85409 0.38635 0.0
C2504 C 0.33871 0.8455 0.3569 0.0
C2505 C 0.34344 0.86156 0.38944 0.0
C2506 C 0.36526 0.87124 0.3199 0.0
H2507 H 0.38795 0.91112 0.44864 0.0
H2508 H 0.3747 0.89933 0.43945 0.0
H2509 H 0.37646 0.88044 0.28725 0.0
H2510 H 0.34954 0.83793 0.30736 0.0
H2511 H 0.36152 0.85103 0.31217 0.0
H2512 H 0.35792 0.87054 0.45695 0.0
C2513 C 0.38144 0.89802 0.41709 0.0
C2514 C 0.37251 0.8783 0.32469 0.0
C2515 C 0.38897 0.90477 0.4223 0.0
C2516 C 0.34771 0.84455 0.32979 0.0
C2517 C 0.35454 0.85203 0.33254 0.0
C2518 C 0.36185 0.87273 0.41954 0.0
C2519 C 0.38254 0.88978 0.38256 0.0
C2520 C 0.37459 0.88256 0.3771 0.0
C2521 C 0.3525 0.86058 0.36273 0.0
C2522 C 0.35991 0.86835 0.36734 0.0
H2523 H 0.40558 0.89402 0.33591 0.0
H2524 H 0.39249 0.88209 0.3273 0.0
H2525 H 0.37065 0.8828 0.46552 0.0
H2526 H 0.32962 0.855 0.40702 0.0
H2527 H 0.34164 0.86812 0.41244 0.0
C2528 C 0.06956 0.46288 0.89834 0.0
C2529 C 0.0689 0.45583 0.941 0.0
C2530 C 0.07012 0.47275 0.91194 0.0
C2531 C 0.07585 0.48976 0.02769 0.0
H2532 H 0.05965 0.50757 0.94268 0.0
C2533 C 0.06909 0.5297 0.09517 0.0
C2534 C 0.06889 0.53672 0.05212 0.0
C2535 C 0.06959 0.51979 0.08201 0.0
C2536 C 0.06431 0.50272 0.96639 0.0
H2537 H 0.06852 0.45362 0.0315 0.0
H2538 H 0.06941 0.47083 0.05501 0.0
H2539 H 0.05979 0.49037 0.9183 0.0
H2540 H 0.06932 0.53882 0.96153 0.0
H2541 H 0.07029 0.52162 0.93889 0.0
H2542 H 0.08033 0.50214 0.07595 0.0
C2543 C 0.06958 0.46872 0.0111 0.0
C2544 C 0.06439 0.49286 0.95237 0.0
C2545 C 0.06901 0.45886 0.99755 0.0
C2546 C 0.06938 0.53362 0.99579 0.0
C2547 C 0.06988 0.52375 0.98272 0.0
C2548 C 0.07577 0.49964 0.0417 0.0
C2549 C 0.07005 0.47578 0.96844 0.0
C2550 C 0.07016 0.48628 0.98284 0.0
C2551 C 0.06989 0.51672 0.02559 0.0
C2552 C 0.07001 0.50622 0.01114 0.0
H2553 H 0.06954 0.4608 0.85437 0.0
H2554 H 0.0706 0.47802 0.87815 0.0
H2555 H 0.08044 0.48487 0.05156 0.0
H2556 H 0.06873 0.53184 0.13899 0.0
H2557 H 0.0695 0.51454 0.11598 0.0
C2558 C 0.71392 0.81921 0.35583 0.0
C2559 C 0.70683 0.81878 0.31324 0.0
C2560 C 0.72379 0.81973 0.34202 0.0
C2561 C 0.74064 0.81413 0.22572 0.0
H2562 H 0.7586 0.83069 0.30728 0.0
C2563 C 0.78003 0.81982 0.15169 0.0
C2564 C 0.78729 0.81933 0.19325 0.0
C2565 C 0.77023 0.82024 0.16679 0.0
C2566 C 0.75367 0.82597 0.28444 0.0
H2567 H 0.70457 0.81887 0.22274 0.0
H2568 H 0.7217 0.8199 0.19895 0.0
H2569 H 0.74142 0.8305 0.33354 0.0
H2570 H 0.78992 0.81911 0.28338 0.0
H2571 H 0.77282 0.81978 0.30954 0.0
H2572 H 0.75285 0.80959 0.17669 0.0
C2573 C 0.71966 0.81963 0.24296 0.0
C2574 C 0.74385 0.82585 0.29952 0.0
C2575 C 0.70982 0.81909 0.25668 0.0
C2576 C 0.78452 0.81947 0.25025 0.0
C2577 C 0.77472 0.81991 0.26531 0.0
C2578 C 0.75043 0.81426 0.21061 0.0
C2579 C 0.72676 0.81984 0.28538 0.0
C2580 C 0.73722 0.81995 0.27018 0.0
C2581 C 0.76747 0.82021 0.22375 0.0
C2582 C 0.75705 0.82019 0.2397 0.0
H2583 H 0.71185 0.81899 0.3998 0.0
H2584 H 0.7291 0.81981 0.37566 0.0
H2585 H 0.73575 0.80935 0.20299 0.0
H2586 H 0.7819 0.81978 0.10741 0.0
H2587 H 0.7648 0.8206 0.13382 0.0
C2588 C 0.42161 0.53331 0.49642 0.0
C2589 C 0.42196 0.53662 0.44044 0.0
C2590 C 0.42068 0.52342 0.50826 0.0
C2591 C 0.42554 0.49947 0.447 0.0
H2592 H 0.4098 0.49021 0.57148 0.0
C2593 C 0.42232 0.45873 0.49918 0.0
C2594 C 0.42313 0.45616 0.55629 0.0
C2595 C 0.42119 0.46843 0.48336 0.0
C2596 C 0.41428 0.4927 0.53685 0.0
H2597 H 0.42138 0.53211 0.35297 0.0
H2598 H 0.41972 0.51479 0.37381 0.0
H2599 H 0.40942 0.50741 0.54591 0.0
H2600 H 0.42319 0.46178 0.64163 0.0
H2601 H 0.42134 0.47877 0.61385 0.0
H2602 H 0.43053 0.48481 0.43846 0.0
C2603 C 0.42026 0.51989 0.40845 0.0
C2604 C 0.41405 0.50254 0.52216 0.0
C2605 C 0.42117 0.52981 0.39654 0.0
C2606 C 0.42259 0.46351 0.59728 0.0
C2607 C 0.42147 0.47324 0.58139 0.0
C2608 C 0.42577 0.48964 0.46168 0.0
C2609 C 0.4201 0.51659 0.46446 0.0
C2610 C 0.41976 0.50604 0.47747 0.0
C2611 C 0.42086 0.47581 0.52422 0.0
C2612 C 0.42022 0.48616 0.50712 0.0
H2613 H 0.42219 0.53835 0.53132 0.0
H2614 H 0.4207 0.5211 0.55184 0.0
H2615 H 0.43014 0.50197 0.41294 0.0
H2616 H 0.42262 0.45325 0.46646 0.0
H2617 H 0.42059 0.47017 0.43902 0.0
C2618 C 0.77895 0.17558 0.86107 0.0
C2619 C 0.78595 0.17582 0.81797 0.0
C2620 C 0.76903 0.17543 0.84798 0.0
C2621 C 0.75208 0.18164 0.73312 0.0
H2622 H 0.73395 0.16519 0.81418 0.0
C2623 C 0.7128 0.17589 0.65746 0.0
C2624 C 0.70545 0.17626 0.69848 0.0
C2625 C 0.72257 0.17563 0.67327 0.0
C2626 C 0.73892 0.16989 0.79155 0.0
H2627 H 0.788 0.17581 0.72731 0.0
H2628 H 0.7708 0.17543 0.70477 0.0
H2629 H 0.75114 0.16513 0.84019 0.0
H2630 H 0.70261 0.17651 0.78839 0.0
H2631 H 0.71968 0.17611 0.81581 0.0
H2632 H 0.7399 0.18638 0.68439 0.0
C2633 C 0.77294 0.17555 0.74863 0.0
C2634 C 0.74875 0.16986 0.80647 0.0
C2635 C 0.78282 0.17572 0.76164 0.0
C2636 C 0.70809 0.17623 0.75567 0.0
C2637 C 0.71787 0.17595 0.77146 0.0
C2638 C 0.74228 0.18165 0.71818 0.0
C2639 C 0.76593 0.17551 0.79158 0.0
C2640 C 0.75544 0.17569 0.77714 0.0
C2641 C 0.72521 0.17572 0.73041 0.0
C2642 C 0.7356 0.17574 0.74699 0.0
H2643 H 0.78111 0.17566 0.9049 0.0
H2644 H 0.76379 0.17547 0.88201 0.0
H2645 H 0.75702 0.18636 0.71045 0.0
H2646 H 0.71103 0.17586 0.61304 0.0
H2647 H 0.72807 0.17532 0.64069 0.0
C2648 C 0.92345 0.45975 0.99937 0.0
C2649 C 0.924 0.45666 0.94304 0.0
C2650 C 0.9229 0.46961 0.01249 0.0
C2651 C 0.91711 0.49375 0.95362 0.0
H2652 H 0.93318 0.50295 0.07681 0.0
C2653 C 0.92421 0.53449 0.99663 0.0
C2654 C 0.92438 0.53758 0.05305 0.0
C2655 C 0.92355 0.52461 0.98345 0.0
C2656 C 0.92855 0.50048 0.04282 0.0
H2657 H 0.92421 0.46155 0.85621 0.0
H2658 H 0.92337 0.47885 0.87929 0.0
H2659 H 0.93319 0.48574 0.05261 0.0
H2660 H 0.92377 0.5327 0.13988 0.0
H2661 H 0.92256 0.51546 0.11674 0.0
H2662 H 0.91253 0.50855 0.94364 0.0
C2663 C 0.92326 0.47359 0.91322 0.0
C2664 C 0.92856 0.49062 0.0289 0.0
C2665 C 0.92379 0.46368 0.90002 0.0
C2666 C 0.92371 0.53057 0.09599 0.0
C2667 C 0.92306 0.52069 0.08276 0.0
C2668 C 0.9171 0.50363 0.96755 0.0
C2669 C 0.92292 0.47665 0.96966 0.0
C2670 C 0.92284 0.48715 0.98418 0.0
C2671 C 0.92305 0.5176 0.02636 0.0
C2672 C 0.92283 0.5071 0.01228 0.0
H2673 H 0.9235 0.45454 0.03361 0.0
H2674 H 0.92247 0.47173 0.05632 0.0
H2675 H 0.91253 0.49127 0.9194 0.0
H2676 H 0.92471 0.53968 0.96246 0.0
H2677 H 0.92366 0.52246 0.93961 0.0
C2678 C 0.20974 0.17488 0.75058 0.0
C2679 C 0.20653 0.17519 0.80677 0.0
C2680 C 0.21964 0.17461 0.73811 0.0
C2681 C 0.24341 0.18099 0.79765 0.0
H2682 H 0.25351 0.16446 0.67897 0.0
C2683 C 0.28439 0.17661 0.76001 0.0
C2684 C 0.2877 0.17661 0.70402 0.0
C2685 C 0.27448 0.17611 0.77197 0.0
C2686 C 0.25078 0.16919 0.71179 0.0
H2687 H 0.21124 0.17527 0.89394 0.0
H2688 H 0.22856 0.17475 0.87204 0.0
H2689 H 0.2362 0.16399 0.70179 0.0
H2690 H 0.28317 0.17598 0.61663 0.0
H2691 H 0.2658 0.17524 0.63764 0.0
H2692 H 0.25793 0.18626 0.80749 0.0
C2693 C 0.22338 0.17483 0.83769 0.0
C2694 C 0.24088 0.16891 0.72493 0.0
C2695 C 0.21346 0.17507 0.85022 0.0
C2696 C 0.28086 0.176 0.66021 0.0
C2697 C 0.27091 0.17552 0.67224 0.0
C2698 C 0.25329 0.18129 0.78448 0.0
C2699 C 0.22657 0.17466 0.78149 0.0
C2700 C 0.2371 0.1748 0.76805 0.0
C2701 C 0.26763 0.17563 0.72829 0.0
C2702 C 0.25709 0.17538 0.74151 0.0
H2703 H 0.2046 0.17496 0.71602 0.0
H2704 H 0.22188 0.1746 0.6944 0.0
H2705 H 0.24069 0.18575 0.83038 0.0
H2706 H 0.28945 0.17699 0.79488 0.0
H2707 H 0.2722 0.17604 0.81559 0.0
C2708 C 0.57106 0.46496 0.59573 0.0
C2709 C 0.57087 0.45775 0.55382 0.0
C2710 C 0.57176 0.47479 0.58101 0.0
C2711 C 0.5668 0.49127 0.46241 0.0
H2712 H 0.58257 0.50961 0.54629 0.0
C2713 C 0.57103 0.53108 0.39155 0.0
C2714 C 0.57017 0.53817 0.43389 0.0
C2715 C 0.57195 0.52125 0.40563 0.0
C2716 C 0.57809 0.50458 0.52272 0.0
H2717 H 0.57163 0.45519 0.46369 0.0
H2718 H 0.57296 0.47225 0.43836 0.0
H2719 H 0.58262 0.49243 0.57276 0.0
H2720 H 0.56983 0.54049 0.52429 0.0
H2721 H 0.57132 0.52337 0.54863 0.0
H2722 H 0.56217 0.50338 0.41276 0.0
C2723 C 0.57237 0.47035 0.48247 0.0
C2724 C 0.5781 0.49475 0.53791 0.0
C2725 C 0.57166 0.46055 0.49709 0.0
C2726 C 0.57047 0.53523 0.49057 0.0
C2727 C 0.57139 0.52542 0.5046 0.0
C2728 C 0.56678 0.50107 0.44725 0.0
C2729 C 0.5723 0.47758 0.52415 0.0
C2730 C 0.57244 0.488 0.50795 0.0
C2731 C 0.57204 0.51831 0.4623 0.0
C2732 C 0.5724 0.50784 0.47731 0.0
H2733 H 0.57048 0.46305 0.63981 0.0
H2734 H 0.57162 0.48022 0.61407 0.0
H2735 H 0.56222 0.48628 0.43911 0.0
H2736 H 0.57089 0.53309 0.34749 0.0
H2737 H 0.57257 0.51595 0.3721 0.0
C2738 C 0.27882 0.81911 0.36884 0.0
C2739 C 0.28558 0.81881 0.32447 0.0
C2740 C 0.26886 0.81979 0.35756 0.0
C2741 C 0.25145 0.8268 0.24632 0.0
H2742 H 0.23376 0.80934 0.3234 0.0
C2743 C 0.21292 0.81896 0.16416 0.0
C2744 C 0.20536 0.81819 0.20368 0.0
C2745 C 0.22257 0.8197 0.18192 0.0
C2746 C 0.23858 0.81436 0.30208 0.0
H2747 H 0.28716 0.81912 0.23351 0.0
H2748 H 0.26988 0.82025 0.21413 0.0
H2749 H 0.25089 0.80965 0.35008 0.0
H2750 H 0.20202 0.81766 0.29298 0.0
H2751 H 0.21886 0.81902 0.32379 0.0
H2752 H 0.23919 0.83142 0.19784 0.0
C2753 C 0.27226 0.82005 0.25758 0.0
C2754 C 0.24839 0.81455 0.31741 0.0
C2755 C 0.28217 0.81933 0.26876 0.0
C2756 C 0.20767 0.81821 0.26136 0.0
C2757 C 0.21732 0.81895 0.27909 0.0
C2758 C 0.24166 0.82662 0.23106 0.0
C2759 C 0.26549 0.82025 0.30177 0.0
C2760 C 0.25495 0.82066 0.28906 0.0
C2761 C 0.22487 0.81969 0.23956 0.0
C2762 C 0.23515 0.8203 0.25818 0.0
H2763 H 0.28121 0.81874 0.41223 0.0
H2764 H 0.2638 0.82 0.39247 0.0
H2765 H 0.25631 0.83171 0.22439 0.0
H2766 H 0.21141 0.81895 0.11942 0.0
H2767 H 0.22824 0.82012 0.1504 0.0
C2768 C 0.57045 0.95894 0.50226 0.0
C2769 C 0.56973 0.95589 0.44592 0.0
C2770 C 0.57128 0.96879 0.51546 0.0
C2771 C 0.57746 0.99282 0.45596 0.0
H2772 H 0.56144 0.00244 0.57828 0.0
C2773 C 0.56976 0.03357 0.49066 0.0
C2774 C 0.5695 0.03708 0.54624 0.0
C2775 C 0.57065 0.02363 0.48 0.0
C2776 C 0.56607 -0.00015 0.54459 0.0
H2777 H 0.56954 0.96081 0.35915 0.0
H2778 H 0.57088 0.97806 0.38234 0.0
H2779 H 0.56142 0.98515 0.55606 0.0
H2780 H 0.57017 0.03289 0.63422 0.0
H2781 H 0.57177 0.0155 0.61545 0.0
H2782 H 0.582 0.00758 0.44408 0.0
C2783 C 0.5709 0.97279 0.41624 0.0
C2784 C 0.56605 0.98994 0.53181 0.0
C2785 C 0.57008 0.96291 0.40297 0.0
C2786 C 0.57031 0.03042 0.59093 0.0
C2787 C 0.57118 0.02046 0.5802 0.0
C2788 C 0.57747 0.00274 0.46875 0.0
C2789 C 0.57139 0.97583 0.47268 0.0
C2790 C 0.5717 0.98633 0.48714 0.0
C2791 C 0.57129 0.01696 0.52461 0.0
C2792 C 0.57172 0.00637 0.51294 0.0
H2793 H 0.57029 0.95372 0.53644 0.0
H2794 H 0.57182 0.97089 0.55929 0.0
H2795 H 0.58199 0.99023 0.42183 0.0
H2796 H 0.56917 0.03848 0.45518 0.0
H2797 H 0.57059 0.02115 0.43672 0.0
C2798 C 0.20914 0.31816 0.73285 0.0
C2799 C 0.20582 0.31789 0.7888 0.0
C2800 C 0.21906 0.31873 0.72107 0.0
C2801 C 0.24276 0.3252 0.78352 0.0
H2802 H 0.25301 0.309 0.66372 0.0
C2803 C 0.28371 0.3183 0.75325 0.0
C2804 C 0.28738 0.31826 0.698 0.0
C2805 C 0.27373 0.31882 0.76304 0.0
C2806 C 0.25024 0.31367 0.69677 0.0
H2807 H 0.21033 0.31812 0.8763 0.0
H2808 H 0.22769 0.31898 0.85563 0.0
H2809 H 0.23565 0.30879 0.68401 0.0
H2810 H 0.28341 0.31885 0.60967 0.0
H2811 H 0.26593 0.31977 0.62691 0.0
H2812 H 0.2574 0.32998 0.79668 0.0
C2813 C 0.22259 0.31887 0.82091 0.0
C2814 C 0.24029 0.31354 0.70844 0.0
C2815 C 0.21264 0.31832 0.83274 0.0
C2816 C 0.28082 0.31883 0.65272 0.0
C2817 C 0.27082 0.31932 0.66257 0.0
C2818 C 0.25272 0.32531 0.77192 0.0
C2819 C 0.2259 0.31901 0.76491 0.0
C2820 C 0.23645 0.31928 0.75208 0.0
C2821 C 0.26717 0.31929 0.71784 0.0
C2822 C 0.25656 0.3195 0.72861 0.0
H2823 H 0.20409 0.31791 0.69791 0.0
H2824 H 0.22136 0.31899 0.67751 0.0
H2825 H 0.24001 0.32982 0.81682 0.0
H2826 H 0.28854 0.31786 0.78917 0.0
H2827 H 0.27114 0.31865 0.80607 0.0
C2828 C 0.92432 0.96378 0.09801 0.0
C2829 C 0.92508 0.95703 0.05382 0.0
C2830 C 0.92358 0.97374 0.08653 0.0
C2831 C 0.91732 0.99117 0.97373 0.0
H2832 H 0.93336 0.00903 0.05936 0.0
C2833 C 0.92416 0.03097 0.90531 0.0
C2834 C 0.92445 0.03806 0.9479 0.0
C2835 C 0.92355 0.0211 0.91911 0.0
C2836 C 0.92873 0.00416 0.03555 0.0
H2837 H 0.92552 0.95544 0.96286 0.0
H2838 H 0.92431 0.97274 0.94314 0.0
H2839 H 0.9334 0.99178 0.08297 0.0
H2840 H 0.92405 0.04034 0.03837 0.0
H2841 H 0.92288 0.02319 0.06212 0.0
H2842 H 0.91271 0.00356 0.926 0.0
C2843 C 0.92418 0.97035 0.98658 0.0
C2844 C 0.92875 0.99428 0.04913 0.0
C2845 C 0.92495 0.96043 0.99799 0.0
C2846 C 0.92392 0.03508 0.00444 0.0
C2847 C 0.9233 0.02524 0.01815 0.0
C2848 C 0.91729 0.00106 0.96018 0.0
C2849 C 0.92353 0.97712 0.03067 0.0
C2850 C 0.9231 0.98767 0.01812 0.0
C2851 C 0.92322 0.01813 0.97573 0.0
C2852 C 0.92304 0.00765 0.99074 0.0
H2853 H 0.92437 0.9614 0.14147 0.0
H2854 H 0.92299 0.97878 0.12138 0.0
H2855 H 0.91278 0.98627 0.94956 0.0
H2856 H 0.92456 0.03303 0.86136 0.0
H2857 H 0.92359 0.01578 0.88546 0.0
C2858 C 0.28292 0.6755 0.25888 0.0
C2859 C 0.28619 0.67582 0.31492 0.0
C2860 C 0.27301 0.67523 0.24676 0.0
C2861 C 0.24896 0.66976 0.30768 0.0
H2862 H 0.23976 0.68584 0.18448 0.0
C2863 C 0.20818 0.67644 0.26219 0.0
C2864 C 0.20525 0.67629 0.20547 0.0
C2865 C 0.21803 0.67606 0.27638 0.0
C2866 C 0.24223 0.68123 0.21858 0.0
H2867 H 0.28158 0.67593 0.40225 0.0
H2868 H 0.26421 0.67558 0.38092 0.0
H2869 H 0.25697 0.68581 0.20843 0.0
H2870 H 0.21039 0.67546 0.11922 0.0
H2871 H 0.22756 0.67476 0.14411 0.0
H2872 H 0.23416 0.66524 0.31791 0.0
C2873 C 0.26935 0.67544 0.34644 0.0
C2874 C 0.25209 0.68121 0.23232 0.0
C2875 C 0.2793 0.67569 0.35864 0.0
C2876 C 0.21239 0.67563 0.16331 0.0
C2877 C 0.22223 0.67528 0.17753 0.0
C2878 C 0.23907 0.6698 0.29398 0.0
C2879 C 0.26611 0.67531 0.29031 0.0
C2880 C 0.25558 0.67543 0.2768 0.0
C2881 C 0.22516 0.67555 0.23419 0.0
C2882 C 0.23562 0.6755 0.2491 0.0
H2883 H 0.28801 0.67551 0.22412 0.0
H2884 H 0.27075 0.67494 0.20312 0.0
H2885 H 0.25144 0.66515 0.34176 0.0
H2886 H 0.20288 0.67694 0.29576 0.0
H2887 H 0.22006 0.67637 0.32038 0.0
C2888 C 0.42223 0.03501 0.49151 0.0
C2889 C 0.42296 0.0377 0.54846 0.0
C2890 C 0.42133 0.02524 0.47629 0.0
C2891 C 0.4148 0.00098 0.53132 0.0
H2892 H 0.43077 0.99172 0.4079 0.0
C2893 C 0.42233 0.96037 0.49243 0.0
C2894 C 0.42263 0.95701 0.43656 0.0
C2895 C 0.42145 0.97027 0.50397 0.0
C2896 C 0.42615 0.99422 0.44186 0.0
H2897 H 0.42313 0.03223 0.63415 0.0
H2898 H 0.42166 0.01516 0.60744 0.0
H2899 H 0.43096 0.00892 0.43251 0.0
H2900 H 0.42202 0.96144 0.34895 0.0
H2901 H 0.42044 0.97878 0.36926 0.0
H2902 H 0.41011 0.98623 0.54113 0.0
C2903 C 0.42169 0.02063 0.57463 0.0
C2904 C 0.42626 0.00407 0.45601 0.0
C2905 C 0.42259 0.03041 0.58991 0.0
C2906 C 0.42186 0.96378 0.39245 0.0
C2907 C 0.42099 0.97371 0.40406 0.0
C2908 C 0.41469 0.99112 0.51716 0.0
C2909 C 0.42113 0.01794 0.51763 0.0
C2910 C 0.42066 0.00755 0.50121 0.0
C2911 C 0.42084 0.97706 0.45996 0.0
C2912 C 0.42044 0.98762 0.47264 0.0
H2913 H 0.42242 0.04043 0.45846 0.0
H2914 H 0.42077 0.02341 0.43207 0.0
H2915 H 0.41029 0.00347 0.56578 0.0
H2916 H 0.4229 0.95536 0.52748 0.0
H2917 H 0.42149 0.97263 0.54747 0.0
C2918 C 0.71342 0.67403 0.36352 0.0
C2919 C 0.7069 0.67474 0.3181 0.0
C2920 C 0.72341 0.67319 0.35384 0.0
C2921 C 0.74132 0.66644 0.24493 0.0
H2922 H 0.75877 0.68329 0.32809 0.0
C2923 C 0.78057 0.67398 0.17291 0.0
C2924 C 0.78782 0.67477 0.21434 0.0
C2925 C 0.7708 0.67316 0.18818 0.0
C2926 C 0.75402 0.67842 0.30509 0.0
H2927 H 0.70578 0.67495 0.22691 0.0
H2928 H 0.72314 0.67353 0.21029 0.0
H2929 H 0.7415 0.68315 0.35104 0.0
H2930 H 0.79048 0.67512 0.30442 0.0
H2931 H 0.77346 0.67357 0.33089 0.0
H2932 H 0.75381 0.66177 0.1986 0.0
C2933 C 0.72054 0.67355 0.25331 0.0
C2934 C 0.74413 0.67835 0.31827 0.0
C2935 C 0.71058 0.67444 0.26292 0.0
C2936 C 0.78509 0.67459 0.27138 0.0
C2937 C 0.77532 0.67374 0.28661 0.0
C2938 C 0.75121 0.66649 0.23186 0.0
C2939 C 0.72706 0.67297 0.2986 0.0
C2940 C 0.73766 0.67246 0.28778 0.0
C2941 C 0.76806 0.67308 0.2452 0.0
C2942 C 0.75765 0.67258 0.26128 0.0
H2943 H 0.71082 0.67422 0.40654 0.0
H2944 H 0.72828 0.67269 0.38955 0.0
H2945 H 0.73651 0.66171 0.2213 0.0
H2946 H 0.78241 0.67412 0.1286 0.0
H2947 H 0.76537 0.67279 0.15523 0.0
C2948 C 0.06867 0.96216 0.08705 0.0
C2949 C 0.06812 0.95537 0.04295 0.0
C2950 C 0.06929 0.97212 0.0754 0.0
C2951 C 0.06394 0.98989 0.96316 0.0
H2952 H 0.08063 0.00695 0.05015 0.0
C2953 C 0.06953 0.03021 0.90442 0.0
C2954 C 0.06896 0.03689 0.94912 0.0
C2955 C 0.07003 0.02023 0.91514 0.0
C2956 C 0.07589 0.00227 0.02574 0.0
H2957 H 0.06803 0.95371 0.95201 0.0
H2958 H 0.06923 0.97098 0.93197 0.0
H2959 H 0.0803 0.98955 0.07105 0.0
H2960 H 0.06868 0.03829 0.04018 0.0
H2961 H 0.06952 0.02092 0.05862 0.0
H2962 H 0.0595 0.0026 0.91798 0.0
C2963 C 0.069 0.96865 0.9755 0.0
C2964 C 0.07568 0.99233 0.03779 0.0
C2965 C 0.06835 0.95873 0.98708 0.0
C2966 C 0.0691 0.03336 0.0047 0.0
C2967 C 0.06964 0.0234 0.01536 0.0
C2968 C 0.06416 -0.00018 0.95103 0.0
C2969 C 0.06938 0.97547 0.01946 0.0
C2970 C 0.06969 0.98603 0.0067 0.0
C2971 C 0.07003 0.01672 0.97073 0.0
C2972 C 0.07011 0.00612 0.98231 0.0
H2973 H 0.0685 0.95981 0.13054 0.0
H2974 H 0.06948 0.9772 0.11022 0.0
H2975 H 0.05911 0.98527 0.93904 0.0
H2976 H 0.06947 0.03268 0.86113 0.0
H2977 H 0.07044 0.01524 0.8799 0.0
C2978 C 0.70967 0.31879 0.74751 0.0
C2979 C 0.70627 0.31857 0.69168 0.0
C2980 C 0.71959 0.31944 0.7589 0.0
C2981 C 0.74341 0.31421 0.69716 0.0
H2982 H 0.75299 0.33063 0.81783 0.0
C2983 C 0.78429 0.31847 0.74151 0.0
C2984 C 0.78725 0.3183 0.79816 0.0
C2985 C 0.77447 0.31914 0.72753 0.0
C2986 C 0.75041 0.32594 0.78437 0.0
H2987 H 0.71067 0.31898 0.604 0.0
H2988 H 0.72805 0.32012 0.62407 0.0
H2989 H 0.73572 0.33077 0.79433 0.0
H2990 H 0.78218 0.31882 0.88458 0.0
H2991 H 0.76499 0.31984 0.86009 0.0
H2992 H 0.75805 0.30926 0.68766 0.0
C2993 C 0.723 0.31972 0.65892 0.0
C2994 C 0.74053 0.32604 0.77084 0.0
C2995 C 0.71304 0.31911 0.64746 0.0
C2996 C 0.78015 0.31895 0.84054 0.0
C2997 C 0.7703 0.31959 0.8265 0.0
C2998 C 0.75328 0.3141 0.71076 0.0
C2999 C 0.72637 0.31985 0.71479 0.0
C3000 C 0.73692 0.32013 0.72732 0.0
C3001 C 0.76735 0.31961 0.76982 0.0
C3002 C 0.75689 0.31993 0.7547 0.0
H3003 H 0.70467 0.3184 0.78264 0.0
H3004 H 0.72197 0.3194 0.80236 0.0
H3005 H 0.74082 0.30947 0.66399 0.0
H3006 H 0.78956 0.31806 0.70772 0.0
H3007 H 0.77245 0.31931 0.68348 0.0
C3008 C 0.0334 0.57797 0.05293 0.0
C3009 C 0.03827 0.57388 0.09927 0.0
C3010 C 0.02342 0.57971 0.0551 0.0
C3011 C 0.0021 0.58127 0.1503 0.0
H3012 H 0.98821 0.57209 0.01856 0.0
C3013 C 0.96103 0.57213 0.14886 0.0
C3014 C 0.95574 0.57405 0.09944 0.0
C3015 C 0.97106 0.57376 0.15073 0.0
C3016 C 0.99196 0.57486 0.05531 0.0
H3017 H 0.03654 0.56888 0.18534 0.0
H3018 H 0.01905 0.57175 0.1887 0.0
H3019 H 0.00585 0.57208 0.01868 0.0
H3020 H 0.95674 0.57974 0.01439 0.0
H3021 H 0.97417 0.58268 0.018 0.0
H3022 H 0.98812 0.58383 0.18727 0.0
C3023 C 0.02299 0.5737 0.15088 0.0
C3024 C 0.00209 0.57485 0.05538 0.0
C3025 C 0.033 0.57201 0.14882 0.0
C3026 C 0.96061 0.57806 0.05289 0.0
C3027 C 0.97061 0.57972 0.05486 0.0
C3028 C 0.99193 0.58128 0.15022 0.0
C3029 C 0.01806 0.57735 0.10353 0.0
C3030 C 0.00729 0.57799 0.10296 0.0
C3031 C 0.97599 0.57737 0.1033 0.0
C3032 C 0.98676 0.578 0.10281 0.0
H3033 H 0.03726 0.57964 0.01436 0.0
H3034 H 0.01986 0.58271 0.01833 0.0
H3035 H 0.00591 0.58381 0.1874 0.0
H3036 H 0.9575 0.56907 0.18555 0.0
H3037 H 0.975 0.5718 0.18854 0.0
C3038 C 0.66696 0.71158 0.32171 0.0
C3039 C 0.66988 0.70576 0.36734 0.0
C3040 C 0.66516 0.72148 0.32917 0.0
C3041 C 0.6725 0.74164 0.41967 0.0
H3042 H 0.65275 0.75576 0.33661 0.0
C3043 C 0.67107 0.78345 0.42244 0.0
C3044 C 0.67021 0.7878 0.36912 0.0
C3045 C 0.66923 0.77353 0.42943 0.0
C3046 C 0.6583 0.75191 0.36002 0.0
H3047 H 0.67276 0.70572 0.45718 0.0
H3048 H 0.66958 0.72303 0.47012 0.0
H3049 H 0.65266 0.73799 0.33619 0.0
H3050 H 0.66634 0.78521 0.2818 0.0
H3051 H 0.66329 0.76792 0.29386 0.0
H3052 H 0.67836 0.75551 0.44193 0.0
C3053 C 0.6688 0.71992 0.42848 0.0
C3054 C 0.65825 0.74175 0.35981 0.0
C3055 C 0.67058 0.71 0.42105 0.0
C3056 C 0.66711 0.78209 0.32343 0.0
C3057 C 0.66528 0.77218 0.33043 0.0
C3058 C 0.67256 0.75179 0.41984 0.0
C3059 C 0.66624 0.7258 0.3824 0.0
C3060 C 0.66548 0.73651 0.38857 0.0
C3061 C 0.66648 0.76775 0.38328 0.0
C3062 C 0.6656 0.75704 0.38895 0.0
H3063 H 0.66631 0.70855 0.2798 0.0
H3064 H 0.66332 0.72583 0.29269 0.0
H3065 H 0.67824 0.73782 0.44164 0.0
H3066 H 0.67338 0.78764 0.45862 0.0
H3067 H 0.6701 0.77034 0.47083 0.0
C3068 C 0.4614 0.42337 0.65524 0.0
C3069 C 0.45612 0.42125 0.60607 0.0
C3070 C 0.47147 0.42206 0.65678 0.0
C3071 C 0.49238 0.4214 0.56113 0.0
H3072 H 0.5065 0.41241 0.69252 0.0
C3073 C 0.53384 0.41797 0.55725 0.0
C3074 C 0.53882 0.42189 0.60363 0.0
C3075 C 0.52382 0.41647 0.55958 0.0
C3076 C 0.50265 0.41498 0.65565 0.0
H3077 H 0.45722 0.41559 0.52099 0.0
H3078 H 0.47473 0.41321 0.52401 0.0
H3079 H 0.48871 0.41228 0.69292 0.0
H3080 H 0.53725 0.42689 0.6898 0.0
H3081 H 0.51971 0.42441 0.69348 0.0
H3082 H 0.50622 0.42429 0.52415 0.0
C3083 C 0.47112 0.41608 0.56096 0.0
C3084 C 0.49248 0.4149 0.65587 0.0
C3085 C 0.46107 0.4174 0.55935 0.0
C3086 C 0.53363 0.42389 0.65326 0.0
C3087 C 0.52358 0.42241 0.6555 0.0
C3088 C 0.50251 0.42148 0.56091 0.0
C3089 C 0.47646 0.41858 0.60925 0.0
C3090 C 0.48724 0.41816 0.60866 0.0
C3091 C 0.51854 0.41888 0.60823 0.0
C3092 C 0.50777 0.41831 0.60821 0.0
H3093 H 0.45781 0.42631 0.69207 0.0
H3094 H 0.47539 0.42413 0.69447 0.0
H3095 H 0.48857 0.42415 0.52454 0.0
H3096 H 0.53763 0.41623 0.51859 0.0
H3097 H 0.52017 0.41355 0.52286 0.0
C3098 C 0.82303 0.28326 0.91129 0.0
C3099 C 0.82384 0.28742 0.8574 0.0
C3100 C 0.82484 0.27337 0.91947 0.0
C3101 C 0.83557 0.25142 0.85304 0.0
H3102 H 0.8156 0.23785 0.93737 0.0
C3103 C 0.82683 0.21086 0.82314 0.0
C3104 C 0.8237 0.20538 0.86969 0.0
C3105 C 0.82874 0.22079 0.82863 0.0
C3106 C 0.82137 0.24152 0.91469 0.0
H3107 H 0.82761 0.2845 0.7703 0.0
H3108 H 0.83061 0.26722 0.78447 0.0
H3109 H 0.81555 0.25552 0.93434 0.0
H3110 H 0.82064 0.20594 0.95927 0.0
H3111 H 0.82406 0.22327 0.96884 0.0
H3112 H 0.84119 0.23735 0.83196 0.0
C3113 C 0.82868 0.27164 0.82053 0.0
C3114 C 0.82133 0.25167 0.91292 0.0
C3115 C 0.82688 0.28153 0.81233 0.0
C3116 C 0.82296 0.20996 0.92244 0.0
C3117 C 0.82488 0.21989 0.92792 0.0
C3118 C 0.83561 0.24126 0.85482 0.0
C3119 C 0.8275 0.26741 0.87398 0.0
C3120 C 0.82831 0.25672 0.88111 0.0
C3121 C 0.82759 0.22546 0.88081 0.0
C3122 C 0.82838 0.2362 0.88468 0.0
H3123 H 0.82077 0.28759 0.94703 0.0
H3124 H 0.824 0.27035 0.9613 0.0
H3125 H 0.84114 0.25512 0.8289 0.0
H3126 H 0.82751 0.20757 0.78192 0.0
H3127 H 0.83071 0.22488 0.79137 0.0
C3128 C 0.95968 0.42017 0.83895 0.0
C3129 C 0.9551 0.41996 0.89183 0.0
C3130 C 0.96966 0.41847 0.83426 0.0
C3131 C 0.99118 0.40891 0.91022 0.0
H3132 H 0.00512 0.42793 0.82072 0.0
C3133 C 0.03198 0.41713 0.93885 0.0
C3134 C 0.0375 0.41961 0.89119 0.0
C3135 C 0.02198 0.41555 0.93428 0.0
C3136 C 0.00136 0.42244 0.84503 0.0
H3137 H 0.95738 0.41733 0.981 0.0
H3138 H 0.97478 0.41449 0.9728 0.0
H3139 H 0.98746 0.42797 0.8208 0.0
H3140 H 0.03692 0.42188 0.80081 0.0
H3141 H 0.01951 0.41901 0.79285 0.0
H3142 H 0.00513 0.40354 0.93546 0.0
C3143 C 0.97064 0.4159 0.93488 0.0
C3144 C 0.99122 0.42246 0.84509 0.0
C3145 C 0.96066 0.4176 0.9396 0.0
C3146 C 0.03287 0.42008 0.8385 0.0
C3147 C 0.02288 0.41847 0.83393 0.0
C3148 C 0.00134 0.40888 0.91011 0.0
C3149 C 0.97528 0.41651 0.88231 0.0
C3150 C 0.98601 0.4158 0.87835 0.0
C3151 C 0.01729 0.41638 0.88193 0.0
C3152 C 0.00654 0.41574 0.87819 0.0
H3153 H 0.95563 0.42184 0.80121 0.0
H3154 H 0.973 0.41884 0.79304 0.0
H3155 H 0.98737 0.4036 0.93569 0.0
H3156 H 0.03531 0.41669 0.98008 0.0
H3157 H 0.01787 0.41405 0.97218 0.0
C3158 C 0.82111 0.78328 0.08625 0.0
C3159 C 0.82378 0.78864 0.13421 0.0
C3160 C 0.82266 0.77323 0.08423 0.0
C3161 C 0.82492 0.75263 0.18116 0.0
H3162 H 0.8319 0.738 0.04762 0.0
C3163 C 0.82825 0.71125 0.18989 0.0
C3164 C 0.82362 0.70606 0.14655 0.0
C3165 C 0.82984 0.72123 0.18491 0.0
C3166 C 0.8299 0.742 0.08514 0.0
H3167 H 0.83083 0.78779 0.21579 0.0
H3168 H 0.83365 0.77035 0.21185 0.0
H3169 H 0.83197 0.7558 0.04479 0.0
H3170 H 0.81743 0.70723 0.06278 0.0
H3171 H 0.82003 0.72473 0.05461 0.0
H3172 H 0.82263 0.73894 0.2213 0.0
C3173 C 0.83012 0.77385 0.17645 0.0
C3174 C 0.82994 0.75218 0.08352 0.0
C3175 C 0.82853 0.78385 0.17862 0.0
C3176 C 0.821 0.71101 0.09702 0.0
C3177 C 0.82254 0.72103 0.09218 0.0
C3178 C 0.82487 0.74251 0.18276 0.0
C3179 C 0.82695 0.76838 0.13 0.0
C3180 C 0.82742 0.7576 0.13154 0.0
C3181 C 0.82677 0.72628 0.13667 0.0
C3182 C 0.82732 0.73706 0.1348 0.0
H3183 H 0.81746 0.78676 0.05121 0.0
H3184 H 0.82009 0.76921 0.04795 0.0
H3185 H 0.82271 0.75658 0.2185 0.0
H3186 H 0.83049 0.70764 0.22831 0.0
H3187 H 0.83331 0.72503 0.21943 0.0
C3188 C 0.45967 0.57043 0.34507 0.0
C3189 C 0.45459 0.5722 0.39538 0.0
C3190 C 0.46972 0.57186 0.34236 0.0
C3191 C 0.49102 0.5723 0.43546 0.0
H3192 H 0.5045 0.58225 0.30419 0.0
C3193 C 0.53239 0.57682 0.43558 0.0
C3194 C 0.53732 0.5732 0.38818 0.0
C3195 C 0.52232 0.57805 0.43454 0.0
C3196 C 0.50083 0.57942 0.34101 0.0
H3197 H 0.456 0.57739 0.48131 0.0
H3198 H 0.47346 0.58 0.47625 0.0
H3199 H 0.48672 0.58201 0.30573 0.0
H3200 H 0.53557 0.56846 0.3016 0.0
H3201 H 0.51796 0.57049 0.30018 0.0
H3202 H 0.50504 0.56955 0.47049 0.0
C3203 C 0.46972 0.57729 0.4393 0.0
C3204 C 0.49066 0.57928 0.34188 0.0
C3205 C 0.4597 0.57583 0.44209 0.0
C3206 C 0.532 0.57123 0.33893 0.0
C3207 C 0.52191 0.57244 0.33797 0.0
C3208 C 0.50114 0.57245 0.43461 0.0
C3209 C 0.47488 0.57511 0.38984 0.0
C3210 C 0.48565 0.57568 0.3891 0.0
C3211 C 0.51695 0.57567 0.38617 0.0
C3212 C 0.50617 0.57597 0.38735 0.0
H3213 H 0.45594 0.56765 0.30826 0.0
H3214 H 0.4735 0.57005 0.30376 0.0
H3215 H 0.48739 0.56929 0.47199 0.0
H3216 H 0.53627 0.57852 0.47402 0.0
H3217 H 0.51873 0.58073 0.47202 0.0
C3218 C 0.66342 0.21048 0.67833 0.0
C3219 C 0.6682 0.20572 0.6339 0.0
C3220 C 0.66165 0.22046 0.67583 0.0
C3221 C 0.66143 0.24207 0.58243 0.0
H3222 H 0.66931 0.25543 0.71874 0.0
C3223 C 0.67097 0.28308 0.59209 0.0
C3224 C 0.66882 0.28816 0.64193 0.0
C3225 C 0.66915 0.2731 0.58812 0.0
C3226 C 0.66689 0.25184 0.68066 0.0
H3227 H 0.67434 0.20761 0.55046 0.0
H3228 H 0.67139 0.22511 0.5466 0.0
H3229 H 0.66911 0.2378 0.71674 0.0
H3230 H 0.66243 0.28689 0.72514 0.0
H3231 H 0.6591 0.26956 0.71776 0.0
H3232 H 0.65942 0.25621 0.54614 0.0
C3233 C 0.66895 0.22109 0.58316 0.0
C3234 C 0.66678 0.24171 0.6795 0.0
C3235 C 0.67069 0.21107 0.58553 0.0
C3236 C 0.66432 0.28316 0.68647 0.0
C3237 C 0.66244 0.27322 0.68233 0.0
C3238 C 0.66153 0.25225 0.58362 0.0
C3239 C 0.66466 0.22593 0.62901 0.0
C3240 C 0.66412 0.2367 0.63034 0.0
C3241 C 0.66508 0.26802 0.63377 0.0
C3242 C 0.66433 0.25724 0.63271 0.0
H3243 H 0.66127 0.20656 0.71587 0.0
H3244 H 0.65815 0.22395 0.71132 0.0
H3245 H 0.65928 0.2384 0.54406 0.0
H3246 H 0.67441 0.28673 0.55694 0.0
H3247 H 0.67134 0.2693 0.55027 0.0
C3248 C 0.32997 0.28373 0.69845 0.0
C3249 C 0.32556 0.28859 0.65314 0.0
C3250 C 0.3319 0.27379 0.69532 0.0
C3251 C 0.33306 0.25249 0.5993 0.0
H3252 H 0.32469 0.2386 0.7328 0.0
C3253 C 0.32368 0.21137 0.60439 0.0
C3254 C 0.32574 0.2062 0.65406 0.0
C3255 C 0.32551 0.22136 0.60115 0.0
C3256 C 0.32724 0.24234 0.69552 0.0
H3257 H 0.32022 0.28694 0.56773 0.0
H3258 H 0.32339 0.2695 0.56278 0.0
H3259 H 0.32464 0.25622 0.73264 0.0
H3260 H 0.33203 0.2073 0.7376 0.0
H3261 H 0.33536 0.22465 0.73154 0.0
H3262 H 0.3354 0.23848 0.56186 0.0
C3263 C 0.32546 0.27341 0.60049 0.0
C3264 C 0.32721 0.25247 0.69542 0.0
C3265 C 0.3236 0.2834 0.60346 0.0
C3266 C 0.33021 0.2111 0.69905 0.0
C3267 C 0.33209 0.22105 0.69567 0.0
C3268 C 0.33308 0.2423 0.59939 0.0
C3269 C 0.32939 0.26845 0.64702 0.0
C3270 C 0.33007 0.25768 0.64729 0.0
C3271 C 0.32949 0.22635 0.6474 0.0
C3272 C 0.33012 0.23713 0.64748 0.0
H3273 H 0.33173 0.28756 0.73701 0.0
H3274 H 0.33514 0.27023 0.7314 0.0
H3275 H 0.33536 0.2563 0.5617 0.0
H3276 H 0.32026 0.2078 0.56888 0.0
H3277 H 0.32338 0.22525 0.56348 0.0
C3278 C 0.16324 0.71095 0.18419 0.0
C3279 C 0.16811 0.70601 0.14073 0.0
C3280 C 0.16139 0.72089 0.18 0.0
C3281 C 0.16128 0.74202 0.08237 0.0
H3282 H 0.16816 0.75622 0.21762 0.0
C3283 C 0.17092 0.78303 0.08685 0.0
C3284 C 0.1683 0.78841 0.13485 0.0
C3285 C 0.16905 0.77304 0.08415 0.0
C3286 C 0.16603 0.75239 0.17976 0.0
H3287 H 0.17438 0.70756 0.05741 0.0
H3288 H 0.17134 0.725 0.05066 0.0
H3289 H 0.16815 0.73859 0.21894 0.0
H3290 H 0.16102 0.78765 0.21584 0.0
H3291 H 0.15767 0.7703 0.21069 0.0
H3292 H 0.15944 0.75593 0.04293 0.0
C3293 C 0.16885 0.72114 0.0877 0.0
C3294 C 0.16602 0.74225 0.18052 0.0
C3295 C 0.17065 0.71116 0.09173 0.0
C3296 C 0.16328 0.7837 0.1786 0.0
C3297 C 0.16138 0.77375 0.17576 0.0
C3298 C 0.1613 0.7522 0.08159 0.0
C3299 C 0.16443 0.72616 0.13245 0.0
C3300 C 0.16372 0.73694 0.13179 0.0
C3301 C 0.16449 0.76825 0.12929 0.0
C3302 C 0.16375 0.75748 0.13024 0.0
H3303 H 0.16106 0.70718 0.22218 0.0
H3304 H 0.15778 0.72451 0.21467 0.0
H3305 H 0.1594 0.73812 0.04428 0.0
H3306 H 0.17476 0.78644 0.05228 0.0
H3307 H 0.17159 0.769 0.0479 0.0
C3308 C 0.17031 0.28256 0.8893 0.0
C3309 C 0.16842 0.28758 0.83889 0.0
C3310 C 0.16859 0.27256 0.89315 0.0
C3311 C 0.16734 0.2512 0.80114 0.0
H3312 H 0.15873 0.23782 0.93592 0.0
C3313 C 0.16455 0.20974 0.80501 0.0
C3314 C 0.16882 0.20512 0.85164 0.0
C3315 C 0.16268 0.21971 0.80599 0.0
C3316 C 0.16117 0.24147 0.89807 0.0
H3317 H 0.16261 0.28616 0.75435 0.0
H3318 H 0.15947 0.26879 0.76143 0.0
H3319 H 0.15864 0.25562 0.93305 0.0
H3320 H 0.17398 0.20726 0.93708 0.0
H3321 H 0.17088 0.22474 0.93833 0.0
H3322 H 0.17011 0.23715 0.76648 0.0
C3323 C 0.16252 0.27252 0.79749 0.0
C3324 C 0.16112 0.25164 0.89643 0.0
C3325 C 0.16429 0.28249 0.79352 0.0
C3326 C 0.17072 0.21061 0.90036 0.0
C3327 C 0.16889 0.22062 0.90121 0.0
C3328 C 0.16739 0.24107 0.80277 0.0
C3329 C 0.1649 0.26739 0.84677 0.0
C3330 C 0.16428 0.25661 0.84802 0.0
C3331 C 0.16509 0.22531 0.85347 0.0
C3332 C 0.16438 0.23608 0.85132 0.0
H3333 H 0.17348 0.28627 0.9251 0.0
H3334 H 0.17057 0.26881 0.93158 0.0
H3335 H 0.17003 0.25478 0.76365 0.0
H3336 H 0.16286 0.20571 0.76709 0.0
H3337 H 0.15955 0.22308 0.76898 0.0
C3338 C 0.32163 0.7109 0.4151 0.0
C3339 C 0.32369 0.70582 0.36514 0.0
C3340 C 0.32333 0.72091 0.41864 0.0
C3341 C 0.3247 0.74207 0.32529 0.0
H3342 H 0.33293 0.75586 0.45947 0.0
C3343 C 0.32749 0.78347 0.32444 0.0
C3344 C 0.32312 0.78828 0.37006 0.0
C3345 C 0.32935 0.77351 0.32698 0.0
C3346 C 0.33059 0.75209 0.42179 0.0
H3347 H 0.32981 0.70712 0.28128 0.0
H3348 H 0.33291 0.7245 0.28784 0.0
H3349 H 0.33309 0.73804 0.45833 0.0
H3350 H 0.31777 0.78651 0.45536 0.0
H3351 H 0.32084 0.76903 0.4593 0.0
H3352 H 0.32197 0.75599 0.28903 0.0
C3353 C 0.32975 0.72081 0.32374 0.0
C3354 C 0.33069 0.74191 0.42114 0.0
C3355 C 0.328 0.71084 0.32007 0.0
C3356 C 0.32111 0.78301 0.41942 0.0
C3357 C 0.32292 0.773 0.4218 0.0
C3358 C 0.32461 0.75219 0.32594 0.0
C3359 C 0.32716 0.72601 0.3724 0.0
C3360 C 0.32769 0.7368 0.37289 0.0
C3361 C 0.32682 0.76811 0.375 0.0
C3362 C 0.32751 0.75734 0.37421 0.0
H3363 H 0.31834 0.70724 0.45067 0.0
H3364 H 0.32121 0.72472 0.4566 0.0
H3365 H 0.32213 0.73836 0.28791 0.0
H3366 H 0.32928 0.78734 0.28612 0.0
H3367 H 0.33257 0.76999 0.29069 0.0
C3368 C 0.53247 0.07159 0.63912 0.0
C3369 C 0.5377 0.07349 0.58948 0.0
C3370 C 0.52244 0.07316 0.64128 0.0
C3371 C 0.50136 0.07411 0.54695 0.0
H3372 H 0.48769 0.08325 0.67952 0.0
C3373 C 0.45984 0.07745 0.54825 0.0
C3374 C 0.45509 0.07352 0.59544 0.0
C3375 C 0.46986 0.07901 0.54906 0.0
C3376 C 0.49142 0.08065 0.6423 0.0
H3377 H 0.53656 0.07903 0.50417 0.0
H3378 H 0.51911 0.08187 0.50825 0.0
H3379 H 0.50547 0.08327 0.6782 0.0
H3380 H 0.45709 0.06855 0.68141 0.0
H3381 H 0.47462 0.07115 0.6824 0.0
H3382 H 0.48739 0.07128 0.51138 0.0
C3383 C 0.52273 0.07897 0.54512 0.0
C3384 C 0.50158 0.08066 0.64154 0.0
C3385 C 0.53274 0.07738 0.54288 0.0
C3386 C 0.46053 0.07156 0.64425 0.0
C3387 C 0.47057 0.0731 0.64498 0.0
C3388 C 0.49123 0.0741 0.5477 0.0
C3389 C 0.51743 0.07668 0.5939 0.0
C3390 C 0.50666 0.07731 0.59398 0.0
C3391 C 0.47537 0.07666 0.59697 0.0
C3392 C 0.48613 0.07729 0.5955 0.0
H3393 H 0.53604 0.06856 0.67572 0.0
H3394 H 0.51855 0.07123 0.67932 0.0
H3395 H 0.50504 0.07129 0.51008 0.0
H3396 H 0.45586 0.07914 0.51015 0.0
H3397 H 0.47333 0.08193 0.51176 0.0
C3398 C 0.03344 0.9186 0.14866 0.0
C3399 C 0.03766 0.91814 0.09484 0.0
C3400 C 0.02351 0.91687 0.15585 0.0
C3401 C 0.00148 0.90711 0.08506 0.0
H3402 H 0.98815 0.9266 0.1743 0.0
C3403 C 0.96113 0.91681 0.05574 0.0
C3404 C 0.95561 0.91945 0.10313 0.0
C3405 C 0.97103 0.91478 0.06091 0.0
C3406 C 0.99175 0.92097 0.15014 0.0
H3407 H 0.03483 0.91506 0.00674 0.0
H3408 H 0.01751 0.9122 0.01919 0.0
H3409 H 0.00582 0.92632 0.17248 0.0
H3410 H 0.95611 0.92153 0.19362 0.0
H3411 H 0.97339 0.91798 0.20257 0.0
H3412 H 0.98736 0.90199 0.06129 0.0
C3413 C 0.02189 0.91379 0.05597 0.0
C3414 C 0.00189 0.92081 0.1491 0.0
C3415 C 0.03181 0.91551 0.04877 0.0
C3416 C 0.96014 0.91963 0.15616 0.0
C3417 C 0.97006 0.91761 0.1613 0.0
C3418 C 0.99132 0.90728 0.08606 0.0
C3419 C 0.01759 0.91465 0.1094 0.0
C3420 C 0.00687 0.91401 0.11563 0.0
C3421 C 0.97565 0.91535 0.11357 0.0
C3422 C 0.98636 0.91435 0.11769 0.0
H3423 H 0.03773 0.92055 0.18514 0.0
H3424 H 0.02043 0.91745 0.19768 0.0
H3425 H 0.00511 0.90168 0.05957 0.0
H3426 H 0.95788 0.91655 0.01424 0.0
H3427 H 0.97515 0.91317 0.02321 0.0
C3428 C 0.53224 0.91639 0.44325 0.0
C3429 C 0.53726 0.92039 0.39721 0.0
C3430 C 0.5222 0.91496 0.44075 0.0
C3431 C 0.50106 0.91383 0.34423 0.0
H3432 H 0.48699 0.92299 0.47527 0.0
C3433 C 0.45989 0.92274 0.34402 0.0
C3434 C 0.4546 0.92076 0.39334 0.0
C3435 C 0.46994 0.92124 0.34241 0.0
C3436 C 0.49079 0.92024 0.43868 0.0
H3437 H 0.53568 0.92571 0.31169 0.0
H3438 H 0.51816 0.92331 0.30762 0.0
H3439 H 0.50463 0.92289 0.4763 0.0
H3440 H 0.45561 0.91506 0.47837 0.0
H3441 H 0.47306 0.9123 0.47514 0.0
H3442 H 0.48714 0.91135 0.30635 0.0
C3443 C 0.52201 0.92117 0.3454 0.0
C3444 C 0.50092 0.92018 0.43928 0.0
C3445 C 0.53206 0.92258 0.34785 0.0
C3446 C 0.45949 0.9168 0.43996 0.0
C3447 C 0.4695 0.91525 0.43822 0.0
C3448 C 0.49089 0.91387 0.34365 0.0
C3449 C 0.51695 0.91753 0.39225 0.0
C3450 C 0.50618 0.91703 0.39201 0.0
C3451 C 0.47488 0.91768 0.38997 0.0
C3452 C 0.48565 0.91713 0.39083 0.0
H3453 H 0.53602 0.91451 0.48174 0.0
H3454 H 0.51853 0.91198 0.4772 0.0
H3455 H 0.50492 0.91128 0.30735 0.0
H3456 H 0.45634 0.92578 0.30732 0.0
H3457 H 0.47389 0.92324 0.30471 0.0
C3458 C 0.03245 0.07666 0.94702 0.0
C3459 C 0.03812 0.0738 0.90065 0.0
C3460 C 0.0225 0.07838 0.9408 0.0
C3461 C 0.00211 0.07105 0.85164 0.0
H3462 H 0.98812 0.0909 0.93462 0.0
C3463 C 0.96046 0.07343 0.84239 0.0
C3464 C 0.95578 0.07439 0.89467 0.0
C3465 C 0.97046 0.075 0.83763 0.0
C3466 C 0.99193 0.0853 0.91133 0.0
H3467 H 0.03783 0.07093 0.81082 0.0
H3468 H 0.02049 0.074 0.8 0.0
H3469 H 0.00588 0.09077 0.93594 0.0
H3470 H 0.9579 0.07816 0.98258 0.0
H3471 H 0.97534 0.08074 0.9744 0.0
H3472 H 0.98822 0.06539 0.82834 0.0
C3473 C 0.02373 0.07478 0.84131 0.0
C3474 C 0.00209 0.08523 0.91206 0.0
C3475 C 0.03368 0.07307 0.8475 0.0
C3476 C 0.96127 0.07732 0.94165 0.0
C3477 C 0.97126 0.07888 0.9369 0.0
C3478 C 0.99197 0.07111 0.85096 0.0
C3479 C 0.018 0.07727 0.88809 0.0
C3480 C 0.00728 0.07801 0.88295 0.0
C3481 C 0.976 0.07755 0.88506 0.0
C3482 C 0.98676 0.07814 0.88152 0.0
H3483 H 0.03563 0.07733 0.98854 0.0
H3484 H 0.01827 0.08019 0.97779 0.0
H3485 H 0.00588 0.06528 0.82952 0.0
H3486 H 0.95649 0.07122 0.80528 0.0
H3487 H 0.97387 0.07407 0.79692 0.0
loop_
_geom_bond_atom_site_label_1
_geom_bond_atom_site_label_2
_geom_bond_distance
_geom_bond_site_symmetry_2
_ccdc_geom_bond_type
Co0 O3 1.970 . S
Co0 N17 1.989 . S
Co0 O25 1.967 . S
Co0 O32 1.920 1_554 S
Co1 O4 1.966 . S
Co1 N10 2.022 . S
Co1 N18 1.993 . S
Co1 O26 1.941 . S
C2 O3 1.258 . S
C2 O4 1.263 . S
O3 Co0 1.970 . S
O3 C2 1.258 . S
O4 Co1 1.966 . S
O4 C2 1.263 . S
C5 O6 1.235 . S
C5 O32 1.289 . S
O6 C5 1.235 . S
C7 C9 1.400 . S
C7 N10 1.351 . S
C7 C12 1.501 . S
C8 C9 1.387 . S
C8 N11 1.341 . S
C9 C7 1.400 . S
C9 C8 1.387 . S
N10 Co1 2.022 . S
N10 C7 1.351 . S
N10 N11 1.365 . S
N11 C8 1.341 . S
N11 N10 1.365 . S
N11 H31 0.862 . S
C12 C7 1.501 . S
C12 H13 0.961 . S
C12 H14 0.961 . S
C12 H15 0.960 . S
H13 C12 0.961 . S
H14 C12 0.961 . S
H15 C12 0.960 . S
C16 N17 1.342 . S
C16 C20 1.401 . S
C16 C21 1.499 1_554 S
N17 Co0 1.989 . S
N17 C16 1.342 . S
N17 N18 1.388 . S
N18 Co1 1.993 . S
N18 N17 1.388 . S
N18 C19 1.346 . S
C19 N18 1.346 . S
C19 C20 1.396 . S
C19 C29 1.510 . S
C20 C16 1.401 . S
C20 C19 1.396 . S
C21 C16 1.499 1_556 S
C21 H22 0.959 . S
C21 H23 0.960 . S
C21 H24 0.961 . S
H22 C21 0.959 . S
H23 C21 0.960 . S
H24 C21 0.961 . S
O25 Co0 1.967 . S
O25 C33 1.258 . S
O26 Co1 1.941 . S
O26 C33 1.266 . S
H27 C29 0.959 . S
H28 C29 0.961 . S
C29 C19 1.510 . S
C29 H27 0.959 . S
C29 H28 0.961 . S
C29 H30 0.960 . S
H30 C29 0.960 . S
H31 N11 0.862 . S
O32 Co0 1.920 1_556 S
O32 C5 1.289 . S
C33 O25 1.258 . S
C33 O26 1.266 . S
Co34 O37 1.970 . S
Co34 N51 1.989 . S
Co34 O59 1.967 . S
Co34 O66 1.920 . S
Co35 O38 1.966 . S
Co35 N44 2.022 . S
Co35 N52 1.993 . S
Co35 O60 1.941 . S
C36 O37 1.258 . S
C36 O38 1.263 . S
O37 Co34 1.970 . S
O37 C36 1.258 . S
O38 Co35 1.966 . S
O38 C36 1.263 . S
C39 O40 1.235 . S
C39 O66 1.289 . S
O40 C39 1.235 . S
C41 C43 1.400 . S
C41 N44 1.351 . S
C41 C46 1.501 . S
C42 C43 1.387 . S
C42 N45 1.341 . S
C43 C41 1.400 . S
C43 C42 1.387 . S
N44 Co35 2.022 . S
N44 C41 1.351 . S
N44 N45 1.365 . S
N45 C42 1.341 . S
N45 N44 1.365 . S
N45 H65 0.862 . S
C46 C41 1.501 . S
C46 H47 0.961 . S
C46 H48 0.961 . S
C46 H49 0.960 . S
H47 C46 0.961 . S
H48 C46 0.961 . S
H49 C46 0.960 . S
C50 N51 1.342 . S
C50 C54 1.401 . S
C50 C55 1.499 . S
N51 Co34 1.989 . S
N51 C50 1.342 . S
N51 N52 1.388 . S
N52 Co35 1.993 . S
N52 N51 1.388 . S
N52 C53 1.346 . S
C53 N52 1.346 . S
C53 C54 1.396 . S
C53 C63 1.510 . S
C54 C50 1.401 . S
C54 C53 1.396 . S
C55 C50 1.499 . S
C55 H56 0.959 . S
C55 H57 0.960 . S
C55 H58 0.961 . S
H56 C55 0.959 . S
H57 C55 0.960 . S
H58 C55 0.961 . S
O59 Co34 1.967 . S
O59 C67 1.258 . S
O60 Co35 1.941 . S
O60 C67 1.266 . S
H61 C63 0.959 . S
H62 C63 0.961 . S
C63 C53 1.510 . S
C63 H61 0.959 . S
C63 H62 0.961 . S
C63 H64 0.960 . S
H64 C63 0.960 . S
H65 N45 0.862 . S
O66 Co34 1.920 . S
O66 C39 1.289 . S
C67 O59 1.258 . S
C67 O60 1.266 . S
Co68 O71 1.970 . S
Co68 N85 1.989 . S
Co68 O93 1.967 . S
Co68 O100 1.920 . S
Co69 O72 1.966 . S
Co69 N78 2.022 . S
Co69 N86 1.993 . S
Co69 O94 1.941 . S
C70 O71 1.258 . S
C70 O72 1.263 . S
O71 Co68 1.970 . S
O71 C70 1.258 . S
O72 Co69 1.966 . S
O72 C70 1.263 . S
C73 O74 1.235 . S
C73 O100 1.289 . S
O74 C73 1.235 . S
C75 C77 1.400 . S
C75 N78 1.351 . S
C75 C80 1.501 . S
C76 C77 1.387 . S
C76 N79 1.341 . S
C77 C75 1.400 . S
C77 C76 1.387 . S
N78 Co69 2.022 . S
N78 C75 1.351 . S
N78 N79 1.365 . S
N79 C76 1.341 . S
N79 N78 1.365 . S
N79 H99 0.862 . S
C80 C75 1.501 . S
C80 H81 0.961 . S
C80 H82 0.961 . S
C80 H83 0.960 . S
H81 C80 0.961 . S
H82 C80 0.961 . S
H83 C80 0.960 . S
C84 N85 1.342 . S
C84 C88 1.401 . S
C84 C89 1.499 . S
N85 Co68 1.989 . S
N85 C84 1.342 . S
N85 N86 1.388 . S
N86 Co69 1.993 . S
N86 N85 1.388 . S
N86 C87 1.346 . S
C87 N86 1.346 . S
C87 C88 1.396 . S
C87 C97 1.510 . S
C88 C84 1.401 . S
C88 C87 1.396 . S
C89 C84 1.499 . S
C89 H90 0.959 . S
C89 H91 0.960 . S
C89 H92 0.961 . S
H90 C89 0.959 . S
H91 C89 0.960 . S
H92 C89 0.961 . S
O93 Co68 1.967 . S
O93 C101 1.258 . S
O94 Co69 1.941 . S
O94 C101 1.266 . S
H95 C97 0.959 . S
H96 C97 0.961 . S
C97 C87 1.510 . S
C97 H95 0.959 . S
C97 H96 0.961 . S
C97 H98 0.960 . S
H98 C97 0.960 . S
H99 N79 0.862 . S
O100 Co68 1.920 . S
O100 C73 1.289 . S
C101 O93 1.258 . S
C101 O94 1.266 . S
Co102 O105 1.970 . S
Co102 N119 1.989 . S
Co102 O127 1.967 . S
Co102 O134 1.920 . S
Co103 O106 1.966 . S
Co103 N112 2.022 . S
Co103 N120 1.993 . S
Co103 O128 1.941 . S
C104 O105 1.258 . S
C104 O106 1.263 . S
O105 Co102 1.970 . S
O105 C104 1.258 . S
O106 Co103 1.966 . S
O106 C104 1.263 . S
C107 O108 1.235 . S
C107 O134 1.289 . S
O108 C107 1.235 . S
C109 C111 1.400 . S
C109 N112 1.351 1_554 S
C109 C114 1.501 . S
C110 C111 1.387 . S
C110 N113 1.341 . S
C111 C109 1.400 . S
C111 C110 1.387 . S
N112 Co103 2.022 . S
N112 C109 1.351 1_556 S
N112 N113 1.365 1_556 S
N113 C110 1.341 . S
N113 N112 1.365 1_554 S
N113 H133 0.862 . S
C114 C109 1.501 . S
C114 H115 0.961 1_554 S
C114 H116 0.961 . S
C114 H117 0.960 . S
H115 C114 0.961 1_556 S
H116 C114 0.961 . S
H117 C114 0.960 . S
C118 N119 1.342 . S
C118 C122 1.401 . S
C118 C123 1.499 . S
N119 Co102 1.989 . S
N119 C118 1.342 . S
N119 N120 1.388 . S
N120 Co103 1.993 . S
N120 N119 1.388 . S
N120 C121 1.346 . S
C121 N120 1.346 . S
C121 C122 1.396 . S
C121 C131 1.510 . S
C122 C118 1.401 . S
C122 C121 1.396 . S
C123 C118 1.499 . S
C123 H124 0.959 . S
C123 H125 0.960 . S
C123 H126 0.961 . S
H124 C123 0.959 . S
H125 C123 0.960 . S
H126 C123 0.961 . S
O127 Co102 1.967 . S
O127 C135 1.258 . S
O128 Co103 1.941 . S
O128 C135 1.266 . S
H129 C131 0.959 . S
H130 C131 0.961 . S
C131 C121 1.510 . S
C131 H129 0.959 . S
C131 H130 0.961 . S
C131 H132 0.960 . S
H132 C131 0.960 . S
H133 N113 0.862 . S
O134 Co102 1.920 . S
O134 C107 1.289 . S
C135 O127 1.258 . S
C135 O128 1.266 . S
Co136 O139 1.970 . S
Co136 N153 1.989 . S
Co136 O161 1.967 . S
Co136 O168 1.920 1_556 S
Co137 O140 1.966 . S
Co137 N146 2.022 . S
Co137 N154 1.993 . S
Co137 O162 1.941 . S
C138 O139 1.258 . S
C138 O140 1.263 . S
O139 Co136 1.970 . S
O139 C138 1.258 . S
O140 Co137 1.966 . S
O140 C138 1.263 . S
C141 O142 1.235 . S
C141 O168 1.289 . S
O142 C141 1.235 . S
C143 C145 1.400 . S
C143 N146 1.351 . S
C143 C148 1.501 . S
C144 C145 1.387 . S
C144 N147 1.341 . S
C145 C143 1.400 . S
C145 C144 1.387 . S
N146 Co137 2.022 . S
N146 C143 1.351 . S
N146 N147 1.365 . S
N147 C144 1.341 . S
N147 N146 1.365 . S
N147 H167 0.862 . S
C148 C143 1.501 . S
C148 H149 0.961 . S
C148 H150 0.961 . S
C148 H151 0.960 . S
H149 C148 0.961 . S
H150 C148 0.961 . S
H151 C148 0.960 . S
C152 N153 1.342 . S
C152 C156 1.401 . S
C152 C157 1.499 1_556 S
N153 Co136 1.989 . S
N153 C152 1.342 . S
N153 N154 1.388 . S
N154 Co137 1.993 . S
N154 N153 1.388 . S
N154 C155 1.346 . S
C155 N154 1.346 . S
C155 C156 1.396 . S
C155 C165 1.510 . S
C156 C152 1.401 . S
C156 C155 1.396 . S
C157 C152 1.499 1_554 S
C157 H158 0.959 . S
C157 H159 0.960 . S
C157 H160 0.961 . S
H158 C157 0.959 . S
H159 C157 0.960 . S
H160 C157 0.961 . S
O161 Co136 1.967 . S
O161 C169 1.258 . S
O162 Co137 1.941 . S
O162 C169 1.266 . S
H163 C165 0.959 . S
H164 C165 0.961 . S
C165 C155 1.510 . S
C165 H163 0.959 . S
C165 H164 0.961 . S
C165 H166 0.960 . S
H166 C165 0.960 . S
H167 N147 0.862 . S
O168 Co136 1.920 1_554 S
O168 C141 1.289 . S
C169 O161 1.258 . S
C169 O162 1.266 . S
Co170 O173 1.970 . S
Co170 N187 1.989 . S
Co170 O195 1.967 . S
Co170 O202 1.920 . S
Co171 O174 1.966 . S
Co171 N180 2.022 . S
Co171 N188 1.993 . S
Co171 O196 1.941 . S
C172 O173 1.258 . S
C172 O174 1.263 . S
O173 Co170 1.970 . S
O173 C172 1.258 . S
O174 Co171 1.966 . S
O174 C172 1.263 . S
C175 O176 1.235 . S
C175 O202 1.289 . S
O176 C175 1.235 . S
C177 C179 1.400 . S
C177 N180 1.351 1_556 S
C177 C182 1.501 . S
C178 C179 1.387 . S
C178 N181 1.341 . S
C179 C177 1.400 . S
C179 C178 1.387 . S
N180 Co171 2.022 . S
N180 C177 1.351 1_554 S
N180 N181 1.365 1_554 S
N181 C178 1.341 . S
N181 N180 1.365 1_556 S
N181 H201 0.862 . S
C182 C177 1.501 . S
C182 H183 0.961 1_556 S
C182 H184 0.961 . S
C182 H185 0.960 . S
H183 C182 0.961 1_554 S
H184 C182 0.961 . S
H185 C182 0.960 . S
C186 N187 1.342 . S
C186 C190 1.401 . S
C186 C191 1.499 . S
N187 Co170 1.989 . S
N187 C186 1.342 . S
N187 N188 1.388 . S
N188 Co171 1.993 . S
N188 N187 1.388 . S
N188 C189 1.346 . S
C189 N188 1.346 . S
C189 C190 1.396 . S
C189 C199 1.510 . S
C190 C186 1.401 . S
C190 C189 1.396 . S
C191 C186 1.499 . S
C191 H192 0.959 . S
C191 H193 0.960 . S
C191 H194 0.961 . S
H192 C191 0.959 . S
H193 C191 0.960 . S
H194 C191 0.961 . S
O195 Co170 1.967 . S
O195 C203 1.258 . S
O196 Co171 1.941 . S
O196 C203 1.266 . S
H197 C199 0.959 . S
H198 C199 0.961 . S
C199 C189 1.510 . S
C199 H197 0.959 . S
C199 H198 0.961 . S
C199 H200 0.960 . S
H200 C199 0.960 . S
H201 N181 0.862 . S
O202 Co170 1.920 . S
O202 C175 1.289 . S
C203 O195 1.258 . S
C203 O196 1.266 . S
Co204 O207 1.970 . S
Co204 N221 1.989 . S
Co204 O229 1.967 . S
Co204 O236 1.920 . S
Co205 O208 1.966 . S
Co205 N214 2.022 . S
Co205 N222 1.993 . S
Co205 O230 1.941 . S
C206 O207 1.258 . S
C206 O208 1.263 . S
O207 Co204 1.970 . S
O207 C206 1.258 . S
O208 Co205 1.966 . S
O208 C206 1.263 . S
C209 O210 1.235 . S
C209 O236 1.289 . S
O210 C209 1.235 . S
C211 C213 1.400 . S
C211 N214 1.351 . S
C211 C216 1.501 . S
C212 C213 1.387 . S
C212 N215 1.341 . S
C213 C211 1.400 . S
C213 C212 1.387 . S
N214 Co205 2.022 . S
N214 C211 1.351 . S
N214 N215 1.365 . S
N215 C212 1.341 . S
N215 N214 1.365 . S
N215 H235 0.862 . S
C216 C211 1.501 . S
C216 H217 0.961 . S
C216 H218 0.961 . S
C216 H219 0.960 . S
H217 C216 0.961 . S
H218 C216 0.961 . S
H219 C216 0.960 . S
C220 N221 1.342 . S
C220 C224 1.401 . S
C220 C225 1.499 . S
N221 Co204 1.989 . S
N221 C220 1.342 . S
N221 N222 1.388 . S
N222 Co205 1.993 . S
N222 N221 1.388 . S
N222 C223 1.346 . S
C223 N222 1.346 . S
C223 C224 1.396 . S
C223 C233 1.510 . S
C224 C220 1.401 . S
C224 C223 1.396 . S
C225 C220 1.499 . S
C225 H226 0.959 . S
C225 H227 0.960 . S
C225 H228 0.961 . S
H226 C225 0.959 . S
H227 C225 0.960 . S
H228 C225 0.961 . S
O229 Co204 1.967 . S
O229 C237 1.258 . S
O230 Co205 1.941 . S
O230 C237 1.266 . S
H231 C233 0.959 . S
H232 C233 0.961 . S
C233 C223 1.510 . S
C233 H231 0.959 . S
C233 H232 0.961 . S
C233 H234 0.960 . S
H234 C233 0.960 . S
H235 N215 0.862 . S
O236 Co204 1.920 . S
O236 C209 1.289 . S
C237 O229 1.258 . S
C237 O230 1.266 . S
Co238 O241 1.970 . S
Co238 N255 1.989 . S
Co238 O263 1.967 . S
Co238 O270 1.920 . S
Co239 O242 1.966 . S
Co239 N248 2.022 . S
Co239 N256 1.993 . S
Co239 O264 1.941 . S
C240 O241 1.258 . S
C240 O242 1.263 . S
O241 Co238 1.970 . S
O241 C240 1.258 . S
O242 Co239 1.966 . S
O242 C240 1.263 . S
C243 O244 1.235 . S
C243 O270 1.289 . S
O244 C243 1.235 . S
C245 C247 1.400 . S
C245 N248 1.351 . S
C245 C250 1.501 . S
C246 C247 1.387 . S
C246 N249 1.341 . S
C247 C245 1.400 . S
C247 C246 1.387 . S
N248 Co239 2.022 . S
N248 C245 1.351 . S
N248 N249 1.365 . S
N249 C246 1.341 . S
N249 N248 1.365 . S
N249 H269 0.862 . S
C250 C245 1.501 . S
C250 H251 0.961 . S
C250 H252 0.961 . S
C250 H253 0.960 . S
H251 C250 0.961 . S
H252 C250 0.961 . S
H253 C250 0.960 . S
C254 N255 1.342 . S
C254 C258 1.401 . S
C254 C259 1.499 . S
N255 Co238 1.989 . S
N255 C254 1.342 . S
N255 N256 1.388 . S
N256 Co239 1.993 . S
N256 N255 1.388 . S
N256 C257 1.346 . S
C257 N256 1.346 . S
C257 C258 1.396 . S
C257 C267 1.510 . S
C258 C254 1.401 . S
C258 C257 1.396 . S
C259 C254 1.499 . S
C259 H260 0.959 . S
C259 H261 0.960 . S
C259 H262 0.961 . S
H260 C259 0.959 . S
H261 C259 0.960 . S
H262 C259 0.961 . S
O263 Co238 1.967 . S
O263 C271 1.258 . S
O264 Co239 1.941 . S
O264 C271 1.266 . S
H265 C267 0.959 . S
H266 C267 0.961 . S
C267 C257 1.510 . S
C267 H265 0.959 . S
C267 H266 0.961 . S
C267 H268 0.960 . S
H268 C267 0.960 . S
H269 N249 0.862 . S
O270 Co238 1.920 . S
O270 C243 1.289 . S
C271 O263 1.258 . S
C271 O264 1.266 . S
Co272 O275 1.970 . S
Co272 N289 1.989 . S
Co272 O297 1.967 . S
Co272 O304 1.920 1_556 S
Co273 O276 1.966 . S
Co273 N282 2.022 . S
Co273 N290 1.993 . S
Co273 O298 1.941 . S
C274 O275 1.258 . S
C274 O276 1.263 . S
O275 Co272 1.970 . S
O275 C274 1.258 . S
O276 Co273 1.966 . S
O276 C274 1.263 . S
C277 O278 1.235 . S
C277 O304 1.289 . S
O278 C277 1.235 . S
C279 C281 1.400 . S
C279 N282 1.351 . S
C279 C284 1.501 . S
C280 C281 1.387 . S
C280 N283 1.341 . S
C281 C279 1.400 . S
C281 C280 1.387 . S
N282 Co273 2.022 . S
N282 C279 1.351 . S
N282 N283 1.365 . S
N283 C280 1.341 . S
N283 N282 1.365 . S
N283 H303 0.862 . S
C284 C279 1.501 . S
C284 H285 0.961 . S
C284 H286 0.961 . S
C284 H287 0.960 . S
H285 C284 0.961 . S
H286 C284 0.961 . S
H287 C284 0.960 . S
C288 N289 1.342 . S
C288 C292 1.401 . S
C288 C293 1.499 1_556 S
N289 Co272 1.989 . S
N289 C288 1.342 . S
N289 N290 1.388 . S
N290 Co273 1.993 . S
N290 N289 1.388 . S
N290 C291 1.346 . S
C291 N290 1.346 . S
C291 C292 1.396 . S
C291 C301 1.510 . S
C292 C288 1.401 . S
C292 C291 1.396 . S
C293 C288 1.499 1_554 S
C293 H294 0.959 . S
C293 H295 0.960 . S
C293 H296 0.961 . S
H294 C293 0.959 . S
H295 C293 0.960 . S
H296 C293 0.961 . S
O297 Co272 1.967 . S
O297 C305 1.258 . S
O298 Co273 1.941 . S
O298 C305 1.266 . S
H299 C301 0.959 . S
H300 C301 0.961 . S
C301 C291 1.510 . S
C301 H299 0.959 . S
C301 H300 0.961 . S
C301 H302 0.960 . S
H302 C301 0.960 . S
H303 N283 0.862 . S
O304 Co272 1.920 1_554 S
O304 C277 1.289 . S
C305 O297 1.258 . S
C305 O298 1.266 . S
Co306 O309 1.970 . S
Co306 N323 1.989 . S
Co306 O331 1.967 . S
Co306 O338 1.920 . S
Co307 O310 1.966 . S
Co307 N316 2.022 . S
Co307 N324 1.993 . S
Co307 O332 1.941 . S
C308 O309 1.258 . S
C308 O310 1.263 . S
O309 Co306 1.970 . S
O309 C308 1.258 . S
O310 Co307 1.966 . S
O310 C308 1.263 . S
C311 O312 1.235 . S
C311 O338 1.289 . S
O312 C311 1.235 . S
C313 C315 1.400 . S
C313 N316 1.351 . S
C313 C318 1.501 . S
C314 C315 1.387 . S
C314 N317 1.341 . S
C315 C313 1.400 . S
C315 C314 1.387 . S
N316 Co307 2.022 . S
N316 C313 1.351 . S
N316 N317 1.365 . S
N317 C314 1.341 . S
N317 N316 1.365 . S
N317 H337 0.862 . S
C318 C313 1.501 . S
C318 H319 0.961 . S
C318 H320 0.961 . S
C318 H321 0.960 . S
H319 C318 0.961 . S
H320 C318 0.961 . S
H321 C318 0.960 . S
C322 N323 1.342 . S
C322 C326 1.401 . S
C322 C327 1.499 . S
N323 Co306 1.989 . S
N323 C322 1.342 . S
N323 N324 1.388 . S
N324 Co307 1.993 . S
N324 N323 1.388 . S
N324 C325 1.346 . S
C325 N324 1.346 . S
C325 C326 1.396 . S
C325 C335 1.510 . S
C326 C322 1.401 . S
C326 C325 1.396 . S
C327 C322 1.499 . S
C327 H328 0.959 . S
C327 H329 0.960 . S
C327 H330 0.961 . S
H328 C327 0.959 . S
H329 C327 0.960 . S
H330 C327 0.961 . S
O331 Co306 1.967 . S
O331 C339 1.258 . S
O332 Co307 1.941 . S
O332 C339 1.266 . S
H333 C335 0.959 . S
H334 C335 0.961 . S
C335 C325 1.510 . S
C335 H333 0.959 . S
C335 H334 0.961 . S
C335 H336 0.960 . S
H336 C335 0.960 . S
H337 N317 0.862 . S
O338 Co306 1.920 . S
O338 C311 1.289 . S
C339 O331 1.258 . S
C339 O332 1.266 . S
Co340 O343 1.970 . S
Co340 N357 1.989 . S
Co340 O365 1.967 . S
Co340 O372 1.920 . S
Co341 O344 1.966 . S
Co341 N350 2.022 . S
Co341 N358 1.993 . S
Co341 O366 1.941 . S
C342 O343 1.258 . S
C342 O344 1.263 . S
O343 Co340 1.970 . S
O343 C342 1.258 . S
O344 Co341 1.966 . S
O344 C342 1.263 . S
C345 O346 1.235 . S
C345 O372 1.289 . S
O346 C345 1.235 . S
C347 C349 1.400 . S
C347 N350 1.351 . S
C347 C352 1.501 . S
C348 C349 1.387 . S
C348 N351 1.341 . S
C349 C347 1.400 . S
C349 C348 1.387 . S
N350 Co341 2.022 . S
N350 C347 1.351 . S
N350 N351 1.365 . S
N351 C348 1.341 . S
N351 N350 1.365 . S
N351 H371 0.862 . S
C352 C347 1.501 . S
C352 H353 0.961 . S
C352 H354 0.961 . S
C352 H355 0.960 . S
H353 C352 0.961 . S
H354 C352 0.961 . S
H355 C352 0.960 . S
C356 N357 1.342 . S
C356 C360 1.401 . S
C356 C361 1.499 . S
N357 Co340 1.989 . S
N357 C356 1.342 . S
N357 N358 1.388 . S
N358 Co341 1.993 . S
N358 N357 1.388 . S
N358 C359 1.346 . S
C359 N358 1.346 . S
C359 C360 1.396 . S
C359 C369 1.510 . S
C360 C356 1.401 . S
C360 C359 1.396 . S
C361 C356 1.499 . S
C361 H362 0.959 . S
C361 H363 0.960 . S
C361 H364 0.961 . S
H362 C361 0.959 . S
H363 C361 0.960 . S
H364 C361 0.961 . S
O365 Co340 1.967 . S
O365 C373 1.258 . S
O366 Co341 1.941 . S
O366 C373 1.266 . S
H367 C369 0.959 . S
H368 C369 0.961 . S
C369 C359 1.510 . S
C369 H367 0.959 . S
C369 H368 0.961 . S
C369 H370 0.960 . S
H370 C369 0.960 . S
H371 N351 0.862 . S
O372 Co340 1.920 . S
O372 C345 1.289 . S
C373 O365 1.258 . S
C373 O366 1.266 . S
Co374 O377 1.970 . S
Co374 N391 1.989 . S
Co374 O399 1.967 . S
Co374 O406 1.920 . S
Co375 O378 1.966 . S
Co375 N384 2.022 . S
Co375 N392 1.993 . S
Co375 O400 1.941 . S
C376 O377 1.258 . S
C376 O378 1.263 . S
O377 Co374 1.970 . S
O377 C376 1.258 . S
O378 Co375 1.966 . S
O378 C376 1.263 . S
C379 O380 1.235 . S
C379 O406 1.289 . S
O380 C379 1.235 . S
C381 C383 1.400 . S
C381 N384 1.351 1_556 S
C381 C386 1.501 . S
C382 C383 1.387 . S
C382 N385 1.341 . S
C383 C381 1.400 . S
C383 C382 1.387 . S
N384 Co375 2.022 . S
N384 C381 1.351 1_554 S
N384 N385 1.365 1_554 S
N385 C382 1.341 . S
N385 N384 1.365 1_556 S
N385 H405 0.862 . S
C386 C381 1.501 . S
C386 H387 0.961 1_556 S
C386 H388 0.961 . S
C386 H389 0.960 . S
H387 C386 0.961 1_554 S
H388 C386 0.961 . S
H389 C386 0.960 . S
C390 N391 1.342 . S
C390 C394 1.401 . S
C390 C395 1.499 . S
N391 Co374 1.989 . S
N391 C390 1.342 . S
N391 N392 1.388 . S
N392 Co375 1.993 . S
N392 N391 1.388 . S
N392 C393 1.346 . S
C393 N392 1.346 . S
C393 C394 1.396 . S
C393 C403 1.510 . S
C394 C390 1.401 . S
C394 C393 1.396 . S
C395 C390 1.499 . S
C395 H396 0.959 . S
C395 H397 0.960 . S
C395 H398 0.961 . S
H396 C395 0.959 . S
H397 C395 0.960 . S
H398 C395 0.961 . S
O399 Co374 1.967 . S
O399 C407 1.258 . S
O400 Co375 1.941 . S
O400 C407 1.266 . S
H401 C403 0.959 . S
H402 C403 0.961 . S
C403 C393 1.510 . S
C403 H401 0.959 . S
C403 H402 0.961 . S
C403 H404 0.960 . S
H404 C403 0.960 . S
H405 N385 0.862 . S
O406 Co374 1.920 . S
O406 C379 1.289 . S
C407 O399 1.258 . S
C407 O400 1.266 . S
Co408 O411 1.970 . S
Co408 N425 1.989 . S
Co408 O433 1.967 . S
Co408 O440 1.920 1_554 S
Co409 O412 1.966 . S
Co409 N418 2.022 . S
Co409 N426 1.993 . S
Co409 O434 1.941 . S
C410 O411 1.258 . S
C410 O412 1.263 . S
O411 Co408 1.970 . S
O411 C410 1.258 . S
O412 Co409 1.966 . S
O412 C410 1.263 . S
C413 O414 1.235 . S
C413 O440 1.289 . S
O414 C413 1.235 . S
C415 C417 1.400 . S
C415 N418 1.351 . S
C415 C420 1.501 . S
C416 C417 1.387 . S
C416 N419 1.341 . S
C417 C415 1.400 . S
C417 C416 1.387 . S
N418 Co409 2.022 . S
N418 C415 1.351 . S
N418 N419 1.365 . S
N419 C416 1.341 . S
N419 N418 1.365 . S
N419 H439 0.862 . S
C420 C415 1.501 . S
C420 H421 0.961 . S
C420 H422 0.961 . S
C420 H423 0.960 . S
H421 C420 0.961 . S
H422 C420 0.961 . S
H423 C420 0.960 . S
C424 N425 1.342 . S
C424 C428 1.401 . S
C424 C429 1.499 1_554 S
N425 Co408 1.989 . S
N425 C424 1.342 . S
N425 N426 1.388 . S
N426 Co409 1.993 . S
N426 N425 1.388 . S
N426 C427 1.346 . S
C427 N426 1.346 . S
C427 C428 1.396 . S
C427 C437 1.510 . S
C428 C424 1.401 . S
C428 C427 1.396 . S
C429 C424 1.499 1_556 S
C429 H430 0.959 . S
C429 H431 0.960 . S
C429 H432 0.961 . S
H430 C429 0.959 . S
H431 C429 0.960 . S
H432 C429 0.961 . S
O433 Co408 1.967 . S
O433 C441 1.258 . S
O434 Co409 1.941 . S
O434 C441 1.266 . S
H435 C437 0.959 . S
H436 C437 0.961 . S
C437 C427 1.510 . S
C437 H435 0.959 . S
C437 H436 0.961 . S
C437 H438 0.960 . S
H438 C437 0.960 . S
H439 N419 0.862 . S
O440 Co408 1.920 1_556 S
O440 C413 1.289 . S
C441 O433 1.258 . S
C441 O434 1.266 . S
Co442 O445 1.970 . S
Co442 N459 1.989 . S
Co442 O467 1.967 . S
Co442 O474 1.920 . S
Co443 O446 1.966 . S
Co443 N452 2.022 . S
Co443 N460 1.993 . S
Co443 O468 1.941 . S
C444 O445 1.258 . S
C444 O446 1.263 . S
O445 Co442 1.970 . S
O445 C444 1.258 . S
O446 Co443 1.966 . S
O446 C444 1.263 . S
C447 O448 1.235 . S
C447 O474 1.289 . S
O448 C447 1.235 . S
C449 C451 1.400 . S
C449 N452 1.351 1_554 S
C449 C454 1.501 . S
C450 C451 1.387 . S
C450 N453 1.341 . S
C451 C449 1.400 . S
C451 C450 1.387 . S
N452 Co443 2.022 . S
N452 C449 1.351 1_556 S
N452 N453 1.365 1_556 S
N453 C450 1.341 . S
N453 N452 1.365 1_554 S
N453 H473 0.862 . S
C454 C449 1.501 . S
C454 H455 0.961 1_554 S
C454 H456 0.961 . S
C454 H457 0.960 . S
H455 C454 0.961 1_556 S
H456 C454 0.961 . S
H457 C454 0.960 . S
C458 N459 1.342 . S
C458 C462 1.401 . S
C458 C463 1.499 . S
N459 Co442 1.989 . S
N459 C458 1.342 . S
N459 N460 1.388 . S
N460 Co443 1.993 . S
N460 N459 1.388 . S
N460 C461 1.346 . S
C461 N460 1.346 . S
C461 C462 1.396 . S
C461 C471 1.510 . S
C462 C458 1.401 . S
C462 C461 1.396 . S
C463 C458 1.499 . S
C463 H464 0.959 . S
C463 H465 0.960 . S
C463 H466 0.961 . S
H464 C463 0.959 . S
H465 C463 0.960 . S
H466 C463 0.961 . S
O467 Co442 1.967 . S
O467 C475 1.258 . S
O468 Co443 1.941 . S
O468 C475 1.266 . S
H469 C471 0.959 . S
H470 C471 0.961 . S
C471 C461 1.510 . S
C471 H469 0.959 . S
C471 H470 0.961 . S
C471 H472 0.960 . S
H472 C471 0.960 . S
H473 N453 0.862 . S
O474 Co442 1.920 . S
O474 C447 1.289 . S
C475 O467 1.258 . S
C475 O468 1.266 . S
Co476 O479 1.970 . S
Co476 N493 1.989 . S
Co476 O501 1.967 . S
Co476 O508 1.920 . S
Co477 O480 1.966 . S
Co477 N486 2.022 . S
Co477 N494 1.993 . S
Co477 O502 1.941 . S
C478 O479 1.258 . S
C478 O480 1.263 . S
O479 Co476 1.970 . S
O479 C478 1.258 . S
O480 Co477 1.966 . S
O480 C478 1.263 . S
C481 O482 1.235 . S
C481 O508 1.289 . S
O482 C481 1.235 . S
C483 C485 1.400 . S
C483 N486 1.351 . S
C483 C488 1.501 . S
C484 C485 1.387 . S
C484 N487 1.341 . S
C485 C483 1.400 . S
C485 C484 1.387 . S
N486 Co477 2.022 . S
N486 C483 1.351 . S
N486 N487 1.365 . S
N487 C484 1.341 . S
N487 N486 1.365 . S
N487 H507 0.862 . S
C488 C483 1.501 . S
C488 H489 0.961 . S
C488 H490 0.961 . S
C488 H491 0.960 . S
H489 C488 0.961 . S
H490 C488 0.961 . S
H491 C488 0.960 . S
C492 N493 1.342 . S
C492 C496 1.401 . S
C492 C497 1.499 . S
N493 Co476 1.989 . S
N493 C492 1.342 . S
N493 N494 1.388 . S
N494 Co477 1.993 . S
N494 N493 1.388 . S
N494 C495 1.346 . S
C495 N494 1.346 . S
C495 C496 1.396 . S
C495 C505 1.510 . S
C496 C492 1.401 . S
C496 C495 1.396 . S
C497 C492 1.499 . S
C497 H498 0.959 . S
C497 H499 0.960 . S
C497 H500 0.961 . S
H498 C497 0.959 . S
H499 C497 0.960 . S
H500 C497 0.961 . S
O501 Co476 1.967 . S
O501 C509 1.258 . S
O502 Co477 1.941 . S
O502 C509 1.266 . S
H503 C505 0.959 . S
H504 C505 0.961 . S
C505 C495 1.510 . S
C505 H503 0.959 . S
C505 H504 0.961 . S
C505 H506 0.960 . S
H506 C505 0.960 . S
H507 N487 0.862 . S
O508 Co476 1.920 . S
O508 C481 1.289 . S
C509 O501 1.258 . S
C509 O502 1.266 . S
Co510 O513 1.970 . S
Co510 N527 1.989 . S
Co510 O535 1.967 . S
Co510 O542 1.920 . S
Co511 O514 1.966 . S
Co511 N520 2.022 . S
Co511 N528 1.993 . S
Co511 O536 1.941 . S
C512 O513 1.258 . S
C512 O514 1.263 . S
O513 Co510 1.970 . S
O513 C512 1.258 . S
O514 Co511 1.966 . S
O514 C512 1.263 . S
C515 O516 1.235 . S
C515 O542 1.289 . S
O516 C515 1.235 . S
C517 C519 1.400 . S
C517 N520 1.351 . S
C517 C522 1.501 . S
C518 C519 1.387 . S
C518 N521 1.341 . S
C519 C517 1.400 . S
C519 C518 1.387 . S
N520 Co511 2.022 . S
N520 C517 1.351 . S
N520 N521 1.365 . S
N521 C518 1.341 . S
N521 N520 1.365 . S
N521 H541 0.862 . S
C522 C517 1.501 . S
C522 H523 0.961 . S
C522 H524 0.961 . S
C522 H525 0.960 . S
H523 C522 0.961 . S
H524 C522 0.961 . S
H525 C522 0.960 . S
C526 N527 1.342 . S
C526 C530 1.401 . S
C526 C531 1.499 . S
N527 Co510 1.989 . S
N527 C526 1.342 . S
N527 N528 1.388 . S
N528 Co511 1.993 . S
N528 N527 1.388 . S
N528 C529 1.346 . S
C529 N528 1.346 . S
C529 C530 1.396 . S
C529 C539 1.510 . S
C530 C526 1.401 . S
C530 C529 1.396 . S
C531 C526 1.499 . S
C531 H532 0.959 . S
C531 H533 0.960 . S
C531 H534 0.961 . S
H532 C531 0.959 . S
H533 C531 0.960 . S
H534 C531 0.961 . S
O535 Co510 1.967 . S
O535 C543 1.258 . S
O536 Co511 1.941 . S
O536 C543 1.266 . S
H537 C539 0.959 . S
H538 C539 0.961 . S
C539 C529 1.510 . S
C539 H537 0.959 . S
C539 H538 0.961 . S
C539 H540 0.960 . S
H540 C539 0.960 . S
H541 N521 0.862 . S
O542 Co510 1.920 . S
O542 C515 1.289 . S
C543 O535 1.258 . S
C543 O536 1.266 . S
Co544 O547 1.970 . S
Co544 N561 1.989 . S
Co544 O569 1.967 . S
Co544 O576 1.920 . S
Co545 O548 1.966 . S
Co545 N554 2.022 . S
Co545 N562 1.993 . S
Co545 O570 1.941 . S
C546 O547 1.258 . S
C546 O548 1.263 . S
O547 Co544 1.970 . S
O547 C546 1.258 . S
O548 Co545 1.966 . S
O548 C546 1.263 . S
C549 O550 1.235 . S
C549 O576 1.289 . S
O550 C549 1.235 . S
C551 C553 1.400 . S
C551 N554 1.351 . S
C551 C556 1.501 . S
C552 C553 1.387 . S
C552 N555 1.341 . S
C553 C551 1.400 . S
C553 C552 1.387 . S
N554 Co545 2.022 . S
N554 C551 1.351 . S
N554 N555 1.365 . S
N555 C552 1.341 . S
N555 N554 1.365 . S
N555 H575 0.862 . S
C556 C551 1.501 . S
C556 H557 0.961 . S
C556 H558 0.961 . S
C556 H559 0.960 . S
H557 C556 0.961 . S
H558 C556 0.961 . S
H559 C556 0.960 . S
C560 N561 1.342 . S
C560 C564 1.401 . S
C560 C565 1.499 . S
N561 Co544 1.989 . S
N561 C560 1.342 . S
N561 N562 1.388 . S
N562 Co545 1.993 . S
N562 N561 1.388 . S
N562 C563 1.346 . S
C563 N562 1.346 . S
C563 C564 1.396 . S
C563 C573 1.510 . S
C564 C560 1.401 . S
C564 C563 1.396 . S
C565 C560 1.499 . S
C565 H566 0.959 . S
C565 H567 0.960 . S
C565 H568 0.961 . S
H566 C565 0.959 . S
H567 C565 0.960 . S
H568 C565 0.961 . S
O569 Co544 1.967 . S
O569 C577 1.258 . S
O570 Co545 1.941 . S
O570 C577 1.266 . S
H571 C573 0.959 . S
H572 C573 0.961 . S
C573 C563 1.510 . S
C573 H571 0.959 . S
C573 H572 0.961 . S
C573 H574 0.960 . S
H574 C573 0.960 . S
H575 N555 0.862 . S
O576 Co544 1.920 . S
O576 C549 1.289 . S
C577 O569 1.258 . S
C577 O570 1.266 . S
Co578 O581 1.970 . S
Co578 N595 1.989 . S
Co578 O603 1.967 . S
Co578 O610 1.920 . S
Co579 O582 1.966 . S
Co579 N588 2.022 . S
Co579 N596 1.993 . S
Co579 O604 1.941 . S
C580 O581 1.258 . S
C580 O582 1.263 . S
O581 Co578 1.970 . S
O581 C580 1.258 . S
O582 Co579 1.966 . S
O582 C580 1.263 . S
C583 O584 1.235 . S
C583 O610 1.289 . S
O584 C583 1.235 . S
C585 C587 1.400 . S
C585 N588 1.351 1_554 S
C585 C590 1.501 . S
C586 C587 1.387 . S
C586 N589 1.341 . S
C587 C585 1.400 . S
C587 C586 1.387 . S
N588 Co579 2.022 . S
N588 C585 1.351 1_556 S
N588 N589 1.365 1_556 S
N589 C586 1.341 . S
N589 N588 1.365 1_554 S
N589 H609 0.862 . S
C590 C585 1.501 . S
C590 H591 0.961 1_554 S
C590 H592 0.961 . S
C590 H593 0.960 . S
H591 C590 0.961 1_556 S
H592 C590 0.961 . S
H593 C590 0.960 . S
C594 N595 1.342 . S
C594 C598 1.401 . S
C594 C599 1.499 . S
N595 Co578 1.989 . S
N595 C594 1.342 . S
N595 N596 1.388 . S
N596 Co579 1.993 . S
N596 N595 1.388 . S
N596 C597 1.346 . S
C597 N596 1.346 . S
C597 C598 1.396 . S
C597 C607 1.510 . S
C598 C594 1.401 . S
C598 C597 1.396 . S
C599 C594 1.499 . S
C599 H600 0.959 . S
C599 H601 0.960 . S
C599 H602 0.961 . S
H600 C599 0.959 . S
H601 C599 0.960 . S
H602 C599 0.961 . S
O603 Co578 1.967 . S
O603 C611 1.258 . S
O604 Co579 1.941 . S
O604 C611 1.266 . S
H605 C607 0.959 . S
H606 C607 0.961 . S
C607 C597 1.510 . S
C607 H605 0.959 . S
C607 H606 0.961 . S
C607 H608 0.960 . S
H608 C607 0.960 . S
H609 N589 0.862 . S
O610 Co578 1.920 . S
O610 C583 1.289 . S
C611 O603 1.258 . S
C611 O604 1.266 . S
Co612 O615 1.970 . S
Co612 N629 1.989 . S
Co612 O637 1.967 . S
Co612 O644 1.920 1_554 S
Co613 O616 1.966 . S
Co613 N622 2.022 . S
Co613 N630 1.993 . S
Co613 O638 1.941 . S
C614 O615 1.258 . S
C614 O616 1.263 . S
O615 Co612 1.970 . S
O615 C614 1.258 . S
O616 Co613 1.966 . S
O616 C614 1.263 . S
C617 O618 1.235 . S
C617 O644 1.289 . S
O618 C617 1.235 . S
C619 C621 1.400 . S
C619 N622 1.351 . S
C619 C624 1.501 . S
C620 C621 1.387 . S
C620 N623 1.341 . S
C621 C619 1.400 . S
C621 C620 1.387 . S
N622 Co613 2.022 . S
N622 C619 1.351 . S
N622 N623 1.365 . S
N623 C620 1.341 . S
N623 N622 1.365 . S
N623 H643 0.862 . S
C624 C619 1.501 . S
C624 H625 0.961 . S
C624 H626 0.961 . S
C624 H627 0.960 . S
H625 C624 0.961 . S
H626 C624 0.961 . S
H627 C624 0.960 . S
C628 N629 1.342 . S
C628 C632 1.401 . S
C628 C633 1.499 1_554 S
N629 Co612 1.989 . S
N629 C628 1.342 . S
N629 N630 1.388 . S
N630 Co613 1.993 . S
N630 N629 1.388 . S
N630 C631 1.346 . S
C631 N630 1.346 . S
C631 C632 1.396 . S
C631 C641 1.510 . S
C632 C628 1.401 . S
C632 C631 1.396 . S
C633 C628 1.499 1_556 S
C633 H634 0.959 . S
C633 H635 0.960 . S
C633 H636 0.961 . S
H634 C633 0.959 . S
H635 C633 0.960 . S
H636 C633 0.961 . S
O637 Co612 1.967 . S
O637 C645 1.258 . S
O638 Co613 1.941 . S
O638 C645 1.266 . S
H639 C641 0.959 . S
H640 C641 0.961 . S
C641 C631 1.510 . S
C641 H639 0.959 . S
C641 H640 0.961 . S
C641 H642 0.960 . S
H642 C641 0.960 . S
H643 N623 0.862 . S
O644 Co612 1.920 1_556 S
O644 C617 1.289 . S
C645 O637 1.258 . S
C645 O638 1.266 . S
Co646 O649 1.970 . S
Co646 N663 1.989 . S
Co646 O671 1.967 . S
Co646 O678 1.920 . S
Co647 O650 1.966 . S
Co647 N656 2.022 . S
Co647 N664 1.993 . S
Co647 O672 1.941 . S
C648 O649 1.258 . S
C648 O650 1.263 . S
O649 Co646 1.970 . S
O649 C648 1.258 . S
O650 Co647 1.966 . S
O650 C648 1.263 . S
C651 O652 1.235 . S
C651 O678 1.289 . S
O652 C651 1.235 . S
C653 C655 1.400 . S
C653 N656 1.351 . S
C653 C658 1.501 . S
C654 C655 1.387 . S
C654 N657 1.341 . S
C655 C653 1.400 . S
C655 C654 1.387 . S
N656 Co647 2.022 . S
N656 C653 1.351 . S
N656 N657 1.365 . S
N657 C654 1.341 . S
N657 N656 1.365 . S
N657 H677 0.862 . S
C658 C653 1.501 . S
C658 H659 0.961 . S
C658 H660 0.961 . S
C658 H661 0.960 . S
H659 C658 0.961 . S
H660 C658 0.961 . S
H661 C658 0.960 . S
C662 N663 1.342 . S
C662 C666 1.401 . S
C662 C667 1.499 . S
N663 Co646 1.989 . S
N663 C662 1.342 . S
N663 N664 1.388 . S
N664 Co647 1.993 . S
N664 N663 1.388 . S
N664 C665 1.346 . S
C665 N664 1.346 . S
C665 C666 1.396 . S
C665 C675 1.510 . S
C666 C662 1.401 . S
C666 C665 1.396 . S
C667 C662 1.499 . S
C667 H668 0.959 . S
C667 H669 0.960 . S
C667 H670 0.961 . S
H668 C667 0.959 . S
H669 C667 0.960 . S
H670 C667 0.961 . S
O671 Co646 1.967 . S
O671 C679 1.258 . S
O672 Co647 1.941 . S
O672 C679 1.266 . S
H673 C675 0.959 . S
H674 C675 0.961 . S
C675 C665 1.510 . S
C675 H673 0.959 . S
C675 H674 0.961 . S
C675 H676 0.960 . S
H676 C675 0.960 . S
H677 N657 0.862 . S
O678 Co646 1.920 . S
O678 C651 1.289 . S
C679 O671 1.258 . S
C679 O672 1.266 . S
Co680 O683 1.970 . S
Co680 N697 1.989 . S
Co680 O705 1.967 . S
Co680 O712 1.920 . S
Co681 O684 1.966 . S
Co681 N690 2.022 . S
Co681 N698 1.993 . S
Co681 O706 1.941 . S
C682 O683 1.258 . S
C682 O684 1.263 . S
O683 Co680 1.970 . S
O683 C682 1.258 . S
O684 Co681 1.966 . S
O684 C682 1.263 . S
C685 O686 1.235 . S
C685 O712 1.289 . S
O686 C685 1.235 . S
C687 C689 1.400 . S
C687 N690 1.351 . S
C687 C692 1.501 . S
C688 C689 1.387 . S
C688 N691 1.341 . S
C689 C687 1.400 . S
C689 C688 1.387 . S
N690 Co681 2.022 . S
N690 C687 1.351 . S
N690 N691 1.365 . S
N691 C688 1.341 . S
N691 N690 1.365 . S
N691 H711 0.862 . S
C692 C687 1.501 . S
C692 H693 0.961 . S
C692 H694 0.961 . S
C692 H695 0.960 . S
H693 C692 0.961 . S
H694 C692 0.961 . S
H695 C692 0.960 . S
C696 N697 1.342 . S
C696 C700 1.401 . S
C696 C701 1.499 . S
N697 Co680 1.989 . S
N697 C696 1.342 . S
N697 N698 1.388 . S
N698 Co681 1.993 . S
N698 N697 1.388 . S
N698 C699 1.346 . S
C699 N698 1.346 . S
C699 C700 1.396 . S
C699 C709 1.510 . S
C700 C696 1.401 . S
C700 C699 1.396 . S
C701 C696 1.499 . S
C701 H702 0.959 . S
C701 H703 0.960 . S
C701 H704 0.961 . S
H702 C701 0.959 . S
H703 C701 0.960 . S
H704 C701 0.961 . S
O705 Co680 1.967 . S
O705 C713 1.258 . S
O706 Co681 1.941 . S
O706 C713 1.266 . S
H707 C709 0.959 . S
H708 C709 0.961 . S
C709 C699 1.510 . S
C709 H707 0.959 . S
C709 H708 0.961 . S
C709 H710 0.960 . S
H710 C709 0.960 . S
H711 N691 0.862 . S
O712 Co680 1.920 . S
O712 C685 1.289 . S
C713 O705 1.258 . S
C713 O706 1.266 . S
Co714 O717 1.970 . S
Co714 N731 1.989 . S
Co714 O739 1.967 . S
Co714 O746 1.920 . S
Co715 O718 1.966 . S
Co715 N724 2.022 . S
Co715 N732 1.993 . S
Co715 O740 1.941 . S
C716 O717 1.258 . S
C716 O718 1.263 . S
O717 Co714 1.970 . S
O717 C716 1.258 . S
O718 Co715 1.966 . S
O718 C716 1.263 . S
C719 O720 1.235 . S
C719 O746 1.289 . S
O720 C719 1.235 . S
C721 C723 1.400 . S
C721 N724 1.351 . S
C721 C726 1.501 . S
C722 C723 1.387 . S
C722 N725 1.341 . S
C723 C721 1.400 . S
C723 C722 1.387 . S
N724 Co715 2.022 . S
N724 C721 1.351 . S
N724 N725 1.365 . S
N725 C722 1.341 . S
N725 N724 1.365 . S
N725 H745 0.862 . S
C726 C721 1.501 . S
C726 H727 0.961 . S
C726 H728 0.961 . S
C726 H729 0.960 . S
H727 C726 0.961 . S
H728 C726 0.961 . S
H729 C726 0.960 . S
C730 N731 1.342 . S
C730 C734 1.401 . S
C730 C735 1.499 . S
N731 Co714 1.989 . S
N731 C730 1.342 . S
N731 N732 1.388 . S
N732 Co715 1.993 . S
N732 N731 1.388 . S
N732 C733 1.346 . S
C733 N732 1.346 . S
C733 C734 1.396 . S
C733 C743 1.510 . S
C734 C730 1.401 . S
C734 C733 1.396 . S
C735 C730 1.499 . S
C735 H736 0.959 . S
C735 H737 0.960 . S
C735 H738 0.961 . S
H736 C735 0.959 . S
H737 C735 0.960 . S
H738 C735 0.961 . S
O739 Co714 1.967 . S
O739 C747 1.258 . S
O740 Co715 1.941 . S
O740 C747 1.266 . S
H741 C743 0.959 . S
H742 C743 0.961 . S
C743 C733 1.510 . S
C743 H741 0.959 . S
C743 H742 0.961 . S
C743 H744 0.960 . S
H744 C743 0.960 . S
H745 N725 0.862 . S
O746 Co714 1.920 . S
O746 C719 1.289 . S
C747 O739 1.258 . S
C747 O740 1.266 . S
Co748 O751 1.970 . S
Co748 N765 1.989 . S
Co748 O773 1.967 . S
Co748 O780 1.920 1_556 S
Co749 O752 1.966 . S
Co749 N758 2.022 . S
Co749 N766 1.993 . S
Co749 O774 1.941 . S
C750 O751 1.258 . S
C750 O752 1.263 . S
O751 Co748 1.970 . S
O751 C750 1.258 . S
O752 Co749 1.966 . S
O752 C750 1.263 . S
C753 O754 1.235 . S
C753 O780 1.289 . S
O754 C753 1.235 . S
C755 C757 1.400 . S
C755 N758 1.351 . S
C755 C760 1.501 . S
C756 C757 1.387 . S
C756 N759 1.341 . S
C757 C755 1.400 . S
C757 C756 1.387 . S
N758 Co749 2.022 . S
N758 C755 1.351 . S
N758 N759 1.365 . S
N759 C756 1.341 . S
N759 N758 1.365 . S
N759 H779 0.862 . S
C760 C755 1.501 . S
C760 H761 0.961 . S
C760 H762 0.961 . S
C760 H763 0.960 . S
H761 C760 0.961 . S
H762 C760 0.961 . S
H763 C760 0.960 . S
C764 N765 1.342 . S
C764 C768 1.401 . S
C764 C769 1.499 1_556 S
N765 Co748 1.989 . S
N765 C764 1.342 . S
N765 N766 1.388 . S
N766 Co749 1.993 . S
N766 N765 1.388 . S
N766 C767 1.346 . S
C767 N766 1.346 . S
C767 C768 1.396 . S
C767 C777 1.510 . S
C768 C764 1.401 . S
C768 C767 1.396 . S
C769 C764 1.499 1_554 S
C769 H770 0.959 . S
C769 H771 0.960 . S
C769 H772 0.961 . S
H770 C769 0.959 . S
H771 C769 0.960 . S
H772 C769 0.961 . S
O773 Co748 1.967 . S
O773 C781 1.258 . S
O774 Co749 1.941 . S
O774 C781 1.266 . S
H775 C777 0.959 . S
H776 C777 0.961 . S
C777 C767 1.510 . S
C777 H775 0.959 . S
C777 H776 0.961 . S
C777 H778 0.960 . S
H778 C777 0.960 . S
H779 N759 0.862 . S
O780 Co748 1.920 1_554 S
O780 C753 1.289 . S
C781 O773 1.258 . S
C781 O774 1.266 . S
Co782 O785 1.970 . S
Co782 N799 1.989 . S
Co782 O807 1.967 . S
Co782 O814 1.920 . S
Co783 O786 1.966 . S
Co783 N792 2.022 . S
Co783 N800 1.993 . S
Co783 O808 1.941 . S
C784 O785 1.258 . S
C784 O786 1.263 . S
O785 Co782 1.970 . S
O785 C784 1.258 . S
O786 Co783 1.966 . S
O786 C784 1.263 . S
C787 O788 1.235 . S
C787 O814 1.289 . S
O788 C787 1.235 . S
C789 C791 1.400 . S
C789 N792 1.351 1_556 S
C789 C794 1.501 . S
C790 C791 1.387 . S
C790 N793 1.341 . S
C791 C789 1.400 . S
C791 C790 1.387 . S
N792 Co783 2.022 . S
N792 C789 1.351 1_554 S
N792 N793 1.365 1_554 S
N793 C790 1.341 . S
N793 N792 1.365 1_556 S
N793 H813 0.862 . S
C794 C789 1.501 . S
C794 H795 0.961 1_556 S
C794 H796 0.961 . S
C794 H797 0.960 . S
H795 C794 0.961 1_554 S
H796 C794 0.961 . S
H797 C794 0.960 . S
C798 N799 1.342 . S
C798 C802 1.401 . S
C798 C803 1.499 . S
N799 Co782 1.989 . S
N799 C798 1.342 . S
N799 N800 1.388 . S
N800 Co783 1.993 . S
N800 N799 1.388 . S
N800 C801 1.346 . S
C801 N800 1.346 . S
C801 C802 1.396 . S
C801 C811 1.510 . S
C802 C798 1.401 . S
C802 C801 1.396 . S
C803 C798 1.499 . S
C803 H804 0.959 . S
C803 H805 0.960 . S
C803 H806 0.961 . S
H804 C803 0.959 . S
H805 C803 0.960 . S
H806 C803 0.961 . S
O807 Co782 1.967 . S
O807 C815 1.258 . S
O808 Co783 1.941 . S
O808 C815 1.266 . S
H809 C811 0.959 . S
H810 C811 0.961 . S
C811 C801 1.510 . S
C811 H809 0.959 . S
C811 H810 0.961 . S
C811 H812 0.960 . S
H812 C811 0.960 . S
H813 N793 0.862 . S
O814 Co782 1.920 . S
O814 C787 1.289 . S
C815 O807 1.258 . S
C815 O808 1.266 . S
Co816 O819 1.970 . S
Co816 N833 1.989 . S
Co816 O841 1.967 . S
Co816 O848 1.920 . S
Co817 O820 1.966 . S
Co817 N826 2.022 . S
Co817 N834 1.993 . S
Co817 O842 1.941 . S
C818 O819 1.258 . S
C818 O820 1.263 . S
O819 Co816 1.970 . S
O819 C818 1.258 . S
O820 Co817 1.966 . S
O820 C818 1.263 . S
C821 O822 1.235 . S
C821 O848 1.289 . S
O822 C821 1.235 . S
C823 C825 1.400 . S
C823 N826 1.351 . S
C823 C828 1.501 . S
C824 C825 1.387 . S
C824 N827 1.341 . S
C825 C823 1.400 . S
C825 C824 1.387 . S
N826 Co817 2.022 . S
N826 C823 1.351 . S
N826 N827 1.365 . S
N827 C824 1.341 . S
N827 N826 1.365 . S
N827 H847 0.862 . S
C828 C823 1.501 . S
C828 H829 0.961 . S
C828 H830 0.961 . S
C828 H831 0.960 . S
H829 C828 0.961 . S
H830 C828 0.961 . S
H831 C828 0.960 . S
C832 N833 1.342 . S
C832 C836 1.401 . S
C832 C837 1.499 . S
N833 Co816 1.989 . S
N833 C832 1.342 . S
N833 N834 1.388 . S
N834 Co817 1.993 . S
N834 N833 1.388 . S
N834 C835 1.346 . S
C835 N834 1.346 . S
C835 C836 1.396 . S
C835 C845 1.510 . S
C836 C832 1.401 . S
C836 C835 1.396 . S
C837 C832 1.499 . S
C837 H838 0.959 . S
C837 H839 0.960 . S
C837 H840 0.961 . S
H838 C837 0.959 . S
H839 C837 0.960 . S
H840 C837 0.961 . S
O841 Co816 1.967 . S
O841 C849 1.258 . S
O842 Co817 1.941 . S
O842 C849 1.266 . S
H843 C845 0.959 . S
H844 C845 0.961 . S
C845 C835 1.510 . S
C845 H843 0.959 . S
C845 H844 0.961 . S
C845 H846 0.960 . S
H846 C845 0.960 . S
H847 N827 0.862 . S
O848 Co816 1.920 . S
O848 C821 1.289 . S
C849 O841 1.258 . S
C849 O842 1.266 . S
Co850 O853 1.970 . S
Co850 N867 1.989 . S
Co850 O875 1.967 . S
Co850 O882 1.920 . S
Co851 O854 1.966 . S
Co851 N860 2.022 . S
Co851 N868 1.993 . S
Co851 O876 1.941 . S
C852 O853 1.258 . S
C852 O854 1.263 . S
O853 Co850 1.970 . S
O853 C852 1.258 . S
O854 Co851 1.966 . S
O854 C852 1.263 . S
C855 O856 1.235 . S
C855 O882 1.289 . S
O856 C855 1.235 . S
C857 C859 1.400 . S
C857 N860 1.351 1_556 S
C857 C862 1.501 . S
C858 C859 1.387 . S
C858 N861 1.341 . S
C859 C857 1.400 . S
C859 C858 1.387 . S
N860 Co851 2.022 . S
N860 C857 1.351 1_554 S
N860 N861 1.365 1_554 S
N861 C858 1.341 . S
N861 N860 1.365 1_556 S
N861 H881 0.862 . S
C862 C857 1.501 . S
C862 H863 0.961 1_556 S
C862 H864 0.961 . S
C862 H865 0.960 . S
H863 C862 0.961 1_554 S
H864 C862 0.961 . S
H865 C862 0.960 . S
C866 N867 1.342 . S
C866 C870 1.401 . S
C866 C871 1.499 . S
N867 Co850 1.989 . S
N867 C866 1.342 . S
N867 N868 1.388 . S
N868 Co851 1.993 . S
N868 N867 1.388 . S
N868 C869 1.346 . S
C869 N868 1.346 . S
C869 C870 1.396 . S
C869 C879 1.510 . S
C870 C866 1.401 . S
C870 C869 1.396 . S
C871 C866 1.499 . S
C871 H872 0.959 . S
C871 H873 0.960 . S
C871 H874 0.961 . S
H872 C871 0.959 . S
H873 C871 0.960 . S
H874 C871 0.961 . S
O875 Co850 1.967 . S
O875 C883 1.258 . S
O876 Co851 1.941 . S
O876 C883 1.266 . S
H877 C879 0.959 . S
H878 C879 0.961 . S
C879 C869 1.510 . S
C879 H877 0.959 . S
C879 H878 0.961 . S
C879 H880 0.960 . S
H880 C879 0.960 . S
H881 N861 0.862 . S
O882 Co850 1.920 . S
O882 C855 1.289 . S
C883 O875 1.258 . S
C883 O876 1.266 . S
Co884 O887 1.970 . S
Co884 N901 1.989 . S
Co884 O909 1.967 . S
Co884 O916 1.920 1_556 S
Co885 O888 1.966 . S
Co885 N894 2.022 . S
Co885 N902 1.993 . S
Co885 O910 1.941 . S
C886 O887 1.258 . S
C886 O888 1.263 . S
O887 Co884 1.970 . S
O887 C886 1.258 . S
O888 Co885 1.966 . S
O888 C886 1.263 . S
C889 O890 1.235 . S
C889 O916 1.289 . S
O890 C889 1.235 . S
C891 C893 1.400 . S
C891 N894 1.351 . S
C891 C896 1.501 . S
C892 C893 1.387 . S
C892 N895 1.341 . S
C893 C891 1.400 . S
C893 C892 1.387 . S
N894 Co885 2.022 . S
N894 C891 1.351 . S
N894 N895 1.365 . S
N895 C892 1.341 . S
N895 N894 1.365 . S
N895 H915 0.862 . S
C896 C891 1.501 . S
C896 H897 0.961 . S
C896 H898 0.961 . S
C896 H899 0.960 . S
H897 C896 0.961 . S
H898 C896 0.961 . S
H899 C896 0.960 . S
C900 N901 1.342 . S
C900 C904 1.401 . S
C900 C905 1.499 1_556 S
N901 Co884 1.989 . S
N901 C900 1.342 . S
N901 N902 1.388 . S
N902 Co885 1.993 . S
N902 N901 1.388 . S
N902 C903 1.346 . S
C903 N902 1.346 . S
C903 C904 1.396 . S
C903 C913 1.510 . S
C904 C900 1.401 . S
C904 C903 1.396 . S
C905 C900 1.499 1_554 S
C905 H906 0.959 . S
C905 H907 0.960 . S
C905 H908 0.961 . S
H906 C905 0.959 . S
H907 C905 0.960 . S
H908 C905 0.961 . S
O909 Co884 1.967 . S
O909 C917 1.258 . S
O910 Co885 1.941 . S
O910 C917 1.266 . S
H911 C913 0.959 . S
H912 C913 0.961 . S
C913 C903 1.510 . S
C913 H911 0.959 . S
C913 H912 0.961 . S
C913 H914 0.960 . S
H914 C913 0.960 . S
H915 N895 0.862 . S
O916 Co884 1.920 1_554 S
O916 C889 1.289 . S
C917 O909 1.258 . S
C917 O910 1.266 . S
Co918 O921 1.970 . S
Co918 N935 1.989 . S
Co918 O943 1.967 . S
Co918 O950 1.920 . S
Co919 O922 1.966 . S
Co919 N928 2.022 . S
Co919 N936 1.993 . S
Co919 O944 1.941 . S
C920 O921 1.258 . S
C920 O922 1.263 . S
O921 Co918 1.970 . S
O921 C920 1.258 . S
O922 Co919 1.966 . S
O922 C920 1.263 . S
C923 O924 1.235 . S
C923 O950 1.289 . S
O924 C923 1.235 . S
C925 C927 1.400 . S
C925 N928 1.351 . S
C925 C930 1.501 . S
C926 C927 1.387 . S
C926 N929 1.341 . S
C927 C925 1.400 . S
C927 C926 1.387 . S
N928 Co919 2.022 . S
N928 C925 1.351 . S
N928 N929 1.365 . S
N929 C926 1.341 . S
N929 N928 1.365 . S
N929 H949 0.862 . S
C930 C925 1.501 . S
C930 H931 0.961 . S
C930 H932 0.961 . S
C930 H933 0.960 . S
H931 C930 0.961 . S
H932 C930 0.961 . S
H933 C930 0.960 . S
C934 N935 1.342 . S
C934 C938 1.401 . S
C934 C939 1.499 . S
N935 Co918 1.989 . S
N935 C934 1.342 . S
N935 N936 1.388 . S
N936 Co919 1.993 . S
N936 N935 1.388 . S
N936 C937 1.346 . S
C937 N936 1.346 . S
C937 C938 1.396 . S
C937 C947 1.510 . S
C938 C934 1.401 . S
C938 C937 1.396 . S
C939 C934 1.499 . S
C939 H940 0.959 . S
C939 H941 0.960 . S
C939 H942 0.961 . S
H940 C939 0.959 . S
H941 C939 0.960 . S
H942 C939 0.961 . S
O943 Co918 1.967 . S
O943 C951 1.258 . S
O944 Co919 1.941 . S
O944 C951 1.266 . S
H945 C947 0.959 . S
H946 C947 0.961 . S
C947 C937 1.510 . S
C947 H945 0.959 . S
C947 H946 0.961 . S
C947 H948 0.960 . S
H948 C947 0.960 . S
H949 N929 0.862 . S
O950 Co918 1.920 . S
O950 C923 1.289 . S
C951 O943 1.258 . S
C951 O944 1.266 . S
Co952 O955 1.970 . S
Co952 N969 1.989 . S
Co952 O977 1.967 . S
Co952 O984 1.920 . S
Co953 O956 1.966 . S
Co953 N962 2.022 . S
Co953 N970 1.993 . S
Co953 O978 1.941 . S
C954 O955 1.258 . S
C954 O956 1.263 . S
O955 Co952 1.970 . S
O955 C954 1.258 . S
O956 Co953 1.966 . S
O956 C954 1.263 . S
C957 O958 1.235 . S
C957 O984 1.289 . S
O958 C957 1.235 . S
C959 C961 1.400 . S
C959 N962 1.351 . S
C959 C964 1.501 . S
C960 C961 1.387 . S
C960 N963 1.341 . S
C961 C959 1.400 . S
C961 C960 1.387 . S
N962 Co953 2.022 . S
N962 C959 1.351 . S
N962 N963 1.365 . S
N963 C960 1.341 . S
N963 N962 1.365 . S
N963 H983 0.862 . S
C964 C959 1.501 . S
C964 H965 0.961 . S
C964 H966 0.961 . S
C964 H967 0.960 . S
H965 C964 0.961 . S
H966 C964 0.961 . S
H967 C964 0.960 . S
C968 N969 1.342 . S
C968 C972 1.401 . S
C968 C973 1.499 . S
N969 Co952 1.989 . S
N969 C968 1.342 . S
N969 N970 1.388 . S
N970 Co953 1.993 . S
N970 N969 1.388 . S
N970 C971 1.346 . S
C971 N970 1.346 . S
C971 C972 1.396 . S
C971 C981 1.510 . S
C972 C968 1.401 . S
C972 C971 1.396 . S
C973 C968 1.499 . S
C973 H974 0.959 . S
C973 H975 0.960 . S
C973 H976 0.961 . S
H974 C973 0.959 . S
H975 C973 0.960 . S
H976 C973 0.961 . S
O977 Co952 1.967 . S
O977 C985 1.258 . S
O978 Co953 1.941 . S
O978 C985 1.266 . S
H979 C981 0.959 . S
H980 C981 0.961 . S
C981 C971 1.510 . S
C981 H979 0.959 . S
C981 H980 0.961 . S
C981 H982 0.960 . S
H982 C981 0.960 . S
H983 N963 0.862 . S
O984 Co952 1.920 . S
O984 C957 1.289 . S
C985 O977 1.258 . S
C985 O978 1.266 . S
Co986 O989 1.970 . S
Co986 N1003 1.989 . S
Co986 O1011 1.967 . S
Co986 O1018 1.920 . S
Co987 O990 1.966 . S
Co987 N996 2.022 . S
Co987 N1004 1.993 . S
Co987 O1012 1.941 . S
C988 O989 1.258 . S
C988 O990 1.263 . S
O989 Co986 1.970 . S
O989 C988 1.258 . S
O990 Co987 1.966 . S
O990 C988 1.263 . S
C991 O992 1.235 . S
C991 O1018 1.289 . S
O992 C991 1.235 . S
C993 C995 1.400 . S
C993 N996 1.351 . S
C993 C998 1.501 . S
C994 C995 1.387 . S
C994 N997 1.341 . S
C995 C993 1.400 . S
C995 C994 1.387 . S
N996 Co987 2.022 . S
N996 C993 1.351 . S
N996 N997 1.365 . S
N997 C994 1.341 . S
N997 N996 1.365 . S
N997 H1017 0.862 . S
C998 C993 1.501 . S
C998 H999 0.961 . S
C998 H1000 0.961 . S
C998 H1001 0.960 . S
H999 C998 0.961 . S
H1000 C998 0.961 . S
H1001 C998 0.960 . S
C1002 N1003 1.342 . S
C1002 C1006 1.401 . S
C1002 C1007 1.499 . S
N1003 Co986 1.989 . S
N1003 C1002 1.342 . S
N1003 N1004 1.388 . S
N1004 Co987 1.993 . S
N1004 N1003 1.388 . S
N1004 C1005 1.346 . S
C1005 N1004 1.346 . S
C1005 C1006 1.396 . S
C1005 C1015 1.510 . S
C1006 C1002 1.401 . S
C1006 C1005 1.396 . S
C1007 C1002 1.499 . S
C1007 H1008 0.959 . S
C1007 H1009 0.960 . S
C1007 H1010 0.961 . S
H1008 C1007 0.959 . S
H1009 C1007 0.960 . S
H1010 C1007 0.961 . S
O1011 Co986 1.967 . S
O1011 C1019 1.258 . S
O1012 Co987 1.941 . S
O1012 C1019 1.266 . S
H1013 C1015 0.959 . S
H1014 C1015 0.961 . S
C1015 C1005 1.510 . S
C1015 H1013 0.959 . S
C1015 H1014 0.961 . S
C1015 H1016 0.960 . S
H1016 C1015 0.960 . S
H1017 N997 0.862 . S
O1018 Co986 1.920 . S
O1018 C991 1.289 . S
C1019 O1011 1.258 . S
C1019 O1012 1.266 . S
Co1020 O1023 1.970 . S
Co1020 N1037 1.989 . S
Co1020 O1045 1.967 . S
Co1020 O1052 1.920 1_554 S
Co1021 O1024 1.966 . S
Co1021 N1030 2.022 . S
Co1021 N1038 1.993 . S
Co1021 O1046 1.941 . S
C1022 O1023 1.258 . S
C1022 O1024 1.263 . S
O1023 Co1020 1.970 . S
O1023 C1022 1.258 . S
O1024 Co1021 1.966 . S
O1024 C1022 1.263 . S
C1025 O1026 1.235 . S
C1025 O1052 1.289 . S
O1026 C1025 1.235 . S
C1027 C1029 1.400 . S
C1027 N1030 1.351 . S
C1027 C1032 1.501 . S
C1028 C1029 1.387 . S
C1028 N1031 1.341 . S
C1029 C1027 1.400 . S
C1029 C1028 1.387 . S
N1030 Co1021 2.022 . S
N1030 C1027 1.351 . S
N1030 N1031 1.365 . S
N1031 C1028 1.341 . S
N1031 N1030 1.365 . S
N1031 H1051 0.862 . S
C1032 C1027 1.501 . S
C1032 H1033 0.961 . S
C1032 H1034 0.961 . S
C1032 H1035 0.960 . S
H1033 C1032 0.961 . S
H1034 C1032 0.961 . S
H1035 C1032 0.960 . S
C1036 N1037 1.342 . S
C1036 C1040 1.401 . S
C1036 C1041 1.499 1_554 S
N1037 Co1020 1.989 . S
N1037 C1036 1.342 . S
N1037 N1038 1.388 . S
N1038 Co1021 1.993 . S
N1038 N1037 1.388 . S
N1038 C1039 1.346 . S
C1039 N1038 1.346 . S
C1039 C1040 1.396 . S
C1039 C1049 1.510 . S
C1040 C1036 1.401 . S
C1040 C1039 1.396 . S
C1041 C1036 1.499 1_556 S
C1041 H1042 0.959 . S
C1041 H1043 0.960 . S
C1041 H1044 0.961 . S
H1042 C1041 0.959 . S
H1043 C1041 0.960 . S
H1044 C1041 0.961 . S
O1045 Co1020 1.967 . S
O1045 C1053 1.258 . S
O1046 Co1021 1.941 . S
O1046 C1053 1.266 . S
H1047 C1049 0.959 . S
H1048 C1049 0.961 . S
C1049 C1039 1.510 . S
C1049 H1047 0.959 . S
C1049 H1048 0.961 . S
C1049 H1050 0.960 . S
H1050 C1049 0.960 . S
H1051 N1031 0.862 . S
O1052 Co1020 1.920 1_556 S
O1052 C1025 1.289 . S
C1053 O1045 1.258 . S
C1053 O1046 1.266 . S
Co1054 O1057 1.970 . S
Co1054 N1071 1.989 . S
Co1054 O1079 1.967 . S
Co1054 O1086 1.920 . S
Co1055 O1058 1.966 . S
Co1055 N1064 2.022 . S
Co1055 N1072 1.993 . S
Co1055 O1080 1.941 . S
C1056 O1057 1.258 . S
C1056 O1058 1.263 . S
O1057 Co1054 1.970 . S
O1057 C1056 1.258 . S
O1058 Co1055 1.966 . S
O1058 C1056 1.263 . S
C1059 O1060 1.235 . S
C1059 O1086 1.289 . S
O1060 C1059 1.235 . S
C1061 C1063 1.400 . S
C1061 N1064 1.351 1_554 S
C1061 C1066 1.501 . S
C1062 C1063 1.387 . S
C1062 N1065 1.341 . S
C1063 C1061 1.400 . S
C1063 C1062 1.387 . S
N1064 Co1055 2.022 . S
N1064 C1061 1.351 1_556 S
N1064 N1065 1.365 1_556 S
N1065 C1062 1.341 . S
N1065 N1064 1.365 1_554 S
N1065 H1085 0.862 . S
C1066 C1061 1.501 . S
C1066 H1067 0.961 1_554 S
C1066 H1068 0.961 . S
C1066 H1069 0.960 . S
H1067 C1066 0.961 1_556 S
H1068 C1066 0.961 . S
H1069 C1066 0.960 . S
C1070 N1071 1.342 . S
C1070 C1074 1.401 . S
C1070 C1075 1.499 . S
N1071 Co1054 1.989 . S
N1071 C1070 1.342 . S
N1071 N1072 1.388 . S
N1072 Co1055 1.993 . S
N1072 N1071 1.388 . S
N1072 C1073 1.346 . S
C1073 N1072 1.346 . S
C1073 C1074 1.396 . S
C1073 C1083 1.510 . S
C1074 C1070 1.401 . S
C1074 C1073 1.396 . S
C1075 C1070 1.499 . S
C1075 H1076 0.959 . S
C1075 H1077 0.960 . S
C1075 H1078 0.961 . S
H1076 C1075 0.959 . S
H1077 C1075 0.960 . S
H1078 C1075 0.961 . S
O1079 Co1054 1.967 . S
O1079 C1087 1.258 . S
O1080 Co1055 1.941 . S
O1080 C1087 1.266 . S
H1081 C1083 0.959 . S
H1082 C1083 0.961 . S
C1083 C1073 1.510 . S
C1083 H1081 0.959 . S
C1083 H1082 0.961 . S
C1083 H1084 0.960 . S
H1084 C1083 0.960 . S
H1085 N1065 0.862 . S
O1086 Co1054 1.920 . S
O1086 C1059 1.289 . S
C1087 O1079 1.258 . S
C1087 O1080 1.266 . S
C1088 C1089 1.349 . S
C1088 C1090 1.327 . S
C1088 H1113 0.950 . S
C1089 C1088 1.349 . S
C1089 C1105 1.349 . S
C1090 C1088 1.327 . S
C1090 C1109 1.429 . S
C1090 H1114 0.950 . S
C1091 C1108 1.574 . S
C1091 C1110 1.368 . S
C1091 H1115 0.949 . S
H1092 C1096 0.949 . S
C1093 C1094 1.349 . S
C1093 C1095 1.327 . S
C1093 H1116 0.950 . S
C1094 C1093 1.349 . S
C1094 C1106 1.349 . S
C1095 C1093 1.327 . S
C1095 C1111 1.429 . S
C1095 H1117 0.950 . S
C1096 H1092 0.949 . S
C1096 C1104 1.574 . S
C1096 C1112 1.368 . S
H1097 C1105 0.950 . S
H1098 C1103 0.950 . S
H1099 C1104 0.949 . S
H1100 C1106 0.950 . S
H1101 C1107 0.950 . S
H1102 C1108 0.949 . S
C1103 H1098 0.950 . S
C1103 C1105 1.327 . S
C1103 C1109 1.429 . S
C1104 C1096 1.574 . S
C1104 H1099 0.949 . S
C1104 C1110 1.368 . S
C1105 C1089 1.349 . S
C1105 H1097 0.950 . S
C1105 C1103 1.327 . S
C1106 C1094 1.349 . S
C1106 H1100 0.950 . S
C1106 C1107 1.327 . S
C1107 H1101 0.950 . S
C1107 C1106 1.327 . S
C1107 C1111 1.429 . S
C1108 C1091 1.574 . S
C1108 H1102 0.949 . S
C1108 C1112 1.368 . S
C1109 C1090 1.429 . S
C1109 C1103 1.429 . S
C1109 C1110 1.523 . S
C1110 C1091 1.368 . S
C1110 C1104 1.368 . S
C1110 C1109 1.523 . S
C1111 C1095 1.429 . S
C1111 C1107 1.429 . S
C1111 C1112 1.523 . S
C1112 C1096 1.368 . S
C1112 C1108 1.368 . S
C1112 C1111 1.523 . S
H1113 C1088 0.950 . S
H1114 C1090 0.950 . S
H1115 C1091 0.949 . S
H1116 C1093 0.950 . S
H1117 C1095 0.950 . S
C1118 C1119 1.349 . S
C1118 C1120 1.327 . S
C1118 H1143 0.950 . S
C1119 C1118 1.349 . S
C1119 C1135 1.349 . S
C1120 C1118 1.327 . S
C1120 C1139 1.429 . S
C1120 H1144 0.950 . S
C1121 C1138 1.574 . S
C1121 C1140 1.368 . S
C1121 H1145 0.949 . S
H1122 C1126 0.949 . S
C1123 C1124 1.349 . S
C1123 C1125 1.327 . S
C1123 H1146 0.950 . S
C1124 C1123 1.349 . S
C1124 C1136 1.349 . S
C1125 C1123 1.327 . S
C1125 C1141 1.429 1_554 S
C1125 H1147 0.953 . S
C1126 H1122 0.949 . S
C1126 C1134 1.574 . S
C1126 C1142 1.368 . S
H1127 C1135 0.950 . S
H1128 C1133 0.950 . S
H1129 C1134 0.949 . S
H1130 C1136 0.950 . S
H1131 C1137 0.950 . S
H1132 C1138 0.949 . S
C1133 H1128 0.950 . S
C1133 C1135 1.327 . S
C1133 C1139 1.429 . S
C1134 C1126 1.574 . S
C1134 H1129 0.949 . S
C1134 C1140 1.368 . S
C1135 C1119 1.349 . S
C1135 H1127 0.950 . S
C1135 C1133 1.327 . S
C1136 C1124 1.349 . S
C1136 H1130 0.950 . S
C1136 C1137 1.327 . S
C1137 H1131 0.950 . S
C1137 C1136 1.327 . S
C1137 C1141 1.429 1_554 S
C1138 C1121 1.574 . S
C1138 H1132 0.949 . S
C1138 C1142 1.368 . S
C1139 C1120 1.429 . S
C1139 C1133 1.429 . S
C1139 C1140 1.523 . S
C1140 C1121 1.368 . S
C1140 C1134 1.368 . S
C1140 C1139 1.523 . S
C1141 C1125 1.429 1_556 S
C1141 C1137 1.429 1_556 S
C1141 C1142 1.523 . S
C1142 C1126 1.368 . S
C1142 C1138 1.368 . S
C1142 C1141 1.523 . S
H1143 C1118 0.950 . S
H1144 C1120 0.950 . S
H1145 C1121 0.949 . S
H1146 C1123 0.950 . S
H1147 C1125 0.953 . S
C1148 C1149 1.349 . S
C1148 C1150 1.327 . S
C1148 H1173 0.950 . S
C1149 C1148 1.349 . S
C1149 C1165 1.349 . S
C1150 C1148 1.327 . S
C1150 C1169 1.429 . S
C1150 H1174 0.950 . S
C1151 C1168 1.574 . S
C1151 C1170 1.368 . S
C1151 H1175 0.949 . S
H1152 C1156 0.949 . S
C1153 C1154 1.349 . S
C1153 C1155 1.327 . S
C1153 H1176 0.950 . S
C1154 C1153 1.349 . S
C1154 C1166 1.349 . S
C1155 C1153 1.327 . S
C1155 C1171 1.429 . S
C1155 H1177 0.950 . S
C1156 H1152 0.949 . S
C1156 C1164 1.574 . S
C1156 C1172 1.368 . S
H1157 C1165 0.950 . S
H1158 C1163 0.950 . S
H1159 C1164 0.949 . S
H1160 C1166 0.950 . S
H1161 C1167 0.950 . S
H1162 C1168 0.949 . S
C1163 H1158 0.950 . S
C1163 C1165 1.327 . S
C1163 C1169 1.429 . S
C1164 C1156 1.574 . S
C1164 H1159 0.949 . S
C1164 C1170 1.368 . S
C1165 C1149 1.349 . S
C1165 H1157 0.950 . S
C1165 C1163 1.327 . S
C1166 C1154 1.349 . S
C1166 H1160 0.950 . S
C1166 C1167 1.327 . S
C1167 H1161 0.950 . S
C1167 C1166 1.327 . S
C1167 C1171 1.429 . S
C1168 C1151 1.574 . S
C1168 H1162 0.949 . S
C1168 C1172 1.368 . S
C1169 C1150 1.429 . S
C1169 C1163 1.429 . S
C1169 C1170 1.523 1_556 S
C1170 C1151 1.368 . S
C1170 C1164 1.368 . S
C1170 C1169 1.523 1_554 S
C1171 C1155 1.429 . S
C1171 C1167 1.429 . S
C1171 C1172 1.523 . S
C1172 C1156 1.368 . S
C1172 C1168 1.368 . S
C1172 C1171 1.523 . S
H1173 C1148 0.950 . S
H1174 C1150 0.950 . S
H1175 C1151 0.949 . S
H1176 C1153 0.950 . S
H1177 C1155 0.950 . S
C1178 C1179 1.349 . S
C1178 C1180 1.327 . S
C1178 H1203 0.950 . S
C1179 C1178 1.349 . S
C1179 C1195 1.349 . S
C1180 C1178 1.327 . S
C1180 C1199 1.429 . S
C1180 H1204 0.950 . S
C1181 C1198 1.574 . S
C1181 C1200 1.368 . S
C1181 H1205 0.949 . S
H1182 C1186 0.949 . S
C1183 C1184 1.349 . S
C1183 C1185 1.327 . S
C1183 H1206 0.950 . S
C1184 C1183 1.349 . S
C1184 C1196 1.349 . S
C1185 C1183 1.327 . S
C1185 C1201 1.429 . S
C1185 H1207 0.950 . S
C1186 H1182 0.949 . S
C1186 C1194 1.574 . S
C1186 C1202 1.368 . S
H1187 C1195 0.950 . S
H1188 C1193 0.950 . S
H1189 C1194 0.949 . S
H1190 C1196 0.950 . S
H1191 C1197 0.950 . S
H1192 C1198 0.949 . S
C1193 H1188 0.950 . S
C1193 C1195 1.327 . S
C1193 C1199 1.429 . S
C1194 C1186 1.574 . S
C1194 H1189 0.949 . S
C1194 C1200 1.368 . S
C1195 C1179 1.349 . S
C1195 H1187 0.950 . S
C1195 C1193 1.327 . S
C1196 C1184 1.349 . S
C1196 H1190 0.950 . S
C1196 C1197 1.327 . S
C1197 H1191 0.950 . S
C1197 C1196 1.327 . S
C1197 C1201 1.429 . S
C1198 C1181 1.574 . S
C1198 H1192 0.949 . S
C1198 C1202 1.368 . S
C1199 C1180 1.429 . S
C1199 C1193 1.429 . S
C1199 C1200 1.523 . S
C1200 C1181 1.368 . S
C1200 C1194 1.368 . S
C1200 C1199 1.523 . S
C1201 C1185 1.429 . S
C1201 C1197 1.429 . S
C1201 C1202 1.523 . S
C1202 C1186 1.368 . S
C1202 C1198 1.368 . S
C1202 C1201 1.523 . S
H1203 C1178 0.950 . S
H1204 C1180 0.950 . S
H1205 C1181 0.949 . S
H1206 C1183 0.950 . S
H1207 C1185 0.950 . S
C1208 C1209 1.349 . S
C1208 C1210 1.327 . S
C1208 H1233 0.950 . S
C1209 C1208 1.349 . S
C1209 C1225 1.349 . S
C1210 C1208 1.327 . S
C1210 C1229 1.429 . S
C1210 H1234 0.950 . S
C1211 C1228 1.574 . S
C1211 C1230 1.368 . S
C1211 H1235 0.949 . S
H1212 C1216 0.949 . S
C1213 C1214 1.349 . S
C1213 C1215 1.327 . S
C1213 H1236 0.950 . S
C1214 C1213 1.349 . S
C1214 C1226 1.349 . S
C1215 C1213 1.327 . S
C1215 C1231 1.429 . S
C1215 H1237 0.950 . S
C1216 H1212 0.949 . S
C1216 C1224 1.574 . S
C1216 C1232 1.368 . S
H1217 C1225 0.950 . S
H1218 C1223 0.950 . S
H1219 C1224 0.949 . S
H1220 C1226 0.950 . S
H1221 C1227 0.950 . S
H1222 C1228 0.949 . S
C1223 H1218 0.950 . S
C1223 C1225 1.327 . S
C1223 C1229 1.429 . S
C1224 C1216 1.574 . S
C1224 H1219 0.949 . S
C1224 C1230 1.368 . S
C1225 C1209 1.349 . S
C1225 H1217 0.950 . S
C1225 C1223 1.327 . S
C1226 C1214 1.349 . S
C1226 H1220 0.950 . S
C1226 C1227 1.327 . S
C1227 H1221 0.950 . S
C1227 C1226 1.327 . S
C1227 C1231 1.429 . S
C1228 C1211 1.574 . S
C1228 H1222 0.949 . S
C1228 C1232 1.368 . S
C1229 C1210 1.429 . S
C1229 C1223 1.429 . S
C1229 C1230 1.523 . S
C1230 C1211 1.368 . S
C1230 C1224 1.368 . S
C1230 C1229 1.523 . S
C1231 C1215 1.429 . S
C1231 C1227 1.429 . S
C1231 C1232 1.523 . S
C1232 C1216 1.368 . S
C1232 C1228 1.368 . S
C1232 C1231 1.523 . S
H1233 C1208 0.950 . S
H1234 C1210 0.950 . S
H1235 C1211 0.949 . S
H1236 C1213 0.950 . S
H1237 C1215 0.950 . S
C1238 C1239 1.349 . S
C1238 C1240 1.327 . S
C1238 H1263 0.950 . S
C1239 C1238 1.349 . S
C1239 C1255 1.349 . S
C1240 C1238 1.327 . S
C1240 C1259 1.429 . S
C1240 H1264 0.950 . S
C1241 C1258 1.574 . S
C1241 C1260 1.368 . S
C1241 H1265 0.949 . S
H1242 C1246 0.949 . S
C1243 C1244 1.349 . S
C1243 C1245 1.327 . S
C1243 H1266 0.950 . S
C1244 C1243 1.349 . S
C1244 C1256 1.349 . S
C1245 C1243 1.327 . S
C1245 C1261 1.429 . S
C1245 H1267 0.950 . S
C1246 H1242 0.949 . S
C1246 C1254 1.574 . S
C1246 C1262 1.368 . S
H1247 C1255 0.950 . S
H1248 C1253 0.950 . S
H1249 C1254 0.949 . S
H1250 C1256 0.950 . S
H1251 C1257 0.950 . S
H1252 C1258 0.949 . S
C1253 H1248 0.950 . S
C1253 C1255 1.327 . S
C1253 C1259 1.429 . S
C1254 C1246 1.574 . S
C1254 H1249 0.949 . S
C1254 C1260 1.368 . S
C1255 C1239 1.349 . S
C1255 H1247 0.950 . S
C1255 C1253 1.327 . S
C1256 C1244 1.349 . S
C1256 H1250 0.950 . S
C1256 C1257 1.327 . S
C1257 H1251 0.950 . S
C1257 C1256 1.327 . S
C1257 C1261 1.429 . S
C1258 C1241 1.574 . S
C1258 H1252 0.949 . S
C1258 C1262 1.368 . S
C1259 C1240 1.429 . S
C1259 C1253 1.429 . S
C1259 C1260 1.523 . S
C1260 C1241 1.368 . S
C1260 C1254 1.368 . S
C1260 C1259 1.523 . S
C1261 C1245 1.429 . S
C1261 C1257 1.429 . S
C1261 C1262 1.523 . S
C1262 C1246 1.368 . S
C1262 C1258 1.368 . S
C1262 C1261 1.523 . S
H1263 C1238 0.950 . S
H1264 C1240 0.950 . S
H1265 C1241 0.949 . S
H1266 C1243 0.950 . S
H1267 C1245 0.950 . S
C1268 C1269 1.349 . S
C1268 C1270 1.327 . S
C1268 H1293 0.950 . S
C1269 C1268 1.349 . S
C1269 C1285 1.349 . S
C1270 C1268 1.327 . S
C1270 C1289 1.429 . S
C1270 H1294 0.950 . S
C1271 C1288 1.574 . S
C1271 C1290 1.368 . S
C1271 H1295 0.949 . S
H1272 C1276 0.949 . S
C1273 C1274 1.349 . S
C1273 C1275 1.327 . S
C1273 H1296 0.950 . S
C1274 C1273 1.349 . S
C1274 C1286 1.349 . S
C1275 C1273 1.327 . S
C1275 C1291 1.429 . S
C1275 H1297 0.950 . S
C1276 H1272 0.949 . S
C1276 C1284 1.574 . S
C1276 C1292 1.368 . S
H1277 C1285 0.950 . S
H1278 C1283 0.950 . S
H1279 C1284 0.949 . S
H1280 C1286 0.950 . S
H1281 C1287 0.950 . S
H1282 C1288 0.949 . S
C1283 H1278 0.950 . S
C1283 C1285 1.327 . S
C1283 C1289 1.429 . S
C1284 C1276 1.574 . S
C1284 H1279 0.949 . S
C1284 C1290 1.368 . S
C1285 C1269 1.349 . S
C1285 H1277 0.950 . S
C1285 C1283 1.327 . S
C1286 C1274 1.349 . S
C1286 H1280 0.950 . S
C1286 C1287 1.327 . S
C1287 H1281 0.950 . S
C1287 C1286 1.327 . S
C1287 C1291 1.429 . S
C1288 C1271 1.574 . S
C1288 H1282 0.949 . S
C1288 C1292 1.368 . S
C1289 C1270 1.429 . S
C1289 C1283 1.429 . S
C1289 C1290 1.523 . S
C1290 C1271 1.368 . S
C1290 C1284 1.368 . S
C1290 C1289 1.523 . S
C1291 C1275 1.429 . S
C1291 C1287 1.429 . S
C1291 C1292 1.523 1_554 S
C1292 C1276 1.368 . S
C1292 C1288 1.368 . S
C1292 C1291 1.523 1_556 S
H1293 C1268 0.950 . S
H1294 C1270 0.950 . S
H1295 C1271 0.949 . S
H1296 C1273 0.950 . S
H1297 C1275 0.950 . S
C1298 C1299 1.349 . S
C1298 C1300 1.327 . S
C1298 H1323 0.950 . S
C1299 C1298 1.349 . S
C1299 C1315 1.349 . S
C1300 C1298 1.327 . S
C1300 C1319 1.429 1_556 S
C1300 H1324 0.940 1_556 S
C1301 C1318 1.574 . S
C1301 C1320 1.368 . S
C1301 H1325 0.949 . S
H1302 C1306 0.949 . S
C1303 C1304 1.349 . S
C1303 C1305 1.327 . S
C1303 H1326 0.950 . S
C1304 C1303 1.349 . S
C1304 C1316 1.349 . S
C1305 C1303 1.327 . S
C1305 C1321 1.429 . S
C1305 H1327 0.950 . S
C1306 H1302 0.949 . S
C1306 C1314 1.574 . S
C1306 C1322 1.368 . S
H1307 C1315 0.950 . S
H1308 C1313 0.950 . S
H1309 C1314 0.949 . S
H1310 C1316 0.950 . S
H1311 C1317 0.950 . S
H1312 C1318 0.949 . S
C1313 H1308 0.950 . S
C1313 C1315 1.327 . S
C1313 C1319 1.429 1_556 S
C1314 C1306 1.574 . S
C1314 H1309 0.949 . S
C1314 C1320 1.368 . S
C1315 C1299 1.349 . S
C1315 H1307 0.950 . S
C1315 C1313 1.327 . S
C1316 C1304 1.349 . S
C1316 H1310 0.950 . S
C1316 C1317 1.327 . S
C1317 H1311 0.950 . S
C1317 C1316 1.327 . S
C1317 C1321 1.429 . S
C1318 C1301 1.574 . S
C1318 H1312 0.949 . S
C1318 C1322 1.368 . S
C1319 C1300 1.429 1_554 S
C1319 C1313 1.429 1_554 S
C1319 C1320 1.523 . S
C1320 C1301 1.368 . S
C1320 C1314 1.368 . S
C1320 C1319 1.523 . S
C1321 C1305 1.429 . S
C1321 C1317 1.429 . S
C1321 C1322 1.523 . S
C1322 C1306 1.368 . S
C1322 C1318 1.368 . S
C1322 C1321 1.523 . S
H1323 C1298 0.950 . S
H1324 C1300 0.940 1_554 S
H1325 C1301 0.949 . S
H1326 C1303 0.950 . S
H1327 C1305 0.950 . S
C1328 C1329 1.349 . S
C1328 C1330 1.327 . S
C1328 H1353 0.950 . S
C1329 C1328 1.349 . S
C1329 C1345 1.349 . S
C1330 C1328 1.327 . S
C1330 C1349 1.429 . S
C1330 H1354 0.950 . S
C1331 C1348 1.574 . S
C1331 C1350 1.368 . S
C1331 H1355 0.949 . S
H1332 C1336 0.949 . S
C1333 C1334 1.349 . S
C1333 C1335 1.327 . S
C1333 H1356 0.950 . S
C1334 C1333 1.349 . S
C1334 C1346 1.349 . S
C1335 C1333 1.327 . S
C1335 C1351 1.429 . S
C1335 H1357 0.950 . S
C1336 H1332 0.949 . S
C1336 C1344 1.574 . S
C1336 C1352 1.368 . S
H1337 C1345 0.950 . S
H1338 C1343 0.950 . S
H1339 C1344 0.949 . S
H1340 C1346 0.950 . S
H1341 C1347 0.950 . S
H1342 C1348 0.949 . S
C1343 H1338 0.950 . S
C1343 C1345 1.327 . S
C1343 C1349 1.429 . S
C1344 C1336 1.574 . S
C1344 H1339 0.949 . S
C1344 C1350 1.368 . S
C1345 C1329 1.349 . S
C1345 H1337 0.950 . S
C1345 C1343 1.327 . S
C1346 C1334 1.349 . S
C1346 H1340 0.950 . S
C1346 C1347 1.327 . S
C1347 H1341 0.950 . S
C1347 C1346 1.327 . S
C1347 C1351 1.429 . S
C1348 C1331 1.574 . S
C1348 H1342 0.949 . S
C1348 C1352 1.368 . S
C1349 C1330 1.429 . S
C1349 C1343 1.429 . S
C1349 C1350 1.523 . S
C1350 C1331 1.368 . S
C1350 C1344 1.368 . S
C1350 C1349 1.523 . S
C1351 C1335 1.429 . S
C1351 C1347 1.429 . S
C1351 C1352 1.523 . S
C1352 C1336 1.368 . S
C1352 C1348 1.368 . S
C1352 C1351 1.523 . S
H1353 C1328 0.950 . S
H1354 C1330 0.950 . S
H1355 C1331 0.949 . S
H1356 C1333 0.950 . S
H1357 C1335 0.950 . S
C1358 C1359 1.349 . S
C1358 C1360 1.327 . S
C1358 H1383 0.950 . S
C1359 C1358 1.349 . S
C1359 C1375 1.349 . S
C1360 C1358 1.327 . S
C1360 C1379 1.429 1_556 S
C1360 H1384 0.954 . S
C1361 C1378 1.574 . S
C1361 C1380 1.368 . S
C1361 H1385 0.949 . S
H1362 C1366 0.949 . S
C1363 C1364 1.349 . S
C1363 C1365 1.327 . S
C1363 H1386 0.950 . S
C1364 C1363 1.349 . S
C1364 C1376 1.349 . S
C1365 C1363 1.327 . S
C1365 C1381 1.429 . S
C1365 H1387 0.950 . S
C1366 H1362 0.949 . S
C1366 C1374 1.574 . S
C1366 C1382 1.368 . S
H1367 C1375 0.950 . S
H1368 C1373 0.950 . S
H1369 C1374 0.949 . S
H1370 C1376 0.950 . S
H1371 C1377 0.950 . S
H1372 C1378 0.949 . S
C1373 H1368 0.950 . S
C1373 C1375 1.327 . S
C1373 C1379 1.429 1_556 S
C1374 C1366 1.574 . S
C1374 H1369 0.949 . S
C1374 C1380 1.368 . S
C1375 C1359 1.349 . S
C1375 H1367 0.950 . S
C1375 C1373 1.327 . S
C1376 C1364 1.349 . S
C1376 H1370 0.950 . S
C1376 C1377 1.327 . S
C1377 H1371 0.950 . S
C1377 C1376 1.327 . S
C1377 C1381 1.429 . S
C1378 C1361 1.574 . S
C1378 H1372 0.949 . S
C1378 C1382 1.368 . S
C1379 C1360 1.429 1_554 S
C1379 C1373 1.429 1_554 S
C1379 C1380 1.523 . S
C1380 C1361 1.368 . S
C1380 C1374 1.368 . S
C1380 C1379 1.523 . S
C1381 C1365 1.429 . S
C1381 C1377 1.429 . S
C1381 C1382 1.523 . S
C1382 C1366 1.368 . S
C1382 C1378 1.368 . S
C1382 C1381 1.523 . S
H1383 C1358 0.950 . S
H1384 C1360 0.954 . S
H1385 C1361 0.949 . S
H1386 C1363 0.950 . S
H1387 C1365 0.950 . S
C1388 C1389 1.349 . S
C1388 C1390 1.327 . S
C1388 H1413 0.950 . S
C1389 C1388 1.349 . S
C1389 C1405 1.349 . S
C1390 C1388 1.327 . S
C1390 C1409 1.429 . S
C1390 H1414 0.950 . S
C1391 C1408 1.574 . S
C1391 C1410 1.368 . S
C1391 H1415 0.949 . S
H1392 C1396 0.949 . S
C1393 C1394 1.349 . S
C1393 C1395 1.327 . S
C1393 H1416 0.950 . S
C1394 C1393 1.349 . S
C1394 C1406 1.349 . S
C1395 C1393 1.327 . S
C1395 C1411 1.429 . S
C1395 H1417 0.950 . S
C1396 H1392 0.949 . S
C1396 C1404 1.574 . S
C1396 C1412 1.368 . S
H1397 C1405 0.950 . S
H1398 C1403 0.950 . S
H1399 C1404 0.949 . S
H1400 C1406 0.950 . S
H1401 C1407 0.950 . S
H1402 C1408 0.949 . S
C1403 H1398 0.950 . S
C1403 C1405 1.327 . S
C1403 C1409 1.429 . S
C1404 C1396 1.574 . S
C1404 H1399 0.949 . S
C1404 C1410 1.368 . S
C1405 C1389 1.349 . S
C1405 H1397 0.950 . S
C1405 C1403 1.327 . S
C1406 C1394 1.349 . S
C1406 H1400 0.950 . S
C1406 C1407 1.327 . S
C1407 H1401 0.950 . S
C1407 C1406 1.327 . S
C1407 C1411 1.429 . S
C1408 C1391 1.574 . S
C1408 H1402 0.949 . S
C1408 C1412 1.368 . S
C1409 C1390 1.429 . S
C1409 C1403 1.429 . S
C1409 C1410 1.523 . S
C1410 C1391 1.368 . S
C1410 C1404 1.368 . S
C1410 C1409 1.523 . S
C1411 C1395 1.429 . S
C1411 C1407 1.429 . S
C1411 C1412 1.523 1_554 S
C1412 C1396 1.368 . S
C1412 C1408 1.368 . S
C1412 C1411 1.523 1_556 S
H1413 C1388 0.950 . S
H1414 C1390 0.950 . S
H1415 C1391 0.949 . S
H1416 C1393 0.950 . S
H1417 C1395 0.950 . S
C1418 C1419 1.349 . S
C1418 C1420 1.327 . S
C1418 H1443 0.950 . S
C1419 C1418 1.349 . S
C1419 C1435 1.349 . S
C1420 C1418 1.327 . S
C1420 C1439 1.429 . S
C1420 H1444 0.950 . S
C1421 C1438 1.574 . S
C1421 C1440 1.368 . S
C1421 H1445 0.949 . S
H1422 C1426 0.949 . S
C1423 C1424 1.349 . S
C1423 C1425 1.327 . S
C1423 H1446 0.950 . S
C1424 C1423 1.349 . S
C1424 C1436 1.349 . S
C1425 C1423 1.327 . S
C1425 C1441 1.429 . S
C1425 H1447 0.950 . S
C1426 H1422 0.949 . S
C1426 C1434 1.574 . S
C1426 C1442 1.368 . S
H1427 C1435 0.950 . S
H1428 C1433 0.950 . S
H1429 C1434 0.949 . S
H1430 C1436 0.950 . S
H1431 C1437 0.950 . S
H1432 C1438 0.949 . S
C1433 H1428 0.950 . S
C1433 C1435 1.327 . S
C1433 C1439 1.429 . S
C1434 C1426 1.574 . S
C1434 H1429 0.949 . S
C1434 C1440 1.368 . S
C1435 C1419 1.349 . S
C1435 H1427 0.950 . S
C1435 C1433 1.327 . S
C1436 C1424 1.349 . S
C1436 H1430 0.950 . S
C1436 C1437 1.327 . S
C1437 H1431 0.950 . S
C1437 C1436 1.327 . S
C1437 C1441 1.429 . S
C1438 C1421 1.574 . S
C1438 H1432 0.949 . S
C1438 C1442 1.368 . S
C1439 C1420 1.429 . S
C1439 C1433 1.429 . S
C1439 C1440 1.523 . S
C1440 C1421 1.368 . S
C1440 C1434 1.368 . S
C1440 C1439 1.523 . S
C1441 C1425 1.429 . S
C1441 C1437 1.429 . S
C1441 C1442 1.523 . S
C1442 C1426 1.368 . S
C1442 C1438 1.368 . S
C1442 C1441 1.523 . S
H1443 C1418 0.950 . S
H1444 C1420 0.950 . S
H1445 C1421 0.949 . S
H1446 C1423 0.950 . S
H1447 C1425 0.950 . S
C1448 C1449 1.349 . S
C1448 C1450 1.327 . S
C1448 H1473 0.950 . S
C1449 C1448 1.349 . S
C1449 C1465 1.349 . S
C1450 C1448 1.327 . S
C1450 C1469 1.429 . S
C1450 H1474 0.950 . S
C1451 C1468 1.574 . S
C1451 C1470 1.368 . S
C1451 H1475 0.949 . S
H1452 C1456 0.949 . S
C1453 C1454 1.349 . S
C1453 C1455 1.327 . S
C1453 H1476 0.950 . S
C1454 C1453 1.349 . S
C1454 C1466 1.349 . S
C1455 C1453 1.327 . S
C1455 C1471 1.429 . S
C1455 H1477 0.950 . S
C1456 H1452 0.949 . S
C1456 C1464 1.574 . S
C1456 C1472 1.368 . S
H1457 C1465 0.950 . S
H1458 C1463 0.950 . S
H1459 C1464 0.949 . S
H1460 C1466 0.950 . S
H1461 C1467 0.950 . S
H1462 C1468 0.949 . S
C1463 H1458 0.950 . S
C1463 C1465 1.327 . S
C1463 C1469 1.429 . S
C1464 C1456 1.574 . S
C1464 H1459 0.949 . S
C1464 C1470 1.368 . S
C1465 C1449 1.349 . S
C1465 H1457 0.950 . S
C1465 C1463 1.327 . S
C1466 C1454 1.349 . S
C1466 H1460 0.950 . S
C1466 C1467 1.327 . S
C1467 H1461 0.950 . S
C1467 C1466 1.327 . S
C1467 C1471 1.429 . S
C1468 C1451 1.574 . S
C1468 H1462 0.949 . S
C1468 C1472 1.368 . S
C1469 C1450 1.429 . S
C1469 C1463 1.429 . S
C1469 C1470 1.523 . S
C1470 C1451 1.368 . S
C1470 C1464 1.368 . S
C1470 C1469 1.523 . S
C1471 C1455 1.429 . S
C1471 C1467 1.429 . S
C1471 C1472 1.523 . S
C1472 C1456 1.368 . S
C1472 C1468 1.368 . S
C1472 C1471 1.523 . S
H1473 C1448 0.950 . S
H1474 C1450 0.950 . S
H1475 C1451 0.949 . S
H1476 C1453 0.950 . S
H1477 C1455 0.950 . S
C1478 C1479 1.349 . S
C1478 C1480 1.327 . S
C1478 H1503 0.950 . S
C1479 C1478 1.349 . S
C1479 C1495 1.349 . S
C1480 C1478 1.327 . S
C1480 C1499 1.429 . S
C1480 H1504 0.950 . S
C1481 C1498 1.574 . S
C1481 C1500 1.368 . S
C1481 H1505 0.949 . S
H1482 C1486 0.949 . S
C1483 C1484 1.349 . S
C1483 C1485 1.327 . S
C1483 H1506 0.950 . S
C1484 C1483 1.349 . S
C1484 C1496 1.349 . S
C1485 C1483 1.327 . S
C1485 C1501 1.429 . S
C1485 H1507 0.950 . S
C1486 H1482 0.949 . S
C1486 C1494 1.574 . S
C1486 C1502 1.368 . S
H1487 C1495 0.950 . S
H1488 C1493 0.950 . S
H1489 C1494 0.949 . S
H1490 C1496 0.950 . S
H1491 C1497 0.950 . S
H1492 C1498 0.949 . S
C1493 H1488 0.950 . S
C1493 C1495 1.327 . S
C1493 C1499 1.429 . S
C1494 C1486 1.574 . S
C1494 H1489 0.949 . S
C1494 C1500 1.368 . S
C1495 C1479 1.349 . S
C1495 H1487 0.950 . S
C1495 C1493 1.327 . S
C1496 C1484 1.349 . S
C1496 H1490 0.950 . S
C1496 C1497 1.327 . S
C1497 H1491 0.950 . S
C1497 C1496 1.327 . S
C1497 C1501 1.429 . S
C1498 C1481 1.574 . S
C1498 H1492 0.949 . S
C1498 C1502 1.368 . S
C1499 C1480 1.429 . S
C1499 C1493 1.429 . S
C1499 C1500 1.523 . S
C1500 C1481 1.368 . S
C1500 C1494 1.368 . S
C1500 C1499 1.523 . S
C1501 C1485 1.429 . S
C1501 C1497 1.429 . S
C1501 C1502 1.523 . S
C1502 C1486 1.368 . S
C1502 C1498 1.368 . S
C1502 C1501 1.523 . S
H1503 C1478 0.950 . S
H1504 C1480 0.950 . S
H1505 C1481 0.949 . S
H1506 C1483 0.950 . S
H1507 C1485 0.950 . S
C1508 C1509 1.349 . S
C1508 C1510 1.327 . S
C1508 H1533 0.950 . S
C1509 C1508 1.349 . S
C1509 C1525 1.349 . S
C1510 C1508 1.327 . S
C1510 C1529 1.429 . S
C1510 H1534 0.950 . S
C1511 C1528 1.574 . S
C1511 C1530 1.368 . S
C1511 H1535 0.949 . S
H1512 C1516 0.949 . S
C1513 C1514 1.349 . S
C1513 C1515 1.327 . S
C1513 H1536 0.950 . S
C1514 C1513 1.349 . S
C1514 C1526 1.349 . S
C1515 C1513 1.327 . S
C1515 C1531 1.429 . S
C1515 H1537 0.950 . S
C1516 H1512 0.949 . S
C1516 C1524 1.574 . S
C1516 C1532 1.368 . S
H1517 C1525 0.950 . S
H1518 C1523 0.950 . S
H1519 C1524 0.949 . S
H1520 C1526 0.950 . S
H1521 C1527 0.950 . S
H1522 C1528 0.949 . S
C1523 H1518 0.950 . S
C1523 C1525 1.327 . S
C1523 C1529 1.429 . S
C1524 C1516 1.574 . S
C1524 H1519 0.949 . S
C1524 C1530 1.368 . S
C1525 C1509 1.349 . S
C1525 H1517 0.950 . S
C1525 C1523 1.327 . S
C1526 C1514 1.349 . S
C1526 H1520 0.950 . S
C1526 C1527 1.327 . S
C1527 H1521 0.950 . S
C1527 C1526 1.327 . S
C1527 C1531 1.429 . S
C1528 C1511 1.574 . S
C1528 H1522 0.949 . S
C1528 C1532 1.368 . S
C1529 C1510 1.429 . S
C1529 C1523 1.429 . S
C1529 C1530 1.523 1_556 S
C1530 C1511 1.368 . S
C1530 C1524 1.368 . S
C1530 C1529 1.523 1_554 S
C1531 C1515 1.429 . S
C1531 C1527 1.429 . S
C1531 C1532 1.523 . S
C1532 C1516 1.368 . S
C1532 C1528 1.368 . S
C1532 C1531 1.523 . S
H1533 C1508 0.950 . S
H1534 C1510 0.950 . S
H1535 C1511 0.949 . S
H1536 C1513 0.950 . S
H1537 C1515 0.950 . S
C1538 C1539 1.349 . S
C1538 C1540 1.327 . S
C1538 H1563 0.950 . S
C1539 C1538 1.349 . S
C1539 C1555 1.349 . S
C1540 C1538 1.327 . S
C1540 C1559 1.429 1_554 S
C1540 H1564 0.954 . S
C1541 C1558 1.574 . S
C1541 C1560 1.368 . S
C1541 H1565 0.949 . S
H1542 C1546 0.949 . S
C1543 C1544 1.349 . S
C1543 C1545 1.327 . S
C1543 H1566 0.950 . S
C1544 C1543 1.349 . S
C1544 C1556 1.349 . S
C1545 C1543 1.327 . S
C1545 C1561 1.429 . S
C1545 H1567 0.950 . S
C1546 H1542 0.949 . S
C1546 C1554 1.574 . S
C1546 C1562 1.368 . S
H1547 C1555 0.950 . S
H1548 C1553 0.950 . S
H1549 C1554 0.949 . S
H1550 C1556 0.950 . S
H1551 C1557 0.950 . S
H1552 C1558 0.949 . S
C1553 H1548 0.950 . S
C1553 C1555 1.327 . S
C1553 C1559 1.429 1_554 S
C1554 C1546 1.574 . S
C1554 H1549 0.949 . S
C1554 C1560 1.368 . S
C1555 C1539 1.349 . S
C1555 H1547 0.950 . S
C1555 C1553 1.327 . S
C1556 C1544 1.349 . S
C1556 H1550 0.950 . S
C1556 C1557 1.327 . S
C1557 H1551 0.950 . S
C1557 C1556 1.327 . S
C1557 C1561 1.429 . S
C1558 C1541 1.574 . S
C1558 H1552 0.949 . S
C1558 C1562 1.368 . S
C1559 C1540 1.429 1_556 S
C1559 C1553 1.429 1_556 S
C1559 C1560 1.523 . S
C1560 C1541 1.368 . S
C1560 C1554 1.368 . S
C1560 C1559 1.523 . S
C1561 C1545 1.429 . S
C1561 C1557 1.429 . S
C1561 C1562 1.523 . S
C1562 C1546 1.368 . S
C1562 C1558 1.368 . S
C1562 C1561 1.523 . S
H1563 C1538 0.950 . S
H1564 C1540 0.954 . S
H1565 C1541 0.949 . S
H1566 C1543 0.950 . S
H1567 C1545 0.950 . S
C1568 C1569 1.349 . S
C1568 C1570 1.327 . S
C1568 H1593 0.950 . S
C1569 C1568 1.349 . S
C1569 C1585 1.349 . S
C1570 C1568 1.327 . S
C1570 C1589 1.429 . S
C1570 H1594 0.950 . S
C1571 C1588 1.574 . S
C1571 C1590 1.368 . S
C1571 H1595 0.949 . S
H1572 C1576 0.949 . S
C1573 C1574 1.349 . S
C1573 C1575 1.327 . S
C1573 H1596 0.950 . S
C1574 C1573 1.349 . S
C1574 C1586 1.349 . S
C1575 C1573 1.327 . S
C1575 C1591 1.429 . S
C1575 H1597 0.950 . S
C1576 H1572 0.949 . S
C1576 C1584 1.574 . S
C1576 C1592 1.368 . S
H1577 C1585 0.950 . S
H1578 C1583 0.950 . S
H1579 C1584 0.949 . S
H1580 C1586 0.950 . S
H1581 C1587 0.950 . S
H1582 C1588 0.949 . S
C1583 H1578 0.950 . S
C1583 C1585 1.327 . S
C1583 C1589 1.429 . S
C1584 C1576 1.574 . S
C1584 H1579 0.949 . S
C1584 C1590 1.368 . S
C1585 C1569 1.349 . S
C1585 H1577 0.950 . S
C1585 C1583 1.327 . S
C1586 C1574 1.349 . S
C1586 H1580 0.950 . S
C1586 C1587 1.327 . S
C1587 H1581 0.950 . S
C1587 C1586 1.327 . S
C1587 C1591 1.429 . S
C1588 C1571 1.574 . S
C1588 H1582 0.949 . S
C1588 C1592 1.368 . S
C1589 C1570 1.429 . S
C1589 C1583 1.429 . S
C1589 C1590 1.523 1_556 S
C1590 C1571 1.368 . S
C1590 C1584 1.368 . S
C1590 C1589 1.523 1_554 S
C1591 C1575 1.429 . S
C1591 C1587 1.429 . S
C1591 C1592 1.523 . S
C1592 C1576 1.368 . S
C1592 C1588 1.368 . S
C1592 C1591 1.523 . S
H1593 C1568 0.950 . S
H1594 C1570 0.950 . S
H1595 C1571 0.949 . S
H1596 C1573 0.950 . S
H1597 C1575 0.950 . S
C1598 C1599 1.349 . S
C1598 C1600 1.327 . S
C1598 H1623 0.950 . S
C1599 C1598 1.349 . S
C1599 C1615 1.349 . S
C1600 C1598 1.327 . S
C1600 C1619 1.429 . S
C1600 H1624 0.950 . S
C1601 C1618 1.574 . S
C1601 C1620 1.368 . S
C1601 H1625 0.949 . S
H1602 C1606 0.949 . S
C1603 C1604 1.349 . S
C1603 C1605 1.327 . S
C1603 H1626 0.950 . S
C1604 C1603 1.349 . S
C1604 C1616 1.349 . S
C1605 C1603 1.327 . S
C1605 C1621 1.429 . S
C1605 H1627 0.950 . S
C1606 H1602 0.949 . S
C1606 C1614 1.574 . S
C1606 C1622 1.368 . S
H1607 C1615 0.950 . S
H1608 C1613 0.950 . S
H1609 C1614 0.949 . S
H1610 C1616 0.950 . S
H1611 C1617 0.950 . S
H1612 C1618 0.949 . S
C1613 H1608 0.950 . S
C1613 C1615 1.327 . S
C1613 C1619 1.429 . S
C1614 C1606 1.574 . S
C1614 H1609 0.949 . S
C1614 C1620 1.368 . S
C1615 C1599 1.349 . S
C1615 H1607 0.950 . S
C1615 C1613 1.327 . S
C1616 C1604 1.349 . S
C1616 H1610 0.950 . S
C1616 C1617 1.327 . S
C1617 H1611 0.950 . S
C1617 C1616 1.327 . S
C1617 C1621 1.429 . S
C1618 C1601 1.574 . S
C1618 H1612 0.949 . S
C1618 C1622 1.368 . S
C1619 C1600 1.429 . S
C1619 C1613 1.429 . S
C1619 C1620 1.523 . S
C1620 C1601 1.368 . S
C1620 C1614 1.368 . S
C1620 C1619 1.523 . S
C1621 C1605 1.429 . S
C1621 C1617 1.429 . S
C1621 C1622 1.523 . S
C1622 C1606 1.368 . S
C1622 C1618 1.368 . S
C1622 C1621 1.523 . S
H1623 C1598 0.950 . S
H1624 C1600 0.950 . S
H1625 C1601 0.949 . S
H1626 C1603 0.950 . S
H1627 C1605 0.950 . S
C1628 C1629 1.349 . S
C1628 C1630 1.327 . S
C1628 H1653 0.950 . S
C1629 C1628 1.349 . S
C1629 C1645 1.349 . S
C1630 C1628 1.327 . S
C1630 C1649 1.429 . S
C1630 H1654 0.950 . S
C1631 C1648 1.574 . S
C1631 C1650 1.368 . S
C1631 H1655 0.949 . S
H1632 C1636 0.949 . S
C1633 C1634 1.349 . S
C1633 C1635 1.327 . S
C1633 H1656 0.950 . S
C1634 C1633 1.349 . S
C1634 C1646 1.349 . S
C1635 C1633 1.327 . S
C1635 C1651 1.429 . S
C1635 H1657 0.950 . S
C1636 H1632 0.949 . S
C1636 C1644 1.574 . S
C1636 C1652 1.368 . S
H1637 C1645 0.950 . S
H1638 C1643 0.950 . S
H1639 C1644 0.949 . S
H1640 C1646 0.950 . S
H1641 C1647 0.950 . S
H1642 C1648 0.949 . S
C1643 H1638 0.950 . S
C1643 C1645 1.327 . S
C1643 C1649 1.429 . S
C1644 C1636 1.574 . S
C1644 H1639 0.949 . S
C1644 C1650 1.368 . S
C1645 C1629 1.349 . S
C1645 H1637 0.950 . S
C1645 C1643 1.327 . S
C1646 C1634 1.349 . S
C1646 H1640 0.950 . S
C1646 C1647 1.327 . S
C1647 H1641 0.950 . S
C1647 C1646 1.327 . S
C1647 C1651 1.429 . S
C1648 C1631 1.574 . S
C1648 H1642 0.949 . S
C1648 C1652 1.368 . S
C1649 C1630 1.429 . S
C1649 C1643 1.429 . S
C1649 C1650 1.523 . S
C1650 C1631 1.368 . S
C1650 C1644 1.368 . S
C1650 C1649 1.523 . S
C1651 C1635 1.429 . S
C1651 C1647 1.429 . S
C1651 C1652 1.523 . S
C1652 C1636 1.368 . S
C1652 C1648 1.368 . S
C1652 C1651 1.523 . S
H1653 C1628 0.950 . S
H1654 C1630 0.950 . S
H1655 C1631 0.949 . S
H1656 C1633 0.950 . S
H1657 C1635 0.950 . S
C1658 C1659 1.349 . S
C1658 C1660 1.327 . S
C1658 H1683 0.950 . S
C1659 C1658 1.349 . S
C1659 C1675 1.349 . S
C1660 C1658 1.327 . S
C1660 C1679 1.429 . S
C1660 H1684 0.950 . S
C1661 C1678 1.574 . S
C1661 C1680 1.368 . S
C1661 H1685 0.949 . S
H1662 C1666 0.949 . S
C1663 C1664 1.349 . S
C1663 C1665 1.327 . S
C1663 H1686 0.950 . S
C1664 C1663 1.349 . S
C1664 C1676 1.349 . S
C1665 C1663 1.327 . S
C1665 C1681 1.429 1_554 S
C1665 H1687 0.954 . S
C1666 H1662 0.949 . S
C1666 C1674 1.574 . S
C1666 C1682 1.368 . S
H1667 C1675 0.950 . S
H1668 C1673 0.950 . S
H1669 C1674 0.949 . S
H1670 C1676 0.950 . S
H1671 C1677 0.950 . S
H1672 C1678 0.949 . S
C1673 H1668 0.950 . S
C1673 C1675 1.327 . S
C1673 C1679 1.429 . S
C1674 C1666 1.574 . S
C1674 H1669 0.949 . S
C1674 C1680 1.368 . S
C1675 C1659 1.349 . S
C1675 H1667 0.950 . S
C1675 C1673 1.327 . S
C1676 C1664 1.349 . S
C1676 H1670 0.950 . S
C1676 C1677 1.327 . S
C1677 H1671 0.950 . S
C1677 C1676 1.327 . S
C1677 C1681 1.429 1_554 S
C1678 C1661 1.574 . S
C1678 H1672 0.949 . S
C1678 C1682 1.368 . S
C1679 C1660 1.429 . S
C1679 C1673 1.429 . S
C1679 C1680 1.523 . S
C1680 C1661 1.368 . S
C1680 C1674 1.368 . S
C1680 C1679 1.523 . S
C1681 C1665 1.429 1_556 S
C1681 C1677 1.429 1_556 S
C1681 C1682 1.523 . S
C1682 C1666 1.368 . S
C1682 C1678 1.368 . S
C1682 C1681 1.523 . S
H1683 C1658 0.950 . S
H1684 C1660 0.950 . S
H1685 C1661 0.949 . S
H1686 C1663 0.950 . S
H1687 C1665 0.954 . S
C1688 C1689 1.349 . S
C1688 C1690 1.327 . S
C1688 H1713 0.950 . S
C1689 C1688 1.349 . S
C1689 C1705 1.349 . S
C1690 C1688 1.327 . S
C1690 C1709 1.429 . S
C1690 H1714 0.950 . S
C1691 C1708 1.574 . S
C1691 C1710 1.368 . S
C1691 H1715 0.949 . S
H1692 C1696 0.949 . S
C1693 C1694 1.349 . S
C1693 C1695 1.327 . S
C1693 H1716 0.950 . S
C1694 C1693 1.349 . S
C1694 C1706 1.349 . S
C1695 C1693 1.327 . S
C1695 C1711 1.429 . S
C1695 H1717 0.950 . S
C1696 H1692 0.949 . S
C1696 C1704 1.574 . S
C1696 C1712 1.368 . S
H1697 C1705 0.950 . S
H1698 C1703 0.950 . S
H1699 C1704 0.949 . S
H1700 C1706 0.950 . S
H1701 C1707 0.950 . S
H1702 C1708 0.949 . S
C1703 H1698 0.950 . S
C1703 C1705 1.327 . S
C1703 C1709 1.429 . S
C1704 C1696 1.574 . S
C1704 H1699 0.949 . S
C1704 C1710 1.368 . S
C1705 C1689 1.349 . S
C1705 H1697 0.950 . S
C1705 C1703 1.327 . S
C1706 C1694 1.349 . S
C1706 H1700 0.950 . S
C1706 C1707 1.327 . S
C1707 H1701 0.950 . S
C1707 C1706 1.327 . S
C1707 C1711 1.429 . S
C1708 C1691 1.574 . S
C1708 H1702 0.949 . S
C1708 C1712 1.368 . S
C1709 C1690 1.429 . S
C1709 C1703 1.429 . S
C1709 C1710 1.523 1_554 S
C1710 C1691 1.368 . S
C1710 C1704 1.368 . S
C1710 C1709 1.523 1_556 S
C1711 C1695 1.429 . S
C1711 C1707 1.429 . S
C1711 C1712 1.523 . S
C1712 C1696 1.368 . S
C1712 C1708 1.368 . S
C1712 C1711 1.523 . S
H1713 C1688 0.950 . S
H1714 C1690 0.950 . S
H1715 C1691 0.949 . S
H1716 C1693 0.950 . S
H1717 C1695 0.950 . S
C1718 C1719 1.349 . S
C1718 C1720 1.327 . S
C1718 H1743 0.950 . S
C1719 C1718 1.349 . S
C1719 C1735 1.349 . S
C1720 C1718 1.327 . S
C1720 C1739 1.429 . S
C1720 H1744 0.950 . S
C1721 C1738 1.574 . S
C1721 C1740 1.368 . S
C1721 H1745 0.949 . S
H1722 C1726 0.949 . S
C1723 C1724 1.349 . S
C1723 C1725 1.327 . S
C1723 H1746 0.950 . S
C1724 C1723 1.349 . S
C1724 C1736 1.349 . S
C1725 C1723 1.327 . S
C1725 C1741 1.429 1_556 S
C1725 H1747 0.950 . S
C1726 H1722 0.949 . S
C1726 C1734 1.574 . S
C1726 C1742 1.368 . S
H1727 C1735 0.950 . S
H1728 C1733 0.950 . S
H1729 C1734 0.949 . S
H1730 C1736 0.950 . S
H1731 C1737 0.954 . S
H1732 C1738 0.949 . S
C1733 H1728 0.950 . S
C1733 C1735 1.327 . S
C1733 C1739 1.429 . S
C1734 C1726 1.574 . S
C1734 H1729 0.949 . S
C1734 C1740 1.368 . S
C1735 C1719 1.349 . S
C1735 H1727 0.950 . S
C1735 C1733 1.327 . S
C1736 C1724 1.349 . S
C1736 H1730 0.950 . S
C1736 C1737 1.327 . S
C1737 H1731 0.954 . S
C1737 C1736 1.327 . S
C1737 C1741 1.429 1_556 S
C1738 C1721 1.574 . S
C1738 H1732 0.949 . S
C1738 C1742 1.368 . S
C1739 C1720 1.429 . S
C1739 C1733 1.429 . S
C1739 C1740 1.523 . S
C1740 C1721 1.368 . S
C1740 C1734 1.368 . S
C1740 C1739 1.523 . S
C1741 C1725 1.429 1_554 S
C1741 C1737 1.429 1_554 S
C1741 C1742 1.523 . S
C1742 C1726 1.368 . S
C1742 C1738 1.368 . S
C1742 C1741 1.523 . S
H1743 C1718 0.950 . S
H1744 C1720 0.950 . S
H1745 C1721 0.949 . S
H1746 C1723 0.950 . S
H1747 C1725 0.950 . S
C1748 C1749 1.349 . S
C1748 C1750 1.327 . S
C1748 H1773 0.950 . S
C1749 C1748 1.349 . S
C1749 C1765 1.349 . S
C1750 C1748 1.327 . S
C1750 C1769 1.429 . S
C1750 H1774 0.950 . S
C1751 C1768 1.574 . S
C1751 C1770 1.368 . S
C1751 H1775 0.949 . S
H1752 C1756 0.949 . S
C1753 C1754 1.349 . S
C1753 C1755 1.327 . S
C1753 H1776 0.950 . S
C1754 C1753 1.349 . S
C1754 C1766 1.349 . S
C1755 C1753 1.327 . S
C1755 C1771 1.429 . S
C1755 H1777 0.950 . S
C1756 H1752 0.949 . S
C1756 C1764 1.574 . S
C1756 C1772 1.368 . S
H1757 C1765 0.950 . S
H1758 C1763 0.950 . S
H1759 C1764 0.949 . S
H1760 C1766 0.950 . S
H1761 C1767 0.950 . S
H1762 C1768 0.949 . S
C1763 H1758 0.950 . S
C1763 C1765 1.327 . S
C1763 C1769 1.429 . S
C1764 C1756 1.574 . S
C1764 H1759 0.949 . S
C1764 C1770 1.368 . S
C1765 C1749 1.349 . S
C1765 H1757 0.950 . S
C1765 C1763 1.327 . S
C1766 C1754 1.349 . S
C1766 H1760 0.950 . S
C1766 C1767 1.327 . S
C1767 H1761 0.950 . S
C1767 C1766 1.327 . S
C1767 C1771 1.429 . S
C1768 C1751 1.574 . S
C1768 H1762 0.949 . S
C1768 C1772 1.368 . S
C1769 C1750 1.429 . S
C1769 C1763 1.429 . S
C1769 C1770 1.523 . S
C1770 C1751 1.368 . S
C1770 C1764 1.368 . S
C1770 C1769 1.523 . S
C1771 C1755 1.429 . S
C1771 C1767 1.429 . S
C1771 C1772 1.523 . S
C1772 C1756 1.368 . S
C1772 C1768 1.368 . S
C1772 C1771 1.523 . S
H1773 C1748 0.950 . S
H1774 C1750 0.950 . S
H1775 C1751 0.949 . S
H1776 C1753 0.950 . S
H1777 C1755 0.950 . S
C1778 C1779 1.349 . S
C1778 C1780 1.327 . S
C1778 H1803 0.950 . S
C1779 C1778 1.349 . S
C1779 C1795 1.349 . S
C1780 C1778 1.327 . S
C1780 C1799 1.429 . S
C1780 H1804 0.950 . S
C1781 C1798 1.574 . S
C1781 C1800 1.368 . S
C1781 H1805 0.949 . S
H1782 C1786 0.949 . S
C1783 C1784 1.349 . S
C1783 C1785 1.327 . S
C1783 H1806 0.950 . S
C1784 C1783 1.349 . S
C1784 C1796 1.349 . S
C1785 C1783 1.327 . S
C1785 C1801 1.429 . S
C1785 H1807 0.950 . S
C1786 H1782 0.949 . S
C1786 C1794 1.574 . S
C1786 C1802 1.368 . S
H1787 C1795 0.950 . S
H1788 C1793 0.950 . S
H1789 C1794 0.949 . S
H1790 C1796 0.950 . S
H1791 C1797 0.950 . S
H1792 C1798 0.949 . S
C1793 H1788 0.950 . S
C1793 C1795 1.327 . S
C1793 C1799 1.429 . S
C1794 C1786 1.574 . S
C1794 H1789 0.949 . S
C1794 C1800 1.368 . S
C1795 C1779 1.349 . S
C1795 H1787 0.950 . S
C1795 C1793 1.327 . S
C1796 C1784 1.349 . S
C1796 H1790 0.950 . S
C1796 C1797 1.327 . S
C1797 H1791 0.950 . S
C1797 C1796 1.327 . S
C1797 C1801 1.429 . S
C1798 C1781 1.574 . S
C1798 H1792 0.949 . S
C1798 C1802 1.368 . S
C1799 C1780 1.429 . S
C1799 C1793 1.429 . S
C1799 C1800 1.523 . S
C1800 C1781 1.368 . S
C1800 C1794 1.368 . S
C1800 C1799 1.523 . S
C1801 C1785 1.429 . S
C1801 C1797 1.429 . S
C1801 C1802 1.523 . S
C1802 C1786 1.368 . S
C1802 C1798 1.368 . S
C1802 C1801 1.523 . S
H1803 C1778 0.950 . S
H1804 C1780 0.950 . S
H1805 C1781 0.949 . S
H1806 C1783 0.950 . S
H1807 C1785 0.950 . S
C1808 C1809 1.349 . S
C1808 C1810 1.327 . S
C1808 H1833 0.950 . S
C1809 C1808 1.349 . S
C1809 C1825 1.349 . S
C1810 C1808 1.327 . S
C1810 C1829 1.429 . S
C1810 H1834 0.950 . S
C1811 C1828 1.574 . S
C1811 C1830 1.368 . S
C1811 H1835 0.949 . S
H1812 C1816 0.949 . S
C1813 C1814 1.349 . S
C1813 C1815 1.327 . S
C1813 H1836 0.950 . S
C1814 C1813 1.349 . S
C1814 C1826 1.349 . S
C1815 C1813 1.327 . S
C1815 C1831 1.429 . S
C1815 H1837 0.950 . S
C1816 H1812 0.949 . S
C1816 C1824 1.574 . S
C1816 C1832 1.368 . S
H1817 C1825 0.950 . S
H1818 C1823 0.950 . S
H1819 C1824 0.949 . S
H1820 C1826 0.950 . S
H1821 C1827 0.950 . S
H1822 C1828 0.949 . S
C1823 H1818 0.950 . S
C1823 C1825 1.327 . S
C1823 C1829 1.429 . S
C1824 C1816 1.574 . S
C1824 H1819 0.949 . S
C1824 C1830 1.368 . S
C1825 C1809 1.349 . S
C1825 H1817 0.950 . S
C1825 C1823 1.327 . S
C1826 C1814 1.349 . S
C1826 H1820 0.950 . S
C1826 C1827 1.327 . S
C1827 H1821 0.950 . S
C1827 C1826 1.327 . S
C1827 C1831 1.429 . S
C1828 C1811 1.574 . S
C1828 H1822 0.949 . S
C1828 C1832 1.368 . S
C1829 C1810 1.429 . S
C1829 C1823 1.429 . S
C1829 C1830 1.523 1_554 S
C1830 C1811 1.368 . S
C1830 C1824 1.368 . S
C1830 C1829 1.523 1_556 S
C1831 C1815 1.429 . S
C1831 C1827 1.429 . S
C1831 C1832 1.523 . S
C1832 C1816 1.368 . S
C1832 C1828 1.368 . S
C1832 C1831 1.523 . S
H1833 C1808 0.950 . S
H1834 C1810 0.950 . S
H1835 C1811 0.949 . S
H1836 C1813 0.950 . S
H1837 C1815 0.950 . S
C1838 C1839 1.349 . S
C1838 C1840 1.327 . S
C1838 H1863 0.950 . S
C1839 C1838 1.349 . S
C1839 C1855 1.349 . S
C1840 C1838 1.327 . S
C1840 C1859 1.429 . S
C1840 H1864 0.950 . S
C1841 C1858 1.574 . S
C1841 C1860 1.368 . S
C1841 H1865 0.949 . S
H1842 C1846 0.949 . S
C1843 C1844 1.349 . S
C1843 C1845 1.327 . S
C1843 H1866 0.950 . S
C1844 C1843 1.349 . S
C1844 C1856 1.349 . S
C1845 C1843 1.327 . S
C1845 C1861 1.429 . S
C1845 H1867 0.950 . S
C1846 H1842 0.949 . S
C1846 C1854 1.574 . S
C1846 C1862 1.368 . S
H1847 C1855 0.950 . S
H1848 C1853 0.950 . S
H1849 C1854 0.949 . S
H1850 C1856 0.950 . S
H1851 C1857 0.950 . S
H1852 C1858 0.949 . S
C1853 H1848 0.950 . S
C1853 C1855 1.327 . S
C1853 C1859 1.429 . S
C1854 C1846 1.574 . S
C1854 H1849 0.949 . S
C1854 C1860 1.368 . S
C1855 C1839 1.349 . S
C1855 H1847 0.950 . S
C1855 C1853 1.327 . S
C1856 C1844 1.349 . S
C1856 H1850 0.950 . S
C1856 C1857 1.327 . S
C1857 H1851 0.950 . S
C1857 C1856 1.327 . S
C1857 C1861 1.429 . S
C1858 C1841 1.574 . S
C1858 H1852 0.949 . S
C1858 C1862 1.368 . S
C1859 C1840 1.429 . S
C1859 C1853 1.429 . S
C1859 C1860 1.523 . S
C1860 C1841 1.368 . S
C1860 C1854 1.368 . S
C1860 C1859 1.523 . S
C1861 C1845 1.429 . S
C1861 C1857 1.429 . S
C1861 C1862 1.523 . S
C1862 C1846 1.368 . S
C1862 C1858 1.368 . S
C1862 C1861 1.523 . S
H1863 C1838 0.950 . S
H1864 C1840 0.950 . S
H1865 C1841 0.949 . S
H1866 C1843 0.950 . S
H1867 C1845 0.950 . S
C1868 C1869 1.349 . S
C1868 C1870 1.327 . S
C1868 H1893 0.950 . S
C1869 C1868 1.349 . S
C1869 C1885 1.349 . S
C1870 C1868 1.327 . S
C1870 C1889 1.429 . S
C1870 H1894 0.950 . S
C1871 C1888 1.574 . S
C1871 C1890 1.368 . S
C1871 H1895 0.949 . S
H1872 C1876 0.949 . S
C1873 C1874 1.349 . S
C1873 C1875 1.327 . S
C1873 H1896 0.950 . S
C1874 C1873 1.349 . S
C1874 C1886 1.349 . S
C1875 C1873 1.327 . S
C1875 C1891 1.429 . S
C1875 H1897 0.950 . S
C1876 H1872 0.949 . S
C1876 C1884 1.574 . S
C1876 C1892 1.368 . S
H1877 C1885 0.950 . S
H1878 C1883 0.950 . S
H1879 C1884 0.949 . S
H1880 C1886 0.950 . S
H1881 C1887 0.950 . S
H1882 C1888 0.949 . S
C1883 H1878 0.950 . S
C1883 C1885 1.327 . S
C1883 C1889 1.429 . S
C1884 C1876 1.574 . S
C1884 H1879 0.949 . S
C1884 C1890 1.368 . S
C1885 C1869 1.349 . S
C1885 H1877 0.950 . S
C1885 C1883 1.327 . S
C1886 C1874 1.349 . S
C1886 H1880 0.950 . S
C1886 C1887 1.327 . S
C1887 H1881 0.950 . S
C1887 C1886 1.327 . S
C1887 C1891 1.429 . S
C1888 C1871 1.574 . S
C1888 H1882 0.949 . S
C1888 C1892 1.368 . S
C1889 C1870 1.429 . S
C1889 C1883 1.429 . S
C1889 C1890 1.523 . S
C1890 C1871 1.368 . S
C1890 C1884 1.368 . S
C1890 C1889 1.523 . S
C1891 C1875 1.429 . S
C1891 C1887 1.429 . S
C1891 C1892 1.523 . S
C1892 C1876 1.368 . S
C1892 C1888 1.368 . S
C1892 C1891 1.523 . S
H1893 C1868 0.950 . S
H1894 C1870 0.950 . S
H1895 C1871 0.949 . S
H1896 C1873 0.950 . S
H1897 C1875 0.950 . S
C1898 C1899 1.349 . S
C1898 C1900 1.327 . S
C1898 H1923 0.950 . S
C1899 C1898 1.349 . S
C1899 C1915 1.349 . S
C1900 C1898 1.327 . S
C1900 C1919 1.429 1_556 S
C1900 H1924 0.954 . S
C1901 C1918 1.574 . S
C1901 C1920 1.368 . S
C1901 H1925 0.949 . S
H1902 C1906 0.949 . S
C1903 C1904 1.349 . S
C1903 C1905 1.327 . S
C1903 H1926 0.950 . S
C1904 C1903 1.349 . S
C1904 C1916 1.349 . S
C1905 C1903 1.327 . S
C1905 C1921 1.429 . S
C1905 H1927 0.950 . S
C1906 H1902 0.949 . S
C1906 C1914 1.574 . S
C1906 C1922 1.368 . S
H1907 C1915 0.950 . S
H1908 C1913 0.950 . S
H1909 C1914 0.949 . S
H1910 C1916 0.950 . S
H1911 C1917 0.950 . S
H1912 C1918 0.949 . S
C1913 H1908 0.950 . S
C1913 C1915 1.327 . S
C1913 C1919 1.429 1_556 S
C1914 C1906 1.574 . S
C1914 H1909 0.949 . S
C1914 C1920 1.368 . S
C1915 C1899 1.349 . S
C1915 H1907 0.950 . S
C1915 C1913 1.327 . S
C1916 C1904 1.349 . S
C1916 H1910 0.950 . S
C1916 C1917 1.327 . S
C1917 H1911 0.950 . S
C1917 C1916 1.327 . S
C1917 C1921 1.429 . S
C1918 C1901 1.574 . S
C1918 H1912 0.949 . S
C1918 C1922 1.368 . S
C1919 C1900 1.429 1_554 S
C1919 C1913 1.429 1_554 S
C1919 C1920 1.523 . S
C1920 C1901 1.368 . S
C1920 C1914 1.368 . S
C1920 C1919 1.523 . S
C1921 C1905 1.429 . S
C1921 C1917 1.429 . S
C1921 C1922 1.523 . S
C1922 C1906 1.368 . S
C1922 C1918 1.368 . S
C1922 C1921 1.523 . S
H1923 C1898 0.950 . S
H1924 C1900 0.954 . S
H1925 C1901 0.949 . S
H1926 C1903 0.950 . S
H1927 C1905 0.950 . S
C1928 C1929 1.349 . S
C1928 C1930 1.327 . S
C1928 H1953 0.950 . S
C1929 C1928 1.349 . S
C1929 C1945 1.349 . S
C1930 C1928 1.327 . S
C1930 C1949 1.429 . S
C1930 H1954 0.950 . S
C1931 C1948 1.574 . S
C1931 C1950 1.368 . S
C1931 H1955 0.949 . S
H1932 C1936 0.949 . S
C1933 C1934 1.349 . S
C1933 C1935 1.327 . S
C1933 H1956 0.950 . S
C1934 C1933 1.349 . S
C1934 C1946 1.349 . S
C1935 C1933 1.327 . S
C1935 C1951 1.429 . S
C1935 H1957 0.950 . S
C1936 H1932 0.949 . S
C1936 C1944 1.574 . S
C1936 C1952 1.368 . S
H1937 C1945 0.950 . S
H1938 C1943 0.950 . S
H1939 C1944 0.949 . S
H1940 C1946 0.950 . S
H1941 C1947 0.950 . S
H1942 C1948 0.949 . S
C1943 H1938 0.950 . S
C1943 C1945 1.327 . S
C1943 C1949 1.429 . S
C1944 C1936 1.574 . S
C1944 H1939 0.949 . S
C1944 C1950 1.368 . S
C1945 C1929 1.349 . S
C1945 H1937 0.950 . S
C1945 C1943 1.327 . S
C1946 C1934 1.349 . S
C1946 H1940 0.950 . S
C1946 C1947 1.327 . S
C1947 H1941 0.950 . S
C1947 C1946 1.327 . S
C1947 C1951 1.429 . S
C1948 C1931 1.574 . S
C1948 H1942 0.949 . S
C1948 C1952 1.368 . S
C1949 C1930 1.429 . S
C1949 C1943 1.429 . S
C1949 C1950 1.523 . S
C1950 C1931 1.368 . S
C1950 C1944 1.368 . S
C1950 C1949 1.523 . S
C1951 C1935 1.429 . S
C1951 C1947 1.429 . S
C1951 C1952 1.523 1_556 S
C1952 C1936 1.368 . S
C1952 C1948 1.368 . S
C1952 C1951 1.523 1_554 S
H1953 C1928 0.950 . S
H1954 C1930 0.950 . S
H1955 C1931 0.949 . S
H1956 C1933 0.950 . S
H1957 C1935 0.950 . S
C1958 C1959 1.349 . S
C1958 C1960 1.327 . S
C1958 H1983 0.950 . S
C1959 C1958 1.349 . S
C1959 C1975 1.349 . S
C1960 C1958 1.327 . S
C1960 C1979 1.429 1_554 S
C1960 H1984 0.954 . S
C1961 C1978 1.574 . S
C1961 C1980 1.368 . S
C1961 H1985 0.949 . S
H1962 C1966 0.949 . S
C1963 C1964 1.349 . S
C1963 C1965 1.327 . S
C1963 H1986 0.950 . S
C1964 C1963 1.349 . S
C1964 C1976 1.349 . S
C1965 C1963 1.327 . S
C1965 C1981 1.429 . S
C1965 H1987 0.950 . S
C1966 H1962 0.949 . S
C1966 C1974 1.574 . S
C1966 C1982 1.368 . S
H1967 C1975 0.950 . S
H1968 C1973 0.950 . S
H1969 C1974 0.949 . S
H1970 C1976 0.950 . S
H1971 C1977 0.950 . S
H1972 C1978 0.949 . S
C1973 H1968 0.950 . S
C1973 C1975 1.327 . S
C1973 C1979 1.429 1_554 S
C1974 C1966 1.574 . S
C1974 H1969 0.949 . S
C1974 C1980 1.368 . S
C1975 C1959 1.349 . S
C1975 H1967 0.950 . S
C1975 C1973 1.327 . S
C1976 C1964 1.349 . S
C1976 H1970 0.950 . S
C1976 C1977 1.327 . S
C1977 H1971 0.950 . S
C1977 C1976 1.327 . S
C1977 C1981 1.429 . S
C1978 C1961 1.574 . S
C1978 H1972 0.949 . S
C1978 C1982 1.368 . S
C1979 C1960 1.429 1_556 S
C1979 C1973 1.429 1_556 S
C1979 C1980 1.523 . S
C1980 C1961 1.368 . S
C1980 C1974 1.368 . S
C1980 C1979 1.523 . S
C1981 C1965 1.429 . S
C1981 C1977 1.429 . S
C1981 C1982 1.523 . S
C1982 C1966 1.368 . S
C1982 C1978 1.368 . S
C1982 C1981 1.523 . S
H1983 C1958 0.950 . S
H1984 C1960 0.954 . S
H1985 C1961 0.949 . S
H1986 C1963 0.950 . S
H1987 C1965 0.950 . S
C1988 C1989 1.349 . S
C1988 C1990 1.327 . S
C1988 H2013 0.950 . S
C1989 C1988 1.349 . S
C1989 C2005 1.349 . S
C1990 C1988 1.327 . S
C1990 C2009 1.429 . S
C1990 H2014 0.950 . S
C1991 C2008 1.574 . S
C1991 C2010 1.368 . S
C1991 H2015 0.949 . S
H1992 C1996 0.949 . S
C1993 C1994 1.349 . S
C1993 C1995 1.327 . S
C1993 H2016 0.950 . S
C1994 C1993 1.349 . S
C1994 C2006 1.349 . S
C1995 C1993 1.327 . S
C1995 C2011 1.429 . S
C1995 H2017 0.950 . S
C1996 H1992 0.949 . S
C1996 C2004 1.574 . S
C1996 C2012 1.368 . S
H1997 C2005 0.950 . S
H1998 C2003 0.950 . S
H1999 C2004 0.949 . S
H2000 C2006 0.950 . S
H2001 C2007 0.950 . S
H2002 C2008 0.949 . S
C2003 H1998 0.950 . S
C2003 C2005 1.327 . S
C2003 C2009 1.429 . S
C2004 C1996 1.574 . S
C2004 H1999 0.949 . S
C2004 C2010 1.368 . S
C2005 C1989 1.349 . S
C2005 H1997 0.950 . S
C2005 C2003 1.327 . S
C2006 C1994 1.349 . S
C2006 H2000 0.950 . S
C2006 C2007 1.327 . S
C2007 H2001 0.950 . S
C2007 C2006 1.327 . S
C2007 C2011 1.429 . S
C2008 C1991 1.574 . S
C2008 H2002 0.949 . S
C2008 C2012 1.368 . S
C2009 C1990 1.429 . S
C2009 C2003 1.429 . S
C2009 C2010 1.523 . S
C2010 C1991 1.368 . S
C2010 C2004 1.368 . S
C2010 C2009 1.523 . S
C2011 C1995 1.429 . S
C2011 C2007 1.429 . S
C2011 C2012 1.523 . S
C2012 C1996 1.368 . S
C2012 C2008 1.368 . S
C2012 C2011 1.523 . S
H2013 C1988 0.950 . S
H2014 C1990 0.950 . S
H2015 C1991 0.949 . S
H2016 C1993 0.950 . S
H2017 C1995 0.950 . S
C2018 C2019 1.349 . S
C2018 C2020 1.327 . S
C2018 H2043 0.950 . S
C2019 C2018 1.349 . S
C2019 C2035 1.349 . S
C2020 C2018 1.327 . S
C2020 C2039 1.429 . S
C2020 H2044 0.950 . S
C2021 C2038 1.574 . S
C2021 C2040 1.368 . S
C2021 H2045 0.949 . S
H2022 C2026 0.949 . S
C2023 C2024 1.349 . S
C2023 C2025 1.327 . S
C2023 H2046 0.950 . S
C2024 C2023 1.349 . S
C2024 C2036 1.349 . S
C2025 C2023 1.327 . S
C2025 C2041 1.429 . S
C2025 H2047 0.950 . S
C2026 H2022 0.949 . S
C2026 C2034 1.574 . S
C2026 C2042 1.368 . S
H2027 C2035 0.950 . S
H2028 C2033 0.950 . S
H2029 C2034 0.949 . S
H2030 C2036 0.950 . S
H2031 C2037 0.950 . S
H2032 C2038 0.949 . S
C2033 H2028 0.950 . S
C2033 C2035 1.327 . S
C2033 C2039 1.429 . S
C2034 C2026 1.574 . S
C2034 H2029 0.949 . S
C2034 C2040 1.368 . S
C2035 C2019 1.349 . S
C2035 H2027 0.950 . S
C2035 C2033 1.327 . S
C2036 C2024 1.349 . S
C2036 H2030 0.950 . S
C2036 C2037 1.327 . S
C2037 H2031 0.950 . S
C2037 C2036 1.327 . S
C2037 C2041 1.429 . S
C2038 C2021 1.574 . S
C2038 H2032 0.949 . S
C2038 C2042 1.368 . S
C2039 C2020 1.429 . S
C2039 C2033 1.429 . S
C2039 C2040 1.523 . S
C2040 C2021 1.368 . S
C2040 C2034 1.368 . S
C2040 C2039 1.523 . S
C2041 C2025 1.429 . S
C2041 C2037 1.429 . S
C2041 C2042 1.523 . S
C2042 C2026 1.368 . S
C2042 C2038 1.368 . S
C2042 C2041 1.523 . S
H2043 C2018 0.950 . S
H2044 C2020 0.950 . S
H2045 C2021 0.949 . S
H2046 C2023 0.950 . S
H2047 C2025 0.950 . S
C2048 C2049 1.349 . S
C2048 C2050 1.327 . S
C2048 H2073 0.950 . S
C2049 C2048 1.349 . S
C2049 C2065 1.349 . S
C2050 C2048 1.327 . S
C2050 C2069 1.429 . S
C2050 H2074 0.950 . S
C2051 C2068 1.574 . S
C2051 C2070 1.368 . S
C2051 H2075 0.949 . S
H2052 C2056 0.949 . S
C2053 C2054 1.349 . S
C2053 C2055 1.327 . S
C2053 H2076 0.950 . S
C2054 C2053 1.349 . S
C2054 C2066 1.349 . S
C2055 C2053 1.327 . S
C2055 C2071 1.429 . S
C2055 H2077 0.950 . S
C2056 H2052 0.949 . S
C2056 C2064 1.574 . S
C2056 C2072 1.368 . S
H2057 C2065 0.950 . S
H2058 C2063 0.950 . S
H2059 C2064 0.949 . S
H2060 C2066 0.950 . S
H2061 C2067 0.950 . S
H2062 C2068 0.949 . S
C2063 H2058 0.950 . S
C2063 C2065 1.327 . S
C2063 C2069 1.429 . S
C2064 C2056 1.574 . S
C2064 H2059 0.949 . S
C2064 C2070 1.368 . S
C2065 C2049 1.349 . S
C2065 H2057 0.950 . S
C2065 C2063 1.327 . S
C2066 C2054 1.349 . S
C2066 H2060 0.950 . S
C2066 C2067 1.327 . S
C2067 H2061 0.950 . S
C2067 C2066 1.327 . S
C2067 C2071 1.429 . S
C2068 C2051 1.574 . S
C2068 H2062 0.949 . S
C2068 C2072 1.368 . S
C2069 C2050 1.429 . S
C2069 C2063 1.429 . S
C2069 C2070 1.523 . S
C2070 C2051 1.368 . S
C2070 C2064 1.368 . S
C2070 C2069 1.523 . S
C2071 C2055 1.429 . S
C2071 C2067 1.429 . S
C2071 C2072 1.523 . S
C2072 C2056 1.368 . S
C2072 C2068 1.368 . S
C2072 C2071 1.523 . S
H2073 C2048 0.950 . S
H2074 C2050 0.950 . S
H2075 C2051 0.949 . S
H2076 C2053 0.950 . S
H2077 C2055 0.950 . S
C2078 C2079 1.349 . S
C2078 C2080 1.327 . S
C2078 H2103 0.950 . S
C2079 C2078 1.349 . S
C2079 C2095 1.349 . S
C2080 C2078 1.327 . S
C2080 C2099 1.429 . S
C2080 H2104 0.950 . S
C2081 C2098 1.574 . S
C2081 C2100 1.368 . S
C2081 H2105 0.949 . S
H2082 C2086 0.949 . S
C2083 C2084 1.349 . S
C2083 C2085 1.327 . S
C2083 H2106 0.950 . S
C2084 C2083 1.349 . S
C2084 C2096 1.349 . S
C2085 C2083 1.327 . S
C2085 C2101 1.429 . S
C2085 H2107 0.950 . S
C2086 H2082 0.949 . S
C2086 C2094 1.574 . S
C2086 C2102 1.368 . S
H2087 C2095 0.950 . S
H2088 C2093 0.950 . S
H2089 C2094 0.949 . S
H2090 C2096 0.950 . S
H2091 C2097 0.950 . S
H2092 C2098 0.949 . S
C2093 H2088 0.950 . S
C2093 C2095 1.327 . S
C2093 C2099 1.429 . S
C2094 C2086 1.574 . S
C2094 H2089 0.949 . S
C2094 C2100 1.368 . S
C2095 C2079 1.349 . S
C2095 H2087 0.950 . S
C2095 C2093 1.327 . S
C2096 C2084 1.349 . S
C2096 H2090 0.950 . S
C2096 C2097 1.327 . S
C2097 H2091 0.950 . S
C2097 C2096 1.327 . S
C2097 C2101 1.429 . S
C2098 C2081 1.574 . S
C2098 H2092 0.949 . S
C2098 C2102 1.368 . S
C2099 C2080 1.429 . S
C2099 C2093 1.429 . S
C2099 C2100 1.523 . S
C2100 C2081 1.368 . S
C2100 C2094 1.368 . S
C2100 C2099 1.523 . S
C2101 C2085 1.429 . S
C2101 C2097 1.429 . S
C2101 C2102 1.523 . S
C2102 C2086 1.368 . S
C2102 C2098 1.368 . S
C2102 C2101 1.523 . S
H2103 C2078 0.950 . S
H2104 C2080 0.950 . S
H2105 C2081 0.949 . S
H2106 C2083 0.950 . S
H2107 C2085 0.950 . S
C2108 C2109 1.349 . S
C2108 C2110 1.327 . S
C2108 H2133 0.950 . S
C2109 C2108 1.349 . S
C2109 C2125 1.349 . S
C2110 C2108 1.327 . S
C2110 C2129 1.429 . S
C2110 H2134 0.950 . S
C2111 C2128 1.574 . S
C2111 C2130 1.368 . S
C2111 H2135 0.949 . S
H2112 C2116 0.949 . S
C2113 C2114 1.349 . S
C2113 C2115 1.327 . S
C2113 H2136 0.950 . S
C2114 C2113 1.349 . S
C2114 C2126 1.349 . S
C2115 C2113 1.327 . S
C2115 C2131 1.429 . S
C2115 H2137 0.950 . S
C2116 H2112 0.949 . S
C2116 C2124 1.574 . S
C2116 C2132 1.368 . S
H2117 C2125 0.950 . S
H2118 C2123 0.950 . S
H2119 C2124 0.949 . S
H2120 C2126 0.950 . S
H2121 C2127 0.950 . S
H2122 C2128 0.949 . S
C2123 H2118 0.950 . S
C2123 C2125 1.327 . S
C2123 C2129 1.429 . S
C2124 C2116 1.574 . S
C2124 H2119 0.949 . S
C2124 C2130 1.368 . S
C2125 C2109 1.349 . S
C2125 H2117 0.950 . S
C2125 C2123 1.327 . S
C2126 C2114 1.349 . S
C2126 H2120 0.950 . S
C2126 C2127 1.327 . S
C2127 H2121 0.950 . S
C2127 C2126 1.327 . S
C2127 C2131 1.429 . S
C2128 C2111 1.574 . S
C2128 H2122 0.949 . S
C2128 C2132 1.368 . S
C2129 C2110 1.429 . S
C2129 C2123 1.429 . S
C2129 C2130 1.523 . S
C2130 C2111 1.368 . S
C2130 C2124 1.368 . S
C2130 C2129 1.523 . S
C2131 C2115 1.429 . S
C2131 C2127 1.429 . S
C2131 C2132 1.523 . S
C2132 C2116 1.368 . S
C2132 C2128 1.368 . S
C2132 C2131 1.523 . S
H2133 C2108 0.950 . S
H2134 C2110 0.950 . S
H2135 C2111 0.949 . S
H2136 C2113 0.950 . S
H2137 C2115 0.950 . S
C2138 C2139 1.349 . S
C2138 C2140 1.327 . S
C2138 H2163 0.950 . S
C2139 C2138 1.349 . S
C2139 C2155 1.349 . S
C2140 C2138 1.327 . S
C2140 C2159 1.429 . S
C2140 H2164 0.950 . S
C2141 C2158 1.574 . S
C2141 C2160 1.368 . S
C2141 H2165 0.949 . S
H2142 C2146 0.949 . S
C2143 C2144 1.349 . S
C2143 C2145 1.327 . S
C2143 H2166 0.950 . S
C2144 C2143 1.349 . S
C2144 C2156 1.349 . S
C2145 C2143 1.327 . S
C2145 C2161 1.429 . S
C2145 H2167 0.950 . S
C2146 H2142 0.949 . S
C2146 C2154 1.574 . S
C2146 C2162 1.368 . S
H2147 C2155 0.950 . S
H2148 C2153 0.950 . S
H2149 C2154 0.949 . S
H2150 C2156 0.950 . S
H2151 C2157 0.950 . S
H2152 C2158 0.949 . S
C2153 H2148 0.950 . S
C2153 C2155 1.327 . S
C2153 C2159 1.429 . S
C2154 C2146 1.574 . S
C2154 H2149 0.949 . S
C2154 C2160 1.368 . S
C2155 C2139 1.349 . S
C2155 H2147 0.950 . S
C2155 C2153 1.327 . S
C2156 C2144 1.349 . S
C2156 H2150 0.950 . S
C2156 C2157 1.327 . S
C2157 H2151 0.950 . S
C2157 C2156 1.327 . S
C2157 C2161 1.429 . S
C2158 C2141 1.574 . S
C2158 H2152 0.949 . S
C2158 C2162 1.368 . S
C2159 C2140 1.429 . S
C2159 C2153 1.429 . S
C2159 C2160 1.523 . S
C2160 C2141 1.368 . S
C2160 C2154 1.368 . S
C2160 C2159 1.523 . S
C2161 C2145 1.429 . S
C2161 C2157 1.429 . S
C2161 C2162 1.523 . S
C2162 C2146 1.368 . S
C2162 C2158 1.368 . S
C2162 C2161 1.523 . S
H2163 C2138 0.950 . S
H2164 C2140 0.950 . S
H2165 C2141 0.949 . S
H2166 C2143 0.950 . S
H2167 C2145 0.950 . S
C2168 C2169 1.349 . S
C2168 C2170 1.327 . S
C2168 H2193 0.950 . S
C2169 C2168 1.349 . S
C2169 C2185 1.349 . S
C2170 C2168 1.327 . S
C2170 C2189 1.429 . S
C2170 H2194 0.950 . S
C2171 C2188 1.574 . S
C2171 C2190 1.368 . S
C2171 H2195 0.949 . S
H2172 C2176 0.949 . S
C2173 C2174 1.349 . S
C2173 C2175 1.327 . S
C2173 H2196 0.950 . S
C2174 C2173 1.349 . S
C2174 C2186 1.349 . S
C2175 C2173 1.327 . S
C2175 C2191 1.429 . S
C2175 H2197 0.950 . S
C2176 H2172 0.949 . S
C2176 C2184 1.574 . S
C2176 C2192 1.368 . S
H2177 C2185 0.950 . S
H2178 C2183 0.950 . S
H2179 C2184 0.949 . S
H2180 C2186 0.950 . S
H2181 C2187 0.950 . S
H2182 C2188 0.949 . S
C2183 H2178 0.950 . S
C2183 C2185 1.327 . S
C2183 C2189 1.429 . S
C2184 C2176 1.574 . S
C2184 H2179 0.949 . S
C2184 C2190 1.368 . S
C2185 C2169 1.349 . S
C2185 H2177 0.950 . S
C2185 C2183 1.327 . S
C2186 C2174 1.349 . S
C2186 H2180 0.950 . S
C2186 C2187 1.327 . S
C2187 H2181 0.950 . S
C2187 C2186 1.327 . S
C2187 C2191 1.429 . S
C2188 C2171 1.574 . S
C2188 H2182 0.949 . S
C2188 C2192 1.368 . S
C2189 C2170 1.429 . S
C2189 C2183 1.429 . S
C2189 C2190 1.523 . S
C2190 C2171 1.368 . S
C2190 C2184 1.368 . S
C2190 C2189 1.523 . S
C2191 C2175 1.429 . S
C2191 C2187 1.429 . S
C2191 C2192 1.523 . S
C2192 C2176 1.368 . S
C2192 C2188 1.368 . S
C2192 C2191 1.523 . S
H2193 C2168 0.950 . S
H2194 C2170 0.950 . S
H2195 C2171 0.949 . S
H2196 C2173 0.950 . S
H2197 C2175 0.950 . S
C2198 C2199 1.349 . S
C2198 C2200 1.327 . S
C2198 H2223 0.950 . S
C2199 C2198 1.349 . S
C2199 C2215 1.349 . S
C2200 C2198 1.327 . S
C2200 C2219 1.429 . S
C2200 H2224 0.950 . S
C2201 C2218 1.574 . S
C2201 C2220 1.368 . S
C2201 H2225 0.949 . S
H2202 C2206 0.949 . S
C2203 C2204 1.349 . S
C2203 C2205 1.327 . S
C2203 H2226 0.950 . S
C2204 C2203 1.349 . S
C2204 C2216 1.349 . S
C2205 C2203 1.327 . S
C2205 C2221 1.429 . S
C2205 H2227 0.950 . S
C2206 H2202 0.949 . S
C2206 C2214 1.574 . S
C2206 C2222 1.368 . S
H2207 C2215 0.950 . S
H2208 C2213 0.950 . S
H2209 C2214 0.949 . S
H2210 C2216 0.950 . S
H2211 C2217 0.950 . S
H2212 C2218 0.949 . S
C2213 H2208 0.950 . S
C2213 C2215 1.327 . S
C2213 C2219 1.429 . S
C2214 C2206 1.574 . S
C2214 H2209 0.949 . S
C2214 C2220 1.368 . S
C2215 C2199 1.349 . S
C2215 H2207 0.950 . S
C2215 C2213 1.327 . S
C2216 C2204 1.349 . S
C2216 H2210 0.950 . S
C2216 C2217 1.327 . S
C2217 H2211 0.950 . S
C2217 C2216 1.327 . S
C2217 C2221 1.429 . S
C2218 C2201 1.574 . S
C2218 H2212 0.949 . S
C2218 C2222 1.368 . S
C2219 C2200 1.429 . S
C2219 C2213 1.429 . S
C2219 C2220 1.523 . S
C2220 C2201 1.368 . S
C2220 C2214 1.368 . S
C2220 C2219 1.523 . S
C2221 C2205 1.429 . S
C2221 C2217 1.429 . S
C2221 C2222 1.523 . S
C2222 C2206 1.368 . S
C2222 C2218 1.368 . S
C2222 C2221 1.523 . S
H2223 C2198 0.950 . S
H2224 C2200 0.950 . S
H2225 C2201 0.949 . S
H2226 C2203 0.950 . S
H2227 C2205 0.950 . S
C2228 C2229 1.349 . S
C2228 C2230 1.327 . S
C2228 H2253 0.950 . S
C2229 C2228 1.349 . S
C2229 C2245 1.349 . S
C2230 C2228 1.327 . S
C2230 C2249 1.429 . S
C2230 H2254 0.950 . S
C2231 C2248 1.574 . S
C2231 C2250 1.368 . S
C2231 H2255 0.949 . S
H2232 C2236 0.949 . S
C2233 C2234 1.349 . S
C2233 C2235 1.327 . S
C2233 H2256 0.950 . S
C2234 C2233 1.349 . S
C2234 C2246 1.349 . S
C2235 C2233 1.327 . S
C2235 C2251 1.429 . S
C2235 H2257 0.950 . S
C2236 H2232 0.949 . S
C2236 C2244 1.574 . S
C2236 C2252 1.368 . S
H2237 C2245 0.950 . S
H2238 C2243 0.950 . S
H2239 C2244 0.949 . S
H2240 C2246 0.950 . S
H2241 C2247 0.950 . S
H2242 C2248 0.949 . S
C2243 H2238 0.950 . S
C2243 C2245 1.327 . S
C2243 C2249 1.429 . S
C2244 C2236 1.574 . S
C2244 H2239 0.949 . S
C2244 C2250 1.368 . S
C2245 C2229 1.349 . S
C2245 H2237 0.950 . S
C2245 C2243 1.327 . S
C2246 C2234 1.349 . S
C2246 H2240 0.950 . S
C2246 C2247 1.327 . S
C2247 H2241 0.950 . S
C2247 C2246 1.327 . S
C2247 C2251 1.429 . S
C2248 C2231 1.574 . S
C2248 H2242 0.949 . S
C2248 C2252 1.368 . S
C2249 C2230 1.429 . S
C2249 C2243 1.429 . S
C2249 C2250 1.523 . S
C2250 C2231 1.368 . S
C2250 C2244 1.368 . S
C2250 C2249 1.523 . S
C2251 C2235 1.429 . S
C2251 C2247 1.429 . S
C2251 C2252 1.523 . S
C2252 C2236 1.368 . S
C2252 C2248 1.368 . S
C2252 C2251 1.523 . S
H2253 C2228 0.950 . S
H2254 C2230 0.950 . S
H2255 C2231 0.949 . S
H2256 C2233 0.950 . S
H2257 C2235 0.950 . S
C2258 C2259 1.349 . S
C2258 C2260 1.327 . S
C2258 H2283 0.950 . S
C2259 C2258 1.349 . S
C2259 C2275 1.349 . S
C2260 C2258 1.327 . S
C2260 C2279 1.429 . S
C2260 H2284 0.950 . S
C2261 C2278 1.574 . S
C2261 C2280 1.368 . S
C2261 H2285 0.949 . S
H2262 C2266 0.949 . S
C2263 C2264 1.349 . S
C2263 C2265 1.327 . S
C2263 H2286 0.950 . S
C2264 C2263 1.349 . S
C2264 C2276 1.349 . S
C2265 C2263 1.327 . S
C2265 C2281 1.429 . S
C2265 H2287 0.950 . S
C2266 H2262 0.949 . S
C2266 C2274 1.574 . S
C2266 C2282 1.368 . S
H2267 C2275 0.950 . S
H2268 C2273 0.950 . S
H2269 C2274 0.949 . S
H2270 C2276 0.950 . S
H2271 C2277 0.950 . S
H2272 C2278 0.949 . S
C2273 H2268 0.950 . S
C2273 C2275 1.327 . S
C2273 C2279 1.429 . S
C2274 C2266 1.574 . S
C2274 H2269 0.949 . S
C2274 C2280 1.368 . S
C2275 C2259 1.349 . S
C2275 H2267 0.950 . S
C2275 C2273 1.327 . S
C2276 C2264 1.349 . S
C2276 H2270 0.950 . S
C2276 C2277 1.327 . S
C2277 H2271 0.950 . S
C2277 C2276 1.327 . S
C2277 C2281 1.429 . S
C2278 C2261 1.574 . S
C2278 H2272 0.949 . S
C2278 C2282 1.368 . S
C2279 C2260 1.429 . S
C2279 C2273 1.429 . S
C2279 C2280 1.523 . S
C2280 C2261 1.368 . S
C2280 C2274 1.368 . S
C2280 C2279 1.523 . S
C2281 C2265 1.429 . S
C2281 C2277 1.429 . S
C2281 C2282 1.523 . S
C2282 C2266 1.368 . S
C2282 C2278 1.368 . S
C2282 C2281 1.523 . S
H2283 C2258 0.950 . S
H2284 C2260 0.950 . S
H2285 C2261 0.949 . S
H2286 C2263 0.950 . S
H2287 C2265 0.950 . S
C2288 C2289 1.349 . S
C2288 C2290 1.327 . S
C2288 H2313 0.950 . S
C2289 C2288 1.349 . S
C2289 C2305 1.349 . S
C2290 C2288 1.327 . S
C2290 C2309 1.429 . S
C2290 H2314 0.950 . S
C2291 C2308 1.574 . S
C2291 C2310 1.368 . S
C2291 H2315 0.949 . S
H2292 C2296 0.949 . S
C2293 C2294 1.349 . S
C2293 C2295 1.327 . S
C2293 H2316 0.950 . S
C2294 C2293 1.349 . S
C2294 C2306 1.349 . S
C2295 C2293 1.327 . S
C2295 C2311 1.429 . S
C2295 H2317 0.950 . S
C2296 H2292 0.949 . S
C2296 C2304 1.574 . S
C2296 C2312 1.368 . S
H2297 C2305 0.950 . S
H2298 C2303 0.950 . S
H2299 C2304 0.949 . S
H2300 C2306 0.950 . S
H2301 C2307 0.950 . S
H2302 C2308 0.949 . S
C2303 H2298 0.950 . S
C2303 C2305 1.327 . S
C2303 C2309 1.429 . S
C2304 C2296 1.574 . S
C2304 H2299 0.949 . S
C2304 C2310 1.368 . S
C2305 C2289 1.349 . S
C2305 H2297 0.950 . S
C2305 C2303 1.327 . S
C2306 C2294 1.349 . S
C2306 H2300 0.950 . S
C2306 C2307 1.327 . S
C2307 H2301 0.950 . S
C2307 C2306 1.327 . S
C2307 C2311 1.429 . S
C2308 C2291 1.574 . S
C2308 H2302 0.949 . S
C2308 C2312 1.368 . S
C2309 C2290 1.429 . S
C2309 C2303 1.429 . S
C2309 C2310 1.523 . S
C2310 C2291 1.368 . S
C2310 C2304 1.368 . S
C2310 C2309 1.523 . S
C2311 C2295 1.429 . S
C2311 C2307 1.429 . S
C2311 C2312 1.523 . S
C2312 C2296 1.368 . S
C2312 C2308 1.368 . S
C2312 C2311 1.523 . S
H2313 C2288 0.950 . S
H2314 C2290 0.950 . S
H2315 C2291 0.949 . S
H2316 C2293 0.950 . S
H2317 C2295 0.950 . S
C2318 C2319 1.349 . S
C2318 C2320 1.327 . S
C2318 H2343 0.950 . S
C2319 C2318 1.349 . S
C2319 C2335 1.349 . S
C2320 C2318 1.327 . S
C2320 C2339 1.429 . S
C2320 H2344 0.950 . S
C2321 C2338 1.574 . S
C2321 C2340 1.368 . S
C2321 H2345 0.949 . S
H2322 C2326 0.949 . S
C2323 C2324 1.349 . S
C2323 C2325 1.327 . S
C2323 H2346 0.950 . S
C2324 C2323 1.349 . S
C2324 C2336 1.349 . S
C2325 C2323 1.327 . S
C2325 C2341 1.429 . S
C2325 H2347 0.950 . S
C2326 H2322 0.949 . S
C2326 C2334 1.574 . S
C2326 C2342 1.368 . S
H2327 C2335 0.950 . S
H2328 C2333 0.950 . S
H2329 C2334 0.949 . S
H2330 C2336 0.950 . S
H2331 C2337 0.950 . S
H2332 C2338 0.949 . S
C2333 H2328 0.950 . S
C2333 C2335 1.327 . S
C2333 C2339 1.429 . S
C2334 C2326 1.574 . S
C2334 H2329 0.949 . S
C2334 C2340 1.368 . S
C2335 C2319 1.349 . S
C2335 H2327 0.950 . S
C2335 C2333 1.327 . S
C2336 C2324 1.349 . S
C2336 H2330 0.950 . S
C2336 C2337 1.327 . S
C2337 H2331 0.950 . S
C2337 C2336 1.327 . S
C2337 C2341 1.429 . S
C2338 C2321 1.574 . S
C2338 H2332 0.949 . S
C2338 C2342 1.368 . S
C2339 C2320 1.429 . S
C2339 C2333 1.429 . S
C2339 C2340 1.523 . S
C2340 C2321 1.368 . S
C2340 C2334 1.368 . S
C2340 C2339 1.523 . S
C2341 C2325 1.429 . S
C2341 C2337 1.429 . S
C2341 C2342 1.523 . S
C2342 C2326 1.368 . S
C2342 C2338 1.368 . S
C2342 C2341 1.523 . S
H2343 C2318 0.950 . S
H2344 C2320 0.950 . S
H2345 C2321 0.949 . S
H2346 C2323 0.950 . S
H2347 C2325 0.950 . S
C2348 C2349 1.349 . S
C2348 C2350 1.327 . S
C2348 H2373 0.950 . S
C2349 C2348 1.349 . S
C2349 C2365 1.349 . S
C2350 C2348 1.327 . S
C2350 C2369 1.429 . S
C2350 H2374 0.950 . S
C2351 C2368 1.574 . S
C2351 C2370 1.368 . S
C2351 H2375 0.949 . S
H2352 C2356 0.949 . S
C2353 C2354 1.349 . S
C2353 C2355 1.327 . S
C2353 H2376 0.950 . S
C2354 C2353 1.349 . S
C2354 C2366 1.349 . S
C2355 C2353 1.327 . S
C2355 C2371 1.429 . S
C2355 H2377 0.950 . S
C2356 H2352 0.949 . S
C2356 C2364 1.574 . S
C2356 C2372 1.368 . S
H2357 C2365 0.950 . S
H2358 C2363 0.950 . S
H2359 C2364 0.949 . S
H2360 C2366 0.950 . S
H2361 C2367 0.950 . S
H2362 C2368 0.949 . S
C2363 H2358 0.950 . S
C2363 C2365 1.327 . S
C2363 C2369 1.429 . S
C2364 C2356 1.574 . S
C2364 H2359 0.949 . S
C2364 C2370 1.368 . S
C2365 C2349 1.349 . S
C2365 H2357 0.950 . S
C2365 C2363 1.327 . S
C2366 C2354 1.349 . S
C2366 H2360 0.950 . S
C2366 C2367 1.327 . S
C2367 H2361 0.950 . S
C2367 C2366 1.327 . S
C2367 C2371 1.429 . S
C2368 C2351 1.574 . S
C2368 H2362 0.949 . S
C2368 C2372 1.368 . S
C2369 C2350 1.429 . S
C2369 C2363 1.429 . S
C2369 C2370 1.523 . S
C2370 C2351 1.368 . S
C2370 C2364 1.368 . S
C2370 C2369 1.523 . S
C2371 C2355 1.429 . S
C2371 C2367 1.429 . S
C2371 C2372 1.523 . S
C2372 C2356 1.368 . S
C2372 C2368 1.368 . S
C2372 C2371 1.523 . S
H2373 C2348 0.950 . S
H2374 C2350 0.950 . S
H2375 C2351 0.949 . S
H2376 C2353 0.950 . S
H2377 C2355 0.950 . S
C2378 C2379 1.349 . S
C2378 C2380 1.327 . S
C2378 H2403 0.950 . S
C2379 C2378 1.349 . S
C2379 C2395 1.349 . S
C2380 C2378 1.327 . S
C2380 C2399 1.429 . S
C2380 H2404 0.950 . S
C2381 C2398 1.574 . S
C2381 C2400 1.368 . S
C2381 H2405 0.949 . S
H2382 C2386 0.949 . S
C2383 C2384 1.349 . S
C2383 C2385 1.327 . S
C2383 H2406 0.950 . S
C2384 C2383 1.349 . S
C2384 C2396 1.349 . S
C2385 C2383 1.327 . S
C2385 C2401 1.429 . S
C2385 H2407 0.950 . S
C2386 H2382 0.949 . S
C2386 C2394 1.574 . S
C2386 C2402 1.368 . S
H2387 C2395 0.950 . S
H2388 C2393 0.950 . S
H2389 C2394 0.949 . S
H2390 C2396 0.950 . S
H2391 C2397 0.950 . S
H2392 C2398 0.949 . S
C2393 H2388 0.950 . S
C2393 C2395 1.327 . S
C2393 C2399 1.429 . S
C2394 C2386 1.574 . S
C2394 H2389 0.949 . S
C2394 C2400 1.368 . S
C2395 C2379 1.349 . S
C2395 H2387 0.950 . S
C2395 C2393 1.327 . S
C2396 C2384 1.349 . S
C2396 H2390 0.950 . S
C2396 C2397 1.327 . S
C2397 H2391 0.950 . S
C2397 C2396 1.327 . S
C2397 C2401 1.429 . S
C2398 C2381 1.574 . S
C2398 H2392 0.949 . S
C2398 C2402 1.368 . S
C2399 C2380 1.429 . S
C2399 C2393 1.429 . S
C2399 C2400 1.523 . S
C2400 C2381 1.368 . S
C2400 C2394 1.368 . S
C2400 C2399 1.523 . S
C2401 C2385 1.429 . S
C2401 C2397 1.429 . S
C2401 C2402 1.523 . S
C2402 C2386 1.368 . S
C2402 C2398 1.368 . S
C2402 C2401 1.523 . S
H2403 C2378 0.950 . S
H2404 C2380 0.950 . S
H2405 C2381 0.949 . S
H2406 C2383 0.950 . S
H2407 C2385 0.950 . S
C2408 C2409 1.349 . S
C2408 C2410 1.327 . S
C2408 H2433 0.950 . S
C2409 C2408 1.349 . S
C2409 C2425 1.349 . S
C2410 C2408 1.327 . S
C2410 C2429 1.429 . S
C2410 H2434 0.950 . S
C2411 C2428 1.574 . S
C2411 C2430 1.368 . S
C2411 H2435 0.949 . S
H2412 C2416 0.949 . S
C2413 C2414 1.349 . S
C2413 C2415 1.327 . S
C2413 H2436 0.950 . S
C2414 C2413 1.349 . S
C2414 C2426 1.349 . S
C2415 C2413 1.327 . S
C2415 C2431 1.429 . S
C2415 H2437 0.950 . S
C2416 H2412 0.949 . S
C2416 C2424 1.574 . S
C2416 C2432 1.368 . S
H2417 C2425 0.950 . S
H2418 C2423 0.950 . S
H2419 C2424 0.949 . S
H2420 C2426 0.950 . S
H2421 C2427 0.950 . S
H2422 C2428 0.949 . S
C2423 H2418 0.950 . S
C2423 C2425 1.327 . S
C2423 C2429 1.429 . S
C2424 C2416 1.574 . S
C2424 H2419 0.949 . S
C2424 C2430 1.368 . S
C2425 C2409 1.349 . S
C2425 H2417 0.950 . S
C2425 C2423 1.327 . S
C2426 C2414 1.349 . S
C2426 H2420 0.950 . S
C2426 C2427 1.327 . S
C2427 H2421 0.950 . S
C2427 C2426 1.327 . S
C2427 C2431 1.429 . S
C2428 C2411 1.574 . S
C2428 H2422 0.949 . S
C2428 C2432 1.368 . S
C2429 C2410 1.429 . S
C2429 C2423 1.429 . S
C2429 C2430 1.523 . S
C2430 C2411 1.368 . S
C2430 C2424 1.368 . S
C2430 C2429 1.523 . S
C2431 C2415 1.429 . S
C2431 C2427 1.429 . S
C2431 C2432 1.523 . S
C2432 C2416 1.368 . S
C2432 C2428 1.368 . S
C2432 C2431 1.523 . S
H2433 C2408 0.950 . S
H2434 C2410 0.950 . S
H2435 C2411 0.949 . S
H2436 C2413 0.950 . S
H2437 C2415 0.950 . S
C2438 C2439 1.349 . S
C2438 C2440 1.327 . S
C2438 H2463 0.950 . S
C2439 C2438 1.349 . S
C2439 C2455 1.349 . S
C2440 C2438 1.327 . S
C2440 C2459 1.429 . S
C2440 H2464 0.950 . S
C2441 C2458 1.574 . S
C2441 C2460 1.368 . S
C2441 H2465 0.949 . S
H2442 C2446 0.949 . S
C2443 C2444 1.349 . S
C2443 C2445 1.327 . S
C2443 H2466 0.950 . S
C2444 C2443 1.349 . S
C2444 C2456 1.349 . S
C2445 C2443 1.327 . S
C2445 C2461 1.429 . S
C2445 H2467 0.950 . S
C2446 H2442 0.949 . S
C2446 C2454 1.574 . S
C2446 C2462 1.368 . S
H2447 C2455 0.950 . S
H2448 C2453 0.950 . S
H2449 C2454 0.949 . S
H2450 C2456 0.950 . S
H2451 C2457 0.950 . S
H2452 C2458 0.949 . S
C2453 H2448 0.950 . S
C2453 C2455 1.327 . S
C2453 C2459 1.429 . S
C2454 C2446 1.574 . S
C2454 H2449 0.949 . S
C2454 C2460 1.368 . S
C2455 C2439 1.349 . S
C2455 H2447 0.950 . S
C2455 C2453 1.327 . S
C2456 C2444 1.349 . S
C2456 H2450 0.950 . S
C2456 C2457 1.327 . S
C2457 H2451 0.950 . S
C2457 C2456 1.327 . S
C2457 C2461 1.429 . S
C2458 C2441 1.574 . S
C2458 H2452 0.949 . S
C2458 C2462 1.368 . S
C2459 C2440 1.429 . S
C2459 C2453 1.429 . S
C2459 C2460 1.523 . S
C2460 C2441 1.368 . S
C2460 C2454 1.368 . S
C2460 C2459 1.523 . S
C2461 C2445 1.429 . S
C2461 C2457 1.429 . S
C2461 C2462 1.523 . S
C2462 C2446 1.368 . S
C2462 C2458 1.368 . S
C2462 C2461 1.523 . S
H2463 C2438 0.950 . S
H2464 C2440 0.950 . S
H2465 C2441 0.949 . S
H2466 C2443 0.950 . S
H2467 C2445 0.950 . S
C2468 C2469 1.349 . S
C2468 C2470 1.327 . S
C2468 H2493 0.950 . S
C2469 C2468 1.349 . S
C2469 C2485 1.349 . S
C2470 C2468 1.327 . S
C2470 C2489 1.429 . S
C2470 H2494 0.950 . S
C2471 C2488 1.574 . S
C2471 C2490 1.368 . S
C2471 H2495 0.949 . S
H2472 C2476 0.949 . S
C2473 C2474 1.349 . S
C2473 C2475 1.327 . S
C2473 H2496 0.950 . S
C2474 C2473 1.349 . S
C2474 C2486 1.349 . S
C2475 C2473 1.327 . S
C2475 C2491 1.429 . S
C2475 H2497 0.950 . S
C2476 H2472 0.949 . S
C2476 C2484 1.574 . S
C2476 C2492 1.368 . S
H2477 C2485 0.950 . S
H2478 C2483 0.950 . S
H2479 C2484 0.949 . S
H2480 C2486 0.950 . S
H2481 C2487 0.950 . S
H2482 C2488 0.949 . S
C2483 H2478 0.950 . S
C2483 C2485 1.327 . S
C2483 C2489 1.429 . S
C2484 C2476 1.574 . S
C2484 H2479 0.949 . S
C2484 C2490 1.368 . S
C2485 C2469 1.349 . S
C2485 H2477 0.950 . S
C2485 C2483 1.327 . S
C2486 C2474 1.349 . S
C2486 H2480 0.950 . S
C2486 C2487 1.327 . S
C2487 H2481 0.950 . S
C2487 C2486 1.327 . S
C2487 C2491 1.429 . S
C2488 C2471 1.574 . S
C2488 H2482 0.949 . S
C2488 C2492 1.368 . S
C2489 C2470 1.429 . S
C2489 C2483 1.429 . S
C2489 C2490 1.523 . S
C2490 C2471 1.368 . S
C2490 C2484 1.368 . S
C2490 C2489 1.523 . S
C2491 C2475 1.429 . S
C2491 C2487 1.429 . S
C2491 C2492 1.523 . S
C2492 C2476 1.368 . S
C2492 C2488 1.368 . S
C2492 C2491 1.523 . S
H2493 C2468 0.950 . S
H2494 C2470 0.950 . S
H2495 C2471 0.949 . S
H2496 C2473 0.950 . S
H2497 C2475 0.950 . S
C2498 C2499 1.349 . S
C2498 C2500 1.327 . S
C2498 H2523 0.950 . S
C2499 C2498 1.349 . S
C2499 C2515 1.349 . S
C2500 C2498 1.327 . S
C2500 C2519 1.429 . S
C2500 H2524 0.950 . S
C2501 C2518 1.574 . S
C2501 C2520 1.368 . S
C2501 H2525 0.949 . S
H2502 C2506 0.949 . S
C2503 C2504 1.349 . S
C2503 C2505 1.327 . S
C2503 H2526 0.950 . S
C2504 C2503 1.349 . S
C2504 C2516 1.349 . S
C2505 C2503 1.327 . S
C2505 C2521 1.429 . S
C2505 H2527 0.950 . S
C2506 H2502 0.949 . S
C2506 C2514 1.574 . S
C2506 C2522 1.368 . S
H2507 C2515 0.950 . S
H2508 C2513 0.950 . S
H2509 C2514 0.949 . S
H2510 C2516 0.950 . S
H2511 C2517 0.950 . S
H2512 C2518 0.949 . S
C2513 H2508 0.950 . S
C2513 C2515 1.327 . S
C2513 C2519 1.429 . S
C2514 C2506 1.574 . S
C2514 H2509 0.949 . S
C2514 C2520 1.368 . S
C2515 C2499 1.349 . S
C2515 H2507 0.950 . S
C2515 C2513 1.327 . S
C2516 C2504 1.349 . S
C2516 H2510 0.950 . S
C2516 C2517 1.327 . S
C2517 H2511 0.950 . S
C2517 C2516 1.327 . S
C2517 C2521 1.429 . S
C2518 C2501 1.574 . S
C2518 H2512 0.949 . S
C2518 C2522 1.368 . S
C2519 C2500 1.429 . S
C2519 C2513 1.429 . S
C2519 C2520 1.523 . S
C2520 C2501 1.368 . S
C2520 C2514 1.368 . S
C2520 C2519 1.523 . S
C2521 C2505 1.429 . S
C2521 C2517 1.429 . S
C2521 C2522 1.523 . S
C2522 C2506 1.368 . S
C2522 C2518 1.368 . S
C2522 C2521 1.523 . S
H2523 C2498 0.950 . S
H2524 C2500 0.950 . S
H2525 C2501 0.949 . S
H2526 C2503 0.950 . S
H2527 C2505 0.950 . S
C2528 C2529 1.349 . S
C2528 C2530 1.327 . S
C2528 H2553 0.950 . S
C2529 C2528 1.349 . S
C2529 C2545 1.349 . S
C2530 C2528 1.327 . S
C2530 C2549 1.429 . S
C2530 H2554 0.950 . S
C2531 C2548 1.574 . S
C2531 C2550 1.368 1_554 S
C2531 H2555 0.949 . S
H2532 C2536 0.949 . S
C2533 C2534 1.349 . S
C2533 C2535 1.327 . S
C2533 H2556 0.950 . S
C2534 C2533 1.349 . S
C2534 C2546 1.349 . S
C2535 C2533 1.327 . S
C2535 C2551 1.429 . S
C2535 H2557 0.950 . S
C2536 H2532 0.949 . S
C2536 C2544 1.574 . S
C2536 C2552 1.368 1_556 S
H2537 C2545 0.950 . S
H2538 C2543 0.950 . S
H2539 C2544 0.949 . S
H2540 C2546 0.950 . S
H2541 C2547 0.950 . S
H2542 C2548 0.949 . S
C2543 H2538 0.950 . S
C2543 C2545 1.327 . S
C2543 C2549 1.429 . S
C2544 C2536 1.574 . S
C2544 H2539 0.949 . S
C2544 C2550 1.368 . S
C2545 C2529 1.349 . S
C2545 H2537 0.950 . S
C2545 C2543 1.327 . S
C2546 C2534 1.349 . S
C2546 H2540 0.950 . S
C2546 C2547 1.327 . S
C2547 H2541 0.950 . S
C2547 C2546 1.327 . S
C2547 C2551 1.429 . S
C2548 C2531 1.574 . S
C2548 H2542 0.949 . S
C2548 C2552 1.368 . S
C2549 C2530 1.429 . S
C2549 C2543 1.429 . S
C2549 C2550 1.523 . S
C2550 C2531 1.368 1_556 S
C2550 C2544 1.368 . S
C2550 C2549 1.523 . S
C2551 C2535 1.429 . S
C2551 C2547 1.429 . S
C2551 C2552 1.523 . S
C2552 C2536 1.368 1_554 S
C2552 C2548 1.368 . S
C2552 C2551 1.523 . S
H2553 C2528 0.950 . S
H2554 C2530 0.950 . S
H2555 C2531 0.949 . S
H2556 C2533 0.950 . S
H2557 C2535 0.950 . S
C2558 C2559 1.349 . S
C2558 C2560 1.327 . S
C2558 H2583 0.950 . S
C2559 C2558 1.349 . S
C2559 C2575 1.349 . S
C2560 C2558 1.327 . S
C2560 C2579 1.429 . S
C2560 H2584 0.950 . S
C2561 C2578 1.574 . S
C2561 C2580 1.368 . S
C2561 H2585 0.949 . S
H2562 C2566 0.949 . S
C2563 C2564 1.349 . S
C2563 C2565 1.327 . S
C2563 H2586 0.950 . S
C2564 C2563 1.349 . S
C2564 C2576 1.349 . S
C2565 C2563 1.327 . S
C2565 C2581 1.429 . S
C2565 H2587 0.950 . S
C2566 H2562 0.949 . S
C2566 C2574 1.574 . S
C2566 C2582 1.368 . S
H2567 C2575 0.950 . S
H2568 C2573 0.950 . S
H2569 C2574 0.949 . S
H2570 C2576 0.950 . S
H2571 C2577 0.950 . S
H2572 C2578 0.949 . S
C2573 H2568 0.950 . S
C2573 C2575 1.327 . S
C2573 C2579 1.429 . S
C2574 C2566 1.574 . S
C2574 H2569 0.949 . S
C2574 C2580 1.368 . S
C2575 C2559 1.349 . S
C2575 H2567 0.950 . S
C2575 C2573 1.327 . S
C2576 C2564 1.349 . S
C2576 H2570 0.950 . S
C2576 C2577 1.327 . S
C2577 H2571 0.950 . S
C2577 C2576 1.327 . S
C2577 C2581 1.429 . S
C2578 C2561 1.574 . S
C2578 H2572 0.949 . S
C2578 C2582 1.368 . S
C2579 C2560 1.429 . S
C2579 C2573 1.429 . S
C2579 C2580 1.523 . S
C2580 C2561 1.368 . S
C2580 C2574 1.368 . S
C2580 C2579 1.523 . S
C2581 C2565 1.429 . S
C2581 C2577 1.429 . S
C2581 C2582 1.523 . S
C2582 C2566 1.368 . S
C2582 C2578 1.368 . S
C2582 C2581 1.523 . S
H2583 C2558 0.950 . S
H2584 C2560 0.950 . S
H2585 C2561 0.949 . S
H2586 C2563 0.950 . S
H2587 C2565 0.950 . S
C2588 C2589 1.349 . S
C2588 C2590 1.327 . S
C2588 H2613 0.950 . S
C2589 C2588 1.349 . S
C2589 C2605 1.349 . S
C2590 C2588 1.327 . S
C2590 C2609 1.429 . S
C2590 H2614 0.950 . S
C2591 C2608 1.574 . S
C2591 C2610 1.368 . S
C2591 H2615 0.949 . S
H2592 C2596 0.949 . S
C2593 C2594 1.349 . S
C2593 C2595 1.327 . S
C2593 H2616 0.950 . S
C2594 C2593 1.349 . S
C2594 C2606 1.349 . S
C2595 C2593 1.327 . S
C2595 C2611 1.429 . S
C2595 H2617 0.950 . S
C2596 H2592 0.949 . S
C2596 C2604 1.574 . S
C2596 C2612 1.368 . S
H2597 C2605 0.950 . S
H2598 C2603 0.950 . S
H2599 C2604 0.949 . S
H2600 C2606 0.950 . S
H2601 C2607 0.950 . S
H2602 C2608 0.949 . S
C2603 H2598 0.950 . S
C2603 C2605 1.327 . S
C2603 C2609 1.429 . S
C2604 C2596 1.574 . S
C2604 H2599 0.949 . S
C2604 C2610 1.368 . S
C2605 C2589 1.349 . S
C2605 H2597 0.950 . S
C2605 C2603 1.327 . S
C2606 C2594 1.349 . S
C2606 H2600 0.950 . S
C2606 C2607 1.327 . S
C2607 H2601 0.950 . S
C2607 C2606 1.327 . S
C2607 C2611 1.429 . S
C2608 C2591 1.574 . S
C2608 H2602 0.949 . S
C2608 C2612 1.368 . S
C2609 C2590 1.429 . S
C2609 C2603 1.429 . S
C2609 C2610 1.523 . S
C2610 C2591 1.368 . S
C2610 C2604 1.368 . S
C2610 C2609 1.523 . S
C2611 C2595 1.429 . S
C2611 C2607 1.429 . S
C2611 C2612 1.523 . S
C2612 C2596 1.368 . S
C2612 C2608 1.368 . S
C2612 C2611 1.523 . S
H2613 C2588 0.950 . S
H2614 C2590 0.950 . S
H2615 C2591 0.949 . S
H2616 C2593 0.950 . S
H2617 C2595 0.950 . S
C2618 C2619 1.349 . S
C2618 C2620 1.327 . S
C2618 H2643 0.950 . S
C2619 C2618 1.349 . S
C2619 C2635 1.349 . S
C2620 C2618 1.327 . S
C2620 C2639 1.429 . S
C2620 H2644 0.950 . S
C2621 C2638 1.574 . S
C2621 C2640 1.368 . S
C2621 H2645 0.949 . S
H2622 C2626 0.949 . S
C2623 C2624 1.349 . S
C2623 C2625 1.327 . S
C2623 H2646 0.950 . S
C2624 C2623 1.349 . S
C2624 C2636 1.349 . S
C2625 C2623 1.327 . S
C2625 C2641 1.429 . S
C2625 H2647 0.950 . S
C2626 H2622 0.949 . S
C2626 C2634 1.574 . S
C2626 C2642 1.368 . S
H2627 C2635 0.950 . S
H2628 C2633 0.950 . S
H2629 C2634 0.949 . S
H2630 C2636 0.950 . S
H2631 C2637 0.950 . S
H2632 C2638 0.949 . S
C2633 H2628 0.950 . S
C2633 C2635 1.327 . S
C2633 C2639 1.429 . S
C2634 C2626 1.574 . S
C2634 H2629 0.949 . S
C2634 C2640 1.368 . S
C2635 C2619 1.349 . S
C2635 H2627 0.950 . S
C2635 C2633 1.327 . S
C2636 C2624 1.349 . S
C2636 H2630 0.950 . S
C2636 C2637 1.327 . S
C2637 H2631 0.950 . S
C2637 C2636 1.327 . S
C2637 C2641 1.429 . S
C2638 C2621 1.574 . S
C2638 H2632 0.949 . S
C2638 C2642 1.368 . S
C2639 C2620 1.429 . S
C2639 C2633 1.429 . S
C2639 C2640 1.523 . S
C2640 C2621 1.368 . S
C2640 C2634 1.368 . S
C2640 C2639 1.523 . S
C2641 C2625 1.429 . S
C2641 C2637 1.429 . S
C2641 C2642 1.523 . S
C2642 C2626 1.368 . S
C2642 C2638 1.368 . S
C2642 C2641 1.523 . S
H2643 C2618 0.950 . S
H2644 C2620 0.950 . S
H2645 C2621 0.949 . S
H2646 C2623 0.950 . S
H2647 C2625 0.950 . S
C2648 C2649 1.349 . S
C2648 C2650 1.327 . S
C2648 H2673 0.950 1_556 S
C2649 C2648 1.349 . S
C2649 C2665 1.349 . S
C2650 C2648 1.327 . S
C2650 C2669 1.429 . S
C2650 H2674 0.950 1_556 S
C2651 C2668 1.574 . S
C2651 C2670 1.368 . S
C2651 H2675 0.949 . S
H2652 C2656 0.949 . S
C2653 C2654 1.349 . S
C2653 C2655 1.327 . S
C2653 H2676 0.950 1_554 S
C2654 C2653 1.349 . S
C2654 C2666 1.349 . S
C2655 C2653 1.327 . S
C2655 C2671 1.429 . S
C2655 H2677 0.950 1_554 S
C2656 H2652 0.949 . S
C2656 C2664 1.574 . S
C2656 C2672 1.368 . S
H2657 C2665 0.950 . S
H2658 C2663 0.950 . S
H2659 C2664 0.949 . S
H2660 C2666 0.950 . S
H2661 C2667 0.950 . S
H2662 C2668 0.949 . S
C2663 H2658 0.950 . S
C2663 C2665 1.327 . S
C2663 C2669 1.429 . S
C2664 C2656 1.574 . S
C2664 H2659 0.949 . S
C2664 C2670 1.368 1_554 S
C2665 C2649 1.349 . S
C2665 H2657 0.950 . S
C2665 C2663 1.327 . S
C2666 C2654 1.349 . S
C2666 H2660 0.950 . S
C2666 C2667 1.327 . S
C2667 H2661 0.950 . S
C2667 C2666 1.327 . S
C2667 C2671 1.429 . S
C2668 C2651 1.574 . S
C2668 H2662 0.949 . S
C2668 C2672 1.368 1_556 S
C2669 C2650 1.429 . S
C2669 C2663 1.429 . S
C2669 C2670 1.523 . S
C2670 C2651 1.368 . S
C2670 C2664 1.368 1_556 S
C2670 C2669 1.523 . S
C2671 C2655 1.429 . S
C2671 C2667 1.429 . S
C2671 C2672 1.523 . S
C2672 C2656 1.368 . S
C2672 C2668 1.368 1_554 S
C2672 C2671 1.523 . S
H2673 C2648 0.950 1_554 S
H2674 C2650 0.950 1_554 S
H2675 C2651 0.949 . S
H2676 C2653 0.950 1_556 S
H2677 C2655 0.950 1_556 S
C2678 C2679 1.349 . S
C2678 C2680 1.327 . S
C2678 H2703 0.950 . S
C2679 C2678 1.349 . S
C2679 C2695 1.349 . S
C2680 C2678 1.327 . S
C2680 C2699 1.429 . S
C2680 H2704 0.950 . S
C2681 C2698 1.574 . S
C2681 C2700 1.368 . S
C2681 H2705 0.949 . S
H2682 C2686 0.949 . S
C2683 C2684 1.349 . S
C2683 C2685 1.327 . S
C2683 H2706 0.950 . S
C2684 C2683 1.349 . S
C2684 C2696 1.349 . S
C2685 C2683 1.327 . S
C2685 C2701 1.429 . S
C2685 H2707 0.950 . S
C2686 H2682 0.949 . S
C2686 C2694 1.574 . S
C2686 C2702 1.368 . S
H2687 C2695 0.950 . S
H2688 C2693 0.950 . S
H2689 C2694 0.949 . S
H2690 C2696 0.950 . S
H2691 C2697 0.950 . S
H2692 C2698 0.949 . S
C2693 H2688 0.950 . S
C2693 C2695 1.327 . S
C2693 C2699 1.429 . S
C2694 C2686 1.574 . S
C2694 H2689 0.949 . S
C2694 C2700 1.368 . S
C2695 C2679 1.349 . S
C2695 H2687 0.950 . S
C2695 C2693 1.327 . S
C2696 C2684 1.349 . S
C2696 H2690 0.950 . S
C2696 C2697 1.327 . S
C2697 H2691 0.950 . S
C2697 C2696 1.327 . S
C2697 C2701 1.429 . S
C2698 C2681 1.574 . S
C2698 H2692 0.949 . S
C2698 C2702 1.368 . S
C2699 C2680 1.429 . S
C2699 C2693 1.429 . S
C2699 C2700 1.523 . S
C2700 C2681 1.368 . S
C2700 C2694 1.368 . S
C2700 C2699 1.523 . S
C2701 C2685 1.429 . S
C2701 C2697 1.429 . S
C2701 C2702 1.523 . S
C2702 C2686 1.368 . S
C2702 C2698 1.368 . S
C2702 C2701 1.523 . S
H2703 C2678 0.950 . S
H2704 C2680 0.950 . S
H2705 C2681 0.949 . S
H2706 C2683 0.950 . S
H2707 C2685 0.950 . S
C2708 C2709 1.349 . S
C2708 C2710 1.327 . S
C2708 H2733 0.950 . S
C2709 C2708 1.349 . S
C2709 C2725 1.349 . S
C2710 C2708 1.327 . S
C2710 C2729 1.429 . S
C2710 H2734 0.950 . S
C2711 C2728 1.574 . S
C2711 C2730 1.368 . S
C2711 H2735 0.949 . S
H2712 C2716 0.949 . S
C2713 C2714 1.349 . S
C2713 C2715 1.327 . S
C2713 H2736 0.950 . S
C2714 C2713 1.349 . S
C2714 C2726 1.349 . S
C2715 C2713 1.327 . S
C2715 C2731 1.429 . S
C2715 H2737 0.950 . S
C2716 H2712 0.949 . S
C2716 C2724 1.574 . S
C2716 C2732 1.368 . S
H2717 C2725 0.950 . S
H2718 C2723 0.950 . S
H2719 C2724 0.949 . S
H2720 C2726 0.950 . S
H2721 C2727 0.950 . S
H2722 C2728 0.949 . S
C2723 H2718 0.950 . S
C2723 C2725 1.327 . S
C2723 C2729 1.429 . S
C2724 C2716 1.574 . S
C2724 H2719 0.949 . S
C2724 C2730 1.368 . S
C2725 C2709 1.349 . S
C2725 H2717 0.950 . S
C2725 C2723 1.327 . S
C2726 C2714 1.349 . S
C2726 H2720 0.950 . S
C2726 C2727 1.327 . S
C2727 H2721 0.950 . S
C2727 C2726 1.327 . S
C2727 C2731 1.429 . S
C2728 C2711 1.574 . S
C2728 H2722 0.949 . S
C2728 C2732 1.368 . S
C2729 C2710 1.429 . S
C2729 C2723 1.429 . S
C2729 C2730 1.523 . S
C2730 C2711 1.368 . S
C2730 C2724 1.368 . S
C2730 C2729 1.523 . S
C2731 C2715 1.429 . S
C2731 C2727 1.429 . S
C2731 C2732 1.523 . S
C2732 C2716 1.368 . S
C2732 C2728 1.368 . S
C2732 C2731 1.523 . S
H2733 C2708 0.950 . S
H2734 C2710 0.950 . S
H2735 C2711 0.949 . S
H2736 C2713 0.950 . S
H2737 C2715 0.950 . S
C2738 C2739 1.349 . S
C2738 C2740 1.327 . S
C2738 H2763 0.950 . S
C2739 C2738 1.349 . S
C2739 C2755 1.349 . S
C2740 C2738 1.327 . S
C2740 C2759 1.429 . S
C2740 H2764 0.950 . S
C2741 C2758 1.574 . S
C2741 C2760 1.368 . S
C2741 H2765 0.949 . S
H2742 C2746 0.949 . S
C2743 C2744 1.349 . S
C2743 C2745 1.327 . S
C2743 H2766 0.950 . S
C2744 C2743 1.349 . S
C2744 C2756 1.349 . S
C2745 C2743 1.327 . S
C2745 C2761 1.429 . S
C2745 H2767 0.950 . S
C2746 H2742 0.949 . S
C2746 C2754 1.574 . S
C2746 C2762 1.368 . S
H2747 C2755 0.950 . S
H2748 C2753 0.950 . S
H2749 C2754 0.949 . S
H2750 C2756 0.950 . S
H2751 C2757 0.950 . S
H2752 C2758 0.949 . S
C2753 H2748 0.950 . S
C2753 C2755 1.327 . S
C2753 C2759 1.429 . S
C2754 C2746 1.574 . S
C2754 H2749 0.949 . S
C2754 C2760 1.368 . S
C2755 C2739 1.349 . S
C2755 H2747 0.950 . S
C2755 C2753 1.327 . S
C2756 C2744 1.349 . S
C2756 H2750 0.950 . S
C2756 C2757 1.327 . S
C2757 H2751 0.950 . S
C2757 C2756 1.327 . S
C2757 C2761 1.429 . S
C2758 C2741 1.574 . S
C2758 H2752 0.949 . S
C2758 C2762 1.368 . S
C2759 C2740 1.429 . S
C2759 C2753 1.429 . S
C2759 C2760 1.523 . S
C2760 C2741 1.368 . S
C2760 C2754 1.368 . S
C2760 C2759 1.523 . S
C2761 C2745 1.429 . S
C2761 C2757 1.429 . S
C2761 C2762 1.523 . S
C2762 C2746 1.368 . S
C2762 C2758 1.368 . S
C2762 C2761 1.523 . S
H2763 C2738 0.950 . S
H2764 C2740 0.950 . S
H2765 C2741 0.949 . S
H2766 C2743 0.950 . S
H2767 C2745 0.950 . S
C2768 C2769 1.349 . S
C2768 C2770 1.327 . S
C2768 H2793 0.950 . S
C2769 C2768 1.349 . S
C2769 C2785 1.349 . S
C2770 C2768 1.327 . S
C2770 C2789 1.429 . S
C2770 H2794 0.950 . S
C2771 C2788 1.574 1_565 S
C2771 C2790 1.368 . S
C2771 H2795 0.949 . S
H2772 C2776 0.949 . S
C2773 C2774 1.349 . S
C2773 C2775 1.327 . S
C2773 H2796 0.950 . S
C2774 C2773 1.349 . S
C2774 C2786 1.349 . S
C2775 C2773 1.327 . S
C2775 C2791 1.429 . S
C2775 H2797 0.950 . S
C2776 H2772 0.949 . S
C2776 C2784 1.574 1_545 S
C2776 C2792 1.368 . S
H2777 C2785 0.950 . S
H2778 C2783 0.950 . S
H2779 C2784 0.949 . S
H2780 C2786 0.950 . S
H2781 C2787 0.950 . S
H2782 C2788 0.949 . S
C2783 H2778 0.950 . S
C2783 C2785 1.327 . S
C2783 C2789 1.429 . S
C2784 C2776 1.574 1_565 S
C2784 H2779 0.949 . S
C2784 C2790 1.368 . S
C2785 C2769 1.349 . S
C2785 H2777 0.950 . S
C2785 C2783 1.327 . S
C2786 C2774 1.349 . S
C2786 H2780 0.950 . S
C2786 C2787 1.327 . S
C2787 H2781 0.950 . S
C2787 C2786 1.327 . S
C2787 C2791 1.429 . S
C2788 C2771 1.574 1_545 S
C2788 H2782 0.949 . S
C2788 C2792 1.368 . S
C2789 C2770 1.429 . S
C2789 C2783 1.429 . S
C2789 C2790 1.523 . S
C2790 C2771 1.368 . S
C2790 C2784 1.368 . S
C2790 C2789 1.523 . S
C2791 C2775 1.429 . S
C2791 C2787 1.429 . S
C2791 C2792 1.523 . S
C2792 C2776 1.368 . S
C2792 C2788 1.368 . S
C2792 C2791 1.523 . S
H2793 C2768 0.950 . S
H2794 C2770 0.950 . S
H2795 C2771 0.949 . S
H2796 C2773 0.950 . S
H2797 C2775 0.950 . S
C2798 C2799 1.349 . S
C2798 C2800 1.327 . S
C2798 H2823 0.950 . S
C2799 C2798 1.349 . S
C2799 C2815 1.349 . S
C2800 C2798 1.327 . S
C2800 C2819 1.429 . S
C2800 H2824 0.950 . S
C2801 C2818 1.574 . S
C2801 C2820 1.368 . S
C2801 H2825 0.949 . S
H2802 C2806 0.949 . S
C2803 C2804 1.349 . S
C2803 C2805 1.327 . S
C2803 H2826 0.950 . S
C2804 C2803 1.349 . S
C2804 C2816 1.349 . S
C2805 C2803 1.327 . S
C2805 C2821 1.429 . S
C2805 H2827 0.950 . S
C2806 H2802 0.949 . S
C2806 C2814 1.574 . S
C2806 C2822 1.368 . S
H2807 C2815 0.950 . S
H2808 C2813 0.950 . S
H2809 C2814 0.949 . S
H2810 C2816 0.950 . S
H2811 C2817 0.950 . S
H2812 C2818 0.949 . S
C2813 H2808 0.950 . S
C2813 C2815 1.327 . S
C2813 C2819 1.429 . S
C2814 C2806 1.574 . S
C2814 H2809 0.949 . S
C2814 C2820 1.368 . S
C2815 C2799 1.349 . S
C2815 H2807 0.950 . S
C2815 C2813 1.327 . S
C2816 C2804 1.349 . S
C2816 H2810 0.950 . S
C2816 C2817 1.327 . S
C2817 H2811 0.950 . S
C2817 C2816 1.327 . S
C2817 C2821 1.429 . S
C2818 C2801 1.574 . S
C2818 H2812 0.949 . S
C2818 C2822 1.368 . S
C2819 C2800 1.429 . S
C2819 C2813 1.429 . S
C2819 C2820 1.523 . S
C2820 C2801 1.368 . S
C2820 C2814 1.368 . S
C2820 C2819 1.523 . S
C2821 C2805 1.429 . S
C2821 C2817 1.429 . S
C2821 C2822 1.523 . S
C2822 C2806 1.368 . S
C2822 C2818 1.368 . S
C2822 C2821 1.523 . S
H2823 C2798 0.950 . S
H2824 C2800 0.950 . S
H2825 C2801 0.949 . S
H2826 C2803 0.950 . S
H2827 C2805 0.950 . S
C2828 C2829 1.349 . S
C2828 C2830 1.327 . S
C2828 H2853 0.950 . S
C2829 C2828 1.349 . S
C2829 C2845 1.349 . S
C2830 C2828 1.327 . S
C2830 C2849 1.429 . S
C2830 H2854 0.950 . S
C2831 C2848 1.574 1_565 S
C2831 C2850 1.368 1_556 S
C2831 H2855 0.949 . S
H2832 C2836 0.949 . S
C2833 C2834 1.349 . S
C2833 C2835 1.327 . S
C2833 H2856 0.950 . S
C2834 C2833 1.349 . S
C2834 C2846 1.349 . S
C2835 C2833 1.327 . S
C2835 C2851 1.429 . S
C2835 H2857 0.950 . S
C2836 H2832 0.949 . S
C2836 C2844 1.574 1_545 S
C2836 C2852 1.368 1_554 S
H2837 C2845 0.950 . S
H2838 C2843 0.950 1_556 S
H2839 C2844 0.949 . S
H2840 C2846 0.950 . S
H2841 C2847 0.950 1_554 S
H2842 C2848 0.949 . S
C2843 H2838 0.950 1_554 S
C2843 C2845 1.327 . S
C2843 C2849 1.429 . S
C2844 C2836 1.574 1_565 S
C2844 H2839 0.949 . S
C2844 C2850 1.368 . S
C2845 C2829 1.349 . S
C2845 H2837 0.950 . S
C2845 C2843 1.327 . S
C2846 C2834 1.349 . S
C2846 H2840 0.950 . S
C2846 C2847 1.327 . S
C2847 H2841 0.950 1_556 S
C2847 C2846 1.327 . S
C2847 C2851 1.429 . S
C2848 C2831 1.574 1_545 S
C2848 H2842 0.949 . S
C2848 C2852 1.368 . S
C2849 C2830 1.429 . S
C2849 C2843 1.429 . S
C2849 C2850 1.523 . S
C2850 C2831 1.368 1_554 S
C2850 C2844 1.368 . S
C2850 C2849 1.523 . S
C2851 C2835 1.429 . S
C2851 C2847 1.429 . S
C2851 C2852 1.523 . S
C2852 C2836 1.368 1_556 S
C2852 C2848 1.368 . S
C2852 C2851 1.523 . S
H2853 C2828 0.950 . S
H2854 C2830 0.950 . S
H2855 C2831 0.949 . S
H2856 C2833 0.950 . S
H2857 C2835 0.950 . S
C2858 C2859 1.349 . S
C2858 C2860 1.327 . S
C2858 H2883 0.950 . S
C2859 C2858 1.349 . S
C2859 C2875 1.349 . S
C2860 C2858 1.327 . S
C2860 C2879 1.429 . S
C2860 H2884 0.950 . S
C2861 C2878 1.574 . S
C2861 C2880 1.368 . S
C2861 H2885 0.949 . S
H2862 C2866 0.949 . S
C2863 C2864 1.349 . S
C2863 C2865 1.327 . S
C2863 H2886 0.950 . S
C2864 C2863 1.349 . S
C2864 C2876 1.349 . S
C2865 C2863 1.327 . S
C2865 C2881 1.429 . S
C2865 H2887 0.950 . S
C2866 H2862 0.949 . S
C2866 C2874 1.574 . S
C2866 C2882 1.368 . S
H2867 C2875 0.950 . S
H2868 C2873 0.950 . S
H2869 C2874 0.949 . S
H2870 C2876 0.950 . S
H2871 C2877 0.950 . S
H2872 C2878 0.949 . S
C2873 H2868 0.950 . S
C2873 C2875 1.327 . S
C2873 C2879 1.429 . S
C2874 C2866 1.574 . S
C2874 H2869 0.949 . S
C2874 C2880 1.368 . S
C2875 C2859 1.349 . S
C2875 H2867 0.950 . S
C2875 C2873 1.327 . S
C2876 C2864 1.349 . S
C2876 H2870 0.950 . S
C2876 C2877 1.327 . S
C2877 H2871 0.950 . S
C2877 C2876 1.327 . S
C2877 C2881 1.429 . S
C2878 C2861 1.574 . S
C2878 H2872 0.949 . S
C2878 C2882 1.368 . S
C2879 C2860 1.429 . S
C2879 C2873 1.429 . S
C2879 C2880 1.523 . S
C2880 C2861 1.368 . S
C2880 C2874 1.368 . S
C2880 C2879 1.523 . S
C2881 C2865 1.429 . S
C2881 C2877 1.429 . S
C2881 C2882 1.523 . S
C2882 C2866 1.368 . S
C2882 C2878 1.368 . S
C2882 C2881 1.523 . S
H2883 C2858 0.950 . S
H2884 C2860 0.950 . S
H2885 C2861 0.949 . S
H2886 C2863 0.950 . S
H2887 C2865 0.950 . S
C2888 C2889 1.349 . S
C2888 C2890 1.327 . S
C2888 H2913 0.950 . S
C2889 C2888 1.349 . S
C2889 C2905 1.349 . S
C2890 C2888 1.327 . S
C2890 C2909 1.429 . S
C2890 H2914 0.950 . S
C2891 C2908 1.574 1_545 S
C2891 C2910 1.368 . S
C2891 H2915 0.949 . S
H2892 C2896 0.949 . S
C2893 C2894 1.349 . S
C2893 C2895 1.327 . S
C2893 H2916 0.950 . S
C2894 C2893 1.349 . S
C2894 C2906 1.349 . S
C2895 C2893 1.327 . S
C2895 C2911 1.429 . S
C2895 H2917 0.950 . S
C2896 H2892 0.949 . S
C2896 C2904 1.574 1_565 S
C2896 C2912 1.368 . S
H2897 C2905 0.950 . S
H2898 C2903 0.950 . S
H2899 C2904 0.949 . S
H2900 C2906 0.950 . S
H2901 C2907 0.950 . S
H2902 C2908 0.949 . S
C2903 H2898 0.950 . S
C2903 C2905 1.327 . S
C2903 C2909 1.429 . S
C2904 C2896 1.574 1_545 S
C2904 H2899 0.949 . S
C2904 C2910 1.368 . S
C2905 C2889 1.349 . S
C2905 H2897 0.950 . S
C2905 C2903 1.327 . S
C2906 C2894 1.349 . S
C2906 H2900 0.950 . S
C2906 C2907 1.327 . S
C2907 H2901 0.950 . S
C2907 C2906 1.327 . S
C2907 C2911 1.429 . S
C2908 C2891 1.574 1_565 S
C2908 H2902 0.949 . S
C2908 C2912 1.368 . S
C2909 C2890 1.429 . S
C2909 C2903 1.429 . S
C2909 C2910 1.523 . S
C2910 C2891 1.368 . S
C2910 C2904 1.368 . S
C2910 C2909 1.523 . S
C2911 C2895 1.429 . S
C2911 C2907 1.429 . S
C2911 C2912 1.523 . S
C2912 C2896 1.368 . S
C2912 C2908 1.368 . S
C2912 C2911 1.523 . S
H2913 C2888 0.950 . S
H2914 C2890 0.950 . S
H2915 C2891 0.949 . S
H2916 C2893 0.950 . S
H2917 C2895 0.950 . S
C2918 C2919 1.349 . S
C2918 C2920 1.327 . S
C2918 H2943 0.950 . S
C2919 C2918 1.349 . S
C2919 C2935 1.349 . S
C2920 C2918 1.327 . S
C2920 C2939 1.429 . S
C2920 H2944 0.950 . S
C2921 C2938 1.574 . S
C2921 C2940 1.368 . S
C2921 H2945 0.949 . S
H2922 C2926 0.949 . S
C2923 C2924 1.349 . S
C2923 C2925 1.327 . S
C2923 H2946 0.950 . S
C2924 C2923 1.349 . S
C2924 C2936 1.349 . S
C2925 C2923 1.327 . S
C2925 C2941 1.429 . S
C2925 H2947 0.950 . S
C2926 H2922 0.949 . S
C2926 C2934 1.574 . S
C2926 C2942 1.368 . S
H2927 C2935 0.950 . S
H2928 C2933 0.950 . S
H2929 C2934 0.949 . S
H2930 C2936 0.950 . S
H2931 C2937 0.950 . S
H2932 C2938 0.949 . S
C2933 H2928 0.950 . S
C2933 C2935 1.327 . S
C2933 C2939 1.429 . S
C2934 C2926 1.574 . S
C2934 H2929 0.949 . S
C2934 C2940 1.368 . S
C2935 C2919 1.349 . S
C2935 H2927 0.950 . S
C2935 C2933 1.327 . S
C2936 C2924 1.349 . S
C2936 H2930 0.950 . S
C2936 C2937 1.327 . S
C2937 H2931 0.950 . S
C2937 C2936 1.327 . S
C2937 C2941 1.429 . S
C2938 C2921 1.574 . S
C2938 H2932 0.949 . S
C2938 C2942 1.368 . S
C2939 C2920 1.429 . S
C2939 C2933 1.429 . S
C2939 C2940 1.523 . S
C2940 C2921 1.368 . S
C2940 C2934 1.368 . S
C2940 C2939 1.523 . S
C2941 C2925 1.429 . S
C2941 C2937 1.429 . S
C2941 C2942 1.523 . S
C2942 C2926 1.368 . S
C2942 C2938 1.368 . S
C2942 C2941 1.523 . S
H2943 C2918 0.950 . S
H2944 C2920 0.950 . S
H2945 C2921 0.949 . S
H2946 C2923 0.950 . S
H2947 C2925 0.950 . S
C2948 C2949 1.349 . S
C2948 C2950 1.327 . S
C2948 H2973 0.950 . S
C2949 C2948 1.349 . S
C2949 C2965 1.349 . S
C2950 C2948 1.327 . S
C2950 C2969 1.429 . S
C2950 H2974 0.950 . S
C2951 C2968 1.574 1_565 S
C2951 C2970 1.368 1_556 S
C2951 H2975 0.949 . S
H2952 C2956 0.949 . S
C2953 C2954 1.349 . S
C2953 C2955 1.327 . S
C2953 H2976 0.950 . S
C2954 C2953 1.349 . S
C2954 C2966 1.349 . S
C2955 C2953 1.327 . S
C2955 C2971 1.429 . S
C2955 H2977 0.950 . S
C2956 H2952 0.949 . S
C2956 C2964 1.574 1_545 S
C2956 C2972 1.368 1_554 S
H2957 C2965 0.956 . S
H2958 C2963 0.950 1_556 S
H2959 C2964 0.949 . S
H2960 C2966 0.956 . S
H2961 C2967 0.950 1_554 S
H2962 C2968 0.949 . S
C2963 H2958 0.950 1_554 S
C2963 C2965 1.327 . S
C2963 C2969 1.429 . S
C2964 C2956 1.574 1_565 S
C2964 H2959 0.949 . S
C2964 C2970 1.368 . S
C2965 C2949 1.349 . S
C2965 H2957 0.956 . S
C2965 C2963 1.327 . S
C2966 C2954 1.349 . S
C2966 H2960 0.956 . S
C2966 C2967 1.327 . S
C2967 H2961 0.950 1_556 S
C2967 C2966 1.327 . S
C2967 C2971 1.429 . S
C2968 C2951 1.574 1_545 S
C2968 H2962 0.949 . S
C2968 C2972 1.368 . S
C2969 C2950 1.429 . S
C2969 C2963 1.429 . S
C2969 C2970 1.523 . S
C2970 C2951 1.368 1_554 S
C2970 C2964 1.368 . S
C2970 C2969 1.523 . S
C2971 C2955 1.429 . S
C2971 C2967 1.429 . S
C2971 C2972 1.523 . S
C2972 C2956 1.368 1_556 S
C2972 C2968 1.368 . S
C2972 C2971 1.523 . S
H2973 C2948 0.950 . S
H2974 C2950 0.950 . S
H2975 C2951 0.949 . S
H2976 C2953 0.950 . S
H2977 C2955 0.950 . S
C2978 C2979 1.349 . S
C2978 C2980 1.327 . S
C2978 H3003 0.950 . S
C2979 C2978 1.349 . S
C2979 C2995 1.349 . S
C2980 C2978 1.327 . S
C2980 C2999 1.429 . S
C2980 H3004 0.950 . S
C2981 C2998 1.574 . S
C2981 C3000 1.368 . S
C2981 H3005 0.949 . S
H2982 C2986 0.949 . S
C2983 C2984 1.349 . S
C2983 C2985 1.327 . S
C2983 H3006 0.950 . S
C2984 C2983 1.349 . S
C2984 C2996 1.349 . S
C2985 C2983 1.327 . S
C2985 C3001 1.429 . S
C2985 H3007 0.950 . S
C2986 H2982 0.949 . S
C2986 C2994 1.574 . S
C2986 C3002 1.368 . S
H2987 C2995 0.950 . S
H2988 C2993 0.950 . S
H2989 C2994 0.949 . S
H2990 C2996 0.950 . S
H2991 C2997 0.950 . S
H2992 C2998 0.949 . S
C2993 H2988 0.950 . S
C2993 C2995 1.327 . S
C2993 C2999 1.429 . S
C2994 C2986 1.574 . S
C2994 H2989 0.949 . S
C2994 C3000 1.368 . S
C2995 C2979 1.349 . S
C2995 H2987 0.950 . S
C2995 C2993 1.327 . S
C2996 C2984 1.349 . S
C2996 H2990 0.950 . S
C2996 C2997 1.327 . S
C2997 H2991 0.950 . S
C2997 C2996 1.327 . S
C2997 C3001 1.429 . S
C2998 C2981 1.574 . S
C2998 H2992 0.949 . S
C2998 C3002 1.368 . S
C2999 C2980 1.429 . S
C2999 C2993 1.429 . S
C2999 C3000 1.523 . S
C3000 C2981 1.368 . S
C3000 C2994 1.368 . S
C3000 C2999 1.523 . S
C3001 C2985 1.429 . S
C3001 C2997 1.429 . S
C3001 C3002 1.523 . S
C3002 C2986 1.368 . S
C3002 C2998 1.368 . S
C3002 C3001 1.523 . S
H3003 C2978 0.950 . S
H3004 C2980 0.950 . S
H3005 C2981 0.949 . S
H3006 C2983 0.950 . S
H3007 C2985 0.950 . S
C3008 C3009 1.349 . S
C3008 C3010 1.327 . S
C3008 H3033 0.950 . S
C3009 C3008 1.349 . S
C3009 C3025 1.349 . S
C3010 C3008 1.327 . S
C3010 C3029 1.429 . S
C3010 H3034 0.950 . S
C3011 C3028 1.574 1_455 S
C3011 C3030 1.368 . S
C3011 H3035 0.949 . S
H3012 C3016 0.949 . S
C3013 C3014 1.349 . S
C3013 C3015 1.327 . S
C3013 H3036 0.950 . S
C3014 C3013 1.349 . S
C3014 C3026 1.349 . S
C3015 C3013 1.327 . S
C3015 C3031 1.429 . S
C3015 H3037 0.950 . S
C3016 H3012 0.949 . S
C3016 C3024 1.574 1_655 S
C3016 C3032 1.368 . S
H3017 C3025 0.950 . S
H3018 C3023 0.950 . S
H3019 C3024 0.949 . S
H3020 C3026 0.950 . S
H3021 C3027 0.950 . S
H3022 C3028 0.949 . S
C3023 H3018 0.950 . S
C3023 C3025 1.327 . S
C3023 C3029 1.429 . S
C3024 C3016 1.574 1_455 S
C3024 H3019 0.949 . S
C3024 C3030 1.368 . S
C3025 C3009 1.349 . S
C3025 H3017 0.950 . S
C3025 C3023 1.327 . S
C3026 C3014 1.349 . S
C3026 H3020 0.950 . S
C3026 C3027 1.327 . S
C3027 H3021 0.950 . S
C3027 C3026 1.327 . S
C3027 C3031 1.429 . S
C3028 C3011 1.574 1_655 S
C3028 H3022 0.949 . S
C3028 C3032 1.368 . S
C3029 C3010 1.429 . S
C3029 C3023 1.429 . S
C3029 C3030 1.523 . S
C3030 C3011 1.368 . S
C3030 C3024 1.368 . S
C3030 C3029 1.523 . S
C3031 C3015 1.429 . S
C3031 C3027 1.429 . S
C3031 C3032 1.523 . S
C3032 C3016 1.368 . S
C3032 C3028 1.368 . S
C3032 C3031 1.523 . S
H3033 C3008 0.950 . S
H3034 C3010 0.950 . S
H3035 C3011 0.949 . S
H3036 C3013 0.950 . S
H3037 C3015 0.950 . S
C3038 C3039 1.349 . S
C3038 C3040 1.327 . S
C3038 H3063 0.950 . S
C3039 C3038 1.349 . S
C3039 C3055 1.349 . S
C3040 C3038 1.327 . S
C3040 C3059 1.429 . S
C3040 H3064 0.950 . S
C3041 C3058 1.574 . S
C3041 C3060 1.368 . S
C3041 H3065 0.949 . S
H3042 C3046 0.949 . S
C3043 C3044 1.349 . S
C3043 C3045 1.327 . S
C3043 H3066 0.950 . S
C3044 C3043 1.349 . S
C3044 C3056 1.349 . S
C3045 C3043 1.327 . S
C3045 C3061 1.429 . S
C3045 H3067 0.950 . S
C3046 H3042 0.949 . S
C3046 C3054 1.574 . S
C3046 C3062 1.368 . S
H3047 C3055 0.950 . S
H3048 C3053 0.950 . S
H3049 C3054 0.949 . S
H3050 C3056 0.950 . S
H3051 C3057 0.950 . S
H3052 C3058 0.949 . S
C3053 H3048 0.950 . S
C3053 C3055 1.327 . S
C3053 C3059 1.429 . S
C3054 C3046 1.574 . S
C3054 H3049 0.949 . S
C3054 C3060 1.368 . S
C3055 C3039 1.349 . S
C3055 H3047 0.950 . S
C3055 C3053 1.327 . S
C3056 C3044 1.349 . S
C3056 H3050 0.950 . S
C3056 C3057 1.327 . S
C3057 H3051 0.950 . S
C3057 C3056 1.327 . S
C3057 C3061 1.429 . S
C3058 C3041 1.574 . S
C3058 H3052 0.949 . S
C3058 C3062 1.368 . S
C3059 C3040 1.429 . S
C3059 C3053 1.429 . S
C3059 C3060 1.523 . S
C3060 C3041 1.368 . S
C3060 C3054 1.368 . S
C3060 C3059 1.523 . S
C3061 C3045 1.429 . S
C3061 C3057 1.429 . S
C3061 C3062 1.523 . S
C3062 C3046 1.368 . S
C3062 C3058 1.368 . S
C3062 C3061 1.523 . S
H3063 C3038 0.950 . S
H3064 C3040 0.950 . S
H3065 C3041 0.949 . S
H3066 C3043 0.950 . S
H3067 C3045 0.950 . S
C3068 C3069 1.349 . S
C3068 C3070 1.327 . S
C3068 H3093 0.950 . S
C3069 C3068 1.349 . S
C3069 C3085 1.349 . S
C3070 C3068 1.327 . S
C3070 C3089 1.429 . S
C3070 H3094 0.950 . S
C3071 C3088 1.574 . S
C3071 C3090 1.368 . S
C3071 H3095 0.949 . S
H3072 C3076 0.949 . S
C3073 C3074 1.349 . S
C3073 C3075 1.327 . S
C3073 H3096 0.950 . S
C3074 C3073 1.349 . S
C3074 C3086 1.349 . S
C3075 C3073 1.327 . S
C3075 C3091 1.429 . S
C3075 H3097 0.950 . S
C3076 H3072 0.949 . S
C3076 C3084 1.574 . S
C3076 C3092 1.368 . S
H3077 C3085 0.950 . S
H3078 C3083 0.950 . S
H3079 C3084 0.949 . S
H3080 C3086 0.950 . S
H3081 C3087 0.950 . S
H3082 C3088 0.949 . S
C3083 H3078 0.950 . S
C3083 C3085 1.327 . S
C3083 C3089 1.429 . S
C3084 C3076 1.574 . S
C3084 H3079 0.949 . S
C3084 C3090 1.368 . S
C3085 C3069 1.349 . S
C3085 H3077 0.950 . S
C3085 C3083 1.327 . S
C3086 C3074 1.349 . S
C3086 H3080 0.950 . S
C3086 C3087 1.327 . S
C3087 H3081 0.950 . S
C3087 C3086 1.327 . S
C3087 C3091 1.429 . S
C3088 C3071 1.574 . S
C3088 H3082 0.949 . S
C3088 C3092 1.368 . S
C3089 C3070 1.429 . S
C3089 C3083 1.429 . S
C3089 C3090 1.523 . S
C3090 C3071 1.368 . S
C3090 C3084 1.368 . S
C3090 C3089 1.523 . S
C3091 C3075 1.429 . S
C3091 C3087 1.429 . S
C3091 C3092 1.523 . S
C3092 C3076 1.368 . S
C3092 C3088 1.368 . S
C3092 C3091 1.523 . S
H3093 C3068 0.950 . S
H3094 C3070 0.950 . S
H3095 C3071 0.949 . S
H3096 C3073 0.950 . S
H3097 C3075 0.950 . S
C3098 C3099 1.349 . S
C3098 C3100 1.327 . S
C3098 H3123 0.950 . S
C3099 C3098 1.349 . S
C3099 C3115 1.349 . S
C3100 C3098 1.327 . S
C3100 C3119 1.429 . S
C3100 H3124 0.950 . S
C3101 C3118 1.574 . S
C3101 C3120 1.368 . S
C3101 H3125 0.949 . S
H3102 C3106 0.949 . S
C3103 C3104 1.349 . S
C3103 C3105 1.327 . S
C3103 H3126 0.950 . S
C3104 C3103 1.349 . S
C3104 C3116 1.349 . S
C3105 C3103 1.327 . S
C3105 C3121 1.429 . S
C3105 H3127 0.950 . S
C3106 H3102 0.949 . S
C3106 C3114 1.574 . S
C3106 C3122 1.368 . S
H3107 C3115 0.950 . S
H3108 C3113 0.950 . S
H3109 C3114 0.949 . S
H3110 C3116 0.950 . S
H3111 C3117 0.950 . S
H3112 C3118 0.949 . S
C3113 H3108 0.950 . S
C3113 C3115 1.327 . S
C3113 C3119 1.429 . S
C3114 C3106 1.574 . S
C3114 H3109 0.949 . S
C3114 C3120 1.368 . S
C3115 C3099 1.349 . S
C3115 H3107 0.950 . S
C3115 C3113 1.327 . S
C3116 C3104 1.349 . S
C3116 H3110 0.950 . S
C3116 C3117 1.327 . S
C3117 H3111 0.950 . S
C3117 C3116 1.327 . S
C3117 C3121 1.429 . S
C3118 C3101 1.574 . S
C3118 H3112 0.949 . S
C3118 C3122 1.368 . S
C3119 C3100 1.429 . S
C3119 C3113 1.429 . S
C3119 C3120 1.523 . S
C3120 C3101 1.368 . S
C3120 C3114 1.368 . S
C3120 C3119 1.523 . S
C3121 C3105 1.429 . S
C3121 C3117 1.429 . S
C3121 C3122 1.523 . S
C3122 C3106 1.368 . S
C3122 C3118 1.368 . S
C3122 C3121 1.523 . S
H3123 C3098 0.950 . S
H3124 C3100 0.950 . S
H3125 C3101 0.949 . S
H3126 C3103 0.950 . S
H3127 C3105 0.950 . S
C3128 C3129 1.349 . S
C3128 C3130 1.327 . S
C3128 H3153 0.950 . S
C3129 C3128 1.349 . S
C3129 C3145 1.349 . S
C3130 C3128 1.327 . S
C3130 C3149 1.429 . S
C3130 H3154 0.950 . S
C3131 C3148 1.574 1_655 S
C3131 C3150 1.368 . S
C3131 H3155 0.949 . S
H3132 C3136 0.949 . S
C3133 C3134 1.349 . S
C3133 C3135 1.327 . S
C3133 H3156 0.950 . S
C3134 C3133 1.349 . S
C3134 C3146 1.349 . S
C3135 C3133 1.327 . S
C3135 C3151 1.429 . S
C3135 H3157 0.950 . S
C3136 H3132 0.949 . S
C3136 C3144 1.574 1_455 S
C3136 C3152 1.368 . S
H3137 C3145 0.950 . S
H3138 C3143 0.950 . S
H3139 C3144 0.949 . S
H3140 C3146 0.950 . S
H3141 C3147 0.950 . S
H3142 C3148 0.949 . S
C3143 H3138 0.950 . S
C3143 C3145 1.327 . S
C3143 C3149 1.429 . S
C3144 C3136 1.574 1_655 S
C3144 H3139 0.949 . S
C3144 C3150 1.368 . S
C3145 C3129 1.349 . S
C3145 H3137 0.950 . S
C3145 C3143 1.327 . S
C3146 C3134 1.349 . S
C3146 H3140 0.950 . S
C3146 C3147 1.327 . S
C3147 H3141 0.950 . S
C3147 C3146 1.327 . S
C3147 C3151 1.429 . S
C3148 C3131 1.574 1_455 S
C3148 H3142 0.949 . S
C3148 C3152 1.368 . S
C3149 C3130 1.429 . S
C3149 C3143 1.429 . S
C3149 C3150 1.523 . S
C3150 C3131 1.368 . S
C3150 C3144 1.368 . S
C3150 C3149 1.523 . S
C3151 C3135 1.429 . S
C3151 C3147 1.429 . S
C3151 C3152 1.523 . S
C3152 C3136 1.368 . S
C3152 C3148 1.368 . S
C3152 C3151 1.523 . S
H3153 C3128 0.950 . S
H3154 C3130 0.950 . S
H3155 C3131 0.949 . S
H3156 C3133 0.950 . S
H3157 C3135 0.950 . S
C3158 C3159 1.349 . S
C3158 C3160 1.327 . S
C3158 H3183 0.950 . S
C3159 C3158 1.349 . S
C3159 C3175 1.349 . S
C3160 C3158 1.327 . S
C3160 C3179 1.429 . S
C3160 H3184 0.950 . S
C3161 C3178 1.574 . S
C3161 C3180 1.368 . S
C3161 H3185 0.949 . S
H3162 C3166 0.949 . S
C3163 C3164 1.349 . S
C3163 C3165 1.327 . S
C3163 H3186 0.950 . S
C3164 C3163 1.349 . S
C3164 C3176 1.349 . S
C3165 C3163 1.327 . S
C3165 C3181 1.429 . S
C3165 H3187 0.950 . S
C3166 H3162 0.949 . S
C3166 C3174 1.574 . S
C3166 C3182 1.368 . S
H3167 C3175 0.950 . S
H3168 C3173 0.950 . S
H3169 C3174 0.949 . S
H3170 C3176 0.950 . S
H3171 C3177 0.950 . S
H3172 C3178 0.949 . S
C3173 H3168 0.950 . S
C3173 C3175 1.327 . S
C3173 C3179 1.429 . S
C3174 C3166 1.574 . S
C3174 H3169 0.949 . S
C3174 C3180 1.368 . S
C3175 C3159 1.349 . S
C3175 H3167 0.950 . S
C3175 C3173 1.327 . S
C3176 C3164 1.349 . S
C3176 H3170 0.950 . S
C3176 C3177 1.327 . S
C3177 H3171 0.950 . S
C3177 C3176 1.327 . S
C3177 C3181 1.429 . S
C3178 C3161 1.574 . S
C3178 H3172 0.949 . S
C3178 C3182 1.368 . S
C3179 C3160 1.429 . S
C3179 C3173 1.429 . S
C3179 C3180 1.523 . S
C3180 C3161 1.368 . S
C3180 C3174 1.368 . S
C3180 C3179 1.523 . S
C3181 C3165 1.429 . S
C3181 C3177 1.429 . S
C3181 C3182 1.523 . S
C3182 C3166 1.368 . S
C3182 C3178 1.368 . S
C3182 C3181 1.523 . S
H3183 C3158 0.950 . S
H3184 C3160 0.950 . S
H3185 C3161 0.949 . S
H3186 C3163 0.950 . S
H3187 C3165 0.950 . S
C3188 C3189 1.349 . S
C3188 C3190 1.327 . S
C3188 H3213 0.950 . S
C3189 C3188 1.349 . S
C3189 C3205 1.349 . S
C3190 C3188 1.327 . S
C3190 C3209 1.429 . S
C3190 H3214 0.950 . S
C3191 C3208 1.574 . S
C3191 C3210 1.368 . S
C3191 H3215 0.949 . S
H3192 C3196 0.949 . S
C3193 C3194 1.349 . S
C3193 C3195 1.327 . S
C3193 H3216 0.950 . S
C3194 C3193 1.349 . S
C3194 C3206 1.349 . S
C3195 C3193 1.327 . S
C3195 C3211 1.429 . S
C3195 H3217 0.950 . S
C3196 H3192 0.949 . S
C3196 C3204 1.574 . S
C3196 C3212 1.368 . S
H3197 C3205 0.950 . S
H3198 C3203 0.950 . S
H3199 C3204 0.949 . S
H3200 C3206 0.950 . S
H3201 C3207 0.950 . S
H3202 C3208 0.949 . S
C3203 H3198 0.950 . S
C3203 C3205 1.327 . S
C3203 C3209 1.429 . S
C3204 C3196 1.574 . S
C3204 H3199 0.949 . S
C3204 C3210 1.368 . S
C3205 C3189 1.349 . S
C3205 H3197 0.950 . S
C3205 C3203 1.327 . S
C3206 C3194 1.349 . S
C3206 H3200 0.950 . S
C3206 C3207 1.327 . S
C3207 H3201 0.950 . S
C3207 C3206 1.327 . S
C3207 C3211 1.429 . S
C3208 C3191 1.574 . S
C3208 H3202 0.949 . S
C3208 C3212 1.368 . S
C3209 C3190 1.429 . S
C3209 C3203 1.429 . S
C3209 C3210 1.523 . S
C3210 C3191 1.368 . S
C3210 C3204 1.368 . S
C3210 C3209 1.523 . S
C3211 C3195 1.429 . S
C3211 C3207 1.429 . S
C3211 C3212 1.523 . S
C3212 C3196 1.368 . S
C3212 C3208 1.368 . S
C3212 C3211 1.523 . S
H3213 C3188 0.950 . S
H3214 C3190 0.950 . S
H3215 C3191 0.949 . S
H3216 C3193 0.950 . S
H3217 C3195 0.950 . S
C3218 C3219 1.349 . S
C3218 C3220 1.327 . S
C3218 H3243 0.950 . S
C3219 C3218 1.349 . S
C3219 C3235 1.349 . S
C3220 C3218 1.327 . S
C3220 C3239 1.429 . S
C3220 H3244 0.950 . S
C3221 C3238 1.574 . S
C3221 C3240 1.368 . S
C3221 H3245 0.949 . S
H3222 C3226 0.949 . S
C3223 C3224 1.349 . S
C3223 C3225 1.327 . S
C3223 H3246 0.950 . S
C3224 C3223 1.349 . S
C3224 C3236 1.349 . S
C3225 C3223 1.327 . S
C3225 C3241 1.429 . S
C3225 H3247 0.950 . S
C3226 H3222 0.949 . S
C3226 C3234 1.574 . S
C3226 C3242 1.368 . S
H3227 C3235 0.950 . S
H3228 C3233 0.950 . S
H3229 C3234 0.949 . S
H3230 C3236 0.950 . S
H3231 C3237 0.950 . S
H3232 C3238 0.949 . S
C3233 H3228 0.950 . S
C3233 C3235 1.327 . S
C3233 C3239 1.429 . S
C3234 C3226 1.574 . S
C3234 H3229 0.949 . S
C3234 C3240 1.368 . S
C3235 C3219 1.349 . S
C3235 H3227 0.950 . S
C3235 C3233 1.327 . S
C3236 C3224 1.349 . S
C3236 H3230 0.950 . S
C3236 C3237 1.327 . S
C3237 H3231 0.950 . S
C3237 C3236 1.327 . S
C3237 C3241 1.429 . S
C3238 C3221 1.574 . S
C3238 H3232 0.949 . S
C3238 C3242 1.368 . S
C3239 C3220 1.429 . S
C3239 C3233 1.429 . S
C3239 C3240 1.523 . S
C3240 C3221 1.368 . S
C3240 C3234 1.368 . S
C3240 C3239 1.523 . S
C3241 C3225 1.429 . S
C3241 C3237 1.429 . S
C3241 C3242 1.523 . S
C3242 C3226 1.368 . S
C3242 C3238 1.368 . S
C3242 C3241 1.523 . S
H3243 C3218 0.950 . S
H3244 C3220 0.950 . S
H3245 C3221 0.949 . S
H3246 C3223 0.950 . S
H3247 C3225 0.950 . S
C3248 C3249 1.349 . S
C3248 C3250 1.327 . S
C3248 H3273 0.950 . S
C3249 C3248 1.349 . S
C3249 C3265 1.349 . S
C3250 C3248 1.327 . S
C3250 C3269 1.429 . S
C3250 H3274 0.950 . S
C3251 C3268 1.574 . S
C3251 C3270 1.368 . S
C3251 H3275 0.949 . S
H3252 C3256 0.949 . S
C3253 C3254 1.349 . S
C3253 C3255 1.327 . S
C3253 H3276 0.950 . S
C3254 C3253 1.349 . S
C3254 C3266 1.349 . S
C3255 C3253 1.327 . S
C3255 C3271 1.429 . S
C3255 H3277 0.950 . S
C3256 H3252 0.949 . S
C3256 C3264 1.574 . S
C3256 C3272 1.368 . S
H3257 C3265 0.950 . S
H3258 C3263 0.950 . S
H3259 C3264 0.949 . S
H3260 C3266 0.950 . S
H3261 C3267 0.950 . S
H3262 C3268 0.949 . S
C3263 H3258 0.950 . S
C3263 C3265 1.327 . S
C3263 C3269 1.429 . S
C3264 C3256 1.574 . S
C3264 H3259 0.949 . S
C3264 C3270 1.368 . S
C3265 C3249 1.349 . S
C3265 H3257 0.950 . S
C3265 C3263 1.327 . S
C3266 C3254 1.349 . S
C3266 H3260 0.950 . S
C3266 C3267 1.327 . S
C3267 H3261 0.950 . S
C3267 C3266 1.327 . S
C3267 C3271 1.429 . S
C3268 C3251 1.574 . S
C3268 H3262 0.949 . S
C3268 C3272 1.368 . S
C3269 C3250 1.429 . S
C3269 C3263 1.429 . S
C3269 C3270 1.523 . S
C3270 C3251 1.368 . S
C3270 C3264 1.368 . S
C3270 C3269 1.523 . S
C3271 C3255 1.429 . S
C3271 C3267 1.429 . S
C3271 C3272 1.523 . S
C3272 C3256 1.368 . S
C3272 C3268 1.368 . S
C3272 C3271 1.523 . S
H3273 C3248 0.950 . S
H3274 C3250 0.950 . S
H3275 C3251 0.949 . S
H3276 C3253 0.950 . S
H3277 C3255 0.950 . S
C3278 C3279 1.349 . S
C3278 C3280 1.327 . S
C3278 H3303 0.950 . S
C3279 C3278 1.349 . S
C3279 C3295 1.349 . S
C3280 C3278 1.327 . S
C3280 C3299 1.429 . S
C3280 H3304 0.950 . S
C3281 C3298 1.574 . S
C3281 C3300 1.368 . S
C3281 H3305 0.949 . S
H3282 C3286 0.949 . S
C3283 C3284 1.349 . S
C3283 C3285 1.327 . S
C3283 H3306 0.950 . S
C3284 C3283 1.349 . S
C3284 C3296 1.349 . S
C3285 C3283 1.327 . S
C3285 C3301 1.429 . S
C3285 H3307 0.950 . S
C3286 H3282 0.949 . S
C3286 C3294 1.574 . S
C3286 C3302 1.368 . S
H3287 C3295 0.950 . S
H3288 C3293 0.950 . S
H3289 C3294 0.949 . S
H3290 C3296 0.950 . S
H3291 C3297 0.950 . S
H3292 C3298 0.949 . S
C3293 H3288 0.950 . S
C3293 C3295 1.327 . S
C3293 C3299 1.429 . S
C3294 C3286 1.574 . S
C3294 H3289 0.949 . S
C3294 C3300 1.368 . S
C3295 C3279 1.349 . S
C3295 H3287 0.950 . S
C3295 C3293 1.327 . S
C3296 C3284 1.349 . S
C3296 H3290 0.950 . S
C3296 C3297 1.327 . S
C3297 H3291 0.950 . S
C3297 C3296 1.327 . S
C3297 C3301 1.429 . S
C3298 C3281 1.574 . S
C3298 H3292 0.949 . S
C3298 C3302 1.368 . S
C3299 C3280 1.429 . S
C3299 C3293 1.429 . S
C3299 C3300 1.523 . S
C3300 C3281 1.368 . S
C3300 C3294 1.368 . S
C3300 C3299 1.523 . S
C3301 C3285 1.429 . S
C3301 C3297 1.429 . S
C3301 C3302 1.523 . S
C3302 C3286 1.368 . S
C3302 C3298 1.368 . S
C3302 C3301 1.523 . S
H3303 C3278 0.950 . S
H3304 C3280 0.950 . S
H3305 C3281 0.949 . S
H3306 C3283 0.950 . S
H3307 C3285 0.950 . S
C3308 C3309 1.349 . S
C3308 C3310 1.327 . S
C3308 H3333 0.950 . S
C3309 C3308 1.349 . S
C3309 C3325 1.349 . S
C3310 C3308 1.327 . S
C3310 C3329 1.429 . S
C3310 H3334 0.950 . S
C3311 C3328 1.574 . S
C3311 C3330 1.368 . S
C3311 H3335 0.949 . S
H3312 C3316 0.949 . S
C3313 C3314 1.349 . S
C3313 C3315 1.327 . S
C3313 H3336 0.950 . S
C3314 C3313 1.349 . S
C3314 C3326 1.349 . S
C3315 C3313 1.327 . S
C3315 C3331 1.429 . S
C3315 H3337 0.950 . S
C3316 H3312 0.949 . S
C3316 C3324 1.574 . S
C3316 C3332 1.368 . S
H3317 C3325 0.950 . S
H3318 C3323 0.950 . S
H3319 C3324 0.949 . S
H3320 C3326 0.950 . S
H3321 C3327 0.950 . S
H3322 C3328 0.949 . S
C3323 H3318 0.950 . S
C3323 C3325 1.327 . S
C3323 C3329 1.429 . S
C3324 C3316 1.574 . S
C3324 H3319 0.949 . S
C3324 C3330 1.368 . S
C3325 C3309 1.349 . S
C3325 H3317 0.950 . S
C3325 C3323 1.327 . S
C3326 C3314 1.349 . S
C3326 H3320 0.950 . S
C3326 C3327 1.327 . S
C3327 H3321 0.950 . S
C3327 C3326 1.327 . S
C3327 C3331 1.429 . S
C3328 C3311 1.574 . S
C3328 H3322 0.949 . S
C3328 C3332 1.368 . S
C3329 C3310 1.429 . S
C3329 C3323 1.429 . S
C3329 C3330 1.523 . S
C3330 C3311 1.368 . S
C3330 C3324 1.368 . S
C3330 C3329 1.523 . S
C3331 C3315 1.429 . S
C3331 C3327 1.429 . S
C3331 C3332 1.523 . S
C3332 C3316 1.368 . S
C3332 C3328 1.368 . S
C3332 C3331 1.523 . S
H3333 C3308 0.950 . S
H3334 C3310 0.950 . S
H3335 C3311 0.949 . S
H3336 C3313 0.950 . S
H3337 C3315 0.950 . S
C3338 C3339 1.349 . S
C3338 C3340 1.327 . S
C3338 H3363 0.950 . S
C3339 C3338 1.349 . S
C3339 C3355 1.349 . S
C3340 C3338 1.327 . S
C3340 C3359 1.429 . S
C3340 H3364 0.950 . S
C3341 C3358 1.574 . S
C3341 C3360 1.368 . S
C3341 H3365 0.949 . S
H3342 C3346 0.949 . S
C3343 C3344 1.349 . S
C3343 C3345 1.327 . S
C3343 H3366 0.950 . S
C3344 C3343 1.349 . S
C3344 C3356 1.349 . S
C3345 C3343 1.327 . S
C3345 C3361 1.429 . S
C3345 H3367 0.950 . S
C3346 H3342 0.949 . S
C3346 C3354 1.574 . S
C3346 C3362 1.368 . S
H3347 C3355 0.950 . S
H3348 C3353 0.950 . S
H3349 C3354 0.949 . S
H3350 C3356 0.950 . S
H3351 C3357 0.950 . S
H3352 C3358 0.949 . S
C3353 H3348 0.950 . S
C3353 C3355 1.327 . S
C3353 C3359 1.429 . S
C3354 C3346 1.574 . S
C3354 H3349 0.949 . S
C3354 C3360 1.368 . S
C3355 C3339 1.349 . S
C3355 H3347 0.950 . S
C3355 C3353 1.327 . S
C3356 C3344 1.349 . S
C3356 H3350 0.950 . S
C3356 C3357 1.327 . S
C3357 H3351 0.950 . S
C3357 C3356 1.327 . S
C3357 C3361 1.429 . S
C3358 C3341 1.574 . S
C3358 H3352 0.949 . S
C3358 C3362 1.368 . S
C3359 C3340 1.429 . S
C3359 C3353 1.429 . S
C3359 C3360 1.523 . S
C3360 C3341 1.368 . S
C3360 C3354 1.368 . S
C3360 C3359 1.523 . S
C3361 C3345 1.429 . S
C3361 C3357 1.429 . S
C3361 C3362 1.523 . S
C3362 C3346 1.368 . S
C3362 C3358 1.368 . S
C3362 C3361 1.523 . S
H3363 C3338 0.950 . S
H3364 C3340 0.950 . S
H3365 C3341 0.949 . S
H3366 C3343 0.950 . S
H3367 C3345 0.950 . S
C3368 C3369 1.349 . S
C3368 C3370 1.327 . S
C3368 H3393 0.950 . S
C3369 C3368 1.349 . S
C3369 C3385 1.349 . S
C3370 C3368 1.327 . S
C3370 C3389 1.429 . S
C3370 H3394 0.950 . S
C3371 C3388 1.574 . S
C3371 C3390 1.368 . S
C3371 H3395 0.949 . S
H3372 C3376 0.949 . S
C3373 C3374 1.349 . S
C3373 C3375 1.327 . S
C3373 H3396 0.950 . S
C3374 C3373 1.349 . S
C3374 C3386 1.349 . S
C3375 C3373 1.327 . S
C3375 C3391 1.429 . S
C3375 H3397 0.950 . S
C3376 H3372 0.949 . S
C3376 C3384 1.574 . S
C3376 C3392 1.368 . S
H3377 C3385 0.950 . S
H3378 C3383 0.950 . S
H3379 C3384 0.949 . S
H3380 C3386 0.950 . S
H3381 C3387 0.950 . S
H3382 C3388 0.949 . S
C3383 H3378 0.950 . S
C3383 C3385 1.327 . S
C3383 C3389 1.429 . S
C3384 C3376 1.574 . S
C3384 H3379 0.949 . S
C3384 C3390 1.368 . S
C3385 C3369 1.349 . S
C3385 H3377 0.950 . S
C3385 C3383 1.327 . S
C3386 C3374 1.349 . S
C3386 H3380 0.950 . S
C3386 C3387 1.327 . S
C3387 H3381 0.950 . S
C3387 C3386 1.327 . S
C3387 C3391 1.429 . S
C3388 C3371 1.574 . S
C3388 H3382 0.949 . S
C3388 C3392 1.368 . S
C3389 C3370 1.429 . S
C3389 C3383 1.429 . S
C3389 C3390 1.523 . S
C3390 C3371 1.368 . S
C3390 C3384 1.368 . S
C3390 C3389 1.523 . S
C3391 C3375 1.429 . S
C3391 C3387 1.429 . S
C3391 C3392 1.523 . S
C3392 C3376 1.368 . S
C3392 C3388 1.368 . S
C3392 C3391 1.523 . S
H3393 C3368 0.950 . S
H3394 C3370 0.950 . S
H3395 C3371 0.949 . S
H3396 C3373 0.950 . S
H3397 C3375 0.950 . S
C3398 C3399 1.349 . S
C3398 C3400 1.327 . S
C3398 H3423 0.950 . S
C3399 C3398 1.349 . S
C3399 C3415 1.349 . S
C3400 C3398 1.327 . S
C3400 C3419 1.429 . S
C3400 H3424 0.950 . S
C3401 C3418 1.574 1_455 S
C3401 C3420 1.368 . S
C3401 H3425 0.949 . S
H3402 C3406 0.949 . S
C3403 C3404 1.349 . S
C3403 C3405 1.327 . S
C3403 H3426 0.950 . S
C3404 C3403 1.349 . S
C3404 C3416 1.349 . S
C3405 C3403 1.327 . S
C3405 C3421 1.429 . S
C3405 H3427 0.950 . S
C3406 H3402 0.949 . S
C3406 C3414 1.574 1_655 S
C3406 C3422 1.368 . S
H3407 C3415 0.950 . S
H3408 C3413 0.950 . S
H3409 C3414 0.949 . S
H3410 C3416 0.950 . S
H3411 C3417 0.950 . S
H3412 C3418 0.949 . S
C3413 H3408 0.950 . S
C3413 C3415 1.327 . S
C3413 C3419 1.429 . S
C3414 C3406 1.574 1_455 S
C3414 H3409 0.949 . S
C3414 C3420 1.368 . S
C3415 C3399 1.349 . S
C3415 H3407 0.950 . S
C3415 C3413 1.327 . S
C3416 C3404 1.349 . S
C3416 H3410 0.950 . S
C3416 C3417 1.327 . S
C3417 H3411 0.950 . S
C3417 C3416 1.327 . S
C3417 C3421 1.429 . S
C3418 C3401 1.574 1_655 S
C3418 H3412 0.949 . S
C3418 C3422 1.368 . S
C3419 C3400 1.429 . S
C3419 C3413 1.429 . S
C3419 C3420 1.523 . S
C3420 C3401 1.368 . S
C3420 C3414 1.368 . S
C3420 C3419 1.523 . S
C3421 C3405 1.429 . S
C3421 C3417 1.429 . S
C3421 C3422 1.523 . S
C3422 C3406 1.368 . S
C3422 C3418 1.368 . S
C3422 C3421 1.523 . S
H3423 C3398 0.950 . S
H3424 C3400 0.950 . S
H3425 C3401 0.949 . S
H3426 C3403 0.950 . S
H3427 C3405 0.950 . S
C3428 C3429 1.349 . S
C3428 C3430 1.327 . S
C3428 H3453 0.950 . S
C3429 C3428 1.349 . S
C3429 C3445 1.349 . S
C3430 C3428 1.327 . S
C3430 C3449 1.429 . S
C3430 H3454 0.950 . S
C3431 C3448 1.574 . S
C3431 C3450 1.368 . S
C3431 H3455 0.949 . S
H3432 C3436 0.949 . S
C3433 C3434 1.349 . S
C3433 C3435 1.327 . S
C3433 H3456 0.950 . S
C3434 C3433 1.349 . S
C3434 C3446 1.349 . S
C3435 C3433 1.327 . S
C3435 C3451 1.429 . S
C3435 H3457 0.950 . S
C3436 H3432 0.949 . S
C3436 C3444 1.574 . S
C3436 C3452 1.368 . S
H3437 C3445 0.950 . S
H3438 C3443 0.950 . S
H3439 C3444 0.949 . S
H3440 C3446 0.950 . S
H3441 C3447 0.950 . S
H3442 C3448 0.949 . S
C3443 H3438 0.950 . S
C3443 C3445 1.327 . S
C3443 C3449 1.429 . S
C3444 C3436 1.574 . S
C3444 H3439 0.949 . S
C3444 C3450 1.368 . S
C3445 C3429 1.349 . S
C3445 H3437 0.950 . S
C3445 C3443 1.327 . S
C3446 C3434 1.349 . S
C3446 H3440 0.950 . S
C3446 C3447 1.327 . S
C3447 H3441 0.950 . S
C3447 C3446 1.327 . S
C3447 C3451 1.429 . S
C3448 C3431 1.574 . S
C3448 H3442 0.949 . S
C3448 C3452 1.368 . S
C3449 C3430 1.429 . S
C3449 C3443 1.429 . S
C3449 C3450 1.523 . S
C3450 C3431 1.368 . S
C3450 C3444 1.368 . S
C3450 C3449 1.523 . S
C3451 C3435 1.429 . S
C3451 C3447 1.429 . S
C3451 C3452 1.523 . S
C3452 C3436 1.368 . S
C3452 C3448 1.368 . S
C3452 C3451 1.523 . S
H3453 C3428 0.950 . S
H3454 C3430 0.950 . S
H3455 C3431 0.949 . S
H3456 C3433 0.950 . S
H3457 C3435 0.950 . S
C3458 C3459 1.349 . S
C3458 C3460 1.327 . S
C3458 H3483 0.950 . S
C3459 C3458 1.349 . S
C3459 C3475 1.349 . S
C3460 C3458 1.327 . S
C3460 C3479 1.429 . S
C3460 H3484 0.950 . S
C3461 C3478 1.574 1_455 S
C3461 C3480 1.368 . S
C3461 H3485 0.949 . S
H3462 C3466 0.949 . S
C3463 C3464 1.349 . S
C3463 C3465 1.327 . S
C3463 H3486 0.950 . S
C3464 C3463 1.349 . S
C3464 C3476 1.349 . S
C3465 C3463 1.327 . S
C3465 C3481 1.429 . S
C3465 H3487 0.950 . S
C3466 H3462 0.949 . S
C3466 C3474 1.574 1_655 S
C3466 C3482 1.368 . S
H3467 C3475 0.950 . S
H3468 C3473 0.950 . S
H3469 C3474 0.949 . S
H3470 C3476 0.950 . S
H3471 C3477 0.950 . S
H3472 C3478 0.949 . S
C3473 H3468 0.950 . S
C3473 C3475 1.327 . S
C3473 C3479 1.429 . S
C3474 C3466 1.574 1_455 S
C3474 H3469 0.949 . S
C3474 C3480 1.368 . S
C3475 C3459 1.349 . S
C3475 H3467 0.950 . S
C3475 C3473 1.327 . S
C3476 C3464 1.349 . S
C3476 H3470 0.950 . S
C3476 C3477 1.327 . S
C3477 H3471 0.950 . S
C3477 C3476 1.327 . S
C3477 C3481 1.429 . S
C3478 C3461 1.574 1_655 S
C3478 H3472 0.949 . S
C3478 C3482 1.368 . S
C3479 C3460 1.429 . S
C3479 C3473 1.429 . S
C3479 C3480 1.523 . S
C3480 C3461 1.368 . S
C3480 C3474 1.368 . S
C3480 C3479 1.523 . S
C3481 C3465 1.429 . S
C3481 C3477 1.429 . S
C3481 C3482 1.523 . S
C3482 C3466 1.368 . S
C3482 C3478 1.368 . S
C3482 C3481 1.523 . S
H3483 C3458 0.950 . S
H3484 C3460 0.950 . S
H3485 C3461 0.949 . S
H3486 C3463 0.950 . S
H3487 C3465 0.950 . S
C1089 C5 1.414 . S
C1094 C9 1.352 . S
C1119 C43 1.352 . S
C1124 C39 1.414 . S
C1149 C77 1.352 . S
C1154 C73 1.414 . S
C1179 C111 1.352 . S
C1184 C107 1.414 . S
C1209 C145 1.352 . S
C1214 C141 1.414 . S
C1239 C179 1.352 . S
C1244 C175 1.414 . S
C1269 C209 1.414 . S
C1274 C213 1.352 . S
C1299 C243 1.414 . S
C1304 C247 1.352 . S
C1329 C277 1.414 . S
C1334 C281 1.352 . S
C1359 C311 1.414 . S
C1364 C315 1.352 . S
C1389 C345 1.414 . S
C1394 C349 1.352 . S
C1419 C383 1.352 . S
C1424 C379 1.414 . S
C1449 C413 1.414 . S
C1454 C417 1.352 . S
C1479 C447 1.414 . S
C1484 C451 1.352 . S
C1509 C485 1.352 . S
C1514 C481 1.414 . S
C1539 C515 1.414 . S
C1544 C519 1.352 . S
C1569 C553 1.352 . S
C1574 C549 1.414 . S
C1599 C587 1.352 . S
C1604 C583 1.414 . S
C1629 C621 1.352 . S
C1634 C617 1.414 . S
C1659 C655 1.352 . S
C1664 C651 1.414 . S
C1689 C689 1.352 . S
C1694 C685 1.414 . S
C1719 C723 1.352 . S
C1724 C719 1.414 . S
C1749 C757 1.352 . S
C1754 C753 1.414 . S
C1779 C787 1.414 . S
C1784 C791 1.352 . S
C1809 C825 1.352 . S
C1814 C821 1.414 . S
C1839 C859 1.352 . S
C1844 C855 1.414 . S
C1869 C893 1.352 . S
C1874 C889 1.414 . S
C1899 C923 1.414 . S
C1904 C927 1.352 . S
C1929 C957 1.414 . S
C1934 C961 1.352 . S
C1959 C991 1.414 . S
C1964 C995 1.352 . S
C1989 C1029 1.352 . S
C1994 C1025 1.414 . S
C2019 C1059 1.414 . S
C2024 C1063 1.352 . S
C2049 C802 1.474 . S
C2054 C20 1.474 . S
C2079 C700 1.474 . S
C2084 C54 1.474 . S
C2109 C734 1.473 . S
C2114 C88 1.473 . S
C2139 C768 1.474 . S
C2144 C122 1.474 . S
C2169 C598 1.474 . S
C2174 C156 1.474 . S
C2199 C632 1.473 . S
C2204 C190 1.473 . S
C2229 C666 1.474 . S
C2234 C224 1.474 . S
C2259 C564 1.474 . S
C2264 C258 1.474 . S
C2289 C1074 1.474 . S
C2294 C292 1.474 . S
C2319 C972 1.474 . S
C2324 C326 1.474 . S
C2349 C360 1.473 . S
C2354 C1006 1.473 . S
C2379 C394 1.474 . S
C2384 C1040 1.474 . S
C2409 C428 1.474 . S
C2414 C870 1.474 . S
C2439 C462 1.473 . S
C2444 C904 1.473 . S
C2469 C496 1.474 . S
C2474 C938 1.474 . S
C2499 C836 1.474 . S
C2504 C530 1.474 . S
C2529 C169 1.138 . S
C2534 C33 1.138 . S
C2559 C67 1.138 . S
C2564 C203 1.138 . S
C2589 C237 1.138 . S
C2594 C101 1.138 . S
C2619 C135 1.138 . S
C2624 C271 1.138 . S
C2649 C305 1.138 . S
C2654 C441 1.138 . S
C2679 C475 1.138 . S
C2684 C339 1.138 . S
C2709 C509 1.138 . S
C2714 C373 1.138 . S
C2739 C543 1.138 . S
C2744 C407 1.138 . S
C2769 C713 1.138 . S
C2774 C577 1.138 . S
C2799 C611 1.138 . S
C2804 C747 1.138 . S
C2829 C645 1.138 . S
C2834 C781 1.138 . S
C2859 C679 1.138 . S
C2864 C815 1.138 . S
C2889 C985 1.138 . S
C2894 C849 1.138 . S
C2919 C1019 1.138 . S
C2924 C883 1.138 . S
C2949 C1053 1.138 . S
C2954 C917 1.138 . S
C2979 C951 1.138 . S
C2984 C1087 1.138 . S
C3009 C2 1.752 . S
C3014 C410 1.752 . S
C3039 C988 1.753 . S
C3044 C36 1.753 . S
C3069 C70 1.753 . S
C3074 C478 1.753 . S
C3099 C1056 1.752 . S
C3104 C104 1.752 . S
C3129 C274 1.752 . S
C3134 C138 1.752 . S
C3159 C172 1.753 . S
C3164 C852 1.753 . S
C3189 C206 1.753 . S
C3194 C342 1.753 . S
C3219 C240 1.752 . S
C3224 C920 1.752 . S
C3249 C716 1.753 . S
C3254 C308 1.753 . S
C3279 C784 1.752 . S
C3284 C376 1.752 . S
C3309 C580 1.753 . S
C3314 C444 1.753 . S
C3339 C648 1.752 . S
C3344 C512 1.752 . S
C3369 C546 1.752 . S
C3374 C954 1.752 . S
C3399 C1022 1.753 . S
C3404 C614 1.753 . S
C3429 C682 1.752 . S
C3434 C818 1.752 . S
C3459 C886 1.753 . S
C3464 C750 1.753 . S
