# Generated by pormake.
# Topology wiv, (6)-cn, num edge types: 1
# Building blocks:
#     Node 0, Type 0, BuildingBlock: PAMTUU_clean_sbu_0, # of connection points: 6
#     Node 1, Type 0, BuildingBlock: PAMTUU_clean_sbu_0, # of connection points: 6
#     Node 2, Type 0, BuildingBlock: PAMTUU_clean_sbu_0, # of connection points: 6
#     Node 3, Type 0, BuildingBlock: PAMTUU_clean_sbu_0, # of connection points: 6
#     Node 4, Type 0, BuildingBlock: PAMTUU_clean_sbu_0, # of connection points: 6
#     Node 5, Type 0, BuildingBlock: PAMTUU_clean_sbu_0, # of connection points: 6
#     Node 6, Type 0, BuildingBlock: PAMTUU_clean_sbu_0, # of connection points: 6
#     Node 7, Type 0, BuildingBlock: PAMTUU_clean_sbu_0, # of connection points: 6
#     Node 8, Type 0, BuildingBlock: PAMTUU_clean_sbu_0, # of connection points: 6
#     Node 9, Type 0, BuildingBlock: PAMTUU_clean_sbu_0, # of connection points: 6
#     Node 10, Type 0, BuildingBlock: PAMTUU_clean_sbu_0, # of connection points: 6
#     Node 11, Type 0, BuildingBlock: PAMTUU_clean_sbu_0, # of connection points: 6
#     Node 12, Type 0, BuildingBlock: PAMTUU_clean_sbu_0, # of connection points: 6
#     Node 13, Type 0, BuildingBlock: PAMTUU_clean_sbu_0, # of connection points: 6
#     Node 14, Type 0, BuildingBlock: PAMTUU_clean_sbu_0, # of connection points: 6
#     Node 15, Type 0, BuildingBlock: PAMTUU_clean_sbu_0, # of connection points: 6
#     Edge 16, Type (0, 0), BuildingBlock: ZUJKAS_clean_linker_0, # of connection points: 2
#     Edge 17, Type (0, 0), BuildingBlock: ZUJKAS_clean_linker_0, # of connection points: 2
#     Edge 18, Type (0, 0), BuildingBlock: ZUJKAS_clean_linker_0, # of connection points: 2
#     Edge 19, Type (0, 0), BuildingBlock: ZUJKAS_clean_linker_0, # of connection points: 2
#     Edge 20, Type (0, 0), BuildingBlock: ZUJKAS_clean_linker_0, # of connection points: 2
#     Edge 21, Type (0, 0), BuildingBlock: ZUJKAS_clean_linker_0, # of connection points: 2
#     Edge 22, Type (0, 0), BuildingBlock: ZUJKAS_clean_linker_0, # of connection points: 2
#     Edge 23, Type (0, 0), BuildingBlock: ZUJKAS_clean_linker_0, # of connection points: 2
#     Edge 24, Type (0, 0), BuildingBlock: ZUJKAS_clean_linker_0, # of connection points: 2
#     Edge 25, Type (0, 0), BuildingBlock: ZUJKAS_clean_linker_0, # of connection points: 2
#     Edge 26, Type (0, 0), BuildingBlock: ZUJKAS_clean_linker_0, # of connection points: 2
#     Edge 27, Type (0, 0), BuildingBlock: ZUJKAS_clean_linker_0, # of connection points: 2
#     Edge 28, Type (0, 0), BuildingBlock: ZUJKAS_clean_linker_0, # of connection points: 2
#     Edge 29, Type (0, 0), BuildingBlock: ZUJKAS_clean_linker_0, # of connection points: 2
#     Edge 30, Type (0, 0), BuildingBlock: ZUJKAS_clean_linker_0, # of connection points: 2
#     Edge 31, Type (0, 0), BuildingBlock: ZUJKAS_clean_linker_0, # of connection points: 2
#     Edge 32, Type (0, 0), BuildingBlock: ZUJKAS_clean_linker_0, # of connection points: 2
#     Edge 33, Type (0, 0), BuildingBlock: ZUJKAS_clean_linker_0, # of connection points: 2
#     Edge 34, Type (0, 0), BuildingBlock: ZUJKAS_clean_linker_0, # of connection points: 2
#     Edge 35, Type (0, 0), BuildingBlock: ZUJKAS_clean_linker_0, # of connection points: 2
#     Edge 36, Type (0, 0), BuildingBlock: ZUJKAS_clean_linker_0, # of connection points: 2
#     Edge 37, Type (0, 0), BuildingBlock: ZUJKAS_clean_linker_0, # of connection points: 2
#     Edge 38, Type (0, 0), BuildingBlock: ZUJKAS_clean_linker_0, # of connection points: 2
#     Edge 39, Type (0, 0), BuildingBlock: ZUJKAS_clean_linker_0, # of connection points: 2
#     Edge 40, Type (0, 0), BuildingBlock: ZUJKAS_clean_linker_0, # of connection points: 2
#     Edge 41, Type (0, 0), BuildingBlock: ZUJKAS_clean_linker_0, # of connection points: 2
#     Edge 42, Type (0, 0), BuildingBlock: ZUJKAS_clean_linker_0, # of connection points: 2
#     Edge 43, Type (0, 0), BuildingBlock: ZUJKAS_clean_linker_0, # of connection points: 2
#     Edge 44, Type (0, 0), BuildingBlock: ZUJKAS_clean_linker_0, # of connection points: 2
#     Edge 45, Type (0, 0), BuildingBlock: ZUJKAS_clean_linker_0, # of connection points: 2
#     Edge 46, Type (0, 0), BuildingBlock: ZUJKAS_clean_linker_0, # of connection points: 2
#     Edge 47, Type (0, 0), BuildingBlock: ZUJKAS_clean_linker_0, # of connection points: 2
#     Edge 48, Type (0, 0), BuildingBlock: ZUJKAS_clean_linker_0, # of connection points: 2
#     Edge 49, Type (0, 0), BuildingBlock: ZUJKAS_clean_linker_0, # of connection points: 2
#     Edge 50, Type (0, 0), BuildingBlock: ZUJKAS_clean_linker_0, # of connection points: 2
#     Edge 51, Type (0, 0), BuildingBlock: ZUJKAS_clean_linker_0, # of connection points: 2
#     Edge 52, Type (0, 0), BuildingBlock: ZUJKAS_clean_linker_0, # of connection points: 2
#     Edge 53, Type (0, 0), BuildingBlock: ZUJKAS_clean_linker_0, # of connection points: 2
#     Edge 54, Type (0, 0), BuildingBlock: ZUJKAS_clean_linker_0, # of connection points: 2
#     Edge 55, Type (0, 0), BuildingBlock: ZUJKAS_clean_linker_0, # of connection points: 2
#     Edge 56, Type (0, 0), BuildingBlock: ZUJKAS_clean_linker_0, # of connection points: 2
#     Edge 57, Type (0, 0), BuildingBlock: ZUJKAS_clean_linker_0, # of connection points: 2
#     Edge 58, Type (0, 0), BuildingBlock: ZUJKAS_clean_linker_0, # of connection points: 2
#     Edge 59, Type (0, 0), BuildingBlock: ZUJKAS_clean_linker_0, # of connection points: 2
#     Edge 60, Type (0, 0), BuildingBlock: ZUJKAS_clean_linker_0, # of connection points: 2
#     Edge 61, Type (0, 0), BuildingBlock: ZUJKAS_clean_linker_0, # of connection points: 2
#     Edge 62, Type (0, 0), BuildingBlock: ZUJKAS_clean_linker_0, # of connection points: 2
#     Edge 63, Type (0, 0), BuildingBlock: ZUJKAS_clean_linker_0, # of connection points: 2
# Relax obj value: 0.099
# Max RMSD: 0.162
# Mean RMSD: 0.162
data_MOF--net-wiv--node1-PAMTUU_clean_sbu_0--edge1-ZUJKAS_clean_linker_0
_symmetry_space_group_name_H-M    P1
_symmetry_Int_Tables_number       1
_symmetry_cell_setting            triclinic
loop_
_symmetry_equiv_pos_as_xyz
'x, y, z'
_cell_length_a     68.690557
_cell_length_b     68.692822
_cell_length_c     29.452582
_cell_angle_alpha  89.995537
_cell_angle_beta   89.988074
_cell_angle_gamma 90.01777
loop_
_atom_site_label
_atom_site_type_symbol
_atom_site_fract_x
_atom_site_fract_y
_atom_site_fract_z
_atom_type_partial_charge
Tb0 Tb 0.37762 0.11057 0.07238 0.0
Tb1 Tb 0.34895 0.11761 0.16149 0.0
C2 C 0.36771 0.0769 0.14258 0.0
C3 C 0.3926 0.10858 0.95053 0.0
C4 C 0.38385 0.1117 0.85678 0.0
C5 C 0.40024 0.10117 0.87175 0.0
C6 C 0.40452 0.0996 0.91809 0.0
C7 C 0.37643 0.11941 0.93595 0.0
C8 C 0.37209 0.12096 0.88955 0.0
C9 C 0.39652 0.10546 0.99929 0.0
O10 O 0.34885 0.11677 0.04674 0.0
O11 O 0.32994 0.10694 0.10668 0.0
O12 O 0.34784 0.14348 0.11971 0.0
O13 O 0.37862 0.14143 0.09119 0.0
O14 O 0.32813 0.10775 0.20862 0.0
O15 O 0.33936 0.13705 0.21177 0.0
O16 O 0.37882 0.12431 0.18298 0.0
O17 O 0.39745 0.10836 0.12925 0.0
O18 O 0.37045 0.08168 0.09971 0.0
O19 O 0.36264 0.08982 0.17304 0.0
C20 C 0.33223 0.11053 0.06296 0.0
O21 O 0.39808 0.12089 0.02475 0.0
O22 O 0.3859 0.09219 1.01874 0.0
C23 C 0.36356 0.15189 0.10398 0.0
C24 C 0.33286 0.12162 0.28141 0.0
C25 C 0.34083 0.11934 0.37562 0.0
C26 C 0.32392 0.1287 0.35962 0.0
C27 C 0.32 0.12981 0.31302 0.0
C28 C 0.3497 0.11216 0.29704 0.0
C29 C 0.35361 0.11097 0.34368 0.0
C30 C 0.32905 0.12378 0.23234 0.0
C31 C 0.39558 0.11708 0.1688 0.0
H32 H 0.40981 0.09411 0.84762 0.0
H33 H 0.41703 0.09114 0.92865 0.0
H34 H 0.367 0.1264 0.96048 0.0
H35 H 0.35925 0.12901 0.87946 0.0
H36 H 0.31364 0.13508 0.38317 0.0
H37 H 0.30696 0.13722 0.30162 0.0
H38 H 0.35993 0.1059 0.27313 0.0
H39 H 0.36688 0.10388 0.35465 0.0
Tb40 Tb 0.10576 0.65695 0.8829 0.0
Tb41 Tb 0.10702 0.62851 0.97321 0.0
C42 C 0.14478 0.64239 0.92326 0.0
C43 C 0.10701 0.67399 0.76298 0.0
C44 C 0.11168 0.66766 0.6686 0.0
C45 C 0.11139 0.68668 0.68654 0.0
C46 C 0.10906 0.68979 0.73326 0.0
C47 C 0.10768 0.655 0.74546 0.0
C48 C 0.10997 0.65185 0.69882 0.0
C49 C 0.10323 0.67741 0.81168 0.0
O50 O 0.10481 0.62722 0.8558 0.0
O51 O 0.11294 0.60829 0.91827 0.0
O52 O 0.07984 0.6233 0.93679 0.0
O53 O 0.077 0.65452 0.91284 0.0
O54 O 0.1223 0.61136 0.02057 0.0
O55 O 0.0916 0.61685 0.02837 0.0
O56 O 0.0981 0.65716 0.99579 0.0
O57 O 0.11183 0.67626 0.94068 0.0
O58 O 0.13462 0.64463 0.88601 0.0
O59 O 0.13615 0.64087 0.96306 0.0
C60 C 0.1097 0.6104 0.87443 0.0
O61 O 0.08887 0.66746 0.829 0.0
O62 O 0.11832 0.67756 0.83858 0.0
C63 C 0.06913 0.63748 0.92047 0.0
C64 C 0.11014 0.615 0.09521 0.0
C65 C 0.11344 0.62502 0.18807 0.0
C66 C 0.11077 0.60551 0.1747 0.0
C67 C 0.10911 0.60058 0.12874 0.0
C68 C 0.11308 0.63446 0.10815 0.0
C69 C 0.11468 0.63943 0.15414 0.0
C70 C 0.10722 0.60974 0.04718 0.0
C71 C 0.10498 0.67397 0.98216 0.0
H72 H 0.11295 0.69919 0.66448 0.0
H73 H 0.1086 0.70456 0.7461 0.0
H74 H 0.10601 0.6426 0.76779 0.0
H75 H 0.10985 0.63703 0.68636 0.0
H76 H 0.10948 0.59407 0.19982 0.0
H77 H 0.10672 0.58551 0.11942 0.0
H78 H 0.11393 0.64581 0.0827 0.0
H79 H 0.11695 0.65455 0.1631 0.0
Tb80 Tb 0.63434 0.90039 0.06851 0.0
Tb81 Tb 0.66286 0.90161 0.15859 0.0
C82 C 0.64355 0.93845 0.12109 0.0
C83 C 0.62011 0.89745 0.94681 0.0
C84 C 0.6294 0.89483 0.85338 0.0
C85 C 0.60987 0.89584 0.86791 0.0
C86 C 0.6053 0.89718 0.91413 0.0
C87 C 0.63959 0.89605 0.93276 0.0
C88 C 0.6442 0.89478 0.88651 0.0
C89 C 0.61513 0.90006 0.99512 0.0
O90 O 0.66285 0.90951 0.04535 0.0
O91 O 0.68228 0.89629 0.10062 0.0
O92 O 0.65079 0.87261 0.15431 0.0
O93 O 0.64752 0.87159 0.07721 0.0
O94 O 0.67363 0.91816 0.21287 0.0
O95 O 0.68303 0.88853 0.20308 0.0
O96 O 0.63316 0.9036 0.1852 0.0
O97 O 0.61462 0.89352 0.12395 0.0
O98 O 0.62942 0.92778 0.10432 0.0
O99 O 0.66051 0.93053 0.12955 0.0
C100 C 0.67981 0.90306 0.05911 0.0
O101 O 0.61725 0.88492 0.02132 0.0
O102 O 0.62203 0.91574 1.01405 0.0
C103 C 0.64912 0.86266 0.11658 0.0
C104 C 0.67929 0.89972 0.27863 0.0
C105 C 0.67148 0.89552 0.37242 0.0
C106 C 0.69055 0.89904 0.35691 0.0
C107 C 0.69439 0.9012 0.31044 0.0
C108 C 0.66033 0.8957 0.29378 0.0
C109 C 0.65644 0.89368 0.3402 0.0
C110 C 0.68316 0.90355 0.23019 0.0
C111 C 0.61652 0.89775 0.16738 0.0
H112 H 0.59807 0.89557 0.84355 0.0
H113 H 0.59018 0.89821 0.92433 0.0
H114 H 0.65124 0.89625 0.95753 0.0
H115 H 0.65938 0.89424 0.87673 0.0
H116 H 0.70243 0.90072 0.38077 0.0
H117 H 0.70909 0.90439 0.29942 0.0
H118 H 0.64849 0.89442 0.26972 0.0
H119 H 0.64165 0.89071 0.35089 0.0
Tb120 Tb 0.88907 0.34509 0.87642 0.0
Tb121 Tb 0.89632 0.37344 0.96573 0.0
C122 C 0.85476 0.36051 0.93309 0.0
C123 C 0.88542 0.32924 0.75649 0.0
C124 C 0.88789 0.33739 0.66241 0.0
C125 C 0.88124 0.31916 0.67794 0.0
C126 C 0.88001 0.31515 0.7245 0.0
C127 C 0.89228 0.34737 0.74135 0.0
C128 C 0.89353 0.3514 0.69479 0.0
C129 C 0.88308 0.32526 0.8054 0.0
O130 O 0.88285 0.37501 0.8549 0.0
O131 O 0.89905 0.39329 0.90885 0.0
O132 O 0.92508 0.36519 0.93947 0.0
O133 O 0.91708 0.35843 0.86563 0.0
O134 O 0.88659 0.39433 1.0131 0.0
O135 O 0.91475 0.38105 0.0197 0.0
O136 O 0.8885 0.34492 0.991 0.0
O137 O 0.8988 0.3259 0.93179 0.0
O138 O 0.86276 0.34468 0.91681 0.0
O139 O 0.86555 0.37524 0.94658 0.0
C140 C 0.89034 0.39163 0.86923 0.0
O141 O 0.89904 0.32429 0.82934 0.0
O142 O 0.86977 0.33555 0.82587 0.0
C143 C 0.93002 0.36278 0.89663 0.0
C144 C 0.89844 0.38857 0.08751 0.0
C145 C 0.89495 0.38061 0.18153 0.0
C146 C 0.90229 0.3986 0.1662 0.0
C147 C 0.90404 0.40251 0.11969 0.0
C148 C 0.89074 0.37076 0.10245 0.0
C149 C 0.889 0.3668 0.14896 0.0
C150 C 0.90187 0.39225 0.03879 0.0
C151 C 0.8941 0.32804 0.97495 0.0
H152 H 0.87704 0.30792 0.65409 0.0
H153 H 0.87466 0.30109 0.73553 0.0
H154 H 0.89642 0.35851 0.76556 0.0
H155 H 0.89849 0.36566 0.68421 0.0
H156 H 0.90672 0.40971 0.19016 0.0
H157 H 0.91005 0.41633 0.10885 0.0
H158 H 0.88643 0.35978 0.07812 0.0
H159 H 0.8835 0.35271 0.15933 0.0
Tb160 Tb 0.37542 0.39843 0.21776 0.0
Tb161 Tb 0.34661 0.39822 0.12735 0.0
C162 C 0.36405 0.43593 0.16505 0.0
C163 C 0.39039 0.39634 0.33919 0.0
C164 C 0.38105 0.39333 0.43249 0.0
C165 C 0.39915 0.40088 0.41842 0.0
C166 C 0.40372 0.40241 0.37226 0.0
C167 C 0.3725 0.38839 0.35284 0.0
C168 C 0.36786 0.3869 0.39906 0.0
C169 C 0.39484 0.39951 0.2908 0.0
O170 O 0.3463 0.40488 0.24165 0.0
O171 O 0.32728 0.39197 0.18491 0.0
O172 O 0.35951 0.36964 0.13189 0.0
O173 O 0.36463 0.36865 0.20873 0.0
O174 O 0.33496 0.41464 0.07394 0.0
O175 O 0.3273 0.38439 0.08185 0.0
O176 O 0.37621 0.40088 0.10035 0.0
O177 O 0.39553 0.39317 0.16235 0.0
O178 O 0.37873 0.42612 0.18206 0.0
O179 O 0.34754 0.42709 0.15687 0.0
C180 C 0.32961 0.39797 0.22713 0.0
O181 O 0.39394 0.38434 0.26427 0.0
O182 O 0.38644 0.41459 0.2725 0.0
C183 C 0.3624 0.3598 0.16939 0.0
C184 C 0.33086 0.39647 1.00686 0.0
C185 C 0.33853 0.39278 0.91284 0.0
C186 C 0.31976 0.3892 0.93024 0.0
C187 C 0.31597 0.39108 0.97682 0.0
C188 C 0.3497 0.39957 0.98979 0.0
C189 C 0.35349 0.39778 0.94331 0.0
C190 C 0.32651 0.39962 0.05544 0.0
C191 C 0.39321 0.39655 0.11866 0.0
H192 H 0.40981 0.40565 0.44311 0.0
H193 H 0.4176 0.4086 0.36236 0.0
H194 H 0.36201 0.38365 0.32773 0.0
H195 H 0.35372 0.38121 0.40849 0.0
H196 H 0.30787 0.38547 0.90772 0.0
H197 H 0.30133 0.38865 0.98927 0.0
H198 H 0.36145 0.40371 1.01232 0.0
H199 H 0.36816 0.40036 0.93121 0.0
Tb200 Tb 0.38881 0.66319 0.91818 0.0
Tb201 Tb 0.39377 0.63457 0.82848 0.0
C202 C 0.35319 0.64834 0.86517 0.0
C203 C 0.38699 0.67969 0.03792 0.0
C204 C 0.3894 0.67178 0.13208 0.0
C205 C 0.38363 0.69027 0.11631 0.0
C206 C 0.38241 0.69415 0.0697 0.0
C207 C 0.39307 0.66133 0.05329 0.0
C208 C 0.39426 0.6574 0.09988 0.0
C209 C 0.38442 0.68352 0.98904 0.0
O210 O 0.3826 0.63352 0.94165 0.0
O211 O 0.39597 0.61442 0.88489 0.0
O212 O 0.42307 0.64294 0.85137 0.0
O213 O 0.4165 0.64892 0.92624 0.0
O214 O 0.3815 0.61631 0.77865 0.0
O215 O 0.41188 0.62349 0.77704 0.0
O216 O 0.38704 0.66337 0.80322 0.0
O217 O 0.39843 0.68203 0.86203 0.0
O218 O 0.3619 0.66403 0.88017 0.0
O219 O 0.3634 0.63334 0.85096 0.0
C220 C 0.38859 0.61654 0.92587 0.0
O221 O 0.40019 0.68365 0.96431 0.0
O222 O 0.37048 0.67373 0.96956 0.0
C223 C 0.42885 0.64491 0.89377 0.0
C224 C 0.39616 0.6198 0.70657 0.0
C225 C 0.39459 0.62839 0.61264 0.0
C226 C 0.39882 0.60941 0.62786 0.0
C227 C 0.39959 0.60518 0.67436 0.0
C228 C 0.39185 0.63871 0.69169 0.0
C229 C 0.39103 0.64297 0.64521 0.0
C230 C 0.39757 0.61527 0.75542 0.0
C231 C 0.3933 0.68006 0.81909 0.0
H232 H 0.38008 0.70179 0.13998 0.0
H233 H 0.37768 0.70841 0.05848 0.0
H234 H 0.3966 0.64995 0.02921 0.0
H235 H 0.39852 0.64295 0.11061 0.0
H236 H 0.40139 0.59777 0.60382 0.0
H237 H 0.40294 0.59048 0.68517 0.0
H238 H 0.3893 0.65021 0.71604 0.0
H239 H 0.38797 0.65779 0.63484 0.0
Tb240 Tb 0.63096 0.61597 0.20819 0.0
Tb241 Tb 0.65952 0.61382 0.11805 0.0
C242 C 0.64018 0.5775 0.15731 0.0
C243 C 0.61576 0.61888 0.3294 0.0
C244 C 0.62518 0.62078 0.42281 0.0
C245 C 0.60733 0.61285 0.4083 0.0
C246 C 0.60271 0.61187 0.36209 0.0
C247 C 0.63344 0.62715 0.34354 0.0
C248 C 0.63812 0.6281 0.38981 0.0
C249 C 0.61126 0.61629 0.28084 0.0
O250 O 0.65954 0.60793 0.23283 0.0
O251 O 0.67941 0.61884 0.17528 0.0
O252 O 0.64841 0.64323 0.12243 0.0
O253 O 0.64443 0.6446 0.19944 0.0
O254 O 0.67032 0.59654 0.06516 0.0
O255 O 0.67933 0.62648 0.07183 0.0
O256 O 0.62971 0.61201 0.09173 0.0
O257 O 0.61173 0.6235 0.15245 0.0
O258 O 0.62602 0.58841 0.17297 0.0
O259 O 0.65719 0.5853 0.14897 0.0
C260 C 0.67667 0.61344 0.21782 0.0
O261 O 0.61351 0.63142 0.2546 0.0
O262 O 0.61838 0.60061 0.26239 0.0
C263 C 0.64665 0.65332 0.15997 0.0
C264 C 0.67523 0.61405 0.99729 0.0
C265 C 0.668 0.61772 0.9031 0.0
C266 C 0.68652 0.62191 0.92112 0.0
C267 C 0.69011 0.62002 0.96777 0.0
C268 C 0.6566 0.61036 0.97959 0.0
C269 C 0.65304 0.61211 0.93301 0.0
C270 C 0.6794 0.61105 0.04602 0.0
C271 C 0.61334 0.61874 0.10929 0.0
H272 H 0.59687 0.60738 0.43268 0.0
H273 H 0.58901 0.60539 0.35184 0.0
H274 H 0.64374 0.63258 0.31874 0.0
H275 H 0.65207 0.63412 0.39962 0.0
H276 H 0.69839 0.62615 0.89899 0.0
H277 H 0.70458 0.62293 0.98071 0.0
H278 H 0.64485 0.60584 1.0017 0.0
H279 H 0.63855 0.60907 0.9204 0.0
Tb280 Tb 0.60763 0.35162 0.90807 0.0
Tb281 Tb 0.60949 0.38012 0.81784 0.0
C282 C 0.64705 0.36522 0.86721 0.0
C283 C 0.60844 0.33524 0.02828 0.0
C284 C 0.61258 0.34261 0.12225 0.0
C285 C 0.60997 0.32349 0.10611 0.0
C286 C 0.60785 0.31987 0.05955 0.0
C287 C 0.61156 0.35427 0.04405 0.0
C288 C 0.61354 0.35793 0.09057 0.0
C289 C 0.60476 0.33148 0.97973 0.0
O290 O 0.60586 0.38143 0.93436 0.0
O291 O 0.61644 0.39976 0.87322 0.0
O292 O 0.58208 0.38494 0.85372 0.0
O293 O 0.5792 0.35359 0.87641 0.0
O294 O 0.62481 0.39737 0.77068 0.0
O295 O 0.594 0.39239 0.76354 0.0
O296 O 0.60137 0.35138 0.79409 0.0
O297 O 0.61364 0.33206 0.85087 0.0
O298 O 0.63689 0.36303 0.90452 0.0
O299 O 0.63851 0.36763 0.82757 0.0
C300 C 0.61202 0.39797 0.91655 0.0
O301 O 0.5905 0.34138 0.96192 0.0
O302 O 0.61993 0.33118 0.95309 0.0
C303 C 0.57126 0.37058 0.86879 0.0
C304 C 0.61221 0.3946 0.69624 0.0
C305 C 0.61463 0.38543 0.60273 0.0
C306 C 0.61269 0.40488 0.61729 0.0
C307 C 0.61144 0.40939 0.66355 0.0
C308 C 0.61454 0.37522 0.68215 0.0
C309 C 0.61572 0.37067 0.63586 0.0
C310 C 0.60962 0.39945 0.74461 0.0
C311 C 0.60763 0.33446 0.80872 0.0
H312 H 0.609 0.31139 0.12956 0.0
H313 H 0.60539 0.30509 0.04804 0.0
H314 H 0.61216 0.36632 0.02043 0.0
H315 H 0.6158 0.37278 0.10175 0.0
H316 H 0.61216 0.41667 0.59293 0.0
H317 H 0.60967 0.42443 0.67378 0.0
H318 H 0.61515 0.36359 0.70693 0.0
H319 H 0.617 0.35553 0.62605 0.0
Tb320 Tb 0.87517 0.60713 0.56567 0.0
Tb321 Tb 0.84626 0.60722 0.65589 0.0
C322 C 0.86447 0.56981 0.6191 0.0
C323 C 0.88947 0.60954 0.44409 0.0
C324 C 0.87969 0.61346 0.35122 0.0
C325 C 0.89835 0.6071 0.36439 0.0
C326 C 0.90315 0.60511 0.41036 0.0
C327 C 0.87094 0.6162 0.43131 0.0
C328 C 0.86607 0.61809 0.38532 0.0
C329 C 0.8943 0.60616 0.49221 0.0
O330 O 0.84611 0.60002 0.54231 0.0
O331 O 0.82709 0.61353 0.59814 0.0
O332 O 0.85879 0.63598 0.65126 0.0
O333 O 0.86411 0.63678 0.57443 0.0
O334 O 0.83495 0.59058 0.70937 0.0
O335 O 0.82648 0.62059 0.70102 0.0
O336 O 0.87585 0.60535 0.6832 0.0
O337 O 0.89527 0.61268 0.62102 0.0
O338 O 0.87908 0.57985 0.60253 0.0
O339 O 0.84773 0.57838 0.6261 0.0
C340 C 0.82945 0.60721 0.55621 0.0
O341 O 0.89361 0.62126 0.51901 0.0
O342 O 0.88601 0.59104 0.51062 0.0
C343 C 0.86182 0.64572 0.61365 0.0
C344 C 0.82995 0.6087 0.77624 0.0
C345 C 0.8369 0.61273 0.87061 0.0
C346 C 0.81808 0.61532 0.85255 0.0
C347 C 0.81465 0.6133 0.80586 0.0
C348 C 0.84882 0.6065 0.79388 0.0
C349 C 0.85225 0.60846 0.8405 0.0
C350 C 0.82599 0.60538 0.72752 0.0
C351 C 0.89286 0.60967 0.66485 0.0
H352 H 0.90911 0.60316 0.33914 0.0
H353 H 0.91747 0.59982 0.41956 0.0
H354 H 0.8602 0.61976 0.45693 0.0
H355 H 0.85166 0.62324 0.37647 0.0
H356 H 0.80595 0.61891 0.87448 0.0
H357 H 0.8 0.6151 0.79295 0.0
H358 H 0.86084 0.60285 0.77172 0.0
H359 H 0.86688 0.6061 0.85303 0.0
Tb360 Tb 0.61198 0.16384 0.37252 0.0
Tb361 Tb 0.61301 0.13541 0.46275 0.0
C362 C 0.65087 0.14986 0.41456 0.0
C363 C 0.61362 0.1801 0.25229 0.0
C364 C 0.6175 0.17245 0.15839 0.0
C365 C 0.61522 0.19164 0.17431 0.0
C366 C 0.61322 0.19541 0.22083 0.0
C367 C 0.61643 0.16099 0.23674 0.0
C368 C 0.61829 0.15719 0.19025 0.0
C369 C 0.60997 0.18402 0.30077 0.0
O370 O 0.6095 0.13409 0.34626 0.0
O371 O 0.61988 0.11569 0.40741 0.0
O372 O 0.5855 0.13101 0.42698 0.0
O373 O 0.58329 0.16226 0.40291 0.0
O374 O 0.62816 0.11798 0.5098 0.0
O375 O 0.5974 0.12326 0.51703 0.0
O376 O 0.60476 0.16411 0.48626 0.0
O377 O 0.61759 0.1834 0.43006 0.0
O378 O 0.64092 0.15167 0.37687 0.0
O379 O 0.64197 0.14822 0.45398 0.0
C380 C 0.61544 0.11749 0.3641 0.0
O381 O 0.59535 0.17458 0.3184 0.0
O382 O 0.62507 0.18385 0.32761 0.0
C383 C 0.57502 0.14545 0.41107 0.0
C384 C 0.61559 0.12075 0.58428 0.0
C385 C 0.61814 0.12971 0.67786 0.0
C386 C 0.61602 0.11031 0.66311 0.0
C387 C 0.61471 0.10591 0.61681 0.0
C388 C 0.61808 0.14009 0.59857 0.0
C389 C 0.61932 0.14453 0.6449 0.0
C390 C 0.61295 0.11601 0.53588 0.0
C391 C 0.61114 0.18103 0.4719 0.0
H392 H 0.61439 0.20371 0.15071 0.0
H393 H 0.61099 0.21025 0.23218 0.0
H394 H 0.61687 0.14898 0.26051 0.0
H395 H 0.6203 0.14228 0.17923 0.0
H396 H 0.6154 0.09847 0.68735 0.0
H397 H 0.61281 0.09089 0.60641 0.0
H398 H 0.61877 0.15176 0.5739 0.0
H399 H 0.62074 0.15964 0.65487 0.0
Tb400 Tb 0.13088 0.39431 0.57494 0.0
Tb401 Tb 0.15947 0.39649 0.66511 0.0
C402 C 0.13992 0.43265 0.62604 0.0
C403 C 0.11644 0.39124 0.45352 0.0
C404 C 0.12622 0.38839 0.36045 0.0
C405 C 0.1073 0.39375 0.374 0.0
C406 C 0.10249 0.3952 0.42007 0.0
C407 C 0.13525 0.38561 0.44034 0.0
C408 C 0.14012 0.38424 0.39425 0.0
C409 C 0.11152 0.39406 0.50179 0.0
O410 O 0.15954 0.40248 0.55074 0.0
O411 O 0.17918 0.39097 0.60786 0.0
O412 O 0.14858 0.36701 0.66137 0.0
O413 O 0.14358 0.36538 0.58452 0.0
O414 O 0.16972 0.41385 0.7185 0.0
O415 O 0.17989 0.38437 0.71053 0.0
O416 O 0.12964 0.39775 0.69164 0.0
O417 O 0.11138 0.38716 0.63039 0.0
O418 O 0.12572 0.42165 0.61089 0.0
O419 O 0.15702 0.42495 0.63367 0.0
C420 C 0.17659 0.39662 0.56548 0.0
O421 O 0.11346 0.37897 0.52826 0.0
O422 O 0.11868 0.4097 0.52035 0.0
C423 C 0.14625 0.35685 0.62409 0.0
C424 C 0.17575 0.39619 0.78552 0.0
C425 C 0.16879 0.39185 0.87979 0.0
C426 C 0.18787 0.3912 0.86226 0.0
C427 C 0.1913 0.39339 0.81562 0.0
C428 C 0.15668 0.39643 0.80262 0.0
C429 C 0.15322 0.39434 0.84919 0.0
C430 C 0.17954 0.39964 0.73682 0.0
C431 C 0.11315 0.39148 0.67377 0.0
H432 H 0.0963 0.3973 0.34899 0.0
H433 H 0.08794 0.39972 0.42959 0.0
H434 H 0.14621 0.38245 0.46574 0.0
H435 H 0.15475 0.37988 0.38509 0.0
H436 H 0.2002 0.38898 0.88456 0.0
H437 H 0.20613 0.39309 0.8031 0.0
H438 H 0.14446 0.39861 0.78001 0.0
H439 H 0.13836 0.3952 0.86126 0.0
Tb440 Tb 0.40273 0.84856 0.37804 0.0
Tb441 Tb 0.40132 0.87686 0.46843 0.0
C442 C 0.3637 0.86251 0.41927 0.0
C443 C 0.40104 0.83171 0.25803 0.0
C444 C 0.39647 0.83835 0.16374 0.0
C445 C 0.39741 0.81927 0.18119 0.0
C446 C 0.39972 0.81601 0.22784 0.0
C447 C 0.39962 0.85075 0.24107 0.0
C448 C 0.39742 0.85405 0.19445 0.0
C449 C 0.40487 0.82817 0.30662 0.0
O450 O 0.40439 0.87833 0.35143 0.0
O451 O 0.39462 0.89673 0.41324 0.0
O452 O 0.42868 0.88201 0.43267 0.0
O453 O 0.43158 0.85096 0.40738 0.0
O454 O 0.38584 0.89395 0.51555 0.0
O455 O 0.41661 0.88892 0.5233 0.0
O456 O 0.4103 0.84829 0.49139 0.0
O457 O 0.39705 0.82908 0.43579 0.0
O458 O 0.37381 0.86077 0.3818 0.0
O459 O 0.37244 0.86391 0.45893 0.0
C460 C 0.39866 0.89494 0.36968 0.0
O461 O 0.41938 0.83791 0.32384 0.0
O462 O 0.38983 0.82821 0.33366 0.0
C463 C 0.43942 0.86796 0.41584 0.0
C464 C 0.39811 0.89079 0.59019 0.0
C465 C 0.39499 0.88108 0.68324 0.0
C466 C 0.39789 0.90051 0.66953 0.0
C467 C 0.39946 0.90529 0.62347 0.0
C468 C 0.39496 0.87142 0.60348 0.0
C469 C 0.39344 0.86659 0.64957 0.0
C470 C 0.40092 0.8959 0.54204 0.0
C471 C 0.40371 0.83142 0.47744 0.0
H472 H 0.39639 0.80681 0.1588 0.0
H473 H 0.40073 0.8012 0.24028 0.0
H474 H 0.40062 0.86308 0.26382 0.0
H475 H 0.39701 0.86895 0.18244 0.0
H476 H 0.39942 0.912 0.69445 0.0
H477 H 0.40203 0.9203 0.61387 0.0
H478 H 0.39386 0.86001 0.57822 0.0
H479 H 0.39098 0.85153 0.6588 0.0
Tb480 Tb 0.87588 0.89466 0.7075 0.0
Tb481 Tb 0.84751 0.88872 0.61791 0.0
C482 C 0.86533 0.92923 0.64082 0.0
C483 C 0.89052 0.89656 0.8294 0.0
C484 C 0.88179 0.89372 0.92311 0.0
C485 C 0.90039 0.89964 0.90837 0.0
C486 C 0.90468 0.90106 0.86199 0.0
C487 C 0.87204 0.89042 0.84379 0.0
C488 C 0.8677 0.88902 0.89014 0.0
C489 C 0.89487 0.89916 0.78073 0.0
O490 O 0.84721 0.88728 0.73257 0.0
O491 O 0.82845 0.89834 0.67366 0.0
O492 O 0.84679 0.86207 0.65709 0.0
O493 O 0.87748 0.86417 0.6861 0.0
O494 O 0.82687 0.89943 0.57135 0.0
O495 O 0.83745 0.86993 0.56689 0.0
O496 O 0.87731 0.88249 0.59541 0.0
O497 O 0.89591 0.89731 0.65098 0.0
O498 O 0.8675 0.92373 0.68336 0.0
O499 O 0.86124 0.91667 0.60882 0.0
C500 C 0.83045 0.89329 0.71664 0.0
O501 O 0.89546 0.88346 0.75603 0.0
O502 O 0.8852 0.91291 0.76045 0.0
C503 C 0.86256 0.85368 0.67253 0.0
C504 C 0.83128 0.88604 0.4981 0.0
C505 C 0.83921 0.88857 0.40401 0.0
C506 C 0.82077 0.88262 0.41968 0.0
C507 C 0.81687 0.88134 0.46627 0.0
C508 C 0.84961 0.89225 0.48281 0.0
C509 C 0.85355 0.89349 0.43623 0.0
C510 C 0.8274 0.88357 0.54699 0.0
C511 C 0.89411 0.88921 0.61067 0.0
H512 H 0.91153 0.90362 0.93268 0.0
H513 H 0.919 0.90595 0.85156 0.0
H514 H 0.86092 0.8869 0.81914 0.0
H515 H 0.85331 0.88417 0.90012 0.0
H516 H 0.80946 0.87848 0.39595 0.0
H517 H 0.80267 0.8764 0.47745 0.0
H518 H 0.86094 0.89594 0.50692 0.0
H519 H 0.86782 0.89837 0.42548 0.0
Tb520 Tb 0.89918 0.15973 0.41648 0.0
Tb521 Tb 0.89805 0.13142 0.32624 0.0
C522 C 0.86022 0.14654 0.37358 0.0
C523 C 0.89756 0.17624 0.53661 0.0
C524 C 0.89342 0.16885 0.63056 0.0
C525 C 0.89657 0.1879 0.61453 0.0
C526 C 0.89868 0.19154 0.56798 0.0
C527 C 0.89388 0.15729 0.55225 0.0
C528 C 0.89189 0.15361 0.59877 0.0
C529 C 0.90143 0.17994 0.48814 0.0
O530 O 0.90071 0.12991 0.44295 0.0
O531 O 0.89045 0.11181 0.3812 0.0
O532 O 0.92531 0.12647 0.36275 0.0
O533 O 0.9279 0.15772 0.38646 0.0
O534 O 0.88276 0.11427 0.27887 0.0
O535 O 0.9136 0.11911 0.27208 0.0
O536 O 0.90702 0.15996 0.30309 0.0
O537 O 0.89395 0.17933 0.35874 0.0
O538 O 0.87003 0.14815 0.41152 0.0
O539 O 0.86927 0.14476 0.33437 0.0
C540 C 0.89451 0.11346 0.42474 0.0
O541 O 0.91587 0.17011 0.47089 0.0
O542 O 0.88641 0.18008 0.46104 0.0
C543 C 0.93595 0.14079 0.37869 0.0
C544 C 0.89549 0.11708 0.20459 0.0
C545 C 0.89293 0.12626 0.11112 0.0
C546 C 0.8941 0.10676 0.12574 0.0
C547 C 0.89541 0.10224 0.17198 0.0
C548 C 0.89395 0.13653 0.19045 0.0
C549 C 0.89271 0.14109 0.14417 0.0
C550 C 0.89799 0.11216 0.25294 0.0
C551 C 0.90066 0.17692 0.31713 0.0
H552 H 0.898 0.19993 0.63806 0.0
H553 H 0.9016 0.20624 0.55656 0.0
H554 H 0.8929 0.14529 0.52854 0.0
H555 H 0.88921 0.13882 0.60987 0.0
H556 H 0.89395 0.09493 0.10143 0.0
H557 H 0.89655 0.08714 0.18226 0.0
H558 H 0.89399 0.1482 0.21517 0.0
H559 H 0.89205 0.15626 0.13431 0.0
Tb560 Tb 0.13343 0.10724 0.71853 0.0
Tb561 Tb 0.16176 0.11434 0.62909 0.0
C562 C 0.14364 0.07357 0.6491 0.0
C563 C 0.11816 0.10574 0.84011 0.0
C564 C 0.12643 0.10994 0.93377 0.0
C565 C 0.10966 0.09994 0.91915 0.0
C566 C 0.10562 0.09782 0.8728 0.0
C567 C 0.13471 0.11605 0.85438 0.0
C568 C 0.13884 0.11808 0.90075 0.0
C569 C 0.11447 0.10205 0.79151 0.0
O570 O 0.16215 0.11376 0.74407 0.0
O571 O 0.18095 0.10396 0.68388 0.0
O572 O 0.16314 0.1403 0.67052 0.0
O573 O 0.13259 0.1382 0.70046 0.0
O574 O 0.18236 0.1043 0.58165 0.0
O575 O 0.17129 0.13365 0.57851 0.0
O576 O 0.13187 0.12122 0.60832 0.0
O577 O 0.11362 0.10465 0.66166 0.0
O578 O 0.14149 0.07845 0.69207 0.0
O579 O 0.14794 0.08653 0.61811 0.0
C580 C 0.17878 0.10766 0.72759 0.0
O581 O 0.11247 0.11722 0.76537 0.0
O582 O 0.12562 0.08902 0.77282 0.0
C583 C 0.1476 0.14867 0.68725 0.0
C584 C 0.17742 0.11808 0.50893 0.0
C585 C 0.16913 0.11568 0.41489 0.0
C586 C 0.18684 0.12363 0.43038 0.0
C587 C 0.19091 0.12482 0.4769 0.0
C588 C 0.15979 0.11001 0.49386 0.0
C589 C 0.15569 0.10879 0.44733 0.0
C590 C 0.18146 0.1203 0.55785 0.0
C591 C 0.11524 0.11365 0.62239 0.0
H592 H 0.09991 0.09327 0.9435 0.0
H593 H 0.09286 0.08967 0.86247 0.0
H594 H 0.14454 0.12232 0.82964 0.0
H595 H 0.15175 0.12607 0.91073 0.0
H596 H 0.19741 0.12935 0.4066 0.0
H597 H 0.20452 0.13125 0.4879 0.0
H598 H 0.14913 0.10478 0.51811 0.0
H599 H 0.14203 0.10236 0.43679 0.0
Tb600 Tb 0.1193 0.84213 0.42328 0.0
Tb601 Tb 0.11414 0.87039 0.33337 0.0
C602 C 0.15495 0.85631 0.36876 0.0
C603 C 0.12093 0.82582 0.54309 0.0
C604 C 0.11834 0.83387 0.63707 0.0
C605 C 0.12403 0.81532 0.62157 0.0
C606 C 0.12533 0.81136 0.57503 0.0
C607 C 0.11497 0.84425 0.55821 0.0
C608 C 0.11369 0.84825 0.60474 0.0
C609 C 0.1235 0.82187 0.49429 0.0
O610 O 0.12626 0.87179 0.44567 0.0
O611 O 0.11202 0.8906 0.38968 0.0
O612 O 0.08498 0.86215 0.35735 0.0
O613 O 0.09191 0.85693 0.43223 0.0
O614 O 0.12529 0.89012 0.28505 0.0
O615 O 0.09596 0.87952 0.28017 0.0
O616 O 0.12136 0.84167 0.30856 0.0
O617 O 0.10952 0.82327 0.36723 0.0
O618 O 0.14626 0.84092 0.38545 0.0
O619 O 0.14481 0.87119 0.35358 0.0
C620 C 0.12002 0.88871 0.43007 0.0
O621 O 0.10774 0.82183 0.46955 0.0
O622 O 0.13753 0.83152 0.47475 0.0
C623 C 0.07942 0.86087 0.40002 0.0
C624 C 0.11237 0.88521 0.2115 0.0
C625 C 0.11513 0.87678 0.11768 0.0
C626 C 0.10959 0.89544 0.13274 0.0
C627 C 0.1082 0.89958 0.17919 0.0
C628 C 0.11817 0.86667 0.1968 0.0
C629 C 0.11954 0.86248 0.15038 0.0
C630 C 0.10965 0.8894 0.26018 0.0
C631 C 0.11492 0.82506 0.32442 0.0
H632 H 0.12795 0.80398 0.64541 0.0
H633 H 0.13009 0.79709 0.56398 0.0
H634 H 0.11151 0.85562 0.53399 0.0
H635 H 0.10902 0.8626 0.61537 0.0
H636 H 0.10583 0.90674 0.10864 0.0
H637 H 0.10356 0.91394 0.18987 0.0
H638 H 0.12142 0.85538 0.22125 0.0
H639 H 0.12409 0.84804 0.14012 0.0
H640 H 0.38716 0.93155 0.39463 0.0
H641 H 0.3837 0.9603 0.34677 0.0
H642 H 0.40225 0.92723 0.23018 0.0
H643 H 0.40573 0.89821 0.27786 0.0
H644 H 0.41292 0.97863 0.29407 0.0
H645 H 0.35109 0.95319 0.18718 0.0
H646 H 0.35744 0.94157 0.24015 0.0
H647 H 0.37199 0.93747 0.19045 0.0
C648 C 0.39048 0.93027 0.35881 0.0
C649 C 0.39666 0.91244 0.3402 0.0
C650 C 0.38849 0.94678 0.33146 0.0
C651 C 0.39249 0.94589 0.28479 0.0
C652 C 0.39875 0.92818 0.26596 0.0
H653 H 0.38072 0.04507 0.09361 0.0
H654 H 0.38812 0.01235 0.12311 0.0
C655 C 0.40081 0.91161 0.29338 0.0
C656 C 0.3905 0.96375 0.25662 0.0
H657 H 0.36289 0.98486 0.17342 0.0
C658 C 0.4021 0.97992 0.26741 0.0
C659 C 0.37649 0.96538 0.22155 0.0
C660 C 0.36341 0.94857 0.20913 0.0
C661 C 0.39971 0.99781 0.24504 0.0
C662 C 0.38511 0.99972 0.21146 0.0
C663 C 0.37406 0.98335 0.19919 0.0
C664 C 0.37995 0.01906 0.1923 0.0
C665 C 0.41265 0.01466 0.2581 0.0
C666 C 0.37247 0.03345 0.22112 0.0
C667 C 0.3682 0.05198 0.20453 0.0
C668 C 0.37125 0.05664 0.15849 0.0
C669 C 0.37825 0.04202 0.12922 0.0
C670 C 0.38249 0.02333 0.146 0.0
H671 H 0.4264 0.00958 0.27409 0.0
H672 H 0.4163 0.02373 0.22807 0.0
H673 H 0.40491 0.02397 0.28305 0.0
H674 H 0.37006 0.03038 0.25677 0.0
H675 H 0.36271 0.06273 0.2282 0.0
H676 H 0.93107 0.6058 0.64091 0.0
H677 H 0.95971 0.60881 0.68949 0.0
H678 H 0.92268 0.62076 0.80452 0.0
H679 H 0.89392 0.61702 0.75633 0.0
H680 H 0.97297 0.63877 0.73321 0.0
H681 H 0.95784 0.58117 0.85987 0.0
H682 H 0.94396 0.58356 0.8082 0.0
H683 H 0.9386 0.59874 0.85646 0.0
C684 C 0.929 0.6089 0.67665 0.0
C685 C 0.91019 0.61106 0.69478 0.0
C686 C 0.94541 0.61061 0.70445 0.0
C687 C 0.94345 0.61471 0.75098 0.0
C688 C 0.92465 0.61701 0.76912 0.0
H689 H 0.04056 0.66408 0.90343 0.0
H690 H 0.00928 0.65845 0.86609 0.0
C691 C 0.90818 0.61498 0.74142 0.0
C692 C 0.96114 0.61759 0.77956 0.0
H693 H 0.98373 0.60307 0.87738 0.0
C694 C 0.97532 0.63088 0.76464 0.0
C695 C 0.96442 0.60714 0.82036 0.0
C696 C 0.95049 0.59171 0.83695 0.0
C697 C 0.99254 0.63408 0.78919 0.0
C698 C 0.99546 0.62425 0.83096 0.0
C699 C 0.98139 0.61083 0.84578 0.0
C700 C 0.0133 0.62735 0.85882 0.0
C701 C 0.00768 0.64754 0.76927 0.0
C702 C 0.02545 0.6116 0.86996 0.0
C703 C 0.04318 0.61473 0.89234 0.0
C704 C 0.04913 0.6337 0.90373 0.0
C705 C 0.03649 0.64931 0.89465 0.0
C706 C 0.01866 0.64613 0.87294 0.0
H707 H 0.00589 0.64915 0.73196 0.0
H708 H 0.0061 0.6622 0.78466 0.0
H709 H 0.02264 0.64219 0.77616 0.0
H710 H 0.02158 0.59694 0.85977 0.0
H711 H 0.05262 0.6024 0.89873 0.0
H712 H 0.66954 0.96409 0.1581 0.0
H713 H 0.66271 0.99577 0.19206 0.0
H714 H 0.60242 0.99065 0.15319 0.0
H715 H 0.60906 0.95868 0.11958 0.0
H716 H 0.64731 0.03047 0.15817 0.0
H717 H 0.59961 0.99837 0.29108 0.0
H718 H 0.6151 0.98369 0.25535 0.0
H719 H 0.59259 0.99318 0.23358 0.0
C720 C 0.65484 0.96973 0.15629 0.0
C721 C 0.63981 0.95872 0.13638 0.0
C722 C 0.65097 0.98789 0.17573 0.0
C723 C 0.632 0.99545 0.1759 0.0
C724 C 0.61711 0.98494 0.15424 0.0
H725 H 0.60584 0.11392 0.27372 0.0
H726 H 0.60887 0.085 0.22562 0.0
C727 C 0.62096 0.96672 0.13474 0.0
C728 C 0.62784 0.01392 0.20046 0.0
H729 H 0.60353 0.03243 0.29204 0.0
C730 C 0.63762 0.03096 0.18723 0.0
C731 C 0.6154 0.01446 0.23878 0.0
C732 C 0.60517 0.99645 0.25593 0.0
C733 C 0.63544 0.04847 0.21149 0.0
C734 C 0.62294 0.04902 0.24968 0.0
C735 C 0.613 0.03203 0.26258 0.0
C736 C 0.62086 0.06671 0.27848 0.0
C737 C 0.64709 0.06604 0.19703 0.0
C738 C 0.62618 0.06596 0.32445 0.0
C739 C 0.62438 0.08241 0.35209 0.0
C740 C 0.61714 0.10003 0.33446 0.0
C741 C 0.61163 0.10069 0.28843 0.0
C742 C 0.61342 0.08417 0.26076 0.0
H743 H 0.65915 0.06206 0.17366 0.0
H744 H 0.6374 0.0764 0.17904 0.0
H745 H 0.65333 0.07363 0.22698 0.0
H746 H 0.63191 0.05264 0.33893 0.0
H747 H 0.62877 0.08128 0.38731 0.0
H748 H 0.96171 0.37536 0.94665 0.0
H749 H 0.99471 0.38229 0.91823 0.0
H750 H 0.97734 0.36409 0.7842 0.0
H751 H 0.94471 0.35723 0.81171 0.0
H752 H 0.02234 0.35692 0.86949 0.0
H753 H 0.99865 0.42014 0.76661 0.0
H754 H 0.98409 0.41022 0.81217 0.0
H755 H 0.98421 0.39871 0.75732 0.0
C756 C 0.96497 0.37275 0.91119 0.0
C757 C 0.95044 0.36589 0.88147 0.0
C758 C 0.98382 0.37672 0.89503 0.0
C759 C 0.98835 0.37404 0.84892 0.0
C760 C 0.97406 0.36663 0.8197 0.0
H761 H 0.07676 0.37923 0.64914 0.0
H762 H 0.0479 0.37609 0.69672 0.0
C763 C 0.95537 0.36265 0.83567 0.0
C764 C 0.00784 0.37902 0.83034 0.0
H765 H 0.02958 0.4063 0.74767 0.0
C766 C 0.02407 0.36796 0.84347 0.0
C767 C 0.01004 0.39347 0.79648 0.0
C768 C 0.99337 0.40646 0.78256 0.0
C769 C 0.04219 0.37019 0.82165 0.0
C770 C 0.0441 0.38399 0.78621 0.0
C771 C 0.02807 0.39564 0.77461 0.0
C772 C 0.06207 0.38565 0.75836 0.0
C773 C 0.05888 0.35713 0.83499 0.0
C774 C 0.07969 0.39221 0.77712 0.0
C775 C 0.09633 0.3941 0.74985 0.0
C776 C 0.09566 0.38947 0.70327 0.0
C777 C 0.07793 0.38293 0.68477 0.0
C778 C 0.06135 0.38111 0.71196 0.0
H779 H 0.05415 0.34512 0.85772 0.0
H780 H 0.06583 0.35075 0.80436 0.0
H781 H 0.07006 0.36584 0.85308 0.0
H782 H 0.0805 0.3961 0.81271 0.0
H783 H 0.10964 0.3993 0.76525 0.0
H784 H 0.39513 0.46036 0.17997 0.0
H785 H 0.40012 0.4931 0.14883 0.0
H786 H 0.34441 0.48982 0.08173 0.0
H787 H 0.33904 0.45764 0.11385 0.0
H788 H 0.40369 0.50412 0.0641 0.0
H789 H 0.34023 0.54287 0.13476 0.0
H790 H 0.34749 0.51914 0.15478 0.0
H791 H 0.33258 0.52153 0.10469 0.0
C792 C 0.38379 0.46679 0.15929 0.0
C793 C 0.36662 0.4564 0.14978 0.0
C794 C 0.38668 0.48549 0.14137 0.0
C795 C 0.3725 0.49417 0.11351 0.0
C796 C 0.35533 0.48381 0.10423 0.0
H797 H 0.39087 0.57829 0.90063 0.0
H798 H 0.38788 0.54952 0.94867 0.0
C799 C 0.35233 0.46527 0.12247 0.0
C800 C 0.37611 0.5134 0.09144 0.0
H801 H 0.35498 0.55736 0.06853 0.0
C802 C 0.39314 0.51585 0.06562 0.0
C803 C 0.3626 0.52894 0.09392 0.0
C804 C 0.34482 0.52807 0.12397 0.0
C805 C 0.39662 0.533 0.04083 0.0
C806 C 0.38239 0.54793 0.04055 0.0
C807 C 0.36577 0.54583 0.06794 0.0
C808 C 0.38421 0.56559 1.01135 0.0
C809 C 0.41563 0.53493 1.01551 0.0
C810 C 0.38235 0.58433 0.03004 0.0
C811 C 0.38365 0.60089 1.00236 0.0
C812 C 0.38693 0.59906 0.95538 0.0
C813 C 0.38861 0.58028 0.93673 0.0
C814 C 0.38706 0.56376 0.96429 0.0
H815 H 0.42722 0.52595 0.03144 0.0
H816 H 0.41366 0.52965 0.9802 0.0
H817 H 0.42064 0.55029 1.01434 0.0
H818 H 0.38 0.58617 0.06615 0.0
H819 H 0.38227 0.6151 1.0179 0.0
H820 H 0.60923 0.60904 1.01891 0.0
H821 H 0.5805 0.61375 0.97061 0.0
H822 H 0.54937 0.63818 0.08418 0.0
H823 H 0.57783 0.63376 0.13238 0.0
H824 H 0.54186 0.59911 0.98154 0.0
H825 H 0.54304 0.67966 0.98486 0.0
H826 H 0.56377 0.6651 1.00126 0.0
H827 H 0.5441 0.6691 0.04054 0.0
C828 C 0.5963 0.61549 0.03359 0.0
C829 C 0.59597 0.62114 0.07958 0.0
C830 C 0.57988 0.61813 1.00591 0.0
C831 C 0.5629 0.62663 0.02357 0.0
C832 C 0.56244 0.63197 0.06954 0.0
H833 H 0.44525 0.65181 0.97633 0.0
H834 H 0.47881 0.64707 0.99968 0.0
C835 C 0.57876 0.62931 0.09717 0.0
C836 C 0.5454 0.62973 0.99469 0.0
H837 H 0.51289 0.66476 0.96276 0.0
C838 C 0.53568 0.61349 0.97659 0.0
C839 C 0.53744 0.6485 0.98798 0.0
C840 C 0.54773 0.66661 1.00428 0.0
C841 C 0.51756 0.61543 0.95464 0.0
C842 C 0.50911 0.63412 0.95024 0.0
C843 C 0.51934 0.65043 0.96626 0.0
C844 C 0.48877 0.63693 0.93419 0.0
C845 C 0.50706 0.59741 0.93862 0.0
C846 C 0.48313 0.63296 0.88922 0.0
C847 C 0.46372 0.6357 0.87546 0.0
C848 C 0.44967 0.64243 0.90653 0.0
C849 C 0.45555 0.64654 0.95133 0.0
C850 C 0.47482 0.64387 0.96487 0.0
H851 H 0.51441 0.58384 0.94988 0.0
H852 H 0.49186 0.59733 0.95145 0.0
H853 H 0.50646 0.5974 0.90097 0.0
H854 H 0.49373 0.62781 0.86479 0.0
H855 H 0.45971 0.63242 0.84074 0.0
H856 H 0.66625 0.55153 0.12196 0.0
H857 H 0.65945 0.51971 0.08867 0.0
H858 H 0.59897 0.5253 0.12556 0.0
H859 H 0.60558 0.55741 0.15848 0.0
H860 H 0.64368 0.4852 0.1226 0.0
H861 H 0.59691 0.51714 0.9878 0.0
H862 H 0.61226 0.53185 0.02376 0.0
H863 H 0.58957 0.52253 0.04498 0.0
C864 C 0.65151 0.54596 0.12348 0.0
C865 C 0.63642 0.55715 0.14259 0.0
C866 C 0.64766 0.52772 0.10443 0.0
C867 C 0.62865 0.52025 0.10387 0.0
C868 C 0.61369 0.53094 0.12481 0.0
H869 H 0.60224 0.40169 1.00681 0.0
H870 H 0.60536 0.43064 0.05478 0.0
C871 C 0.61753 0.54924 0.14391 0.0
C872 C 0.62453 0.50173 0.07951 0.0
H873 H 0.60063 0.48307 0.98751 0.0
C874 C 0.63415 0.48468 0.09327 0.0
C875 C 0.6123 0.50113 0.04084 0.0
C876 C 0.60227 0.51914 0.02308 0.0
C877 C 0.63202 0.46711 0.0692 0.0
C878 C 0.61972 0.46651 0.03065 0.0
C879 C 0.60994 0.48351 1.01723 0.0
C880 C 0.61771 0.44877 1.00202 0.0
C881 C 0.64351 0.44953 0.08423 0.0
C882 C 0.62323 0.4494 0.95617 0.0
C883 C 0.62138 0.43293 0.92861 0.0
C884 C 0.61389 0.41541 0.94619 0.0
C885 C 0.60822 0.41485 0.99214 0.0
C886 C 0.61007 0.43138 0.01973 0.0
H887 H 0.65546 0.45351 0.10789 0.0
H888 H 0.63367 0.43925 0.10207 0.0
H889 H 0.64987 0.44184 0.05456 0.0
H890 H 0.62913 0.46265 0.94171 0.0
H891 H 0.62591 0.43399 0.89347 0.0
H892 H 0.43127 0.4006 0.14345 0.0
H893 H 0.46013 0.39787 0.09554 0.0
H894 H 0.42368 0.38631 0.97932 0.0
H895 H 0.39468 0.38975 0.02691 0.0
H896 H 0.47355 0.36802 0.05178 0.0
H897 H 0.45923 0.42603 0.92561 0.0
H898 H 0.44505 0.42349 0.97682 0.0
H899 H 0.43998 0.40842 0.92821 0.0
C900 C 0.42936 0.39765 0.10759 0.0
C901 C 0.41064 0.39549 0.08898 0.0
C902 C 0.44591 0.3961 0.08018 0.0
C903 C 0.44418 0.39216 0.03353 0.0
C904 C 0.42547 0.38992 1.01485 0.0
H905 H 0.54271 0.34373 0.88401 0.0
H906 H 0.51107 0.34901 0.92001 0.0
C907 C 0.40887 0.39178 0.04219 0.0
C908 C 0.46204 0.38936 1.00543 0.0
H909 H 0.48534 0.40432 0.90884 0.0
C910 C 0.47612 0.37604 0.02061 0.0
C911 C 0.4656 0.39996 0.96497 0.0
C912 C 0.45176 0.41542 0.94816 0.0
C913 C 0.49354 0.37298 0.99669 0.0
C914 C 0.49676 0.38299 0.95529 0.0
C915 C 0.48277 0.39642 0.94017 0.0
C916 C 0.51485 0.3801 0.92818 0.0
C917 C 0.50856 0.35948 1.01696 0.0
C918 C 0.52702 0.39597 0.91799 0.0
C919 C 0.54496 0.39304 0.89636 0.0
C920 C 0.55112 0.37416 0.88481 0.0
C921 C 0.53848 0.35843 0.89294 0.0
C922 C 0.52045 0.36141 0.91389 0.0
H923 H 0.50646 0.3577 0.05414 0.0
H924 H 0.50716 0.34489 1.00113 0.0
H925 H 0.52355 0.36493 1.01088 0.0
H926 H 0.52299 0.41056 0.92833 0.0
H927 H 0.55438 0.40545 0.8907 0.0
H928 H 0.87152 0.39511 0.78732 0.0
H929 H 0.86812 0.42429 0.74044 0.0
H930 H 0.90226 0.45693 0.83689 0.0
H931 H 0.9054 0.42799 0.88444 0.0
H932 H 0.86961 0.47616 0.81325 0.0
H933 H 0.9073 0.4506 0.65785 0.0
H934 H 0.88784 0.4349 0.67563 0.0
H935 H 0.90889 0.43783 0.71129 0.0
C936 C 0.8784 0.40846 0.79852 0.0
C937 C 0.88871 0.40915 0.83981 0.0
C938 C 0.87657 0.42512 0.77142 0.0
C939 C 0.88518 0.44278 0.78472 0.0
C940 C 0.89554 0.44347 0.82578 0.0
H941 H 0.89881 0.54968 0.6277 0.0
H942 H 0.90386 0.5184 0.66598 0.0
C943 C 0.89732 0.42687 0.85298 0.0
C944 C 0.8826 0.46078 0.75721 0.0
H945 H 0.8898 0.48046 0.65182 0.0
C946 C 0.87409 0.47709 0.77799 0.0
C947 C 0.88866 0.46212 0.71134 0.0
C948 C 0.89886 0.4455 0.68777 0.0
C949 C 0.87121 0.49455 0.75413 0.0
C950 C 0.87661 0.49568 0.7078 0.0
C951 C 0.88544 0.47951 0.68715 0.0
C952 C 0.87336 0.51366 0.68067 0.0
C953 C 0.86273 0.51178 0.77909 0.0
C954 C 0.85449 0.52105 0.67476 0.0
C955 C 0.85155 0.53892 0.65305 0.0
C956 C 0.86743 0.54971 0.63634 0.0
C957 C 0.88625 0.54176 0.64013 0.0
C958 C 0.88917 0.52389 0.66208 0.0
H959 H 0.86428 0.51023 0.81647 0.0
H960 H 0.86987 0.52555 0.76843 0.0
H961 H 0.84697 0.51289 0.77123 0.0
H962 H 0.84202 0.5132 0.6879 0.0
H963 H 0.83685 0.54449 0.65044 0.0
H964 H 0.55528 0.11083 0.40352 0.0
H965 H 0.52353 0.10544 0.36755 0.0
H966 H 0.51712 0.16728 0.3476 0.0
H967 H 0.54883 0.17279 0.38278 0.0
H968 H 0.4853 0.11922 0.38439 0.0
H969 H 0.51358 0.14515 0.21855 0.0
H970 H 0.52933 0.1395 0.26577 0.0
H971 H 0.51653 0.16232 0.26398 0.0
C972 C 0.54699 0.1233 0.39207 0.0
C973 C 0.55471 0.14222 0.39561 0.0
C974 C 0.52885 0.1202 0.37146 0.0
C975 C 0.51815 0.13593 0.35404 0.0
C976 C 0.52532 0.15489 0.35989 0.0
H977 H 0.39892 0.13627 0.25035 0.0
H978 H 0.42817 0.1402 0.29689 0.0
C979 C 0.54343 0.15801 0.38025 0.0
C980 C 0.49998 0.13253 0.32776 0.0
H981 H 0.47966 0.13926 0.22309 0.0
C982 C 0.48405 0.12356 0.34911 0.0
C983 C 0.49847 0.13791 0.2815 0.0
C984 C 0.51543 0.14659 0.25588 0.0
C985 C 0.46652 0.12015 0.32561 0.0
C986 C 0.46482 0.12614 0.27976 0.0
C987 C 0.48088 0.13484 0.25833 0.0
C988 C 0.44675 0.12317 0.25276 0.0
C989 C 0.45014 0.10984 0.34982 0.0
C990 C 0.44748 0.1126 0.212 0.0
C991 C 0.43085 0.11052 0.18505 0.0
C992 C 0.41307 0.11901 0.19816 0.0
C993 C 0.41233 0.12948 0.23922 0.0
C994 C 0.42902 0.13162 0.26611 0.0
H995 H 0.45546 0.10166 0.37992 0.0
H996 H 0.4394 0.12075 0.36177 0.0
H997 H 0.44256 0.09955 0.32674 0.0
H998 H 0.46098 0.106 0.2009 0.0
H999 H 0.43202 0.10231 0.15379 0.0
H1000 H 0.10786 0.57215 0.8995 0.0
H1001 H 0.11231 0.54345 0.85176 0.0
H1002 H 0.12114 0.5803 0.73499 0.0
H1003 H 0.11608 0.60914 0.78243 0.0
H1004 H 0.09925 0.5497 0.7128 0.0
H1005 H 0.1635 0.5233 0.80758 0.0
H1006 H 0.1427 0.52592 0.84381 0.0
H1007 H 0.15316 0.54708 0.81708 0.0
C1008 C 0.11076 0.57418 0.86365 0.0
C1009 C 0.11175 0.59299 0.84488 0.0
C1010 C 0.11342 0.55772 0.8364 0.0
C1011 C 0.11758 0.55965 0.7899 0.0
C1012 C 0.11809 0.5784 0.7708 0.0
H1013 H 0.16645 0.46157 0.64053 0.0
H1014 H 0.1608 0.49348 0.67473 0.0
C1015 C 0.11516 0.5949 0.79798 0.0
C1016 C 0.1214 0.54211 0.76141 0.0
H1017 H 0.14897 0.5008 0.75609 0.0
C1018 C 0.11022 0.53908 0.72206 0.0
C1019 C 0.136 0.52839 0.77281 0.0
C1020 C 0.14966 0.53143 0.81233 0.0
C1021 C 0.11288 0.5225 0.69461 0.0
C1022 C 0.12672 0.50824 0.70751 0.0
C1023 C 0.1382 0.51155 0.74626 0.0
C1024 C 0.12964 0.48973 0.6818 0.0
C1025 C 0.10104 0.52069 0.65167 0.0
C1026 C 0.11401 0.47699 0.67347 0.0
C1027 C 0.11718 0.45884 0.65304 0.0
C1028 C 0.13612 0.45285 0.64147 0.0
C1029 C 0.15168 0.46574 0.64901 0.0
C1030 C 0.14847 0.48399 0.66872 0.0
H1031 H 0.09635 0.53518 0.63901 0.0
H1032 H 0.10939 0.51327 0.62442 0.0
H1033 H 0.08773 0.51206 0.65885 0.0
H1034 H 0.09942 0.48074 0.68432 0.0
H1035 H 0.10491 0.44913 0.64835 0.0
H1036 H 0.57994 0.88526 0.1444 0.0
H1037 H 0.55146 0.88223 0.19343 0.0
H1038 H 0.58491 0.90324 0.30716 0.0
H1039 H 0.61363 0.90619 0.25843 0.0
H1040 H 0.5627 0.87056 0.32809 0.0
H1041 H 0.51752 0.9263 0.2423 0.0
H1042 H 0.52674 0.90817 0.20405 0.0
H1043 H 0.54341 0.92416 0.23284 0.0
C1044 C 0.5813 0.88934 0.17977 0.0
C1045 C 0.59914 0.89604 0.1973 0.0
C1046 C 0.56492 0.88769 0.20774 0.0
C1047 C 0.56594 0.89282 0.25381 0.0
C1048 C 0.58375 0.89931 0.27163 0.0
H1049 H 0.45924 0.90269 0.41621 0.0
H1050 H 0.49115 0.90951 0.38256 0.0
C1051 C 0.60017 0.90098 0.24366 0.0
C1052 C 0.54849 0.89091 0.28343 0.0
H1053 H 0.50094 0.90486 0.29319 0.0
C1054 C 0.54924 0.8782 0.32074 0.0
C1055 C 0.53103 0.90113 0.27435 0.0
C1056 C 0.52962 0.91586 0.23649 0.0
C1057 C 0.53278 0.87484 0.34805 0.0
C1058 C 0.51501 0.88422 0.33737 0.0
C1059 C 0.51449 0.89752 0.30118 0.0
C1060 C 0.49654 0.87978 0.36175 0.0
C1061 C 0.53459 0.86126 0.38808 0.0
C1062 C 0.48899 0.86079 0.36157 0.0
C1063 C 0.47081 0.85684 0.38085 0.0
C1064 C 0.45967 0.87183 0.4005 0.0
C1065 C 0.46746 0.89077 0.40163 0.0
C1066 C 0.48568 0.89472 0.38226 0.0
H1067 H 0.54989 0.86022 0.40002 0.0
H1068 H 0.5253 0.8661 0.4168 0.0
H1069 H 0.52985 0.84646 0.37777 0.0
H1070 H 0.49686 0.8491 0.3451 0.0
H1071 H 0.46525 0.8421 0.37908 0.0
H1072 H 0.85862 0.94527 0.55768 0.0
H1073 H 0.8637 0.9787 0.53346 0.0
H1074 H 0.88276 0.99411 0.6682 0.0
H1075 H 0.87784 0.96026 0.69306 0.0
H1076 H 0.84644 0.01308 0.56805 0.0
H1077 H 0.92724 0.01396 0.58458 0.0
H1078 H 0.91347 0.99156 0.58384 0.0
H1079 H 0.91337 0.00666 0.63355 0.0
C1080 C 0.86391 0.95566 0.58244 0.0
C1081 C 0.86789 0.94996 0.62742 0.0
C1082 C 0.86677 0.97485 0.56842 0.0
C1083 C 0.8738 0.98889 0.5988 0.0
C1084 C 0.87759 0.98344 0.64397 0.0
H1085 H 0.90298 0.10931 0.5158 0.0
H1086 H 0.89762 0.08053 0.56363 0.0
C1087 C 0.87466 0.96412 0.6582 0.0
C1088 C 0.87692 0.00913 0.58231 0.0
H1089 H 0.91245 0.04171 0.55306 0.0
C1090 C 0.86086 0.01944 0.56531 0.0
C1091 C 0.89572 0.01748 0.57892 0.0
C1092 C 0.91352 0.00689 0.59588 0.0
C1093 C 0.86312 0.03753 0.54372 0.0
C1094 C 0.88201 0.04542 0.5382 0.0
C1095 C 0.89799 0.0356 0.55715 0.0
C1096 C 0.88551 0.06294 0.50965 0.0
C1097 C 0.84526 0.04792 0.52634 0.0
C1098 C 0.88082 0.06251 0.4633 0.0
C1099 C 0.88387 0.07884 0.43594 0.0
C1100 C 0.89178 0.09605 0.45419 0.0
C1101 C 0.89677 0.09638 0.50059 0.0
C1102 C 0.89374 0.07993 0.528 0.0
H1103 H 0.83195 0.04322 0.54476 0.0
H1104 H 0.84679 0.06395 0.52973 0.0
H1105 H 0.84323 0.04442 0.48986 0.0
H1106 H 0.87482 0.04945 0.44817 0.0
H1107 H 0.87992 0.07793 0.40041 0.0
H1108 H 0.07888 0.09875 0.63797 0.0
H1109 H 0.04987 0.102 0.5908 0.0
H1110 H 0.08241 0.13599 0.49387 0.0
H1111 H 0.1117 0.13251 0.54046 0.0
H1112 H 0.03093 0.13502 0.5676 0.0
H1113 H 0.05545 0.09676 0.41193 0.0
H1114 H 0.06834 0.09503 0.46519 0.0
H1115 H 0.07138 0.11606 0.42954 0.0
C1116 C 0.07997 0.10682 0.60649 0.0
C1117 C 0.09769 0.11538 0.59313 0.0
C1118 C 0.06333 0.10865 0.57951 0.0
C1119 C 0.06397 0.11901 0.53846 0.0
C1120 C 0.08163 0.12756 0.52489 0.0
H1121 H 0.96242 0.168 0.4061 0.0
H1122 H 0.994 0.16241 0.44175 0.0
C1123 C 0.09834 0.12568 0.55181 0.0
C1124 C 0.04588 0.12169 0.51136 0.0
H1125 H 0.02552 0.11417 0.40681 0.0
C1126 C 0.02976 0.1304 0.53248 0.0
C1127 C 0.04424 0.11547 0.46567 0.0
C1128 C 0.0607 0.10514 0.44179 0.0
C1129 C 0.01218 0.1333 0.50914 0.0
C1130 C 0.01074 0.12768 0.46301 0.0
C1131 C 0.02672 0.11867 0.442 0.0
C1132 C 0.99264 0.13104 0.43647 0.0
C1133 C 0.99518 0.14207 0.53437 0.0
C1134 C 0.98179 0.11529 0.41958 0.0
C1135 C 0.9637 0.11844 0.39872 0.0
C1136 C 0.9562 0.13741 0.3944 0.0
C1137 C 0.96764 0.15318 0.40924 0.0
C1138 C 0.98568 0.15002 0.42985 0.0
H1139 H 0.99699 0.14084 0.57175 0.0
H1140 H 0.99407 0.15776 0.52578 0.0
H1141 H 0.98131 0.13491 0.52459 0.0
H1142 H 0.98695 0.10052 0.42409 0.0
H1143 H 0.95528 0.10598 0.3877 0.0
H1144 H 0.11419 0.92666 0.40552 0.0
H1145 H 0.11774 0.95573 0.45227 0.0
H1146 H 0.13336 0.92012 0.5672 0.0
H1147 H 0.1303 0.89085 0.52024 0.0
H1148 H 0.09847 0.96681 0.52808 0.0
H1149 H 0.17733 0.95928 0.56663 0.0
H1150 H 0.16538 0.94483 0.52376 0.0
H1151 H 0.16263 0.93882 0.58282 0.0
C1152 C 0.11845 0.92493 0.4407 0.0
C1153 C 0.12207 0.90635 0.45895 0.0
C1154 C 0.12045 0.94162 0.46745 0.0
C1155 C 0.12609 0.94021 0.51316 0.0
C1156 C 0.12945 0.92167 0.53178 0.0
H1157 H 0.14018 0.0403 0.70129 0.0
H1158 H 0.13517 0.00675 0.67408 0.0
C1159 C 0.12758 0.90492 0.50489 0.0
C1160 C 0.12813 0.95824 0.54091 0.0
H1161 H 0.16104 0.98612 0.59914 0.0
C1162 C 0.11212 0.97092 0.54391 0.0
C1163 C 0.14593 0.96364 0.56175 0.0
C1164 C 0.16387 0.95105 0.55838 0.0
C1165 C 0.11357 0.98898 0.56602 0.0
C1166 C 0.13148 0.99458 0.58566 0.0
C1167 C 0.14729 0.98168 0.58428 0.0
C1168 C 0.13457 0.01462 0.603 0.0
C1169 C 0.09608 1.00223 0.56735 0.0
C1170 C 0.13605 0.03003 0.57205 0.0
C1171 C 0.13904 0.04903 0.58729 0.0
C1172 C 0.14054 0.05314 0.63401 0.0
C1173 C 0.13904 0.03765 0.66514 0.0
C1174 C 0.13622 0.0185 0.64968 0.0
H1175 H 0.0824 0.99433 0.5592 0.0
H1176 H 0.0946 0.00908 0.60133 0.0
H1177 H 0.09802 0.01405 0.54204 0.0
H1178 H 0.13493 0.02732 0.53589 0.0
H1179 H 0.14004 0.06052 0.56222 0.0
H1180 H 0.06482 0.86387 0.48571 0.0
H1181 H 0.03131 0.86967 0.50894 0.0
H1182 H 0.01339 0.87153 0.36884 0.0
H1183 H 0.04726 0.86578 0.34474 0.0
H1184 H 0.00516 0.90505 0.46726 0.0
H1185 H 0.97878 0.8286 0.45101 0.0
H1186 H 1.004 0.83354 0.46411 0.0
H1187 H 0.99472 0.83911 0.4088 0.0
C1188 C 0.05385 0.86544 0.45956 0.0
C1189 C 0.0588 0.86429 0.41321 0.0
C1190 C 0.03467 0.86881 0.47304 0.0
C1191 C 0.01992 0.87097 0.44066 0.0
C1192 C 0.02463 0.86984 0.39432 0.0
H1193 H 0.89656 0.87655 0.52218 0.0
H1194 H 0.9259 0.87339 0.47536 0.0
C1195 C 0.04397 0.86657 0.38065 0.0
C1196 C 0.99972 0.87458 0.45627 0.0
H1197 H 0.95816 0.85091 0.48804 0.0
C1198 C 0.99473 0.89331 0.47117 0.0
C1199 C 0.98617 0.85925 0.4611 0.0
C1200 C 0.99102 0.83892 0.44549 0.0
C1201 C 0.97672 0.897 0.49213 0.0
C1202 C 0.96358 0.88141 0.49954 0.0
C1203 C 0.96824 0.86284 0.48267 0.0
C1204 C 0.9456 0.8838 0.52729 0.0
C1205 C 0.97205 0.91756 0.50646 0.0
C1206 C 0.94689 0.89045 0.57227 0.0
C1207 C 0.93019 0.89234 0.59904 0.0
C1208 C 0.91176 0.88739 0.58168 0.0
C1209 C 0.91049 0.88052 0.53671 0.0
C1210 C 0.92726 0.87871 0.50984 0.0
H1211 H 0.98002 0.92835 0.48535 0.0
H1212 H 0.9562 0.92058 0.50394 0.0
H1213 H 0.97663 0.91969 0.54224 0.0
H1214 H 0.96091 0.89395 0.58701 0.0
H1215 H 0.93181 0.89749 0.63358 0.0
H1216 H 0.33364 0.17775 0.11192 0.0
H1217 H 0.33564 0.21287 0.1235 0.0
H1218 H 0.39827 0.20993 0.11539 0.0
H1219 H 0.39633 0.17475 0.10241 0.0
H1220 H 0.352 0.23214 0.19234 0.0
H1221 H 0.38742 0.25476 0.03145 0.0
H1222 H 0.37752 0.23069 0.03957 0.0
H1223 H 0.40095 0.23689 0.06271 0.0
C1224 C 0.34785 0.1846 0.11187 0.0
C1225 C 0.36483 0.17344 0.10596 0.0
C1226 C 0.34897 0.2047 0.11871 0.0
C1227 C 0.36709 0.21415 0.12003 0.0
C1228 C 0.38409 0.2031 0.11355 0.0
H1229 H 0.37663 0.33342 0.23174 0.0
H1230 H 0.37918 0.29796 0.22272 0.0
C1231 C 0.38297 0.18296 0.10618 0.0
C1232 C 0.36799 0.23542 0.1299 0.0
H1233 H 0.38336 0.27909 0.08749 0.0
C1234 C 0.35888 0.24241 0.16942 0.0
C1235 C 0.37688 0.24885 0.09993 0.0
C1236 C 0.38609 0.24249 0.05583 0.0
C1237 C 0.35809 0.26242 0.17939 0.0
C1238 C 0.36713 0.27584 0.14961 0.0
C1239 C 0.37655 0.26881 0.11052 0.0
C1240 C 0.36572 0.29731 0.15622 0.0
C1241 C 0.34693 0.269 0.22076 0.0
C1242 C 0.35767 0.30882 0.12167 0.0
C1243 C 0.35646 0.32899 0.12647 0.0
C1244 C 0.3632 0.33824 0.1661 0.0
C1245 C 0.37114 0.32673 0.201 0.0
C1246 C 0.37253 0.30645 0.19593 0.0
H1247 H 0.33692 0.2575 0.23342 0.0
H1248 H 0.35734 0.2725 0.24837 0.0
H1249 H 0.33826 0.28227 0.21331 0.0
H1250 H 0.35225 0.30217 0.09079 0.0
H1251 H 0.35018 0.33733 0.09891 0.0
H1252 H 0.3292 0.61788 0.84154 0.0
H1253 H 0.29374 0.61594 0.85068 0.0
H1254 H 0.29314 0.67402 0.90614 0.0
H1255 H 0.32827 0.67625 0.89644 0.0
H1256 H 0.27148 0.6189 0.92929 0.0
H1257 H 0.25176 0.67738 0.80819 0.0
H1258 H 0.27576 0.66674 0.81002 0.0
H1259 H 0.2689 0.68516 0.85041 0.0
C1260 C 0.32149 0.63032 0.85516 0.0
C1261 C 0.33162 0.64727 0.86788 0.0
C1262 C 0.30123 0.62915 0.86058 0.0
C1263 C 0.29074 0.64493 0.87856 0.0
C1264 C 0.30084 0.66182 0.89131 0.0
H1265 H 0.17242 0.64419 0.99116 0.0
H1266 H 0.20798 0.64409 0.98203 0.0
C1267 C 0.321 0.66302 0.88583 0.0
C1268 C 0.26929 0.64373 0.88499 0.0
H1269 H 0.22665 0.6664 0.85763 0.0
C1270 C 0.26164 0.6292 0.91344 0.0
C1271 C 0.25645 0.65708 0.864 0.0
C1272 C 0.26359 0.67235 0.8311 0.0
C1273 C 0.24152 0.62785 0.92197 0.0
C1274 C 0.22876 0.64162 0.90217 0.0
C1275 C 0.23643 0.65598 0.87328 0.0
C1276 C 0.20729 0.64094 0.90887 0.0
C1277 C 0.2341 0.61146 0.95134 0.0
C1278 C 0.19506 0.63952 0.8709 0.0
C1279 C 0.17488 0.63983 0.87595 0.0
C1280 C 0.16632 0.64156 0.9192 0.0
C1281 C 0.17853 0.64275 0.95743 0.0
C1282 C 0.19886 0.64258 0.95226 0.0
H1283 H 0.24489 0.59947 0.95414 0.0
H1284 H 0.23122 0.61707 0.98602 0.0
H1285 H 0.22029 0.60543 0.93766 0.0
H1286 H 0.20117 0.63825 0.8371 0.0
H1287 H 0.16598 0.63875 0.84569 0.0
H1288 H 0.64996 0.84032 0.19316 0.0
H1289 H 0.64953 0.80495 0.19902 0.0
H1290 H 0.64702 0.80031 0.05318 0.0
H1291 H 0.64757 0.83596 0.04679 0.0
H1292 H 0.62087 0.77876 0.16708 0.0
H1293 H 0.69319 0.76481 0.08886 0.0
H1294 H 0.68594 0.78859 0.10878 0.0
H1295 H 0.6768 0.77946 0.05577 0.0
C1296 C 0.6494 0.83187 0.16215 0.0
C1297 C 0.6489 0.84105 0.1194 0.0
C1298 C 0.64911 0.8116 0.16567 0.0
C1299 C 0.64846 0.79997 0.1266 0.0
C1300 C 0.64784 0.80901 0.08379 0.0
H1301 H 0.64826 0.67539 0.08302 0.0
H1302 H 0.64822 0.71071 0.07649 0.0
C1303 C 0.64807 0.82938 0.08019 0.0
C1304 C 0.64816 0.77842 0.13116 0.0
H1305 H 0.67425 0.73729 0.10798 0.0
C1306 C 0.63254 0.76967 0.15421 0.0
C1307 C 0.66342 0.76661 0.11445 0.0
C1308 C 0.68089 0.77528 0.09088 0.0
C1309 C 0.6316 0.74939 0.16033 0.0
C1310 C 0.64692 0.73756 0.14384 0.0
C1311 C 0.66253 0.74635 0.12075 0.0
C1312 C 0.64679 0.71599 0.14879 0.0
C1313 C 0.61395 0.74079 0.18337 0.0
C1314 C 0.64617 0.70708 0.19178 0.0
C1315 C 0.64609 0.68673 0.19574 0.0
C1316 C 0.64683 0.67491 0.15676 0.0
C1317 C 0.64768 0.68395 0.11387 0.0
C1318 C 0.64767 0.70421 0.10998 0.0
H1319 H 0.60144 0.75104 0.18316 0.0
H1320 H 0.60941 0.72703 0.16665 0.0
H1321 H 0.61756 0.7375 0.21928 0.0
H1322 H 0.64591 0.71587 0.2223 0.0
H1323 H 0.64555 0.68027 0.22926 0.0
H1324 H 0.83269 0.39378 0.93483 0.0
H1325 H 0.79753 0.39647 0.92233 0.0
H1326 H 0.79316 0.33391 0.9148 0.0
H1327 H 0.82825 0.33115 0.92585 0.0
H1328 H 0.77427 0.35056 0.84597 0.0
H1329 H 0.75255 0.38674 1.00657 0.0
H1330 H 0.7707 0.39984 0.97517 0.0
H1331 H 0.77639 0.37631 0.99845 0.0
C1332 C 0.82417 0.38059 0.9313 0.0
C1333 C 0.83326 0.36225 0.93147 0.0
C1334 C 0.80405 0.38215 0.92421 0.0
C1335 C 0.79261 0.36538 0.91803 0.0
C1336 C 0.80164 0.34706 0.91937 0.0
H1337 H 0.66875 0.35224 0.93828 0.0
H1338 H 0.70397 0.35304 0.94704 0.0
C1339 C 0.82172 0.34551 0.92589 0.0
C1340 C 0.77138 0.36674 0.90824 0.0
H1341 H 0.72813 0.38331 0.95042 0.0
C1342 C 0.76417 0.35773 0.86882 0.0
C1343 C 0.75818 0.37601 0.93815 0.0
C1344 C 0.76478 0.38512 0.98216 0.0
C1345 C 0.74417 0.35744 0.85883 0.0
C1346 C 0.73099 0.3669 0.88846 0.0
C1347 C 0.73823 0.37618 0.92751 0.0
C1348 C 0.70952 0.3662 0.88155 0.0
C1349 C 0.73731 0.34636 0.81756 0.0
C1350 C 0.70078 0.37327 0.84162 0.0
C1351 C 0.68049 0.3726 0.83618 0.0
C1352 C 0.66859 0.36515 0.87095 0.0
C1353 C 0.67743 0.35815 0.91083 0.0
C1354 C 0.69762 0.35863 0.91598 0.0
H1355 H 0.74849 0.33593 0.80529 0.0
H1356 H 0.72373 0.33819 0.82495 0.0
H1357 H 0.73427 0.3568 0.7897 0.0
H1358 H 0.7096 0.37958 0.81493 0.0
H1359 H 0.67412 0.37829 0.80528 0.0
H1360 H 0.876 0.67164 0.55036 0.0
H1361 H 0.87916 0.70709 0.55856 0.0
H1362 H 0.85261 0.70381 0.69105 0.0
H1363 H 0.8499 0.66864 0.68373 0.0
H1364 H 0.85282 0.73543 0.56974 0.0
H1365 H 0.90073 0.7344 0.72026 0.0
H1366 H 0.89575 0.71283 0.68731 0.0
H1367 H 0.87887 0.72083 0.73029 0.0
C1368 C 0.87087 0.6785 0.58122 0.0
C1369 C 0.86289 0.66726 0.61656 0.0
C1370 C 0.87272 0.69875 0.58592 0.0
C1371 C 0.86661 0.70809 0.62597 0.0
C1372 C 0.85806 0.69692 0.66051 0.0
H1373 H 0.83288 0.82763 0.66307 0.0
H1374 H 0.83521 0.79257 0.65107 0.0
C1375 C 0.85638 0.67677 0.65606 0.0
C1376 C 0.86852 0.72955 0.6315 0.0
H1377 H 0.88415 0.76459 0.70542 0.0
C1378 C 0.85987 0.7418 0.59914 0.0
C1379 C 0.87808 0.73797 0.66936 0.0
C1380 C 0.88907 0.72581 0.70348 0.0
C1381 C 0.85975 0.76213 0.60462 0.0
C1382 C 0.86803 0.77043 0.64422 0.0
C1383 C 0.87747 0.75825 0.67551 0.0
C1384 C 0.86669 0.79164 0.65419 0.0
C1385 C 0.85085 0.77447 0.56768 0.0
C1386 C 0.88353 0.80271 0.66258 0.0
C1387 C 0.8822 0.82279 0.67043 0.0
C1388 C 0.86401 0.83217 0.66988 0.0
C1389 C 0.84714 0.82091 0.66319 0.0
C1390 C 0.84847 0.80086 0.65586 0.0
H1391 H 0.85117 0.76688 0.53438 0.0
H1392 H 0.83538 0.77742 0.57614 0.0
H1393 H 0.85856 0.7886 0.56417 0.0
H1394 H 0.89774 0.79589 0.66198 0.0
H1395 H 0.89547 0.83105 0.67537 0.0
H1396 H 0.83773 0.14712 0.44984 0.0
H1397 H 0.80239 0.14722 0.45531 0.0
H1398 H 0.79803 0.14673 0.30927 0.0
H1399 H 0.83367 0.14625 0.30334 0.0
H1400 H 0.77638 0.17405 0.42444 0.0
H1401 H 0.7621 0.10216 0.34493 0.0
H1402 H 0.78612 0.10965 0.36267 0.0
H1403 H 0.77605 0.11855 0.31029 0.0
C1404 C 0.82934 0.14697 0.4187 0.0
C1405 C 0.83861 0.14663 0.37605 0.0
C1406 C 0.80907 0.14704 0.42199 0.0
C1407 C 0.79751 0.14674 0.38279 0.0
C1408 C 0.80664 0.14656 0.34004 0.0
H1409 H 0.67316 0.1511 0.33793 0.0
H1410 H 0.70852 0.15049 0.33191 0.0
C1411 C 0.82703 0.14641 0.33668 0.0
C1412 C 0.77593 0.14707 0.38721 0.0
H1413 H 0.73456 0.12157 0.36229 0.0
C1414 C 0.76724 0.16254 0.41097 0.0
C1415 C 0.76401 0.13201 0.36977 0.0
C1416 C 0.77251 0.11455 0.34584 0.0
C1417 C 0.74697 0.16352 0.41716 0.0
C1418 C 0.73507 0.1485 0.39964 0.0
C1419 C 0.74373 0.13305 0.37581 0.0
C1420 C 0.71353 0.14887 0.40427 0.0
C1421 C 0.73842 0.18085 0.44152 0.0
C1422 C 0.70452 0.148 0.44709 0.0
C1423 C 0.68415 0.14834 0.45078 0.0
C1424 C 0.67247 0.14953 0.41165 0.0
C1425 C 0.68163 0.15026 0.36889 0.0
C1426 C 0.70189 0.14987 0.36528 0.0
H1427 H 0.74896 0.19308 0.44393 0.0
H1428 H 0.72511 0.18609 0.42397 0.0
H1429 H 0.73429 0.1765 0.4765 0.0
H1430 H 0.71323 0.14691 0.47763 0.0
H1431 H 0.6776 0.14765 0.48419 0.0
H1432 H 0.15951 0.33505 0.69481 0.0
H1433 H 0.15853 0.29982 0.70362 0.0
H1434 H 0.13136 0.29436 0.57221 0.0
H1435 H 0.13283 0.32982 0.5625 0.0
H1436 H 0.12822 0.27587 0.70803 0.0
H1437 H 0.17441 0.25498 0.56133 0.0
H1438 H 0.17251 0.27978 0.58093 0.0
H1439 H 0.15363 0.26941 0.54618 0.0
C1440 C 0.15344 0.3264 0.66751 0.0
C1441 C 0.14631 0.33529 0.62781 0.0
C1442 C 0.15286 0.3062 0.67269 0.0
C1443 C 0.14505 0.29433 0.63847 0.0
C1444 C 0.13786 0.30313 0.59872 0.0
H1445 H 0.11501 0.17172 0.69097 0.0
H1446 H 0.11325 0.207 0.67947 0.0
C1447 C 0.13864 0.32342 0.59325 0.0
C1448 C 0.14416 0.27286 0.64543 0.0
H1449 H 0.15935 0.22935 0.60184 0.0
C1450 C 0.13501 0.26569 0.68476 0.0
C1451 C 0.15319 0.25956 0.61537 0.0
C1452 C 0.16415 0.26628 0.57381 0.0
C1453 C 0.13484 0.24571 0.69512 0.0
C1454 C 0.1436 0.23238 0.66469 0.0
C1455 C 0.15255 0.23952 0.6251 0.0
C1456 C 0.14443 0.21106 0.67395 0.0
C1457 C 0.12587 0.23919 0.73937 0.0
C1458 C 0.16248 0.20148 0.67428 0.0
C1459 C 0.1635 0.18132 0.68024 0.0
C1460 C 0.14647 0.17023 0.68625 0.0
C1461 C 0.12841 0.17987 0.68708 0.0
C1462 C 0.12739 0.20007 0.68058 0.0
H1463 H 0.12479 0.25136 0.76409 0.0
H1464 H 0.11093 0.23373 0.73288 0.0
H1465 H 0.13446 0.22726 0.75505 0.0
H1466 H 0.17584 0.2096 0.66935 0.0
H1467 H 0.17765 0.17439 0.67941 0.0
H1468 H 0.34209 0.86492 0.342 0.0
H1469 H 0.30685 0.86519 0.33439 0.0
H1470 H 0.30081 0.86109 0.47983 0.0
H1471 H 0.3364 0.86121 0.48795 0.0
H1472 H 0.28137 0.83726 0.35792 0.0
H1473 H 0.264 0.90564 0.44973 0.0
H1474 H 0.28846 0.89936 0.43274 0.0
H1475 H 0.27784 0.88845 0.4824 0.0
C1476 C 0.33336 0.86416 0.37257 0.0
C1477 C 0.34214 0.86302 0.41568 0.0
C1478 C 0.31314 0.86433 0.36807 0.0
C1479 C 0.30113 0.86336 0.40648 0.0
C1480 C 0.30977 0.86225 0.44971 0.0
H1481 H 0.17989 0.82865 0.40115 0.0
H1482 H 0.2151 0.83075 0.40926 0.0
C1483 C 0.33012 0.86219 0.4543 0.0
C1484 C 0.27962 0.86269 0.40051 0.0
H1485 H 0.23719 0.88603 0.42718 0.0
C1486 C 0.27172 0.84796 0.37304 0.0
C1487 C 0.26705 0.87681 0.41962 0.0
C1488 C 0.27473 0.89358 0.44742 0.0
C1489 C 0.25165 0.84682 0.36453 0.0
C1490 C 0.23899 0.86054 0.38484 0.0
C1491 C 0.24688 0.87545 0.41185 0.0
C1492 C 0.21751 0.85938 0.37921 0.0
C1493 C 0.24423 0.83111 0.33315 0.0
C1494 C 0.20701 0.87496 0.36033 0.0
C1495 C 0.18672 0.87387 0.35583 0.0
C1496 C 0.17655 0.85721 0.37036 0.0
C1497 C 0.18718 0.84165 0.38915 0.0
C1498 C 0.20739 0.84278 0.39372 0.0
H1499 H 0.2559 0.82566 0.3103 0.0
H1500 H 0.23895 0.81863 0.35368 0.0
H1501 H 0.23197 0.83647 0.31201 0.0
H1502 H 0.21453 0.88796 0.34908 0.0
H1503 H 0.179 0.88617 0.34151 0.0
H1504 H 0.21839 0.10535 0.7104 0.0
H1505 H 0.24483 0.10364 0.76685 0.0
H1506 H 0.20248 0.1037 0.87488 0.0
H1507 H 0.17633 0.10515 0.81951 0.0
H1508 H 0.2524 0.131 0.83768 0.0
H1509 H 0.23753 0.05787 0.90927 0.0
H1510 H 0.22772 0.06578 0.85546 0.0
H1511 H 0.21658 0.07347 0.90772 0.0
C1512 C 0.21476 0.10476 0.74615 0.0
C1513 C 0.1952 0.10548 0.76027 0.0
C1514 C 0.22986 0.10384 0.77839 0.0
C1515 C 0.22564 0.10328 0.82519 0.0
C1516 C 0.20615 0.10375 0.8391 0.0
H1517 H 0.2926 0.10674 0.07934 0.0
H1518 H 0.2664 0.10493 0.02227 0.0
C1519 C 0.19116 0.10478 0.80717 0.0
C1520 C 0.24144 0.10327 0.85994 0.0
H1521 H 0.2591 0.07815 0.9515 0.0
C1522 C 0.254 0.11936 0.86226 0.0
C1523 C 0.24335 0.08821 0.89253 0.0
C1524 C 0.2307 0.07026 0.89102 0.0
C1525 C 0.26813 0.12097 0.89663 0.0
C1526 C 0.27011 0.10587 0.92916 0.0
C1527 C 0.25755 0.08977 0.92683 0.0
C1528 C 0.28576 0.10619 0.9643 0.0
C1529 C 0.28052 0.13911 0.8984 0.0
C1530 C 0.30531 0.10691 0.95084 0.0
C1531 C 0.32015 0.10799 0.9831 0.0
C1532 C 0.31594 0.10821 0.02994 0.0
C1533 C 0.29637 0.10671 0.04363 0.0
C1534 C 0.2814 0.1057 1.01103 0.0
H1535 H 0.27346 0.15147 0.88052 0.0
H1536 H 0.28351 0.14352 0.934 0.0
H1537 H 0.29464 0.13621 0.88138 0.0
H1538 H 0.30914 0.10671 0.91517 0.0
H1539 H 0.33502 0.10868 0.97104 0.0
H1540 H 0.08801 0.67461 0.06598 0.0
H1541 H 0.08927 0.70008 0.12324 0.0
H1542 H 0.12381 0.73569 0.03352 0.0
H1543 H 0.12236 0.71018 0.97517 0.0
H1544 H 0.12015 0.71506 0.16714 0.0
H1545 H 0.08251 0.77401 0.07316 0.0
H1546 H 0.08244 0.74907 0.05392 0.0
H1547 H 0.10328 0.76434 0.0439 0.0
C1548 C 0.09577 0.6879 0.05796 0.0
C1549 C 0.10502 0.69031 1.01558 0.0
C1550 C 0.0965 0.70249 0.09101 0.0
C1551 C 0.10643 0.71997 0.08278 0.0
C1552 C 0.11567 0.72253 0.04048 0.0
H1553 H 0.13227 0.82243 0.2415 0.0
H1554 H 0.12981 0.79652 0.18567 0.0
C1555 C 0.11489 0.70789 1.00712 0.0
C1556 C 0.10752 0.73509 0.11922 0.0
H1557 H 0.09714 0.78268 0.14328 0.0
C1558 C 0.11503 0.72983 0.16195 0.0
C1559 C 0.10077 0.75437 0.11272 0.0
C1560 C 0.09162 0.76079 0.06862 0.0
C1561 C 0.1164 0.74334 0.19779 0.0
C1562 C 0.1098 0.76265 0.19113 0.0
C1563 C 0.10218 0.76789 0.14852 0.0
C1564 C 0.11154 0.77797 0.22693 0.0
C1565 C 0.12541 0.73696 0.24207 0.0
C1566 C 0.10213 0.77628 0.26927 0.0
C1567 C 0.10349 0.79127 0.30174 0.0
C1568 C 0.11414 0.80829 0.29225 0.0
C1569 C 0.1237 0.80971 0.25003 0.0
C1570 C 0.12236 0.79483 0.21787 0.0
H1571 H 0.13382 0.72324 0.23825 0.0
H1572 H 0.13522 0.74839 0.25574 0.0
H1573 H 0.1137 0.73436 0.26732 0.0
H1574 H 0.09341 0.76356 0.27688 0.0
H1575 H 0.09586 0.78971 0.33371 0.0
H1576 H 0.71609 0.88584 0.06556 0.0
H1577 H 0.74158 0.88473 1.00691 0.0
H1578 H 0.70549 0.91897 0.91778 0.0
H1579 H 0.68029 0.92038 0.9757 0.0
H1580 H 0.73817 0.86953 0.91738 0.0
H1581 H 0.75753 0.94791 0.91281 0.0
H1582 H 0.74414 0.93715 0.95922 0.0
H1583 H 0.73195 0.94316 0.90707 0.0
C1584 C 0.71371 0.89336 0.03372 0.0
C1585 C 0.69611 0.90325 0.02563 0.0
C1586 C 0.72826 0.89265 1.00014 0.0
C1587 C 0.72558 0.902 0.95807 0.0
C1588 C 0.70811 0.91198 0.95017 0.0
H1589 H 0.79478 0.91168 0.70726 0.0
H1590 H 0.76839 0.91335 0.7638 0.0
C1591 C 0.69362 0.91265 0.98346 0.0
C1592 C 0.74057 0.90071 0.9215 0.0
H1593 H 0.77005 0.92824 0.85321 0.0
C1594 C 0.74523 0.88236 0.90357 0.0
C1595 C 0.74963 0.91747 0.90298 0.0
C1596 C 0.74572 0.93753 0.92171 0.0
C1597 C 0.7585 0.88032 0.86744 0.0
C1598 C 0.7677 0.89705 0.84918 0.0
C1599 C 0.76294 0.91542 0.86691 0.0
C1600 C 0.78321 0.89564 0.81382 0.0
C1601 C 0.76229 0.86024 0.84863 0.0
C1602 C 0.80031 0.88526 0.82309 0.0
C1603 C 0.81527 0.88426 0.79104 0.0
C1604 C 0.81368 0.89378 0.7488 0.0
C1605 C 0.79647 0.90411 0.73927 0.0
C1606 C 0.78142 0.90513 0.77164 0.0
H1607 H 0.75007 0.85013 0.85617 0.0
H1608 H 0.76455 0.86069 0.81131 0.0
H1609 H 0.77562 0.85421 0.86458 0.0
H1610 H 0.80227 0.87812 0.85556 0.0
H1611 H 0.82817 0.87602 0.79969 0.0
H1612 H 0.87774 0.32635 0.05908 0.0
H1613 H 0.87964 0.30043 0.11496 0.0
H1614 H 0.91251 0.26532 0.02093 0.0
H1615 H 0.91105 0.2917 0.96443 0.0
H1616 H 0.86649 0.26268 0.1119 0.0
H1617 H 0.94675 0.26455 0.13489 0.0
H1618 H 0.93365 0.28358 0.10573 0.0
H1619 H 0.93863 0.26094 0.0775 0.0
C1620 C 0.88553 0.31323 0.05005 0.0
C1621 C 0.89449 0.3113 1.00722 0.0
C1622 C 0.8865 0.29831 0.08219 0.0
C1623 C 0.89647 0.281 0.07263 0.0
C1624 C 0.90505 0.27871 0.0295 0.0
H1625 H 0.91751 0.17729 0.23318 0.0
H1626 H 0.91615 0.20258 0.17552 0.0
C1627 C 0.90407 0.29373 0.99706 0.0
C1628 C 0.89765 0.26555 0.1082 0.0
H1629 H 0.92947 0.24053 0.17583 0.0
C1630 C 0.88027 0.25783 0.12586 0.0
C1631 C 0.91562 0.25928 0.12668 0.0
C1632 C 0.93475 0.26759 0.11062 0.0
C1633 C 0.88035 0.2439 0.16093 0.0
C1634 C 0.8983 0.23772 0.17961 0.0
C1635 C 0.9157 0.24534 0.16176 0.0
C1636 C 0.89941 0.22272 0.21621 0.0
C1637 C 0.86121 0.23559 0.17697 0.0
C1638 C 0.89074 0.22566 0.259 0.0
C1639 C 0.89145 0.21107 0.29248 0.0
C1640 C 0.90089 0.19328 0.28379 0.0
C1641 C 0.90997 0.19069 0.24126 0.0
C1642 C 0.90926 0.2052 0.20806 0.0
H1643 H 0.84931 0.23831 0.15222 0.0
H1644 H 0.86239 0.21966 0.18276 0.0
H1645 H 0.85711 0.24256 0.20959 0.0
H1646 H 0.88336 0.23921 0.26647 0.0
H1647 H 0.88433 0.2136 0.32476 0.0
H1648 H 0.33181 0.40309 0.31875 0.0
H1649 H 0.30601 0.40125 0.37483 0.0
H1650 H 0.26422 0.38991 0.26879 0.0
H1651 H 0.29042 0.39085 0.21202 0.0
H1652 H 0.27563 0.42295 0.38782 0.0
H1653 H 0.24948 0.34786 0.3557 0.0
H1654 H 0.27158 0.35717 0.33078 0.0
H1655 H 0.2483 0.36311 0.30636 0.0
C1656 C 0.31719 0.40001 0.30704 0.0
C1657 C 0.31331 0.39699 0.26058 0.0
C1658 C 0.30236 0.39902 0.33941 0.0
C1659 C 0.28309 0.39516 0.32649 0.0
C1660 C 0.27901 0.39238 0.28002 0.0
H1661 H 0.17493 0.40474 0.47473 0.0
H1662 H 0.20103 0.40366 0.41888 0.0
C1663 C 0.294 0.39309 0.24744 0.0
C1664 C 0.26744 0.39476 0.36191 0.0
H1665 H 0.23049 0.36716 0.40625 0.0
C1666 C 0.26589 0.41065 0.3919 0.0
C1667 C 0.25468 0.37871 0.36772 0.0
C1668 C 0.25618 0.36066 0.33875 0.0
C1669 C 0.25191 0.41102 0.42684 0.0
C1670 C 0.23903 0.39517 0.43204 0.0
C1671 C 0.24046 0.37928 0.40223 0.0
C1672 C 0.22331 0.39536 0.46681 0.0
C1673 C 0.25073 0.42849 0.45774 0.0
C1674 C 0.22716 0.39101 0.5126 0.0
C1675 C 0.21211 0.39143 0.54502 0.0
C1676 C 0.19299 0.39638 0.5322 0.0
C1677 C 0.18938 0.40082 0.48619 0.0
C1678 C 0.20431 0.40021 0.45395 0.0
H1679 H 0.26114 0.44012 0.44786 0.0
H1680 H 0.23574 0.43454 0.45724 0.0
H1681 H 0.25392 0.42396 0.49314 0.0
H1682 H 0.24178 0.38724 0.52319 0.0
H1683 H 0.21546 0.38791 0.57999 0.0
H1684 H 0.37688 0.68225 0.73501 0.0
H1685 H 0.37955 0.70811 0.6791 0.0
H1686 H 0.41344 0.74226 0.77309 0.0
H1687 H 0.41131 0.7159 0.82947 0.0
H1688 H 0.36742 0.74574 0.68119 0.0
H1689 H 0.44772 0.7429 0.6601 0.0
H1690 H 0.43429 0.72417 0.68955 0.0
H1691 H 0.43959 0.74686 0.71733 0.0
C1692 C 0.3851 0.69514 0.74397 0.0
C1693 C 0.39416 0.69678 0.78676 0.0
C1694 C 0.38649 0.71003 0.71183 0.0
C1695 C 0.39697 0.72706 0.72134 0.0
C1696 C 0.40563 0.72908 0.76446 0.0
H1697 H 0.41957 0.8311 0.56248 0.0
H1698 H 0.41766 0.80575 0.62001 0.0
C1699 C 0.40425 0.71407 0.79687 0.0
C1700 C 0.39854 0.74253 0.68584 0.0
H1701 H 0.431 0.76746 0.61955 0.0
C1702 C 0.38134 0.75047 0.66771 0.0
C1703 C 0.41667 0.74868 0.66796 0.0
C1704 C 0.43563 0.74012 0.68435 0.0
C1705 C 0.38177 0.76448 0.63281 0.0
C1706 C 0.39989 0.77056 0.61482 0.0
C1707 C 0.4171 0.76274 0.63311 0.0
C1708 C 0.40135 0.78561 0.57837 0.0
C1709 C 0.36282 0.77297 0.61617 0.0
C1710 C 0.39309 0.7827 0.53513 0.0
C1711 C 0.39415 0.7973 0.50172 0.0
C1712 C 0.40353 0.81509 0.5109 0.0
C1713 C 0.41214 0.81768 0.55395 0.0
C1714 C 0.41111 0.80314 0.58709 0.0
H1715 H 0.3507 0.77022 0.64033 0.0
H1716 H 0.36416 0.78892 0.61082 0.0
H1717 H 0.35894 0.76619 0.5832 0.0
H1718 H 0.38577 0.76915 0.52726 0.0
H1719 H 0.38738 0.79476 0.46905 0.0
H1720 H 0.71645 0.61424 0.20205 0.0
H1721 H 0.74261 0.61315 0.25914 0.0
H1722 H 0.69968 0.61312 0.36599 0.0
H1723 H 0.67383 0.61326 0.3099 0.0
H1724 H 0.75359 0.63682 0.32629 0.0
H1725 H 0.73076 0.56729 0.40433 0.0
H1726 H 0.72048 0.57596 0.35179 0.0
H1727 H 0.71141 0.58475 0.40546 0.0
C1728 C 0.71264 0.61389 0.23772 0.0
C1729 C 0.69299 0.61356 0.25121 0.0
C1730 C 0.7276 0.61328 0.27038 0.0
C1731 C 0.72319 0.61248 0.31709 0.0
C1732 C 0.70358 0.61296 0.33037 0.0
H1733 H 0.79113 0.61843 0.56927 0.0
H1734 H 0.76522 0.62036 0.51167 0.0
C1735 C 0.68874 0.61323 0.298 0.0
C1736 C 0.73888 0.61145 0.35225 0.0
H1737 H 0.75345 0.58637 0.44691 0.0
C1738 C 0.7536 0.62569 0.35239 0.0
C1739 C 0.73907 0.59689 0.3865 0.0
C1740 C 0.7247 0.58026 0.38677 0.0
C1741 C 0.76812 0.62599 0.38618 0.0
C1742 C 0.76792 0.61177 0.42091 0.0
C1743 C 0.75336 0.59747 0.42072 0.0
C1744 C 0.78344 0.61078 0.4561 0.0
C1745 C 0.78354 0.64161 0.38488 0.0
C1746 C 0.80213 0.60447 0.44411 0.0
C1747 C 0.8168 0.60311 0.47682 0.0
C1748 C 0.81325 0.60818 0.5225 0.0
C1749 C 0.79443 0.61444 0.53455 0.0
C1750 C 0.77962 0.61558 0.50166 0.0
H1751 H 0.77984 0.65344 0.36064 0.0
H1752 H 0.78563 0.64801 0.41917 0.0
H1753 H 0.79759 0.63506 0.37426 0.0
H1754 H 0.80536 0.60047 0.40932 0.0
H1755 H 0.83101 0.59813 0.46599 0.0
H1756 H 0.62588 0.21831 0.46185 0.0
H1757 H 0.62606 0.24454 0.51872 0.0
H1758 H 0.59652 0.20699 0.61365 0.0
H1759 H 0.59596 0.18109 0.55753 0.0
H1760 H 0.58014 0.24337 0.60971 0.0
H1761 H 0.66021 0.24863 0.63301 0.0
H1762 H 0.65191 0.25113 0.57543 0.0
H1763 H 0.64879 0.22836 0.6045 0.0
C1764 C 0.61939 0.21568 0.49479 0.0
C1765 C 0.61096 0.1975 0.50491 0.0
C1766 C 0.61965 0.23063 0.52744 0.0
C1767 C 0.61154 0.22767 0.57081 0.0
C1768 C 0.60294 0.20965 0.58061 0.0
H1769 H 0.62325 0.29761 0.81903 0.0
H1770 H 0.62429 0.27137 0.76221 0.0
C1771 C 0.60267 0.19479 0.54825 0.0
C1772 C 0.61144 0.24331 0.606 0.0
H1773 H 0.64088 0.27175 0.67232 0.0
C1774 C 0.59343 0.24958 0.62331 0.0
C1775 C 0.62878 0.2512 0.62442 0.0
C1776 C 0.64855 0.24442 0.60878 0.0
C1777 C 0.59227 0.26362 0.65795 0.0
C1778 C 0.60958 0.27189 0.67554 0.0
C1779 C 0.62761 0.26546 0.65874 0.0
C1780 C 0.60911 0.28768 0.71028 0.0
C1781 C 0.57249 0.26927 0.6759 0.0
C1782 C 0.60039 0.30558 0.69995 0.0
C1783 C 0.59971 0.32049 0.7322 0.0
C1784 C 0.60786 0.31798 0.77574 0.0
C1785 C 0.6167 0.30003 0.78607 0.0
C1786 C 0.6174 0.28505 0.75353 0.0
H1787 H 0.56131 0.25808 0.66796 0.0
H1788 H 0.5729 0.27148 0.71324 0.0
H1789 H 0.56789 0.28315 0.65986 0.0
H1790 H 0.59418 0.30811 0.66666 0.0
H1791 H 0.59281 0.33406 0.7227 0.0
H1792 H 0.33609 0.14819 0.43919 0.0
H1793 H 0.34337 0.14691 0.52044 0.0
H1794 H 0.36261 0.0875 0.50621 0.0
H1795 H 0.3554 0.08866 0.42489 0.0
H1796 H 0.32876 0.12339 0.58751 0.0
H1797 H 0.40838 0.11197 0.57167 0.0
H1798 H 0.39342 0.11926 0.52427 0.0
H1799 H 0.39415 0.09418 0.54184 0.0
C1800 C 0.34178 0.1348 0.45332 0.0
C1801 C 0.34522 0.11854 0.4253 0.0
C1802 C 0.34602 0.13413 0.49983 0.0
C1803 C 0.35386 0.11723 0.51946 0.0
C1804 C 0.35706 0.10088 0.49175 0.0
H1805 H 0.38662 0.08268 0.79296 0.0
H1806 H 0.379 0.08439 0.712 0.0
C1807 C 0.35289 0.10156 0.44519 0.0
C1808 C 0.35831 0.11662 0.56903 0.0
H1809 H 0.3949 0.1086 0.64554 0.0
C1810 C 0.34325 0.12026 0.60018 0.0
C1811 C 0.37722 0.11254 0.58568 0.0
C1812 C 0.39427 0.10945 0.55417 0.0
C1813 C 0.34646 0.11954 0.64736 0.0
C1814 C 0.36535 0.11536 0.66397 0.0
C1815 C 0.38042 0.11176 0.63285 0.0
C1816 C 0.36977 0.11448 0.71349 0.0
C1817 C 0.3295 0.12279 0.67901 0.0
C1818 C 0.36732 0.13089 0.74139 0.0
C1819 C 0.37178 0.13 0.7878 0.0
C1820 C 0.37893 0.11271 0.80735 0.0
C1821 C 0.38143 0.09633 0.77914 0.0
C1822 C 0.37697 0.09724 0.73279 0.0
H1823 H 0.31532 0.12089 0.6614 0.0
H1824 H 0.33009 0.11263 0.70829 0.0
H1825 H 0.3301 0.13789 0.69235 0.0
H1826 H 0.3622 0.14449 0.72715 0.0
H1827 H 0.36996 0.14299 0.80819 0.0
H1828 H 0.13203 0.63902 0.62385 0.0
H1829 H 0.13328 0.63276 0.54213 0.0
H1830 H 0.09611 0.68225 0.51809 0.0
H1831 H 0.09453 0.68847 0.59972 0.0
H1832 H 0.10175 0.62495 0.48388 0.0
H1833 H 0.14142 0.69142 0.42954 0.0
H1834 H 0.14073 0.68341 0.48792 0.0
H1835 H 0.12023 0.69591 0.46373 0.0
C1836 C 0.12407 0.64857 0.60127 0.0
C1837 C 0.11321 0.6643 0.61858 0.0
C1838 C 0.12489 0.64502 0.55449 0.0
C1839 C 0.11501 0.65718 0.52389 0.0
C1840 C 0.10421 0.67292 0.54093 0.0
H1841 H 0.09694 0.6564 0.2312 0.0
H1842 H 0.09761 0.66416 0.31231 0.0
C1843 C 0.10335 0.67647 0.58771 0.0
C1844 C 0.11533 0.65289 0.47437 0.0
H1845 H 0.12832 0.67157 0.3711 0.0
C1846 C 0.10766 0.63509 0.45923 0.0
C1847 C 0.12293 0.66619 0.4422 0.0
C1848 C 0.13196 0.68524 0.45654 0.0
C1849 C 0.10709 0.63035 0.41282 0.0
C1850 C 0.11479 0.64359 0.38061 0.0
C1851 C 0.12244 0.66142 0.39575 0.0
C1852 C 0.11502 0.63919 0.33111 0.0
C1853 C 0.09776 0.61141 0.39863 0.0
C1854 C 0.12495 0.62281 0.31445 0.0
C1855 C 0.12463 0.61835 0.26809 0.0
C1856 C 0.1145 0.63027 0.2372 0.0
C1857 C 0.10501 0.64698 0.25387 0.0
C1858 C 0.1053 0.6514 0.3003 0.0
H1859 H 0.08796 0.6056 0.42542 0.0
H1860 H 0.08925 0.61322 0.36686 0.0
H1861 H 0.1093 0.60043 0.39239 0.0
H1862 H 0.13297 0.61345 0.33735 0.0
H1863 H 0.13242 0.6056 0.25639 0.0
H1864 H 0.6924 0.87677 0.43876 0.0
H1865 H 0.68543 0.87536 0.5203 0.0
H1866 H 0.63426 0.91064 0.49992 0.0
H1867 H 0.64101 0.91193 0.41851 0.0
H1868 H 0.68298 0.90427 0.58271 0.0
H1869 H 0.612 0.86623 0.57269 0.0
H1870 H 0.62829 0.86799 0.52478 0.0
H1871 H 0.61262 0.88806 0.5393 0.0
C1872 C 0.67965 0.88421 0.45166 0.0
C1873 C 0.66718 0.89433 0.42199 0.0
C1874 C 0.67565 0.88335 0.49827 0.0
C1875 C 0.65911 0.89258 0.51627 0.0
C1876 C 0.64679 0.90291 0.4868 0.0
H1877 H 0.61172 0.91458 0.78362 0.0
H1878 H 0.61951 0.91343 0.7027 0.0
C1879 C 0.65069 0.90366 0.44019 0.0
C1880 C 0.65506 0.89194 0.56596 0.0
H1881 H 0.62013 0.88036 0.6442 0.0
C1882 C 0.6693 0.89888 0.59617 0.0
C1883 C 0.63722 0.88488 0.58364 0.0
C1884 C 0.62174 0.87619 0.55346 0.0
C1885 C 0.66598 0.89946 0.64329 0.0
C1886 C 0.64802 0.89273 0.6608 0.0
C1887 C 0.63386 0.8856 0.63071 0.0
C1888 C 0.64346 0.89327 0.71016 0.0
C1889 C 0.68152 0.90777 0.67388 0.0
C1890 C 0.6542 0.88213 0.74131 0.0
C1891 C 0.64968 0.88261 0.7877 0.0
C1892 C 0.63425 0.89419 0.80393 0.0
C1893 C 0.62349 0.90526 0.77244 0.0
C1894 C 0.628 0.90472 0.72611 0.0
H1895 H 0.69255 0.91622 0.65453 0.0
H1896 H 0.67499 0.91738 0.70011 0.0
H1897 H 0.68911 0.89569 0.69152 0.0
H1898 H 0.66596 0.87289 0.72968 0.0
H1899 H 0.65809 0.87366 0.81073 0.0
H1900 H 0.92144 0.38992 0.2479 0.0
H1901 H 0.9199 0.38242 0.32896 0.0
H1902 H 0.86487 0.35348 0.30908 0.0
H1903 H 0.86617 0.36109 0.22796 0.0
H1904 H 0.8919 0.39286 0.3932 0.0
H1905 H 0.89672 0.31249 0.37715 0.0
H1906 H 0.90244 0.32873 0.33084 0.0
H1907 H 0.8775 0.32339 0.34458 0.0
C1908 C 0.90891 0.3821 0.26071 0.0
C1909 C 0.89394 0.3761 0.23116 0.0
C1910 C 0.90811 0.37772 0.30711 0.0
C1911 C 0.89242 0.36713 0.32509 0.0
C1912 C 0.87735 0.36128 0.29588 0.0
H1913 H 0.86142 0.32745 0.5965 0.0
H1914 H 0.86261 0.33491 0.51534 0.0
C1915 C 0.87812 0.36566 0.24943 0.0
C1916 C 0.8917 0.36257 0.37452 0.0
H1917 H 0.89013 0.32499 0.45059 0.0
C1918 C 0.89159 0.37802 0.40576 0.0
C1919 C 0.89126 0.3432 0.39094 0.0
C1920 C 0.89216 0.32597 0.35923 0.0
C1921 C 0.89073 0.37465 0.45284 0.0
C1922 C 0.89034 0.35528 0.46929 0.0
C1923 C 0.89042 0.33983 0.43803 0.0
C1924 C 0.8898 0.35072 0.51875 0.0
C1925 C 0.88976 0.3919 0.4845 0.0
C1926 C 0.90484 0.35687 0.54774 0.0
C1927 C 0.90424 0.35256 0.59423 0.0
C1928 C 0.88866 0.34185 0.61277 0.0
C1929 C 0.87375 0.33552 0.58345 0.0
C1930 C 0.87435 0.33986 0.537 0.0
H1931 H 0.88491 0.40528 0.46662 0.0
H1932 H 0.87969 0.38904 0.51323 0.0
H1933 H 0.90447 0.39471 0.49862 0.0
H1934 H 0.91716 0.36486 0.53434 0.0
H1935 H 0.91615 0.35738 0.61553 0.0
H1936 H 0.36138 0.36458 0.47871 0.0
H1937 H 0.35263 0.36388 0.55934 0.0
H1938 H 0.38082 0.41934 0.57873 0.0
H1939 H 0.38896 0.42052 0.49813 0.0
H1940 H 0.3763 0.36439 0.63503 0.0
H1941 H 0.32786 0.42886 0.63551 0.0
H1942 H 0.33574 0.41721 0.58374 0.0
H1943 H 0.35157 0.43395 0.61283 0.0
C1944 C 0.36549 0.37676 0.49998 0.0
C1945 C 0.37585 0.39264 0.48172 0.0
C1946 C 0.36059 0.37627 0.54616 0.0
C1947 C 0.36579 0.39169 0.57502 0.0
C1948 C 0.37629 0.40744 0.55703 0.0
H1949 H 0.36002 0.41807 0.86141 0.0
H1950 H 0.36631 0.41679 0.77969 0.0
C1951 C 0.38118 0.40796 0.51094 0.0
C1952 C 0.36069 0.39116 0.62415 0.0
H1953 H 0.33769 0.4168 0.70795 0.0
C1954 C 0.36769 0.37574 0.6509 0.0
C1955 C 0.34942 0.40597 0.64488 0.0
C1956 C 0.34054 0.42233 0.6177 0.0
C1957 C 0.36426 0.37507 0.69798 0.0
C1958 C 0.35336 0.39009 0.71878 0.0
C1959 C 0.34612 0.40535 0.69197 0.0
C1960 C 0.34967 0.39049 0.7685 0.0
C1961 C 0.37281 0.3586 0.72538 0.0
C1962 C 0.33809 0.37621 0.78935 0.0
C1963 C 0.33446 0.37689 0.83615 0.0
C1964 C 0.3424 0.39186 0.86305 0.0
C1965 C 0.35394 0.40617 0.8419 0.0
C1966 C 0.35745 0.40554 0.79513 0.0
H1967 H 0.38403 0.35042 0.70601 0.0
H1968 H 0.37947 0.36418 0.75718 0.0
H1969 H 0.36105 0.3483 0.73487 0.0
H1970 H 0.33172 0.36461 0.76935 0.0
H1971 H 0.3256 0.3656 0.85136 0.0
H1972 H 0.41634 0.65007 0.17904 0.0
H1973 H 0.41675 0.64245 0.26021 0.0
H1974 H 0.36472 0.67655 0.27935 0.0
H1975 H 0.36376 0.68364 0.1981 0.0
H1976 H 0.41929 0.66714 0.33395 0.0
H1977 H 0.35011 0.62555 0.34038 0.0
H1978 H 0.3621 0.63153 0.28764 0.0
H1979 H 0.34762 0.64947 0.31656 0.0
C1980 C 0.40483 0.65575 0.20035 0.0
C1981 C 0.38996 0.66741 0.18178 0.0
C1982 C 0.40516 0.65148 0.24686 0.0
C1983 C 0.3906 0.65866 0.27585 0.0
C1984 C 0.37591 0.67051 0.25759 0.0
H1985 H 0.36866 0.65162 0.56679 0.0
H1986 H 0.36814 0.65931 0.48558 0.0
C1987 C 0.37553 0.67477 0.21111 0.0
C1988 C 0.39103 0.6541 0.32529 0.0
H1989 H 0.36465 0.63344 0.41122 0.0
C1990 C 0.40739 0.65968 0.35079 0.0
C1991 C 0.37548 0.64439 0.34734 0.0
C1992 C 0.35791 0.63721 0.32156 0.0
C1993 C 0.40848 0.65612 0.39776 0.0
C1994 C 0.39291 0.64646 0.41979 0.0
C1995 C 0.37655 0.64089 0.39434 0.0
C1996 C 0.39339 0.64187 0.46916 0.0
C1997 C 0.4261 0.66312 0.4236 0.0
C1998 C 0.40763 0.62933 0.48692 0.0
C1999 C 0.408 0.62496 0.53334 0.0
C2000 C 0.39409 0.63297 0.56309 0.0
C2001 C 0.37975 0.64541 0.54506 0.0
C2002 C 0.37936 0.64972 0.49858 0.0
H2003 H 0.43426 0.67443 0.40447 0.0
H2004 H 0.42186 0.66918 0.45713 0.0
H2005 H 0.43606 0.65066 0.42955 0.0
H2006 H 0.41842 0.62284 0.46479 0.0
H2007 H 0.41935 0.61546 0.54601 0.0
H2008 H 0.64799 0.59177 0.85037 0.0
H2009 H 0.64184 0.59335 0.76871 0.0
H2010 H 0.67327 0.64762 0.7613 0.0
H2011 H 0.67968 0.64599 0.84304 0.0
H2012 H 0.62218 0.62027 0.71997 0.0
H2013 H 0.6987 0.61727 0.65995 0.0
H2014 H 0.69197 0.61193 0.71785 0.0
H2015 H 0.69395 0.63675 0.699 0.0
C2016 C 0.65357 0.60407 0.8314 0.0
C2017 C 0.66436 0.61874 0.85326 0.0
C2018 C 0.6501 0.60492 0.78464 0.0
C2019 C 0.65734 0.62044 0.75858 0.0
C2020 C 0.66797 0.63522 0.78036 0.0
H2021 H 0.64378 0.64966 0.47096 0.0
H2022 H 0.65167 0.65006 0.55212 0.0
C2023 C 0.67157 0.63431 0.82715 0.0
C2024 C 0.65315 0.62135 0.70899 0.0
H2025 H 0.67454 0.62341 0.60418 0.0
C2026 C 0.63365 0.6209 0.6947 0.0
C2027 C 0.6681 0.62224 0.67589 0.0
C2028 C 0.68936 0.6219 0.68881 0.0
C2029 C 0.62868 0.62141 0.64843 0.0
C2030 C 0.64361 0.62216 0.61539 0.0
C2031 C 0.66311 0.62286 0.62957 0.0
C2032 C 0.63924 0.62174 0.56594 0.0
C2033 C 0.60744 0.62138 0.63532 0.0
C2034 C 0.62998 0.60553 0.54658 0.0
C2035 C 0.62554 0.60521 0.50024 0.0
C2036 C 0.63033 0.62107 0.47208 0.0
C2037 C 0.63998 0.63714 0.49147 0.0
C2038 C 0.64444 0.63743 0.53791 0.0
H2039 H 0.59797 0.62586 0.66407 0.0
H2040 H 0.60474 0.63129 0.60619 0.0
H2041 H 0.60313 0.60645 0.62505 0.0
H2042 H 0.62624 0.59306 0.56733 0.0
H2043 H 0.61854 0.5924 0.48639 0.0
H2044 H 0.63686 0.3578 0.55916 0.0
H2045 H 0.63746 0.35005 0.47798 0.0
H2046 H 0.59435 0.39433 0.45298 0.0
H2047 H 0.59335 0.40195 0.53394 0.0
H2048 H 0.60588 0.33818 0.42048 0.0
H2049 H 0.63869 0.4079 0.36354 0.0
H2050 H 0.63936 0.39994 0.42196 0.0
H2051 H 0.61755 0.41049 0.39896 0.0
C2052 C 0.6274 0.36582 0.5365 0.0
C2053 C 0.61516 0.38062 0.55326 0.0
C2054 C 0.62784 0.36142 0.49004 0.0
C2055 C 0.61618 0.37182 0.45932 0.0
C2056 C 0.60379 0.38641 0.47591 0.0
H2057 H 0.59487 0.37194 0.16971 0.0
H2058 H 0.59618 0.37825 0.25136 0.0
C2059 C 0.60329 0.39078 0.52229 0.0
C2060 C 0.61668 0.36723 0.40998 0.0
H2061 H 0.62663 0.38695 0.30603 0.0
C2062 C 0.61054 0.34877 0.39541 0.0
C2063 C 0.62272 0.3811 0.37736 0.0
C2064 C 0.63012 0.40092 0.39111 0.0
C2065 C 0.60974 0.34398 0.34899 0.0
C2066 C 0.61568 0.3579 0.31627 0.0
C2067 C 0.62204 0.37629 0.331 0.0
C2068 C 0.61506 0.35388 0.26657 0.0
C2069 C 0.60189 0.3243 0.33546 0.0
C2070 C 0.62544 0.33824 0.24765 0.0
C2071 C 0.62467 0.33456 0.20089 0.0
C2072 C 0.61372 0.34663 0.17194 0.0
C2073 C 0.60361 0.36248 0.19091 0.0
C2074 C 0.60428 0.36606 0.23766 0.0
H2075 H 0.59306 0.31765 0.36302 0.0
H2076 H 0.59275 0.32535 0.30446 0.0
H2077 H 0.61424 0.31437 0.32817 0.0
H2078 H 0.63429 0.32895 0.26898 0.0
H2079 H 0.63286 0.32242 0.1873 0.0
H2080 H 0.86842 0.62846 0.91509 0.0
H2081 H 0.87483 0.62891 0.99676 0.0
H2082 H 0.81962 0.60101 0.02151 0.0
H2083 H 0.81343 0.59973 0.93989 0.0
H2084 H 0.8548 0.64599 0.06702 0.0
H2085 H 0.85665 0.56588 0.09051 0.0
H2086 H 0.85726 0.57712 0.03515 0.0
H2087 H 0.83457 0.57457 0.06507 0.0
C2088 C 0.85771 0.6222 0.9378 0.0
C2089 C 0.84045 0.61391 0.92063 0.0
C2090 C 0.86135 0.62261 0.98458 0.0
C2091 C 0.84788 0.61469 1.01534 0.0
C2092 C 0.83044 0.60684 0.99847 0.0
H2093 H 0.84551 0.60254 0.31021 0.0
H2094 H 0.83733 0.60384 0.22932 0.0
C2095 C 0.8268 0.60637 0.9517 0.0
C2096 C 0.85204 0.61478 0.06499 0.0
H2097 H 0.85736 0.5851 0.15741 0.0
C2098 C 0.85543 0.63267 0.08674 0.0
C2099 C 0.85286 0.59739 0.09081 0.0
C2100 C 0.85033 0.57763 0.06919 0.0
C2101 C 0.85933 0.63366 0.13358 0.0
C2102 C 0.86013 0.61629 0.15933 0.0
C2103 C 0.85667 0.59841 0.13767 0.0
C2104 C 0.86487 0.61627 0.20864 0.0
C2105 C 0.86225 0.65334 0.15529 0.0
C2106 C 0.88311 0.62276 0.22394 0.0
C2107 C 0.88782 0.62207 0.27017 0.0
C2108 C 0.87441 0.61484 0.30215 0.0
C2109 C 0.8561 0.60845 0.28667 0.0
C2110 C 0.85143 0.60906 0.24039 0.0
H2111 H 0.85636 0.66526 0.13383 0.0
H2112 H 0.85515 0.65397 0.18914 0.0
H2113 H 0.87806 0.65596 0.16003 0.0
H2114 H 0.89383 0.62809 0.20002 0.0
H2115 H 0.90199 0.62725 0.28086 0.0
H2116 H 0.64071 0.15701 0.72159 0.0
H2117 H 0.64145 0.16461 0.80283 0.0
H2118 H 0.59785 0.12075 0.82761 0.0
H2119 H 0.59673 0.11328 0.74657 0.0
H2120 H 0.6101 0.17675 0.86041 0.0
H2121 H 0.64196 0.10655 0.91691 0.0
H2122 H 0.64269 0.11453 0.8585 0.0
H2123 H 0.62075 0.10428 0.88162 0.0
C2124 C 0.63117 0.14905 0.74422 0.0
C2125 C 0.61876 0.13441 0.72738 0.0
C2126 C 0.63169 0.15336 0.79071 0.0
C2127 C 0.61994 0.14303 0.82138 0.0
C2128 C 0.60737 0.1286 0.80471 0.0
H2129 H 0.59924 0.14329 0.11148 0.0
H2130 H 0.60021 0.13686 0.02984 0.0
C2131 C 0.60679 0.12432 0.75829 0.0
C2132 C 0.62051 0.14755 0.87074 0.0
H2133 H 0.63034 0.12766 0.97456 0.0
C2134 C 0.61465 0.16609 0.88541 0.0
C2135 C 0.62639 0.13359 0.90327 0.0
C2136 C 0.63347 0.11366 0.88942 0.0
C2137 C 0.614 0.17087 0.93184 0.0
C2138 C 0.61982 0.15687 0.96447 0.0
C2139 C 0.62586 0.13839 0.94965 0.0
C2140 C 0.61942 0.16092 1.01416 0.0
C2141 C 0.60645 0.19065 0.94549 0.0
C2142 C 0.63012 0.17642 0.03279 0.0
C2143 C 0.62954 0.18016 0.07953 0.0
C2144 C 0.61847 0.16832 0.10874 0.0
C2145 C 0.60807 0.15259 0.09006 0.0
C2146 C 0.60855 0.14894 0.04333 0.0
H2147 H 0.59764 0.19741 0.91807 0.0
H2148 H 0.5974 0.18972 0.97664 0.0
H2149 H 0.61896 0.20042 0.95254 0.0
H2150 H 0.63906 0.18555 1.01125 0.0
H2151 H 0.63797 0.1922 0.09289 0.0
H2152 H 0.10448 0.37385 0.29003 0.0
H2153 H 0.11262 0.37348 0.20917 0.0
H2154 H 0.16771 0.40085 0.2384 0.0
H2155 H 0.1597 0.40122 0.31933 0.0
H2156 H 0.11991 0.40402 0.15265 0.0
H2157 H 0.18458 0.35579 0.15903 0.0
H2158 H 0.168 0.35829 0.20622 0.0
H2159 H 0.18632 0.3765 0.19596 0.0
C2160 C 0.11834 0.37979 0.2793 0.0
C2161 C 0.13146 0.38751 0.3113 0.0
C2162 C 0.12301 0.3795 0.23303 0.0
C2163 C 0.14091 0.38686 0.21764 0.0
C2164 C 0.15403 0.39462 0.24946 0.0
H2165 H 0.19049 0.4072 0.94965 0.0
H2166 H 0.18382 0.40562 0.03116 0.0
C2167 C 0.14941 0.39485 0.29578 0.0
C2168 C 0.14545 0.38711 0.16817 0.0
H2169 H 0.17854 0.37191 0.08892 0.0
C2170 C 0.13267 0.39689 0.13873 0.0
C2171 C 0.16214 0.37786 0.14992 0.0
C2172 C 0.17596 0.36636 0.17932 0.0
C2173 C 0.13624 0.3979 0.09179 0.0
C2174 C 0.15293 0.38869 0.0736 0.0
C2175 C 0.16576 0.37897 0.10295 0.0
C2176 C 0.15726 0.389 0.02413 0.0
C2177 C 0.12233 0.40915 0.06208 0.0
C2178 C 0.14475 0.37984 0.99311 0.0
C2179 C 0.14861 0.38053 0.94646 0.0
C2180 C 0.1651 0.3904 0.92972 0.0
C2181 C 0.17779 0.39926 0.96113 0.0
C2182 C 0.17395 0.39848 1.0078 0.0
H2183 H 0.11285 0.41899 0.08226 0.0
H2184 H 0.13038 0.41796 0.03662 0.0
H2185 H 0.11284 0.39878 0.04351 0.0
H2186 H 0.13198 0.37212 1.00502 0.0
H2187 H 0.1387 0.3732 0.92354 0.0
H2188 H 0.37571 0.86679 0.1191 0.0
H2189 H 0.37462 0.87328 0.03746 0.0
H2190 H 0.4127 0.82454 1.01318 0.0
H2191 H 0.41428 0.81816 0.09471 0.0
H2192 H 0.40695 0.88137 0.97921 0.0
H2193 H 0.36679 0.81516 0.92488 0.0
H2194 H 0.36716 0.82343 0.98309 0.0
H2195 H 0.38775 0.81074 0.95991 0.0
C2196 C 0.38395 0.85747 0.09651 0.0
C2197 C 0.39506 0.8419 0.11375 0.0
C2198 C 0.3832 0.86115 0.04978 0.0
C2199 C 0.39337 0.84925 0.01916 0.0
C2200 C 0.40441 0.83367 0.03608 0.0
H2201 H 0.41118 0.8496 0.72657 0.0
H2202 H 0.41053 0.842 0.80776 0.0
C2203 C 0.40525 0.83002 0.08281 0.0
C2204 C 0.39305 0.85359 0.9697 0.0
H2205 H 0.3798 0.83506 0.86652 0.0
C2206 C 0.40092 0.8713 0.95457 0.0
C2207 C 0.38529 0.84038 0.93759 0.0
C2208 C 0.37611 0.82142 0.95204 0.0
C2209 C 0.40155 0.87603 0.90814 0.0
C2210 C 0.39367 0.86288 0.87597 0.0
C2211 C 0.38581 0.84515 0.89114 0.0
C2212 C 0.3935 0.86725 0.82646 0.0
C2213 C 0.41112 0.89484 0.89391 0.0
C2214 C 0.38379 0.88375 0.80973 0.0
C2215 C 0.3841 0.88811 0.76332 0.0
C2216 C 0.39399 0.87599 0.73246 0.0
C2217 C 0.40329 0.85919 0.74922 0.0
C2218 C 0.40301 0.85486 0.79569 0.0
H2219 H 0.42101 0.90052 0.92067 0.0
H2220 H 0.4196 0.8929 0.86212 0.0
H2221 H 0.39973 0.90597 0.88766 0.0
H2222 H 0.37593 0.89326 0.83261 0.0
H2223 H 0.37646 0.90095 0.75156 0.0
H2224 H 0.81561 0.90135 0.33485 0.0
H2225 H 0.82254 0.90162 0.25331 0.0
H2226 H 0.87972 0.87825 0.27905 0.0
H2227 H 0.87273 0.87738 0.36044 0.0
H2228 H 0.85205 0.92099 0.20604 0.0
H2229 H 0.8582 0.84106 0.18293 0.0
H2230 H 0.84762 0.85185 0.23308 0.0
H2231 H 0.87363 0.85073 0.22666 0.0
C2232 C 0.82959 0.89606 0.32318 0.0
C2233 C 0.84357 0.88925 0.35434 0.0
C2234 C 0.83357 0.89634 0.27653 0.0
C2235 C 0.85154 0.88967 0.25994 0.0
C2236 C 0.86562 0.88313 0.29093 0.0
H2237 H 0.90483 0.88063 0.99296 0.0
H2238 H 0.89732 0.88014 0.07419 0.0
C2239 C 0.86167 0.88287 0.33757 0.0
C2240 C 0.85567 0.88992 0.21032 0.0
H2241 H 0.86756 0.86077 0.1204 0.0
C2242 C 0.85534 0.90781 0.18725 0.0
C2243 C 0.85999 0.87272 0.18581 0.0
C2244 C 0.85973 0.85297 0.20821 0.0
C2245 C 0.8596 0.90903 0.14062 0.0
C2246 C 0.86397 0.89184 0.11613 0.0
C2247 C 0.86425 0.87394 0.13918 0.0
C2248 C 0.86838 0.89212 0.06664 0.0
C2249 C 0.85986 0.92879 0.11823 0.0
C2250 C 0.85452 0.89875 0.0352 0.0
C2251 C 0.8588 0.89915 0.98872 0.0
C2252 C 0.87704 0.89283 0.97257 0.0
C2253 C 0.89077 0.8859 1.00416 0.0
C2254 C 0.88645 0.88548 0.05063 0.0
H2255 H 0.86125 0.94071 0.14353 0.0
H2256 H 0.87206 0.92995 0.09362 0.0
H2257 H 0.84603 0.93096 0.09948 0.0
H2258 H 0.84034 0.9036 0.04661 0.0
H2259 H 0.84792 0.90472 0.96552 0.0
H2260 H 0.87162 0.1548 0.06826 0.0
H2261 H 0.87077 0.16249 0.98706 0.0
H2262 H 0.91174 0.11635 0.96066 0.0
H2263 H 0.91298 0.10877 0.04163 0.0
H2264 H 0.90237 0.17293 0.92828 0.0
H2265 H 0.86625 0.10462 0.87308 0.0
H2266 H 0.86635 0.11263 0.93148 0.0
H2267 H 0.88752 0.10116 0.90763 0.0
C2268 C 0.88057 0.14635 0.04528 0.0
C2269 C 0.89227 0.13104 0.06165 0.0
C2270 C 0.87998 0.15072 0.99882 0.0
C2271 C 0.89095 0.13979 0.96771 0.0
C2272 C 0.90282 0.12469 0.98391 0.0
H2273 H 0.91031 0.13883 0.67734 0.0
H2274 H 0.90927 0.13253 0.75902 0.0
C2275 C 0.90346 0.12035 0.0303 0.0
C2276 C 0.89029 0.14435 0.91839 0.0
H2277 H 0.87876 0.125 0.81496 0.0
C2278 C 0.89709 0.16253 0.90346 0.0
C2279 C 0.88344 0.13073 0.8861 0.0
C2280 C 0.87531 0.11124 0.90025 0.0
C2281 C 0.89774 0.16726 0.857 0.0
C2282 C 0.89097 0.15358 0.82462 0.0
C2283 C 0.88397 0.13548 0.83969 0.0
C2284 C 0.89138 0.15755 0.7749 0.0
C2285 C 0.90628 0.18659 0.84302 0.0
C2286 C 0.88143 0.17355 0.75637 0.0
C2287 C 0.88203 0.17722 0.70959 0.0
C2288 C 0.89238 0.16479 0.68025 0.0
C2289 C 0.90203 0.14858 0.69884 0.0
C2290 C 0.90152 0.14501 0.7456 0.0
H2291 H 0.91555 0.19292 0.8702 0.0
H2292 H 0.91517 0.18513 0.81171 0.0
H2293 H 0.8943 0.19699 0.83608 0.0
H2294 H 0.87306 0.18316 0.77803 0.0
H2295 H 0.87419 0.18965 0.69632 0.0
H2296 H 0.10141 0.11711 1.00455 0.0
H2297 H 0.10897 0.11856 0.08568 0.0
H2298 H 0.16943 0.10732 0.05632 0.0
H2299 H 0.162 0.10591 0.97516 0.0
H2300 H 0.12415 0.09047 0.14095 0.0
H2301 H 0.17341 0.15442 0.13842 0.0
H2302 H 0.15815 0.14805 0.09081 0.0
H2303 H 0.1807 0.13537 0.10037 0.0
C2304 C 0.11633 0.11495 1.01531 0.0
C2305 C 0.13111 0.11147 0.98318 0.0
C2306 C 0.12064 0.11584 0.06175 0.0
C2307 C 0.13982 0.11335 0.07721 0.0
C2308 C 0.1546 0.1098 0.04527 0.0
H2309 H 0.19395 0.1072 0.3443 0.0
H2310 H 0.18662 0.10649 0.26302 0.0
C2311 C 0.15032 0.10898 0.99879 0.0
C2312 C 0.1442 0.1138 0.1268 0.0
H2313 H 0.17192 0.13652 0.20742 0.0
C2314 C 0.13451 0.10062 0.15549 0.0
C2315 C 0.15776 0.12701 0.14588 0.0
C2316 C 0.16798 0.14214 0.11739 0.0
C2317 C 0.13824 0.10007 0.20245 0.0
C2318 C 0.15183 0.11324 0.22147 0.0
C2319 C 0.16154 0.1264 0.19282 0.0
C2320 C 0.15615 0.11363 0.27103 0.0
C2321 C 0.1279 0.08509 0.23115 0.0
C2322 C 0.14152 0.1181 0.30266 0.0
C2323 C 0.14568 0.11865 0.34921 0.0
C2324 C 0.16462 0.11482 0.36524 0.0
C2325 C 0.17926 0.11045 0.33332 0.0
C2326 C 0.17508 0.10994 0.28678 0.0
H2327 H 0.12187 0.07306 0.21022 0.0
H2328 H 0.13788 0.07881 0.25694 0.0
H2329 H 0.11562 0.09216 0.24926 0.0
H2330 H 0.1269 0.12142 0.2913 0.0
H2331 H 0.13411 0.12244 0.37255 0.0
H2332 H 0.13007 0.86721 0.68054 0.0
H2333 H 0.12955 0.87413 0.76202 0.0
H2334 H 0.10464 0.81757 0.7876 0.0
H2335 H 0.10501 0.81055 0.70617 0.0
H2336 H 0.09842 0.87524 0.82234 0.0
H2337 H 0.15139 0.81827 0.87314 0.0
H2338 H 0.14811 0.82568 0.81484 0.0
H2339 H 0.13107 0.80929 0.84104 0.0
C2340 C 0.12434 0.85628 0.70342 0.0
C2341 C 0.11766 0.83827 0.68669 0.0
C2342 C 0.12415 0.86023 0.75005 0.0
C2343 C 0.11738 0.84625 0.78105 0.0
C2344 C 0.11039 0.8284 0.76447 0.0
H2345 H 0.10332 0.84333 0.07469 0.0
H2346 H 0.10389 0.83617 0.99332 0.0
C2347 C 0.1106 0.82442 0.71785 0.0
C2348 C 0.11732 0.85051 0.8306 0.0
H2349 H 0.13509 0.83486 0.9327 0.0
C2350 C 0.10651 0.86647 0.84645 0.0
C2351 C 0.12785 0.83903 0.86209 0.0
C2352 C 0.14041 0.82221 0.847 0.0
C2353 C 0.10566 0.87106 0.89294 0.0
C2354 C 0.1162 0.8596 0.92442 0.0
C2355 C 0.127 0.84363 0.90858 0.0
C2356 C 0.11621 0.86394 0.97393 0.0
C2357 C 0.09311 0.88789 0.90803 0.0
C2358 C 0.1233 0.88179 0.99026 0.0
C2359 C 0.12308 0.88591 0.03682 0.0
C2360 C 0.11589 0.87219 0.06816 0.0
C2361 C 0.10914 0.85416 0.05168 0.0
C2362 C 0.10936 0.85008 1.0051 0.0
H2363 H 0.08212 0.89182 0.8819 0.0
H2364 H 0.08542 0.88443 0.94021 0.0
H2365 H 0.10246 0.90081 0.91396 0.0
H2366 H 0.12911 0.89253 0.96699 0.0
H2367 H 0.12873 0.89978 0.04829 0.0
loop_
_geom_bond_atom_site_label_1
_geom_bond_atom_site_label_2
_geom_bond_distance
_geom_bond_site_symmetry_2
_ccdc_geom_bond_type
Tb0 C9 2.764 1_554 S
Tb0 O10 2.325 . S
Tb0 O13 2.303 . S
Tb0 O17 2.322 . S
Tb0 O18 2.349 . S
Tb0 O21 2.415 . S
Tb0 O22 2.399 . S
Tb1 O11 2.322 . S
Tb1 O12 2.349 . S
Tb1 O14 2.415 . S
Tb1 O15 2.399 . S
Tb1 O16 2.325 . S
Tb1 O19 2.303 . S
Tb1 C30 2.764 . S
C2 O18 1.261 . S
C2 O19 1.257 . S
C3 C6 1.358 . S
C3 C7 1.332 . S
C3 C9 1.504 . S
C4 C5 1.373 . S
C4 C8 1.308 . S
C5 C4 1.373 . S
C5 C6 1.429 . S
C5 H32 0.932 . S
C6 C3 1.358 . S
C6 C5 1.429 . S
C6 H33 0.930 . S
C7 C3 1.332 . S
C7 C8 1.394 . S
C7 H34 0.932 . S
C8 C4 1.308 . S
C8 C7 1.394 . S
C8 H35 0.929 . S
C9 Tb0 2.764 1_556 S
C9 C3 1.504 . S
C9 O21 1.239 1_556 S
C9 O22 1.263 1_556 S
O10 Tb0 2.325 . S
O10 C20 1.236 . S
O11 Tb1 2.322 . S
O11 C20 1.257 . S
O12 Tb1 2.349 . S
O12 C23 1.261 . S
O13 Tb0 2.303 . S
O13 C23 1.257 . S
O14 Tb1 2.415 . S
O14 C30 1.239 . S
O15 Tb1 2.399 . S
O15 C30 1.263 . S
O16 Tb1 2.325 . S
O16 C31 1.236 . S
O17 Tb0 2.322 . S
O17 C31 1.257 . S
O18 Tb0 2.349 . S
O18 C2 1.261 . S
O19 Tb1 2.303 . S
O19 C2 1.257 . S
C20 O10 1.236 . S
C20 O11 1.257 . S
O21 Tb0 2.415 . S
O21 C9 1.239 1_554 S
O22 Tb0 2.399 . S
O22 C9 1.263 1_554 S
C23 O12 1.261 . S
C23 O13 1.257 . S
C24 C27 1.358 . S
C24 C28 1.332 . S
C24 C30 1.504 . S
C25 C26 1.373 . S
C25 C29 1.308 . S
C26 C25 1.373 . S
C26 C27 1.429 . S
C26 H36 0.932 . S
C27 C24 1.358 . S
C27 C26 1.429 . S
C27 H37 0.930 . S
C28 C24 1.332 . S
C28 C29 1.394 . S
C28 H38 0.932 . S
C29 C25 1.308 . S
C29 C28 1.394 . S
C29 H39 0.929 . S
C30 Tb1 2.764 . S
C30 O14 1.239 . S
C30 O15 1.263 . S
C30 C24 1.504 . S
C31 O16 1.236 . S
C31 O17 1.257 . S
H32 C5 0.932 . S
H33 C6 0.930 . S
H34 C7 0.932 . S
H35 C8 0.929 . S
H36 C26 0.932 . S
H37 C27 0.930 . S
H38 C28 0.932 . S
H39 C29 0.929 . S
Tb40 C49 2.764 . S
Tb40 O50 2.325 . S
Tb40 O53 2.303 . S
Tb40 O57 2.322 . S
Tb40 O58 2.349 . S
Tb40 O61 2.415 . S
Tb40 O62 2.399 . S
Tb41 O51 2.322 . S
Tb41 O52 2.349 . S
Tb41 O54 2.415 . S
Tb41 O55 2.399 . S
Tb41 O56 2.325 . S
Tb41 O59 2.303 . S
Tb41 C70 2.764 1_556 S
C42 O58 1.261 . S
C42 O59 1.257 . S
C43 C46 1.358 . S
C43 C47 1.332 . S
C43 C49 1.504 . S
C44 C45 1.373 . S
C44 C48 1.308 . S
C45 C44 1.373 . S
C45 C46 1.429 . S
C45 H72 0.932 . S
C46 C43 1.358 . S
C46 C45 1.429 . S
C46 H73 0.930 . S
C47 C43 1.332 . S
C47 C48 1.394 . S
C47 H74 0.932 . S
C48 C44 1.308 . S
C48 C47 1.394 . S
C48 H75 0.929 . S
C49 Tb40 2.764 . S
C49 C43 1.504 . S
C49 O61 1.239 . S
C49 O62 1.263 . S
O50 Tb40 2.325 . S
O50 C60 1.236 . S
O51 Tb41 2.322 . S
O51 C60 1.257 . S
O52 Tb41 2.349 . S
O52 C63 1.261 . S
O53 Tb40 2.303 . S
O53 C63 1.257 . S
O54 Tb41 2.415 . S
O54 C70 1.239 1_556 S
O55 Tb41 2.399 . S
O55 C70 1.263 1_556 S
O56 Tb41 2.325 . S
O56 C71 1.236 . S
O57 Tb40 2.322 . S
O57 C71 1.257 . S
O58 Tb40 2.349 . S
O58 C42 1.261 . S
O59 Tb41 2.303 . S
O59 C42 1.257 . S
C60 O50 1.236 . S
C60 O51 1.257 . S
O61 Tb40 2.415 . S
O61 C49 1.239 . S
O62 Tb40 2.399 . S
O62 C49 1.263 . S
C63 O52 1.261 . S
C63 O53 1.257 . S
C64 C67 1.358 . S
C64 C68 1.332 . S
C64 C70 1.504 . S
C65 C66 1.373 . S
C65 C69 1.308 . S
C66 C65 1.373 . S
C66 C67 1.429 . S
C66 H76 0.932 . S
C67 C64 1.358 . S
C67 C66 1.429 . S
C67 H77 0.930 . S
C68 C64 1.332 . S
C68 C69 1.394 . S
C68 H78 0.932 . S
C69 C65 1.308 . S
C69 C68 1.394 . S
C69 H79 0.929 . S
C70 Tb41 2.764 1_554 S
C70 O54 1.239 1_554 S
C70 O55 1.263 1_554 S
C70 C64 1.504 . S
C71 O56 1.236 . S
C71 O57 1.257 . S
H72 C45 0.932 . S
H73 C46 0.930 . S
H74 C47 0.932 . S
H75 C48 0.929 . S
H76 C66 0.932 . S
H77 C67 0.930 . S
H78 C68 0.932 . S
H79 C69 0.929 . S
Tb80 C89 2.764 1_554 S
Tb80 O90 2.325 . S
Tb80 O93 2.303 . S
Tb80 O97 2.322 . S
Tb80 O98 2.349 . S
Tb80 O101 2.415 . S
Tb80 O102 2.399 . S
Tb81 O91 2.322 . S
Tb81 O92 2.349 . S
Tb81 O94 2.415 . S
Tb81 O95 2.399 . S
Tb81 O96 2.325 . S
Tb81 O99 2.303 . S
Tb81 C110 2.764 . S
C82 O98 1.261 . S
C82 O99 1.257 . S
C83 C86 1.358 . S
C83 C87 1.332 . S
C83 C89 1.504 . S
C84 C85 1.373 . S
C84 C88 1.308 . S
C85 C84 1.373 . S
C85 C86 1.429 . S
C85 H112 0.932 . S
C86 C83 1.358 . S
C86 C85 1.429 . S
C86 H113 0.930 . S
C87 C83 1.332 . S
C87 C88 1.394 . S
C87 H114 0.932 . S
C88 C84 1.308 . S
C88 C87 1.394 . S
C88 H115 0.929 . S
C89 Tb80 2.764 1_556 S
C89 C83 1.504 . S
C89 O101 1.239 1_556 S
C89 O102 1.263 1_556 S
O90 Tb80 2.325 . S
O90 C100 1.236 . S
O91 Tb81 2.322 . S
O91 C100 1.257 . S
O92 Tb81 2.349 . S
O92 C103 1.261 . S
O93 Tb80 2.303 . S
O93 C103 1.257 . S
O94 Tb81 2.415 . S
O94 C110 1.239 . S
O95 Tb81 2.399 . S
O95 C110 1.263 . S
O96 Tb81 2.325 . S
O96 C111 1.236 . S
O97 Tb80 2.322 . S
O97 C111 1.257 . S
O98 Tb80 2.349 . S
O98 C82 1.261 . S
O99 Tb81 2.303 . S
O99 C82 1.257 . S
C100 O90 1.236 . S
C100 O91 1.257 . S
O101 Tb80 2.415 . S
O101 C89 1.239 1_554 S
O102 Tb80 2.399 . S
O102 C89 1.263 1_554 S
C103 O92 1.261 . S
C103 O93 1.257 . S
C104 C107 1.358 . S
C104 C108 1.332 . S
C104 C110 1.504 . S
C105 C106 1.373 . S
C105 C109 1.308 . S
C106 C105 1.373 . S
C106 C107 1.429 . S
C106 H116 0.932 . S
C107 C104 1.358 . S
C107 C106 1.429 . S
C107 H117 0.930 . S
C108 C104 1.332 . S
C108 C109 1.394 . S
C108 H118 0.932 . S
C109 C105 1.308 . S
C109 C108 1.394 . S
C109 H119 0.929 . S
C110 Tb81 2.764 . S
C110 O94 1.239 . S
C110 O95 1.263 . S
C110 C104 1.504 . S
C111 O96 1.236 . S
C111 O97 1.257 . S
H112 C85 0.932 . S
H113 C86 0.930 . S
H114 C87 0.932 . S
H115 C88 0.929 . S
H116 C106 0.932 . S
H117 C107 0.930 . S
H118 C108 0.932 . S
H119 C109 0.929 . S
Tb120 C129 2.764 . S
Tb120 O130 2.325 . S
Tb120 O133 2.303 . S
Tb120 O137 2.322 . S
Tb120 O138 2.349 . S
Tb120 O141 2.415 . S
Tb120 O142 2.399 . S
Tb121 O131 2.322 . S
Tb121 O132 2.349 . S
Tb121 O134 2.415 . S
Tb121 O135 2.399 . S
Tb121 O136 2.325 . S
Tb121 O139 2.303 . S
Tb121 C150 2.764 1_556 S
C122 O138 1.261 . S
C122 O139 1.257 . S
C123 C126 1.358 . S
C123 C127 1.332 . S
C123 C129 1.504 . S
C124 C125 1.373 . S
C124 C128 1.308 . S
C125 C124 1.373 . S
C125 C126 1.429 . S
C125 H152 0.932 . S
C126 C123 1.358 . S
C126 C125 1.429 . S
C126 H153 0.930 . S
C127 C123 1.332 . S
C127 C128 1.394 . S
C127 H154 0.932 . S
C128 C124 1.308 . S
C128 C127 1.394 . S
C128 H155 0.929 . S
C129 Tb120 2.764 . S
C129 C123 1.504 . S
C129 O141 1.239 . S
C129 O142 1.263 . S
O130 Tb120 2.325 . S
O130 C140 1.236 . S
O131 Tb121 2.322 . S
O131 C140 1.257 . S
O132 Tb121 2.349 . S
O132 C143 1.261 . S
O133 Tb120 2.303 . S
O133 C143 1.257 . S
O134 Tb121 2.415 . S
O134 C150 1.239 1_556 S
O135 Tb121 2.399 . S
O135 C150 1.263 1_556 S
O136 Tb121 2.325 . S
O136 C151 1.236 . S
O137 Tb120 2.322 . S
O137 C151 1.257 . S
O138 Tb120 2.349 . S
O138 C122 1.261 . S
O139 Tb121 2.303 . S
O139 C122 1.257 . S
C140 O130 1.236 . S
C140 O131 1.257 . S
O141 Tb120 2.415 . S
O141 C129 1.239 . S
O142 Tb120 2.399 . S
O142 C129 1.263 . S
C143 O132 1.261 . S
C143 O133 1.257 . S
C144 C147 1.358 . S
C144 C148 1.332 . S
C144 C150 1.504 . S
C145 C146 1.373 . S
C145 C149 1.308 . S
C146 C145 1.373 . S
C146 C147 1.429 . S
C146 H156 0.932 . S
C147 C144 1.358 . S
C147 C146 1.429 . S
C147 H157 0.930 . S
C148 C144 1.332 . S
C148 C149 1.394 . S
C148 H158 0.932 . S
C149 C145 1.308 . S
C149 C148 1.394 . S
C149 H159 0.929 . S
C150 Tb121 2.764 1_554 S
C150 O134 1.239 1_554 S
C150 O135 1.263 1_554 S
C150 C144 1.504 . S
C151 O136 1.236 . S
C151 O137 1.257 . S
H152 C125 0.932 . S
H153 C126 0.930 . S
H154 C127 0.932 . S
H155 C128 0.929 . S
H156 C146 0.932 . S
H157 C147 0.930 . S
H158 C148 0.932 . S
H159 C149 0.929 . S
Tb160 C169 2.764 . S
Tb160 O170 2.325 . S
Tb160 O173 2.303 . S
Tb160 O177 2.322 . S
Tb160 O178 2.349 . S
Tb160 O181 2.415 . S
Tb160 O182 2.399 . S
Tb161 O171 2.322 . S
Tb161 O172 2.349 . S
Tb161 O174 2.415 1_554 S
Tb161 O175 2.399 1_554 S
Tb161 O176 2.325 . S
Tb161 O179 2.303 . S
Tb161 C190 2.764 1_554 S
C162 O178 1.261 . S
C162 O179 1.257 . S
C163 C166 1.358 . S
C163 C167 1.332 . S
C163 C169 1.504 . S
C164 C165 1.373 . S
C164 C168 1.308 . S
C165 C164 1.373 . S
C165 C166 1.429 . S
C165 H192 0.932 . S
C166 C163 1.358 . S
C166 C165 1.429 . S
C166 H193 0.930 . S
C167 C163 1.332 . S
C167 C168 1.394 . S
C167 H194 0.932 . S
C168 C164 1.308 . S
C168 C167 1.394 . S
C168 H195 0.929 . S
C169 Tb160 2.764 . S
C169 C163 1.504 . S
C169 O181 1.239 . S
C169 O182 1.263 . S
O170 Tb160 2.325 . S
O170 C180 1.236 . S
O171 Tb161 2.322 . S
O171 C180 1.257 . S
O172 Tb161 2.349 . S
O172 C183 1.261 . S
O173 Tb160 2.303 . S
O173 C183 1.257 . S
O174 Tb161 2.415 1_556 S
O174 C190 1.239 . S
O175 Tb161 2.399 1_556 S
O175 C190 1.263 . S
O176 Tb161 2.325 . S
O176 C191 1.236 . S
O177 Tb160 2.322 . S
O177 C191 1.257 . S
O178 Tb160 2.349 . S
O178 C162 1.261 . S
O179 Tb161 2.303 . S
O179 C162 1.257 . S
C180 O170 1.236 . S
C180 O171 1.257 . S
O181 Tb160 2.415 . S
O181 C169 1.239 . S
O182 Tb160 2.399 . S
O182 C169 1.263 . S
C183 O172 1.261 . S
C183 O173 1.257 . S
C184 C187 1.358 . S
C184 C188 1.332 . S
C184 C190 1.504 . S
C185 C186 1.373 . S
C185 C189 1.308 . S
C186 C185 1.373 . S
C186 C187 1.429 . S
C186 H196 0.932 . S
C187 C184 1.358 . S
C187 C186 1.429 . S
C187 H197 0.930 . S
C188 C184 1.332 . S
C188 C189 1.394 . S
C188 H198 0.932 . S
C189 C185 1.308 . S
C189 C188 1.394 . S
C189 H199 0.929 . S
C190 Tb161 2.764 1_556 S
C190 O174 1.239 . S
C190 O175 1.263 . S
C190 C184 1.504 . S
C191 O176 1.236 . S
C191 O177 1.257 . S
H192 C165 0.932 . S
H193 C166 0.930 . S
H194 C167 0.932 . S
H195 C168 0.929 . S
H196 C186 0.932 . S
H197 C187 0.930 . S
H198 C188 0.932 . S
H199 C189 0.929 . S
Tb200 C209 2.764 1_556 S
Tb200 O210 2.325 . S
Tb200 O213 2.303 . S
Tb200 O217 2.322 . S
Tb200 O218 2.349 . S
Tb200 O221 2.415 1_556 S
Tb200 O222 2.399 1_556 S
Tb201 O211 2.322 . S
Tb201 O212 2.349 . S
Tb201 O214 2.415 . S
Tb201 O215 2.399 . S
Tb201 O216 2.325 . S
Tb201 O219 2.303 . S
Tb201 C230 2.764 . S
C202 O218 1.261 . S
C202 O219 1.257 . S
C203 C206 1.358 . S
C203 C207 1.332 . S
C203 C209 1.504 . S
C204 C205 1.373 . S
C204 C208 1.308 . S
C205 C204 1.373 . S
C205 C206 1.429 . S
C205 H232 0.932 . S
C206 C203 1.358 . S
C206 C205 1.429 . S
C206 H233 0.930 . S
C207 C203 1.332 . S
C207 C208 1.394 . S
C207 H234 0.932 . S
C208 C204 1.308 . S
C208 C207 1.394 . S
C208 H235 0.929 . S
C209 Tb200 2.764 1_554 S
C209 C203 1.504 . S
C209 O221 1.239 . S
C209 O222 1.263 . S
O210 Tb200 2.325 . S
O210 C220 1.236 . S
O211 Tb201 2.322 . S
O211 C220 1.257 . S
O212 Tb201 2.349 . S
O212 C223 1.261 . S
O213 Tb200 2.303 . S
O213 C223 1.257 . S
O214 Tb201 2.415 . S
O214 C230 1.239 . S
O215 Tb201 2.399 . S
O215 C230 1.263 . S
O216 Tb201 2.325 . S
O216 C231 1.236 . S
O217 Tb200 2.322 . S
O217 C231 1.257 . S
O218 Tb200 2.349 . S
O218 C202 1.261 . S
O219 Tb201 2.303 . S
O219 C202 1.257 . S
C220 O210 1.236 . S
C220 O211 1.257 . S
O221 Tb200 2.415 1_554 S
O221 C209 1.239 . S
O222 Tb200 2.399 1_554 S
O222 C209 1.263 . S
C223 O212 1.261 . S
C223 O213 1.257 . S
C224 C227 1.358 . S
C224 C228 1.332 . S
C224 C230 1.504 . S
C225 C226 1.373 . S
C225 C229 1.308 . S
C226 C225 1.373 . S
C226 C227 1.429 . S
C226 H236 0.932 . S
C227 C224 1.358 . S
C227 C226 1.429 . S
C227 H237 0.930 . S
C228 C224 1.332 . S
C228 C229 1.394 . S
C228 H238 0.932 . S
C229 C225 1.308 . S
C229 C228 1.394 . S
C229 H239 0.929 . S
C230 Tb201 2.764 . S
C230 O214 1.239 . S
C230 O215 1.263 . S
C230 C224 1.504 . S
C231 O216 1.236 . S
C231 O217 1.257 . S
H232 C205 0.932 . S
H233 C206 0.930 . S
H234 C207 0.932 . S
H235 C208 0.929 . S
H236 C226 0.932 . S
H237 C227 0.930 . S
H238 C228 0.932 . S
H239 C229 0.929 . S
Tb240 C249 2.764 . S
Tb240 O250 2.325 . S
Tb240 O253 2.303 . S
Tb240 O257 2.322 . S
Tb240 O258 2.349 . S
Tb240 O261 2.415 . S
Tb240 O262 2.399 . S
Tb241 O251 2.322 . S
Tb241 O252 2.349 . S
Tb241 O254 2.415 1_554 S
Tb241 O255 2.399 1_554 S
Tb241 O256 2.325 . S
Tb241 O259 2.303 . S
Tb241 C270 2.764 1_554 S
C242 O258 1.261 . S
C242 O259 1.257 . S
C243 C246 1.358 . S
C243 C247 1.332 . S
C243 C249 1.504 . S
C244 C245 1.373 . S
C244 C248 1.308 . S
C245 C244 1.373 . S
C245 C246 1.429 . S
C245 H272 0.932 . S
C246 C243 1.358 . S
C246 C245 1.429 . S
C246 H273 0.930 . S
C247 C243 1.332 . S
C247 C248 1.394 . S
C247 H274 0.932 . S
C248 C244 1.308 . S
C248 C247 1.394 . S
C248 H275 0.929 . S
C249 Tb240 2.764 . S
C249 C243 1.504 . S
C249 O261 1.239 . S
C249 O262 1.263 . S
O250 Tb240 2.325 . S
O250 C260 1.236 . S
O251 Tb241 2.322 . S
O251 C260 1.257 . S
O252 Tb241 2.349 . S
O252 C263 1.261 . S
O253 Tb240 2.303 . S
O253 C263 1.257 . S
O254 Tb241 2.415 1_556 S
O254 C270 1.239 . S
O255 Tb241 2.399 1_556 S
O255 C270 1.263 . S
O256 Tb241 2.325 . S
O256 C271 1.236 . S
O257 Tb240 2.322 . S
O257 C271 1.257 . S
O258 Tb240 2.349 . S
O258 C242 1.261 . S
O259 Tb241 2.303 . S
O259 C242 1.257 . S
C260 O250 1.236 . S
C260 O251 1.257 . S
O261 Tb240 2.415 . S
O261 C249 1.239 . S
O262 Tb240 2.399 . S
O262 C249 1.263 . S
C263 O252 1.261 . S
C263 O253 1.257 . S
C264 C267 1.358 . S
C264 C268 1.332 . S
C264 C270 1.504 . S
C265 C266 1.373 . S
C265 C269 1.308 . S
C266 C265 1.373 . S
C266 C267 1.429 . S
C266 H276 0.932 . S
C267 C264 1.358 . S
C267 C266 1.429 . S
C267 H277 0.930 . S
C268 C264 1.332 . S
C268 C269 1.394 . S
C268 H278 0.932 . S
C269 C265 1.308 . S
C269 C268 1.394 . S
C269 H279 0.929 . S
C270 Tb241 2.764 1_556 S
C270 O254 1.239 . S
C270 O255 1.263 . S
C270 C264 1.504 . S
C271 O256 1.236 . S
C271 O257 1.257 . S
H272 C245 0.932 . S
H273 C246 0.930 . S
H274 C247 0.932 . S
H275 C248 0.929 . S
H276 C266 0.932 . S
H277 C267 0.930 . S
H278 C268 0.932 . S
H279 C269 0.929 . S
Tb280 C289 2.764 1_556 S
Tb280 O290 2.325 . S
Tb280 O293 2.303 . S
Tb280 O297 2.322 . S
Tb280 O298 2.349 . S
Tb280 O301 2.415 1_556 S
Tb280 O302 2.399 1_556 S
Tb281 O291 2.322 . S
Tb281 O292 2.349 . S
Tb281 O294 2.415 . S
Tb281 O295 2.399 . S
Tb281 O296 2.325 . S
Tb281 O299 2.303 . S
Tb281 C310 2.764 . S
C282 O298 1.261 . S
C282 O299 1.257 . S
C283 C286 1.358 . S
C283 C287 1.332 . S
C283 C289 1.504 . S
C284 C285 1.373 . S
C284 C288 1.308 . S
C285 C284 1.373 . S
C285 C286 1.429 . S
C285 H312 0.932 . S
C286 C283 1.358 . S
C286 C285 1.429 . S
C286 H313 0.930 . S
C287 C283 1.332 . S
C287 C288 1.394 . S
C287 H314 0.932 . S
C288 C284 1.308 . S
C288 C287 1.394 . S
C288 H315 0.929 . S
C289 Tb280 2.764 1_554 S
C289 C283 1.504 . S
C289 O301 1.239 . S
C289 O302 1.263 . S
O290 Tb280 2.325 . S
O290 C300 1.236 . S
O291 Tb281 2.322 . S
O291 C300 1.257 . S
O292 Tb281 2.349 . S
O292 C303 1.261 . S
O293 Tb280 2.303 . S
O293 C303 1.257 . S
O294 Tb281 2.415 . S
O294 C310 1.239 . S
O295 Tb281 2.399 . S
O295 C310 1.263 . S
O296 Tb281 2.325 . S
O296 C311 1.236 . S
O297 Tb280 2.322 . S
O297 C311 1.257 . S
O298 Tb280 2.349 . S
O298 C282 1.261 . S
O299 Tb281 2.303 . S
O299 C282 1.257 . S
C300 O290 1.236 . S
C300 O291 1.257 . S
O301 Tb280 2.415 1_554 S
O301 C289 1.239 . S
O302 Tb280 2.399 1_554 S
O302 C289 1.263 . S
C303 O292 1.261 . S
C303 O293 1.257 . S
C304 C307 1.358 . S
C304 C308 1.332 . S
C304 C310 1.504 . S
C305 C306 1.373 . S
C305 C309 1.308 . S
C306 C305 1.373 . S
C306 C307 1.429 . S
C306 H316 0.932 . S
C307 C304 1.358 . S
C307 C306 1.429 . S
C307 H317 0.930 . S
C308 C304 1.332 . S
C308 C309 1.394 . S
C308 H318 0.932 . S
C309 C305 1.308 . S
C309 C308 1.394 . S
C309 H319 0.929 . S
C310 Tb281 2.764 . S
C310 O294 1.239 . S
C310 O295 1.263 . S
C310 C304 1.504 . S
C311 O296 1.236 . S
C311 O297 1.257 . S
H312 C285 0.932 . S
H313 C286 0.930 . S
H314 C287 0.932 . S
H315 C288 0.929 . S
H316 C306 0.932 . S
H317 C307 0.930 . S
H318 C308 0.932 . S
H319 C309 0.929 . S
Tb320 C329 2.764 . S
Tb320 O330 2.325 . S
Tb320 O333 2.303 . S
Tb320 O337 2.322 . S
Tb320 O338 2.349 . S
Tb320 O341 2.415 . S
Tb320 O342 2.399 . S
Tb321 O331 2.322 . S
Tb321 O332 2.349 . S
Tb321 O334 2.415 . S
Tb321 O335 2.399 . S
Tb321 O336 2.325 . S
Tb321 O339 2.303 . S
Tb321 C350 2.764 . S
C322 O338 1.261 . S
C322 O339 1.257 . S
C323 C326 1.358 . S
C323 C327 1.332 . S
C323 C329 1.504 . S
C324 C325 1.373 . S
C324 C328 1.308 . S
C325 C324 1.373 . S
C325 C326 1.429 . S
C325 H352 0.932 . S
C326 C323 1.358 . S
C326 C325 1.429 . S
C326 H353 0.930 . S
C327 C323 1.332 . S
C327 C328 1.394 . S
C327 H354 0.932 . S
C328 C324 1.308 . S
C328 C327 1.394 . S
C328 H355 0.929 . S
C329 Tb320 2.764 . S
C329 C323 1.504 . S
C329 O341 1.239 . S
C329 O342 1.263 . S
O330 Tb320 2.325 . S
O330 C340 1.236 . S
O331 Tb321 2.322 . S
O331 C340 1.257 . S
O332 Tb321 2.349 . S
O332 C343 1.261 . S
O333 Tb320 2.303 . S
O333 C343 1.257 . S
O334 Tb321 2.415 . S
O334 C350 1.239 . S
O335 Tb321 2.399 . S
O335 C350 1.263 . S
O336 Tb321 2.325 . S
O336 C351 1.236 . S
O337 Tb320 2.322 . S
O337 C351 1.257 . S
O338 Tb320 2.349 . S
O338 C322 1.261 . S
O339 Tb321 2.303 . S
O339 C322 1.257 . S
C340 O330 1.236 . S
C340 O331 1.257 . S
O341 Tb320 2.415 . S
O341 C329 1.239 . S
O342 Tb320 2.399 . S
O342 C329 1.263 . S
C343 O332 1.261 . S
C343 O333 1.257 . S
C344 C347 1.358 . S
C344 C348 1.332 . S
C344 C350 1.504 . S
C345 C346 1.373 . S
C345 C349 1.308 . S
C346 C345 1.373 . S
C346 C347 1.429 . S
C346 H356 0.932 . S
C347 C344 1.358 . S
C347 C346 1.429 . S
C347 H357 0.930 . S
C348 C344 1.332 . S
C348 C349 1.394 . S
C348 H358 0.932 . S
C349 C345 1.308 . S
C349 C348 1.394 . S
C349 H359 0.929 . S
C350 Tb321 2.764 . S
C350 O334 1.239 . S
C350 O335 1.263 . S
C350 C344 1.504 . S
C351 O336 1.236 . S
C351 O337 1.257 . S
H352 C325 0.932 . S
H353 C326 0.930 . S
H354 C327 0.932 . S
H355 C328 0.929 . S
H356 C346 0.932 . S
H357 C347 0.930 . S
H358 C348 0.932 . S
H359 C349 0.929 . S
Tb360 C369 2.764 . S
Tb360 O370 2.325 . S
Tb360 O373 2.303 . S
Tb360 O377 2.322 . S
Tb360 O378 2.349 . S
Tb360 O381 2.415 . S
Tb360 O382 2.399 . S
Tb361 O371 2.322 . S
Tb361 O372 2.349 . S
Tb361 O374 2.415 . S
Tb361 O375 2.399 . S
Tb361 O376 2.325 . S
Tb361 O379 2.303 . S
Tb361 C390 2.764 . S
C362 O378 1.261 . S
C362 O379 1.257 . S
C363 C366 1.358 . S
C363 C367 1.332 . S
C363 C369 1.504 . S
C364 C365 1.373 . S
C364 C368 1.308 . S
C365 C364 1.373 . S
C365 C366 1.429 . S
C365 H392 0.932 . S
C366 C363 1.358 . S
C366 C365 1.429 . S
C366 H393 0.930 . S
C367 C363 1.332 . S
C367 C368 1.394 . S
C367 H394 0.932 . S
C368 C364 1.308 . S
C368 C367 1.394 . S
C368 H395 0.929 . S
C369 Tb360 2.764 . S
C369 C363 1.504 . S
C369 O381 1.239 . S
C369 O382 1.263 . S
O370 Tb360 2.325 . S
O370 C380 1.236 . S
O371 Tb361 2.322 . S
O371 C380 1.257 . S
O372 Tb361 2.349 . S
O372 C383 1.261 . S
O373 Tb360 2.303 . S
O373 C383 1.257 . S
O374 Tb361 2.415 . S
O374 C390 1.239 . S
O375 Tb361 2.399 . S
O375 C390 1.263 . S
O376 Tb361 2.325 . S
O376 C391 1.236 . S
O377 Tb360 2.322 . S
O377 C391 1.257 . S
O378 Tb360 2.349 . S
O378 C362 1.261 . S
O379 Tb361 2.303 . S
O379 C362 1.257 . S
C380 O370 1.236 . S
C380 O371 1.257 . S
O381 Tb360 2.415 . S
O381 C369 1.239 . S
O382 Tb360 2.399 . S
O382 C369 1.263 . S
C383 O372 1.261 . S
C383 O373 1.257 . S
C384 C387 1.358 . S
C384 C388 1.332 . S
C384 C390 1.504 . S
C385 C386 1.373 . S
C385 C389 1.308 . S
C386 C385 1.373 . S
C386 C387 1.429 . S
C386 H396 0.932 . S
C387 C384 1.358 . S
C387 C386 1.429 . S
C387 H397 0.930 . S
C388 C384 1.332 . S
C388 C389 1.394 . S
C388 H398 0.932 . S
C389 C385 1.308 . S
C389 C388 1.394 . S
C389 H399 0.929 . S
C390 Tb361 2.764 . S
C390 O374 1.239 . S
C390 O375 1.263 . S
C390 C384 1.504 . S
C391 O376 1.236 . S
C391 O377 1.257 . S
H392 C365 0.932 . S
H393 C366 0.930 . S
H394 C367 0.932 . S
H395 C368 0.929 . S
H396 C386 0.932 . S
H397 C387 0.930 . S
H398 C388 0.932 . S
H399 C389 0.929 . S
Tb400 C409 2.764 . S
Tb400 O410 2.325 . S
Tb400 O413 2.303 . S
Tb400 O417 2.322 . S
Tb400 O418 2.349 . S
Tb400 O421 2.415 . S
Tb400 O422 2.399 . S
Tb401 O411 2.322 . S
Tb401 O412 2.349 . S
Tb401 O414 2.415 . S
Tb401 O415 2.399 . S
Tb401 O416 2.325 . S
Tb401 O419 2.303 . S
Tb401 C430 2.764 . S
C402 O418 1.261 . S
C402 O419 1.257 . S
C403 C406 1.358 . S
C403 C407 1.332 . S
C403 C409 1.504 . S
C404 C405 1.373 . S
C404 C408 1.308 . S
C405 C404 1.373 . S
C405 C406 1.429 . S
C405 H432 0.932 . S
C406 C403 1.358 . S
C406 C405 1.429 . S
C406 H433 0.930 . S
C407 C403 1.332 . S
C407 C408 1.394 . S
C407 H434 0.932 . S
C408 C404 1.308 . S
C408 C407 1.394 . S
C408 H435 0.929 . S
C409 Tb400 2.764 . S
C409 C403 1.504 . S
C409 O421 1.239 . S
C409 O422 1.263 . S
O410 Tb400 2.325 . S
O410 C420 1.236 . S
O411 Tb401 2.322 . S
O411 C420 1.257 . S
O412 Tb401 2.349 . S
O412 C423 1.261 . S
O413 Tb400 2.303 . S
O413 C423 1.257 . S
O414 Tb401 2.415 . S
O414 C430 1.239 . S
O415 Tb401 2.399 . S
O415 C430 1.263 . S
O416 Tb401 2.325 . S
O416 C431 1.236 . S
O417 Tb400 2.322 . S
O417 C431 1.257 . S
O418 Tb400 2.349 . S
O418 C402 1.261 . S
O419 Tb401 2.303 . S
O419 C402 1.257 . S
C420 O410 1.236 . S
C420 O411 1.257 . S
O421 Tb400 2.415 . S
O421 C409 1.239 . S
O422 Tb400 2.399 . S
O422 C409 1.263 . S
C423 O412 1.261 . S
C423 O413 1.257 . S
C424 C427 1.358 . S
C424 C428 1.332 . S
C424 C430 1.504 . S
C425 C426 1.373 . S
C425 C429 1.308 . S
C426 C425 1.373 . S
C426 C427 1.429 . S
C426 H436 0.932 . S
C427 C424 1.358 . S
C427 C426 1.429 . S
C427 H437 0.930 . S
C428 C424 1.332 . S
C428 C429 1.394 . S
C428 H438 0.932 . S
C429 C425 1.308 . S
C429 C428 1.394 . S
C429 H439 0.929 . S
C430 Tb401 2.764 . S
C430 O414 1.239 . S
C430 O415 1.263 . S
C430 C424 1.504 . S
C431 O416 1.236 . S
C431 O417 1.257 . S
H432 C405 0.932 . S
H433 C406 0.930 . S
H434 C407 0.932 . S
H435 C408 0.929 . S
H436 C426 0.932 . S
H437 C427 0.930 . S
H438 C428 0.932 . S
H439 C429 0.929 . S
Tb440 C449 2.764 . S
Tb440 O450 2.325 . S
Tb440 O453 2.303 . S
Tb440 O457 2.322 . S
Tb440 O458 2.349 . S
Tb440 O461 2.415 . S
Tb440 O462 2.399 . S
Tb441 O451 2.322 . S
Tb441 O452 2.349 . S
Tb441 O454 2.415 . S
Tb441 O455 2.399 . S
Tb441 O456 2.325 . S
Tb441 O459 2.303 . S
Tb441 C470 2.764 . S
C442 O458 1.261 . S
C442 O459 1.257 . S
C443 C446 1.358 . S
C443 C447 1.332 . S
C443 C449 1.504 . S
C444 C445 1.373 . S
C444 C448 1.308 . S
C445 C444 1.373 . S
C445 C446 1.429 . S
C445 H472 0.932 . S
C446 C443 1.358 . S
C446 C445 1.429 . S
C446 H473 0.930 . S
C447 C443 1.332 . S
C447 C448 1.394 . S
C447 H474 0.932 . S
C448 C444 1.308 . S
C448 C447 1.394 . S
C448 H475 0.929 . S
C449 Tb440 2.764 . S
C449 C443 1.504 . S
C449 O461 1.239 . S
C449 O462 1.263 . S
O450 Tb440 2.325 . S
O450 C460 1.236 . S
O451 Tb441 2.322 . S
O451 C460 1.257 . S
O452 Tb441 2.349 . S
O452 C463 1.261 . S
O453 Tb440 2.303 . S
O453 C463 1.257 . S
O454 Tb441 2.415 . S
O454 C470 1.239 . S
O455 Tb441 2.399 . S
O455 C470 1.263 . S
O456 Tb441 2.325 . S
O456 C471 1.236 . S
O457 Tb440 2.322 . S
O457 C471 1.257 . S
O458 Tb440 2.349 . S
O458 C442 1.261 . S
O459 Tb441 2.303 . S
O459 C442 1.257 . S
C460 O450 1.236 . S
C460 O451 1.257 . S
O461 Tb440 2.415 . S
O461 C449 1.239 . S
O462 Tb440 2.399 . S
O462 C449 1.263 . S
C463 O452 1.261 . S
C463 O453 1.257 . S
C464 C467 1.358 . S
C464 C468 1.332 . S
C464 C470 1.504 . S
C465 C466 1.373 . S
C465 C469 1.308 . S
C466 C465 1.373 . S
C466 C467 1.429 . S
C466 H476 0.932 . S
C467 C464 1.358 . S
C467 C466 1.429 . S
C467 H477 0.930 . S
C468 C464 1.332 . S
C468 C469 1.394 . S
C468 H478 0.932 . S
C469 C465 1.308 . S
C469 C468 1.394 . S
C469 H479 0.929 . S
C470 Tb441 2.764 . S
C470 O454 1.239 . S
C470 O455 1.263 . S
C470 C464 1.504 . S
C471 O456 1.236 . S
C471 O457 1.257 . S
H472 C445 0.932 . S
H473 C446 0.930 . S
H474 C447 0.932 . S
H475 C448 0.929 . S
H476 C466 0.932 . S
H477 C467 0.930 . S
H478 C468 0.932 . S
H479 C469 0.929 . S
Tb480 C489 2.764 . S
Tb480 O490 2.325 . S
Tb480 O493 2.303 . S
Tb480 O497 2.322 . S
Tb480 O498 2.349 . S
Tb480 O501 2.415 . S
Tb480 O502 2.399 . S
Tb481 O491 2.322 . S
Tb481 O492 2.349 . S
Tb481 O494 2.415 . S
Tb481 O495 2.399 . S
Tb481 O496 2.325 . S
Tb481 O499 2.303 . S
Tb481 C510 2.764 . S
C482 O498 1.261 . S
C482 O499 1.257 . S
C483 C486 1.358 . S
C483 C487 1.332 . S
C483 C489 1.504 . S
C484 C485 1.373 . S
C484 C488 1.308 . S
C485 C484 1.373 . S
C485 C486 1.429 . S
C485 H512 0.932 . S
C486 C483 1.358 . S
C486 C485 1.429 . S
C486 H513 0.930 . S
C487 C483 1.332 . S
C487 C488 1.394 . S
C487 H514 0.932 . S
C488 C484 1.308 . S
C488 C487 1.394 . S
C488 H515 0.929 . S
C489 Tb480 2.764 . S
C489 C483 1.504 . S
C489 O501 1.239 . S
C489 O502 1.263 . S
O490 Tb480 2.325 . S
O490 C500 1.236 . S
O491 Tb481 2.322 . S
O491 C500 1.257 . S
O492 Tb481 2.349 . S
O492 C503 1.261 . S
O493 Tb480 2.303 . S
O493 C503 1.257 . S
O494 Tb481 2.415 . S
O494 C510 1.239 . S
O495 Tb481 2.399 . S
O495 C510 1.263 . S
O496 Tb481 2.325 . S
O496 C511 1.236 . S
O497 Tb480 2.322 . S
O497 C511 1.257 . S
O498 Tb480 2.349 . S
O498 C482 1.261 . S
O499 Tb481 2.303 . S
O499 C482 1.257 . S
C500 O490 1.236 . S
C500 O491 1.257 . S
O501 Tb480 2.415 . S
O501 C489 1.239 . S
O502 Tb480 2.399 . S
O502 C489 1.263 . S
C503 O492 1.261 . S
C503 O493 1.257 . S
C504 C507 1.358 . S
C504 C508 1.332 . S
C504 C510 1.504 . S
C505 C506 1.373 . S
C505 C509 1.308 . S
C506 C505 1.373 . S
C506 C507 1.429 . S
C506 H516 0.932 . S
C507 C504 1.358 . S
C507 C506 1.429 . S
C507 H517 0.930 . S
C508 C504 1.332 . S
C508 C509 1.394 . S
C508 H518 0.932 . S
C509 C505 1.308 . S
C509 C508 1.394 . S
C509 H519 0.929 . S
C510 Tb481 2.764 . S
C510 O494 1.239 . S
C510 O495 1.263 . S
C510 C504 1.504 . S
C511 O496 1.236 . S
C511 O497 1.257 . S
H512 C485 0.932 . S
H513 C486 0.930 . S
H514 C487 0.932 . S
H515 C488 0.929 . S
H516 C506 0.932 . S
H517 C507 0.930 . S
H518 C508 0.932 . S
H519 C509 0.929 . S
Tb520 C529 2.764 . S
Tb520 O530 2.325 . S
Tb520 O533 2.303 . S
Tb520 O537 2.322 . S
Tb520 O538 2.349 . S
Tb520 O541 2.415 . S
Tb520 O542 2.399 . S
Tb521 O531 2.322 . S
Tb521 O532 2.349 . S
Tb521 O534 2.415 . S
Tb521 O535 2.399 . S
Tb521 O536 2.325 . S
Tb521 O539 2.303 . S
Tb521 C550 2.764 . S
C522 O538 1.261 . S
C522 O539 1.257 . S
C523 C526 1.358 . S
C523 C527 1.332 . S
C523 C529 1.504 . S
C524 C525 1.373 . S
C524 C528 1.308 . S
C525 C524 1.373 . S
C525 C526 1.429 . S
C525 H552 0.932 . S
C526 C523 1.358 . S
C526 C525 1.429 . S
C526 H553 0.930 . S
C527 C523 1.332 . S
C527 C528 1.394 . S
C527 H554 0.932 . S
C528 C524 1.308 . S
C528 C527 1.394 . S
C528 H555 0.929 . S
C529 Tb520 2.764 . S
C529 C523 1.504 . S
C529 O541 1.239 . S
C529 O542 1.263 . S
O530 Tb520 2.325 . S
O530 C540 1.236 . S
O531 Tb521 2.322 . S
O531 C540 1.257 . S
O532 Tb521 2.349 . S
O532 C543 1.261 . S
O533 Tb520 2.303 . S
O533 C543 1.257 . S
O534 Tb521 2.415 . S
O534 C550 1.239 . S
O535 Tb521 2.399 . S
O535 C550 1.263 . S
O536 Tb521 2.325 . S
O536 C551 1.236 . S
O537 Tb520 2.322 . S
O537 C551 1.257 . S
O538 Tb520 2.349 . S
O538 C522 1.261 . S
O539 Tb521 2.303 . S
O539 C522 1.257 . S
C540 O530 1.236 . S
C540 O531 1.257 . S
O541 Tb520 2.415 . S
O541 C529 1.239 . S
O542 Tb520 2.399 . S
O542 C529 1.263 . S
C543 O532 1.261 . S
C543 O533 1.257 . S
C544 C547 1.358 . S
C544 C548 1.332 . S
C544 C550 1.504 . S
C545 C546 1.373 . S
C545 C549 1.308 . S
C546 C545 1.373 . S
C546 C547 1.429 . S
C546 H556 0.932 . S
C547 C544 1.358 . S
C547 C546 1.429 . S
C547 H557 0.930 . S
C548 C544 1.332 . S
C548 C549 1.394 . S
C548 H558 0.932 . S
C549 C545 1.308 . S
C549 C548 1.394 . S
C549 H559 0.929 . S
C550 Tb521 2.764 . S
C550 O534 1.239 . S
C550 O535 1.263 . S
C550 C544 1.504 . S
C551 O536 1.236 . S
C551 O537 1.257 . S
H552 C525 0.932 . S
H553 C526 0.930 . S
H554 C527 0.932 . S
H555 C528 0.929 . S
H556 C546 0.932 . S
H557 C547 0.930 . S
H558 C548 0.932 . S
H559 C549 0.929 . S
Tb560 C569 2.764 . S
Tb560 O570 2.325 . S
Tb560 O573 2.303 . S
Tb560 O577 2.322 . S
Tb560 O578 2.349 . S
Tb560 O581 2.415 . S
Tb560 O582 2.399 . S
Tb561 O571 2.322 . S
Tb561 O572 2.349 . S
Tb561 O574 2.415 . S
Tb561 O575 2.399 . S
Tb561 O576 2.325 . S
Tb561 O579 2.303 . S
Tb561 C590 2.764 . S
C562 O578 1.261 . S
C562 O579 1.257 . S
C563 C566 1.358 . S
C563 C567 1.332 . S
C563 C569 1.504 . S
C564 C565 1.373 . S
C564 C568 1.308 . S
C565 C564 1.373 . S
C565 C566 1.429 . S
C565 H592 0.932 . S
C566 C563 1.358 . S
C566 C565 1.429 . S
C566 H593 0.930 . S
C567 C563 1.332 . S
C567 C568 1.394 . S
C567 H594 0.932 . S
C568 C564 1.308 . S
C568 C567 1.394 . S
C568 H595 0.929 . S
C569 Tb560 2.764 . S
C569 C563 1.504 . S
C569 O581 1.239 . S
C569 O582 1.263 . S
O570 Tb560 2.325 . S
O570 C580 1.236 . S
O571 Tb561 2.322 . S
O571 C580 1.257 . S
O572 Tb561 2.349 . S
O572 C583 1.261 . S
O573 Tb560 2.303 . S
O573 C583 1.257 . S
O574 Tb561 2.415 . S
O574 C590 1.239 . S
O575 Tb561 2.399 . S
O575 C590 1.263 . S
O576 Tb561 2.325 . S
O576 C591 1.236 . S
O577 Tb560 2.322 . S
O577 C591 1.257 . S
O578 Tb560 2.349 . S
O578 C562 1.261 . S
O579 Tb561 2.303 . S
O579 C562 1.257 . S
C580 O570 1.236 . S
C580 O571 1.257 . S
O581 Tb560 2.415 . S
O581 C569 1.239 . S
O582 Tb560 2.399 . S
O582 C569 1.263 . S
C583 O572 1.261 . S
C583 O573 1.257 . S
C584 C587 1.358 . S
C584 C588 1.332 . S
C584 C590 1.504 . S
C585 C586 1.373 . S
C585 C589 1.308 . S
C586 C585 1.373 . S
C586 C587 1.429 . S
C586 H596 0.932 . S
C587 C584 1.358 . S
C587 C586 1.429 . S
C587 H597 0.930 . S
C588 C584 1.332 . S
C588 C589 1.394 . S
C588 H598 0.932 . S
C589 C585 1.308 . S
C589 C588 1.394 . S
C589 H599 0.929 . S
C590 Tb561 2.764 . S
C590 O574 1.239 . S
C590 O575 1.263 . S
C590 C584 1.504 . S
C591 O576 1.236 . S
C591 O577 1.257 . S
H592 C565 0.932 . S
H593 C566 0.930 . S
H594 C567 0.932 . S
H595 C568 0.929 . S
H596 C586 0.932 . S
H597 C587 0.930 . S
H598 C588 0.932 . S
H599 C589 0.929 . S
Tb600 C609 2.764 . S
Tb600 O610 2.325 . S
Tb600 O613 2.303 . S
Tb600 O617 2.322 . S
Tb600 O618 2.349 . S
Tb600 O621 2.415 . S
Tb600 O622 2.399 . S
Tb601 O611 2.322 . S
Tb601 O612 2.349 . S
Tb601 O614 2.415 . S
Tb601 O615 2.399 . S
Tb601 O616 2.325 . S
Tb601 O619 2.303 . S
Tb601 C630 2.764 . S
C602 O618 1.261 . S
C602 O619 1.257 . S
C603 C606 1.358 . S
C603 C607 1.332 . S
C603 C609 1.504 . S
C604 C605 1.373 . S
C604 C608 1.308 . S
C605 C604 1.373 . S
C605 C606 1.429 . S
C605 H632 0.932 . S
C606 C603 1.358 . S
C606 C605 1.429 . S
C606 H633 0.930 . S
C607 C603 1.332 . S
C607 C608 1.394 . S
C607 H634 0.932 . S
C608 C604 1.308 . S
C608 C607 1.394 . S
C608 H635 0.929 . S
C609 Tb600 2.764 . S
C609 C603 1.504 . S
C609 O621 1.239 . S
C609 O622 1.263 . S
O610 Tb600 2.325 . S
O610 C620 1.236 . S
O611 Tb601 2.322 . S
O611 C620 1.257 . S
O612 Tb601 2.349 . S
O612 C623 1.261 . S
O613 Tb600 2.303 . S
O613 C623 1.257 . S
O614 Tb601 2.415 . S
O614 C630 1.239 . S
O615 Tb601 2.399 . S
O615 C630 1.263 . S
O616 Tb601 2.325 . S
O616 C631 1.236 . S
O617 Tb600 2.322 . S
O617 C631 1.257 . S
O618 Tb600 2.349 . S
O618 C602 1.261 . S
O619 Tb601 2.303 . S
O619 C602 1.257 . S
C620 O610 1.236 . S
C620 O611 1.257 . S
O621 Tb600 2.415 . S
O621 C609 1.239 . S
O622 Tb600 2.399 . S
O622 C609 1.263 . S
C623 O612 1.261 . S
C623 O613 1.257 . S
C624 C627 1.358 . S
C624 C628 1.332 . S
C624 C630 1.504 . S
C625 C626 1.373 . S
C625 C629 1.308 . S
C626 C625 1.373 . S
C626 C627 1.429 . S
C626 H636 0.932 . S
C627 C624 1.358 . S
C627 C626 1.429 . S
C627 H637 0.930 . S
C628 C624 1.332 . S
C628 C629 1.394 . S
C628 H638 0.932 . S
C629 C625 1.308 . S
C629 C628 1.394 . S
C629 H639 0.929 . S
C630 Tb601 2.764 . S
C630 O614 1.239 . S
C630 O615 1.263 . S
C630 C624 1.504 . S
C631 O616 1.236 . S
C631 O617 1.257 . S
H632 C605 0.932 . S
H633 C606 0.930 . S
H634 C607 0.932 . S
H635 C608 0.929 . S
H636 C626 0.932 . S
H637 C627 0.930 . S
H638 C628 0.932 . S
H639 C629 0.929 . S
H640 C648 0.929 . S
H641 C650 0.930 . S
H642 C652 0.930 . S
H643 C655 0.929 . S
H644 C658 0.930 . S
H645 C660 0.960 . S
H646 C660 0.960 . S
H647 C660 0.960 . S
C648 H640 0.929 . S
C648 C649 1.377 . S
C648 C650 1.384 . S
C649 C648 1.377 . S
C649 C655 1.390 . S
C650 H641 0.930 . S
C650 C648 1.384 . S
C650 C651 1.372 . S
C651 C650 1.372 . S
C651 C652 1.400 . S
C651 C656 1.490 . S
C652 H642 0.930 . S
C652 C651 1.400 . S
C652 C655 1.386 . S
H653 C669 0.930 . S
H654 C670 0.931 . S
C655 H643 0.929 . S
C655 C649 1.390 . S
C655 C652 1.386 . S
C656 C651 1.490 . S
C656 C658 1.395 . S
C656 C659 1.403 . S
H657 C663 0.930 . S
C658 H644 0.930 . S
C658 C656 1.395 . S
C658 C661 1.403 . S
C659 C656 1.403 . S
C659 C660 1.524 . S
C659 C663 1.400 . S
C660 H645 0.960 . S
C660 H646 0.960 . S
C660 H647 0.960 . S
C660 C659 1.524 . S
C661 C658 1.403 . S
C661 C662 1.392 1_565 S
C661 C665 1.495 1_565 S
C662 C661 1.392 1_545 S
C662 C663 1.385 1_545 S
C662 C664 1.478 . S
C663 H657 0.930 . S
C663 C659 1.400 . S
C663 C662 1.385 1_565 S
C664 C662 1.478 . S
C664 C666 1.381 . S
C664 C670 1.383 . S
C665 C661 1.495 1_545 S
C665 H671 0.959 1_545 S
C665 H672 0.961 . S
C665 H673 0.960 . S
C666 C664 1.381 . S
C666 C667 1.394 . S
C666 H674 0.930 . S
C667 C666 1.394 . S
C667 C668 1.383 . S
C667 H675 0.929 . S
C668 C667 1.383 . S
C668 C669 1.377 . S
C669 H653 0.930 . S
C669 C668 1.377 . S
C669 C670 1.379 . S
C670 H654 0.931 . S
C670 C664 1.383 . S
C670 C669 1.379 . S
H671 C665 0.959 1_565 S
H672 C665 0.961 . S
H673 C665 0.960 . S
H674 C666 0.930 . S
H675 C667 0.929 . S
H676 C684 0.929 . S
H677 C686 0.930 . S
H678 C688 0.930 . S
H679 C691 0.929 . S
H680 C694 0.930 . S
H681 C696 0.960 . S
H682 C696 0.960 . S
H683 C696 0.960 . S
C684 H676 0.929 . S
C684 C685 1.377 . S
C684 C686 1.384 . S
C685 C684 1.377 . S
C685 C691 1.390 . S
C686 H677 0.930 . S
C686 C684 1.384 . S
C686 C687 1.372 . S
C687 C686 1.372 . S
C687 C688 1.400 . S
C687 C692 1.490 . S
C688 H678 0.930 . S
C688 C687 1.400 . S
C688 C691 1.386 . S
H689 C705 0.930 . S
H690 C706 0.931 . S
C691 H679 0.929 . S
C691 C685 1.390 . S
C691 C688 1.386 . S
C692 C687 1.490 . S
C692 C694 1.395 . S
C692 C695 1.403 . S
H693 C699 0.930 . S
C694 H680 0.930 . S
C694 C692 1.395 . S
C694 C697 1.459 . S
C695 C692 1.403 . S
C695 C696 1.524 . S
C695 C699 1.400 . S
C696 H681 0.960 . S
C696 H682 0.960 . S
C696 H683 0.960 . S
C696 C695 1.524 . S
C697 C694 1.459 . S
C697 C698 1.384 1_655 S
C697 C701 1.452 1_655 S
C698 C697 1.384 1_455 S
C698 C699 1.385 1_455 S
C698 C700 1.478 . S
C699 H693 0.930 . S
C699 C695 1.400 . S
C699 C698 1.385 1_655 S
C700 C698 1.478 . S
C700 C702 1.381 . S
C700 C706 1.383 . S
C701 C697 1.452 1_455 S
C701 H707 0.959 . S
C701 H708 0.961 . S
C701 H709 0.960 . S
C702 C700 1.381 . S
C702 C703 1.394 . S
C702 H710 0.930 . S
C703 C702 1.394 . S
C703 C704 1.383 . S
C703 H711 0.929 . S
C704 C703 1.383 . S
C704 C705 1.377 . S
C705 H689 0.930 . S
C705 C704 1.377 . S
C705 C706 1.379 . S
C706 H690 0.931 . S
C706 C700 1.383 . S
C706 C705 1.379 . S
H707 C701 0.959 . S
H708 C701 0.961 . S
H709 C701 0.960 . S
H710 C702 0.930 . S
H711 C703 0.929 . S
H712 C720 0.929 . S
H713 C722 0.930 . S
H714 C724 0.930 . S
H715 C727 0.929 . S
H716 C730 0.930 . S
H717 C732 0.960 . S
H718 C732 0.960 . S
H719 C732 0.960 . S
C720 H712 0.929 . S
C720 C721 1.377 . S
C720 C722 1.384 . S
C721 C720 1.377 . S
C721 C727 1.390 . S
C722 H713 0.930 . S
C722 C720 1.384 . S
C722 C723 1.372 . S
C723 C722 1.372 . S
C723 C724 1.400 . S
C723 C728 1.489 . S
C724 H714 0.930 . S
C724 C723 1.400 . S
C724 C727 1.386 . S
H725 C741 0.930 . S
H726 C742 0.931 . S
C727 H715 0.929 . S
C727 C721 1.390 . S
C727 C724 1.386 . S
C728 C723 1.489 . S
C728 C730 1.395 1_565 S
C728 C731 1.403 1_565 S
H729 C735 0.930 . S
C730 H716 0.930 . S
C730 C728 1.395 1_545 S
C730 C733 1.403 . S
C731 C728 1.403 1_545 S
C731 C732 1.524 1_545 S
C731 C735 1.400 . S
C732 H717 0.960 . S
C732 H718 0.960 . S
C732 H719 0.960 . S
C732 C731 1.524 1_565 S
C733 C730 1.403 . S
C733 C734 1.392 . S
C733 C737 1.495 . S
C734 C733 1.392 . S
C734 C735 1.385 . S
C734 C736 1.478 . S
C735 H729 0.930 . S
C735 C731 1.400 . S
C735 C734 1.385 . S
C736 C734 1.478 . S
C736 C738 1.381 . S
C736 C742 1.383 . S
C737 C733 1.495 . S
C737 H743 0.959 . S
C737 H744 0.961 . S
C737 H745 0.960 . S
C738 C736 1.381 . S
C738 C739 1.394 . S
C738 H746 0.930 . S
C739 C738 1.394 . S
C739 C740 1.383 . S
C739 H747 0.929 . S
C740 C739 1.383 . S
C740 C741 1.377 . S
C741 H725 0.930 . S
C741 C740 1.377 . S
C741 C742 1.379 . S
C742 H726 0.931 . S
C742 C736 1.383 . S
C742 C741 1.379 . S
H743 C737 0.959 . S
H744 C737 0.961 . S
H745 C737 0.960 . S
H746 C738 0.930 . S
H747 C739 0.929 . S
H748 C756 0.929 . S
H749 C758 0.930 . S
H750 C760 0.930 . S
H751 C763 0.929 . S
H752 C766 0.930 . S
H753 C768 0.960 . S
H754 C768 0.960 . S
H755 C768 0.960 . S
C756 H748 0.929 . S
C756 C757 1.377 . S
C756 C758 1.384 . S
C757 C756 1.377 . S
C757 C763 1.390 . S
C758 H749 0.930 . S
C758 C756 1.384 . S
C758 C759 1.372 . S
C759 C758 1.372 . S
C759 C760 1.400 . S
C759 C764 1.479 1_655 S
C760 H750 0.930 . S
C760 C759 1.400 . S
C760 C763 1.386 . S
H761 C777 0.930 . S
H762 C778 0.931 . S
C763 H751 0.929 . S
C763 C757 1.390 . S
C763 C760 1.386 . S
C764 C759 1.479 1_455 S
C764 C766 1.404 . S
C764 C767 1.405 . S
H765 C771 0.930 . S
C766 H752 0.930 . S
C766 C764 1.404 . S
C766 C769 1.403 . S
C767 C764 1.405 . S
C767 C768 1.524 1_455 S
C767 C771 1.400 . S
C768 H753 0.960 . S
C768 H754 0.960 . S
C768 H755 0.960 . S
C768 C767 1.524 1_655 S
C769 C766 1.403 . S
C769 C770 1.392 . S
C769 C773 1.495 . S
C770 C769 1.392 . S
C770 C771 1.385 . S
C770 C772 1.478 . S
C771 H765 0.930 . S
C771 C767 1.400 . S
C771 C770 1.385 . S
C772 C770 1.478 . S
C772 C774 1.381 . S
C772 C778 1.383 . S
C773 C769 1.495 . S
C773 H779 0.959 . S
C773 H780 0.961 . S
C773 H781 0.960 . S
C774 C772 1.381 . S
C774 C775 1.394 . S
C774 H782 0.930 . S
C775 C774 1.394 . S
C775 C776 1.383 . S
C775 H783 0.929 . S
C776 C775 1.383 . S
C776 C777 1.377 . S
C777 H761 0.930 . S
C777 C776 1.377 . S
C777 C778 1.379 . S
C778 H762 0.931 . S
C778 C772 1.383 . S
C778 C777 1.379 . S
H779 C773 0.959 . S
H780 C773 0.961 . S
H781 C773 0.960 . S
H782 C774 0.930 . S
H783 C775 0.929 . S
H784 C792 0.929 . S
H785 C794 0.930 . S
H786 C796 0.930 . S
H787 C799 0.929 . S
H788 C802 0.930 . S
H789 C804 0.960 . S
H790 C804 0.960 1_554 S
H791 C804 0.960 . S
C792 H784 0.929 . S
C792 C793 1.377 . S
C792 C794 1.384 . S
C793 C792 1.377 . S
C793 C799 1.390 . S
C794 H785 0.930 . S
C794 C792 1.384 . S
C794 C795 1.372 . S
C795 C794 1.372 . S
C795 C796 1.400 . S
C795 C800 1.490 . S
C796 H786 0.930 . S
C796 C795 1.400 . S
C796 C799 1.386 . S
H797 C813 0.930 . S
H798 C814 0.931 . S
C799 H787 0.929 . S
C799 C793 1.390 . S
C799 C796 1.386 . S
C800 C795 1.490 . S
C800 C802 1.395 . S
C800 C803 1.403 . S
H801 C807 0.930 . S
C802 H788 0.930 . S
C802 C800 1.395 . S
C802 C805 1.403 . S
C803 C800 1.403 . S
C803 C804 1.524 1_554 S
C803 C807 1.400 1_554 S
C804 H789 0.960 . S
C804 H790 0.960 1_556 S
C804 H791 0.960 . S
C804 C803 1.524 1_556 S
C805 C802 1.403 . S
C805 C806 1.392 . S
C805 C809 1.495 . S
C806 C805 1.392 . S
C806 C807 1.385 1_554 S
C806 C808 1.478 1_554 S
C807 H801 0.930 . S
C807 C803 1.400 1_556 S
C807 C806 1.385 1_556 S
C808 C806 1.478 1_556 S
C808 C810 1.381 1_556 S
C808 C814 1.383 . S
C809 C805 1.495 . S
C809 H815 0.959 . S
C809 H816 0.961 . S
C809 H817 0.960 . S
C810 C808 1.381 1_554 S
C810 C811 1.394 1_554 S
C810 H818 0.930 . S
C811 C810 1.394 1_556 S
C811 C812 1.383 . S
C811 H819 0.929 1_556 S
C812 C811 1.383 . S
C812 C813 1.377 . S
C813 H797 0.930 . S
C813 C812 1.377 . S
C813 C814 1.379 . S
C814 H798 0.931 . S
C814 C808 1.383 . S
C814 C813 1.379 . S
H815 C809 0.959 . S
H816 C809 0.961 . S
H817 C809 0.960 . S
H818 C810 0.930 . S
H819 C811 0.929 1_554 S
H820 C828 0.929 1_556 S
H821 C830 0.930 . S
H822 C832 0.930 . S
H823 C835 0.929 . S
H824 C838 0.930 . S
H825 C840 0.960 . S
H826 C840 0.960 . S
H827 C840 0.960 . S
C828 H820 0.929 1_554 S
C828 C829 1.377 . S
C828 C830 1.384 1_554 S
C829 C828 1.377 . S
C829 C835 1.390 . S
C830 H821 0.930 . S
C830 C828 1.384 1_556 S
C830 C831 1.372 1_556 S
C831 C830 1.372 1_554 S
C831 C832 1.400 . S
C831 C836 1.490 1_554 S
C832 H822 0.930 . S
C832 C831 1.400 . S
C832 C835 1.386 . S
H833 C849 0.930 . S
H834 C850 0.931 . S
C835 H823 0.929 . S
C835 C829 1.390 . S
C835 C832 1.386 . S
C836 C831 1.490 1_556 S
C836 C838 1.395 . S
C836 C839 1.400 1_556 S
H837 C843 0.930 . S
C838 H824 0.930 . S
C838 C836 1.395 . S
C838 C841 1.403 . S
C839 C836 1.400 1_554 S
C839 C840 1.535 . S
C839 C843 1.391 1_554 S
C840 H825 0.960 . S
C840 H826 0.960 . S
C840 H827 0.960 . S
C840 C839 1.535 . S
C841 C838 1.403 . S
C841 C842 1.392 . S
C841 C845 1.495 . S
C842 C841 1.392 . S
C842 C843 1.385 . S
C842 C844 1.478 . S
C843 H837 0.930 . S
C843 C839 1.391 1_556 S
C843 C842 1.385 . S
C844 C842 1.478 . S
C844 C846 1.381 . S
C844 C850 1.383 . S
C845 C841 1.495 . S
C845 H851 0.959 . S
C845 H852 0.961 . S
C845 H853 0.960 . S
C846 C844 1.381 . S
C846 C847 1.394 . S
C846 H854 0.930 . S
C847 C846 1.394 . S
C847 C848 1.383 . S
C847 H855 0.929 . S
C848 C847 1.383 . S
C848 C849 1.377 . S
C849 H833 0.930 . S
C849 C848 1.377 . S
C849 C850 1.379 . S
C850 H834 0.931 . S
C850 C844 1.383 . S
C850 C849 1.379 . S
H851 C845 0.959 . S
H852 C845 0.961 . S
H853 C845 0.960 . S
H854 C846 0.930 . S
H855 C847 0.929 . S
H856 C864 0.929 . S
H857 C866 0.930 1_556 S
H858 C868 0.930 . S
H859 C871 0.929 . S
H860 C874 0.930 . S
H861 C876 0.960 . S
H862 C876 0.960 . S
H863 C876 0.960 . S
C864 H856 0.929 . S
C864 C865 1.377 . S
C864 C866 1.384 . S
C865 C864 1.377 . S
C865 C871 1.390 . S
C866 H857 0.930 1_554 S
C866 C864 1.384 . S
C866 C867 1.372 . S
C867 C866 1.372 . S
C867 C868 1.400 . S
C867 C872 1.490 . S
C868 H858 0.930 . S
C868 C867 1.400 . S
C868 C871 1.386 . S
H869 C885 0.930 1_554 S
H870 C886 0.931 . S
C871 H859 0.929 . S
C871 C865 1.390 . S
C871 C868 1.386 . S
C872 C867 1.490 . S
C872 C874 1.395 . S
C872 C875 1.403 . S
H873 C879 0.930 . S
C874 H860 0.930 . S
C874 C872 1.395 . S
C874 C877 1.403 1_554 S
C875 C872 1.403 . S
C875 C876 1.524 . S
C875 C879 1.400 . S
C876 H861 0.960 . S
C876 H862 0.960 . S
C876 H863 0.960 . S
C876 C875 1.524 . S
C877 C874 1.403 1_556 S
C877 C878 1.392 . S
C877 C881 1.495 . S
C878 C877 1.392 . S
C878 C879 1.385 1_556 S
C878 C880 1.478 . S
C879 H873 0.930 . S
C879 C875 1.400 . S
C879 C878 1.385 1_554 S
C880 C878 1.478 . S
C880 C882 1.381 . S
C880 C886 1.383 1_556 S
C881 C877 1.495 . S
C881 H887 0.959 . S
C881 H888 0.961 . S
C881 H889 0.960 . S
C882 C880 1.381 . S
C882 C883 1.394 . S
C882 H890 0.930 . S
C883 C882 1.394 . S
C883 C884 1.383 . S
C883 H891 0.929 . S
C884 C883 1.383 . S
C884 C885 1.377 . S
C885 H869 0.930 1_556 S
C885 C884 1.377 . S
C885 C886 1.379 1_556 S
C886 H870 0.931 . S
C886 C880 1.383 1_554 S
C886 C885 1.379 1_554 S
H887 C881 0.959 . S
H888 C881 0.961 . S
H889 C881 0.960 . S
H890 C882 0.930 . S
H891 C883 0.929 . S
H892 C900 0.929 . S
H893 C902 0.930 . S
H894 C904 0.930 . S
H895 C907 0.929 . S
H896 C910 0.930 . S
H897 C912 0.960 . S
H898 C912 0.960 . S
H899 C912 0.960 . S
C900 H892 0.929 . S
C900 C901 1.377 . S
C900 C902 1.384 . S
C901 C900 1.377 . S
C901 C907 1.390 . S
C902 H893 0.930 . S
C902 C900 1.384 . S
C902 C903 1.372 . S
C903 C902 1.372 . S
C903 C904 1.400 . S
C903 C908 1.490 1_554 S
C904 H894 0.930 . S
C904 C903 1.400 . S
C904 C907 1.386 . S
H905 C921 0.930 . S
H906 C922 0.931 . S
C907 H895 0.929 . S
C907 C901 1.390 . S
C907 C904 1.386 . S
C908 C903 1.490 1_556 S
C908 C910 1.395 1_556 S
C908 C911 1.403 . S
H909 C915 0.930 . S
C910 H896 0.930 . S
C910 C908 1.395 1_554 S
C910 C913 1.403 . S
C911 C908 1.403 . S
C911 C912 1.524 . S
C911 C915 1.400 . S
C912 H897 0.960 . S
C912 H898 0.960 . S
C912 H899 0.960 . S
C912 C911 1.524 . S
C913 C910 1.403 . S
C913 C914 1.392 1_554 S
C913 C917 1.495 . S
C914 C913 1.392 1_556 S
C914 C915 1.385 . S
C914 C916 1.478 . S
C915 H909 0.930 . S
C915 C911 1.400 . S
C915 C914 1.385 . S
C916 C914 1.478 . S
C916 C918 1.381 . S
C916 C922 1.383 . S
C917 C913 1.495 . S
C917 H923 0.959 . S
C917 H924 0.961 . S
C917 H925 0.960 . S
C918 C916 1.381 . S
C918 C919 1.394 . S
C918 H926 0.930 . S
C919 C918 1.394 . S
C919 C920 1.383 . S
C919 H927 0.929 . S
C920 C919 1.383 . S
C920 C921 1.377 . S
C921 H905 0.930 . S
C921 C920 1.377 . S
C921 C922 1.379 . S
C922 H906 0.931 . S
C922 C916 1.383 . S
C922 C921 1.379 . S
H923 C917 0.959 . S
H924 C917 0.961 . S
H925 C917 0.960 . S
H926 C918 0.930 . S
H927 C919 0.929 . S
H928 C936 0.929 . S
H929 C938 0.930 . S
H930 C940 0.930 . S
H931 C943 0.929 . S
H932 C946 0.930 . S
H933 C948 0.960 . S
H934 C948 0.960 . S
H935 C948 0.960 . S
C936 H928 0.929 . S
C936 C937 1.377 . S
C936 C938 1.384 . S
C937 C936 1.377 . S
C937 C943 1.390 . S
C938 H929 0.930 . S
C938 C936 1.384 . S
C938 C939 1.372 . S
C939 C938 1.372 . S
C939 C940 1.400 . S
C939 C944 1.490 . S
C940 H930 0.930 . S
C940 C939 1.400 . S
C940 C943 1.386 . S
H941 C957 0.930 . S
H942 C958 0.931 . S
C943 H931 0.929 . S
C943 C937 1.390 . S
C943 C940 1.386 . S
C944 C939 1.490 . S
C944 C946 1.395 . S
C944 C947 1.403 . S
H945 C951 0.930 . S
C946 H932 0.930 . S
C946 C944 1.395 . S
C946 C949 1.403 . S
C947 C944 1.403 . S
C947 C948 1.524 . S
C947 C951 1.400 . S
C948 H933 0.960 . S
C948 H934 0.960 . S
C948 H935 0.960 . S
C948 C947 1.524 . S
C949 C946 1.403 . S
C949 C950 1.392 . S
C949 C953 1.495 . S
C950 C949 1.392 . S
C950 C951 1.385 . S
C950 C952 1.478 . S
C951 H945 0.930 . S
C951 C947 1.400 . S
C951 C950 1.385 . S
C952 C950 1.478 . S
C952 C954 1.381 . S
C952 C958 1.383 . S
C953 C949 1.495 . S
C953 H959 0.959 . S
C953 H960 0.961 . S
C953 H961 0.960 . S
C954 C952 1.381 . S
C954 C955 1.394 . S
C954 H962 0.930 . S
C955 C954 1.394 . S
C955 C956 1.383 . S
C955 H963 0.929 . S
C956 C955 1.383 . S
C956 C957 1.377 . S
C957 H941 0.930 . S
C957 C956 1.377 . S
C957 C958 1.379 . S
C958 H942 0.931 . S
C958 C952 1.383 . S
C958 C957 1.379 . S
H959 C953 0.959 . S
H960 C953 0.961 . S
H961 C953 0.960 . S
H962 C954 0.930 . S
H963 C955 0.929 . S
H964 C972 0.929 . S
H965 C974 0.930 . S
H966 C976 0.930 . S
H967 C979 0.929 . S
H968 C982 0.930 . S
H969 C984 0.960 . S
H970 C984 0.960 . S
H971 C984 0.960 . S
C972 H964 0.929 . S
C972 C973 1.377 . S
C972 C974 1.384 . S
C973 C972 1.377 . S
C973 C979 1.390 . S
C974 H965 0.930 . S
C974 C972 1.384 . S
C974 C975 1.372 . S
C975 C974 1.372 . S
C975 C976 1.400 . S
C975 C980 1.490 . S
C976 H966 0.930 . S
C976 C975 1.400 . S
C976 C979 1.386 . S
H977 C993 0.930 . S
H978 C994 0.931 . S
C979 H967 0.929 . S
C979 C973 1.390 . S
C979 C976 1.386 . S
C980 C975 1.490 . S
C980 C982 1.395 . S
C980 C983 1.403 . S
H981 C987 0.930 . S
C982 H968 0.930 . S
C982 C980 1.395 . S
C982 C985 1.403 . S
C983 C980 1.403 . S
C983 C984 1.524 . S
C983 C987 1.400 . S
C984 H969 0.960 . S
C984 H970 0.960 . S
C984 H971 0.960 . S
C984 C983 1.524 . S
C985 C982 1.403 . S
C985 C986 1.392 . S
C985 C989 1.495 . S
C986 C985 1.392 . S
C986 C987 1.385 . S
C986 C988 1.478 . S
C987 H981 0.930 . S
C987 C983 1.400 . S
C987 C986 1.385 . S
C988 C986 1.478 . S
C988 C990 1.381 . S
C988 C994 1.383 . S
C989 C985 1.495 . S
C989 H995 0.959 . S
C989 H996 0.961 . S
C989 H997 0.960 . S
C990 C988 1.381 . S
C990 C991 1.394 . S
C990 H998 0.930 . S
C991 C990 1.394 . S
C991 C992 1.383 . S
C991 H999 0.929 . S
C992 C991 1.383 . S
C992 C993 1.377 . S
C993 H977 0.930 . S
C993 C992 1.377 . S
C993 C994 1.379 . S
C994 H978 0.931 . S
C994 C988 1.383 . S
C994 C993 1.379 . S
H995 C989 0.959 . S
H996 C989 0.961 . S
H997 C989 0.960 . S
H998 C990 0.930 . S
H999 C991 0.929 . S
H1000 C1008 0.929 . S
H1001 C1010 0.930 . S
H1002 C1012 0.930 . S
H1003 C1015 0.929 . S
H1004 C1018 0.930 . S
H1005 C1020 0.960 . S
H1006 C1020 0.960 . S
H1007 C1020 0.960 . S
C1008 H1000 0.929 . S
C1008 C1009 1.377 . S
C1008 C1010 1.384 . S
C1009 C1008 1.377 . S
C1009 C1015 1.390 . S
C1010 H1001 0.930 . S
C1010 C1008 1.384 . S
C1010 C1011 1.372 . S
C1011 C1010 1.372 . S
C1011 C1012 1.400 . S
C1011 C1016 1.490 . S
C1012 H1002 0.930 . S
C1012 C1011 1.400 . S
C1012 C1015 1.386 . S
H1013 C1029 0.930 . S
H1014 C1030 0.931 . S
C1015 H1003 0.929 . S
C1015 C1009 1.390 . S
C1015 C1012 1.386 . S
C1016 C1011 1.490 . S
C1016 C1018 1.395 . S
C1016 C1019 1.403 . S
H1017 C1023 0.930 . S
C1018 H1004 0.930 . S
C1018 C1016 1.395 . S
C1018 C1021 1.403 . S
C1019 C1016 1.403 . S
C1019 C1020 1.524 . S
C1019 C1023 1.400 . S
C1020 H1005 0.960 . S
C1020 H1006 0.960 . S
C1020 H1007 0.960 . S
C1020 C1019 1.524 . S
C1021 C1018 1.403 . S
C1021 C1022 1.392 . S
C1021 C1025 1.495 . S
C1022 C1021 1.392 . S
C1022 C1023 1.385 . S
C1022 C1024 1.478 . S
C1023 H1017 0.930 . S
C1023 C1019 1.400 . S
C1023 C1022 1.385 . S
C1024 C1022 1.478 . S
C1024 C1026 1.381 . S
C1024 C1030 1.383 . S
C1025 C1021 1.495 . S
C1025 H1031 0.959 . S
C1025 H1032 0.961 . S
C1025 H1033 0.960 . S
C1026 C1024 1.381 . S
C1026 C1027 1.394 . S
C1026 H1034 0.930 . S
C1027 C1026 1.394 . S
C1027 C1028 1.383 . S
C1027 H1035 0.929 . S
C1028 C1027 1.383 . S
C1028 C1029 1.377 . S
C1029 H1013 0.930 . S
C1029 C1028 1.377 . S
C1029 C1030 1.379 . S
C1030 H1014 0.931 . S
C1030 C1024 1.383 . S
C1030 C1029 1.379 . S
H1031 C1025 0.959 . S
H1032 C1025 0.961 . S
H1033 C1025 0.960 . S
H1034 C1026 0.930 . S
H1035 C1027 0.929 . S
H1036 C1044 0.929 . S
H1037 C1046 0.930 . S
H1038 C1048 0.930 . S
H1039 C1051 0.929 . S
H1040 C1054 0.930 . S
H1041 C1056 0.960 . S
H1042 C1056 0.960 . S
H1043 C1056 0.960 . S
C1044 H1036 0.929 . S
C1044 C1045 1.377 . S
C1044 C1046 1.384 . S
C1045 C1044 1.377 . S
C1045 C1051 1.390 . S
C1046 H1037 0.930 . S
C1046 C1044 1.384 . S
C1046 C1047 1.372 . S
C1047 C1046 1.372 . S
C1047 C1048 1.400 . S
C1047 C1052 1.490 . S
C1048 H1038 0.930 . S
C1048 C1047 1.400 . S
C1048 C1051 1.386 . S
H1049 C1065 0.930 . S
H1050 C1066 0.931 . S
C1051 H1039 0.929 . S
C1051 C1045 1.390 . S
C1051 C1048 1.386 . S
C1052 C1047 1.490 . S
C1052 C1054 1.395 . S
C1052 C1055 1.403 . S
H1053 C1059 0.930 . S
C1054 H1040 0.930 . S
C1054 C1052 1.395 . S
C1054 C1057 1.403 . S
C1055 C1052 1.403 . S
C1055 C1056 1.524 . S
C1055 C1059 1.400 . S
C1056 H1041 0.960 . S
C1056 H1042 0.960 . S
C1056 H1043 0.960 . S
C1056 C1055 1.524 . S
C1057 C1054 1.403 . S
C1057 C1058 1.392 . S
C1057 C1061 1.495 . S
C1058 C1057 1.392 . S
C1058 C1059 1.385 . S
C1058 C1060 1.478 . S
C1059 H1053 0.930 . S
C1059 C1055 1.400 . S
C1059 C1058 1.385 . S
C1060 C1058 1.478 . S
C1060 C1062 1.381 . S
C1060 C1066 1.383 . S
C1061 C1057 1.495 . S
C1061 H1067 0.959 . S
C1061 H1068 0.961 . S
C1061 H1069 0.960 . S
C1062 C1060 1.381 . S
C1062 C1063 1.394 . S
C1062 H1070 0.930 . S
C1063 C1062 1.394 . S
C1063 C1064 1.383 . S
C1063 H1071 0.929 . S
C1064 C1063 1.383 . S
C1064 C1065 1.377 . S
C1065 H1049 0.930 . S
C1065 C1064 1.377 . S
C1065 C1066 1.379 . S
C1066 H1050 0.931 . S
C1066 C1060 1.383 . S
C1066 C1065 1.379 . S
H1067 C1061 0.959 . S
H1068 C1061 0.961 . S
H1069 C1061 0.960 . S
H1070 C1062 0.930 . S
H1071 C1063 0.929 . S
H1072 C1080 0.929 . S
H1073 C1082 0.930 . S
H1074 C1084 0.930 . S
H1075 C1087 0.929 . S
H1076 C1090 0.930 . S
H1077 C1092 0.960 1_545 S
H1078 C1092 0.960 . S
H1079 C1092 0.960 . S
C1080 H1072 0.929 . S
C1080 C1081 1.377 . S
C1080 C1082 1.384 . S
C1081 C1080 1.377 . S
C1081 C1087 1.390 . S
C1082 H1073 0.930 . S
C1082 C1080 1.384 . S
C1082 C1083 1.372 . S
C1083 C1082 1.372 . S
C1083 C1084 1.400 . S
C1083 C1088 1.519 . S
C1084 H1074 0.930 . S
C1084 C1083 1.400 . S
C1084 C1087 1.386 . S
H1085 C1101 0.930 . S
H1086 C1102 0.931 . S
C1087 H1075 0.929 . S
C1087 C1081 1.390 . S
C1087 C1084 1.386 . S
C1088 C1083 1.519 . S
C1088 C1090 1.379 1_565 S
C1088 C1091 1.390 1_565 S
H1089 C1095 0.930 . S
C1090 H1076 0.930 . S
C1090 C1088 1.379 1_545 S
C1090 C1093 1.403 . S
C1091 C1088 1.390 1_545 S
C1091 C1092 1.524 1_545 S
C1091 C1095 1.400 . S
C1092 H1077 0.960 1_565 S
C1092 H1078 0.960 . S
C1092 H1079 0.960 . S
C1092 C1091 1.524 1_565 S
C1093 C1090 1.403 . S
C1093 C1094 1.392 . S
C1093 C1097 1.495 . S
C1094 C1093 1.392 . S
C1094 C1095 1.385 . S
C1094 C1096 1.478 . S
C1095 H1089 0.930 . S
C1095 C1091 1.400 . S
C1095 C1094 1.385 . S
C1096 C1094 1.478 . S
C1096 C1098 1.381 . S
C1096 C1102 1.383 . S
C1097 C1093 1.495 . S
C1097 H1103 0.959 . S
C1097 H1104 0.961 . S
C1097 H1105 0.960 . S
C1098 C1096 1.381 . S
C1098 C1099 1.394 . S
C1098 H1106 0.930 . S
C1099 C1098 1.394 . S
C1099 C1100 1.383 . S
C1099 H1107 0.929 . S
C1100 C1099 1.383 . S
C1100 C1101 1.377 . S
C1101 H1085 0.930 . S
C1101 C1100 1.377 . S
C1101 C1102 1.379 . S
C1102 H1086 0.931 . S
C1102 C1096 1.383 . S
C1102 C1101 1.379 . S
H1103 C1097 0.959 . S
H1104 C1097 0.961 . S
H1105 C1097 0.960 . S
H1106 C1098 0.930 . S
H1107 C1099 0.929 . S
H1108 C1116 0.929 . S
H1109 C1118 0.930 . S
H1110 C1120 0.930 . S
H1111 C1123 0.929 . S
H1112 C1126 0.930 . S
H1113 C1128 0.960 . S
H1114 C1128 0.960 . S
H1115 C1128 0.960 . S
C1116 H1108 0.929 . S
C1116 C1117 1.377 . S
C1116 C1118 1.384 . S
C1117 C1116 1.377 . S
C1117 C1123 1.390 . S
C1118 H1109 0.930 . S
C1118 C1116 1.384 . S
C1118 C1119 1.372 . S
C1119 C1118 1.372 . S
C1119 C1120 1.400 . S
C1119 C1124 1.490 . S
C1120 H1110 0.930 . S
C1120 C1119 1.400 . S
C1120 C1123 1.386 . S
H1121 C1137 0.930 . S
H1122 C1138 0.931 . S
C1123 H1111 0.929 . S
C1123 C1117 1.390 . S
C1123 C1120 1.386 . S
C1124 C1119 1.490 . S
C1124 C1126 1.395 . S
C1124 C1127 1.403 . S
H1125 C1131 0.930 . S
C1126 H1112 0.930 . S
C1126 C1124 1.395 . S
C1126 C1129 1.403 . S
C1127 C1124 1.403 . S
C1127 C1128 1.524 . S
C1127 C1131 1.400 . S
C1128 H1113 0.960 . S
C1128 H1114 0.960 . S
C1128 H1115 0.960 . S
C1128 C1127 1.524 . S
C1129 C1126 1.403 . S
C1129 C1130 1.392 1_455 S
C1129 C1133 1.495 1_455 S
C1130 C1129 1.392 1_655 S
C1130 C1131 1.385 1_655 S
C1130 C1132 1.478 . S
C1131 H1125 0.930 . S
C1131 C1127 1.400 . S
C1131 C1130 1.385 1_455 S
C1132 C1130 1.478 . S
C1132 C1134 1.381 . S
C1132 C1138 1.383 . S
C1133 C1129 1.495 1_655 S
C1133 H1139 0.959 . S
C1133 H1140 0.961 . S
C1133 H1141 0.960 . S
C1134 C1132 1.381 . S
C1134 C1135 1.394 . S
C1134 H1142 0.930 . S
C1135 C1134 1.394 . S
C1135 C1136 1.383 . S
C1135 H1143 0.929 . S
C1136 C1135 1.383 . S
C1136 C1137 1.377 . S
C1137 H1121 0.930 . S
C1137 C1136 1.377 . S
C1137 C1138 1.379 . S
C1138 H1122 0.931 . S
C1138 C1132 1.383 . S
C1138 C1137 1.379 . S
H1139 C1133 0.959 . S
H1140 C1133 0.961 . S
H1141 C1133 0.960 . S
H1142 C1134 0.930 . S
H1143 C1135 0.929 . S
H1144 C1152 0.929 . S
H1145 C1154 0.930 . S
H1146 C1156 0.930 . S
H1147 C1159 0.929 . S
H1148 C1162 0.930 . S
H1149 C1164 0.960 . S
H1150 C1164 0.960 . S
H1151 C1164 0.960 . S
C1152 H1144 0.929 . S
C1152 C1153 1.377 . S
C1152 C1154 1.384 . S
C1153 C1152 1.377 . S
C1153 C1159 1.390 . S
C1154 H1145 0.930 . S
C1154 C1152 1.384 . S
C1154 C1155 1.372 . S
C1155 C1154 1.372 . S
C1155 C1156 1.400 . S
C1155 C1160 1.490 . S
C1156 H1146 0.930 . S
C1156 C1155 1.400 . S
C1156 C1159 1.386 . S
H1157 C1173 0.930 . S
H1158 C1174 0.931 . S
C1159 H1147 0.929 . S
C1159 C1153 1.390 . S
C1159 C1156 1.386 . S
C1160 C1155 1.490 . S
C1160 C1162 1.395 . S
C1160 C1163 1.403 . S
H1161 C1167 0.930 . S
C1162 H1148 0.930 . S
C1162 C1160 1.395 . S
C1162 C1165 1.403 . S
C1163 C1160 1.403 . S
C1163 C1164 1.524 . S
C1163 C1167 1.400 . S
C1164 H1149 0.960 . S
C1164 H1150 0.960 . S
C1164 H1151 0.960 . S
C1164 C1163 1.524 . S
C1165 C1162 1.403 . S
C1165 C1166 1.392 1_565 S
C1165 C1169 1.495 1_565 S
C1166 C1165 1.392 1_545 S
C1166 C1167 1.385 1_545 S
C1166 C1168 1.478 . S
C1167 H1161 0.930 . S
C1167 C1163 1.400 . S
C1167 C1166 1.385 1_565 S
C1168 C1166 1.478 . S
C1168 C1170 1.381 . S
C1168 C1174 1.383 . S
C1169 C1165 1.495 1_545 S
C1169 H1175 0.959 . S
C1169 H1176 0.961 . S
C1169 H1177 0.960 . S
C1170 C1168 1.381 . S
C1170 C1171 1.394 . S
C1170 H1178 0.930 . S
C1171 C1170 1.394 . S
C1171 C1172 1.383 . S
C1171 H1179 0.929 . S
C1172 C1171 1.383 . S
C1172 C1173 1.377 . S
C1173 H1157 0.930 . S
C1173 C1172 1.377 . S
C1173 C1174 1.379 . S
C1174 H1158 0.931 . S
C1174 C1168 1.383 . S
C1174 C1173 1.379 . S
H1175 C1169 0.959 . S
H1176 C1169 0.961 . S
H1177 C1169 0.960 . S
H1178 C1170 0.930 . S
H1179 C1171 0.929 . S
H1180 C1188 0.929 . S
H1181 C1190 0.930 . S
H1182 C1192 0.930 . S
H1183 C1195 0.929 . S
H1184 C1198 0.930 1_455 S
H1185 C1200 0.960 . S
H1186 C1200 0.986 . S
H1187 C1200 0.960 . S
C1188 H1180 0.929 . S
C1188 C1189 1.377 . S
C1188 C1190 1.384 . S
C1189 C1188 1.377 . S
C1189 C1195 1.390 . S
C1190 H1181 0.930 . S
C1190 C1188 1.384 . S
C1190 C1191 1.372 . S
C1191 C1190 1.372 . S
C1191 C1192 1.400 . S
C1191 C1196 1.536 . S
C1192 H1182 0.930 . S
C1192 C1191 1.400 . S
C1192 C1195 1.386 . S
H1193 C1209 0.930 . S
H1194 C1210 0.931 . S
C1195 H1183 0.929 . S
C1195 C1189 1.390 . S
C1195 C1192 1.386 . S
C1196 C1191 1.536 . S
C1196 C1198 1.386 1_455 S
C1196 C1199 1.366 1_455 S
H1197 C1203 0.930 . S
C1198 H1184 0.930 1_655 S
C1198 C1196 1.386 1_655 S
C1198 C1201 1.403 . S
C1199 C1196 1.366 1_655 S
C1199 C1200 1.524 . S
C1199 C1203 1.400 . S
C1200 H1185 0.960 . S
C1200 H1186 0.986 . S
C1200 H1187 0.960 . S
C1200 C1199 1.524 . S
C1201 C1198 1.403 . S
C1201 C1202 1.392 . S
C1201 C1205 1.495 . S
C1202 C1201 1.392 . S
C1202 C1203 1.385 . S
C1202 C1204 1.478 . S
C1203 H1197 0.930 . S
C1203 C1199 1.400 . S
C1203 C1202 1.385 . S
C1204 C1202 1.478 . S
C1204 C1206 1.381 . S
C1204 C1210 1.383 . S
C1205 C1201 1.495 . S
C1205 H1211 0.959 . S
C1205 H1212 0.961 . S
C1205 H1213 0.960 . S
C1206 C1204 1.381 . S
C1206 C1207 1.394 . S
C1206 H1214 0.930 . S
C1207 C1206 1.394 . S
C1207 C1208 1.383 . S
C1207 H1215 0.929 . S
C1208 C1207 1.383 . S
C1208 C1209 1.377 . S
C1209 H1193 0.930 . S
C1209 C1208 1.377 . S
C1209 C1210 1.379 . S
C1210 H1194 0.931 . S
C1210 C1204 1.383 . S
C1210 C1209 1.379 . S
H1211 C1205 0.959 . S
H1212 C1205 0.961 . S
H1213 C1205 0.960 . S
H1214 C1206 0.930 . S
H1215 C1207 0.929 . S
H1216 C1224 0.929 . S
H1217 C1226 0.930 . S
H1218 C1228 0.930 . S
H1219 C1231 0.929 . S
H1220 C1234 0.930 . S
H1221 C1236 0.960 . S
H1222 C1236 0.960 . S
H1223 C1236 0.960 . S
C1224 H1216 0.929 . S
C1224 C1225 1.377 . S
C1224 C1226 1.384 . S
C1225 C1224 1.377 . S
C1225 C1231 1.390 . S
C1226 H1217 0.930 . S
C1226 C1224 1.384 . S
C1226 C1227 1.372 . S
C1227 C1226 1.372 . S
C1227 C1228 1.400 . S
C1227 C1232 1.490 . S
C1228 H1218 0.930 . S
C1228 C1227 1.400 . S
C1228 C1231 1.386 . S
H1229 C1245 0.930 . S
H1230 C1246 0.931 . S
C1231 H1219 0.929 . S
C1231 C1225 1.390 . S
C1231 C1228 1.386 . S
C1232 C1227 1.490 . S
C1232 C1234 1.395 . S
C1232 C1235 1.403 . S
H1233 C1239 0.930 . S
C1234 H1220 0.930 . S
C1234 C1232 1.395 . S
C1234 C1237 1.403 . S
C1235 C1232 1.403 . S
C1235 C1236 1.524 . S
C1235 C1239 1.400 . S
C1236 H1221 0.960 . S
C1236 H1222 0.960 . S
C1236 H1223 0.960 . S
C1236 C1235 1.524 . S
C1237 C1234 1.403 . S
C1237 C1238 1.392 . S
C1237 C1241 1.495 . S
C1238 C1237 1.392 . S
C1238 C1239 1.385 . S
C1238 C1240 1.478 . S
C1239 H1233 0.930 . S
C1239 C1235 1.400 . S
C1239 C1238 1.385 . S
C1240 C1238 1.478 . S
C1240 C1242 1.381 . S
C1240 C1246 1.383 . S
C1241 C1237 1.495 . S
C1241 H1247 0.959 . S
C1241 H1248 0.961 . S
C1241 H1249 0.960 . S
C1242 C1240 1.381 . S
C1242 C1243 1.394 . S
C1242 H1250 0.930 . S
C1243 C1242 1.394 . S
C1243 C1244 1.383 . S
C1243 H1251 0.929 . S
C1244 C1243 1.383 . S
C1244 C1245 1.377 . S
C1245 H1229 0.930 . S
C1245 C1244 1.377 . S
C1245 C1246 1.379 . S
C1246 H1230 0.931 . S
C1246 C1240 1.383 . S
C1246 C1245 1.379 . S
H1247 C1241 0.959 . S
H1248 C1241 0.961 . S
H1249 C1241 0.960 . S
H1250 C1242 0.930 . S
H1251 C1243 0.929 . S
H1252 C1260 0.929 . S
H1253 C1262 0.930 . S
H1254 C1264 0.930 . S
H1255 C1267 0.929 . S
H1256 C1270 0.930 . S
H1257 C1272 0.960 . S
H1258 C1272 0.960 . S
H1259 C1272 0.960 . S
C1260 H1252 0.929 . S
C1260 C1261 1.377 . S
C1260 C1262 1.384 . S
C1261 C1260 1.377 . S
C1261 C1267 1.390 . S
C1262 H1253 0.930 . S
C1262 C1260 1.384 . S
C1262 C1263 1.372 . S
C1263 C1262 1.372 . S
C1263 C1264 1.400 . S
C1263 C1268 1.490 . S
C1264 H1254 0.930 . S
C1264 C1263 1.400 . S
C1264 C1267 1.386 . S
H1265 C1281 0.930 . S
H1266 C1282 0.931 . S
C1267 H1255 0.929 . S
C1267 C1261 1.390 . S
C1267 C1264 1.386 . S
C1268 C1263 1.490 . S
C1268 C1270 1.395 . S
C1268 C1271 1.403 . S
H1269 C1275 0.930 . S
C1270 H1256 0.930 . S
C1270 C1268 1.395 . S
C1270 C1273 1.403 . S
C1271 C1268 1.403 . S
C1271 C1272 1.524 . S
C1271 C1275 1.400 . S
C1272 H1257 0.960 . S
C1272 H1258 0.960 . S
C1272 H1259 0.960 . S
C1272 C1271 1.524 . S
C1273 C1270 1.403 . S
C1273 C1274 1.392 . S
C1273 C1277 1.495 . S
C1274 C1273 1.392 . S
C1274 C1275 1.385 . S
C1274 C1276 1.478 . S
C1275 H1269 0.930 . S
C1275 C1271 1.400 . S
C1275 C1274 1.385 . S
C1276 C1274 1.478 . S
C1276 C1278 1.381 . S
C1276 C1282 1.383 . S
C1277 C1273 1.495 . S
C1277 H1283 0.959 . S
C1277 H1284 0.961 . S
C1277 H1285 0.960 . S
C1278 C1276 1.381 . S
C1278 C1279 1.394 . S
C1278 H1286 0.930 . S
C1279 C1278 1.394 . S
C1279 C1280 1.383 . S
C1279 H1287 0.929 . S
C1280 C1279 1.383 . S
C1280 C1281 1.377 . S
C1281 H1265 0.930 . S
C1281 C1280 1.377 . S
C1281 C1282 1.379 . S
C1282 H1266 0.931 . S
C1282 C1276 1.383 . S
C1282 C1281 1.379 . S
H1283 C1277 0.959 . S
H1284 C1277 0.961 . S
H1285 C1277 0.960 . S
H1286 C1278 0.930 . S
H1287 C1279 0.929 . S
H1288 C1296 0.929 . S
H1289 C1298 0.930 . S
H1290 C1300 0.930 . S
H1291 C1303 0.929 . S
H1292 C1306 0.930 . S
H1293 C1308 0.960 . S
H1294 C1308 0.960 . S
H1295 C1308 0.960 . S
C1296 H1288 0.929 . S
C1296 C1297 1.377 . S
C1296 C1298 1.384 . S
C1297 C1296 1.377 . S
C1297 C1303 1.390 . S
C1298 H1289 0.930 . S
C1298 C1296 1.384 . S
C1298 C1299 1.372 . S
C1299 C1298 1.372 . S
C1299 C1300 1.400 . S
C1299 C1304 1.490 . S
C1300 H1290 0.930 . S
C1300 C1299 1.400 . S
C1300 C1303 1.386 . S
H1301 C1317 0.930 . S
H1302 C1318 0.931 . S
C1303 H1291 0.929 . S
C1303 C1297 1.390 . S
C1303 C1300 1.386 . S
C1304 C1299 1.490 . S
C1304 C1306 1.395 . S
C1304 C1307 1.403 . S
H1305 C1311 0.930 . S
C1306 H1292 0.930 . S
C1306 C1304 1.395 . S
C1306 C1309 1.403 . S
C1307 C1304 1.403 . S
C1307 C1308 1.524 . S
C1307 C1311 1.400 . S
C1308 H1293 0.960 . S
C1308 H1294 0.960 . S
C1308 H1295 0.960 . S
C1308 C1307 1.524 . S
C1309 C1306 1.403 . S
C1309 C1310 1.392 . S
C1309 C1313 1.495 . S
C1310 C1309 1.392 . S
C1310 C1311 1.385 . S
C1310 C1312 1.478 . S
C1311 H1305 0.930 . S
C1311 C1307 1.400 . S
C1311 C1310 1.385 . S
C1312 C1310 1.478 . S
C1312 C1314 1.381 . S
C1312 C1318 1.383 . S
C1313 C1309 1.495 . S
C1313 H1319 0.959 . S
C1313 H1320 0.961 . S
C1313 H1321 0.960 . S
C1314 C1312 1.381 . S
C1314 C1315 1.394 . S
C1314 H1322 0.930 . S
C1315 C1314 1.394 . S
C1315 C1316 1.383 . S
C1315 H1323 0.929 . S
C1316 C1315 1.383 . S
C1316 C1317 1.377 . S
C1317 H1301 0.930 . S
C1317 C1316 1.377 . S
C1317 C1318 1.379 . S
C1318 H1302 0.931 . S
C1318 C1312 1.383 . S
C1318 C1317 1.379 . S
H1319 C1313 0.959 . S
H1320 C1313 0.961 . S
H1321 C1313 0.960 . S
H1322 C1314 0.930 . S
H1323 C1315 0.929 . S
H1324 C1332 0.929 . S
H1325 C1334 0.930 . S
H1326 C1336 0.930 . S
H1327 C1339 0.929 . S
H1328 C1342 0.930 . S
H1329 C1344 0.960 . S
H1330 C1344 0.960 . S
H1331 C1344 0.960 . S
C1332 H1324 0.929 . S
C1332 C1333 1.377 . S
C1332 C1334 1.384 . S
C1333 C1332 1.377 . S
C1333 C1339 1.390 . S
C1334 H1325 0.930 . S
C1334 C1332 1.384 . S
C1334 C1335 1.372 . S
C1335 C1334 1.372 . S
C1335 C1336 1.400 . S
C1335 C1340 1.490 . S
C1336 H1326 0.930 . S
C1336 C1335 1.400 . S
C1336 C1339 1.386 . S
H1337 C1353 0.930 . S
H1338 C1354 0.931 . S
C1339 H1327 0.929 . S
C1339 C1333 1.390 . S
C1339 C1336 1.386 . S
C1340 C1335 1.490 . S
C1340 C1342 1.395 . S
C1340 C1343 1.403 . S
H1341 C1347 0.930 . S
C1342 H1328 0.930 . S
C1342 C1340 1.395 . S
C1342 C1345 1.403 . S
C1343 C1340 1.403 . S
C1343 C1344 1.524 . S
C1343 C1347 1.400 . S
C1344 H1329 0.960 . S
C1344 H1330 0.960 . S
C1344 H1331 0.960 . S
C1344 C1343 1.524 . S
C1345 C1342 1.403 . S
C1345 C1346 1.392 . S
C1345 C1349 1.495 . S
C1346 C1345 1.392 . S
C1346 C1347 1.385 . S
C1346 C1348 1.478 . S
C1347 H1341 0.930 . S
C1347 C1343 1.400 . S
C1347 C1346 1.385 . S
C1348 C1346 1.478 . S
C1348 C1350 1.381 . S
C1348 C1354 1.383 . S
C1349 C1345 1.495 . S
C1349 H1355 0.959 . S
C1349 H1356 0.961 . S
C1349 H1357 0.960 . S
C1350 C1348 1.381 . S
C1350 C1351 1.394 . S
C1350 H1358 0.930 . S
C1351 C1350 1.394 . S
C1351 C1352 1.383 . S
C1351 H1359 0.929 . S
C1352 C1351 1.383 . S
C1352 C1353 1.377 . S
C1353 H1337 0.930 . S
C1353 C1352 1.377 . S
C1353 C1354 1.379 . S
C1354 H1338 0.931 . S
C1354 C1348 1.383 . S
C1354 C1353 1.379 . S
H1355 C1349 0.959 . S
H1356 C1349 0.961 . S
H1357 C1349 0.960 . S
H1358 C1350 0.930 . S
H1359 C1351 0.929 . S
H1360 C1368 0.929 . S
H1361 C1370 0.930 . S
H1362 C1372 0.930 . S
H1363 C1375 0.929 . S
H1364 C1378 0.930 . S
H1365 C1380 0.960 . S
H1366 C1380 0.960 . S
H1367 C1380 0.960 . S
C1368 H1360 0.929 . S
C1368 C1369 1.377 . S
C1368 C1370 1.384 . S
C1369 C1368 1.377 . S
C1369 C1375 1.390 . S
C1370 H1361 0.930 . S
C1370 C1368 1.384 . S
C1370 C1371 1.372 . S
C1371 C1370 1.372 . S
C1371 C1372 1.400 . S
C1371 C1376 1.490 . S
C1372 H1362 0.930 . S
C1372 C1371 1.400 . S
C1372 C1375 1.386 . S
H1373 C1389 0.930 . S
H1374 C1390 0.931 . S
C1375 H1363 0.929 . S
C1375 C1369 1.390 . S
C1375 C1372 1.386 . S
C1376 C1371 1.490 . S
C1376 C1378 1.395 . S
C1376 C1379 1.403 . S
H1377 C1383 0.930 . S
C1378 H1364 0.930 . S
C1378 C1376 1.395 . S
C1378 C1381 1.403 . S
C1379 C1376 1.403 . S
C1379 C1380 1.524 . S
C1379 C1383 1.400 . S
C1380 H1365 0.960 . S
C1380 H1366 0.960 . S
C1380 H1367 0.960 . S
C1380 C1379 1.524 . S
C1381 C1378 1.403 . S
C1381 C1382 1.392 . S
C1381 C1385 1.495 . S
C1382 C1381 1.392 . S
C1382 C1383 1.385 . S
C1382 C1384 1.478 . S
C1383 H1377 0.930 . S
C1383 C1379 1.400 . S
C1383 C1382 1.385 . S
C1384 C1382 1.478 . S
C1384 C1386 1.381 . S
C1384 C1390 1.383 . S
C1385 C1381 1.495 . S
C1385 H1391 0.959 . S
C1385 H1392 0.961 . S
C1385 H1393 0.960 . S
C1386 C1384 1.381 . S
C1386 C1387 1.394 . S
C1386 H1394 0.930 . S
C1387 C1386 1.394 . S
C1387 C1388 1.383 . S
C1387 H1395 0.929 . S
C1388 C1387 1.383 . S
C1388 C1389 1.377 . S
C1389 H1373 0.930 . S
C1389 C1388 1.377 . S
C1389 C1390 1.379 . S
C1390 H1374 0.931 . S
C1390 C1384 1.383 . S
C1390 C1389 1.379 . S
H1391 C1385 0.959 . S
H1392 C1385 0.961 . S
H1393 C1385 0.960 . S
H1394 C1386 0.930 . S
H1395 C1387 0.929 . S
H1396 C1404 0.929 . S
H1397 C1406 0.930 . S
H1398 C1408 0.930 . S
H1399 C1411 0.929 . S
H1400 C1414 0.930 . S
H1401 C1416 0.960 . S
H1402 C1416 0.960 . S
H1403 C1416 0.960 . S
C1404 H1396 0.929 . S
C1404 C1405 1.377 . S
C1404 C1406 1.384 . S
C1405 C1404 1.377 . S
C1405 C1411 1.390 . S
C1406 H1397 0.930 . S
C1406 C1404 1.384 . S
C1406 C1407 1.372 . S
C1407 C1406 1.372 . S
C1407 C1408 1.400 . S
C1407 C1412 1.490 . S
C1408 H1398 0.930 . S
C1408 C1407 1.400 . S
C1408 C1411 1.386 . S
H1409 C1425 0.930 . S
H1410 C1426 0.931 . S
C1411 H1399 0.929 . S
C1411 C1405 1.390 . S
C1411 C1408 1.386 . S
C1412 C1407 1.490 . S
C1412 C1414 1.395 . S
C1412 C1415 1.403 . S
H1413 C1419 0.930 . S
C1414 H1400 0.930 . S
C1414 C1412 1.395 . S
C1414 C1417 1.403 . S
C1415 C1412 1.403 . S
C1415 C1416 1.524 . S
C1415 C1419 1.400 . S
C1416 H1401 0.960 . S
C1416 H1402 0.960 . S
C1416 H1403 0.960 . S
C1416 C1415 1.524 . S
C1417 C1414 1.403 . S
C1417 C1418 1.392 . S
C1417 C1421 1.495 . S
C1418 C1417 1.392 . S
C1418 C1419 1.385 . S
C1418 C1420 1.478 . S
C1419 H1413 0.930 . S
C1419 C1415 1.400 . S
C1419 C1418 1.385 . S
C1420 C1418 1.478 . S
C1420 C1422 1.381 . S
C1420 C1426 1.383 . S
C1421 C1417 1.495 . S
C1421 H1427 0.959 . S
C1421 H1428 0.961 . S
C1421 H1429 0.960 . S
C1422 C1420 1.381 . S
C1422 C1423 1.394 . S
C1422 H1430 0.930 . S
C1423 C1422 1.394 . S
C1423 C1424 1.383 . S
C1423 H1431 0.929 . S
C1424 C1423 1.383 . S
C1424 C1425 1.377 . S
C1425 H1409 0.930 . S
C1425 C1424 1.377 . S
C1425 C1426 1.379 . S
C1426 H1410 0.931 . S
C1426 C1420 1.383 . S
C1426 C1425 1.379 . S
H1427 C1421 0.959 . S
H1428 C1421 0.961 . S
H1429 C1421 0.960 . S
H1430 C1422 0.930 . S
H1431 C1423 0.929 . S
H1432 C1440 0.929 . S
H1433 C1442 0.930 . S
H1434 C1444 0.930 . S
H1435 C1447 0.929 . S
H1436 C1450 0.930 . S
H1437 C1452 0.960 . S
H1438 C1452 0.960 . S
H1439 C1452 0.960 . S
C1440 H1432 0.929 . S
C1440 C1441 1.377 . S
C1440 C1442 1.384 . S
C1441 C1440 1.377 . S
C1441 C1447 1.390 . S
C1442 H1433 0.930 . S
C1442 C1440 1.384 . S
C1442 C1443 1.372 . S
C1443 C1442 1.372 . S
C1443 C1444 1.400 . S
C1443 C1448 1.490 . S
C1444 H1434 0.930 . S
C1444 C1443 1.400 . S
C1444 C1447 1.386 . S
H1445 C1461 0.930 . S
H1446 C1462 0.931 . S
C1447 H1435 0.929 . S
C1447 C1441 1.390 . S
C1447 C1444 1.386 . S
C1448 C1443 1.490 . S
C1448 C1450 1.395 . S
C1448 C1451 1.403 . S
H1449 C1455 0.930 . S
C1450 H1436 0.930 . S
C1450 C1448 1.395 . S
C1450 C1453 1.403 . S
C1451 C1448 1.403 . S
C1451 C1452 1.524 . S
C1451 C1455 1.400 . S
C1452 H1437 0.960 . S
C1452 H1438 0.960 . S
C1452 H1439 0.960 . S
C1452 C1451 1.524 . S
C1453 C1450 1.403 . S
C1453 C1454 1.392 . S
C1453 C1457 1.495 . S
C1454 C1453 1.392 . S
C1454 C1455 1.385 . S
C1454 C1456 1.478 . S
C1455 H1449 0.930 . S
C1455 C1451 1.400 . S
C1455 C1454 1.385 . S
C1456 C1454 1.478 . S
C1456 C1458 1.381 . S
C1456 C1462 1.383 . S
C1457 C1453 1.495 . S
C1457 H1463 0.959 . S
C1457 H1464 0.961 . S
C1457 H1465 0.960 . S
C1458 C1456 1.381 . S
C1458 C1459 1.394 . S
C1458 H1466 0.930 . S
C1459 C1458 1.394 . S
C1459 C1460 1.383 . S
C1459 H1467 0.929 . S
C1460 C1459 1.383 . S
C1460 C1461 1.377 . S
C1461 H1445 0.930 . S
C1461 C1460 1.377 . S
C1461 C1462 1.379 . S
C1462 H1446 0.931 . S
C1462 C1456 1.383 . S
C1462 C1461 1.379 . S
H1463 C1457 0.959 . S
H1464 C1457 0.961 . S
H1465 C1457 0.960 . S
H1466 C1458 0.930 . S
H1467 C1459 0.929 . S
H1468 C1476 0.929 . S
H1469 C1478 0.930 . S
H1470 C1480 0.930 . S
H1471 C1483 0.929 . S
H1472 C1486 0.930 . S
H1473 C1488 0.960 . S
H1474 C1488 0.960 . S
H1475 C1488 0.960 . S
C1476 H1468 0.929 . S
C1476 C1477 1.377 . S
C1476 C1478 1.384 . S
C1477 C1476 1.377 . S
C1477 C1483 1.390 . S
C1478 H1469 0.930 . S
C1478 C1476 1.384 . S
C1478 C1479 1.372 . S
C1479 C1478 1.372 . S
C1479 C1480 1.400 . S
C1479 C1484 1.490 . S
C1480 H1470 0.930 . S
C1480 C1479 1.400 . S
C1480 C1483 1.386 . S
H1481 C1497 0.930 . S
H1482 C1498 0.931 . S
C1483 H1471 0.929 . S
C1483 C1477 1.390 . S
C1483 C1480 1.386 . S
C1484 C1479 1.490 . S
C1484 C1486 1.395 . S
C1484 C1487 1.403 . S
H1485 C1491 0.930 . S
C1486 H1472 0.930 . S
C1486 C1484 1.395 . S
C1486 C1489 1.403 . S
C1487 C1484 1.403 . S
C1487 C1488 1.524 . S
C1487 C1491 1.400 . S
C1488 H1473 0.960 . S
C1488 H1474 0.960 . S
C1488 H1475 0.960 . S
C1488 C1487 1.524 . S
C1489 C1486 1.403 . S
C1489 C1490 1.392 . S
C1489 C1493 1.495 . S
C1490 C1489 1.392 . S
C1490 C1491 1.385 . S
C1490 C1492 1.478 . S
C1491 H1485 0.930 . S
C1491 C1487 1.400 . S
C1491 C1490 1.385 . S
C1492 C1490 1.478 . S
C1492 C1494 1.381 . S
C1492 C1498 1.383 . S
C1493 C1489 1.495 . S
C1493 H1499 0.959 . S
C1493 H1500 0.961 . S
C1493 H1501 0.960 . S
C1494 C1492 1.381 . S
C1494 C1495 1.394 . S
C1494 H1502 0.930 . S
C1495 C1494 1.394 . S
C1495 C1496 1.383 . S
C1495 H1503 0.929 . S
C1496 C1495 1.383 . S
C1496 C1497 1.377 . S
C1497 H1481 0.930 . S
C1497 C1496 1.377 . S
C1497 C1498 1.379 . S
C1498 H1482 0.931 . S
C1498 C1492 1.383 . S
C1498 C1497 1.379 . S
H1499 C1493 0.959 . S
H1500 C1493 0.961 . S
H1501 C1493 0.960 . S
H1502 C1494 0.930 . S
H1503 C1495 0.929 . S
H1504 C1512 0.929 . S
H1505 C1514 0.930 . S
H1506 C1516 0.930 . S
H1507 C1519 0.929 . S
H1508 C1522 0.930 . S
H1509 C1524 0.960 . S
H1510 C1524 0.960 . S
H1511 C1524 0.960 . S
C1512 H1504 0.929 . S
C1512 C1513 1.377 . S
C1512 C1514 1.384 . S
C1513 C1512 1.377 . S
C1513 C1519 1.390 . S
C1514 H1505 0.930 . S
C1514 C1512 1.384 . S
C1514 C1515 1.372 . S
C1515 C1514 1.372 . S
C1515 C1516 1.400 . S
C1515 C1520 1.490 . S
C1516 H1506 0.930 . S
C1516 C1515 1.400 . S
C1516 C1519 1.386 . S
H1517 C1533 0.930 . S
H1518 C1534 0.931 . S
C1519 H1507 0.929 . S
C1519 C1513 1.390 . S
C1519 C1516 1.386 . S
C1520 C1515 1.490 . S
C1520 C1522 1.395 . S
C1520 C1523 1.403 . S
H1521 C1527 0.930 . S
C1522 H1508 0.930 . S
C1522 C1520 1.395 . S
C1522 C1525 1.403 . S
C1523 C1520 1.403 . S
C1523 C1524 1.524 . S
C1523 C1527 1.400 . S
C1524 H1509 0.960 . S
C1524 H1510 0.960 . S
C1524 H1511 0.960 . S
C1524 C1523 1.524 . S
C1525 C1522 1.403 . S
C1525 C1526 1.392 . S
C1525 C1529 1.495 . S
C1526 C1525 1.392 . S
C1526 C1527 1.385 . S
C1526 C1528 1.478 . S
C1527 H1521 0.930 . S
C1527 C1523 1.400 . S
C1527 C1526 1.385 . S
C1528 C1526 1.478 . S
C1528 C1530 1.381 . S
C1528 C1534 1.383 . S
C1529 C1525 1.495 . S
C1529 H1535 0.959 . S
C1529 H1536 0.961 . S
C1529 H1537 0.960 . S
C1530 C1528 1.381 . S
C1530 C1531 1.394 1_556 S
C1530 H1538 0.930 . S
C1531 C1530 1.394 1_554 S
C1531 C1532 1.383 . S
C1531 H1539 0.929 . S
C1532 C1531 1.383 . S
C1532 C1533 1.377 . S
C1533 H1517 0.930 . S
C1533 C1532 1.377 . S
C1533 C1534 1.379 1_554 S
C1534 H1518 0.931 . S
C1534 C1528 1.383 . S
C1534 C1533 1.379 1_556 S
H1535 C1529 0.959 . S
H1536 C1529 0.961 . S
H1537 C1529 0.960 . S
H1538 C1530 0.930 . S
H1539 C1531 0.929 . S
H1540 C1548 0.929 . S
H1541 C1550 0.930 . S
H1542 C1552 0.930 . S
H1543 C1555 0.929 . S
H1544 C1558 0.930 . S
H1545 C1560 0.960 . S
H1546 C1560 0.960 . S
H1547 C1560 0.960 . S
C1548 H1540 0.929 . S
C1548 C1549 1.377 1_554 S
C1548 C1550 1.384 . S
C1549 C1548 1.377 1_556 S
C1549 C1555 1.390 . S
C1550 H1541 0.930 . S
C1550 C1548 1.384 . S
C1550 C1551 1.372 . S
C1551 C1550 1.372 . S
C1551 C1552 1.400 . S
C1551 C1556 1.490 . S
C1552 H1542 0.930 . S
C1552 C1551 1.400 . S
C1552 C1555 1.386 1_554 S
H1553 C1569 0.930 . S
H1554 C1570 0.931 . S
C1555 H1543 0.929 . S
C1555 C1549 1.390 . S
C1555 C1552 1.386 1_556 S
C1556 C1551 1.490 . S
C1556 C1558 1.395 . S
C1556 C1559 1.403 . S
H1557 C1563 0.930 . S
C1558 H1544 0.930 . S
C1558 C1556 1.395 . S
C1558 C1561 1.403 . S
C1559 C1556 1.403 . S
C1559 C1560 1.524 . S
C1559 C1563 1.400 . S
C1560 H1545 0.960 . S
C1560 H1546 0.960 . S
C1560 H1547 0.960 . S
C1560 C1559 1.524 . S
C1561 C1558 1.403 . S
C1561 C1562 1.392 . S
C1561 C1565 1.495 . S
C1562 C1561 1.392 . S
C1562 C1563 1.385 . S
C1562 C1564 1.478 . S
C1563 H1557 0.930 . S
C1563 C1559 1.400 . S
C1563 C1562 1.385 . S
C1564 C1562 1.478 . S
C1564 C1566 1.381 . S
C1564 C1570 1.383 . S
C1565 C1561 1.495 . S
C1565 H1571 0.959 . S
C1565 H1572 0.961 . S
C1565 H1573 0.960 . S
C1566 C1564 1.381 . S
C1566 C1567 1.394 . S
C1566 H1574 0.930 . S
C1567 C1566 1.394 . S
C1567 C1568 1.383 . S
C1567 H1575 0.929 . S
C1568 C1567 1.383 . S
C1568 C1569 1.377 . S
C1569 H1553 0.930 . S
C1569 C1568 1.377 . S
C1569 C1570 1.379 . S
C1570 H1554 0.931 . S
C1570 C1564 1.383 . S
C1570 C1569 1.379 . S
H1571 C1565 0.959 . S
H1572 C1565 0.961 . S
H1573 C1565 0.960 . S
H1574 C1566 0.930 . S
H1575 C1567 0.929 . S
H1576 C1584 0.929 . S
H1577 C1586 0.930 . S
H1578 C1588 0.930 . S
H1579 C1591 0.929 . S
H1580 C1594 0.930 . S
H1581 C1596 0.960 . S
H1582 C1596 0.960 . S
H1583 C1596 0.960 . S
C1584 H1576 0.929 . S
C1584 C1585 1.377 . S
C1584 C1586 1.384 1_554 S
C1585 C1584 1.377 . S
C1585 C1591 1.390 1_554 S
C1586 H1577 0.930 . S
C1586 C1584 1.384 1_556 S
C1586 C1587 1.372 . S
C1587 C1586 1.372 . S
C1587 C1588 1.400 . S
C1587 C1592 1.490 . S
C1588 H1578 0.930 . S
C1588 C1587 1.400 . S
C1588 C1591 1.386 . S
H1589 C1605 0.930 . S
H1590 C1606 0.931 . S
C1591 H1579 0.929 . S
C1591 C1585 1.390 1_556 S
C1591 C1588 1.386 . S
C1592 C1587 1.490 . S
C1592 C1594 1.395 . S
C1592 C1595 1.403 . S
H1593 C1599 0.930 . S
C1594 H1580 0.930 . S
C1594 C1592 1.395 . S
C1594 C1597 1.403 . S
C1595 C1592 1.403 . S
C1595 C1596 1.524 . S
C1595 C1599 1.400 . S
C1596 H1581 0.960 . S
C1596 H1582 0.960 . S
C1596 H1583 0.960 . S
C1596 C1595 1.524 . S
C1597 C1594 1.403 . S
C1597 C1598 1.392 . S
C1597 C1601 1.495 . S
C1598 C1597 1.392 . S
C1598 C1599 1.385 . S
C1598 C1600 1.478 . S
C1599 H1593 0.930 . S
C1599 C1595 1.400 . S
C1599 C1598 1.385 . S
C1600 C1598 1.478 . S
C1600 C1602 1.381 . S
C1600 C1606 1.383 . S
C1601 C1597 1.495 . S
C1601 H1607 0.959 . S
C1601 H1608 0.961 . S
C1601 H1609 0.960 . S
C1602 C1600 1.381 . S
C1602 C1603 1.394 . S
C1602 H1610 0.930 . S
C1603 C1602 1.394 . S
C1603 C1604 1.383 . S
C1603 H1611 0.929 . S
C1604 C1603 1.383 . S
C1604 C1605 1.377 . S
C1605 H1589 0.930 . S
C1605 C1604 1.377 . S
C1605 C1606 1.379 . S
C1606 H1590 0.931 . S
C1606 C1600 1.383 . S
C1606 C1605 1.379 . S
H1607 C1601 0.959 . S
H1608 C1601 0.961 . S
H1609 C1601 0.960 . S
H1610 C1602 0.930 . S
H1611 C1603 0.929 . S
H1612 C1620 0.929 . S
H1613 C1622 0.930 . S
H1614 C1624 0.930 . S
H1615 C1627 0.929 . S
H1616 C1630 0.930 . S
H1617 C1632 0.960 . S
H1618 C1632 0.960 . S
H1619 C1632 0.960 . S
C1620 H1612 0.929 . S
C1620 C1621 1.377 1_554 S
C1620 C1622 1.384 . S
C1621 C1620 1.377 1_556 S
C1621 C1627 1.390 . S
C1622 H1613 0.930 . S
C1622 C1620 1.384 . S
C1622 C1623 1.372 . S
C1623 C1622 1.372 . S
C1623 C1624 1.400 . S
C1623 C1628 1.490 . S
C1624 H1614 0.930 . S
C1624 C1623 1.400 . S
C1624 C1627 1.386 1_554 S
H1625 C1641 0.930 . S
H1626 C1642 0.931 . S
C1627 H1615 0.929 . S
C1627 C1621 1.390 . S
C1627 C1624 1.386 1_556 S
C1628 C1623 1.490 . S
C1628 C1630 1.395 . S
C1628 C1631 1.403 . S
H1629 C1635 0.930 . S
C1630 H1616 0.930 . S
C1630 C1628 1.395 . S
C1630 C1633 1.403 . S
C1631 C1628 1.403 . S
C1631 C1632 1.524 . S
C1631 C1635 1.400 . S
C1632 H1617 0.960 . S
C1632 H1618 0.960 . S
C1632 H1619 0.960 . S
C1632 C1631 1.524 . S
C1633 C1630 1.403 . S
C1633 C1634 1.392 . S
C1633 C1637 1.495 . S
C1634 C1633 1.392 . S
C1634 C1635 1.385 . S
C1634 C1636 1.478 . S
C1635 H1629 0.930 . S
C1635 C1631 1.400 . S
C1635 C1634 1.385 . S
C1636 C1634 1.478 . S
C1636 C1638 1.381 . S
C1636 C1642 1.383 . S
C1637 C1633 1.495 . S
C1637 H1643 0.959 . S
C1637 H1644 0.961 . S
C1637 H1645 0.960 . S
C1638 C1636 1.381 . S
C1638 C1639 1.394 . S
C1638 H1646 0.930 . S
C1639 C1638 1.394 . S
C1639 C1640 1.383 . S
C1639 H1647 0.929 . S
C1640 C1639 1.383 . S
C1640 C1641 1.377 . S
C1641 H1625 0.930 . S
C1641 C1640 1.377 . S
C1641 C1642 1.379 . S
C1642 H1626 0.931 . S
C1642 C1636 1.383 . S
C1642 C1641 1.379 . S
H1643 C1637 0.959 . S
H1644 C1637 0.961 . S
H1645 C1637 0.960 . S
H1646 C1638 0.930 . S
H1647 C1639 0.929 . S
H1648 C1656 0.929 . S
H1649 C1658 0.930 . S
H1650 C1660 0.930 . S
H1651 C1663 0.929 . S
H1652 C1666 0.930 . S
H1653 C1668 0.960 . S
H1654 C1668 0.960 . S
H1655 C1668 0.960 . S
C1656 H1648 0.929 . S
C1656 C1657 1.377 . S
C1656 C1658 1.384 . S
C1657 C1656 1.377 . S
C1657 C1663 1.390 . S
C1658 H1649 0.930 . S
C1658 C1656 1.384 . S
C1658 C1659 1.372 . S
C1659 C1658 1.372 . S
C1659 C1660 1.400 . S
C1659 C1664 1.490 . S
C1660 H1650 0.930 . S
C1660 C1659 1.400 . S
C1660 C1663 1.386 . S
H1661 C1677 0.930 . S
H1662 C1678 0.931 . S
C1663 H1651 0.929 . S
C1663 C1657 1.390 . S
C1663 C1660 1.386 . S
C1664 C1659 1.490 . S
C1664 C1666 1.395 . S
C1664 C1667 1.403 . S
H1665 C1671 0.930 . S
C1666 H1652 0.930 . S
C1666 C1664 1.395 . S
C1666 C1669 1.403 . S
C1667 C1664 1.403 . S
C1667 C1668 1.524 . S
C1667 C1671 1.400 . S
C1668 H1653 0.960 . S
C1668 H1654 0.960 . S
C1668 H1655 0.960 . S
C1668 C1667 1.524 . S
C1669 C1666 1.403 . S
C1669 C1670 1.392 . S
C1669 C1673 1.495 . S
C1670 C1669 1.392 . S
C1670 C1671 1.385 . S
C1670 C1672 1.478 . S
C1671 H1665 0.930 . S
C1671 C1667 1.400 . S
C1671 C1670 1.385 . S
C1672 C1670 1.478 . S
C1672 C1674 1.381 . S
C1672 C1678 1.383 . S
C1673 C1669 1.495 . S
C1673 H1679 0.959 . S
C1673 H1680 0.961 . S
C1673 H1681 0.960 . S
C1674 C1672 1.381 . S
C1674 C1675 1.394 . S
C1674 H1682 0.930 . S
C1675 C1674 1.394 . S
C1675 C1676 1.383 . S
C1675 H1683 0.929 . S
C1676 C1675 1.383 . S
C1676 C1677 1.377 . S
C1677 H1661 0.930 . S
C1677 C1676 1.377 . S
C1677 C1678 1.379 . S
C1678 H1662 0.931 . S
C1678 C1672 1.383 . S
C1678 C1677 1.379 . S
H1679 C1673 0.959 . S
H1680 C1673 0.961 . S
H1681 C1673 0.960 . S
H1682 C1674 0.930 . S
H1683 C1675 0.929 . S
H1684 C1692 0.929 . S
H1685 C1694 0.930 . S
H1686 C1696 0.930 . S
H1687 C1699 0.929 . S
H1688 C1702 0.930 . S
H1689 C1704 0.960 . S
H1690 C1704 0.960 . S
H1691 C1704 0.960 . S
C1692 H1684 0.929 . S
C1692 C1693 1.377 . S
C1692 C1694 1.384 . S
C1693 C1692 1.377 . S
C1693 C1699 1.390 . S
C1694 H1685 0.930 . S
C1694 C1692 1.384 . S
C1694 C1695 1.372 . S
C1695 C1694 1.372 . S
C1695 C1696 1.400 . S
C1695 C1700 1.490 . S
C1696 H1686 0.930 . S
C1696 C1695 1.400 . S
C1696 C1699 1.386 . S
H1697 C1713 0.930 . S
H1698 C1714 0.931 . S
C1699 H1687 0.929 . S
C1699 C1693 1.390 . S
C1699 C1696 1.386 . S
C1700 C1695 1.490 . S
C1700 C1702 1.395 . S
C1700 C1703 1.403 . S
H1701 C1707 0.930 . S
C1702 H1688 0.930 . S
C1702 C1700 1.395 . S
C1702 C1705 1.403 . S
C1703 C1700 1.403 . S
C1703 C1704 1.524 . S
C1703 C1707 1.400 . S
C1704 H1689 0.960 . S
C1704 H1690 0.960 . S
C1704 H1691 0.960 . S
C1704 C1703 1.524 . S
C1705 C1702 1.403 . S
C1705 C1706 1.392 . S
C1705 C1709 1.495 . S
C1706 C1705 1.392 . S
C1706 C1707 1.385 . S
C1706 C1708 1.478 . S
C1707 H1701 0.930 . S
C1707 C1703 1.400 . S
C1707 C1706 1.385 . S
C1708 C1706 1.478 . S
C1708 C1710 1.381 . S
C1708 C1714 1.383 . S
C1709 C1705 1.495 . S
C1709 H1715 0.959 . S
C1709 H1716 0.961 . S
C1709 H1717 0.960 . S
C1710 C1708 1.381 . S
C1710 C1711 1.394 . S
C1710 H1718 0.930 . S
C1711 C1710 1.394 . S
C1711 C1712 1.383 . S
C1711 H1719 0.929 . S
C1712 C1711 1.383 . S
C1712 C1713 1.377 . S
C1713 H1697 0.930 . S
C1713 C1712 1.377 . S
C1713 C1714 1.379 . S
C1714 H1698 0.931 . S
C1714 C1708 1.383 . S
C1714 C1713 1.379 . S
H1715 C1709 0.959 . S
H1716 C1709 0.961 . S
H1717 C1709 0.960 . S
H1718 C1710 0.930 . S
H1719 C1711 0.929 . S
H1720 C1728 0.929 . S
H1721 C1730 0.930 . S
H1722 C1732 0.930 . S
H1723 C1735 0.929 . S
H1724 C1738 0.930 . S
H1725 C1740 0.960 . S
H1726 C1740 0.960 . S
H1727 C1740 0.960 . S
C1728 H1720 0.929 . S
C1728 C1729 1.377 . S
C1728 C1730 1.384 . S
C1729 C1728 1.377 . S
C1729 C1735 1.390 . S
C1730 H1721 0.930 . S
C1730 C1728 1.384 . S
C1730 C1731 1.372 . S
C1731 C1730 1.372 . S
C1731 C1732 1.400 . S
C1731 C1736 1.490 . S
C1732 H1722 0.930 . S
C1732 C1731 1.400 . S
C1732 C1735 1.386 . S
H1733 C1749 0.930 . S
H1734 C1750 0.931 . S
C1735 H1723 0.929 . S
C1735 C1729 1.390 . S
C1735 C1732 1.386 . S
C1736 C1731 1.490 . S
C1736 C1738 1.395 . S
C1736 C1739 1.403 . S
H1737 C1743 0.930 . S
C1738 H1724 0.930 . S
C1738 C1736 1.395 . S
C1738 C1741 1.403 . S
C1739 C1736 1.403 . S
C1739 C1740 1.524 . S
C1739 C1743 1.400 . S
C1740 H1725 0.960 . S
C1740 H1726 0.960 . S
C1740 H1727 0.960 . S
C1740 C1739 1.524 . S
C1741 C1738 1.403 . S
C1741 C1742 1.392 . S
C1741 C1745 1.495 . S
C1742 C1741 1.392 . S
C1742 C1743 1.385 . S
C1742 C1744 1.478 . S
C1743 H1737 0.930 . S
C1743 C1739 1.400 . S
C1743 C1742 1.385 . S
C1744 C1742 1.478 . S
C1744 C1746 1.381 . S
C1744 C1750 1.383 . S
C1745 C1741 1.495 . S
C1745 H1751 0.959 . S
C1745 H1752 0.961 . S
C1745 H1753 0.960 . S
C1746 C1744 1.381 . S
C1746 C1747 1.394 . S
C1746 H1754 0.930 . S
C1747 C1746 1.394 . S
C1747 C1748 1.383 . S
C1747 H1755 0.929 . S
C1748 C1747 1.383 . S
C1748 C1749 1.377 . S
C1749 H1733 0.930 . S
C1749 C1748 1.377 . S
C1749 C1750 1.379 . S
C1750 H1734 0.931 . S
C1750 C1744 1.383 . S
C1750 C1749 1.379 . S
H1751 C1745 0.959 . S
H1752 C1745 0.961 . S
H1753 C1745 0.960 . S
H1754 C1746 0.930 . S
H1755 C1747 0.929 . S
H1756 C1764 0.929 . S
H1757 C1766 0.930 . S
H1758 C1768 0.930 . S
H1759 C1771 0.929 . S
H1760 C1774 0.930 . S
H1761 C1776 0.960 . S
H1762 C1776 0.960 . S
H1763 C1776 0.960 . S
C1764 H1756 0.929 . S
C1764 C1765 1.377 . S
C1764 C1766 1.384 . S
C1765 C1764 1.377 . S
C1765 C1771 1.390 . S
C1766 H1757 0.930 . S
C1766 C1764 1.384 . S
C1766 C1767 1.372 . S
C1767 C1766 1.372 . S
C1767 C1768 1.400 . S
C1767 C1772 1.490 . S
C1768 H1758 0.930 . S
C1768 C1767 1.400 . S
C1768 C1771 1.386 . S
H1769 C1785 0.930 . S
H1770 C1786 0.931 . S
C1771 H1759 0.929 . S
C1771 C1765 1.390 . S
C1771 C1768 1.386 . S
C1772 C1767 1.490 . S
C1772 C1774 1.395 . S
C1772 C1775 1.403 . S
H1773 C1779 0.930 . S
C1774 H1760 0.930 . S
C1774 C1772 1.395 . S
C1774 C1777 1.403 . S
C1775 C1772 1.403 . S
C1775 C1776 1.524 . S
C1775 C1779 1.400 . S
C1776 H1761 0.960 . S
C1776 H1762 0.960 . S
C1776 H1763 0.960 . S
C1776 C1775 1.524 . S
C1777 C1774 1.403 . S
C1777 C1778 1.392 . S
C1777 C1781 1.495 . S
C1778 C1777 1.392 . S
C1778 C1779 1.385 . S
C1778 C1780 1.478 . S
C1779 H1773 0.930 . S
C1779 C1775 1.400 . S
C1779 C1778 1.385 . S
C1780 C1778 1.478 . S
C1780 C1782 1.381 . S
C1780 C1786 1.383 . S
C1781 C1777 1.495 . S
C1781 H1787 0.959 . S
C1781 H1788 0.961 . S
C1781 H1789 0.960 . S
C1782 C1780 1.381 . S
C1782 C1783 1.394 . S
C1782 H1790 0.930 . S
C1783 C1782 1.394 . S
C1783 C1784 1.383 . S
C1783 H1791 0.929 . S
C1784 C1783 1.383 . S
C1784 C1785 1.377 . S
C1785 H1769 0.930 . S
C1785 C1784 1.377 . S
C1785 C1786 1.379 . S
C1786 H1770 0.931 . S
C1786 C1780 1.383 . S
C1786 C1785 1.379 . S
H1787 C1781 0.959 . S
H1788 C1781 0.961 . S
H1789 C1781 0.960 . S
H1790 C1782 0.930 . S
H1791 C1783 0.929 . S
H1792 C1800 0.929 . S
H1793 C1802 0.930 . S
H1794 C1804 0.930 . S
H1795 C1807 0.929 . S
H1796 C1810 0.930 . S
H1797 C1812 0.960 . S
H1798 C1812 0.960 . S
H1799 C1812 0.960 . S
C1800 H1792 0.929 . S
C1800 C1801 1.377 . S
C1800 C1802 1.384 . S
C1801 C1800 1.377 . S
C1801 C1807 1.390 . S
C1802 H1793 0.930 . S
C1802 C1800 1.384 . S
C1802 C1803 1.372 . S
C1803 C1802 1.372 . S
C1803 C1804 1.400 . S
C1803 C1808 1.490 . S
C1804 H1794 0.930 . S
C1804 C1803 1.400 . S
C1804 C1807 1.386 . S
H1805 C1821 0.930 . S
H1806 C1822 0.931 . S
C1807 H1795 0.929 . S
C1807 C1801 1.390 . S
C1807 C1804 1.386 . S
C1808 C1803 1.490 . S
C1808 C1810 1.395 . S
C1808 C1811 1.403 . S
H1809 C1815 0.930 . S
C1810 H1796 0.930 . S
C1810 C1808 1.395 . S
C1810 C1813 1.403 . S
C1811 C1808 1.403 . S
C1811 C1812 1.524 . S
C1811 C1815 1.400 . S
C1812 H1797 0.960 . S
C1812 H1798 0.960 . S
C1812 H1799 0.960 . S
C1812 C1811 1.524 . S
C1813 C1810 1.403 . S
C1813 C1814 1.392 . S
C1813 C1817 1.495 . S
C1814 C1813 1.392 . S
C1814 C1815 1.385 . S
C1814 C1816 1.478 . S
C1815 H1809 0.930 . S
C1815 C1811 1.400 . S
C1815 C1814 1.385 . S
C1816 C1814 1.478 . S
C1816 C1818 1.381 . S
C1816 C1822 1.383 . S
C1817 C1813 1.495 . S
C1817 H1823 0.959 . S
C1817 H1824 0.961 . S
C1817 H1825 0.960 . S
C1818 C1816 1.381 . S
C1818 C1819 1.394 . S
C1818 H1826 0.930 . S
C1819 C1818 1.394 . S
C1819 C1820 1.383 . S
C1819 H1827 0.929 . S
C1820 C1819 1.383 . S
C1820 C1821 1.377 . S
C1821 H1805 0.930 . S
C1821 C1820 1.377 . S
C1821 C1822 1.379 . S
C1822 H1806 0.931 . S
C1822 C1816 1.383 . S
C1822 C1821 1.379 . S
H1823 C1817 0.959 . S
H1824 C1817 0.961 . S
H1825 C1817 0.960 . S
H1826 C1818 0.930 . S
H1827 C1819 0.929 . S
H1828 C1836 0.929 . S
H1829 C1838 0.930 . S
H1830 C1840 0.930 . S
H1831 C1843 0.929 . S
H1832 C1846 0.930 . S
H1833 C1848 0.960 . S
H1834 C1848 0.960 . S
H1835 C1848 0.960 . S
C1836 H1828 0.929 . S
C1836 C1837 1.377 . S
C1836 C1838 1.384 . S
C1837 C1836 1.377 . S
C1837 C1843 1.390 . S
C1838 H1829 0.930 . S
C1838 C1836 1.384 . S
C1838 C1839 1.372 . S
C1839 C1838 1.372 . S
C1839 C1840 1.400 . S
C1839 C1844 1.490 . S
C1840 H1830 0.930 . S
C1840 C1839 1.400 . S
C1840 C1843 1.386 . S
H1841 C1857 0.930 . S
H1842 C1858 0.931 . S
C1843 H1831 0.929 . S
C1843 C1837 1.390 . S
C1843 C1840 1.386 . S
C1844 C1839 1.490 . S
C1844 C1846 1.395 . S
C1844 C1847 1.403 . S
H1845 C1851 0.930 . S
C1846 H1832 0.930 . S
C1846 C1844 1.395 . S
C1846 C1849 1.403 . S
C1847 C1844 1.403 . S
C1847 C1848 1.524 . S
C1847 C1851 1.400 . S
C1848 H1833 0.960 . S
C1848 H1834 0.960 . S
C1848 H1835 0.960 . S
C1848 C1847 1.524 . S
C1849 C1846 1.403 . S
C1849 C1850 1.392 . S
C1849 C1853 1.495 . S
C1850 C1849 1.392 . S
C1850 C1851 1.385 . S
C1850 C1852 1.478 . S
C1851 H1845 0.930 . S
C1851 C1847 1.400 . S
C1851 C1850 1.385 . S
C1852 C1850 1.478 . S
C1852 C1854 1.381 . S
C1852 C1858 1.383 . S
C1853 C1849 1.495 . S
C1853 H1859 0.959 . S
C1853 H1860 0.961 . S
C1853 H1861 0.960 . S
C1854 C1852 1.381 . S
C1854 C1855 1.394 . S
C1854 H1862 0.930 . S
C1855 C1854 1.394 . S
C1855 C1856 1.383 . S
C1855 H1863 0.929 . S
C1856 C1855 1.383 . S
C1856 C1857 1.377 . S
C1857 H1841 0.930 . S
C1857 C1856 1.377 . S
C1857 C1858 1.379 . S
C1858 H1842 0.931 . S
C1858 C1852 1.383 . S
C1858 C1857 1.379 . S
H1859 C1853 0.959 . S
H1860 C1853 0.961 . S
H1861 C1853 0.960 . S
H1862 C1854 0.930 . S
H1863 C1855 0.929 . S
H1864 C1872 0.929 . S
H1865 C1874 0.930 . S
H1866 C1876 0.930 . S
H1867 C1879 0.929 . S
H1868 C1882 0.930 . S
H1869 C1884 0.960 . S
H1870 C1884 0.960 . S
H1871 C1884 0.960 . S
C1872 H1864 0.929 . S
C1872 C1873 1.377 . S
C1872 C1874 1.384 . S
C1873 C1872 1.377 . S
C1873 C1879 1.390 . S
C1874 H1865 0.930 . S
C1874 C1872 1.384 . S
C1874 C1875 1.372 . S
C1875 C1874 1.372 . S
C1875 C1876 1.400 . S
C1875 C1880 1.490 . S
C1876 H1866 0.930 . S
C1876 C1875 1.400 . S
C1876 C1879 1.386 . S
H1877 C1893 0.930 . S
H1878 C1894 0.931 . S
C1879 H1867 0.929 . S
C1879 C1873 1.390 . S
C1879 C1876 1.386 . S
C1880 C1875 1.490 . S
C1880 C1882 1.395 . S
C1880 C1883 1.403 . S
H1881 C1887 0.930 . S
C1882 H1868 0.930 . S
C1882 C1880 1.395 . S
C1882 C1885 1.403 . S
C1883 C1880 1.403 . S
C1883 C1884 1.524 . S
C1883 C1887 1.400 . S
C1884 H1869 0.960 . S
C1884 H1870 0.960 . S
C1884 H1871 0.960 . S
C1884 C1883 1.524 . S
C1885 C1882 1.403 . S
C1885 C1886 1.392 . S
C1885 C1889 1.495 . S
C1886 C1885 1.392 . S
C1886 C1887 1.385 . S
C1886 C1888 1.478 . S
C1887 H1881 0.930 . S
C1887 C1883 1.400 . S
C1887 C1886 1.385 . S
C1888 C1886 1.478 . S
C1888 C1890 1.381 . S
C1888 C1894 1.383 . S
C1889 C1885 1.495 . S
C1889 H1895 0.959 . S
C1889 H1896 0.961 . S
C1889 H1897 0.960 . S
C1890 C1888 1.381 . S
C1890 C1891 1.394 . S
C1890 H1898 0.930 . S
C1891 C1890 1.394 . S
C1891 C1892 1.383 . S
C1891 H1899 0.929 . S
C1892 C1891 1.383 . S
C1892 C1893 1.377 . S
C1893 H1877 0.930 . S
C1893 C1892 1.377 . S
C1893 C1894 1.379 . S
C1894 H1878 0.931 . S
C1894 C1888 1.383 . S
C1894 C1893 1.379 . S
H1895 C1889 0.959 . S
H1896 C1889 0.961 . S
H1897 C1889 0.960 . S
H1898 C1890 0.930 . S
H1899 C1891 0.929 . S
H1900 C1908 0.929 . S
H1901 C1910 0.930 . S
H1902 C1912 0.930 . S
H1903 C1915 0.929 . S
H1904 C1918 0.930 . S
H1905 C1920 0.960 . S
H1906 C1920 0.960 . S
H1907 C1920 0.960 . S
C1908 H1900 0.929 . S
C1908 C1909 1.377 . S
C1908 C1910 1.384 . S
C1909 C1908 1.377 . S
C1909 C1915 1.390 . S
C1910 H1901 0.930 . S
C1910 C1908 1.384 . S
C1910 C1911 1.372 . S
C1911 C1910 1.372 . S
C1911 C1912 1.400 . S
C1911 C1916 1.490 . S
C1912 H1902 0.930 . S
C1912 C1911 1.400 . S
C1912 C1915 1.386 . S
H1913 C1929 0.930 . S
H1914 C1930 0.931 . S
C1915 H1903 0.929 . S
C1915 C1909 1.390 . S
C1915 C1912 1.386 . S
C1916 C1911 1.490 . S
C1916 C1918 1.395 . S
C1916 C1919 1.403 . S
H1917 C1923 0.930 . S
C1918 H1904 0.930 . S
C1918 C1916 1.395 . S
C1918 C1921 1.403 . S
C1919 C1916 1.403 . S
C1919 C1920 1.524 . S
C1919 C1923 1.400 . S
C1920 H1905 0.960 . S
C1920 H1906 0.960 . S
C1920 H1907 0.960 . S
C1920 C1919 1.524 . S
C1921 C1918 1.403 . S
C1921 C1922 1.392 . S
C1921 C1925 1.495 . S
C1922 C1921 1.392 . S
C1922 C1923 1.385 . S
C1922 C1924 1.478 . S
C1923 H1917 0.930 . S
C1923 C1919 1.400 . S
C1923 C1922 1.385 . S
C1924 C1922 1.478 . S
C1924 C1926 1.381 . S
C1924 C1930 1.383 . S
C1925 C1921 1.495 . S
C1925 H1931 0.959 . S
C1925 H1932 0.961 . S
C1925 H1933 0.960 . S
C1926 C1924 1.381 . S
C1926 C1927 1.394 . S
C1926 H1934 0.930 . S
C1927 C1926 1.394 . S
C1927 C1928 1.383 . S
C1927 H1935 0.929 . S
C1928 C1927 1.383 . S
C1928 C1929 1.377 . S
C1929 H1913 0.930 . S
C1929 C1928 1.377 . S
C1929 C1930 1.379 . S
C1930 H1914 0.931 . S
C1930 C1924 1.383 . S
C1930 C1929 1.379 . S
H1931 C1925 0.959 . S
H1932 C1925 0.961 . S
H1933 C1925 0.960 . S
H1934 C1926 0.930 . S
H1935 C1927 0.929 . S
H1936 C1944 0.929 . S
H1937 C1946 0.930 . S
H1938 C1948 0.930 . S
H1939 C1951 0.929 . S
H1940 C1954 0.930 . S
H1941 C1956 0.960 . S
H1942 C1956 0.960 . S
H1943 C1956 0.960 . S
C1944 H1936 0.929 . S
C1944 C1945 1.377 . S
C1944 C1946 1.384 . S
C1945 C1944 1.377 . S
C1945 C1951 1.390 . S
C1946 H1937 0.930 . S
C1946 C1944 1.384 . S
C1946 C1947 1.372 . S
C1947 C1946 1.372 . S
C1947 C1948 1.400 . S
C1947 C1952 1.490 . S
C1948 H1938 0.930 . S
C1948 C1947 1.400 . S
C1948 C1951 1.386 . S
H1949 C1965 0.930 . S
H1950 C1966 0.931 . S
C1951 H1939 0.929 . S
C1951 C1945 1.390 . S
C1951 C1948 1.386 . S
C1952 C1947 1.490 . S
C1952 C1954 1.395 . S
C1952 C1955 1.403 . S
H1953 C1959 0.930 . S
C1954 H1940 0.930 . S
C1954 C1952 1.395 . S
C1954 C1957 1.403 . S
C1955 C1952 1.403 . S
C1955 C1956 1.524 . S
C1955 C1959 1.400 . S
C1956 H1941 0.960 . S
C1956 H1942 0.960 . S
C1956 H1943 0.960 . S
C1956 C1955 1.524 . S
C1957 C1954 1.403 . S
C1957 C1958 1.392 . S
C1957 C1961 1.495 . S
C1958 C1957 1.392 . S
C1958 C1959 1.385 . S
C1958 C1960 1.478 . S
C1959 H1953 0.930 . S
C1959 C1955 1.400 . S
C1959 C1958 1.385 . S
C1960 C1958 1.478 . S
C1960 C1962 1.381 . S
C1960 C1966 1.383 . S
C1961 C1957 1.495 . S
C1961 H1967 0.959 . S
C1961 H1968 0.961 . S
C1961 H1969 0.960 . S
C1962 C1960 1.381 . S
C1962 C1963 1.394 . S
C1962 H1970 0.930 . S
C1963 C1962 1.394 . S
C1963 C1964 1.383 . S
C1963 H1971 0.929 . S
C1964 C1963 1.383 . S
C1964 C1965 1.377 . S
C1965 H1949 0.930 . S
C1965 C1964 1.377 . S
C1965 C1966 1.379 . S
C1966 H1950 0.931 . S
C1966 C1960 1.383 . S
C1966 C1965 1.379 . S
H1967 C1961 0.959 . S
H1968 C1961 0.961 . S
H1969 C1961 0.960 . S
H1970 C1962 0.930 . S
H1971 C1963 0.929 . S
H1972 C1980 0.929 . S
H1973 C1982 0.930 . S
H1974 C1984 0.930 . S
H1975 C1987 0.929 . S
H1976 C1990 0.930 . S
H1977 C1992 0.960 . S
H1978 C1992 0.960 . S
H1979 C1992 0.960 . S
C1980 H1972 0.929 . S
C1980 C1981 1.377 . S
C1980 C1982 1.384 . S
C1981 C1980 1.377 . S
C1981 C1987 1.390 . S
C1982 H1973 0.930 . S
C1982 C1980 1.384 . S
C1982 C1983 1.372 . S
C1983 C1982 1.372 . S
C1983 C1984 1.400 . S
C1983 C1988 1.490 . S
C1984 H1974 0.930 . S
C1984 C1983 1.400 . S
C1984 C1987 1.386 . S
H1985 C2001 0.930 . S
H1986 C2002 0.931 . S
C1987 H1975 0.929 . S
C1987 C1981 1.390 . S
C1987 C1984 1.386 . S
C1988 C1983 1.490 . S
C1988 C1990 1.395 . S
C1988 C1991 1.403 . S
H1989 C1995 0.930 . S
C1990 H1976 0.930 . S
C1990 C1988 1.395 . S
C1990 C1993 1.403 . S
C1991 C1988 1.403 . S
C1991 C1992 1.524 . S
C1991 C1995 1.400 . S
C1992 H1977 0.960 . S
C1992 H1978 0.960 . S
C1992 H1979 0.960 . S
C1992 C1991 1.524 . S
C1993 C1990 1.403 . S
C1993 C1994 1.392 . S
C1993 C1997 1.495 . S
C1994 C1993 1.392 . S
C1994 C1995 1.385 . S
C1994 C1996 1.478 . S
C1995 H1989 0.930 . S
C1995 C1991 1.400 . S
C1995 C1994 1.385 . S
C1996 C1994 1.478 . S
C1996 C1998 1.381 . S
C1996 C2002 1.383 . S
C1997 C1993 1.495 . S
C1997 H2003 0.959 . S
C1997 H2004 0.961 . S
C1997 H2005 0.960 . S
C1998 C1996 1.381 . S
C1998 C1999 1.394 . S
C1998 H2006 0.930 . S
C1999 C1998 1.394 . S
C1999 C2000 1.383 . S
C1999 H2007 0.929 . S
C2000 C1999 1.383 . S
C2000 C2001 1.377 . S
C2001 H1985 0.930 . S
C2001 C2000 1.377 . S
C2001 C2002 1.379 . S
C2002 H1986 0.931 . S
C2002 C1996 1.383 . S
C2002 C2001 1.379 . S
H2003 C1997 0.959 . S
H2004 C1997 0.961 . S
H2005 C1997 0.960 . S
H2006 C1998 0.930 . S
H2007 C1999 0.929 . S
H2008 C2016 0.929 . S
H2009 C2018 0.930 . S
H2010 C2020 0.930 . S
H2011 C2023 0.929 . S
H2012 C2026 0.930 . S
H2013 C2028 0.960 . S
H2014 C2028 0.960 . S
H2015 C2028 0.960 . S
C2016 H2008 0.929 . S
C2016 C2017 1.377 . S
C2016 C2018 1.384 . S
C2017 C2016 1.377 . S
C2017 C2023 1.390 . S
C2018 H2009 0.930 . S
C2018 C2016 1.384 . S
C2018 C2019 1.372 . S
C2019 C2018 1.372 . S
C2019 C2020 1.400 . S
C2019 C2024 1.490 . S
C2020 H2010 0.930 . S
C2020 C2019 1.400 . S
C2020 C2023 1.386 . S
H2021 C2037 0.930 . S
H2022 C2038 0.931 . S
C2023 H2011 0.929 . S
C2023 C2017 1.390 . S
C2023 C2020 1.386 . S
C2024 C2019 1.490 . S
C2024 C2026 1.395 . S
C2024 C2027 1.403 . S
H2025 C2031 0.930 . S
C2026 H2012 0.930 . S
C2026 C2024 1.395 . S
C2026 C2029 1.403 . S
C2027 C2024 1.403 . S
C2027 C2028 1.524 . S
C2027 C2031 1.400 . S
C2028 H2013 0.960 . S
C2028 H2014 0.960 . S
C2028 H2015 0.960 . S
C2028 C2027 1.524 . S
C2029 C2026 1.403 . S
C2029 C2030 1.392 . S
C2029 C2033 1.495 . S
C2030 C2029 1.392 . S
C2030 C2031 1.385 . S
C2030 C2032 1.478 . S
C2031 H2025 0.930 . S
C2031 C2027 1.400 . S
C2031 C2030 1.385 . S
C2032 C2030 1.478 . S
C2032 C2034 1.381 . S
C2032 C2038 1.383 . S
C2033 C2029 1.495 . S
C2033 H2039 0.959 . S
C2033 H2040 0.961 . S
C2033 H2041 0.960 . S
C2034 C2032 1.381 . S
C2034 C2035 1.394 . S
C2034 H2042 0.930 . S
C2035 C2034 1.394 . S
C2035 C2036 1.383 . S
C2035 H2043 0.929 . S
C2036 C2035 1.383 . S
C2036 C2037 1.377 . S
C2037 H2021 0.930 . S
C2037 C2036 1.377 . S
C2037 C2038 1.379 . S
C2038 H2022 0.931 . S
C2038 C2032 1.383 . S
C2038 C2037 1.379 . S
H2039 C2033 0.959 . S
H2040 C2033 0.961 . S
H2041 C2033 0.960 . S
H2042 C2034 0.930 . S
H2043 C2035 0.929 . S
H2044 C2052 0.929 . S
H2045 C2054 0.930 . S
H2046 C2056 0.930 . S
H2047 C2059 0.929 . S
H2048 C2062 0.930 . S
H2049 C2064 0.960 . S
H2050 C2064 0.960 . S
H2051 C2064 0.960 . S
C2052 H2044 0.929 . S
C2052 C2053 1.377 . S
C2052 C2054 1.384 . S
C2053 C2052 1.377 . S
C2053 C2059 1.390 . S
C2054 H2045 0.930 . S
C2054 C2052 1.384 . S
C2054 C2055 1.372 . S
C2055 C2054 1.372 . S
C2055 C2056 1.400 . S
C2055 C2060 1.490 . S
C2056 H2046 0.930 . S
C2056 C2055 1.400 . S
C2056 C2059 1.386 . S
H2057 C2073 0.930 . S
H2058 C2074 0.931 . S
C2059 H2047 0.929 . S
C2059 C2053 1.390 . S
C2059 C2056 1.386 . S
C2060 C2055 1.490 . S
C2060 C2062 1.395 . S
C2060 C2063 1.403 . S
H2061 C2067 0.930 . S
C2062 H2048 0.930 . S
C2062 C2060 1.395 . S
C2062 C2065 1.403 . S
C2063 C2060 1.403 . S
C2063 C2064 1.524 . S
C2063 C2067 1.400 . S
C2064 H2049 0.960 . S
C2064 H2050 0.960 . S
C2064 H2051 0.960 . S
C2064 C2063 1.524 . S
C2065 C2062 1.403 . S
C2065 C2066 1.392 . S
C2065 C2069 1.495 . S
C2066 C2065 1.392 . S
C2066 C2067 1.385 . S
C2066 C2068 1.478 . S
C2067 H2061 0.930 . S
C2067 C2063 1.400 . S
C2067 C2066 1.385 . S
C2068 C2066 1.478 . S
C2068 C2070 1.381 . S
C2068 C2074 1.383 . S
C2069 C2065 1.495 . S
C2069 H2075 0.959 . S
C2069 H2076 0.961 . S
C2069 H2077 0.960 . S
C2070 C2068 1.381 . S
C2070 C2071 1.394 . S
C2070 H2078 0.930 . S
C2071 C2070 1.394 . S
C2071 C2072 1.383 . S
C2071 H2079 0.929 . S
C2072 C2071 1.383 . S
C2072 C2073 1.377 . S
C2073 H2057 0.930 . S
C2073 C2072 1.377 . S
C2073 C2074 1.379 . S
C2074 H2058 0.931 . S
C2074 C2068 1.383 . S
C2074 C2073 1.379 . S
H2075 C2069 0.959 . S
H2076 C2069 0.961 . S
H2077 C2069 0.960 . S
H2078 C2070 0.930 . S
H2079 C2071 0.929 . S
H2080 C2088 0.929 . S
H2081 C2090 0.930 . S
H2082 C2092 0.930 . S
H2083 C2095 0.929 . S
H2084 C2098 0.930 . S
H2085 C2100 0.960 . S
H2086 C2100 0.960 . S
H2087 C2100 0.960 . S
C2088 H2080 0.929 . S
C2088 C2089 1.377 . S
C2088 C2090 1.384 1_556 S
C2089 C2088 1.377 . S
C2089 C2095 1.390 . S
C2090 H2081 0.930 . S
C2090 C2088 1.384 1_554 S
C2090 C2091 1.372 . S
C2091 C2090 1.372 . S
C2091 C2092 1.400 . S
C2091 C2096 1.490 . S
C2092 H2082 0.930 . S
C2092 C2091 1.400 . S
C2092 C2095 1.386 1_554 S
H2093 C2109 0.930 . S
H2094 C2110 0.931 . S
C2095 H2083 0.929 . S
C2095 C2089 1.390 . S
C2095 C2092 1.386 1_556 S
C2096 C2091 1.490 . S
C2096 C2098 1.395 . S
C2096 C2099 1.403 . S
H2097 C2103 0.930 . S
C2098 H2084 0.930 . S
C2098 C2096 1.395 . S
C2098 C2101 1.403 . S
C2099 C2096 1.403 . S
C2099 C2100 1.524 . S
C2099 C2103 1.400 . S
C2100 H2085 0.960 . S
C2100 H2086 0.960 . S
C2100 H2087 0.960 . S
C2100 C2099 1.524 . S
C2101 C2098 1.403 . S
C2101 C2102 1.392 . S
C2101 C2105 1.495 . S
C2102 C2101 1.392 . S
C2102 C2103 1.385 . S
C2102 C2104 1.478 . S
C2103 H2097 0.930 . S
C2103 C2099 1.400 . S
C2103 C2102 1.385 . S
C2104 C2102 1.478 . S
C2104 C2106 1.381 . S
C2104 C2110 1.383 . S
C2105 C2101 1.495 . S
C2105 H2111 0.959 . S
C2105 H2112 0.961 . S
C2105 H2113 0.960 . S
C2106 C2104 1.381 . S
C2106 C2107 1.394 . S
C2106 H2114 0.930 . S
C2107 C2106 1.394 . S
C2107 C2108 1.383 . S
C2107 H2115 0.929 . S
C2108 C2107 1.383 . S
C2108 C2109 1.377 . S
C2109 H2093 0.930 . S
C2109 C2108 1.377 . S
C2109 C2110 1.379 . S
C2110 H2094 0.931 . S
C2110 C2104 1.383 . S
C2110 C2109 1.379 . S
H2111 C2105 0.959 . S
H2112 C2105 0.961 . S
H2113 C2105 0.960 . S
H2114 C2106 0.930 . S
H2115 C2107 0.929 . S
H2116 C2124 0.929 . S
H2117 C2126 0.930 . S
H2118 C2128 0.930 . S
H2119 C2131 0.929 . S
H2120 C2134 0.930 . S
H2121 C2136 0.960 . S
H2122 C2136 0.960 . S
H2123 C2136 0.960 . S
C2124 H2116 0.929 . S
C2124 C2125 1.377 . S
C2124 C2126 1.384 . S
C2125 C2124 1.377 . S
C2125 C2131 1.390 . S
C2126 H2117 0.930 . S
C2126 C2124 1.384 . S
C2126 C2127 1.372 . S
C2127 C2126 1.372 . S
C2127 C2128 1.400 . S
C2127 C2132 1.490 . S
C2128 H2118 0.930 . S
C2128 C2127 1.400 . S
C2128 C2131 1.386 . S
H2129 C2145 0.930 . S
H2130 C2146 0.931 . S
C2131 H2119 0.929 . S
C2131 C2125 1.390 . S
C2131 C2128 1.386 . S
C2132 C2127 1.490 . S
C2132 C2134 1.395 . S
C2132 C2135 1.403 . S
H2133 C2139 0.930 . S
C2134 H2120 0.930 . S
C2134 C2132 1.395 . S
C2134 C2137 1.403 . S
C2135 C2132 1.403 . S
C2135 C2136 1.524 . S
C2135 C2139 1.400 . S
C2136 H2121 0.960 . S
C2136 H2122 0.960 . S
C2136 H2123 0.960 . S
C2136 C2135 1.524 . S
C2137 C2134 1.403 . S
C2137 C2138 1.392 . S
C2137 C2141 1.495 . S
C2138 C2137 1.392 . S
C2138 C2139 1.385 . S
C2138 C2140 1.478 . S
C2139 H2133 0.930 . S
C2139 C2135 1.400 . S
C2139 C2138 1.385 . S
C2140 C2138 1.478 . S
C2140 C2142 1.381 . S
C2140 C2146 1.383 . S
C2141 C2137 1.495 . S
C2141 H2147 0.959 . S
C2141 H2148 0.961 . S
C2141 H2149 0.960 . S
C2142 C2140 1.381 . S
C2142 C2143 1.394 1_556 S
C2142 H2150 0.930 . S
C2143 C2142 1.394 1_554 S
C2143 C2144 1.383 . S
C2143 H2151 0.929 . S
C2144 C2143 1.383 . S
C2144 C2145 1.377 . S
C2145 H2129 0.930 . S
C2145 C2144 1.377 . S
C2145 C2146 1.379 1_554 S
C2146 H2130 0.931 . S
C2146 C2140 1.383 . S
C2146 C2145 1.379 1_556 S
H2147 C2141 0.959 . S
H2148 C2141 0.961 . S
H2149 C2141 0.960 . S
H2150 C2142 0.930 . S
H2151 C2143 0.929 . S
H2152 C2160 0.929 . S
H2153 C2162 0.930 . S
H2154 C2164 0.930 . S
H2155 C2167 0.929 . S
H2156 C2170 0.930 . S
H2157 C2172 0.960 . S
H2158 C2172 0.960 . S
H2159 C2172 0.960 . S
C2160 H2152 0.929 . S
C2160 C2161 1.377 . S
C2160 C2162 1.384 . S
C2161 C2160 1.377 . S
C2161 C2167 1.390 . S
C2162 H2153 0.930 . S
C2162 C2160 1.384 . S
C2162 C2163 1.372 . S
C2163 C2162 1.372 . S
C2163 C2164 1.400 . S
C2163 C2168 1.490 . S
C2164 H2154 0.930 . S
C2164 C2163 1.400 . S
C2164 C2167 1.386 . S
H2165 C2181 0.930 . S
H2166 C2182 0.931 . S
C2167 H2155 0.929 . S
C2167 C2161 1.390 . S
C2167 C2164 1.386 . S
C2168 C2163 1.490 . S
C2168 C2170 1.395 . S
C2168 C2171 1.403 . S
H2169 C2175 0.930 . S
C2170 H2156 0.930 . S
C2170 C2168 1.395 . S
C2170 C2173 1.403 . S
C2171 C2168 1.403 . S
C2171 C2172 1.524 . S
C2171 C2175 1.400 . S
C2172 H2157 0.960 . S
C2172 H2158 0.960 . S
C2172 H2159 0.960 . S
C2172 C2171 1.524 . S
C2173 C2170 1.403 . S
C2173 C2174 1.392 . S
C2173 C2177 1.495 . S
C2174 C2173 1.392 . S
C2174 C2175 1.385 . S
C2174 C2176 1.478 . S
C2175 H2169 0.930 . S
C2175 C2171 1.400 . S
C2175 C2174 1.385 . S
C2176 C2174 1.478 . S
C2176 C2178 1.381 . S
C2176 C2182 1.383 . S
C2177 C2173 1.495 . S
C2177 H2183 0.959 . S
C2177 H2184 0.961 . S
C2177 H2185 0.960 . S
C2178 C2176 1.381 . S
C2178 C2179 1.394 1_554 S
C2178 H2186 0.930 . S
C2179 C2178 1.394 1_556 S
C2179 C2180 1.383 . S
C2179 H2187 0.929 . S
C2180 C2179 1.383 . S
C2180 C2181 1.377 . S
C2181 H2165 0.930 . S
C2181 C2180 1.377 . S
C2181 C2182 1.379 1_556 S
C2182 H2166 0.931 . S
C2182 C2176 1.383 . S
C2182 C2181 1.379 1_554 S
H2183 C2177 0.959 . S
H2184 C2177 0.961 . S
H2185 C2177 0.960 . S
H2186 C2178 0.930 . S
H2187 C2179 0.929 . S
H2188 C2196 0.929 . S
H2189 C2198 0.930 . S
H2190 C2200 0.930 . S
H2191 C2203 0.929 . S
H2192 C2206 0.930 . S
H2193 C2208 0.960 . S
H2194 C2208 0.960 . S
H2195 C2208 0.960 . S
C2196 H2188 0.929 . S
C2196 C2197 1.377 . S
C2196 C2198 1.384 1_554 S
C2197 C2196 1.377 . S
C2197 C2203 1.390 . S
C2198 H2189 0.930 . S
C2198 C2196 1.384 1_556 S
C2198 C2199 1.372 . S
C2199 C2198 1.372 . S
C2199 C2200 1.400 . S
C2199 C2204 1.490 . S
C2200 H2190 0.930 . S
C2200 C2199 1.400 . S
C2200 C2203 1.386 1_556 S
H2201 C2217 0.930 . S
H2202 C2218 0.931 . S
C2203 H2191 0.929 . S
C2203 C2197 1.390 . S
C2203 C2200 1.386 1_554 S
C2204 C2199 1.490 . S
C2204 C2206 1.395 . S
C2204 C2207 1.403 . S
H2205 C2211 0.930 . S
C2206 H2192 0.930 . S
C2206 C2204 1.395 . S
C2206 C2209 1.403 . S
C2207 C2204 1.403 . S
C2207 C2208 1.524 . S
C2207 C2211 1.400 . S
C2208 H2193 0.960 . S
C2208 H2194 0.960 . S
C2208 H2195 0.960 . S
C2208 C2207 1.524 . S
C2209 C2206 1.403 . S
C2209 C2210 1.392 . S
C2209 C2213 1.495 . S
C2210 C2209 1.392 . S
C2210 C2211 1.385 . S
C2210 C2212 1.478 . S
C2211 H2205 0.930 . S
C2211 C2207 1.400 . S
C2211 C2210 1.385 . S
C2212 C2210 1.478 . S
C2212 C2214 1.381 . S
C2212 C2218 1.383 . S
C2213 C2209 1.495 . S
C2213 H2219 0.959 . S
C2213 H2220 0.961 . S
C2213 H2221 0.960 . S
C2214 C2212 1.381 . S
C2214 C2215 1.394 . S
C2214 H2222 0.930 . S
C2215 C2214 1.394 . S
C2215 C2216 1.383 . S
C2215 H2223 0.929 . S
C2216 C2215 1.383 . S
C2216 C2217 1.377 . S
C2217 H2201 0.930 . S
C2217 C2216 1.377 . S
C2217 C2218 1.379 . S
C2218 H2202 0.931 . S
C2218 C2212 1.383 . S
C2218 C2217 1.379 . S
H2219 C2213 0.959 . S
H2220 C2213 0.961 . S
H2221 C2213 0.960 . S
H2222 C2214 0.930 . S
H2223 C2215 0.929 . S
H2224 C2232 0.929 . S
H2225 C2234 0.930 . S
H2226 C2236 0.930 . S
H2227 C2239 0.929 . S
H2228 C2242 0.930 . S
H2229 C2244 0.960 . S
H2230 C2244 0.960 . S
H2231 C2244 0.960 . S
C2232 H2224 0.929 . S
C2232 C2233 1.377 . S
C2232 C2234 1.384 . S
C2233 C2232 1.377 . S
C2233 C2239 1.390 . S
C2234 H2225 0.930 . S
C2234 C2232 1.384 . S
C2234 C2235 1.372 . S
C2235 C2234 1.372 . S
C2235 C2236 1.400 . S
C2235 C2240 1.490 . S
C2236 H2226 0.930 . S
C2236 C2235 1.400 . S
C2236 C2239 1.386 . S
H2237 C2253 0.930 . S
H2238 C2254 0.931 . S
C2239 H2227 0.929 . S
C2239 C2233 1.390 . S
C2239 C2236 1.386 . S
C2240 C2235 1.490 . S
C2240 C2242 1.395 . S
C2240 C2243 1.403 . S
H2241 C2247 0.930 . S
C2242 H2228 0.930 . S
C2242 C2240 1.395 . S
C2242 C2245 1.403 . S
C2243 C2240 1.403 . S
C2243 C2244 1.524 . S
C2243 C2247 1.400 . S
C2244 H2229 0.960 . S
C2244 H2230 0.960 . S
C2244 H2231 0.960 . S
C2244 C2243 1.524 . S
C2245 C2242 1.403 . S
C2245 C2246 1.392 . S
C2245 C2249 1.495 . S
C2246 C2245 1.392 . S
C2246 C2247 1.385 . S
C2246 C2248 1.478 . S
C2247 H2241 0.930 . S
C2247 C2243 1.400 . S
C2247 C2246 1.385 . S
C2248 C2246 1.478 . S
C2248 C2250 1.398 . S
C2248 C2254 1.383 . S
C2249 C2245 1.495 . S
C2249 H2255 0.959 . S
C2249 H2256 0.961 . S
C2249 H2257 0.960 . S
C2250 C2248 1.398 . S
C2250 C2251 1.367 1_554 S
C2250 H2258 0.941 . S
C2251 C2250 1.367 1_556 S
C2251 C2252 1.383 . S
C2251 H2259 0.929 . S
C2252 C2251 1.383 . S
C2252 C2253 1.377 . S
C2253 H2237 0.930 . S
C2253 C2252 1.377 . S
C2253 C2254 1.379 1_556 S
C2254 H2238 0.931 . S
C2254 C2248 1.383 . S
C2254 C2253 1.379 1_554 S
H2255 C2249 0.959 . S
H2256 C2249 0.961 . S
H2257 C2249 0.960 . S
H2258 C2250 0.941 . S
H2259 C2251 0.929 . S
H2260 C2268 0.929 . S
H2261 C2270 0.930 . S
H2262 C2272 0.930 . S
H2263 C2275 0.929 . S
H2264 C2278 0.930 . S
H2265 C2280 0.960 . S
H2266 C2280 0.960 . S
H2267 C2280 0.960 . S
C2268 H2260 0.929 . S
C2268 C2269 1.377 . S
C2268 C2270 1.384 1_554 S
C2269 C2268 1.377 . S
C2269 C2275 1.390 . S
C2270 H2261 0.930 . S
C2270 C2268 1.384 1_556 S
C2270 C2271 1.372 . S
C2271 C2270 1.372 . S
C2271 C2272 1.400 . S
C2271 C2276 1.490 . S
C2272 H2262 0.930 . S
C2272 C2271 1.400 . S
C2272 C2275 1.386 1_556 S
H2273 C2289 0.930 . S
H2274 C2290 0.931 . S
C2275 H2263 0.929 . S
C2275 C2269 1.390 . S
C2275 C2272 1.386 1_554 S
C2276 C2271 1.490 . S
C2276 C2278 1.395 . S
C2276 C2279 1.403 . S
H2277 C2283 0.930 . S
C2278 H2264 0.930 . S
C2278 C2276 1.395 . S
C2278 C2281 1.403 . S
C2279 C2276 1.403 . S
C2279 C2280 1.524 . S
C2279 C2283 1.400 . S
C2280 H2265 0.960 . S
C2280 H2266 0.960 . S
C2280 H2267 0.960 . S
C2280 C2279 1.524 . S
C2281 C2278 1.403 . S
C2281 C2282 1.392 . S
C2281 C2285 1.495 . S
C2282 C2281 1.392 . S
C2282 C2283 1.385 . S
C2282 C2284 1.478 . S
C2283 H2277 0.930 . S
C2283 C2279 1.400 . S
C2283 C2282 1.385 . S
C2284 C2282 1.478 . S
C2284 C2286 1.381 . S
C2284 C2290 1.383 . S
C2285 C2281 1.495 . S
C2285 H2291 0.959 . S
C2285 H2292 0.961 . S
C2285 H2293 0.960 . S
C2286 C2284 1.381 . S
C2286 C2287 1.394 . S
C2286 H2294 0.930 . S
C2287 C2286 1.394 . S
C2287 C2288 1.383 . S
C2287 H2295 0.929 . S
C2288 C2287 1.383 . S
C2288 C2289 1.377 . S
C2289 H2273 0.930 . S
C2289 C2288 1.377 . S
C2289 C2290 1.379 . S
C2290 H2274 0.931 . S
C2290 C2284 1.383 . S
C2290 C2289 1.379 . S
H2291 C2285 0.959 . S
H2292 C2285 0.961 . S
H2293 C2285 0.960 . S
H2294 C2286 0.930 . S
H2295 C2287 0.929 . S
H2296 C2304 0.929 . S
H2297 C2306 0.930 . S
H2298 C2308 0.930 . S
H2299 C2311 0.929 . S
H2300 C2314 0.930 . S
H2301 C2316 0.960 . S
H2302 C2316 0.960 . S
H2303 C2316 0.960 . S
C2304 H2296 0.929 . S
C2304 C2305 1.377 . S
C2304 C2306 1.384 1_556 S
C2305 C2304 1.377 . S
C2305 C2311 1.390 . S
C2306 H2297 0.930 . S
C2306 C2304 1.384 1_554 S
C2306 C2307 1.372 . S
C2307 C2306 1.372 . S
C2307 C2308 1.400 . S
C2307 C2312 1.490 . S
C2308 H2298 0.930 . S
C2308 C2307 1.400 . S
C2308 C2311 1.386 1_554 S
H2309 C2325 0.930 . S
H2310 C2326 0.931 . S
C2311 H2299 0.929 . S
C2311 C2305 1.390 . S
C2311 C2308 1.386 1_556 S
C2312 C2307 1.490 . S
C2312 C2314 1.395 . S
C2312 C2315 1.403 . S
H2313 C2319 0.930 . S
C2314 H2300 0.930 . S
C2314 C2312 1.395 . S
C2314 C2317 1.403 . S
C2315 C2312 1.403 . S
C2315 C2316 1.524 . S
C2315 C2319 1.400 . S
C2316 H2301 0.960 . S
C2316 H2302 0.960 . S
C2316 H2303 0.960 . S
C2316 C2315 1.524 . S
C2317 C2314 1.403 . S
C2317 C2318 1.392 . S
C2317 C2321 1.495 . S
C2318 C2317 1.392 . S
C2318 C2319 1.385 . S
C2318 C2320 1.478 . S
C2319 H2313 0.930 . S
C2319 C2315 1.400 . S
C2319 C2318 1.385 . S
C2320 C2318 1.478 . S
C2320 C2322 1.381 . S
C2320 C2326 1.383 . S
C2321 C2317 1.495 . S
C2321 H2327 0.959 . S
C2321 H2328 0.961 . S
C2321 H2329 0.960 . S
C2322 C2320 1.381 . S
C2322 C2323 1.394 . S
C2322 H2330 0.930 . S
C2323 C2322 1.394 . S
C2323 C2324 1.383 . S
C2323 H2331 0.929 . S
C2324 C2323 1.383 . S
C2324 C2325 1.377 . S
C2325 H2309 0.930 . S
C2325 C2324 1.377 . S
C2325 C2326 1.379 . S
C2326 H2310 0.931 . S
C2326 C2320 1.383 . S
C2326 C2325 1.379 . S
H2327 C2321 0.959 . S
H2328 C2321 0.961 . S
H2329 C2321 0.960 . S
H2330 C2322 0.930 . S
H2331 C2323 0.929 . S
H2332 C2340 0.929 . S
H2333 C2342 0.930 . S
H2334 C2344 0.930 . S
H2335 C2347 0.929 . S
H2336 C2350 0.930 . S
H2337 C2352 0.960 . S
H2338 C2352 0.960 . S
H2339 C2352 0.960 . S
C2340 H2332 0.929 . S
C2340 C2341 1.377 . S
C2340 C2342 1.384 . S
C2341 C2340 1.377 . S
C2341 C2347 1.390 . S
C2342 H2333 0.930 . S
C2342 C2340 1.384 . S
C2342 C2343 1.372 . S
C2343 C2342 1.372 . S
C2343 C2344 1.400 . S
C2343 C2348 1.490 . S
C2344 H2334 0.930 . S
C2344 C2343 1.400 . S
C2344 C2347 1.386 . S
H2345 C2361 0.930 . S
H2346 C2362 0.931 . S
C2347 H2335 0.929 . S
C2347 C2341 1.390 . S
C2347 C2344 1.386 . S
C2348 C2343 1.490 . S
C2348 C2350 1.395 . S
C2348 C2351 1.403 . S
H2349 C2355 0.930 . S
C2350 H2336 0.930 . S
C2350 C2348 1.395 . S
C2350 C2353 1.403 . S
C2351 C2348 1.403 . S
C2351 C2352 1.524 . S
C2351 C2355 1.400 . S
C2352 H2337 0.960 . S
C2352 H2338 0.960 . S
C2352 H2339 0.960 . S
C2352 C2351 1.524 . S
C2353 C2350 1.403 . S
C2353 C2354 1.392 . S
C2353 C2357 1.495 . S
C2354 C2353 1.392 . S
C2354 C2355 1.385 . S
C2354 C2356 1.478 . S
C2355 H2349 0.930 . S
C2355 C2351 1.400 . S
C2355 C2354 1.385 . S
C2356 C2354 1.478 . S
C2356 C2358 1.381 . S
C2356 C2362 1.383 . S
C2357 C2353 1.495 . S
C2357 H2363 0.959 . S
C2357 H2364 0.961 . S
C2357 H2365 0.960 . S
C2358 C2356 1.381 . S
C2358 C2359 1.394 1_556 S
C2358 H2366 0.930 . S
C2359 C2358 1.394 1_554 S
C2359 C2360 1.383 . S
C2359 H2367 0.929 . S
C2360 C2359 1.383 . S
C2360 C2361 1.377 . S
C2361 H2345 0.930 . S
C2361 C2360 1.377 . S
C2361 C2362 1.379 1_554 S
C2362 H2346 0.931 . S
C2362 C2356 1.383 . S
C2362 C2361 1.379 1_556 S
H2363 C2357 0.959 . S
H2364 C2357 0.961 . S
H2365 C2357 0.960 . S
H2366 C2358 0.930 . S
H2367 C2359 0.929 . S
C649 C460 1.693 . S
C668 C2 1.684 . S
C685 C351 1.698 . S
C704 C63 1.700 . S
C721 C82 1.699 . S
C740 C380 1.691 . S
C757 C143 1.695 . S
C776 C431 1.693 . S
C793 C162 1.698 . S
C812 C220 1.704 . S
C829 C271 1.695 . S
C848 C223 1.682 . S
C865 C242 1.697 . S
C884 C300 1.681 . S
C901 C191 1.698 . S
C920 C303 1.701 . S
C937 C140 1.696 . S
C956 C322 1.705 . S
C973 C383 1.696 . S
C992 C31 1.701 . S
C1009 C60 1.693 . S
C1028 C402 1.682 . S
C1045 C111 1.693 . S
C1064 C463 1.694 . S
C1081 C482 1.698 . S
C1100 C540 1.682 . S
C1117 C591 1.698 . S
C1136 C543 1.696 . S
C1153 C620 1.694 . S
C1172 C562 1.701 . S
C1189 C623 1.699 . S
C1208 C511 1.698 . S
C1225 C23 1.153 . S
C1244 C183 1.158 . S
C1261 C202 1.148 . S
C1280 C42 1.126 . S
C1297 C103 1.147 . S
C1316 C263 1.183 . S
C1333 C122 1.145 . S
C1352 C282 1.176 . S
C1369 C343 1.139 . S
C1388 C503 1.103 . S
C1405 C522 1.151 . S
C1424 C362 1.183 . S
C1441 C423 1.147 . S
C1460 C583 1.183 . S
C1477 C442 1.141 . S
C1496 C602 1.161 . S
C1513 C580 2.306 . S
C1532 C20 2.310 . S
C1549 C71 2.303 . S
C1568 C631 2.311 . S
C1585 C100 2.306 . S
C1604 C500 2.305 . S
C1621 C151 2.302 . S
C1640 C551 2.307 . S
C1657 C180 2.304 . S
C1676 C420 2.308 . S
C1693 C231 2.302 . S
C1712 C471 2.293 . S
C1729 C260 2.303 . S
C1748 C340 2.289 . S
C1765 C391 2.306 . S
C1784 C311 2.298 . S
C1801 C25 0.942 . S
C1820 C4 0.934 . S
C1837 C44 0.944 . S
C1856 C65 0.953 . S
C1873 C105 0.943 . S
C1892 C84 0.929 . S
C1909 C145 0.943 . S
C1928 C124 0.930 . S
C1945 C164 0.942 . S
C1964 C185 0.930 . S
C1981 C204 0.942 . S
C2000 C225 0.934 . S
C2017 C265 0.948 . S
C2036 C244 0.955 . S
C2053 C305 0.946 . S
C2072 C284 0.958 . S
C2089 C345 0.942 . S
C2108 C324 0.939 . S
C2125 C385 0.947 . S
C2144 C364 0.958 . S
C2161 C404 0.945 . S
C2180 C425 0.932 . S
C2197 C444 0.944 . S
C2216 C465 0.952 . S
C2233 C505 0.948 . S
C2252 C484 0.945 . S
C2269 C545 0.945 . S
C2288 C524 0.957 . S
C2305 C564 0.947 . S
C2324 C585 0.936 . S
C2341 C604 0.943 . S
C2360 C625 0.947 . S
