# Generated by pormake.
# Topology whb, (6)-cn, num edge types: 1
# Building blocks:
#     Node 0, Type 0, BuildingBlock: KUMBUR_clean_sbu_1, # of connection points: 6
#     Node 1, Type 0, BuildingBlock: KUMBUR_clean_sbu_1, # of connection points: 6
#     Node 2, Type 0, BuildingBlock: KUMBUR_clean_sbu_1, # of connection points: 6
#     Node 3, Type 0, BuildingBlock: KUMBUR_clean_sbu_1, # of connection points: 6
#     Node 4, Type 0, BuildingBlock: KUMBUR_clean_sbu_1, # of connection points: 6
#     Node 5, Type 0, BuildingBlock: KUMBUR_clean_sbu_1, # of connection points: 6
#     Node 6, Type 0, BuildingBlock: KUMBUR_clean_sbu_1, # of connection points: 6
#     Node 7, Type 0, BuildingBlock: KUMBUR_clean_sbu_1, # of connection points: 6
#     Edge 8, Type (0, 0), BuildingBlock: TEMPAE_clean_linker_10, # of connection points: 2
#     Edge 9, Type (0, 0), BuildingBlock: TEMPAE_clean_linker_10, # of connection points: 2
#     Edge 10, Type (0, 0), BuildingBlock: TEMPAE_clean_linker_10, # of connection points: 2
#     Edge 11, Type (0, 0), BuildingBlock: TEMPAE_clean_linker_10, # of connection points: 2
#     Edge 12, Type (0, 0), BuildingBlock: TEMPAE_clean_linker_10, # of connection points: 2
#     Edge 13, Type (0, 0), BuildingBlock: TEMPAE_clean_linker_10, # of connection points: 2
#     Edge 14, Type (0, 0), BuildingBlock: TEMPAE_clean_linker_10, # of connection points: 2
#     Edge 15, Type (0, 0), BuildingBlock: TEMPAE_clean_linker_10, # of connection points: 2
#     Edge 16, Type (0, 0), BuildingBlock: TEMPAE_clean_linker_10, # of connection points: 2
#     Edge 17, Type (0, 0), BuildingBlock: TEMPAE_clean_linker_10, # of connection points: 2
#     Edge 18, Type (0, 0), BuildingBlock: TEMPAE_clean_linker_10, # of connection points: 2
#     Edge 19, Type (0, 0), BuildingBlock: TEMPAE_clean_linker_10, # of connection points: 2
#     Edge 20, Type (0, 0), BuildingBlock: TEMPAE_clean_linker_10, # of connection points: 2
#     Edge 21, Type (0, 0), BuildingBlock: TEMPAE_clean_linker_10, # of connection points: 2
#     Edge 22, Type (0, 0), BuildingBlock: TEMPAE_clean_linker_10, # of connection points: 2
#     Edge 23, Type (0, 0), BuildingBlock: TEMPAE_clean_linker_10, # of connection points: 2
#     Edge 24, Type (0, 0), BuildingBlock: TEMPAE_clean_linker_10, # of connection points: 2
#     Edge 25, Type (0, 0), BuildingBlock: TEMPAE_clean_linker_10, # of connection points: 2
#     Edge 26, Type (0, 0), BuildingBlock: TEMPAE_clean_linker_10, # of connection points: 2
#     Edge 27, Type (0, 0), BuildingBlock: TEMPAE_clean_linker_10, # of connection points: 2
#     Edge 28, Type (0, 0), BuildingBlock: TEMPAE_clean_linker_10, # of connection points: 2
#     Edge 29, Type (0, 0), BuildingBlock: TEMPAE_clean_linker_10, # of connection points: 2
#     Edge 30, Type (0, 0), BuildingBlock: TEMPAE_clean_linker_10, # of connection points: 2
#     Edge 31, Type (0, 0), BuildingBlock: TEMPAE_clean_linker_10, # of connection points: 2
# Relax obj value: 0.584
# Max RMSD: 0.323
# Mean RMSD: 0.270
data_MOF--net-whb--node1-KUMBUR_clean_sbu_1--edge1-TEMPAE_clean_linker_10
_symmetry_space_group_name_H-M    P1
_symmetry_Int_Tables_number       1
_symmetry_cell_setting            triclinic
loop_
_symmetry_equiv_pos_as_xyz
'x, y, z'
_cell_length_a     32.22249
_cell_length_b     32.300177
_cell_length_c     45.280508
_cell_angle_alpha  105.60795
_cell_angle_beta   89.562213
_cell_angle_gamma 102.63748
loop_
_atom_site_label
_atom_site_type_symbol
_atom_site_fract_x
_atom_site_fract_y
_atom_site_fract_z
_atom_type_partial_charge
Tb0 Tb 0.13631 0.38104 0.08747 0.0
C1 C 0.19556 0.327 0.20321 0.0
N2 N 0.18144 0.30153 0.17459 0.0
C3 C 0.23476 0.25998 0.17442 0.0
C4 C 0.23103 0.32116 0.21827 0.0
C5 C 0.19893 0.26667 0.16069 0.0
C6 C 0.25135 0.28783 0.20313 0.0
C7 C 0.18288 0.3808 0.24895 0.0
C8 C 0.1722 0.35666 0.21809 0.0
C9 C 0.21965 0.37718 0.26368 0.0
C10 C 0.24382 0.34749 0.2483 0.0
Tb11 Tb 0.12447 0.3167 0.15329 0.0
N12 N 0.13647 0.35832 0.20325 0.0
C13 C 0.15503 0.40584 0.26449 0.0
C14 C 0.10776 0.38022 0.21888 0.0
C15 C 0.11695 0.40502 0.24951 0.0
H16 H 0.18607 0.24516 0.1385 0.0
H17 H 0.09441 0.42295 0.26164 0.0
H18 H 1.04614 0.32622 0.04585 0.0
H19 H 0.29327 0.43967 0.05108 0.0
H20 H 0.07765 0.37836 0.20765 0.0
H21 H 0.16174 0.42425 0.28839 0.0
H22 H 0.23476 0.43937 0.08693 0.0
H23 H 0.24946 0.2333 0.16292 0.0
H24 H 0.22876 0.39594 0.28728 0.0
H25 H 0.27129 0.34391 0.26022 0.0
H26 H 1.02569 0.28005 -0.00707 0.0
H27 H 0.27886 0.28235 0.21384 0.0
H28 H 0.2817 0.38817 -0.00116 0.0
N29 N 0.11263 0.33972 0.03862 0.0
C30 C 0.14292 0.3361 0.01767 0.0
C31 C 0.05884 0.29541 -0.00036 0.0
C32 C 0.13255 0.31073 0.98699 0.0
C33 C 0.07062 0.32158 0.02968 0.0
C34 C 0.09001 0.28945 0.97829 0.0
N35 N 0.19193 0.38609 0.0559 0.0
C36 C 0.22979 0.41645 0.06422 0.0
C37 C 0.21609 0.35948 0.00528 0.0
C38 C 0.18412 0.35984 0.0267 0.0
C39 C 0.25621 0.38756 0.01457 0.0
C40 C 0.26284 0.41677 0.04401 0.0
H41 H 0.08076 0.26941 0.95499 0.0
H42 H 0.15749 0.28866 0.94229 0.0
H43 H 0.23069 0.33151 0.95829 0.0
O44 O 0.14036 0.42735 0.06195 0.0
O45 O 0.10445 0.31222 0.08142 0.0
O46 O 0.14152 0.2817 0.10851 0.0
O47 O 0.11174 0.43772 0.1054 0.0
O48 O 0.19867 0.36709 0.1004 0.0
O49 O 0.19351 0.33752 0.14252 0.0
O50 O 0.08832 0.2513 0.13749 0.0
O51 O 0.11328 0.38167 0.15715 0.0
O52 O 0.16643 0.41504 0.13315 0.0
O53 O 0.0927 0.28666 0.18539 0.0
O54 O 0.0614 0.32901 0.1393 0.0
O55 O 0.06796 0.36496 0.10023 0.0
C56 C 0.12589 0.28258 0.0823 0.0
C57 C 0.08448 0.4641 0.06711 0.0
C58 C 0.06064 0.51228 0.04053 0.0
C59 C 1.01908 0.48592 0.03787 0.0
C60 C 1.043 0.43776 0.06341 0.0
C61 C 1.01043 0.44899 0.04926 0.0
C62 C 0.09317 0.5013 0.05559 0.0
C63 C 0.21628 0.35275 0.12129 0.0
C64 C 0.11953 0.45175 0.08107 0.0
C65 C 0.16473 0.30837 0.96589 0.0
C66 C 0.20645 0.33265 0.97503 0.0
C67 C 0.14442 0.41534 0.15754 0.0
C68 C 0.08463 0.20988 0.17457 0.0
C69 C 0.07159 0.16625 0.21175 0.0
C70 C 0.09051 0.13442 0.19252 0.0
C71 C 0.10377 0.17781 0.1558 0.0
C72 C 0.06898 0.20402 0.20266 0.0
C73 C 0.10678 0.14042 0.16486 0.0
C74 C 1.04437 0.34623 0.11965 0.0
C75 C 0.0792 0.24896 0.16522 0.0
H76 H 0.99321 0.49382 0.02693 0.0
H77 H 1.03577 0.40824 0.07109 0.0
H78 H 0.97843 0.42869 0.04678 0.0
H79 H 0.1255 0.52083 0.05754 0.0
H80 H 0.09277 0.10498 0.19894 0.0
H81 H 0.11611 0.18141 0.13409 0.0
H82 H 1.05365 0.22833 0.21711 0.0
H83 H 0.12144 0.11576 0.15024 0.0
Tb84 Tb 0.44274 0.19818 0.60879 0.0
C85 C 0.29765 0.06167 0.5106 0.0
N86 N 0.34006 0.07658 0.50929 0.0
C87 C 0.34574 1.00482 0.47883 0.0
C88 C 0.27749 1.01727 0.49684 0.0
C89 C 0.36424 0.0492 0.49302 0.0
C90 C 0.30223 0.98864 0.48104 0.0
C91 C 0.22957 0.07905 0.5238 0.0
C92 C 0.27422 0.09203 0.52373 0.0
C93 C 0.20934 1.03428 0.51216 0.0
C94 C 0.23327 1.00343 0.49851 0.0
Tb95 Tb 0.36818 0.14864 0.53511 0.0
N96 N 0.29498 0.13495 0.53396 0.0
C97 C 0.20657 0.11165 0.53429 0.0
C98 C 0.27222 0.1672 0.54126 0.0
C99 C 0.22793 0.15604 0.54242 0.0
H100 H 0.39796 0.06161 0.4915 0.0
H101 H 0.2105 0.18178 0.54958 0.0
H102 H 0.39734 0.15939 0.66515 0.0
H103 H 0.53526 0.35922 0.60984 0.0
H104 H 0.28838 0.20164 0.54727 0.0
H105 H 0.1723 0.1028 0.53497 0.0
H106 H 0.50523 0.27944 0.58777 0.0
H107 H 0.36507 0.9831 0.46636 0.0
H108 H 0.17508 1.02353 0.51242 0.0
H109 H 0.21715 0.96931 0.48851 0.0
H110 H 0.37969 0.1896 0.7186 0.0
H111 H 0.28796 0.95427 0.47006 0.0
H112 H 0.51699 0.39701 0.66185 0.0
N113 N 0.42356 0.2225 0.65829 0.0
C114 C 0.43605 0.2665 0.67179 0.0
C115 C 0.39492 0.21165 0.70551 0.0
C116 C 0.42741 0.28509 0.70248 0.0
C117 C 0.40459 0.19474 0.67508 0.0
C118 C 0.40576 0.25709 0.71914 0.0
N119 N 0.46895 0.27269 0.62634 0.0
C120 C 0.49672 0.29579 0.61032 0.0
C121 C 0.47676 0.33777 0.66903 0.0
C122 C 0.46022 0.29245 0.6554 0.0
C123 C 0.50355 0.36211 0.65219 0.0
C124 C 0.51389 0.3409 0.62281 0.0
H125 H 0.39857 0.27002 0.7428 0.0
H126 H 0.43562 0.34559 0.73936 0.0
H127 H 0.47893 0.39179 0.71001 0.0
O128 O 0.50471 0.18846 0.59879 0.0
O129 O 0.41428 0.25217 0.59879 0.0
O130 O 0.36994 0.22203 0.55432 0.0
O131 O 0.48198 0.19298 0.64373 0.0
O132 O 0.46414 0.20105 0.56287 0.0
O133 O 0.43233 0.13432 0.5339 0.0
O134 O 0.35526 0.13283 0.48778 0.0
O135 O 0.37795 0.0936 0.55407 0.0
O136 O 0.41852 0.12288 0.6003 0.0
O137 O 0.39718 0.19451 0.51097 0.0
O138 O 0.33789 0.17408 0.57749 0.0
O139 O 0.3793 0.16139 0.61323 0.0
C140 C 0.3886 0.25697 0.57737 0.0
C141 C 0.55268 0.22941 0.64162 0.0
C142 C 0.59294 0.27606 0.68885 0.0
C143 C 0.617 0.30254 0.67192 0.0
C144 C 0.57751 0.25581 0.62495 0.0
C145 C 0.60939 0.29221 0.64011 0.0
C146 C 0.56138 0.23924 0.6733 0.0
C147 C 0.46704 0.1654 0.54154 0.0
C148 C 0.51523 0.19405 0.62744 0.0
C149 C 0.44215 0.33063 0.71587 0.0
C150 C 0.46687 0.35692 0.69918 0.0
C151 C 0.39554 0.08789 0.57878 0.0
C152 C 0.34375 0.19492 0.47481 0.0
C153 C 0.27017 0.19743 0.46293 0.0
C154 C 0.28568 0.23812 0.45647 0.0
C155 C 0.35854 0.23547 0.46833 0.0
C156 C 0.29969 0.17639 0.47187 0.0
C157 C 0.32957 0.25684 0.4591 0.0
C158 C 0.34381 0.1688 0.60459 0.0
C159 C 0.37291 0.1723 0.48631 0.0
H160 H 0.64164 0.33104 0.6832 0.0
H161 H 0.57177 0.24904 0.60044 0.0
H162 H 0.62804 0.3127 0.62717 0.0
H163 H 0.54325 0.2178 0.68589 0.0
H164 H 0.26412 0.2554 0.44929 0.0
H165 H 0.39224 0.25073 0.47067 0.0
H166 H 0.28801 0.14572 0.4776 0.0
H167 H 0.34114 0.28823 0.45419 0.0
Tb168 Tb 0.61717 0.31561 0.14306 0.0
C169 C 0.70944 0.4023 0.04067 0.0
N170 N 0.70571 0.41778 0.07126 0.0
C171 C 0.7777 0.46035 0.07677 0.0
C172 C 0.74798 0.41398 0.0269 0.0
C173 C 0.7384 0.44843 0.08918 0.0
C174 C 0.78275 0.44244 0.04556 0.0
C175 C 0.67389 0.36546 0.99068 0.0
C176 C 0.67323 0.37811 0.02294 0.0
C177 C 0.71274 0.37446 0.97675 0.0
C178 C 0.74982 0.39858 -0.00513 0.0
Tb179 Tb 0.64157 0.39295 0.08985 0.0
N180 N 0.63641 0.37105 0.03734 0.0
C181 C 0.63521 0.3463 0.97347 0.0
C182 C 0.59827 0.35496 0.02071 0.0
C183 C 0.59714 0.3418 0.98856 0.0
H184 H 0.73458 0.46246 0.11328 0.0
H185 H 0.56697 0.32814 0.97548 0.0
H186 H 0.56311 0.36496 0.19922 0.0
H187 H 0.72161 0.20631 0.14324 0.0
H188 H 0.56879 0.35163 0.03235 0.0
H189 H 0.63428 0.33623 0.9486 0.0
H190 H 0.67117 0.23774 0.12019 0.0
H191 H 0.80397 0.48345 0.09122 0.0
H192 H 0.71413 0.36443 0.95199 0.0
H193 H 0.77926 0.40673 0.98382 0.0
H194 H 0.5677 0.38758 0.25591 0.0
H195 H 0.81305 0.4521 0.03593 0.0
H196 H 0.73633 0.22905 0.19962 0.0
N197 N 0.61521 0.33348 0.1955 0.0
C198 C 0.64339 0.32008 0.21074 0.0
C199 C 0.58939 0.36875 0.24348 0.0
C200 C 0.6469 0.33162 0.24306 0.0
C201 C 0.58696 0.35593 0.21131 0.0
C202 C 0.62005 0.35723 0.25945 0.0
N203 N 0.65951 0.28008 0.16279 0.0
C204 C 0.67766 0.2483 0.14474 0.0
C205 C 0.69409 0.27424 0.20802 0.0
C206 C 0.66643 0.29205 0.19365 0.0
C207 C 0.71463 0.24344 0.18956 0.0
C208 C 0.70614 0.23025 0.15776 0.0
H209 H 0.6218 0.36706 0.28433 0.0
H210 H 0.67949 0.32467 0.28259 0.0
H211 H 0.72083 0.27408 0.2518 0.0
O212 O 0.57562 0.26264 0.15407 0.0
O213 O 0.62247 0.38621 0.16203 0.0
O214 O 0.67468 0.41724 0.13614 0.0
O215 O 0.5664 0.27796 0.11141 0.0
O216 O 0.6885 0.33157 0.13601 0.0
O217 O 0.70113 0.37069 0.09892 0.0
O218 O 0.62157 0.44904 0.11675 0.0
O219 O 0.61159 0.32277 0.0692 0.0
O220 O 0.64258 0.28968 0.09848 0.0
O221 O 0.62966 0.43929 0.0683 0.0
O222 O 0.57165 0.36494 0.0941 0.0
O223 O 0.56917 0.35641 0.14278 0.0
C224 C 0.65866 0.41402 0.16243 0.0
C225 C 0.54428 0.2034 0.11087 0.0
C226 C 0.5548 0.12909 0.10388 0.0
C227 C 0.5228 0.11276 0.08023 0.0
C228 C 0.51294 0.18698 0.08665 0.0
C229 C 0.50242 0.14189 0.07135 0.0
C230 C 0.56535 0.1743 0.11908 0.0
C231 C 0.71498 0.35049 0.11787 0.0
C232 C 0.55384 0.25055 0.12776 0.0
C233 C 0.67593 0.31585 0.25776 0.0
C234 C 0.69945 0.28705 0.24024 0.0
C235 C 0.6282 0.28998 0.07157 0.0
C236 C 0.64147 0.51285 0.0974 0.0
C237 C 0.65039 0.57818 0.07788 0.0
C238 C 0.68247 0.6005 0.10115 0.0
C239 C 0.67365 0.53586 0.12027 0.0
C240 C 0.62981 0.53427 0.07641 0.0
C241 C 0.69382 0.57952 0.12216 0.0
C242 C 0.54959 0.36141 0.11866 0.0
C243 C 0.62122 0.46581 0.09348 0.0
H244 H 0.51403 0.07784 0.06857 0.0
H245 H 0.49636 0.20898 0.07979 0.0
H246 H 0.4781 0.12944 0.0528 0.0
H247 H 0.58947 0.18657 0.13782 0.0
H248 H 0.69865 0.63438 0.10327 0.0
H249 H 0.68351 0.52004 0.13643 0.0
H250 H 0.60551 0.51621 0.05835 0.0
H251 H 0.71862 0.59713 0.13988 0.0
Tb252 Tb 0.3529 0.66015 0.55035 0.0
C253 C 0.27774 0.73108 0.67657 0.0
N254 N 0.29269 0.69403 0.66534 0.0
C255 C 0.32131 0.70081 0.71567 0.0
C256 C 0.28497 0.75522 0.70774 0.0
C257 C 0.31243 0.67748 0.68471 0.0
C258 C 0.30801 0.74019 0.72715 0.0
C259 C 0.23131 0.77739 0.66879 0.0
C260 C 0.25152 0.74219 0.6574 0.0
C261 C 0.2403 0.80318 0.69936 0.0
C262 C 0.2672 0.79217 0.7188 0.0
Tb263 Tb 0.27826 0.66013 0.61395 0.0
N264 N 0.24318 0.71613 0.62814 0.0
C265 C 0.20119 0.78422 0.64954 0.0
C266 C 0.21132 0.72037 0.61017 0.0
C267 C 0.19058 0.75504 0.6203 0.0
H268 H 0.32142 0.6462 0.6763 0.0
H269 H 0.1661 0.75892 0.60569 0.0
H270 H 0.37742 0.74394 0.51942 0.0
H271 H 0.23446 0.50464 0.50824 0.0
H272 H 0.2021 0.69722 0.588 0.0
H273 H 0.18476 0.81076 0.65747 0.0
H274 H 0.27516 0.56659 0.54789 0.0
H275 H 0.33789 0.6881 0.73073 0.0
H276 H 0.22545 0.83067 0.70849 0.0
H277 H 0.27269 0.81138 0.74262 0.0
H278 H 0.37367 0.75552 0.4679 0.0
H279 H 0.31412 0.75772 0.75127 0.0
H280 H 0.23728 0.50512 0.45385 0.0
N281 N 0.3478 0.67559 0.50437 0.0
C282 C 0.32752 0.64168 0.48073 0.0
C283 C 0.36087 0.72324 0.47112 0.0
C284 C 0.32437 0.6469 0.45093 0.0
C285 C 0.3629 0.71656 0.50027 0.0
C286 C 0.34215 0.68806 0.44621 0.0
N287 N 0.30627 0.60144 0.5169 0.0
C288 C 0.27953 0.56696 0.52447 0.0
C289 C 0.28154 0.56867 0.4636 0.0
C290 C 0.30623 0.60317 0.48714 0.0
C291 C 0.25674 0.53218 0.47123 0.0
C292 C 0.25514 0.53177 0.50188 0.0
H293 H 0.3403 0.6934 0.42368 0.0
H294 H 0.29964 0.61484 0.40404 0.0
H295 H 0.26223 0.5462 0.41511 0.0
O296 O 0.4118 0.68939 0.53595 0.0
O297 O 0.29225 0.67706 0.53859 0.0
O298 O 0.25054 0.63848 0.56683 0.0
O299 O 0.40012 0.62338 0.53952 0.0
O300 O 0.34962 0.59826 0.56566 0.0
O301 O 0.30969 0.60111 0.60855 0.0
O302 O 0.23493 0.63755 0.64423 0.0
O303 O 0.34288 0.65928 0.62674 0.0
O304 O 0.37796 0.70013 0.5974 0.0
O305 O 0.22769 0.60584 0.59565 0.0
O306 O 0.29666 0.72882 0.60299 0.0
O307 O 0.35575 0.7304 0.57351 0.0
C308 C 0.25381 0.66017 0.54602 0.0
C309 C 0.46573 0.66916 0.56019 0.0
C310 C 0.52314 0.64634 0.58185 0.0
C311 C 0.53035 0.68541 0.60596 0.0
C312 C 0.47383 0.70855 0.58422 0.0
C313 C 0.5056 0.71625 0.60714 0.0
C314 C 0.49042 0.6383 0.55928 0.0
C315 C 0.33337 0.57999 0.58758 0.0
C316 C 0.42897 0.65759 0.53797 0.0
C317 C 0.30198 0.61164 0.42715 0.0
C318 C 0.28068 0.57255 0.43346 0.0
C319 C 0.37551 0.68885 0.62318 0.0
C320 C 0.16434 0.6083 0.62206 0.0
C321 C 0.10361 0.63323 0.6473 0.0
C322 C 0.07719 0.60883 0.62117 0.0
C323 C 0.13715 0.58279 0.59644 0.0
C324 C 0.14708 0.63294 0.64764 0.0
C325 C 0.09392 0.58336 0.59596 0.0
C326 C 0.32819 0.75127 0.58943 0.0
C327 C 0.21032 0.6087 0.622 0.0
H328 H 0.5558 0.69253 0.62331 0.0
H329 H 0.45534 0.73317 0.58561 0.0
H330 H 0.51138 0.74645 0.62566 0.0
H331 H 0.48487 0.60848 0.54035 0.0
H332 H 1.04366 0.60913 0.62046 0.0
H333 H 0.14934 0.56252 0.57673 0.0
H334 H 0.16745 0.65265 0.6677 0.0
H335 H 0.07332 0.564 0.57601 0.0
Tb336 Tb 0.5719 0.90343 0.89418 0.0
C337 C 0.56015 0.9458 0.76196 0.0
N338 N 0.59016 0.93786 0.77912 0.0
C339 C 0.6162 0.89635 0.73338 0.0
C340 C 0.55603 0.92843 0.72981 0.0
C341 C 0.61927 0.91498 0.76524 0.0
C342 C 0.584 0.90251 0.71561 0.0
C343 C 0.50669 0.98718 0.75987 0.0
C344 C 0.53608 0.97459 0.77662 0.0
C345 C 0.50058 0.96827 0.72796 0.0
C346 C 0.52539 0.93905 0.71292 0.0
Tb347 Tb 0.59028 0.9664 0.83122 0.0
N348 N 0.54413 0.99295 0.80714 0.0
C349 C 0.48579 1.01967 0.77555 0.0
C350 C 0.52598 1.02669 0.82224 0.0
C351 C 0.49597 0.03998 0.80682 0.0
H352 H 0.64444 0.91024 0.7787 0.0
H353 H 0.48086 0.06596 0.81901 0.0
H354 H 0.4814 0.82866 0.88108 0.0
H355 H 0.64652 1.01356 0.00195 0.0
H356 H 0.5339 0.04259 0.84637 0.0
H357 H 0.46288 1.0303 0.76358 0.0
H358 H 0.64556 0.9659 0.94896 0.0
H359 H 0.63868 0.87728 0.72257 0.0
H360 H 0.47789 0.97716 0.71462 0.0
H361 H 0.5215 0.92589 0.68818 0.0
H362 H 0.41293 0.81531 0.90614 0.0
H363 H 0.58184 0.88832 0.69095 0.0
H364 H 0.57922 1.01522 0.02857 0.0
N365 N 0.50961 0.88534 0.91701 0.0
C366 C 0.50583 0.91108 0.94546 0.0
C367 C 0.43877 0.84252 0.91741 0.0
C368 C 0.46769 0.90491 0.96071 0.0
C369 C 0.47754 0.84995 0.90336 0.0
C370 C 0.43356 0.87059 0.946 0.0
N371 N 0.57809 0.94309 0.94499 0.0
C372 C 0.61597 0.96667 0.96031 0.0
C373 C 0.54048 0.96729 0.99037 0.0
C374 C 0.54149 0.94153 0.95996 0.0
C375 C 0.57859 0.99461 0.00525 0.0
C376 C 0.61665 0.99363 0.99033 0.0
H377 H 0.40357 0.86475 0.95686 0.0
H378 H 0.43629 0.92853 0.0024 0.0
H379 H 0.50021 0.9834 0.02844 0.0
O380 O 0.59367 0.84575 0.87386 0.0
O381 O 0.6062 0.9722 0.90275 0.0
O382 O 0.56712 0.999 0.87502 0.0
O383 O 0.58439 0.86492 0.9224 0.0
O384 O 0.64097 0.93084 0.88693 0.0
O385 O 0.64057 0.92904 0.83585 0.0
O386 O 0.62627 1.01718 0.81445 0.0
O387 O 0.58749 0.89592 0.81954 0.0
O388 O 0.53721 0.8698 0.84888 0.0
O389 O 0.64325 1.00943 0.85824 0.0
O390 O 0.51986 0.95184 0.84108 0.0
O391 O 0.51049 0.91993 0.88206 0.0
C392 C 0.58546 1.00222 0.90136 0.0
C393 C 0.57426 0.78858 0.89915 0.0
C394 C 0.57013 0.72616 0.92124 0.0
C395 C 0.53805 0.70092 0.89861 0.0
C396 C 0.54214 0.76257 0.87695 0.0
C397 C 0.5242 0.71905 0.87677 0.0
C398 C 0.58796 0.77029 0.92139 0.0
C399 C 0.66174 0.9294 0.86119 0.0
C400 C 0.59378 0.83475 0.89963 0.0
C401 C 0.46549 0.93223 0.99038 0.0
C402 C 0.50187 0.96349 0.0052 0.0
C403 C 0.5521 0.86838 0.82158 0.0
C404 C 0.65881 0.08211 0.85387 0.0
C405 C 0.65523 0.15602 0.8514 0.0
C406 C 0.68242 0.17416 0.8781 0.0
C407 C 0.6864 0.10107 0.88018 0.0
C408 C 0.64219 0.10969 0.8403 0.0
C409 C 0.69731 0.14674 0.89257 0.0
C410 C 0.49495 0.93618 0.86135 0.0
C411 C 0.65074 1.03404 0.83956 0.0
H412 H 0.52319 0.66719 0.89803 0.0
H413 H 0.53088 0.77584 0.85976 0.0
H414 H 0.49936 0.69924 0.85961 0.0
H415 H 0.6129 0.79024 0.93848 0.0
H416 H 0.69367 0.20947 0.88723 0.0
H417 H 0.70011 0.08056 0.89089 0.0
H418 H 0.62008 0.09495 0.82047 0.0
H419 H 0.71869 0.16103 0.91283 0.0
Tb420 Tb 0.9309 0.61612 0.36279 0.0
C421 C 0.85696 0.59063 0.49107 0.0
N422 N 0.83934 0.57967 0.46224 0.0
C423 C 0.79344 0.51516 0.47081 0.0
C424 C 0.84482 0.56341 0.51074 0.0
C425 C 0.8062 0.54384 0.45246 0.0
C426 C 0.81335 0.52459 0.49992 0.0
C427 C 0.89995 0.64669 0.5325 0.0
C428 C 0.88379 0.63148 0.50171 0.0
C429 C 0.8906 0.61858 0.55175 0.0
C430 C 0.86296 0.57695 0.54088 0.0
Tb431 Tb 0.86515 0.62547 0.43244 0.0
N432 N 0.89059 0.65785 0.48258 0.0
C433 C 0.92318 0.69028 0.54332 0.0
C434 C 0.91055 0.70143 0.49373 0.0
C435 C 0.92779 0.718 0.524 0.0
H436 H 0.79049 0.53689 0.43007 0.0
H437 H 0.94462 0.75216 0.53239 0.0
H438 H 0.88571 0.66187 0.31801 0.0
H439 H 1.02138 0.49014 0.33074 0.0
H440 H 0.91451 0.72334 0.47917 0.0
H441 H 0.93626 0.70329 0.56681 0.0
H442 H 0.999 0.55405 0.36487 0.0
H443 H 0.76813 0.48599 0.46256 0.0
H444 H 0.90312 0.6294 0.57539 0.0
H445 H 0.85455 0.55629 0.55629 0.0
H446 H 0.8592 0.64334 0.26418 0.0
H447 H 0.80305 0.50269 0.51427 0.0
H448 H 0.99032 0.45875 0.27744 0.0
N449 N 0.90673 0.60225 0.31265 0.0
C450 C 0.91353 0.56536 0.2924 0.0
C451 C 0.87411 0.62084 0.27185 0.0
C452 C 0.89977 0.55379 0.26118 0.0
C453 C 0.88902 0.63108 0.30249 0.0
C454 C 0.87894 0.58168 0.25118 0.0
N455 N 0.95433 0.55771 0.33194 0.0
C456 C 0.985 0.54046 0.34183 0.0
C457 C 0.95066 0.50604 0.28191 0.0
C458 C 0.93849 0.54208 0.30249 0.0
C459 C 0.98001 0.48645 0.29251 0.0
C460 C 0.99773 0.50419 0.32252 0.0
H461 H 0.86809 0.57427 0.22735 0.0
H462 H 0.89884 0.50654 0.21674 0.0
H463 H 0.94343 0.46447 0.23499 0.0
O464 O 0.97937 0.64184 0.33746 0.0
O465 O 0.86447 0.61788 0.35887 0.0
O466 O 0.83602 0.57586 0.38893 0.0
O467 O 0.97863 0.67123 0.38618 0.0
O468 O 0.91271 0.54749 0.37293 0.0
O469 O 0.87372 0.55535 0.41686 0.0
O470 O 0.82214 0.65145 0.41206 0.0
O471 O 0.9356 0.64889 0.44242 0.0
O472 O 0.95861 0.60195 0.40239 0.0
O473 O 0.81235 0.64103 0.4569 0.0
O474 O 0.89412 0.69234 0.42526 0.0
O475 O 0.90014 0.6763 0.37334 0.0
C476 C 0.83589 0.58451 0.36219 0.0
C477 C 1.04637 0.67067 0.3646 0.0
C478 C 0.11034 0.65008 0.34155 0.0
C479 C 0.13327 0.67044 0.36983 0.0
C480 C 0.07009 0.69203 0.39252 0.0
C481 C 0.11327 0.69181 0.39504 0.0
C482 C 0.06707 0.65046 0.33909 0.0
C483 C 0.89159 0.53004 0.39437 0.0
C484 C 1.00048 0.66996 0.36169 0.0
C485 C 0.90942 0.51627 0.24078 0.0
C486 C 0.93482 0.49233 0.25116 0.0
C487 C 0.96512 0.62761 0.43062 0.0
C488 C 0.75242 0.61859 0.42166 0.0
C489 C 0.68856 0.56769 0.43036 0.0
C490 C 0.67523 0.5576 0.3993 0.0
C491 C 0.73832 0.60858 0.39066 0.0
C492 C 0.72705 0.5982 0.44134 0.0
C493 C 0.70016 0.57794 0.37955 0.0
C494 C 0.89527 0.70559 0.39977 0.0
C495 C 0.79486 0.64721 0.43298 0.0
H496 H 0.16658 0.67004 0.37231 0.0
H497 H 1.05523 0.70852 0.41245 0.0
H498 H 0.13116 0.70804 0.41667 0.0
H499 H 1.04936 0.63395 0.3173 0.0
H500 H 0.6453 0.5346 0.39052 0.0
H501 H 0.75702 0.62391 0.37488 0.0
H502 H 0.73691 0.6066 0.46547 0.0
H503 H 0.68979 0.57015 0.35561 0.0
Tb504 Tb 0.0882 0.9773 0.83374 0.0
C505 C 0.07349 0.95999 0.96456 0.0
N506 N 0.10103 0.94583 0.9435 0.0
C507 C 0.15881 0.976 0.98181 0.0
C508 C 0.08784 0.98498 -0.00524 0.0
C509 C 0.14306 0.95191 0.95198 0.0
C510 C 0.13122 0.99342 0.00312 0.0
C511 C 1.00044 0.95566 0.97861 0.0
C512 C 1.03053 0.94531 0.95663 0.0
C513 C 1.01446 0.98413 0.00785 0.0
C514 C 0.05817 0.99856 0.01599 0.0
Tb515 Tb 0.07227 0.90665 0.89541 0.0
N516 N 1.01856 0.9162 0.92872 0.0
C517 C 0.95755 0.9346 0.97128 0.0
C518 C 0.97765 0.89138 0.92328 0.0
C519 C 0.94628 0.90138 0.9438 0.0
H520 H 0.16481 0.93936 0.93559 0.0
H521 H 0.91361 0.88294 0.93866 0.0
H522 H 1.03401 0.05509 0.84613 0.0
H523 H 0.1111 0.86729 0.72449 0.0
H524 H 0.969 0.86416 0.90279 0.0
H525 H 0.93339 0.94167 0.98746 0.0
H526 H 0.13247 0.91547 0.77699 0.0
H527 H 0.19227 0.98155 0.98822 0.0
H528 H 0.99183 0.99307 0.02489 0.0
H529 H 0.0686 1.01848 0.03915 0.0
H530 H 0.97114 0.06919 0.82249 0.0
H531 H 0.1435 1.01219 0.02617 0.0
H532 H 1.0406 0.86277 0.70075 0.0
N533 N 1.03265 0.99468 0.81228 0.0
C534 C 1.01521 0.96707 0.78507 0.0
C535 C 0.98308 0.04019 0.81178 0.0
C536 C 0.97964 0.97368 0.7706 0.0
C537 C 1.01874 1.03236 0.82498 0.0
C538 C 0.96283 1.01017 0.7848 0.0
N539 N 0.07305 0.93418 0.78402 0.0
C540 C 0.10112 0.9125 0.76715 0.0
C541 C 1.02297 0.90932 0.74019 0.0
C542 C 1.03624 0.93528 0.77033 0.0
C543 C 1.04944 0.88299 0.72405 0.0
C544 C 0.08927 0.88555 0.73731 0.0
H545 H 0.93544 1.01645 0.77449 0.0
H546 H 0.93602 0.94924 0.73033 0.0
H547 H 0.97427 0.89287 0.70351 0.0
O548 O 0.12684 0.0418 0.84998 0.0
O549 O 0.09783 0.91083 0.82661 0.0
O550 O 1.04341 0.87703 0.84926 0.0
O551 O 0.12061 1.00734 0.80202 0.0
O552 O 0.1506 0.96532 0.84905 0.0
O553 O 0.14025 0.91749 0.88065 0.0
O554 O 0.06008 0.85915 0.92054 0.0
O555 O 0.10763 0.97579 0.90529 0.0
O556 O 0.07005 1.00749 0.87923 0.0
O557 O 0.09404 0.8481 0.87946 0.0
O558 O 1.01006 0.91038 0.87382 0.0
O559 O 1.0214 0.9683 0.85101 0.0
C560 C 0.06726 0.87656 0.8259 0.0
C561 C 0.13553 0.08435 0.8133 0.0
C562 C 0.15646 0.12813 0.77678 0.0
C563 C 0.13577 0.1601 0.79402 0.0
C564 C 0.11547 0.11683 0.83033 0.0
C565 C 0.11545 0.15437 0.82055 0.0
C566 C 0.15575 0.09018 0.78661 0.0
C567 C 0.16573 0.94172 0.865 0.0
C568 C 0.13668 0.04403 0.82241 0.0
C569 C 0.96372 0.94521 0.74171 0.0
C570 C 0.98545 0.91304 0.72647 0.0
C571 C 0.08981 1.00829 0.90442 0.0
C572 C 0.11365 0.81909 0.91862 0.0
C573 C 0.13147 0.7685 0.94572 0.0
C574 C 0.17457 0.79055 0.94745 0.0
C575 C 0.15693 0.84015 0.9205 0.0
C576 C 0.10101 0.78332 0.93139 0.0
C577 C 0.18709 0.82604 0.93491 0.0
C578 C 0.99527 0.93897 0.86249 0.0
C579 C 0.08172 0.83376 0.90302 0.0
H580 H 0.13604 0.18998 0.78742 0.0
H581 H 0.09996 0.11332 0.8511 0.0
H582 H 0.09994 0.17938 0.83376 0.0
H583 H 0.17085 0.06476 0.77338 0.0
H584 H 0.19867 0.78054 0.95874 0.0
H585 H 0.16754 0.86737 0.91069 0.0
H586 H 0.0677 0.76658 0.92961 0.0
H587 H 0.22037 0.84264 0.93629 0.0
Tb588 Tb 0.85847 0.13285 0.45267 0.0
C589 C 0.78799 0.98904 0.3444 0.0
N590 N 0.81133 1.03062 0.34668 0.0
C591 C 0.85475 1.00109 0.30659 0.0
C592 C 0.79804 0.95186 0.32363 0.0
C593 C 0.84333 1.03705 0.32723 0.0
C594 C 0.83229 0.95832 0.30496 0.0
C595 C 0.72895 0.94117 0.36134 0.0
C596 C 0.75382 0.98356 0.36313 0.0
C597 C 0.73895 0.90418 0.34064 0.0
C598 C 0.77351 0.90949 0.32197 0.0
Tb599 Tb 0.7871 0.08539 0.38102 0.0
N600 N 0.74678 1.01978 0.38452 0.0
C601 C 0.69551 0.93716 0.38106 0.0
C602 C 0.71341 1.01627 0.40314 0.0
C603 C 0.68759 0.97489 0.40191 0.0
H604 H 0.85935 0.0696 0.32642 0.0
H605 H 0.66146 0.97212 0.41695 0.0
H606 H 0.79906 0.19269 0.49799 0.0
H607 H 1.02896 0.16393 0.44104 0.0
H608 H 0.70648 0.04532 0.41872 0.0
H609 H 0.67568 0.90513 0.38041 0.0
H610 H 0.95667 0.11716 0.43799 0.0
H611 H 0.88039 1.00648 0.2915 0.0
H612 H 0.72046 0.87128 0.33913 0.0
H613 H 0.78092 0.88058 0.30622 0.0
H614 H 0.80724 0.26949 0.52967 0.0
H615 H 0.84107 0.9306 0.28876 0.0
H616 H 1.04203 0.2442 0.46577 0.0
N617 N 0.86251 0.20275 0.48332 0.0
C618 C 0.90131 0.23094 0.48666 0.0
C619 C 0.83388 0.25914 0.51749 0.0
C620 C 0.90757 0.27503 0.50466 0.0
C621 C 0.82928 0.21564 0.4994 0.0
C622 C 0.87304 0.28913 0.51985 0.0
N623 N 0.92808 0.17113 0.45794 0.0
C624 C 0.96162 0.1524 0.44791 0.0
C625 C 0.97619 0.24236 0.47642 0.0
C626 C 0.93509 0.21474 0.47293 0.0
C627 C 1.01005 0.22397 0.46393 0.0
C628 C 1.0028 0.17866 0.45 0.0
H629 H 0.87649 0.32278 0.53388 0.0
H630 H 0.95345 0.33744 0.52056 0.0
H631 H 1.0136 0.30885 0.49569 0.0
O632 O 0.88912 0.14018 0.49494 0.0
O633 O 0.84088 0.1885 0.43718 0.0
O634 O 0.81544 0.15898 0.38656 0.0
O635 O 0.83582 0.08574 0.47702 0.0
O636 O 0.89151 0.11406 0.40971 0.0
O637 O 0.84853 0.12137 0.37233 0.0
O638 O 0.72505 0.09006 0.37111 0.0
O639 O 0.80358 0.03986 0.40862 0.0
O640 O 0.87203 0.06844 0.42455 0.0
O641 O 0.76729 0.074 0.33491 0.0
O642 O 0.75638 0.12474 0.41756 0.0
O643 O 0.78834 0.11855 0.46032 0.0
C644 C 0.83099 0.19442 0.41027 0.0
C645 C 0.89638 0.07043 0.49761 0.0
C646 C 0.96692 0.05453 0.49108 0.0
C647 C 0.94915 1.00965 0.48725 0.0
C648 C 0.87883 1.02551 0.49435 0.0
C649 C 0.90527 0.99543 0.48965 0.0
C650 C 0.94078 0.08469 0.49737 0.0
C651 C 0.88634 0.12405 0.38393 0.0
C652 C 0.86899 0.10129 0.49642 0.0
C653 C 0.94809 0.30325 0.5072 0.0
C654 C 0.98232 0.28698 0.49299 0.0
C655 C 0.84165 1.03235 0.41401 0.0
C656 C 0.72082 0.11716 0.32839 0.0
C657 C 0.69471 0.1336 0.2836 0.0
C658 C 0.70918 0.17903 0.29822 0.0
C659 C 0.73368 0.16241 0.34311 0.0
C660 C 0.70052 0.10297 0.29918 0.0
C661 C 0.72792 0.19321 0.32797 0.0
C662 C 0.75564 0.12575 0.44652 0.0
C663 C 0.73099 0.08416 0.342 0.0
H664 H 0.969 0.98582 0.48214 0.0
H665 H 0.84469 1.01347 0.49428 0.0
H666 H 0.89145 0.9608 0.48662 0.0
H667 H 0.95525 0.11919 0.50006 0.0
H668 H 0.70644 0.20372 0.28669 0.0
H669 H 0.74854 0.17394 0.36604 0.0
H670 H 0.68946 0.06786 0.28871 0.0
H671 H 0.73854 0.22813 0.33913 0.0
C672 C 0.95892 0.11817 0.36396 0.0
C673 C 0.92255 0.13556 0.36503 0.0
C674 C 0.98906 0.12345 0.34167 0.0
C675 C 0.98264 0.14699 0.32034 0.0
C676 C 0.94706 0.1665 0.32262 0.0
C677 C 0.91783 0.16083 0.34498 0.0
C678 C 1.02721 0.10325 0.34086 0.0
C679 C 0.93835 0.19134 0.30027 0.0
C680 C 0.06388 0.19139 0.26862 0.0
C681 C 1.05257 0.15915 0.24049 0.0
C682 C 1.04372 0.18625 0.29551 0.0
C683 C 1.01052 0.14873 0.29398 0.0
C684 C 1.00017 0.11534 0.26581 0.0
C685 C 1.02163 0.12076 0.2395 0.0
C686 C 0.05695 0.22155 0.32536 0.0
C687 C 0.96497 0.07483 0.26316 0.0
H688 H 0.96282 0.09872 0.37944 0.0
H689 H 0.89009 0.17496 0.34598 0.0
H690 H 1.03716 0.09143 0.31714 0.0
H691 H 1.05431 0.12867 0.35429 0.0
H692 H 1.02072 0.07516 0.35125 0.0
H693 H 0.90992 0.20565 0.30581 0.0
H694 H 0.96618 0.21846 0.3002 0.0
H695 H 0.9331 0.16874 0.27667 0.0
H696 H 0.08828 0.22081 0.2695 0.0
H697 H 1.01287 0.0958 0.21776 0.0
H698 H 0.06222 0.20633 0.34386 0.0
H699 H 1.03115 0.23941 0.33225 0.0
H700 H 0.08648 0.24586 0.32359 0.0
H701 H 0.97067 0.05815 0.28071 0.0
H702 H 0.96227 0.05086 0.2401 0.0
H703 H 0.93408 0.08466 0.26761 0.0
C704 C 0.64422 0.29249 0.73394 0.0
C705 C 0.60211 0.28369 0.72221 0.0
C706 C 0.65292 0.28522 0.7622 0.0
C707 C 0.61878 0.26736 0.77822 0.0
C708 C 0.57642 0.26519 0.76885 0.0
C709 C 0.56863 0.27422 0.74111 0.0
C710 C 0.69861 0.29082 0.7727 0.0
C711 C 0.53901 0.24703 0.78546 0.0
C712 C 0.63918 0.16945 0.80126 0.0
C713 C 0.64372 0.18478 0.83341 0.0
C714 C 0.62959 0.19567 0.78348 0.0
C715 C 0.62655 0.23952 0.79792 0.0
C716 C 0.63146 0.25575 0.83029 0.0
C717 C 0.63939 0.22794 0.84771 0.0
C718 C 0.62351 0.17637 0.749 0.0
C719 C 0.6301 0.30277 0.84655 0.0
H720 H 0.67041 0.30084 0.71989 0.0
H721 H 0.53599 0.26951 0.73277 0.0
H722 H 0.70276 0.30254 0.79812 0.0
H723 H 0.70773 0.25853 0.76523 0.0
H724 H 0.72056 0.3145 0.7627 0.0
H725 H 0.50944 0.25595 0.77934 0.0
H726 H 0.53347 0.21049 0.77897 0.0
H727 H 0.54539 0.25915 0.8107 0.0
H728 H 0.64406 0.13706 0.7896 0.0
H729 H 0.6425 0.24029 0.87251 0.0
H730 H 0.6499 0.19337 0.73764 0.0
H731 H 0.59326 0.18125 0.74043 0.0
H732 H 0.62282 0.1405 0.74183 0.0
H733 H 0.6617 0.32444 0.84563 0.0
H734 H 0.62301 0.30672 0.87107 0.0
H735 H 0.60616 0.31444 0.83536 0.0
C736 C 0.79335 0.57755 0.31412 0.0
C737 C 0.80561 0.55725 0.33541 0.0
C738 C 0.76919 0.55301 0.28668 0.0
C739 C 0.75606 0.50645 0.27998 0.0
C740 C 0.7673 0.48566 0.30181 0.0
C741 C 0.79169 0.51123 0.32925 0.0
C742 C 0.75846 0.57705 0.26447 0.0
C743 C 0.75478 0.43618 0.29563 0.0
C744 C 0.66285 0.45077 0.2196 0.0
C745 C 0.68362 0.43756 0.19241 0.0
C746 C 0.68578 0.4719 0.24817 0.0
C747 C 0.73097 0.48008 0.25005 0.0
C748 C 0.752 0.46577 0.22267 0.0
C749 C 0.72826 0.44547 0.19432 0.0
C750 C 0.66156 0.48622 0.27635 0.0
C751 C 0.79979 0.47276 0.22274 0.0
H752 H 0.8031 0.6131 0.31883 0.0
H753 H 0.80115 0.49502 0.34533 0.0
H754 H 0.77355 0.56608 0.24248 0.0
H755 H 0.72353 0.56896 0.25939 0.0
H756 H 0.76955 0.61342 0.27343 0.0
H757 H 0.76473 0.42489 0.31501 0.0
H758 H 0.71976 0.42447 0.29129 0.0
H759 H 0.76965 0.4205 0.27459 0.0
H760 H 0.62846 0.44542 0.21842 0.0
H761 H 0.74482 0.43518 0.17362 0.0
H762 H 0.67099 0.5226 0.28581 0.0
H763 H 0.66964 0.47149 0.29442 0.0
H764 H 0.62652 0.47646 0.2714 0.0
H765 H 0.81308 0.50523 0.21858 0.0
H766 H 0.80968 0.44717 0.20406 0.0
H767 H 0.81387 0.4725 0.24495 0.0
C768 C 0.06992 0.69573 0.67065 0.0
C769 C 0.08677 0.66078 0.67396 0.0
C770 C 0.06049 0.72679 0.69647 0.0
C771 C 0.06776 0.72228 0.72618 0.0
C772 C 0.08157 0.68493 0.72936 0.0
C773 C 0.09152 0.65486 0.70316 0.0
C774 C 1.04665 0.76634 0.69173 0.0
C775 C 0.08848 0.67823 0.76053 0.0
C776 C 0.10548 0.82807 0.78908 0.0
C777 C 0.06749 0.83449 0.80292 0.0
C778 C 0.10584 0.79165 0.76412 0.0
C779 C 0.06756 0.75966 0.75366 0.0
C780 C 1.02958 0.76437 0.76888 0.0
C781 C 1.02991 0.80209 0.79331 0.0
C782 C 0.1469 0.78846 0.74817 0.0
C783 C 0.98843 0.73043 0.75859 0.0
H784 H 0.06663 0.70032 0.64798 0.0
H785 H 0.10432 0.62746 0.70552 0.0
H786 H 1.02936 0.75822 0.66904 0.0
H787 H 1.026 0.77953 0.70991 0.0
H788 H 0.07543 0.79267 0.69218 0.0
H789 H 0.09215 0.64427 0.75881 0.0
H790 H 0.11774 0.70187 0.77234 0.0
H791 H 0.06147 0.68472 0.77506 0.0
H792 H 0.13488 0.85247 0.7971 0.0
H793 H 1.00059 0.80691 0.8042 0.0
H794 H 0.14248 0.78803 0.72379 0.0
H795 H 0.15585 0.75727 0.74834 0.0
H796 H 0.17376 0.81645 0.75911 0.0
H797 H 0.97786 0.73049 0.73534 0.0
H798 H 0.96268 0.73691 0.77446 0.0
H799 H 0.99333 0.69695 0.75698 0.0
C800 C 0.27587 0.12858 0.6199 0.0
C801 C 0.30841 0.16672 0.62513 0.0
C802 C 0.2466 0.12276 0.64245 0.0
C803 C 0.25036 0.15587 0.67081 0.0
C804 C 0.28173 0.19565 0.67519 0.0
C805 C 0.31032 0.20059 0.6522 0.0
C806 C 0.21353 0.08002 0.63668 0.0
C807 C 0.28691 0.23185 0.70493 0.0
C808 C 0.16327 0.15309 0.7283 0.0
C809 C 0.17973 0.13456 0.74909 0.0
C810 C 0.18544 0.1596 0.70241 0.0
C811 C 0.22494 0.1472 0.69709 0.0
C812 C 0.24139 0.12796 0.71773 0.0
C813 C 0.2188 0.12215 0.74348 0.0
C814 C 0.16679 0.18005 0.68087 0.0
C815 C 0.28326 0.11397 0.71285 0.0
H816 H 0.27468 0.10241 0.59885 0.0
H817 H 0.33541 0.23025 0.65592 0.0
H818 H 0.22257 0.0595 0.65056 0.0
H819 H 0.18198 0.08635 0.64383 0.0
H820 H 0.21052 0.06089 0.6121 0.0
H821 H 0.30988 0.26231 0.7035 0.0
H822 H 0.25581 0.24008 0.71138 0.0
H823 H 0.29857 0.22033 0.72362 0.0
H824 H 0.13286 0.16223 0.73214 0.0
H825 H 0.23227 0.10852 0.75957 0.0
H826 H 0.1635 0.15801 0.65712 0.0
H827 H 0.18859 0.21165 0.6805 0.0
H828 H 0.1351 0.18654 0.68761 0.0
H829 H 0.28184 0.08937 0.69021 0.0
H830 H 0.29164 0.09939 0.73096 0.0
H831 H 0.30913 0.1428 0.71262 0.0
C832 C 0.55235 0.072 0.13116 0.0
C833 C 0.5759 0.09989 0.11514 0.0
C834 C 0.57264 0.06073 0.15417 0.0
C835 C 0.61685 0.07804 0.16076 0.0
C836 C 0.64144 0.09779 0.14018 0.0
C837 C 0.62051 0.10952 0.11786 0.0
C838 C 0.54604 1.03651 0.17443 0.0
C839 C 0.68922 0.11284 0.14491 0.0
C840 C 0.64825 0.14279 0.24299 0.0
C841 C 0.67365 0.11803 0.25228 0.0
C842 C 0.62926 0.12958 0.21335 0.0
C843 C 0.63409 0.08935 0.19278 0.0
C844 C 0.65818 0.06315 0.20228 0.0
C845 C 0.67854 0.07834 0.23167 0.0
C846 C 0.60529 0.15975 0.20383 0.0
C847 C 0.66395 1.01986 0.18151 0.0
H848 H 0.51785 0.06399 0.12866 0.0
H849 H 0.63886 0.1309 0.10539 0.0
H850 H 0.56384 1.01549 0.18255 0.0
H851 H 0.53811 0.06084 0.19488 0.0
H852 H 0.51575 1.01564 0.16216 0.0
H853 H 0.70392 0.12381 0.12524 0.0
H854 H 0.69766 0.14053 0.16612 0.0
H855 H 0.70306 0.08562 0.14796 0.0
H856 H 0.64329 0.17284 0.25883 0.0
H857 H 0.69882 0.0592 0.23815 0.0
H858 H 0.57208 0.14191 0.19594 0.0
H859 H 0.62082 0.17079 0.18446 0.0
H860 H 0.60429 0.18957 0.2228 0.0
H861 H 0.63874 1.00521 0.16276 0.0
H862 H 0.6641 0.99573 0.19494 0.0
H863 H 0.69531 1.02521 0.17115 0.0
C864 C 0.48195 0.83309 0.79078 0.0
C865 C 0.52656 0.84036 0.79273 0.0
C866 C 0.45801 0.8097 0.76289 0.0
C867 C 0.47883 0.79188 0.73619 0.0
C868 C 0.52388 0.79872 0.73826 0.0
C869 C 0.547 0.82283 0.76629 0.0
C870 C 0.4103 0.80401 0.76211 0.0
C871 C 0.54779 0.78041 0.71081 0.0
C872 C 0.41386 0.69458 0.673 0.0
C873 C 0.4049 0.7148 0.65066 0.0
C874 C 0.43788 0.71903 0.70057 0.0
C875 C 0.45358 0.76527 0.70641 0.0
C876 C 0.44518 0.78574 0.68365 0.0
C877 C 0.42142 0.76034 0.65606 0.0
C878 C 0.44603 0.69531 0.72369 0.0
C879 C 0.46106 0.83468 0.68849 0.0
H880 H 0.46573 0.84668 0.81092 0.0
H881 H 0.58135 0.82765 0.7676 0.0
H882 H 0.39881 0.81158 0.74153 0.0
H883 H 0.3952 0.76916 0.76066 0.0
H884 H 0.39957 0.82541 0.78293 0.0
H885 H 0.58265 0.78774 0.7162 0.0
H886 H 0.5359 0.74412 0.70233 0.0
H887 H 0.54214 0.79456 0.69184 0.0
H888 H 0.4016 0.65939 0.66901 0.0
H889 H 0.41462 0.77644 0.63911 0.0
H890 H 0.4312 0.70822 0.74543 0.0
H891 H 0.48077 0.7015 0.72902 0.0
H892 H 0.43305 0.65913 0.71538 0.0
H893 H 0.45304 0.85314 0.71144 0.0
H894 H 0.44758 0.84664 0.67068 0.0
H895 H 0.49622 0.84233 0.68769 0.0
C896 C 0.12679 0.63415 0.28621 0.0
C897 C 0.13 0.62568 0.31478 0.0
C898 C 0.1374 0.60562 0.2594 0.0
C899 C 0.1503 0.56715 0.26121 0.0
C900 C 0.15684 0.56055 0.2904 0.0
C901 C 0.14678 0.59011 0.31689 0.0
C902 C 0.13164 0.6149 0.22894 0.0
C903 C 0.16997 0.5201 0.29397 0.0
C904 C 0.10888 0.46472 0.196 0.0
C905 C 0.1462 0.45712 0.18156 0.0
C906 C 0.11 0.5003 0.2219 0.0
C907 C 0.14919 0.53053 0.23282 0.0
C908 C 0.18664 0.52478 0.21709 0.0
C909 C 0.18477 0.48778 0.19167 0.0
C910 C 0.0694 0.50439 0.2383 0.0
C911 C 0.22877 0.55676 0.22783 0.0
H912 H 0.11419 0.66206 0.2847 0.0
H913 H 0.14904 0.58344 0.33899 0.0
H914 H 0.15835 0.60797 0.2142 0.0
H915 H 0.1018 0.59302 0.21671 0.0
H916 H 0.12962 0.64967 0.23186 0.0
H917 H 0.14081 0.49548 0.29583 0.0
H918 H 0.18759 0.50503 0.27436 0.0
H919 H 0.19007 0.52803 0.31545 0.0
H920 H 0.07873 0.44178 0.18765 0.0
H921 H 0.21361 0.48209 0.18037 0.0
H922 H 0.06142 0.53622 0.23868 0.0
H923 H 0.07387 0.50404 0.26251 0.0
H924 H 1.04187 0.47725 0.22731 0.0
H925 H 0.22544 0.59107 0.23065 0.0
H926 H 0.25406 0.54995 0.2116 0.0
H927 H 0.23902 0.55463 0.25062 0.0
C928 C 0.07082 0.07949 0.93187 0.0
C929 C 0.09667 0.04922 0.93023 0.0
C930 C 0.07661 0.11831 0.95616 0.0
C931 C 0.1081 0.12645 0.97992 0.0
C932 C 0.13462 0.09632 0.97819 0.0
C933 C 0.12927 0.05876 0.95294 0.0
C934 C 1.04911 0.1507 0.95635 0.0
C935 C 0.16818 0.10334 0.00324 0.0
C936 C 0.1482 0.24276 0.03189 0.0
C937 C 0.12155 0.24275 0.05637 0.0
C938 C 0.14375 0.20543 0.00656 0.0
C939 C 0.11326 0.16647 0.00657 0.0
C940 C 0.08769 0.16574 0.03212 0.0
C941 C 0.09176 0.20417 0.05658 0.0
C942 C 0.17112 0.20804 0.97962 0.0
C943 C 1.05642 0.12425 0.03376 0.0
H944 H 1.04596 0.07288 0.91412 0.0
H945 H 0.15089 1.03704 0.95091 0.0
H946 H 1.02934 0.15365 0.97664 0.0
H947 H 0.06952 0.18389 0.95823 0.0
H948 H 1.0277 0.14072 0.93532 0.0
H949 H 0.18843 0.07883 -0.00272 0.0
H950 H 0.18904 0.13687 0.00806 0.0
H951 H 0.15243 0.10064 0.02475 0.0
H952 H 0.17271 0.27192 0.03262 0.0
H953 H 0.07183 0.20402 0.07596 0.0
H954 H 0.15076 0.207 0.95966 0.0
H955 H 0.18626 0.17944 0.97272 0.0
H956 H 0.19653 0.23878 0.98472 0.0
H957 H 1.03205 0.11371 0.01445 0.0
H958 H 1.04003 0.1287 0.05569 0.0
H959 H 0.07333 0.09718 0.03141 0.0
C960 C 0.51552 0.11809 0.51047 0.0
C961 C 0.50988 0.15929 0.52848 0.0
C962 C 0.55559 0.11217 0.49863 0.0
C963 C 0.59184 0.14817 0.50454 0.0
C964 C 0.58627 0.18979 0.52278 0.0
C965 C 0.54588 0.19478 0.53428 0.0
C966 C 0.55906 0.06708 0.47952 0.0
C967 C 0.62305 0.22954 0.52992 0.0
C968 C 0.70639 0.1268 0.49205 0.0
C969 C 0.71475 0.13264 0.46265 0.0
C970 C 0.66706 0.13165 0.50589 0.0
C971 C 0.63461 0.14294 0.49035 0.0
C972 C 0.64322 0.14933 0.46088 0.0
C973 C 0.68246 0.14408 0.44759 0.0
C974 C 0.66005 0.12426 0.5372 0.0
C975 C 0.61069 0.16172 0.44308 0.0
H976 H 0.48848 0.09015 0.50565 0.0
H977 H 0.54243 0.22696 0.54771 0.0
H978 H 0.56782 0.06849 0.45601 0.0
H979 H 0.58473 0.05627 0.48957 0.0
H980 H 0.52883 0.04197 0.47782 0.0
H981 H 0.61453 0.25906 0.54557 0.0
H982 H 0.65045 0.2223 0.5407 0.0
H983 H 0.63372 0.23743 0.50831 0.0
H984 H 0.73041 0.11788 0.5042 0.0
H985 H 0.68774 0.149 0.425 0.0
H986 H 0.63184 0.09692 0.5359 0.0
H987 H 0.65327 0.15422 0.55342 0.0
H988 H 0.68803 0.11611 0.54662 0.0
H989 H 0.58076 0.1358 0.43885 0.0
H990 H 0.622 0.16608 0.42064 0.0
H991 H 0.6029 0.19289 0.4567 0.0
C992 C 0.59006 0.72906 0.97575 0.0
C993 C 0.58445 0.70606 0.94446 0.0
C994 C 0.60109 0.70926 -0.0021 0.0
C995 C 0.60711 0.66547 0.98859 0.0
C996 C 0.60233 0.64247 0.95696 0.0
C997 C 0.59097 0.6629 0.93539 0.0
C998 C 0.6056 0.73495 0.03134 0.0
C999 C 0.60895 0.59604 0.94587 0.0
C1000 C 0.67121 0.62605 0.042 0.0
C1001 C 0.63914 0.60049 0.055 0.0
C1002 C 0.66129 0.64741 0.02054 0.0
C1003 C 0.61815 0.64353 0.01185 0.0
C1004 C 0.58559 0.61792 0.02496 0.0
C1005 C 0.59645 0.5966 0.0462 0.0
C1006 C 0.69707 0.67382 0.00691 0.0
C1007 C 0.5392 0.61309 0.01659 0.0
H1008 H 0.58471 0.76221 0.98306 0.0
H1009 H 0.58732 0.64503 0.91125 0.0
H1010 H 0.58229 0.71734 0.0445 0.0
H1011 H 0.63784 0.73741 0.04105 0.0
H1012 H 0.6004 0.76879 0.03485 0.0
H1013 H 0.60495 0.58297 0.92048 0.0
H1014 H 0.64138 0.59508 0.95331 0.0
H1015 H 0.58592 0.57379 0.95624 0.0
H1016 H 0.7043 0.62882 0.04827 0.0
H1017 H 0.57141 0.57736 0.05631 0.0
H1018 H 0.69366 0.7084 0.0116 0.0
H1019 H 0.6955 0.65998 0.9816 0.0
H1020 H 0.72892 0.67397 0.01622 0.0
H1021 H 0.53157 0.64609 0.02168 0.0
H1022 H 0.51766 0.59281 0.02921 0.0
H1023 H 0.53257 0.5975 0.99158 0.0
C1024 C 0.17728 0.62263 0.52641 0.0
C1025 C 0.21357 0.65651 0.52696 0.0
C1026 C 0.13801 0.61942 0.51097 0.0
C1027 C 0.13338 0.65127 0.49556 0.0
C1028 C 0.17005 0.68559 0.49585 0.0
C1029 C 0.20941 0.68743 0.51105 0.0
C1030 C 0.10118 0.58156 0.51124 0.0
C1031 C 0.16865 0.72062 0.47989 0.0
C1032 C 1.04155 0.61714 0.43254 0.0
C1033 C 1.00824 0.63492 0.44765 0.0
C1034 C 0.08204 0.62314 0.44738 0.0
C1035 C 0.09067 0.64738 0.47874 0.0
C1036 C 0.0575 0.66601 0.49414 0.0
C1037 C 1.01719 0.65968 0.47861 0.0
C1038 C 0.11577 0.60318 0.42931 0.0
C1039 C 0.0647 0.69301 0.52721 0.0
H1040 H 0.17958 0.59799 0.53808 0.0
H1041 H 0.23669 0.71392 0.51107 0.0
H1042 H 0.07499 0.59447 0.52386 0.0
H1043 H 0.08853 0.56362 0.48743 0.0
H1044 H 0.11034 0.55777 0.52224 0.0
H1045 H 0.18886 0.75284 0.49291 0.0
H1046 H 0.18192 0.71123 0.45699 0.0
H1047 H 0.13588 0.72488 0.47677 0.0
H1048 H 1.0363 0.5986 0.40867 0.0
H1049 H 0.99256 0.67402 0.4909 0.0
H1050 H 0.12448 0.57868 0.4398 0.0
H1051 H 0.14498 0.62923 0.43016 0.0
H1052 H 0.10512 0.58666 0.40488 0.0
H1053 H 0.07131 0.67232 0.54181 0.0
H1054 H 1.03683 0.70682 0.53587 0.0
H1055 H 0.09308 0.72058 0.52971 0.0
C1056 C 0.63406 0.06619 0.93851 0.0
C1057 C 0.59306 0.04522 0.9253 0.0
C1058 C 0.64191 0.10793 0.9602 0.0
C1059 C 0.60752 0.12822 0.97033 0.0
C1060 C 0.56587 0.10657 0.95738 0.0
C1061 C 0.55934 0.06593 0.93453 0.0
C1062 C 0.68703 0.13011 0.97246 0.0
C1063 C 0.52796 0.12574 0.96831 0.0
C1064 C 0.61927 0.20748 0.0511 0.0
C1065 C 0.62395 0.24893 0.0454 0.0
C1066 C 0.61418 0.16833 0.02691 0.0
C1067 C 0.6145 0.17022 -0.00395 0.0
C1068 C 0.62095 0.21199 0.99007 0.0
C1069 C 0.6253 0.2506 0.01473 0.0
C1070 C 0.60753 0.12456 0.03424 0.0
C1071 C 0.62361 0.2159 0.95761 0.0
H1072 H 0.66024 0.05032 0.93136 0.0
H1073 H 0.52756 0.04963 0.92445 0.0
H1074 H 0.69441 0.16513 0.97199 0.0
H1075 H 0.69082 0.12976 -0.0033 0.0
H1076 H 0.71063 0.11341 0.95904 0.0
H1077 H 0.49772 0.1051 0.95585 0.0
H1078 H 0.52502 0.12883 -0.00678 0.0
H1079 H 0.53252 0.15935 0.96526 0.0
H1080 H 0.61892 0.20547 0.07457 0.0
H1081 H 0.63094 0.28217 0.00996 0.0
H1082 H 0.62987 0.10497 0.02208 0.0
H1083 H 0.57477 0.10509 0.02638 0.0
H1084 H 0.61229 0.12876 0.05903 0.0
H1085 H 0.64697 0.19774 0.94531 0.0
H1086 H 0.63308 0.25074 0.95681 0.0
H1087 H 0.59224 0.20068 0.94499 0.0
C1088 C 0.53948 0.57172 0.56587 0.0
C1089 C 0.55391 0.6177 0.57633 0.0
C1090 C 0.56457 0.5461 0.54708 0.0
C1091 C 0.60357 0.56763 0.53798 0.0
C1092 C 0.62161 0.61225 0.55374 0.0
C1093 C 0.5964 0.63686 0.57306 0.0
C1094 C 0.54659 0.49746 0.53353 0.0
C1095 C 0.66443 0.63606 0.54621 0.0
C1096 C 0.67653 0.536 0.47514 0.0
C1097 C 0.66035 0.55174 0.45268 0.0
C1098 C 0.65495 0.53455 0.50198 0.0
C1099 C 0.61727 0.55059 0.50656 0.0
C1100 C 0.59818 0.56096 0.48207 0.0
C1101 C 0.61991 0.56093 0.45524 0.0
C1102 C 0.67487 0.51972 0.52621 0.0
C1103 C 0.55756 0.57769 0.48549 0.0
H1104 H 0.50701 0.55656 0.56947 0.0
H1105 H 0.60797 0.67227 0.58184 0.0
H1106 H 0.52558 0.49225 0.51295 0.0
H1107 H 0.5723 0.47942 0.52658 0.0
H1108 H 0.52699 0.48331 0.55027 0.0
H1109 H 0.6753 0.66941 0.56241 0.0
H1110 H 0.68875 0.61681 0.54698 0.0
H1111 H 0.66246 0.63978 0.52261 0.0
H1112 H 0.70746 0.52785 0.47274 0.0
H1113 H 0.60735 0.57278 0.43771 0.0
H1114 H 0.65254 0.51345 0.54412 0.0
H1115 H 0.70345 0.54524 0.53728 0.0
H1116 H 0.68588 0.48912 0.51538 0.0
H1117 H 0.53181 0.5541 0.49266 0.0
H1118 H 0.54638 0.58263 0.46381 0.0
H1119 H 0.56279 0.6097 0.50346 0.0
C1120 C 0.14384 0.69846 0.95433 0.0
C1121 C 0.11893 0.73006 0.95877 0.0
C1122 C 0.13393 0.66314 0.9676 0.0
C1123 C 0.09813 0.65908 0.98579 0.0
C1124 C 0.07244 0.69046 0.99003 0.0
C1125 C 0.08309 0.72552 0.97642 0.0
C1126 C 0.16198 0.63026 0.96227 0.0
C1127 C 1.034 0.68729 0.00925 0.0
C1128 C 1.05219 0.54601 -0.00236 0.0
C1129 C 0.07001 0.55023 0.0268 0.0
C1130 C 0.06066 0.58126 0.98421 0.0
C1131 C 0.08766 0.62188 0.00027 0.0
C1132 C 0.10564 0.62647 0.02977 0.0
C1133 C 0.09668 0.5906 0.04264 0.0
C1134 C 1.04111 0.57482 0.95263 0.0
C1135 C 0.13452 0.66925 0.04768 0.0
H1136 H 0.17119 0.70129 0.94032 0.0
H1137 H 0.06391 0.74998 0.9802 0.0
H1138 H 0.1757 0.62982 0.98456 0.0
H1139 H 0.14277 0.59658 0.95139 0.0
H1140 H 0.18849 0.63792 0.94738 0.0
H1141 H 1.017 0.71397 0.01002 0.0
H1142 H 1.01144 0.65499 -8e-05 0.0
H1143 H 1.04391 0.68912 0.03306 0.0
H1144 H 1.03208 0.51476 0.985 0.0
H1145 H 0.11021 0.59432 0.0653 0.0
H1146 H 0.06662 0.57928 0.93642 0.0
H1147 H 1.02237 0.60003 0.95329 0.0
H1148 H 1.01993 0.54158 0.94351 0.0
H1149 H 0.16303 0.67729 0.03462 0.0
H1150 H 0.14519 0.66784 0.07059 0.0
H1151 H 0.1178 0.69663 0.0509 0.0
C1152 C 0.2093 0.13099 0.45475 0.0
C1153 C 0.22358 0.17712 0.46218 0.0
C1154 C 0.16746 0.11114 0.45935 0.0
C1155 C 0.1377 0.13768 0.46941 0.0
C1156 C 0.15091 0.18412 0.47457 0.0
C1157 C 0.1938 0.20327 0.47155 0.0
C1158 C 0.15584 0.0617 0.45422 0.0
C1159 C 0.12097 0.21457 0.48472 0.0
C1160 C 1.02433 0.06756 0.45575 0.0
C1161 C 1.01187 0.07088 0.48577 0.0
C1162 C 0.06444 0.09061 0.45003 0.0
C1163 C 0.09343 0.11645 0.47509 0.0
C1164 C 0.08029 0.12015 0.50558 0.0
C1165 C 1.03962 0.09747 0.51042 0.0
C1166 C 0.07394 0.08848 0.41702 0.0
C1167 C 0.10732 0.14944 0.5336 0.0
H1168 H 0.23124 0.11003 0.44615 0.0
H1169 H 0.20408 0.23889 0.47758 0.0
H1170 H 0.13582 0.05268 0.47258 0.0
H1171 H 0.13748 0.04595 0.43195 0.0
H1172 H 0.1845 0.04767 0.45347 0.0
H1173 H 0.12526 0.23913 0.47122 0.0
H1174 H 0.08707 0.19701 0.48237 0.0
H1175 H 0.12904 0.23323 0.50916 0.0
H1176 H 1.0018 0.0487 0.43667 0.0
H1177 H 1.02897 0.10156 0.53361 0.0
H1178 H 0.07734 0.05474 0.40485 0.0
H1179 H 0.10295 0.11273 0.41441 0.0
H1180 H 1.04657 0.09446 0.40533 0.0
H1181 H 0.10719 0.1314 0.55133 0.0
H1182 H 0.09306 0.17811 0.5437 0.0
H1183 H 0.14056 0.16208 0.52873 0.0
C1184 C 0.98121 0.38486 0.12035 0.0
C1185 C 0.99601 0.3467 0.12035 0.0
C1186 C 0.93687 0.38629 0.12106 0.0
C1187 C 0.90409 0.348 0.1205 0.0
C1188 C 0.91901 0.30913 0.12017 0.0
C1189 C 0.96379 0.3093 0.12085 0.0
C1190 C 0.92595 0.42988 0.12267 0.0
C1191 C 0.88777 0.26637 0.1188 0.0
C1192 C 0.78479 0.34583 0.14467 0.0
C1193 C 0.76314 0.34928 0.11865 0.0
C1194 C 0.82962 0.34651 0.14593 0.0
C1195 C 0.85514 0.34846 0.11997 0.0
C1196 C 0.83296 0.3511 0.09342 0.0
C1197 C 0.78862 0.35247 0.09339 0.0
C1198 C 0.84911 0.34587 0.17591 0.0
C1199 C 0.85557 0.35252 0.06432 0.0
H1200 H 1.00469 0.41467 0.12066 0.0
H1201 H 0.9735 0.27924 0.1209 0.0
H1202 H 0.92578 0.43437 0.09923 0.0
H1203 H 0.89446 0.43216 0.1322 0.0
H1204 H 0.95053 0.45758 0.137 0.0
H1205 H 0.88031 0.26497 0.1425 0.0
H1206 H 0.85759 0.26334 0.10591 0.0
H1207 H 0.90141 0.23753 0.10785 0.0
H1208 H 0.76686 0.34381 0.16479 0.0
H1209 H 0.77359 0.35521 0.07288 0.0
H1210 H 0.88422 0.358 0.17795 0.0
H1211 H 0.84121 0.3116 0.17799 0.0
H1212 H 0.83529 0.36642 0.19555 0.0
H1213 H 0.86704 0.38743 0.06415 0.0
H1214 H 0.83344 0.33588 0.0438 0.0
H1215 H 0.88318 0.33675 0.06216 0.0
C1216 C 0.35635 1.00409 0.5624 0.0
C1217 C 0.38534 0.03954 0.58301 0.0
C1218 C 0.34569 0.95948 0.56509 0.0
C1219 C 0.36372 0.94713 0.58933 0.0
C1220 C 0.39256 0.98278 0.61065 0.0
C1221 C 0.40275 1.02738 0.60736 0.0
C1222 C 0.31525 0.925 0.54108 0.0
C1223 C 0.41305 0.97377 0.63735 0.0
C1224 C 0.31035 0.83144 0.60615 0.0
C1225 C 0.33608 0.80219 0.59142 0.0
C1226 C 0.31901 0.87767 0.60627 0.0
C1227 C 0.35433 0.8973 0.59107 0.0
C1228 C 0.38021 0.86788 0.57641 0.0
C1229 C 0.37131 0.82244 0.57704 0.0
C1230 C 0.28977 0.90573 0.62274 0.0
C1231 C 0.41778 0.88436 0.55932 0.0
H1232 H 0.34126 1.01114 0.5437 0.0
H1233 H 0.42477 0.05288 0.6241 0.0
H1234 H 0.33338 0.90352 0.52543 0.0
H1235 H 0.29172 0.9037 0.55181 0.0
H1236 H 0.29774 0.9399 0.5272 0.0
H1237 H 0.43258 1.00428 0.65311 0.0
H1238 H 0.38819 0.95804 0.65051 0.0
H1239 H 0.43374 0.95026 0.62876 0.0
H1240 H 0.28307 0.81828 0.61764 0.0
H1241 H 0.39272 0.80239 0.56572 0.0
H1242 H 0.27361 0.91743 0.60604 0.0
H1243 H 0.30855 0.93539 0.63972 0.0
H1244 H 0.26519 0.88752 0.6348 0.0
H1245 H 0.4068 0.89671 0.54082 0.0
H1246 H 0.4352 0.85832 0.54888 0.0
H1247 H 0.44027 0.91243 0.57513 0.0
C1248 C 0.42298 0.93582 0.83474 0.0
C1249 C 0.44669 0.9371 0.8613 0.0
C1250 C 0.37813 0.93523 0.83444 0.0
C1251 C 0.35472 0.93808 0.86177 0.0
C1252 C 0.37895 0.94022 0.88877 0.0
C1253 C 0.42329 0.93886 0.88804 0.0
C1254 C 0.3563 0.93089 0.80409 0.0
C1255 C 0.35828 0.94407 0.91907 0.0
C1256 C 0.24618 0.9774 0.86186 0.0
C1257 C 0.21406 0.94078 0.86408 0.0
C1258 C 0.29089 0.9772 0.86164 0.0
C1259 C 0.30584 0.93877 0.86228 0.0
C1260 C 0.27325 0.90127 0.86367 0.0
C1261 C 0.22897 0.90303 0.86509 0.0
C1262 C 0.3223 1.01899 0.861 0.0
C1263 C 0.28432 0.85821 0.86347 0.0
H1264 H 0.43931 0.9341 0.81357 0.0
H1265 H 0.44003 0.94019 0.90904 0.0
H1266 H 0.32124 0.91915 0.80373 0.0
H1267 H 0.36359 0.96346 0.79912 0.0
H1268 H 0.3688 0.90766 0.78525 0.0
H1269 H 0.38221 0.95842 0.93874 0.0
H1270 H 0.3344 0.96473 0.92158 0.0
H1271 H 0.34178 0.91071 0.92034 0.0
H1272 H 0.23646 1.00713 0.86099 0.0
H1273 H 0.20566 0.87375 0.8661 0.0
H1274 H 0.33327 1.01589 0.8374 0.0
H1275 H 0.35063 1.02482 0.87663 0.0
H1276 H 0.30788 0.04821 0.86771 0.0
H1277 H 0.31534 0.85503 0.85338 0.0
H1278 H 0.25922 0.82989 0.85037 0.0
H1279 H 0.28569 0.85574 0.8874 0.0
C1280 C 0.85655 0.28129 0.43081 0.0
C1281 C 0.83982 0.24309 0.40632 0.0
C1282 C 0.86608 0.32592 0.42782 0.0
C1283 C 0.85864 0.33563 0.39947 0.0
C1284 C 0.84143 0.29727 0.37458 0.0
C1285 C 0.8329 0.2528 0.37812 0.0
C1286 C 0.88454 0.36324 0.45558 0.0
C1287 C 0.83144 0.30317 0.34374 0.0
C1288 C 0.84454 0.45647 0.40179 0.0
C1289 C 0.88365 0.47919 0.39308 0.0
C1290 C 0.83614 0.41128 0.40339 0.0
C1291 C 0.86732 0.38504 0.39638 0.0
C1292 C 0.90684 0.40736 0.387 0.0
C1293 C 0.91424 0.45279 0.38525 0.0
C1294 C 0.79306 0.39153 0.4129 0.0
C1295 C 0.94224 0.38326 0.37925 0.0
H1296 H 0.8624 0.27645 0.45292 0.0
H1297 H 0.8206 0.22528 0.35835 0.0
H1298 H 0.91496 0.38282 0.4501 0.0
H1299 H 0.86242 0.38573 0.46202 0.0
H1300 H 0.89056 0.3514 0.47567 0.0
H1301 H 0.81866 0.27122 0.32641 0.0
H1302 H 0.80768 0.32393 0.34604 0.0
H1303 H 0.86057 0.32071 0.33522 0.0
H1304 H 0.81938 0.47409 0.40707 0.0
H1305 H 0.94486 0.46802 0.37849 0.0
H1306 H 0.79662 0.38432 0.43524 0.0
H1307 H 0.77881 0.35981 0.39583 0.0
H1308 H 0.77072 0.41385 0.41527 0.0
H1309 H 0.95161 0.37374 0.39961 0.0
H1310 H 0.97073 0.40355 0.37187 0.0
H1311 H 0.93101 0.35238 0.36064 0.0
C1312 C 0.28697 0.34687 0.09341 0.0
C1313 C 0.26516 0.3542 0.12095 0.0
C1314 C 0.3317 0.34684 0.09252 0.0
C1315 C 0.3582 0.3567 0.12004 0.0
C1316 C 0.33619 0.36513 0.14804 0.0
C1317 C 0.29095 0.36264 0.14803 0.0
C1318 C 0.34965 0.33532 0.06128 0.0
C1319 C 0.35984 0.37754 0.17887 0.0
C1320 C 0.47116 0.32888 0.12942 0.0
C1321 C 0.50076 0.36028 0.11873 0.0
C1322 C 0.42593 0.32643 0.12903 0.0
C1323 C 0.40774 0.35795 0.11954 0.0
C1324 C 0.43799 0.39062 0.10952 0.0
C1325 C 0.48275 0.39046 0.10838 0.0
C1326 C 0.39805 0.28887 0.13868 0.0
C1327 C 0.42396 0.427 0.10011 0.0
H1328 H 0.26862 0.33967 0.07195 0.0
H1329 H 0.2759 0.36866 0.16979 0.0
H1330 H 0.35522 0.36462 0.0522 0.0
H1331 H 0.37991 0.32441 0.06171 0.0
H1332 H 0.32633 0.30871 0.04494 0.0
H1333 H 0.35441 0.3482 0.18791 0.0
H1334 H 0.39458 0.39001 0.17784 0.0
H1335 H 0.34718 0.40326 0.19559 0.0
H1336 H 0.48324 0.3048 0.13743 0.0
H1337 H 0.50406 0.41538 0.10013 0.0
H1338 H 0.36452 0.28142 0.12971 0.0
H1339 H 0.3988 0.29736 0.16412 0.0
H1340 H 0.4105 0.25848 0.13065 0.0
H1341 H 0.42058 0.41827 0.07468 0.0
H1342 H 0.44849 0.45834 0.10771 0.0
H1343 H 0.39329 0.43286 0.10963 0.0
C1344 C 0.39857 0.34323 0.6029 0.0
C1345 C 0.37971 0.30441 0.57945 0.0
C1346 C 0.39172 0.38684 0.60472 0.0
C1347 C 0.36433 0.39466 0.58289 0.0
C1348 C 0.34479 0.35553 0.55929 0.0
C1349 C 0.35264 0.31234 0.5578 0.0
C1350 C 0.41472 0.4252 0.63034 0.0
C1351 C 0.31504 0.35913 0.53508 0.0
C1352 C 0.31758 0.50454 0.60365 0.0
C1353 C 0.34187 0.53312 0.5876 0.0
C1354 C 0.32407 0.46081 0.60218 0.0
C1355 C 0.35656 0.44277 0.58462 0.0
C1356 C 0.3816 0.47181 0.56881 0.0
C1357 C 0.37384 0.51492 0.57015 0.0
C1358 C 0.29524 0.4333 0.61946 0.0
C1359 C 0.41738 0.45732 0.55017 0.0
H1360 H 0.4193 0.33975 0.62026 0.0
H1361 H 0.33713 0.28433 0.53925 0.0
H1362 H 0.43575 0.4497 0.62055 0.0
H1363 H 0.39144 0.442 0.64401 0.0
H1364 H 0.43434 0.41491 0.64594 0.0
H1365 H 0.29997 0.32645 0.51934 0.0
H1366 H 0.28965 0.37531 0.5461 0.0
H1367 H 0.33283 0.38016 0.52131 0.0
H1368 H 0.29241 0.51603 0.61719 0.0
H1369 H 0.39361 0.53483 0.55731 0.0
H1370 H 0.31438 0.42537 0.63658 0.0
H1371 H 0.27879 0.40154 0.60332 0.0
H1372 H 0.27092 0.45027 0.63154 0.0
H1373 H 0.43941 0.44798 0.56464 0.0
H1374 H 0.43583 0.48348 0.5405 0.0
H1375 H 0.40431 0.42766 0.53099 0.0
C1376 C 0.73622 0.93952 0.88856 0.0
C1377 C 0.71072 0.93039 0.86114 0.0
C1378 C 0.78138 0.94129 0.88896 0.0
C1379 C 0.80375 0.93313 0.86128 0.0
C1380 C 0.77812 0.92357 0.83353 0.0
C1381 C 0.73312 0.92272 0.8338 0.0
C1382 C 0.80546 0.95245 0.9195 0.0
C1383 C 0.79834 0.9138 0.80305 0.0
C1384 C 0.92955 0.97451 0.86198 0.0
C1385 C 0.94618 0.93729 0.86191 0.0
C1386 C 0.8846 0.9737 0.86182 0.0
C1387 C 0.85317 0.93454 0.86138 0.0
C1388 C 0.86976 0.89678 0.86115 0.0
C1389 C 0.91492 0.89862 0.86153 0.0
C1390 C 0.87073 1.01554 0.8625 0.0
C1391 C 0.83947 0.85366 0.86025 0.0
H1392 H 0.72087 0.94591 0.91017 0.0
H1393 H 0.71526 0.91554 0.81216 0.0
H1394 H 0.82024 0.92495 0.92071 0.0
H1395 H 0.83166 0.98208 0.92193 0.0
H1396 H 0.78467 0.95891 0.93912 0.0
H1397 H 0.7749 0.90594 0.78337 0.0
H1398 H 0.82377 0.94257 0.8019 0.0
H1399 H 0.81359 0.88549 0.8007 0.0
H1400 H 0.95197 1.00516 0.86285 0.0
H1401 H 0.92571 0.86898 0.86102 0.0
H1402 H 0.85248 1.02503 0.88317 0.0
H1403 H 0.8492 1.01006 0.84214 0.0
H1404 H 0.89813 0.04336 0.86275 0.0
H1405 H 0.82016 0.85775 0.88079 0.0
H1406 H 0.8563 0.82687 0.85952 0.0
H1407 H 0.81704 0.8435 0.83978 0.0
C1408 C 0.88398 0.78532 0.42938 0.0
C1409 C 0.88815 0.7538 0.40123 0.0
C1410 C 0.87677 0.82902 0.43157 0.0
C1411 C 0.87308 0.84485 0.4051 0.0
C1412 C 0.87718 0.81321 0.37657 0.0
C1413 C 0.88449 0.7696 0.37501 0.0
C1414 C 0.87385 0.85888 0.46303 0.0
C1415 C 0.87368 0.8255 0.34704 0.0
C1416 C 0.81624 0.94614 0.40943 0.0
C1417 C 0.84952 0.98426 0.4118 0.0
C1418 C 0.82315 0.90223 0.40694 0.0
C1419 C 0.86496 0.89325 0.40726 0.0
C1420 C 0.89876 0.93181 0.41023 0.0
C1421 C 0.8909 0.97526 0.41227 0.0
C1422 C 0.78481 0.86487 0.40407 0.0
C1423 C 0.94418 0.92731 0.41148 0.0
H1424 H 0.88646 0.77586 0.45039 0.0
H1425 H 0.88713 0.74752 0.35272 0.0
H1426 H 0.90379 0.8847 0.46917 0.0
H1427 H 0.84722 0.87571 0.46334 0.0
H1428 H 0.86934 0.84067 0.48084 0.0
H1429 H 0.87689 0.79848 0.32658 0.0
H1430 H 0.84248 0.83398 0.34488 0.0
H1431 H 0.89878 0.85526 0.34732 0.0
H1432 H 0.78397 0.95062 0.41011 0.0
H1433 H 0.91795 1.00274 0.41439 0.0
H1434 H 0.78587 0.84989 0.42335 0.0
H1435 H 0.78533 0.83875 0.38245 0.0
H1436 H 0.75441 0.87575 0.40408 0.0
H1437 H 0.94965 0.91411 0.43098 0.0
H1438 H 0.96738 0.95925 0.41418 0.0
H1439 H 0.9503 0.90336 0.39016 0.0
loop_
_geom_bond_atom_site_label_1
_geom_bond_atom_site_label_2
_geom_bond_distance
_geom_bond_site_symmetry_2
_ccdc_geom_bond_type
Tb0 N29 2.617 1_455 S
Tb0 N35 2.572 . S
Tb0 O44 2.465 . S
Tb0 O45 2.387 . S
Tb0 O47 2.428 . S
Tb0 O48 2.308 . S
Tb0 O52 2.349 . S
Tb0 O55 2.393 1_455 S
Tb0 C64 2.802 . S
C1 N2 1.379 . S
C1 C4 1.416 . S
C1 C8 1.424 . S
N2 C1 1.379 . S
N2 C5 1.334 . S
N2 Tb11 2.617 . S
C3 C5 1.390 . S
C3 C6 1.339 . S
C3 H23 0.930 . S
C4 C1 1.416 . S
C4 C6 1.416 . S
C4 C10 1.448 . S
C5 N2 1.334 . S
C5 C3 1.390 . S
C5 H16 0.930 . S
C6 C3 1.339 . S
C6 C4 1.416 . S
C6 H27 0.930 . S
C7 C8 1.413 . S
C7 C9 1.427 . S
C7 C13 1.416 1_455 S
C8 C1 1.424 . S
C8 C7 1.413 . S
C8 N12 1.361 . S
C9 C7 1.427 . S
C9 C10 1.328 . S
C9 H24 0.929 . S
C10 C4 1.448 . S
C10 C9 1.328 . S
C10 H25 0.930 . S
Tb11 N2 2.617 . S
Tb11 N12 2.572 . S
Tb11 O46 2.349 . S
Tb11 O49 2.393 . S
Tb11 O50 2.465 1_455 S
Tb11 O51 2.387 . S
Tb11 O53 2.428 . S
Tb11 O54 2.308 1_455 S
Tb11 C75 2.802 . S
N12 C8 1.361 . S
N12 Tb11 2.572 . S
N12 C14 1.340 1_455 S
C13 C7 1.416 1_655 S
C13 C15 1.332 . S
C13 H21 0.931 . S
C14 N12 1.340 1_655 S
C14 C15 1.407 . S
C14 H20 0.930 . S
C15 C13 1.332 . S
C15 C14 1.407 . S
C15 H17 0.929 . S
H16 C5 0.930 . S
H17 C15 0.929 . S
H18 C33 0.930 . S
H19 C40 0.929 . S
H20 C14 0.930 . S
H21 C13 0.931 . S
H22 C36 0.930 . S
H23 C3 0.930 . S
H24 C9 0.929 . S
H25 C10 0.930 . S
H26 C31 0.930 . S
H27 C6 0.930 . S
H28 C39 0.931 . S
N29 Tb0 2.617 1_655 S
N29 C30 1.379 1_654 S
N29 C33 1.334 . S
C30 N29 1.379 1_456 S
C30 C32 1.416 1_455 S
C30 C38 1.424 . S
C31 H26 0.930 . S
C31 C33 1.390 1_556 S
C31 C34 1.339 . S
C32 C30 1.416 1_655 S
C32 C34 1.416 . S
C32 C65 1.444 1_655 S
C33 H18 0.930 . S
C33 N29 1.334 . S
C33 C31 1.390 1_554 S
C34 C31 1.339 . S
C34 C32 1.416 . S
C34 H41 0.930 . S
N35 Tb0 2.572 . S
N35 C36 1.340 . S
N35 C38 1.361 1_554 S
C36 H22 0.930 . S
C36 N35 1.340 . S
C36 C40 1.407 1_554 S
C37 C38 1.413 . S
C37 C39 1.416 . S
C37 C66 1.427 . S
C38 C30 1.424 . S
C38 N35 1.361 1_556 S
C38 C37 1.413 . S
C39 H28 0.931 . S
C39 C37 1.416 . S
C39 C40 1.332 . S
C40 H19 0.929 . S
C40 C36 1.407 1_556 S
C40 C39 1.332 . S
H41 C34 0.930 . S
H42 C65 0.927 1_655 S
H43 C66 0.929 . S
O44 Tb0 2.465 . S
O44 C64 1.264 . S
O45 Tb0 2.387 . S
O45 C56 1.264 . S
O46 Tb11 2.349 . S
O46 C56 1.243 . S
O47 Tb0 2.428 . S
O47 C64 1.256 . S
O48 Tb0 2.308 . S
O48 C63 1.266 . S
O49 Tb11 2.393 . S
O49 C63 1.248 . S
O50 Tb11 2.465 1_655 S
O50 C75 1.264 1_655 S
O51 Tb11 2.387 . S
O51 C67 1.264 . S
O52 Tb0 2.349 . S
O52 C67 1.243 . S
O53 Tb11 2.428 . S
O53 C75 1.256 . S
O54 Tb11 2.308 1_655 S
O54 C74 1.266 . S
O55 Tb0 2.393 1_655 S
O55 C74 1.248 . S
C56 O45 1.264 . S
C56 O46 1.243 . S
C57 C60 1.399 . S
C57 C62 1.383 . S
C57 C64 1.496 . S
C58 C59 1.399 . S
C58 C62 1.389 . S
C59 C58 1.399 . S
C59 C61 1.380 . S
C59 H76 0.929 . S
C60 C57 1.399 . S
C60 C61 1.392 . S
C60 H77 0.929 . S
C61 C59 1.380 . S
C61 C60 1.392 . S
C61 H78 0.929 . S
C62 C57 1.383 . S
C62 C58 1.389 . S
C62 H79 0.931 . S
C63 O48 1.266 . S
C63 O49 1.248 . S
C64 Tb0 2.802 . S
C64 O44 1.264 . S
C64 O47 1.256 . S
C64 C57 1.496 . S
C65 C32 1.444 1_455 S
C65 H42 0.927 1_455 S
C65 C66 1.336 . S
C66 C37 1.427 . S
C66 H43 0.929 . S
C66 C65 1.336 . S
C67 O51 1.264 . S
C67 O52 1.243 . S
C68 C71 1.399 . S
C68 C72 1.383 1_455 S
C68 C75 1.496 . S
C69 C70 1.399 . S
C69 C72 1.389 . S
C70 C69 1.399 . S
C70 C73 1.380 1_655 S
C70 H80 0.929 . S
C71 C68 1.399 . S
C71 C73 1.392 . S
C71 H81 0.929 . S
C72 C68 1.383 1_655 S
C72 C69 1.389 . S
C72 H82 0.931 . S
C73 C70 1.380 1_455 S
C73 C71 1.392 . S
C73 H83 0.929 . S
C74 O54 1.266 . S
C74 O55 1.248 . S
C75 Tb11 2.802 . S
C75 O50 1.264 1_455 S
C75 O53 1.256 . S
C75 C68 1.496 . S
H76 C59 0.929 . S
H77 C60 0.929 . S
H78 C61 0.929 . S
H79 C62 0.931 . S
H80 C70 0.929 . S
H81 C71 0.929 . S
H82 C72 0.931 . S
H83 C73 0.929 . S
Tb84 N113 2.617 . S
Tb84 N119 2.572 . S
Tb84 O128 2.465 . S
Tb84 O129 2.387 . S
Tb84 O131 2.428 . S
Tb84 O132 2.308 . S
Tb84 O136 2.349 . S
Tb84 O139 2.393 . S
Tb84 C148 2.802 . S
C85 N86 1.379 . S
C85 C88 1.416 . S
C85 C92 1.424 . S
N86 C85 1.379 . S
N86 C89 1.334 . S
N86 Tb95 2.617 . S
C87 C89 1.390 . S
C87 C90 1.339 . S
C87 H107 0.930 . S
C88 C85 1.416 . S
C88 C90 1.416 . S
C88 C94 1.448 1_545 S
C89 N86 1.334 . S
C89 C87 1.390 . S
C89 H100 0.930 . S
C90 C87 1.339 . S
C90 C88 1.416 . S
C90 H111 0.930 . S
C91 C92 1.413 1_565 S
C91 C93 1.427 . S
C91 C97 1.416 . S
C92 C85 1.424 . S
C92 C91 1.413 1_545 S
C92 N96 1.361 . S
C93 C91 1.427 . S
C93 C94 1.328 . S
C93 H108 0.929 . S
C94 C88 1.448 1_565 S
C94 C93 1.328 . S
C94 H109 0.930 . S
Tb95 N86 2.617 . S
Tb95 N96 2.572 . S
Tb95 O130 2.349 . S
Tb95 O133 2.393 . S
Tb95 O134 2.465 . S
Tb95 O135 2.387 . S
Tb95 O137 2.428 . S
Tb95 O138 2.308 . S
Tb95 C159 2.802 . S
N96 C92 1.361 . S
N96 Tb95 2.572 . S
N96 C98 1.340 . S
C97 C91 1.416 . S
C97 C99 1.332 1_565 S
C97 H105 0.931 . S
C98 N96 1.340 . S
C98 C99 1.407 . S
C98 H104 0.930 . S
C99 C97 1.332 1_545 S
C99 C98 1.407 . S
C99 H101 0.929 . S
H100 C89 0.930 . S
H101 C99 0.929 . S
H102 C117 0.930 . S
H103 C124 0.929 . S
H104 C98 0.930 . S
H105 C97 0.931 . S
H106 C120 0.930 . S
H107 C87 0.930 . S
H108 C93 0.929 . S
H109 C94 0.930 . S
H110 C115 0.930 . S
H111 C90 0.930 . S
H112 C123 0.931 . S
N113 Tb84 2.617 . S
N113 C114 1.379 . S
N113 C117 1.334 . S
C114 N113 1.379 . S
C114 C116 1.416 . S
C114 C122 1.424 . S
C115 H110 0.930 . S
C115 C117 1.390 . S
C115 C118 1.339 . S
C116 C114 1.416 . S
C116 C118 1.416 . S
C116 C149 1.448 . S
C117 H102 0.930 . S
C117 N113 1.334 . S
C117 C115 1.390 . S
C118 C115 1.339 . S
C118 C116 1.416 . S
C118 H125 0.930 . S
N119 Tb84 2.572 . S
N119 C120 1.340 . S
N119 C122 1.361 . S
C120 H106 0.930 . S
C120 N119 1.340 . S
C120 C124 1.407 . S
C121 C122 1.413 . S
C121 C123 1.416 . S
C121 C150 1.427 . S
C122 C114 1.424 . S
C122 N119 1.361 . S
C122 C121 1.413 . S
C123 H112 0.931 . S
C123 C121 1.416 . S
C123 C124 1.332 . S
C124 H103 0.929 . S
C124 C120 1.407 . S
C124 C123 1.332 . S
H125 C118 0.930 . S
H126 C149 0.930 . S
H127 C150 0.929 . S
O128 Tb84 2.465 . S
O128 C148 1.264 . S
O129 Tb84 2.387 . S
O129 C140 1.264 . S
O130 Tb95 2.349 . S
O130 C140 1.243 . S
O131 Tb84 2.428 . S
O131 C148 1.256 . S
O132 Tb84 2.308 . S
O132 C147 1.266 . S
O133 Tb95 2.393 . S
O133 C147 1.248 . S
O134 Tb95 2.465 . S
O134 C159 1.264 . S
O135 Tb95 2.387 . S
O135 C151 1.264 . S
O136 Tb84 2.349 . S
O136 C151 1.243 . S
O137 Tb95 2.428 . S
O137 C159 1.256 . S
O138 Tb95 2.308 . S
O138 C158 1.266 . S
O139 Tb84 2.393 . S
O139 C158 1.248 . S
C140 O129 1.264 . S
C140 O130 1.243 . S
C141 C144 1.399 . S
C141 C146 1.383 . S
C141 C148 1.496 . S
C142 C143 1.399 . S
C142 C146 1.389 . S
C143 C142 1.399 . S
C143 C145 1.380 . S
C143 H160 0.929 . S
C144 C141 1.399 . S
C144 C145 1.392 . S
C144 H161 0.929 . S
C145 C143 1.380 . S
C145 C144 1.392 . S
C145 H162 0.929 . S
C146 C141 1.383 . S
C146 C142 1.389 . S
C146 H163 0.931 . S
C147 O132 1.266 . S
C147 O133 1.248 . S
C148 Tb84 2.802 . S
C148 O128 1.264 . S
C148 O131 1.256 . S
C148 C141 1.496 . S
C149 C116 1.448 . S
C149 H126 0.930 . S
C149 C150 1.328 . S
C150 C121 1.427 . S
C150 H127 0.929 . S
C150 C149 1.328 . S
C151 O135 1.264 . S
C151 O136 1.243 . S
C152 C155 1.399 . S
C152 C156 1.383 . S
C152 C159 1.496 . S
C153 C154 1.399 . S
C153 C156 1.389 . S
C154 C153 1.399 . S
C154 C157 1.380 . S
C154 H164 0.929 . S
C155 C152 1.399 . S
C155 C157 1.392 . S
C155 H165 0.929 . S
C156 C152 1.383 . S
C156 C153 1.389 . S
C156 H166 0.931 . S
C157 C154 1.380 . S
C157 C155 1.392 . S
C157 H167 0.929 . S
C158 O138 1.266 . S
C158 O139 1.248 . S
C159 Tb95 2.802 . S
C159 O134 1.264 . S
C159 O137 1.256 . S
C159 C152 1.496 . S
H160 C143 0.929 . S
H161 C144 0.929 . S
H162 C145 0.929 . S
H163 C146 0.931 . S
H164 C154 0.929 . S
H165 C155 0.929 . S
H166 C156 0.931 . S
H167 C157 0.929 . S
Tb168 N197 2.617 . S
Tb168 N203 2.572 . S
Tb168 O212 2.465 . S
Tb168 O213 2.387 . S
Tb168 O215 2.428 . S
Tb168 O216 2.308 . S
Tb168 O220 2.349 . S
Tb168 O223 2.393 . S
Tb168 C232 2.802 . S
C169 N170 1.379 . S
C169 C172 1.416 1_554 S
C169 C176 1.424 . S
N170 C169 1.379 . S
N170 C173 1.334 . S
N170 Tb179 2.617 . S
C171 C173 1.390 . S
C171 C174 1.339 1_554 S
C171 H191 0.930 . S
C172 C169 1.416 1_556 S
C172 C174 1.416 . S
C172 C178 1.448 . S
C173 N170 1.334 . S
C173 C171 1.390 . S
C173 H184 0.930 . S
C174 C171 1.339 1_556 S
C174 C172 1.416 . S
C174 H195 0.930 . S
C175 C176 1.412 1_556 S
C175 C177 1.427 . S
C175 C181 1.416 . S
C176 C169 1.424 . S
C176 C175 1.412 1_554 S
C176 N180 1.362 . S
C177 C175 1.427 . S
C177 C178 1.328 . S
C177 H192 0.929 . S
C178 C172 1.448 . S
C178 C177 1.328 . S
C178 H193 0.930 . S
Tb179 N170 2.617 . S
Tb179 N180 2.572 . S
Tb179 O214 2.349 . S
Tb179 O217 2.393 . S
Tb179 O218 2.465 . S
Tb179 O219 2.387 . S
Tb179 O221 2.428 . S
Tb179 O222 2.308 . S
Tb179 C243 2.802 . S
N180 C176 1.362 . S
N180 Tb179 2.572 . S
N180 C182 1.340 . S
C181 C175 1.416 . S
C181 C183 1.332 . S
C181 H189 0.931 . S
C182 N180 1.340 . S
C182 C183 1.407 1_554 S
C182 H188 0.930 . S
C183 C181 1.332 . S
C183 C182 1.407 1_556 S
C183 H185 0.929 . S
H184 C173 0.930 . S
H185 C183 0.929 . S
H186 C201 0.930 . S
H187 C208 0.929 . S
H188 C182 0.930 . S
H189 C181 0.931 . S
H190 C204 0.930 . S
H191 C171 0.930 . S
H192 C177 0.929 . S
H193 C178 0.930 . S
H194 C199 0.930 . S
H195 C174 0.930 . S
H196 C207 0.931 . S
N197 Tb168 2.617 . S
N197 C198 1.379 . S
N197 C201 1.334 . S
C198 N197 1.379 . S
C198 C200 1.416 . S
C198 C206 1.424 . S
C199 H194 0.930 . S
C199 C201 1.390 . S
C199 C202 1.339 . S
C200 C198 1.416 . S
C200 C202 1.416 . S
C200 C233 1.448 . S
C201 H186 0.930 . S
C201 N197 1.334 . S
C201 C199 1.390 . S
C202 C199 1.339 . S
C202 C200 1.416 . S
C202 H209 0.930 . S
N203 Tb168 2.572 . S
N203 C204 1.340 . S
N203 C206 1.361 . S
C204 H190 0.930 . S
C204 N203 1.340 . S
C204 C208 1.407 . S
C205 C206 1.413 . S
C205 C207 1.416 . S
C205 C234 1.427 . S
C206 C198 1.424 . S
C206 N203 1.361 . S
C206 C205 1.413 . S
C207 H196 0.931 . S
C207 C205 1.416 . S
C207 C208 1.332 . S
C208 H187 0.929 . S
C208 C204 1.407 . S
C208 C207 1.332 . S
H209 C202 0.930 . S
H210 C233 0.930 . S
H211 C234 0.929 . S
O212 Tb168 2.465 . S
O212 C232 1.264 . S
O213 Tb168 2.387 . S
O213 C224 1.264 . S
O214 Tb179 2.349 . S
O214 C224 1.243 . S
O215 Tb168 2.428 . S
O215 C232 1.256 . S
O216 Tb168 2.308 . S
O216 C231 1.266 . S
O217 Tb179 2.393 . S
O217 C231 1.248 . S
O218 Tb179 2.465 . S
O218 C243 1.264 . S
O219 Tb179 2.387 . S
O219 C235 1.264 . S
O220 Tb168 2.349 . S
O220 C235 1.243 . S
O221 Tb179 2.428 . S
O221 C243 1.256 . S
O222 Tb179 2.308 . S
O222 C242 1.266 . S
O223 Tb168 2.393 . S
O223 C242 1.248 . S
C224 O213 1.264 . S
C224 O214 1.243 . S
C225 C228 1.399 . S
C225 C230 1.383 . S
C225 C232 1.496 . S
C226 C227 1.399 . S
C226 C230 1.389 . S
C227 C226 1.399 . S
C227 C229 1.380 . S
C227 H244 0.929 . S
C228 C225 1.399 . S
C228 C229 1.392 . S
C228 H245 0.929 . S
C229 C227 1.380 . S
C229 C228 1.392 . S
C229 H246 0.929 . S
C230 C225 1.383 . S
C230 C226 1.389 . S
C230 H247 0.931 . S
C231 O216 1.266 . S
C231 O217 1.248 . S
C232 Tb168 2.802 . S
C232 O212 1.264 . S
C232 O215 1.256 . S
C232 C225 1.496 . S
C233 C200 1.448 . S
C233 H210 0.930 . S
C233 C234 1.328 . S
C234 C205 1.427 . S
C234 H211 0.929 . S
C234 C233 1.328 . S
C235 O219 1.264 . S
C235 O220 1.243 . S
C236 C239 1.399 . S
C236 C240 1.383 . S
C236 C243 1.496 . S
C237 C238 1.399 . S
C237 C240 1.389 . S
C238 C237 1.399 . S
C238 C241 1.380 . S
C238 H248 0.929 . S
C239 C236 1.399 . S
C239 C241 1.392 . S
C239 H249 0.929 . S
C240 C236 1.383 . S
C240 C237 1.389 . S
C240 H250 0.931 . S
C241 C238 1.380 . S
C241 C239 1.392 . S
C241 H251 0.929 . S
C242 O222 1.266 . S
C242 O223 1.248 . S
C243 Tb179 2.802 . S
C243 O218 1.264 . S
C243 O221 1.256 . S
C243 C236 1.496 . S
H244 C227 0.929 . S
H245 C228 0.929 . S
H246 C229 0.929 . S
H247 C230 0.931 . S
H248 C238 0.929 . S
H249 C239 0.929 . S
H250 C240 0.931 . S
H251 C241 0.929 . S
Tb252 N281 2.617 . S
Tb252 N287 2.572 . S
Tb252 O296 2.465 . S
Tb252 O297 2.387 . S
Tb252 O299 2.428 . S
Tb252 O300 2.308 . S
Tb252 O304 2.349 . S
Tb252 O307 2.393 . S
Tb252 C316 2.802 . S
C253 N254 1.379 . S
C253 C256 1.416 . S
C253 C260 1.424 . S
N254 C253 1.379 . S
N254 C257 1.334 . S
N254 Tb263 2.617 . S
C255 C257 1.390 . S
C255 C258 1.339 . S
C255 H275 0.930 . S
C256 C253 1.416 . S
C256 C258 1.416 . S
C256 C262 1.448 . S
C257 N254 1.334 . S
C257 C255 1.390 . S
C257 H268 0.930 . S
C258 C255 1.339 . S
C258 C256 1.416 . S
C258 H279 0.930 . S
C259 C260 1.413 . S
C259 C261 1.427 . S
C259 C265 1.416 . S
C260 C253 1.424 . S
C260 C259 1.413 . S
C260 N264 1.361 . S
C261 C259 1.427 . S
C261 C262 1.328 . S
C261 H276 0.929 . S
C262 C256 1.448 . S
C262 C261 1.328 . S
C262 H277 0.930 . S
Tb263 N254 2.617 . S
Tb263 N264 2.572 . S
Tb263 O298 2.349 . S
Tb263 O301 2.393 . S
Tb263 O302 2.465 . S
Tb263 O303 2.387 . S
Tb263 O305 2.428 . S
Tb263 O306 2.308 . S
Tb263 C327 2.802 . S
N264 C260 1.361 . S
N264 Tb263 2.572 . S
N264 C266 1.340 . S
C265 C259 1.416 . S
C265 C267 1.332 . S
C265 H273 0.931 . S
C266 N264 1.340 . S
C266 C267 1.407 . S
C266 H272 0.930 . S
C267 C265 1.332 . S
C267 C266 1.407 . S
C267 H269 0.929 . S
H268 C257 0.930 . S
H269 C267 0.929 . S
H270 C285 0.930 . S
H271 C292 0.929 . S
H272 C266 0.930 . S
H273 C265 0.931 . S
H274 C288 0.930 . S
H275 C255 0.930 . S
H276 C261 0.929 . S
H277 C262 0.930 . S
H278 C283 0.930 . S
H279 C258 0.930 . S
H280 C291 0.931 . S
N281 Tb252 2.617 . S
N281 C282 1.379 . S
N281 C285 1.334 . S
C282 N281 1.379 . S
C282 C284 1.416 . S
C282 C290 1.424 . S
C283 H278 0.930 . S
C283 C285 1.390 . S
C283 C286 1.339 . S
C284 C282 1.416 . S
C284 C286 1.416 . S
C284 C317 1.448 . S
C285 H270 0.930 . S
C285 N281 1.334 . S
C285 C283 1.390 . S
C286 C283 1.339 . S
C286 C284 1.416 . S
C286 H293 0.930 . S
N287 Tb252 2.572 . S
N287 C288 1.340 . S
N287 C290 1.361 . S
C288 H274 0.930 . S
C288 N287 1.340 . S
C288 C292 1.407 . S
C289 C290 1.413 . S
C289 C291 1.416 . S
C289 C318 1.427 . S
C290 C282 1.424 . S
C290 N287 1.361 . S
C290 C289 1.413 . S
C291 H280 0.931 . S
C291 C289 1.416 . S
C291 C292 1.332 . S
C292 H271 0.929 . S
C292 C288 1.407 . S
C292 C291 1.332 . S
H293 C286 0.930 . S
H294 C317 0.930 . S
H295 C318 0.929 . S
O296 Tb252 2.465 . S
O296 C316 1.264 . S
O297 Tb252 2.387 . S
O297 C308 1.264 . S
O298 Tb263 2.349 . S
O298 C308 1.243 . S
O299 Tb252 2.428 . S
O299 C316 1.256 . S
O300 Tb252 2.308 . S
O300 C315 1.266 . S
O301 Tb263 2.393 . S
O301 C315 1.248 . S
O302 Tb263 2.465 . S
O302 C327 1.264 . S
O303 Tb263 2.387 . S
O303 C319 1.264 . S
O304 Tb252 2.349 . S
O304 C319 1.243 . S
O305 Tb263 2.428 . S
O305 C327 1.256 . S
O306 Tb263 2.308 . S
O306 C326 1.266 . S
O307 Tb252 2.393 . S
O307 C326 1.248 . S
C308 O297 1.264 . S
C308 O298 1.243 . S
C309 C312 1.399 . S
C309 C314 1.383 . S
C309 C316 1.496 . S
C310 C311 1.399 . S
C310 C314 1.389 . S
C311 C310 1.399 . S
C311 C313 1.380 . S
C311 H328 0.929 . S
C312 C309 1.399 . S
C312 C313 1.392 . S
C312 H329 0.929 . S
C313 C311 1.380 . S
C313 C312 1.392 . S
C313 H330 0.929 . S
C314 C309 1.383 . S
C314 C310 1.389 . S
C314 H331 0.931 . S
C315 O300 1.266 . S
C315 O301 1.248 . S
C316 Tb252 2.802 . S
C316 O296 1.264 . S
C316 O299 1.256 . S
C316 C309 1.496 . S
C317 C284 1.448 . S
C317 H294 0.930 . S
C317 C318 1.328 . S
C318 C289 1.427 . S
C318 H295 0.929 . S
C318 C317 1.328 . S
C319 O303 1.264 . S
C319 O304 1.243 . S
C320 C323 1.399 . S
C320 C324 1.383 . S
C320 C327 1.496 . S
C321 C322 1.399 . S
C321 C324 1.389 . S
C322 C321 1.399 . S
C322 C325 1.380 . S
C322 H332 0.929 . S
C323 C320 1.399 . S
C323 C325 1.392 . S
C323 H333 0.929 . S
C324 C320 1.383 . S
C324 C321 1.389 . S
C324 H334 0.931 . S
C325 C322 1.380 . S
C325 C323 1.392 . S
C325 H335 0.929 . S
C326 O306 1.266 . S
C326 O307 1.248 . S
C327 Tb263 2.802 . S
C327 O302 1.264 . S
C327 O305 1.256 . S
C327 C320 1.496 . S
H328 C311 0.929 . S
H329 C312 0.929 . S
H330 C313 0.929 . S
H331 C314 0.931 . S
H332 C322 0.929 . S
H333 C323 0.929 . S
H334 C324 0.931 . S
H335 C325 0.929 . S
Tb336 N365 2.617 . S
Tb336 N371 2.572 . S
Tb336 O380 2.465 . S
Tb336 O381 2.387 . S
Tb336 O383 2.428 . S
Tb336 O384 2.308 . S
Tb336 O388 2.349 . S
Tb336 O391 2.393 . S
Tb336 C400 2.802 . S
C337 N338 1.379 . S
C337 C340 1.416 . S
C337 C344 1.424 . S
N338 C337 1.379 . S
N338 C341 1.334 . S
N338 Tb347 2.617 . S
C339 C341 1.390 . S
C339 C342 1.339 . S
C339 H359 0.930 . S
C340 C337 1.416 . S
C340 C342 1.416 . S
C340 C346 1.448 . S
C341 N338 1.334 . S
C341 C339 1.390 . S
C341 H352 0.930 . S
C342 C339 1.339 . S
C342 C340 1.416 . S
C342 H363 0.930 . S
C343 C344 1.413 . S
C343 C345 1.427 . S
C343 C349 1.416 . S
C344 C337 1.424 . S
C344 C343 1.413 . S
C344 N348 1.361 . S
C345 C343 1.427 . S
C345 C346 1.328 . S
C345 H360 0.929 . S
C346 C340 1.448 . S
C346 C345 1.328 . S
C346 H361 0.930 . S
Tb347 N338 2.617 . S
Tb347 N348 2.572 . S
Tb347 O382 2.349 . S
Tb347 O385 2.393 . S
Tb347 O386 2.465 . S
Tb347 O387 2.387 . S
Tb347 O389 2.428 . S
Tb347 O390 2.308 . S
Tb347 C411 2.802 . S
N348 C344 1.361 . S
N348 Tb347 2.572 . S
N348 C350 1.340 . S
C349 C343 1.416 . S
C349 C351 1.332 . S
C349 H357 0.931 . S
C350 N348 1.340 . S
C350 C351 1.407 . S
C350 H356 0.930 . S
C351 C349 1.332 . S
C351 C350 1.407 . S
C351 H353 0.929 . S
H352 C341 0.930 . S
H353 C351 0.929 . S
H354 C369 0.930 . S
H355 C376 0.929 . S
H356 C350 0.930 . S
H357 C349 0.931 . S
H358 C372 0.930 . S
H359 C339 0.930 . S
H360 C345 0.929 . S
H361 C346 0.930 . S
H362 C367 0.930 . S
H363 C342 0.930 . S
H364 C375 0.931 . S
N365 Tb336 2.617 . S
N365 C366 1.379 . S
N365 C369 1.334 . S
C366 N365 1.379 . S
C366 C368 1.416 1_556 S
C366 C374 1.424 . S
C367 H362 0.930 . S
C367 C369 1.390 . S
C367 C370 1.339 1_556 S
C368 C366 1.416 1_554 S
C368 C370 1.416 . S
C368 C401 1.448 . S
C369 H354 0.930 . S
C369 N365 1.334 . S
C369 C367 1.390 . S
C370 C367 1.339 1_554 S
C370 C368 1.416 . S
C370 H377 0.930 . S
N371 Tb336 2.572 . S
N371 C372 1.340 . S
N371 C374 1.362 . S
C372 H358 0.930 . S
C372 N371 1.340 . S
C372 C376 1.407 1_556 S
C373 C374 1.412 1_554 S
C373 C375 1.416 . S
C373 C402 1.427 . S
C374 C366 1.424 . S
C374 N371 1.362 . S
C374 C373 1.412 1_556 S
C375 H364 0.931 . S
C375 C373 1.416 . S
C375 C376 1.332 . S
C376 H355 0.929 . S
C376 C372 1.407 1_554 S
C376 C375 1.332 . S
H377 C370 0.930 . S
H378 C401 0.930 . S
H379 C402 0.929 . S
O380 Tb336 2.465 . S
O380 C400 1.264 . S
O381 Tb336 2.387 . S
O381 C392 1.264 . S
O382 Tb347 2.349 . S
O382 C392 1.243 . S
O383 Tb336 2.428 . S
O383 C400 1.256 . S
O384 Tb336 2.308 . S
O384 C399 1.266 . S
O385 Tb347 2.393 . S
O385 C399 1.248 . S
O386 Tb347 2.465 . S
O386 C411 1.264 . S
O387 Tb347 2.387 . S
O387 C403 1.264 . S
O388 Tb336 2.349 . S
O388 C403 1.243 . S
O389 Tb347 2.428 . S
O389 C411 1.256 . S
O390 Tb347 2.308 . S
O390 C410 1.266 . S
O391 Tb336 2.393 . S
O391 C410 1.248 . S
C392 O381 1.264 . S
C392 O382 1.243 . S
C393 C396 1.399 . S
C393 C398 1.383 . S
C393 C400 1.496 . S
C394 C395 1.399 . S
C394 C398 1.389 . S
C395 C394 1.399 . S
C395 C397 1.380 . S
C395 H412 0.929 . S
C396 C393 1.399 . S
C396 C397 1.392 . S
C396 H413 0.929 . S
C397 C395 1.380 . S
C397 C396 1.392 . S
C397 H414 0.929 . S
C398 C393 1.383 . S
C398 C394 1.389 . S
C398 H415 0.931 . S
C399 O384 1.266 . S
C399 O385 1.248 . S
C400 Tb336 2.802 . S
C400 O380 1.264 . S
C400 O383 1.256 . S
C400 C393 1.496 . S
C401 C368 1.448 . S
C401 H378 0.930 . S
C401 C402 1.328 . S
C402 C373 1.427 . S
C402 H379 0.929 . S
C402 C401 1.328 . S
C403 O387 1.264 . S
C403 O388 1.243 . S
C404 C407 1.399 . S
C404 C408 1.383 . S
C404 C411 1.496 1_545 S
C405 C406 1.399 . S
C405 C408 1.389 . S
C406 C405 1.399 . S
C406 C409 1.380 . S
C406 H416 0.929 . S
C407 C404 1.399 . S
C407 C409 1.392 . S
C407 H417 0.929 . S
C408 C404 1.383 . S
C408 C405 1.389 . S
C408 H418 0.931 . S
C409 C406 1.380 . S
C409 C407 1.392 . S
C409 H419 0.929 . S
C410 O390 1.266 . S
C410 O391 1.248 . S
C411 Tb347 2.802 . S
C411 O386 1.264 . S
C411 O389 1.256 . S
C411 C404 1.496 1_565 S
H412 C395 0.929 . S
H413 C396 0.929 . S
H414 C397 0.929 . S
H415 C398 0.931 . S
H416 C406 0.929 . S
H417 C407 0.929 . S
H418 C408 0.931 . S
H419 C409 0.929 . S
Tb420 N449 2.617 . S
Tb420 N455 2.572 . S
Tb420 O464 2.465 . S
Tb420 O465 2.387 . S
Tb420 O467 2.428 . S
Tb420 O468 2.308 . S
Tb420 O472 2.349 . S
Tb420 O475 2.393 . S
Tb420 C484 2.802 . S
C421 N422 1.379 . S
C421 C424 1.416 . S
C421 C428 1.424 . S
N422 C421 1.379 . S
N422 C425 1.334 . S
N422 Tb431 2.617 . S
C423 C425 1.390 . S
C423 C426 1.339 . S
C423 H443 0.930 . S
C424 C421 1.416 . S
C424 C426 1.416 . S
C424 C430 1.448 . S
C425 N422 1.334 . S
C425 C423 1.390 . S
C425 H436 0.930 . S
C426 C423 1.339 . S
C426 C424 1.416 . S
C426 H447 0.930 . S
C427 C428 1.413 . S
C427 C429 1.427 . S
C427 C433 1.416 . S
C428 C421 1.424 . S
C428 C427 1.413 . S
C428 N432 1.361 . S
C429 C427 1.427 . S
C429 C430 1.328 . S
C429 H444 0.929 . S
C430 C424 1.448 . S
C430 C429 1.328 . S
C430 H445 0.930 . S
Tb431 N422 2.617 . S
Tb431 N432 2.572 . S
Tb431 O466 2.349 . S
Tb431 O469 2.393 . S
Tb431 O470 2.465 . S
Tb431 O471 2.387 . S
Tb431 O473 2.428 . S
Tb431 O474 2.308 . S
Tb431 C495 2.802 . S
N432 C428 1.361 . S
N432 Tb431 2.572 . S
N432 C434 1.340 . S
C433 C427 1.416 . S
C433 C435 1.332 . S
C433 H441 0.931 . S
C434 N432 1.340 . S
C434 C435 1.407 . S
C434 H440 0.930 . S
C435 C433 1.332 . S
C435 C434 1.407 . S
C435 H437 0.929 . S
H436 C425 0.930 . S
H437 C435 0.929 . S
H438 C453 0.930 . S
H439 C460 0.929 . S
H440 C434 0.930 . S
H441 C433 0.931 . S
H442 C456 0.930 . S
H443 C423 0.930 . S
H444 C429 0.929 . S
H445 C430 0.930 . S
H446 C451 0.930 . S
H447 C426 0.930 . S
H448 C459 0.931 . S
N449 Tb420 2.617 . S
N449 C450 1.379 . S
N449 C453 1.334 . S
C450 N449 1.379 . S
C450 C452 1.416 . S
C450 C458 1.424 . S
C451 H446 0.930 . S
C451 C453 1.390 . S
C451 C454 1.339 . S
C452 C450 1.416 . S
C452 C454 1.416 . S
C452 C485 1.448 . S
C453 H438 0.930 . S
C453 N449 1.334 . S
C453 C451 1.390 . S
C454 C451 1.339 . S
C454 C452 1.416 . S
C454 H461 0.930 . S
N455 Tb420 2.572 . S
N455 C456 1.340 . S
N455 C458 1.361 . S
C456 H442 0.930 . S
C456 N455 1.340 . S
C456 C460 1.407 . S
C457 C458 1.413 . S
C457 C459 1.416 . S
C457 C486 1.427 . S
C458 C450 1.424 . S
C458 N455 1.361 . S
C458 C457 1.413 . S
C459 H448 0.931 . S
C459 C457 1.416 . S
C459 C460 1.332 . S
C460 H439 0.929 . S
C460 C456 1.407 . S
C460 C459 1.332 . S
H461 C454 0.930 . S
H462 C485 0.930 . S
H463 C486 0.929 . S
O464 Tb420 2.465 . S
O464 C484 1.264 . S
O465 Tb420 2.387 . S
O465 C476 1.264 . S
O466 Tb431 2.349 . S
O466 C476 1.243 . S
O467 Tb420 2.428 . S
O467 C484 1.256 . S
O468 Tb420 2.308 . S
O468 C483 1.266 . S
O469 Tb431 2.393 . S
O469 C483 1.248 . S
O470 Tb431 2.465 . S
O470 C495 1.264 . S
O471 Tb431 2.387 . S
O471 C487 1.264 . S
O472 Tb420 2.349 . S
O472 C487 1.243 . S
O473 Tb431 2.428 . S
O473 C495 1.256 . S
O474 Tb431 2.308 . S
O474 C494 1.266 . S
O475 Tb420 2.393 . S
O475 C494 1.248 . S
C476 O465 1.264 . S
C476 O466 1.243 . S
C477 C480 1.399 1_655 S
C477 C482 1.383 . S
C477 C484 1.496 . S
C478 C479 1.399 . S
C478 C482 1.389 1_455 S
C479 C478 1.399 . S
C479 C481 1.380 . S
C479 H496 0.929 . S
C480 C477 1.399 1_455 S
C480 C481 1.392 . S
C480 H497 0.929 . S
C481 C479 1.380 . S
C481 C480 1.392 . S
C481 H498 0.929 . S
C482 C477 1.383 . S
C482 C478 1.389 1_655 S
C482 H499 0.931 . S
C483 O468 1.266 . S
C483 O469 1.248 . S
C484 Tb420 2.802 . S
C484 O464 1.264 . S
C484 O467 1.256 . S
C484 C477 1.496 . S
C485 C452 1.448 . S
C485 H462 0.930 . S
C485 C486 1.328 . S
C486 C457 1.427 . S
C486 H463 0.929 . S
C486 C485 1.328 . S
C487 O471 1.264 . S
C487 O472 1.243 . S
C488 C491 1.399 . S
C488 C492 1.383 . S
C488 C495 1.496 . S
C489 C490 1.399 . S
C489 C492 1.389 . S
C490 C489 1.399 . S
C490 C493 1.380 . S
C490 H500 0.929 . S
C491 C488 1.399 . S
C491 C493 1.392 . S
C491 H501 0.929 . S
C492 C488 1.383 . S
C492 C489 1.389 . S
C492 H502 0.931 . S
C493 C490 1.380 . S
C493 C491 1.392 . S
C493 H503 0.929 . S
C494 O474 1.266 . S
C494 O475 1.248 . S
C495 Tb431 2.802 . S
C495 O470 1.264 . S
C495 O473 1.256 . S
C495 C488 1.496 . S
H496 C479 0.929 . S
H497 C480 0.929 . S
H498 C481 0.929 . S
H499 C482 0.931 . S
H500 C490 0.929 . S
H501 C491 0.929 . S
H502 C492 0.931 . S
H503 C493 0.929 . S
Tb504 N533 2.617 . S
Tb504 N539 2.572 . S
Tb504 O548 2.465 1_565 S
Tb504 O549 2.387 . S
Tb504 O551 2.428 . S
Tb504 O552 2.308 . S
Tb504 O556 2.349 . S
Tb504 O559 2.373 1_455 S
Tb504 C568 2.802 1_565 S
C505 N506 1.379 1_554 S
C505 C508 1.416 . S
C505 C512 1.424 . S
N506 C505 1.379 1_556 S
N506 C509 1.334 . S
N506 Tb515 2.617 . S
C507 C509 1.390 1_554 S
C507 C510 1.339 . S
C507 H527 0.930 . S
C508 C505 1.416 . S
C508 C510 1.416 . S
C508 C514 1.448 . S
C509 N506 1.334 . S
C509 C507 1.390 1_556 S
C509 H520 0.930 . S
C510 C507 1.339 . S
C510 C508 1.416 . S
C510 H531 0.930 . S
C511 C512 1.413 . S
C511 C513 1.427 . S
C511 C517 1.422 . S
C512 C505 1.424 . S
C512 C511 1.413 . S
C512 N516 1.361 1_554 S
C513 C511 1.427 . S
C513 C514 1.328 . S
C513 H528 0.929 . S
C514 C508 1.448 . S
C514 C513 1.328 . S
C514 H529 0.928 1_565 S
Tb515 N506 2.617 . S
Tb515 N516 2.572 . S
Tb515 O550 2.349 . S
Tb515 O553 2.393 . S
Tb515 O554 2.465 . S
Tb515 O555 2.387 . S
Tb515 O557 2.428 . S
Tb515 O558 2.308 . S
Tb515 C579 2.802 . S
N516 C512 1.361 1_556 S
N516 Tb515 2.572 . S
N516 C518 1.340 1_455 S
C517 C511 1.422 . S
C517 C519 1.330 1_455 S
C517 H525 0.928 1_455 S
C518 N516 1.340 1_655 S
C518 C519 1.407 1_556 S
C518 H524 0.930 . S
C519 C517 1.330 1_655 S
C519 C518 1.407 1_554 S
C519 H521 0.929 . S
H520 C509 0.930 . S
H521 C519 0.929 . S
H522 C537 0.930 . S
H523 C544 0.929 . S
H524 C518 0.930 . S
H525 C517 0.928 1_655 S
H526 C540 0.930 . S
H527 C507 0.930 . S
H528 C513 0.929 . S
H529 C514 0.928 1_545 S
H530 C535 0.930 . S
H531 C510 0.930 . S
H532 C543 0.931 . S
N533 Tb504 2.617 . S
N533 C534 1.379 . S
N533 C537 1.334 1_455 S
C534 N533 1.379 . S
C534 C536 1.416 . S
C534 C542 1.424 . S
C535 H530 0.930 . S
C535 C537 1.390 . S
C535 C538 1.339 . S
C536 C534 1.416 . S
C536 C538 1.416 1_455 S
C536 C569 1.448 . S
C537 H522 0.930 . S
C537 N533 1.334 1_655 S
C537 C535 1.390 . S
C538 C535 1.339 . S
C538 C536 1.416 1_655 S
C538 H545 0.930 . S
N539 Tb504 2.572 . S
N539 C540 1.340 . S
N539 C542 1.361 . S
C540 H526 0.930 . S
C540 N539 1.340 . S
C540 C544 1.407 . S
C541 C542 1.413 . S
C541 C543 1.416 . S
C541 C570 1.427 . S
C542 C534 1.424 . S
C542 N539 1.361 . S
C542 C541 1.413 . S
C543 H532 0.931 . S
C543 C541 1.416 . S
C543 C544 1.332 . S
C544 H523 0.929 . S
C544 C540 1.407 . S
C544 C543 1.332 . S
H545 C538 0.930 . S
H546 C569 0.930 . S
H547 C570 0.929 . S
O548 Tb504 2.465 1_545 S
O548 C568 1.264 . S
O549 Tb504 2.387 . S
O549 C560 1.264 . S
O550 Tb515 2.349 . S
O550 C560 1.243 . S
O551 Tb504 2.428 . S
O551 C568 1.256 1_565 S
O552 Tb504 2.308 . S
O552 C567 1.266 . S
O553 Tb515 2.393 . S
O553 C567 1.248 . S
O554 Tb515 2.465 . S
O554 C579 1.264 . S
O555 Tb515 2.387 . S
O555 C571 1.264 . S
O556 Tb504 2.349 . S
O556 C571 1.243 . S
O557 Tb515 2.428 . S
O557 C579 1.256 . S
O558 Tb515 2.308 . S
O558 C578 1.266 1_455 S
O559 Tb504 2.373 1_655 S
O559 C578 1.250 . S
C560 O549 1.264 . S
C560 O550 1.243 . S
C561 C564 1.399 . S
C561 C566 1.383 . S
C561 C568 1.496 . S
C562 C563 1.399 . S
C562 C566 1.389 . S
C563 C562 1.399 . S
C563 C565 1.380 . S
C563 H580 0.929 . S
C564 C561 1.399 . S
C564 C565 1.392 . S
C564 H581 0.929 . S
C565 C563 1.380 . S
C565 C564 1.392 . S
C565 H582 0.929 . S
C566 C561 1.383 . S
C566 C562 1.389 . S
C566 H583 0.931 . S
C567 O552 1.266 . S
C567 O553 1.248 . S
C568 Tb504 2.802 1_545 S
C568 O548 1.264 . S
C568 O551 1.256 1_545 S
C568 C561 1.496 . S
C569 C536 1.448 . S
C569 H546 0.930 . S
C569 C570 1.328 . S
C570 C541 1.427 . S
C570 H547 0.929 . S
C570 C569 1.328 . S
C571 O555 1.264 . S
C571 O556 1.243 . S
C572 C575 1.399 . S
C572 C576 1.383 1_455 S
C572 C579 1.496 . S
C573 C574 1.399 1_655 S
C573 C576 1.389 . S
C574 C573 1.399 1_455 S
C574 C577 1.380 . S
C574 H584 0.929 . S
C575 C572 1.399 . S
C575 C577 1.392 . S
C575 H585 0.929 . S
C576 C572 1.383 1_655 S
C576 C573 1.389 . S
C576 H586 0.931 . S
C577 C574 1.380 . S
C577 C575 1.392 . S
C577 H587 0.929 . S
C578 O558 1.266 1_655 S
C578 O559 1.250 . S
C579 Tb515 2.802 . S
C579 O554 1.264 . S
C579 O557 1.256 . S
C579 C572 1.496 . S
H580 C563 0.929 . S
H581 C564 0.929 . S
H582 C565 0.929 . S
H583 C566 0.931 . S
H584 C574 0.929 . S
H585 C575 0.929 . S
H586 C576 0.931 . S
H587 C577 0.929 . S
Tb588 N617 2.617 . S
Tb588 N623 2.572 . S
Tb588 O632 2.465 . S
Tb588 O633 2.387 . S
Tb588 O635 2.428 . S
Tb588 O636 2.308 . S
Tb588 O640 2.339 1_545 S
Tb588 O643 2.393 . S
Tb588 C652 2.802 . S
C589 N590 1.379 . S
C589 C592 1.416 . S
C589 C596 1.424 . S
N590 C589 1.379 . S
N590 C593 1.334 . S
N590 Tb599 2.617 1_565 S
C591 C593 1.390 . S
C591 C594 1.339 . S
C591 H611 0.930 . S
C592 C589 1.416 . S
C592 C594 1.416 . S
C592 C598 1.448 . S
C593 N590 1.334 . S
C593 C591 1.390 . S
C593 H604 0.930 1_565 S
C594 C591 1.339 . S
C594 C592 1.416 . S
C594 H615 0.930 . S
C595 C596 1.413 . S
C595 C597 1.427 . S
C595 C601 1.416 . S
C596 C589 1.424 . S
C596 C595 1.413 . S
C596 N600 1.361 . S
C597 C595 1.427 . S
C597 C598 1.328 . S
C597 H612 0.929 . S
C598 C592 1.448 . S
C598 C597 1.328 . S
C598 H613 0.930 . S
Tb599 N590 2.617 1_545 S
Tb599 N600 2.572 1_545 S
Tb599 O634 2.349 . S
Tb599 O637 2.393 . S
Tb599 O638 2.465 . S
Tb599 O639 2.387 1_545 S
Tb599 O641 2.428 . S
Tb599 O642 2.308 . S
Tb599 C663 2.802 . S
N600 C596 1.361 . S
N600 Tb599 2.572 1_565 S
N600 C602 1.340 . S
C601 C595 1.416 . S
C601 C603 1.332 . S
C601 H609 0.931 . S
C602 N600 1.340 . S
C602 C603 1.407 . S
C602 H608 0.930 . S
C603 C601 1.332 . S
C603 C602 1.407 . S
C603 H605 0.929 . S
H604 C593 0.930 1_545 S
H605 C603 0.929 . S
H606 C621 0.930 . S
H607 C628 0.929 . S
H608 C602 0.930 . S
H609 C601 0.931 . S
H610 C624 0.930 . S
H611 C591 0.930 . S
H612 C597 0.929 . S
H613 C598 0.930 . S
H614 C619 0.930 . S
H615 C594 0.930 . S
H616 C627 0.931 . S
N617 Tb588 2.617 . S
N617 C618 1.379 . S
N617 C621 1.334 . S
C618 N617 1.379 . S
C618 C620 1.416 . S
C618 C626 1.424 . S
C619 H614 0.930 . S
C619 C621 1.390 . S
C619 C622 1.339 . S
C620 C618 1.416 . S
C620 C622 1.416 . S
C620 C653 1.448 . S
C621 H606 0.930 . S
C621 N617 1.334 . S
C621 C619 1.390 . S
C622 C619 1.339 . S
C622 C620 1.416 . S
C622 H629 0.930 . S
N623 Tb588 2.572 . S
N623 C624 1.340 . S
N623 C626 1.361 . S
C624 H610 0.930 . S
C624 N623 1.340 . S
C624 C628 1.407 . S
C625 C626 1.413 . S
C625 C627 1.416 . S
C625 C654 1.427 . S
C626 C618 1.424 . S
C626 N623 1.361 . S
C626 C625 1.413 . S
C627 H616 0.931 . S
C627 C625 1.416 . S
C627 C628 1.332 . S
C628 H607 0.929 . S
C628 C624 1.407 . S
C628 C627 1.332 . S
H629 C622 0.930 . S
H630 C653 0.930 . S
H631 C654 0.929 . S
O632 Tb588 2.465 . S
O632 C652 1.264 . S
O633 Tb588 2.387 . S
O633 C644 1.264 . S
O634 Tb599 2.349 . S
O634 C644 1.243 . S
O635 Tb588 2.428 . S
O635 C652 1.256 . S
O636 Tb588 2.308 . S
O636 C651 1.266 . S
O637 Tb599 2.393 . S
O637 C651 1.248 . S
O638 Tb599 2.465 . S
O638 C663 1.264 . S
O639 Tb599 2.387 1_565 S
O639 C655 1.264 . S
O640 Tb588 2.339 1_565 S
O640 C655 1.248 . S
O641 Tb599 2.428 . S
O641 C663 1.256 . S
O642 Tb599 2.308 . S
O642 C662 1.266 . S
O643 Tb588 2.393 . S
O643 C662 1.248 . S
C644 O633 1.264 . S
C644 O634 1.243 . S
C645 C648 1.399 . S
C645 C650 1.383 . S
C645 C652 1.496 . S
C646 C647 1.399 . S
C646 C650 1.389 . S
C647 C646 1.399 . S
C647 C649 1.380 . S
C647 H664 0.929 . S
C648 C645 1.399 . S
C648 C649 1.392 . S
C648 H665 0.929 . S
C649 C647 1.380 . S
C649 C648 1.392 . S
C649 H666 0.929 . S
C650 C645 1.383 . S
C650 C646 1.389 . S
C650 H667 0.931 . S
C651 O636 1.266 . S
C651 O637 1.248 . S
C652 Tb588 2.802 . S
C652 O632 1.264 . S
C652 O635 1.256 . S
C652 C645 1.496 . S
C653 C620 1.448 . S
C653 H630 0.930 . S
C653 C654 1.328 . S
C654 C625 1.427 . S
C654 H631 0.929 . S
C654 C653 1.328 . S
C655 O639 1.264 . S
C655 O640 1.248 . S
C656 C659 1.399 . S
C656 C660 1.383 . S
C656 C663 1.496 . S
C657 C658 1.399 . S
C657 C660 1.389 . S
C658 C657 1.399 . S
C658 C661 1.380 . S
C658 H668 0.929 . S
C659 C656 1.399 . S
C659 C661 1.392 . S
C659 H669 0.929 . S
C660 C656 1.383 . S
C660 C657 1.389 . S
C660 H670 0.931 . S
C661 C658 1.380 . S
C661 C659 1.392 . S
C661 H671 0.929 . S
C662 O642 1.266 . S
C662 O643 1.248 . S
C663 Tb599 2.802 . S
C663 O638 1.264 . S
C663 O641 1.256 . S
C663 C656 1.496 . S
H664 C647 0.929 . S
H665 C648 0.929 . S
H666 C649 0.929 . S
H667 C650 0.931 . S
H668 C658 0.929 . S
H669 C659 0.929 . S
H670 C660 0.931 . S
H671 C661 0.929 . S
C672 C673 1.391 . S
C672 C674 1.394 . S
C672 H688 0.931 . S
C673 C672 1.391 . S
C673 C677 1.376 . S
C674 C672 1.394 . S
C674 C675 1.369 . S
C674 C678 1.531 1_545 S
C675 C674 1.369 . S
C675 C676 1.410 . S
C675 C683 1.503 . S
C676 C675 1.410 . S
C676 C677 1.392 . S
C676 C679 1.511 . S
C677 C673 1.376 . S
C677 C676 1.392 . S
C677 H689 0.929 . S
C678 C674 1.531 1_565 S
C678 H690 0.960 . S
C678 H691 0.962 1_565 S
C678 H692 0.960 . S
C679 C676 1.511 . S
C679 H693 0.961 . S
C679 H694 0.961 . S
C679 H695 0.961 . S
C680 C681 1.370 . S
C680 C682 1.363 . S
C680 H696 0.931 . S
C681 C680 1.370 . S
C681 C685 1.408 . S
C682 C680 1.363 . S
C682 C683 1.370 . S
C682 C686 1.524 . S
C683 C675 1.503 . S
C683 C682 1.370 . S
C683 C684 1.403 . S
C684 C683 1.403 . S
C684 C685 1.404 . S
C684 C687 1.539 . S
C685 C681 1.408 . S
C685 C684 1.404 . S
C685 H697 0.930 . S
C686 C682 1.524 . S
C686 H698 0.956 . S
C686 H699 0.961 . S
C686 H700 0.961 . S
C687 C684 1.539 . S
C687 H701 0.958 1_545 S
C687 H702 0.961 . S
C687 H703 0.960 . S
H688 C672 0.931 . S
H689 C677 0.929 . S
H690 C678 0.960 . S
H691 C678 0.962 1_545 S
H692 C678 0.960 . S
H693 C679 0.961 . S
H694 C679 0.961 . S
H695 C679 0.961 . S
H696 C680 0.931 . S
H697 C685 0.930 . S
H698 C686 0.956 . S
H699 C686 0.961 . S
H700 C686 0.961 . S
H701 C687 0.958 1_565 S
H702 C687 0.961 . S
H703 C687 0.960 . S
C704 C705 1.391 . S
C704 C706 1.394 . S
C704 H720 0.931 . S
C705 C704 1.391 . S
C705 C709 1.376 . S
C706 C704 1.394 . S
C706 C707 1.369 . S
C706 C710 1.531 . S
C707 C706 1.369 . S
C707 C708 1.410 . S
C707 C715 1.503 . S
C708 C707 1.410 . S
C708 C709 1.392 . S
C708 C711 1.511 . S
C709 C705 1.376 . S
C709 C708 1.392 . S
C709 H721 0.929 . S
C710 C706 1.531 . S
C710 H722 0.960 . S
C710 H723 0.962 . S
C710 H724 0.960 . S
C711 C708 1.511 . S
C711 H725 0.961 . S
C711 H726 0.961 . S
C711 H727 0.961 . S
C712 C713 1.370 . S
C712 C714 1.363 . S
C712 H728 0.931 . S
C713 C712 1.370 . S
C713 C717 1.408 . S
C714 C712 1.363 . S
C714 C715 1.370 . S
C714 C718 1.524 . S
C715 C707 1.503 . S
C715 C714 1.370 . S
C715 C716 1.403 . S
C716 C715 1.403 . S
C716 C717 1.404 . S
C716 C719 1.539 . S
C717 C713 1.408 . S
C717 C716 1.404 . S
C717 H729 0.930 . S
C718 C714 1.524 . S
C718 H730 0.956 . S
C718 H731 0.961 . S
C718 H732 0.961 . S
C719 C716 1.539 . S
C719 H733 0.958 . S
C719 H734 0.961 . S
C719 H735 0.960 . S
H720 C704 0.931 . S
H721 C709 0.929 . S
H722 C710 0.960 . S
H723 C710 0.962 . S
H724 C710 0.960 . S
H725 C711 0.961 . S
H726 C711 0.961 . S
H727 C711 0.961 . S
H728 C712 0.931 . S
H729 C717 0.930 . S
H730 C718 0.956 . S
H731 C718 0.961 . S
H732 C718 0.961 . S
H733 C719 0.958 . S
H734 C719 0.961 . S
H735 C719 0.960 . S
C736 C737 1.391 . S
C736 C738 1.394 . S
C736 H752 0.931 . S
C737 C736 1.391 . S
C737 C741 1.376 . S
C738 C736 1.394 . S
C738 C739 1.369 . S
C738 C742 1.531 . S
C739 C738 1.369 . S
C739 C740 1.410 . S
C739 C747 1.503 . S
C740 C739 1.410 . S
C740 C741 1.392 . S
C740 C743 1.511 . S
C741 C737 1.376 . S
C741 C740 1.392 . S
C741 H753 0.929 . S
C742 C738 1.531 . S
C742 H754 0.960 . S
C742 H755 0.962 . S
C742 H756 0.960 . S
C743 C740 1.511 . S
C743 H757 0.961 . S
C743 H758 0.961 . S
C743 H759 0.961 . S
C744 C745 1.370 . S
C744 C746 1.363 . S
C744 H760 0.931 . S
C745 C744 1.370 . S
C745 C749 1.408 . S
C746 C744 1.363 . S
C746 C747 1.370 . S
C746 C750 1.524 . S
C747 C739 1.503 . S
C747 C746 1.370 . S
C747 C748 1.403 . S
C748 C747 1.403 . S
C748 C749 1.404 . S
C748 C751 1.539 . S
C749 C745 1.408 . S
C749 C748 1.404 . S
C749 H761 0.930 . S
C750 C746 1.524 . S
C750 H762 0.956 . S
C750 H763 0.961 . S
C750 H764 0.961 . S
C751 C748 1.539 . S
C751 H765 0.958 . S
C751 H766 0.961 . S
C751 H767 0.960 . S
H752 C736 0.931 . S
H753 C741 0.929 . S
H754 C742 0.960 . S
H755 C742 0.962 . S
H756 C742 0.960 . S
H757 C743 0.961 . S
H758 C743 0.961 . S
H759 C743 0.961 . S
H760 C744 0.931 . S
H761 C749 0.930 . S
H762 C750 0.956 . S
H763 C750 0.961 . S
H764 C750 0.961 . S
H765 C751 0.958 . S
H766 C751 0.961 . S
H767 C751 0.960 . S
C768 C769 1.391 . S
C768 C770 1.394 . S
C768 H784 0.931 . S
C769 C768 1.391 . S
C769 C773 1.376 . S
C770 C768 1.394 . S
C770 C771 1.369 . S
C770 C774 1.531 . S
C771 C770 1.369 . S
C771 C772 1.410 . S
C771 C779 1.503 . S
C772 C771 1.410 . S
C772 C773 1.392 . S
C772 C775 1.511 . S
C773 C769 1.376 . S
C773 C772 1.392 . S
C773 H785 0.929 . S
C774 C770 1.531 . S
C774 H786 0.960 1_455 S
C774 H787 0.962 . S
C774 H788 0.960 1_455 S
C775 C772 1.511 . S
C775 H789 0.961 . S
C775 H790 0.961 . S
C775 H791 0.961 . S
C776 C777 1.370 . S
C776 C778 1.363 . S
C776 H792 0.931 . S
C777 C776 1.370 . S
C777 C781 1.408 . S
C778 C776 1.363 . S
C778 C779 1.370 . S
C778 C782 1.524 . S
C779 C771 1.503 . S
C779 C778 1.370 . S
C779 C780 1.403 . S
C780 C779 1.403 . S
C780 C781 1.404 . S
C780 C783 1.539 . S
C781 C777 1.408 . S
C781 C780 1.404 . S
C781 H793 0.930 . S
C782 C778 1.524 . S
C782 H794 0.956 . S
C782 H795 0.961 . S
C782 H796 0.961 . S
C783 C780 1.539 . S
C783 H797 0.958 1_455 S
C783 H798 0.961 . S
C783 H799 0.960 . S
H784 C768 0.931 . S
H785 C773 0.929 . S
H786 C774 0.960 1_655 S
H787 C774 0.962 . S
H788 C774 0.960 1_655 S
H789 C775 0.961 . S
H790 C775 0.961 . S
H791 C775 0.961 . S
H792 C776 0.931 . S
H793 C781 0.930 . S
H794 C782 0.956 . S
H795 C782 0.961 . S
H796 C782 0.961 . S
H797 C783 0.958 1_655 S
H798 C783 0.961 . S
H799 C783 0.960 . S
C800 C801 1.391 . S
C800 C802 1.394 . S
C800 H816 0.931 . S
C801 C800 1.391 . S
C801 C805 1.376 . S
C802 C800 1.394 . S
C802 C803 1.369 . S
C802 C806 1.531 . S
C803 C802 1.369 . S
C803 C804 1.410 . S
C803 C811 1.503 . S
C804 C803 1.410 . S
C804 C805 1.392 . S
C804 C807 1.511 . S
C805 C801 1.376 . S
C805 C804 1.392 . S
C805 H817 0.929 . S
C806 C802 1.531 . S
C806 H818 0.960 . S
C806 H819 0.962 . S
C806 H820 0.960 . S
C807 C804 1.511 . S
C807 H821 0.961 . S
C807 H822 0.961 . S
C807 H823 0.961 . S
C808 C809 1.370 . S
C808 C810 1.363 . S
C808 H824 0.931 . S
C809 C808 1.370 . S
C809 C813 1.408 . S
C810 C808 1.363 . S
C810 C811 1.370 . S
C810 C814 1.524 . S
C811 C803 1.503 . S
C811 C810 1.370 . S
C811 C812 1.403 . S
C812 C811 1.403 . S
C812 C813 1.404 . S
C812 C815 1.539 . S
C813 C809 1.408 . S
C813 C812 1.404 . S
C813 H825 0.930 . S
C814 C810 1.524 . S
C814 H826 0.956 . S
C814 H827 0.961 . S
C814 H828 0.961 . S
C815 C812 1.539 . S
C815 H829 0.958 . S
C815 H830 0.961 . S
C815 H831 0.960 . S
H816 C800 0.931 . S
H817 C805 0.929 . S
H818 C806 0.960 . S
H819 C806 0.962 . S
H820 C806 0.960 . S
H821 C807 0.961 . S
H822 C807 0.961 . S
H823 C807 0.961 . S
H824 C808 0.931 . S
H825 C813 0.930 . S
H826 C814 0.956 . S
H827 C814 0.961 . S
H828 C814 0.961 . S
H829 C815 0.958 . S
H830 C815 0.961 . S
H831 C815 0.960 . S
C832 C833 1.391 . S
C832 C834 1.394 . S
C832 H848 0.931 . S
C833 C832 1.391 . S
C833 C837 1.376 . S
C834 C832 1.394 . S
C834 C835 1.369 . S
C834 C838 1.531 . S
C835 C834 1.369 . S
C835 C836 1.410 . S
C835 C843 1.503 . S
C836 C835 1.410 . S
C836 C837 1.392 . S
C836 C839 1.511 . S
C837 C833 1.376 . S
C837 C836 1.392 . S
C837 H849 0.929 . S
C838 C834 1.531 . S
C838 H850 0.960 . S
C838 H851 0.962 . S
C838 H852 0.960 . S
C839 C836 1.511 . S
C839 H853 0.961 . S
C839 H854 0.961 . S
C839 H855 0.961 . S
C840 C841 1.370 . S
C840 C842 1.363 . S
C840 H856 0.931 . S
C841 C840 1.370 . S
C841 C845 1.408 . S
C842 C840 1.363 . S
C842 C843 1.370 . S
C842 C846 1.524 . S
C843 C835 1.503 . S
C843 C842 1.370 . S
C843 C844 1.403 . S
C844 C843 1.403 . S
C844 C845 1.404 . S
C844 C847 1.539 . S
C845 C841 1.408 . S
C845 C844 1.404 . S
C845 H857 0.930 . S
C846 C842 1.524 . S
C846 H858 0.956 . S
C846 H859 0.961 . S
C846 H860 0.961 . S
C847 C844 1.539 . S
C847 H861 0.958 . S
C847 H862 0.961 . S
C847 H863 0.960 . S
H848 C832 0.931 . S
H849 C837 0.929 . S
H850 C838 0.960 . S
H851 C838 0.962 . S
H852 C838 0.960 . S
H853 C839 0.961 . S
H854 C839 0.961 . S
H855 C839 0.961 . S
H856 C840 0.931 . S
H857 C845 0.930 . S
H858 C846 0.956 . S
H859 C846 0.961 . S
H860 C846 0.961 . S
H861 C847 0.958 . S
H862 C847 0.961 . S
H863 C847 0.960 . S
C864 C865 1.391 . S
C864 C866 1.394 . S
C864 H880 0.931 . S
C865 C864 1.391 . S
C865 C869 1.376 . S
C866 C864 1.394 . S
C866 C867 1.369 . S
C866 C870 1.531 . S
C867 C866 1.369 . S
C867 C868 1.410 . S
C867 C875 1.503 . S
C868 C867 1.410 . S
C868 C869 1.392 . S
C868 C871 1.511 . S
C869 C865 1.376 . S
C869 C868 1.392 . S
C869 H881 0.929 . S
C870 C866 1.531 . S
C870 H882 0.960 . S
C870 H883 0.962 . S
C870 H884 0.960 . S
C871 C868 1.511 . S
C871 H885 0.961 . S
C871 H886 0.961 . S
C871 H887 0.961 . S
C872 C873 1.370 . S
C872 C874 1.363 . S
C872 H888 0.931 . S
C873 C872 1.370 . S
C873 C877 1.408 . S
C874 C872 1.363 . S
C874 C875 1.370 . S
C874 C878 1.524 . S
C875 C867 1.503 . S
C875 C874 1.370 . S
C875 C876 1.403 . S
C876 C875 1.403 . S
C876 C877 1.404 . S
C876 C879 1.539 . S
C877 C873 1.408 . S
C877 C876 1.404 . S
C877 H889 0.930 . S
C878 C874 1.524 . S
C878 H890 0.956 . S
C878 H891 0.961 . S
C878 H892 0.961 . S
C879 C876 1.539 . S
C879 H893 0.958 . S
C879 H894 0.961 . S
C879 H895 0.960 . S
H880 C864 0.931 . S
H881 C869 0.929 . S
H882 C870 0.960 . S
H883 C870 0.962 . S
H884 C870 0.960 . S
H885 C871 0.961 . S
H886 C871 0.961 . S
H887 C871 0.961 . S
H888 C872 0.931 . S
H889 C877 0.930 . S
H890 C878 0.956 . S
H891 C878 0.961 . S
H892 C878 0.961 . S
H893 C879 0.958 . S
H894 C879 0.961 . S
H895 C879 0.960 . S
C896 C897 1.391 . S
C896 C898 1.394 . S
C896 H912 0.931 1_455 S
C897 C896 1.391 . S
C897 C901 1.376 . S
C898 C896 1.394 . S
C898 C899 1.369 . S
C898 C902 1.531 1_455 S
C899 C898 1.369 . S
C899 C900 1.410 . S
C899 C907 1.503 . S
C900 C899 1.410 . S
C900 C901 1.392 . S
C900 C903 1.511 . S
C901 C897 1.376 . S
C901 C900 1.392 . S
C901 H913 0.929 . S
C902 C898 1.531 1_655 S
C902 H914 0.960 . S
C902 H915 0.962 . S
C902 H916 0.960 . S
C903 C900 1.511 . S
C903 H917 0.961 . S
C903 H918 0.961 . S
C903 H919 0.961 . S
C904 C905 1.370 . S
C904 C906 1.363 . S
C904 H920 0.931 . S
C905 C904 1.370 . S
C905 C909 1.408 . S
C906 C904 1.363 . S
C906 C907 1.370 . S
C906 C910 1.524 . S
C907 C899 1.503 . S
C907 C906 1.370 . S
C907 C908 1.403 . S
C908 C907 1.403 . S
C908 C909 1.404 . S
C908 C911 1.539 . S
C909 C905 1.408 . S
C909 C908 1.404 . S
C909 H921 0.930 . S
C910 C906 1.524 . S
C910 H922 0.956 1_455 S
C910 H923 0.961 . S
C910 H924 0.961 1_455 S
C911 C908 1.539 . S
C911 H925 0.958 . S
C911 H926 0.961 . S
C911 H927 0.960 . S
H912 C896 0.931 1_655 S
H913 C901 0.929 . S
H914 C902 0.960 . S
H915 C902 0.962 . S
H916 C902 0.960 . S
H917 C903 0.961 . S
H918 C903 0.961 . S
H919 C903 0.961 . S
H920 C904 0.931 . S
H921 C909 0.930 . S
H922 C910 0.956 1_655 S
H923 C910 0.961 . S
H924 C910 0.961 1_655 S
H925 C911 0.958 . S
H926 C911 0.961 . S
H927 C911 0.960 . S
C928 C929 1.391 . S
C928 C930 1.394 . S
C928 H944 0.931 . S
C929 C928 1.391 . S
C929 C933 1.376 . S
C930 C928 1.394 . S
C930 C931 1.369 . S
C930 C934 1.531 . S
C931 C930 1.369 . S
C931 C932 1.410 . S
C931 C939 1.503 1_556 S
C932 C931 1.410 . S
C932 C933 1.392 . S
C932 C935 1.511 1_556 S
C933 C929 1.376 . S
C933 C932 1.392 . S
C933 H945 0.929 . S
C934 C930 1.531 . S
C934 H946 0.953 1_455 S
C934 H947 0.962 . S
C934 H948 0.960 1_455 S
C935 C932 1.511 1_554 S
C935 H949 0.961 . S
C935 H950 0.961 . S
C935 H951 0.961 . S
C936 C937 1.370 . S
C936 C938 1.363 . S
C936 H952 0.931 . S
C937 C936 1.370 . S
C937 C941 1.408 . S
C938 C936 1.363 . S
C938 C939 1.370 . S
C938 C942 1.526 . S
C939 C931 1.503 1_554 S
C939 C938 1.370 . S
C939 C940 1.403 . S
C940 C939 1.403 . S
C940 C941 1.404 . S
C940 C943 1.539 1_455 S
C941 C937 1.408 . S
C941 C940 1.404 . S
C941 H953 0.930 1_455 S
C942 C938 1.526 . S
C942 H954 0.953 1_554 S
C942 H955 0.962 . S
C942 H956 0.961 . S
C943 C940 1.539 1_655 S
C943 H957 0.958 . S
C943 H958 0.961 . S
C943 H959 0.960 . S
H944 C928 0.931 . S
H945 C933 0.929 . S
H946 C934 0.953 1_655 S
H947 C934 0.962 . S
H948 C934 0.960 1_655 S
H949 C935 0.961 . S
H950 C935 0.961 . S
H951 C935 0.961 . S
H952 C936 0.931 . S
H953 C941 0.930 1_655 S
H954 C942 0.953 1_556 S
H955 C942 0.962 . S
H956 C942 0.961 . S
H957 C943 0.958 . S
H958 C943 0.961 . S
H959 C943 0.960 . S
C960 C961 1.391 . S
C960 C962 1.394 . S
C960 H976 0.931 . S
C961 C960 1.391 . S
C961 C965 1.376 . S
C962 C960 1.394 . S
C962 C963 1.369 . S
C962 C966 1.531 . S
C963 C962 1.369 . S
C963 C964 1.410 . S
C963 C971 1.503 . S
C964 C963 1.410 . S
C964 C965 1.392 . S
C964 C967 1.511 . S
C965 C961 1.376 . S
C965 C964 1.392 . S
C965 H977 0.929 . S
C966 C962 1.531 . S
C966 H978 0.960 . S
C966 H979 0.962 . S
C966 H980 0.960 . S
C967 C964 1.511 . S
C967 H981 0.961 . S
C967 H982 0.961 . S
C967 H983 0.961 . S
C968 C969 1.370 . S
C968 C970 1.363 . S
C968 H984 0.931 . S
C969 C968 1.370 . S
C969 C973 1.408 . S
C970 C968 1.363 . S
C970 C971 1.370 . S
C970 C974 1.524 . S
C971 C963 1.503 . S
C971 C970 1.370 . S
C971 C972 1.403 . S
C972 C971 1.403 . S
C972 C973 1.404 . S
C972 C975 1.539 . S
C973 C969 1.408 . S
C973 C972 1.404 . S
C973 H985 0.930 . S
C974 C970 1.524 . S
C974 H986 0.956 . S
C974 H987 0.961 . S
C974 H988 0.961 . S
C975 C972 1.539 . S
C975 H989 0.958 . S
C975 H990 0.961 . S
C975 H991 0.960 . S
H976 C960 0.931 . S
H977 C965 0.929 . S
H978 C966 0.960 . S
H979 C966 0.962 . S
H980 C966 0.960 . S
H981 C967 0.961 . S
H982 C967 0.961 . S
H983 C967 0.961 . S
H984 C968 0.931 . S
H985 C973 0.930 . S
H986 C974 0.956 . S
H987 C974 0.961 . S
H988 C974 0.961 . S
H989 C975 0.958 . S
H990 C975 0.961 . S
H991 C975 0.960 . S
C992 C993 1.391 . S
C992 C994 1.394 1_556 S
C992 H1008 0.931 . S
C993 C992 1.391 . S
C993 C997 1.376 . S
C994 C992 1.394 1_554 S
C994 C995 1.369 1_554 S
C994 C998 1.531 . S
C995 C994 1.369 1_556 S
C995 C996 1.410 . S
C995 C1003 1.503 1_556 S
C996 C995 1.410 . S
C996 C997 1.392 . S
C996 C999 1.511 . S
C997 C993 1.376 . S
C997 C996 1.392 . S
C997 H1009 0.929 . S
C998 C994 1.531 . S
C998 H1010 0.960 . S
C998 H1011 0.962 . S
C998 H1012 0.960 . S
C999 C996 1.511 . S
C999 H1013 0.961 . S
C999 H1014 0.961 . S
C999 H1015 0.961 . S
C1000 C1001 1.370 . S
C1000 C1002 1.363 . S
C1000 H1016 0.931 . S
C1001 C1000 1.370 . S
C1001 C1005 1.408 . S
C1002 C1000 1.363 . S
C1002 C1003 1.370 . S
C1002 C1006 1.524 1_554 S
C1003 C995 1.503 1_554 S
C1003 C1002 1.370 . S
C1003 C1004 1.403 . S
C1004 C1003 1.403 . S
C1004 C1005 1.404 . S
C1004 C1007 1.539 . S
C1005 C1001 1.408 . S
C1005 C1004 1.404 . S
C1005 H1017 0.930 . S
C1006 C1002 1.524 1_556 S
C1006 H1018 0.956 . S
C1006 H1019 0.961 . S
C1006 H1020 0.961 . S
C1007 C1004 1.539 . S
C1007 H1021 0.958 . S
C1007 H1022 0.961 . S
C1007 H1023 0.960 . S
H1008 C992 0.931 . S
H1009 C997 0.929 . S
H1010 C998 0.960 . S
H1011 C998 0.962 . S
H1012 C998 0.960 . S
H1013 C999 0.961 . S
H1014 C999 0.961 . S
H1015 C999 0.961 . S
H1016 C1000 0.931 . S
H1017 C1005 0.930 . S
H1018 C1006 0.956 . S
H1019 C1006 0.961 . S
H1020 C1006 0.961 . S
H1021 C1007 0.958 . S
H1022 C1007 0.961 . S
H1023 C1007 0.960 . S
C1024 C1025 1.391 . S
C1024 C1026 1.394 . S
C1024 H1040 0.931 . S
C1025 C1024 1.391 . S
C1025 C1029 1.376 . S
C1026 C1024 1.394 . S
C1026 C1027 1.369 . S
C1026 C1030 1.531 . S
C1027 C1026 1.369 . S
C1027 C1028 1.410 . S
C1027 C1035 1.503 . S
C1028 C1027 1.410 . S
C1028 C1029 1.392 . S
C1028 C1031 1.511 . S
C1029 C1025 1.376 . S
C1029 C1028 1.392 . S
C1029 H1041 0.929 . S
C1030 C1026 1.531 . S
C1030 H1042 0.960 . S
C1030 H1043 0.962 . S
C1030 H1044 0.960 . S
C1031 C1028 1.511 . S
C1031 H1045 0.961 . S
C1031 H1046 0.961 . S
C1031 H1047 0.961 . S
C1032 C1033 1.370 1_455 S
C1032 C1034 1.363 . S
C1032 H1048 0.931 . S
C1033 C1032 1.370 1_655 S
C1033 C1037 1.408 . S
C1034 C1032 1.363 . S
C1034 C1035 1.370 . S
C1034 C1038 1.524 . S
C1035 C1027 1.503 . S
C1035 C1034 1.370 . S
C1035 C1036 1.403 1_455 S
C1036 C1035 1.403 1_655 S
C1036 C1037 1.404 . S
C1036 C1039 1.539 . S
C1037 C1033 1.408 . S
C1037 C1036 1.404 . S
C1037 H1049 0.930 . S
C1038 C1034 1.524 . S
C1038 H1050 0.956 . S
C1038 H1051 0.961 . S
C1038 H1052 0.961 . S
C1039 C1036 1.539 . S
C1039 H1053 0.958 . S
C1039 H1054 0.961 . S
C1039 H1055 0.960 1_655 S
H1040 C1024 0.931 . S
H1041 C1029 0.929 . S
H1042 C1030 0.960 . S
H1043 C1030 0.962 . S
H1044 C1030 0.960 . S
H1045 C1031 0.961 . S
H1046 C1031 0.961 . S
H1047 C1031 0.961 . S
H1048 C1032 0.931 . S
H1049 C1037 0.930 . S
H1050 C1038 0.956 . S
H1051 C1038 0.961 . S
H1052 C1038 0.961 . S
H1053 C1039 0.958 . S
H1054 C1039 0.961 . S
H1055 C1039 0.960 1_455 S
C1056 C1057 1.391 . S
C1056 C1058 1.394 . S
C1056 H1072 0.931 . S
C1057 C1056 1.391 . S
C1057 C1061 1.376 . S
C1058 C1056 1.394 . S
C1058 C1059 1.369 . S
C1058 C1062 1.531 . S
C1059 C1058 1.369 . S
C1059 C1060 1.410 . S
C1059 C1067 1.503 1_556 S
C1060 C1059 1.410 . S
C1060 C1061 1.392 . S
C1060 C1063 1.511 . S
C1061 C1057 1.376 . S
C1061 C1060 1.392 . S
C1061 H1073 0.929 1_545 S
C1062 C1058 1.531 . S
C1062 H1074 0.960 . S
C1062 H1075 0.962 1_556 S
C1062 H1076 0.960 . S
C1063 C1060 1.511 . S
C1063 H1077 0.961 . S
C1063 H1078 0.961 1_556 S
C1063 H1079 0.961 . S
C1064 C1065 1.370 . S
C1064 C1066 1.363 . S
C1064 H1080 0.931 . S
C1065 C1064 1.370 . S
C1065 C1069 1.408 . S
C1066 C1064 1.363 . S
C1066 C1067 1.370 . S
C1066 C1070 1.524 . S
C1067 C1059 1.503 1_554 S
C1067 C1066 1.370 . S
C1067 C1068 1.403 1_554 S
C1068 C1067 1.403 1_556 S
C1068 C1069 1.404 1_556 S
C1068 C1071 1.539 . S
C1069 C1065 1.408 . S
C1069 C1068 1.404 1_554 S
C1069 H1081 0.930 . S
C1070 C1066 1.524 . S
C1070 H1082 0.956 . S
C1070 H1083 0.961 . S
C1070 H1084 0.961 . S
C1071 C1068 1.539 . S
C1071 H1085 0.958 . S
C1071 H1086 0.961 . S
C1071 H1087 0.960 . S
H1072 C1056 0.931 . S
H1073 C1061 0.929 1_565 S
H1074 C1062 0.960 . S
H1075 C1062 0.962 1_554 S
H1076 C1062 0.960 . S
H1077 C1063 0.961 . S
H1078 C1063 0.961 1_554 S
H1079 C1063 0.961 . S
H1080 C1064 0.931 . S
H1081 C1069 0.930 . S
H1082 C1070 0.956 . S
H1083 C1070 0.961 . S
H1084 C1070 0.961 . S
H1085 C1071 0.958 . S
H1086 C1071 0.961 . S
H1087 C1071 0.960 . S
C1088 C1089 1.391 . S
C1088 C1090 1.394 . S
C1088 H1104 0.931 . S
C1089 C1088 1.391 . S
C1089 C1093 1.376 . S
C1090 C1088 1.394 . S
C1090 C1091 1.369 . S
C1090 C1094 1.531 . S
C1091 C1090 1.369 . S
C1091 C1092 1.410 . S
C1091 C1099 1.503 . S
C1092 C1091 1.410 . S
C1092 C1093 1.392 . S
C1092 C1095 1.511 . S
C1093 C1089 1.376 . S
C1093 C1092 1.392 . S
C1093 H1105 0.929 . S
C1094 C1090 1.531 . S
C1094 H1106 0.960 . S
C1094 H1107 0.962 . S
C1094 H1108 0.960 . S
C1095 C1092 1.511 . S
C1095 H1109 0.961 . S
C1095 H1110 0.961 . S
C1095 H1111 0.961 . S
C1096 C1097 1.370 . S
C1096 C1098 1.363 . S
C1096 H1112 0.931 . S
C1097 C1096 1.370 . S
C1097 C1101 1.408 . S
C1098 C1096 1.363 . S
C1098 C1099 1.370 . S
C1098 C1102 1.524 . S
C1099 C1091 1.503 . S
C1099 C1098 1.370 . S
C1099 C1100 1.403 . S
C1100 C1099 1.403 . S
C1100 C1101 1.404 . S
C1100 C1103 1.539 . S
C1101 C1097 1.408 . S
C1101 C1100 1.404 . S
C1101 H1113 0.930 . S
C1102 C1098 1.524 . S
C1102 H1114 0.956 . S
C1102 H1115 0.961 . S
C1102 H1116 0.961 . S
C1103 C1100 1.539 . S
C1103 H1117 0.958 . S
C1103 H1118 0.961 . S
C1103 H1119 0.960 . S
H1104 C1088 0.931 . S
H1105 C1093 0.929 . S
H1106 C1094 0.960 . S
H1107 C1094 0.962 . S
H1108 C1094 0.960 . S
H1109 C1095 0.961 . S
H1110 C1095 0.961 . S
H1111 C1095 0.961 . S
H1112 C1096 0.931 . S
H1113 C1101 0.930 . S
H1114 C1102 0.956 . S
H1115 C1102 0.961 . S
H1116 C1102 0.961 . S
H1117 C1103 0.958 . S
H1118 C1103 0.961 . S
H1119 C1103 0.960 . S
C1120 C1121 1.391 . S
C1120 C1122 1.394 . S
C1120 H1136 0.931 . S
C1121 C1120 1.391 . S
C1121 C1125 1.376 1_455 S
C1122 C1120 1.394 . S
C1122 C1123 1.359 1_556 S
C1122 C1126 1.531 . S
C1123 C1122 1.359 1_554 S
C1123 C1124 1.413 . S
C1123 C1131 1.509 . S
C1124 C1123 1.413 . S
C1124 C1125 1.392 1_454 S
C1124 C1127 1.511 1_455 S
C1125 C1121 1.376 1_655 S
C1125 C1124 1.392 1_656 S
C1125 H1137 0.929 1_556 S
C1126 C1122 1.531 . S
C1126 H1138 0.960 . S
C1126 H1139 0.962 . S
C1126 H1140 0.960 . S
C1127 C1124 1.511 1_655 S
C1127 H1141 0.961 . S
C1127 H1142 0.961 . S
C1127 H1143 0.961 . S
C1128 C1129 1.370 1_556 S
C1128 C1130 1.363 . S
C1128 H1144 0.931 . S
C1129 C1128 1.370 1_554 S
C1129 C1133 1.408 . S
C1130 C1128 1.363 . S
C1130 C1131 1.370 1_556 S
C1130 C1134 1.524 . S
C1131 C1123 1.509 . S
C1131 C1130 1.370 1_554 S
C1131 C1132 1.403 . S
C1132 C1131 1.403 . S
C1132 C1133 1.404 . S
C1132 C1135 1.539 . S
C1133 C1129 1.408 . S
C1133 C1132 1.404 . S
C1133 H1145 0.930 . S
C1134 C1130 1.524 . S
C1134 H1146 0.956 . S
C1134 H1147 0.961 . S
C1134 H1148 0.961 . S
C1135 C1132 1.539 . S
C1135 H1149 0.958 . S
C1135 H1150 0.961 . S
C1135 H1151 0.960 . S
H1136 C1120 0.931 . S
H1137 C1125 0.929 1_554 S
H1138 C1126 0.960 . S
H1139 C1126 0.962 . S
H1140 C1126 0.960 . S
H1141 C1127 0.961 . S
H1142 C1127 0.961 . S
H1143 C1127 0.961 . S
H1144 C1128 0.931 . S
H1145 C1133 0.930 . S
H1146 C1134 0.956 . S
H1147 C1134 0.961 . S
H1148 C1134 0.961 . S
H1149 C1135 0.958 . S
H1150 C1135 0.961 . S
H1151 C1135 0.960 . S
C1152 C1153 1.391 . S
C1152 C1154 1.394 . S
C1152 H1168 0.931 . S
C1153 C1152 1.391 . S
C1153 C1157 1.376 . S
C1154 C1152 1.394 . S
C1154 C1155 1.369 . S
C1154 C1158 1.531 . S
C1155 C1154 1.369 . S
C1155 C1156 1.410 . S
C1155 C1163 1.503 . S
C1156 C1155 1.410 . S
C1156 C1157 1.392 . S
C1156 C1159 1.511 . S
C1157 C1153 1.376 . S
C1157 C1156 1.392 . S
C1157 H1169 0.929 . S
C1158 C1154 1.531 . S
C1158 H1170 0.960 . S
C1158 H1171 0.962 . S
C1158 H1172 0.960 . S
C1159 C1156 1.511 . S
C1159 H1173 0.961 . S
C1159 H1174 0.961 . S
C1159 H1175 0.961 . S
C1160 C1161 1.370 . S
C1160 C1162 1.363 1_655 S
C1160 H1176 0.931 . S
C1161 C1160 1.370 . S
C1161 C1165 1.408 . S
C1162 C1160 1.363 1_455 S
C1162 C1163 1.370 . S
C1162 C1166 1.524 . S
C1163 C1155 1.503 . S
C1163 C1162 1.370 . S
C1163 C1164 1.403 . S
C1164 C1163 1.403 . S
C1164 C1165 1.404 1_455 S
C1164 C1167 1.539 . S
C1165 C1161 1.408 . S
C1165 C1164 1.404 1_655 S
C1165 H1177 0.930 1_545 S
C1166 C1162 1.524 . S
C1166 H1178 0.956 . S
C1166 H1179 0.961 . S
C1166 H1180 0.961 . S
C1167 C1164 1.539 . S
C1167 H1181 0.958 . S
C1167 H1182 0.961 . S
C1167 H1183 0.960 . S
H1168 C1152 0.931 . S
H1169 C1157 0.929 . S
H1170 C1158 0.960 . S
H1171 C1158 0.962 . S
H1172 C1158 0.960 . S
H1173 C1159 0.961 . S
H1174 C1159 0.961 . S
H1175 C1159 0.961 . S
H1176 C1160 0.931 . S
H1177 C1165 0.930 1_565 S
H1178 C1166 0.956 . S
H1179 C1166 0.961 . S
H1180 C1166 0.961 . S
H1181 C1167 0.958 . S
H1182 C1167 0.961 . S
H1183 C1167 0.960 . S
C1184 C1185 1.391 . S
C1184 C1186 1.394 . S
C1184 H1200 0.931 . S
C1185 C1184 1.391 . S
C1185 C1189 1.376 . S
C1186 C1184 1.394 . S
C1186 C1187 1.369 . S
C1186 C1190 1.531 . S
C1187 C1186 1.369 . S
C1187 C1188 1.410 . S
C1187 C1195 1.503 . S
C1188 C1187 1.410 . S
C1188 C1189 1.392 . S
C1188 C1191 1.511 . S
C1189 C1185 1.376 . S
C1189 C1188 1.392 . S
C1189 H1201 0.929 . S
C1190 C1186 1.531 . S
C1190 H1202 0.960 . S
C1190 H1203 0.962 . S
C1190 H1204 0.960 . S
C1191 C1188 1.511 . S
C1191 H1205 0.961 . S
C1191 H1206 0.961 . S
C1191 H1207 0.961 . S
C1192 C1193 1.370 . S
C1192 C1194 1.363 . S
C1192 H1208 0.931 . S
C1193 C1192 1.370 . S
C1193 C1197 1.408 . S
C1194 C1192 1.363 . S
C1194 C1195 1.370 . S
C1194 C1198 1.524 . S
C1195 C1187 1.503 . S
C1195 C1194 1.370 . S
C1195 C1196 1.403 . S
C1196 C1195 1.403 . S
C1196 C1197 1.404 . S
C1196 C1199 1.539 . S
C1197 C1193 1.408 . S
C1197 C1196 1.404 . S
C1197 H1209 0.930 . S
C1198 C1194 1.524 . S
C1198 H1210 0.956 . S
C1198 H1211 0.961 . S
C1198 H1212 0.961 . S
C1199 C1196 1.539 . S
C1199 H1213 0.958 . S
C1199 H1214 0.961 . S
C1199 H1215 0.960 . S
H1200 C1184 0.931 . S
H1201 C1189 0.929 . S
H1202 C1190 0.960 . S
H1203 C1190 0.962 . S
H1204 C1190 0.960 . S
H1205 C1191 0.961 . S
H1206 C1191 0.961 . S
H1207 C1191 0.961 . S
H1208 C1192 0.931 . S
H1209 C1197 0.930 . S
H1210 C1198 0.956 . S
H1211 C1198 0.961 . S
H1212 C1198 0.961 . S
H1213 C1199 0.958 . S
H1214 C1199 0.961 . S
H1215 C1199 0.960 . S
C1216 C1217 1.391 . S
C1216 C1218 1.394 . S
C1216 H1232 0.931 . S
C1217 C1216 1.391 . S
C1217 C1221 1.376 . S
C1218 C1216 1.394 . S
C1218 C1219 1.369 . S
C1218 C1222 1.531 . S
C1219 C1218 1.369 . S
C1219 C1220 1.410 . S
C1219 C1227 1.503 . S
C1220 C1219 1.410 . S
C1220 C1221 1.392 . S
C1220 C1223 1.511 . S
C1221 C1217 1.376 . S
C1221 C1220 1.392 . S
C1221 H1233 0.929 1_565 S
C1222 C1218 1.531 . S
C1222 H1234 0.960 . S
C1222 H1235 0.962 . S
C1222 H1236 0.960 . S
C1223 C1220 1.511 . S
C1223 H1237 0.961 . S
C1223 H1238 0.961 . S
C1223 H1239 0.961 . S
C1224 C1225 1.370 . S
C1224 C1226 1.363 . S
C1224 H1240 0.931 . S
C1225 C1224 1.370 . S
C1225 C1229 1.408 . S
C1226 C1224 1.363 . S
C1226 C1227 1.370 . S
C1226 C1230 1.524 . S
C1227 C1219 1.503 . S
C1227 C1226 1.370 . S
C1227 C1228 1.403 . S
C1228 C1227 1.403 . S
C1228 C1229 1.404 . S
C1228 C1231 1.539 . S
C1229 C1225 1.408 . S
C1229 C1228 1.404 . S
C1229 H1241 0.930 . S
C1230 C1226 1.524 . S
C1230 H1242 0.956 . S
C1230 H1243 0.961 . S
C1230 H1244 0.961 . S
C1231 C1228 1.539 . S
C1231 H1245 0.958 . S
C1231 H1246 0.961 . S
C1231 H1247 0.960 . S
H1232 C1216 0.931 . S
H1233 C1221 0.929 1_545 S
H1234 C1222 0.960 . S
H1235 C1222 0.962 . S
H1236 C1222 0.960 . S
H1237 C1223 0.961 . S
H1238 C1223 0.961 . S
H1239 C1223 0.961 . S
H1240 C1224 0.931 . S
H1241 C1229 0.930 . S
H1242 C1230 0.956 . S
H1243 C1230 0.961 . S
H1244 C1230 0.961 . S
H1245 C1231 0.958 . S
H1246 C1231 0.961 . S
H1247 C1231 0.960 . S
C1248 C1249 1.391 . S
C1248 C1250 1.394 . S
C1248 H1264 0.931 . S
C1249 C1248 1.391 . S
C1249 C1253 1.376 . S
C1250 C1248 1.394 . S
C1250 C1251 1.369 . S
C1250 C1254 1.531 . S
C1251 C1250 1.369 . S
C1251 C1252 1.410 . S
C1251 C1259 1.503 . S
C1252 C1251 1.410 . S
C1252 C1253 1.392 . S
C1252 C1255 1.511 . S
C1253 C1249 1.376 . S
C1253 C1252 1.392 . S
C1253 H1265 0.929 . S
C1254 C1250 1.531 . S
C1254 H1266 0.960 . S
C1254 H1267 0.962 . S
C1254 H1268 0.960 . S
C1255 C1252 1.511 . S
C1255 H1269 0.961 . S
C1255 H1270 0.961 . S
C1255 H1271 0.961 . S
C1256 C1257 1.370 . S
C1256 C1258 1.363 . S
C1256 H1272 0.931 . S
C1257 C1256 1.370 . S
C1257 C1261 1.408 . S
C1258 C1256 1.363 . S
C1258 C1259 1.370 . S
C1258 C1262 1.524 . S
C1259 C1251 1.503 . S
C1259 C1258 1.370 . S
C1259 C1260 1.403 . S
C1260 C1259 1.403 . S
C1260 C1261 1.404 . S
C1260 C1263 1.539 . S
C1261 C1257 1.408 . S
C1261 C1260 1.404 . S
C1261 H1273 0.930 . S
C1262 C1258 1.524 . S
C1262 H1274 0.956 . S
C1262 H1275 0.961 . S
C1262 H1276 0.961 1_565 S
C1263 C1260 1.539 . S
C1263 H1277 0.958 . S
C1263 H1278 0.961 . S
C1263 H1279 0.960 . S
H1264 C1248 0.931 . S
H1265 C1253 0.929 . S
H1266 C1254 0.960 . S
H1267 C1254 0.962 . S
H1268 C1254 0.960 . S
H1269 C1255 0.961 . S
H1270 C1255 0.961 . S
H1271 C1255 0.961 . S
H1272 C1256 0.931 . S
H1273 C1261 0.930 . S
H1274 C1262 0.956 . S
H1275 C1262 0.961 . S
H1276 C1262 0.961 1_545 S
H1277 C1263 0.958 . S
H1278 C1263 0.961 . S
H1279 C1263 0.960 . S
C1280 C1281 1.391 . S
C1280 C1282 1.394 . S
C1280 H1296 0.931 . S
C1281 C1280 1.391 . S
C1281 C1285 1.376 . S
C1282 C1280 1.394 . S
C1282 C1283 1.369 . S
C1282 C1286 1.531 . S
C1283 C1282 1.369 . S
C1283 C1284 1.410 . S
C1283 C1291 1.503 . S
C1284 C1283 1.410 . S
C1284 C1285 1.392 . S
C1284 C1287 1.511 . S
C1285 C1281 1.376 . S
C1285 C1284 1.392 . S
C1285 H1297 0.929 . S
C1286 C1282 1.531 . S
C1286 H1298 0.960 . S
C1286 H1299 0.962 . S
C1286 H1300 0.960 . S
C1287 C1284 1.511 . S
C1287 H1301 0.961 . S
C1287 H1302 0.961 . S
C1287 H1303 0.961 . S
C1288 C1289 1.370 . S
C1288 C1290 1.363 . S
C1288 H1304 0.931 . S
C1289 C1288 1.370 . S
C1289 C1293 1.408 . S
C1290 C1288 1.363 . S
C1290 C1291 1.370 . S
C1290 C1294 1.524 . S
C1291 C1283 1.503 . S
C1291 C1290 1.370 . S
C1291 C1292 1.403 . S
C1292 C1291 1.403 . S
C1292 C1293 1.404 . S
C1292 C1295 1.539 . S
C1293 C1289 1.408 . S
C1293 C1292 1.404 . S
C1293 H1305 0.930 . S
C1294 C1290 1.524 . S
C1294 H1306 0.956 . S
C1294 H1307 0.961 . S
C1294 H1308 0.961 . S
C1295 C1292 1.539 . S
C1295 H1309 0.958 . S
C1295 H1310 0.961 . S
C1295 H1311 0.960 . S
H1296 C1280 0.931 . S
H1297 C1285 0.929 . S
H1298 C1286 0.960 . S
H1299 C1286 0.962 . S
H1300 C1286 0.960 . S
H1301 C1287 0.961 . S
H1302 C1287 0.961 . S
H1303 C1287 0.961 . S
H1304 C1288 0.931 . S
H1305 C1293 0.930 . S
H1306 C1294 0.956 . S
H1307 C1294 0.961 . S
H1308 C1294 0.961 . S
H1309 C1295 0.958 . S
H1310 C1295 0.961 . S
H1311 C1295 0.960 . S
C1312 C1313 1.391 . S
C1312 C1314 1.394 . S
C1312 H1328 0.931 . S
C1313 C1312 1.391 . S
C1313 C1317 1.376 . S
C1314 C1312 1.394 . S
C1314 C1315 1.369 . S
C1314 C1318 1.531 . S
C1315 C1314 1.369 . S
C1315 C1316 1.410 . S
C1315 C1323 1.503 . S
C1316 C1315 1.410 . S
C1316 C1317 1.392 . S
C1316 C1319 1.511 . S
C1317 C1313 1.376 . S
C1317 C1316 1.392 . S
C1317 H1329 0.929 . S
C1318 C1314 1.531 . S
C1318 H1330 0.960 . S
C1318 H1331 0.962 . S
C1318 H1332 0.960 . S
C1319 C1316 1.511 . S
C1319 H1333 0.961 . S
C1319 H1334 0.961 . S
C1319 H1335 0.961 . S
C1320 C1321 1.370 . S
C1320 C1322 1.363 . S
C1320 H1336 0.931 . S
C1321 C1320 1.370 . S
C1321 C1325 1.408 . S
C1322 C1320 1.363 . S
C1322 C1323 1.370 . S
C1322 C1326 1.524 . S
C1323 C1315 1.503 . S
C1323 C1322 1.370 . S
C1323 C1324 1.403 . S
C1324 C1323 1.403 . S
C1324 C1325 1.404 . S
C1324 C1327 1.539 . S
C1325 C1321 1.408 . S
C1325 C1324 1.404 . S
C1325 H1337 0.930 . S
C1326 C1322 1.524 . S
C1326 H1338 0.956 . S
C1326 H1339 0.961 . S
C1326 H1340 0.961 . S
C1327 C1324 1.539 . S
C1327 H1341 0.958 . S
C1327 H1342 0.961 . S
C1327 H1343 0.960 . S
H1328 C1312 0.931 . S
H1329 C1317 0.929 . S
H1330 C1318 0.960 . S
H1331 C1318 0.962 . S
H1332 C1318 0.960 . S
H1333 C1319 0.961 . S
H1334 C1319 0.961 . S
H1335 C1319 0.961 . S
H1336 C1320 0.931 . S
H1337 C1325 0.930 . S
H1338 C1326 0.956 . S
H1339 C1326 0.961 . S
H1340 C1326 0.961 . S
H1341 C1327 0.958 . S
H1342 C1327 0.961 . S
H1343 C1327 0.960 . S
C1344 C1345 1.391 . S
C1344 C1346 1.394 . S
C1344 H1360 0.931 . S
C1345 C1344 1.391 . S
C1345 C1349 1.376 . S
C1346 C1344 1.394 . S
C1346 C1347 1.369 . S
C1346 C1350 1.531 . S
C1347 C1346 1.369 . S
C1347 C1348 1.410 . S
C1347 C1355 1.503 . S
C1348 C1347 1.410 . S
C1348 C1349 1.392 . S
C1348 C1351 1.511 . S
C1349 C1345 1.376 . S
C1349 C1348 1.392 . S
C1349 H1361 0.929 . S
C1350 C1346 1.531 . S
C1350 H1362 0.960 . S
C1350 H1363 0.962 . S
C1350 H1364 0.960 . S
C1351 C1348 1.511 . S
C1351 H1365 0.961 . S
C1351 H1366 0.961 . S
C1351 H1367 0.961 . S
C1352 C1353 1.370 . S
C1352 C1354 1.363 . S
C1352 H1368 0.931 . S
C1353 C1352 1.370 . S
C1353 C1357 1.408 . S
C1354 C1352 1.363 . S
C1354 C1355 1.370 . S
C1354 C1358 1.524 . S
C1355 C1347 1.503 . S
C1355 C1354 1.370 . S
C1355 C1356 1.403 . S
C1356 C1355 1.403 . S
C1356 C1357 1.404 . S
C1356 C1359 1.539 . S
C1357 C1353 1.408 . S
C1357 C1356 1.404 . S
C1357 H1369 0.930 . S
C1358 C1354 1.524 . S
C1358 H1370 0.956 . S
C1358 H1371 0.961 . S
C1358 H1372 0.961 . S
C1359 C1356 1.539 . S
C1359 H1373 0.958 . S
C1359 H1374 0.961 . S
C1359 H1375 0.960 . S
H1360 C1344 0.931 . S
H1361 C1349 0.929 . S
H1362 C1350 0.960 . S
H1363 C1350 0.962 . S
H1364 C1350 0.960 . S
H1365 C1351 0.961 . S
H1366 C1351 0.961 . S
H1367 C1351 0.961 . S
H1368 C1352 0.931 . S
H1369 C1357 0.930 . S
H1370 C1358 0.956 . S
H1371 C1358 0.961 . S
H1372 C1358 0.961 . S
H1373 C1359 0.958 . S
H1374 C1359 0.961 . S
H1375 C1359 0.960 . S
C1376 C1377 1.391 . S
C1376 C1378 1.394 . S
C1376 H1392 0.931 . S
C1377 C1376 1.391 . S
C1377 C1381 1.376 . S
C1378 C1376 1.394 . S
C1378 C1379 1.369 . S
C1378 C1382 1.531 . S
C1379 C1378 1.369 . S
C1379 C1380 1.410 . S
C1379 C1387 1.503 . S
C1380 C1379 1.410 . S
C1380 C1381 1.392 . S
C1380 C1383 1.511 . S
C1381 C1377 1.376 . S
C1381 C1380 1.392 . S
C1381 H1393 0.929 . S
C1382 C1378 1.531 . S
C1382 H1394 0.960 . S
C1382 H1395 0.962 . S
C1382 H1396 0.960 . S
C1383 C1380 1.511 . S
C1383 H1397 0.961 . S
C1383 H1398 0.961 . S
C1383 H1399 0.961 . S
C1384 C1385 1.370 . S
C1384 C1386 1.363 . S
C1384 H1400 0.931 . S
C1385 C1384 1.370 . S
C1385 C1389 1.408 . S
C1386 C1384 1.363 . S
C1386 C1387 1.370 . S
C1386 C1390 1.524 . S
C1387 C1379 1.503 . S
C1387 C1386 1.370 . S
C1387 C1388 1.403 . S
C1388 C1387 1.403 . S
C1388 C1389 1.404 . S
C1388 C1391 1.539 . S
C1389 C1385 1.408 . S
C1389 C1388 1.404 . S
C1389 H1401 0.930 . S
C1390 C1386 1.524 . S
C1390 H1402 0.956 . S
C1390 H1403 0.961 . S
C1390 H1404 0.961 . S
C1391 C1388 1.539 . S
C1391 H1405 0.958 . S
C1391 H1406 0.961 . S
C1391 H1407 0.960 . S
H1392 C1376 0.931 . S
H1393 C1381 0.929 . S
H1394 C1382 0.960 . S
H1395 C1382 0.962 . S
H1396 C1382 0.960 . S
H1397 C1383 0.961 . S
H1398 C1383 0.961 . S
H1399 C1383 0.961 . S
H1400 C1384 0.931 . S
H1401 C1389 0.930 . S
H1402 C1390 0.956 . S
H1403 C1390 0.961 . S
H1404 C1390 0.961 . S
H1405 C1391 0.958 . S
H1406 C1391 0.961 . S
H1407 C1391 0.960 . S
C1408 C1409 1.391 . S
C1408 C1410 1.394 . S
C1408 H1424 0.931 . S
C1409 C1408 1.391 . S
C1409 C1413 1.376 . S
C1410 C1408 1.394 . S
C1410 C1411 1.369 . S
C1410 C1414 1.531 . S
C1411 C1410 1.369 . S
C1411 C1412 1.410 . S
C1411 C1419 1.503 . S
C1412 C1411 1.410 . S
C1412 C1413 1.392 . S
C1412 C1415 1.511 . S
C1413 C1409 1.376 . S
C1413 C1412 1.392 . S
C1413 H1425 0.929 . S
C1414 C1410 1.531 . S
C1414 H1426 0.960 . S
C1414 H1427 0.962 . S
C1414 H1428 0.960 . S
C1415 C1412 1.511 . S
C1415 H1429 0.961 . S
C1415 H1430 0.961 . S
C1415 H1431 0.961 . S
C1416 C1417 1.370 . S
C1416 C1418 1.363 . S
C1416 H1432 0.931 . S
C1417 C1416 1.370 . S
C1417 C1421 1.408 . S
C1418 C1416 1.363 . S
C1418 C1419 1.370 . S
C1418 C1422 1.524 . S
C1419 C1411 1.503 . S
C1419 C1418 1.370 . S
C1419 C1420 1.403 . S
C1420 C1419 1.403 . S
C1420 C1421 1.404 . S
C1420 C1423 1.539 . S
C1421 C1417 1.408 . S
C1421 C1420 1.404 . S
C1421 H1433 0.930 . S
C1422 C1418 1.524 . S
C1422 H1434 0.956 . S
C1422 H1435 0.961 . S
C1422 H1436 0.961 . S
C1423 C1420 1.539 . S
C1423 H1437 0.958 . S
C1423 H1438 0.961 . S
C1423 H1439 0.960 . S
H1424 C1408 0.931 . S
H1425 C1413 0.929 . S
H1426 C1414 0.960 . S
H1427 C1414 0.962 . S
H1428 C1414 0.960 . S
H1429 C1415 0.961 . S
H1430 C1415 0.961 . S
H1431 C1415 0.961 . S
H1432 C1416 0.931 . S
H1433 C1421 0.930 . S
H1434 C1422 0.956 . S
H1435 C1422 0.961 . S
H1436 C1422 0.961 . S
H1437 C1423 0.958 . S
H1438 C1423 0.961 . S
H1439 C1423 0.960 . S
C673 C651 1.044 . S
C681 C69 1.058 . S
C705 C142 1.265 . S
C713 C405 1.078 . S
C737 C476 1.715 . S
C745 C224 1.654 . S
C769 C321 0.650 . S
C777 C560 0.327 . S
C801 C158 1.036 . S
C809 C562 1.039 . S
C833 C226 1.133 . S
C841 C657 1.287 . S
C865 C403 1.614 . S
C873 C319 1.721 . S
C897 C478 0.632 . S
C905 C67 0.321 . S
C929 C571 1.011 1_545 S
C937 C56 1.017 . S
C961 C147 3.141 . S
C969 C662 3.153 . S
C993 C394 1.366 . S
C1001 C237 1.441 . S
C1025 C308 3.478 . S
C1033 C487 3.483 . S
C1057 C392 1.957 1_545 S
C1065 C235 1.983 . S
C1089 C310 0.822 . S
C1097 C489 0.953 . S
C1121 C573 2.602 1_455 S
C1129 C58 2.630 . S
C1153 C153 1.155 . S
C1161 C646 1.144 . S
C1185 C74 2.875 . S
C1193 C231 3.005 . S
C1217 C151 3.124 1_565 S
C1225 C326 3.018 . S
C1249 C410 2.991 . S
C1257 C567 2.870 . S
C1281 C644 3.117 . S
C1289 C483 3.027 . S
C1313 C63 2.580 . S
C1321 C242 2.629 . S
C1345 C140 2.792 . S
C1353 C315 2.830 . S
C1377 C399 2.629 . S
C1385 C578 2.572 . S
C1409 C494 2.824 . S
C1417 C655 2.786 . S
