# Generated by pormake.
# Topology afi, (4)-cn, num edge types: 1
# Building blocks:
#     Node 0, Type 0, BuildingBlock: GALJAG_clean_sbu_0, # of connection points: 4
#     Node 1, Type 0, BuildingBlock: GALJAG_clean_sbu_0, # of connection points: 4
#     Node 2, Type 0, BuildingBlock: GALJAG_clean_sbu_0, # of connection points: 4
#     Node 3, Type 0, BuildingBlock: GALJAG_clean_sbu_0, # of connection points: 4
#     Node 4, Type 0, BuildingBlock: GALJAG_clean_sbu_0, # of connection points: 4
#     Node 5, Type 0, BuildingBlock: GALJAG_clean_sbu_0, # of connection points: 4
#     Node 6, Type 0, BuildingBlock: GALJAG_clean_sbu_0, # of connection points: 4
#     Node 7, Type 0, BuildingBlock: GALJAG_clean_sbu_0, # of connection points: 4
#     Node 8, Type 0, BuildingBlock: GALJAG_clean_sbu_0, # of connection points: 4
#     Node 9, Type 0, BuildingBlock: GALJAG_clean_sbu_0, # of connection points: 4
#     Node 10, Type 0, BuildingBlock: GALJAG_clean_sbu_0, # of connection points: 4
#     Node 11, Type 0, BuildingBlock: GALJAG_clean_sbu_0, # of connection points: 4
#     Node 12, Type 0, BuildingBlock: GALJAG_clean_sbu_0, # of connection points: 4
#     Node 13, Type 0, BuildingBlock: GALJAG_clean_sbu_0, # of connection points: 4
#     Node 14, Type 0, BuildingBlock: GALJAG_clean_sbu_0, # of connection points: 4
#     Node 15, Type 0, BuildingBlock: GALJAG_clean_sbu_0, # of connection points: 4
#     Node 16, Type 0, BuildingBlock: GALJAG_clean_sbu_0, # of connection points: 4
#     Node 17, Type 0, BuildingBlock: GALJAG_clean_sbu_0, # of connection points: 4
#     Node 18, Type 0, BuildingBlock: GALJAG_clean_sbu_0, # of connection points: 4
#     Node 19, Type 0, BuildingBlock: GALJAG_clean_sbu_0, # of connection points: 4
#     Node 20, Type 0, BuildingBlock: GALJAG_clean_sbu_0, # of connection points: 4
#     Node 21, Type 0, BuildingBlock: GALJAG_clean_sbu_0, # of connection points: 4
#     Node 22, Type 0, BuildingBlock: GALJAG_clean_sbu_0, # of connection points: 4
#     Node 23, Type 0, BuildingBlock: GALJAG_clean_sbu_0, # of connection points: 4
#     Edge 24, Type (0, 0), BuildingBlock: XUDNAN_clean_linker_2, # of connection points: 2
#     Edge 25, Type (0, 0), BuildingBlock: XUDNAN_clean_linker_2, # of connection points: 2
#     Edge 26, Type (0, 0), BuildingBlock: XUDNAN_clean_linker_2, # of connection points: 2
#     Edge 27, Type (0, 0), BuildingBlock: XUDNAN_clean_linker_2, # of connection points: 2
#     Edge 28, Type (0, 0), BuildingBlock: XUDNAN_clean_linker_2, # of connection points: 2
#     Edge 29, Type (0, 0), BuildingBlock: XUDNAN_clean_linker_2, # of connection points: 2
#     Edge 30, Type (0, 0), BuildingBlock: XUDNAN_clean_linker_2, # of connection points: 2
#     Edge 31, Type (0, 0), BuildingBlock: XUDNAN_clean_linker_2, # of connection points: 2
#     Edge 32, Type (0, 0), BuildingBlock: XUDNAN_clean_linker_2, # of connection points: 2
#     Edge 33, Type (0, 0), BuildingBlock: XUDNAN_clean_linker_2, # of connection points: 2
#     Edge 34, Type (0, 0), BuildingBlock: XUDNAN_clean_linker_2, # of connection points: 2
#     Edge 35, Type (0, 0), BuildingBlock: XUDNAN_clean_linker_2, # of connection points: 2
#     Edge 36, Type (0, 0), BuildingBlock: XUDNAN_clean_linker_2, # of connection points: 2
#     Edge 37, Type (0, 0), BuildingBlock: XUDNAN_clean_linker_2, # of connection points: 2
#     Edge 38, Type (0, 0), BuildingBlock: XUDNAN_clean_linker_2, # of connection points: 2
#     Edge 39, Type (0, 0), BuildingBlock: XUDNAN_clean_linker_2, # of connection points: 2
#     Edge 40, Type (0, 0), BuildingBlock: XUDNAN_clean_linker_2, # of connection points: 2
#     Edge 41, Type (0, 0), BuildingBlock: XUDNAN_clean_linker_2, # of connection points: 2
#     Edge 42, Type (0, 0), BuildingBlock: XUDNAN_clean_linker_2, # of connection points: 2
#     Edge 43, Type (0, 0), BuildingBlock: XUDNAN_clean_linker_2, # of connection points: 2
#     Edge 44, Type (0, 0), BuildingBlock: XUDNAN_clean_linker_2, # of connection points: 2
#     Edge 45, Type (0, 0), BuildingBlock: XUDNAN_clean_linker_2, # of connection points: 2
#     Edge 46, Type (0, 0), BuildingBlock: XUDNAN_clean_linker_2, # of connection points: 2
#     Edge 47, Type (0, 0), BuildingBlock: XUDNAN_clean_linker_2, # of connection points: 2
#     Edge 48, Type (0, 0), BuildingBlock: XUDNAN_clean_linker_2, # of connection points: 2
#     Edge 49, Type (0, 0), BuildingBlock: XUDNAN_clean_linker_2, # of connection points: 2
#     Edge 50, Type (0, 0), BuildingBlock: XUDNAN_clean_linker_2, # of connection points: 2
#     Edge 51, Type (0, 0), BuildingBlock: XUDNAN_clean_linker_2, # of connection points: 2
#     Edge 52, Type (0, 0), BuildingBlock: XUDNAN_clean_linker_2, # of connection points: 2
#     Edge 53, Type (0, 0), BuildingBlock: XUDNAN_clean_linker_2, # of connection points: 2
#     Edge 54, Type (0, 0), BuildingBlock: XUDNAN_clean_linker_2, # of connection points: 2
#     Edge 55, Type (0, 0), BuildingBlock: XUDNAN_clean_linker_2, # of connection points: 2
#     Edge 56, Type (0, 0), BuildingBlock: XUDNAN_clean_linker_2, # of connection points: 2
#     Edge 57, Type (0, 0), BuildingBlock: XUDNAN_clean_linker_2, # of connection points: 2
#     Edge 58, Type (0, 0), BuildingBlock: XUDNAN_clean_linker_2, # of connection points: 2
#     Edge 59, Type (0, 0), BuildingBlock: XUDNAN_clean_linker_2, # of connection points: 2
#     Edge 60, Type (0, 0), BuildingBlock: XUDNAN_clean_linker_2, # of connection points: 2
#     Edge 61, Type (0, 0), BuildingBlock: XUDNAN_clean_linker_2, # of connection points: 2
#     Edge 62, Type (0, 0), BuildingBlock: XUDNAN_clean_linker_2, # of connection points: 2
#     Edge 63, Type (0, 0), BuildingBlock: XUDNAN_clean_linker_2, # of connection points: 2
#     Edge 64, Type (0, 0), BuildingBlock: XUDNAN_clean_linker_2, # of connection points: 2
#     Edge 65, Type (0, 0), BuildingBlock: XUDNAN_clean_linker_2, # of connection points: 2
#     Edge 66, Type (0, 0), BuildingBlock: XUDNAN_clean_linker_2, # of connection points: 2
#     Edge 67, Type (0, 0), BuildingBlock: XUDNAN_clean_linker_2, # of connection points: 2
#     Edge 68, Type (0, 0), BuildingBlock: XUDNAN_clean_linker_2, # of connection points: 2
#     Edge 69, Type (0, 0), BuildingBlock: XUDNAN_clean_linker_2, # of connection points: 2
#     Edge 70, Type (0, 0), BuildingBlock: XUDNAN_clean_linker_2, # of connection points: 2
#     Edge 71, Type (0, 0), BuildingBlock: XUDNAN_clean_linker_2, # of connection points: 2
# Relax obj value: 0.135
# Max RMSD: 0.138
# Mean RMSD: 0.138
data_MOF--net-afi--node1-GALJAG_clean_sbu_0--edge1-XUDNAN_clean_linker_2
_symmetry_space_group_name_H-M    P1
_symmetry_Int_Tables_number       1
_symmetry_cell_setting            triclinic
loop_
_symmetry_equiv_pos_as_xyz
'x, y, z'
_cell_length_a     67.729611
_cell_length_b     67.735549
_cell_length_c     39.923537
_cell_angle_alpha  90.002448
_cell_angle_beta   90.024901
_cell_angle_gamma 120.00681
loop_
_atom_site_label
_atom_site_type_symbol
_atom_site_fract_x
_atom_site_fract_y
_atom_site_fract_z
_atom_type_partial_charge
In0 In 0.45829 0.12696 0.19131 0.0
O1 O 0.46787 0.13975 0.13745 0.0
O2 O 0.43417 0.11272 0.14656 0.0
C3 C 0.49995 0.13159 0.20196 0.0
C4 C 0.45107 0.161 0.21222 0.0
C5 C 0.43307 0.08659 0.22325 0.0
O6 O 0.49004 0.12626 0.17395 0.0
O7 O 0.48903 0.13494 0.22468 0.0
O8 O 0.4411 0.10556 0.2379 0.0
O9 O 0.43758 0.08792 0.19242 0.0
C10 C 0.44861 0.12582 0.12534 0.0
O11 O 0.4352 0.14086 0.20742 0.0
O12 O 0.47074 0.16413 0.20647 0.0
In13 In 0.34018 0.46179 0.19421 0.0
O14 O 0.3242 0.46748 0.24106 0.0
O15 O 0.30372 0.45572 0.19745 0.0
C16 C 0.35045 0.42963 0.21375 0.0
C17 C 0.33197 0.45429 0.12779 0.0
C18 C 0.37535 0.50417 0.20643 0.0
O19 O 0.33318 0.43013 0.22443 0.0
O20 O 0.3623 0.4451 0.19303 0.0
O21 O 0.37408 0.48647 0.21896 0.0
O22 O 0.35881 0.50054 0.18778 0.0
C23 C 0.30523 0.46171 0.22765 0.0
O24 O 0.34835 0.47239 0.13944 0.0
O25 O 0.31973 0.43987 0.14961 0.0
In26 In 0.88871 0.33226 0.19507 0.0
O27 O 0.87798 0.33319 0.14126 0.0
O28 O 0.89677 0.31631 0.15036 0.0
C29 C 0.88611 0.37046 0.20385 0.0
C30 C 0.85183 0.29822 0.22717 0.0
C31 C 0.93136 0.34401 0.2158 0.0
O32 O 0.87887 0.35832 0.17781 0.0
O33 O 0.89453 0.36327 0.22557 0.0
O34 O 0.91388 0.32634 0.22635 0.0
O35 O 0.92727 0.35531 0.19467 0.0
C36 C 0.88708 0.32246 0.12913 0.0
O37 O 0.86213 0.31861 0.23689 0.0
O38 O 0.8603 0.29465 0.20141 0.0
In39 In 0.55262 0.88595 0.18868 0.0
O40 O 0.5382 0.86302 0.14315 0.0
O41 O 0.5656 0.89675 0.13503 0.0
C42 C 0.51239 0.88464 0.19845 0.0
C43 C 0.56274 0.85424 0.21075 0.0
C44 C 0.58146 0.92546 0.22053 0.0
O45 O 0.52517 0.89441 0.17379 0.0
O46 O 0.51981 0.87544 0.21841 0.0
O47 O 0.56817 0.90723 0.23561 0.0
O48 O 0.58071 0.9238 0.18901 0.0
C49 C 0.5514 0.87775 0.12235 0.0
O50 O 0.57715 0.87226 0.19606 0.0
O51 O 0.54338 0.85237 0.21459 0.0
In52 In 0.67297 0.55089 0.19379 0.0
O53 O 0.7085 0.56324 0.21682 0.0
O54 O 0.69204 0.53137 0.19155 0.0
C55 C 0.66267 0.58199 0.21816 0.0
C56 C 0.67957 0.55987 0.12738 0.0
C57 C 0.63926 0.51298 0.22316 0.0
O58 O 0.67979 0.58088 0.22809 0.0
O59 O 0.65108 0.56772 0.19578 0.0
O60 O 0.63871 0.51736 0.19253 0.0
O61 O 0.65658 0.52774 0.23875 0.0
C62 C 0.70924 0.54572 0.20781 0.0
O63 O 0.66384 0.54121 0.13876 0.0
O64 O 0.6919 0.57402 0.14946 0.0
In65 In 0.12482 0.67368 0.19059 0.0
O66 O 0.11532 0.66184 0.13615 0.0
O67 O 0.13873 0.6969 0.14508 0.0
C68 C 0.13435 0.64005 0.20312 0.0
C69 C 0.15693 0.71252 0.2208 0.0
C70 C 0.08134 0.65977 0.2104 0.0
O71 O 0.13427 0.64721 0.17399 0.0
O72 O 0.12977 0.64995 0.22606 0.0
O73 O 0.09373 0.65323 0.22442 0.0
O74 O 0.09085 0.67344 0.18651 0.0
C75 C 0.12796 0.68138 0.12379 0.0
O76 O 0.13618 0.70696 0.21951 0.0
O77 O 0.16138 0.69832 0.20751 0.0
In78 In 0.88234 0.54161 0.31107 0.0
O79 O 0.85975 0.55753 0.29915 0.0
O80 O 0.84654 0.52229 0.29012 0.0
C81 C 0.92389 0.57617 0.29263 0.0
C82 C 0.87563 0.5371 0.37839 0.0
C83 C 0.88514 0.50816 0.27843 0.0
O84 O 0.90554 0.57488 0.28289 0.0
O85 O 0.92124 0.56055 0.31247 0.0
O86 O 0.88843 0.5113 0.30959 0.0
O87 O 0.88082 0.52208 0.26379 0.0
C88 C 0.84325 0.53898 0.28869 0.0
O89 O 0.8682 0.5205 0.35846 0.0
O90 O 0.88651 0.55636 0.36449 0.0
In91 In 0.33962 0.88308 0.31035 0.0
O92 O 0.34662 0.86634 0.35468 0.0
O93 O 0.33063 0.88592 0.36459 0.0
C94 C 0.37362 0.88184 0.27668 0.0
C95 C 0.29698 0.85048 0.29163 0.0
C96 C 0.35446 0.92803 0.30123 0.0
O97 O 0.37213 0.88078 0.30819 0.0
O98 O 0.35787 0.88331 0.26213 0.0
O99 O 0.34424 0.91339 0.27861 0.0
O100 O 0.35676 0.91996 0.32843 0.0
C101 C 0.33848 0.87391 0.37629 0.0
O102 O 0.30153 0.87004 0.30121 0.0
O103 O 0.31389 0.8475 0.29103 0.0
In104 In 0.46039 0.34024 0.31587 0.0
O105 O 0.45899 0.35886 0.36229 0.0
O106 O 0.45884 0.32781 0.37007 0.0
C107 C 0.50292 0.37381 0.3003 0.0
C108 C 0.45232 0.29901 0.2926 0.0
C109 C 0.42873 0.34943 0.29061 0.0
O110 O 0.49777 0.36398 0.32841 0.0
O111 O 0.48669 0.36633 0.27951 0.0
O112 O 0.44839 0.35754 0.27812 0.0
O113 O 0.42491 0.3363 0.31517 0.0
C114 C 0.45841 0.34459 0.38307 0.0
O115 O 0.43671 0.30303 0.30061 0.0
O116 O 0.47212 0.31576 0.29619 0.0
In117 In 0.13015 0.46648 0.31372 0.0
O118 O 0.15126 0.45297 0.28735 0.0
O119 O 0.16747 0.47866 0.32441 0.0
C120 C 0.08992 0.43145 0.29106 0.0
C121 C 0.12305 0.46693 0.38029 0.0
C122 C 0.13958 0.50607 0.28369 0.0
O123 O 0.09853 0.45155 0.28044 0.0
O124 O 0.10185 0.42864 0.31269 0.0
O125 O 0.13378 0.50189 0.31403 0.0
O126 O 0.14105 0.49047 0.26866 0.0
C127 C 0.16928 0.46571 0.30351 0.0
O128 O 0.1151 0.47488 0.35899 0.0
O129 O 0.13433 0.45847 0.368 0.0
In130 In 0.6692 0.12631 0.31615 0.0
O131 O 0.70446 0.14633 0.29084 0.0
O132 O 0.69183 0.16471 0.31794 0.0
C133 C 0.65622 0.08226 0.30312 0.0
C134 C 0.67662 0.12687 0.38255 0.0
C135 C 0.63604 0.1301 0.28394 0.0
O136 O 0.67044 0.0983 0.28479 0.0
O137 O 0.64884 0.0885 0.32747 0.0
O138 O 0.63747 0.1304 0.31549 0.0
O139 O 0.65128 0.12803 0.26897 0.0
C140 C 0.7079 0.16549 0.30096 0.0
O141 O 0.66041 0.12892 0.37067 0.0
O142 O 0.68898 0.12462 0.36092 0.0
In143 In 0.55266 0.6745 0.30993 0.0
O144 O 0.52986 0.66009 0.3559 0.0
O145 O 0.56433 0.68517 0.36438 0.0
C146 C 0.51433 0.64213 0.27977 0.0
C147 C 0.56292 0.7167 0.28868 0.0
C148 C 0.58444 0.66283 0.29384 0.0
O149 O 0.52333 0.66303 0.2726 0.0
O150 O 0.52476 0.63757 0.30193 0.0
O151 O 0.56864 0.65996 0.27422 0.0
O152 O 0.58456 0.67201 0.32137 0.0
C153 C 0.5451 0.67182 0.37699 0.0
O154 O 0.57533 0.70819 0.28227 0.0
O155 O 0.54554 0.70408 0.30595 0.0
In156 In 0.55724 0.88491 0.80903 0.0
O157 O 0.54356 0.8617 0.85486 0.0
O158 O 0.56207 0.89723 0.8637 0.0
C159 C 0.51718 0.8785 0.78509 0.0
C160 C 0.56816 0.85407 0.78479 0.0
C161 C 0.58855 0.92719 0.78717 0.0
O162 O 0.52552 0.88888 0.81234 0.0
O163 O 0.52918 0.87184 0.77006 0.0
O164 O 0.56877 0.91602 0.77507 0.0
O165 O 0.59285 0.91683 0.8097 0.0
C166 C 0.55143 0.87752 0.87614 0.0
O167 O 0.58293 0.87287 0.79719 0.0
O168 O 0.54831 0.85117 0.78423 0.0
In169 In 0.67739 0.55283 0.81447 0.0
O170 O 0.71325 0.56611 0.79221 0.0
O171 O 0.69754 0.53444 0.81801 0.0
C172 C 0.66654 0.58317 0.78852 0.0
C173 C 0.6827 0.56134 0.8811 0.0
C174 C 0.64433 0.5143 0.78549 0.0
O175 O 0.68368 0.58203 0.77883 0.0
O176 O 0.65527 0.5694 0.81156 0.0
O177 O 0.64319 0.51939 0.81556 0.0
O178 O 0.66197 0.52867 0.77012 0.0
C179 C 0.7146 0.54903 0.80178 0.0
O180 O 0.66759 0.54258 0.86906 0.0
O181 O 0.69516 0.5759 0.85953 0.0
In182 In 0.12864 0.67615 0.81003 0.0
O183 O 0.14039 0.70761 0.77672 0.0
O184 O 0.16558 0.70438 0.80411 0.0
C185 C 0.08629 0.66464 0.78743 0.0
C186 C 0.13158 0.68229 0.87746 0.0
C187 C 0.13937 0.64429 0.79047 0.0
O188 O 0.09874 0.65825 0.77324 0.0
O189 O 0.09524 0.67707 0.81274 0.0
O190 O 0.12524 0.64065 0.81358 0.0
O191 O 0.14814 0.6639 0.77772 0.0
C192 C 0.16125 0.71616 0.78409 0.0
O193 O 0.12278 0.66274 0.86437 0.0
O194 O 0.13876 0.69839 0.8567 0.0
In195 In 0.46001 0.1264 0.81392 0.0
O196 O 0.43693 0.14002 0.79624 0.0
O197 O 0.4724 0.16346 0.79828 0.0
C198 C 0.43576 0.08578 0.78213 0.0
C199 C 0.44953 0.12539 0.87952 0.0
C200 C 0.50209 0.13176 0.80471 0.0
O201 O 0.44311 0.10468 0.76752 0.0
O202 O 0.4404 0.08728 0.81294 0.0
O203 O 0.49208 0.12682 0.83263 0.0
O204 O 0.49105 0.13434 0.78135 0.0
C205 C 0.45279 0.1602 0.79162 0.0
O206 O 0.46889 0.13933 0.86777 0.0
O207 O 0.43535 0.11217 0.8581 0.0
In208 In 0.34134 0.46192 0.81594 0.0
O209 O 0.30772 0.43973 0.78781 0.0
O210 O 0.31672 0.47381 0.79846 0.0
C211 C 0.35807 0.43356 0.80447 0.0
C212 C 0.33134 0.45565 0.88198 0.0
C213 C 0.37586 0.50383 0.79876 0.0
O214 O 0.35044 0.44047 0.78115 0.0
O215 O 0.35724 0.44093 0.83309 0.0
O216 O 0.36314 0.50034 0.82372 0.0
O217 O 0.37098 0.48621 0.7819 0.0
C218 C 0.30228 0.45498 0.78593 0.0
O219 O 0.34963 0.47204 0.87078 0.0
O220 O 0.31794 0.44243 0.85984 0.0
In221 In 0.8904 0.33846 0.81849 0.0
O222 O 0.86583 0.30118 0.80236 0.0
O223 O 0.85628 0.32588 0.79214 0.0
C224 C 0.93185 0.34914 0.79377 0.0
C225 C 0.88751 0.32615 0.88363 0.0
C226 C 0.89267 0.37889 0.80808 0.0
O227 O 0.91347 0.33415 0.78055 0.0
O228 O 0.92926 0.35833 0.81953 0.0
O229 O 0.8905 0.37036 0.83692 0.0
O230 O 0.89366 0.367 0.78448 0.0
C231 C 0.85112 0.30532 0.79013 0.0
O232 O 0.879 0.33769 0.87257 0.0
O233 O 0.89715 0.32045 0.86175 0.0
In234 In 0.131 0.46543 0.69316 0.0
O235 O 0.14543 0.44133 0.70021 0.0
O236 O 0.16566 0.47524 0.717 0.0
C237 C 0.08975 0.43189 0.71455 0.0
C238 C 0.12639 0.46891 0.62636 0.0
C239 C 0.1411 0.50734 0.71445 0.0
O240 O 0.1028 0.44856 0.73291 0.0
O241 O 0.09776 0.43192 0.68607 0.0
O242 O 0.15087 0.50415 0.68983 0.0
O243 O 0.12637 0.48933 0.72884 0.0
C244 C 0.16389 0.45597 0.71342 0.0
O245 O 0.11486 0.47234 0.64792 0.0
O246 O 0.14055 0.46387 0.6384 0.0
In247 In 0.67382 0.1294 0.69588 0.0
O248 O 0.66332 0.12993 0.64148 0.0
O249 O 0.69225 0.12628 0.65009 0.0
C250 C 0.64025 0.13253 0.72777 0.0
C251 C 0.71075 0.17017 0.71138 0.0
C252 C 0.66378 0.08717 0.71602 0.0
O253 O 0.64118 0.13163 0.69626 0.0
O254 O 0.65625 0.13194 0.74306 0.0
O255 O 0.68182 0.10496 0.72483 0.0
O256 O 0.65104 0.09071 0.6969 0.0
C257 C 0.6792 0.12772 0.62892 0.0
O258 O 0.70906 0.15147 0.72018 0.0
O259 O 0.69396 0.16819 0.69493 0.0
In260 In 0.55382 0.67161 0.69012 0.0
O261 O 0.53068 0.6579 0.64432 0.0
O262 O 0.56527 0.68259 0.63573 0.0
C263 C 0.51561 0.63945 0.7208 0.0
C264 C 0.56488 0.71429 0.71022 0.0
C265 C 0.58517 0.65933 0.70614 0.0
O266 O 0.52467 0.63499 0.6965 0.0
O267 O 0.52595 0.66009 0.72984 0.0
O268 O 0.57036 0.65799 0.72652 0.0
O269 O 0.5844 0.66709 0.67778 0.0
C270 C 0.54589 0.66965 0.62321 0.0
O271 O 0.57802 0.70634 0.71424 0.0
O272 O 0.54629 0.70082 0.69608 0.0
In273 In 0.88712 0.54688 0.69158 0.0
O274 O 0.86398 0.56217 0.70361 0.0
O275 O 0.85263 0.52785 0.7168 0.0
C276 C 0.92894 0.58244 0.70609 0.0
C277 C 0.87854 0.54047 0.62479 0.0
C278 C 0.89234 0.51518 0.72519 0.0
O279 O 0.9108 0.58138 0.71636 0.0
O280 O 0.92591 0.5661 0.68753 0.0
O281 O 0.89213 0.51591 0.69358 0.0
O282 O 0.89019 0.53056 0.73968 0.0
C283 C 0.84858 0.54406 0.7169 0.0
O284 O 0.87148 0.52444 0.6457 0.0
O285 O 0.88996 0.56009 0.63745 0.0
In286 In 0.34386 0.88263 0.68899 0.0
O287 O 0.35165 0.86813 0.64266 0.0
O288 O 0.33429 0.88655 0.63512 0.0
C289 C 0.37678 0.87441 0.71141 0.0
C290 C 0.30123 0.85371 0.71304 0.0
C291 C 0.36072 0.92758 0.70129 0.0
O292 O 0.36115 0.86132 0.69165 0.0
O293 O 0.37566 0.89165 0.72067 0.0
O294 O 0.35082 0.91259 0.72364 0.0
O295 O 0.36203 0.91988 0.67314 0.0
C296 C 0.34272 0.87544 0.62207 0.0
O297 O 0.30512 0.86812 0.69043 0.0
O298 O 0.31885 0.85437 0.72449 0.0
In299 In 0.46446 0.34184 0.69621 0.0
O300 O 0.44001 0.3037 0.7049 0.0
O301 O 0.47517 0.31643 0.71412 0.0
C302 C 0.43514 0.3518 0.72804 0.0
C303 C 0.46041 0.3455 0.62938 0.0
C304 C 0.50762 0.37487 0.711 0.0
O305 O 0.44778 0.34609 0.74345 0.0
O306 O 0.43671 0.35174 0.6966 0.0
O307 O 0.50262 0.36305 0.68469 0.0
O308 O 0.491 0.36969 0.73023 0.0
C309 C 0.4553 0.29941 0.71411 0.0
O310 O 0.45854 0.32766 0.64249 0.0
O311 O 0.46413 0.36113 0.64992 0.0
H312 H 0.41081 0.04364 0.196 0.0
H313 H 0.42609 0.07988 0.29066 0.0
H314 H 0.40585 0.04316 0.32078 0.0
H315 H 0.35386 0.99788 0.21917 0.0
H316 H 0.35679 0.97642 0.19665 0.0
H317 H 0.37167 0.00558 0.18244 0.0
H318 H 0.40997 0.00573 0.18508 0.0
H319 H 0.39523 0.97661 0.19928 0.0
H320 H 0.41838 0.99818 0.22368 0.0
H321 H 0.38638 1.00261 0.34077 0.0
H322 H 0.36779 0.96094 0.34916 0.0
H323 H 0.3637 0.95095 0.2415 0.0
C324 C 0.40972 0.04384 0.22305 0.0
C325 C 0.42002 0.0646 0.24103 0.0
C326 C 0.41827 0.06417 0.27639 0.0
C327 C 0.40681 0.0434 0.29372 0.0
C328 C 0.39699 0.02323 0.27528 0.0
C329 C 0.39817 0.02326 0.24072 0.0
C330 C 0.38655 0.99918 0.22696 0.0
C331 C 0.36599 0.9945 0.20501 0.0
C332 C 0.40355 0.99467 0.20762 0.0
C333 C 0.379 0.9856 0.25921 0.0
C334 C 0.38521 0.99981 0.28679 0.0
C335 C 0.38117 0.9913 0.31937 0.0
C336 C 0.37065 0.96763 0.32388 0.0
C337 C 0.36412 0.95276 0.29599 0.0
C338 C 0.36816 0.9619 0.26327 0.0
H339 H 0.4351 0.38164 0.24364 0.0
H340 H 0.38504 0.3327 0.31259 0.0
H341 H 0.35836 0.34614 0.29747 0.0
H342 H 0.42511 0.42648 0.26202 0.0
H343 H 0.42893 0.43713 0.21974 0.0
H344 H 0.44321 0.42217 0.23341 0.0
H345 H 0.42494 0.39347 0.1845 0.0
H346 H 0.41066 0.40842 0.17056 0.0
H347 H 0.39439 0.37833 0.17944 0.0
H348 H 0.33838 0.367 0.27828 0.0
H349 H 0.32641 0.39341 0.25578 0.0
H350 H 0.38944 0.42863 0.19926 0.0
C351 C 0.41836 0.37346 0.25507 0.0
C352 C 0.41207 0.35604 0.27916 0.0
C353 C 0.39016 0.34601 0.29396 0.0
C354 C 0.37488 0.35351 0.28551 0.0
C355 C 0.38176 0.37101 0.26213 0.0
C356 C 0.40293 0.38077 0.24697 0.0
C357 C 0.40661 0.40014 0.22403 0.0
C358 C 0.42718 0.42282 0.2355 0.0
C359 C 0.4093 0.39476 0.18746 0.0
C360 C 0.3844 0.40003 0.22917 0.0
C361 C 0.37023 0.38301 0.25106 0.0
C362 C 0.34922 0.38022 0.26081 0.0
C363 C 0.34258 0.39532 0.24796 0.0
C364 C 0.35693 0.41297 0.22567 0.0
C365 C 0.378 0.41515 0.21599 0.0
H366 H 0.97006 0.3838 0.20081 0.0
H367 H 0.94526 0.32193 0.25937 0.0
H368 H 0.98412 0.33628 0.28221 0.0
H369 H 0.0264 0.39189 0.18168 0.0
H370 H 0.04011 0.42245 0.18563 0.0
H371 H 0.01085 0.40637 0.17205 0.0
H372 H 0.99888 0.42388 0.22018 0.0
H373 H 0.02804 0.43999 0.23389 0.0
H374 H 1.00619 0.4213 0.26275 0.0
H375 H 0.02563 0.35876 0.30097 0.0
H376 H 0.06547 0.38763 0.315 0.0
H377 H 0.06223 0.43456 0.24432 0.0
C378 C 0.97284 0.37309 0.21807 0.0
C379 C 0.95469 0.35169 0.22818 0.0
C380 C 0.95897 0.33834 0.25118 0.0
C381 C 0.98098 0.34634 0.26422 0.0
C382 C 0.99847 0.36768 0.25396 0.0
C383 C 0.99458 0.38084 0.23137 0.0
C384 C 0.01583 0.40368 0.22572 0.0
C385 C 0.02376 0.40624 0.1891 0.0
C386 C 0.012 0.42337 0.23628 0.0
C387 C 0.03226 0.40153 0.24903 0.0
C388 C 0.02206 0.38059 0.26491 0.0
C389 C 0.0338 0.37513 0.28846 0.0
C390 C 0.05642 0.3916 0.29625 0.0
C391 C 0.06695 0.41329 0.28067 0.0
C392 C 0.05471 0.41809 0.25649 0.0
H393 H 0.60779 0.96855 0.19407 0.0
H394 H 0.58619 0.93147 0.28802 0.0
H395 H 0.60618 0.96767 0.3191 0.0
H396 H 0.66453 0.01415 0.22408 0.0
H397 H 0.66307 0.03594 0.20013 0.0
H398 H 0.6491 0.00698 0.18502 0.0
H399 H 0.61089 0.00692 0.18138 0.0
H400 H 0.62468 0.0358 0.19657 0.0
H401 H 0.60007 0.01386 0.21809 0.0
H402 H 0.62428 0.00737 0.33992 0.0
H403 H 0.64099 0.04866 0.34948 0.0
H404 H 0.65253 0.06095 0.24274 0.0
C405 C 0.60771 0.96806 0.22119 0.0
C406 C 0.5955 0.94717 0.23864 0.0
C407 C 0.59547 0.94724 0.27411 0.0
C408 C 0.60682 0.96773 0.29202 0.0
C409 C 0.61829 0.98804 0.27413 0.0
C410 C 0.61904 0.98844 0.23953 0.0
C411 C 0.63152 0.01278 0.22658 0.0
C412 C 0.65335 0.01775 0.20785 0.0
C413 C 0.61585 0.01761 0.20435 0.0
C414 C 0.63706 0.02593 0.25928 0.0
C415 C 0.62933 0.01124 0.28635 0.0
C416 C 0.6308 0.01908 0.31901 0.0
C417 C 0.64024 0.04253 0.32417 0.0
C418 C 0.64827 0.05793 0.2969 0.0
C419 C 0.64698 0.04955 0.26408 0.0
H420 H 0.58236 0.63572 0.24161 0.0
H421 H 0.62287 0.67161 0.32861 0.0
H422 H 0.64882 0.65662 0.3169 0.0
H423 H 0.58542 0.58563 0.25331 0.0
H424 H 0.58685 0.58056 0.20929 0.0
H425 H 0.57268 0.59561 0.22299 0.0
H426 H 0.59873 0.62959 0.18446 0.0
H427 H 0.61298 0.61462 0.17058 0.0
H428 H 0.62926 0.64277 0.18832 0.0
H429 H 0.66946 0.63629 0.29675 0.0
H430 H 0.68232 0.61143 0.27088 0.0
H431 H 0.62759 0.58827 0.19807 0.0
C432 C 0.59689 0.6407 0.25792 0.0
C433 C 0.60073 0.65497 0.28588 0.0
C434 C 0.61969 0.66078 0.30696 0.0
C435 C 0.63453 0.65238 0.30048 0.0
C436 C 0.63012 0.63813 0.27288 0.0
C437 C 0.61172 0.63233 0.25198 0.0
C438 C 0.61 0.61578 0.22506 0.0
C439 C 0.5874 0.59305 0.22785 0.0
C440 C 0.61292 0.62633 0.19003 0.0
C441 C 0.63015 0.61298 0.23425 0.0
C442 C 0.64168 0.62616 0.26171 0.0
C443 C 0.66062 0.62599 0.27514 0.0
C444 C 0.66781 0.61184 0.26029 0.0
C445 C 0.65598 0.59795 0.23247 0.0
C446 C 0.63703 0.59874 0.21925 0.0
H447 H 0.05659 0.62783 0.25817 0.0
H448 H 0.05209 0.67301 0.18543 0.0
H449 H 0.0118 0.65834 0.20118 0.0
H450 H 1.00171 0.58057 0.24325 0.0
H451 H 0.99636 0.57163 0.28642 0.0
H452 H 0.02516 0.58681 0.27095 0.0
H453 H 0.03594 0.61721 0.31747 0.0
H454 H 1.00712 0.60213 0.33306 0.0
H455 H 0.01989 0.63175 0.32158 0.0
H456 H 0.97134 0.63728 0.22311 0.0
H457 H 0.93389 0.61095 0.24853 0.0
H458 H 0.96505 0.57965 0.30675 0.0
C459 C 0.0472 0.63482 0.2458 0.0
C460 C 0.05748 0.65163 0.22066 0.0
C461 C 0.04456 0.66017 0.20483 0.0
C462 C 0.02169 0.65198 0.21366 0.0
C463 C 0.01201 0.63528 0.2384 0.0
C464 C 0.02437 0.6268 0.25425 0.0
C465 C 0.00974 0.60821 0.27896 0.0
C466 C 0.00815 0.58546 0.2693 0.0
C467 C 0.01871 0.61526 0.3149 0.0
C468 C 0.98712 0.60731 0.27424 0.0
C469 C 0.98879 0.62315 0.25092 0.0
C470 C 0.96989 0.62493 0.2416 0.0
C471 C 0.94869 0.60993 0.25618 0.0
C472 C 0.94657 0.59335 0.27973 0.0
C473 C 0.96615 0.59229 0.28907 0.0
H474 H 0.58098 0.95389 0.74362 0.0
H475 H 0.63235 0.95453 0.80929 0.0
H476 H 0.65817 0.99525 0.79607 0.0
H477 H 0.62007 0.9928 0.68022 0.0
H478 H 0.60326 0.00631 0.67343 0.0
H479 H 0.58962 0.97689 0.68627 0.0
H480 H 0.57184 0.98609 0.73714 0.0
H481 H 0.58548 0.01552 0.72456 0.0
H482 H 0.59016 0.00817 0.76604 0.0
H483 H 0.67748 0.03664 0.77809 0.0
H484 H 0.68875 0.0751 0.75647 0.0
H485 H 0.62456 0.0471 0.70282 0.0
C486 C 0.59779 0.96249 0.75483 0.0
C487 C 0.60472 0.95102 0.77735 0.0
C488 C 0.62674 0.96297 0.79184 0.0
C489 C 0.64152 0.98609 0.78448 0.0
C490 C 0.63402 0.99699 0.76254 0.0
C491 C 0.6127 0.98555 0.74784 0.0
C492 C 0.60832 1.00136 0.72627 0.0
C493 C 0.60514 0.99389 0.68936 0.0
C494 C 0.58774 1.00287 0.73929 0.0
C495 C 0.63039 0.02358 0.73145 0.0
C496 C 0.64506 0.02072 0.75231 0.0
C497 C 0.6662 0.03902 0.76152 0.0
C498 C 0.67244 0.0608 0.74915 0.0
C499 C 0.65758 0.06408 0.72789 0.0
C500 C 0.63637 0.04513 0.71885 0.0
H501 H 0.63173 0.58994 0.80835 0.0
H502 H 0.68481 0.61049 0.73339 0.0
H503 H 0.67084 0.63374 0.70527 0.0
H504 H 0.58816 0.58408 0.75389 0.0
H505 H 0.57576 0.59509 0.78309 0.0
H506 H 0.59081 0.58127 0.79833 0.0
H507 H 0.61743 0.61711 0.83334 0.0
H508 H 0.60239 0.63103 0.8183 0.0
H509 H 0.63283 0.64444 0.8129 0.0
H510 H 0.64916 0.65246 0.68313 0.0
H511 H 0.62258 0.66649 0.67014 0.0
H512 H 0.58449 0.63448 0.76063 0.0
C513 C 0.6406 0.59955 0.78624 0.0
C514 C 0.65938 0.59845 0.77304 0.0
C515 C 0.67045 0.61118 0.74399 0.0
C516 C 0.66262 0.6244 0.72784 0.0
C517 C 0.64384 0.62485 0.74126 0.0
C518 C 0.63311 0.61291 0.76999 0.0
C519 C 0.61294 0.61577 0.77888 0.0
C520 C 0.5906 0.59268 0.77851 0.0
C521 C 0.61663 0.62781 0.81287 0.0
C522 C 0.61374 0.63088 0.75037 0.0
C523 C 0.63167 0.63595 0.72892 0.0
C524 C 0.63522 0.64881 0.69996 0.0
C525 C 0.62002 0.65666 0.69275 0.0
C526 C 0.60159 0.65171 0.71449 0.0
C527 C 0.59859 0.63878 0.74375 0.0
H528 H 0.96981 0.58551 0.69123 0.0
H529 H 0.93976 0.61853 0.74793 0.0
H530 H 0.97756 0.64516 0.77211 0.0
H531 H 1.00609 0.58686 0.75437 0.0
H532 H 0.0294 0.59221 0.72696 0.0
H533 H 1.00061 0.57745 0.7114 0.0
H534 H 0.01177 0.60732 0.66402 0.0
H535 H 0.04069 0.62213 0.67931 0.0
H536 H 0.02517 0.63717 0.67453 0.0
H537 H 0.01796 0.66577 0.79404 0.0
H538 H 0.05792 0.67944 0.81072 0.0
H539 H 0.06147 0.63305 0.73927 0.0
C540 C 0.97125 0.59866 0.70818 0.0
C541 C 0.95187 0.60006 0.71756 0.0
C542 C 0.95442 0.61726 0.74023 0.0
C543 C 0.97581 0.63244 0.7541 0.0
C544 C 0.9945 0.63026 0.74489 0.0
C545 C 0.99245 0.61391 0.72224 0.0
C546 C 0.01485 0.61427 0.71792 0.0
C547 C 0.01259 0.59134 0.72829 0.0
C548 C 0.02364 0.62061 0.68179 0.0
C549 C 0.02973 0.63307 0.74218 0.0
C550 C 0.01773 0.64217 0.75738 0.0
C551 C 0.0276 0.65897 0.78197 0.0
C552 C 0.05027 0.66659 0.79134 0.0
C553 C 0.06283 0.65742 0.77614 0.0
C554 C 0.0524 0.64059 0.75105 0.0
H555 H 0.41575 0.04263 0.80889 0.0
H556 H 0.42809 0.07915 0.71489 0.0
H557 H 0.40903 0.04256 0.68435 0.0
H558 H 0.42557 0.9988 0.77887 0.0
H559 H 0.40331 0.97647 0.8035 0.0
H560 H 0.41719 0.00548 0.81821 0.0
H561 H 0.37804 1.00342 0.82283 0.0
H562 H 0.36403 0.97437 0.80818 0.0
H563 H 0.35962 0.99527 0.78671 0.0
H564 H 0.39078 1.00235 0.66374 0.0
H565 H 0.37302 0.96088 0.65444 0.0
H566 H 0.37107 0.95004 0.7618 0.0
C567 C 0.41429 0.0429 0.78191 0.0
C568 C 0.42341 0.06374 0.76423 0.0
C569 C 0.42119 0.0634 0.72894 0.0
C570 C 0.4104 0.0427 0.71137 0.0
C571 C 0.40175 0.02247 0.72949 0.0
C572 C 0.4034 0.02236 0.76398 0.0
C573 C 0.39289 0.99821 0.77729 0.0
C574 C 0.41081 0.99453 0.79554 0.0
C575 C 0.37243 0.99248 0.8001 0.0
C576 C 0.38533 0.98479 0.74486 0.0
C577 C 0.39067 0.99916 0.7176 0.0
C578 C 0.3863 0.99091 0.68489 0.0
C579 C 0.37626 0.96734 0.67987 0.0
C580 C 0.37053 0.95227 0.70739 0.0
C581 C 0.37499 0.96114 0.74031 0.0
H582 H 0.36747 0.41977 0.74459 0.0
H583 H 0.37072 0.41342 0.85235 0.0
H584 H 0.38823 0.38942 0.8443 0.0
H585 H 0.35525 0.36203 0.72326 0.0
H586 H 0.37292 0.37129 0.68634 0.0
H587 H 0.35912 0.38666 0.70039 0.0
H588 H 0.3982 0.42401 0.70249 0.0
H589 H 0.41209 0.40877 0.68841 0.0
H590 H 0.42106 0.42489 0.72682 0.0
H591 H 0.40736 0.36802 0.82492 0.0
H592 H 0.42753 0.35126 0.79533 0.0
H593 H 0.41196 0.3713 0.70011 0.0
C594 C 0.3716 0.41308 0.76644 0.0
C595 C 0.36765 0.41839 0.7991 0.0
C596 C 0.37357 0.40955 0.82709 0.0
C597 C 0.38346 0.39584 0.82279 0.0
C598 C 0.38733 0.39107 0.79031 0.0
C599 C 0.3816 0.3994 0.76259 0.0
C600 C 0.38865 0.39265 0.73049 0.0
C601 C 0.36773 0.37724 0.70885 0.0
C602 C 0.40603 0.41384 0.71091 0.0
C603 C 0.39953 0.37954 0.74455 0.0
C604 C 0.39843 0.3787 0.77911 0.0
C605 C 0.40815 0.36837 0.79784 0.0
C606 C 0.41956 0.3589 0.78083 0.0
C607 C 0.42118 0.35984 0.74545 0.0
C608 C 0.41075 0.37005 0.72715 0.0
H609 H 0.06538 0.4324 0.76916 0.0
H610 H 0.0609 0.3927 0.68124 0.0
H611 H 0.02053 0.36553 0.69418 0.0
H612 H 0.02688 0.38404 0.82299 0.0
H613 H 0.01448 0.39954 0.84171 0.0
H614 H 0.04359 0.41459 0.82734 0.0
H615 H 0.03438 0.4403 0.79012 0.0
H616 H 1.00526 0.42528 0.80423 0.0
H617 H 0.01149 0.42731 0.76007 0.0
H618 H 0.97987 0.34439 0.71408 0.0
H619 H 0.94203 0.33073 0.73994 0.0
H620 H 0.97298 0.38419 0.81476 0.0
C621 C 0.05602 0.41773 0.75304 0.0
C622 C 0.0663 0.41456 0.72432 0.0
C623 C 0.05338 0.3954 0.70346 0.0
C624 C 0.03045 0.37985 0.71062 0.0
C625 C 0.02068 0.38368 0.73876 0.0
C626 C 0.03306 0.40209 0.75974 0.0
C627 C 0.01815 0.40306 0.78722 0.0
C628 C 0.02626 0.40013 0.82187 0.0
C629 C 0.01727 0.42531 0.78527 0.0
C630 C 0.99539 0.38257 0.77808 0.0
C631 C 0.99722 0.37153 0.75018 0.0
C632 C 0.97827 0.35274 0.73617 0.0
C633 C 0.95685 0.34512 0.75098 0.0
C634 C 0.95459 0.35631 0.77944 0.0
C635 C 0.9742 0.37513 0.79323 0.0
H636 H 0.48262 0.20567 0.22642 0.0
H637 H 0.40986 0.15764 0.22432 0.0
H638 H 0.40236 0.1878 0.24406 0.0
H639 H 0.48246 0.23516 0.30117 0.0
H640 H 0.50393 0.26282 0.28639 0.0
H641 H 0.50364 0.23756 0.27156 0.0
H642 H 0.50186 0.24917 0.21028 0.0
H643 H 0.50215 0.27447 0.22492 0.0
H644 H 0.47947 0.25471 0.19798 0.0
H645 H 0.40266 0.22295 0.26433 0.0
H646 H 0.41077 0.26081 0.28415 0.0
H647 H 0.48334 0.28621 0.27345 0.0
C648 C 0.46512 0.20153 0.23005 0.0
C649 C 0.44681 0.1793 0.2238 0.0
C650 C 0.42415 0.17454 0.22893 0.0
C651 C 0.41971 0.19157 0.24012 0.0
C652 C 0.43812 0.21328 0.2461 0.0
C653 C 0.46037 0.21834 0.24127 0.0
C654 C 0.47703 0.24304 0.24986 0.0
C655 C 0.49268 0.24474 0.27898 0.0
C656 C 0.49095 0.25611 0.21891 0.0
C657 C 0.46066 0.25103 0.26035 0.0
C658 C 0.43829 0.23358 0.25792 0.0
C659 C 0.42011 0.23675 0.26631 0.0
C660 C 0.42488 0.25832 0.27754 0.0
C661 C 0.44767 0.27645 0.28034 0.0
C662 C 0.46575 0.27269 0.27156 0.0
H663 H 0.18165 0.44819 0.25054 0.0
H664 H 0.20588 0.48359 0.34537 0.0
H665 H 0.24257 0.48477 0.33737 0.0
H666 H 0.20972 0.41429 0.25574 0.0
H667 H 0.21672 0.41716 0.2118 0.0
H668 H 0.19177 0.41781 0.22583 0.0
H669 H 0.20643 0.45694 0.19688 0.0
H670 H 0.23141 0.45641 0.18279 0.0
H671 H 0.2344 0.48019 0.20707 0.0
H672 H 0.27678 0.48275 0.31891 0.0
H673 H 0.30708 0.47931 0.28979 0.0
H674 H 0.26147 0.44657 0.20581 0.0
C675 C 0.19461 0.45597 0.26974 0.0
C676 C 0.1909 0.46569 0.29867 0.0
C677 C 0.20837 0.47603 0.32302 0.0
C678 C 0.22925 0.47672 0.31876 0.0
C679 C 0.23246 0.46714 0.28988 0.0
C680 C 0.21571 0.45707 0.26567 0.0
C681 C 0.22402 0.44906 0.23621 0.0
C682 C 0.2097 0.42303 0.23217 0.0
C683 C 0.22407 0.46139 0.20383 0.0
C684 C 0.24808 0.45634 0.2476 0.0
C685 C 0.25249 0.46653 0.27878 0.0
C686 C 0.27354 0.47478 0.29449 0.0
C687 C 0.29063 0.47273 0.27778 0.0
C688 C 0.28664 0.46271 0.24556 0.0
C689 C 0.26502 0.45432 0.23042 0.0
H690 H 0.74183 0.17456 0.25481 0.0
H691 H 0.72204 0.20562 0.33322 0.0
H692 H 0.75732 0.24223 0.32411 0.0
H693 H 0.80269 0.2054 0.27158 0.0
H694 H 0.81068 0.20877 0.228 0.0
H695 H 0.78423 0.18454 0.24132 0.0
H696 H 0.76212 0.19514 0.19882 0.0
H697 H 0.78851 0.21937 0.18532 0.0
H698 H 0.76552 0.22329 0.19995 0.0
H699 H 0.79427 0.27535 0.30692 0.0
H700 H 0.83013 0.30395 0.28039 0.0
H701 H 0.82613 0.25248 0.21145 0.0
C702 C 0.74503 0.18906 0.27012 0.0
C703 C 0.72923 0.18723 0.29482 0.0
C704 C 0.73387 0.20663 0.31413 0.0
C705 C 0.75391 0.22749 0.30924 0.0
C706 C 0.76911 0.22879 0.28472 0.0
C707 C 0.76492 0.21021 0.26526 0.0
C708 C 0.78379 0.21664 0.23974 0.0
C709 C 0.79607 0.20303 0.24552 0.0
C710 C 0.77442 0.21342 0.20383 0.0
C711 C 0.79918 0.2417 0.24798 0.0
C712 C 0.7904 0.24823 0.27419 0.0
C713 C 0.80134 0.27047 0.28636 0.0
C714 C 0.82173 0.28659 0.27113 0.0
C715 C 0.83094 0.28046 0.24386 0.0
C716 C 0.81953 0.25765 0.2323 0.0
H717 H 0.53499 0.81524 0.2458 0.0
H718 H 0.6019 0.85274 0.2 0.0
H719 H 0.60975 0.82207 0.21617 0.0
H720 H 0.55202 0.79326 0.31638 0.0
H721 H 0.52593 0.76615 0.31621 0.0
H722 H 0.52592 0.79134 0.30177 0.0
H723 H 0.5086 0.77147 0.24515 0.0
H724 H 0.5086 0.74624 0.25937 0.0
H725 H 0.52292 0.75987 0.22098 0.0
H726 H 0.60952 0.78633 0.23523 0.0
H727 H 0.60166 0.74893 0.25721 0.0
H728 H 0.53527 0.73539 0.2916 0.0
C729 C 0.55136 0.81708 0.23935 0.0
C730 C 0.56785 0.83637 0.22164 0.0
C731 C 0.58904 0.83812 0.21363 0.0
C732 C 0.59364 0.82079 0.22269 0.0
C733 C 0.57693 0.80189 0.23992 0.0
C734 C 0.55627 0.80001 0.24835 0.0
C735 C 0.54109 0.77787 0.26659 0.0
C736 C 0.53595 0.78244 0.30236 0.0
C737 C 0.519 0.76299 0.24683 0.0
C738 C 0.55635 0.76747 0.26684 0.0
C739 C 0.57695 0.78156 0.25131 0.0
C740 C 0.59352 0.77525 0.24765 0.0
C741 C 0.5889 0.75397 0.26016 0.0
C742 C 0.56793 0.73933 0.27625 0.0
C743 C 0.55155 0.7463 0.27969 0.0
H744 H 0.74993 0.57456 0.23997 0.0
H745 H 0.71094 0.50718 0.19574 0.0
H746 H 0.74101 0.4987 0.21164 0.0
H747 H 0.80573 0.58414 0.21425 0.0
H748 H 0.81979 0.59884 0.25224 0.0
H749 H 0.79529 0.59999 0.23721 0.0
H750 H 0.77517 0.58459 0.29422 0.0
H751 H 0.79956 0.58332 0.30938 0.0
H752 H 0.77172 0.55814 0.31017 0.0
H753 H 0.77398 0.49663 0.23345 0.0
H754 H 0.80948 0.50164 0.258 0.0
H755 H 0.82872 0.57071 0.28745 0.0
C756 C 0.74783 0.55809 0.23353 0.0
C757 C 0.72806 0.54151 0.21661 0.0
C758 C 0.72591 0.52015 0.20862 0.0
C759 C 0.74289 0.51514 0.21759 0.0
C760 C 0.76205 0.53171 0.2344 0.0
C761 C 0.76479 0.55281 0.24214 0.0
C762 C 0.78724 0.56746 0.26028 0.0
C763 C 0.80294 0.58887 0.23976 0.0
C764 C 0.78317 0.57374 0.29561 0.0
C765 C 0.79651 0.55116 0.26169 0.0
C766 C 0.78157 0.53064 0.24664 0.0
C767 C 0.7859 0.51265 0.24516 0.0
C768 C 0.80613 0.51567 0.25928 0.0
C769 C 0.82192 0.53658 0.27461 0.0
C770 C 0.81702 0.55458 0.27579 0.0
H771 H 0.20256 0.72749 0.22673 0.0
H772 H 0.15176 0.74723 0.24615 0.0
H773 H 0.18202 0.78477 0.26662 0.0
H774 H 0.23798 0.75551 0.29919 0.0
H775 H 0.26421 0.76385 0.27713 0.0
H776 H 0.23843 0.73844 0.26487 0.0
H777 H 0.24338 0.75388 0.20423 0.0
H778 H 0.2691 0.77939 0.21634 0.0
H779 H 0.2461 0.78142 0.19707 0.0
H780 H 0.21822 0.82076 0.28309 0.0
H781 H 0.25725 0.85169 0.29652 0.0
H782 H 0.28409 0.80804 0.26686 0.0
C783 C 0.19777 0.73964 0.23553 0.0
C784 C 0.1748 0.73445 0.23489 0.0
C785 C 0.16924 0.75083 0.24651 0.0
C786 C 0.18632 0.77221 0.25812 0.0
C787 C 0.20884 0.77688 0.25805 0.0
C788 C 0.21456 0.76099 0.24727 0.0
C789 C 0.24003 0.77027 0.24952 0.0
C790 C 0.24547 0.75618 0.27415 0.0
C791 C 0.25025 0.7713 0.21472 0.0
C792 C 0.24778 0.79392 0.26306 0.0
C793 C 0.22956 0.79744 0.26777 0.0
C794 C 0.2326 0.81814 0.27964 0.0
C795 C 0.25482 0.83562 0.28712 0.0
C796 C 0.27368 0.83226 0.28277 0.0
C797 C 0.27001 0.81111 0.27051 0.0
H798 H 0.53663 0.73225 0.71202 0.0
H799 H 0.60577 0.74826 0.73435 0.0
H800 H 0.61488 0.78661 0.75391 0.0
H801 H 0.55009 0.78815 0.68293 0.0
H802 H 0.52522 0.78665 0.70187 0.0
H803 H 0.52457 0.76093 0.6885 0.0
H804 H 0.51262 0.74415 0.74826 0.0
H805 H 0.5132 0.76979 0.76178 0.0
H806 H 0.52998 0.75994 0.78354 0.0
H807 H 0.61607 0.82323 0.7719 0.0
H808 H 0.60877 0.85425 0.7886 0.0
H809 H 0.53867 0.81349 0.75523 0.0
C810 C 0.55374 0.74387 0.7208 0.0
C811 C 0.57054 0.73735 0.72153 0.0
C812 C 0.59266 0.75295 0.73354 0.0
C813 C 0.59799 0.77477 0.74463 0.0
C814 C 0.58099 0.78065 0.74365 0.0
C815 C 0.55929 0.76559 0.73215 0.0
C816 C 0.54383 0.77569 0.73473 0.0
C817 C 0.53544 0.77799 0.69993 0.0
C818 C 0.52373 0.76155 0.7585 0.0
C819 C 0.56018 0.79878 0.74954 0.0
C820 C 0.58158 0.80143 0.75437 0.0
C821 C 0.59938 0.82134 0.76816 0.0
C822 C 0.5951 0.83887 0.77752 0.0
C823 C 0.57318 0.83629 0.77318 0.0
C824 C 0.55563 0.81601 0.75879 0.0
H825 H 0.75385 0.57743 0.7663 0.0
H826 H 0.71882 0.51241 0.81816 0.0
H827 H 0.7495 0.50478 0.8025 0.0
H828 H 0.77409 0.55864 0.69748 0.0
H829 H 0.80138 0.58441 0.69465 0.0
H830 H 0.77706 0.58545 0.71069 0.0
H831 H 0.79922 0.60446 0.76518 0.0
H832 H 0.82366 0.60358 0.74925 0.0
H833 H 0.81156 0.59075 0.78912 0.0
H834 H 0.78247 0.50307 0.77978 0.0
H835 H 0.81732 0.50803 0.75295 0.0
H836 H 0.83247 0.57451 0.71613 0.0
C837 C 0.75277 0.56169 0.77455 0.0
C838 C 0.73392 0.54551 0.79349 0.0
C839 C 0.73308 0.52508 0.80371 0.0
C840 C 0.75042 0.52056 0.79492 0.0
C841 C 0.76861 0.53668 0.77601 0.0
C842 C 0.77009 0.55691 0.76608 0.0
C843 C 0.79157 0.57115 0.74564 0.0
C844 C 0.78566 0.57514 0.71 0.0
C845 C 0.80744 0.59383 0.76336 0.0
C846 C 0.80172 0.5556 0.7454 0.0
C847 C 0.78809 0.53582 0.76309 0.0
C848 C 0.79339 0.51854 0.76602 0.0
C849 C 0.81322 0.52152 0.75058 0.0
C850 C 0.82766 0.54167 0.73248 0.0
C851 C 0.82181 0.55897 0.72991 0.0
H852 H 0.28872 0.81765 0.7557 0.0
H853 H 0.26101 0.84985 0.69207 0.0
H854 H 0.22198 0.8187 0.70457 0.0
H855 H 0.25 0.761 0.73157 0.0
H856 H 0.24777 0.74894 0.7726 0.0
H857 H 0.27341 0.77457 0.76069 0.0
H858 H 0.26965 0.79554 0.81246 0.0
H859 H 0.24408 0.76991 0.82469 0.0
H860 H 0.24357 0.79605 0.81899 0.0
H861 H 0.18604 0.78283 0.72151 0.0
H862 H 0.15591 0.74558 0.74307 0.0
H863 H 0.20723 0.73688 0.79539 0.0
C864 C 0.27443 0.81834 0.74483 0.0
C865 C 0.27788 0.83623 0.72305 0.0
C866 C 0.25874 0.83636 0.70896 0.0
C867 C 0.23652 0.81873 0.71587 0.0
C868 C 0.23372 0.80112 0.73696 0.0
C869 C 0.25215 0.80086 0.7514 0.0
C870 C 0.24455 0.77956 0.77222 0.0
C871 C 0.25453 0.76517 0.75843 0.0
C872 C 0.25084 0.78564 0.80929 0.0
C873 C 0.21901 0.76776 0.76697 0.0
C874 C 0.21307 0.78048 0.74662 0.0
C875 C 0.19047 0.7728 0.73764 0.0
C876 C 0.17349 0.75161 0.74993 0.0
C877 C 0.17922 0.73836 0.77091 0.0
C878 C 0.2023 0.74664 0.77947 0.0
H879 H 0.48569 0.28629 0.73476 0.0
H880 H 0.41367 0.26045 0.71673 0.0
H881 H 0.40523 0.22204 0.73444 0.0
H882 H 0.48695 0.23655 0.70534 0.0
H883 H 0.50698 0.23849 0.73675 0.0
H884 H 0.50733 0.2639 0.72252 0.0
H885 H 0.50261 0.27365 0.78369 0.0
H886 H 0.50221 0.24826 0.7981 0.0
H887 H 0.47897 0.25297 0.80831 0.0
H888 H 0.40461 0.18651 0.75455 0.0
H889 H 0.41184 0.15633 0.77525 0.0
H890 H 0.4843 0.20524 0.78011 0.0
C891 C 0.46815 0.27254 0.73448 0.0
C892 C 0.45032 0.27635 0.72435 0.0
C893 C 0.42759 0.25792 0.72437 0.0
C894 C 0.42263 0.23604 0.73439 0.0
C895 C 0.4406 0.23287 0.7443 0.0
C896 C 0.4629 0.2506 0.74439 0.0
C897 C 0.47905 0.24264 0.75626 0.0
C898 C 0.49608 0.24557 0.72856 0.0
C899 C 0.49143 0.25512 0.78851 0.0
C900 C 0.46233 0.21768 0.76291 0.0
C901 C 0.44024 0.2124 0.75585 0.0
C902 C 0.42184 0.19044 0.76013 0.0
C903 C 0.42612 0.17342 0.77191 0.0
C904 C 0.44862 0.17842 0.77928 0.0
C905 C 0.46692 0.20088 0.77468 0.0
H906 H 0.2058 0.48561 0.74022 0.0
H907 H 0.16356 0.41556 0.70743 0.0
H908 H 0.1946 0.40779 0.72142 0.0
H909 H 0.25888 0.49324 0.70866 0.0
H910 H 0.27547 0.51047 0.74352 0.0
H911 H 0.2499 0.51047 0.73116 0.0
H912 H 0.23383 0.49884 0.79131 0.0
H913 H 0.2594 0.49891 0.80389 0.0
H914 H 0.23198 0.47374 0.81001 0.0
H915 H 0.23045 0.40776 0.73882 0.0
H916 H 0.26795 0.41521 0.75967 0.0
H917 H 0.28674 0.48529 0.78097 0.0
C918 C 0.20305 0.46861 0.73608 0.0
C919 C 0.18225 0.45116 0.72277 0.0
C920 C 0.17934 0.42917 0.71765 0.0
C921 C 0.19689 0.42461 0.72546 0.0
C922 C 0.21724 0.44223 0.73836 0.0
C923 C 0.22038 0.46377 0.74372 0.0
C924 C 0.24386 0.47969 0.75792 0.0
C925 C 0.25785 0.49964 0.73387 0.0
C926 C 0.24216 0.48829 0.79286 0.0
C927 C 0.25343 0.46373 0.75983 0.0
C928 C 0.23784 0.44221 0.74834 0.0
C929 C 0.24279 0.42455 0.74785 0.0
C930 C 0.26414 0.42895 0.75968 0.0
C931 C 0.28028 0.45082 0.77187 0.0
C932 C 0.2748 0.46841 0.77171 0.0
H933 H 0.83245 0.25857 0.79067 0.0
H934 H 0.82073 0.31247 0.75534 0.0
H935 H 0.78414 0.28376 0.73063 0.0
H936 H 0.80755 0.22087 0.71914 0.0
H937 H 0.79477 0.19523 0.74402 0.0
H938 H 0.8205 0.22 0.75817 0.0
H939 H 0.80075 0.21919 0.81413 0.0
H940 H 0.77496 0.19444 0.80013 0.0
H941 H 0.77432 0.21956 0.81336 0.0
H942 H 0.7488 0.24963 0.71035 0.0
H943 H 0.7163 0.21184 0.69631 0.0
H944 H 0.75 0.17945 0.74532 0.0
C945 C 0.82223 0.26429 0.77754 0.0
C946 C 0.82947 0.28777 0.77483 0.0
C947 C 0.81554 0.29459 0.75773 0.0
C948 C 0.79473 0.27841 0.74356 0.0
C949 C 0.788 0.25543 0.74679 0.0
C950 C 0.80125 0.2483 0.76338 0.0
C951 C 0.78963 0.22246 0.7639 0.0
C952 C 0.80397 0.21416 0.74519 0.0
C953 C 0.78462 0.21339 0.80003 0.0
C954 C 0.76781 0.21625 0.74506 0.0
C955 C 0.76732 0.23558 0.73536 0.0
C956 C 0.74898 0.23435 0.71778 0.0
C957 C 0.73059 0.21279 0.70993 0.0
C958 C 0.73059 0.19269 0.71972 0.0
C959 C 0.74951 0.19451 0.7375 0.0
H960 H 0.47821 0.14939 0.07429 0.0
H961 H 0.40784 0.09837 0.09437 0.0
H962 H 0.39989 0.09415 0.03359 0.0
H963 H 0.467 0.17566 1.00222 0.0
H964 H 0.49207 0.18009 0.98002 0.0
H965 H 0.49184 0.1801 0.02515 0.0
H966 H 0.50265 0.14841 0.02565 0.0
H967 H 0.50287 0.14827 0.98057 0.0
H968 H 0.48512 0.12224 1.00317 0.0
H969 H 0.40011 0.09401 0.97055 0.0
H970 H 0.40851 0.098 0.90989 0.0
H971 H 0.47872 0.14913 0.9309 0.0
C972 C 0.46106 0.13754 0.06591 0.0
C973 C 0.44361 0.12427 0.08905 0.0
C974 C 0.42145 0.10876 0.07708 0.0
C975 C 0.41676 0.10626 0.04261 0.0
C976 C 0.43441 0.11942 0.02044 0.0
C977 C 0.4561 0.1348 0.03159 0.0
C978 C 0.47224 0.14621 1.00251 0.0
C979 C 0.48132 0.17205 1.00248 0.0
C980 C 0.49187 0.14096 1.00301 0.0
C981 C 0.45631 0.13465 0.97326 0.0
C982 C 0.43454 0.11934 0.98413 0.0
C983 C 0.41705 0.10609 0.96174 0.0
C984 C 0.42198 0.10846 0.92735 0.0
C985 C 0.44422 0.12394 0.91569 0.0
C986 C 0.4615 0.1373 0.93904 0.0
H987 H 0.35725 0.48285 0.93354 0.0
H988 H 0.29482 0.41962 0.91222 0.0
H989 H 0.28781 0.41245 0.97301 0.0
H990 H 0.37455 0.46282 0.00374 0.0
H991 H 0.38573 0.48912 0.02688 0.0
H992 H 0.38542 0.48953 0.98179 0.0
H993 H 0.36254 0.51083 0.98305 0.0
H994 H 0.36286 0.51056 0.02816 0.0
H995 H 0.33613 0.49876 0.00603 0.0
H996 H 0.28842 0.41167 0.03629 0.0
H997 H 0.29599 0.41793 0.09711 0.0
H998 H 0.35777 0.48192 0.07652 0.0
C999 C 0.34203 0.46756 0.94164 0.0
C1000 C 0.32655 0.45178 0.91822 0.0
C1001 C 0.30686 0.43195 0.92979 0.0
C1002 C 0.30276 0.42773 0.96423 0.0
C1003 C 0.31847 0.44355 0.98669 0.0
C1004 C 0.33764 0.46313 0.97585 0.0
C1005 C 0.35197 0.47735 0.00503 0.0
C1006 C 0.37583 0.47984 0.00431 0.0
C1007 C 0.35345 0.50076 0.00559 0.0
C1008 C 0.33797 0.46263 0.03403 0.0
C1009 C 0.31872 0.4432 0.02297 0.0
C1010 C 0.30339 0.42687 0.04523 0.0
C1011 C 0.30785 0.43055 0.07969 0.0
C1012 C 0.32743 0.45042 0.09149 0.0
C1013 C 0.34262 0.46661 0.06826 0.0
H1014 H 0.87178 0.34069 0.93576 0.0
H1015 H 0.90316 0.29999 0.91271 0.0
H1016 H 0.9048 0.29295 0.97316 0.0
H1017 H 0.90512 0.36766 0.00753 0.0
H1018 H 0.88229 0.36776 0.03056 0.0
H1019 H 0.8822 0.36827 0.98548 0.0
H1020 H 0.8421 0.33215 0.98481 0.0
H1021 H 0.84204 0.33155 0.02993 0.0
H1022 H 0.83757 0.30688 0.00655 0.0
H1023 H 0.90489 0.29215 0.0364 0.0
H1024 H 0.90315 0.29744 0.09744 0.0
H1025 H 0.87164 0.3386 0.07874 0.0
C1026 C 0.87872 0.33004 0.94339 0.0
C1027 C 0.88725 0.32078 0.91957 0.0
C1028 C 0.89647 0.30718 0.93057 0.0
C1029 C 0.89745 0.30308 0.96483 0.0
C1030 C 0.88914 0.3127 0.98771 0.0
C1031 C 0.8799 0.32585 0.97744 0.0
C1032 C 0.87299 0.33499 0.00708 0.0
C1033 C 0.88646 0.36122 0.00769 0.0
C1034 C 0.84714 0.32583 0.00708 0.0
C1035 C 0.87993 0.32507 0.03566 0.0
C1036 C 0.88917 0.31222 0.02401 0.0
C1037 C 0.89752 0.30202 0.04581 0.0
C1038 C 0.89648 0.30513 0.0804 0.0
C1039 C 0.88716 0.31832 0.0928 0.0
C1040 C 0.87867 0.32824 0.07003 0.0
H1041 H 0.57243 0.90843 0.07118 0.0
H1042 H 0.52589 0.83678 0.09136 0.0
H1043 H 0.52122 0.82898 0.03063 0.0
H1044 H 0.54226 0.91249 1.00047 0.0
H1045 H 0.56755 0.93172 0.9774 0.0
H1046 H 0.56812 0.93165 0.0225 0.0
H1047 H 0.60221 0.92437 0.0213 0.0
H1048 H 0.60182 0.92453 0.97619 0.0
H1049 H 0.59972 0.90034 0.99825 0.0
H1050 H 0.52114 0.82891 0.96802 0.0
H1051 H 0.52549 0.83665 0.90726 0.0
H1052 H 0.57131 0.90849 0.92729 0.0
C1053 C 0.56144 0.89107 0.06278 0.0
C1054 C 0.54959 0.87317 0.08595 0.0
C1055 C 0.53515 0.85074 0.07403 0.0
C1056 C 0.53239 0.84613 0.0396 0.0
C1057 C 0.54412 0.86416 0.0174 0.0
C1058 C 0.55835 0.88619 0.02843 0.0
C1059 C 0.5685 0.90254 0.99921 0.0
C1060 C 0.56116 0.92067 0.99995 0.0
C1061 C 0.59461 0.91359 0.99871 0.0
C1062 C 0.55767 0.88625 0.97007 0.0
C1063 C 0.54376 0.86419 0.98116 0.0
C1064 C 0.53199 0.84611 0.95901 0.0
C1065 C 0.53456 0.85068 0.92456 0.0
C1066 C 0.54868 0.87316 0.91259 0.0
C1067 C 0.56032 0.89115 0.93572 0.0
H1068 H 0.65593 0.5314 0.07524 0.0
H1069 H 0.7119 0.59919 0.0975 0.0
H1070 H 0.71861 0.60717 0.03689 0.0
H1071 H 0.68194 0.52085 0.00448 0.0
H1072 H 0.65572 0.50569 0.98117 0.0
H1073 H 0.65512 0.5055 0.02627 0.0
H1074 H 0.62707 0.52104 0.02538 0.0
H1075 H 0.62758 0.52127 0.98027 0.0
H1076 H 0.63471 0.547 1.00297 0.0
H1077 H 0.7194 0.6076 0.97369 0.0
H1078 H 0.71425 0.60036 0.91271 0.0
H1079 H 0.65784 0.53227 0.93189 0.0
C1080 C 0.66956 0.54795 0.06737 0.0
C1081 C 0.68339 0.5647 0.09107 0.0
C1082 C 0.70109 0.58612 0.07977 0.0
C1083 C 0.70503 0.59081 0.0454 0.0
C1084 C 0.69111 0.5739 0.02267 0.0
C1085 C 0.67373 0.5529 0.03318 0.0
C1086 C 0.66137 0.53761 0.00365 0.0
C1087 C 0.66369 0.51615 0.00392 0.0
C1088 C 0.63619 0.53137 1.00304 0.0
C1089 C 0.67453 0.55326 0.97488 0.0
C1090 C 0.6916 0.57413 0.98636 0.0
C1091 C 0.70607 0.59133 0.96442 0.0
C1092 C 0.70302 0.58707 0.92984 0.0
C1093 C 0.68565 0.56578 0.91757 0.0
C1094 C 0.67125 0.54873 0.9405 0.0
H1095 H 0.11379 0.65053 0.92828 0.0
H1096 H 0.15344 0.7233 0.90918 0.0
H1097 H 0.15655 0.73078 0.96991 0.0
H1098 H 0.08217 0.6542 0.99836 0.0
H1099 H 0.08235 0.63142 0.02148 0.0
H1100 H 0.08339 0.63158 0.97639 0.0
H1101 H 0.12045 0.62932 0.97857 0.0
H1102 H 0.11949 0.62911 0.02367 0.0
H1103 H 0.14454 0.65036 1.00213 0.0
H1104 H 0.15578 0.7306 0.03228 0.0
H1105 H 0.15075 0.72272 0.09294 0.0
H1106 H 0.11095 0.65015 0.07238 0.0
C1107 C 0.12316 0.66802 0.93694 0.0
C1108 C 0.1334 0.68634 0.91402 0.0
C1109 C 0.14544 0.709 0.92627 0.0
C1110 C 0.14732 0.71343 0.96073 0.0
C1111 C 0.13699 0.69504 0.98266 0.0
C1112 C 0.12511 0.67278 0.97136 0.0
C1113 C 0.11549 0.6562 1.00043 0.0
C1114 C 0.08929 0.64255 0.99907 0.0
C1115 C 0.1256 0.64031 1.00124 0.0
C1116 C 0.12387 0.67265 0.02976 0.0
C1117 C 0.13628 0.69496 0.01887 0.0
C1118 C 0.14604 0.71321 0.04115 0.0
C1119 C 0.14309 0.70856 0.07555 0.0
C1120 C 0.13041 0.68585 0.08736 0.0
C1121 C 0.12062 0.66769 0.06408 0.0
H1122 H 0.89557 0.57157 0.57289 0.0
H1123 H 0.85171 0.4996 0.59454 0.0
H1124 H 0.84514 0.4915 0.53415 0.0
H1125 H 0.86307 0.5738 0.50106 0.0
H1126 H 0.88814 0.5933 0.4778 0.0
H1127 H 0.88864 0.59383 0.52293 0.0
H1128 H 0.92367 0.58807 0.52264 0.0
H1129 H 0.92326 0.58749 0.47754 0.0
H1130 H 0.92203 0.56404 0.50066 0.0
H1131 H 0.84445 0.49064 0.47204 0.0
H1132 H 0.84962 0.49709 0.41117 0.0
H1133 H 0.89387 0.5696 0.42841 0.0
C1134 C 0.88441 0.55416 0.56487 0.0
C1135 C 0.87409 0.53621 0.58845 0.0
C1136 C 0.85977 0.51362 0.57698 0.0
C1137 C 0.8559 0.50884 0.54271 0.0
C1138 C 0.86645 0.52682 0.52012 0.0
C1139 C 0.88038 0.54904 0.5306 0.0
C1140 C 0.89015 0.56502 0.50082 0.0
C1141 C 0.88201 0.58252 0.50065 0.0
C1142 C 0.91633 0.57684 0.5004 0.0
C1143 C 0.87973 0.54823 0.47207 0.0
C1144 C 0.86605 0.52632 0.4839 0.0
C1145 C 0.855 0.50774 0.46242 0.0
C1146 C 0.85808 0.51158 0.42787 0.0
C1147 C 0.87209 0.53384 0.41502 0.0
C1148 C 0.88293 0.55242 0.43749 0.0
H1149 H 0.32785 0.89248 0.57165 0.0
H1150 H 0.35726 0.84941 0.59034 0.0
H1151 H 0.35782 0.84306 0.52959 0.0
H1152 H 0.29199 0.86006 0.50137 0.0
H1153 H 0.2968 0.88508 0.47866 0.0
H1154 H 0.29779 0.88552 0.52377 0.0
H1155 H 0.33845 0.92081 0.52205 0.0
H1156 H 0.33757 0.92048 0.47697 0.0
H1157 H 0.36044 0.91945 0.49849 0.0
H1158 H 0.35639 0.84231 0.46701 0.0
H1159 H 0.35352 0.84767 0.4064 0.0
H1160 H 0.32514 0.89129 0.42802 0.0
C1161 C 0.33424 0.88158 0.56293 0.0
C1162 C 0.34246 0.87138 0.58568 0.0
C1163 C 0.35086 0.85738 0.57334 0.0
C1164 C 0.35121 0.85363 0.53889 0.0
C1165 C 0.3431 0.86401 0.5171 0.0
C1166 C 0.33478 0.8777 0.52857 0.0
C1167 C 0.32774 0.88738 0.4997 0.0
C1168 C 0.30205 0.879 0.50096 0.0
C1169 C 0.3419 0.91358 0.49929 0.0
C1170 C 0.3336 0.87713 0.47026 0.0
C1171 C 0.34233 0.86363 0.48089 0.0
C1172 C 0.34946 0.85275 0.45836 0.0
C1173 C 0.34777 0.8559 0.424 0.0
C1174 C 0.33905 0.86983 0.41253 0.0
C1175 C 0.33174 0.88042 0.43605 0.0
H1176 H 0.45824 0.317 0.57842 0.0
H1177 H 0.45923 0.38054 0.59806 0.0
H1178 H 0.45778 0.38642 0.5374 0.0
H1179 H 0.49427 0.33656 0.50617 0.0
H1180 H 0.47909 0.30999 0.48371 0.0
H1181 H 0.47918 0.31006 0.52882 0.0
H1182 H 0.43501 0.28813 0.52917 0.0
H1183 H 0.43478 0.28795 0.48404 0.0
H1184 H 0.41989 0.29958 0.50666 0.0
H1185 H 0.45714 0.38611 0.47523 0.0
H1186 H 0.45767 0.3798 0.41456 0.0
H1187 H 0.45755 0.31668 0.4341 0.0
C1188 C 0.45797 0.33204 0.5699 0.0
C1189 C 0.45878 0.34829 0.59294 0.0
C1190 C 0.45861 0.36786 0.58087 0.0
C1191 C 0.45776 0.37135 0.54646 0.0
C1192 C 0.45713 0.35514 0.5244 0.0
C1193 C 0.45724 0.33587 0.53551 0.0
C1194 C 0.45709 0.32148 0.50626 0.0
C1195 C 0.4787 0.31941 0.50625 0.0
C1196 C 0.4354 0.29789 0.50656 0.0
C1197 C 0.45703 0.33578 0.47705 0.0
C1198 C 0.45696 0.35505 0.4882 0.0
C1199 C 0.45714 0.37105 0.46615 0.0
C1200 C 0.45745 0.36731 0.43172 0.0
C1201 C 0.45764 0.34776 0.4196 0.0
C1202 C 0.45736 0.33176 0.44264 0.0
H1203 H 0.14565 0.45765 0.5746 0.0
H1204 H 0.09963 0.4832 0.5961 0.0
H1205 H 0.09348 0.48509 0.53552 0.0
H1206 H 0.1715 0.49182 0.50114 0.0
H1207 H 0.17327 0.46955 0.47902 0.0
H1208 H 0.17419 0.47036 0.5241 0.0
H1209 H 0.14002 0.42905 0.52618 0.0
H1210 H 0.13895 0.42814 0.48109 0.0
H1211 H 0.11394 0.42228 0.50476 0.0
H1212 H 0.09254 0.48455 0.47274 0.0
H1213 H 0.09677 0.4814 0.41182 0.0
H1214 H 0.14275 0.45546 0.43103 0.0
C1215 C 0.13434 0.46371 0.56653 0.0
C1216 C 0.12316 0.47034 0.59002 0.0
C1217 C 0.10839 0.47804 0.57852 0.0
C1218 C 0.10477 0.47917 0.54417 0.0
C1219 C 0.11597 0.47244 0.52165 0.0
C1220 C 0.13043 0.46482 0.5323 0.0
C1221 C 0.14023 0.45844 0.50286 0.0
C1222 C 0.16634 0.47344 0.50172 0.0
C1223 C 0.13283 0.43296 0.50379 0.0
C1224 C 0.12909 0.46376 0.47402 0.0
C1225 C 0.11518 0.47183 0.48542 0.0
C1226 C 0.10333 0.47819 0.46349 0.0
C1227 C 0.10583 0.47634 0.42896 0.0
C1228 C 0.12001 0.46812 0.41673 0.0
C1229 C 0.13168 0.46167 0.43965 0.0
H1230 H 0.65215 0.13083 0.43449 0.0
H1231 H 0.7104 0.12256 0.41278 0.0
H1232 H 0.71733 0.12188 0.47335 0.0
H1233 H 0.67668 0.16775 0.50613 0.0
H1234 H 0.65026 0.15533 0.52914 0.0
H1235 H 0.64988 0.15524 0.48402 0.0
H1236 H 0.62356 0.11135 0.48416 0.0
H1237 H 0.62388 0.1113 0.52927 0.0
H1238 H 0.63237 0.09385 0.5063 0.0
H1239 H 0.7179 0.12191 0.53611 0.0
H1240 H 0.71217 0.12285 0.59704 0.0
H1241 H 0.65355 0.13107 0.57827 0.0
C1242 C 0.66638 0.12892 0.4425 0.0
C1243 C 0.68075 0.12676 0.41893 0.0
C1244 C 0.69918 0.12426 0.43039 0.0
C1245 C 0.70325 0.12384 0.46474 0.0
C1246 C 0.68876 0.12596 0.48734 0.0
C1247 C 0.6707 0.12847 0.47675 0.0
C1248 C 0.65768 0.13036 0.50629 0.0
C1249 C 0.6587 0.15355 0.50639 0.0
C1250 C 0.63291 0.11053 0.50651 0.0
C1251 C 0.67123 0.12848 0.53511 0.0
C1252 C 0.68908 0.12596 0.5236 0.0
C1253 C 0.70399 0.12388 0.54544 0.0
C1254 C 0.70059 0.12443 0.58 0.0
C1255 C 0.68243 0.12702 0.59239 0.0
C1256 C 0.66758 0.12905 0.56955 0.0
H1257 H 0.5758 0.69323 0.42814 0.0
H1258 H 0.50445 0.64517 0.40821 0.0
H1259 H 0.49685 0.64029 0.46894 0.0
H1260 H 0.58123 0.66397 0.49886 0.0
H1261 H 0.59992 0.68954 0.52184 0.0
H1262 H 0.5997 0.69002 0.47674 0.0
H1263 H 0.591 0.72317 0.47805 0.0
H1264 H 0.59122 0.72281 0.52318 0.0
H1265 H 0.56664 0.71982 0.50114 0.0
H1266 H 0.49705 0.63971 0.53146 0.0
H1267 H 0.50504 0.64348 0.59213 0.0
H1268 H 0.57627 0.69186 0.57207 0.0
C1269 C 0.55856 0.6818 0.43659 0.0
C1270 C 0.54069 0.66961 0.41346 0.0
C1271 C 0.51839 0.65471 0.42547 0.0
C1272 C 0.51389 0.65183 0.45992 0.0
C1273 C 0.53188 0.66398 0.48206 0.0
C1274 C 0.55376 0.67869 0.47096 0.0
C1275 C 0.57008 0.6893 0.50016 0.0
C1276 C 0.58883 0.68281 0.49934 0.0
C1277 C 0.58033 0.71532 0.50065 0.0
C1278 C 0.55396 0.67809 0.52935 0.0
C1279 C 0.532 0.66361 0.5183 0.0
C1280 C 0.51415 0.65106 0.54045 0.0
C1281 C 0.51887 0.65331 0.57486 0.0
C1282 C 0.54126 0.66798 0.58682 0.0
C1283 C 0.55898 0.68058 0.56368 0.0
H1284 H 0.52153 0.13585 0.26207 0.0
H1285 H 0.5283 0.12995 0.15497 0.0
H1286 H 0.56457 0.13044 0.16436 0.0
H1287 H 0.58204 0.17324 0.27988 0.0
H1288 H 0.58084 0.15954 0.31914 0.0
H1289 H 0.55603 0.16001 0.30392 0.0
H1290 H 0.53246 0.11596 0.308 0.0
H1291 H 0.55719 0.11534 0.32313 0.0
H1292 H 0.5423 0.09906 0.28658 0.0
H1293 H 0.59925 0.13025 0.18524 0.0
H1294 H 0.63006 0.12896 0.21633 0.0
H1295 H 0.60075 0.13437 0.31018 0.0
C1296 C 0.53079 0.13493 0.24059 0.0
C1297 C 0.52218 0.13298 0.20775 0.0
C1298 C 0.53462 0.13151 0.18032 0.0
C1299 C 0.55524 0.1318 0.1854 0.0
C1300 C 0.56317 0.13351 0.21807 0.0
C1301 C 0.55137 0.13505 0.24523 0.0
C1302 C 0.56325 0.13587 0.27785 0.0
C1303 C 0.571 0.15851 0.29628 0.0
C1304 C 0.54788 0.11533 0.3002 0.0
C1305 C 0.58346 0.13435 0.26477 0.0
C1306 C 0.58312 0.13314 0.2302 0.0
C1307 C 0.59976 0.13128 0.21231 0.0
C1308 C 0.61718 0.13054 0.23021 0.0
C1309 C 0.61782 0.13158 0.26566 0.0
C1310 C 0.60074 0.13361 0.28309 0.0
H1311 H 0.49305 0.59599 0.28956 0.0
H1312 H 0.48741 0.64825 0.23467 0.0
H1313 H 0.45122 0.61863 0.20954 0.0
H1314 H 0.47082 0.55343 0.22411 0.0
H1315 H 0.45594 0.53002 0.25284 0.0
H1316 H 0.48146 0.55535 0.26609 0.0
H1317 H 0.45946 0.55967 0.31602 0.0
H1318 H 0.43386 0.53439 0.30288 0.0
H1319 H 0.43382 0.5608 0.30815 0.0
H1320 H 0.41518 0.5832 0.19131 0.0
H1321 H 0.3825 0.54466 0.18053 0.0
H1322 H 0.41211 0.51576 0.24708 0.0
C1323 C 0.48424 0.60121 0.27218 0.0
C1324 C 0.49301 0.62441 0.26405 0.0
C1325 C 0.48099 0.63055 0.24119 0.0
C1326 C 0.46043 0.61386 0.22683 0.0
C1327 C 0.45219 0.59113 0.23551 0.0
C1328 C 0.46377 0.58479 0.25756 0.0
C1329 C 0.45127 0.55922 0.2628 0.0
C1330 C 0.46574 0.5489 0.25073 0.0
C1331 C 0.44418 0.55317 0.29965 0.0
C1332 C 0.43076 0.55217 0.24044 0.0
C1333 C 0.43159 0.57079 0.2249 0.0
C1334 C 0.41439 0.56849 0.20327 0.0
C1335 C 0.39589 0.54655 0.19733 0.0
C1336 C 0.39479 0.52725 0.21294 0.0
C1337 C 0.41249 0.53019 0.23474 0.0
H1338 H 0.897 0.47776 0.30341 0.0
H1339 H 0.87309 0.49523 0.21343 0.0
H1340 H 0.87118 0.46216 0.1843 0.0
H1341 H 0.93223 0.45893 0.26084 0.0
H1342 H 0.92552 0.43623 0.29023 0.0
H1343 H 0.92552 0.46162 0.30369 0.0
H1344 H 0.88399 0.43697 0.32482 0.0
H1345 H 0.88382 0.41152 0.31129 0.0
H1346 H 0.86227 0.41755 0.29633 0.0
H1347 H 0.87031 0.42629 0.16572 0.0
H1348 H 0.87212 0.39101 0.15824 0.0
H1349 H 0.89738 0.39736 0.25989 0.0
C1350 C 0.89151 0.4747 0.27751 0.0
C1351 C 0.88519 0.48904 0.26065 0.0
C1352 C 0.87808 0.4845 0.22678 0.0
C1353 C 0.87691 0.46573 0.21004 0.0
C1354 C 0.88305 0.4518 0.22746 0.0
C1355 C 0.89038 0.45614 0.26035 0.0
C1356 C 0.89592 0.43845 0.27335 0.0
C1357 C 0.92131 0.44947 0.28256 0.0
C1358 C 0.88058 0.42535 0.30321 0.0
C1359 C 0.89026 0.42332 0.24278 0.0
C1360 C 0.88286 0.43131 0.21658 0.0
C1361 C 0.87622 0.41994 0.18597 0.0
C1362 C 0.87726 0.39991 0.18199 0.0
C1363 C 0.88494 0.39151 0.20843 0.0
C1364 C 0.89153 0.40343 0.23917 0.0
H1365 H 0.48672 0.87384 0.25576 0.0
H1366 H 0.48911 0.8949 0.1525 0.0
H1367 H 0.45302 0.89502 0.16071 0.0
H1368 H 0.42533 0.8372 0.2616 0.0
H1369 H 0.42387 0.84568 0.30391 0.0
H1370 H 0.44927 0.8461 0.28945 0.0
H1371 H 0.47344 0.88868 0.30609 0.0
H1372 H 0.44813 0.88839 0.3206 0.0
H1373 H 0.46603 0.9089 0.28958 0.0
H1374 H 0.41688 0.89312 0.18018 0.0
H1375 H 0.38417 0.89125 0.21044 0.0
H1376 H 0.40611 0.87299 0.30166 0.0
C1377 C 0.47952 0.87828 0.23483 0.0
C1378 C 0.49059 0.88423 0.20343 0.0
C1379 C 0.48086 0.89026 0.17675 0.0
C1380 C 0.46035 0.89032 0.18114 0.0
C1381 C 0.4499 0.88448 0.21244 0.0
C1382 C 0.4592 0.8787 0.2389 0.0
C1383 C 0.44505 0.8741 0.27037 0.0
C1384 C 0.4353 0.8493 0.28201 0.0
C1385 C 0.459 0.89103 0.2983 0.0
C1386 C 0.42641 0.87827 0.25749 0.0
C1387 C 0.42941 0.88402 0.22393 0.0
C1388 C 0.41435 0.88864 0.20646 0.0
C1389 C 0.39582 0.88751 0.22384 0.0
C1390 C 0.39265 0.88202 0.25836 0.0
C1391 C 0.40814 0.87727 0.27528 0.0
H1392 H 0.59751 0.48109 0.19776 0.0
H1393 H 0.64061 0.49779 0.2858 0.0
H1394 H 0.61108 0.46307 0.31386 0.0
H1395 H 0.54488 0.46007 0.2424 0.0
H1396 H 0.52838 0.43765 0.21283 0.0
H1397 H 0.55329 0.46333 0.199 0.0
H1398 H 0.57007 0.43931 0.17491 0.0
H1399 H 0.54523 0.41355 0.18878 0.0
H1400 H 0.57321 0.41969 0.20185 0.0
H1401 H 0.57694 0.42708 0.33278 0.0
H1402 H 0.5395 0.39279 0.34241 0.0
H1403 H 0.51792 0.39944 0.24267 0.0
C1404 C 0.60075 0.47735 0.22288 0.0
C1405 C 0.62138 0.49209 0.23959 0.0
C1406 C 0.62493 0.48675 0.27254 0.0
C1407 C 0.60829 0.46703 0.28865 0.0
C1408 C 0.58814 0.45286 0.27154 0.0
C1409 C 0.58422 0.45778 0.23947 0.0
C1410 C 0.56072 0.44005 0.22723 0.0
C1411 C 0.54595 0.45093 0.21995 0.0
C1412 C 0.56242 0.4274 0.19636 0.0
C1413 C 0.55205 0.42449 0.25752 0.0
C1414 C 0.56823 0.43214 0.28267 0.0
C1415 C 0.56414 0.42087 0.31326 0.0
C1416 C 0.54283 0.4014 0.31847 0.0
C1417 C 0.52582 0.39342 0.29328 0.0
C1418 C 0.53062 0.40506 0.26232 0.0
H1419 H 0.13023 0.61816 0.26268 0.0
H1420 H 0.14798 0.6189 0.15808 0.0
H1421 H 0.15368 0.58611 0.16819 0.0
H1422 H 0.17002 0.60172 0.29709 0.0
H1423 H 0.15025 0.58362 0.32871 0.0
H1424 H 0.14913 0.60814 0.31376 0.0
H1425 H 0.10652 0.58228 0.2983 0.0
H1426 H 0.10752 0.55771 0.31319 0.0
H1427 H 0.09831 0.5582 0.27098 0.0
H1428 H 0.15549 0.55203 0.18898 0.0
H1429 H 0.15264 0.51872 0.21879 0.0
H1430 H 0.13351 0.54008 0.30975 0.0
C1431 C 0.1356 0.6116 0.24201 0.0
C1432 C 0.13877 0.62112 0.20962 0.0
C1433 C 0.14551 0.61189 0.18311 0.0
C1434 C 0.14884 0.5933 0.18862 0.0
C1435 C 0.14536 0.58417 0.22078 0.0
C1436 C 0.1389 0.593 0.24704 0.0
C1437 C 0.13522 0.57935 0.27881 0.0
C1438 C 0.15217 0.59409 0.30621 0.0
C1439 C 0.11042 0.56876 0.29102 0.0
C1440 C 0.14031 0.56128 0.2662 0.0
C1441 C 0.14629 0.56445 0.23273 0.0
C1442 C 0.151 0.54947 0.21526 0.0
C1443 C 0.14933 0.53061 0.23239 0.0
C1444 C 0.14295 0.52688 0.26658 0.0
C1445 C 0.13863 0.54259 0.28369 0.0
H1446 H 0.49298 0.89991 0.80146 0.0
H1447 H 0.49141 0.84701 0.73826 0.0
H1448 H 0.45443 0.83907 0.71499 0.0
H1449 H 0.43203 0.87203 0.81848 0.0
H1450 H 0.43095 0.89805 0.81608 0.0
H1451 H 0.45675 0.89884 0.82943 0.0
H1452 H 0.47933 0.9281 0.78274 0.0
H1453 H 0.45362 0.92743 0.76931 0.0
H1454 H 0.47001 0.92131 0.73985 0.0
H1455 H 0.41805 0.83685 0.69827 0.0
H1456 H 0.38543 0.84227 0.68595 0.0
H1457 H 0.41088 0.89783 0.75772 0.0
C1458 C 0.48471 0.88654 0.78294 0.0
C1459 C 0.49495 0.87396 0.77177 0.0
C1460 C 0.48385 0.85684 0.74714 0.0
C1461 C 0.4628 0.85214 0.73387 0.0
C1462 C 0.45317 0.86486 0.74527 0.0
C1463 C 0.46378 0.88184 0.769 0.0
C1464 C 0.45019 0.89372 0.7755 0.0
C1465 C 0.442 0.89046 0.81205 0.0
C1466 C 0.46412 0.91915 0.76629 0.0
C1467 C 0.43039 0.88082 0.75157 0.0
C1468 C 0.43237 0.86407 0.73473 0.0
C1469 C 0.41629 0.8499 0.71128 0.0
C1470 C 0.39779 0.85309 0.70451 0.0
C1471 C 0.39563 0.87047 0.72086 0.0
C1472 C 0.4121 0.8844 0.74486 0.0
H1473 H 0.60202 0.48373 0.81005 0.0
H1474 H 0.64667 0.49715 0.72473 0.0
H1475 H 0.61721 0.46182 0.69764 0.0
H1476 H 0.57662 0.42217 0.81046 0.0
H1477 H 0.54865 0.41709 0.82145 0.0
H1478 H 0.57362 0.44292 0.83485 0.0
H1479 H 0.55821 0.46695 0.80653 0.0
H1480 H 0.53318 0.44122 0.79315 0.0
H1481 H 0.5506 0.46257 0.76278 0.0
H1482 H 0.58275 0.4254 0.67944 0.0
H1483 H 0.5449 0.39142 0.67014 0.0
H1484 H 0.52236 0.40215 0.76671 0.0
C1485 C 0.60563 0.47914 0.78576 0.0
C1486 C 0.62664 0.49311 0.76952 0.0
C1487 C 0.63068 0.48668 0.73761 0.0
C1488 C 0.61409 0.46662 0.72208 0.0
C1489 C 0.59354 0.45323 0.73873 0.0
C1490 C 0.58919 0.45926 0.76978 0.0
C1491 C 0.56536 0.44234 0.78167 0.0
C1492 C 0.56612 0.43043 0.81403 0.0
C1493 C 0.55099 0.45397 0.78629 0.0
C1494 C 0.55694 0.42595 0.75235 0.0
C1495 C 0.57353 0.43243 0.72798 0.0
C1496 C 0.56964 0.42012 0.69837 0.0
C1497 C 0.54812 0.40083 0.69334 0.0
C1498 C 0.53074 0.39415 0.71771 0.0
C1499 C 0.53535 0.4068 0.74769 0.0
H1500 H 0.11834 0.59879 0.80715 0.0
H1501 H 0.1721 0.65038 0.74534 0.0
H1502 H 0.17982 0.62124 0.72182 0.0
H1503 H 0.14629 0.56519 0.82392 0.0
H1504 H 0.12001 0.53833 0.82151 0.0
H1505 H 0.11976 0.56352 0.83542 0.0
H1506 H 0.09032 0.55742 0.78927 0.0
H1507 H 0.09052 0.53228 0.7752 0.0
H1508 H 0.0968 0.55506 0.74616 0.0
H1509 H 0.18034 0.58645 0.70258 0.0
H1510 H 0.1735 0.54805 0.68859 0.0
H1511 H 0.11932 0.51863 0.76251 0.0
C1512 C 0.13194 0.60398 0.78902 0.0
C1513 C 0.1447 0.62687 0.77816 0.0
C1514 C 0.16215 0.63296 0.75408 0.0
C1515 C 0.1667 0.61654 0.74061 0.0
C1516 C 0.15366 0.59408 0.7515 0.0
C1517 C 0.13667 0.58775 0.7752 0.0
C1518 C 0.12449 0.56223 0.78136 0.0
C1519 C 0.12784 0.55702 0.81771 0.0
C1520 C 0.09903 0.5511 0.77245 0.0
C1521 C 0.13704 0.5552 0.75701 0.0
C1522 C 0.15391 0.57389 0.74025 0.0
C1523 C 0.16731 0.5717 0.71573 0.0
C1524 C 0.16328 0.54981 0.70793 0.0
C1525 C 0.14595 0.53037 0.72453 0.0
C1526 C 0.13282 0.53319 0.7496 0.0
H1527 H 0.60411 0.13455 0.70027 0.0
H1528 H 0.63446 0.1331 0.79535 0.0
H1529 H 0.60309 0.1341 0.82532 0.0
H1530 H 0.58397 0.17285 0.72654 0.0
H1531 H 0.558 0.15829 0.70254 0.0
H1532 H 0.58319 0.15812 0.68851 0.0
H1533 H 0.56074 0.11396 0.68733 0.0
H1534 H 0.53549 0.11399 0.70135 0.0
H1535 H 0.54619 0.09848 0.72459 0.0
H1536 H 0.56771 0.13364 0.84495 0.0
H1537 H 0.53091 0.13231 0.85295 0.0
H1538 H 0.52379 0.1348 0.74523 0.0
C1539 C 0.60421 0.13458 0.7274 0.0
C1540 C 0.62173 0.13376 0.74551 0.0
C1541 C 0.62123 0.13375 0.78097 0.0
C1542 C 0.6035 0.13432 0.79822 0.0
C1543 C 0.58643 0.13501 0.77964 0.0
C1544 C 0.58666 0.13522 0.74503 0.0
C1545 C 0.56602 0.1356 0.7311 0.0
C1546 C 0.57324 0.15753 0.71099 0.0
C1547 C 0.55124 0.11423 0.70984 0.0
C1548 C 0.55406 0.13535 0.7633 0.0
C1549 C 0.56614 0.13503 0.791 0.0
C1550 C 0.55818 0.13405 0.82347 0.0
C1551 C 0.53725 0.13328 0.82776 0.0
C1552 C 0.52457 0.13357 0.79974 0.0
C1553 C 0.53322 0.13478 0.76713 0.0
H1554 H 0.40784 0.51517 0.74907 0.0
H1555 H 0.38821 0.54389 0.831 0.0
H1556 H 0.42164 0.58173 0.8197 0.0
H1557 H 0.46794 0.54759 0.76339 0.0
H1558 H 0.47539 0.55125 0.7196 0.0
H1559 H 0.44951 0.52652 0.73335 0.0
H1560 H 0.4261 0.53626 0.69203 0.0
H1561 H 0.45192 0.56097 0.67805 0.0
H1562 H 0.42863 0.56403 0.69367 0.0
H1563 H 0.45758 0.61629 0.8003 0.0
H1564 H 0.49335 0.64529 0.7736 0.0
H1565 H 0.48978 0.59413 0.70449 0.0
C1566 C 0.41049 0.52946 0.76446 0.0
C1567 C 0.3954 0.52661 0.79087 0.0
C1568 C 0.39953 0.54569 0.8106 0.0
C1569 C 0.41848 0.56725 0.80439 0.0
C1570 C 0.43314 0.56946 0.77836 0.0
C1571 C 0.42936 0.55112 0.75865 0.0
C1572 C 0.44794 0.55806 0.73257 0.0
C1573 C 0.46097 0.54509 0.73754 0.0
C1574 C 0.43805 0.55463 0.69697 0.0
C1575 C 0.46278 0.58314 0.7408 0.0
C1576 C 0.45392 0.58938 0.76726 0.0
C1577 C 0.46467 0.61163 0.77951 0.0
C1578 C 0.48498 0.62797 0.76421 0.0
C1579 C 0.49435 0.62197 0.73701 0.0
C1580 C 0.48305 0.59923 0.72526 0.0
H1581 H 0.89572 0.39982 0.748 0.0
H1582 H 0.89167 0.40762 0.85527 0.0
H1583 H 0.8926 0.44413 0.84578 0.0
H1584 H 0.93391 0.45969 0.72952 0.0
H1585 H 0.92008 0.45868 0.69046 0.0
H1586 H 0.9199 0.43357 0.70577 0.0
H1587 H 0.87577 0.41096 0.70249 0.0
H1588 H 0.87581 0.43597 0.68716 0.0
H1589 H 0.85962 0.42163 0.72403 0.0
H1590 H 0.89297 0.47921 0.82456 0.0
H1591 H 0.89216 0.51017 0.79306 0.0
H1592 H 0.89581 0.47944 0.69958 0.0
C1593 C 0.89516 0.40928 0.7695 0.0
C1594 C 0.89367 0.40093 0.80239 0.0
C1595 C 0.89285 0.41373 0.82986 0.0
C1596 C 0.8934 0.43448 0.82473 0.0
C1597 C 0.8948 0.4422 0.79198 0.0
C1598 C 0.89567 0.43 0.76483 0.0
C1599 C 0.89656 0.4418 0.73215 0.0
C1600 C 0.91895 0.44885 0.71337 0.0
C1601 C 0.8757 0.42669 0.71017 0.0
C1602 C 0.89581 0.46241 0.74515 0.0
C1603 C 0.89493 0.46238 0.77974 0.0
C1604 C 0.89375 0.47947 0.79748 0.0
C1605 C 0.8933 0.49698 0.77937 0.0
C1606 C 0.89396 0.49722 0.7439 0.0
C1607 C 0.89538 0.47976 0.72668 0.0
loop_
_geom_bond_atom_site_label_1
_geom_bond_atom_site_label_2
_geom_bond_distance
_geom_bond_site_symmetry_2
_ccdc_geom_bond_type
In0 O1 2.294 . S
In0 O2 2.326 . S
In0 O6 2.266 . S
In0 O7 2.326 . S
In0 O8 2.266 . S
In0 O9 2.326 . S
In0 O11 2.294 . S
In0 O12 2.326 . S
O1 In0 2.294 . S
O1 C10 1.240 . S
O2 In0 2.326 . S
O2 C10 1.252 . S
C3 O6 1.252 . S
C3 O7 1.260 . S
C4 O11 1.240 . S
C4 O12 1.252 . S
C5 O8 1.252 . S
C5 O9 1.260 . S
O6 In0 2.266 . S
O6 C3 1.252 . S
O7 In0 2.326 . S
O7 C3 1.260 . S
O8 In0 2.266 . S
O8 C5 1.252 . S
O9 In0 2.326 . S
O9 C5 1.260 . S
C10 O1 1.240 . S
C10 O2 1.252 . S
O11 In0 2.294 . S
O11 C4 1.240 . S
O12 In0 2.326 . S
O12 C4 1.252 . S
In13 O14 2.294 . S
In13 O15 2.326 . S
In13 O19 2.266 . S
In13 O20 2.326 . S
In13 O21 2.266 . S
In13 O22 2.326 . S
In13 O24 2.294 . S
In13 O25 2.326 . S
O14 In13 2.294 . S
O14 C23 1.240 . S
O15 In13 2.326 . S
O15 C23 1.252 . S
C16 O19 1.252 . S
C16 O20 1.260 . S
C17 O24 1.240 . S
C17 O25 1.252 . S
C18 O21 1.252 . S
C18 O22 1.260 . S
O19 In13 2.266 . S
O19 C16 1.252 . S
O20 In13 2.326 . S
O20 C16 1.260 . S
O21 In13 2.266 . S
O21 C18 1.252 . S
O22 In13 2.326 . S
O22 C18 1.260 . S
C23 O14 1.240 . S
C23 O15 1.252 . S
O24 In13 2.294 . S
O24 C17 1.240 . S
O25 In13 2.326 . S
O25 C17 1.252 . S
In26 O27 2.294 . S
In26 O28 2.326 . S
In26 O32 2.266 . S
In26 O33 2.326 . S
In26 O34 2.266 . S
In26 O35 2.326 . S
In26 O37 2.294 . S
In26 O38 2.326 . S
O27 In26 2.294 . S
O27 C36 1.240 . S
O28 In26 2.326 . S
O28 C36 1.252 . S
C29 O32 1.252 . S
C29 O33 1.260 . S
C30 O37 1.240 . S
C30 O38 1.252 . S
C31 O34 1.252 . S
C31 O35 1.260 . S
O32 In26 2.266 . S
O32 C29 1.252 . S
O33 In26 2.326 . S
O33 C29 1.260 . S
O34 In26 2.266 . S
O34 C31 1.252 . S
O35 In26 2.326 . S
O35 C31 1.260 . S
C36 O27 1.240 . S
C36 O28 1.252 . S
O37 In26 2.294 . S
O37 C30 1.240 . S
O38 In26 2.326 . S
O38 C30 1.252 . S
In39 O40 2.294 . S
In39 O41 2.326 . S
In39 O45 2.266 . S
In39 O46 2.326 . S
In39 O47 2.266 . S
In39 O48 2.326 . S
In39 O50 2.294 . S
In39 O51 2.326 . S
O40 In39 2.294 . S
O40 C49 1.240 . S
O41 In39 2.326 . S
O41 C49 1.252 . S
C42 O45 1.252 . S
C42 O46 1.260 . S
C43 O50 1.240 . S
C43 O51 1.252 . S
C44 O47 1.252 . S
C44 O48 1.260 . S
O45 In39 2.266 . S
O45 C42 1.252 . S
O46 In39 2.326 . S
O46 C42 1.260 . S
O47 In39 2.266 . S
O47 C44 1.252 . S
O48 In39 2.326 . S
O48 C44 1.260 . S
C49 O40 1.240 . S
C49 O41 1.252 . S
O50 In39 2.294 . S
O50 C43 1.240 . S
O51 In39 2.326 . S
O51 C43 1.252 . S
In52 O53 2.294 . S
In52 O54 2.326 . S
In52 O58 2.266 . S
In52 O59 2.326 . S
In52 O60 2.266 . S
In52 O61 2.326 . S
In52 O63 2.294 . S
In52 O64 2.326 . S
O53 In52 2.294 . S
O53 C62 1.240 . S
O54 In52 2.326 . S
O54 C62 1.252 . S
C55 O58 1.252 . S
C55 O59 1.260 . S
C56 O63 1.240 . S
C56 O64 1.252 . S
C57 O60 1.252 . S
C57 O61 1.260 . S
O58 In52 2.266 . S
O58 C55 1.252 . S
O59 In52 2.326 . S
O59 C55 1.260 . S
O60 In52 2.266 . S
O60 C57 1.252 . S
O61 In52 2.326 . S
O61 C57 1.260 . S
C62 O53 1.240 . S
C62 O54 1.252 . S
O63 In52 2.294 . S
O63 C56 1.240 . S
O64 In52 2.326 . S
O64 C56 1.252 . S
In65 O66 2.294 . S
In65 O67 2.326 . S
In65 O71 2.266 . S
In65 O72 2.326 . S
In65 O73 2.266 . S
In65 O74 2.326 . S
In65 O76 2.294 . S
In65 O77 2.326 . S
O66 In65 2.294 . S
O66 C75 1.240 . S
O67 In65 2.326 . S
O67 C75 1.252 . S
C68 O71 1.252 . S
C68 O72 1.260 . S
C69 O76 1.240 . S
C69 O77 1.252 . S
C70 O73 1.252 . S
C70 O74 1.260 . S
O71 In65 2.266 . S
O71 C68 1.252 . S
O72 In65 2.326 . S
O72 C68 1.260 . S
O73 In65 2.266 . S
O73 C70 1.252 . S
O74 In65 2.326 . S
O74 C70 1.260 . S
C75 O66 1.240 . S
C75 O67 1.252 . S
O76 In65 2.294 . S
O76 C69 1.240 . S
O77 In65 2.326 . S
O77 C69 1.252 . S
In78 O79 2.294 . S
In78 O80 2.326 . S
In78 O84 2.266 . S
In78 O85 2.326 . S
In78 O86 2.266 . S
In78 O87 2.326 . S
In78 O89 2.294 . S
In78 O90 2.326 . S
O79 In78 2.294 . S
O79 C88 1.240 . S
O80 In78 2.326 . S
O80 C88 1.252 . S
C81 O84 1.252 . S
C81 O85 1.260 . S
C82 O89 1.240 . S
C82 O90 1.252 . S
C83 O86 1.252 . S
C83 O87 1.260 . S
O84 In78 2.266 . S
O84 C81 1.252 . S
O85 In78 2.326 . S
O85 C81 1.260 . S
O86 In78 2.266 . S
O86 C83 1.252 . S
O87 In78 2.326 . S
O87 C83 1.260 . S
C88 O79 1.240 . S
C88 O80 1.252 . S
O89 In78 2.294 . S
O89 C82 1.240 . S
O90 In78 2.326 . S
O90 C82 1.252 . S
In91 O92 2.294 . S
In91 O93 2.326 . S
In91 O97 2.266 . S
In91 O98 2.326 . S
In91 O99 2.266 . S
In91 O100 2.326 . S
In91 O102 2.294 . S
In91 O103 2.326 . S
O92 In91 2.294 . S
O92 C101 1.240 . S
O93 In91 2.326 . S
O93 C101 1.252 . S
C94 O97 1.252 . S
C94 O98 1.260 . S
C95 O102 1.240 . S
C95 O103 1.252 . S
C96 O99 1.252 . S
C96 O100 1.260 . S
O97 In91 2.266 . S
O97 C94 1.252 . S
O98 In91 2.326 . S
O98 C94 1.260 . S
O99 In91 2.266 . S
O99 C96 1.252 . S
O100 In91 2.326 . S
O100 C96 1.260 . S
C101 O92 1.240 . S
C101 O93 1.252 . S
O102 In91 2.294 . S
O102 C95 1.240 . S
O103 In91 2.326 . S
O103 C95 1.252 . S
In104 O105 2.294 . S
In104 O106 2.326 . S
In104 O110 2.266 . S
In104 O111 2.326 . S
In104 O112 2.266 . S
In104 O113 2.326 . S
In104 O115 2.294 . S
In104 O116 2.326 . S
O105 In104 2.294 . S
O105 C114 1.240 . S
O106 In104 2.326 . S
O106 C114 1.252 . S
C107 O110 1.252 . S
C107 O111 1.260 . S
C108 O115 1.240 . S
C108 O116 1.252 . S
C109 O112 1.252 . S
C109 O113 1.260 . S
O110 In104 2.266 . S
O110 C107 1.252 . S
O111 In104 2.326 . S
O111 C107 1.260 . S
O112 In104 2.266 . S
O112 C109 1.252 . S
O113 In104 2.326 . S
O113 C109 1.260 . S
C114 O105 1.240 . S
C114 O106 1.252 . S
O115 In104 2.294 . S
O115 C108 1.240 . S
O116 In104 2.326 . S
O116 C108 1.252 . S
In117 O118 2.294 . S
In117 O119 2.326 . S
In117 O123 2.266 . S
In117 O124 2.326 . S
In117 O125 2.266 . S
In117 O126 2.326 . S
In117 O128 2.294 . S
In117 O129 2.326 . S
O118 In117 2.294 . S
O118 C127 1.240 . S
O119 In117 2.326 . S
O119 C127 1.252 . S
C120 O123 1.252 . S
C120 O124 1.260 . S
C121 O128 1.240 . S
C121 O129 1.252 . S
C122 O125 1.252 . S
C122 O126 1.260 . S
O123 In117 2.266 . S
O123 C120 1.252 . S
O124 In117 2.326 . S
O124 C120 1.260 . S
O125 In117 2.266 . S
O125 C122 1.252 . S
O126 In117 2.326 . S
O126 C122 1.260 . S
C127 O118 1.240 . S
C127 O119 1.252 . S
O128 In117 2.294 . S
O128 C121 1.240 . S
O129 In117 2.326 . S
O129 C121 1.252 . S
In130 O131 2.294 . S
In130 O132 2.326 . S
In130 O136 2.266 . S
In130 O137 2.326 . S
In130 O138 2.266 . S
In130 O139 2.326 . S
In130 O141 2.294 . S
In130 O142 2.326 . S
O131 In130 2.294 . S
O131 C140 1.240 . S
O132 In130 2.326 . S
O132 C140 1.252 . S
C133 O136 1.252 . S
C133 O137 1.260 . S
C134 O141 1.240 . S
C134 O142 1.252 . S
C135 O138 1.252 . S
C135 O139 1.260 . S
O136 In130 2.266 . S
O136 C133 1.252 . S
O137 In130 2.326 . S
O137 C133 1.260 . S
O138 In130 2.266 . S
O138 C135 1.252 . S
O139 In130 2.326 . S
O139 C135 1.260 . S
C140 O131 1.240 . S
C140 O132 1.252 . S
O141 In130 2.294 . S
O141 C134 1.240 . S
O142 In130 2.326 . S
O142 C134 1.252 . S
In143 O144 2.294 . S
In143 O145 2.326 . S
In143 O149 2.266 . S
In143 O150 2.326 . S
In143 O151 2.266 . S
In143 O152 2.326 . S
In143 O154 2.294 . S
In143 O155 2.326 . S
O144 In143 2.294 . S
O144 C153 1.240 . S
O145 In143 2.326 . S
O145 C153 1.252 . S
C146 O149 1.252 . S
C146 O150 1.260 . S
C147 O154 1.240 . S
C147 O155 1.252 . S
C148 O151 1.252 . S
C148 O152 1.260 . S
O149 In143 2.266 . S
O149 C146 1.252 . S
O150 In143 2.326 . S
O150 C146 1.260 . S
O151 In143 2.266 . S
O151 C148 1.252 . S
O152 In143 2.326 . S
O152 C148 1.260 . S
C153 O144 1.240 . S
C153 O145 1.252 . S
O154 In143 2.294 . S
O154 C147 1.240 . S
O155 In143 2.326 . S
O155 C147 1.252 . S
In156 O157 2.294 . S
In156 O158 2.326 . S
In156 O162 2.266 . S
In156 O163 2.326 . S
In156 O164 2.266 . S
In156 O165 2.326 . S
In156 O167 2.294 . S
In156 O168 2.326 . S
O157 In156 2.294 . S
O157 C166 1.240 . S
O158 In156 2.326 . S
O158 C166 1.252 . S
C159 O162 1.252 . S
C159 O163 1.260 . S
C160 O167 1.240 . S
C160 O168 1.252 . S
C161 O164 1.252 . S
C161 O165 1.260 . S
O162 In156 2.266 . S
O162 C159 1.252 . S
O163 In156 2.326 . S
O163 C159 1.260 . S
O164 In156 2.266 . S
O164 C161 1.252 . S
O165 In156 2.326 . S
O165 C161 1.260 . S
C166 O157 1.240 . S
C166 O158 1.252 . S
O167 In156 2.294 . S
O167 C160 1.240 . S
O168 In156 2.326 . S
O168 C160 1.252 . S
In169 O170 2.294 . S
In169 O171 2.326 . S
In169 O175 2.266 . S
In169 O176 2.326 . S
In169 O177 2.266 . S
In169 O178 2.326 . S
In169 O180 2.294 . S
In169 O181 2.326 . S
O170 In169 2.294 . S
O170 C179 1.240 . S
O171 In169 2.326 . S
O171 C179 1.252 . S
C172 O175 1.252 . S
C172 O176 1.260 . S
C173 O180 1.240 . S
C173 O181 1.252 . S
C174 O177 1.252 . S
C174 O178 1.260 . S
O175 In169 2.266 . S
O175 C172 1.252 . S
O176 In169 2.326 . S
O176 C172 1.260 . S
O177 In169 2.266 . S
O177 C174 1.252 . S
O178 In169 2.326 . S
O178 C174 1.260 . S
C179 O170 1.240 . S
C179 O171 1.252 . S
O180 In169 2.294 . S
O180 C173 1.240 . S
O181 In169 2.326 . S
O181 C173 1.252 . S
In182 O183 2.294 . S
In182 O184 2.326 . S
In182 O188 2.266 . S
In182 O189 2.326 . S
In182 O190 2.266 . S
In182 O191 2.326 . S
In182 O193 2.294 . S
In182 O194 2.326 . S
O183 In182 2.294 . S
O183 C192 1.240 . S
O184 In182 2.326 . S
O184 C192 1.252 . S
C185 O188 1.252 . S
C185 O189 1.260 . S
C186 O193 1.240 . S
C186 O194 1.252 . S
C187 O190 1.252 . S
C187 O191 1.260 . S
O188 In182 2.266 . S
O188 C185 1.252 . S
O189 In182 2.326 . S
O189 C185 1.260 . S
O190 In182 2.266 . S
O190 C187 1.252 . S
O191 In182 2.326 . S
O191 C187 1.260 . S
C192 O183 1.240 . S
C192 O184 1.252 . S
O193 In182 2.294 . S
O193 C186 1.240 . S
O194 In182 2.326 . S
O194 C186 1.252 . S
In195 O196 2.294 . S
In195 O197 2.326 . S
In195 O201 2.266 . S
In195 O202 2.326 . S
In195 O203 2.266 . S
In195 O204 2.326 . S
In195 O206 2.294 . S
In195 O207 2.326 . S
O196 In195 2.294 . S
O196 C205 1.240 . S
O197 In195 2.326 . S
O197 C205 1.252 . S
C198 O201 1.252 . S
C198 O202 1.260 . S
C199 O206 1.240 . S
C199 O207 1.252 . S
C200 O203 1.252 . S
C200 O204 1.260 . S
O201 In195 2.266 . S
O201 C198 1.252 . S
O202 In195 2.326 . S
O202 C198 1.260 . S
O203 In195 2.266 . S
O203 C200 1.252 . S
O204 In195 2.326 . S
O204 C200 1.260 . S
C205 O196 1.240 . S
C205 O197 1.252 . S
O206 In195 2.294 . S
O206 C199 1.240 . S
O207 In195 2.326 . S
O207 C199 1.252 . S
In208 O209 2.294 . S
In208 O210 2.326 . S
In208 O214 2.266 . S
In208 O215 2.326 . S
In208 O216 2.266 . S
In208 O217 2.326 . S
In208 O219 2.294 . S
In208 O220 2.326 . S
O209 In208 2.294 . S
O209 C218 1.240 . S
O210 In208 2.326 . S
O210 C218 1.252 . S
C211 O214 1.252 . S
C211 O215 1.260 . S
C212 O219 1.240 . S
C212 O220 1.252 . S
C213 O216 1.252 . S
C213 O217 1.260 . S
O214 In208 2.266 . S
O214 C211 1.252 . S
O215 In208 2.326 . S
O215 C211 1.260 . S
O216 In208 2.266 . S
O216 C213 1.252 . S
O217 In208 2.326 . S
O217 C213 1.260 . S
C218 O209 1.240 . S
C218 O210 1.252 . S
O219 In208 2.294 . S
O219 C212 1.240 . S
O220 In208 2.326 . S
O220 C212 1.252 . S
In221 O222 2.294 . S
In221 O223 2.326 . S
In221 O227 2.266 . S
In221 O228 2.326 . S
In221 O229 2.266 . S
In221 O230 2.326 . S
In221 O232 2.294 . S
In221 O233 2.326 . S
O222 In221 2.294 . S
O222 C231 1.240 . S
O223 In221 2.326 . S
O223 C231 1.252 . S
C224 O227 1.252 . S
C224 O228 1.260 . S
C225 O232 1.240 . S
C225 O233 1.252 . S
C226 O229 1.252 . S
C226 O230 1.260 . S
O227 In221 2.266 . S
O227 C224 1.252 . S
O228 In221 2.326 . S
O228 C224 1.260 . S
O229 In221 2.266 . S
O229 C226 1.252 . S
O230 In221 2.326 . S
O230 C226 1.260 . S
C231 O222 1.240 . S
C231 O223 1.252 . S
O232 In221 2.294 . S
O232 C225 1.240 . S
O233 In221 2.326 . S
O233 C225 1.252 . S
In234 O235 2.294 . S
In234 O236 2.326 . S
In234 O240 2.266 . S
In234 O241 2.326 . S
In234 O242 2.266 . S
In234 O243 2.326 . S
In234 O245 2.294 . S
In234 O246 2.326 . S
O235 In234 2.294 . S
O235 C244 1.240 . S
O236 In234 2.326 . S
O236 C244 1.252 . S
C237 O240 1.252 . S
C237 O241 1.260 . S
C238 O245 1.240 . S
C238 O246 1.252 . S
C239 O242 1.252 . S
C239 O243 1.260 . S
O240 In234 2.266 . S
O240 C237 1.252 . S
O241 In234 2.326 . S
O241 C237 1.260 . S
O242 In234 2.266 . S
O242 C239 1.252 . S
O243 In234 2.326 . S
O243 C239 1.260 . S
C244 O235 1.240 . S
C244 O236 1.252 . S
O245 In234 2.294 . S
O245 C238 1.240 . S
O246 In234 2.326 . S
O246 C238 1.252 . S
In247 O248 2.294 . S
In247 O249 2.326 . S
In247 O253 2.266 . S
In247 O254 2.326 . S
In247 O255 2.266 . S
In247 O256 2.326 . S
In247 O258 2.294 . S
In247 O259 2.326 . S
O248 In247 2.294 . S
O248 C257 1.240 . S
O249 In247 2.326 . S
O249 C257 1.252 . S
C250 O253 1.252 . S
C250 O254 1.260 . S
C251 O258 1.240 . S
C251 O259 1.252 . S
C252 O255 1.252 . S
C252 O256 1.260 . S
O253 In247 2.266 . S
O253 C250 1.252 . S
O254 In247 2.326 . S
O254 C250 1.260 . S
O255 In247 2.266 . S
O255 C252 1.252 . S
O256 In247 2.326 . S
O256 C252 1.260 . S
C257 O248 1.240 . S
C257 O249 1.252 . S
O258 In247 2.294 . S
O258 C251 1.240 . S
O259 In247 2.326 . S
O259 C251 1.252 . S
In260 O261 2.294 . S
In260 O262 2.326 . S
In260 O266 2.266 . S
In260 O267 2.326 . S
In260 O268 2.266 . S
In260 O269 2.326 . S
In260 O271 2.294 . S
In260 O272 2.326 . S
O261 In260 2.294 . S
O261 C270 1.240 . S
O262 In260 2.326 . S
O262 C270 1.252 . S
C263 O266 1.252 . S
C263 O267 1.260 . S
C264 O271 1.240 . S
C264 O272 1.252 . S
C265 O268 1.252 . S
C265 O269 1.260 . S
O266 In260 2.266 . S
O266 C263 1.252 . S
O267 In260 2.326 . S
O267 C263 1.260 . S
O268 In260 2.266 . S
O268 C265 1.252 . S
O269 In260 2.326 . S
O269 C265 1.260 . S
C270 O261 1.240 . S
C270 O262 1.252 . S
O271 In260 2.294 . S
O271 C264 1.240 . S
O272 In260 2.326 . S
O272 C264 1.252 . S
In273 O274 2.294 . S
In273 O275 2.326 . S
In273 O279 2.266 . S
In273 O280 2.326 . S
In273 O281 2.266 . S
In273 O282 2.326 . S
In273 O284 2.294 . S
In273 O285 2.326 . S
O274 In273 2.294 . S
O274 C283 1.240 . S
O275 In273 2.326 . S
O275 C283 1.252 . S
C276 O279 1.252 . S
C276 O280 1.260 . S
C277 O284 1.240 . S
C277 O285 1.252 . S
C278 O281 1.252 . S
C278 O282 1.260 . S
O279 In273 2.266 . S
O279 C276 1.252 . S
O280 In273 2.326 . S
O280 C276 1.260 . S
O281 In273 2.266 . S
O281 C278 1.252 . S
O282 In273 2.326 . S
O282 C278 1.260 . S
C283 O274 1.240 . S
C283 O275 1.252 . S
O284 In273 2.294 . S
O284 C277 1.240 . S
O285 In273 2.326 . S
O285 C277 1.252 . S
In286 O287 2.294 . S
In286 O288 2.326 . S
In286 O292 2.266 . S
In286 O293 2.326 . S
In286 O294 2.266 . S
In286 O295 2.326 . S
In286 O297 2.294 . S
In286 O298 2.326 . S
O287 In286 2.294 . S
O287 C296 1.240 . S
O288 In286 2.326 . S
O288 C296 1.252 . S
C289 O292 1.252 . S
C289 O293 1.260 . S
C290 O297 1.240 . S
C290 O298 1.252 . S
C291 O294 1.252 . S
C291 O295 1.260 . S
O292 In286 2.266 . S
O292 C289 1.252 . S
O293 In286 2.326 . S
O293 C289 1.260 . S
O294 In286 2.266 . S
O294 C291 1.252 . S
O295 In286 2.326 . S
O295 C291 1.260 . S
C296 O287 1.240 . S
C296 O288 1.252 . S
O297 In286 2.294 . S
O297 C290 1.240 . S
O298 In286 2.326 . S
O298 C290 1.252 . S
In299 O300 2.294 . S
In299 O301 2.326 . S
In299 O305 2.266 . S
In299 O306 2.326 . S
In299 O307 2.266 . S
In299 O308 2.326 . S
In299 O310 2.294 . S
In299 O311 2.326 . S
O300 In299 2.294 . S
O300 C309 1.240 . S
O301 In299 2.326 . S
O301 C309 1.252 . S
C302 O305 1.252 . S
C302 O306 1.260 . S
C303 O310 1.240 . S
C303 O311 1.252 . S
C304 O307 1.252 . S
C304 O308 1.260 . S
O305 In299 2.266 . S
O305 C302 1.252 . S
O306 In299 2.326 . S
O306 C302 1.260 . S
O307 In299 2.266 . S
O307 C304 1.252 . S
O308 In299 2.326 . S
O308 C304 1.260 . S
C309 O300 1.240 . S
C309 O301 1.252 . S
O310 In299 2.294 . S
O310 C303 1.240 . S
O311 In299 2.326 . S
O311 C303 1.252 . S
H312 C324 0.930 . S
H313 C326 0.930 . S
H314 C327 0.930 . S
H315 C331 0.959 . S
H316 C331 0.959 . S
H317 C331 0.961 . S
H318 C332 0.960 . S
H319 C332 0.961 . S
H320 C332 0.959 . S
H321 C335 0.929 . S
H322 C336 0.931 . S
H323 C338 0.930 . S
C324 H312 0.930 . S
C324 C325 1.399 . S
C324 C329 1.399 . S
C325 C324 1.399 . S
C325 C326 1.376 . S
C326 H313 0.930 . S
C326 C325 1.376 . S
C326 C327 1.388 . S
C327 H314 0.930 . S
C327 C326 1.388 . S
C327 C328 1.390 . S
C328 C327 1.390 . S
C328 C329 1.394 . S
C328 C334 1.465 1_545 S
C329 C324 1.399 . S
C329 C328 1.394 . S
C329 C330 1.516 1_545 S
C330 C329 1.516 1_565 S
C330 C331 1.502 . S
C330 C332 1.561 . S
C330 C333 1.526 . S
C331 H315 0.959 . S
C331 H316 0.959 . S
C331 H317 0.961 . S
C331 C330 1.502 . S
C332 H318 0.960 . S
C332 H319 0.961 . S
C332 H320 0.959 . S
C332 C330 1.561 . S
C333 C330 1.526 . S
C333 C334 1.396 . S
C333 C338 1.390 . S
C334 C328 1.465 1_565 S
C334 C333 1.396 . S
C334 C335 1.399 . S
C335 H321 0.929 . S
C335 C334 1.399 . S
C335 C336 1.385 . S
C336 H322 0.931 . S
C336 C335 1.385 . S
C336 C337 1.389 . S
C337 C336 1.389 . S
C337 C338 1.387 . S
C338 H323 0.930 . S
C338 C333 1.390 . S
C338 C337 1.387 . S
H339 C351 0.930 . S
H340 C353 0.930 . S
H341 C354 0.930 . S
H342 C358 0.959 . S
H343 C358 0.959 . S
H344 C358 0.961 . S
H345 C359 0.960 . S
H346 C359 0.961 . S
H347 C359 0.959 . S
H348 C362 0.929 . S
H349 C363 0.931 . S
H350 C365 0.930 . S
C351 H339 0.930 . S
C351 C352 1.399 . S
C351 C356 1.399 . S
C352 C351 1.399 . S
C352 C353 1.376 . S
C353 H340 0.930 . S
C353 C352 1.376 . S
C353 C354 1.388 . S
C354 H341 0.930 . S
C354 C353 1.388 . S
C354 C355 1.390 . S
C355 C354 1.390 . S
C355 C356 1.394 . S
C355 C361 1.465 . S
C356 C351 1.399 . S
C356 C355 1.394 . S
C356 C357 1.516 . S
C357 C356 1.516 . S
C357 C358 1.502 . S
C357 C359 1.561 . S
C357 C360 1.526 . S
C358 H342 0.959 . S
C358 H343 0.959 . S
C358 H344 0.961 . S
C358 C357 1.502 . S
C359 H345 0.960 . S
C359 H346 0.961 . S
C359 H347 0.959 . S
C359 C357 1.561 . S
C360 C357 1.526 . S
C360 C361 1.396 . S
C360 C365 1.390 . S
C361 C355 1.465 . S
C361 C360 1.396 . S
C361 C362 1.399 . S
C362 H348 0.929 . S
C362 C361 1.399 . S
C362 C363 1.385 . S
C363 H349 0.931 . S
C363 C362 1.385 . S
C363 C364 1.389 . S
C364 C363 1.389 . S
C364 C365 1.387 . S
C365 H350 0.930 . S
C365 C360 1.390 . S
C365 C364 1.387 . S
H366 C378 0.930 . S
H367 C380 0.930 . S
H368 C381 0.930 . S
H369 C385 0.959 . S
H370 C385 0.959 . S
H371 C385 0.961 1_655 S
H372 C386 0.960 . S
H373 C386 0.961 . S
H374 C386 0.959 . S
H375 C389 0.929 . S
H376 C390 0.931 . S
H377 C392 0.930 . S
C378 H366 0.930 . S
C378 C379 1.399 . S
C378 C383 1.399 . S
C379 C378 1.399 . S
C379 C380 1.376 . S
C380 H367 0.930 . S
C380 C379 1.376 . S
C380 C381 1.388 . S
C381 H368 0.930 . S
C381 C380 1.388 . S
C381 C382 1.390 . S
C382 C381 1.390 . S
C382 C383 1.394 . S
C382 C388 1.465 1_655 S
C383 C378 1.399 . S
C383 C382 1.394 . S
C383 C384 1.516 1_655 S
C384 C383 1.516 1_455 S
C384 C385 1.502 . S
C384 C386 1.561 . S
C384 C387 1.526 . S
C385 H369 0.959 . S
C385 H370 0.959 . S
C385 H371 0.961 1_455 S
C385 C384 1.502 . S
C386 H372 0.960 . S
C386 H373 0.961 . S
C386 H374 0.959 . S
C386 C384 1.561 . S
C387 C384 1.526 . S
C387 C388 1.396 . S
C387 C392 1.390 . S
C388 C382 1.465 1_455 S
C388 C387 1.396 . S
C388 C389 1.399 . S
C389 H375 0.929 . S
C389 C388 1.399 . S
C389 C390 1.385 . S
C390 H376 0.931 . S
C390 C389 1.385 . S
C390 C391 1.389 . S
C391 C390 1.389 . S
C391 C392 1.387 . S
C392 H377 0.930 . S
C392 C387 1.390 . S
C392 C391 1.387 . S
H393 C405 0.930 . S
H394 C407 0.930 . S
H395 C408 0.930 . S
H396 C412 0.959 . S
H397 C412 0.959 . S
H398 C412 0.961 . S
H399 C413 0.960 . S
H400 C413 0.961 . S
H401 C413 0.959 . S
H402 C416 0.929 . S
H403 C417 0.931 . S
H404 C419 0.930 . S
C405 H393 0.930 . S
C405 C406 1.399 . S
C405 C410 1.399 . S
C406 C405 1.399 . S
C406 C407 1.376 . S
C407 H394 0.930 . S
C407 C406 1.376 . S
C407 C408 1.388 . S
C408 H395 0.930 . S
C408 C407 1.388 . S
C408 C409 1.390 . S
C409 C408 1.390 . S
C409 C410 1.394 . S
C409 C415 1.465 1_565 S
C410 C405 1.399 . S
C410 C409 1.394 . S
C410 C411 1.516 1_565 S
C411 C410 1.516 1_545 S
C411 C412 1.502 . S
C411 C413 1.561 . S
C411 C414 1.526 . S
C412 H396 0.959 . S
C412 H397 0.959 . S
C412 H398 0.961 . S
C412 C411 1.502 . S
C413 H399 0.960 . S
C413 H400 0.961 . S
C413 H401 0.959 . S
C413 C411 1.561 . S
C414 C411 1.526 . S
C414 C415 1.396 . S
C414 C419 1.390 . S
C415 C409 1.465 1_545 S
C415 C414 1.396 . S
C415 C416 1.399 . S
C416 H402 0.929 . S
C416 C415 1.399 . S
C416 C417 1.385 . S
C417 H403 0.931 . S
C417 C416 1.385 . S
C417 C418 1.389 . S
C418 C417 1.389 . S
C418 C419 1.387 . S
C419 H404 0.930 . S
C419 C414 1.390 . S
C419 C418 1.387 . S
H420 C432 0.930 . S
H421 C434 0.930 . S
H422 C435 0.930 . S
H423 C439 0.959 . S
H424 C439 0.959 . S
H425 C439 0.961 . S
H426 C440 0.960 . S
H427 C440 0.961 . S
H428 C440 0.959 . S
H429 C443 0.929 . S
H430 C444 0.931 . S
H431 C446 0.930 . S
C432 H420 0.930 . S
C432 C433 1.399 . S
C432 C437 1.399 . S
C433 C432 1.399 . S
C433 C434 1.376 . S
C434 H421 0.930 . S
C434 C433 1.376 . S
C434 C435 1.388 . S
C435 H422 0.930 . S
C435 C434 1.388 . S
C435 C436 1.390 . S
C436 C435 1.390 . S
C436 C437 1.394 . S
C436 C442 1.465 . S
C437 C432 1.399 . S
C437 C436 1.394 . S
C437 C438 1.516 . S
C438 C437 1.516 . S
C438 C439 1.502 . S
C438 C440 1.561 . S
C438 C441 1.526 . S
C439 H423 0.959 . S
C439 H424 0.959 . S
C439 H425 0.961 . S
C439 C438 1.502 . S
C440 H426 0.960 . S
C440 H427 0.961 . S
C440 H428 0.959 . S
C440 C438 1.561 . S
C441 C438 1.526 . S
C441 C442 1.396 . S
C441 C446 1.390 . S
C442 C436 1.465 . S
C442 C441 1.396 . S
C442 C443 1.399 . S
C443 H429 0.929 . S
C443 C442 1.399 . S
C443 C444 1.385 . S
C444 H430 0.931 . S
C444 C443 1.385 . S
C444 C445 1.389 . S
C445 C444 1.389 . S
C445 C446 1.387 . S
C446 H431 0.930 . S
C446 C441 1.390 . S
C446 C445 1.387 . S
H447 C459 0.930 . S
H448 C461 0.930 . S
H449 C462 0.930 . S
H450 C466 0.959 . S
H451 C466 0.959 . S
H452 C466 0.961 . S
H453 C467 0.960 . S
H454 C467 0.961 . S
H455 C467 0.959 . S
H456 C470 0.929 . S
H457 C471 0.931 . S
H458 C473 0.930 . S
C459 H447 0.930 . S
C459 C460 1.399 . S
C459 C464 1.399 . S
C460 C459 1.399 . S
C460 C461 1.376 . S
C461 H448 0.930 . S
C461 C460 1.376 . S
C461 C462 1.388 . S
C462 H449 0.930 . S
C462 C461 1.388 . S
C462 C463 1.390 . S
C463 C462 1.390 . S
C463 C464 1.394 . S
C463 C469 1.465 1_455 S
C464 C459 1.399 . S
C464 C463 1.394 . S
C464 C465 1.516 . S
C465 C464 1.516 . S
C465 C466 1.502 . S
C465 C467 1.561 . S
C465 C468 1.526 1_455 S
C466 H450 0.959 . S
C466 H451 0.959 . S
C466 H452 0.961 . S
C466 C465 1.502 . S
C467 H453 0.960 . S
C467 H454 0.961 . S
C467 H455 0.959 . S
C467 C465 1.561 . S
C468 C465 1.526 1_655 S
C468 C469 1.396 . S
C468 C473 1.390 . S
C469 C463 1.465 1_655 S
C469 C468 1.396 . S
C469 C470 1.399 . S
C470 H456 0.929 . S
C470 C469 1.399 . S
C470 C471 1.385 . S
C471 H457 0.931 . S
C471 C470 1.385 . S
C471 C472 1.389 . S
C472 C471 1.389 . S
C472 C473 1.387 . S
C473 H458 0.930 . S
C473 C468 1.390 . S
C473 C472 1.387 . S
H474 C486 0.930 . S
H475 C488 0.930 . S
H476 C489 0.930 . S
H477 C493 0.959 . S
H478 C493 0.959 . S
H479 C493 0.961 . S
H480 C494 0.960 . S
H481 C494 0.961 . S
H482 C494 0.959 . S
H483 C497 0.929 . S
H484 C498 0.931 . S
H485 C500 0.930 . S
C486 H474 0.930 . S
C486 C487 1.399 . S
C486 C491 1.399 . S
C487 C486 1.399 . S
C487 C488 1.376 . S
C488 H475 0.930 . S
C488 C487 1.376 . S
C488 C489 1.388 . S
C489 H476 0.930 . S
C489 C488 1.388 . S
C489 C490 1.390 . S
C490 C489 1.390 . S
C490 C491 1.394 . S
C490 C496 1.465 1_565 S
C491 C486 1.399 . S
C491 C490 1.394 . S
C491 C492 1.516 . S
C492 C491 1.516 . S
C492 C493 1.502 . S
C492 C494 1.561 . S
C492 C495 1.526 1_565 S
C493 H477 0.959 . S
C493 H478 0.959 . S
C493 H479 0.961 . S
C493 C492 1.502 . S
C494 H480 0.960 . S
C494 H481 0.961 . S
C494 H482 0.959 . S
C494 C492 1.561 . S
C495 C492 1.526 1_545 S
C495 C496 1.396 . S
C495 C500 1.390 . S
C496 C490 1.465 1_545 S
C496 C495 1.396 . S
C496 C497 1.399 . S
C497 H483 0.929 . S
C497 C496 1.399 . S
C497 C498 1.385 . S
C498 H484 0.931 . S
C498 C497 1.385 . S
C498 C499 1.389 . S
C499 C498 1.389 . S
C499 C500 1.387 . S
C500 H485 0.930 . S
C500 C495 1.390 . S
C500 C499 1.387 . S
H501 C513 0.930 . S
H502 C515 0.930 . S
H503 C516 0.930 . S
H504 C520 0.959 . S
H505 C520 0.959 . S
H506 C520 0.961 . S
H507 C521 0.960 . S
H508 C521 0.961 . S
H509 C521 0.959 . S
H510 C524 0.929 . S
H511 C525 0.931 . S
H512 C527 0.930 . S
C513 H501 0.930 . S
C513 C514 1.399 . S
C513 C518 1.399 . S
C514 C513 1.399 . S
C514 C515 1.376 . S
C515 H502 0.930 . S
C515 C514 1.376 . S
C515 C516 1.388 . S
C516 H503 0.930 . S
C516 C515 1.388 . S
C516 C517 1.390 . S
C517 C516 1.390 . S
C517 C518 1.394 . S
C517 C523 1.465 . S
C518 C513 1.399 . S
C518 C517 1.394 . S
C518 C519 1.516 . S
C519 C518 1.516 . S
C519 C520 1.502 . S
C519 C521 1.561 . S
C519 C522 1.526 . S
C520 H504 0.959 . S
C520 H505 0.959 . S
C520 H506 0.961 . S
C520 C519 1.502 . S
C521 H507 0.960 . S
C521 H508 0.961 . S
C521 H509 0.959 . S
C521 C519 1.561 . S
C522 C519 1.526 . S
C522 C523 1.396 . S
C522 C527 1.390 . S
C523 C517 1.465 . S
C523 C522 1.396 . S
C523 C524 1.399 . S
C524 H510 0.929 . S
C524 C523 1.399 . S
C524 C525 1.385 . S
C525 H511 0.931 . S
C525 C524 1.385 . S
C525 C526 1.389 . S
C526 C525 1.389 . S
C526 C527 1.387 . S
C527 H512 0.930 . S
C527 C522 1.390 . S
C527 C526 1.387 . S
H528 C540 0.930 . S
H529 C542 0.930 . S
H530 C543 0.930 . S
H531 C547 0.959 . S
H532 C547 0.959 . S
H533 C547 0.970 . S
H534 C548 0.960 . S
H535 C548 0.961 . S
H536 C548 0.959 . S
H537 C551 0.929 . S
H538 C552 0.931 . S
H539 C554 0.930 . S
C540 H528 0.930 . S
C540 C541 1.399 . S
C540 C545 1.399 . S
C541 C540 1.399 . S
C541 C542 1.376 . S
C542 H529 0.930 . S
C542 C541 1.376 . S
C542 C543 1.388 . S
C543 H530 0.930 . S
C543 C542 1.388 . S
C543 C544 1.390 . S
C544 C543 1.390 . S
C544 C545 1.394 . S
C544 C550 1.465 1_655 S
C545 C540 1.399 . S
C545 C544 1.394 . S
C545 C546 1.516 1_655 S
C546 C545 1.516 1_455 S
C546 C547 1.502 . S
C546 C548 1.561 . S
C546 C549 1.526 . S
C547 H531 0.959 . S
C547 H532 0.959 . S
C547 H533 0.970 . S
C547 C546 1.502 . S
C548 H534 0.960 . S
C548 H535 0.961 . S
C548 H536 0.959 . S
C548 C546 1.561 . S
C549 C546 1.526 . S
C549 C550 1.396 . S
C549 C554 1.390 . S
C550 C544 1.465 1_455 S
C550 C549 1.396 . S
C550 C551 1.399 . S
C551 H537 0.929 . S
C551 C550 1.399 . S
C551 C552 1.385 . S
C552 H538 0.931 . S
C552 C551 1.385 . S
C552 C553 1.389 . S
C553 C552 1.389 . S
C553 C554 1.387 . S
C554 H539 0.930 . S
C554 C549 1.390 . S
C554 C553 1.387 . S
H555 C567 0.930 . S
H556 C569 0.930 . S
H557 C570 0.930 . S
H558 C574 0.959 . S
H559 C574 0.959 . S
H560 C574 0.961 . S
H561 C575 0.960 . S
H562 C575 0.961 . S
H563 C575 0.959 . S
H564 C578 0.929 . S
H565 C579 0.931 . S
H566 C581 0.930 . S
C567 H555 0.930 . S
C567 C568 1.399 . S
C567 C572 1.399 . S
C568 C567 1.399 . S
C568 C569 1.376 . S
C569 H556 0.930 . S
C569 C568 1.376 . S
C569 C570 1.388 . S
C570 H557 0.930 . S
C570 C569 1.388 . S
C570 C571 1.390 . S
C571 C570 1.390 . S
C571 C572 1.394 . S
C571 C577 1.465 1_545 S
C572 C567 1.399 . S
C572 C571 1.394 . S
C572 C573 1.516 1_545 S
C573 C572 1.516 1_565 S
C573 C574 1.502 . S
C573 C575 1.561 . S
C573 C576 1.526 . S
C574 H558 0.959 . S
C574 H559 0.959 . S
C574 H560 0.961 . S
C574 C573 1.502 . S
C575 H561 0.960 . S
C575 H562 0.961 . S
C575 H563 0.959 . S
C575 C573 1.561 . S
C576 C573 1.526 . S
C576 C577 1.396 . S
C576 C581 1.390 . S
C577 C571 1.465 1_565 S
C577 C576 1.396 . S
C577 C578 1.399 . S
C578 H564 0.929 . S
C578 C577 1.399 . S
C578 C579 1.385 . S
C579 H565 0.931 . S
C579 C578 1.385 . S
C579 C580 1.389 . S
C580 C579 1.389 . S
C580 C581 1.387 . S
C581 H566 0.930 . S
C581 C576 1.390 . S
C581 C580 1.387 . S
H582 C594 0.930 . S
H583 C596 0.930 . S
H584 C597 0.930 . S
H585 C601 0.959 . S
H586 C601 0.959 . S
H587 C601 0.961 . S
H588 C602 0.960 . S
H589 C602 0.961 . S
H590 C602 0.959 . S
H591 C605 0.929 . S
H592 C606 0.931 . S
H593 C608 0.930 . S
C594 H582 0.930 . S
C594 C595 1.399 . S
C594 C599 1.399 . S
C595 C594 1.399 . S
C595 C596 1.376 . S
C596 H583 0.930 . S
C596 C595 1.376 . S
C596 C597 1.388 . S
C597 H584 0.930 . S
C597 C596 1.388 . S
C597 C598 1.390 . S
C598 C597 1.390 . S
C598 C599 1.394 . S
C598 C604 1.465 . S
C599 C594 1.399 . S
C599 C598 1.394 . S
C599 C600 1.516 . S
C600 C599 1.516 . S
C600 C601 1.502 . S
C600 C602 1.561 . S
C600 C603 1.526 . S
C601 H585 0.959 . S
C601 H586 0.959 . S
C601 H587 0.961 . S
C601 C600 1.502 . S
C602 H588 0.960 . S
C602 H589 0.961 . S
C602 H590 0.959 . S
C602 C600 1.561 . S
C603 C600 1.526 . S
C603 C604 1.396 . S
C603 C608 1.390 . S
C604 C598 1.465 . S
C604 C603 1.396 . S
C604 C605 1.399 . S
C605 H591 0.929 . S
C605 C604 1.399 . S
C605 C606 1.385 . S
C606 H592 0.931 . S
C606 C605 1.385 . S
C606 C607 1.389 . S
C607 C606 1.389 . S
C607 C608 1.387 . S
C608 H593 0.930 . S
C608 C603 1.390 . S
C608 C607 1.387 . S
H609 C621 0.930 . S
H610 C623 0.930 . S
H611 C624 0.930 . S
H612 C628 0.959 . S
H613 C628 0.959 . S
H614 C628 0.961 . S
H615 C629 0.960 . S
H616 C629 0.979 . S
H617 C629 0.959 . S
H618 C632 0.929 . S
H619 C633 0.931 . S
H620 C635 0.930 . S
C621 H609 0.930 . S
C621 C622 1.399 . S
C621 C626 1.399 . S
C622 C621 1.399 . S
C622 C623 1.376 . S
C623 H610 0.930 . S
C623 C622 1.376 . S
C623 C624 1.388 . S
C624 H611 0.930 . S
C624 C623 1.388 . S
C624 C625 1.390 . S
C625 C624 1.390 . S
C625 C626 1.394 . S
C625 C631 1.465 1_455 S
C626 C621 1.399 . S
C626 C625 1.394 . S
C626 C627 1.516 . S
C627 C626 1.516 . S
C627 C628 1.502 . S
C627 C629 1.561 . S
C627 C630 1.526 1_455 S
C628 H612 0.959 . S
C628 H613 0.959 . S
C628 H614 0.961 . S
C628 C627 1.502 . S
C629 H615 0.960 . S
C629 H616 0.979 . S
C629 H617 0.959 . S
C629 C627 1.561 . S
C630 C627 1.526 1_655 S
C630 C631 1.396 . S
C630 C635 1.390 . S
C631 C625 1.465 1_655 S
C631 C630 1.396 . S
C631 C632 1.399 . S
C632 H618 0.929 . S
C632 C631 1.399 . S
C632 C633 1.385 . S
C633 H619 0.931 . S
C633 C632 1.385 . S
C633 C634 1.389 . S
C634 C633 1.389 . S
C634 C635 1.387 . S
C635 H620 0.930 . S
C635 C630 1.390 . S
C635 C634 1.387 . S
H636 C648 0.930 . S
H637 C650 0.930 . S
H638 C651 0.930 . S
H639 C655 0.959 . S
H640 C655 0.959 . S
H641 C655 0.961 . S
H642 C656 0.960 . S
H643 C656 0.961 . S
H644 C656 0.959 . S
H645 C659 0.929 . S
H646 C660 0.931 . S
H647 C662 0.930 . S
C648 H636 0.930 . S
C648 C649 1.399 . S
C648 C653 1.399 . S
C649 C648 1.399 . S
C649 C650 1.376 . S
C650 H637 0.930 . S
C650 C649 1.376 . S
C650 C651 1.388 . S
C651 H638 0.930 . S
C651 C650 1.388 . S
C651 C652 1.390 . S
C652 C651 1.390 . S
C652 C653 1.394 . S
C652 C658 1.465 . S
C653 C648 1.399 . S
C653 C652 1.394 . S
C653 C654 1.516 . S
C654 C653 1.516 . S
C654 C655 1.502 . S
C654 C656 1.561 . S
C654 C657 1.526 . S
C655 H639 0.959 . S
C655 H640 0.959 . S
C655 H641 0.961 . S
C655 C654 1.502 . S
C656 H642 0.960 . S
C656 H643 0.961 . S
C656 H644 0.959 . S
C656 C654 1.561 . S
C657 C654 1.526 . S
C657 C658 1.396 . S
C657 C662 1.390 . S
C658 C652 1.465 . S
C658 C657 1.396 . S
C658 C659 1.399 . S
C659 H645 0.929 . S
C659 C658 1.399 . S
C659 C660 1.385 . S
C660 H646 0.931 . S
C660 C659 1.385 . S
C660 C661 1.389 . S
C661 C660 1.389 . S
C661 C662 1.387 . S
C662 H647 0.930 . S
C662 C657 1.390 . S
C662 C661 1.387 . S
H663 C675 0.930 . S
H664 C677 0.930 . S
H665 C678 0.930 . S
H666 C682 0.959 . S
H667 C682 0.959 . S
H668 C682 0.961 . S
H669 C683 0.960 . S
H670 C683 0.961 . S
H671 C683 0.959 . S
H672 C686 0.929 . S
H673 C687 0.931 . S
H674 C689 0.930 . S
C675 H663 0.930 . S
C675 C676 1.399 . S
C675 C680 1.399 . S
C676 C675 1.399 . S
C676 C677 1.376 . S
C677 H664 0.930 . S
C677 C676 1.376 . S
C677 C678 1.388 . S
C678 H665 0.930 . S
C678 C677 1.388 . S
C678 C679 1.390 . S
C679 C678 1.390 . S
C679 C680 1.394 . S
C679 C685 1.465 . S
C680 C675 1.399 . S
C680 C679 1.394 . S
C680 C681 1.516 . S
C681 C680 1.516 . S
C681 C682 1.502 . S
C681 C683 1.561 . S
C681 C684 1.526 . S
C682 H666 0.959 . S
C682 H667 0.959 . S
C682 H668 0.961 . S
C682 C681 1.502 . S
C683 H669 0.960 . S
C683 H670 0.961 . S
C683 H671 0.959 . S
C683 C681 1.561 . S
C684 C681 1.526 . S
C684 C685 1.396 . S
C684 C689 1.390 . S
C685 C679 1.465 . S
C685 C684 1.396 . S
C685 C686 1.399 . S
C686 H672 0.929 . S
C686 C685 1.399 . S
C686 C687 1.385 . S
C687 H673 0.931 . S
C687 C686 1.385 . S
C687 C688 1.389 . S
C688 C687 1.389 . S
C688 C689 1.387 . S
C689 H674 0.930 . S
C689 C684 1.390 . S
C689 C688 1.387 . S
H690 C702 0.930 . S
H691 C704 0.930 . S
H692 C705 0.930 . S
H693 C709 0.959 . S
H694 C709 0.959 . S
H695 C709 0.961 . S
H696 C710 0.960 . S
H697 C710 0.961 . S
H698 C710 0.959 . S
H699 C713 0.929 . S
H700 C714 0.931 . S
H701 C716 0.930 . S
C702 H690 0.930 . S
C702 C703 1.399 . S
C702 C707 1.399 . S
C703 C702 1.399 . S
C703 C704 1.376 . S
C704 H691 0.930 . S
C704 C703 1.376 . S
C704 C705 1.388 . S
C705 H692 0.930 . S
C705 C704 1.388 . S
C705 C706 1.390 . S
C706 C705 1.390 . S
C706 C707 1.394 . S
C706 C712 1.465 . S
C707 C702 1.399 . S
C707 C706 1.394 . S
C707 C708 1.516 . S
C708 C707 1.516 . S
C708 C709 1.502 . S
C708 C710 1.561 . S
C708 C711 1.526 . S
C709 H693 0.959 . S
C709 H694 0.959 . S
C709 H695 0.961 . S
C709 C708 1.502 . S
C710 H696 0.960 . S
C710 H697 0.961 . S
C710 H698 0.959 . S
C710 C708 1.561 . S
C711 C708 1.526 . S
C711 C712 1.396 . S
C711 C716 1.390 . S
C712 C706 1.465 . S
C712 C711 1.396 . S
C712 C713 1.399 . S
C713 H699 0.929 . S
C713 C712 1.399 . S
C713 C714 1.385 . S
C714 H700 0.931 . S
C714 C713 1.385 . S
C714 C715 1.389 . S
C715 C714 1.389 . S
C715 C716 1.387 . S
C716 H701 0.930 . S
C716 C711 1.390 . S
C716 C715 1.387 . S
H717 C729 0.930 . S
H718 C731 0.930 . S
H719 C732 0.930 . S
H720 C736 0.959 . S
H721 C736 0.959 . S
H722 C736 0.961 . S
H723 C737 0.960 . S
H724 C737 0.961 . S
H725 C737 0.959 . S
H726 C740 0.929 . S
H727 C741 0.931 . S
H728 C743 0.930 . S
C729 H717 0.930 . S
C729 C730 1.399 . S
C729 C734 1.399 . S
C730 C729 1.399 . S
C730 C731 1.376 . S
C731 H718 0.930 . S
C731 C730 1.376 . S
C731 C732 1.388 . S
C732 H719 0.930 . S
C732 C731 1.388 . S
C732 C733 1.390 . S
C733 C732 1.390 . S
C733 C734 1.394 . S
C733 C739 1.465 . S
C734 C729 1.399 . S
C734 C733 1.394 . S
C734 C735 1.516 . S
C735 C734 1.516 . S
C735 C736 1.502 . S
C735 C737 1.561 . S
C735 C738 1.526 . S
C736 H720 0.959 . S
C736 H721 0.959 . S
C736 H722 0.961 . S
C736 C735 1.502 . S
C737 H723 0.960 . S
C737 H724 0.961 . S
C737 H725 0.959 . S
C737 C735 1.561 . S
C738 C735 1.526 . S
C738 C739 1.396 . S
C738 C743 1.390 . S
C739 C733 1.465 . S
C739 C738 1.396 . S
C739 C740 1.399 . S
C740 H726 0.929 . S
C740 C739 1.399 . S
C740 C741 1.385 . S
C741 H727 0.931 . S
C741 C740 1.385 . S
C741 C742 1.389 . S
C742 C741 1.389 . S
C742 C743 1.387 . S
C743 H728 0.930 . S
C743 C738 1.390 . S
C743 C742 1.387 . S
H744 C756 0.930 . S
H745 C758 0.930 . S
H746 C759 0.930 . S
H747 C763 0.959 . S
H748 C763 0.959 . S
H749 C763 0.961 . S
H750 C764 0.960 . S
H751 C764 0.961 . S
H752 C764 0.959 . S
H753 C767 0.929 . S
H754 C768 0.931 . S
H755 C770 0.930 . S
C756 H744 0.930 . S
C756 C757 1.399 . S
C756 C761 1.399 . S
C757 C756 1.399 . S
C757 C758 1.376 . S
C758 H745 0.930 . S
C758 C757 1.376 . S
C758 C759 1.388 . S
C759 H746 0.930 . S
C759 C758 1.388 . S
C759 C760 1.390 . S
C760 C759 1.390 . S
C760 C761 1.394 . S
C760 C766 1.465 . S
C761 C756 1.399 . S
C761 C760 1.394 . S
C761 C762 1.516 . S
C762 C761 1.516 . S
C762 C763 1.502 . S
C762 C764 1.561 . S
C762 C765 1.526 . S
C763 H747 0.959 . S
C763 H748 0.959 . S
C763 H749 0.961 . S
C763 C762 1.502 . S
C764 H750 0.960 . S
C764 H751 0.961 . S
C764 H752 0.959 . S
C764 C762 1.561 . S
C765 C762 1.526 . S
C765 C766 1.396 . S
C765 C770 1.390 . S
C766 C760 1.465 . S
C766 C765 1.396 . S
C766 C767 1.399 . S
C767 H753 0.929 . S
C767 C766 1.399 . S
C767 C768 1.385 . S
C768 H754 0.931 . S
C768 C767 1.385 . S
C768 C769 1.389 . S
C769 C768 1.389 . S
C769 C770 1.387 . S
C770 H755 0.930 . S
C770 C765 1.390 . S
C770 C769 1.387 . S
H771 C783 0.930 . S
H772 C785 0.930 . S
H773 C786 0.930 . S
H774 C790 0.959 . S
H775 C790 0.959 . S
H776 C790 0.961 . S
H777 C791 0.960 . S
H778 C791 0.961 . S
H779 C791 0.959 . S
H780 C794 0.929 . S
H781 C795 0.931 . S
H782 C797 0.930 . S
C783 H771 0.930 . S
C783 C784 1.399 . S
C783 C788 1.399 . S
C784 C783 1.399 . S
C784 C785 1.376 . S
C785 H772 0.930 . S
C785 C784 1.376 . S
C785 C786 1.388 . S
C786 H773 0.930 . S
C786 C785 1.388 . S
C786 C787 1.390 . S
C787 C786 1.390 . S
C787 C788 1.394 . S
C787 C793 1.465 . S
C788 C783 1.399 . S
C788 C787 1.394 . S
C788 C789 1.516 . S
C789 C788 1.516 . S
C789 C790 1.502 . S
C789 C791 1.561 . S
C789 C792 1.526 . S
C790 H774 0.959 . S
C790 H775 0.959 . S
C790 H776 0.961 . S
C790 C789 1.502 . S
C791 H777 0.960 . S
C791 H778 0.961 . S
C791 H779 0.959 . S
C791 C789 1.561 . S
C792 C789 1.526 . S
C792 C793 1.396 . S
C792 C797 1.390 . S
C793 C787 1.465 . S
C793 C792 1.396 . S
C793 C794 1.399 . S
C794 H780 0.929 . S
C794 C793 1.399 . S
C794 C795 1.385 . S
C795 H781 0.931 . S
C795 C794 1.385 . S
C795 C796 1.389 . S
C796 C795 1.389 . S
C796 C797 1.387 . S
C797 H782 0.930 . S
C797 C792 1.390 . S
C797 C796 1.387 . S
H798 C810 0.930 . S
H799 C812 0.930 . S
H800 C813 0.930 . S
H801 C817 0.959 . S
H802 C817 0.959 . S
H803 C817 0.961 . S
H804 C818 0.960 . S
H805 C818 0.961 . S
H806 C818 0.959 . S
H807 C821 0.929 . S
H808 C822 0.931 . S
H809 C824 0.930 . S
C810 H798 0.930 . S
C810 C811 1.399 . S
C810 C815 1.399 . S
C811 C810 1.399 . S
C811 C812 1.376 . S
C812 H799 0.930 . S
C812 C811 1.376 . S
C812 C813 1.388 . S
C813 H800 0.930 . S
C813 C812 1.388 . S
C813 C814 1.390 . S
C814 C813 1.390 . S
C814 C815 1.394 . S
C814 C820 1.465 . S
C815 C810 1.399 . S
C815 C814 1.394 . S
C815 C816 1.516 . S
C816 C815 1.516 . S
C816 C817 1.502 . S
C816 C818 1.561 . S
C816 C819 1.526 . S
C817 H801 0.959 . S
C817 H802 0.959 . S
C817 H803 0.961 . S
C817 C816 1.502 . S
C818 H804 0.960 . S
C818 H805 0.961 . S
C818 H806 0.959 . S
C818 C816 1.561 . S
C819 C816 1.526 . S
C819 C820 1.396 . S
C819 C824 1.390 . S
C820 C814 1.465 . S
C820 C819 1.396 . S
C820 C821 1.399 . S
C821 H807 0.929 . S
C821 C820 1.399 . S
C821 C822 1.385 . S
C822 H808 0.931 . S
C822 C821 1.385 . S
C822 C823 1.389 . S
C823 C822 1.389 . S
C823 C824 1.387 . S
C824 H809 0.930 . S
C824 C819 1.390 . S
C824 C823 1.387 . S
H825 C837 0.930 . S
H826 C839 0.930 . S
H827 C840 0.930 . S
H828 C844 0.959 . S
H829 C844 0.959 . S
H830 C844 0.961 . S
H831 C845 0.960 . S
H832 C845 0.961 . S
H833 C845 0.959 . S
H834 C848 0.929 . S
H835 C849 0.931 . S
H836 C851 0.930 . S
C837 H825 0.930 . S
C837 C838 1.399 . S
C837 C842 1.399 . S
C838 C837 1.399 . S
C838 C839 1.376 . S
C839 H826 0.930 . S
C839 C838 1.376 . S
C839 C840 1.388 . S
C840 H827 0.930 . S
C840 C839 1.388 . S
C840 C841 1.390 . S
C841 C840 1.390 . S
C841 C842 1.394 . S
C841 C847 1.465 . S
C842 C837 1.399 . S
C842 C841 1.394 . S
C842 C843 1.516 . S
C843 C842 1.516 . S
C843 C844 1.502 . S
C843 C845 1.561 . S
C843 C846 1.526 . S
C844 H828 0.959 . S
C844 H829 0.959 . S
C844 H830 0.961 . S
C844 C843 1.502 . S
C845 H831 0.960 . S
C845 H832 0.961 . S
C845 H833 0.959 . S
C845 C843 1.561 . S
C846 C843 1.526 . S
C846 C847 1.396 . S
C846 C851 1.390 . S
C847 C841 1.465 . S
C847 C846 1.396 . S
C847 C848 1.399 . S
C848 H834 0.929 . S
C848 C847 1.399 . S
C848 C849 1.385 . S
C849 H835 0.931 . S
C849 C848 1.385 . S
C849 C850 1.389 . S
C850 C849 1.389 . S
C850 C851 1.387 . S
C851 H836 0.930 . S
C851 C846 1.390 . S
C851 C850 1.387 . S
H852 C864 0.930 . S
H853 C866 0.930 . S
H854 C867 0.930 . S
H855 C871 0.959 . S
H856 C871 0.959 . S
H857 C871 0.961 . S
H858 C872 0.960 . S
H859 C872 0.961 . S
H860 C872 0.959 . S
H861 C875 0.929 . S
H862 C876 0.931 . S
H863 C878 0.930 . S
C864 H852 0.930 . S
C864 C865 1.399 . S
C864 C869 1.399 . S
C865 C864 1.399 . S
C865 C866 1.376 . S
C866 H853 0.930 . S
C866 C865 1.376 . S
C866 C867 1.388 . S
C867 H854 0.930 . S
C867 C866 1.388 . S
C867 C868 1.390 . S
C868 C867 1.390 . S
C868 C869 1.394 . S
C868 C874 1.465 . S
C869 C864 1.399 . S
C869 C868 1.394 . S
C869 C870 1.516 . S
C870 C869 1.516 . S
C870 C871 1.502 . S
C870 C872 1.561 . S
C870 C873 1.526 . S
C871 H855 0.959 . S
C871 H856 0.959 . S
C871 H857 0.961 . S
C871 C870 1.502 . S
C872 H858 0.960 . S
C872 H859 0.961 . S
C872 H860 0.959 . S
C872 C870 1.561 . S
C873 C870 1.526 . S
C873 C874 1.396 . S
C873 C878 1.390 . S
C874 C868 1.465 . S
C874 C873 1.396 . S
C874 C875 1.399 . S
C875 H861 0.929 . S
C875 C874 1.399 . S
C875 C876 1.385 . S
C876 H862 0.931 . S
C876 C875 1.385 . S
C876 C877 1.389 . S
C877 C876 1.389 . S
C877 C878 1.387 . S
C878 H863 0.930 . S
C878 C873 1.390 . S
C878 C877 1.387 . S
H879 C891 0.930 . S
H880 C893 0.930 . S
H881 C894 0.930 . S
H882 C898 0.959 . S
H883 C898 0.959 . S
H884 C898 0.961 . S
H885 C899 0.960 . S
H886 C899 0.961 . S
H887 C899 0.959 . S
H888 C902 0.929 . S
H889 C903 0.931 . S
H890 C905 0.930 . S
C891 H879 0.930 . S
C891 C892 1.399 . S
C891 C896 1.399 . S
C892 C891 1.399 . S
C892 C893 1.376 . S
C893 H880 0.930 . S
C893 C892 1.376 . S
C893 C894 1.388 . S
C894 H881 0.930 . S
C894 C893 1.388 . S
C894 C895 1.390 . S
C895 C894 1.390 . S
C895 C896 1.394 . S
C895 C901 1.465 . S
C896 C891 1.399 . S
C896 C895 1.394 . S
C896 C897 1.516 . S
C897 C896 1.516 . S
C897 C898 1.502 . S
C897 C899 1.561 . S
C897 C900 1.526 . S
C898 H882 0.959 . S
C898 H883 0.959 . S
C898 H884 0.961 . S
C898 C897 1.502 . S
C899 H885 0.960 . S
C899 H886 0.961 . S
C899 H887 0.959 . S
C899 C897 1.561 . S
C900 C897 1.526 . S
C900 C901 1.396 . S
C900 C905 1.390 . S
C901 C895 1.465 . S
C901 C900 1.396 . S
C901 C902 1.399 . S
C902 H888 0.929 . S
C902 C901 1.399 . S
C902 C903 1.385 . S
C903 H889 0.931 . S
C903 C902 1.385 . S
C903 C904 1.389 . S
C904 C903 1.389 . S
C904 C905 1.387 . S
C905 H890 0.930 . S
C905 C900 1.390 . S
C905 C904 1.387 . S
H906 C918 0.930 . S
H907 C920 0.930 . S
H908 C921 0.930 . S
H909 C925 0.959 . S
H910 C925 0.959 . S
H911 C925 0.961 . S
H912 C926 0.960 . S
H913 C926 0.961 . S
H914 C926 0.959 . S
H915 C929 0.929 . S
H916 C930 0.931 . S
H917 C932 0.930 . S
C918 H906 0.930 . S
C918 C919 1.399 . S
C918 C923 1.399 . S
C919 C918 1.399 . S
C919 C920 1.376 . S
C920 H907 0.930 . S
C920 C919 1.376 . S
C920 C921 1.388 . S
C921 H908 0.930 . S
C921 C920 1.388 . S
C921 C922 1.390 . S
C922 C921 1.390 . S
C922 C923 1.394 . S
C922 C928 1.465 . S
C923 C918 1.399 . S
C923 C922 1.394 . S
C923 C924 1.516 . S
C924 C923 1.516 . S
C924 C925 1.502 . S
C924 C926 1.561 . S
C924 C927 1.526 . S
C925 H909 0.959 . S
C925 H910 0.959 . S
C925 H911 0.961 . S
C925 C924 1.502 . S
C926 H912 0.960 . S
C926 H913 0.961 . S
C926 H914 0.959 . S
C926 C924 1.561 . S
C927 C924 1.526 . S
C927 C928 1.396 . S
C927 C932 1.390 . S
C928 C922 1.465 . S
C928 C927 1.396 . S
C928 C929 1.399 . S
C929 H915 0.929 . S
C929 C928 1.399 . S
C929 C930 1.385 . S
C930 H916 0.931 . S
C930 C929 1.385 . S
C930 C931 1.389 . S
C931 C930 1.389 . S
C931 C932 1.387 . S
C932 H917 0.930 . S
C932 C927 1.390 . S
C932 C931 1.387 . S
H933 C945 0.930 . S
H934 C947 0.930 . S
H935 C948 0.930 . S
H936 C952 0.959 . S
H937 C952 0.959 . S
H938 C952 0.961 . S
H939 C953 0.960 . S
H940 C953 0.961 . S
H941 C953 0.959 . S
H942 C956 0.929 . S
H943 C957 0.931 . S
H944 C959 0.930 . S
C945 H933 0.930 . S
C945 C946 1.399 . S
C945 C950 1.399 . S
C946 C945 1.399 . S
C946 C947 1.376 . S
C947 H934 0.930 . S
C947 C946 1.376 . S
C947 C948 1.388 . S
C948 H935 0.930 . S
C948 C947 1.388 . S
C948 C949 1.390 . S
C949 C948 1.390 . S
C949 C950 1.394 . S
C949 C955 1.465 . S
C950 C945 1.399 . S
C950 C949 1.394 . S
C950 C951 1.516 . S
C951 C950 1.516 . S
C951 C952 1.502 . S
C951 C953 1.561 . S
C951 C954 1.526 . S
C952 H936 0.959 . S
C952 H937 0.959 . S
C952 H938 0.961 . S
C952 C951 1.502 . S
C953 H939 0.960 . S
C953 H940 0.961 . S
C953 H941 0.959 . S
C953 C951 1.561 . S
C954 C951 1.526 . S
C954 C955 1.396 . S
C954 C959 1.390 . S
C955 C949 1.465 . S
C955 C954 1.396 . S
C955 C956 1.399 . S
C956 H942 0.929 . S
C956 C955 1.399 . S
C956 C957 1.385 . S
C957 H943 0.931 . S
C957 C956 1.385 . S
C957 C958 1.389 . S
C958 C957 1.389 . S
C958 C959 1.387 . S
C959 H944 0.930 . S
C959 C954 1.390 . S
C959 C958 1.387 . S
H960 C972 0.930 . S
H961 C974 0.930 . S
H962 C975 0.930 . S
H963 C979 0.962 . S
H964 C979 0.980 . S
H965 C979 0.938 1_554 S
H966 C980 0.956 1_554 S
H967 C980 0.964 . S
H968 C980 0.959 . S
H969 C983 0.929 . S
H970 C984 0.931 . S
H971 C986 0.930 . S
C972 H960 0.930 . S
C972 C973 1.399 . S
C972 C977 1.399 . S
C973 C972 1.399 . S
C973 C974 1.376 . S
C974 H961 0.930 . S
C974 C973 1.376 . S
C974 C975 1.388 . S
C975 H962 0.930 . S
C975 C974 1.388 . S
C975 C976 1.390 . S
C976 C975 1.390 . S
C976 C977 1.394 . S
C976 C982 1.465 1_554 S
C977 C972 1.399 . S
C977 C976 1.394 . S
C977 C978 1.516 1_554 S
C978 C977 1.516 1_556 S
C978 C979 1.502 . S
C978 C980 1.561 . S
C978 C981 1.526 . S
C979 H963 0.962 . S
C979 H964 0.980 . S
C979 H965 0.938 1_556 S
C979 C978 1.502 . S
C980 H966 0.956 1_556 S
C980 H967 0.964 . S
C980 H968 0.959 . S
C980 C978 1.561 . S
C981 C978 1.526 . S
C981 C982 1.396 . S
C981 C986 1.390 . S
C982 C976 1.465 1_556 S
C982 C981 1.396 . S
C982 C983 1.399 . S
C983 H969 0.929 . S
C983 C982 1.399 . S
C983 C984 1.385 . S
C984 H970 0.931 . S
C984 C983 1.385 . S
C984 C985 1.389 . S
C985 C984 1.389 . S
C985 C986 1.387 . S
C986 H971 0.930 . S
C986 C981 1.390 . S
C986 C985 1.387 . S
H987 C999 0.930 . S
H988 C1001 0.930 . S
H989 C1002 0.930 . S
H990 C1006 0.962 . S
H991 C1006 0.980 . S
H992 C1006 0.938 1_556 S
H993 C1007 0.956 1_556 S
H994 C1007 0.964 . S
H995 C1007 0.959 . S
H996 C1010 0.929 . S
H997 C1011 0.931 . S
H998 C1013 0.930 . S
C999 H987 0.930 . S
C999 C1000 1.399 . S
C999 C1004 1.399 . S
C1000 C999 1.399 . S
C1000 C1001 1.376 . S
C1001 H988 0.930 . S
C1001 C1000 1.376 . S
C1001 C1002 1.388 . S
C1002 H989 0.930 . S
C1002 C1001 1.388 . S
C1002 C1003 1.390 . S
C1003 C1002 1.390 . S
C1003 C1004 1.394 . S
C1003 C1009 1.465 1_556 S
C1004 C999 1.399 . S
C1004 C1003 1.394 . S
C1004 C1005 1.516 1_556 S
C1005 C1004 1.516 1_554 S
C1005 C1006 1.502 . S
C1005 C1007 1.561 . S
C1005 C1008 1.526 . S
C1006 H990 0.962 . S
C1006 H991 0.980 . S
C1006 H992 0.938 1_554 S
C1006 C1005 1.502 . S
C1007 H993 0.956 1_554 S
C1007 H994 0.964 . S
C1007 H995 0.959 . S
C1007 C1005 1.561 . S
C1008 C1005 1.526 . S
C1008 C1009 1.396 . S
C1008 C1013 1.390 . S
C1009 C1003 1.465 1_554 S
C1009 C1008 1.396 . S
C1009 C1010 1.399 . S
C1010 H996 0.929 . S
C1010 C1009 1.399 . S
C1010 C1011 1.385 . S
C1011 H997 0.931 . S
C1011 C1010 1.385 . S
C1011 C1012 1.389 . S
C1012 C1011 1.389 . S
C1012 C1013 1.387 . S
C1013 H998 0.930 . S
C1013 C1008 1.390 . S
C1013 C1012 1.387 . S
H1014 C1026 0.930 . S
H1015 C1028 0.930 . S
H1016 C1029 0.930 . S
H1017 C1033 0.962 . S
H1018 C1033 0.980 . S
H1019 C1033 0.938 1_556 S
H1020 C1034 0.956 1_556 S
H1021 C1034 0.964 . S
H1022 C1034 0.959 . S
H1023 C1037 0.929 . S
H1024 C1038 0.931 . S
H1025 C1040 0.930 . S
C1026 H1014 0.930 . S
C1026 C1027 1.399 . S
C1026 C1031 1.399 . S
C1027 C1026 1.399 . S
C1027 C1028 1.376 . S
C1028 H1015 0.930 . S
C1028 C1027 1.376 . S
C1028 C1029 1.388 . S
C1029 H1016 0.930 . S
C1029 C1028 1.388 . S
C1029 C1030 1.390 . S
C1030 C1029 1.390 . S
C1030 C1031 1.394 . S
C1030 C1036 1.465 1_556 S
C1031 C1026 1.399 . S
C1031 C1030 1.394 . S
C1031 C1032 1.516 1_556 S
C1032 C1031 1.516 1_554 S
C1032 C1033 1.502 . S
C1032 C1034 1.561 . S
C1032 C1035 1.526 . S
C1033 H1017 0.962 . S
C1033 H1018 0.980 . S
C1033 H1019 0.938 1_554 S
C1033 C1032 1.502 . S
C1034 H1020 0.956 1_554 S
C1034 H1021 0.964 . S
C1034 H1022 0.959 . S
C1034 C1032 1.561 . S
C1035 C1032 1.526 . S
C1035 C1036 1.396 . S
C1035 C1040 1.390 . S
C1036 C1030 1.465 1_554 S
C1036 C1035 1.396 . S
C1036 C1037 1.399 . S
C1037 H1023 0.929 . S
C1037 C1036 1.399 . S
C1037 C1038 1.385 . S
C1038 H1024 0.931 . S
C1038 C1037 1.385 . S
C1038 C1039 1.389 . S
C1039 C1038 1.389 . S
C1039 C1040 1.387 . S
C1040 H1025 0.930 . S
C1040 C1035 1.390 . S
C1040 C1039 1.387 . S
H1041 C1053 0.930 . S
H1042 C1055 0.930 . S
H1043 C1056 0.930 . S
H1044 C1060 0.962 . S
H1045 C1060 0.980 . S
H1046 C1060 0.938 1_554 S
H1047 C1061 0.956 1_554 S
H1048 C1061 0.964 . S
H1049 C1061 0.959 . S
H1050 C1064 0.929 . S
H1051 C1065 0.931 . S
H1052 C1067 0.930 . S
C1053 H1041 0.930 . S
C1053 C1054 1.399 . S
C1053 C1058 1.399 . S
C1054 C1053 1.399 . S
C1054 C1055 1.376 . S
C1055 H1042 0.930 . S
C1055 C1054 1.376 . S
C1055 C1056 1.388 . S
C1056 H1043 0.930 . S
C1056 C1055 1.388 . S
C1056 C1057 1.390 . S
C1057 C1056 1.390 . S
C1057 C1058 1.394 . S
C1057 C1063 1.465 1_554 S
C1058 C1053 1.399 . S
C1058 C1057 1.394 . S
C1058 C1059 1.516 1_554 S
C1059 C1058 1.516 1_556 S
C1059 C1060 1.502 . S
C1059 C1061 1.561 . S
C1059 C1062 1.526 . S
C1060 H1044 0.962 . S
C1060 H1045 0.980 . S
C1060 H1046 0.938 1_556 S
C1060 C1059 1.502 . S
C1061 H1047 0.956 1_556 S
C1061 H1048 0.964 . S
C1061 H1049 0.959 . S
C1061 C1059 1.561 . S
C1062 C1059 1.526 . S
C1062 C1063 1.396 . S
C1062 C1067 1.390 . S
C1063 C1057 1.465 1_556 S
C1063 C1062 1.396 . S
C1063 C1064 1.399 . S
C1064 H1050 0.929 . S
C1064 C1063 1.399 . S
C1064 C1065 1.385 . S
C1065 H1051 0.931 . S
C1065 C1064 1.385 . S
C1065 C1066 1.389 . S
C1066 C1065 1.389 . S
C1066 C1067 1.387 . S
C1067 H1052 0.930 . S
C1067 C1062 1.390 . S
C1067 C1066 1.387 . S
H1068 C1080 0.930 . S
H1069 C1082 0.930 . S
H1070 C1083 0.930 . S
H1071 C1087 0.962 . S
H1072 C1087 0.980 . S
H1073 C1087 0.938 1_554 S
H1074 C1088 0.956 1_554 S
H1075 C1088 0.964 . S
H1076 C1088 0.959 . S
H1077 C1091 0.929 . S
H1078 C1092 0.931 . S
H1079 C1094 0.930 . S
C1080 H1068 0.930 . S
C1080 C1081 1.399 . S
C1080 C1085 1.399 . S
C1081 C1080 1.399 . S
C1081 C1082 1.376 . S
C1082 H1069 0.930 . S
C1082 C1081 1.376 . S
C1082 C1083 1.388 . S
C1083 H1070 0.930 . S
C1083 C1082 1.388 . S
C1083 C1084 1.390 . S
C1084 C1083 1.390 . S
C1084 C1085 1.394 . S
C1084 C1090 1.465 1_554 S
C1085 C1080 1.399 . S
C1085 C1084 1.394 . S
C1085 C1086 1.516 1_554 S
C1086 C1085 1.516 1_556 S
C1086 C1087 1.502 . S
C1086 C1088 1.561 . S
C1086 C1089 1.526 . S
C1087 H1071 0.962 . S
C1087 H1072 0.980 . S
C1087 H1073 0.938 1_556 S
C1087 C1086 1.502 . S
C1088 H1074 0.956 1_556 S
C1088 H1075 0.964 . S
C1088 H1076 0.959 . S
C1088 C1086 1.561 . S
C1089 C1086 1.526 . S
C1089 C1090 1.396 . S
C1089 C1094 1.390 . S
C1090 C1084 1.465 1_556 S
C1090 C1089 1.396 . S
C1090 C1091 1.399 . S
C1091 H1077 0.929 . S
C1091 C1090 1.399 . S
C1091 C1092 1.385 . S
C1092 H1078 0.931 . S
C1092 C1091 1.385 . S
C1092 C1093 1.389 . S
C1093 C1092 1.389 . S
C1093 C1094 1.387 . S
C1094 H1079 0.930 . S
C1094 C1089 1.390 . S
C1094 C1093 1.387 . S
H1095 C1107 0.930 . S
H1096 C1109 0.930 . S
H1097 C1110 0.930 . S
H1098 C1114 0.962 . S
H1099 C1114 0.980 . S
H1100 C1114 0.938 1_556 S
H1101 C1115 0.956 1_556 S
H1102 C1115 0.964 . S
H1103 C1115 0.959 . S
H1104 C1118 0.929 . S
H1105 C1119 0.931 . S
H1106 C1121 0.930 . S
C1107 H1095 0.930 . S
C1107 C1108 1.399 . S
C1107 C1112 1.399 . S
C1108 C1107 1.399 . S
C1108 C1109 1.376 . S
C1109 H1096 0.930 . S
C1109 C1108 1.376 . S
C1109 C1110 1.388 . S
C1110 H1097 0.930 . S
C1110 C1109 1.388 . S
C1110 C1111 1.390 . S
C1111 C1110 1.390 . S
C1111 C1112 1.394 . S
C1111 C1117 1.465 1_556 S
C1112 C1107 1.399 . S
C1112 C1111 1.394 . S
C1112 C1113 1.516 1_556 S
C1113 C1112 1.516 1_554 S
C1113 C1114 1.502 . S
C1113 C1115 1.561 . S
C1113 C1116 1.526 . S
C1114 H1098 0.962 . S
C1114 H1099 0.980 . S
C1114 H1100 0.938 1_554 S
C1114 C1113 1.502 . S
C1115 H1101 0.956 1_554 S
C1115 H1102 0.964 . S
C1115 H1103 0.959 . S
C1115 C1113 1.561 . S
C1116 C1113 1.526 . S
C1116 C1117 1.396 . S
C1116 C1121 1.390 . S
C1117 C1111 1.465 1_554 S
C1117 C1116 1.396 . S
C1117 C1118 1.399 . S
C1118 H1104 0.929 . S
C1118 C1117 1.399 . S
C1118 C1119 1.385 . S
C1119 H1105 0.931 . S
C1119 C1118 1.385 . S
C1119 C1120 1.389 . S
C1120 C1119 1.389 . S
C1120 C1121 1.387 . S
C1121 H1106 0.930 . S
C1121 C1116 1.390 . S
C1121 C1120 1.387 . S
H1122 C1134 0.930 . S
H1123 C1136 0.930 . S
H1124 C1137 0.930 . S
H1125 C1141 0.959 . S
H1126 C1141 0.959 . S
H1127 C1141 0.961 . S
H1128 C1142 0.960 . S
H1129 C1142 0.961 . S
H1130 C1142 0.959 . S
H1131 C1145 0.929 . S
H1132 C1146 0.931 . S
H1133 C1148 0.930 . S
C1134 H1122 0.930 . S
C1134 C1135 1.399 . S
C1134 C1139 1.399 . S
C1135 C1134 1.399 . S
C1135 C1136 1.376 . S
C1136 H1123 0.930 . S
C1136 C1135 1.376 . S
C1136 C1137 1.388 . S
C1137 H1124 0.930 . S
C1137 C1136 1.388 . S
C1137 C1138 1.390 . S
C1138 C1137 1.390 . S
C1138 C1139 1.394 . S
C1138 C1144 1.465 . S
C1139 C1134 1.399 . S
C1139 C1138 1.394 . S
C1139 C1140 1.516 . S
C1140 C1139 1.516 . S
C1140 C1141 1.502 . S
C1140 C1142 1.561 . S
C1140 C1143 1.526 . S
C1141 H1125 0.959 . S
C1141 H1126 0.959 . S
C1141 H1127 0.961 . S
C1141 C1140 1.502 . S
C1142 H1128 0.960 . S
C1142 H1129 0.961 . S
C1142 H1130 0.959 . S
C1142 C1140 1.561 . S
C1143 C1140 1.526 . S
C1143 C1144 1.396 . S
C1143 C1148 1.390 . S
C1144 C1138 1.465 . S
C1144 C1143 1.396 . S
C1144 C1145 1.399 . S
C1145 H1131 0.929 . S
C1145 C1144 1.399 . S
C1145 C1146 1.385 . S
C1146 H1132 0.931 . S
C1146 C1145 1.385 . S
C1146 C1147 1.389 . S
C1147 C1146 1.389 . S
C1147 C1148 1.387 . S
C1148 H1133 0.930 . S
C1148 C1143 1.390 . S
C1148 C1147 1.387 . S
H1149 C1161 0.930 . S
H1150 C1163 0.930 . S
H1151 C1164 0.930 . S
H1152 C1168 0.959 . S
H1153 C1168 0.959 . S
H1154 C1168 0.961 . S
H1155 C1169 0.960 . S
H1156 C1169 0.961 . S
H1157 C1169 0.959 . S
H1158 C1172 0.929 . S
H1159 C1173 0.931 . S
H1160 C1175 0.930 . S
C1161 H1149 0.930 . S
C1161 C1162 1.399 . S
C1161 C1166 1.399 . S
C1162 C1161 1.399 . S
C1162 C1163 1.376 . S
C1163 H1150 0.930 . S
C1163 C1162 1.376 . S
C1163 C1164 1.388 . S
C1164 H1151 0.930 . S
C1164 C1163 1.388 . S
C1164 C1165 1.390 . S
C1165 C1164 1.390 . S
C1165 C1166 1.394 . S
C1165 C1171 1.465 . S
C1166 C1161 1.399 . S
C1166 C1165 1.394 . S
C1166 C1167 1.516 . S
C1167 C1166 1.516 . S
C1167 C1168 1.502 . S
C1167 C1169 1.561 . S
C1167 C1170 1.526 . S
C1168 H1152 0.959 . S
C1168 H1153 0.959 . S
C1168 H1154 0.961 . S
C1168 C1167 1.502 . S
C1169 H1155 0.960 . S
C1169 H1156 0.961 . S
C1169 H1157 0.959 . S
C1169 C1167 1.561 . S
C1170 C1167 1.526 . S
C1170 C1171 1.396 . S
C1170 C1175 1.390 . S
C1171 C1165 1.465 . S
C1171 C1170 1.396 . S
C1171 C1172 1.399 . S
C1172 H1158 0.929 . S
C1172 C1171 1.399 . S
C1172 C1173 1.385 . S
C1173 H1159 0.931 . S
C1173 C1172 1.385 . S
C1173 C1174 1.389 . S
C1174 C1173 1.389 . S
C1174 C1175 1.387 . S
C1175 H1160 0.930 . S
C1175 C1170 1.390 . S
C1175 C1174 1.387 . S
H1176 C1188 0.930 . S
H1177 C1190 0.930 . S
H1178 C1191 0.930 . S
H1179 C1195 0.959 . S
H1180 C1195 0.959 . S
H1181 C1195 0.961 . S
H1182 C1196 0.960 . S
H1183 C1196 0.961 . S
H1184 C1196 0.959 . S
H1185 C1199 0.929 . S
H1186 C1200 0.931 . S
H1187 C1202 0.930 . S
C1188 H1176 0.930 . S
C1188 C1189 1.399 . S
C1188 C1193 1.399 . S
C1189 C1188 1.399 . S
C1189 C1190 1.376 . S
C1190 H1177 0.930 . S
C1190 C1189 1.376 . S
C1190 C1191 1.388 . S
C1191 H1178 0.930 . S
C1191 C1190 1.388 . S
C1191 C1192 1.390 . S
C1192 C1191 1.390 . S
C1192 C1193 1.394 . S
C1192 C1198 1.465 . S
C1193 C1188 1.399 . S
C1193 C1192 1.394 . S
C1193 C1194 1.516 . S
C1194 C1193 1.516 . S
C1194 C1195 1.502 . S
C1194 C1196 1.561 . S
C1194 C1197 1.526 . S
C1195 H1179 0.959 . S
C1195 H1180 0.959 . S
C1195 H1181 0.961 . S
C1195 C1194 1.502 . S
C1196 H1182 0.960 . S
C1196 H1183 0.961 . S
C1196 H1184 0.959 . S
C1196 C1194 1.561 . S
C1197 C1194 1.526 . S
C1197 C1198 1.396 . S
C1197 C1202 1.390 . S
C1198 C1192 1.465 . S
C1198 C1197 1.396 . S
C1198 C1199 1.399 . S
C1199 H1185 0.929 . S
C1199 C1198 1.399 . S
C1199 C1200 1.385 . S
C1200 H1186 0.931 . S
C1200 C1199 1.385 . S
C1200 C1201 1.389 . S
C1201 C1200 1.389 . S
C1201 C1202 1.387 . S
C1202 H1187 0.930 . S
C1202 C1197 1.390 . S
C1202 C1201 1.387 . S
H1203 C1215 0.930 . S
H1204 C1217 0.930 . S
H1205 C1218 0.930 . S
H1206 C1222 0.959 . S
H1207 C1222 0.959 . S
H1208 C1222 0.961 . S
H1209 C1223 0.960 . S
H1210 C1223 0.961 . S
H1211 C1223 0.959 . S
H1212 C1226 0.929 . S
H1213 C1227 0.931 . S
H1214 C1229 0.930 . S
C1215 H1203 0.930 . S
C1215 C1216 1.399 . S
C1215 C1220 1.399 . S
C1216 C1215 1.399 . S
C1216 C1217 1.376 . S
C1217 H1204 0.930 . S
C1217 C1216 1.376 . S
C1217 C1218 1.388 . S
C1218 H1205 0.930 . S
C1218 C1217 1.388 . S
C1218 C1219 1.390 . S
C1219 C1218 1.390 . S
C1219 C1220 1.394 . S
C1219 C1225 1.465 . S
C1220 C1215 1.399 . S
C1220 C1219 1.394 . S
C1220 C1221 1.516 . S
C1221 C1220 1.516 . S
C1221 C1222 1.502 . S
C1221 C1223 1.561 . S
C1221 C1224 1.526 . S
C1222 H1206 0.959 . S
C1222 H1207 0.959 . S
C1222 H1208 0.961 . S
C1222 C1221 1.502 . S
C1223 H1209 0.960 . S
C1223 H1210 0.961 . S
C1223 H1211 0.959 . S
C1223 C1221 1.561 . S
C1224 C1221 1.526 . S
C1224 C1225 1.396 . S
C1224 C1229 1.390 . S
C1225 C1219 1.465 . S
C1225 C1224 1.396 . S
C1225 C1226 1.399 . S
C1226 H1212 0.929 . S
C1226 C1225 1.399 . S
C1226 C1227 1.385 . S
C1227 H1213 0.931 . S
C1227 C1226 1.385 . S
C1227 C1228 1.389 . S
C1228 C1227 1.389 . S
C1228 C1229 1.387 . S
C1229 H1214 0.930 . S
C1229 C1224 1.390 . S
C1229 C1228 1.387 . S
H1230 C1242 0.930 . S
H1231 C1244 0.930 . S
H1232 C1245 0.930 . S
H1233 C1249 0.959 . S
H1234 C1249 0.959 . S
H1235 C1249 0.961 . S
H1236 C1250 0.960 . S
H1237 C1250 0.961 . S
H1238 C1250 0.959 . S
H1239 C1253 0.929 . S
H1240 C1254 0.931 . S
H1241 C1256 0.930 . S
C1242 H1230 0.930 . S
C1242 C1243 1.399 . S
C1242 C1247 1.399 . S
C1243 C1242 1.399 . S
C1243 C1244 1.376 . S
C1244 H1231 0.930 . S
C1244 C1243 1.376 . S
C1244 C1245 1.388 . S
C1245 H1232 0.930 . S
C1245 C1244 1.388 . S
C1245 C1246 1.390 . S
C1246 C1245 1.390 . S
C1246 C1247 1.394 . S
C1246 C1252 1.465 . S
C1247 C1242 1.399 . S
C1247 C1246 1.394 . S
C1247 C1248 1.516 . S
C1248 C1247 1.516 . S
C1248 C1249 1.502 . S
C1248 C1250 1.561 . S
C1248 C1251 1.526 . S
C1249 H1233 0.959 . S
C1249 H1234 0.959 . S
C1249 H1235 0.961 . S
C1249 C1248 1.502 . S
C1250 H1236 0.960 . S
C1250 H1237 0.961 . S
C1250 H1238 0.959 . S
C1250 C1248 1.561 . S
C1251 C1248 1.526 . S
C1251 C1252 1.396 . S
C1251 C1256 1.390 . S
C1252 C1246 1.465 . S
C1252 C1251 1.396 . S
C1252 C1253 1.399 . S
C1253 H1239 0.929 . S
C1253 C1252 1.399 . S
C1253 C1254 1.385 . S
C1254 H1240 0.931 . S
C1254 C1253 1.385 . S
C1254 C1255 1.389 . S
C1255 C1254 1.389 . S
C1255 C1256 1.387 . S
C1256 H1241 0.930 . S
C1256 C1251 1.390 . S
C1256 C1255 1.387 . S
H1257 C1269 0.930 . S
H1258 C1271 0.930 . S
H1259 C1272 0.930 . S
H1260 C1276 0.959 . S
H1261 C1276 0.959 . S
H1262 C1276 0.961 . S
H1263 C1277 0.960 . S
H1264 C1277 0.961 . S
H1265 C1277 0.959 . S
H1266 C1280 0.929 . S
H1267 C1281 0.931 . S
H1268 C1283 0.930 . S
C1269 H1257 0.930 . S
C1269 C1270 1.399 . S
C1269 C1274 1.399 . S
C1270 C1269 1.399 . S
C1270 C1271 1.376 . S
C1271 H1258 0.930 . S
C1271 C1270 1.376 . S
C1271 C1272 1.388 . S
C1272 H1259 0.930 . S
C1272 C1271 1.388 . S
C1272 C1273 1.390 . S
C1273 C1272 1.390 . S
C1273 C1274 1.394 . S
C1273 C1279 1.465 . S
C1274 C1269 1.399 . S
C1274 C1273 1.394 . S
C1274 C1275 1.516 . S
C1275 C1274 1.516 . S
C1275 C1276 1.502 . S
C1275 C1277 1.561 . S
C1275 C1278 1.526 . S
C1276 H1260 0.959 . S
C1276 H1261 0.959 . S
C1276 H1262 0.961 . S
C1276 C1275 1.502 . S
C1277 H1263 0.960 . S
C1277 H1264 0.961 . S
C1277 H1265 0.959 . S
C1277 C1275 1.561 . S
C1278 C1275 1.526 . S
C1278 C1279 1.396 . S
C1278 C1283 1.390 . S
C1279 C1273 1.465 . S
C1279 C1278 1.396 . S
C1279 C1280 1.399 . S
C1280 H1266 0.929 . S
C1280 C1279 1.399 . S
C1280 C1281 1.385 . S
C1281 H1267 0.931 . S
C1281 C1280 1.385 . S
C1281 C1282 1.389 . S
C1282 C1281 1.389 . S
C1282 C1283 1.387 . S
C1283 H1268 0.930 . S
C1283 C1278 1.390 . S
C1283 C1282 1.387 . S
H1284 C1296 0.930 . S
H1285 C1298 0.930 . S
H1286 C1299 0.930 . S
H1287 C1303 0.959 . S
H1288 C1303 0.959 . S
H1289 C1303 0.961 . S
H1290 C1304 0.960 . S
H1291 C1304 0.961 . S
H1292 C1304 0.959 . S
H1293 C1307 0.929 . S
H1294 C1308 0.931 . S
H1295 C1310 0.930 . S
C1296 H1284 0.930 . S
C1296 C1297 1.399 . S
C1296 C1301 1.399 . S
C1297 C1296 1.399 . S
C1297 C1298 1.376 . S
C1298 H1285 0.930 . S
C1298 C1297 1.376 . S
C1298 C1299 1.388 . S
C1299 H1286 0.930 . S
C1299 C1298 1.388 . S
C1299 C1300 1.390 . S
C1300 C1299 1.390 . S
C1300 C1301 1.394 . S
C1300 C1306 1.465 . S
C1301 C1296 1.399 . S
C1301 C1300 1.394 . S
C1301 C1302 1.516 . S
C1302 C1301 1.516 . S
C1302 C1303 1.502 . S
C1302 C1304 1.561 . S
C1302 C1305 1.526 . S
C1303 H1287 0.959 . S
C1303 H1288 0.959 . S
C1303 H1289 0.961 . S
C1303 C1302 1.502 . S
C1304 H1290 0.960 . S
C1304 H1291 0.961 . S
C1304 H1292 0.959 . S
C1304 C1302 1.561 . S
C1305 C1302 1.526 . S
C1305 C1306 1.396 . S
C1305 C1310 1.390 . S
C1306 C1300 1.465 . S
C1306 C1305 1.396 . S
C1306 C1307 1.399 . S
C1307 H1293 0.929 . S
C1307 C1306 1.399 . S
C1307 C1308 1.385 . S
C1308 H1294 0.931 . S
C1308 C1307 1.385 . S
C1308 C1309 1.389 . S
C1309 C1308 1.389 . S
C1309 C1310 1.387 . S
C1310 H1295 0.930 . S
C1310 C1305 1.390 . S
C1310 C1309 1.387 . S
H1311 C1323 0.930 . S
H1312 C1325 0.930 . S
H1313 C1326 0.930 . S
H1314 C1330 0.959 . S
H1315 C1330 0.959 . S
H1316 C1330 0.961 . S
H1317 C1331 0.960 . S
H1318 C1331 0.961 . S
H1319 C1331 0.959 . S
H1320 C1334 0.929 . S
H1321 C1335 0.931 . S
H1322 C1337 0.930 . S
C1323 H1311 0.930 . S
C1323 C1324 1.399 . S
C1323 C1328 1.399 . S
C1324 C1323 1.399 . S
C1324 C1325 1.376 . S
C1325 H1312 0.930 . S
C1325 C1324 1.376 . S
C1325 C1326 1.388 . S
C1326 H1313 0.930 . S
C1326 C1325 1.388 . S
C1326 C1327 1.390 . S
C1327 C1326 1.390 . S
C1327 C1328 1.394 . S
C1327 C1333 1.465 . S
C1328 C1323 1.399 . S
C1328 C1327 1.394 . S
C1328 C1329 1.516 . S
C1329 C1328 1.516 . S
C1329 C1330 1.502 . S
C1329 C1331 1.561 . S
C1329 C1332 1.526 . S
C1330 H1314 0.959 . S
C1330 H1315 0.959 . S
C1330 H1316 0.961 . S
C1330 C1329 1.502 . S
C1331 H1317 0.960 . S
C1331 H1318 0.961 . S
C1331 H1319 0.959 . S
C1331 C1329 1.561 . S
C1332 C1329 1.526 . S
C1332 C1333 1.396 . S
C1332 C1337 1.390 . S
C1333 C1327 1.465 . S
C1333 C1332 1.396 . S
C1333 C1334 1.399 . S
C1334 H1320 0.929 . S
C1334 C1333 1.399 . S
C1334 C1335 1.385 . S
C1335 H1321 0.931 . S
C1335 C1334 1.385 . S
C1335 C1336 1.389 . S
C1336 C1335 1.389 . S
C1336 C1337 1.387 . S
C1337 H1322 0.930 . S
C1337 C1332 1.390 . S
C1337 C1336 1.387 . S
H1338 C1350 0.930 . S
H1339 C1352 0.930 . S
H1340 C1353 0.930 . S
H1341 C1357 0.959 . S
H1342 C1357 0.959 . S
H1343 C1357 0.961 . S
H1344 C1358 0.960 . S
H1345 C1358 0.961 . S
H1346 C1358 0.959 . S
H1347 C1361 0.929 . S
H1348 C1362 0.931 . S
H1349 C1364 0.930 . S
C1350 H1338 0.930 . S
C1350 C1351 1.399 . S
C1350 C1355 1.399 . S
C1351 C1350 1.399 . S
C1351 C1352 1.376 . S
C1352 H1339 0.930 . S
C1352 C1351 1.376 . S
C1352 C1353 1.388 . S
C1353 H1340 0.930 . S
C1353 C1352 1.388 . S
C1353 C1354 1.390 . S
C1354 C1353 1.390 . S
C1354 C1355 1.394 . S
C1354 C1360 1.465 . S
C1355 C1350 1.399 . S
C1355 C1354 1.394 . S
C1355 C1356 1.516 . S
C1356 C1355 1.516 . S
C1356 C1357 1.502 . S
C1356 C1358 1.561 . S
C1356 C1359 1.526 . S
C1357 H1341 0.959 . S
C1357 H1342 0.959 . S
C1357 H1343 0.961 . S
C1357 C1356 1.502 . S
C1358 H1344 0.960 . S
C1358 H1345 0.961 . S
C1358 H1346 0.959 . S
C1358 C1356 1.561 . S
C1359 C1356 1.526 . S
C1359 C1360 1.396 . S
C1359 C1364 1.390 . S
C1360 C1354 1.465 . S
C1360 C1359 1.396 . S
C1360 C1361 1.399 . S
C1361 H1347 0.929 . S
C1361 C1360 1.399 . S
C1361 C1362 1.385 . S
C1362 H1348 0.931 . S
C1362 C1361 1.385 . S
C1362 C1363 1.389 . S
C1363 C1362 1.389 . S
C1363 C1364 1.387 . S
C1364 H1349 0.930 . S
C1364 C1359 1.390 . S
C1364 C1363 1.387 . S
H1365 C1377 0.930 . S
H1366 C1379 0.930 . S
H1367 C1380 0.930 . S
H1368 C1384 0.959 . S
H1369 C1384 0.959 . S
H1370 C1384 0.961 . S
H1371 C1385 0.960 . S
H1372 C1385 0.961 . S
H1373 C1385 0.959 . S
H1374 C1388 0.929 . S
H1375 C1389 0.931 . S
H1376 C1391 0.930 . S
C1377 H1365 0.930 . S
C1377 C1378 1.399 . S
C1377 C1382 1.399 . S
C1378 C1377 1.399 . S
C1378 C1379 1.376 . S
C1379 H1366 0.930 . S
C1379 C1378 1.376 . S
C1379 C1380 1.388 . S
C1380 H1367 0.930 . S
C1380 C1379 1.388 . S
C1380 C1381 1.390 . S
C1381 C1380 1.390 . S
C1381 C1382 1.394 . S
C1381 C1387 1.465 . S
C1382 C1377 1.399 . S
C1382 C1381 1.394 . S
C1382 C1383 1.516 . S
C1383 C1382 1.516 . S
C1383 C1384 1.502 . S
C1383 C1385 1.561 . S
C1383 C1386 1.526 . S
C1384 H1368 0.959 . S
C1384 H1369 0.959 . S
C1384 H1370 0.961 . S
C1384 C1383 1.502 . S
C1385 H1371 0.960 . S
C1385 H1372 0.961 . S
C1385 H1373 0.959 . S
C1385 C1383 1.561 . S
C1386 C1383 1.526 . S
C1386 C1387 1.396 . S
C1386 C1391 1.390 . S
C1387 C1381 1.465 . S
C1387 C1386 1.396 . S
C1387 C1388 1.399 . S
C1388 H1374 0.929 . S
C1388 C1387 1.399 . S
C1388 C1389 1.385 . S
C1389 H1375 0.931 . S
C1389 C1388 1.385 . S
C1389 C1390 1.389 . S
C1390 C1389 1.389 . S
C1390 C1391 1.387 . S
C1391 H1376 0.930 . S
C1391 C1386 1.390 . S
C1391 C1390 1.387 . S
H1392 C1404 0.930 . S
H1393 C1406 0.930 . S
H1394 C1407 0.930 . S
H1395 C1411 0.959 . S
H1396 C1411 0.959 . S
H1397 C1411 0.961 . S
H1398 C1412 0.960 . S
H1399 C1412 0.961 . S
H1400 C1412 0.959 . S
H1401 C1415 0.929 . S
H1402 C1416 0.931 . S
H1403 C1418 0.930 . S
C1404 H1392 0.930 . S
C1404 C1405 1.399 . S
C1404 C1409 1.399 . S
C1405 C1404 1.399 . S
C1405 C1406 1.376 . S
C1406 H1393 0.930 . S
C1406 C1405 1.376 . S
C1406 C1407 1.388 . S
C1407 H1394 0.930 . S
C1407 C1406 1.388 . S
C1407 C1408 1.390 . S
C1408 C1407 1.390 . S
C1408 C1409 1.394 . S
C1408 C1414 1.465 . S
C1409 C1404 1.399 . S
C1409 C1408 1.394 . S
C1409 C1410 1.516 . S
C1410 C1409 1.516 . S
C1410 C1411 1.502 . S
C1410 C1412 1.561 . S
C1410 C1413 1.526 . S
C1411 H1395 0.959 . S
C1411 H1396 0.959 . S
C1411 H1397 0.961 . S
C1411 C1410 1.502 . S
C1412 H1398 0.960 . S
C1412 H1399 0.961 . S
C1412 H1400 0.959 . S
C1412 C1410 1.561 . S
C1413 C1410 1.526 . S
C1413 C1414 1.396 . S
C1413 C1418 1.390 . S
C1414 C1408 1.465 . S
C1414 C1413 1.396 . S
C1414 C1415 1.399 . S
C1415 H1401 0.929 . S
C1415 C1414 1.399 . S
C1415 C1416 1.385 . S
C1416 H1402 0.931 . S
C1416 C1415 1.385 . S
C1416 C1417 1.389 . S
C1417 C1416 1.389 . S
C1417 C1418 1.387 . S
C1418 H1403 0.930 . S
C1418 C1413 1.390 . S
C1418 C1417 1.387 . S
H1419 C1431 0.930 . S
H1420 C1433 0.930 . S
H1421 C1434 0.930 . S
H1422 C1438 0.959 . S
H1423 C1438 0.959 . S
H1424 C1438 0.961 . S
H1425 C1439 0.960 . S
H1426 C1439 0.961 . S
H1427 C1439 0.959 . S
H1428 C1442 0.929 . S
H1429 C1443 0.931 . S
H1430 C1445 0.930 . S
C1431 H1419 0.930 . S
C1431 C1432 1.399 . S
C1431 C1436 1.399 . S
C1432 C1431 1.399 . S
C1432 C1433 1.376 . S
C1433 H1420 0.930 . S
C1433 C1432 1.376 . S
C1433 C1434 1.388 . S
C1434 H1421 0.930 . S
C1434 C1433 1.388 . S
C1434 C1435 1.390 . S
C1435 C1434 1.390 . S
C1435 C1436 1.394 . S
C1435 C1441 1.465 . S
C1436 C1431 1.399 . S
C1436 C1435 1.394 . S
C1436 C1437 1.516 . S
C1437 C1436 1.516 . S
C1437 C1438 1.502 . S
C1437 C1439 1.561 . S
C1437 C1440 1.526 . S
C1438 H1422 0.959 . S
C1438 H1423 0.959 . S
C1438 H1424 0.961 . S
C1438 C1437 1.502 . S
C1439 H1425 0.960 . S
C1439 H1426 0.961 . S
C1439 H1427 0.959 . S
C1439 C1437 1.561 . S
C1440 C1437 1.526 . S
C1440 C1441 1.396 . S
C1440 C1445 1.390 . S
C1441 C1435 1.465 . S
C1441 C1440 1.396 . S
C1441 C1442 1.399 . S
C1442 H1428 0.929 . S
C1442 C1441 1.399 . S
C1442 C1443 1.385 . S
C1443 H1429 0.931 . S
C1443 C1442 1.385 . S
C1443 C1444 1.389 . S
C1444 C1443 1.389 . S
C1444 C1445 1.387 . S
C1445 H1430 0.930 . S
C1445 C1440 1.390 . S
C1445 C1444 1.387 . S
H1446 C1458 0.930 . S
H1447 C1460 0.930 . S
H1448 C1461 0.930 . S
H1449 C1465 0.959 . S
H1450 C1465 0.959 . S
H1451 C1465 0.961 . S
H1452 C1466 0.960 . S
H1453 C1466 0.961 . S
H1454 C1466 0.959 . S
H1455 C1469 0.929 . S
H1456 C1470 0.931 . S
H1457 C1472 0.930 . S
C1458 H1446 0.930 . S
C1458 C1459 1.399 . S
C1458 C1463 1.399 . S
C1459 C1458 1.399 . S
C1459 C1460 1.376 . S
C1460 H1447 0.930 . S
C1460 C1459 1.376 . S
C1460 C1461 1.388 . S
C1461 H1448 0.930 . S
C1461 C1460 1.388 . S
C1461 C1462 1.390 . S
C1462 C1461 1.390 . S
C1462 C1463 1.394 . S
C1462 C1468 1.465 . S
C1463 C1458 1.399 . S
C1463 C1462 1.394 . S
C1463 C1464 1.516 . S
C1464 C1463 1.516 . S
C1464 C1465 1.502 . S
C1464 C1466 1.561 . S
C1464 C1467 1.526 . S
C1465 H1449 0.959 . S
C1465 H1450 0.959 . S
C1465 H1451 0.961 . S
C1465 C1464 1.502 . S
C1466 H1452 0.960 . S
C1466 H1453 0.961 . S
C1466 H1454 0.959 . S
C1466 C1464 1.561 . S
C1467 C1464 1.526 . S
C1467 C1468 1.396 . S
C1467 C1472 1.390 . S
C1468 C1462 1.465 . S
C1468 C1467 1.396 . S
C1468 C1469 1.399 . S
C1469 H1455 0.929 . S
C1469 C1468 1.399 . S
C1469 C1470 1.385 . S
C1470 H1456 0.931 . S
C1470 C1469 1.385 . S
C1470 C1471 1.389 . S
C1471 C1470 1.389 . S
C1471 C1472 1.387 . S
C1472 H1457 0.930 . S
C1472 C1467 1.390 . S
C1472 C1471 1.387 . S
H1473 C1485 0.930 . S
H1474 C1487 0.930 . S
H1475 C1488 0.930 . S
H1476 C1492 0.959 . S
H1477 C1492 0.959 . S
H1478 C1492 0.961 . S
H1479 C1493 0.960 . S
H1480 C1493 0.961 . S
H1481 C1493 0.959 . S
H1482 C1496 0.929 . S
H1483 C1497 0.931 . S
H1484 C1499 0.930 . S
C1485 H1473 0.930 . S
C1485 C1486 1.399 . S
C1485 C1490 1.399 . S
C1486 C1485 1.399 . S
C1486 C1487 1.376 . S
C1487 H1474 0.930 . S
C1487 C1486 1.376 . S
C1487 C1488 1.388 . S
C1488 H1475 0.930 . S
C1488 C1487 1.388 . S
C1488 C1489 1.390 . S
C1489 C1488 1.390 . S
C1489 C1490 1.394 . S
C1489 C1495 1.465 . S
C1490 C1485 1.399 . S
C1490 C1489 1.394 . S
C1490 C1491 1.516 . S
C1491 C1490 1.516 . S
C1491 C1492 1.502 . S
C1491 C1493 1.561 . S
C1491 C1494 1.526 . S
C1492 H1476 0.959 . S
C1492 H1477 0.959 . S
C1492 H1478 0.961 . S
C1492 C1491 1.502 . S
C1493 H1479 0.960 . S
C1493 H1480 0.961 . S
C1493 H1481 0.959 . S
C1493 C1491 1.561 . S
C1494 C1491 1.526 . S
C1494 C1495 1.396 . S
C1494 C1499 1.390 . S
C1495 C1489 1.465 . S
C1495 C1494 1.396 . S
C1495 C1496 1.399 . S
C1496 H1482 0.929 . S
C1496 C1495 1.399 . S
C1496 C1497 1.385 . S
C1497 H1483 0.931 . S
C1497 C1496 1.385 . S
C1497 C1498 1.389 . S
C1498 C1497 1.389 . S
C1498 C1499 1.387 . S
C1499 H1484 0.930 . S
C1499 C1494 1.390 . S
C1499 C1498 1.387 . S
H1500 C1512 0.930 . S
H1501 C1514 0.930 . S
H1502 C1515 0.930 . S
H1503 C1519 0.959 . S
H1504 C1519 0.959 . S
H1505 C1519 0.961 . S
H1506 C1520 0.960 . S
H1507 C1520 0.961 . S
H1508 C1520 0.959 . S
H1509 C1523 0.929 . S
H1510 C1524 0.931 . S
H1511 C1526 0.930 . S
C1512 H1500 0.930 . S
C1512 C1513 1.399 . S
C1512 C1517 1.399 . S
C1513 C1512 1.399 . S
C1513 C1514 1.376 . S
C1514 H1501 0.930 . S
C1514 C1513 1.376 . S
C1514 C1515 1.388 . S
C1515 H1502 0.930 . S
C1515 C1514 1.388 . S
C1515 C1516 1.390 . S
C1516 C1515 1.390 . S
C1516 C1517 1.394 . S
C1516 C1522 1.465 . S
C1517 C1512 1.399 . S
C1517 C1516 1.394 . S
C1517 C1518 1.516 . S
C1518 C1517 1.516 . S
C1518 C1519 1.502 . S
C1518 C1520 1.561 . S
C1518 C1521 1.526 . S
C1519 H1503 0.959 . S
C1519 H1504 0.959 . S
C1519 H1505 0.961 . S
C1519 C1518 1.502 . S
C1520 H1506 0.960 . S
C1520 H1507 0.961 . S
C1520 H1508 0.959 . S
C1520 C1518 1.561 . S
C1521 C1518 1.526 . S
C1521 C1522 1.396 . S
C1521 C1526 1.390 . S
C1522 C1516 1.465 . S
C1522 C1521 1.396 . S
C1522 C1523 1.399 . S
C1523 H1509 0.929 . S
C1523 C1522 1.399 . S
C1523 C1524 1.385 . S
C1524 H1510 0.931 . S
C1524 C1523 1.385 . S
C1524 C1525 1.389 . S
C1525 C1524 1.389 . S
C1525 C1526 1.387 . S
C1526 H1511 0.930 . S
C1526 C1521 1.390 . S
C1526 C1525 1.387 . S
H1527 C1539 0.930 . S
H1528 C1541 0.930 . S
H1529 C1542 0.930 . S
H1530 C1546 0.959 . S
H1531 C1546 0.959 . S
H1532 C1546 0.961 . S
H1533 C1547 0.960 . S
H1534 C1547 0.961 . S
H1535 C1547 0.959 . S
H1536 C1550 0.929 . S
H1537 C1551 0.931 . S
H1538 C1553 0.930 . S
C1539 H1527 0.930 . S
C1539 C1540 1.399 . S
C1539 C1544 1.399 . S
C1540 C1539 1.399 . S
C1540 C1541 1.376 . S
C1541 H1528 0.930 . S
C1541 C1540 1.376 . S
C1541 C1542 1.388 . S
C1542 H1529 0.930 . S
C1542 C1541 1.388 . S
C1542 C1543 1.390 . S
C1543 C1542 1.390 . S
C1543 C1544 1.394 . S
C1543 C1549 1.465 . S
C1544 C1539 1.399 . S
C1544 C1543 1.394 . S
C1544 C1545 1.516 . S
C1545 C1544 1.516 . S
C1545 C1546 1.502 . S
C1545 C1547 1.561 . S
C1545 C1548 1.526 . S
C1546 H1530 0.959 . S
C1546 H1531 0.959 . S
C1546 H1532 0.961 . S
C1546 C1545 1.502 . S
C1547 H1533 0.960 . S
C1547 H1534 0.961 . S
C1547 H1535 0.959 . S
C1547 C1545 1.561 . S
C1548 C1545 1.526 . S
C1548 C1549 1.396 . S
C1548 C1553 1.390 . S
C1549 C1543 1.465 . S
C1549 C1548 1.396 . S
C1549 C1550 1.399 . S
C1550 H1536 0.929 . S
C1550 C1549 1.399 . S
C1550 C1551 1.385 . S
C1551 H1537 0.931 . S
C1551 C1550 1.385 . S
C1551 C1552 1.389 . S
C1552 C1551 1.389 . S
C1552 C1553 1.387 . S
C1553 H1538 0.930 . S
C1553 C1548 1.390 . S
C1553 C1552 1.387 . S
H1554 C1566 0.930 . S
H1555 C1568 0.930 . S
H1556 C1569 0.930 . S
H1557 C1573 0.959 . S
H1558 C1573 0.959 . S
H1559 C1573 0.961 . S
H1560 C1574 0.960 . S
H1561 C1574 0.961 . S
H1562 C1574 0.959 . S
H1563 C1577 0.929 . S
H1564 C1578 0.931 . S
H1565 C1580 0.930 . S
C1566 H1554 0.930 . S
C1566 C1567 1.399 . S
C1566 C1571 1.399 . S
C1567 C1566 1.399 . S
C1567 C1568 1.376 . S
C1568 H1555 0.930 . S
C1568 C1567 1.376 . S
C1568 C1569 1.388 . S
C1569 H1556 0.930 . S
C1569 C1568 1.388 . S
C1569 C1570 1.390 . S
C1570 C1569 1.390 . S
C1570 C1571 1.394 . S
C1570 C1576 1.465 . S
C1571 C1566 1.399 . S
C1571 C1570 1.394 . S
C1571 C1572 1.516 . S
C1572 C1571 1.516 . S
C1572 C1573 1.502 . S
C1572 C1574 1.561 . S
C1572 C1575 1.526 . S
C1573 H1557 0.959 . S
C1573 H1558 0.959 . S
C1573 H1559 0.961 . S
C1573 C1572 1.502 . S
C1574 H1560 0.960 . S
C1574 H1561 0.961 . S
C1574 H1562 0.959 . S
C1574 C1572 1.561 . S
C1575 C1572 1.526 . S
C1575 C1576 1.396 . S
C1575 C1580 1.390 . S
C1576 C1570 1.465 . S
C1576 C1575 1.396 . S
C1576 C1577 1.399 . S
C1577 H1563 0.929 . S
C1577 C1576 1.399 . S
C1577 C1578 1.385 . S
C1578 H1564 0.931 . S
C1578 C1577 1.385 . S
C1578 C1579 1.389 . S
C1579 C1578 1.389 . S
C1579 C1580 1.387 . S
C1580 H1565 0.930 . S
C1580 C1575 1.390 . S
C1580 C1579 1.387 . S
H1581 C1593 0.930 . S
H1582 C1595 0.930 . S
H1583 C1596 0.930 . S
H1584 C1600 0.959 . S
H1585 C1600 0.959 . S
H1586 C1600 0.961 . S
H1587 C1601 0.960 . S
H1588 C1601 0.961 . S
H1589 C1601 0.959 . S
H1590 C1604 0.929 . S
H1591 C1605 0.931 . S
H1592 C1607 0.930 . S
C1593 H1581 0.930 . S
C1593 C1594 1.399 . S
C1593 C1598 1.399 . S
C1594 C1593 1.399 . S
C1594 C1595 1.376 . S
C1595 H1582 0.930 . S
C1595 C1594 1.376 . S
C1595 C1596 1.388 . S
C1596 H1583 0.930 . S
C1596 C1595 1.388 . S
C1596 C1597 1.390 . S
C1597 C1596 1.390 . S
C1597 C1598 1.394 . S
C1597 C1603 1.465 . S
C1598 C1593 1.399 . S
C1598 C1597 1.394 . S
C1598 C1599 1.516 . S
C1599 C1598 1.516 . S
C1599 C1600 1.502 . S
C1599 C1601 1.561 . S
C1599 C1602 1.526 . S
C1600 H1584 0.959 . S
C1600 H1585 0.959 . S
C1600 H1586 0.961 . S
C1600 C1599 1.502 . S
C1601 H1587 0.960 . S
C1601 H1588 0.961 . S
C1601 H1589 0.959 . S
C1601 C1599 1.561 . S
C1602 C1599 1.526 . S
C1602 C1603 1.396 . S
C1602 C1607 1.390 . S
C1603 C1597 1.465 . S
C1603 C1602 1.396 . S
C1603 C1604 1.399 . S
C1604 H1590 0.929 . S
C1604 C1603 1.399 . S
C1604 C1605 1.385 . S
C1605 H1591 0.931 . S
C1605 C1604 1.385 . S
C1605 C1606 1.389 . S
C1606 C1605 1.389 . S
C1606 C1607 1.387 . S
C1607 H1592 0.930 . S
C1607 C1602 1.390 . S
C1607 C1606 1.387 . S
C325 C5 1.550 . S
C337 C96 1.560 . S
C352 C109 1.566 . S
C364 C16 1.558 . S
C379 C31 1.549 . S
C391 C120 1.555 . S
C406 C44 1.551 . S
C418 C133 1.562 . S
C433 C148 1.559 . S
C445 C55 1.550 . S
C460 C70 1.563 . S
C472 C81 1.553 . S
C487 C161 1.556 . S
C499 C252 1.551 . S
C514 C172 1.553 . S
C526 C265 1.559 . S
C541 C276 1.562 . S
C553 C185 1.566 . S
C568 C198 1.561 . S
C580 C291 1.565 . S
C595 C211 1.555 . S
C607 C302 1.551 . S
C622 C237 1.562 . S
C634 C224 1.556 . S
C649 C4 1.560 . S
C661 C108 1.577 . S
C676 C127 1.576 . S
C688 C23 1.556 . S
C703 C140 1.577 . S
C715 C30 1.556 . S
C730 C43 1.565 . S
C742 C147 1.574 . S
C757 C62 1.557 . S
C769 C88 1.575 . S
C784 C69 1.556 . S
C796 C95 1.580 . S
C811 C264 1.567 . S
C823 C160 1.565 . S
C838 C179 1.572 . S
C850 C283 1.566 . S
C865 C290 1.577 . S
C877 C192 1.556 . S
C892 C309 1.560 . S
C904 C205 1.571 . S
C919 C244 1.559 . S
C931 C218 1.573 . S
C946 C231 1.562 . S
C958 C251 1.576 . S
C973 C10 1.646 . S
C985 C199 1.649 . S
C1000 C212 1.679 . S
C1012 C17 1.679 . S
C1027 C225 1.669 . S
C1039 C36 1.673 . S
C1054 C49 1.676 . S
C1066 C166 1.672 . S
C1081 C56 1.663 . S
C1093 C173 1.669 . S
C1108 C186 1.664 . S
C1120 C75 1.670 . S
C1135 C277 1.644 . S
C1147 C82 1.645 . S
C1162 C296 1.649 . S
C1174 C101 1.653 . S
C1189 C303 1.654 . S
C1201 C114 1.650 . S
C1216 C238 1.657 . S
C1228 C121 1.653 . S
C1243 C134 1.650 . S
C1255 C257 1.655 . S
C1270 C153 1.646 . S
C1282 C270 1.645 . S
C1297 C3 1.561 . S
C1309 C135 1.550 . S
C1324 C146 1.540 . S
C1336 C18 1.573 . S
C1351 C83 1.574 . S
C1363 C29 1.541 . S
C1378 C42 1.544 . S
C1390 C94 1.567 . S
C1405 C57 1.572 . S
C1417 C107 1.543 . S
C1432 C68 1.538 . S
C1444 C122 1.574 . S
C1459 C159 1.574 . S
C1471 C289 1.552 . S
C1486 C174 1.569 . S
C1498 C304 1.536 . S
C1513 C187 1.568 . S
C1525 C239 1.536 . S
C1540 C250 1.546 . S
C1552 C200 1.552 . S
C1567 C213 1.550 . S
C1579 C263 1.575 . S
C1594 C226 1.550 . S
C1606 C278 1.575 . S
