# Generated by pormake.
# Topology uol, (4)-cn, num edge types: 1
# Building blocks:
#     Node 0, Type 0, BuildingBlock: ESEHIV_clean_sbu_0, # of connection points: 4
#     Node 1, Type 0, BuildingBlock: ESEHIV_clean_sbu_0, # of connection points: 4
#     Node 2, Type 0, BuildingBlock: ESEHIV_clean_sbu_0, # of connection points: 4
#     Node 3, Type 0, BuildingBlock: ESEHIV_clean_sbu_0, # of connection points: 4
#     Node 4, Type 0, BuildingBlock: ESEHIV_clean_sbu_0, # of connection points: 4
#     Node 5, Type 0, BuildingBlock: ESEHIV_clean_sbu_0, # of connection points: 4
#     Node 6, Type 0, BuildingBlock: ESEHIV_clean_sbu_0, # of connection points: 4
#     Node 7, Type 0, BuildingBlock: ESEHIV_clean_sbu_0, # of connection points: 4
#     Node 8, Type 0, BuildingBlock: ESEHIV_clean_sbu_0, # of connection points: 4
#     Node 9, Type 0, BuildingBlock: ESEHIV_clean_sbu_0, # of connection points: 4
#     Node 10, Type 0, BuildingBlock: ESEHIV_clean_sbu_0, # of connection points: 4
#     Node 11, Type 0, BuildingBlock: ESEHIV_clean_sbu_0, # of connection points: 4
#     Edge 12, Type (0, 0), BuildingBlock: AJUNOK_clean_linker_0, # of connection points: 2
#     Edge 13, Type (0, 0), BuildingBlock: AJUNOK_clean_linker_0, # of connection points: 2
#     Edge 14, Type (0, 0), BuildingBlock: AJUNOK_clean_linker_0, # of connection points: 2
#     Edge 15, Type (0, 0), BuildingBlock: AJUNOK_clean_linker_0, # of connection points: 2
#     Edge 16, Type (0, 0), BuildingBlock: AJUNOK_clean_linker_0, # of connection points: 2
#     Edge 17, Type (0, 0), BuildingBlock: AJUNOK_clean_linker_0, # of connection points: 2
#     Edge 18, Type (0, 0), BuildingBlock: AJUNOK_clean_linker_0, # of connection points: 2
#     Edge 19, Type (0, 0), BuildingBlock: AJUNOK_clean_linker_0, # of connection points: 2
#     Edge 20, Type (0, 0), BuildingBlock: AJUNOK_clean_linker_0, # of connection points: 2
#     Edge 21, Type (0, 0), BuildingBlock: AJUNOK_clean_linker_0, # of connection points: 2
#     Edge 22, Type (0, 0), BuildingBlock: AJUNOK_clean_linker_0, # of connection points: 2
#     Edge 23, Type (0, 0), BuildingBlock: AJUNOK_clean_linker_0, # of connection points: 2
#     Edge 24, Type (0, 0), BuildingBlock: AJUNOK_clean_linker_0, # of connection points: 2
#     Edge 25, Type (0, 0), BuildingBlock: AJUNOK_clean_linker_0, # of connection points: 2
#     Edge 26, Type (0, 0), BuildingBlock: AJUNOK_clean_linker_0, # of connection points: 2
#     Edge 27, Type (0, 0), BuildingBlock: AJUNOK_clean_linker_0, # of connection points: 2
#     Edge 28, Type (0, 0), BuildingBlock: AJUNOK_clean_linker_0, # of connection points: 2
#     Edge 29, Type (0, 0), BuildingBlock: AJUNOK_clean_linker_0, # of connection points: 2
#     Edge 30, Type (0, 0), BuildingBlock: AJUNOK_clean_linker_0, # of connection points: 2
#     Edge 31, Type (0, 0), BuildingBlock: AJUNOK_clean_linker_0, # of connection points: 2
#     Edge 32, Type (0, 0), BuildingBlock: AJUNOK_clean_linker_0, # of connection points: 2
#     Edge 33, Type (0, 0), BuildingBlock: AJUNOK_clean_linker_0, # of connection points: 2
#     Edge 34, Type (0, 0), BuildingBlock: AJUNOK_clean_linker_0, # of connection points: 2
#     Edge 35, Type (0, 0), BuildingBlock: AJUNOK_clean_linker_0, # of connection points: 2
# Relax obj value: 0.162
# Max RMSD: 0.228
# Mean RMSD: 0.228
data_MOF--net-uol--node1-ESEHIV_clean_sbu_0--edge1-AJUNOK_clean_linker_0
_symmetry_space_group_name_H-M    P1
_symmetry_Int_Tables_number       1
_symmetry_cell_setting            triclinic
loop_
_symmetry_equiv_pos_as_xyz
'x, y, z'
_cell_length_a     29.778427
_cell_length_b     29.700092
_cell_length_c     40.758389
_cell_angle_alpha  90.378233
_cell_angle_beta   89.969179
_cell_angle_gamma 120.10292
loop_
_atom_site_label
_atom_site_type_symbol
_atom_site_fract_x
_atom_site_fract_y
_atom_site_fract_z
_atom_type_partial_charge
Cu0 Cu 0.18643 0.36978 0.11424 0.0
N1 N 0.23236 0.37557 0.14708 0.0
N2 N 0.28495 0.35959 0.17735 0.0
C3 C 0.25808 0.34921 0.14904 0.0
C4 C 0.27552 0.39337 0.19396 0.0
C5 C 0.24331 0.40352 0.17505 0.0
O6 O 0.20005 0.33822 0.07611 0.0
C7 C 0.09702 0.33527 0.15446 0.0
O8 O 0.12146 0.38316 0.16593 0.0
H9 H 0.25515 0.32111 0.13086 0.0
H10 H 0.22768 0.42828 0.1816 0.0
N11 N 0.19857 0.43707 0.10588 0.0
N12 N 0.19028 0.50807 0.10455 0.0
C13 C 0.16513 0.45528 0.10522 0.0
C14 C 0.24613 0.47958 0.10529 0.0
C15 C 0.24122 0.5231 0.1043 0.0
C16 C 0.2449 0.35897 0.06305 0.0
O17 O 0.28137 0.40433 0.0741 0.0
H18 H 0.12348 0.43029 0.10627 0.0
H19 H 0.28207 0.47919 0.10768 0.0
O20 O 0.11703 0.32279 0.131 0.0
H21 H 0.28994 0.40856 0.2183 0.0
H22 H 0.2729 0.56293 0.10552 0.0
Cu23 Cu 0.8328 0.16306 0.27256 0.0
N24 N 0.8624 0.2069 0.30848 0.0
N25 N 0.93176 0.2585 0.33926 0.0
C26 C 0.91162 0.24659 0.30866 0.0
C27 C 0.89261 0.22639 0.35922 0.0
C28 C 0.84999 0.1943 0.34012 0.0
O29 O 0.88218 0.19482 0.23686 0.0
C30 C 0.78208 0.05965 0.29741 0.0
O31 O 0.73996 0.06316 0.29538 0.0
H32 H 0.9334 0.26316 0.28645 0.0
H33 H 0.81484 0.16037 0.34838 0.0
N34 N 0.77017 0.15861 0.2603 0.0
N35 N 0.69437 0.15705 0.26094 0.0
C36 C 0.73345 0.15958 0.27922 0.0
C37 C 0.75358 0.15517 0.22921 0.0
C38 C 0.70684 0.15413 0.2295 0.0
C39 C 0.92003 0.18731 0.23155 0.0
O40 O 0.9245 0.15283 0.24912 0.0
H41 H 0.73548 0.16241 0.30573 0.0
H42 H 0.77419 0.15352 0.20779 0.0
O43 O 0.82466 0.09658 0.28644 0.0
H44 H 0.8962 0.22257 0.38535 0.0
H45 H 0.68337 0.15056 0.20829 0.0
Cu46 Cu 0.71972 0.83181 0.44058 0.0
N47 N 0.70327 0.86622 0.47255 0.0
N48 N 0.72079 0.93796 0.50107 0.0
C49 C 0.71813 0.91707 0.47107 0.0
C50 C 0.70489 0.89782 0.52209 0.0
C51 C 0.69456 0.8538 0.50448 0.0
O52 O 0.73479 0.87199 0.40049 0.0
C53 C 0.7818 0.78837 0.46142 0.0
O54 O 0.74469 0.7447 0.44876 0.0
H55 H 0.7304 0.93891 0.44856 0.0
H56 H 0.68694 0.81705 0.51459 0.0
N57 N 0.66445 0.76501 0.43103 0.0
N58 N 0.59263 0.68637 0.43226 0.0
C59 C 0.6244 0.7303 0.44947 0.0
C60 C 0.65739 0.74254 0.4013 0.0
C61 C 0.61326 0.69444 0.40189 0.0
C62 C 0.77667 0.91388 0.39417 0.0
O63 O 0.8157 0.93078 0.4149 0.0
H64 H 0.61841 0.73724 0.47477 0.0
H65 H 0.68229 0.76058 0.38039 0.0
O66 O 0.7795 0.82976 0.4583 0.0
H67 H 0.70564 0.9011 0.54858 0.0
H68 H 0.59648 0.66852 0.38104 0.0
Cu69 Cu 0.92043 0.70152 0.60746 0.0
N70 N 0.86919 0.69003 0.63832 0.0
N71 N 0.81032 0.70039 0.6664 0.0
C72 C 0.84319 0.71623 0.64065 0.0
C73 C 0.81612 0.6629 0.68093 0.0
C74 C 0.85228 0.65647 0.6635 0.0
O75 O 0.90601 0.72862 0.56805 0.0
C76 C 0.99904 0.77629 0.6502 0.0
O77 O 0.9613 0.78252 0.66171 0.0
H78 H 0.85 0.74786 0.62463 0.0
H79 H 0.86606 0.63 0.66925 0.0
N80 N 0.9145 0.63837 0.59419 0.0
N81 N 0.90985 0.56084 0.59253 0.0
C82 C 0.91409 0.59998 0.61193 0.0
C83 C 0.91122 0.6233 0.56267 0.0
C84 C 0.90853 0.57576 0.56153 0.0
C85 C 0.90995 0.77271 0.56331 0.0
O86 O 0.93025 0.8086 0.58638 0.0
H87 H 0.91698 0.60071 0.63841 0.0
H88 H 0.91174 0.6459 0.54184 0.0
O89 O 0.98979 0.74544 0.62599 0.0
H90 H 0.79613 0.64207 0.70284 0.0
H91 H 0.90736 0.55468 0.53949 0.0
Cu92 Cu 0.2342 0.87581 0.79418 0.0
N93 N 0.19563 0.8324 0.8284 0.0
N94 N 0.12797 0.78432 0.86071 0.0
C95 C 0.14355 0.80593 0.83087 0.0
C96 C 0.17179 0.79735 0.87762 0.0
C97 C 0.21359 0.827 0.85753 0.0
O98 O 0.18492 0.86457 0.75902 0.0
C99 C 0.23691 0.96289 0.82265 0.0
O100 O 0.18638 0.9326 0.81986 0.0
H101 H 0.11771 0.80525 0.81194 0.0
H102 H 0.25422 0.84534 0.86414 0.0
N103 N 0.28465 0.85883 0.782 0.0
N104 N 0.36036 0.86005 0.77848 0.0
C105 C 0.33635 0.88684 0.78716 0.0
C106 C 0.27565 0.81288 0.7697 0.0
C107 C 0.3222 0.81367 0.76724 0.0
C108 C 0.18803 0.85427 0.729 0.0
O109 O 0.22972 0.85406 0.71873 0.0
H110 H 0.35571 0.92583 0.79737 0.0
H111 H 0.2376 0.78053 0.7638 0.0
O112 O 0.26613 0.94661 0.81133 0.0
H113 H 0.17343 0.78755 0.90296 0.0
H114 H 0.32735 0.78187 0.75892 0.0
Cu115 Cu 0.38643 0.22191 0.95255 0.0
N116 N 0.38699 0.18232 0.98757 0.0
N117 N 0.36688 0.11338 1.01879 0.0
C118 C 0.36367 0.13008 0.98866 0.0
C119 C 0.39305 0.15673 0.03738 0.0
C120 C 0.40574 0.19931 1.01796 0.0
O121 O 0.35975 0.17605 0.91434 0.0
C122 C 0.3097 0.23614 0.98559 0.0
O123 O 0.29217 0.18832 0.99578 0.0
H124 H 0.34224 0.10474 0.96833 0.0
H125 H 0.42536 0.23967 1.02569 0.0
N126 N 0.45448 0.27396 0.94426 0.0
N127 N 0.52818 0.35071 0.94554 0.0
C128 C 0.47878 0.32285 0.95638 0.0
C129 C 0.48944 0.27071 0.925 0.0
C130 C 0.53492 0.3181 0.92562 0.0
C131 C 0.3119 0.14335 0.90982 0.0
O132 O 0.27762 0.14362 0.92999 0.0
H133 H 0.46014 0.33783 0.97231 0.0
H134 H 0.48226 0.23626 0.91145 0.0
O135 O 0.34719 0.25574 0.96527 0.0
H136 H 0.40108 0.15742 0.06334 0.0
H137 H 0.57035 0.3277 0.9127 0.0
Cu138 Cu 0.70558 0.90802 0.77765 0.0
N139 N 0.68884 0.85551 0.74661 0.0
N140 N 0.70086 0.8002 0.71547 0.0
C141 C 0.7181 0.83341 0.74124 0.0
C142 C 0.65866 0.80117 0.70426 0.0
C143 C 0.65147 0.83558 0.72348 0.0
O144 O 0.71874 0.88358 0.81867 0.0
C145 C 0.75789 0.9908 0.73602 0.0
O146 O 0.71027 0.97085 0.72479 0.0
H147 H 0.75274 0.84316 0.75524 0.0
H148 H 0.62198 0.84626 0.72025 0.0
N149 N 0.6526 0.92392 0.78435 0.0
N150 N 0.57671 0.92212 0.78864 0.0
C151 C 0.60055 0.89489 0.78059 0.0
C152 C 0.66167 0.97077 0.79489 0.0
C153 C 0.61522 0.96992 0.79739 0.0
C154 C 0.76276 0.89084 0.82782 0.0
O155 O 0.80383 0.92002 0.80988 0.0
H156 H 0.58052 0.85468 0.77251 0.0
H157 H 0.69977 1.00357 0.80009 0.0
O158 O 0.76617 0.96968 0.76059 0.0
H159 H 0.6348 0.77884 0.68365 0.0
H160 H 0.61032 1.00241 0.80439 0.0
Cu161 Cu 0.81182 0.70127 0.9605 0.0
N162 N 0.84597 0.68441 0.9287 0.0
N163 N 0.91614 0.69571 0.90149 0.0
C164 C 0.89546 0.69517 0.93111 0.0
C165 C 0.87718 0.68278 0.87978 0.0
C166 C 0.83413 0.67616 0.8966 0.0
O167 O 0.85324 0.71943 1.00037 0.0
C168 C 0.76879 0.74966 0.9234 0.0
O169 O 0.73195 0.70118 0.91874 0.0
H170 H 0.91651 0.70534 0.95405 0.0
H171 H 0.79847 0.67062 0.88588 0.0
N172 N 0.74599 0.6451 0.9697 0.0
N173 N 0.6754 0.56595 0.97193 0.0
C174 C 0.7238 0.59509 0.95963 0.0
C175 C 0.71045 0.6477 0.98872 0.0
C176 C 0.66682 0.59912 0.99001 0.0
C177 C 0.89673 0.76109 1.00387 0.0
O178 O 0.91283 0.79622 0.98064 0.0
H179 H 0.74282 0.58032 0.94385 0.0
H180 H 0.71581 0.68282 1.0005 0.0
O181 O 0.80642 0.75912 0.94251 0.0
H182 H 0.88082 0.6826 0.85336 0.0
H183 H 0.63112 0.58935 1.00264 0.0
Cu184 Cu 0.14522 0.80411 0.12533 0.0
N185 N 0.19255 0.83442 0.09135 0.0
N186 N 0.249 0.90106 0.06058 0.0
C187 C 0.23121 0.88428 0.09119 0.0
C188 C 0.22043 0.85957 0.04081 0.0
C189 C 0.18565 0.81863 0.05985 0.0
O190 O 0.17568 0.84792 0.16407 0.0
C191 C 0.0439 0.76225 0.09807 0.0
O192 O 0.04247 0.71745 0.10015 0.0
H193 H 0.24301 0.9089 0.11282 0.0
H194 H 0.15415 0.78184 0.05103 0.0
N195 N 0.13316 0.7373 0.13472 0.0
N196 N 0.13076 0.66067 0.13259 0.0
C197 C 0.14284 0.70507 0.11643 0.0
C198 C 0.11472 0.71276 0.16336 0.0
C199 C 0.11347 0.66584 0.16224 0.0
C200 C 0.1718 0.88767 0.17103 0.0
O201 O 0.14301 0.89898 0.15227 0.0
H202 H 0.15912 0.71433 0.09201 0.0
H203 H 0.10441 0.72875 0.18403 0.0
O204 O 0.08265 0.80295 0.10996 0.0
H205 H 0.22074 0.86002 1.01428 0.0
H206 H 0.10318 0.63904 0.18245 0.0
Cu207 Cu 0.3693 0.14351 0.29239 0.0
N208 N 0.38507 0.18685 0.25637 0.0
N209 N 0.37633 0.24182 0.22334 0.0
C210 C 0.37726 0.22758 0.25465 0.0
C211 C 0.38476 0.20891 0.20476 0.0
C212 C 0.39019 0.17518 0.2252 0.0
O213 O 0.34912 0.17413 0.32782 0.0
C214 C 0.31962 0.04354 0.26218 0.0
O215 O 0.36717 0.05196 0.25953 0.0
H216 H 0.36825 0.2436 0.27588 0.0
H217 H 0.39244 0.14135 0.21773 0.0
N218 N 0.42758 0.13987 0.30541 0.0
N219 N 0.5046 0.14369 0.30486 0.0
C220 C 0.46783 0.14632 0.28683 0.0
C221 C 0.43906 0.13276 0.33614 0.0
C222 C 0.48636 0.13489 0.33588 0.0
C223 C 0.30468 0.17046 0.32834 0.0
O224 O 0.27045 0.14208 0.30574 0.0
H225 H 0.46948 0.15198 0.26058 0.0
H226 H 0.41492 0.12708 0.35732 0.0
O227 O 0.31196 0.0763 0.2779 0.0
H228 H 0.38189 0.20562 0.17831 0.0
H229 H 0.50624 0.13119 0.35702 0.0
Cu230 Cu 0.25482 0.38092 0.4434 0.0
N231 N 0.21338 0.3858 0.41111 0.0
N232 N 0.14437 0.36938 0.38096 0.0
C233 C 0.1612 0.3601 0.40944 0.0
C234 C 0.18743 0.40245 0.36423 0.0
C235 C 0.23002 0.41259 0.38298 0.0
O236 O 0.21008 0.34528 0.48085 0.0
C237 C 0.24953 0.29357 0.41423 0.0
O238 O 0.19992 0.27648 0.41901 0.0
H239 H 0.13617 0.33318 0.42794 0.0
H240 H 0.27036 0.43656 0.37622 0.0
N241 N 0.30727 0.44927 0.453 0.0
N242 N 0.38438 0.52297 0.45627 0.0
C243 C 0.35934 0.47022 0.45412 0.0
C244 C 0.2993 0.48997 0.45435 0.0
C245 C 0.34635 0.5351 0.45664 0.0
C246 C 0.19674 0.36818 0.50196 0.0
O247 O 0.21672 0.41875 0.50014 0.0
H248 H 0.37816 0.44721 0.45241 0.0
H249 H 0.2618 0.48715 0.45194 0.0
O250 O 0.28226 0.33911 0.4245 0.0
H251 H 0.18798 0.41723 0.33994 0.0
H252 H 0.35219 0.57413 0.45648 0.0
Cu253 Cu 0.92521 0.24801 0.61509 0.0
N254 N 0.88172 0.21512 0.57921 0.0
N255 N 0.82918 0.15052 0.54539 0.0
C256 C 0.84939 0.16347 0.5759 0.0
C257 C 0.84915 0.19577 0.52892 0.0
C258 C 0.8816 0.23562 0.54988 0.0
O259 O 0.89987 0.19868 0.65088 0.0
C260 C 1.00999 0.25143 0.58026 0.0
O261 O 0.97472 0.20572 0.56881 0.0
H262 H 0.84355 0.13555 0.59475 0.0
H263 H 0.90555 0.27623 0.54366 0.0
N264 N 0.91956 0.3049 0.62917 0.0
N265 N 0.91509 0.37777 0.63081 0.0
C266 C 0.91708 0.34171 0.61139 0.0
C267 C 0.91938 0.31831 0.66074 0.0
C268 C 0.9168 0.36329 0.66185 0.0
C269 C 0.90925 0.16236 0.65735 0.0
O270 O 0.94389 0.15762 0.64005 0.0
H271 H 0.91812 0.34282 0.58487 0.0
H272 H 0.92151 0.297 0.68153 0.0
O273 O 0.99694 0.27361 0.60206 0.0
H274 H 0.8423 0.19951 0.50326 0.0
H275 H 0.91599 0.38369 0.68375 0.0
C276 C 0.18318 0.63103 0.102 0.0
C277 C 0.14061 0.61965 0.1223 0.0
C278 C 0.19731 0.59349 0.09502 0.0
C279 C 0.16972 0.54291 0.10808 0.0
H280 H 0.20725 0.6699 0.09254 0.0
H281 H 0.23119 0.60471 0.07994 0.0
S282 S 0.05118 0.4913 0.15945 0.0
N283 N 0.06728 0.55222 0.15232 0.0
N284 N 0.0953 0.48256 0.14059 0.0
C285 C 0.12538 0.53013 0.12704 0.0
C286 C 0.11063 0.5683 0.13387 0.0
C287 C 0.62026 0.12435 0.29909 0.0
C288 C 0.64792 0.15569 0.27239 0.0
C289 C 0.57356 0.12062 0.30949 0.0
C290 C 0.55294 0.14847 0.29375 0.0
H291 H 0.63424 0.10159 0.31149 0.0
H292 H 0.55297 0.09497 0.32966 0.0
S293 S 0.61431 0.24086 0.22499 0.0
N294 N 0.65362 0.21779 0.23183 0.0
N295 N 0.56668 0.21194 0.25173 0.0
C296 C 0.58123 0.18117 0.26758 0.0
C297 C 0.62849 0.18452 0.25684 0.0
C298 C 0.51017 0.65031 0.46298 0.0
C299 C 0.54352 0.64264 0.44226 0.0
C300 C 0.45922 0.61009 0.46881 0.0
C301 C 0.43935 0.56048 0.45417 0.0
H302 H 0.5226 0.68836 0.47349 0.0
H303 H 0.43457 0.61845 0.48414 0.0
S304 S 0.51364 0.51844 0.40147 0.0
N305 N 0.55534 0.57992 0.41034 0.0
N306 N 0.45914 0.50512 0.42008 0.0
C307 C 0.47342 0.55141 0.435 0.0
C308 C 0.52549 0.59232 0.42929 0.0
C309 C 0.93971 0.51504 0.6292 0.0
C310 C 0.90943 0.51405 0.60244 0.0
C311 C 0.94138 0.47041 0.63831 0.0
C312 C 0.91297 0.42318 0.62094 0.0
H313 H 0.96312 0.55083 0.64279 0.0
H314 H 0.96577 0.47306 0.65878 0.0
S315 S 0.82315 0.39837 0.5514 0.0
N316 N 0.84709 0.46059 0.56036 0.0
N317 N 0.85083 0.3771 0.57731 0.0
C318 C 0.88172 0.42134 0.5946 0.0
C319 C 0.87977 0.46664 0.58542 0.0
C320 C 0.49113 0.87368 0.76104 0.0
C321 C 0.52198 0.90512 0.78716 0.0
C322 C 0.43855 0.85936 0.75832 0.0
C323 C 0.41471 0.87583 0.78165 0.0
H324 H 0.5081 0.86107 0.74218 0.0
H325 H 0.41654 0.83586 0.73748 0.0
S326 S 0.47709 0.95344 0.85684 0.0
N327 N 0.52388 0.94886 0.83818 0.0
N328 N 0.42531 0.92179 0.8332 0.0
C329 C 0.44486 0.90613 0.80836 0.0
C330 C 0.49836 0.92075 0.81109 0.0
C331 C 0.60047 0.4365 0.92861 0.0
C332 C 0.56569 0.40436 0.9529 0.0
C333 C 0.63668 0.48901 0.93509 0.0
C334 C 0.63948 0.51136 0.9661 0.0
H335 H 0.59897 0.42121 0.9042 0.0
H336 H 0.66186 0.51259 0.91548 0.0
S337 S 0.5614 0.44237 0.03922 0.0
N338 N 0.53928 0.39771 1.0099 0.0
N339 N 0.60719 0.49614 1.02209 0.0
C340 C 0.6059 0.47927 0.99085 0.0
C341 C 0.56905 0.42588 0.98425 0.0
C342 C 0.3228 0.28319 0.23194 0.0
C343 C 0.35749 0.27555 0.21227 0.0
C344 C 0.30062 0.31212 0.22076 0.0
C345 C 0.3115 0.33384 0.18932 0.0
H346 H 0.31098 0.26522 0.25576 0.0
H347 H 0.27315 0.31585 0.23632 0.0
S348 S 0.40313 0.33058 0.12926 0.0
N349 N 0.40506 0.2968 0.16072 0.0
N350 N 0.3612 0.34926 0.13937 0.0
C351 C 0.34686 0.32793 0.16965 0.0
C352 C 0.37036 0.29927 0.1812 0.0
C353 C 1.0 0.3139 0.37923 0.0
C354 C 0.98588 0.28914 0.34831 0.0
C355 C 0.05196 0.3406 0.38966 0.0
C356 C 0.0917 0.34409 0.36937 0.0
H357 H 0.97052 0.31218 0.39557 0.0
H358 H 0.06128 0.35867 0.41375 0.0
S359 S 0.07596 0.28295 0.28749 0.0
N360 N 1.01654 0.26718 0.2985 0.0
N361 N 0.11393 0.31906 0.31781 0.0
C362 C 0.07845 0.31983 0.33845 0.0
C363 C 1.02561 0.29195 0.32797 0.0
C364 C 0.75732 0.05991 0.54983 0.0
C365 C 0.79957 0.09853 0.53227 0.0
C366 C 0.73064 1.00802 0.53879 0.0
C367 C 0.74571 0.99255 0.51002 0.0
H368 H 0.74517 0.06997 0.57243 0.0
H369 H 0.69839 0.97956 0.55317 0.0
S370 S 0.85708 0.07918 0.45662 0.0
N371 N 0.85643 0.11819 0.4854 0.0
N372 N 0.80806 1.02084 0.46511 0.0
C373 C 0.78822 0.0312 0.49225 0.0
C374 C 0.81473 0.08411 0.50329 0.0
C375 C 0.77456 0.72801 0.71194 0.0
C376 C 0.77981 0.72267 0.67805 0.0
C377 C 0.7479 0.75245 0.72387 0.0
C378 C 0.72492 0.77212 0.70243 0.0
H379 H 0.79249 0.71454 0.72943 0.0
H380 H 0.7455 0.75631 0.75015 0.0
S381 S 0.72562 0.76615 0.61146 0.0
N382 N 0.75786 0.73715 0.62316 0.0
N383 N 0.70862 0.78395 0.64558 0.0
C384 C 0.72883 0.76603 0.66847 0.0
C385 C 0.75616 0.74124 0.6563 0.0
C386 C 0.98335 0.69782 0.86482 0.0
C387 C 0.97017 0.71537 0.89348 0.0
C388 C 1.0351 0.71974 0.85461 0.0
C389 C 0.07574 0.75935 0.87297 0.0
H390 H 0.95329 0.66739 0.84987 0.0
H391 H 0.04351 0.70599 0.83205 0.0
S392 S 0.06333 0.82134 0.94893 0.0
N393 N 1.00318 0.77703 0.93932 0.0
N394 N 0.10016 0.81621 0.92059 0.0
C395 C 0.06363 0.77673 0.90192 0.0
C396 C 1.01093 0.7552 0.9121 0.0
C397 C 0.28399 0.99544 0.06958 0.0
C398 C 0.28211 0.95453 0.05071 0.0
C399 C 0.31295 0.04728 0.05947 0.0
C400 C 0.34068 0.06036 1.02989 0.0
H401 H 0.26159 0.98748 0.09186 0.0
H402 H 0.31214 0.07723 0.07432 0.0
S403 S 0.35314 0.96955 0.97291 0.0
N404 N 0.31442 0.9318 1.00218 0.0
N405 N 0.36749 0.02935 0.98278 0.0
C406 C 0.34033 1.02039 1.01111 0.0
C407 C 0.3114 0.96751 1.0216 0.0
C408 C 0.22797 0.27452 0.03773 0.0
C409 C 0.25836 0.32916 0.0394 0.0
C410 C 0.24387 0.24496 1.01921 0.0
C411 C 0.29045 0.26876 1.00119 0.0
H412 H 0.19271 0.25413 0.052 0.0
H413 H 0.22003 0.20294 1.01975 0.0
S414 S 0.38175 0.41102 0.99482 0.0
N415 N 0.33561 0.40613 1.01956 0.0
N416 N 0.36513 0.35077 0.98457 0.0
C417 C 0.31983 0.32354 1.00125 0.0
C418 C 0.30392 0.35362 1.0204 0.0
C419 C 0.97278 0.27374 0.20439 0.0
C420 C 0.96251 0.2225 0.2092 0.0
C421 C 1.01573 0.3096 0.18607 0.0
C422 C 0.04938 0.29532 0.17111 0.0
H423 H 0.94856 0.28693 0.21589 0.0
H424 H 1.02294 0.34903 0.18388 0.0
S425 S 1.03861 0.16544 0.17504 0.0
N426 N 0.98906 0.15908 0.1969 0.0
N427 N 0.06887 0.22598 0.16171 0.0
C428 C 1.03864 0.24376 0.1748 0.0
C429 C 0.99552 0.20754 0.19407 0.0
C430 C 0.82669 1.02819 0.33535 0.0
C431 C 0.78178 1.01832 0.31793 0.0
C432 C 0.82514 0.99333 0.35908 0.0
C433 C 0.77879 0.94686 0.36609 0.0
H434 H 0.86281 0.06436 0.33185 0.0
H435 H 0.8603 1.0038 0.3727 0.0
S436 S 0.65179 0.90005 0.32432 0.0
N437 N 0.69071 0.9569 0.30735 0.0
N438 N 0.68772 0.89102 0.35136 0.0
C439 C 0.7343 0.93519 0.34741 0.0
C440 C 0.73582 0.97099 0.32354 0.0
C441 C 0.8773 0.82351 0.53218 0.0
C442 C 0.88402 0.77992 0.53414 0.0
C443 C 0.84648 0.82734 0.50749 0.0
C444 C 0.82087 0.78762 0.48383 0.0
H445 H 0.89419 0.85403 0.55061 0.0
H446 H 0.84079 0.86062 0.50796 0.0
S447 S 0.83144 0.66878 0.47518 0.0
N448 N 0.86674 0.69879 0.50789 0.0
N449 N 0.80867 0.70589 0.46195 0.0
C450 C 0.82971 0.74535 0.48434 0.0
C451 C 0.86129 0.74154 0.50932 0.0
C452 C 0.10054 0.84381 0.71732 0.0
C453 C 0.14267 0.83846 0.70672 0.0
C454 C 0.05533 0.82534 0.69831 0.0
C455 C 0.04984 0.80024 0.66789 0.0
H456 H 0.10196 0.86163 0.74086 0.0
H457 H 1.02384 0.82959 0.70814 0.0
S458 S 0.14989 0.7791 0.62777 0.0
N459 N 0.17688 0.80845 0.66278 0.0
N460 N 0.09187 0.7735 0.62724 0.0
C461 C 0.09229 0.79609 0.65643 0.0
C462 C 0.13862 0.81524 0.67575 0.0
C463 C 0.24207 0.06985 0.87717 0.0
C464 C 0.29514 0.10127 0.88465 0.0
C465 C 0.22414 1.02655 0.85621 0.0
C466 C 0.25839 1.01236 0.84188 0.0
H467 H 0.21376 0.07807 0.88811 0.0
H468 H 0.18271 1.00327 0.85195 0.0
S469 S 0.40169 0.08302 0.85224 0.0
N470 N 0.38229 0.11632 0.8749 0.0
N471 N 0.34855 0.03483 0.83567 0.0
C472 C 0.31185 0.04438 0.84828 0.0
C473 C 0.3302 0.08879 0.86957 0.0
C474 C 0.71989 0.81727 0.86749 0.0
C475 C 0.76576 0.86019 0.85566 0.0
C476 C 0.72137 0.78325 0.89054 0.0
C477 C 0.76868 0.79103 0.90322 0.0
H478 H 0.68238 0.80837 0.85789 0.0
H479 H 0.68504 0.74967 0.89781 0.0
S480 S 0.89975 0.90021 0.88293 0.0
N481 N 0.85993 0.91058 0.86023 0.0
N482 N 0.86252 0.84686 0.90393 0.0
C483 C 0.81475 0.83535 0.8931 0.0
C484 C 0.81333 0.86979 0.86921 0.0
C485 C 0.92003 0.72125 0.05009 0.0
C486 C 0.93224 0.76531 1.03098 0.0
C487 C 0.95557 0.72144 0.07273 0.0
C488 C 1.00453 0.76591 0.07769 0.0
H489 H 0.88351 0.68539 0.04665 0.0
H490 H 0.94502 0.6859 0.08586 0.0
S491 S 0.05454 0.89282 0.03584 0.0
N492 N 0.99613 0.85575 1.01998 0.0
N493 N 0.06255 0.85621 0.06282 0.0
C494 C 1.01639 0.81113 0.06002 0.0
C495 C 0.98039 0.81077 0.03661 0.0
C496 C 0.24772 0.92151 0.20958 0.0
C497 C 0.20495 0.92436 0.19739 0.0
C498 C 0.28326 0.95901 0.23156 0.0
C499 C 0.27727 1.00062 0.24276 0.0
H500 H 0.25511 0.89119 0.20112 0.0
H501 H 0.31648 0.95599 0.23921 0.0
S502 S 0.16952 1.02369 0.22064 0.0
N503 N 0.15696 0.97072 0.19983 0.0
N504 N 0.22337 0.04076 0.24141 0.0
C505 C 0.23331 1.0026 0.23208 0.0
C506 C 0.19735 0.96468 0.20933 0.0
C507 C 0.24042 0.18683 0.35771 0.0
C508 C 0.29244 0.20072 0.3524 0.0
C509 C 0.22728 0.21633 0.37839 0.0
C510 C 0.26558 0.26156 0.39447 0.0
H511 H 0.20932 0.153 0.34554 0.0
H512 H 0.18653 0.20395 0.38113 0.0
S513 S 0.40788 0.31459 0.3894 0.0
N514 N 0.38278 0.26233 0.36558 0.0
N515 N 0.35809 0.31814 0.40417 0.0
C516 C 0.31787 0.27556 0.38984 0.0
C517 C 0.33127 0.24508 0.36895 0.0
C518 C 0.11938 0.28418 0.51967 0.0
C519 C 0.15372 0.33756 0.52536 0.0
C520 C 0.07434 0.25613 0.53857 0.0
C521 C 0.06179 0.28013 0.56411 0.0
H522 H 0.12603 0.26427 0.49953 0.0
H523 H 0.04827 0.21567 0.53226 0.0
S524 S 0.14247 0.4176 0.59174 0.0
N525 N 0.17461 0.41219 0.56041 0.0
N526 N 0.09037 0.35965 0.59593 0.0
C527 C 0.09747 0.33276 0.57131 0.0
C528 C 0.14321 0.36139 0.55194 0.0
C529 C 0.78899 0.07393 0.70646 0.0
C530 C 0.80006 0.03704 0.7197 0.0
C531 C 0.82551 0.11535 0.68763 0.0
C532 C 0.87443 0.12111 0.68056 0.0
H533 H 0.75129 0.07033 0.71024 0.0
H534 H 0.81427 0.14191 0.6775 0.0
S535 S 0.92331 0.03582 0.71062 0.0
N536 N 0.86409 1.00982 0.72585 0.0
N537 N 0.93274 0.08722 0.68958 0.0
C538 C 0.8866 0.08515 0.69435 0.0
C539 C 0.84948 0.04331 0.71419 0.0
loop_
_geom_bond_atom_site_label_1
_geom_bond_atom_site_label_2
_geom_bond_distance
_geom_bond_site_symmetry_2
_ccdc_geom_bond_type
Cu0 N1 1.999 . S
Cu0 O6 1.974 . S
Cu0 N11 1.985 . S
Cu0 O20 1.959 . S
N1 Cu0 1.999 . S
N1 C3 1.263 . S
N1 C5 1.389 . S
N2 C3 1.358 . S
N2 C4 1.400 . S
C3 N1 1.263 . S
C3 N2 1.358 . S
C3 H9 0.930 . S
C4 N2 1.400 . S
C4 C5 1.351 . S
C4 H21 0.930 . S
C5 N1 1.389 . S
C5 C4 1.351 . S
C5 H10 0.930 . S
O6 Cu0 1.974 . S
O6 C16 1.282 . S
C7 O8 1.261 . S
C7 O20 1.251 . S
O8 C7 1.261 . S
H9 C3 0.930 . S
H10 C5 0.930 . S
N11 Cu0 1.985 . S
N11 C13 1.335 . S
N11 C14 1.390 . S
N12 C13 1.345 . S
N12 C15 1.336 . S
C13 N11 1.335 . S
C13 N12 1.345 . S
C13 H18 0.930 . S
C14 N11 1.390 . S
C14 C15 1.346 . S
C14 H19 0.930 . S
C15 N12 1.336 . S
C15 C14 1.346 . S
C15 H22 0.929 . S
C16 O6 1.282 . S
C16 O17 1.216 . S
O17 C16 1.216 . S
H18 C13 0.930 . S
H19 C14 0.930 . S
O20 Cu0 1.959 . S
O20 C7 1.251 . S
H21 C4 0.930 . S
H22 C15 0.929 . S
Cu23 N24 1.999 . S
Cu23 O29 1.974 . S
Cu23 N34 1.985 . S
Cu23 O43 1.959 . S
N24 Cu23 1.999 . S
N24 C26 1.263 . S
N24 C28 1.389 . S
N25 C26 1.358 . S
N25 C27 1.400 . S
C26 N24 1.263 . S
C26 N25 1.358 . S
C26 H32 0.930 . S
C27 N25 1.400 . S
C27 C28 1.351 . S
C27 H44 0.930 . S
C28 N24 1.389 . S
C28 C27 1.351 . S
C28 H33 0.930 . S
O29 Cu23 1.974 . S
O29 C39 1.282 . S
C30 O31 1.261 . S
C30 O43 1.251 . S
O31 C30 1.261 . S
H32 C26 0.930 . S
H33 C28 0.930 . S
N34 Cu23 1.985 . S
N34 C36 1.335 . S
N34 C37 1.390 . S
N35 C36 1.345 . S
N35 C38 1.336 . S
C36 N34 1.335 . S
C36 N35 1.345 . S
C36 H41 0.930 . S
C37 N34 1.390 . S
C37 C38 1.346 . S
C37 H42 0.930 . S
C38 N35 1.336 . S
C38 C37 1.346 . S
C38 H45 0.929 . S
C39 O29 1.282 . S
C39 O40 1.216 . S
O40 C39 1.216 . S
H41 C36 0.930 . S
H42 C37 0.930 . S
O43 Cu23 1.959 . S
O43 C30 1.251 . S
H44 C27 0.930 . S
H45 C38 0.929 . S
Cu46 N47 1.999 . S
Cu46 O52 1.974 . S
Cu46 N57 1.985 . S
Cu46 O66 1.959 . S
N47 Cu46 1.999 . S
N47 C49 1.263 . S
N47 C51 1.389 . S
N48 C49 1.358 . S
N48 C50 1.400 . S
C49 N47 1.263 . S
C49 N48 1.358 . S
C49 H55 0.930 . S
C50 N48 1.400 . S
C50 C51 1.351 . S
C50 H67 0.930 . S
C51 N47 1.389 . S
C51 C50 1.351 . S
C51 H56 0.930 . S
O52 Cu46 1.974 . S
O52 C62 1.282 . S
C53 O54 1.261 . S
C53 O66 1.251 . S
O54 C53 1.261 . S
H55 C49 0.930 . S
H56 C51 0.930 . S
N57 Cu46 1.985 . S
N57 C59 1.335 . S
N57 C60 1.390 . S
N58 C59 1.345 . S
N58 C61 1.336 . S
C59 N57 1.335 . S
C59 N58 1.345 . S
C59 H64 0.930 . S
C60 N57 1.390 . S
C60 C61 1.346 . S
C60 H65 0.930 . S
C61 N58 1.336 . S
C61 C60 1.346 . S
C61 H68 0.929 . S
C62 O52 1.282 . S
C62 O63 1.216 . S
O63 C62 1.216 . S
H64 C59 0.930 . S
H65 C60 0.930 . S
O66 Cu46 1.959 . S
O66 C53 1.251 . S
H67 C50 0.930 . S
H68 C61 0.929 . S
Cu69 N70 1.999 . S
Cu69 O75 1.974 . S
Cu69 N80 1.985 . S
Cu69 O89 1.959 . S
N70 Cu69 1.999 . S
N70 C72 1.263 . S
N70 C74 1.389 . S
N71 C72 1.358 . S
N71 C73 1.400 . S
C72 N70 1.263 . S
C72 N71 1.358 . S
C72 H78 0.930 . S
C73 N71 1.400 . S
C73 C74 1.351 . S
C73 H90 0.930 . S
C74 N70 1.389 . S
C74 C73 1.351 . S
C74 H79 0.930 . S
O75 Cu69 1.974 . S
O75 C85 1.282 . S
C76 O77 1.261 . S
C76 O89 1.251 . S
O77 C76 1.261 . S
H78 C72 0.930 . S
H79 C74 0.930 . S
N80 Cu69 1.985 . S
N80 C82 1.335 . S
N80 C83 1.390 . S
N81 C82 1.345 . S
N81 C84 1.336 . S
C82 N80 1.335 . S
C82 N81 1.345 . S
C82 H87 0.930 . S
C83 N80 1.390 . S
C83 C84 1.346 . S
C83 H88 0.930 . S
C84 N81 1.336 . S
C84 C83 1.346 . S
C84 H91 0.929 . S
C85 O75 1.282 . S
C85 O86 1.216 . S
O86 C85 1.216 . S
H87 C82 0.930 . S
H88 C83 0.930 . S
O89 Cu69 1.959 . S
O89 C76 1.251 . S
H90 C73 0.930 . S
H91 C84 0.929 . S
Cu92 N93 1.999 . S
Cu92 O98 1.974 . S
Cu92 N103 1.985 . S
Cu92 O112 1.959 . S
N93 Cu92 1.999 . S
N93 C95 1.263 . S
N93 C97 1.389 . S
N94 C95 1.358 . S
N94 C96 1.400 . S
C95 N93 1.263 . S
C95 N94 1.358 . S
C95 H101 0.930 . S
C96 N94 1.400 . S
C96 C97 1.351 . S
C96 H113 0.930 . S
C97 N93 1.389 . S
C97 C96 1.351 . S
C97 H102 0.930 . S
O98 Cu92 1.974 . S
O98 C108 1.282 . S
C99 O100 1.261 . S
C99 O112 1.251 . S
O100 C99 1.261 . S
H101 C95 0.930 . S
H102 C97 0.930 . S
N103 Cu92 1.985 . S
N103 C105 1.335 . S
N103 C106 1.390 . S
N104 C105 1.345 . S
N104 C107 1.336 . S
C105 N103 1.335 . S
C105 N104 1.345 . S
C105 H110 0.930 . S
C106 N103 1.390 . S
C106 C107 1.346 . S
C106 H111 0.930 . S
C107 N104 1.336 . S
C107 C106 1.346 . S
C107 H114 0.929 . S
C108 O98 1.282 . S
C108 O109 1.216 . S
O109 C108 1.216 . S
H110 C105 0.930 . S
H111 C106 0.930 . S
O112 Cu92 1.959 . S
O112 C99 1.251 . S
H113 C96 0.930 . S
H114 C107 0.929 . S
Cu115 N116 1.999 . S
Cu115 O121 1.974 . S
Cu115 N126 1.985 . S
Cu115 O135 1.959 . S
N116 Cu115 1.999 . S
N116 C118 1.263 . S
N116 C120 1.389 . S
N117 C118 1.358 . S
N117 C119 1.400 . S
C118 N116 1.263 . S
C118 N117 1.358 . S
C118 H124 0.930 . S
C119 N117 1.400 . S
C119 C120 1.351 . S
C119 H136 0.930 1_556 S
C120 N116 1.389 . S
C120 C119 1.351 . S
C120 H125 0.930 1_556 S
O121 Cu115 1.974 . S
O121 C131 1.282 . S
C122 O123 1.261 . S
C122 O135 1.251 . S
O123 C122 1.261 . S
H124 C118 0.930 . S
H125 C120 0.930 1_554 S
N126 Cu115 1.985 . S
N126 C128 1.335 . S
N126 C129 1.390 . S
N127 C128 1.345 . S
N127 C130 1.336 . S
C128 N126 1.335 . S
C128 N127 1.345 . S
C128 H133 0.930 . S
C129 N126 1.390 . S
C129 C130 1.346 . S
C129 H134 0.930 . S
C130 N127 1.336 . S
C130 C129 1.346 . S
C130 H137 0.929 . S
C131 O121 1.282 . S
C131 O132 1.216 . S
O132 C131 1.216 . S
H133 C128 0.930 . S
H134 C129 0.930 . S
O135 Cu115 1.959 . S
O135 C122 1.251 . S
H136 C119 0.930 1_554 S
H137 C130 0.929 . S
Cu138 N139 1.999 . S
Cu138 O144 1.974 . S
Cu138 N149 1.985 . S
Cu138 O158 1.959 . S
N139 Cu138 1.999 . S
N139 C141 1.263 . S
N139 C143 1.389 . S
N140 C141 1.358 . S
N140 C142 1.400 . S
C141 N139 1.263 . S
C141 N140 1.358 . S
C141 H147 0.930 . S
C142 N140 1.400 . S
C142 C143 1.351 . S
C142 H159 0.930 . S
C143 N139 1.389 . S
C143 C142 1.351 . S
C143 H148 0.930 . S
O144 Cu138 1.974 . S
O144 C154 1.282 . S
C145 O146 1.261 . S
C145 O158 1.251 . S
O146 C145 1.261 . S
H147 C141 0.930 . S
H148 C143 0.930 . S
N149 Cu138 1.985 . S
N149 C151 1.335 . S
N149 C152 1.390 . S
N150 C151 1.345 . S
N150 C153 1.336 . S
C151 N149 1.335 . S
C151 N150 1.345 . S
C151 H156 0.930 . S
C152 N149 1.390 . S
C152 C153 1.346 . S
C152 H157 0.930 . S
C153 N150 1.336 . S
C153 C152 1.346 . S
C153 H160 0.929 . S
C154 O144 1.282 . S
C154 O155 1.216 . S
O155 C154 1.216 . S
H156 C151 0.930 . S
H157 C152 0.930 . S
O158 Cu138 1.959 . S
O158 C145 1.251 . S
H159 C142 0.930 . S
H160 C153 0.929 . S
Cu161 N162 1.999 . S
Cu161 O167 1.974 . S
Cu161 N172 1.985 . S
Cu161 O181 1.959 . S
N162 Cu161 1.999 . S
N162 C164 1.263 . S
N162 C166 1.389 . S
N163 C164 1.358 . S
N163 C165 1.400 . S
C164 N162 1.263 . S
C164 N163 1.358 . S
C164 H170 0.930 . S
C165 N163 1.400 . S
C165 C166 1.351 . S
C165 H182 0.930 . S
C166 N162 1.389 . S
C166 C165 1.351 . S
C166 H171 0.930 . S
O167 Cu161 1.974 . S
O167 C177 1.282 . S
C168 O169 1.261 . S
C168 O181 1.251 . S
O169 C168 1.261 . S
H170 C164 0.930 . S
H171 C166 0.930 . S
N172 Cu161 1.985 . S
N172 C174 1.335 . S
N172 C175 1.390 . S
N173 C174 1.345 . S
N173 C176 1.336 . S
C174 N172 1.335 . S
C174 N173 1.345 . S
C174 H179 0.930 . S
C175 N172 1.390 . S
C175 C176 1.346 . S
C175 H180 0.930 . S
C176 N173 1.336 . S
C176 C175 1.346 . S
C176 H183 0.929 . S
C177 O167 1.282 . S
C177 O178 1.216 . S
O178 C177 1.216 . S
H179 C174 0.930 . S
H180 C175 0.930 . S
O181 Cu161 1.959 . S
O181 C168 1.251 . S
H182 C165 0.930 . S
H183 C176 0.929 . S
Cu184 N185 1.999 . S
Cu184 O190 1.974 . S
Cu184 N195 1.985 . S
Cu184 O204 1.959 . S
N185 Cu184 1.999 . S
N185 C187 1.263 . S
N185 C189 1.389 . S
N186 C187 1.358 . S
N186 C188 1.400 . S
C187 N185 1.263 . S
C187 N186 1.358 . S
C187 H193 0.930 . S
C188 N186 1.400 . S
C188 C189 1.351 . S
C188 H205 0.930 1_554 S
C189 N185 1.389 . S
C189 C188 1.351 . S
C189 H194 0.930 1_554 S
O190 Cu184 1.974 . S
O190 C200 1.282 . S
C191 O192 1.261 . S
C191 O204 1.251 . S
O192 C191 1.261 . S
H193 C187 0.930 . S
H194 C189 0.930 1_556 S
N195 Cu184 1.985 . S
N195 C197 1.335 . S
N195 C198 1.390 . S
N196 C197 1.345 . S
N196 C199 1.336 . S
C197 N195 1.335 . S
C197 N196 1.345 . S
C197 H202 0.930 . S
C198 N195 1.390 . S
C198 C199 1.346 . S
C198 H203 0.930 . S
C199 N196 1.336 . S
C199 C198 1.346 . S
C199 H206 0.929 . S
C200 O190 1.282 . S
C200 O201 1.216 . S
O201 C200 1.216 . S
H202 C197 0.930 . S
H203 C198 0.930 . S
O204 Cu184 1.959 . S
O204 C191 1.251 . S
H205 C188 0.930 1_556 S
H206 C199 0.929 . S
Cu207 N208 1.999 . S
Cu207 O213 1.974 . S
Cu207 N218 1.985 . S
Cu207 O227 1.959 . S
N208 Cu207 1.999 . S
N208 C210 1.263 . S
N208 C212 1.389 . S
N209 C210 1.358 . S
N209 C211 1.400 . S
C210 N208 1.263 . S
C210 N209 1.358 . S
C210 H216 0.930 . S
C211 N209 1.400 . S
C211 C212 1.351 . S
C211 H228 0.930 . S
C212 N208 1.389 . S
C212 C211 1.351 . S
C212 H217 0.930 . S
O213 Cu207 1.974 . S
O213 C223 1.282 . S
C214 O215 1.261 . S
C214 O227 1.251 . S
O215 C214 1.261 . S
H216 C210 0.930 . S
H217 C212 0.930 . S
N218 Cu207 1.985 . S
N218 C220 1.335 . S
N218 C221 1.390 . S
N219 C220 1.345 . S
N219 C222 1.336 . S
C220 N218 1.335 . S
C220 N219 1.345 . S
C220 H225 0.930 . S
C221 N218 1.390 . S
C221 C222 1.346 . S
C221 H226 0.930 . S
C222 N219 1.336 . S
C222 C221 1.346 . S
C222 H229 0.929 . S
C223 O213 1.282 . S
C223 O224 1.216 . S
O224 C223 1.216 . S
H225 C220 0.930 . S
H226 C221 0.930 . S
O227 Cu207 1.959 . S
O227 C214 1.251 . S
H228 C211 0.930 . S
H229 C222 0.929 . S
Cu230 N231 1.999 . S
Cu230 O236 1.974 . S
Cu230 N241 1.985 . S
Cu230 O250 1.959 . S
N231 Cu230 1.999 . S
N231 C233 1.263 . S
N231 C235 1.389 . S
N232 C233 1.358 . S
N232 C234 1.400 . S
C233 N231 1.263 . S
C233 N232 1.358 . S
C233 H239 0.930 . S
C234 N232 1.400 . S
C234 C235 1.351 . S
C234 H251 0.930 . S
C235 N231 1.389 . S
C235 C234 1.351 . S
C235 H240 0.930 . S
O236 Cu230 1.974 . S
O236 C246 1.282 . S
C237 O238 1.261 . S
C237 O250 1.251 . S
O238 C237 1.261 . S
H239 C233 0.930 . S
H240 C235 0.930 . S
N241 Cu230 1.985 . S
N241 C243 1.335 . S
N241 C244 1.390 . S
N242 C243 1.345 . S
N242 C245 1.336 . S
C243 N241 1.335 . S
C243 N242 1.345 . S
C243 H248 0.930 . S
C244 N241 1.390 . S
C244 C245 1.346 . S
C244 H249 0.930 . S
C245 N242 1.336 . S
C245 C244 1.346 . S
C245 H252 0.929 . S
C246 O236 1.282 . S
C246 O247 1.216 . S
O247 C246 1.216 . S
H248 C243 0.930 . S
H249 C244 0.930 . S
O250 Cu230 1.959 . S
O250 C237 1.251 . S
H251 C234 0.930 . S
H252 C245 0.929 . S
Cu253 N254 1.999 . S
Cu253 O259 1.974 . S
Cu253 N264 1.985 . S
Cu253 O273 1.959 . S
N254 Cu253 1.999 . S
N254 C256 1.263 . S
N254 C258 1.389 . S
N255 C256 1.358 . S
N255 C257 1.400 . S
C256 N254 1.263 . S
C256 N255 1.358 . S
C256 H262 0.930 . S
C257 N255 1.400 . S
C257 C258 1.351 . S
C257 H274 0.930 . S
C258 N254 1.389 . S
C258 C257 1.351 . S
C258 H263 0.930 . S
O259 Cu253 1.974 . S
O259 C269 1.282 . S
C260 O261 1.261 . S
C260 O273 1.251 . S
O261 C260 1.261 . S
H262 C256 0.930 . S
H263 C258 0.930 . S
N264 Cu253 1.985 . S
N264 C266 1.335 . S
N264 C267 1.390 . S
N265 C266 1.345 . S
N265 C268 1.336 . S
C266 N264 1.335 . S
C266 N265 1.345 . S
C266 H271 0.930 . S
C267 N264 1.390 . S
C267 C268 1.346 . S
C267 H272 0.930 . S
C268 N265 1.336 . S
C268 C267 1.346 . S
C268 H275 0.929 . S
C269 O259 1.282 . S
C269 O270 1.216 . S
O270 C269 1.216 . S
H271 C266 0.930 . S
H272 C267 0.930 . S
O273 Cu253 1.959 . S
O273 C260 1.251 . S
H274 C257 0.930 . S
H275 C268 0.929 . S
C276 C277 1.369 . S
C276 C278 1.419 . S
C276 H280 0.930 . S
C277 C276 1.369 . S
C277 C286 1.429 . S
C278 C276 1.419 . S
C278 C279 1.363 . S
C278 H281 0.929 . S
C279 C278 1.363 . S
C279 C285 1.428 . S
H280 C276 0.930 . S
H281 C278 0.929 . S
S282 N283 1.613 . S
S282 N284 1.610 . S
N283 S282 1.613 . S
N283 C286 1.350 . S
N284 S282 1.610 . S
N284 C285 1.351 . S
C285 C279 1.428 . S
C285 N284 1.351 . S
C285 C286 1.434 . S
C286 C277 1.429 . S
C286 N283 1.350 . S
C286 C285 1.434 . S
C287 C288 1.369 . S
C287 C289 1.419 . S
C287 H291 0.930 . S
C288 C287 1.369 . S
C288 C297 1.429 . S
C289 C287 1.419 . S
C289 C290 1.363 . S
C289 H292 0.929 . S
C290 C289 1.363 . S
C290 C296 1.428 . S
H291 C287 0.930 . S
H292 C289 0.929 . S
S293 N294 1.613 . S
S293 N295 1.610 . S
N294 S293 1.613 . S
N294 C297 1.350 . S
N295 S293 1.610 . S
N295 C296 1.351 . S
C296 C290 1.428 . S
C296 N295 1.351 . S
C296 C297 1.434 . S
C297 C288 1.429 . S
C297 N294 1.350 . S
C297 C296 1.434 . S
C298 C299 1.369 . S
C298 C300 1.419 . S
C298 H302 0.930 . S
C299 C298 1.369 . S
C299 C308 1.429 . S
C300 C298 1.419 . S
C300 C301 1.363 . S
C300 H303 0.929 . S
C301 C300 1.363 . S
C301 C307 1.428 . S
H302 C298 0.930 . S
H303 C300 0.929 . S
S304 N305 1.613 . S
S304 N306 1.610 . S
N305 S304 1.613 . S
N305 C308 1.350 . S
N306 S304 1.610 . S
N306 C307 1.351 . S
C307 C301 1.428 . S
C307 N306 1.351 . S
C307 C308 1.434 . S
C308 C299 1.429 . S
C308 N305 1.350 . S
C308 C307 1.434 . S
C309 C310 1.369 . S
C309 C311 1.419 . S
C309 H313 0.930 . S
C310 C309 1.369 . S
C310 C319 1.429 . S
C311 C309 1.419 . S
C311 C312 1.363 . S
C311 H314 0.929 . S
C312 C311 1.363 . S
C312 C318 1.428 . S
H313 C309 0.930 . S
H314 C311 0.929 . S
S315 N316 1.613 . S
S315 N317 1.610 . S
N316 S315 1.613 . S
N316 C319 1.350 . S
N317 S315 1.610 . S
N317 C318 1.351 . S
C318 C312 1.428 . S
C318 N317 1.351 . S
C318 C319 1.434 . S
C319 C310 1.429 . S
C319 N316 1.350 . S
C319 C318 1.434 . S
C320 C321 1.369 . S
C320 C322 1.419 . S
C320 H324 0.930 . S
C321 C320 1.369 . S
C321 C330 1.429 . S
C322 C320 1.419 . S
C322 C323 1.363 . S
C322 H325 0.929 . S
C323 C322 1.363 . S
C323 C329 1.428 . S
H324 C320 0.930 . S
H325 C322 0.929 . S
S326 N327 1.613 . S
S326 N328 1.610 . S
N327 S326 1.613 . S
N327 C330 1.350 . S
N328 S326 1.610 . S
N328 C329 1.351 . S
C329 C323 1.428 . S
C329 N328 1.351 . S
C329 C330 1.434 . S
C330 C321 1.429 . S
C330 N327 1.350 . S
C330 C329 1.434 . S
C331 C332 1.369 . S
C331 C333 1.419 . S
C331 H335 0.930 . S
C332 C331 1.369 . S
C332 C341 1.429 . S
C333 C331 1.419 . S
C333 C334 1.363 . S
C333 H336 0.929 . S
C334 C333 1.363 . S
C334 C340 1.428 . S
H335 C331 0.930 . S
H336 C333 0.929 . S
S337 N338 1.613 . S
S337 N339 1.610 . S
N338 S337 1.613 . S
N338 C341 1.350 . S
N339 S337 1.610 . S
N339 C340 1.351 . S
C340 C334 1.428 . S
C340 N339 1.351 . S
C340 C341 1.434 . S
C341 C332 1.429 . S
C341 N338 1.350 . S
C341 C340 1.434 . S
C342 C343 1.369 . S
C342 C344 1.419 . S
C342 H346 0.930 . S
C343 C342 1.369 . S
C343 C352 1.429 . S
C344 C342 1.419 . S
C344 C345 1.363 . S
C344 H347 0.929 . S
C345 C344 1.363 . S
C345 C351 1.428 . S
H346 C342 0.930 . S
H347 C344 0.929 . S
S348 N349 1.613 . S
S348 N350 1.610 . S
N349 S348 1.613 . S
N349 C352 1.350 . S
N350 S348 1.610 . S
N350 C351 1.351 . S
C351 C345 1.428 . S
C351 N350 1.351 . S
C351 C352 1.434 . S
C352 C343 1.429 . S
C352 N349 1.350 . S
C352 C351 1.434 . S
C353 C354 1.369 . S
C353 C355 1.419 . S
C353 H357 0.930 . S
C354 C353 1.369 . S
C354 C363 1.429 1_655 S
C355 C353 1.419 . S
C355 C356 1.363 1_655 S
C355 H358 0.929 . S
C356 C355 1.363 1_455 S
C356 C362 1.428 . S
H357 C353 0.930 . S
H358 C355 0.929 . S
S359 N360 1.613 . S
S359 N361 1.610 . S
N360 S359 1.613 . S
N360 C363 1.350 . S
N361 S359 1.610 . S
N361 C362 1.351 . S
C362 C356 1.428 . S
C362 N361 1.351 . S
C362 C363 1.434 . S
C363 C354 1.429 1_455 S
C363 N360 1.350 . S
C363 C362 1.434 . S
C364 C365 1.369 1_565 S
C364 C366 1.419 . S
C364 H368 0.930 . S
C365 C364 1.369 1_545 S
C365 C374 1.429 . S
C366 C364 1.419 . S
C366 C367 1.363 . S
C366 H369 0.929 . S
C367 C366 1.363 . S
C367 C373 1.428 1_565 S
H368 C364 0.930 . S
H369 C366 0.929 . S
S370 N371 1.613 . S
S370 N372 1.610 . S
N371 S370 1.613 . S
N371 C374 1.350 . S
N372 S370 1.610 . S
N372 C373 1.351 . S
C373 C367 1.428 1_545 S
C373 N372 1.351 . S
C373 C374 1.434 . S
C374 C365 1.429 . S
C374 N371 1.350 . S
C374 C373 1.434 . S
C375 C376 1.369 . S
C375 C377 1.419 . S
C375 H379 0.930 . S
C376 C375 1.369 . S
C376 C385 1.429 . S
C377 C375 1.419 . S
C377 C378 1.363 . S
C377 H380 0.929 . S
C378 C377 1.363 . S
C378 C384 1.428 . S
H379 C375 0.930 . S
H380 C377 0.929 . S
S381 N382 1.613 . S
S381 N383 1.610 . S
N382 S381 1.613 . S
N382 C385 1.350 . S
N383 S381 1.610 . S
N383 C384 1.351 . S
C384 C378 1.428 . S
C384 N383 1.351 . S
C384 C385 1.434 . S
C385 C376 1.429 . S
C385 N382 1.350 . S
C385 C384 1.434 . S
C386 C387 1.369 . S
C386 C388 1.419 1_655 S
C386 H390 0.930 . S
C387 C386 1.369 . S
C387 C396 1.429 . S
C388 C386 1.419 1_455 S
C388 C389 1.363 . S
C388 H391 0.929 . S
C389 C388 1.363 . S
C389 C395 1.428 . S
H390 C386 0.930 . S
H391 C388 0.929 . S
S392 N393 1.613 1_455 S
S392 N394 1.610 . S
N393 S392 1.613 1_655 S
N393 C396 1.350 . S
N394 S392 1.610 . S
N394 C395 1.351 . S
C395 C389 1.428 . S
C395 N394 1.351 . S
C395 C396 1.434 1_455 S
C396 C387 1.429 . S
C396 N393 1.350 . S
C396 C395 1.434 1_655 S
C397 C398 1.369 1_545 S
C397 C399 1.419 . S
C397 H401 0.930 . S
C398 C397 1.369 1_565 S
C398 C407 1.429 1_554 S
C399 C397 1.419 . S
C399 C400 1.363 1_554 S
C399 H402 0.929 . S
C400 C399 1.363 1_556 S
C400 C406 1.428 1_545 S
H401 C397 0.930 . S
H402 C399 0.929 . S
S403 N404 1.613 . S
S403 N405 1.610 . S
N404 S403 1.613 . S
N404 C407 1.350 . S
N405 S403 1.610 . S
N405 C406 1.351 . S
C406 C400 1.428 1_565 S
C406 N405 1.351 . S
C406 C407 1.434 . S
C407 C398 1.429 1_556 S
C407 N404 1.350 . S
C407 C406 1.434 . S
C408 C409 1.369 . S
C408 C410 1.419 . S
C408 H412 0.930 . S
C409 C408 1.369 . S
C409 C418 1.429 1_554 S
C410 C408 1.419 . S
C410 C411 1.363 1_554 S
C410 H413 0.929 . S
C411 C410 1.363 1_556 S
C411 C417 1.428 . S
H412 C408 0.930 . S
H413 C410 0.929 . S
S414 N415 1.613 . S
S414 N416 1.610 . S
N415 S414 1.613 . S
N415 C418 1.350 . S
N416 S414 1.610 . S
N416 C417 1.351 . S
C417 C411 1.428 . S
C417 N416 1.351 . S
C417 C418 1.434 . S
C418 C409 1.429 1_556 S
C418 N415 1.350 . S
C418 C417 1.434 . S
C419 C420 1.369 . S
C419 C421 1.419 . S
C419 H423 0.930 . S
C420 C419 1.369 . S
C420 C429 1.429 . S
C421 C419 1.419 . S
C421 C422 1.363 . S
C421 H424 0.929 . S
C422 C421 1.363 . S
C422 C428 1.428 . S
H423 C419 0.930 . S
H424 C421 0.929 . S
S425 N426 1.613 . S
S425 N427 1.610 1_655 S
N426 S425 1.613 . S
N426 C429 1.350 . S
N427 S425 1.610 1_455 S
N427 C428 1.351 1_455 S
C428 C422 1.428 . S
C428 N427 1.351 1_655 S
C428 C429 1.434 . S
C429 C420 1.429 . S
C429 N426 1.350 . S
C429 C428 1.434 . S
C430 C431 1.369 . S
C430 C432 1.419 . S
C430 H434 0.930 . S
C431 C430 1.369 . S
C431 C440 1.429 . S
C432 C430 1.419 . S
C432 C433 1.363 . S
C432 H435 0.929 . S
C433 C432 1.363 . S
C433 C439 1.428 . S
H434 C430 0.930 . S
H435 C432 0.929 . S
S436 N437 1.613 . S
S436 N438 1.610 . S
N437 S436 1.613 . S
N437 C440 1.350 . S
N438 S436 1.610 . S
N438 C439 1.351 . S
C439 C433 1.428 . S
C439 N438 1.351 . S
C439 C440 1.434 . S
C440 C431 1.429 . S
C440 N437 1.350 . S
C440 C439 1.434 . S
C441 C442 1.369 . S
C441 C443 1.419 . S
C441 H445 0.930 . S
C442 C441 1.369 . S
C442 C451 1.429 . S
C443 C441 1.419 . S
C443 C444 1.363 . S
C443 H446 0.929 . S
C444 C443 1.363 . S
C444 C450 1.428 . S
H445 C441 0.930 . S
H446 C443 0.929 . S
S447 N448 1.613 . S
S447 N449 1.610 . S
N448 S447 1.613 . S
N448 C451 1.350 . S
N449 S447 1.610 . S
N449 C450 1.351 . S
C450 C444 1.428 . S
C450 N449 1.351 . S
C450 C451 1.434 . S
C451 C442 1.429 . S
C451 N448 1.350 . S
C451 C450 1.434 . S
C452 C453 1.369 . S
C452 C454 1.419 . S
C452 H456 0.930 . S
C453 C452 1.369 . S
C453 C462 1.429 . S
C454 C452 1.419 . S
C454 C455 1.363 . S
C454 H457 0.929 1_455 S
C455 C454 1.363 . S
C455 C461 1.428 . S
H456 C452 0.930 . S
H457 C454 0.929 1_655 S
S458 N459 1.613 . S
S458 N460 1.610 . S
N459 S458 1.613 . S
N459 C462 1.350 . S
N460 S458 1.610 . S
N460 C461 1.351 . S
C461 C455 1.428 . S
C461 N460 1.351 . S
C461 C462 1.434 . S
C462 C453 1.429 . S
C462 N459 1.350 . S
C462 C461 1.434 . S
C463 C464 1.369 . S
C463 C465 1.419 . S
C463 H467 0.930 . S
C464 C463 1.369 . S
C464 C473 1.429 . S
C465 C463 1.419 . S
C465 C466 1.363 . S
C465 H468 0.929 . S
C466 C465 1.363 . S
C466 C472 1.428 . S
H467 C463 0.930 . S
H468 C465 0.929 . S
S469 N470 1.613 . S
S469 N471 1.610 1_545 S
N470 S469 1.613 . S
N470 C473 1.350 . S
N471 S469 1.610 1_565 S
N471 C472 1.351 1_565 S
C472 C466 1.428 . S
C472 N471 1.351 1_545 S
C472 C473 1.434 . S
C473 C464 1.429 . S
C473 N470 1.350 . S
C473 C472 1.434 . S
C474 C475 1.369 . S
C474 C476 1.419 . S
C474 H478 0.930 . S
C475 C474 1.369 . S
C475 C484 1.429 . S
C476 C474 1.419 . S
C476 C477 1.363 . S
C476 H479 0.929 . S
C477 C476 1.363 . S
C477 C483 1.428 . S
H478 C474 0.930 . S
H479 C476 0.929 . S
S480 N481 1.613 . S
S480 N482 1.610 . S
N481 S480 1.613 . S
N481 C484 1.350 . S
N482 S480 1.610 . S
N482 C483 1.351 . S
C483 C477 1.428 . S
C483 N482 1.351 . S
C483 C484 1.434 . S
C484 C475 1.429 . S
C484 N481 1.350 . S
C484 C483 1.434 . S
C485 C486 1.369 . S
C485 C487 1.419 . S
C485 H489 0.930 . S
C486 C485 1.369 . S
C486 C495 1.429 . S
C487 C485 1.419 . S
C487 C488 1.363 1_556 S
C487 H490 0.929 . S
C488 C487 1.363 1_554 S
C488 C494 1.428 . S
H489 C485 0.930 . S
H490 C487 0.929 . S
S491 N492 1.631 . S
S491 N493 1.610 . S
N492 S491 1.631 . S
N492 C495 1.346 1_554 S
N493 S491 1.610 . S
N493 C494 1.351 . S
C494 C488 1.428 . S
C494 N493 1.351 . S
C494 C495 1.434 1_554 S
C495 C486 1.429 . S
C495 N492 1.346 1_556 S
C495 C494 1.434 1_556 S
C496 C497 1.369 . S
C496 C498 1.419 . S
C496 H500 0.930 . S
C497 C496 1.369 . S
C497 C506 1.429 . S
C498 C496 1.419 . S
C498 C499 1.363 . S
C498 H501 0.929 . S
C499 C498 1.363 . S
C499 C505 1.428 . S
H500 C496 0.930 . S
H501 C498 0.929 . S
S502 N503 1.613 . S
S502 N504 1.610 . S
N503 S502 1.613 . S
N503 C506 1.350 . S
N504 S502 1.610 . S
N504 C505 1.351 . S
C505 C499 1.428 . S
C505 N504 1.351 . S
C505 C506 1.434 . S
C506 C497 1.429 . S
C506 N503 1.350 . S
C506 C505 1.434 . S
C507 C508 1.369 . S
C507 C509 1.419 . S
C507 H511 0.930 . S
C508 C507 1.369 . S
C508 C517 1.429 . S
C509 C507 1.419 . S
C509 C510 1.363 . S
C509 H512 0.929 . S
C510 C509 1.363 . S
C510 C516 1.428 . S
H511 C507 0.930 . S
H512 C509 0.929 . S
S513 N514 1.613 . S
S513 N515 1.610 . S
N514 S513 1.613 . S
N514 C517 1.350 . S
N515 S513 1.610 . S
N515 C516 1.351 . S
C516 C510 1.428 . S
C516 N515 1.351 . S
C516 C517 1.434 . S
C517 C508 1.429 . S
C517 N514 1.350 . S
C517 C516 1.434 . S
C518 C519 1.369 . S
C518 C520 1.419 . S
C518 H522 0.930 . S
C519 C518 1.369 . S
C519 C528 1.429 . S
C520 C518 1.419 . S
C520 C521 1.363 . S
C520 H523 0.929 1_455 S
C521 C520 1.363 . S
C521 C527 1.428 . S
H522 C518 0.930 . S
H523 C520 0.929 1_655 S
S524 N525 1.613 . S
S524 N526 1.610 . S
N525 S524 1.613 . S
N525 C528 1.350 . S
N526 S524 1.610 . S
N526 C527 1.351 . S
C527 C521 1.428 . S
C527 N526 1.351 . S
C527 C528 1.434 . S
C528 C519 1.429 . S
C528 N525 1.350 . S
C528 C527 1.434 . S
C529 C530 1.369 . S
C529 C531 1.419 . S
C529 H533 0.930 . S
C530 C529 1.369 . S
C530 C539 1.429 . S
C531 C529 1.419 . S
C531 C532 1.363 . S
C531 H534 0.929 . S
C532 C531 1.363 . S
C532 C538 1.428 . S
H533 C529 0.930 . S
H534 C531 0.929 . S
S535 N536 1.613 1_545 S
S535 N537 1.610 . S
N536 S535 1.613 1_565 S
N536 C539 1.350 1_565 S
N537 S535 1.610 . S
N537 C538 1.351 . S
C538 C532 1.428 . S
C538 N537 1.351 . S
C538 C539 1.434 . S
C539 C530 1.429 . S
C539 N536 1.350 1_545 S
C539 C538 1.434 . S
C277 N196 1.767 . S
C279 N12 1.766 . S
C288 N35 1.765 . S
C290 N219 1.765 . S
C299 N58 1.769 . S
C301 N242 1.768 . S
C310 N81 1.764 . S
C312 N265 1.765 . S
C321 N150 1.765 . S
C323 N104 1.765 . S
C332 N127 1.766 . S
C334 N173 1.767 . S
C343 N209 1.279 . S
C345 N2 1.292 . S
C354 N25 1.295 . S
C356 N232 1.283 . S
C365 N255 1.280 . S
C367 N48 1.293 . S
C376 N71 1.295 . S
C378 N140 1.283 . S
C387 N163 1.288 . S
C389 N94 1.291 . S
C398 N186 1.281 . S
C400 N117 1.289 . S
C409 C16 1.914 . S
C411 C122 1.869 . S
C420 C39 1.913 . S
C422 C7 1.870 1_655 S
C431 C30 1.873 1_565 S
C433 C62 1.915 . S
C442 C85 1.917 . S
C444 C53 1.873 . S
C453 C108 1.914 . S
C455 C76 1.870 1_455 S
C464 C131 1.916 . S
C466 C99 1.874 1_545 S
C475 C154 1.913 . S
C477 C168 1.870 . S
C486 C177 1.912 . S
C488 C191 1.868 1_655 S
C497 C200 1.912 . S
C499 C214 1.869 1_565 S
C508 C223 1.915 . S
C510 C237 1.873 . S
C519 C246 1.914 . S
C521 C260 1.869 1_455 S
C530 C145 1.867 1_545 S
C532 C269 1.913 . S
