# Generated by pormake.
# Topology umy, (4)-cn, num edge types: 1
# Building blocks:
#     Node 0, Type 0, BuildingBlock: ICAMEG_clean_sbu_1, # of connection points: 4
#     Node 1, Type 0, BuildingBlock: ICAMEG_clean_sbu_1, # of connection points: 4
#     Node 2, Type 0, BuildingBlock: ICAMEG_clean_sbu_1, # of connection points: 4
#     Node 3, Type 0, BuildingBlock: ICAMEG_clean_sbu_1, # of connection points: 4
#     Node 4, Type 0, BuildingBlock: ICAMEG_clean_sbu_1, # of connection points: 4
#     Node 5, Type 0, BuildingBlock: ICAMEG_clean_sbu_1, # of connection points: 4
#     Node 6, Type 0, BuildingBlock: ICAMEG_clean_sbu_1, # of connection points: 4
#     Node 7, Type 0, BuildingBlock: ICAMEG_clean_sbu_1, # of connection points: 4
#     Node 8, Type 0, BuildingBlock: ICAMEG_clean_sbu_1, # of connection points: 4
#     Node 9, Type 0, BuildingBlock: ICAMEG_clean_sbu_1, # of connection points: 4
#     Node 10, Type 0, BuildingBlock: ICAMEG_clean_sbu_1, # of connection points: 4
#     Node 11, Type 0, BuildingBlock: ICAMEG_clean_sbu_1, # of connection points: 4
#     Edge 12, Type (0, 0), BuildingBlock: KIFKEQ_clean_linker_1, # of connection points: 2
#     Edge 13, Type (0, 0), BuildingBlock: KIFKEQ_clean_linker_1, # of connection points: 2
#     Edge 14, Type (0, 0), BuildingBlock: KIFKEQ_clean_linker_1, # of connection points: 2
#     Edge 15, Type (0, 0), BuildingBlock: KIFKEQ_clean_linker_1, # of connection points: 2
#     Edge 16, Type (0, 0), BuildingBlock: KIFKEQ_clean_linker_1, # of connection points: 2
#     Edge 17, Type (0, 0), BuildingBlock: KIFKEQ_clean_linker_1, # of connection points: 2
#     Edge 18, Type (0, 0), BuildingBlock: KIFKEQ_clean_linker_1, # of connection points: 2
#     Edge 19, Type (0, 0), BuildingBlock: KIFKEQ_clean_linker_1, # of connection points: 2
#     Edge 20, Type (0, 0), BuildingBlock: KIFKEQ_clean_linker_1, # of connection points: 2
#     Edge 21, Type (0, 0), BuildingBlock: KIFKEQ_clean_linker_1, # of connection points: 2
#     Edge 22, Type (0, 0), BuildingBlock: KIFKEQ_clean_linker_1, # of connection points: 2
#     Edge 23, Type (0, 0), BuildingBlock: KIFKEQ_clean_linker_1, # of connection points: 2
#     Edge 24, Type (0, 0), BuildingBlock: KIFKEQ_clean_linker_1, # of connection points: 2
#     Edge 25, Type (0, 0), BuildingBlock: KIFKEQ_clean_linker_1, # of connection points: 2
#     Edge 26, Type (0, 0), BuildingBlock: KIFKEQ_clean_linker_1, # of connection points: 2
#     Edge 27, Type (0, 0), BuildingBlock: KIFKEQ_clean_linker_1, # of connection points: 2
#     Edge 28, Type (0, 0), BuildingBlock: KIFKEQ_clean_linker_1, # of connection points: 2
#     Edge 29, Type (0, 0), BuildingBlock: KIFKEQ_clean_linker_1, # of connection points: 2
#     Edge 30, Type (0, 0), BuildingBlock: KIFKEQ_clean_linker_1, # of connection points: 2
#     Edge 31, Type (0, 0), BuildingBlock: KIFKEQ_clean_linker_1, # of connection points: 2
#     Edge 32, Type (0, 0), BuildingBlock: KIFKEQ_clean_linker_1, # of connection points: 2
#     Edge 33, Type (0, 0), BuildingBlock: KIFKEQ_clean_linker_1, # of connection points: 2
#     Edge 34, Type (0, 0), BuildingBlock: KIFKEQ_clean_linker_1, # of connection points: 2
#     Edge 35, Type (0, 0), BuildingBlock: KIFKEQ_clean_linker_1, # of connection points: 2
# Relax obj value: 0.082
# Max RMSD: 0.107
# Mean RMSD: 0.107
data_MOF--net-umy--node1-ICAMEG_clean_sbu_1--edge1-KIFKEQ_clean_linker_1
_symmetry_space_group_name_H-M    P1
_symmetry_Int_Tables_number       1
_symmetry_cell_setting            triclinic
loop_
_symmetry_equiv_pos_as_xyz
'x, y, z'
_cell_length_a     40.823425
_cell_length_b     40.829639
_cell_length_c     57.203299
_cell_angle_alpha  90.01527
_cell_angle_beta   90.012094
_cell_angle_gamma 119.96385
loop_
_atom_site_label
_atom_site_type_symbol
_atom_site_fract_x
_atom_site_fract_y
_atom_site_fract_z
_atom_type_partial_charge
Co0 Co 0.06503 0.31137 0.14329 0.0
Co1 Co 0.07571 0.39361 0.16795 0.0
O2 O 0.07754 0.36435 0.14125 0.0
C3 C 0.14203 0.34874 0.12152 0.0
O4 O 0.15303 0.37657 0.13657 0.0
C5 C 0.03201 0.40691 0.13052 0.0
O6 O 0.01715 0.37164 0.12365 0.0
O7 O 0.02337 0.35292 0.17639 0.0
O8 O 0.02172 0.29954 0.16466 0.0
H9 H 0.0514 0.41284 0.25156 0.0
H10 H 0.07372 0.34686 0.09686 0.0
O11 O 0.10803 0.32138 0.1218 0.0
H12 H 0.94308 0.23951 0.09843 0.0
H13 H 0.04623 0.18836 0.11101 0.0
H14 H 0.04249 0.25551 0.18173 0.0
H15 H 0.98552 0.2526 0.13215 0.0
H16 H 0.06124 0.25475 0.10874 0.0
O17 O 0.05483 0.41904 0.14773 0.0
H18 H 0.05383 0.37655 0.21781 0.0
H19 H 0.09447 0.47371 0.17455 0.0
H20 H 0.02693 0.18901 0.18474 0.0
H21 H 0.03243 0.33456 0.0626 0.0
H22 H 0.02878 0.15499 0.1492 0.0
H23 H 0.96654 0.28063 0.06329 0.0
O24 O 0.09889 0.32223 0.17095 0.0
H25 H 0.17833 0.48125 0.11306 0.0
H26 H 0.14725 0.43912 0.19487 0.0
H27 H 0.21238 0.48771 0.1847 0.0
H28 H 0.22827 0.50915 0.14353 0.0
H29 H 0.11366 0.4324 0.12397 0.0
H30 H 0.09218 0.51096 0.2078 0.0
H31 H 0.07065 0.48056 0.24667 0.0
O32 O 0.09703 0.37008 0.18898 0.0
C33 C 1.00759 0.31688 0.17556 0.0
C34 C 0.06086 0.42642 0.23472 0.0
C35 C 0.08369 0.48147 0.21015 0.0
N36 N 0.07428 0.42296 0.19423 0.0
C37 C 0.06234 0.40602 0.21554 0.0
C38 C 0.08479 0.46018 0.19136 0.0
C39 C 0.07164 0.4644 0.23196 0.0
C40 C 0.04518 0.32316 0.0972 0.0
N41 N 0.03201 0.3005 0.1165 0.0
C42 C 0.02189 0.31642 0.07779 0.0
C43 C 0.9849 0.28619 0.07821 0.0
C44 C 0.97171 0.26315 0.09793 0.0
C45 C 0.99579 0.27079 0.11703 0.0
C46 C 0.04529 0.20286 0.12661 0.0
C47 C 0.04315 0.24083 0.16616 0.0
C48 C 0.05387 0.2405 0.12545 0.0
N49 N 0.05257 0.25894 0.14507 0.0
C50 C 0.0344 0.20321 0.16799 0.0
C51 C 0.03548 0.18415 0.14805 0.0
C52 C 0.10629 0.34457 0.18827 0.0
C53 C 0.17175 0.4722 0.13107 0.0
C54 C 0.15397 0.4481 0.17691 0.0
C55 C 0.19088 0.47575 0.17126 0.0
C56 C 0.19977 0.4878 0.14816 0.0
N57 N 0.12663 0.43292 0.16006 0.0
C58 C 0.13513 0.44465 0.13737 0.0
Co59 Co 0.76921 0.06404 0.31143 0.0
Co60 Co 0.6943 0.06883 0.3346 0.0
O61 O 0.72712 0.0736 0.30833 0.0
C62 C 0.8062 0.13984 0.28834 0.0
O63 O 0.79011 0.15097 0.30386 0.0
C64 C 0.61785 0.02199 0.31341 0.0
O65 O 0.60969 0.99785 0.33063 0.0
O66 O 0.68291 0.01585 0.34044 0.0
O67 O 0.73985 0.0218 0.33405 0.0
H68 H 0.64129 0.03129 0.41571 0.0
H69 H 0.74047 0.06633 0.26428 0.0
O70 O 0.80007 0.106 0.28875 0.0
H71 H 0.72623 0.93944 0.27108 0.0
H72 H 0.8781 0.0507 0.28173 0.0
H73 H 0.80568 0.04831 0.35133 0.0
H74 H 0.75317 0.98509 0.30355 0.0
H75 H 0.82382 0.06115 0.27799 0.0
O76 O 0.65095 0.05081 0.31188 0.0
H77 H 0.68323 0.03828 0.38276 0.0
H78 H 0.63381 0.08885 0.34158 0.0
H79 H 0.85955 0.03738 0.35585 0.0
H80 H 0.71368 0.02165 0.23128 0.0
H81 H 0.89619 0.03856 0.32088 0.0
H82 H 0.7064 0.95768 0.23459 0.0
O83 O 0.79002 0.1003 0.3379 0.0
H84 H 0.7128 0.17829 0.28486 0.0
H85 H 0.71889 0.13681 0.3649 0.0
H86 H 0.7359 0.20303 0.35794 0.0
H87 H 0.73279 0.22414 0.31769 0.0
H88 H 0.6965 0.11244 0.29253 0.0
H89 H 0.59129 0.08236 0.37409 0.0
H90 H 0.59489 0.05341 0.41149 0.0
O91 O 0.73729 0.08751 0.35747 0.0
C92 C 0.70636 1.0039 0.34238 0.0
C93 C 0.63946 0.04397 0.39951 0.0
C94 C 0.61139 0.07262 0.37615 0.0
N95 N 0.66101 0.06398 0.36027 0.0
C96 C 0.66315 0.04801 0.38079 0.0
C97 C 0.63553 0.07621 0.3578 0.0
C98 C 0.61343 0.05638 0.39713 0.0
C99 C 0.73757 0.03861 0.26578 0.0
N100 N 0.74854 0.02839 0.28575 0.0
C101 C 0.7223 0.0134 0.24707 0.0
C102 C 0.71819 0.9775 0.24895 0.0
C103 C 0.72928 0.96723 0.26942 0.0
C104 C 0.74442 0.99317 0.28777 0.0
C105 C 0.86232 0.05006 0.2971 0.0
C106 C 0.82134 0.04865 0.33602 0.0
C107 C 0.83161 0.05605 0.29509 0.0
N108 N 0.81145 0.0551 0.31441 0.0
C109 C 0.85188 0.04254 0.33869 0.0
C110 C 0.87245 0.04324 0.31906 0.0
C111 C 0.77317 0.10226 0.35617 0.0
C112 C 0.71411 0.1694 0.30249 0.0
C113 C 0.7176 0.14577 0.34731 0.0
C114 C 0.72717 0.1833 0.34349 0.0
C115 C 0.72539 0.19512 0.32091 0.0
N116 N 0.70643 0.12065 0.32916 0.0
C117 C 0.70472 0.13208 0.30696 0.0
Co118 Co 0.70805 0.75725 0.47544 0.0
Co119 Co 0.62793 0.68477 0.50173 0.0
O120 O 0.6558 0.71498 0.47437 0.0
C121 C 0.67018 0.79747 0.45481 0.0
O122 O 0.64782 0.78779 0.4731 0.0
C123 C 0.61159 0.62791 0.4631 0.0
O124 O 0.64053 0.65291 0.45095 0.0
O125 O 0.67092 0.67699 0.51091 0.0
O126 O 0.72271 0.72869 0.49748 0.0
H127 H 0.61296 0.64812 0.58657 0.0
H128 H 0.67328 0.72886 0.42886 0.0
O129 O 0.69476 0.78701 0.45313 0.0
H130 H 0.78366 0.71032 0.43171 0.0
H131 H 0.82701 0.86369 0.4406 0.0
H132 H 0.76514 0.79473 0.5129 0.0
H133 H 0.76845 0.73848 0.46513 0.0
H134 H 0.76166 0.81004 0.43967 0.0
O135 O 0.60434 0.6363 0.48316 0.0
H136 H 0.64691 0.68533 0.55182 0.0
H137 H 0.54968 0.62032 0.50978 0.0
H138 H 0.83063 0.84802 0.51458 0.0
H139 H 0.68791 0.70133 0.39482 0.0
H140 H 0.862 0.88292 0.47824 0.0
H141 H 0.74332 0.69168 0.39617 0.0
O142 O 0.6967 0.78048 0.50273 0.0
H143 H 0.53725 0.69227 0.4454 0.0
H144 H 0.57793 0.70615 0.52767 0.0
H145 H 0.5265 0.71819 0.51674 0.0
H146 H 0.50573 0.71114 0.47532 0.0
H147 H 0.58884 0.68099 0.45708 0.0
H148 H 0.51483 0.58221 0.54404 0.0
H149 H 0.54644 0.59612 0.5828 0.0
O150 O 0.64929 0.73124 0.52139 0.0
C151 C 0.7068 0.6982 0.50942 0.0
C152 C 0.59886 0.64184 0.56978 0.0
C153 C 0.54381 0.6048 0.54591 0.0
N154 N 0.6003 0.65513 0.5288 0.0
C155 C 0.61791 0.66287 0.55005 0.0
C156 C 0.56375 0.62641 0.52655 0.0
C157 C 0.56155 0.61264 0.56765 0.0
C158 C 0.69766 0.7251 0.4295 0.0
N159 N 0.71984 0.73505 0.44905 0.0
C160 C 0.7057 0.70933 0.41021 0.0
C161 C 0.73675 0.70386 0.41099 0.0
C162 C 0.75934 0.71423 0.43095 0.0
C163 C 0.75043 0.7299 0.4499 0.0
C164 C 0.81367 0.84867 0.45655 0.0
C165 C 0.77866 0.80962 0.49699 0.0
C166 C 0.77663 0.81832 0.45614 0.0
N167 N 0.75966 0.79912 0.4762 0.0
C168 C 0.81572 0.83984 0.49806 0.0
C169 C 0.83329 0.85944 0.47767 0.0
C170 C 0.67419 0.76615 0.52002 0.0
C171 C 0.54596 0.69532 0.46352 0.0
C172 C 0.56923 0.70322 0.50963 0.0
C173 C 0.53998 0.70995 0.50353 0.0
C174 C 0.52832 0.70596 0.4803 0.0
N175 N 0.58633 0.69265 0.4931 0.0
C176 C 0.57509 0.68879 0.47027 0.0
Co177 Co 0.9648 0.71821 0.6445 0.0
Co178 Co 0.95971 0.63804 0.66709 0.0
O179 O 0.95508 0.66656 0.64106 0.0
C180 C 0.88891 0.67964 0.62157 0.0
O181 O 0.87816 0.65231 0.63695 0.0
C182 C 1.00613 0.60818 0.64557 0.0
O183 O 0.03023 0.62358 0.66289 0.0
O184 O 1.01275 0.67935 0.67309 0.0
O185 O 1.00716 0.73064 0.66702 0.0
H186 H 0.99702 0.62106 0.74797 0.0
H187 H 0.96217 0.68772 0.59714 0.0
O188 O 0.92268 0.70748 0.62195 0.0
H189 H 0.08933 0.79983 0.60415 0.0
H190 H 0.97835 0.84089 0.61563 0.0
H191 H 0.98101 0.76998 0.68469 0.0
H192 H 0.0438 0.78095 0.63669 0.0
H193 H 0.96758 0.77611 0.61148 0.0
O194 O 0.97758 0.61294 0.64412 0.0
H195 H 0.99028 0.65664 0.7153 0.0
H196 H 0.93928 0.55733 0.67354 0.0
H197 H 0.99227 0.83482 0.68962 0.0
H198 H 1.00671 0.70578 0.56406 0.0
H199 H 0.99096 0.87072 0.65492 0.0
H200 H 0.07081 0.7622 0.56748 0.0
O201 O 0.92865 0.70257 0.67103 0.0
H202 H 0.85015 0.54817 0.61698 0.0
H203 H 0.89163 0.59445 0.69725 0.0
H204 H 0.82535 0.54558 0.69011 0.0
H205 H 0.80424 0.52201 0.64974 0.0
H206 H 0.91606 0.59739 0.62484 0.0
H207 H 0.94552 0.52068 0.70576 0.0
H208 H 0.97455 0.55257 0.74331 0.0
O209 O 0.94114 0.66208 0.6902 0.0
C210 C 0.0249 0.71476 0.67522 0.0
C211 C 0.98431 0.60684 0.7317 0.0
C212 C 0.95541 0.55051 0.70801 0.0
N213 N 0.9644 0.60911 0.69253 0.0
C214 C 0.98041 0.62685 0.71313 0.0
C215 C 0.95197 0.57141 0.68982 0.0
C216 C 0.9717 0.56842 0.72907 0.0
C217 C 0.98995 0.71242 0.59868 0.0
N218 N 1.00031 0.73336 0.61875 0.0
C219 C 0.01507 0.72246 0.57993 0.0
C220 C 0.05105 0.75409 0.58187 0.0
C221 C 0.06147 0.77521 0.60244 0.0
C222 C 0.03561 0.76432 0.62083 0.0
C223 C 0.97905 0.82556 0.63088 0.0
C224 C 0.98061 0.7855 0.66949 0.0
C225 C 0.97288 0.78884 0.62864 0.0
N226 N 0.97391 0.76938 0.64781 0.0
C227 C 0.98691 0.82217 0.6724 0.0
C228 C 0.98614 0.84229 0.65293 0.0
C229 C 0.9265 0.68333 0.68912 0.0
C230 C 0.85905 0.55809 0.63466 0.0
C231 C 0.88267 0.58448 0.67961 0.0
C232 C 0.84511 0.55671 0.67569 0.0
C233 C 0.83329 0.54348 0.65304 0.0
N234 N 0.90783 0.59861 0.6615 0.0
C235 C 0.8964 0.58582 0.63924 0.0
Co236 Co 0.27209 0.95919 0.81018 0.0
Co237 Co 0.34141 0.95061 0.83901 0.0
O238 O 0.3128 0.94716 0.81072 0.0
C239 C 0.2309 0.88162 0.78903 0.0
O240 O 0.23848 0.86815 0.80783 0.0
C241 C 0.4012 0.99264 0.80321 0.0
O242 O 0.38252 0.00941 0.79641 0.0
O243 O 0.3533 1.00369 0.8448 0.0
O244 O 0.29999 1.00192 0.83289 0.0
H245 H 0.38008 0.98215 0.92312 0.0
H246 H 0.30553 0.9532 0.76556 0.0
O247 O 0.24307 0.917 0.78717 0.0
H248 H 0.32653 0.08306 0.7671 0.0
H249 H 0.17127 0.97704 0.7715 0.0
H250 H 0.2329 0.97942 0.84614 0.0
H251 H 0.29319 0.03893 0.79947 0.0
H252 H 0.22347 0.96308 0.77257 0.0
O253 O 0.38875 0.96902 0.82001 0.0
H254 H 0.34379 0.97734 0.88756 0.0
H255 H 0.40111 0.93117 0.85007 0.0
H256 H 0.18103 0.9939 0.84582 0.0
H257 H 0.33865 0.99625 0.73267 0.0
H258 H 0.14983 0.99274 0.8083 0.0
H259 H 0.34945 0.06175 0.73336 0.0
O260 O 0.24618 0.92411 0.83686 0.0
H261 H 0.32782 0.84217 0.79018 0.0
H262 H 0.31149 0.88154 0.86879 0.0
H263 H 0.29423 0.8152 0.86192 0.0
H264 H 0.30244 0.79515 0.82239 0.0
H265 H 0.34445 0.90818 0.79777 0.0
H266 H 0.43825 0.93575 0.88517 0.0
H267 H 0.42773 0.96127 0.92207 0.0
O268 O 0.29517 0.93187 0.85881 0.0
C269 C 0.33154 0.01777 0.84381 0.0
C270 C 0.38487 0.97091 0.90717 0.0
C271 C 0.41756 0.94493 0.88586 0.0
N272 N 0.37021 0.95388 0.86678 0.0
C273 C 0.36435 0.96805 0.88699 0.0
C274 C 0.39652 0.94251 0.86601 0.0
C275 C 0.41163 0.95923 0.90656 0.0
C276 C 0.30985 0.98156 0.76588 0.0
N277 N 0.29744 0.99354 0.78441 0.0
C278 C 0.32874 1.00585 0.74726 0.0
C279 C 0.33484 0.04262 0.74767 0.0
C280 C 0.32204 0.05461 0.76661 0.0
C281 C 0.30331 0.02955 0.78494 0.0
C282 C 0.18468 0.9777 0.78795 0.0
C283 C 0.21962 0.97908 0.82972 0.0
C284 C 0.2142 0.96973 0.78868 0.0
N285 N 0.23138 0.97068 0.80938 0.0
C286 C 0.19019 0.98721 0.82966 0.0
C287 C 0.17268 0.98652 0.8086 0.0
C288 C 0.26 0.91979 0.85586 0.0
C289 C 0.32423 0.85059 0.8075 0.0
C290 C 0.31509 0.87304 0.85153 0.0
C291 C 0.30533 0.83544 0.84775 0.0
C292 C 0.30995 0.82421 0.82557 0.0
N293 N 0.32921 0.89878 0.83373 0.0
C294 C 0.33373 0.88796 0.81192 0.0
Co295 Co 0.31657 0.25918 0.97802 0.0
Co296 Co 0.39584 0.3284 1.00597 0.0
O297 O 0.36977 0.29906 0.97799 0.0
C298 C 0.35454 0.22028 0.95597 0.0
O299 O 0.38105 0.23521 0.97201 0.0
C300 C 0.41441 0.38726 0.96938 0.0
O301 O 0.37895 0.36884 0.9626 0.0
O302 O 0.35565 0.3418 0.01157 0.0
O303 O 0.30329 0.28898 1.00011 0.0
H304 H 0.40512 0.37014 0.08957 0.0
H305 H 0.35553 0.28982 0.93294 0.0
O306 O 0.32774 0.22778 0.95578 0.0
H307 H 0.24915 0.31476 0.93372 0.0
H308 H 0.19562 0.15913 0.9411 0.0
H309 H 0.25791 0.22277 0.01467 0.0
H310 H 0.25927 0.28196 0.96672 0.0
H311 H 0.2623 0.21009 0.94123 0.0
O312 O 0.4253 0.37501 0.98643 0.0
H313 H 0.3726 0.3331 0.05444 0.0
H314 H 0.47563 0.38704 0.01636 0.0
H315 H 0.19107 0.17218 0.0153 0.0
H316 H 0.34626 0.32236 0.89942 0.0
H317 H 0.1595 0.13996 0.97832 0.0
H318 H 0.29281 0.33513 0.89972 0.0
O319 O 0.32546 0.23375 1.00504 0.0
H320 H 0.48921 0.31173 0.95756 0.0
H321 H 0.43383 0.29754 0.03609 0.0
H322 H 0.48194 0.27884 0.0295 0.0
H323 H 0.51003 0.28596 0.99001 0.0
H324 H 0.44073 0.32972 0.96485 0.0
H325 H 0.50922 0.4249 0.05103 0.0
H326 H 0.47395 0.41646 0.08799 0.0
O327 O 0.36778 0.28295 0.02637 0.0
C328 C 0.31972 0.32081 0.01068 0.0
C329 C 0.42083 0.37403 0.07358 0.0
C330 C 0.47923 0.40479 0.05194 0.0
N331 N 0.42219 0.35778 0.03339 0.0
C332 C 0.40257 0.35307 0.05364 0.0
C333 C 0.46003 0.38335 0.03234 0.0
C334 C 0.45943 0.40003 0.07268 0.0
C335 C 0.33203 0.295 0.9331 0.0
N336 N 0.30796 0.284 0.95176 0.0
C337 C 0.327 0.31356 0.91411 0.0
C338 C 0.29704 0.32077 0.91431 0.0
C339 C 0.27257 0.30939 0.93339 0.0
C340 C 0.27852 0.29097 0.95208 0.0
C341 C 0.20905 0.17298 0.95732 0.0
C342 C 0.24431 0.20903 0.99849 0.0
C343 C 0.24683 0.20179 0.95751 0.0
N344 N 0.26393 0.21953 0.97792 0.0
C345 C 0.20648 0.18034 0.99896 0.0
C346 C 0.18879 0.16225 0.97821 0.0
C347 C 0.34387 0.24788 0.02391 0.0
C348 C 0.47727 0.30861 0.97486 0.0
C349 C 0.44582 0.30062 0.01883 0.0
C350 C 0.47312 0.29006 0.01522 0.0
C351 C 0.48889 0.2941 0.99307 0.0
N352 N 0.43461 0.31489 1.00089 0.0
C353 C 0.44993 0.31891 0.97912 0.0
Co354 Co 0.72123 0.95562 0.70603 0.0
Co355 Co 0.63921 0.9506 0.68623 0.0
O356 O 0.67006 0.94664 0.71102 0.0
C357 C 0.68239 0.87981 0.72888 0.0
O358 O 0.65414 0.86996 0.71431 0.0
C359 C 0.61345 1.00002 0.70823 0.0
O360 O 0.62761 0.02279 0.6902 0.0
O361 O 0.68072 1.00277 0.67816 0.0
O362 O 0.73275 0.99833 0.68415 0.0
H363 H 0.6144 0.98311 0.60589 0.0
H364 H 0.69353 0.95252 0.75431 0.0
O365 O 0.71112 0.913 0.72796 0.0
H366 H 0.80612 0.07917 0.74655 0.0
H367 H 0.8446 0.96686 0.7313 0.0
H368 H 0.7709 0.97243 0.66466 0.0
H369 H 0.78493 0.03417 0.71362 0.0
H370 H 0.78037 0.95678 0.73723 0.0
O371 O 0.61771 0.9712 0.70993 0.0
H372 H 0.65289 0.97755 0.63719 0.0
H373 H 0.55851 0.93195 0.68309 0.0
H374 H 0.83514 0.98299 0.65797 0.0
H375 H 0.71393 0.99652 0.78778 0.0
H376 H 0.87245 0.98021 0.69144 0.0
H377 H 0.7706 0.06037 0.784 0.0
O378 O 0.7041 0.92003 0.67906 0.0
H379 H 0.55397 0.84615 0.74094 0.0
H380 H 0.59009 0.88076 0.65856 0.0
H381 H 0.54104 0.81564 0.66831 0.0
H382 H 0.52258 0.79799 0.70977 0.0
H383 H 0.6033 0.91081 0.73043 0.0
H384 H 0.51903 0.93707 0.65229 0.0
H385 H 0.54695 0.96279 0.61335 0.0
O386 O 0.65954 0.92935 0.66247 0.0
C387 C 0.7162 0.01535 0.67587 0.0
C388 C 0.6019 0.97185 0.62278 0.0
C389 C 0.54838 0.94602 0.64882 0.0
N390 N 0.608 0.95445 0.66195 0.0
C391 C 0.62356 0.96863 0.64057 0.0
C392 C 0.57088 0.9432 0.66619 0.0
C393 C 0.56407 0.96045 0.62698 0.0
C394 C 0.71834 0.98018 0.7526 0.0
N395 N 0.73813 0.9907 0.7321 0.0
C396 C 0.7297 1.00501 0.77158 0.0
C397 C 0.76147 0.04084 0.76943 0.0
C398 C 0.78141 0.05142 0.74842 0.0
C399 C 0.76921 0.02586 0.72981 0.0
C400 C 0.82865 0.96819 0.71658 0.0
C401 C 0.78703 0.97139 0.67933 0.0
C402 C 0.79223 0.96241 0.71982 0.0
N403 N 0.77199 0.96423 0.70133 0.0
C404 C 0.82336 0.9773 0.67543 0.0
C405 C 0.84426 0.9757 0.69421 0.0
C406 C 0.68212 0.91623 0.66212 0.0
C407 C 0.56168 0.85353 0.7228 0.0
C408 C 0.58245 0.87327 0.67664 0.0
C409 C 0.55451 0.83637 0.68205 0.0
C410 C 0.54414 0.8265 0.70531 0.0
N411 N 0.59952 0.89967 0.69388 0.0
C412 C 0.58947 0.89017 0.71673 0.0
Co413 Co 0.75636 0.69539 0.87432 0.0
Co414 Co 0.68743 0.61872 0.8444 0.0
O415 O 0.71572 0.64273 0.873 0.0
C416 C 0.79759 0.65845 0.89452 0.0
O417 O 0.79031 0.63823 0.87536 0.0
C418 C 0.62744 0.59993 0.88014 0.0
O419 O 0.64608 0.63523 0.88719 0.0
O420 O 0.67565 0.66019 0.83933 0.0
O421 O 0.72881 0.71108 0.85199 0.0
H422 H 0.64981 0.61486 0.76034 0.0
H423 H 0.72249 0.65427 0.9184 0.0
O424 O 0.78514 0.68135 0.89694 0.0
H425 H 0.70094 0.76282 0.91872 0.0
H426 H 0.85648 0.81242 0.91473 0.0
H427 H 0.79601 0.75623 0.83927 0.0
H428 H 0.73479 0.75339 0.88606 0.0
H429 H 0.80437 0.74635 0.91267 0.0
O430 O 0.63989 0.58914 0.86314 0.0
H431 H 0.68565 0.64493 0.79628 0.0
H432 H 0.62782 0.54011 0.83226 0.0
H433 H 0.8478 0.8225 0.84057 0.0
H434 H 0.68885 0.66282 0.95156 0.0
H435 H 0.87842 0.85101 0.87851 0.0
H436 H 0.67777 0.71737 0.95181 0.0
O437 O 0.78261 0.68736 0.84737 0.0
H438 H 0.70041 0.52196 0.89155 0.0
H439 H 0.7177 0.5807 0.81385 0.0
H440 H 0.73485 0.53132 0.8198 0.0
H441 H 0.72616 0.50154 0.85887 0.0
H442 H 0.68389 0.57166 0.88488 0.0
H443 H 0.59113 0.50896 0.79675 0.0
H444 H 0.60213 0.54637 0.76042 0.0
O445 O 0.73393 0.64694 0.82492 0.0
C446 C 0.6975 0.69595 0.84083 0.0
C447 C 0.64481 0.59823 0.77604 0.0
C448 C 0.61184 0.53881 0.79649 0.0
N449 N 0.65895 0.5943 0.81633 0.0
C450 C 0.66507 0.61509 0.79644 0.0
C451 C 0.63262 0.55664 0.81656 0.0
C452 C 0.61804 0.55982 0.77611 0.0
C453 C 0.71807 0.67825 0.91849 0.0
N454 N 0.73062 0.70332 0.90033 0.0
C455 C 0.69887 0.68287 0.93727 0.0
C456 C 0.69261 0.71344 0.93738 0.0
C457 C 0.70556 0.73893 0.9188 0.0
C458 C 0.72459 0.73337 0.90031 0.0
C459 C 0.84332 0.80033 0.8981 0.0
C460 C 0.80903 0.7685 0.85587 0.0
C461 C 0.81386 0.76291 0.89681 0.0
N462 N 0.79699 0.74752 0.87589 0.0
C463 C 0.83842 0.80601 0.85648 0.0
C464 C 0.85561 0.82197 0.87777 0.0
C465 C 0.76904 0.67001 0.82812 0.0
C466 C 0.7042 0.53464 0.87443 0.0
C467 C 0.71388 0.56792 0.83092 0.0
C468 C 0.72359 0.53993 0.83417 0.0
C469 C 0.7187 0.52323 0.85609 0.0
N470 N 0.69956 0.57887 0.84897 0.0
C471 C 0.69477 0.56269 0.87052 0.0
Co472 Co 0.06498 0.76176 0.03802 0.0
Co473 Co 0.07215 0.68838 0.01437 0.0
O474 O 0.07543 0.72021 0.04087 0.0
C475 C 0.1401 0.79865 0.0619 0.0
O476 O 0.15156 0.78257 0.04659 0.0
C477 C 0.02533 0.61116 0.03436 0.0
O478 O 1.00218 0.60319 0.01659 0.0
O479 O 0.01916 0.67634 1.00786 0.0
O480 O 0.0233 0.73232 0.01502 0.0
H481 H 0.03834 0.63771 0.9325 0.0
H482 H 0.06699 0.73227 0.08496 0.0
O483 O 0.10632 0.79266 0.06108 0.0
H484 H 0.93921 0.71569 0.07751 0.0
H485 H 0.04872 0.86855 0.06841 0.0
H486 H 0.04897 0.79834 0.99832 0.0
H487 H 0.9854 0.74409 0.04545 0.0
H488 H 0.06038 0.81501 0.07182 0.0
O489 O 0.05372 0.64441 0.03659 0.0
H490 H 0.04328 0.67829 0.96581 0.0
H491 H 0.09375 0.62906 1.00725 0.0
H492 H 0.03685 0.85149 0.99414 0.0
H493 H 0.02177 0.70403 0.11756 0.0
H494 H 0.03669 0.88701 0.02936 0.0
H495 H 0.95736 0.69558 0.11393 0.0
O496 O 0.10172 0.78378 0.01187 0.0
H497 H 0.18013 0.7066 0.06555 0.0
H498 H 0.14152 0.71503 0.98511 0.0
H499 H 0.20771 0.73273 0.99301 0.0
H500 H 0.22737 0.72845 0.03346 0.0
H501 H 0.11434 0.68967 0.05695 0.0
H502 H 0.08931 0.5879 0.97438 0.0
H503 H 0.06146 0.59211 0.93667 0.0
O504 O 0.09111 0.73197 0.99198 0.0
C505 C 1.00634 0.6991 1.00623 0.0
C506 C 0.05055 0.63563 0.94884 0.0
C507 C 0.07916 0.60767 0.97234 0.0
N508 N 0.06883 0.6561 0.98844 0.0
C509 C 0.05344 0.65854 0.96776 0.0
C510 C 0.08159 0.63104 0.99089 0.0
C511 C 0.06352 0.61005 0.95119 0.0
C512 C 0.03907 0.72886 0.08332 0.0
N513 N 0.02891 0.73998 0.0634 0.0
C514 C 1.01356 0.71277 0.1018 0.0
C515 C 0.97741 0.708 0.09975 0.0
C516 C 0.9672 0.71926 0.07931 0.0
C517 C 0.99344 0.73522 0.06119 0.0
C518 C 0.04865 0.85326 0.05294 0.0
C519 C 0.04873 0.81352 0.01374 0.0
C520 C 0.05533 0.82297 0.05475 0.0
N521 N 0.05511 0.80341 0.0353 0.0
C522 C 0.04194 0.84365 0.01126 0.0
C523 C 0.0419 0.86359 0.03102 0.0
C524 C 0.1049 0.76769 0.99359 0.0
C525 C 0.17187 0.70843 0.04784 0.0
C526 C 0.14986 0.71324 1.00278 0.0
C527 C 0.18737 0.72319 1.00713 0.0
C528 C 0.19838 0.72076 0.02983 0.0
N529 N 0.12397 0.70106 0.02053 0.0
C530 C 0.13459 0.69868 0.04283 0.0
Co531 Co 0.31302 0.05681 0.20837 0.0
Co532 Co 0.39263 0.06672 0.18102 0.0
O533 O 0.36619 0.07001 0.2088 0.0
C534 C 0.35012 0.13372 0.23025 0.0
O535 O 0.37646 0.14564 0.21411 0.0
C536 C 0.41133 0.02679 0.21797 0.0
O537 O 0.37583 0.00946 0.22468 0.0
O538 O 0.35254 0.01311 0.17534 0.0
O539 O 0.3001 0.01391 0.18625 0.0
H540 H 0.40309 0.03426 0.09761 0.0
H541 H 0.35123 0.0648 0.25372 0.0
O542 O 0.32386 0.09922 0.23061 0.0
H543 H 0.24473 0.93369 0.25236 0.0
H544 H 0.19146 0.03588 0.24438 0.0
H545 H 0.25502 0.03494 0.17129 0.0
H546 H 0.25545 0.97678 0.21937 0.0
H547 H 0.25812 0.05146 0.24475 0.0
O548 O 0.42203 0.0498 0.20086 0.0
H549 H 0.37007 0.03878 0.13247 0.0
H550 H 0.47261 0.08798 0.17111 0.0
H551 H 0.1882 0.01881 0.17016 0.0
H552 H 0.34135 0.02282 0.28724 0.0
H553 H 0.15599 0.01925 0.2069 0.0
H554 H 0.28783 0.95671 0.28665 0.0
O555 O 0.32242 0.09129 0.18136 0.0
H556 H 0.48495 0.17701 0.22965 0.0
H557 H 0.43089 0.13542 0.15085 0.0
H558 H 0.47868 0.20227 0.15749 0.0
H559 H 0.50611 0.22343 0.19712 0.0
H560 H 0.43681 0.11049 0.22229 0.0
H561 H 0.5067 0.08374 0.13671 0.0
H562 H 0.47192 0.05684 0.09959 0.0
O563 O 0.36474 0.08399 0.16032 0.0
C564 C 0.31661 0.99839 0.17591 0.0
C565 C 0.41857 0.04609 0.11367 0.0
C566 C 0.4767 0.0738 0.13563 0.0
N567 N 0.41937 0.06369 0.1538 0.0
C568 C 0.40003 0.04877 0.13346 0.0
C569 C 0.45721 0.07602 0.15507 0.0
C570 C 0.45718 0.05873 0.1148 0.0
C571 C 0.32771 0.03616 0.25343 0.0
N572 N 0.30395 0.02324 0.23461 0.0
C573 C 0.32233 0.01248 0.27242 0.0
C574 C 0.29234 0.97537 0.27206 0.0
C575 C 0.26818 0.96243 0.25281 0.0
C576 C 0.27447 0.98689 0.23413 0.0
C577 C 0.20517 0.03555 0.22826 0.0
C578 C 0.24114 0.03499 0.18737 0.0
C579 C 0.24295 0.04446 0.22835 0.0
N580 N 0.2604 0.04394 0.20807 0.0
C581 C 0.20333 0.02592 0.18661 0.0
C582 C 0.18528 0.02621 0.20722 0.0
C583 C 0.34098 0.0954 0.16259 0.0
C584 C 0.47331 0.1681 0.21229 0.0
C585 C 0.4426 0.14442 0.16816 0.0
C586 C 0.46972 0.1823 0.1718 0.0
C587 C 0.48512 0.19415 0.19404 0.0
N588 N 0.43121 0.11902 0.18615 0.0
C589 C 0.44616 0.13044 0.20799 0.0
Co590 Co 0.25763 0.30469 0.37427 0.0
Co591 Co 0.33151 0.38702 0.35076 0.0
O592 O 0.29932 0.35718 0.37707 0.0
C593 C 0.21978 0.34379 0.39636 0.0
O594 O 0.23809 0.37219 0.38189 0.0
C595 C 0.38547 0.40361 0.39137 0.0
O596 O 0.35909 0.37603 0.40373 0.0
O597 O 0.341 0.34523 0.34145 0.0
O598 O 0.28881 0.29217 0.353 0.0
H599 H 0.37482 0.40749 0.26709 0.0
H600 H 0.28162 0.3368 0.42182 0.0
O601 O 0.22485 0.31541 0.39559 0.0
H602 H 0.30252 0.22793 0.41869 0.0
H603 H 0.14983 0.18233 0.40457 0.0
H604 H 0.22423 0.25028 0.33507 0.0
H605 H 0.27655 0.24439 0.38466 0.0
H606 H 0.20255 0.24792 0.40786 0.0
O607 O 0.37863 0.41011 0.37067 0.0
H608 H 0.33528 0.37113 0.30054 0.0
H609 H 0.39551 0.46615 0.34507 0.0
H610 H 0.17196 0.18459 0.33104 0.0
H611 H 0.30693 0.32093 0.45646 0.0
H612 H 0.13432 0.15018 0.36596 0.0
H613 H 0.31775 0.26626 0.45498 0.0
O614 O 0.23627 0.31739 0.3466 0.0
H615 H 0.31845 0.4744 0.40724 0.0
H616 H 0.31004 0.43671 0.32463 0.0
H617 H 0.29618 0.48694 0.33544 0.0
H618 H 0.30048 0.50623 0.37703 0.0
H619 H 0.33152 0.42399 0.39571 0.0
H620 H 0.43589 0.5034 0.31214 0.0
H621 H 0.42557 0.47413 0.27278 0.0
O622 O 0.28667 0.36605 0.3297 0.0
C623 C 0.32028 0.30924 0.34209 0.0
C624 C 0.37955 0.42058 0.28415 0.0
C625 C 0.41387 0.47439 0.30944 0.0
N626 N 0.36297 0.41648 0.32473 0.0
C627 C 0.35721 0.40015 0.30315 0.0
C628 C 0.39099 0.45309 0.32804 0.0
C629 C 0.40805 0.45796 0.28736 0.0
C630 C 0.28594 0.31278 0.42111 0.0
N631 N 0.27789 0.29173 0.40116 0.0
C632 C 0.30043 0.30402 0.44075 0.0
C633 C 0.30655 0.27338 0.43989 0.0
C634 C 0.29809 0.25192 0.41952 0.0
C635 C 0.28367 0.26155 0.40022 0.0
C636 C 0.16605 0.19701 0.38923 0.0
C637 C 0.20813 0.23542 0.35037 0.0
C638 C 0.19587 0.2342 0.39097 0.0
N639 N 0.21657 0.25286 0.37169 0.0
C640 C 0.1785 0.19826 0.34797 0.0
C641 C 0.15737 0.17899 0.36756 0.0
C642 C 0.25182 0.34079 0.32986 0.0
C643 C 0.3167 0.46641 0.38905 0.0
C644 C 0.31189 0.44481 0.34275 0.0
C645 C 0.30409 0.47337 0.34877 0.0
C646 C 0.30653 0.4842 0.3721 0.0
N647 N 0.32204 0.4276 0.35945 0.0
C648 C 0.32435 0.438 0.38237 0.0
Co649 Co 0.95956 0.26434 0.54202 0.0
Co650 Co 0.95265 0.33505 0.51384 0.0
O651 O 0.9484 0.30565 0.54188 0.0
C652 C 0.88175 0.22316 0.5629 0.0
O653 O 0.86836 0.23072 0.54406 0.0
C654 C 0.99466 0.39394 0.55022 0.0
O655 O 1.01106 0.37485 0.55693 0.0
O656 O 1.00561 0.34633 0.50824 0.0
O657 O 1.00248 0.29212 0.51946 0.0
H658 H 0.98581 0.37548 0.43013 0.0
H659 H 0.95403 0.29727 0.58698 0.0
O660 O 0.91714 0.2354 0.56488 0.0
H661 H 0.08314 0.31622 0.58526 0.0
H662 H 0.97524 0.16157 0.57975 0.0
H663 H 0.97905 0.22512 0.50566 0.0
H664 H 0.03895 0.28406 0.55269 0.0
H665 H 0.96239 0.21452 0.57918 0.0
O666 O 0.97131 0.38202 0.53327 0.0
H667 H 0.98001 0.33823 0.46538 0.0
H668 H 0.93428 0.39564 0.50323 0.0
H669 H 0.99243 0.17252 0.50547 0.0
H670 H 0.99714 0.3292 0.62007 0.0
H671 H 0.99055 0.14035 0.54271 0.0
H672 H 0.06226 0.33896 0.6193 0.0
O673 O 0.92452 0.2394 0.51517 0.0
H674 H 0.84408 0.3218 0.56237 0.0
H675 H 0.88407 0.30664 0.48368 0.0
H676 H 0.81786 0.29007 0.4903 0.0
H677 H 0.7975 0.29769 0.52987 0.0
H678 H 0.90996 0.33776 0.55503 0.0
H679 H 0.93985 0.43374 0.46843 0.0
H680 H 0.96565 0.42367 0.43152 0.0
O681 O 0.93365 0.28922 0.49362 0.0
C682 C 0.01899 0.32395 0.50888 0.0
C683 C 0.97446 0.38009 0.44609 0.0
C684 C 0.94872 0.41282 0.4676 0.0
N685 N 0.95672 0.36464 0.48632 0.0
C686 C 0.97104 0.35902 0.4661 0.0
C687 C 0.94575 0.39124 0.48727 0.0
C688 C 0.96318 0.40714 0.44689 0.0
C689 C 0.98222 0.30113 0.58662 0.0
N690 N 0.99396 0.28879 0.56793 0.0
C691 C 1.00655 0.31936 0.60536 0.0
C692 C 0.0431 0.32488 0.6049 0.0
C693 C 0.05485 0.31217 0.58579 0.0
C694 C 0.02976 0.29411 0.56735 0.0
C695 C 0.97621 0.1754 0.56342 0.0
C696 C 0.9784 0.21142 0.52196 0.0
C697 C 0.96886 0.20534 0.56297 0.0
N698 N 0.97021 0.22306 0.54242 0.0
C699 C 0.9859 0.18158 0.52173 0.0
C700 C 0.98481 0.16352 0.54263 0.0
C701 C 0.92089 0.25387 0.49626 0.0
C702 C 0.85264 0.31847 0.54504 0.0
C703 C 0.87543 0.30998 0.50097 0.0
C704 C 0.83791 0.30061 0.50459 0.0
C705 C 0.82651 0.3049 0.5268 0.0
N706 N 0.90093 0.3234 0.51893 0.0
C707 C 0.88994 0.32759 0.54076 0.0
H708 H 0.07314 0.61649 0.06949 0.0
H709 H 0.97022 0.53612 0.03442 0.0
H710 H 0.0711 0.56591 0.09282 0.0
H711 H 0.96754 0.4853 0.05841 0.0
H712 H 0.04464 0.47554 0.14553 0.0
H713 H 0.03877 0.52324 0.1236 0.0
H714 H 0.99877 0.4489 0.06366 0.0
H715 H 1.00358 0.40041 0.08606 0.0
C716 C 0.04968 0.58808 0.06699 0.0
C717 C 0.02182 0.5805 0.05004 0.0
C718 C 0.04839 0.55895 0.08051 0.0
C719 C 0.01908 0.52133 0.07762 0.0
C720 C 0.99079 0.5138 0.06094 0.0
C721 C 0.99216 0.54302 0.04731 0.0
C722 C 0.0343 0.46916 0.12772 0.0
C723 C 0.02486 0.43421 0.1175 0.0
C724 C 0.03114 0.4967 0.11506 0.0
C725 C 0.01884 0.49032 0.09167 0.0
C726 C 1.00809 0.45479 0.08167 0.0
C727 C 1.01095 0.42698 0.09447 0.0
H728 H 0.54383 0.96476 0.31082 0.0
H729 H 0.62265 0.07304 0.28072 0.0
H730 H 0.49317 0.96255 0.2869 0.0
H731 H 0.57213 0.07148 0.25754 0.0
H732 H 0.48289 0.04735 0.20393 0.0
H733 H 0.53158 0.04258 0.2255 0.0
H734 H 0.45429 0.99088 0.28325 0.0
H735 H 0.40493 0.99454 0.26117 0.0
C736 C 0.55043 0.98802 0.29904 0.0
C737 C 0.58743 0.019 0.29768 0.0
C738 C 0.52126 0.98691 0.28546 0.0
C739 C 0.52834 0.01684 0.27022 0.0
C740 C 0.56553 0.04753 0.26869 0.0
C741 C 0.59463 0.04853 0.28213 0.0
C742 C 0.47612 0.03473 0.22118 0.0
C743 C 0.43999 0.02151 0.23085 0.0
C744 C 0.50422 0.0322 0.23366 0.0
C745 C 0.49722 0.01675 0.25631 0.0
C746 C 0.46073 1.00263 0.26578 0.0
C747 C 0.43241 1.00486 0.25316 0.0
H748 H 0.56587 0.56096 0.48498 0.0
H749 H 0.59286 0.6135 0.41698 0.0
H750 H 0.51503 0.50322 0.46797 0.0
H751 H 0.54031 0.55715 0.40003 0.0
H752 H 0.45392 0.4462 0.37031 0.0
H753 H 0.51188 0.49634 0.38756 0.0
H754 H 0.45499 0.47655 0.45429 0.0
H755 H 0.39831 0.42463 0.43723 0.0
C756 C 0.56089 0.56003 0.46632 0.0
C757 C 0.58342 0.59166 0.45229 0.0
C758 C 0.53134 0.52703 0.45653 0.0
C759 C 0.52272 0.52512 0.43251 0.0
C760 C 0.54608 0.55675 0.41846 0.0
C761 C 0.57629 0.58936 0.42818 0.0
C762 C 0.45421 0.45222 0.38878 0.0
C763 C 0.42165 0.43139 0.40244 0.0
C764 C 0.48737 0.48138 0.39869 0.0
C765 C 0.48856 0.49133 0.42242 0.0
C766 C 0.45595 0.46969 0.43613 0.0
C767 C 0.42313 0.43985 0.42633 0.0
H768 H 0.06196 0.58928 0.64327 0.0
H769 H 0.95521 0.56364 0.61231 0.0
H770 H 0.06291 0.54024 0.61926 0.0
H771 H 0.95549 0.51414 0.58906 0.0
H772 H 0.97718 0.44702 0.53582 0.0
H773 H 0.98395 0.50142 0.55726 0.0
H774 H 0.03259 0.47292 0.61544 0.0
H775 H 0.02698 0.41897 0.59348 0.0
C776 C 0.0388 0.57336 0.63127 0.0
C777 C 1.00858 0.58059 0.62972 0.0
C778 C 0.03917 0.54497 0.61764 0.0
C779 C 1.00926 0.52301 0.60216 0.0
C780 C 0.9794 0.53077 0.6004 0.0
C781 C 0.97914 0.55919 0.61389 0.0
C782 C 0.98957 0.45245 0.55313 0.0
C783 C 1.00133 0.42845 0.56297 0.0
C784 C 0.99325 0.48361 0.56553 0.0
C785 C 1.00841 0.49151 0.58828 0.0
C786 C 0.02114 0.46806 0.5979 0.0
C787 C 0.01777 0.43697 0.58535 0.0
H788 H 0.5956 0.0566 0.71006 0.0
H789 H 0.57026 0.95109 0.74267 0.0
H790 H 0.54743 0.05894 0.73418 0.0
H791 H 0.52154 0.95268 0.76602 0.0
H792 H 0.42644 0.02411 0.75984 0.0
H793 H 0.48039 0.02916 0.73821 0.0
H794 H 0.5088 0.98195 0.79721 0.0
H795 H 0.4543 0.97564 0.81831 0.0
C796 C 0.57997 0.03404 0.72247 0.0
C797 C 0.58696 1.00371 0.72441 0.0
C798 C 0.55206 0.03519 0.73617 0.0
C799 C 0.53032 1.00596 0.75209 0.0
C800 C 0.538 0.9761 0.75432 0.0
C801 C 0.56598 0.97508 0.74078 0.0
C802 C 0.44443 0.01512 0.76822 0.0
C803 C 0.43583 0.99916 0.79072 0.0
C804 C 0.47553 0.01817 0.75587 0.0
C805 C 0.49895 1.00564 0.76581 0.0
C806 C 0.49102 0.99107 0.78869 0.0
C807 C 0.4598 0.98765 0.80089 0.0
H808 H 0.40861 0.41143 0.92558 0.0
H809 H 0.48477 0.44018 0.98427 0.0
H810 H 0.45769 0.46527 0.90378 0.0
H811 H 0.53349 0.49378 0.96257 0.0
H812 H 0.60269 0.6057 0.92373 0.0
H813 H 0.54869 0.55661 0.94537 0.0
H814 H 0.52078 0.48083 0.88662 0.0
H815 H 0.57458 0.52961 0.86506 0.0
C816 C 0.43561 0.42944 0.93392 0.0
C817 C 0.44279 0.42141 0.95663 0.0
C818 C 0.46377 0.46015 0.9214 0.0
C819 C 0.4995 0.48379 0.93145 0.0
C820 C 0.50619 0.47638 0.95441 0.0
C821 C 0.4783 0.44547 0.96678 0.0
C822 C 0.58477 0.57872 0.91535 0.0
C823 C 0.59305 0.57156 0.8927 0.0
C824 C 0.55397 0.55054 0.92778 0.0
C825 C 0.53047 0.5148 0.91772 0.0
C826 C 0.53807 0.50814 0.89479 0.0
C827 C 0.56909 0.53607 0.8825 0.0
H828 H 0.13301 0.28885 0.09556 0.0
H829 H 0.21246 0.40666 0.10881 0.0
H830 H 0.17668 0.28611 0.06811 0.0
H831 H 0.25605 0.40446 0.08031 0.0
H832 H 0.34015 0.37233 0.04665 0.0
H833 H 0.29814 0.38149 0.07278 0.0
H834 H 0.20227 0.3039 0.03096 0.0
H835 H 0.2438 0.29321 1.00586 0.0
C836 C 0.15969 0.31441 0.09238 0.0
C837 C 0.1691 0.34802 0.1044 0.0
C838 C 0.18479 0.31294 0.0764 0.0
C839 C 0.21998 0.34519 0.07158 0.0
C840 C 0.22945 0.37893 0.08363 0.0
C841 C 0.20437 0.38027 0.09991 0.0
C842 C 0.31014 0.35752 0.04292 0.0
C843 C 0.29543 0.33164 0.02426 0.0
C844 C 0.28596 0.36288 0.0579 0.0
C845 C 0.2465 0.3429 0.05439 0.0
C846 C 0.23225 0.31892 0.0348 0.0
C847 C 0.25625 0.3131 0.02014 0.0
H848 H 0.85344 0.12954 0.25948 0.0
H849 H 0.81993 0.21136 0.27745 0.0
H850 H 0.89865 0.17341 0.23159 0.0
H851 H 0.86458 0.25523 0.24861 0.0
H852 H 0.98074 0.33762 0.21367 0.0
H853 H 0.93012 0.29577 0.24021 0.0
H854 H 0.90436 0.20101 0.19506 0.0
H855 H 0.9558 0.24223 0.16944 0.0
C856 C 0.85534 0.15678 0.25727 0.0
C857 C 0.83289 0.16679 0.27073 0.0
C858 C 0.88122 0.18201 0.24105 0.0
C859 C 0.88522 0.21796 0.2375 0.0
C860 C 0.86264 0.228 0.25094 0.0
C861 C 0.83685 0.20275 0.26741 0.0
C862 C 0.96392 0.30794 0.20927 0.0
C863 C 0.97276 0.29332 0.1895 0.0
C864 C 0.93474 0.28386 0.2245 0.0
C865 C 0.91342 0.24467 0.22014 0.0
C866 C 0.9208 0.2307 0.19951 0.0
C867 C 0.95018 0.25455 0.18457 0.0
H868 H 0.63897 0.84344 0.45759 0.0
H869 H 0.69906 0.80904 0.41067 0.0
H870 H 0.64383 0.89013 0.429 0.0
H871 H 0.70247 0.85423 0.38176 0.0
H872 H 0.74952 0.97122 0.3505 0.0
H873 H 0.73678 0.91945 0.37631 0.0
H874 H 0.6268 0.90497 0.39219 0.0
H875 H 0.64035 0.95848 0.36675 0.0
C876 C 0.6526 0.84535 0.441 0.0
C877 C 0.66905 0.82283 0.43656 0.0
C878 C 0.65524 0.87204 0.42451 0.0
C879 C 0.67404 0.87654 0.40307 0.0
C880 C 0.68872 0.8525 0.39827 0.0
C881 C 0.68654 0.8263 0.41483 0.0
C882 C 0.72241 0.95698 0.35928 0.0
C883 C 0.69602 0.96931 0.35645 0.0
C884 C 0.71493 0.92684 0.37406 0.0
C885 C 0.68062 0.90759 0.38641 0.0
C886 C 0.65373 0.91929 0.38322 0.0
C887 C 0.66135 0.94979 0.36843 0.0
H888 H 0.78253 0.72528 0.50376 0.0
H889 H 0.68828 0.65135 0.54774 0.0
H890 H 0.82525 0.71715 0.52932 0.0
H891 H 0.73152 0.64461 0.57416 0.0
H892 H 0.81803 0.62116 0.61042 0.0
H893 H 0.77345 0.62141 0.58195 0.0
H894 H 0.85305 0.73826 0.56584 0.0
H895 H 0.89775 0.73742 0.59338 0.0
C896 C 0.77079 0.70707 0.51884 0.0
C897 C 0.73182 0.68911 0.52364 0.0
C898 C 0.79549 0.70272 0.53374 0.0
C899 C 0.7822 0.68082 0.55421 0.0
C900 C 0.74296 0.66155 0.55855 0.0
C901 C 0.71806 0.66549 0.54339 0.0
C902 C 0.82601 0.6468 0.60067 0.0
C903 C 0.8616 0.67921 0.60415 0.0
C904 C 0.80033 0.64704 0.58441 0.0
C905 C 0.8095 0.67978 0.57134 0.0
C906 C 0.8451 0.71216 0.57502 0.0
C907 C 0.8708 0.71179 0.59104 0.0
H908 H 0.05853 0.79066 0.68344 0.0
H909 H 0.06945 0.69319 0.69972 0.0
H910 H 0.11028 0.82898 0.70951 0.0
H911 H 0.12282 0.73236 0.72545 0.0
H912 H 0.18361 0.80468 0.79138 0.0
H913 H 0.13712 0.76379 0.76242 0.0
H914 H 0.17555 0.85895 0.7155 0.0
H915 H 0.2207 0.89986 0.74475 0.0
C916 C 0.07236 0.7774 0.69228 0.0
C917 C 0.05952 0.7386 0.68938 0.0
C918 C 0.10248 0.79964 0.70722 0.0
C919 C 0.12113 0.78403 0.71969 0.0
C920 C 0.10896 0.74538 0.7164 0.0
C921 C 0.07852 0.72294 0.70145 0.0
C922 C 0.18233 0.81675 0.77478 0.0
C923 C 0.20562 0.85567 0.77053 0.0
C924 C 0.15574 0.79323 0.75807 0.0
C925 C 0.15202 0.80798 0.7366 0.0
C926 C 0.17672 0.8466 0.732 0.0
C927 C 0.2029 0.87012 0.74876 0.0
H928 H 0.38198 0.0489 0.88028 0.0
H929 H 0.3024 0.06491 0.83911 0.0
H930 H 0.38964 0.09918 0.90662 0.0
H931 H 0.31176 0.11652 0.86438 0.0
H932 H 0.29571 0.17092 0.92871 0.0
H933 H 0.29376 0.12518 0.90098 0.0
H934 H 0.41152 0.16311 0.91488 0.0
H935 H 0.41275 0.20796 0.94372 0.0
C936 C 0.36672 0.06365 0.87651 0.0
C937 C 0.34119 0.05238 0.85766 0.0
C938 C 0.37125 0.09275 0.89162 0.0
C939 C 0.35084 0.1118 0.88805 0.0
C940 C 0.3271 0.10191 0.86831 0.0
C941 C 0.32205 0.07245 0.85353 0.0
C942 C 0.3213 0.16969 0.92583 0.0
C943 C 0.35441 0.19324 0.93847 0.0
C944 C 0.32031 0.14351 0.90968 0.0
C945 C 0.3526 0.14039 0.90528 0.0
C946 C 0.3859 0.16419 0.91787 0.0
C947 C 0.38672 0.19013 0.93436 0.0
H948 H 0.64718 0.67816 0.8044 0.0
H949 H 0.72834 0.77232 0.84588 0.0
H950 H 0.64141 0.722 0.77807 0.0
H951 H 0.72115 0.8158 0.82045 0.0
H952 H 0.74089 0.88613 0.75536 0.0
H953 H 0.74068 0.84128 0.78322 0.0
H954 H 0.62146 0.76648 0.77055 0.0
H955 H 0.62216 0.81111 0.74178 0.0
C956 C 0.66318 0.70811 0.80824 0.0
C957 C 0.6886 0.7216 0.82716 0.0
C958 C 0.65977 0.73336 0.79313 0.0
C959 C 0.68134 0.77273 0.79675 0.0
C960 C 0.70493 0.78588 0.81656 0.0
C961 C 0.70873 0.76078 0.83139 0.0
C962 C 0.71454 0.86019 0.75852 0.0
C963 C 0.68154 0.85231 0.74629 0.0
C964 C 0.71432 0.83444 0.77472 0.0
C965 C 0.68095 0.80015 0.77947 0.0
C966 C 0.64782 0.7923 0.76726 0.0
C967 C 0.64815 0.81801 0.75081 0.0
H968 H 0.84597 0.63018 0.89099 0.0
H969 H 0.80743 0.68511 0.93922 0.0
H970 H 0.89332 0.63609 0.91939 0.0
H971 H 0.85349 0.68966 0.96789 0.0
H972 H 0.9715 0.74047 0.99876 0.0
H973 H 0.919 0.72641 0.97317 0.0
H974 H 0.90865 0.61855 0.956 0.0
H975 H 0.96271 0.63337 0.98125 0.0
C976 C 0.8471 0.64285 0.90782 0.0
C977 C 0.82318 0.65757 0.9127 0.0
C978 C 0.87419 0.6461 0.9242 0.0
C979 C 0.87777 0.66385 0.94593 0.0
C980 C 0.8524 0.67674 0.95117 0.0
C981 C 0.82571 0.67389 0.93474 0.0
C982 C 0.95801 0.71354 0.98974 0.0
C983 C 0.9716 0.68811 0.99216 0.0
C984 C 0.92748 0.70531 0.97509 0.0
C985 C 0.9092 0.6712 0.96246 0.0
C986 C 0.92221 0.64529 0.96521 0.0
C987 C 0.95305 0.65364 0.97988 0.0
H988 H 0.33722 0.96778 0.13973 0.0
H989 H 0.24065 0.95025 0.18038 0.0
H990 H 0.29525 0.91774 0.11296 0.0
H991 H 0.19913 0.89906 0.15467 0.0
H992 H 0.1307 0.84812 0.08915 0.0
H993 H 0.17401 0.89283 0.11751 0.0
H994 H 0.25283 0.85334 0.10442 0.0
H995 H 0.20969 0.8094 0.07503 0.0
C996 C 0.30716 0.95272 0.1433 0.0
C997 C 0.29239 0.96355 0.1621 0.0
C998 C 0.28299 0.92381 0.12796 0.0
C999 C 0.24348 0.90461 0.13124 0.0
C1000 C 0.22916 0.91386 0.15099 0.0
C1001 C 0.25315 0.94307 0.16601 0.0
C1002 C 0.15717 0.84877 0.09234 0.0
C1003 C 0.16661 0.82504 0.07979 0.0
C1004 C 0.18206 0.87434 0.10884 0.0
C1005 C 0.21702 0.87668 0.11363 0.0
C1006 C 0.22643 0.85276 0.10112 0.0
C1007 C 0.20159 0.82737 0.08433 0.0
H1008 H 0.29157 0.12221 0.25847 0.0
H1009 H 0.40643 0.20596 0.2412 0.0
H1010 H 0.2883 0.16552 0.28594 0.0
H1011 H 0.40385 0.24929 0.26975 0.0
H1012 H 0.36842 0.33021 0.30433 0.0
H1013 H 0.37821 0.28882 0.27798 0.0
H1014 H 0.30788 0.1934 0.32231 0.0
H1015 H 0.29652 0.2342 0.34765 0.0
C1016 C 0.31643 0.14977 0.26078 0.0
C1017 C 0.34932 0.16047 0.24762 0.0
C1018 C 0.31467 0.1747 0.27678 0.0
C1019 C 0.34596 0.21104 0.28047 0.0
C1020 C 0.37902 0.22176 0.26732 0.0
C1021 C 0.38061 0.19683 0.25101 0.0
C1022 C 0.3554 0.30045 0.30856 0.0
C1023 C 0.33135 0.28558 0.32805 0.0
C1024 C 0.36111 0.27663 0.29345 0.0
C1025 C 0.34332 0.23741 0.29764 0.0
C1026 C 0.32114 0.22312 0.31795 0.0
C1027 C 0.31493 0.24672 0.33275 0.0
H1028 H 0.21058 0.40341 0.41009 0.0
H1029 H 0.16681 0.28416 0.4216 0.0
H1030 H 0.16592 0.40274 0.4389 0.0
H1031 H 0.1215 0.28301 0.44938 0.0
H1032 H 0.05189 0.37589 0.47329 0.0
H1033 H 0.10164 0.38276 0.44668 0.0
H1034 H 0.11474 0.30042 0.48691 0.0
H1035 H 0.06389 0.29212 0.51253 0.0
C1036 C 0.19131 0.37702 0.41865 0.0
C1037 C 0.19249 0.3439 0.41359 0.0
C1038 C 0.16552 0.37656 0.43512 0.0
C1039 C 0.14007 0.34289 0.44679 0.0
C1040 C 0.14116 0.30978 0.44139 0.0
C1041 C 0.16709 0.31034 0.42521 0.0
C1042 C 0.06564 0.35951 0.47658 0.0
C1043 C 0.0534 0.33309 0.49497 0.0
C1044 C 0.09439 0.36356 0.46131 0.0
C1045 C 0.11201 0.34165 0.46423 0.0
C1046 C 0.10121 0.31696 0.48351 0.0
C1047 C 0.07218 0.3125 0.49848 0.0
H1048 H 0.8997 0.21322 0.6073 0.0
H1049 H 0.80495 0.17514 0.56015 0.0
H1050 H 0.85885 0.16752 0.6363 0.0
H1051 H 0.76413 0.12811 0.58887 0.0
H1052 H 0.69356 0.05905 0.65134 0.0
H1053 H 0.73221 0.11288 0.62579 0.0
H1054 H 0.82993 0.10219 0.64175 0.0
H1055 H 0.79215 0.05002 0.66762 0.0
C1056 C 0.87006 0.1951 0.60313 0.0
C1057 C 0.85573 0.19767 0.58128 0.0
C1058 C 0.84658 0.16861 0.61974 0.0
C1059 C 0.80813 0.14345 0.61491 0.0
C1060 C 0.79344 0.14707 0.59338 0.0
C1061 C 0.81693 0.17397 0.57682 0.0
C1062 C 0.72343 0.06861 0.64964 0.0
C1063 C 0.73957 0.05004 0.66167 0.0
C1064 C 0.74557 0.09931 0.6348 0.0
C1065 C 0.78439 0.11217 0.63162 0.0
C1066 C 0.80044 0.09387 0.644 0.0
C1067 C 0.77851 0.0635 0.65882 0.0
H1068 H 0.18074 0.28376 0.31718 0.0
H1069 H 0.2715 0.393 0.29511 0.0
H1070 H 0.14439 0.28142 0.28232 0.0
H1071 H 0.23506 0.39071 0.26104 0.0
H1072 H 0.13608 0.39381 0.22475 0.0
H1073 H 0.16954 0.38983 0.25863 0.0
H1074 H 0.1547 0.28342 0.23397 0.0
H1075 H 0.12141 0.28753 0.19922 0.0
C1076 C 0.19287 0.30727 0.30506 0.0
C1077 C 0.2289 0.33879 0.30918 0.0
C1078 C 0.1722 0.30574 0.28506 0.0
C1079 C 0.18699 0.33594 0.26912 0.0
C1080 C 0.22295 0.36718 0.27316 0.0
C1081 C 0.24375 0.36846 0.29279 0.0
C1082 C 0.14 0.36957 0.22625 0.0
C1083 C 0.12647 0.34126 0.20894 0.0
C1084 C 0.15911 0.36731 0.24579 0.0
C1085 C 0.16473 0.33642 0.24883 0.0
C1086 C 0.15054 0.30748 0.23198 0.0
C1087 C 0.1318 0.31002 0.21207 0.0
H1088 H 0.87108 0.17721 0.49599 0.0
H1089 H 0.92583 0.27468 0.45064 0.0
H1090 H 0.83631 0.13796 0.46229 0.0
H1091 H 0.8915 0.23568 0.41734 0.0
H1092 H 0.85012 0.14757 0.35924 0.0
H1093 H 0.88722 0.18144 0.39355 0.0
H1094 H 0.78524 0.13527 0.43483 0.0
H1095 H 0.74797 0.10148 0.40063 0.0
C1096 C 0.87595 0.19017 0.47887 0.0
C1097 C 0.9011 0.2291 0.47604 0.0
C1098 C 0.85596 0.16778 0.45964 0.0
C1099 C 0.86129 0.1838 0.43721 0.0
C1100 C 0.88709 0.22246 0.43435 0.0
C1101 C 0.90657 0.24486 0.45352 0.0
C1102 C 0.83557 0.14448 0.37563 0.0
C1103 C 0.79601 0.12202 0.37709 0.0
C1104 C 0.85684 0.16391 0.39527 0.0
C1105 C 0.83909 0.16095 0.41685 0.0
C1106 C 0.7997 0.13777 0.41848 0.0
C1107 C 0.77836 0.11869 0.3988 0.0
H1108 H 0.6318 0.89164 0.62587 0.0
H1109 H 0.73459 0.89596 0.64943 0.0
H1110 H 0.63201 0.85776 0.59094 0.0
H1111 H 0.73499 0.8626 0.61387 0.0
H1112 H 0.73358 0.83607 0.5321 0.0
H1113 H 0.73785 0.87437 0.56636 0.0
H1114 H 0.62519 0.78977 0.58693 0.0
H1115 H 0.62109 0.75131 0.5535 0.0
C1116 C 0.65448 0.88543 0.62367 0.0
C1117 C 0.68288 0.89608 0.64072 0.0
C1118 C 0.6546 0.86614 0.60357 0.0
C1119 C 0.68349 0.85765 0.59978 0.0
C1120 C 0.71253 0.86907 0.61639 0.0
C1121 C 0.71207 0.88786 0.63679 0.0
C1122 C 0.70969 0.82578 0.54388 0.0
C1123 C 0.67686 0.7907 0.5399 0.0
C1124 C 0.71227 0.84756 0.56352 0.0
C1125 C 0.68177 0.83496 0.57915 0.0
C1126 C 0.64896 0.80022 0.57502 0.0
C1127 C 0.64666 0.77822 0.5558 0.0
H1128 H 0.88032 0.714 0.69234 0.0
H1129 H 0.92706 0.65809 0.73334 0.0
H1130 H 0.84506 0.71523 0.72651 0.0
H1131 H 0.89188 0.65954 0.76738 0.0
H1132 H 0.74996 0.65585 0.78215 0.0
H1133 H 0.7906 0.66328 0.7492 0.0
H1134 H 0.88691 0.70602 0.79542 0.0
H1135 H 0.84601 0.69876 0.82877 0.0
C1136 C 0.88331 0.70222 0.70863 0.0
C1137 C 0.9063 0.68567 0.71001 0.0
C1138 C 0.86307 0.70288 0.72817 0.0
C1139 C 0.86576 0.68747 0.74958 0.0
C1140 C 0.88956 0.67195 0.75117 0.0
C1141 C 0.90945 0.67086 0.73158 0.0
C1142 C 0.77981 0.66704 0.78539 0.0
C1143 C 0.79471 0.67656 0.80815 0.0
C1144 C 0.80314 0.67155 0.76642 0.0
C1145 C 0.84189 0.68529 0.76973 0.0
C1146 C 0.85705 0.69522 0.79242 0.0
C1147 C 0.8337 0.69122 0.81145 0.0
H1148 H 0.27925 0.92454 0.90177 0.0
H1149 H 0.18348 0.86954 0.85509 0.0
H1150 H 0.23932 0.88925 0.93453 0.0
H1151 H 0.1433 0.8338 0.88823 0.0
H1152 H 0.1063 0.74399 0.94902 0.0
H1153 H 0.14082 0.78251 0.9154 0.0
H1154 H 0.18368 0.88323 0.95768 0.0
H1155 H 0.14905 0.84486 0.99142 0.0
C1156 C 0.24959 0.90503 0.89849 0.0
C1157 C 0.23459 0.89973 0.87576 0.0
C1158 C 0.22666 0.88501 0.91734 0.0
C1159 C 0.18822 0.85881 0.91394 0.0
C1160 C 0.17293 0.85373 0.8913 0.0
C1161 C 0.19585 0.87429 0.87239 0.0
C1162 C 0.12293 0.77437 0.95119 0.0
C1163 C 0.1251 0.7913 0.97302 0.0
C1164 C 0.14243 0.79642 0.93184 0.0
C1165 C 0.16489 0.83583 0.93393 0.0
C1166 C 0.16671 0.85286 0.95562 0.0
C1167 C 0.14684 0.83087 0.97492 0.0
H1168 H 0.35854 0.09148 0.11711 0.0
H1169 H 0.31049 0.14209 0.16174 0.0
H1170 H 0.35334 0.12537 0.08369 0.0
H1171 H 0.30551 0.17636 0.128 0.0
H1172 H 0.36208 0.2689 0.06943 0.0
H1173 H 0.35535 0.22915 0.10279 0.0
H1174 H 0.3049 0.13057 0.05829 0.0
H1175 H 0.3114 0.17048 0.02461 0.0
C1176 C 0.34662 0.10966 0.11979 0.0
C1177 C 0.33522 0.11431 0.14218 0.0
C1178 C 0.34335 0.12882 0.10054 0.0
C1179 C 0.32903 0.15348 0.10322 0.0
C1180 C 0.31682 0.15761 0.12548 0.0
C1181 C 0.31958 0.13794 0.14475 0.0
C1182 C 0.34928 0.23873 0.06668 0.0
C1183 C 0.33755 0.22292 0.04426 0.0
C1184 C 0.34513 0.21593 0.0859 0.0
C1185 C 0.32958 0.17679 0.08316 0.0
C1186 C 0.31714 0.16074 0.06086 0.0
C1187 C 0.32079 0.18355 0.04162 0.0
loop_
_geom_bond_atom_site_label_1
_geom_bond_atom_site_label_2
_geom_bond_distance
_geom_bond_site_symmetry_2
_ccdc_geom_bond_type
Co0 O2 2.143 . S
Co0 O8 2.074 . S
Co0 O11 2.093 . S
Co0 O24 2.097 . S
Co0 N41 2.151 . S
Co0 N49 2.214 . S
Co1 O2 2.160 . S
Co1 O7 2.058 . S
Co1 O17 2.057 . S
Co1 O32 2.037 . S
Co1 N36 2.145 . S
Co1 N57 2.257 . S
O2 Co0 2.143 . S
O2 Co1 2.160 . S
C3 O4 1.278 . S
C3 O11 1.224 . S
O4 C3 1.278 . S
C5 O6 1.245 . S
C5 O17 1.232 . S
O6 C5 1.245 . S
O7 Co1 2.058 . S
O7 C33 1.269 . S
O8 Co0 2.074 . S
O8 C33 1.257 . S
H9 C34 0.930 . S
H10 C40 0.930 . S
O11 Co0 2.093 . S
O11 C3 1.224 . S
H12 C44 0.929 . S
H13 C46 0.930 . S
H14 C47 0.930 . S
H15 C45 0.929 . S
H16 C48 0.928 . S
O17 Co1 2.057 . S
O17 C5 1.232 . S
H18 C37 0.929 . S
H19 C38 0.929 . S
H20 C50 0.931 . S
H21 C42 0.929 . S
H22 C51 0.930 . S
H23 C43 0.931 . S
O24 Co0 2.097 . S
O24 C52 1.214 . S
H25 C53 0.929 . S
H26 C54 0.929 . S
H27 C55 0.930 . S
H28 C56 0.929 . S
H29 C58 0.930 . S
H30 C35 0.930 . S
H31 C39 0.930 . S
O32 Co1 2.037 . S
O32 C52 1.234 . S
C33 O7 1.269 . S
C33 O8 1.257 . S
C34 H9 0.930 . S
C34 C37 1.388 . S
C34 C39 1.418 . S
C35 H30 0.930 . S
C35 C38 1.404 . S
C35 C39 1.353 . S
N36 Co1 2.145 . S
N36 C37 1.397 . S
N36 C38 1.334 . S
C37 H18 0.929 . S
C37 C34 1.388 . S
C37 N36 1.397 . S
C38 H19 0.929 . S
C38 C35 1.404 . S
C38 N36 1.334 . S
C39 H31 0.930 . S
C39 C34 1.418 . S
C39 C35 1.353 . S
C40 H10 0.930 . S
C40 N41 1.330 . S
C40 C42 1.446 . S
N41 Co0 2.151 . S
N41 C40 1.330 . S
N41 C45 1.418 1_455 S
C42 H21 0.929 . S
C42 C40 1.446 . S
C42 C43 1.332 1_455 S
C43 H23 0.931 . S
C43 C42 1.332 1_655 S
C43 C44 1.267 . S
C44 H12 0.929 . S
C44 C43 1.267 . S
C44 C45 1.251 . S
C45 H15 0.929 . S
C45 N41 1.418 1_655 S
C45 C44 1.251 . S
C46 H13 0.930 . S
C46 C48 1.406 . S
C46 C51 1.261 . S
C47 H14 0.930 . S
C47 N49 1.325 . S
C47 C50 1.357 . S
C48 H16 0.928 . S
C48 C46 1.406 . S
C48 N49 1.261 . S
N49 Co0 2.214 . S
N49 C47 1.325 . S
N49 C48 1.261 . S
C50 H20 0.931 . S
C50 C47 1.357 . S
C50 C51 1.312 . S
C51 H22 0.930 . S
C51 C46 1.261 . S
C51 C50 1.312 . S
C52 O24 1.214 . S
C52 O32 1.234 . S
C53 H25 0.929 . S
C53 C56 1.391 . S
C53 C58 1.391 . S
C54 H26 0.929 . S
C54 C55 1.390 . S
C54 N57 1.391 . S
C55 H27 0.930 . S
C55 C54 1.390 . S
C55 C56 1.392 . S
C56 H28 0.929 . S
C56 C53 1.391 . S
C56 C55 1.392 . S
N57 Co1 2.257 . S
N57 C54 1.391 . S
N57 C58 1.388 . S
C58 H29 0.930 . S
C58 C53 1.391 . S
C58 N57 1.388 . S
Co59 O61 2.143 . S
Co59 O67 2.074 . S
Co59 O70 2.093 . S
Co59 O83 2.097 . S
Co59 N100 2.151 . S
Co59 N108 2.214 . S
Co60 O61 2.160 . S
Co60 O66 2.058 . S
Co60 O76 2.057 . S
Co60 O91 2.037 . S
Co60 N95 2.145 . S
Co60 N116 2.257 . S
O61 Co59 2.143 . S
O61 Co60 2.160 . S
C62 O63 1.278 . S
C62 O70 1.224 . S
O63 C62 1.278 . S
C64 O65 1.245 . S
C64 O76 1.232 . S
O65 C64 1.245 . S
O66 Co60 2.058 . S
O66 C92 1.269 . S
O67 Co59 2.074 . S
O67 C92 1.257 . S
H68 C93 0.930 . S
H69 C99 0.930 . S
O70 Co59 2.093 . S
O70 C62 1.224 . S
H71 C103 0.929 . S
H72 C105 0.930 . S
H73 C106 0.930 . S
H74 C104 0.929 . S
H75 C107 0.928 . S
O76 Co60 2.057 . S
O76 C64 1.232 . S
H77 C96 0.929 . S
H78 C97 0.929 . S
H79 C109 0.931 . S
H80 C101 0.929 . S
H81 C110 0.930 . S
H82 C102 0.931 . S
O83 Co59 2.097 . S
O83 C111 1.214 . S
H84 C112 0.929 . S
H85 C113 0.929 . S
H86 C114 0.930 . S
H87 C115 0.929 . S
H88 C117 0.930 . S
H89 C94 0.930 . S
H90 C98 0.930 . S
O91 Co60 2.037 . S
O91 C111 1.234 . S
C92 O66 1.269 . S
C92 O67 1.257 . S
C93 H68 0.930 . S
C93 C96 1.388 . S
C93 C98 1.418 . S
C94 H89 0.930 . S
C94 C97 1.404 . S
C94 C98 1.353 . S
N95 Co60 2.145 . S
N95 C96 1.397 . S
N95 C97 1.334 . S
C96 H77 0.929 . S
C96 C93 1.388 . S
C96 N95 1.397 . S
C97 H78 0.929 . S
C97 C94 1.404 . S
C97 N95 1.334 . S
C98 H90 0.930 . S
C98 C93 1.418 . S
C98 C94 1.353 . S
C99 H69 0.930 . S
C99 N100 1.330 . S
C99 C101 1.446 . S
N100 Co59 2.151 . S
N100 C99 1.330 . S
N100 C104 1.418 1_545 S
C101 H80 0.929 . S
C101 C99 1.446 . S
C101 C102 1.332 1_545 S
C102 H82 0.931 . S
C102 C101 1.332 1_565 S
C102 C103 1.267 . S
C103 H71 0.929 . S
C103 C102 1.267 . S
C103 C104 1.251 . S
C104 H74 0.929 . S
C104 N100 1.418 1_565 S
C104 C103 1.251 . S
C105 H72 0.930 . S
C105 C107 1.406 . S
C105 C110 1.261 . S
C106 H73 0.930 . S
C106 N108 1.325 . S
C106 C109 1.357 . S
C107 H75 0.928 . S
C107 C105 1.406 . S
C107 N108 1.261 . S
N108 Co59 2.214 . S
N108 C106 1.325 . S
N108 C107 1.261 . S
C109 H79 0.931 . S
C109 C106 1.357 . S
C109 C110 1.312 . S
C110 H81 0.930 . S
C110 C105 1.261 . S
C110 C109 1.312 . S
C111 O83 1.214 . S
C111 O91 1.234 . S
C112 H84 0.929 . S
C112 C115 1.391 . S
C112 C117 1.391 . S
C113 H85 0.929 . S
C113 C114 1.390 . S
C113 N116 1.391 . S
C114 H86 0.930 . S
C114 C113 1.390 . S
C114 C115 1.392 . S
C115 H87 0.929 . S
C115 C112 1.391 . S
C115 C114 1.392 . S
N116 Co60 2.257 . S
N116 C113 1.391 . S
N116 C117 1.388 . S
C117 H88 0.930 . S
C117 C112 1.391 . S
C117 N116 1.388 . S
Co118 O120 2.143 . S
Co118 O126 2.074 . S
Co118 O129 2.093 . S
Co118 O142 2.097 . S
Co118 N159 2.151 . S
Co118 N167 2.214 . S
Co119 O120 2.160 . S
Co119 O125 2.058 . S
Co119 O135 2.057 . S
Co119 O150 2.037 . S
Co119 N154 2.145 . S
Co119 N175 2.257 . S
O120 Co118 2.143 . S
O120 Co119 2.160 . S
C121 O122 1.278 . S
C121 O129 1.224 . S
O122 C121 1.278 . S
C123 O124 1.245 . S
C123 O135 1.232 . S
O124 C123 1.245 . S
O125 Co119 2.058 . S
O125 C151 1.269 . S
O126 Co118 2.074 . S
O126 C151 1.257 . S
H127 C152 0.930 . S
H128 C158 0.930 . S
O129 Co118 2.093 . S
O129 C121 1.224 . S
H130 C162 0.929 . S
H131 C164 0.930 . S
H132 C165 0.930 . S
H133 C163 0.929 . S
H134 C166 0.928 . S
O135 Co119 2.057 . S
O135 C123 1.232 . S
H136 C155 0.929 . S
H137 C156 0.929 . S
H138 C168 0.931 . S
H139 C160 0.929 . S
H140 C169 0.930 . S
H141 C161 0.931 . S
O142 Co118 2.097 . S
O142 C170 1.214 . S
H143 C171 0.929 . S
H144 C172 0.929 . S
H145 C173 0.930 . S
H146 C174 0.929 . S
H147 C176 0.930 . S
H148 C153 0.930 . S
H149 C157 0.930 . S
O150 Co119 2.037 . S
O150 C170 1.234 . S
C151 O125 1.269 . S
C151 O126 1.257 . S
C152 H127 0.930 . S
C152 C155 1.388 . S
C152 C157 1.418 . S
C153 H148 0.930 . S
C153 C156 1.404 . S
C153 C157 1.353 . S
N154 Co119 2.145 . S
N154 C155 1.397 . S
N154 C156 1.334 . S
C155 H136 0.929 . S
C155 C152 1.388 . S
C155 N154 1.397 . S
C156 H137 0.929 . S
C156 C153 1.404 . S
C156 N154 1.334 . S
C157 H149 0.930 . S
C157 C152 1.418 . S
C157 C153 1.353 . S
C158 H128 0.930 . S
C158 N159 1.330 . S
C158 C160 1.446 . S
N159 Co118 2.151 . S
N159 C158 1.330 . S
N159 C163 1.418 . S
C160 H139 0.929 . S
C160 C158 1.446 . S
C160 C161 1.332 . S
C161 H141 0.931 . S
C161 C160 1.332 . S
C161 C162 1.267 . S
C162 H130 0.929 . S
C162 C161 1.267 . S
C162 C163 1.251 . S
C163 H133 0.929 . S
C163 N159 1.418 . S
C163 C162 1.251 . S
C164 H131 0.930 . S
C164 C166 1.406 . S
C164 C169 1.261 . S
C165 H132 0.930 . S
C165 N167 1.325 . S
C165 C168 1.357 . S
C166 H134 0.928 . S
C166 C164 1.406 . S
C166 N167 1.261 . S
N167 Co118 2.214 . S
N167 C165 1.325 . S
N167 C166 1.261 . S
C168 H138 0.931 . S
C168 C165 1.357 . S
C168 C169 1.312 . S
C169 H140 0.930 . S
C169 C164 1.261 . S
C169 C168 1.312 . S
C170 O142 1.214 . S
C170 O150 1.234 . S
C171 H143 0.929 . S
C171 C174 1.391 . S
C171 C176 1.391 . S
C172 H144 0.929 . S
C172 C173 1.390 . S
C172 N175 1.391 . S
C173 H145 0.930 . S
C173 C172 1.390 . S
C173 C174 1.392 . S
C174 H146 0.929 . S
C174 C171 1.391 . S
C174 C173 1.392 . S
N175 Co119 2.257 . S
N175 C172 1.391 . S
N175 C176 1.388 . S
C176 H147 0.930 . S
C176 C171 1.391 . S
C176 N175 1.388 . S
Co177 O179 2.143 . S
Co177 O185 2.074 . S
Co177 O188 2.093 . S
Co177 O201 2.097 . S
Co177 N218 2.151 . S
Co177 N226 2.214 . S
Co178 O179 2.160 . S
Co178 O184 2.058 . S
Co178 O194 2.057 . S
Co178 O209 2.037 . S
Co178 N213 2.145 . S
Co178 N234 2.257 . S
O179 Co177 2.143 . S
O179 Co178 2.160 . S
C180 O181 1.278 . S
C180 O188 1.224 . S
O181 C180 1.278 . S
C182 O183 1.245 . S
C182 O194 1.232 . S
O183 C182 1.245 . S
O184 Co178 2.058 . S
O184 C210 1.269 . S
O185 Co177 2.074 . S
O185 C210 1.257 . S
H186 C211 0.930 . S
H187 C217 0.930 . S
O188 Co177 2.093 . S
O188 C180 1.224 . S
H189 C221 0.929 . S
H190 C223 0.930 . S
H191 C224 0.930 . S
H192 C222 0.929 . S
H193 C225 0.928 . S
O194 Co178 2.057 . S
O194 C182 1.232 . S
H195 C214 0.929 . S
H196 C215 0.929 . S
H197 C227 0.931 . S
H198 C219 0.929 . S
H199 C228 0.930 . S
H200 C220 0.931 . S
O201 Co177 2.097 . S
O201 C229 1.214 . S
H202 C230 0.929 . S
H203 C231 0.929 . S
H204 C232 0.930 . S
H205 C233 0.929 . S
H206 C235 0.930 . S
H207 C212 0.930 . S
H208 C216 0.930 . S
O209 Co178 2.037 . S
O209 C229 1.234 . S
C210 O184 1.269 . S
C210 O185 1.257 . S
C211 H186 0.930 . S
C211 C214 1.388 . S
C211 C216 1.418 . S
C212 H207 0.930 . S
C212 C215 1.404 . S
C212 C216 1.353 . S
N213 Co178 2.145 . S
N213 C214 1.397 . S
N213 C215 1.334 . S
C214 H195 0.929 . S
C214 C211 1.388 . S
C214 N213 1.397 . S
C215 H196 0.929 . S
C215 C212 1.404 . S
C215 N213 1.334 . S
C216 H208 0.930 . S
C216 C211 1.418 . S
C216 C212 1.353 . S
C217 H187 0.930 . S
C217 N218 1.330 . S
C217 C219 1.446 . S
N218 Co177 2.151 . S
N218 C217 1.330 . S
N218 C222 1.418 1_655 S
C219 H198 0.929 . S
C219 C217 1.446 . S
C219 C220 1.332 1_655 S
C220 H200 0.931 . S
C220 C219 1.332 1_455 S
C220 C221 1.267 . S
C221 H189 0.929 . S
C221 C220 1.267 . S
C221 C222 1.251 . S
C222 H192 0.929 . S
C222 N218 1.418 1_455 S
C222 C221 1.251 . S
C223 H190 0.930 . S
C223 C225 1.406 . S
C223 C228 1.261 . S
C224 H191 0.930 . S
C224 N226 1.325 . S
C224 C227 1.357 . S
C225 H193 0.928 . S
C225 C223 1.406 . S
C225 N226 1.261 . S
N226 Co177 2.214 . S
N226 C224 1.325 . S
N226 C225 1.261 . S
C227 H197 0.931 . S
C227 C224 1.357 . S
C227 C228 1.312 . S
C228 H199 0.930 . S
C228 C223 1.261 . S
C228 C227 1.312 . S
C229 O201 1.214 . S
C229 O209 1.234 . S
C230 H202 0.929 . S
C230 C233 1.391 . S
C230 C235 1.391 . S
C231 H203 0.929 . S
C231 C232 1.390 . S
C231 N234 1.391 . S
C232 H204 0.930 . S
C232 C231 1.390 . S
C232 C233 1.392 . S
C233 H205 0.929 . S
C233 C230 1.391 . S
C233 C232 1.392 . S
N234 Co178 2.257 . S
N234 C231 1.391 . S
N234 C235 1.388 . S
C235 H206 0.930 . S
C235 C230 1.391 . S
C235 N234 1.388 . S
Co236 O238 2.143 . S
Co236 O244 2.074 . S
Co236 O247 2.093 . S
Co236 O260 2.097 . S
Co236 N277 2.151 . S
Co236 N285 2.214 . S
Co237 O238 2.160 . S
Co237 O243 2.058 . S
Co237 O253 2.057 . S
Co237 O268 2.037 . S
Co237 N272 2.145 . S
Co237 N293 2.257 . S
O238 Co236 2.143 . S
O238 Co237 2.160 . S
C239 O240 1.278 . S
C239 O247 1.224 . S
O240 C239 1.278 . S
C241 O242 1.245 . S
C241 O253 1.232 . S
O242 C241 1.245 . S
O243 Co237 2.058 . S
O243 C269 1.269 . S
O244 Co236 2.074 . S
O244 C269 1.257 . S
H245 C270 0.930 . S
H246 C276 0.930 . S
O247 Co236 2.093 . S
O247 C239 1.224 . S
H248 C280 0.929 . S
H249 C282 0.930 . S
H250 C283 0.930 . S
H251 C281 0.929 . S
H252 C284 0.928 . S
O253 Co237 2.057 . S
O253 C241 1.232 . S
H254 C273 0.929 . S
H255 C274 0.929 . S
H256 C286 0.931 . S
H257 C278 0.929 . S
H258 C287 0.930 . S
H259 C279 0.931 . S
O260 Co236 2.097 . S
O260 C288 1.214 . S
H261 C289 0.929 . S
H262 C290 0.929 . S
H263 C291 0.930 . S
H264 C292 0.929 . S
H265 C294 0.930 . S
H266 C271 0.930 . S
H267 C275 0.930 . S
O268 Co237 2.037 . S
O268 C288 1.234 . S
C269 O243 1.269 . S
C269 O244 1.257 . S
C270 H245 0.930 . S
C270 C273 1.388 . S
C270 C275 1.418 . S
C271 H266 0.930 . S
C271 C274 1.404 . S
C271 C275 1.353 . S
N272 Co237 2.145 . S
N272 C273 1.397 . S
N272 C274 1.334 . S
C273 H254 0.929 . S
C273 C270 1.388 . S
C273 N272 1.397 . S
C274 H255 0.929 . S
C274 C271 1.404 . S
C274 N272 1.334 . S
C275 H267 0.930 . S
C275 C270 1.418 . S
C275 C271 1.353 . S
C276 H246 0.930 . S
C276 N277 1.330 . S
C276 C278 1.446 . S
N277 Co236 2.151 . S
N277 C276 1.330 . S
N277 C281 1.418 1_565 S
C278 H257 0.929 . S
C278 C276 1.446 . S
C278 C279 1.332 1_565 S
C279 H259 0.931 . S
C279 C278 1.332 1_545 S
C279 C280 1.267 . S
C280 H248 0.929 . S
C280 C279 1.267 . S
C280 C281 1.251 . S
C281 H251 0.929 . S
C281 N277 1.418 1_545 S
C281 C280 1.251 . S
C282 H249 0.930 . S
C282 C284 1.406 . S
C282 C287 1.261 . S
C283 H250 0.930 . S
C283 N285 1.325 . S
C283 C286 1.357 . S
C284 H252 0.928 . S
C284 C282 1.406 . S
C284 N285 1.261 . S
N285 Co236 2.214 . S
N285 C283 1.325 . S
N285 C284 1.261 . S
C286 H256 0.931 . S
C286 C283 1.357 . S
C286 C287 1.312 . S
C287 H258 0.930 . S
C287 C282 1.261 . S
C287 C286 1.312 . S
C288 O260 1.214 . S
C288 O268 1.234 . S
C289 H261 0.929 . S
C289 C292 1.391 . S
C289 C294 1.391 . S
C290 H262 0.929 . S
C290 C291 1.390 . S
C290 N293 1.391 . S
C291 H263 0.930 . S
C291 C290 1.390 . S
C291 C292 1.392 . S
C292 H264 0.929 . S
C292 C289 1.391 . S
C292 C291 1.392 . S
N293 Co237 2.257 . S
N293 C290 1.391 . S
N293 C294 1.388 . S
C294 H265 0.930 . S
C294 C289 1.391 . S
C294 N293 1.388 . S
Co295 O297 2.143 . S
Co295 O303 2.074 . S
Co295 O306 2.093 . S
Co295 O319 2.097 . S
Co295 N336 2.151 . S
Co295 N344 2.214 . S
Co296 O297 2.160 . S
Co296 O302 2.058 . S
Co296 O312 2.057 . S
Co296 O327 2.037 1_556 S
Co296 N331 2.145 1_556 S
Co296 N352 2.257 . S
O297 Co295 2.143 . S
O297 Co296 2.160 . S
C298 O299 1.278 . S
C298 O306 1.224 . S
O299 C298 1.278 . S
C300 O301 1.245 . S
C300 O312 1.232 . S
O301 C300 1.245 . S
O302 Co296 2.058 . S
O302 C328 1.269 . S
O303 Co295 2.074 . S
O303 C328 1.257 . S
H304 C329 0.930 . S
H305 C335 0.930 . S
O306 Co295 2.093 . S
O306 C298 1.224 . S
H307 C339 0.929 . S
H308 C341 0.930 . S
H309 C342 0.930 1_554 S
H310 C340 0.929 . S
H311 C343 0.928 . S
O312 Co296 2.057 . S
O312 C300 1.232 . S
H313 C332 0.929 . S
H314 C333 0.929 1_556 S
H315 C345 0.931 . S
H316 C337 0.929 . S
H317 C346 0.930 . S
H318 C338 0.931 . S
O319 Co295 2.097 . S
O319 C347 1.214 1_556 S
H320 C348 0.929 . S
H321 C349 0.929 1_554 S
H322 C350 0.930 1_554 S
H323 C351 0.929 . S
H324 C353 0.930 . S
H325 C330 0.930 . S
H326 C334 0.930 . S
O327 Co296 2.037 1_554 S
O327 C347 1.234 . S
C328 O302 1.269 . S
C328 O303 1.257 . S
C329 H304 0.930 . S
C329 C332 1.388 . S
C329 C334 1.418 . S
C330 H325 0.930 . S
C330 C333 1.404 . S
C330 C334 1.353 . S
N331 Co296 2.145 1_554 S
N331 C332 1.397 . S
N331 C333 1.334 . S
C332 H313 0.929 . S
C332 C329 1.388 . S
C332 N331 1.397 . S
C333 H314 0.929 1_554 S
C333 C330 1.404 . S
C333 N331 1.334 . S
C334 H326 0.930 . S
C334 C329 1.418 . S
C334 C330 1.353 . S
C335 H305 0.930 . S
C335 N336 1.330 . S
C335 C337 1.446 . S
N336 Co295 2.151 . S
N336 C335 1.330 . S
N336 C340 1.418 . S
C337 H316 0.929 . S
C337 C335 1.446 . S
C337 C338 1.332 . S
C338 H318 0.931 . S
C338 C337 1.332 . S
C338 C339 1.267 . S
C339 H307 0.929 . S
C339 C338 1.267 . S
C339 C340 1.251 . S
C340 H310 0.929 . S
C340 N336 1.418 . S
C340 C339 1.251 . S
C341 H308 0.930 . S
C341 C343 1.406 . S
C341 C346 1.261 . S
C342 H309 0.930 1_556 S
C342 N344 1.325 . S
C342 C345 1.357 1_556 S
C343 H311 0.928 . S
C343 C341 1.406 . S
C343 N344 1.261 . S
N344 Co295 2.214 . S
N344 C342 1.325 . S
N344 C343 1.261 . S
C345 H315 0.931 . S
C345 C342 1.357 1_554 S
C345 C346 1.312 1_554 S
C346 H317 0.930 . S
C346 C341 1.261 . S
C346 C345 1.312 1_556 S
C347 O319 1.214 1_554 S
C347 O327 1.234 . S
C348 H320 0.929 . S
C348 C351 1.391 . S
C348 C353 1.391 . S
C349 H321 0.929 1_556 S
C349 C350 1.390 . S
C349 N352 1.391 . S
C350 H322 0.930 1_556 S
C350 C349 1.390 . S
C350 C351 1.392 . S
C351 H323 0.929 . S
C351 C348 1.391 . S
C351 C350 1.392 . S
N352 Co296 2.257 . S
N352 C349 1.391 . S
N352 C353 1.388 . S
C353 H324 0.930 . S
C353 C348 1.391 . S
C353 N352 1.388 . S
Co354 O356 2.143 . S
Co354 O362 2.074 . S
Co354 O365 2.093 . S
Co354 O378 2.097 . S
Co354 N395 2.151 . S
Co354 N403 2.214 . S
Co355 O356 2.160 . S
Co355 O361 2.058 . S
Co355 O371 2.057 . S
Co355 O386 2.037 . S
Co355 N390 2.145 . S
Co355 N411 2.257 . S
O356 Co354 2.143 . S
O356 Co355 2.160 . S
C357 O358 1.278 . S
C357 O365 1.224 . S
O358 C357 1.278 . S
C359 O360 1.245 . S
C359 O371 1.232 . S
O360 C359 1.245 . S
O361 Co355 2.058 . S
O361 C387 1.269 . S
O362 Co354 2.074 . S
O362 C387 1.257 . S
H363 C388 0.930 . S
H364 C394 0.930 . S
O365 Co354 2.093 . S
O365 C357 1.224 . S
H366 C398 0.929 . S
H367 C400 0.930 . S
H368 C401 0.930 . S
H369 C399 0.929 . S
H370 C402 0.928 . S
O371 Co355 2.057 . S
O371 C359 1.232 . S
H372 C391 0.929 . S
H373 C392 0.929 . S
H374 C404 0.931 . S
H375 C396 0.929 . S
H376 C405 0.930 . S
H377 C397 0.931 . S
O378 Co354 2.097 . S
O378 C406 1.214 . S
H379 C407 0.929 . S
H380 C408 0.929 . S
H381 C409 0.930 . S
H382 C410 0.929 . S
H383 C412 0.930 . S
H384 C389 0.930 . S
H385 C393 0.930 . S
O386 Co355 2.037 . S
O386 C406 1.234 . S
C387 O361 1.269 . S
C387 O362 1.257 . S
C388 H363 0.930 . S
C388 C391 1.388 . S
C388 C393 1.418 . S
C389 H384 0.930 . S
C389 C392 1.404 . S
C389 C393 1.353 . S
N390 Co355 2.145 . S
N390 C391 1.397 . S
N390 C392 1.334 . S
C391 H372 0.929 . S
C391 C388 1.388 . S
C391 N390 1.397 . S
C392 H373 0.929 . S
C392 C389 1.404 . S
C392 N390 1.334 . S
C393 H385 0.930 . S
C393 C388 1.418 . S
C393 C389 1.353 . S
C394 H364 0.930 . S
C394 N395 1.330 . S
C394 C396 1.446 . S
N395 Co354 2.151 . S
N395 C394 1.330 . S
N395 C399 1.418 1_565 S
C396 H375 0.929 . S
C396 C394 1.446 . S
C396 C397 1.332 1_565 S
C397 H377 0.931 . S
C397 C396 1.332 1_545 S
C397 C398 1.267 . S
C398 H366 0.929 . S
C398 C397 1.267 . S
C398 C399 1.251 . S
C399 H369 0.929 . S
C399 N395 1.418 1_545 S
C399 C398 1.251 . S
C400 H367 0.930 . S
C400 C402 1.406 . S
C400 C405 1.261 . S
C401 H368 0.930 . S
C401 N403 1.325 . S
C401 C404 1.357 . S
C402 H370 0.928 . S
C402 C400 1.406 . S
C402 N403 1.261 . S
N403 Co354 2.214 . S
N403 C401 1.325 . S
N403 C402 1.261 . S
C404 H374 0.931 . S
C404 C401 1.357 . S
C404 C405 1.312 . S
C405 H376 0.930 . S
C405 C400 1.261 . S
C405 C404 1.312 . S
C406 O378 1.214 . S
C406 O386 1.234 . S
C407 H379 0.929 . S
C407 C410 1.391 . S
C407 C412 1.391 . S
C408 H380 0.929 . S
C408 C409 1.390 . S
C408 N411 1.391 . S
C409 H381 0.930 . S
C409 C408 1.390 . S
C409 C410 1.392 . S
C410 H382 0.929 . S
C410 C407 1.391 . S
C410 C409 1.392 . S
N411 Co355 2.257 . S
N411 C408 1.391 . S
N411 C412 1.388 . S
C412 H383 0.930 . S
C412 C407 1.391 . S
C412 N411 1.388 . S
Co413 O415 2.143 . S
Co413 O421 2.074 . S
Co413 O424 2.093 . S
Co413 O437 2.097 . S
Co413 N454 2.151 . S
Co413 N462 2.214 . S
Co414 O415 2.160 . S
Co414 O420 2.058 . S
Co414 O430 2.057 . S
Co414 O445 2.037 . S
Co414 N449 2.145 . S
Co414 N470 2.257 . S
O415 Co413 2.143 . S
O415 Co414 2.160 . S
C416 O417 1.278 . S
C416 O424 1.224 . S
O417 C416 1.278 . S
C418 O419 1.245 . S
C418 O430 1.232 . S
O419 C418 1.245 . S
O420 Co414 2.058 . S
O420 C446 1.269 . S
O421 Co413 2.074 . S
O421 C446 1.257 . S
H422 C447 0.930 . S
H423 C453 0.930 . S
O424 Co413 2.093 . S
O424 C416 1.224 . S
H425 C457 0.929 . S
H426 C459 0.930 . S
H427 C460 0.930 . S
H428 C458 0.929 . S
H429 C461 0.928 . S
O430 Co414 2.057 . S
O430 C418 1.232 . S
H431 C450 0.929 . S
H432 C451 0.929 . S
H433 C463 0.931 . S
H434 C455 0.929 . S
H435 C464 0.930 . S
H436 C456 0.931 . S
O437 Co413 2.097 . S
O437 C465 1.214 . S
H438 C466 0.929 . S
H439 C467 0.929 . S
H440 C468 0.930 . S
H441 C469 0.929 . S
H442 C471 0.930 . S
H443 C448 0.930 . S
H444 C452 0.930 . S
O445 Co414 2.037 . S
O445 C465 1.234 . S
C446 O420 1.269 . S
C446 O421 1.257 . S
C447 H422 0.930 . S
C447 C450 1.388 . S
C447 C452 1.418 . S
C448 H443 0.930 . S
C448 C451 1.404 . S
C448 C452 1.353 . S
N449 Co414 2.145 . S
N449 C450 1.397 . S
N449 C451 1.334 . S
C450 H431 0.929 . S
C450 C447 1.388 . S
C450 N449 1.397 . S
C451 H432 0.929 . S
C451 C448 1.404 . S
C451 N449 1.334 . S
C452 H444 0.930 . S
C452 C447 1.418 . S
C452 C448 1.353 . S
C453 H423 0.930 . S
C453 N454 1.330 . S
C453 C455 1.446 . S
N454 Co413 2.151 . S
N454 C453 1.330 . S
N454 C458 1.418 . S
C455 H434 0.929 . S
C455 C453 1.446 . S
C455 C456 1.332 . S
C456 H436 0.931 . S
C456 C455 1.332 . S
C456 C457 1.267 . S
C457 H425 0.929 . S
C457 C456 1.267 . S
C457 C458 1.251 . S
C458 H428 0.929 . S
C458 N454 1.418 . S
C458 C457 1.251 . S
C459 H426 0.930 . S
C459 C461 1.406 . S
C459 C464 1.261 . S
C460 H427 0.930 . S
C460 N462 1.325 . S
C460 C463 1.357 . S
C461 H429 0.928 . S
C461 C459 1.406 . S
C461 N462 1.261 . S
N462 Co413 2.214 . S
N462 C460 1.325 . S
N462 C461 1.261 . S
C463 H433 0.931 . S
C463 C460 1.357 . S
C463 C464 1.312 . S
C464 H435 0.930 . S
C464 C459 1.261 . S
C464 C463 1.312 . S
C465 O437 1.214 . S
C465 O445 1.234 . S
C466 H438 0.929 . S
C466 C469 1.391 . S
C466 C471 1.391 . S
C467 H439 0.929 . S
C467 C468 1.390 . S
C467 N470 1.391 . S
C468 H440 0.930 . S
C468 C467 1.390 . S
C468 C469 1.392 . S
C469 H441 0.929 . S
C469 C466 1.391 . S
C469 C468 1.392 . S
N470 Co414 2.257 . S
N470 C467 1.391 . S
N470 C471 1.388 . S
C471 H442 0.930 . S
C471 C466 1.391 . S
C471 N470 1.388 . S
Co472 O474 2.143 . S
Co472 O480 2.074 . S
Co472 O483 2.093 . S
Co472 O496 2.097 . S
Co472 N513 2.151 . S
Co472 N521 2.214 . S
Co473 O474 2.160 . S
Co473 O479 2.058 . S
Co473 O489 2.057 . S
Co473 O504 2.037 1_554 S
Co473 N508 2.145 1_554 S
Co473 N529 2.257 . S
O474 Co472 2.143 . S
O474 Co473 2.160 . S
C475 O476 1.278 . S
C475 O483 1.224 . S
O476 C475 1.278 . S
C477 O478 1.245 . S
C477 O489 1.232 . S
O478 C477 1.245 . S
O479 Co473 2.058 . S
O479 C505 1.269 . S
O480 Co472 2.074 . S
O480 C505 1.257 . S
H481 C506 0.930 . S
H482 C512 0.930 . S
O483 Co472 2.093 . S
O483 C475 1.224 . S
H484 C516 0.929 . S
H485 C518 0.930 . S
H486 C519 0.930 1_556 S
H487 C517 0.929 . S
H488 C520 0.928 . S
O489 Co473 2.057 . S
O489 C477 1.232 . S
H490 C509 0.929 . S
H491 C510 0.929 1_554 S
H492 C522 0.931 . S
H493 C514 0.929 . S
H494 C523 0.930 . S
H495 C515 0.931 . S
O496 Co472 2.097 . S
O496 C524 1.214 1_554 S
H497 C525 0.929 . S
H498 C526 0.929 1_556 S
H499 C527 0.930 1_556 S
H500 C528 0.929 . S
H501 C530 0.930 . S
H502 C507 0.930 . S
H503 C511 0.930 . S
O504 Co473 2.037 1_556 S
O504 C524 1.234 . S
C505 O479 1.269 . S
C505 O480 1.257 . S
C506 H481 0.930 . S
C506 C509 1.388 . S
C506 C511 1.418 . S
C507 H502 0.930 . S
C507 C510 1.404 . S
C507 C511 1.353 . S
N508 Co473 2.145 1_556 S
N508 C509 1.397 . S
N508 C510 1.334 . S
C509 H490 0.929 . S
C509 C506 1.388 . S
C509 N508 1.397 . S
C510 H491 0.929 1_556 S
C510 C507 1.404 . S
C510 N508 1.334 . S
C511 H503 0.930 . S
C511 C506 1.418 . S
C511 C507 1.353 . S
C512 H482 0.930 . S
C512 N513 1.330 . S
C512 C514 1.446 . S
N513 Co472 2.151 . S
N513 C512 1.330 . S
N513 C517 1.418 1_455 S
C514 H493 0.929 . S
C514 C512 1.446 . S
C514 C515 1.332 1_455 S
C515 H495 0.931 . S
C515 C514 1.332 1_655 S
C515 C516 1.267 . S
C516 H484 0.929 . S
C516 C515 1.267 . S
C516 C517 1.251 . S
C517 H487 0.929 . S
C517 N513 1.418 1_655 S
C517 C516 1.251 . S
C518 H485 0.930 . S
C518 C520 1.406 . S
C518 C523 1.261 . S
C519 H486 0.930 1_554 S
C519 N521 1.325 . S
C519 C522 1.357 1_554 S
C520 H488 0.928 . S
C520 C518 1.406 . S
C520 N521 1.261 . S
N521 Co472 2.214 . S
N521 C519 1.325 . S
N521 C520 1.261 . S
C522 H492 0.931 . S
C522 C519 1.357 1_556 S
C522 C523 1.312 1_556 S
C523 H494 0.930 . S
C523 C518 1.261 . S
C523 C522 1.312 1_554 S
C524 O496 1.214 1_556 S
C524 O504 1.234 . S
C525 H497 0.929 . S
C525 C528 1.391 . S
C525 C530 1.391 . S
C526 H498 0.929 1_554 S
C526 C527 1.390 . S
C526 N529 1.391 . S
C527 H499 0.930 1_554 S
C527 C526 1.390 . S
C527 C528 1.392 . S
C528 H500 0.929 . S
C528 C525 1.391 . S
C528 C527 1.392 . S
N529 Co473 2.257 . S
N529 C526 1.391 . S
N529 C530 1.388 . S
C530 H501 0.930 . S
C530 C525 1.391 . S
C530 N529 1.388 . S
Co531 O533 2.143 . S
Co531 O539 2.074 . S
Co531 O542 2.093 . S
Co531 O555 2.097 . S
Co531 N572 2.151 . S
Co531 N580 2.214 . S
Co532 O533 2.160 . S
Co532 O538 2.058 . S
Co532 O548 2.057 . S
Co532 O563 2.037 . S
Co532 N567 2.145 . S
Co532 N588 2.257 . S
O533 Co531 2.143 . S
O533 Co532 2.160 . S
C534 O535 1.278 . S
C534 O542 1.224 . S
O535 C534 1.278 . S
C536 O537 1.245 . S
C536 O548 1.232 . S
O537 C536 1.245 . S
O538 Co532 2.058 . S
O538 C564 1.269 . S
O539 Co531 2.074 . S
O539 C564 1.257 . S
H540 C565 0.930 . S
H541 C571 0.930 . S
O542 Co531 2.093 . S
O542 C534 1.224 . S
H543 C575 0.929 . S
H544 C577 0.930 . S
H545 C578 0.930 . S
H546 C576 0.929 . S
H547 C579 0.928 . S
O548 Co532 2.057 . S
O548 C536 1.232 . S
H549 C568 0.929 . S
H550 C569 0.929 . S
H551 C581 0.931 . S
H552 C573 0.929 . S
H553 C582 0.930 . S
H554 C574 0.931 . S
O555 Co531 2.097 . S
O555 C583 1.214 . S
H556 C584 0.929 . S
H557 C585 0.929 . S
H558 C586 0.930 . S
H559 C587 0.929 . S
H560 C589 0.930 . S
H561 C566 0.930 . S
H562 C570 0.930 . S
O563 Co532 2.037 . S
O563 C583 1.234 . S
C564 O538 1.269 . S
C564 O539 1.257 . S
C565 H540 0.930 . S
C565 C568 1.388 . S
C565 C570 1.418 . S
C566 H561 0.930 . S
C566 C569 1.404 . S
C566 C570 1.353 . S
N567 Co532 2.145 . S
N567 C568 1.397 . S
N567 C569 1.334 . S
C568 H549 0.929 . S
C568 C565 1.388 . S
C568 N567 1.397 . S
C569 H550 0.929 . S
C569 C566 1.404 . S
C569 N567 1.334 . S
C570 H562 0.930 . S
C570 C565 1.418 . S
C570 C566 1.353 . S
C571 H541 0.930 . S
C571 N572 1.330 . S
C571 C573 1.446 . S
N572 Co531 2.151 . S
N572 C571 1.330 . S
N572 C576 1.418 1_545 S
C573 H552 0.929 . S
C573 C571 1.446 . S
C573 C574 1.332 1_545 S
C574 H554 0.931 . S
C574 C573 1.332 1_565 S
C574 C575 1.267 . S
C575 H543 0.929 . S
C575 C574 1.267 . S
C575 C576 1.251 . S
C576 H546 0.929 . S
C576 N572 1.418 1_565 S
C576 C575 1.251 . S
C577 H544 0.930 . S
C577 C579 1.406 . S
C577 C582 1.261 . S
C578 H545 0.930 . S
C578 N580 1.325 . S
C578 C581 1.357 . S
C579 H547 0.928 . S
C579 C577 1.406 . S
C579 N580 1.261 . S
N580 Co531 2.214 . S
N580 C578 1.325 . S
N580 C579 1.261 . S
C581 H551 0.931 . S
C581 C578 1.357 . S
C581 C582 1.312 . S
C582 H553 0.930 . S
C582 C577 1.261 . S
C582 C581 1.312 . S
C583 O555 1.214 . S
C583 O563 1.234 . S
C584 H556 0.929 . S
C584 C587 1.391 . S
C584 C589 1.391 . S
C585 H557 0.929 . S
C585 C586 1.390 . S
C585 N588 1.391 . S
C586 H558 0.930 . S
C586 C585 1.390 . S
C586 C587 1.392 . S
C587 H559 0.929 . S
C587 C584 1.391 . S
C587 C586 1.392 . S
N588 Co532 2.257 . S
N588 C585 1.391 . S
N588 C589 1.388 . S
C589 H560 0.930 . S
C589 C584 1.391 . S
C589 N588 1.388 . S
Co590 O592 2.143 . S
Co590 O598 2.074 . S
Co590 O601 2.093 . S
Co590 O614 2.097 . S
Co590 N631 2.151 . S
Co590 N639 2.214 . S
Co591 O592 2.160 . S
Co591 O597 2.058 . S
Co591 O607 2.057 . S
Co591 O622 2.037 . S
Co591 N626 2.145 . S
Co591 N647 2.257 . S
O592 Co590 2.143 . S
O592 Co591 2.160 . S
C593 O594 1.278 . S
C593 O601 1.224 . S
O594 C593 1.278 . S
C595 O596 1.245 . S
C595 O607 1.232 . S
O596 C595 1.245 . S
O597 Co591 2.058 . S
O597 C623 1.269 . S
O598 Co590 2.074 . S
O598 C623 1.257 . S
H599 C624 0.930 . S
H600 C630 0.930 . S
O601 Co590 2.093 . S
O601 C593 1.224 . S
H602 C634 0.929 . S
H603 C636 0.930 . S
H604 C637 0.930 . S
H605 C635 0.929 . S
H606 C638 0.928 . S
O607 Co591 2.057 . S
O607 C595 1.232 . S
H608 C627 0.929 . S
H609 C628 0.929 . S
H610 C640 0.931 . S
H611 C632 0.929 . S
H612 C641 0.930 . S
H613 C633 0.931 . S
O614 Co590 2.097 . S
O614 C642 1.214 . S
H615 C643 0.929 . S
H616 C644 0.929 . S
H617 C645 0.930 . S
H618 C646 0.929 . S
H619 C648 0.930 . S
H620 C625 0.930 . S
H621 C629 0.930 . S
O622 Co591 2.037 . S
O622 C642 1.234 . S
C623 O597 1.269 . S
C623 O598 1.257 . S
C624 H599 0.930 . S
C624 C627 1.388 . S
C624 C629 1.418 . S
C625 H620 0.930 . S
C625 C628 1.404 . S
C625 C629 1.353 . S
N626 Co591 2.145 . S
N626 C627 1.397 . S
N626 C628 1.334 . S
C627 H608 0.929 . S
C627 C624 1.388 . S
C627 N626 1.397 . S
C628 H609 0.929 . S
C628 C625 1.404 . S
C628 N626 1.334 . S
C629 H621 0.930 . S
C629 C624 1.418 . S
C629 C625 1.353 . S
C630 H600 0.930 . S
C630 N631 1.330 . S
C630 C632 1.446 . S
N631 Co590 2.151 . S
N631 C630 1.330 . S
N631 C635 1.418 . S
C632 H611 0.929 . S
C632 C630 1.446 . S
C632 C633 1.332 . S
C633 H613 0.931 . S
C633 C632 1.332 . S
C633 C634 1.267 . S
C634 H602 0.929 . S
C634 C633 1.267 . S
C634 C635 1.251 . S
C635 H605 0.929 . S
C635 N631 1.418 . S
C635 C634 1.251 . S
C636 H603 0.930 . S
C636 C638 1.406 . S
C636 C641 1.261 . S
C637 H604 0.930 . S
C637 N639 1.325 . S
C637 C640 1.357 . S
C638 H606 0.928 . S
C638 C636 1.406 . S
C638 N639 1.261 . S
N639 Co590 2.214 . S
N639 C637 1.325 . S
N639 C638 1.261 . S
C640 H610 0.931 . S
C640 C637 1.357 . S
C640 C641 1.312 . S
C641 H612 0.930 . S
C641 C636 1.261 . S
C641 C640 1.312 . S
C642 O614 1.214 . S
C642 O622 1.234 . S
C643 H615 0.929 . S
C643 C646 1.391 . S
C643 C648 1.391 . S
C644 H616 0.929 . S
C644 C645 1.390 . S
C644 N647 1.391 . S
C645 H617 0.930 . S
C645 C644 1.390 . S
C645 C646 1.392 . S
C646 H618 0.929 . S
C646 C643 1.391 . S
C646 C645 1.392 . S
N647 Co591 2.257 . S
N647 C644 1.391 . S
N647 C648 1.388 . S
C648 H619 0.930 . S
C648 C643 1.391 . S
C648 N647 1.388 . S
Co649 O651 2.143 . S
Co649 O657 2.074 . S
Co649 O660 2.093 . S
Co649 O673 2.097 . S
Co649 N690 2.151 . S
Co649 N698 2.214 . S
Co650 O651 2.160 . S
Co650 O656 2.058 . S
Co650 O666 2.057 . S
Co650 O681 2.037 . S
Co650 N685 2.145 . S
Co650 N706 2.257 . S
O651 Co649 2.143 . S
O651 Co650 2.160 . S
C652 O653 1.278 . S
C652 O660 1.224 . S
O653 C652 1.278 . S
C654 O655 1.245 . S
C654 O666 1.232 . S
O655 C654 1.245 . S
O656 Co650 2.058 . S
O656 C682 1.269 . S
O657 Co649 2.074 . S
O657 C682 1.257 . S
H658 C683 0.930 . S
H659 C689 0.930 . S
O660 Co649 2.093 . S
O660 C652 1.224 . S
H661 C693 0.929 . S
H662 C695 0.930 . S
H663 C696 0.930 . S
H664 C694 0.929 . S
H665 C697 0.928 . S
O666 Co650 2.057 . S
O666 C654 1.232 . S
H667 C686 0.929 . S
H668 C687 0.929 . S
H669 C699 0.931 . S
H670 C691 0.929 . S
H671 C700 0.930 . S
H672 C692 0.931 . S
O673 Co649 2.097 . S
O673 C701 1.214 . S
H674 C702 0.929 . S
H675 C703 0.929 . S
H676 C704 0.930 . S
H677 C705 0.929 . S
H678 C707 0.930 . S
H679 C684 0.930 . S
H680 C688 0.930 . S
O681 Co650 2.037 . S
O681 C701 1.234 . S
C682 O656 1.269 . S
C682 O657 1.257 . S
C683 H658 0.930 . S
C683 C686 1.388 . S
C683 C688 1.418 . S
C684 H679 0.930 . S
C684 C687 1.404 . S
C684 C688 1.353 . S
N685 Co650 2.145 . S
N685 C686 1.397 . S
N685 C687 1.334 . S
C686 H667 0.929 . S
C686 C683 1.388 . S
C686 N685 1.397 . S
C687 H668 0.929 . S
C687 C684 1.404 . S
C687 N685 1.334 . S
C688 H680 0.930 . S
C688 C683 1.418 . S
C688 C684 1.353 . S
C689 H659 0.930 . S
C689 N690 1.330 . S
C689 C691 1.446 . S
N690 Co649 2.151 . S
N690 C689 1.330 . S
N690 C694 1.418 1_655 S
C691 H670 0.929 . S
C691 C689 1.446 . S
C691 C692 1.332 1_655 S
C692 H672 0.931 . S
C692 C691 1.332 1_455 S
C692 C693 1.267 . S
C693 H661 0.929 . S
C693 C692 1.267 . S
C693 C694 1.251 . S
C694 H664 0.929 . S
C694 N690 1.418 1_455 S
C694 C693 1.251 . S
C695 H662 0.930 . S
C695 C697 1.406 . S
C695 C700 1.261 . S
C696 H663 0.930 . S
C696 N698 1.325 . S
C696 C699 1.357 . S
C697 H665 0.928 . S
C697 C695 1.406 . S
C697 N698 1.261 . S
N698 Co649 2.214 . S
N698 C696 1.325 . S
N698 C697 1.261 . S
C699 H669 0.931 . S
C699 C696 1.357 . S
C699 C700 1.312 . S
C700 H671 0.930 . S
C700 C695 1.261 . S
C700 C699 1.312 . S
C701 O673 1.214 . S
C701 O681 1.234 . S
C702 H674 0.929 . S
C702 C705 1.391 . S
C702 C707 1.391 . S
C703 H675 0.929 . S
C703 C704 1.390 . S
C703 N706 1.391 . S
C704 H676 0.930 . S
C704 C703 1.390 . S
C704 C705 1.392 . S
C705 H677 0.929 . S
C705 C702 1.391 . S
C705 C704 1.392 . S
N706 Co650 2.257 . S
N706 C703 1.391 . S
N706 C707 1.388 . S
C707 H678 0.930 . S
C707 C702 1.391 . S
C707 N706 1.388 . S
H708 C716 0.950 . S
H709 C721 0.950 . S
H710 C718 0.950 . S
H711 C720 0.950 . S
H712 C722 0.950 . S
H713 C724 0.950 . S
H714 C726 0.950 . S
H715 C727 0.950 . S
C716 H708 0.950 . S
C716 C717 1.386 . S
C716 C718 1.391 . S
C717 C716 1.386 . S
C717 C721 1.393 . S
C718 H710 0.950 . S
C718 C716 1.391 . S
C718 C719 1.400 . S
C719 C718 1.400 . S
C719 C720 1.398 . S
C719 C725 1.491 . S
C720 H711 0.950 . S
C720 C719 1.398 . S
C720 C721 1.391 . S
C721 H709 0.950 . S
C721 C717 1.393 . S
C721 C720 1.391 . S
C722 H712 0.950 . S
C722 C723 1.386 . S
C722 C724 1.391 . S
C723 C722 1.386 . S
C723 C727 1.393 . S
C724 H713 0.950 . S
C724 C722 1.391 . S
C724 C725 1.400 . S
C725 C719 1.491 . S
C725 C724 1.400 . S
C725 C726 1.398 . S
C726 H714 0.950 . S
C726 C725 1.398 . S
C726 C727 1.391 . S
C727 H715 0.950 . S
C727 C723 1.393 . S
C727 C726 1.391 . S
H728 C736 0.949 . S
H729 C741 0.950 . S
H730 C738 0.951 1_565 S
H731 C740 0.950 . S
H732 C742 0.950 . S
H733 C744 0.950 . S
H734 C746 0.953 . S
H735 C747 0.948 1_565 S
C736 H728 0.949 . S
C736 C737 1.386 . S
C736 C738 1.391 . S
C737 C736 1.386 . S
C737 C741 1.393 . S
C738 H730 0.951 1_545 S
C738 C736 1.391 . S
C738 C739 1.400 . S
C739 C738 1.400 . S
C739 C740 1.398 . S
C739 C745 1.491 . S
C740 H731 0.950 . S
C740 C739 1.398 . S
C740 C741 1.391 . S
C741 H729 0.950 . S
C741 C737 1.393 . S
C741 C740 1.391 . S
C742 H732 0.950 . S
C742 C743 1.386 . S
C742 C744 1.391 . S
C743 C742 1.386 . S
C743 C747 1.393 . S
C744 H733 0.950 . S
C744 C742 1.391 . S
C744 C745 1.400 . S
C745 C739 1.491 . S
C745 C744 1.400 . S
C745 C746 1.398 . S
C746 H734 0.953 . S
C746 C745 1.398 . S
C746 C747 1.391 . S
C747 H735 0.948 1_545 S
C747 C743 1.393 . S
C747 C746 1.391 . S
H748 C756 0.950 . S
H749 C761 0.950 . S
H750 C758 0.950 . S
H751 C760 0.950 . S
H752 C762 0.950 . S
H753 C764 0.950 . S
H754 C766 0.950 . S
H755 C767 0.950 . S
C756 H748 0.950 . S
C756 C757 1.386 . S
C756 C758 1.391 . S
C757 C756 1.386 . S
C757 C761 1.393 . S
C758 H750 0.950 . S
C758 C756 1.391 . S
C758 C759 1.400 . S
C759 C758 1.400 . S
C759 C760 1.398 . S
C759 C765 1.491 . S
C760 H751 0.950 . S
C760 C759 1.398 . S
C760 C761 1.391 . S
C761 H749 0.950 . S
C761 C757 1.393 . S
C761 C760 1.391 . S
C762 H752 0.950 . S
C762 C763 1.386 . S
C762 C764 1.391 . S
C763 C762 1.386 . S
C763 C767 1.393 . S
C764 H753 0.950 . S
C764 C762 1.391 . S
C764 C765 1.400 . S
C765 C759 1.491 . S
C765 C764 1.400 . S
C765 C766 1.398 . S
C766 H754 0.950 . S
C766 C765 1.398 . S
C766 C767 1.391 . S
C767 H755 0.950 . S
C767 C763 1.393 . S
C767 C766 1.391 . S
H768 C776 0.949 . S
H769 C781 0.950 . S
H770 C778 0.951 1_455 S
H771 C780 0.950 . S
H772 C782 0.950 . S
H773 C784 0.950 . S
H774 C786 0.951 . S
H775 C787 0.945 1_455 S
C776 H768 0.949 . S
C776 C777 1.386 . S
C776 C778 1.391 . S
C777 C776 1.386 . S
C777 C781 1.393 . S
C778 H770 0.951 1_655 S
C778 C776 1.391 . S
C778 C779 1.400 . S
C779 C778 1.400 . S
C779 C780 1.398 . S
C779 C785 1.491 . S
C780 H771 0.950 . S
C780 C779 1.398 . S
C780 C781 1.391 . S
C781 H769 0.950 . S
C781 C777 1.393 . S
C781 C780 1.391 . S
C782 H772 0.950 . S
C782 C783 1.386 . S
C782 C784 1.391 . S
C783 C782 1.386 . S
C783 C787 1.393 . S
C784 H773 0.950 . S
C784 C782 1.391 . S
C784 C785 1.400 . S
C785 C779 1.491 . S
C785 C784 1.400 . S
C785 C786 1.398 . S
C786 H774 0.951 . S
C786 C785 1.398 . S
C786 C787 1.391 . S
C787 H775 0.945 1_655 S
C787 C783 1.393 . S
C787 C786 1.391 . S
H788 C796 0.950 . S
H789 C801 0.950 . S
H790 C798 0.950 . S
H791 C800 0.950 . S
H792 C802 0.950 . S
H793 C804 0.950 . S
H794 C806 0.950 . S
H795 C807 0.950 . S
C796 H788 0.950 . S
C796 C797 1.386 . S
C796 C798 1.391 . S
C797 C796 1.386 . S
C797 C801 1.393 . S
C798 H790 0.950 . S
C798 C796 1.391 . S
C798 C799 1.400 . S
C799 C798 1.400 . S
C799 C800 1.398 . S
C799 C805 1.491 . S
C800 H791 0.950 . S
C800 C799 1.398 . S
C800 C801 1.391 . S
C801 H789 0.950 . S
C801 C797 1.393 . S
C801 C800 1.391 . S
C802 H792 0.950 . S
C802 C803 1.386 . S
C802 C804 1.391 . S
C803 C802 1.386 . S
C803 C807 1.393 . S
C804 H793 0.950 . S
C804 C802 1.391 . S
C804 C805 1.400 . S
C805 C799 1.491 . S
C805 C804 1.400 . S
C805 C806 1.398 . S
C806 H794 0.950 . S
C806 C805 1.398 . S
C806 C807 1.391 . S
C807 H795 0.950 . S
C807 C803 1.393 . S
C807 C806 1.391 . S
H808 C816 0.950 . S
H809 C821 0.950 . S
H810 C818 0.950 . S
H811 C820 0.950 . S
H812 C822 0.950 . S
H813 C824 0.950 . S
H814 C826 0.950 . S
H815 C827 0.950 . S
C816 H808 0.950 . S
C816 C817 1.386 . S
C816 C818 1.391 . S
C817 C816 1.386 . S
C817 C821 1.393 . S
C818 H810 0.950 . S
C818 C816 1.391 . S
C818 C819 1.400 . S
C819 C818 1.400 . S
C819 C820 1.398 . S
C819 C825 1.491 . S
C820 H811 0.950 . S
C820 C819 1.398 . S
C820 C821 1.391 . S
C821 H809 0.950 . S
C821 C817 1.393 . S
C821 C820 1.391 . S
C822 H812 0.950 . S
C822 C823 1.386 . S
C822 C824 1.391 . S
C823 C822 1.386 . S
C823 C827 1.393 . S
C824 H813 0.950 . S
C824 C822 1.391 . S
C824 C825 1.400 . S
C825 C819 1.491 . S
C825 C824 1.400 . S
C825 C826 1.398 . S
C826 H814 0.950 . S
C826 C825 1.398 . S
C826 C827 1.391 . S
C827 H815 0.950 . S
C827 C823 1.393 . S
C827 C826 1.391 . S
H828 C836 0.950 . S
H829 C841 0.950 . S
H830 C838 0.950 . S
H831 C840 0.950 . S
H832 C842 0.950 . S
H833 C844 0.950 . S
H834 C846 0.950 . S
H835 C847 0.950 . S
C836 H828 0.950 . S
C836 C837 1.386 . S
C836 C838 1.391 . S
C837 C836 1.386 . S
C837 C841 1.393 . S
C838 H830 0.950 . S
C838 C836 1.391 . S
C838 C839 1.400 . S
C839 C838 1.400 . S
C839 C840 1.398 . S
C839 C845 1.491 . S
C840 H831 0.950 . S
C840 C839 1.398 . S
C840 C841 1.391 . S
C841 H829 0.950 . S
C841 C837 1.393 . S
C841 C840 1.391 . S
C842 H832 0.950 . S
C842 C843 1.386 . S
C842 C844 1.391 . S
C843 C842 1.386 . S
C843 C847 1.393 . S
C844 H833 0.950 . S
C844 C842 1.391 . S
C844 C845 1.400 . S
C845 C839 1.491 . S
C845 C844 1.400 . S
C845 C846 1.398 . S
C846 H834 0.950 . S
C846 C845 1.398 . S
C846 C847 1.391 . S
C847 H835 0.950 . S
C847 C843 1.393 . S
C847 C846 1.391 . S
H848 C856 0.950 . S
H849 C861 0.950 . S
H850 C858 0.950 . S
H851 C860 0.950 . S
H852 C862 0.950 . S
H853 C864 0.950 . S
H854 C866 0.950 . S
H855 C867 0.950 . S
C856 H848 0.950 . S
C856 C857 1.386 . S
C856 C858 1.391 . S
C857 C856 1.386 . S
C857 C861 1.393 . S
C858 H850 0.950 . S
C858 C856 1.391 . S
C858 C859 1.400 . S
C859 C858 1.400 . S
C859 C860 1.398 . S
C859 C865 1.491 . S
C860 H851 0.950 . S
C860 C859 1.398 . S
C860 C861 1.391 . S
C861 H849 0.950 . S
C861 C857 1.393 . S
C861 C860 1.391 . S
C862 H852 0.950 . S
C862 C863 1.386 . S
C862 C864 1.391 . S
C863 C862 1.386 . S
C863 C867 1.393 . S
C864 H853 0.950 . S
C864 C862 1.391 . S
C864 C865 1.400 . S
C865 C859 1.491 . S
C865 C864 1.400 . S
C865 C866 1.398 . S
C866 H854 0.950 . S
C866 C865 1.398 . S
C866 C867 1.391 . S
C867 H855 0.950 . S
C867 C863 1.393 . S
C867 C866 1.391 . S
H868 C876 0.950 . S
H869 C881 0.950 . S
H870 C878 0.950 . S
H871 C880 0.950 . S
H872 C882 0.950 1_545 S
H873 C884 0.950 . S
H874 C886 0.950 . S
H875 C887 0.950 . S
C876 H868 0.950 . S
C876 C877 1.386 . S
C876 C878 1.391 . S
C877 C876 1.386 . S
C877 C881 1.393 . S
C878 H870 0.950 . S
C878 C876 1.391 . S
C878 C879 1.400 . S
C879 C878 1.400 . S
C879 C880 1.398 . S
C879 C885 1.491 . S
C880 H871 0.950 . S
C880 C879 1.398 . S
C880 C881 1.391 . S
C881 H869 0.950 . S
C881 C877 1.393 . S
C881 C880 1.391 . S
C882 H872 0.950 1_565 S
C882 C883 1.386 . S
C882 C884 1.391 . S
C883 C882 1.386 . S
C883 C887 1.393 . S
C884 H873 0.950 . S
C884 C882 1.391 . S
C884 C885 1.400 . S
C885 C879 1.491 . S
C885 C884 1.400 . S
C885 C886 1.398 . S
C886 H874 0.950 . S
C886 C885 1.398 . S
C886 C887 1.391 . S
C887 H875 0.950 . S
C887 C883 1.393 . S
C887 C886 1.391 . S
H888 C896 0.950 . S
H889 C901 0.950 . S
H890 C898 0.950 . S
H891 C900 0.950 . S
H892 C902 0.950 . S
H893 C904 0.950 . S
H894 C906 0.950 . S
H895 C907 0.950 . S
C896 H888 0.950 . S
C896 C897 1.386 . S
C896 C898 1.391 . S
C897 C896 1.386 . S
C897 C901 1.393 . S
C898 H890 0.950 . S
C898 C896 1.391 . S
C898 C899 1.400 . S
C899 C898 1.400 . S
C899 C900 1.398 . S
C899 C905 1.491 . S
C900 H891 0.950 . S
C900 C899 1.398 . S
C900 C901 1.391 . S
C901 H889 0.950 . S
C901 C897 1.393 . S
C901 C900 1.391 . S
C902 H892 0.950 . S
C902 C903 1.386 . S
C902 C904 1.391 . S
C903 C902 1.386 . S
C903 C907 1.393 . S
C904 H893 0.950 . S
C904 C902 1.391 . S
C904 C905 1.400 . S
C905 C899 1.491 . S
C905 C904 1.400 . S
C905 C906 1.398 . S
C906 H894 0.950 . S
C906 C905 1.398 . S
C906 C907 1.391 . S
C907 H895 0.950 . S
C907 C903 1.393 . S
C907 C906 1.391 . S
H908 C916 0.950 1_655 S
H909 C921 0.950 . S
H910 C918 0.950 . S
H911 C920 0.950 . S
H912 C922 0.950 . S
H913 C924 0.950 . S
H914 C926 0.950 . S
H915 C927 0.950 . S
C916 H908 0.950 1_455 S
C916 C917 1.386 . S
C916 C918 1.391 . S
C917 C916 1.386 . S
C917 C921 1.393 . S
C918 H910 0.950 . S
C918 C916 1.391 . S
C918 C919 1.400 . S
C919 C918 1.400 . S
C919 C920 1.398 . S
C919 C925 1.491 . S
C920 H911 0.950 . S
C920 C919 1.398 . S
C920 C921 1.391 . S
C921 H909 0.950 . S
C921 C917 1.393 . S
C921 C920 1.391 . S
C922 H912 0.950 . S
C922 C923 1.386 . S
C922 C924 1.391 . S
C923 C922 1.386 . S
C923 C927 1.393 . S
C924 H913 0.950 . S
C924 C922 1.391 . S
C924 C925 1.400 . S
C925 C919 1.491 . S
C925 C924 1.400 . S
C925 C926 1.398 . S
C926 H914 0.950 . S
C926 C925 1.398 . S
C926 C927 1.391 . S
C927 H915 0.950 . S
C927 C923 1.393 . S
C927 C926 1.391 . S
H928 C936 0.950 . S
H929 C941 0.950 . S
H930 C938 0.950 . S
H931 C940 0.950 . S
H932 C942 0.950 . S
H933 C944 0.950 . S
H934 C946 0.950 . S
H935 C947 0.950 . S
C936 H928 0.950 . S
C936 C937 1.386 . S
C936 C938 1.391 . S
C937 C936 1.386 . S
C937 C941 1.393 . S
C938 H930 0.950 . S
C938 C936 1.391 . S
C938 C939 1.400 . S
C939 C938 1.400 . S
C939 C940 1.398 . S
C939 C945 1.491 . S
C940 H931 0.950 . S
C940 C939 1.398 . S
C940 C941 1.391 . S
C941 H929 0.950 . S
C941 C937 1.393 . S
C941 C940 1.391 . S
C942 H932 0.950 . S
C942 C943 1.386 . S
C942 C944 1.391 . S
C943 C942 1.386 . S
C943 C947 1.393 . S
C944 H933 0.950 . S
C944 C942 1.391 . S
C944 C945 1.400 . S
C945 C939 1.491 . S
C945 C944 1.400 . S
C945 C946 1.398 . S
C946 H934 0.950 . S
C946 C945 1.398 . S
C946 C947 1.391 . S
C947 H935 0.950 . S
C947 C943 1.393 . S
C947 C946 1.391 . S
H948 C956 0.950 . S
H949 C961 0.950 . S
H950 C958 0.950 . S
H951 C960 0.950 . S
H952 C962 0.950 . S
H953 C964 0.950 . S
H954 C966 0.950 . S
H955 C967 0.950 . S
C956 H948 0.950 . S
C956 C957 1.386 . S
C956 C958 1.391 . S
C957 C956 1.386 . S
C957 C961 1.393 . S
C958 H950 0.950 . S
C958 C956 1.391 . S
C958 C959 1.400 . S
C959 C958 1.400 . S
C959 C960 1.398 . S
C959 C965 1.491 . S
C960 H951 0.950 . S
C960 C959 1.398 . S
C960 C961 1.391 . S
C961 H949 0.950 . S
C961 C957 1.393 . S
C961 C960 1.391 . S
C962 H952 0.950 . S
C962 C963 1.386 . S
C962 C964 1.391 . S
C963 C962 1.386 . S
C963 C967 1.393 . S
C964 H953 0.950 . S
C964 C962 1.391 . S
C964 C965 1.400 . S
C965 C959 1.491 . S
C965 C964 1.400 . S
C965 C966 1.398 . S
C966 H954 0.950 . S
C966 C965 1.398 . S
C966 C967 1.391 . S
C967 H955 0.950 . S
C967 C963 1.393 . S
C967 C966 1.391 . S
H968 C976 0.950 . S
H969 C981 0.950 . S
H970 C978 0.950 . S
H971 C980 0.950 . S
H972 C982 0.950 1_455 S
H973 C984 0.950 . S
H974 C986 0.950 . S
H975 C987 0.950 1_554 S
C976 H968 0.950 . S
C976 C977 1.386 . S
C976 C978 1.391 . S
C977 C976 1.386 . S
C977 C981 1.393 . S
C978 H970 0.950 . S
C978 C976 1.391 . S
C978 C979 1.400 . S
C979 C978 1.400 . S
C979 C980 1.398 . S
C979 C985 1.491 . S
C980 H971 0.950 . S
C980 C979 1.398 . S
C980 C981 1.391 . S
C981 H969 0.950 . S
C981 C977 1.393 . S
C981 C980 1.391 . S
C982 H972 0.950 1_655 S
C982 C983 1.386 . S
C982 C984 1.391 . S
C983 C982 1.386 . S
C983 C987 1.393 . S
C984 H973 0.950 . S
C984 C982 1.391 . S
C984 C985 1.400 . S
C985 C979 1.491 . S
C985 C984 1.400 . S
C985 C986 1.398 . S
C986 H974 0.950 . S
C986 C985 1.398 . S
C986 C987 1.391 . S
C987 H975 0.950 1_556 S
C987 C983 1.393 . S
C987 C986 1.391 . S
H988 C996 0.950 . S
H989 C1001 0.950 . S
H990 C998 0.950 . S
H991 C1000 0.950 . S
H992 C1002 0.950 . S
H993 C1004 0.950 . S
H994 C1006 0.950 . S
H995 C1007 0.950 . S
C996 H988 0.950 . S
C996 C997 1.386 . S
C996 C998 1.391 . S
C997 C996 1.386 . S
C997 C1001 1.393 . S
C998 H990 0.950 . S
C998 C996 1.391 . S
C998 C999 1.400 . S
C999 C998 1.400 . S
C999 C1000 1.398 . S
C999 C1005 1.491 . S
C1000 H991 0.950 . S
C1000 C999 1.398 . S
C1000 C1001 1.391 . S
C1001 H989 0.950 . S
C1001 C997 1.393 . S
C1001 C1000 1.391 . S
C1002 H992 0.950 . S
C1002 C1003 1.386 . S
C1002 C1004 1.391 . S
C1003 C1002 1.386 . S
C1003 C1007 1.393 . S
C1004 H993 0.950 . S
C1004 C1002 1.391 . S
C1004 C1005 1.400 . S
C1005 C999 1.491 . S
C1005 C1004 1.400 . S
C1005 C1006 1.398 . S
C1006 H994 0.950 . S
C1006 C1005 1.398 . S
C1006 C1007 1.391 . S
C1007 H995 0.950 . S
C1007 C1003 1.393 . S
C1007 C1006 1.391 . S
H1008 C1016 0.950 . S
H1009 C1021 0.950 . S
H1010 C1018 0.950 . S
H1011 C1020 0.950 . S
H1012 C1022 0.950 . S
H1013 C1024 0.950 . S
H1014 C1026 0.950 . S
H1015 C1027 0.950 . S
C1016 H1008 0.950 . S
C1016 C1017 1.386 . S
C1016 C1018 1.391 . S
C1017 C1016 1.386 . S
C1017 C1021 1.393 . S
C1018 H1010 0.950 . S
C1018 C1016 1.391 . S
C1018 C1019 1.400 . S
C1019 C1018 1.400 . S
C1019 C1020 1.398 . S
C1019 C1025 1.491 . S
C1020 H1011 0.950 . S
C1020 C1019 1.398 . S
C1020 C1021 1.391 . S
C1021 H1009 0.950 . S
C1021 C1017 1.393 . S
C1021 C1020 1.391 . S
C1022 H1012 0.950 . S
C1022 C1023 1.386 . S
C1022 C1024 1.391 . S
C1023 C1022 1.386 . S
C1023 C1027 1.393 . S
C1024 H1013 0.950 . S
C1024 C1022 1.391 . S
C1024 C1025 1.400 . S
C1025 C1019 1.491 . S
C1025 C1024 1.400 . S
C1025 C1026 1.398 . S
C1026 H1014 0.950 . S
C1026 C1025 1.398 . S
C1026 C1027 1.391 . S
C1027 H1015 0.950 . S
C1027 C1023 1.393 . S
C1027 C1026 1.391 . S
H1028 C1036 0.950 . S
H1029 C1041 0.950 . S
H1030 C1038 0.950 . S
H1031 C1040 0.950 . S
H1032 C1042 0.950 1_655 S
H1033 C1044 0.950 . S
H1034 C1046 0.950 . S
H1035 C1047 0.950 . S
C1036 H1028 0.950 . S
C1036 C1037 1.386 . S
C1036 C1038 1.391 . S
C1037 C1036 1.386 . S
C1037 C1041 1.393 . S
C1038 H1030 0.950 . S
C1038 C1036 1.391 . S
C1038 C1039 1.400 . S
C1039 C1038 1.400 . S
C1039 C1040 1.398 . S
C1039 C1045 1.491 . S
C1040 H1031 0.950 . S
C1040 C1039 1.398 . S
C1040 C1041 1.391 . S
C1041 H1029 0.950 . S
C1041 C1037 1.393 . S
C1041 C1040 1.391 . S
C1042 H1032 0.950 1_455 S
C1042 C1043 1.386 . S
C1042 C1044 1.391 . S
C1043 C1042 1.386 . S
C1043 C1047 1.393 . S
C1044 H1033 0.950 . S
C1044 C1042 1.391 . S
C1044 C1045 1.400 . S
C1045 C1039 1.491 . S
C1045 C1044 1.400 . S
C1045 C1046 1.398 . S
C1046 H1034 0.950 . S
C1046 C1045 1.398 . S
C1046 C1047 1.391 . S
C1047 H1035 0.950 . S
C1047 C1043 1.393 . S
C1047 C1046 1.391 . S
H1048 C1056 0.950 . S
H1049 C1061 0.950 . S
H1050 C1058 0.950 . S
H1051 C1060 0.950 . S
H1052 C1062 0.950 . S
H1053 C1064 0.950 . S
H1054 C1066 0.950 . S
H1055 C1067 0.981 . S
C1056 H1048 0.950 . S
C1056 C1057 1.386 . S
C1056 C1058 1.391 . S
C1057 C1056 1.386 . S
C1057 C1061 1.393 . S
C1058 H1050 0.950 . S
C1058 C1056 1.391 . S
C1058 C1059 1.400 . S
C1059 C1058 1.400 . S
C1059 C1060 1.398 . S
C1059 C1065 1.491 . S
C1060 H1051 0.950 . S
C1060 C1059 1.398 . S
C1060 C1061 1.391 . S
C1061 H1049 0.950 . S
C1061 C1057 1.393 . S
C1061 C1060 1.391 . S
C1062 H1052 0.950 . S
C1062 C1063 1.386 . S
C1062 C1064 1.391 . S
C1063 C1062 1.386 . S
C1063 C1067 1.393 . S
C1064 H1053 0.950 . S
C1064 C1062 1.391 . S
C1064 C1065 1.400 . S
C1065 C1059 1.491 . S
C1065 C1064 1.400 . S
C1065 C1066 1.398 . S
C1066 H1054 0.950 . S
C1066 C1065 1.398 . S
C1066 C1067 1.391 . S
C1067 H1055 0.981 . S
C1067 C1063 1.393 . S
C1067 C1066 1.391 . S
H1068 C1076 0.950 . S
H1069 C1081 0.950 . S
H1070 C1078 0.950 . S
H1071 C1080 0.950 . S
H1072 C1082 0.950 . S
H1073 C1084 0.950 . S
H1074 C1086 0.950 . S
H1075 C1087 0.950 . S
C1076 H1068 0.950 . S
C1076 C1077 1.386 . S
C1076 C1078 1.391 . S
C1077 C1076 1.386 . S
C1077 C1081 1.393 . S
C1078 H1070 0.950 . S
C1078 C1076 1.391 . S
C1078 C1079 1.400 . S
C1079 C1078 1.400 . S
C1079 C1080 1.398 . S
C1079 C1085 1.491 . S
C1080 H1071 0.950 . S
C1080 C1079 1.398 . S
C1080 C1081 1.391 . S
C1081 H1069 0.950 . S
C1081 C1077 1.393 . S
C1081 C1080 1.391 . S
C1082 H1072 0.950 . S
C1082 C1083 1.386 . S
C1082 C1084 1.391 . S
C1083 C1082 1.386 . S
C1083 C1087 1.393 . S
C1084 H1073 0.950 . S
C1084 C1082 1.391 . S
C1084 C1085 1.400 . S
C1085 C1079 1.491 . S
C1085 C1084 1.400 . S
C1085 C1086 1.398 . S
C1086 H1074 0.950 . S
C1086 C1085 1.398 . S
C1086 C1087 1.391 . S
C1087 H1075 0.950 . S
C1087 C1083 1.393 . S
C1087 C1086 1.391 . S
H1088 C1096 0.950 . S
H1089 C1101 0.950 . S
H1090 C1098 0.950 . S
H1091 C1100 0.950 . S
H1092 C1102 0.950 . S
H1093 C1104 0.950 . S
H1094 C1106 0.950 . S
H1095 C1107 0.950 . S
C1096 H1088 0.950 . S
C1096 C1097 1.386 . S
C1096 C1098 1.391 . S
C1097 C1096 1.386 . S
C1097 C1101 1.393 . S
C1098 H1090 0.950 . S
C1098 C1096 1.391 . S
C1098 C1099 1.400 . S
C1099 C1098 1.400 . S
C1099 C1100 1.398 . S
C1099 C1105 1.491 . S
C1100 H1091 0.950 . S
C1100 C1099 1.398 . S
C1100 C1101 1.391 . S
C1101 H1089 0.950 . S
C1101 C1097 1.393 . S
C1101 C1100 1.391 . S
C1102 H1092 0.950 . S
C1102 C1103 1.386 . S
C1102 C1104 1.391 . S
C1103 C1102 1.386 . S
C1103 C1107 1.393 . S
C1104 H1093 0.950 . S
C1104 C1102 1.391 . S
C1104 C1105 1.400 . S
C1105 C1099 1.491 . S
C1105 C1104 1.400 . S
C1105 C1106 1.398 . S
C1106 H1094 0.950 . S
C1106 C1105 1.398 . S
C1106 C1107 1.391 . S
C1107 H1095 0.950 . S
C1107 C1103 1.393 . S
C1107 C1106 1.391 . S
H1108 C1116 0.950 . S
H1109 C1121 0.950 . S
H1110 C1118 0.950 . S
H1111 C1120 0.950 . S
H1112 C1122 0.950 . S
H1113 C1124 0.950 . S
H1114 C1126 0.950 . S
H1115 C1127 0.950 . S
C1116 H1108 0.950 . S
C1116 C1117 1.386 . S
C1116 C1118 1.391 . S
C1117 C1116 1.386 . S
C1117 C1121 1.393 . S
C1118 H1110 0.950 . S
C1118 C1116 1.391 . S
C1118 C1119 1.400 . S
C1119 C1118 1.400 . S
C1119 C1120 1.398 . S
C1119 C1125 1.491 . S
C1120 H1111 0.950 . S
C1120 C1119 1.398 . S
C1120 C1121 1.391 . S
C1121 H1109 0.950 . S
C1121 C1117 1.393 . S
C1121 C1120 1.391 . S
C1122 H1112 0.950 . S
C1122 C1123 1.386 . S
C1122 C1124 1.391 . S
C1123 C1122 1.386 . S
C1123 C1127 1.393 . S
C1124 H1113 0.950 . S
C1124 C1122 1.391 . S
C1124 C1125 1.400 . S
C1125 C1119 1.491 . S
C1125 C1124 1.400 . S
C1125 C1126 1.398 . S
C1126 H1114 0.950 . S
C1126 C1125 1.398 . S
C1126 C1127 1.391 . S
C1127 H1115 0.950 . S
C1127 C1123 1.393 . S
C1127 C1126 1.391 . S
H1128 C1136 0.950 . S
H1129 C1141 0.950 . S
H1130 C1138 0.950 . S
H1131 C1140 0.950 . S
H1132 C1142 0.950 . S
H1133 C1144 0.950 . S
H1134 C1146 0.950 . S
H1135 C1147 0.950 . S
C1136 H1128 0.950 . S
C1136 C1137 1.386 . S
C1136 C1138 1.391 . S
C1137 C1136 1.386 . S
C1137 C1141 1.393 . S
C1138 H1130 0.950 . S
C1138 C1136 1.391 . S
C1138 C1139 1.400 . S
C1139 C1138 1.400 . S
C1139 C1140 1.398 . S
C1139 C1145 1.491 . S
C1140 H1131 0.950 . S
C1140 C1139 1.398 . S
C1140 C1141 1.391 . S
C1141 H1129 0.950 . S
C1141 C1137 1.393 . S
C1141 C1140 1.391 . S
C1142 H1132 0.950 . S
C1142 C1143 1.386 . S
C1142 C1144 1.391 . S
C1143 C1142 1.386 . S
C1143 C1147 1.393 . S
C1144 H1133 0.950 . S
C1144 C1142 1.391 . S
C1144 C1145 1.400 . S
C1145 C1139 1.491 . S
C1145 C1144 1.400 . S
C1145 C1146 1.398 . S
C1146 H1134 0.950 . S
C1146 C1145 1.398 . S
C1146 C1147 1.391 . S
C1147 H1135 0.950 . S
C1147 C1143 1.393 . S
C1147 C1146 1.391 . S
H1148 C1156 0.950 . S
H1149 C1161 0.950 . S
H1150 C1158 0.950 . S
H1151 C1160 0.950 . S
H1152 C1162 0.950 . S
H1153 C1164 0.950 . S
H1154 C1166 0.950 . S
H1155 C1167 0.950 . S
C1156 H1148 0.950 . S
C1156 C1157 1.386 . S
C1156 C1158 1.391 . S
C1157 C1156 1.386 . S
C1157 C1161 1.393 . S
C1158 H1150 0.950 . S
C1158 C1156 1.391 . S
C1158 C1159 1.400 . S
C1159 C1158 1.400 . S
C1159 C1160 1.398 . S
C1159 C1165 1.491 . S
C1160 H1151 0.950 . S
C1160 C1159 1.398 . S
C1160 C1161 1.391 . S
C1161 H1149 0.950 . S
C1161 C1157 1.393 . S
C1161 C1160 1.391 . S
C1162 H1152 0.950 . S
C1162 C1163 1.386 . S
C1162 C1164 1.391 . S
C1163 C1162 1.386 . S
C1163 C1167 1.393 . S
C1164 H1153 0.950 . S
C1164 C1162 1.391 . S
C1164 C1165 1.400 . S
C1165 C1159 1.491 . S
C1165 C1164 1.400 . S
C1165 C1166 1.398 . S
C1166 H1154 0.950 . S
C1166 C1165 1.398 . S
C1166 C1167 1.391 . S
C1167 H1155 0.950 . S
C1167 C1163 1.393 . S
C1167 C1166 1.391 . S
H1168 C1176 0.950 . S
H1169 C1181 0.950 . S
H1170 C1178 0.950 . S
H1171 C1180 0.950 . S
H1172 C1182 0.950 . S
H1173 C1184 0.950 . S
H1174 C1186 0.950 . S
H1175 C1187 0.950 . S
C1176 H1168 0.950 . S
C1176 C1177 1.386 . S
C1176 C1178 1.391 . S
C1177 C1176 1.386 . S
C1177 C1181 1.393 . S
C1178 H1170 0.950 . S
C1178 C1176 1.391 . S
C1178 C1179 1.400 . S
C1179 C1178 1.400 . S
C1179 C1180 1.398 . S
C1179 C1185 1.491 . S
C1180 H1171 0.950 . S
C1180 C1179 1.398 . S
C1180 C1181 1.391 . S
C1181 H1169 0.950 . S
C1181 C1177 1.393 . S
C1181 C1180 1.391 . S
C1182 H1172 0.950 . S
C1182 C1183 1.386 . S
C1182 C1184 1.391 . S
C1183 C1182 1.386 . S
C1183 C1187 1.393 . S
C1184 H1173 0.950 . S
C1184 C1182 1.391 . S
C1184 C1185 1.400 . S
C1185 C1179 1.491 . S
C1185 C1184 1.400 . S
C1185 C1186 1.398 . S
C1186 H1174 0.950 . S
C1186 C1185 1.398 . S
C1186 C1187 1.391 . S
C1187 H1175 0.950 . S
C1187 C1183 1.393 . S
C1187 C1186 1.391 . S
C717 C477 1.509 . S
C723 C5 1.510 . S
C737 C64 1.499 . S
C743 C536 1.499 . S
C757 C123 1.504 . S
C763 C595 1.509 . S
C777 C182 1.499 . S
C783 C654 1.499 . S
C797 C359 1.501 . S
C803 C241 1.498 . S
C817 C300 1.510 . S
C823 C418 1.506 . S
C837 C3 1.604 . S
C843 C328 1.599 1_554 S
C857 C62 1.603 . S
C863 C33 1.598 1_655 S
C877 C121 1.593 . S
C883 C92 1.602 1_565 S
C897 C151 1.598 . S
C903 C180 1.603 . S
C917 C210 1.606 1_455 S
C923 C239 1.601 . S
C937 C269 1.608 1_545 S
C943 C298 1.589 . S
C957 C446 1.609 . S
C963 C357 1.590 . S
C977 C416 1.591 . S
C983 C505 1.604 1_656 S
C997 C564 1.610 1_565 S
C1003 C475 1.591 . S
C1017 C534 1.602 . S
C1023 C623 1.598 . S
C1037 C593 1.596 . S
C1043 C682 1.600 1_455 S
C1057 C652 1.605 . S
C1063 C387 1.601 1_545 S
C1077 C642 1.470 . S
C1083 C52 1.468 . S
C1097 C701 1.466 . S
C1103 C111 1.472 . S
C1117 C406 1.469 . S
C1123 C170 1.469 . S
C1137 C229 1.468 . S
C1143 C465 1.470 . S
C1157 C288 1.471 . S
C1163 C524 1.467 . S
C1177 C583 1.471 . S
C1183 C347 1.466 . S
