# Generated by pormake.
# Topology unm, (4)-cn, num edge types: 1
# Building blocks:
#     Node 0, Type 0, BuildingBlock: CEKHIL_clean_sbu_0, # of connection points: 4
#     Node 1, Type 0, BuildingBlock: CEKHIL_clean_sbu_0, # of connection points: 4
#     Node 2, Type 0, BuildingBlock: CEKHIL_clean_sbu_0, # of connection points: 4
#     Node 3, Type 0, BuildingBlock: CEKHIL_clean_sbu_0, # of connection points: 4
#     Node 4, Type 0, BuildingBlock: CEKHIL_clean_sbu_0, # of connection points: 4
#     Node 5, Type 0, BuildingBlock: CEKHIL_clean_sbu_0, # of connection points: 4
#     Node 6, Type 0, BuildingBlock: CEKHIL_clean_sbu_0, # of connection points: 4
#     Node 7, Type 0, BuildingBlock: CEKHIL_clean_sbu_0, # of connection points: 4
#     Edge 8, Type (0, 0), BuildingBlock: XIVTED_clean_linker_0, # of connection points: 2
#     Edge 9, Type (0, 0), BuildingBlock: XIVTED_clean_linker_0, # of connection points: 2
#     Edge 10, Type (0, 0), BuildingBlock: XIVTED_clean_linker_0, # of connection points: 2
#     Edge 11, Type (0, 0), BuildingBlock: XIVTED_clean_linker_0, # of connection points: 2
#     Edge 12, Type (0, 0), BuildingBlock: XIVTED_clean_linker_0, # of connection points: 2
#     Edge 13, Type (0, 0), BuildingBlock: XIVTED_clean_linker_0, # of connection points: 2
#     Edge 14, Type (0, 0), BuildingBlock: XIVTED_clean_linker_0, # of connection points: 2
#     Edge 15, Type (0, 0), BuildingBlock: XIVTED_clean_linker_0, # of connection points: 2
#     Edge 16, Type (0, 0), BuildingBlock: XIVTED_clean_linker_0, # of connection points: 2
#     Edge 17, Type (0, 0), BuildingBlock: XIVTED_clean_linker_0, # of connection points: 2
#     Edge 18, Type (0, 0), BuildingBlock: XIVTED_clean_linker_0, # of connection points: 2
#     Edge 19, Type (0, 0), BuildingBlock: XIVTED_clean_linker_0, # of connection points: 2
#     Edge 20, Type (0, 0), BuildingBlock: XIVTED_clean_linker_0, # of connection points: 2
#     Edge 21, Type (0, 0), BuildingBlock: XIVTED_clean_linker_0, # of connection points: 2
#     Edge 22, Type (0, 0), BuildingBlock: XIVTED_clean_linker_0, # of connection points: 2
#     Edge 23, Type (0, 0), BuildingBlock: XIVTED_clean_linker_0, # of connection points: 2
# Relax obj value: 0.188
# Max RMSD: 0.152
# Mean RMSD: 0.152
data_MOF--net-unm--node1-CEKHIL_clean_sbu_0--edge1-XIVTED_clean_linker_0
_symmetry_space_group_name_H-M    P1
_symmetry_Int_Tables_number       1
_symmetry_cell_setting            triclinic
loop_
_symmetry_equiv_pos_as_xyz
'x, y, z'
_cell_length_a     25.153851
_cell_length_b     25.152415
_cell_length_c     43.633802
_cell_angle_alpha  90.000304
_cell_angle_beta   89.998691
_cell_angle_gamma 90.00188
loop_
_atom_site_label
_atom_site_type_symbol
_atom_site_fract_x
_atom_site_fract_y
_atom_site_fract_z
_atom_type_partial_charge
Co0 Co 0.18864 0.25845 0.18068 0.0
O1 O 0.2504 0.21701 0.19196 0.0
O2 O 0.25188 0.30204 0.17902 0.0
C3 C 0.1346 0.23358 0.21971 0.0
O4 O 0.13447 0.31513 0.16953 0.0
Co5 Co 0.08076 0.20548 0.16346 0.0
O6 O 0.0528 0.2789 0.16779 0.0
C7 C 0.16791 0.20864 0.11786 0.0
C8 C 0.27775 0.26043 0.18849 0.0
C9 C 0.08356 0.31918 0.16769 0.0
O10 O 0.19652 0.23782 0.13577 0.0
O11 O 0.12331 0.18848 0.12596 0.0
O12 O 0.17082 0.26965 0.22386 0.0
O13 O 0.13676 0.20931 0.19365 0.0
Co14 Co 0.24233 0.68695 0.67972 0.0
O15 O 0.28332 0.74911 0.69108 0.0
O16 O 0.19825 0.74981 0.67831 0.0
C17 C 0.26827 0.63269 0.71845 0.0
O18 O 0.18575 0.63263 0.66873 0.0
Co19 Co 0.29496 0.57913 0.66207 0.0
O20 O 0.22174 0.5509 0.66707 0.0
C21 C 0.29075 0.66642 0.61651 0.0
C22 C 0.23961 0.77609 0.68775 0.0
C23 C 0.18152 0.58174 0.66711 0.0
O24 O 0.2623 0.69523 0.63472 0.0
O25 O 0.31078 0.62165 0.6244 0.0
O26 O 0.23194 0.66853 0.72295 0.0
O27 O 0.29195 0.63524 0.69223 0.0
Co28 Co 0.81207 0.74209 0.18017 0.0
O29 O 0.75029 0.78352 0.19142 0.0
O30 O 0.74871 0.69875 0.17791 0.0
C31 C 0.86566 0.76587 0.21961 0.0
O32 O 0.86623 0.68544 0.16894 0.0
Co33 Co 0.92027 0.79514 0.16374 0.0
O34 O 0.94797 0.72158 0.16784 0.0
C35 C 0.83378 0.79304 0.11775 0.0
C36 C 0.72284 0.74026 0.18752 0.0
C37 C 0.91716 0.68134 0.16737 0.0
O38 O 0.8049 0.76361 0.13538 0.0
O39 O 0.87832 0.81298 0.12614 0.0
O40 O 0.82917 0.72994 0.22335 0.0
O41 O 0.86396 0.79076 0.19373 0.0
Co42 Co 0.75585 0.31358 0.68114 0.0
O43 O 0.71366 0.25192 0.6917 0.0
O44 O 0.7989 0.24999 0.67924 0.0
C45 C 0.73083 0.36702 0.72042 0.0
O46 O 0.81328 0.36743 0.67075 0.0
Co47 Co 0.70438 0.42246 0.6645 0.0
O48 O 0.77798 0.44952 0.66956 0.0
C49 C 0.70854 0.33681 0.61791 0.0
C50 C 0.75691 0.22426 0.68826 0.0
C51 C 0.81792 0.41833 0.66938 0.0
O52 O 0.73607 0.30697 0.63604 0.0
O53 O 0.68903 0.38163 0.62615 0.0
O54 O 0.76643 0.33033 0.72452 0.0
O55 O 0.70698 0.36565 0.69421 0.0
Co56 Co 0.68888 0.2421 0.32821 0.0
O57 O 0.75003 0.28434 0.31688 0.0
O58 O 0.75279 0.19943 0.33004 0.0
C59 C 0.63459 0.26575 0.28907 0.0
O60 O 0.63533 0.18482 0.33944 0.0
Co61 Co 0.58057 0.29432 0.34531 0.0
O62 O 0.55343 0.22055 0.34127 0.0
C63 C 0.6678 0.29275 0.39078 0.0
C64 C 0.77805 0.2414 0.32053 0.0
C65 C 0.58445 0.18047 0.34135 0.0
O66 O 0.69641 0.26326 0.37304 0.0
O67 O 0.62313 0.31264 0.3826 0.0
O68 O 0.67137 0.23022 0.28505 0.0
O69 O 0.6364 0.29041 0.31502 0.0
Co70 Co 0.25842 0.18707 0.82758 0.0
O71 O 0.21755 0.24918 0.81603 0.0
O72 O 0.30255 0.2499 0.82895 0.0
C73 C 0.23269 0.13256 0.78892 0.0
O74 O 0.31484 0.13277 0.83883 0.0
Co75 Co 0.20546 0.07948 0.84539 0.0
O76 O 0.2787 0.05112 0.84078 0.0
C77 C 0.20981 0.16701 0.8908 0.0
C78 C 0.26125 0.27616 0.81941 0.0
C79 C 0.31896 0.0819 0.84073 0.0
O80 O 0.23826 0.19569 0.87253 0.0
O81 O 0.18973 0.12221 0.88299 0.0
O82 O 0.26906 0.16836 0.78442 0.0
O83 O 0.20882 0.13532 0.81508 0.0
Co84 Co 0.31208 0.75832 0.32684 0.0
O85 O 0.25022 0.71705 0.31559 0.0
O86 O 0.2488 0.80181 0.32911 0.0
C87 C 0.36558 0.73448 0.28737 0.0
O88 O 0.36648 0.81475 0.33811 0.0
Co89 Co 0.42007 0.70479 0.34322 0.0
O90 O 0.44807 0.77823 0.33902 0.0
C91 C 0.33379 0.70767 0.38936 0.0
C92 C 0.22285 0.76034 0.3195 0.0
C93 C 0.41745 0.8186 0.33961 0.0
O94 O 0.30486 0.73685 0.37164 0.0
O95 O 0.37832 0.68765 0.38101 0.0
O96 O 0.32917 0.7705 0.28367 0.0
O97 O 0.36382 0.70952 0.31323 0.0
Co98 Co 0.74412 0.81347 0.82749 0.0
O99 O 0.78614 0.75184 0.81667 0.0
O100 O 0.70104 0.7499 0.82942 0.0
C101 C 0.76876 0.86713 0.78823 0.0
O102 O 0.68687 0.8673 0.83818 0.0
Co103 Co 0.79594 0.92215 0.84421 0.0
O104 O 0.7223 0.94933 0.83951 0.0
C105 C 0.79232 0.83613 0.89055 0.0
C106 C 0.74292 0.72419 0.82023 0.0
C107 C 0.68232 0.91819 0.83972 0.0
O108 O 0.76437 0.80657 0.8725 0.0
O109 O 0.8119 0.88093 0.88234 0.0
O110 O 0.73309 0.83049 0.78417 0.0
O111 O 0.79289 0.86558 0.81435 0.0
H112 H 0.13682 0.1289 0.07999 0.0
H113 H 0.26968 0.2372 0.92581 0.0
H114 H 0.23318 0.27087 0.0812 0.0
H115 H 0.13512 0.13099 0.93071 0.0
H116 H 0.26507 0.24828 0.98197 0.0
H117 H 0.14804 0.12342 0.02491 0.0
C118 C 0.16088 0.15878 0.06869 0.0
C119 C 0.18358 0.20075 0.08533 0.0
C120 C 0.23641 0.223 0.97055 0.0
C121 C 0.19604 0.19511 0.02154 0.0
C122 C 0.2387 0.21699 0.93851 0.0
C123 C 0.20304 0.18267 0.92345 0.0
C124 C 0.19849 0.19417 0.98744 0.0
C125 C 0.16397 0.15728 0.94117 0.0
C126 C 0.16699 0.15583 0.03708 0.0
C127 C 0.21496 0.23781 0.06928 0.0
N128 N 0.16314 0.16317 0.97203 0.0
N129 N 0.21997 0.23442 0.03814 0.0
H130 H 0.23063 0.73583 0.58114 0.0
H131 H 0.36749 0.62938 0.42759 0.0
H132 H 0.36619 0.63083 0.57695 0.0
H133 H 0.26684 0.76833 0.42587 0.0
H134 H 0.35616 0.62397 0.48265 0.0
H135 H 0.23583 0.7467 0.52499 0.0
C136 C 0.26195 0.71585 0.5686 0.0
C137 C 0.29774 0.68194 0.58386 0.0
C138 C 0.3363 0.6557 0.47038 0.0
C139 C 0.303 0.69322 0.51987 0.0
C140 C 0.3425 0.65862 0.43877 0.0
C141 C 0.31857 0.69973 0.42197 0.0
C142 C 0.30591 0.69415 0.48577 0.0
C143 C 0.28604 0.73596 0.4379 0.0
C144 C 0.26458 0.72174 0.53657 0.0
C145 C 0.33724 0.65681 0.56633 0.0
N146 N 0.28094 0.73261 0.46903 0.0
N147 N 0.33843 0.6626 0.53547 0.0
H148 H 0.86523 0.8734 0.08037 0.0
H149 H 0.7352 0.76356 0.92545 0.0
H150 H 0.76891 0.7314 0.08061 0.0
H151 H 0.86412 0.87651 0.93094 0.0
H152 H 0.73977 0.75255 0.98158 0.0
H153 H 0.85414 0.87993 0.02532 0.0
C154 C 0.84121 0.84374 0.06886 0.0
C155 C 0.81843 0.80148 0.08523 0.0
C156 C 0.76719 0.77936 0.9703 0.0
C157 C 0.80614 0.80829 0.02145 0.0
C158 C 0.76492 0.78537 0.93828 0.0
C159 C 0.79904 0.82139 0.92335 0.0
C160 C 0.80356 0.80985 0.98736 0.0
C161 C 0.8365 0.84878 0.94125 0.0
C162 C 0.83516 0.84729 0.03726 0.0
C163 C 0.78716 0.76468 0.06892 0.0
N164 N 0.83738 0.84274 0.97211 0.0
N165 N 0.78225 0.76864 0.0378 0.0
H166 H 0.63919 0.37481 0.42761 0.0
H167 H 0.76431 0.26261 0.58337 0.0
H168 H 0.73091 0.22984 0.42817 0.0
H169 H 0.63895 0.37938 0.57698 0.0
H170 H 0.76036 0.25148 0.52723 0.0
H171 H 0.65051 0.38192 0.48264 0.0
C172 C 0.66227 0.34462 0.43931 0.0
C173 C 0.68365 0.30138 0.42319 0.0
C174 C 0.73361 0.27919 0.53831 0.0
C175 C 0.69612 0.3088 0.48692 0.0
C176 C 0.73552 0.28528 0.57034 0.0
C177 C 0.70221 0.32233 0.58504 0.0
C178 C 0.69843 0.31065 0.52101 0.0
C179 C 0.66593 0.35079 0.56687 0.0
C180 C 0.66845 0.34851 0.47089 0.0
C181 C 0.71378 0.26389 0.43969 0.0
N182 N 0.66539 0.34463 0.53603 0.0
N183 N 0.71876 0.26816 0.47079 0.0
H184 H 0.33627 0.3495 0.2011 0.0
H185 H 0.60065 0.19196 0.2473 0.0
H186 H 0.34773 0.17847 0.19783 0.0
H187 H 0.55916 0.34401 0.28625 0.0
H188 H 0.51648 0.19197 0.21896 0.0
H189 H 0.42657 0.35329 0.22218 0.0
C190 C 0.35806 0.31279 0.20436 0.0
C191 C 0.33436 0.26355 0.19779 0.0
C192 C 0.5261 0.22554 0.23348 0.0
C193 C 0.43769 0.26772 0.22175 0.0
C194 C 0.57426 0.22576 0.2495 0.0
C195 C 0.58691 0.26809 0.26917 0.0
C196 C 0.49073 0.26835 0.23674 0.0
C197 C 0.55091 0.31057 0.27137 0.0
C198 C 0.40943 0.31501 0.21657 0.0
C199 C 0.36438 0.21725 0.20269 0.0
N200 N 0.50449 0.30968 0.25534 0.0
N201 N 0.41448 0.22045 0.21436 0.0
H202 H 0.14986 0.83681 0.69353 0.0
H203 H 0.1524 0.05965 0.78793 0.0
H204 H 0.3203 0.8443 0.70378 0.0
H205 H 0.30395 0.095 0.74646 0.0
H206 H 0.14995 0.97555 0.75988 0.0
H207 H 0.1431 0.92676 0.71443 0.0
C208 C 0.18593 0.85749 0.69997 0.0
C209 C 0.23571 0.83269 0.69717 0.0
C210 C 0.18317 0.00218 0.75629 0.0
C211 C 0.22814 0.93552 0.72169 0.0
C212 C 0.18472 0.0501 0.77247 0.0
C213 C 0.22818 0.08461 0.76932 0.0
C214 C 0.22579 0.9882 0.73707 0.0
C215 C 0.26935 0.06988 0.74928 0.0
C216 C 0.18196 0.90868 0.71224 0.0
C217 C 0.28108 0.86167 0.70578 0.0
N218 N 0.26751 0.02242 0.73425 0.0
N219 N 0.27621 0.91153 0.71766 0.0
H220 H 0.3999 0.80887 0.24607 0.0
H221 H 0.66378 0.65112 0.19913 0.0
H222 H 0.44038 0.65568 0.28388 0.0
H223 H 0.65307 0.82227 0.19724 0.0
H224 H 0.57324 0.6472 0.21986 0.0
H225 H 0.4841 0.80898 0.21776 0.0
C226 C 0.42606 0.77484 0.24801 0.0
C227 C 0.41314 0.73216 0.26737 0.0
C228 C 0.59061 0.68554 0.21462 0.0
C229 C 0.50936 0.73206 0.23498 0.0
C230 C 0.64211 0.68784 0.20261 0.0
C231 C 0.66609 0.73715 0.19655 0.0
C232 C 0.5625 0.73282 0.22012 0.0
C233 C 0.63621 0.78344 0.20172 0.0
C234 C 0.47423 0.77514 0.23202 0.0
C235 C 0.44885 0.68939 0.26925 0.0
N236 N 0.58598 0.78017 0.21319 0.0
N237 N 0.49532 0.69038 0.25325 0.0
H238 H 0.67422 0.15501 0.69732 0.0
H239 H 0.84773 0.94159 0.78538 0.0
H240 H 0.84536 0.16457 0.70046 0.0
H241 H 0.69487 0.90227 0.74678 0.0
H242 H 0.84672 0.02549 0.75678 0.0
H243 H 0.67926 0.06421 0.7176 0.0
C244 C 0.71287 0.13781 0.70196 0.0
C245 C 0.75943 0.16743 0.6972 0.0
C246 C 0.81372 0.99818 0.75426 0.0
C247 C 0.76541 0.06401 0.72095 0.0
C248 C 0.81427 0.95034 0.77058 0.0
C249 C 0.77143 0.91484 0.76836 0.0
C250 C 0.76945 0.01122 0.73612 0.0
C251 C 0.72892 0.92831 0.74898 0.0
C252 C 0.71571 0.08598 0.71349 0.0
C253 C 0.80845 0.14314 0.70367 0.0
N254 N 0.72866 0.97574 0.73394 0.0
N255 N 0.81014 0.09316 0.7156 0.0
H256 H 0.8466 0.32456 0.31154 0.0
H257 H 0.06066 0.15403 0.22212 0.0
H258 H 0.83816 0.15339 0.30776 0.0
H259 H 0.09896 0.30652 0.26156 0.0
H260 H 0.97687 0.15388 0.25087 0.0
H261 H 0.93719 0.32041 0.29096 0.0
C262 C 0.86401 0.28608 0.30668 0.0
C263 C 0.83478 0.23925 0.31137 0.0
C264 C 0.00395 0.18705 0.25352 0.0
C265 C 0.93798 0.23429 0.28726 0.0
C266 C 0.0517 0.18717 0.23711 0.0
C267 C 0.08688 0.23025 0.23953 0.0
C268 C 0.99068 0.23089 0.27195 0.0
C269 C 0.07317 0.27231 0.25917 0.0
C270 C 0.91572 0.28374 0.29498 0.0
C271 C 0.85933 0.19047 0.30463 0.0
N272 N 0.02584 0.27192 0.27431 0.0
N273 N 0.9092 0.18928 0.29252 0.0
H274 H 0.34865 0.55993 0.71952 0.0
H275 H 0.35103 0.33688 0.81376 0.0
H276 H 0.197 0.59515 0.7609 0.0
H277 H 0.18062 0.34437 0.80332 0.0
H278 H 0.35784 0.42691 0.79297 0.0
H279 H 0.3511 0.47582 0.74756 0.0
C280 C 0.31631 0.55036 0.73497 0.0
C281 C 0.27281 0.58482 0.73809 0.0
C282 C 0.31897 0.40881 0.7951 0.0
C283 C 0.2752 0.48839 0.77032 0.0
C284 C 0.31497 0.35757 0.8073 0.0
C285 C 0.26519 0.33276 0.81002 0.0
C286 C 0.27282 0.43567 0.78563 0.0
C287 C 0.21984 0.36175 0.80139 0.0
C288 C 0.31786 0.50243 0.75113 0.0
C289 C 0.23162 0.57006 0.75811 0.0
N290 N 0.22474 0.41165 0.78957 0.0
N291 N 0.23346 0.52259 0.77312 0.0
H292 H 0.16396 0.84951 0.30765 0.0
H293 H 0.89987 0.69169 0.26108 0.0
H294 H 0.15294 0.6784 0.31004 0.0
H295 H 0.94051 0.84461 0.22296 0.0
H296 H 0.98404 0.69171 0.28941 0.0
H297 H 0.07341 0.85341 0.28692 0.0
C298 C 0.14221 0.8128 0.30428 0.0
C299 C 0.16611 0.76351 0.31049 0.0
C300 C 0.97422 0.72547 0.27508 0.0
C301 C 0.06252 0.7678 0.28691 0.0
C302 C 0.92606 0.72569 0.25907 0.0
C303 C 0.91319 0.76826 0.23962 0.0
C304 C 0.00938 0.76851 0.27204 0.0
C305 C 0.94894 0.81099 0.23767 0.0
C306 C 0.09071 0.81509 0.29227 0.0
C307 C 0.13614 0.71722 0.30545 0.0
N308 N 0.99539 0.81007 0.25368 0.0
N309 N 0.08592 0.72048 0.29398 0.0
H310 H 0.65187 0.44148 0.72322 0.0
H311 H 0.82552 0.65489 0.81109 0.0
H312 H 0.80455 0.40202 0.762 0.0
H313 H 0.65438 0.66456 0.80813 0.0
H314 H 0.82035 0.56404 0.7909 0.0
H315 H 0.65288 0.52541 0.7518 0.0
C316 C 0.68528 0.4502 0.73805 0.0
C317 C 0.72808 0.41466 0.74032 0.0
C318 C 0.78392 0.58585 0.79503 0.0
C319 C 0.73008 0.51106 0.77253 0.0
C320 C 0.78684 0.63771 0.8065 0.0
C321 C 0.74031 0.66737 0.8113 0.0
C322 C 0.73418 0.56389 0.78765 0.0
C323 C 0.69125 0.64309 0.8049 0.0
C324 C 0.68583 0.49806 0.75436 0.0
C325 C 0.77053 0.42809 0.75976 0.0
N326 N 0.68949 0.59308 0.79301 0.0
N327 N 0.77081 0.47553 0.77478 0.0
H328 H 0.86588 0.58518 0.16494 0.0
H329 H 0.13481 0.41538 0.16563 0.0
H330 H 0.02287 0.65494 0.16521 0.0
H331 H 0.97785 0.34555 0.16516 0.0
H332 H 0.09446 0.50347 0.16376 0.0
H333 H 0.90624 0.49706 0.16328 0.0
C334 C 0.90883 0.58207 0.16456 0.0
C335 C 0.94099 0.62768 0.16529 0.0
C336 C 0.06886 0.46886 0.16398 0.0
C337 C 0.98744 0.52672 0.16346 0.0
C338 C 0.09187 0.41846 0.16505 0.0
C339 C 0.05972 0.37284 0.16562 0.0
C340 C 0.01326 0.47379 0.16354 0.0
C341 C 0.00429 0.37949 0.16478 0.0
C342 C 0.93184 0.53166 0.16361 0.0
C343 C 0.99642 0.62101 0.1647 0.0
N344 N 0.98285 0.42901 0.16386 0.0
N345 N 0.01786 0.57148 0.16391 0.0
H346 H 0.91358 0.36609 0.66697 0.0
H347 H 0.08568 0.63353 0.66584 0.0
H348 H 0.84541 0.52377 0.66769 0.0
H349 H 0.15442 0.47609 0.6651 0.0
H350 H 0.99733 0.59383 0.66508 0.0
H351 H 0.00209 0.40558 0.66495 0.0
C352 C 0.91712 0.409 0.66665 0.0
C353 C 0.87184 0.44162 0.66754 0.0
C354 C 0.03173 0.56796 0.665 0.0
C355 C 0.97323 0.48706 0.66525 0.0
C356 C 0.0823 0.5906 0.66542 0.0
C357 C 0.12771 0.55814 0.66559 0.0
C358 C 0.02638 0.5124 0.66479 0.0
C359 C 0.12064 0.50275 0.665 0.0
C360 C 0.96774 0.43151 0.66548 0.0
C361 C 0.87906 0.49698 0.66703 0.0
N362 N 0.07094 0.48166 0.6647 0.0
N363 N 0.92878 0.51791 0.66598 0.0
H364 H 0.6358 0.0842 0.34089 0.0
H365 H 0.36668 0.91472 0.34453 0.0
H366 H 0.47906 0.15393 0.34606 0.0
H367 H 0.52331 0.84466 0.33978 0.0
H368 H 0.4074 0.00262 0.3468 0.0
H369 H 0.59547 0.99601 0.3422 0.0
C370 C 0.59293 0.08107 0.34242 0.0
C371 C 0.56081 0.1267 0.34328 0.0
C372 C 0.43286 0.968 0.34534 0.0
C373 C 0.51439 0.02569 0.34472 0.0
C374 C 0.40962 0.91772 0.34403 0.0
C375 C 0.44156 0.8721 0.34189 0.0
C376 C 0.48845 0.97282 0.34443 0.0
C377 C 0.49703 0.87862 0.34142 0.0
C378 C 0.56993 0.03063 0.34316 0.0
C379 C 0.50548 0.11999 0.34527 0.0
N380 N 0.51867 0.92803 0.34258 0.0
N381 N 0.48406 0.07047 0.34584 0.0
H382 H 0.41481 0.13361 0.84254 0.0
H383 H 0.58662 0.86604 0.84208 0.0
H384 H 0.34592 0.97624 0.84303 0.0
H385 H 0.65497 0.02365 0.84173 0.0
H386 H 0.49815 0.9056 0.844 0.0
H387 H 0.50311 0.09385 0.84388 0.0
C388 C 0.41815 0.09069 0.84302 0.0
C389 C 0.37272 0.05826 0.8426 0.0
C390 C 0.53252 0.93151 0.84358 0.0
C391 C 0.47397 0.01244 0.84407 0.0
C392 C 0.58313 0.90895 0.84248 0.0
C393 C 0.62845 0.94153 0.84168 0.0
C394 C 0.5271 0.98706 0.84384 0.0
C395 C 0.62129 0.9969 0.84229 0.0
C396 C 0.46868 0.068 0.84378 0.0
C397 C 0.37971 0.00287 0.8433 0.0
N398 N 0.57159 0.01787 0.84327 0.0
N399 N 0.42939 0.98173 0.84392 0.0
loop_
_geom_bond_atom_site_label_1
_geom_bond_atom_site_label_2
_geom_bond_distance
_geom_bond_site_symmetry_2
_ccdc_geom_bond_type
Co0 O1 2.216 . S
Co0 O2 2.091 . S
Co0 O4 2.004 . S
Co0 O10 2.021 . S
Co0 O12 2.137 . S
Co0 O13 2.244 . S
O1 Co0 2.216 . S
O1 C8 1.247 . S
O2 Co0 2.091 . S
O2 C8 1.261 . S
C3 O12 1.247 . S
C3 O13 1.272 . S
O4 Co0 2.004 . S
O4 C9 1.259 . S
Co5 O6 2.061 . S
Co5 O11 2.052 . S
Co5 O13 2.135 . S
O6 Co5 2.061 . S
O6 C9 1.235 . S
C7 O10 1.238 . S
C7 O11 1.241 . S
C8 O1 1.247 . S
C8 O2 1.261 . S
C9 O4 1.259 . S
C9 O6 1.235 . S
O10 Co0 2.021 . S
O10 C7 1.238 . S
O11 Co5 2.052 . S
O11 C7 1.241 . S
O12 Co0 2.137 . S
O12 C3 1.247 . S
O13 Co0 2.244 . S
O13 C3 1.272 . S
O13 Co5 2.135 . S
Co14 O15 2.216 . S
Co14 O16 2.091 . S
Co14 O18 2.004 . S
Co14 O24 2.021 . S
Co14 O26 2.137 . S
Co14 O27 2.244 . S
O15 Co14 2.216 . S
O15 C22 1.247 . S
O16 Co14 2.091 . S
O16 C22 1.261 . S
C17 O26 1.247 . S
C17 O27 1.272 . S
O18 Co14 2.004 . S
O18 C23 1.259 . S
Co19 O20 2.061 . S
Co19 O25 2.052 . S
Co19 O27 2.135 . S
O20 Co19 2.061 . S
O20 C23 1.235 . S
C21 O24 1.238 . S
C21 O25 1.241 . S
C22 O15 1.247 . S
C22 O16 1.261 . S
C23 O18 1.259 . S
C23 O20 1.235 . S
O24 Co14 2.021 . S
O24 C21 1.238 . S
O25 Co19 2.052 . S
O25 C21 1.241 . S
O26 Co14 2.137 . S
O26 C17 1.247 . S
O27 Co14 2.244 . S
O27 C17 1.272 . S
O27 Co19 2.135 . S
Co28 O29 2.216 . S
Co28 O30 2.091 . S
Co28 O32 2.004 . S
Co28 O38 2.021 . S
Co28 O40 2.137 . S
Co28 O41 2.244 . S
O29 Co28 2.216 . S
O29 C36 1.247 . S
O30 Co28 2.091 . S
O30 C36 1.261 . S
C31 O40 1.247 . S
C31 O41 1.272 . S
O32 Co28 2.004 . S
O32 C37 1.259 . S
Co33 O34 2.061 . S
Co33 O39 2.052 . S
Co33 O41 2.135 . S
O34 Co33 2.061 . S
O34 C37 1.235 . S
C35 O38 1.238 . S
C35 O39 1.241 . S
C36 O29 1.247 . S
C36 O30 1.261 . S
C37 O32 1.259 . S
C37 O34 1.235 . S
O38 Co28 2.021 . S
O38 C35 1.238 . S
O39 Co33 2.052 . S
O39 C35 1.241 . S
O40 Co28 2.137 . S
O40 C31 1.247 . S
O41 Co28 2.244 . S
O41 C31 1.272 . S
O41 Co33 2.135 . S
Co42 O43 2.216 . S
Co42 O44 2.091 . S
Co42 O46 2.004 . S
Co42 O52 2.021 . S
Co42 O54 2.137 . S
Co42 O55 2.244 . S
O43 Co42 2.216 . S
O43 C50 1.247 . S
O44 Co42 2.091 . S
O44 C50 1.261 . S
C45 O54 1.247 . S
C45 O55 1.272 . S
O46 Co42 2.004 . S
O46 C51 1.259 . S
Co47 O48 2.061 . S
Co47 O53 2.052 . S
Co47 O55 2.135 . S
O48 Co47 2.061 . S
O48 C51 1.235 . S
C49 O52 1.238 . S
C49 O53 1.241 . S
C50 O43 1.247 . S
C50 O44 1.261 . S
C51 O46 1.259 . S
C51 O48 1.235 . S
O52 Co42 2.021 . S
O52 C49 1.238 . S
O53 Co47 2.052 . S
O53 C49 1.241 . S
O54 Co42 2.137 . S
O54 C45 1.247 . S
O55 Co42 2.244 . S
O55 C45 1.272 . S
O55 Co47 2.135 . S
Co56 O57 2.216 . S
Co56 O58 2.091 . S
Co56 O60 2.004 . S
Co56 O66 2.021 . S
Co56 O68 2.137 . S
Co56 O69 2.244 . S
O57 Co56 2.216 . S
O57 C64 1.247 . S
O58 Co56 2.091 . S
O58 C64 1.261 . S
C59 O68 1.247 . S
C59 O69 1.272 . S
O60 Co56 2.004 . S
O60 C65 1.259 . S
Co61 O62 2.061 . S
Co61 O67 2.052 . S
Co61 O69 2.135 . S
O62 Co61 2.061 . S
O62 C65 1.235 . S
C63 O66 1.238 . S
C63 O67 1.241 . S
C64 O57 1.247 . S
C64 O58 1.261 . S
C65 O60 1.259 . S
C65 O62 1.235 . S
O66 Co56 2.021 . S
O66 C63 1.238 . S
O67 Co61 2.052 . S
O67 C63 1.241 . S
O68 Co56 2.137 . S
O68 C59 1.247 . S
O69 Co56 2.244 . S
O69 C59 1.272 . S
O69 Co61 2.135 . S
Co70 O71 2.216 . S
Co70 O72 2.091 . S
Co70 O74 2.004 . S
Co70 O80 2.021 . S
Co70 O82 2.137 . S
Co70 O83 2.244 . S
O71 Co70 2.216 . S
O71 C78 1.247 . S
O72 Co70 2.091 . S
O72 C78 1.261 . S
C73 O82 1.247 . S
C73 O83 1.272 . S
O74 Co70 2.004 . S
O74 C79 1.259 . S
Co75 O76 2.061 . S
Co75 O81 2.052 . S
Co75 O83 2.135 . S
O76 Co75 2.061 . S
O76 C79 1.235 . S
C77 O80 1.238 . S
C77 O81 1.241 . S
C78 O71 1.247 . S
C78 O72 1.261 . S
C79 O74 1.259 . S
C79 O76 1.235 . S
O80 Co70 2.021 . S
O80 C77 1.238 . S
O81 Co75 2.052 . S
O81 C77 1.241 . S
O82 Co70 2.137 . S
O82 C73 1.247 . S
O83 Co70 2.244 . S
O83 C73 1.272 . S
O83 Co75 2.135 . S
Co84 O85 2.216 . S
Co84 O86 2.091 . S
Co84 O88 2.004 . S
Co84 O94 2.021 . S
Co84 O96 2.137 . S
Co84 O97 2.244 . S
O85 Co84 2.216 . S
O85 C92 1.247 . S
O86 Co84 2.091 . S
O86 C92 1.261 . S
C87 O96 1.247 . S
C87 O97 1.272 . S
O88 Co84 2.004 . S
O88 C93 1.259 . S
Co89 O90 2.061 . S
Co89 O95 2.052 . S
Co89 O97 2.135 . S
O90 Co89 2.061 . S
O90 C93 1.235 . S
C91 O94 1.238 . S
C91 O95 1.241 . S
C92 O85 1.247 . S
C92 O86 1.261 . S
C93 O88 1.259 . S
C93 O90 1.235 . S
O94 Co84 2.021 . S
O94 C91 1.238 . S
O95 Co89 2.052 . S
O95 C91 1.241 . S
O96 Co84 2.137 . S
O96 C87 1.247 . S
O97 Co84 2.244 . S
O97 C87 1.272 . S
O97 Co89 2.135 . S
Co98 O99 2.216 . S
Co98 O100 2.091 . S
Co98 O102 2.004 . S
Co98 O108 2.021 . S
Co98 O110 2.137 . S
Co98 O111 2.244 . S
O99 Co98 2.216 . S
O99 C106 1.247 . S
O100 Co98 2.091 . S
O100 C106 1.261 . S
C101 O110 1.247 . S
C101 O111 1.272 . S
O102 Co98 2.004 . S
O102 C107 1.259 . S
Co103 O104 2.061 . S
Co103 O109 2.052 . S
Co103 O111 2.135 . S
O104 Co103 2.061 . S
O104 C107 1.235 . S
C105 O108 1.238 . S
C105 O109 1.241 . S
C106 O99 1.247 . S
C106 O100 1.261 . S
C107 O102 1.259 . S
C107 O104 1.235 . S
O108 Co98 2.021 . S
O108 C105 1.238 . S
O109 Co103 2.052 . S
O109 C105 1.241 . S
O110 Co98 2.137 . S
O110 C101 1.247 . S
O111 Co98 2.244 . S
O111 C101 1.272 . S
O111 Co103 2.135 . S
H112 C118 0.930 . S
H113 C122 0.930 . S
H114 C127 0.929 . S
H115 C125 0.929 . S
H116 C120 0.929 . S
H117 C126 0.929 . S
C118 H112 0.930 . S
C118 C119 1.367 . S
C118 C126 1.378 . S
C119 C118 1.367 . S
C119 C127 1.433 . S
C120 H116 0.929 . S
C120 C122 1.378 . S
C120 C124 1.350 . S
C121 C124 1.463 1_554 S
C121 C126 1.350 . S
C121 N129 1.427 . S
C122 H113 0.930 . S
C122 C120 1.378 . S
C122 C123 1.367 . S
C123 C122 1.367 . S
C123 C125 1.433 . S
C124 C120 1.350 . S
C124 C121 1.463 1_556 S
C124 N128 1.427 . S
C125 H115 0.929 . S
C125 C123 1.433 . S
C125 N128 1.384 . S
C126 H117 0.929 . S
C126 C118 1.378 . S
C126 C121 1.350 . S
C127 H114 0.929 . S
C127 C119 1.433 . S
C127 N129 1.384 . S
N128 C124 1.427 . S
N128 C125 1.384 . S
N129 C121 1.427 . S
N129 C127 1.384 . S
H130 C136 0.930 . S
H131 C140 0.930 . S
H132 C145 0.929 . S
H133 C143 0.929 . S
H134 C138 0.929 . S
H135 C144 0.929 . S
C136 H130 0.930 . S
C136 C137 1.367 . S
C136 C144 1.378 . S
C137 C136 1.367 . S
C137 C145 1.433 . S
C138 H134 0.929 . S
C138 C140 1.378 . S
C138 C142 1.350 . S
C139 C142 1.463 . S
C139 C144 1.350 . S
C139 N147 1.427 . S
C140 H131 0.930 . S
C140 C138 1.378 . S
C140 C141 1.367 . S
C141 C140 1.367 . S
C141 C143 1.433 . S
C142 C138 1.350 . S
C142 C139 1.463 . S
C142 N146 1.427 . S
C143 H133 0.929 . S
C143 C141 1.433 . S
C143 N146 1.384 . S
C144 H135 0.929 . S
C144 C136 1.378 . S
C144 C139 1.350 . S
C145 H132 0.929 . S
C145 C137 1.433 . S
C145 N147 1.384 . S
N146 C142 1.427 . S
N146 C143 1.384 . S
N147 C139 1.427 . S
N147 C145 1.384 . S
H148 C154 0.930 . S
H149 C158 0.930 . S
H150 C163 0.929 . S
H151 C161 0.929 . S
H152 C156 0.929 . S
H153 C162 0.929 . S
C154 H148 0.930 . S
C154 C155 1.367 . S
C154 C162 1.378 . S
C155 C154 1.367 . S
C155 C163 1.433 . S
C156 H152 0.929 . S
C156 C158 1.378 . S
C156 C160 1.350 . S
C157 C160 1.463 1_554 S
C157 C162 1.350 . S
C157 N165 1.427 . S
C158 H149 0.930 . S
C158 C156 1.378 . S
C158 C159 1.367 . S
C159 C158 1.367 . S
C159 C161 1.433 . S
C160 C156 1.350 . S
C160 C157 1.463 1_556 S
C160 N164 1.427 . S
C161 H151 0.929 . S
C161 C159 1.433 . S
C161 N164 1.384 . S
C162 H153 0.929 . S
C162 C154 1.378 . S
C162 C157 1.350 . S
C163 H150 0.929 . S
C163 C155 1.433 . S
C163 N165 1.384 . S
N164 C160 1.427 . S
N164 C161 1.384 . S
N165 C157 1.427 . S
N165 C163 1.384 . S
H166 C172 0.930 . S
H167 C176 0.930 . S
H168 C181 0.929 . S
H169 C179 0.929 . S
H170 C174 0.929 . S
H171 C180 0.929 . S
C172 H166 0.930 . S
C172 C173 1.367 . S
C172 C180 1.378 . S
C173 C172 1.367 . S
C173 C181 1.433 . S
C174 H170 0.929 . S
C174 C176 1.378 . S
C174 C178 1.350 . S
C175 C178 1.463 . S
C175 C180 1.350 . S
C175 N183 1.427 . S
C176 H167 0.930 . S
C176 C174 1.378 . S
C176 C177 1.367 . S
C177 C176 1.367 . S
C177 C179 1.433 . S
C178 C174 1.350 . S
C178 C175 1.463 . S
C178 N182 1.427 . S
C179 H169 0.929 . S
C179 C177 1.433 . S
C179 N182 1.384 . S
C180 H171 0.929 . S
C180 C172 1.378 . S
C180 C175 1.350 . S
C181 H168 0.929 . S
C181 C173 1.433 . S
C181 N183 1.384 . S
N182 C178 1.427 . S
N182 C179 1.384 . S
N183 C175 1.427 . S
N183 C181 1.384 . S
H184 C190 0.930 . S
H185 C194 0.930 . S
H186 C199 0.929 . S
H187 C197 0.929 . S
H188 C192 0.929 . S
H189 C198 0.929 . S
C190 H184 0.930 . S
C190 C191 1.367 . S
C190 C198 1.378 . S
C191 C190 1.367 . S
C191 C199 1.433 . S
C192 H188 0.929 . S
C192 C194 1.378 . S
C192 C196 1.350 . S
C193 C196 1.463 . S
C193 C198 1.350 . S
C193 N201 1.427 . S
C194 H185 0.930 . S
C194 C192 1.378 . S
C194 C195 1.367 . S
C195 C194 1.367 . S
C195 C197 1.433 . S
C196 C192 1.350 . S
C196 C193 1.463 . S
C196 N200 1.427 . S
C197 H187 0.929 . S
C197 C195 1.433 . S
C197 N200 1.384 . S
C198 H189 0.929 . S
C198 C190 1.378 . S
C198 C193 1.350 . S
C199 H186 0.929 . S
C199 C191 1.433 . S
C199 N201 1.384 . S
N200 C196 1.427 . S
N200 C197 1.384 . S
N201 C193 1.427 . S
N201 C199 1.384 . S
H202 C208 0.930 . S
H203 C212 0.930 . S
H204 C217 0.929 . S
H205 C215 0.929 . S
H206 C210 0.929 . S
H207 C216 0.929 . S
C208 H202 0.930 . S
C208 C209 1.367 . S
C208 C216 1.378 . S
C209 C208 1.367 . S
C209 C217 1.433 . S
C210 H206 0.929 . S
C210 C212 1.378 . S
C210 C214 1.350 . S
C211 C214 1.463 . S
C211 C216 1.350 . S
C211 N219 1.427 . S
C212 H203 0.930 . S
C212 C210 1.378 . S
C212 C213 1.367 1_565 S
C213 C212 1.367 1_545 S
C213 C215 1.433 . S
C214 C210 1.350 . S
C214 C211 1.463 . S
C214 N218 1.427 1_565 S
C215 H205 0.929 . S
C215 C213 1.433 . S
C215 N218 1.384 . S
C216 H207 0.929 . S
C216 C208 1.378 . S
C216 C211 1.350 . S
C217 H204 0.929 . S
C217 C209 1.433 . S
C217 N219 1.384 . S
N218 C214 1.427 1_545 S
N218 C215 1.384 . S
N219 C211 1.427 . S
N219 C217 1.384 . S
H220 C226 0.930 . S
H221 C230 0.930 . S
H222 C235 0.929 . S
H223 C233 0.929 . S
H224 C228 0.929 . S
H225 C234 0.929 . S
C226 H220 0.930 . S
C226 C227 1.367 . S
C226 C234 1.378 . S
C227 C226 1.367 . S
C227 C235 1.433 . S
C228 H224 0.929 . S
C228 C230 1.378 . S
C228 C232 1.350 . S
C229 C232 1.463 . S
C229 C234 1.350 . S
C229 N237 1.427 . S
C230 H221 0.930 . S
C230 C228 1.378 . S
C230 C231 1.367 . S
C231 C230 1.367 . S
C231 C233 1.433 . S
C232 C228 1.350 . S
C232 C229 1.463 . S
C232 N236 1.427 . S
C233 H223 0.929 . S
C233 C231 1.433 . S
C233 N236 1.384 . S
C234 H225 0.929 . S
C234 C226 1.378 . S
C234 C229 1.350 . S
C235 H222 0.929 . S
C235 C227 1.433 . S
C235 N237 1.384 . S
N236 C232 1.427 . S
N236 C233 1.384 . S
N237 C229 1.427 . S
N237 C235 1.384 . S
H238 C244 0.930 . S
H239 C248 0.930 . S
H240 C253 0.929 . S
H241 C251 0.929 . S
H242 C246 0.929 . S
H243 C252 0.929 . S
C244 H238 0.930 . S
C244 C245 1.367 . S
C244 C252 1.378 . S
C245 C244 1.367 . S
C245 C253 1.433 . S
C246 H242 0.929 . S
C246 C248 1.378 1_545 S
C246 C250 1.350 . S
C247 C250 1.463 . S
C247 C252 1.350 . S
C247 N255 1.427 . S
C248 H239 0.930 . S
C248 C246 1.378 1_565 S
C248 C249 1.367 . S
C249 C248 1.367 . S
C249 C251 1.433 . S
C250 C246 1.350 . S
C250 C247 1.463 . S
C250 N254 1.427 . S
C251 H241 0.929 . S
C251 C249 1.433 . S
C251 N254 1.384 1_565 S
C252 H243 0.929 . S
C252 C244 1.378 . S
C252 C247 1.350 . S
C253 H240 0.929 . S
C253 C245 1.433 . S
C253 N255 1.384 . S
N254 C250 1.427 . S
N254 C251 1.384 1_545 S
N255 C247 1.427 . S
N255 C253 1.384 . S
H256 C262 0.930 . S
H257 C266 0.930 . S
H258 C271 0.929 . S
H259 C269 0.929 . S
H260 C264 0.929 . S
H261 C270 0.929 . S
C262 H256 0.930 . S
C262 C263 1.367 . S
C262 C270 1.378 . S
C263 C262 1.367 . S
C263 C271 1.433 . S
C264 H260 0.929 . S
C264 C266 1.378 1_655 S
C264 C268 1.350 . S
C265 C268 1.463 . S
C265 C270 1.350 . S
C265 N273 1.427 . S
C266 H257 0.930 . S
C266 C264 1.378 1_455 S
C266 C267 1.367 . S
C267 C266 1.367 . S
C267 C269 1.433 . S
C268 C264 1.350 . S
C268 C265 1.463 . S
C268 N272 1.427 . S
C269 H259 0.929 . S
C269 C267 1.433 . S
C269 N272 1.384 1_455 S
C270 H261 0.929 . S
C270 C262 1.378 . S
C270 C265 1.350 . S
C271 H258 0.929 . S
C271 C263 1.433 . S
C271 N273 1.384 . S
N272 C268 1.427 . S
N272 C269 1.384 1_655 S
N273 C265 1.427 . S
N273 C271 1.384 . S
H274 C280 0.930 . S
H275 C284 0.930 . S
H276 C289 0.929 . S
H277 C287 0.929 . S
H278 C282 0.929 . S
H279 C288 0.929 . S
C280 H274 0.930 . S
C280 C281 1.367 . S
C280 C288 1.378 . S
C281 C280 1.367 . S
C281 C289 1.433 . S
C282 H278 0.929 . S
C282 C284 1.378 . S
C282 C286 1.350 . S
C283 C286 1.463 . S
C283 C288 1.350 . S
C283 N291 1.427 . S
C284 H275 0.930 . S
C284 C282 1.378 . S
C284 C285 1.367 . S
C285 C284 1.367 . S
C285 C287 1.433 . S
C286 C282 1.350 . S
C286 C283 1.463 . S
C286 N290 1.427 . S
C287 H277 0.929 . S
C287 C285 1.433 . S
C287 N290 1.384 . S
C288 H279 0.929 . S
C288 C280 1.378 . S
C288 C283 1.350 . S
C289 H276 0.929 . S
C289 C281 1.433 . S
C289 N291 1.384 . S
N290 C286 1.427 . S
N290 C287 1.384 . S
N291 C283 1.427 . S
N291 C289 1.384 . S
H292 C298 0.930 . S
H293 C302 0.930 . S
H294 C307 0.929 . S
H295 C305 0.929 . S
H296 C300 0.929 . S
H297 C306 0.929 . S
C298 H292 0.930 . S
C298 C299 1.367 . S
C298 C306 1.378 . S
C299 C298 1.367 . S
C299 C307 1.433 . S
C300 H296 0.929 . S
C300 C302 1.378 1_455 S
C300 C304 1.350 . S
C301 C304 1.463 . S
C301 C306 1.350 . S
C301 N309 1.427 . S
C302 H293 0.930 . S
C302 C300 1.378 1_655 S
C302 C303 1.367 . S
C303 C302 1.367 . S
C303 C305 1.433 . S
C304 C300 1.350 . S
C304 C301 1.463 . S
C304 N308 1.427 . S
C305 H295 0.929 . S
C305 C303 1.433 . S
C305 N308 1.384 1_655 S
C306 H297 0.929 . S
C306 C298 1.378 . S
C306 C301 1.350 . S
C307 H294 0.929 . S
C307 C299 1.433 . S
C307 N309 1.384 . S
N308 C304 1.427 . S
N308 C305 1.384 1_455 S
N309 C301 1.427 . S
N309 C307 1.384 . S
H310 C316 0.930 . S
H311 C320 0.930 . S
H312 C325 0.929 . S
H313 C323 0.929 . S
H314 C318 0.929 . S
H315 C324 0.929 . S
C316 H310 0.930 . S
C316 C317 1.367 . S
C316 C324 1.378 . S
C317 C316 1.367 . S
C317 C325 1.433 . S
C318 H314 0.929 . S
C318 C320 1.378 . S
C318 C322 1.350 . S
C319 C322 1.463 . S
C319 C324 1.350 . S
C319 N327 1.427 . S
C320 H311 0.930 . S
C320 C318 1.378 . S
C320 C321 1.367 . S
C321 C320 1.367 . S
C321 C323 1.433 . S
C322 C318 1.350 . S
C322 C319 1.463 . S
C322 N326 1.427 . S
C323 H313 0.929 . S
C323 C321 1.433 . S
C323 N326 1.384 . S
C324 H315 0.929 . S
C324 C316 1.378 . S
C324 C319 1.350 . S
C325 H312 0.929 . S
C325 C317 1.433 . S
C325 N327 1.384 . S
N326 C322 1.427 . S
N326 C323 1.384 . S
N327 C319 1.427 . S
N327 C325 1.384 . S
H328 C334 0.930 . S
H329 C338 0.930 . S
H330 C343 0.929 . S
H331 C341 0.929 . S
H332 C336 0.929 . S
H333 C342 0.929 . S
C334 H328 0.930 . S
C334 C335 1.367 . S
C334 C342 1.378 . S
C335 C334 1.367 . S
C335 C343 1.433 . S
C336 H332 0.929 . S
C336 C338 1.378 . S
C336 C340 1.350 . S
C337 C340 1.463 1_655 S
C337 C342 1.350 . S
C337 N345 1.427 . S
C338 H329 0.930 . S
C338 C336 1.378 . S
C338 C339 1.367 . S
C339 C338 1.367 . S
C339 C341 1.433 . S
C340 C336 1.350 . S
C340 C337 1.463 1_455 S
C340 N344 1.427 . S
C341 H331 0.929 . S
C341 C339 1.433 . S
C341 N344 1.384 . S
C342 H333 0.929 . S
C342 C334 1.378 . S
C342 C337 1.350 . S
C343 H330 0.929 . S
C343 C335 1.433 . S
C343 N345 1.384 . S
N344 C340 1.427 . S
N344 C341 1.384 . S
N345 C337 1.427 . S
N345 C343 1.384 . S
H346 C352 0.930 . S
H347 C356 0.930 . S
H348 C361 0.929 . S
H349 C359 0.929 . S
H350 C354 0.929 . S
H351 C360 0.929 . S
C352 H346 0.930 . S
C352 C353 1.367 . S
C352 C360 1.378 . S
C353 C352 1.367 . S
C353 C361 1.433 . S
C354 H350 0.929 . S
C354 C356 1.378 . S
C354 C358 1.350 . S
C355 C358 1.463 1_655 S
C355 C360 1.350 . S
C355 N363 1.427 . S
C356 H347 0.930 . S
C356 C354 1.378 . S
C356 C357 1.367 . S
C357 C356 1.367 . S
C357 C359 1.433 . S
C358 C354 1.350 . S
C358 C355 1.463 1_455 S
C358 N362 1.427 . S
C359 H349 0.929 . S
C359 C357 1.433 . S
C359 N362 1.384 . S
C360 H351 0.929 . S
C360 C352 1.378 . S
C360 C355 1.350 . S
C361 H348 0.929 . S
C361 C353 1.433 . S
C361 N363 1.384 . S
N362 C358 1.427 . S
N362 C359 1.384 . S
N363 C355 1.427 . S
N363 C361 1.384 . S
H364 C370 0.930 . S
H365 C374 0.930 . S
H366 C379 0.929 . S
H367 C377 0.929 . S
H368 C372 0.929 1_545 S
H369 C378 0.929 1_565 S
C370 H364 0.930 . S
C370 C371 1.367 . S
C370 C378 1.378 . S
C371 C370 1.367 . S
C371 C379 1.433 . S
C372 H368 0.929 1_565 S
C372 C374 1.378 . S
C372 C376 1.350 . S
C373 C376 1.463 1_545 S
C373 C378 1.350 . S
C373 N381 1.427 . S
C374 H365 0.930 . S
C374 C372 1.378 . S
C374 C375 1.367 . S
C375 C374 1.367 . S
C375 C377 1.433 . S
C376 C372 1.350 . S
C376 C373 1.463 1_565 S
C376 N380 1.427 . S
C377 H367 0.929 . S
C377 C375 1.433 . S
C377 N380 1.384 . S
C378 H369 0.929 1_545 S
C378 C370 1.378 . S
C378 C373 1.350 . S
C379 H366 0.929 . S
C379 C371 1.433 . S
C379 N381 1.384 . S
N380 C376 1.427 . S
N380 C377 1.384 . S
N381 C373 1.427 . S
N381 C379 1.384 . S
H382 C388 0.930 . S
H383 C392 0.930 . S
H384 C397 0.929 . S
H385 C395 0.929 . S
H386 C390 0.929 . S
H387 C396 0.929 . S
C388 H382 0.930 . S
C388 C389 1.367 . S
C388 C396 1.378 . S
C389 C388 1.367 . S
C389 C397 1.433 . S
C390 H386 0.929 . S
C390 C392 1.378 . S
C390 C394 1.350 . S
C391 C394 1.463 1_545 S
C391 C396 1.350 . S
C391 N399 1.427 . S
C392 H383 0.930 . S
C392 C390 1.378 . S
C392 C393 1.367 . S
C393 C392 1.367 . S
C393 C395 1.433 . S
C394 C390 1.350 . S
C394 C391 1.463 1_565 S
C394 N398 1.427 . S
C395 H385 0.929 . S
C395 C393 1.433 . S
C395 N398 1.384 . S
C396 H387 0.929 . S
C396 C388 1.378 . S
C396 C391 1.350 . S
C397 H384 0.929 . S
C397 C389 1.433 . S
C397 N399 1.384 . S
N398 C394 1.427 . S
N398 C395 1.384 . S
N399 C391 1.427 . S
N399 C397 1.384 . S
C119 C7 1.307 . S
C123 C77 1.315 . S
C137 C21 1.315 . S
C141 C91 1.306 . S
C155 C35 1.307 . S
C159 C105 1.315 . S
C173 C63 1.310 . S
C177 C49 1.317 . S
C191 C8 1.638 . S
C195 C59 1.611 . S
C209 C22 1.642 . S
C213 C73 1.616 . S
C227 C87 1.612 . S
C231 C36 1.639 . S
C245 C50 1.644 . S
C249 C101 1.622 . S
C263 C64 1.644 . S
C267 C3 1.622 . S
C281 C17 1.615 . S
C285 C78 1.641 . S
C299 C92 1.638 . S
C303 C31 1.611 . S
C317 C45 1.621 . S
C321 C106 1.644 . S
C335 C37 0.605 . S
C339 C9 0.608 . S
C353 C51 0.595 . S
C357 C23 0.590 . S
C371 C65 0.598 . S
C375 C93 0.603 . S
C389 C79 0.605 . S
C393 C107 0.608 . S
