# Generated by pormake.
# Topology umy, (4)-cn, num edge types: 1
# Building blocks:
#     Node 0, Type 0, BuildingBlock: NAHDIM_clean_sbu_0, # of connection points: 4
#     Node 1, Type 0, BuildingBlock: NAHDIM_clean_sbu_0, # of connection points: 4
#     Node 2, Type 0, BuildingBlock: NAHDIM_clean_sbu_0, # of connection points: 4
#     Node 3, Type 0, BuildingBlock: NAHDIM_clean_sbu_0, # of connection points: 4
#     Node 4, Type 0, BuildingBlock: NAHDIM_clean_sbu_0, # of connection points: 4
#     Node 5, Type 0, BuildingBlock: NAHDIM_clean_sbu_0, # of connection points: 4
#     Node 6, Type 0, BuildingBlock: NAHDIM_clean_sbu_0, # of connection points: 4
#     Node 7, Type 0, BuildingBlock: NAHDIM_clean_sbu_0, # of connection points: 4
#     Node 8, Type 0, BuildingBlock: NAHDIM_clean_sbu_0, # of connection points: 4
#     Node 9, Type 0, BuildingBlock: NAHDIM_clean_sbu_0, # of connection points: 4
#     Node 10, Type 0, BuildingBlock: NAHDIM_clean_sbu_0, # of connection points: 4
#     Node 11, Type 0, BuildingBlock: NAHDIM_clean_sbu_0, # of connection points: 4
#     Edge 12, Type (0, 0), BuildingBlock: OJICUG_clean_linker_0, # of connection points: 2
#     Edge 13, Type (0, 0), BuildingBlock: OJICUG_clean_linker_0, # of connection points: 2
#     Edge 14, Type (0, 0), BuildingBlock: OJICUG_clean_linker_0, # of connection points: 2
#     Edge 15, Type (0, 0), BuildingBlock: OJICUG_clean_linker_0, # of connection points: 2
#     Edge 16, Type (0, 0), BuildingBlock: OJICUG_clean_linker_0, # of connection points: 2
#     Edge 17, Type (0, 0), BuildingBlock: OJICUG_clean_linker_0, # of connection points: 2
#     Edge 18, Type (0, 0), BuildingBlock: OJICUG_clean_linker_0, # of connection points: 2
#     Edge 19, Type (0, 0), BuildingBlock: OJICUG_clean_linker_0, # of connection points: 2
#     Edge 20, Type (0, 0), BuildingBlock: OJICUG_clean_linker_0, # of connection points: 2
#     Edge 21, Type (0, 0), BuildingBlock: OJICUG_clean_linker_0, # of connection points: 2
#     Edge 22, Type (0, 0), BuildingBlock: OJICUG_clean_linker_0, # of connection points: 2
#     Edge 23, Type (0, 0), BuildingBlock: OJICUG_clean_linker_0, # of connection points: 2
#     Edge 24, Type (0, 0), BuildingBlock: OJICUG_clean_linker_0, # of connection points: 2
#     Edge 25, Type (0, 0), BuildingBlock: OJICUG_clean_linker_0, # of connection points: 2
#     Edge 26, Type (0, 0), BuildingBlock: OJICUG_clean_linker_0, # of connection points: 2
#     Edge 27, Type (0, 0), BuildingBlock: OJICUG_clean_linker_0, # of connection points: 2
#     Edge 28, Type (0, 0), BuildingBlock: OJICUG_clean_linker_0, # of connection points: 2
#     Edge 29, Type (0, 0), BuildingBlock: OJICUG_clean_linker_0, # of connection points: 2
#     Edge 30, Type (0, 0), BuildingBlock: OJICUG_clean_linker_0, # of connection points: 2
#     Edge 31, Type (0, 0), BuildingBlock: OJICUG_clean_linker_0, # of connection points: 2
#     Edge 32, Type (0, 0), BuildingBlock: OJICUG_clean_linker_0, # of connection points: 2
#     Edge 33, Type (0, 0), BuildingBlock: OJICUG_clean_linker_0, # of connection points: 2
#     Edge 34, Type (0, 0), BuildingBlock: OJICUG_clean_linker_0, # of connection points: 2
#     Edge 35, Type (0, 0), BuildingBlock: OJICUG_clean_linker_0, # of connection points: 2
# Relax obj value: 0.157
# Max RMSD: 0.142
# Mean RMSD: 0.142
data_MOF--net-umy--node1-NAHDIM_clean_sbu_0--edge1-OJICUG_clean_linker_0
_symmetry_space_group_name_H-M    P1
_symmetry_Int_Tables_number       1
_symmetry_cell_setting            triclinic
loop_
_symmetry_equiv_pos_as_xyz
'x, y, z'
_cell_length_a     28.723419
_cell_length_b     28.766193
_cell_length_c     35.138366
_cell_angle_alpha  90.215598
_cell_angle_beta   89.959248
_cell_angle_gamma 119.966
loop_
_atom_site_label
_atom_site_type_symbol
_atom_site_fract_x
_atom_site_fract_y
_atom_site_fract_z
_atom_type_partial_charge
C0 C 0.0628 0.43077 0.09818 0.0
O1 O 0.0631 0.40449 0.06762 0.0
O2 O 0.02341 0.28678 0.14254 0.0
Zn3 Zn 0.09002 0.35804 0.13459 0.0
O4 O 0.13223 0.35583 0.08969 0.0
C5 C 0.13986 0.32706 0.18788 0.0
O6 O 0.12178 0.28818 0.16252 0.0
O7 O 0.07296 0.41773 0.13032 0.0
C8 C 0.11187 0.32607 0.06058 0.0
O9 O 0.05943 0.29556 0.05806 0.0
C10 C 0.97468 0.27293 0.13622 0.0
O11 O 0.9631 0.30674 0.11958 0.0
O12 O 0.1336 0.36713 0.18172 0.0
C13 C 0.6086 0.02404 0.28108 0.0
O14 O 0.61728 0.00259 0.31127 0.0
O15 O 0.6962 0.9708 0.2754 0.0
Zn16 Zn 0.71443 0.04712 0.26566 0.0
O17 O 0.76459 0.08365 0.22184 0.0
C18 C 0.76842 0.07493 0.33868 0.0
O19 O 0.7701 0.03073 0.33275 0.0
O20 O 0.64547 0.04634 0.25634 0.0
C21 C 0.81447 0.10049 0.22569 0.0
O22 O 0.83173 0.08995 0.2573 0.0
C23 C 0.7243 0.94849 0.27 0.0
O24 O 0.77077 0.975 0.25256 0.0
O25 O 0.74715 0.09041 0.31369 0.0
C26 C 0.54618 0.60592 0.45178 0.0
O27 O 0.58165 0.60271 0.47352 0.0
O28 O 0.68783 0.71068 0.46096 0.0
Zn29 Zn 0.62604 0.72057 0.44529 0.0
O30 O 0.64199 0.7656 0.39815 0.0
C31 C 0.65955 0.80313 0.499 0.0
O32 O 0.70339 0.81889 0.47877 0.0
O33 O 0.55738 0.65081 0.43742 0.0
C34 C 0.68172 0.7801 0.37584 0.0
O35 O 0.71729 0.76523 0.38282 0.0
C36 C 0.70652 0.68254 0.44709 0.0
O37 O 0.68434 0.65317 0.41657 0.0
O38 O 0.61706 0.7605 0.48917 0.0
C39 C 0.8957 0.56338 0.5834 0.0
O40 O 0.84582 0.55231 0.5882 0.0
O41 O 0.97594 0.72888 0.63178 0.0
Zn42 Zn 0.91297 0.66391 0.60894 0.0
O43 O 0.87618 0.6832 0.56814 0.0
C44 C 0.81275 0.61727 0.65272 0.0
O45 O 0.7904 0.61906 0.62056 0.0
O46 O 0.93362 0.61066 0.59026 0.0
C47 C 0.86759 0.66533 0.53416 0.0
O48 O 0.88692 0.63482 0.52271 0.0
C49 C 0.02516 0.74231 0.62886 0.0
O50 O 0.03916 0.71556 0.6056 0.0
O51 O 0.86247 0.632 0.65329 0.0
C52 C 0.3869 0.97317 0.79015 0.0
O53 O 0.38802 0.01087 0.81201 0.0
O54 O 0.27999 0.003 0.80321 0.0
Zn55 Zn 0.27097 0.93065 0.7892 0.0
O56 O 0.22187 0.89757 0.7438 0.0
C57 C 0.25843 0.90361 0.86791 0.0
O58 O 0.30001 0.9524 0.8699 0.0
O59 O 0.34213 0.93627 0.77739 0.0
C60 C 0.17129 0.86957 0.74819 0.0
O61 O 0.15102 0.86257 0.78259 0.0
C62 C 0.24021 0.00322 0.81898 0.0
O63 O 0.19457 0.95785 0.82165 0.0
O64 O 0.23915 0.88372 0.8354 0.0
C65 C 0.42292 0.36718 0.93886 0.0
O66 O 0.37985 0.36557 0.92461 0.0
O67 O 0.29433 0.29631 0.98038 0.0
Zn68 Zn 0.3434 0.26694 0.96845 0.0
O69 O 0.32089 0.21766 0.92281 0.0
C70 C 0.30175 0.20199 0.03499 0.0
O71 O 0.2592 0.20498 0.02523 0.0
O72 O 0.41754 0.32847 0.95928 0.0
C73 C 0.2762 0.17407 0.92159 0.0
O74 O 0.24226 0.16207 0.9499 0.0
C75 C 0.2506 0.2867 0.9646 0.0
O76 O 0.23337 0.25574 0.93431 0.0
O77 O 0.34401 0.22578 0.01477 0.0
C78 C 0.5823 0.97164 0.75266 0.0
O79 O 0.62912 0.00943 0.76536 0.0
O80 O 0.70924 0.00739 0.70692 0.0
Zn81 Zn 0.64627 0.93318 0.71408 0.0
O82 O 0.66435 0.89085 0.75036 0.0
C83 C 0.67375 0.9061 0.64344 0.0
O84 O 0.72164 0.93767 0.65794 0.0
O85 O 0.58031 0.93522 0.73096 0.0
C86 C 0.6639 0.89281 0.78649 0.0
O87 O 0.65139 0.92589 0.80341 0.0
C88 C 0.70134 0.03863 0.68594 0.0
O89 O 0.65224 0.02306 0.67425 0.0
O90 O 0.63251 0.89664 0.66279 0.0
C91 C 0.63378 0.54456 0.90414 0.0
O92 O 0.67721 0.54275 0.91324 0.0
O93 O 0.7056 0.7068 0.85216 0.0
Zn94 Zn 0.7112 0.6439 0.87054 0.0
O95 O 0.76407 0.6631 0.91343 0.0
C96 C 0.70931 0.60734 0.79513 0.0
O97 O 0.66321 0.60665 0.79527 0.0
O98 O 0.63853 0.58476 0.88595 0.0
C99 C 0.80499 0.7096 0.91681 0.0
O100 O 0.81209 0.74707 0.8924 0.0
C101 C 0.69618 0.73905 0.87088 0.0
O102 O 0.68949 0.73363 0.90791 0.0
O103 O 0.73704 0.62006 0.82551 0.0
C104 C 0.03628 0.61634 0.08527 0.0
O105 O 0.02648 0.63752 0.11524 0.0
O106 O 0.98034 0.70214 0.02867 0.0
Zn107 Zn 0.05137 0.7122 0.04619 0.0
O108 O 0.07632 0.75661 0.0943 0.0
C109 C 0.14192 0.79792 0.0044 0.0
O110 O 0.15028 0.82613 0.0357 0.0
O111 O 0.04653 0.64066 0.0536 0.0
C112 C 0.11801 0.76246 0.11126 0.0
O113 O 0.14299 0.73836 0.09737 0.0
C114 C 0.97961 0.74268 0.0151 0.0
O115 O 0.0239 0.78962 0.01602 0.0
O116 O 0.10354 0.74965 0.00321 0.0
C117 C 0.40623 0.01839 0.26154 0.0
O118 O 0.3667 -0.00766 0.28573 0.0
O119 O 0.27444 0.96167 0.21521 0.0
Zn120 Zn 0.32842 0.03872 0.22835 0.0
O121 O 0.31673 0.06959 0.27684 0.0
C122 C 0.29121 0.07763 0.16684 0.0
O123 O 0.24419 0.03991 0.179 0.0
O124 O 0.39937 0.04236 0.2337 0.0
C125 C 0.27813 0.0781 0.28351 0.0
O126 O 0.23903 0.06247 0.25862 0.0
C127 C 0.22375 0.93459 0.21935 0.0
O128 O 0.19872 0.95574 0.2374 0.0
O129 O 0.33349 0.08511 0.1838 0.0
C130 C 0.33926 0.42003 0.41925 0.0
O131 O 0.30113 0.42652 0.40402 0.0
O132 O 0.25818 0.24327 0.39869 0.0
Zn133 Zn 0.25856 0.31274 0.40718 0.0
O134 O 0.19932 0.30173 0.44292 0.0
C135 C 0.2084 0.29408 0.33473 0.0
O136 O 0.1871 0.24458 0.34709 0.0
O137 O 0.33048 0.37267 0.4247 0.0
C138 C 0.20432 0.32296 0.47556 0.0
O139 O 0.25255 0.35438 0.48959 0.0
C140 C 0.29941 0.2418 0.38735 0.0
O141 O 0.346 0.28649 0.38654 0.0
O142 O 0.24104 0.33236 0.35603 0.0
C143 C 0.93756 0.39351 0.54143 0.0
O144 O 0.98645 0.40073 0.54202 0.0
O145 O 0.97295 0.28774 0.52496 0.0
Zn146 Zn 0.89902 0.27791 0.53134 0.0
O147 O 0.8578 0.23136 0.57538 0.0
C148 C 0.85881 0.19556 0.47734 0.0
O149 O 0.88191 0.179 0.50184 0.0
O150 O 0.89777 0.34667 0.53645 0.0
C151 C 0.8707 0.20541 0.59808 0.0
O152 O 0.91756 0.20822 0.59449 0.0
C153 C 0.01456 0.30595 0.54582 0.0
O154 O 0.01442 0.32442 0.58004 0.0
O155 O 0.85945 0.23933 0.48395 0.0
C156 C 0.04024 0.5459 0.12461 0.0
C157 C 0.03944 0.56677 0.08868 0.0
H158 H 0.04851 0.48665 0.15584 0.0
C159 C 0.04412 0.54117 0.05594 0.0
H160 H 0.03677 0.56473 0.15037 0.0
C161 C 0.05055 0.49633 0.05906 0.0
C162 C 0.05291 0.47636 0.09499 0.0
H163 H 0.04343 0.55612 0.02782 0.0
H164 H 0.05474 0.47801 0.03326 0.0
C165 C 0.04715 0.50127 0.12774 0.0
C166 C 0.51532 -0.00372 0.30277 0.0
C167 C 0.55678 0.02247 0.27606 0.0
H168 H 0.4352 0.97439 0.31913 0.0
C169 C 0.54831 0.04724 0.24453 0.0
H170 H 0.52059 0.97678 0.32737 0.0
C171 C 0.49943 0.04595 0.23985 0.0
C172 C 0.45795 0.01975 0.26655 0.0
H173 H 0.57947 0.06778 0.22344 0.0
H174 H 0.4942 0.06547 0.21524 0.0
C175 C 0.46637 -0.00511 0.29804 0.0
C176 C 0.45304 0.56358 0.42537 0.0
C177 C 0.49319 0.55805 0.44413 0.0
H178 H 0.37314 0.5246 0.40314 0.0
C179 C 0.48209 0.50662 0.45526 0.0
H180 H 0.46014 0.60262 0.41652 0.0
C181 C 0.432 0.4616 0.44738 0.0
C182 C 0.39198 0.46728 0.4285 0.0
H183 H 0.5122 0.50104 0.46976 0.0
H184 H 0.42469 0.42241 0.45603 0.0
C185 C 0.40301 0.51878 0.41778 0.0
C186 C 0.96023 0.53082 0.56911 0.0
C187 C 0.9072 0.52117 0.57064 0.0
H188 H 0.01159 0.49801 0.55855 0.0
C189 C 0.86479 0.47019 0.56066 0.0
H190 H -0.0062 0.56979 0.57657 0.0
C191 C 0.87496 0.42931 0.55024 0.0
C192 C 0.92781 0.43837 0.54966 0.0
H193 H 0.82351 0.46154 0.56129 0.0
H194 H 0.84115 0.39026 0.54326 0.0
C195 C 0.97044 0.48974 0.55875 0.0
C196 C 0.53408 0.01254 0.78606 0.0
C197 C 0.53242 0.97201 0.76264 0.0
H198 H 0.48947 0.04481 0.81311 0.0
C199 C 0.48258 0.93198 0.74842 0.0
H200 H 0.57184 0.04399 0.79745 0.0
C201 C 0.43547 0.93248 0.75735 0.0
C202 C 0.43706 0.97303 0.7807 0.0
H203 H 0.47984 0.90018 0.73028 0.0
H204 H 0.39778 0.901 0.74586 0.0
C205 C 0.48687 0.01305 0.795 0.0
C206 C 0.48255 0.45697 0.90972 0.0
C207 C 0.47689 0.41301 0.93074 0.0
H208 H 0.53644 0.53305 0.88498 0.0
C209 C 0.52327 0.41308 0.94357 0.0
H210 H 0.44763 0.45823 0.8995 0.0
C211 C 0.57427 0.45597 0.93516 0.0
C212 C 0.5799 0.49974 0.91388 0.0
H213 H 0.52026 0.3798 0.95986 0.0
H214 H 0.60923 0.45466 0.94522 0.0
C215 C 0.5335 0.49992 0.90143 0.0
C216 C 0.20352 0.35063 0.03743 0.0
C217 C 0.14754 0.32165 0.03218 0.0
H218 H 0.27995 0.36271 0.01982 0.0
C219 C 0.12627 0.28575 1.00132 0.0
H220 H 0.22135 0.37902 0.06066 0.0
C221 C 0.16014 0.27665 0.97761 0.0
C222 C 0.21575 0.30305 0.98457 0.0
H223 H 0.08333 0.26312 0.99635 0.0
H224 H 0.14244 0.24695 0.95515 0.0
C225 C 0.23719 0.34131 0.01397 0.0
C226 C 0.90734 0.15096 0.19941 0.0
C227 C 0.85345 0.13826 0.19785 0.0
H228 H -0.01236 0.2026 0.18054 0.0
C229 C 0.83857 0.16594 0.17213 0.0
H230 H 0.91994 0.12998 0.21865 0.0
C231 C 0.87759 0.20819 0.15042 0.0
C232 C 0.93202 0.22304 0.1538 0.0
H233 H 0.79724 0.15694 0.17023 0.0
H234 H 0.86537 0.23056 0.13227 0.0
C235 C 0.94614 0.19263 0.17746 0.0
C236 C 0.73819 0.84216 0.3236 0.0
C237 C 0.68989 0.81743 0.34433 0.0
H238 H 0.78689 0.90284 0.28321 0.0
C239 C 0.65047 0.83131 0.33638 0.0
H240 H 0.76921 0.83202 0.32885 0.0
C241 C 0.66044 0.87151 0.31018 0.0
C242 C 0.71013 0.89891 0.29134 0.0
H243 H 0.61249 0.81251 0.35141 0.0
H244 H 0.62998 0.88274 0.306 0.0
C245 C 0.74823 0.88257 0.2973 0.0
C246 C 0.77133 0.64833 0.45436 0.0
C247 C 0.75114 0.68117 0.46714 0.0
H248 H 0.82456 0.6179 0.46536 0.0
C249 C 0.7726 0.71166 0.50053 0.0
H250 H 0.75583 0.62455 0.42866 0.0
C251 C 0.81173 0.70783 0.52148 0.0
C252 C 0.83061 0.6736 0.50953 0.0
H253 H 0.75833 0.73774 0.51111 0.0
H254 H 0.82628 0.73089 0.54756 0.0
C255 C 0.81082 0.64466 0.47533 0.0
C256 C 0.11944 0.79946 0.65328 0.0
C257 C 0.06413 0.78086 0.65666 0.0
H258 H 0.19718 0.84306 0.6795 0.0
C259 C 0.04539 0.79554 0.68897 0.0
H260 H 0.13509 0.78894 0.6287 0.0
C261 C 0.08061 0.82553 0.71818 0.0
C262 C 0.13552 0.84243 0.71549 0.0
H263 H 0.00304 0.78196 0.69256 0.0
H264 H 0.06458 0.83464 0.74324 0.0
C265 C 0.15495 0.83045 0.68232 0.0
C266 C 0.2978 0.09808 0.84177 0.0
C267 C 0.24752 0.05081 0.84035 0.0
H268 H 0.34626 0.17462 0.86841 0.0
C269 C 0.20534 0.04724 0.86282 0.0
H270 H 0.33106 0.10215 0.82472 0.0
C271 C 0.21413 0.08844 0.88802 0.0
C272 C 0.26517 0.13435 0.89109 0.0
H273 H 0.16597 0.01155 0.86225 0.0
H274 H 0.18132 0.08346 0.90602 0.0
C275 C 0.30649 0.13959 0.86682 0.0
C276 C 0.67851 0.8164 0.86927 0.0
C277 C 0.69056 0.78068 0.85015 0.0
H278 H 0.66081 0.88028 0.86417 0.0
C279 C 0.69585 0.78383 0.81033 0.0
H280 H 0.67438 0.8151 0.89994 0.0
C281 C 0.68809 0.82086 0.78998 0.0
C282 C 0.67488 0.85585 0.80886 0.0
H283 H 0.70526 0.7571 0.79462 0.0
H284 H 0.6918 0.82147 0.75928 0.0
C285 C 0.67077 0.85372 0.84878 0.0
C286 C 0.89285 0.77062 0.94874 0.0
C287 C 0.84685 0.71964 0.94538 0.0
H288 H 0.97061 0.81805 0.97376 0.0
C289 C 0.84283 0.67748 0.96791 0.0
H290 H 0.89705 0.80403 0.93198 0.0
C291 C 0.88509 0.68547 0.99181 0.0
C292 C 0.93214 0.73584 0.99382 0.0
H293 H 0.80778 0.63775 0.96618 0.0
H294 H 0.88149 0.65172 0.00782 0.0
C295 C 0.935 0.77867 0.97277 0.0
C296 C 0.21949 0.85819 0.18247 0.0
C297 C 0.19321 0.88453 0.19709 0.0
H298 H 0.2161 0.79855 0.1443 0.0
C299 C 0.13973 0.8664 0.18631 0.0
H300 H 0.26062 0.87104 0.19043 0.0
C301 C 0.11434 0.82518 0.15944 0.0
C302 C 0.14178 0.80093 0.14322 0.0
H303 H 0.11844 0.88596 0.19701 0.0
H304 H 0.07391 0.81361 0.15042 0.0
C305 C 0.19395 0.81664 0.15599 0.0
C306 C 0.33223 0.14912 0.33174 0.0
C307 C 0.282 0.11339 0.3155 0.0
H308 H 0.37721 0.21808 0.36735 0.0
C309 C 0.23655 0.11577 0.32734 0.0
H310 H 0.36803 0.14823 0.32324 0.0
C311 C 0.24169 0.15512 0.35316 0.0
C312 C 0.29259 0.19363 0.36702 0.0
H313 H 0.19728 0.08848 0.31556 0.0
H314 H 0.20614 0.15725 0.3604 0.0
C315 C 0.33755 0.1892 0.35698 0.0
C316 C 0.15963 0.34138 0.53068 0.0
C317 C 0.15584 0.31558 0.49576 0.0
H318 H 0.11775 0.35847 0.57424 0.0
C319 C 0.10503 0.28432 0.47899 0.0
H320 H 0.19822 0.36564 0.54438 0.0
C321 C 0.05937 0.28044 0.49589 0.0
C322 C 0.06316 0.30753 0.53013 0.0
H323 H 0.10046 0.26361 0.45223 0.0
H324 H 0.02108 0.25668 0.48166 0.0
C325 C 0.1136 0.33727 0.54779 0.0
C326 C 0.77908 0.16319 0.62687 0.0
C327 C 0.83014 0.16775 0.62527 0.0
H328 H 0.69857 0.11916 0.64771 0.0
C329 C 0.84025 0.13343 0.64772 0.0
H330 H 0.77003 0.18937 0.61029 0.0
C331 C 0.79912 0.09327 0.66952 0.0
C332 C 0.74716 0.08661 0.66902 0.0
H333 H 0.87924 0.13615 0.64731 0.0
H334 H 0.80738 0.06579 0.68515 0.0
C335 C 0.73803 0.12297 0.6484 0.0
C336 C 0.20233 0.35518 0.28651 0.0
C337 C 0.1941 0.30434 0.29654 0.0
H338 H 0.19123 0.40238 0.24415 0.0
C339 C 0.17062 0.2623 0.26992 0.0
H340 H 0.22041 0.38833 0.3065 0.0
C341 C 0.15474 0.27047 0.23429 0.0
C342 C 0.16124 0.32071 0.22456 0.0
H343 H 0.16418 0.2228 0.27667 0.0
H344 H 0.13606 0.23684 0.21472 0.0
C345 C 0.18562 0.3632 0.25089 0.0
C346 C 0.8113 0.18251 0.41488 0.0
C347 C 0.8345 0.16453 0.44212 0.0
H348 H 0.77222 0.16836 0.3607 0.0
C349 C 0.83534 0.11684 0.43513 0.0
H350 H 0.81007 0.21914 0.41943 0.0
C351 C 0.81382 0.0879 0.40157 0.0
C352 C 0.79091 0.10594 0.37419 0.0
H353 H 0.8529 0.10184 0.4555 0.0
H354 H 0.81532 0.0514 0.39713 0.0
C355 C 0.7897 0.15347 0.38122 0.0
C356 C 0.71441 0.8987 0.58258 0.0
C357 C 0.66865 0.88152 0.60551 0.0
H358 H 0.74723 0.88801 0.53096 0.0
C359 C 0.61891 0.84011 0.59216 0.0
H360 H 0.75327 0.9308 0.59185 0.0
C361 C 0.61545 0.81527 0.55709 0.0
C362 C 0.6616 0.8317 0.53464 0.0
H363 H 0.5829 0.8261 0.60915 0.0
H364 H 0.57684 0.78265 0.5479 0.0
C365 C 0.71089 0.87423 0.54753 0.0
C366 C 0.73029 0.59775 0.68968 0.0
C367 C 0.78286 0.60616 0.68899 0.0
H368 H 0.66552 0.59104 0.72384 0.0
C369 C 0.80848 0.60875 0.72367 0.0
H370 H 0.70928 0.59523 0.66348 0.0
C371 C 0.78344 0.60641 0.75826 0.0
C372 C 0.73221 0.60137 0.75893 0.0
H373 H 0.84883 0.61476 0.72419 0.0
H374 H 0.80518 0.61069 0.78442 0.0
C375 C 0.7052 0.59536 0.72431 0.0
C376 C 0.24719 0.90072 0.93863 0.0
C377 C 0.23125 0.87474 0.90312 0.0
H378 H 0.23152 0.89691 0.99841 0.0
C379 C 0.18741 0.82215 0.9015 0.0
H380 H 0.2808 0.94127 0.94089 0.0
C381 C 0.15929 0.7966 0.93457 0.0
C382 C 0.17418 0.82328 0.9699 0.0
H383 H 0.17418 0.801 0.8746 0.0
H384 H 0.12505 0.75643 0.93225 0.0
C385 C 0.21885 0.87534 0.97163 0.0
C386 C 0.34411 0.14378 0.11564 0.0
C387 C 0.2946 0.11024 0.13343 0.0
H388 H 0.38527 0.19887 0.07026 0.0
C389 C 0.24782 0.10742 0.11869 0.0
H390 H 0.38085 0.14668 0.12629 0.0
C391 C 0.25041 0.13749 0.08689 0.0
C392 C 0.29975 0.17069 0.06884 0.0
H393 H 0.20906 0.08206 0.13177 0.0
H394 H 0.21351 0.13431 0.07629 0.0
C395 C 0.34663 0.17353 0.08349 0.0
loop_
_geom_bond_atom_site_label_1
_geom_bond_atom_site_label_2
_geom_bond_distance
_geom_bond_site_symmetry_2
_ccdc_geom_bond_type
C0 O1 1.160 1_455 S
C0 O7 1.185 . S
O1 C0 1.160 1_655 S
O2 Zn3 1.899 1_655 S
O2 C10 1.284 . S
Zn3 O2 1.899 1_455 S
Zn3 O4 2.032 . S
Zn3 O7 2.086 . S
Zn3 O12 1.977 . S
O4 Zn3 2.032 . S
O4 C8 1.278 . S
C5 O6 1.203 . S
C5 O12 1.267 . S
O6 C5 1.203 . S
O7 C0 1.185 . S
O7 Zn3 2.086 . S
C8 O4 1.278 . S
C8 O9 1.211 . S
O9 C8 1.211 . S
C10 O2 1.284 . S
C10 O11 1.273 . S
O11 C10 1.273 . S
O12 Zn3 1.977 . S
O12 C5 1.267 . S
C13 O14 1.160 1_545 S
C13 O20 1.185 . S
O14 C13 1.160 1_565 S
O15 Zn16 1.899 1_565 S
O15 C23 1.284 . S
Zn16 O15 1.899 1_545 S
Zn16 O17 2.032 . S
Zn16 O20 2.086 . S
Zn16 O25 1.977 . S
O17 Zn16 2.032 . S
O17 C21 1.278 . S
C18 O19 1.203 . S
C18 O25 1.267 . S
O19 C18 1.203 . S
O20 C13 1.185 . S
O20 Zn16 2.086 . S
C21 O17 1.278 . S
C21 O22 1.211 . S
O22 C21 1.211 . S
C23 O15 1.284 . S
C23 O24 1.273 . S
O24 C23 1.273 . S
O25 Zn16 1.977 . S
O25 C18 1.267 . S
C26 O27 1.160 . S
C26 O33 1.185 . S
O27 C26 1.160 . S
O28 Zn29 1.899 . S
O28 C36 1.284 . S
Zn29 O28 1.899 . S
Zn29 O30 2.032 . S
Zn29 O33 2.086 . S
Zn29 O38 1.977 . S
O30 Zn29 2.032 . S
O30 C34 1.278 . S
C31 O32 1.203 . S
C31 O38 1.267 . S
O32 C31 1.203 . S
O33 C26 1.185 . S
O33 Zn29 2.086 . S
C34 O30 1.278 . S
C34 O35 1.211 . S
O35 C34 1.211 . S
C36 O28 1.284 . S
C36 O37 1.273 . S
O37 C36 1.273 . S
O38 Zn29 1.977 . S
O38 C31 1.267 . S
C39 O40 1.160 1_655 S
C39 O46 1.185 . S
O40 C39 1.160 1_455 S
O41 Zn42 1.899 1_455 S
O41 C49 1.284 . S
Zn42 O41 1.899 1_655 S
Zn42 O43 2.032 . S
Zn42 O46 2.086 . S
Zn42 O51 1.977 . S
O43 Zn42 2.032 . S
O43 C47 1.278 . S
C44 O45 1.203 . S
C44 O51 1.267 . S
O45 C44 1.203 . S
O46 C39 1.185 . S
O46 Zn42 2.086 . S
C47 O43 1.278 . S
C47 O48 1.211 . S
O48 C47 1.211 . S
C49 O41 1.284 . S
C49 O50 1.273 . S
O50 C49 1.273 . S
O51 Zn42 1.977 . S
O51 C44 1.267 . S
C52 O53 1.160 1_565 S
C52 O59 1.185 . S
O53 C52 1.160 1_545 S
O54 Zn55 1.899 1_545 S
O54 C62 1.284 . S
Zn55 O54 1.899 1_565 S
Zn55 O56 2.032 . S
Zn55 O59 2.086 . S
Zn55 O64 1.977 . S
O56 Zn55 2.032 . S
O56 C60 1.278 . S
C57 O58 1.203 . S
C57 O64 1.267 . S
O58 C57 1.203 . S
O59 C52 1.185 . S
O59 Zn55 2.086 . S
C60 O56 1.278 . S
C60 O61 1.211 . S
O61 C60 1.211 . S
C62 O54 1.284 . S
C62 O63 1.273 . S
O63 C62 1.273 . S
O64 Zn55 1.977 . S
O64 C57 1.267 . S
C65 O66 1.160 . S
C65 O72 1.185 . S
O66 C65 1.160 . S
O67 Zn68 1.899 . S
O67 C75 1.284 . S
Zn68 O67 1.899 . S
Zn68 O69 2.032 . S
Zn68 O72 2.086 . S
Zn68 O77 1.977 . S
O69 Zn68 2.032 . S
O69 C73 1.278 . S
C70 O71 1.203 . S
C70 O77 1.267 1_554 S
O71 C70 1.203 . S
O72 C65 1.185 . S
O72 Zn68 2.086 . S
C73 O69 1.278 . S
C73 O74 1.211 . S
O74 C73 1.211 . S
C75 O67 1.284 . S
C75 O76 1.273 . S
O76 C75 1.273 . S
O77 Zn68 1.977 . S
O77 C70 1.267 1_556 S
C78 O79 1.160 1_565 S
C78 O85 1.185 . S
O79 C78 1.160 1_545 S
O80 Zn81 1.899 1_545 S
O80 C88 1.284 . S
Zn81 O80 1.899 1_565 S
Zn81 O82 2.032 . S
Zn81 O85 2.086 . S
Zn81 O90 1.977 . S
O82 Zn81 2.032 . S
O82 C86 1.278 . S
C83 O84 1.203 . S
C83 O90 1.267 . S
O84 C83 1.203 . S
O85 C78 1.185 . S
O85 Zn81 2.086 . S
C86 O82 1.278 . S
C86 O87 1.211 . S
O87 C86 1.211 . S
C88 O80 1.284 . S
C88 O89 1.273 . S
O89 C88 1.273 . S
O90 Zn81 1.977 . S
O90 C83 1.267 . S
C91 O92 1.160 . S
C91 O98 1.185 . S
O92 C91 1.160 . S
O93 Zn94 1.899 . S
O93 C101 1.284 . S
Zn94 O93 1.899 . S
Zn94 O95 2.032 . S
Zn94 O98 2.086 . S
Zn94 O103 1.977 . S
O95 Zn94 2.032 . S
O95 C99 1.278 . S
C96 O97 1.203 . S
C96 O103 1.267 . S
O97 C96 1.203 . S
O98 C91 1.185 . S
O98 Zn94 2.086 . S
C99 O95 1.278 . S
C99 O100 1.211 . S
O100 C99 1.211 . S
C101 O93 1.284 . S
C101 O102 1.273 . S
O102 C101 1.273 . S
O103 Zn94 1.977 . S
O103 C96 1.267 . S
C104 O105 1.160 1_455 S
C104 O111 1.185 . S
O105 C104 1.160 1_655 S
O106 Zn107 1.899 1_655 S
O106 C114 1.284 . S
Zn107 O106 1.899 1_455 S
Zn107 O108 2.032 . S
Zn107 O111 2.086 . S
Zn107 O116 1.977 . S
O108 Zn107 2.032 . S
O108 C112 1.278 . S
C109 O110 1.203 . S
C109 O116 1.267 1_556 S
O110 C109 1.203 . S
O111 C104 1.185 . S
O111 Zn107 2.086 . S
C112 O108 1.278 . S
C112 O113 1.211 . S
O113 C112 1.211 . S
C114 O106 1.284 . S
C114 O115 1.273 . S
O115 C114 1.273 . S
O116 Zn107 1.977 . S
O116 C109 1.267 1_554 S
C117 O118 1.160 1_545 S
C117 O124 1.185 . S
O118 C117 1.160 1_565 S
O119 Zn120 1.899 1_565 S
O119 C127 1.284 . S
Zn120 O119 1.899 1_545 S
Zn120 O121 2.032 . S
Zn120 O124 2.086 . S
Zn120 O129 1.977 . S
O121 Zn120 2.032 . S
O121 C125 1.278 . S
C122 O123 1.203 . S
C122 O129 1.267 . S
O123 C122 1.203 . S
O124 C117 1.185 . S
O124 Zn120 2.086 . S
C125 O121 1.278 . S
C125 O126 1.211 . S
O126 C125 1.211 . S
C127 O119 1.284 . S
C127 O128 1.273 . S
O128 C127 1.273 . S
O129 Zn120 1.977 . S
O129 C122 1.267 . S
C130 O131 1.160 . S
C130 O137 1.185 . S
O131 C130 1.160 . S
O132 Zn133 1.899 . S
O132 C140 1.284 . S
Zn133 O132 1.899 . S
Zn133 O134 2.032 . S
Zn133 O137 2.086 . S
Zn133 O142 1.977 . S
O134 Zn133 2.032 . S
O134 C138 1.278 . S
C135 O136 1.203 . S
C135 O142 1.267 . S
O136 C135 1.203 . S
O137 C130 1.185 . S
O137 Zn133 2.086 . S
C138 O134 1.278 . S
C138 O139 1.211 . S
O139 C138 1.211 . S
C140 O132 1.284 . S
C140 O141 1.273 . S
O141 C140 1.273 . S
O142 Zn133 1.977 . S
O142 C135 1.267 . S
C143 O144 1.160 1_655 S
C143 O150 1.185 . S
O144 C143 1.160 1_455 S
O145 Zn146 1.899 1_455 S
O145 C153 1.284 . S
Zn146 O145 1.899 1_655 S
Zn146 O147 2.032 . S
Zn146 O150 2.086 . S
Zn146 O155 1.977 . S
O147 Zn146 2.032 . S
O147 C151 1.278 . S
C148 O149 1.203 . S
C148 O155 1.267 . S
O149 C148 1.203 . S
O150 C143 1.185 . S
O150 Zn146 2.086 . S
C151 O147 1.278 . S
C151 O152 1.211 . S
O152 C151 1.211 . S
C153 O145 1.284 . S
C153 O154 1.273 . S
O154 C153 1.273 . S
O155 Zn146 1.977 . S
O155 C148 1.267 . S
C156 C157 1.387 . S
C156 H160 0.950 . S
C156 C165 1.390 . S
C157 C156 1.387 . S
C157 C159 1.387 . S
H158 C165 0.950 . S
C159 C157 1.387 . S
C159 C161 1.390 . S
C159 H163 0.950 . S
H160 C156 0.950 . S
C161 C159 1.390 . S
C161 C162 1.387 . S
C161 H164 0.950 . S
C162 C161 1.387 . S
C162 C165 1.387 . S
H163 C159 0.950 . S
H164 C161 0.950 . S
C165 C156 1.390 . S
C165 H158 0.950 . S
C165 C162 1.387 . S
C166 C167 1.393 . S
C166 H170 0.939 1_545 S
C166 C175 1.390 . S
C167 C166 1.393 . S
C167 C169 1.387 . S
H168 C175 0.945 1_565 S
C169 C167 1.387 . S
C169 C171 1.390 . S
C169 H173 0.950 . S
H170 C166 0.939 1_565 S
C171 C169 1.390 . S
C171 C172 1.387 . S
C171 H174 0.950 . S
C172 C171 1.387 . S
C172 C175 1.398 . S
H173 C169 0.950 . S
H174 C171 0.950 . S
C175 C166 1.390 . S
C175 H168 0.945 1_545 S
C175 C172 1.398 . S
C176 C177 1.387 . S
C176 H180 0.950 . S
C176 C185 1.390 . S
C177 C176 1.387 . S
C177 C179 1.387 . S
H178 C185 0.950 . S
C179 C177 1.387 . S
C179 C181 1.390 . S
C179 H183 0.950 . S
H180 C176 0.950 . S
C181 C179 1.390 . S
C181 C182 1.387 . S
C181 H184 0.950 . S
C182 C181 1.387 . S
C182 C185 1.387 . S
H183 C179 0.950 . S
H184 C181 0.950 . S
C185 C176 1.390 . S
C185 H178 0.950 . S
C185 C182 1.387 . S
C186 C187 1.387 . S
C186 H190 0.950 . S
C186 C195 1.390 . S
C187 C186 1.387 . S
C187 C189 1.387 . S
H188 C195 0.950 . S
C189 C187 1.387 . S
C189 C191 1.390 . S
C189 H193 0.950 . S
H190 C186 0.950 . S
C191 C189 1.390 . S
C191 C192 1.387 . S
C191 H194 0.950 . S
C192 C191 1.387 . S
C192 C195 1.387 . S
H193 C189 0.950 . S
H194 C191 0.950 . S
C195 C186 1.390 . S
C195 H188 0.950 . S
C195 C192 1.387 . S
C196 C197 1.398 . S
C196 H200 0.945 1_565 S
C196 C205 1.390 . S
C197 C196 1.398 . S
C197 C199 1.387 . S
H198 C205 0.939 1_545 S
C199 C197 1.387 . S
C199 C201 1.390 . S
C199 H203 0.950 . S
H200 C196 0.945 1_545 S
C201 C199 1.390 . S
C201 C202 1.387 . S
C201 H204 0.950 . S
C202 C201 1.387 . S
C202 C205 1.393 . S
H203 C199 0.950 . S
H204 C201 0.950 . S
C205 C196 1.390 . S
C205 H198 0.939 1_565 S
C205 C202 1.393 . S
C206 C207 1.387 . S
C206 H210 0.950 . S
C206 C215 1.390 . S
C207 C206 1.387 . S
C207 C209 1.387 . S
H208 C215 0.950 . S
C209 C207 1.387 . S
C209 C211 1.390 . S
C209 H213 0.950 . S
H210 C206 0.950 . S
C211 C209 1.390 . S
C211 C212 1.387 . S
C211 H214 0.950 . S
C212 C211 1.387 . S
C212 C215 1.387 . S
H213 C209 0.950 . S
H214 C211 0.950 . S
C215 C206 1.390 . S
C215 H208 0.950 . S
C215 C212 1.387 . S
C216 C217 1.387 . S
C216 H220 0.950 . S
C216 C225 1.390 . S
C217 C216 1.387 . S
C217 C219 1.387 . S
H218 C225 0.950 1_556 S
C219 C217 1.387 . S
C219 C221 1.390 . S
C219 H223 0.950 . S
H220 C216 0.950 . S
C221 C219 1.390 . S
C221 C222 1.387 1_554 S
C221 H224 0.950 1_554 S
C222 C221 1.387 1_556 S
C222 C225 1.387 1_556 S
H223 C219 0.950 . S
H224 C221 0.950 1_556 S
C225 C216 1.390 . S
C225 H218 0.950 1_554 S
C225 C222 1.387 1_554 S
C226 C227 1.387 . S
C226 H230 0.950 . S
C226 C235 1.390 . S
C227 C226 1.387 . S
C227 C229 1.387 . S
H228 C235 0.950 . S
C229 C227 1.387 . S
C229 C231 1.390 . S
C229 H233 0.950 . S
H230 C226 0.950 . S
C231 C229 1.390 . S
C231 C232 1.387 . S
C231 H234 0.950 . S
C232 C231 1.387 . S
C232 C235 1.387 . S
H233 C229 0.950 . S
H234 C231 0.950 . S
C235 C226 1.390 . S
C235 H228 0.950 . S
C235 C232 1.387 . S
C236 C237 1.387 . S
C236 H240 0.950 . S
C236 C245 1.390 . S
C237 C236 1.387 . S
C237 C239 1.387 . S
H238 C245 0.950 . S
C239 C237 1.387 . S
C239 C241 1.390 . S
C239 H243 0.950 . S
H240 C236 0.950 . S
C241 C239 1.390 . S
C241 C242 1.387 . S
C241 H244 0.950 . S
C242 C241 1.387 . S
C242 C245 1.387 . S
H243 C239 0.950 . S
H244 C241 0.950 . S
C245 C236 1.390 . S
C245 H238 0.950 . S
C245 C242 1.387 . S
C246 C247 1.387 . S
C246 H250 0.950 . S
C246 C255 1.390 . S
C247 C246 1.387 . S
C247 C249 1.387 . S
H248 C255 0.950 . S
C249 C247 1.387 . S
C249 C251 1.390 . S
C249 H253 0.950 . S
H250 C246 0.950 . S
C251 C249 1.390 . S
C251 C252 1.387 . S
C251 H254 0.950 . S
C252 C251 1.387 . S
C252 C255 1.387 . S
H253 C249 0.950 . S
H254 C251 0.950 . S
C255 C246 1.390 . S
C255 H248 0.950 . S
C255 C252 1.387 . S
C256 C257 1.387 . S
C256 H260 0.950 . S
C256 C265 1.390 . S
C257 C256 1.387 . S
C257 C259 1.387 . S
H258 C265 0.950 . S
C259 C257 1.387 . S
C259 C261 1.390 . S
C259 H263 0.950 . S
H260 C256 0.950 . S
C261 C259 1.390 . S
C261 C262 1.387 . S
C261 H264 0.950 . S
C262 C261 1.387 . S
C262 C265 1.387 . S
H263 C259 0.950 . S
H264 C261 0.950 . S
C265 C256 1.390 . S
C265 H258 0.950 . S
C265 C262 1.387 . S
C266 C267 1.387 . S
C266 H270 0.950 . S
C266 C275 1.390 . S
C267 C266 1.387 . S
C267 C269 1.387 . S
H268 C275 0.950 . S
C269 C267 1.387 . S
C269 C271 1.390 . S
C269 H273 0.950 . S
H270 C266 0.950 . S
C271 C269 1.390 . S
C271 C272 1.387 . S
C271 H274 0.950 . S
C272 C271 1.387 . S
C272 C275 1.387 . S
H273 C269 0.950 . S
H274 C271 0.950 . S
C275 C266 1.390 . S
C275 H268 0.950 . S
C275 C272 1.387 . S
C276 C277 1.387 . S
C276 H280 0.950 . S
C276 C285 1.390 . S
C277 C276 1.387 . S
C277 C279 1.387 . S
H278 C285 0.950 . S
C279 C277 1.387 . S
C279 C281 1.390 . S
C279 H283 0.950 . S
H280 C276 0.950 . S
C281 C279 1.390 . S
C281 C282 1.387 . S
C281 H284 0.950 . S
C282 C281 1.387 . S
C282 C285 1.387 . S
H283 C279 0.950 . S
H284 C281 0.950 . S
C285 C276 1.390 . S
C285 H278 0.950 . S
C285 C282 1.387 . S
C286 C287 1.387 . S
C286 H290 0.950 . S
C286 C295 1.390 . S
C287 C286 1.387 . S
C287 C289 1.387 . S
H288 C295 0.950 1_554 S
C289 C287 1.387 . S
C289 C291 1.390 . S
C289 H293 0.950 . S
H290 C286 0.950 . S
C291 C289 1.390 . S
C291 C292 1.387 1_556 S
C291 H294 0.950 1_556 S
C292 C291 1.387 1_554 S
C292 C295 1.387 1_554 S
H293 C289 0.950 . S
H294 C291 0.950 1_554 S
C295 C286 1.390 . S
C295 H288 0.950 1_556 S
C295 C292 1.387 1_556 S
C296 C297 1.387 . S
C296 H300 0.950 . S
C296 C305 1.390 . S
C297 C296 1.387 . S
C297 C299 1.387 . S
H298 C305 0.950 . S
C299 C297 1.387 . S
C299 C301 1.390 . S
C299 H303 0.950 . S
H300 C296 0.950 . S
C301 C299 1.390 . S
C301 C302 1.387 . S
C301 H304 0.950 . S
C302 C301 1.387 . S
C302 C305 1.387 . S
H303 C299 0.950 . S
H304 C301 0.950 . S
C305 C296 1.390 . S
C305 H298 0.950 . S
C305 C302 1.387 . S
C306 C307 1.387 . S
C306 H310 0.950 . S
C306 C315 1.390 . S
C307 C306 1.387 . S
C307 C309 1.387 . S
H308 C315 0.950 . S
C309 C307 1.387 . S
C309 C311 1.390 . S
C309 H313 0.950 . S
H310 C306 0.950 . S
C311 C309 1.390 . S
C311 C312 1.387 . S
C311 H314 0.950 . S
C312 C311 1.387 . S
C312 C315 1.387 . S
H313 C309 0.950 . S
H314 C311 0.950 . S
C315 C306 1.390 . S
C315 H308 0.950 . S
C315 C312 1.387 . S
C316 C317 1.387 . S
C316 H320 0.950 . S
C316 C325 1.390 . S
C317 C316 1.387 . S
C317 C319 1.387 . S
H318 C325 0.950 . S
C319 C317 1.387 . S
C319 C321 1.390 . S
C319 H323 0.950 . S
H320 C316 0.950 . S
C321 C319 1.390 . S
C321 C322 1.387 . S
C321 H324 0.950 . S
C322 C321 1.387 . S
C322 C325 1.387 . S
H323 C319 0.950 . S
H324 C321 0.950 . S
C325 C316 1.390 . S
C325 H318 0.950 . S
C325 C322 1.387 . S
C326 C327 1.387 . S
C326 H330 0.950 . S
C326 C335 1.390 . S
C327 C326 1.387 . S
C327 C329 1.387 . S
H328 C335 0.950 . S
C329 C327 1.387 . S
C329 C331 1.390 . S
C329 H333 0.950 . S
H330 C326 0.950 . S
C331 C329 1.390 . S
C331 C332 1.387 . S
C331 H334 0.950 . S
C332 C331 1.387 . S
C332 C335 1.387 . S
H333 C329 0.950 . S
H334 C331 0.950 . S
C335 C326 1.390 . S
C335 H328 0.950 . S
C335 C332 1.387 . S
C336 C337 1.387 . S
C336 H340 0.950 . S
C336 C345 1.390 . S
C337 C336 1.387 . S
C337 C339 1.387 . S
H338 C345 0.950 . S
C339 C337 1.387 . S
C339 C341 1.390 . S
C339 H343 0.950 . S
H340 C336 0.950 . S
C341 C339 1.390 . S
C341 C342 1.387 . S
C341 H344 0.950 . S
C342 C341 1.387 . S
C342 C345 1.387 . S
H343 C339 0.950 . S
H344 C341 0.950 . S
C345 C336 1.390 . S
C345 H338 0.950 . S
C345 C342 1.387 . S
C346 C347 1.387 . S
C346 H350 0.950 . S
C346 C355 1.390 . S
C347 C346 1.387 . S
C347 C349 1.387 . S
H348 C355 0.950 . S
C349 C347 1.387 . S
C349 C351 1.390 . S
C349 H353 0.950 . S
H350 C346 0.950 . S
C351 C349 1.390 . S
C351 C352 1.387 . S
C351 H354 0.950 . S
C352 C351 1.387 . S
C352 C355 1.387 . S
H353 C349 0.950 . S
H354 C351 0.950 . S
C355 C346 1.390 . S
C355 H348 0.950 . S
C355 C352 1.387 . S
C356 C357 1.387 . S
C356 H360 0.950 . S
C356 C365 1.390 . S
C357 C356 1.387 . S
C357 C359 1.387 . S
H358 C365 0.950 . S
C359 C357 1.387 . S
C359 C361 1.390 . S
C359 H363 0.950 . S
H360 C356 0.950 . S
C361 C359 1.390 . S
C361 C362 1.387 . S
C361 H364 0.950 . S
C362 C361 1.387 . S
C362 C365 1.387 . S
H363 C359 0.950 . S
H364 C361 0.950 . S
C365 C356 1.390 . S
C365 H358 0.950 . S
C365 C362 1.387 . S
C366 C367 1.387 . S
C366 H370 0.950 . S
C366 C375 1.390 . S
C367 C366 1.387 . S
C367 C369 1.387 . S
H368 C375 0.950 . S
C369 C367 1.387 . S
C369 C371 1.390 . S
C369 H373 0.950 . S
H370 C366 0.950 . S
C371 C369 1.390 . S
C371 C372 1.387 . S
C371 H374 0.950 . S
C372 C371 1.387 . S
C372 C375 1.387 . S
H373 C369 0.950 . S
H374 C371 0.950 . S
C375 C366 1.390 . S
C375 H368 0.950 . S
C375 C372 1.387 . S
C376 C377 1.387 . S
C376 H380 0.950 . S
C376 C385 1.390 . S
C377 C376 1.387 . S
C377 C379 1.387 . S
H378 C385 0.950 . S
C379 C377 1.387 . S
C379 C381 1.390 . S
C379 H383 0.950 . S
H380 C376 0.950 . S
C381 C379 1.390 . S
C381 C382 1.387 . S
C381 H384 0.950 . S
C382 C381 1.387 . S
C382 C385 1.387 . S
H383 C379 0.950 . S
H384 C381 0.950 . S
C385 C376 1.390 . S
C385 H378 0.950 . S
C385 C382 1.387 . S
C386 C387 1.387 . S
C386 H390 0.950 . S
C386 C395 1.390 . S
C387 C386 1.387 . S
C387 C389 1.387 . S
H388 C395 0.950 . S
C389 C387 1.387 . S
C389 C391 1.390 . S
C389 H393 0.950 . S
H390 C386 0.950 . S
C391 C389 1.390 . S
C391 C392 1.387 . S
C391 H394 0.950 . S
C392 C391 1.387 . S
C392 C395 1.387 . S
H393 C389 0.950 . S
H394 C391 0.950 . S
C395 C386 1.390 . S
C395 H388 0.950 . S
C395 C392 1.387 . S
C157 C104 1.458 . S
C162 C0 1.456 . S
C167 C13 1.458 . S
C172 C117 1.458 . S
C177 C26 1.456 . S
C182 C130 1.458 . S
C187 C39 1.456 . S
C192 C143 1.458 . S
C197 C78 1.458 . S
C202 C52 1.458 . S
C207 C65 1.458 . S
C212 C91 1.456 . S
C217 C8 1.419 . S
C222 C75 1.463 . S
C227 C21 1.417 . S
C232 C10 1.462 . S
C237 C34 1.415 . S
C242 C23 1.463 . S
C247 C36 1.464 . S
C252 C47 1.416 . S
C257 C49 1.464 . S
C262 C60 1.418 . S
C267 C62 1.462 . S
C272 C73 1.419 . S
C277 C101 1.464 . S
C282 C86 1.416 . S
C287 C99 1.416 . S
C292 C114 1.464 . S
C297 C127 1.462 . S
C302 C112 1.417 . S
C307 C125 1.417 . S
C312 C140 1.464 . S
C317 C138 1.416 . S
C322 C153 1.464 . S
C327 C151 1.418 . S
C332 C88 1.464 . S
C337 C135 1.269 . S
C342 C5 1.269 . S
C347 C148 1.269 . S
C352 C18 1.270 . S
C357 C83 1.268 . S
C362 C31 1.269 . S
C367 C44 1.269 . S
C372 C96 1.268 . S
C377 C57 1.270 . S
C382 C109 1.267 . S
C387 C122 1.270 . S
C392 C70 1.268 . S
